# Generated by pormake.
# Topology ctn, (3,4)-cn, num edge types: 1
# Building blocks:
#     Node 0, Type 0, BuildingBlock: VETTIZ_charged_linker_0, # of connection points: 3
#     Node 1, Type 0, BuildingBlock: VETTIZ_charged_linker_0, # of connection points: 3
#     Node 2, Type 0, BuildingBlock: VETTIZ_charged_linker_0, # of connection points: 3
#     Node 3, Type 0, BuildingBlock: VETTIZ_charged_linker_0, # of connection points: 3
#     Node 4, Type 0, BuildingBlock: VETTIZ_charged_linker_0, # of connection points: 3
#     Node 5, Type 0, BuildingBlock: VETTIZ_charged_linker_0, # of connection points: 3
#     Node 6, Type 0, BuildingBlock: VETTIZ_charged_linker_0, # of connection points: 3
#     Node 7, Type 0, BuildingBlock: VETTIZ_charged_linker_0, # of connection points: 3
#     Node 8, Type 0, BuildingBlock: VETTIZ_charged_linker_0, # of connection points: 3
#     Node 9, Type 0, BuildingBlock: VETTIZ_charged_linker_0, # of connection points: 3
#     Node 10, Type 0, BuildingBlock: VETTIZ_charged_linker_0, # of connection points: 3
#     Node 11, Type 0, BuildingBlock: VETTIZ_charged_linker_0, # of connection points: 3
#     Node 12, Type 0, BuildingBlock: VETTIZ_charged_linker_0, # of connection points: 3
#     Node 13, Type 0, BuildingBlock: VETTIZ_charged_linker_0, # of connection points: 3
#     Node 14, Type 0, BuildingBlock: VETTIZ_charged_linker_0, # of connection points: 3
#     Node 15, Type 0, BuildingBlock: VETTIZ_charged_linker_0, # of connection points: 3
#     Node 16, Type 1, BuildingBlock: QUQFOY_clean_sbu_1, # of connection points: 4
#     Node 17, Type 1, BuildingBlock: QUQFOY_clean_sbu_1, # of connection points: 4
#     Node 18, Type 1, BuildingBlock: QUQFOY_clean_sbu_1, # of connection points: 4
#     Node 19, Type 1, BuildingBlock: QUQFOY_clean_sbu_1, # of connection points: 4
#     Node 20, Type 1, BuildingBlock: QUQFOY_clean_sbu_1, # of connection points: 4
#     Node 21, Type 1, BuildingBlock: QUQFOY_clean_sbu_1, # of connection points: 4
#     Node 22, Type 1, BuildingBlock: QUQFOY_clean_sbu_1, # of connection points: 4
#     Node 23, Type 1, BuildingBlock: QUQFOY_clean_sbu_1, # of connection points: 4
#     Node 24, Type 1, BuildingBlock: QUQFOY_clean_sbu_1, # of connection points: 4
#     Node 25, Type 1, BuildingBlock: QUQFOY_clean_sbu_1, # of connection points: 4
#     Node 26, Type 1, BuildingBlock: QUQFOY_clean_sbu_1, # of connection points: 4
#     Node 27, Type 1, BuildingBlock: QUQFOY_clean_sbu_1, # of connection points: 4
#     Edge 28, Type (0, 1), BuildingBlock: OJICUG_clean_linker_0, # of connection points: 2
#     Edge 29, Type (0, 1), BuildingBlock: OJICUG_clean_linker_0, # of connection points: 2
#     Edge 30, Type (0, 1), BuildingBlock: OJICUG_clean_linker_0, # of connection points: 2
#     Edge 31, Type (0, 1), BuildingBlock: OJICUG_clean_linker_0, # of connection points: 2
#     Edge 32, Type (0, 1), BuildingBlock: OJICUG_clean_linker_0, # of connection points: 2
#     Edge 33, Type (0, 1), BuildingBlock: OJICUG_clean_linker_0, # of connection points: 2
#     Edge 34, Type (0, 1), BuildingBlock: OJICUG_clean_linker_0, # of connection points: 2
#     Edge 35, Type (0, 1), BuildingBlock: OJICUG_clean_linker_0, # of connection points: 2
#     Edge 36, Type (0, 1), BuildingBlock: OJICUG_clean_linker_0, # of connection points: 2
#     Edge 37, Type (0, 1), BuildingBlock: OJICUG_clean_linker_0, # of connection points: 2
#     Edge 38, Type (0, 1), BuildingBlock: OJICUG_clean_linker_0, # of connection points: 2
#     Edge 39, Type (0, 1), BuildingBlock: OJICUG_clean_linker_0, # of connection points: 2
#     Edge 40, Type (0, 1), BuildingBlock: OJICUG_clean_linker_0, # of connection points: 2
#     Edge 41, Type (0, 1), BuildingBlock: OJICUG_clean_linker_0, # of connection points: 2
#     Edge 42, Type (0, 1), BuildingBlock: OJICUG_clean_linker_0, # of connection points: 2
#     Edge 43, Type (0, 1), BuildingBlock: OJICUG_clean_linker_0, # of connection points: 2
#     Edge 44, Type (0, 1), BuildingBlock: OJICUG_clean_linker_0, # of connection points: 2
#     Edge 45, Type (0, 1), BuildingBlock: OJICUG_clean_linker_0, # of connection points: 2
#     Edge 46, Type (0, 1), BuildingBlock: OJICUG_clean_linker_0, # of connection points: 2
#     Edge 47, Type (0, 1), BuildingBlock: OJICUG_clean_linker_0, # of connection points: 2
#     Edge 48, Type (0, 1), BuildingBlock: OJICUG_clean_linker_0, # of connection points: 2
#     Edge 49, Type (0, 1), BuildingBlock: OJICUG_clean_linker_0, # of connection points: 2
#     Edge 50, Type (0, 1), BuildingBlock: OJICUG_clean_linker_0, # of connection points: 2
#     Edge 51, Type (0, 1), BuildingBlock: OJICUG_clean_linker_0, # of connection points: 2
#     Edge 52, Type (0, 1), BuildingBlock: OJICUG_clean_linker_0, # of connection points: 2
#     Edge 53, Type (0, 1), BuildingBlock: OJICUG_clean_linker_0, # of connection points: 2
#     Edge 54, Type (0, 1), BuildingBlock: OJICUG_clean_linker_0, # of connection points: 2
#     Edge 55, Type (0, 1), BuildingBlock: OJICUG_clean_linker_0, # of connection points: 2
#     Edge 56, Type (0, 1), BuildingBlock: OJICUG_clean_linker_0, # of connection points: 2
#     Edge 57, Type (0, 1), BuildingBlock: OJICUG_clean_linker_0, # of connection points: 2
#     Edge 58, Type (0, 1), BuildingBlock: OJICUG_clean_linker_0, # of connection points: 2
#     Edge 59, Type (0, 1), BuildingBlock: OJICUG_clean_linker_0, # of connection points: 2
#     Edge 60, Type (0, 1), BuildingBlock: OJICUG_clean_linker_0, # of connection points: 2
#     Edge 61, Type (0, 1), BuildingBlock: OJICUG_clean_linker_0, # of connection points: 2
#     Edge 62, Type (0, 1), BuildingBlock: OJICUG_clean_linker_0, # of connection points: 2
#     Edge 63, Type (0, 1), BuildingBlock: OJICUG_clean_linker_0, # of connection points: 2
#     Edge 64, Type (0, 1), BuildingBlock: OJICUG_clean_linker_0, # of connection points: 2
#     Edge 65, Type (0, 1), BuildingBlock: OJICUG_clean_linker_0, # of connection points: 2
#     Edge 66, Type (0, 1), BuildingBlock: OJICUG_clean_linker_0, # of connection points: 2
#     Edge 67, Type (0, 1), BuildingBlock: OJICUG_clean_linker_0, # of connection points: 2
#     Edge 68, Type (0, 1), BuildingBlock: OJICUG_clean_linker_0, # of connection points: 2
#     Edge 69, Type (0, 1), BuildingBlock: OJICUG_clean_linker_0, # of connection points: 2
#     Edge 70, Type (0, 1), BuildingBlock: OJICUG_clean_linker_0, # of connection points: 2
#     Edge 71, Type (0, 1), BuildingBlock: OJICUG_clean_linker_0, # of connection points: 2
#     Edge 72, Type (0, 1), BuildingBlock: OJICUG_clean_linker_0, # of connection points: 2
#     Edge 73, Type (0, 1), BuildingBlock: OJICUG_clean_linker_0, # of connection points: 2
#     Edge 74, Type (0, 1), BuildingBlock: OJICUG_clean_linker_0, # of connection points: 2
#     Edge 75, Type (0, 1), BuildingBlock: OJICUG_clean_linker_0, # of connection points: 2
# Relax obj value: 0.037
# Max RMSD: 0.143
# Mean RMSD: 0.066
data_MOF--net-ctn--node1-QUQFOY_clean_sbu_1--node2-VETTIZ_charged_linker_0--edge1-OJICUG_clean_linker_0
_symmetry_space_group_name_H-M    P1
_symmetry_Int_Tables_number       1
_symmetry_cell_setting            triclinic
loop_
_symmetry_equiv_pos_as_xyz
'x, y, z'
_cell_length_a     52.408886
_cell_length_b     52.291533
_cell_length_c     52.586573
_cell_angle_alpha  92.955512
_cell_angle_beta   89.950092
_cell_angle_gamma 94.700875
loop_
_atom_site_label
_atom_site_type_symbol
_atom_site_fract_x
_atom_site_fract_y
_atom_site_fract_z
_atom_type_partial_charge
C0 C 0.03982 0.14183 0.99548 0.0
C1 C 0.02015 0.15841 -0.00129 0.0
C2 C 0.00658 0.15904 0.02188 0.0
C3 C 0.03109 0.1258 0.0374 0.0
C4 C 0.04493 0.12576 0.01502 0.0
C5 C 0.06445 0.10622 0.01433 0.0
H6 H 0.11876 0.01067 0.0705 0.0
C7 C 0.04042 0.10612 0.05335 0.0
C8 C 0.06016 0.09476 0.0401 0.0
H9 H 0.13137 0.03785 0.99464 0.0
H10 H 0.10258 0.07037 0.00304 0.0
H11 H 0.11498 0.06593 0.1008 0.0
H12 H 0.05841 0.01074 0.06591 0.0
H13 H 0.04587 0.02168 0.09501 0.0
H14 H 0.07466 0.00513 0.09487 0.0
H15 H 0.10553 0.03591 0.11455 0.0
H16 H 0.0883 0.06402 0.12113 0.0
C17 C 0.09133 0.12069 0.01251 0.0
C18 C 0.05762 0.0863 0.99194 0.0
C19 C 0.99348 0.08348 0.13456 0.0
C20 C -0.0031 0.06507 0.15255 0.0
C21 C 0.01909 0.05147 0.15119 0.0
C22 C 0.03667 0.05496 0.13136 0.0
C23 C 0.03202 0.07212 0.11257 0.0
C24 C 0.01124 0.08672 0.11486 0.0
C25 C 0.0098 0.10456 0.09349 0.0
C26 C 0.03241 0.09732 0.07738 0.0
C27 C 0.04518 0.07811 0.08851 0.0
C28 C 0.01364 0.13259 0.10482 0.0
C29 C 0.98397 0.09783 0.07938 0.0
C30 C 0.11533 0.0235 0.0556 0.0
C31 C 0.12787 0.02158 0.03194 0.0
C32 C 0.12276 0.03906 0.01333 0.0
C33 C 0.10565 0.05787 0.01808 0.0
C34 C 0.09289 0.05906 0.04149 0.0
C35 C 0.09775 0.04206 0.05979 0.0
C36 C 0.0809 0.04499 0.08277 0.0
C37 C 0.06535 0.06671 0.07525 0.0
C38 C 0.07263 0.07493 0.05112 0.0
C39 C 0.09817 0.05295 0.10619 0.0
C40 C 0.06411 0.01937 0.08506 0.0
H41 H 0.0008 0.14409 0.05826 0.0
H42 H 0.05046 0.14078 0.97784 0.0
H43 H 0.03684 0.08509 0.98725 0.0
H44 H 0.06124 0.0665 -0.00349 0.0
H45 H 0.06829 0.09144 0.97442 0.0
H46 H 0.09268 0.13846 0.0252 0.0
H47 H 0.09532 0.12647 0.99277 0.0
H48 H 0.10686 0.10941 0.01877 0.0
H49 H 0.97674 0.09433 0.13506 0.0
H50 H 0.02263 0.03774 0.16524 0.0
H51 H 0.05288 0.04368 0.13109 0.0
H52 H 0.0252 0.13387 0.12265 0.0
H53 H 0.995 0.14038 0.10948 0.0
H54 H 0.02452 0.14557 0.09198 0.0
H55 H 0.97972 0.07664 0.07711 0.0
H56 H 0.98385 0.10467 0.0599 0.0
H57 H 0.96795 0.10583 0.09016 0.0
H58 H 0.99167 0.17201 0.02502 0.0
C59 C 0.012 0.1429 0.04123 0.0
C60 C 0.22716 0.64905 0.23005 0.0
C61 C 0.20516 0.64215 0.21525 0.0
C62 C 0.1984 0.65863 0.19636 0.0
C63 C 0.23537 0.6881 0.20742 0.0
C64 C 0.24194 0.67179 0.22574 0.0
C65 C 0.26597 0.68136 0.23982 0.0
H66 H 0.36838 0.76741 0.25296 0.0
C67 C 0.25491 0.71018 0.20806 0.0
C68 C 0.27291 0.70616 0.22691 0.0
H69 H 0.34786 0.70188 0.29818 0.0
H70 H 0.30963 0.69205 0.27344 0.0
H71 H 0.31492 0.78763 0.25685 0.0
H72 H 0.34887 0.74219 0.1976 0.0
H73 H 0.33344 0.76648 0.18328 0.0
H74 H 0.35896 0.77525 0.20574 0.0
H75 H 0.33534 0.80217 0.23335 0.0
H76 H 0.3012 0.79622 0.22844 0.0
C77 C 0.25928 0.68618 0.26834 0.0
C78 C 0.286 0.66149 0.23465 0.0
C79 C 0.24934 0.78221 0.14733 0.0
C80 C 0.26574 0.80418 0.14296 0.0
C81 C 0.28756 0.80999 0.15846 0.0
C82 C 0.29348 0.79376 0.17751 0.0
C83 C 0.27748 0.77139 0.18109 0.0
C84 C 0.25563 0.76605 0.16641 0.0
C85 C 0.24124 0.74109 0.17278 0.0
C86 C 0.25799 0.73254 0.19378 0.0
C87 C 0.27924 0.75033 0.19837 0.0
C88 C 0.21443 0.74702 0.18267 0.0
C89 C 0.24079 0.72249 0.14884 0.0
C90 C 0.35568 0.75099 0.25772 0.0
C91 C 0.36163 0.73523 0.27746 0.0
C92 C 0.34437 0.71399 0.28268 0.0
C93 C 0.3219 0.70844 0.26845 0.0
C94 C 0.31631 0.7244 0.24889 0.0
C95 C 0.33284 0.74549 0.24408 0.0
C96 C 0.32281 0.76135 0.22384 0.0
C97 C 0.2978 0.74586 0.21689 0.0
C98 C 0.29437 0.7241 0.23134 0.0
C99 C 0.31844 0.78832 0.23602 0.0
C100 C 0.34198 0.76159 0.20139 0.0
H101 H 0.20729 0.69335 0.17779 0.0
H102 H 0.23264 0.63725 0.24514 0.0
H103 H 0.28499 0.6539 0.21448 0.0
H104 H 0.30594 0.66966 0.23739 0.0
H105 H 0.28253 0.6449 0.24693 0.0
H106 H 0.23908 0.69095 0.27075 0.0
H107 H 0.26176 0.66896 0.27931 0.0
H108 H 0.27076 0.70291 0.27738 0.0
H109 H 0.23262 0.77714 0.13546 0.0
H110 H 0.30032 0.82695 0.15551 0.0
H111 H 0.31057 0.79905 0.18836 0.0
H112 H 0.21578 0.7647 0.19548 0.0
H113 H 0.20146 0.75021 0.16665 0.0
H114 H 0.20534 0.73177 0.19418 0.0
H115 H 0.25878 0.72546 0.13774 0.0
H116 H 0.23971 0.70209 0.1535 0.0
H117 H 0.22458 0.72557 0.13605 0.0
H118 H 0.1816 0.6537 0.18458 0.0
C119 C 0.21338 0.68158 0.19239 0.0
C120 C 0.9587 0.39333 0.01601 0.0
C121 C 0.95036 0.39251 0.99058 0.0
C122 C 0.93476 0.41129 0.98265 0.0
C123 C 0.93612 0.43141 0.02515 0.0
C124 C 0.95147 0.41299 0.0329 0.0
C125 C 0.95979 0.41767 0.06024 0.0
H126 H 0.95993 0.49328 0.16826 0.0
C127 C 0.93216 0.44916 0.04719 0.0
C128 C 0.94575 0.44115 0.06789 0.0
H129 H 0.00845 0.43213 0.14869 0.0
H130 H 0.98407 0.42148 0.11028 0.0
H131 H 0.90519 0.4658 0.14413 0.0
H132 H 0.96637 0.5167 0.11582 0.0
H133 H 0.93717 0.52827 0.10744 0.0
H134 H 0.94491 0.52642 0.14047 0.0
H135 H 0.90887 0.49933 0.15378 0.0
H136 H 0.89118 0.48782 0.12541 0.0
C137 C 0.94998 0.39412 0.07517 0.0
C138 C 0.98935 0.42352 0.06091 0.0
C139 C 0.88063 0.52566 0.03639 0.0
C140 C 0.87147 0.54435 0.05353 0.0
C141 C 0.87698 0.54325 0.07971 0.0
C142 C 0.89161 0.52418 0.0885 0.0
C143 C 0.90085 0.50597 0.07098 0.0
C144 C 0.89469 0.50653 0.04553 0.0
C145 C 0.90412 0.4844 0.02991 0.0
C146 C 0.91794 0.47102 0.05005 0.0
C147 C 0.91641 0.484 0.07395 0.0
C148 C 0.88054 0.46753 0.01888 0.0
C149 C 0.92281 0.49542 0.00959 0.0
C150 C 0.96534 0.47751 0.15579 0.0
C151 C 0.98659 0.46397 0.16142 0.0
C152 C 0.99226 0.443 0.14499 0.0
C153 C 0.97837 0.43712 0.12238 0.0
C154 C 0.95903 0.45269 0.11582 0.0
C155 C 0.95246 0.47219 0.13266 0.0
C156 C 0.93343 0.48854 0.12151 0.0
C157 C 0.93026 0.47608 0.09491 0.0
C158 C 0.94499 0.45486 0.09184 0.0
C159 C 0.90834 0.48548 0.13701 0.0
C160 C 0.94585 0.51652 0.12133 0.0
H161 H 0.91566 0.44443 0.9926 0.0
H162 H 0.97108 0.37934 0.02244 0.0
H163 H -0.00301 0.42965 0.04224 0.0
H164 H 0.9955 0.43973 0.0745 0.0
H165 H -0.00085 0.40636 0.06577 0.0
H166 H 0.92964 0.38819 0.07026 0.0
H167 H 0.96137 0.37751 0.07046 0.0
H168 H 0.95051 0.39808 0.096 0.0
H169 H 0.87705 0.52578 0.01614 0.0
H170 H 0.86967 0.55685 0.09353 0.0
H171 H 0.89519 0.52436 0.1086 0.0
H172 H 0.86329 0.46952 0.03095 0.0
H173 H 0.87571 0.47301 -0.00055 0.0
H174 H 0.8833 0.44676 0.01838 0.0
H175 H 0.93534 0.51195 0.0179 0.0
H176 H 0.93603 0.48149 0.00213 0.0
H177 H 0.91219 0.50234 0.99337 0.0
H178 H 0.92804 0.41086 0.96314 0.0
C179 C 0.9275 0.43066 -0.00018 0.0
C180 C 0.65035 0.8066 0.3041 0.0
C181 C 0.63328 0.78446 0.30252 0.0
C182 C 0.64004 0.76269 0.28791 0.0
C183 C 0.67921 0.78638 0.27477 0.0
C184 C 0.67298 0.80717 0.29012 0.0
C185 C 0.69212 0.82996 0.28855 0.0
H186 H 0.79917 0.88548 0.23708 0.0
C187 C 0.70328 0.79406 0.26148 0.0
C188 C 0.71101 0.81946 0.26973 0.0
H189 H 0.74647 0.91923 0.29002 0.0
H190 H 0.72156 0.87885 0.29121 0.0
H191 H 0.75365 0.85683 0.20219 0.0
H192 H 0.80057 0.83095 0.26133 0.0
H193 H 0.79685 0.806 0.23758 0.0
H194 H 0.81272 0.83663 0.23002 0.0
H195 H 0.78704 0.85259 0.19794 0.0
H196 H 0.76287 0.82649 0.19206 0.0
C197 C 0.6783 0.85234 0.27788 0.0
C198 C 0.70427 0.83588 0.31528 0.0
C199 C 0.73485 0.73729 0.18909 0.0
C200 C 0.75502 0.74095 0.17167 0.0
C201 C 0.77397 0.76133 0.17639 0.0
C202 C 0.77164 0.77911 0.19695 0.0
C203 C 0.75005 0.77656 0.21277 0.0
C204 C 0.73271 0.75528 0.20944 0.0
C205 C 0.71109 0.75562 0.22827 0.0
C206 C 0.71758 0.78132 0.24249 0.0
C207 C 0.74025 0.79363 0.23308 0.0
C208 C 0.68559 0.75506 0.21328 0.0
C209 C 0.71282 0.73286 0.24573 0.0
C210 C 0.78214 0.88431 0.24876 0.0
C211 C 0.77506 0.90574 0.26367 0.0
C212 C 0.75284 0.90304 0.27878 0.0
C213 C 0.73818 0.87953 0.27929 0.0
C214 C 0.74539 0.85844 0.26416 0.0
C215 C 0.76695 0.86103 0.24912 0.0
C216 C 0.77073 0.83691 0.23317 0.0
C217 C 0.74813 0.81928 0.24158 0.0
C218 C 0.73347 0.83207 0.25972 0.0
C219 C 0.76867 0.84333 0.20482 0.0
C220 C 0.79662 0.82705 0.24064 0.0
H221 H 0.66686 0.74663 0.26271 0.0
H222 H 0.64584 0.8235 0.31549 0.0
H223 H 0.70732 0.8178 0.32471 0.0
H224 H 0.72341 0.84635 0.31467 0.0
H225 H 0.69166 0.84706 0.32779 0.0
H226 H 0.66159 0.84504 0.26576 0.0
H227 H 0.67109 0.86491 0.29348 0.0
H228 H 0.69057 0.8642 0.26516 0.0
H229 H 0.72027 0.7215 0.18611 0.0
H230 H 0.78971 0.76449 0.16325 0.0
H231 H 0.78614 0.79479 0.19905 0.0
H232 H 0.68767 0.76799 0.19712 0.0
H233 H 0.6797 0.73537 0.20532 0.0
H234 H 0.66969 0.7619 0.22478 0.0
H235 H 0.73304 0.72843 0.24835 0.0
H236 H 0.70585 0.73711 0.26522 0.0
H237 H 0.70204 0.71518 0.23753 0.0
H238 H 0.62713 0.74541 0.28641 0.0
C239 C 0.663 0.76352 0.27405 0.0
C240 C 0.03166 0.91912 0.52326 0.0
C241 C 0.00811 0.90408 0.52357 0.0
C242 C 0.988 0.91063 0.50788 0.0
C243 C 0.01471 0.94657 0.49265 0.0
C244 C 0.03436 0.94037 0.50808 0.0
C245 C 0.05731 0.95956 0.5073 0.0
H246 H 0.10991 0.07337 0.46858 0.0
C247 C 0.02322 0.97044 0.48023 0.0
C248 C 0.04802 0.97838 0.48906 0.0
H249 H 0.14402 0.02074 0.51653 0.0
H250 H 0.10651 0.99069 0.51137 0.0
H251 H 0.05354 0.06746 0.49052 0.0
H252 H 0.08951 0.02964 0.4272 0.0
H253 H 0.05825 0.03375 0.41733 0.0
H254 H 0.07973 0.06162 0.42588 0.0
H255 H 0.06167 0.083 0.46161 0.0
H256 H 0.03136 0.06459 0.46527 0.0
C257 C 0.06183 0.97195 0.53451 0.0
C258 C 0.08015 0.9456 0.49626 0.0
C259 C 0.96733 0.00536 0.41346 0.0
C260 C 0.97032 0.02736 0.39913 0.0
C261 C 0.99118 0.0456 0.40421 0.0
C262 C 0.00952 0.04142 0.42254 0.0
C263 C 0.00688 0.01883 0.43602 0.0
C264 C 0.98571 0.00157 0.43188 0.0
C265 C 0.98558 0.97923 0.44885 0.0
C266 C 0.01102 0.98515 0.46261 0.0
C267 C 0.02336 0.00828 0.45491 0.0
C268 C 0.96248 0.98039 0.46725 0.0
C269 C 0.98523 0.95415 0.43184 0.0
C270 C 0.10915 0.05541 0.47806 0.0
C271 C 0.12959 0.04942 0.49325 0.0
C272 C 0.12835 0.02565 0.50479 0.0
C273 C 0.10654 0.00836 0.50188 0.0
C274 C 0.08588 0.01493 0.48717 0.0
C275 C 0.08767 0.03787 0.47512 0.0
C276 C 0.06458 0.04104 0.45908 0.0
C277 C 0.04817 0.01665 0.46424 0.0
C278 C 0.06062 0.00155 0.48086 0.0
C279 C 0.05208 0.06535 0.46939 0.0
C280 C 0.07327 0.04175 0.43089 0.0
H281 H 0.97523 0.93555 0.48094 0.0
H282 H 0.0477 0.91469 0.53474 0.0
H283 H 0.07353 0.93025 0.48175 0.0
H284 H 0.09397 0.95847 0.48608 0.0
H285 H 0.09035 0.93644 0.51142 0.0
H286 H 0.0433 0.97516 0.544 0.0
H287 H 0.07227 0.95936 0.54651 0.0
H288 H 0.07237 0.9911 0.53476 0.0
H289 H 0.95117 0.99129 0.41016 0.0
H290 H 0.99379 0.06265 0.39332 0.0
H291 H 0.02527 0.05575 0.42519 0.0
H292 H 0.95583 6e-05 0.46933 0.0
H293 H 0.94594 0.96724 0.46035 0.0
H294 H 0.96741 0.97575 0.48687 0.0
H295 H -0.00052 0.9563 0.41624 0.0
H296 H 0.99032 0.93752 0.44229 0.0
H297 H 0.96608 0.94934 0.423 0.0
H298 H 0.96941 0.89997 0.50801 0.0
C299 C 0.99125 0.93159 0.49234 0.0
C300 C 0.27344 0.67683 0.78363 0.0
C301 C 0.28118 0.66587 0.76021 0.0
C302 C 0.27017 0.67354 0.73759 0.0
C303 C 0.2454 0.70342 0.76211 0.0
C304 C 0.25613 0.69569 0.78412 0.0
C305 C 0.24795 0.71038 0.80755 0.0
H306 H 0.19237 0.81183 0.85954 0.0
C307 C 0.22918 0.72447 0.76943 0.0
C308 C 0.2311 0.72888 0.79597 0.0
H309 H 0.22964 0.75373 0.8981 0.0
H310 H 0.23537 0.73071 0.85807 0.0
H311 H 0.15721 0.77411 0.82855 0.0
H312 H 0.22785 0.81487 0.80939 0.0
H313 H 0.20641 0.81626 0.7837 0.0
H314 H 0.19795 0.82872 0.81489 0.0
H315 H 0.15759 0.80405 0.81354 0.0
H316 H 0.1559 0.77383 0.79519 0.0
C317 C 0.23252 0.69139 0.82468 0.0
C318 C 0.27222 0.72442 0.82032 0.0
C319 C 0.16793 0.75818 0.70693 0.0
C320 C 0.15019 0.77694 0.71001 0.0
C321 C 0.15217 0.79424 0.73147 0.0
C322 C 0.16976 0.79128 0.75083 0.0
C323 C 0.18555 0.77088 0.74868 0.0
C324 C 0.18562 0.7556 0.72645 0.0
C325 C 0.20482 0.73565 0.72753 0.0
C326 C 0.21363 0.73955 0.75511 0.0
C327 C 0.20212 0.76018 0.7673 0.0
C328 C 0.19098 0.70867 0.72195 0.0
C329 C 0.22677 0.74258 0.70873 0.0
C330 C 0.20145 0.79398 0.85956 0.0
C331 C 0.21114 0.78506 0.88215 0.0
C332 C 0.22272 0.76159 0.881 0.0
C333 C 0.22595 0.74813 0.8577 0.0
C334 C 0.21733 0.75801 0.83523 0.0
C335 C 0.20448 0.78003 0.8365 0.0
C336 C 0.19461 0.78638 0.81092 0.0
C337 C 0.2047 0.76505 0.79399 0.0
C338 C 0.21843 0.74894 0.80829 0.0
C339 C 0.16486 0.78467 0.81197 0.0
C340 C 0.20716 0.81304 0.80428 0.0
H341 H 0.24454 0.6974 0.72069 0.0
H342 H 0.28078 0.67097 0.80148 0.0
H343 H 0.28529 0.73288 0.80573 0.0
H344 H 0.2681 0.74067 0.83344 0.0
H345 H 0.28296 0.71091 0.83093 0.0
H346 H 0.22363 0.67441 0.81335 0.0
H347 H 0.24499 0.68414 0.83931 0.0
H348 H 0.2162 0.70004 0.8342 0.0
H349 H 0.16701 0.74495 0.69036 0.0
H350 H 0.13874 0.80882 0.73426 0.0
H351 H 0.16956 0.80425 0.76727 0.0
H352 H 0.17329 0.70625 0.73359 0.0
H353 H 0.18542 0.70582 0.70156 0.0
H354 H 0.20279 0.69303 0.7266 0.0
H355 H 0.22897 0.76359 0.70587 0.0
H356 H 0.24564 0.73808 0.7159 0.0
H357 H 0.22314 0.73259 0.68977 0.0
H358 H 0.27571 0.66544 0.71924 0.0
C359 C 0.25228 0.69224 0.73843 0.0
C360 C 0.90752 0.48714 0.5189 0.0
C361 C 0.90134 0.46633 0.50157 0.0
C362 C 0.91842 0.46063 0.48185 0.0
C363 C 0.94635 0.49807 0.49533 0.0
C364 C 0.92984 0.503 0.51519 0.0
C365 C 0.93706 0.52823 0.52935 0.0
H366 H 0.00485 0.64351 0.53255 0.0
C367 C 0.96576 0.52011 0.49462 0.0
C368 C 0.9603 0.53791 0.51436 0.0
H369 H 0.9473 0.61578 0.5856 0.0
H370 H 0.94444 0.57389 0.56364 0.0
H371 H 0.97921 0.61639 0.48153 0.0
H372 H 0.03577 0.59374 0.53319 0.0
H373 H 0.04469 0.58249 0.50272 0.0
H374 H 0.04364 0.6166 0.50955 0.0
H375 H 0.01109 0.63174 0.48406 0.0
H376 H 0.00369 0.60375 0.46315 0.0
C377 C 0.91449 0.54543 0.52699 0.0
C378 C 0.94413 0.52281 0.55706 0.0
C379 C 0.0317 0.52334 0.42387 0.0
C380 C 0.04952 0.5429 0.41619 0.0
C381 C 0.05267 0.56632 0.43067 0.0
C382 C 0.03793 0.57037 0.45248 0.0
C383 C 0.01953 0.55096 0.45954 0.0
C384 C 0.01675 0.52785 0.44542 0.0
C385 C 0.99506 0.51017 0.45474 0.0
C386 C 0.98594 0.52612 0.47738 0.0
C387 C 0.00024 0.55 0.47995 0.0
C388 C 0.97451 0.50572 0.43333 0.0
C389 C 0.0061 0.48536 0.46307 0.0
C390 C 0.99146 0.62841 0.53918 0.0
C391 C 0.97589 0.63286 0.56039 0.0
C392 C 0.9593 0.61267 0.56912 0.0
C393 C 0.95766 0.58845 0.55634 0.0
C394 C 0.97275 0.58446 0.53463 0.0
C395 C 0.9898 0.60404 0.5268 0.0
C396 C 0.00541 0.59578 0.50433 0.0
C397 C 0.99433 0.56824 0.49949 0.0
C398 C 0.9749 0.56194 0.51698 0.0
C399 C -0.00016 0.61279 0.48203 0.0
C400 C 0.03391 0.59734 0.51262 0.0
H401 H 0.95328 0.47126 0.46324 0.0
H402 H 0.89427 0.49209 0.53384 0.0
H403 H 0.95227 0.50388 0.55799 0.0
H404 H 0.95922 0.53688 0.56522 0.0
H405 H 0.92706 0.52252 0.5696 0.0
H406 H 0.90595 0.54302 0.50756 0.0
H407 H 0.89912 0.54032 0.54083 0.0
H408 H 0.92018 0.56614 0.52966 0.0
H409 H 0.02858 0.5054 0.41261 0.0
H410 H 0.06631 0.58159 0.42483 0.0
H411 H 0.041 0.58869 0.46261 0.0
H412 H 0.97607 0.52134 0.41968 0.0
H413 H 0.97642 0.48734 0.4222 0.0
H414 H 0.95475 0.50589 0.44075 0.0
H415 H 0.02387 0.4901 0.47451 0.0
H416 H 0.99289 0.47399 0.47532 0.0
H417 H 0.01101 0.47301 0.44624 0.0
H418 H 0.91369 0.44466 0.46827 0.0
C419 C 0.94116 0.47622 0.47885 0.0
C420 C 0.80415 0.76817 0.88422 0.0
C421 C 0.78318 0.76632 0.90092 0.0
C422 C 0.76198 0.78044 0.89633 0.0
C423 C 0.7824 0.797 0.85855 0.0
C424 C 0.80327 0.7834 0.86317 0.0
C425 C 0.82345 0.78655 0.84296 0.0
H426 H 0.85719 0.82629 0.72678 0.0
C427 C 0.78698 0.80994 0.83449 0.0
C428 C 0.81088 0.80377 0.82514 0.0
H429 H 0.90246 0.78847 0.78027 0.0
H430 H 0.86879 0.78998 0.81094 0.0
H431 H 0.843 0.86841 0.76911 0.0
H432 H 0.80059 0.79951 0.73896 0.0
H433 H 0.78042 0.825 0.74008 0.0
H434 H 0.80875 0.8271 0.72069 0.0
H435 H 0.82618 0.86755 0.73937 0.0
H436 H 0.81067 0.87475 0.76927 0.0
C437 C 0.84813 0.80008 0.85546 0.0
C438 C 0.82689 0.75968 0.83022 0.0
C439 C 0.72293 0.86898 0.8039 0.0
C440 C 0.72247 0.88452 0.78294 0.0
C441 C 0.74073 0.88191 0.76348 0.0
C442 C 0.76014 0.86516 0.7657 0.0
C443 C 0.76127 0.85097 0.78762 0.0
C444 C 0.74245 0.85254 0.80593 0.0
C445 C 0.74662 0.83619 0.82797 0.0
C446 C 0.77184 0.82567 0.82059 0.0
C447 C 0.78031 0.83428 0.79693 0.0
C448 C 0.74914 0.85385 0.85259 0.0
C449 C 0.72436 0.81473 0.82826 0.0
C450 C 0.86009 0.81845 0.7451 0.0
C451 C 0.88245 0.80638 0.75048 0.0
C452 C 0.88516 0.79683 0.7749 0.0
C453 C 0.86562 0.79792 0.79293 0.0
C454 C 0.84314 0.80907 0.78685 0.0
C455 C 0.84097 0.81992 0.76365 0.0
C456 C 0.81677 0.83342 0.76177 0.0
C457 C 0.80428 0.8276 0.78715 0.0
C458 C 0.81968 0.81296 0.8015 0.0
C459 C 0.82433 0.86253 0.75959 0.0
C460 C 0.80071 0.8208 0.73911 0.0
H461 H 0.74475 0.80584 0.87279 0.0
H462 H 0.82087 0.75783 0.88733 0.0
H463 H 0.80794 0.74906 0.82616 0.0
H464 H 0.83679 0.76044 0.81175 0.0
H465 H 0.83769 0.74802 0.84288 0.0
H466 H 0.84381 0.81144 0.8732 0.0
H467 H 0.86171 0.78593 0.86058 0.0
H468 H 0.85798 0.81427 0.8431 0.0
H469 H 0.70887 0.87029 0.81893 0.0
H470 H 0.74073 0.89372 0.74715 0.0
H471 H 0.7739 0.86441 0.75061 0.0
H472 H 0.76063 0.87215 0.84898 0.0
H473 H 0.73005 0.85876 0.8596 0.0
H474 H 0.75924 0.84542 0.86811 0.0
H475 H 0.71624 0.8101 0.80886 0.0
H476 H 0.73062 0.7963 0.83435 0.0
H477 H 0.70851 0.82059 0.84072 0.0
H478 H 0.74539 0.77911 0.90862 0.0
C479 C 0.76151 0.79576 0.8753 0.0
C480 C 0.29596 0.26346 0.38591 0.0
C481 C 0.27855 0.26759 0.40587 0.0
C482 C 0.26268 0.28806 0.40447 0.0
C483 C 0.27964 0.29776 0.36293 0.0
C484 C 0.2964 0.27892 0.36493 0.0
C485 C 0.31432 0.27769 0.34261 0.0
H486 H 0.34898 0.31747 0.22641 0.0
C487 C 0.28377 0.3091 0.338 0.0
C488 C 0.30423 0.29765 0.32611 0.0
H489 H 0.38876 0.26906 0.27483 0.0
H490 H 0.35573 0.27196 0.3063 0.0
H491 H 0.33846 0.35898 0.27187 0.0
H492 H 0.29185 0.29458 0.23774 0.0
H493 H 0.27162 0.31924 0.24436 0.0
H494 H 0.29762 0.32421 0.22212 0.0
H495 H 0.32621 0.35843 0.23995 0.0
H496 H 0.30765 0.36876 0.26679 0.0
C497 C 0.34195 0.28566 0.35233 0.0
C498 C 0.31078 0.2504 0.32959 0.0
C499 C 0.22539 0.37493 0.30947 0.0
C500 C 0.22352 0.38777 0.28683 0.0
C501 C 0.23921 0.38148 0.26606 0.0
C502 C 0.25735 0.3634 0.26823 0.0
C503 C 0.25972 0.35148 0.2914 0.0
C504 C 0.24342 0.35684 0.31128 0.0
C505 C 0.24797 0.3417 0.33413 0.0
C506 C 0.27023 0.3269 0.32498 0.0
C507 C 0.27719 0.33288 0.30005 0.0
C508 C 0.25559 0.36077 0.35695 0.0
C509 C 0.2235 0.32375 0.33842 0.0
C510 C 0.35087 0.3077 0.24387 0.0
C511 C 0.37171 0.29296 0.24789 0.0
C512 C 0.37284 0.28019 0.27083 0.0
C513 C 0.35378 0.28216 0.28934 0.0
C514 C 0.33348 0.29737 0.28518 0.0
C515 C 0.33232 0.30994 0.26282 0.0
C516 C 0.31011 0.32641 0.26233 0.0
C517 C 0.29843 0.32195 0.28831 0.0
C518 C 0.312 0.30464 0.3014 0.0
C519 C 0.32095 0.35466 0.25996 0.0
C520 C 0.29182 0.31583 0.24044 0.0
H521 H 0.25016 0.31792 0.38309 0.0
H522 H 0.30862 0.24814 0.38612 0.0
H523 H 0.29008 0.24412 0.32725 0.0
H524 H 0.31908 0.24933 0.31031 0.0
H525 H 0.31957 0.23625 0.34119 0.0
H526 H 0.34207 0.2967 0.371 0.0
H527 H 0.35283 0.26859 0.35485 0.0
H528 H 0.35274 0.2987 0.33945 0.0
H529 H 0.21329 0.37917 0.32561 0.0
H530 H 0.23808 0.39123 0.24846 0.0
H531 H 0.26913 0.35977 0.25197 0.0
H532 H 0.26601 0.37864 0.35041 0.0
H533 H 0.23846 0.3664 0.36762 0.0
H534 H 0.269 0.35306 0.37025 0.0
H535 H 0.21542 0.31549 0.31993 0.0
H536 H 0.22699 0.307 0.34943 0.0
H537 H 0.2085 0.33443 0.34816 0.0
H538 H 0.24982 0.2926 0.41986 0.0
C539 C 0.263 0.30296 0.3831 0.0
C540 C 0.45399 0.89173 0.5116 0.0
C541 C 0.44478 0.89065 0.48649 0.0
C542 C 0.42902 0.90946 0.4789 0.0
C543 C 0.43208 0.93017 0.52117 0.0
C544 C 0.44756 0.91168 0.52851 0.0
C545 C 0.45713 0.91662 0.55538 0.0
H546 H 0.4677 0.99595 0.66052 0.0
C547 C 0.4294 0.94839 0.54318 0.0
C548 C 0.44391 0.94051 0.5633 0.0
H549 H 0.51037 0.93043 0.64065 0.0
H550 H 0.48312 0.91983 0.60414 0.0
H551 H 0.4109 0.96974 0.64334 0.0
H552 H 0.46896 0.01697 0.60557 0.0
H553 H 0.43907 0.02949 0.60169 0.0
H554 H 0.45174 0.02782 0.6331 0.0
H555 H 0.41455 0.00394 0.64923 0.0
H556 H 0.39487 0.98916 0.6234 0.0
C557 C 0.44748 0.89349 0.57101 0.0
C558 C 0.48676 0.92181 0.55466 0.0
C559 C 0.37772 0.02528 0.53439 0.0
C560 C 0.36955 0.04422 0.55188 0.0
C561 C 0.37685 0.04357 0.57769 0.0
C562 C 0.39222 0.02476 0.58571 0.0
C563 C 0.40037 0.00627 0.56784 0.0
C564 C 0.39248 0.00633 0.54283 0.0
C565 C 0.40085 0.9838 0.52697 0.0
C566 C 0.41574 0.97063 0.54646 0.0
C567 C 0.41593 0.98421 0.57019 0.0
C568 C 0.37659 0.96699 0.51754 0.0
C569 C 0.41833 0.99425 0.50543 0.0
C570 C 0.47111 0.97924 0.64835 0.0
C571 C 0.49159 0.96436 0.65321 0.0
C572 C 0.49481 0.94229 0.63739 0.0
C573 C 0.47922 0.9364 0.61592 0.0
C574 C 0.46056 0.95298 0.60997 0.0
C575 C 0.45625 0.9736 0.62643 0.0
C576 C 0.43671 0.99004 0.6163 0.0
C577 C 0.431 0.97659 0.59044 0.0
C578 C 0.44487 0.95481 0.58697 0.0
C579 C 0.41302 0.98839 0.63397 0.0
C580 C 0.44957 0.01761 0.61408 0.0
H581 H 0.41052 0.94296 0.48925 0.0
H582 H 0.46657 0.87779 0.51774 0.0
H583 H 0.49365 0.92756 0.5356 0.0
H584 H 0.49387 0.93804 0.56781 0.0
H585 H 0.49641 0.90446 0.55921 0.0
H586 H 0.42706 0.88748 0.56649 0.0
H587 H 0.45875 0.87674 0.56659 0.0
H588 H 0.44818 0.898 0.59176 0.0
H589 H 0.37282 0.02501 0.51439 0.0
H590 H 0.37037 0.0573 0.59186 0.0
H591 H 0.39716 0.02528 0.60553 0.0
H592 H 0.36044 0.96864 0.53112 0.0
H593 H 0.37007 0.97287 0.49878 0.0
H594 H 0.37946 0.94625 0.51621 0.0
H595 H 0.43133 0.01089 0.51273 0.0
H596 H 0.43109 0.98009 0.49752 0.0
H597 H 0.4068 0.00084 0.48968 0.0
H598 H 0.42166 0.90885 0.45962 0.0
C599 C 0.42251 0.92915 0.49616 0.0
C600 C 0.15927 0.3033 0.8124 0.0
C601 C 0.14112 0.28201 0.81075 0.0
C602 C 0.1465 0.26007 0.79563 0.0
C603 C 0.18627 0.28215 0.78185 0.0
C604 C 0.18148 0.30302 0.7978 0.0
C605 C 0.20138 0.3251 0.79584 0.0
H606 H 0.30747 0.37767 0.74017 0.0
C607 C 0.21005 0.28907 0.76773 0.0
C608 C 0.21907 0.31409 0.7761 0.0
H609 H 0.2581 0.4127 0.7957 0.0
H610 H 0.23255 0.3729 0.79796 0.0
H611 H 0.26003 0.35112 0.70733 0.0
H612 H 0.30816 0.32225 0.76374 0.0
H613 H 0.30272 0.29791 0.73956 0.0
H614 H 0.31922 0.32829 0.73213 0.0
H615 H 0.29283 0.34534 0.70134 0.0
H616 H 0.26733 0.32038 0.69631 0.0
C617 C 0.18813 0.34832 0.78615 0.0
C618 C 0.21469 0.3301 0.82213 0.0
C619 C 0.23614 0.23214 0.69289 0.0
C620 C 0.25556 0.23534 0.67459 0.0
C621 C 0.27539 0.25497 0.67879 0.0
C622 C 0.27468 0.2725 0.6998 0.0
C623 C 0.25381 0.2705 0.71658 0.0
C624 C 0.23559 0.24991 0.71365 0.0
C625 C 0.21488 0.25081 0.73344 0.0
C626 C 0.22297 0.27605 0.74786 0.0
C627 C 0.24561 0.28765 0.73766 0.0
C628 C 0.18888 0.2516 0.71959 0.0
C629 C 0.2164 0.22757 0.75032 0.0
C630 C 0.29106 0.37692 0.75269 0.0
C631 C 0.28516 0.39858 0.76797 0.0
C632 C 0.26367 0.39636 0.78415 0.0
C633 C 0.24857 0.37317 0.78527 0.0
C634 C 0.25447 0.35194 0.76962 0.0
C635 C 0.27533 0.35401 0.7536 0.0
C636 C 0.27754 0.3299 0.7371 0.0
C637 C 0.25481 0.31292 0.74629 0.0
C638 C 0.24149 0.326 0.76533 0.0
C639 C 0.27447 0.33682 0.709 0.0
C640 C 0.3033 0.31896 0.74318 0.0
H641 H 0.17184 0.24306 0.76946 0.0
H642 H 0.15583 0.32031 0.82414 0.0
H643 H 0.21756 0.31167 0.83098 0.0
H644 H 0.23405 0.34003 0.82094 0.0
H645 H 0.20295 0.34144 0.8354 0.0
H646 H 0.17052 0.34195 0.77497 0.0
H647 H 0.18244 0.36123 0.80224 0.0
H648 H 0.20019 0.35967 0.77283 0.0
H649 H 0.22092 0.21691 0.69034 0.0
H650 H 0.29059 0.25778 0.66499 0.0
H651 H 0.28979 0.28762 0.70151 0.0
H652 H 0.19086 0.26465 0.70352 0.0
H653 H 0.18182 0.23221 0.71166 0.0
H654 H 0.17386 0.25912 0.73185 0.0
H655 H 0.23646 0.22236 0.75206 0.0
H656 H 0.21026 0.2317 0.77012 0.0
H657 H 0.20477 0.21039 0.74215 0.0
H658 H 0.13274 0.24344 0.79405 0.0
C659 C 0.16908 0.25999 0.78122 0.0
C660 C 0.74025 0.14441 0.73361 0.0
C661 C 0.71577 0.13904 0.72284 0.0
C662 C 0.70674 0.15641 0.70592 0.0
C663 C 0.74609 0.18395 0.71139 0.0
C664 C 0.75477 0.16694 0.72798 0.0
C665 C 0.78021 0.17608 0.73957 0.0
H666 H 0.8809 0.26465 0.74917 0.0
C667 C 0.76591 0.20563 0.71003 0.0
C668 C 0.78583 0.2011 0.72663 0.0
H669 H 0.86423 0.19784 0.79371 0.0
H670 H 0.82634 0.18625 0.76916 0.0
H671 H 0.82424 0.28201 0.75261 0.0
H672 H 0.86278 0.23853 0.69488 0.0
H673 H 0.84311 0.25808 0.67888 0.0
H674 H 0.86849 0.27276 0.69928 0.0
H675 H 0.84859 0.29631 0.73256 0.0
H676 H 0.81541 0.29276 0.72303 0.0
C677 C 0.77659 0.18038 0.76879 0.0
C678 C 0.79956 0.15624 0.73176 0.0
C679 C 0.75611 0.27624 0.6486 0.0
C680 C 0.7729 0.29696 0.64154 0.0
C681 C 0.79644 0.3023 0.65436 0.0
C682 C 0.80353 0.28686 0.67365 0.0
C683 C 0.78701 0.26566 0.68002 0.0
C684 C 0.76367 0.26068 0.6677 0.0
C685 C 0.74928 0.23652 0.6762 0.0
C686 C 0.7679 0.22783 0.69546 0.0
C687 C 0.78987 0.2451 0.69769 0.0
C688 C 0.72403 0.24387 0.68884 0.0
C689 C 0.74556 0.21728 0.65284 0.0
C690 C 0.86907 0.24759 0.75382 0.0
C691 C 0.87595 0.23215 0.77349 0.0
C692 C 0.85998 0.20989 0.7784 0.0
C693 C 0.83759 0.20334 0.76433 0.0
C694 C 0.83063 0.21939 0.74538 0.0
C695 C 0.84622 0.24109 0.74037 0.0
C696 C 0.83502 0.25647 0.72036 0.0
C697 C 0.80992 0.24057 0.7146 0.0
C698 C 0.80773 0.21877 0.72909 0.0
C699 C 0.83067 0.28341 0.73251 0.0
C700 C 0.85324 0.25675 0.69712 0.0
H701 H 0.71382 0.19133 0.68726 0.0
H702 H 0.74804 0.13148 0.74645 0.0
H703 H 0.79684 0.14956 0.71144 0.0
H704 H 0.8197 0.16418 0.73331 0.0
H705 H 0.79695 0.13911 0.74343 0.0
H706 H 0.75639 0.1835 0.77375 0.0
H707 H 0.78188 0.16357 0.77911 0.0
H708 H 0.78772 0.1979 0.77669 0.0
H709 H 0.73812 0.27155 0.63864 0.0
H710 H 0.8096 0.31819 0.64902 0.0
H711 H 0.82184 0.29173 0.68246 0.0
H712 H 0.72692 0.26273 0.69968 0.0
H713 H 0.70892 0.24544 0.67433 0.0
H714 H 0.7168 0.23019 0.703 0.0
H715 H 0.76298 0.21808 0.6407 0.0
H716 H 0.74256 0.1971 0.65806 0.0
H717 H 0.72921 0.2218 0.64089 0.0
H718 H 0.68779 0.15304 0.69761 0.0
C719 C 0.72179 0.17879 0.70009 0.0
C720 C 0.54259 0.64109 0.48935 0.0
C721 C 0.521 0.65536 0.49139 0.0
C722 C 0.50624 0.6545 0.51381 0.0
C723 C 0.53332 0.62422 0.53083 0.0
C724 C 0.54838 0.6257 0.50929 0.0
C725 C 0.57011 0.60862 0.51008 0.0
H726 H 0.63082 0.52014 0.57124 0.0
C727 C 0.54377 0.60579 0.5475 0.0
C728 C 0.56552 0.59676 0.53565 0.0
H729 H 0.64702 0.54921 0.49675 0.0
H730 H 0.61381 0.57792 0.50231 0.0
H731 H 0.61903 0.5743 0.60055 0.0
H732 H 0.57143 0.51333 0.56206 0.0
H733 H 0.55486 0.52303 0.58937 0.0
H734 H 0.58536 0.50996 0.59274 0.0
H735 H 0.6122 0.54349 0.61368 0.0
H736 H 0.59124 0.56896 0.61893 0.0
C737 C 0.59556 0.62586 0.50981 0.0
C738 C 0.56673 0.58831 0.48752 0.0
C739 C 0.49458 0.57932 0.62631 0.0
C740 C 0.49878 0.56169 0.64485 0.0
C741 C 0.52204 0.54984 0.64455 0.0
C742 C 0.5402 0.55451 0.62544 0.0
C743 C 0.53509 0.57116 0.60631 0.0
C744 C 0.51293 0.58377 0.60735 0.0
C745 C 0.51098 0.60121 0.58573 0.0
C746 C 0.53515 0.59618 0.57101 0.0
C747 C 0.54907 0.57842 0.58304 0.0
C748 C 0.51165 0.62929 0.59695 0.0
C749 C 0.48645 0.59201 0.57027 0.0
C750 C 0.62726 0.53259 0.55604 0.0
C751 C 0.64189 0.53229 0.53357 0.0
C752 C 0.63659 0.54923 0.51453 0.0
C753 C 0.617 0.56578 0.51762 0.0
C754 C 0.60213 0.56523 0.53981 0.0
C755 C 0.6074 0.54889 0.55859 0.0
C756 C 0.5886 0.54977 0.58018 0.0
C757 C 0.5713 0.56946 0.5713 0.0
C758 C 0.5794 0.57853 0.54769 0.0
C759 C 0.60339 0.55945 0.60477 0.0
C760 C 0.57433 0.52268 0.58146 0.0
H761 H 0.50012 0.63909 0.54988 0.0
H762 H 0.55431 0.64133 0.47237 0.0
H763 H 0.54614 0.58358 0.48278 0.0
H764 H 0.57384 0.5697 0.49187 0.0
H765 H 0.57638 0.59539 0.47012 0.0
H766 H 0.59413 0.64373 0.52198 0.0
H767 H 0.60037 0.6316 0.49022 0.0
H768 H 0.61184 0.61666 0.51766 0.0
H769 H 0.47697 0.58879 0.62595 0.0
H770 H 0.52612 0.53671 0.65901 0.0
H771 H 0.55731 0.54462 0.62606 0.0
H772 H 0.52189 0.63164 0.61555 0.0
H773 H 0.49202 0.63532 0.60015 0.0
H774 H 0.52232 0.64308 0.58475 0.0
H775 H 0.48418 0.57066 0.56818 0.0
H776 H 0.48677 0.59851 0.55065 0.0
H777 H 0.46911 0.59852 0.57996 0.0
H778 H 0.48989 0.66579 0.51614 0.0
C779 C 0.5123 0.63908 0.5335 0.0
C780 C 0.52587 0.43083 0.03204 0.0
C781 C 0.50157 0.41713 0.03204 0.0
C782 C 0.4822 0.42506 0.01623 0.0
C783 C 0.51156 0.45857 0.00024 0.0
C784 C 0.53027 0.4516 0.0164 0.0
C785 C 0.55439 0.4692 0.01546 0.0
H786 H 0.61657 0.57556 0.96952 0.0
C787 C 0.52231 0.48074 0.98634 0.0
C788 C 0.54728 0.48734 0.99549 0.0
H789 H 0.64325 0.52745 0.02653 0.0
H790 H 0.60466 0.49869 0.02127 0.0
H791 H 0.55762 0.57458 0.98655 0.0
H792 H 0.59883 0.53065 0.93173 0.0
H793 H 0.56772 0.52957 0.91923 0.0
H794 H 0.58633 0.56011 0.92384 0.0
H795 H 0.57182 0.5869 0.95809 0.0
H796 H 0.5398 0.57162 0.95799 0.0
C797 C 0.55862 0.48309 0.04207 0.0
C798 C 0.57654 0.45311 0.00644 0.0
C799 C 0.47234 0.51404 0.91378 0.0
C800 C 0.479 0.53261 0.89602 0.0
C801 C 0.50252 0.54751 0.89846 0.0
C802 C 0.51947 0.54376 0.91816 0.0
C803 C 0.51298 0.52465 0.9354 0.0
C804 C 0.48976 0.51015 0.93312 0.0
C805 C 0.48679 0.48997 0.95259 0.0
C806 C 0.51234 0.49443 0.96645 0.0
C807 C 0.52733 0.51493 0.95643 0.0
C808 C 0.46403 0.49591 0.97018 0.0
C809 C 0.48363 0.46328 0.93824 0.0
C810 C 0.61392 0.55891 0.98097 0.0
C811 C 0.63247 0.55385 -0.00124 0.0
C812 C 0.62894 0.53166 0.01284 0.0
C813 C 0.60653 0.51516 0.00984 0.0
C814 C 0.58769 0.52091 0.99246 0.0
C815 C 0.59188 0.54219 0.97802 0.0
C816 C 0.57056 0.54472 0.95956 0.0
C817 C 0.5521 0.5223 0.96635 0.0
C818 C 0.56215 0.50844 0.98561 0.0
C819 C 0.55932 0.57085 0.96561 0.0
C820 C 0.58127 0.54127 0.93214 0.0
H821 H 0.47162 0.45044 0.98867 0.0
H822 H 0.54134 0.42553 0.04379 0.0
H823 H 0.56987 0.43859 0.99116 0.0
H824 H 0.59255 0.46479 -0.00202 0.0
H825 H 0.584 0.44269 0.02236 0.0
H826 H 0.54003 0.48655 0.05134 0.0
H827 H 0.56927 0.47146 0.05487 0.0
H828 H 0.56876 0.50238 0.04125 0.0
H829 H 0.45443 0.50217 0.91204 0.0
H830 H 0.50784 0.56197 0.88495 0.0
H831 H 0.53707 0.55572 0.91899 0.0
H832 H 0.46124 0.51681 0.97136 0.0
H833 H 0.44586 0.48559 0.96306 0.0
H834 H 0.46723 0.49111 0.99011 0.0
H835 H 0.49768 0.46224 0.92242 0.0
H836 H 0.48717 0.44734 0.95035 0.0
H837 H 0.46414 0.45956 0.92989 0.0
H838 H 0.463 0.4157 0.01632 0.0
C839 C 0.48711 0.44551 0.00028 0.0
C840 C 0.7751 0.19229 0.28589 0.0
C841 C 0.77527 0.17368 0.26574 0.0
C842 C 0.75965 0.17594 0.24427 0.0
C843 C 0.74255 0.21377 0.26448 0.0
C844 C 0.75867 0.21187 0.28496 0.0
C845 C 0.75527 0.23182 0.30588 0.0
H846 H 0.69051 0.32817 0.35615 0.0
C847 C 0.72694 0.23571 0.27046 0.0
C848 C 0.73452 0.24631 0.29465 0.0
H849 H 0.75231 0.29116 0.38958 0.0
H850 H 0.75613 0.26481 0.35127 0.0
H851 H 0.6619 0.27557 0.32868 0.0
H852 H 0.71563 0.33545 0.30356 0.0
H853 H 0.69772 0.32442 0.27638 0.0
H854 H 0.68187 0.33883 0.30342 0.0
H855 H 0.65502 0.30845 0.32619 0.0
H856 H 0.65116 0.28575 0.29943 0.0
C857 C 0.74608 0.21781 0.33001 0.0
C858 C 0.78082 0.24886 0.3092 0.0
C859 C 0.65393 0.25508 0.21234 0.0
C860 C 0.63621 0.27396 0.21405 0.0
C861 C 0.63921 0.2936 0.23341 0.0
C862 C 0.65857 0.29366 0.25168 0.0
C863 C 0.67507 0.27381 0.25071 0.0
C864 C 0.67335 0.25552 0.23074 0.0
C865 C 0.69357 0.23672 0.2324 0.0
C866 C 0.70684 0.24615 0.25724 0.0
C867 C 0.69549 0.26761 0.26802 0.0
C868 C 0.68004 0.20942 0.23404 0.0
C869 C 0.71161 0.23985 0.20927 0.0
C870 C 0.70488 0.31441 0.35512 0.0
C871 C 0.72082 0.31144 0.37607 0.0
C872 C 0.73934 0.29337 0.37396 0.0
C873 C 0.74169 0.2782 0.35157 0.0
C874 C 0.72528 0.28095 0.33098 0.0
C875 C 0.70743 0.29896 0.33284 0.0
C876 C 0.69171 0.29914 0.30895 0.0
C877 C 0.70292 0.27797 0.29263 0.0
C878 C 0.72241 0.26739 0.30575 0.0
C879 C 0.66339 0.292 0.31598 0.0
C880 C 0.69674 0.32582 0.29744 0.0
H881 H 0.73134 0.1964 0.227 0.0
H882 H 0.78714 0.19129 0.3025 0.0
H883 H 0.79042 0.25151 0.29053 0.0
H884 H 0.77813 0.26854 0.31682 0.0
H885 H 0.79429 0.24 0.32174 0.0
H886 H 0.7349 0.19925 0.32488 0.0
H887 H 0.76253 0.21351 0.34192 0.0
H888 H 0.73282 0.22868 0.34185 0.0
H889 H 0.65231 0.24 0.19739 0.0
H890 H 0.62578 0.30827 0.23521 0.0
H891 H 0.6594 0.30873 0.26632 0.0
H892 H 0.66352 0.2097 0.24732 0.0
H893 H 0.67267 0.20184 0.21509 0.0
H894 H 0.69254 0.19559 0.24152 0.0
H895 H 0.71449 0.26034 0.2044 0.0
H896 H 0.73101 0.23414 0.21302 0.0
H897 H 0.70353 0.22865 0.19219 0.0
H898 H 0.75946 0.16175 0.2285 0.0
C899 C 0.74326 0.19594 0.24353 0.0
C900 C 0.37182 0.01168 0.98543 0.0
C901 C 0.36657 0.98875 0.97069 0.0
C902 C 0.38329 0.98219 0.95091 0.0
C903 C 0.4105 0.02107 0.96113 0.0
C904 C 0.39366 0.02763 0.98017 0.0
C905 C 0.4014 0.05326 0.99328 0.0
H906 H 0.48823 0.15545 0.00981 0.0
C907 C 0.43131 0.0418 0.96071 0.0
C908 C 0.42594 0.06083 0.97929 0.0
H909 H 0.4157 0.14171 0.04789 0.0
H910 H 0.40669 0.10229 0.02235 0.0
H911 H 0.46701 0.14167 0.95541 0.0
H912 H 0.50418 0.09611 0.00767 0.0
H913 H 0.5179 0.09139 0.97737 0.0
H914 H 0.51981 0.12312 0.99253 0.0
H915 H 0.50121 0.14341 0.95816 0.0
H916 H 0.48393 0.12033 0.9364 0.0
C917 C 0.38027 0.07161 0.98853 0.0
C918 C 0.40636 0.04895 0.02172 0.0
C919 C 0.5058 0.03385 0.89986 0.0
C920 C 0.52707 0.05071 0.8944 0.0
C921 C 0.53114 0.07442 0.90827 0.0
C922 C 0.51412 0.08132 0.92745 0.0
C923 C 0.49267 0.06446 0.93253 0.0
C924 C 0.48871 0.04122 0.91877 0.0
C925 C 0.46407 0.02651 0.92573 0.0
C926 C 0.45403 0.04466 0.94611 0.0
C927 C 0.47099 0.06669 0.95013 0.0
C928 C 0.44646 0.02329 0.90188 0.0
C929 C 0.47069 0.00091 0.93663 0.0
C930 C 0.47048 0.14381 0.01262 0.0
C931 C 0.4527 0.15137 0.03089 0.0
C932 C 0.42957 0.13615 0.0338 0.0
C933 C 0.42447 0.11326 0.01905 0.0
C934 C 0.44263 0.10566 0.00111 0.0
C935 C 0.46497 0.12106 -0.00217 0.0
C936 C 0.48147 0.11054 0.97707 0.0
C937 C 0.46558 0.08596 0.96884 0.0
C938 C 0.44304 0.08311 0.98316 0.0
C939 C 0.48378 0.12993 0.95564 0.0
C940 C 0.50732 0.10507 0.98906 0.0
H941 H 0.41753 0.99213 0.93095 0.0
H942 H 0.35891 0.01731 0.00043 0.0
H943 H 0.417 0.03159 0.0237 0.0
H944 H 0.41831 0.06485 0.03143 0.0
H945 H 0.38805 0.04602 0.03224 0.0
H946 H 0.36963 0.066 0.97053 0.0
H947 H 0.36608 0.07147 0.00424 0.0
H948 H 0.38815 0.09161 0.98604 0.0
H949 H 0.50206 0.01575 0.889 0.0
H950 H 0.54747 0.08762 0.90415 0.0
H951 H 0.51819 0.09963 0.93736 0.0
H952 H 0.45052 0.03934 0.88898 0.0
H953 H 0.4492 0.00509 0.89076 0.0
H954 H 0.42597 0.02393 0.90667 0.0
H955 H 0.48742 0.00417 0.94974 0.0
H956 H 0.4551 0.99187 0.94805 0.0
H957 H 0.47566 0.98696 0.92112 0.0
H958 H 0.37939 0.96454 0.93936 0.0
C959 C 0.40537 -0.00182 0.94613 0.0
O960 O 0.23622 0.85631 0.9851 0.0
Cd961 Cd 0.24687 0.8812 0.0157 0.0
Cd962 Cd 0.21922 0.91072 0.9873 0.0
O963 O 0.20667 0.87739 0.9675 0.0
O964 O 0.26718 0.85902 0.03571 0.0
O965 O 0.23184 0.87459 0.05047 0.0
C966 C 0.2509 0.86097 0.05385 0.0
C967 C 0.19134 0.94005 0.00211 0.0
C968 C 0.21872 0.85739 0.96857 0.0
C969 C 0.27482 0.92562 0.99214 0.0
O970 O 0.25505 0.92665 0.9785 0.0
O971 O 0.27449 0.91067 0.01037 0.0
O972 O 0.19723 0.93786 0.97835 0.0
O973 O 0.20038 0.92459 0.01758 0.0
O974 O 0.15382 0.5394 0.26329 0.0
Cd975 Cd 0.13719 0.50902 0.28284 0.0
Cd976 Cd 0.0937 0.52631 0.26197 0.0
O977 O 0.1192 0.55224 0.24577 0.0
O978 O 0.16726 0.49358 0.29656 0.0
O979 O 0.14042 0.47274 0.2688 0.0
C980 C 0.1606 0.47299 0.28291 0.0
C981 C 0.0619 0.50629 0.23553 0.0
C982 C 0.14323 0.55445 0.24912 0.0
C983 C 0.09612 0.52683 0.31842 0.0
O984 O 0.08423 0.53346 0.29917 0.0
O985 O 0.1168 0.51592 0.31583 0.0
O986 O 0.06176 0.53006 0.24323 0.0
O987 O 0.08027 0.49348 0.24313 0.0
O988 O 0.75922 0.69991 0.00012 0.0
Cd989 Cd 0.74824 0.67612 0.02886 0.0
Cd990 Cd 0.77594 0.6432 0.00231 0.0
O991 O 0.78268 0.67318 0.9786 0.0
O992 O 0.73374 0.69851 0.05565 0.0
O993 O 0.7683 0.67785 0.06163 0.0
C994 C 0.75167 0.69284 0.07059 0.0
C995 C 0.8085 0.62002 0.01598 0.0
C996 C 0.77348 0.6949 0.98127 0.0
C997 C 0.72067 0.62665 0.00974 0.0
O998 O 0.74171 0.62123 -0.0002 0.0
O999 O 0.71903 0.6479 0.02213 0.0
O1000 O 0.80028 0.61753 0.99282 0.0
O1001 O 0.79941 0.63724 0.03116 0.0
O1002 O 0.90731 0.02455 0.29328 0.0
Cd1003 Cd 0.89003 0.02737 0.25853 0.0
Cd1004 Cd 0.85884 0.05274 0.28762 0.0
O1005 O 0.88821 0.05528 0.31389 0.0
O1006 O 0.91613 0.01593 0.23416 0.0
O1007 O 0.90341 0.0553 0.2359 0.0
C1008 C 0.91814 0.03882 0.22602 0.0
C1009 C 0.83657 0.08847 0.2803 0.0
C1010 C 0.90508 0.03917 0.31304 0.0
C1011 C 0.83958 0.00082 0.26578 0.0
O1012 O 0.83751 0.01786 0.28359 0.0
O1013 O 0.85829 0.00269 0.25049 0.0
O1014 O 0.83397 0.07654 0.30111 0.0
O1015 O 0.85264 0.08052 0.26362 0.0
O1016 O 0.24974 0.19754 0.50242 0.0
Cd1017 Cd 0.24108 0.17309 0.53107 0.0
Cd1018 Cd 0.27123 0.14295 0.50461 0.0
O1019 O 0.27872 0.17492 0.48341 0.0
O1020 O 0.22715 0.19401 0.55939 0.0
O1021 O 0.26289 0.17449 0.56262 0.0
C1022 C 0.24623 0.18862 0.57302 0.0
C1023 C 0.30385 0.11938 0.51776 0.0
C1024 C 0.26646 0.19493 0.48519 0.0
C1025 C 0.21578 0.12409 0.5096 0.0
O1026 O 0.23717 0.12057 0.49926 0.0
O1027 O 0.21321 0.14394 0.52394 0.0
O1028 O 0.29635 0.11816 0.49437 0.0
O1029 O 0.29388 0.13538 0.53363 0.0
O1030 O 0.41798 0.52648 0.78938 0.0
Cd1031 Cd 0.39779 0.52367 0.75562 0.0
Cd1032 Cd 0.36471 0.5479 0.78407 0.0
O1033 O 0.39297 0.5513 0.81127 0.0
O1034 O 0.42341 0.51231 0.73064 0.0
O1035 O 0.40703 0.54994 0.72981 0.0
C1036 C 0.42279 0.53417 0.72054 0.0
C1037 C 0.3453 0.58377 0.77241 0.0
C1038 C 0.41309 0.5394 0.80964 0.0
C1039 C 0.34785 0.49462 0.76569 0.0
O1040 O 0.3436 0.51313 0.78128 0.0
O1041 O 0.36758 0.49584 0.75162 0.0
O1042 O 0.3411 0.57424 0.79429 0.0
O1043 O 0.36086 0.57308 0.75691 0.0
O1044 O 0.73934 0.36594 0.48704 0.0
Cd1045 Cd 0.75629 0.38257 0.51996 0.0
Cd1046 Cd 0.7413 0.42639 0.49522 0.0
O1047 O 0.72847 0.39974 0.46732 0.0
O1048 O 0.76949 0.35183 0.53416 0.0
O1049 O 0.74204 0.37483 0.55494 0.0
C1050 C 0.75634 0.35587 0.55437 0.0
C1051 C 0.71427 0.45712 0.50929 0.0
C1052 C 0.72969 0.37564 0.46795 0.0
C1053 C 0.79689 0.42449 0.5064 0.0
O1054 O 0.77987 0.43642 0.49607 0.0
O1055 O 0.79102 0.40378 0.51734 0.0
O1056 O 0.72621 0.45881 0.48793 0.0
O1057 O 0.71757 0.4377 0.52283 0.0
O1058 O 0.65657 0.03896 0.77221 0.0
Cd1059 Cd 0.63656 0.0062 0.78447 0.0
Cd1060 Cd 0.60117 0.0216 0.75375 0.0
O1061 O 0.63132 0.04388 0.73972 0.0
O1062 O 0.6626 0.98732 0.80112 0.0
O1063 O 0.64156 0.97209 0.76635 0.0
C1064 C 0.65854 0.96932 0.78359 0.0
C1065 C 0.5708 0.00342 0.7246 0.0
C1066 C 0.65177 0.05022 0.75213 0.0
C1067 C 0.59081 0.02458 0.80954 0.0
O1068 O 0.58607 0.03319 0.78809 0.0
O1069 O 0.60908 0.01041 0.81196 0.0
O1070 O 0.57342 0.02776 0.73006 0.0
O1071 O 0.58593 0.98903 0.73552 0.0
O1072 O 0.96982 0.29074 0.9198 0.0
Cd1073 Cd 0.97839 0.25855 0.89798 0.0
Cd1074 Cd -3e-05 0.2944 0.86943 0.0
O1075 O 0.99266 0.31986 0.89876 0.0
O1076 O 0.96761 0.23046 0.92051 0.0
O1077 O 0.0079 0.23956 0.90938 0.0
C1078 C 0.99132 0.22599 0.9223 0.0
C1079 C 0.04125 0.29077 0.85512 0.0
C1080 C 0.97851 0.3139 0.91747 0.0
C1081 C 0.95699 0.2623 0.84559 0.0
O1082 O 0.97074 0.28332 0.84449 0.0
O1083 O 0.95861 0.24837 0.86452 0.0
O1084 O 0.02858 0.30987 0.84946 0.0
O1085 O 0.03046 0.27375 0.86952 0.0
O1086 O 0.46528 0.78811 0.41721 0.0
Cd1087 Cd 0.47312 0.75608 0.39474 0.0
Cd1088 Cd 0.4932 0.79177 0.3655 0.0
O1089 O 0.48669 0.8173 0.39503 0.0
O1090 O 0.46435 0.7275 0.41732 0.0
O1091 O 0.50371 0.73733 0.40377 0.0
C1092 C 0.4882 0.72322 0.41731 0.0
C1093 C 0.53385 0.78916 0.34902 0.0
C1094 C 0.47338 0.81135 0.41432 0.0
C1095 C 0.44846 0.76012 0.34408 0.0
O1096 O 0.46278 0.78066 0.34209 0.0
O1097 O 0.45083 0.74616 0.36285 0.0
O1098 O 0.52034 0.80787 0.3441 0.0
O1099 O 0.52428 0.77191 0.36385 0.0
O1100 O 0.9792 0.78015 0.67888 0.0
Cd1101 Cd 0.00685 0.76826 0.65434 0.0
Cd1102 Cd 0.97742 0.78889 0.61903 0.0
O1103 O 0.95505 0.79663 0.65048 0.0
O1104 O 0.03352 0.75613 0.67634 0.0
O1105 O 0.04135 0.78804 0.65067 0.0
C1106 C 0.04967 0.77282 0.66677 0.0
C1107 C 0.98807 0.82172 0.592 0.0
C1108 C 0.95938 0.79118 0.67328 0.0
C1109 C 0.98492 0.73287 0.61196 0.0
O1110 O 0.97563 0.75203 0.60269 0.0
O1111 O -0.00246 0.73545 0.63257 0.0
O1112 O 0.96572 0.80944 0.59129 0.0
O1113 O 0.0045 0.81562 0.6085 0.0
O1114 O 0.46733 0.27039 0.17247 0.0
Cd1115 Cd 0.49683 0.26457 0.14723 0.0
Cd1116 Cd 0.46869 0.29442 0.118 0.0
O1117 O 0.44792 0.29838 0.15087 0.0
O1118 O 0.52264 0.24823 0.16714 0.0
O1119 O 0.53055 0.28597 0.15034 0.0
C1120 C 0.5385 0.26775 0.16318 0.0
C1121 C 0.47922 0.33058 0.09509 0.0
C1122 C 0.44983 0.28567 0.17063 0.0
C1123 C 0.4745 0.24022 0.09878 0.0
O1124 O 0.46309 0.26045 0.09645 0.0
O1125 O 0.4899 0.23858 0.11708 0.0
O1126 O 0.45639 0.3194 0.09465 0.0
O1127 O 0.49623 0.32161 0.10918 0.0
C1128 C 0.23196 0.8021 0.92312 0.0
C1129 C 0.211 0.8011 0.90631 0.0
H1130 H 0.25053 0.82028 0.95613 0.0
C1131 C 0.19115 0.81709 0.91183 0.0
H1132 H 0.24785 0.79048 0.91939 0.0
C1133 C 0.19306 0.83479 0.93271 0.0
C1134 C 0.21461 0.83648 0.94873 0.0
H1135 H 0.17441 0.81642 0.8997 0.0
H1136 H 0.17798 0.84756 0.93594 0.0
C1137 C 0.23361 0.81939 0.9442 0.0
C1138 C 0.07853 0.51929 0.38747 0.0
C1139 C 0.06305 0.53969 0.39189 0.0
H1140 H 0.10173 0.49951 0.36061 0.0
C1141 C 0.05923 0.55632 0.37242 0.0
H1142 H 0.08159 0.50624 0.40232 0.0
C1143 C 0.07017 0.55219 0.34855 0.0
C1144 C 0.08554 0.53168 0.34397 0.0
H1145 H 0.04715 0.57205 0.37547 0.0
H1146 H 0.06655 0.565 0.33366 0.0
C1147 C 0.09002 0.51551 0.36373 0.0
C1148 C 0.77197 0.75597 0.94586 0.0
C1149 C 0.78275 0.74886 0.92232 0.0
H1150 H 0.76074 0.74461 0.98299 0.0
C1151 C 0.792 0.72442 0.91897 0.0
H1152 H 0.76509 0.77482 0.94922 0.0
C1153 C 0.78978 0.70719 0.93842 0.0
C1154 C 0.77812 0.71396 0.96161 0.0
H1155 H 0.80014 0.71821 0.90098 0.0
H1156 H 0.79648 0.68828 0.93497 0.0
C1157 C 0.76962 0.73869 0.96526 0.0
C1158 C 0.94129 0.05345 0.37517 0.0
C1159 C 0.95284 0.03041 0.37772 0.0
H1160 H 0.9167 0.07424 0.35272 0.0
C1161 C 0.94853 0.0104 0.35903 0.0
H1162 H 0.9444 0.06912 0.38941 0.0
C1163 C 0.9332 0.01346 0.33795 0.0
C1164 C 0.92151 0.03643 0.33534 0.0
H1165 H 0.95747 0.99257 0.36047 0.0
H1166 H 0.93035 -0.0023 0.32377 0.0
C1167 C 0.92548 0.05634 0.35426 0.0
C1168 C 0.22955 0.21909 0.63672 0.0
C1169 C 0.25311 0.22087 0.64965 0.0
H1170 H 0.20904 0.20765 0.60244 0.0
C1171 C 0.27434 0.2108 0.63762 0.0
H1172 H 0.21295 0.22706 0.64532 0.0
C1173 C 0.27207 0.19952 0.61289 0.0
C1174 C 0.24866 0.19862 0.59973 0.0
H1175 H 0.29272 0.21194 0.6472 0.0
H1176 H 0.28877 0.19224 0.60384 0.0
C1177 C 0.22738 0.2082 0.61203 0.0
C1178 C 0.46374 0.5735 0.675 0.0
C1179 C 0.47864 0.5548 0.66375 0.0
H1180 H 0.43414 0.58163 0.70168 0.0
C1181 C 0.47395 0.52916 0.6704 0.0
H1182 H 0.46698 0.59345 0.67041 0.0
C1183 C 0.45534 0.52247 0.68836 0.0
C1184 C 0.4408 0.5412 0.69997 0.0
H1185 H 0.48459 0.51416 0.66165 0.0
H1186 H 0.4525 0.50257 0.69328 0.0
C1187 C 0.44494 0.56674 0.6929 0.0
C1188 C 0.74592 0.3256 0.61807 0.0
C1189 C 0.76745 0.31136 0.6191 0.0
H1190 H 0.72555 0.35141 0.59667 0.0
C1191 C 0.78447 0.31114 0.59858 0.0
H1192 H 0.73257 0.32593 0.6338 0.0
C1193 C 0.78031 0.32514 0.5774 0.0
C1194 C 0.75922 0.34004 0.57646 0.0
H1195 H 0.80109 0.30012 0.59895 0.0
H1196 H 0.79402 0.32471 0.56199 0.0
C1197 C 0.74197 0.34012 0.59695 0.0
C1198 C 0.51892 0.00026 0.67487 0.0
C1199 C 0.51134 0.97384 0.6724 0.0
H1200 H 0.54351 0.0301 0.6931 0.0
C1201 C 0.52386 0.95691 0.68712 0.0
H1202 H 0.51034 0.01382 0.66329 0.0
C1203 C 0.54349 0.96632 0.70401 0.0
C1204 C 0.55075 0.9928 0.7065 0.0
H1205 H 0.51844 0.93645 0.68568 0.0
H1206 H 0.55277 0.95295 0.71525 0.0
C1207 C 0.53822 0.00961 0.69179 0.0
C1208 C 0.90577 0.26606 0.79605 0.0
C1209 C 0.89862 0.23991 0.78999 0.0
H1210 H 0.93018 0.29357 0.81812 0.0
C1211 C 0.91228 0.22128 0.8012 0.0
H1212 H 0.89551 0.28103 0.78826 0.0
C1213 C 0.93152 0.22856 0.81907 0.0
C1214 C 0.93807 0.25461 0.82546 0.0
H1215 H 0.90791 0.201 0.79652 0.0
H1216 H 0.94123 0.2138 0.82795 0.0
C1217 C 0.92553 0.27332 0.81335 0.0
C1218 C 0.44989 0.8445 0.47447 0.0
C1219 C 0.45214 0.87032 0.46808 0.0
H1220 H 0.45471 0.8055 0.46236 0.0
C1221 C 0.46177 0.87668 0.44411 0.0
H1222 H 0.44242 0.83916 0.49285 0.0
C1223 C 0.46908 0.85754 0.4268 0.0
C1224 C 0.46654 0.83164 0.43303 0.0
H1225 H 0.46391 0.89651 0.43888 0.0
H1226 H 0.4764 0.86302 0.40842 0.0
C1227 C 0.45685 0.82529 0.45702 0.0
C1228 C 0.10308 0.30631 0.82042 0.0
C1229 C 0.1158 0.28394 0.82284 0.0
H1230 H 0.06978 0.32598 0.82877 0.0
C1231 C 0.10398 0.26374 0.83635 0.0
H1232 H 0.11151 0.32203 0.80974 0.0
C1233 C 0.07987 0.26601 0.84735 0.0
C1234 C 0.06716 0.2884 0.84473 0.0
H1235 H 0.11343 0.24632 0.83853 0.0
H1236 H 0.07108 0.25015 0.8576 0.0
C1237 C 0.07907 0.30851 0.83122 0.0
C1238 C 0.48731 0.67071 0.46379 0.0
C1239 C 0.5133 0.67084 0.4703 0.0
H1240 H 0.45912 0.68692 0.44179 0.0
C1241 C 0.53143 0.68666 0.45736 0.0
H1242 H 0.47296 0.65826 0.47297 0.0
C1243 C 0.52348 0.70302 0.43918 0.0
C1244 C 0.4973 0.70379 0.43374 0.0
H1245 H 0.55159 0.68716 0.46201 0.0
H1246 H 0.5377 0.71574 0.43017 0.0
C1247 C 0.4794 0.68702 0.44579 0.0
C1248 C 0.91722 0.78165 0.7306 0.0
C1249 C 0.90263 0.80312 0.73078 0.0
H1250 H 0.94684 0.76151 0.71269 0.0
C1251 C 0.90729 0.82097 0.71176 0.0
H1252 H 0.91383 0.76697 0.74425 0.0
C1253 C 0.92571 0.81716 0.69294 0.0
C1254 C 0.94034 0.79588 0.69322 0.0
H1255 H 0.8969 0.83799 0.7114 0.0
H1256 H 0.92874 0.83101 0.67839 0.0
C1257 C 0.93609 0.77833 0.71233 0.0
C1258 C 0.01639 0.88318 0.56466 0.0
C1259 C 0.00415 0.88227 0.54072 0.0
H1260 H 0.02119 0.86449 0.59952 0.0
C1261 C 0.98747 0.86061 0.53362 0.0
H1262 H 0.02899 0.89965 0.57112 0.0
C1263 C 0.9824 0.84097 0.55032 0.0
C1264 C 0.99442 0.84211 0.57422 0.0
H1265 H 0.97823 0.85875 0.51514 0.0
H1266 H 0.96915 0.82475 0.54444 0.0
C1267 C 0.01181 0.86313 0.5811 0.0
C1268 C 0.11724 0.79789 0.68533 0.0
C1269 C 0.12683 0.77555 0.69407 0.0
H1270 H 0.08512 0.81451 0.66926 0.0
C1271 C 0.11176 0.75213 0.69131 0.0
H1272 H 0.12851 0.8162 0.68737 0.0
C1273 C 0.08697 0.75131 0.68163 0.0
C1274 C 0.07687 0.77379 0.67407 0.0
H1275 H 0.11849 0.7347 0.69821 0.0
H1276 H 0.0754 0.73314 0.68076 0.0
C1277 C 0.09249 0.79695 0.67507 0.0
C1278 C 0.98161 0.66095 0.59995 0.0
C1279 C 0.97724 0.65843 0.57363 0.0
H1280 H 0.98766 0.68665 0.63269 0.0
C1281 C 0.9746 0.68043 0.55996 0.0
H1282 H 0.9838 0.6442 0.6108 0.0
C1283 C 0.97644 0.70472 0.57249 0.0
C1284 C 0.98144 0.70731 0.59876 0.0
H1285 H 0.97108 0.67881 0.53962 0.0
H1286 H 0.97453 0.72146 0.56155 0.0
C1287 C 0.98391 0.68521 0.61239 0.0
C1288 C 0.79344 0.94665 0.2861 0.0
C1289 C 0.79074 0.93076 0.26369 0.0
H1290 H 0.81054 0.98141 0.30411 0.0
C1291 C 0.80338 0.93887 0.24151 0.0
H1292 H 0.78449 0.94089 0.30369 0.0
C1293 C 0.8189 0.96192 0.24198 0.0
C1294 C 0.82166 0.97757 0.26447 0.0
H1295 H 0.80134 0.92745 0.22376 0.0
H1296 H 0.82879 0.96746 0.22476 0.0
C1297 C 0.80848 0.9699 0.28639 0.0
C1298 C 0.80643 0.14266 0.24884 0.0
C1299 C 0.79046 0.15125 0.26843 0.0
H1300 H 0.83399 0.11615 0.23729 0.0
C1301 C 0.78956 0.13879 0.29148 0.0
H1302 H 0.80751 0.152 0.23091 0.0
C1303 C 0.80461 0.11857 0.29516 0.0
C1304 C 0.82099 0.11019 0.27587 0.0
H1305 H 0.77713 0.1447 0.30678 0.0
H1306 H 0.8034 0.10955 0.31325 0.0
C1307 C 0.82168 0.12232 0.25258 0.0
C1308 C 0.32519 0.96545 0.95671 0.0
C1309 C 0.34347 0.97196 0.97591 0.0
H1310 H 0.28873 0.94593 0.94699 0.0
C1311 C 0.33921 0.96309 0.00039 0.0
H1312 H 0.32812 0.97229 0.93774 0.0
C1313 C 0.31697 0.94777 0.00562 0.0
C1314 C 0.29841 0.94158 0.98656 0.0
H1315 H 0.35316 0.96794 0.01543 0.0
H1316 H 0.31413 0.94111 0.02466 0.0
C1317 C 0.30268 0.95058 0.96207 0.0
C1318 C 0.20793 0.42838 0.30524 0.0
C1319 C 0.20666 0.409 0.28571 0.0
H1320 H 0.19448 0.46375 0.31951 0.0
C1321 C 0.18972 0.41046 0.26522 0.0
H1322 H 0.22102 0.42784 0.32111 0.0
C1323 C 0.17421 0.43099 0.26441 0.0
C1324 C 0.17585 0.45057 0.28382 0.0
H1325 H 0.1884 0.39566 0.24997 0.0
H1326 H 0.16133 0.43179 0.24843 0.0
C1327 C 0.19283 0.449 0.30423 0.0
C1328 C 0.14797 0.09365 0.50581 0.0
C1329 C 0.15179 0.06833 0.4975 0.0
H1330 H 0.1653 0.13112 0.51635 0.0
C1331 C 0.17676 0.06135 0.4931 0.0
H1332 H 0.12884 0.09938 0.50945 0.0
C1333 C 0.19763 0.07958 0.49669 0.0
C1334 C 0.19382 0.10491 0.5052 0.0
H1335 H 0.18007 0.04191 0.48657 0.0
H1336 H 0.21673 0.07377 0.49311 0.0
C1337 C 0.16881 0.11174 0.50983 0.0
C1338 C 0.68329 0.10191 0.71214 0.0
C1339 C 0.69963 0.11586 0.73001 0.0
H1340 H 0.65536 0.07008 0.70512 0.0
C1341 C 0.70051 0.10746 0.75498 0.0
H1342 H 0.6824 0.10756 0.69266 0.0
C1343 C 0.6856 0.08564 0.76188 0.0
C1344 C 0.66901 0.072 0.74414 0.0
H1345 H 0.71237 0.11802 0.76947 0.0
H1346 H 0.6865 0.07992 0.78135 0.0
C1347 C 0.66798 0.08031 0.7192 0.0
C1348 C 0.35402 0.08886 0.55514 0.0
C1349 C 0.35294 0.06398 0.54328 0.0
H1350 H 0.33907 0.12599 0.55656 0.0
C1351 C 0.33568 0.058 0.52292 0.0
H1352 H 0.36728 0.09443 0.5706 0.0
C1353 C 0.32047 0.07639 0.51432 0.0
C1354 C 0.3214 0.10101 0.52633 0.0
H1355 H 0.33345 0.03894 0.51376 0.0
H1356 H 0.30733 0.07104 0.49868 0.0
C1357 C 0.33809 0.10709 0.54698 0.0
C1358 C 0.6836 0.51996 0.51479 0.0
C1359 C 0.66165 0.51359 0.52931 0.0
H1360 H 0.71726 0.507 0.49696 0.0
C1361 C 0.65817 0.48874 0.53863 0.0
H1362 H 0.6874 0.53903 0.50785 0.0
C1363 C 0.67582 0.47062 0.53301 0.0
C1364 C 0.69697 0.47677 0.51749 0.0
H1365 H 0.64135 0.48289 0.54953 0.0
H1366 H 0.67233 0.45149 0.53991 0.0
C1367 C 0.70087 0.50167 0.50869 0.0
C1368 C 0.71671 0.354 0.39921 0.0
C1369 C 0.71893 0.32747 0.39993 0.0
H1370 H 0.71808 0.39014 0.42033 0.0
C1371 C 0.72127 0.31658 0.4236 0.0
H1372 H 0.71493 0.36293 0.38123 0.0
C1373 C 0.72321 0.33214 0.44595 0.0
C1374 C 0.72277 0.3589 0.44511 0.0
H1375 H 0.7224 0.29609 0.42477 0.0
H1376 H 0.7261 0.32325 0.46379 0.0
C1377 C 0.71856 0.3696 0.42162 0.0
C1378 C 0.54736 0.06064 0.85298 0.0
C1379 C 0.54412 0.04427 0.87323 0.0
H1380 H 0.56449 0.06696 0.8167 0.0
C1381 C 0.55659 0.02151 0.87273 0.0
H1382 H 0.53772 0.0782 0.853 0.0
C1383 C 0.57225 0.01527 0.85221 0.0
C1384 C 0.57509 0.0314 0.83167 0.0
H1385 H 0.55426 0.00867 0.88824 0.0
H1386 H 0.5817 -0.0024 0.85216 0.0
C1387 C 0.56251 0.05413 0.83223 0.0
C1388 C 0.25224 0.24484 0.43919 0.0
C1389 C 0.27611 0.25005 0.4274 0.0
H1390 H 0.23073 0.22376 0.46692 0.0
C1391 C 0.29716 0.23747 0.4357 0.0
H1392 H 0.23535 0.25344 0.43305 0.0
C1393 C 0.29415 0.21958 0.45457 0.0
C1394 C 0.27025 0.2145 0.46609 0.0
H1395 H 0.316 0.24131 0.42765 0.0
H1396 H 0.31052 0.20983 0.46027 0.0
C1397 C 0.24946 0.22759 0.45853 0.0
C1398 C 0.47191 0.5327 0.84927 0.0
C1399 C 0.46225 0.53549 0.87406 0.0
H1400 H 0.46376 0.5316 0.80935 0.0
C1401 C 0.4366 0.54058 0.87764 0.0
H1402 H 0.49164 0.52864 0.84614 0.0
C1403 C 0.42077 0.5428 0.85664 0.0
C1404 C 0.43025 0.53932 0.83179 0.0
H1405 H 0.42886 0.54287 0.89666 0.0
H1406 H 0.40095 0.54647 0.85984 0.0
C1407 C 0.45597 0.53434 0.8283 0.0
C1408 C 0.77616 0.71635 0.13621 0.0
C1409 C 0.75414 0.72617 0.14689 0.0
H1410 H 0.7926 0.69758 0.10356 0.0
C1411 C 0.7313 0.72384 0.13273 0.0
H1412 H 0.794 0.71797 0.14677 0.0
C1413 C 0.7306 0.71265 0.10813 0.0
C1414 C 0.75264 0.70326 0.09719 0.0
H1415 H 0.71414 0.7316 0.1403 0.0
H1416 H 0.71278 0.71165 0.09756 0.0
C1417 C 0.77534 0.70471 0.11159 0.0
C1418 C 0.96297 0.07799 0.18357 0.0
C1419 C 0.97668 0.05875 0.17155 0.0
H1420 H 0.9335 0.08681 0.21016 0.0
C1421 C 0.97035 0.03301 0.17711 0.0
H1422 H 0.96747 0.09802 0.1798 0.0
C1423 C 0.9511 0.02666 0.19451 0.0
C1424 C 0.93753 0.04585 0.20667 0.0
H1425 H 0.98005 0.01763 0.16775 0.0
H1426 H 0.94687 0.00662 0.1984 0.0
C1427 C 0.94352 0.07159 0.20094 0.0
C1428 C 0.23751 0.82831 0.11574 0.0
C1429 C 0.26162 0.81977 0.12091 0.0
H1430 H 0.2152 0.84866 0.09049 0.0
C1431 C 0.28206 0.82555 0.10437 0.0
H1432 H 0.22149 0.82411 0.1283 0.0
C1433 C 0.27845 0.83924 0.08286 0.0
C1434 C 0.25439 0.8477 0.07749 0.0
H1435 H 0.30076 0.81893 0.10774 0.0
H1436 H 0.29458 0.84306 0.07032 0.0
C1437 C 0.23397 0.84243 0.09427 0.0
C1438 C 0.01896 0.45778 0.19579 0.0
C1439 C 0.0047 0.47411 0.18199 0.0
H1440 H 0.04853 0.45513 0.22359 0.0
C1441 C 0.00926 0.50084 0.18656 0.0
H1442 H 0.01587 0.43711 0.19291 0.0
C1443 C 0.02741 0.51099 0.20435 0.0
C1444 C 0.04199 0.49479 0.21771 0.0
H1445 H -0.00054 0.51419 0.17579 0.0
H1446 H 0.03054 0.5317 0.20703 0.0
C1447 C 0.0376 0.46806 0.2134 0.0
C1448 C 0.3944 0.76716 0.29858 0.0
C1449 C 0.38508 0.74143 0.29323 0.0
H1450 H 0.42208 0.7931 0.31847 0.0
C1451 C 0.39786 0.72181 0.30382 0.0
H1452 H 0.38487 0.78289 0.29133 0.0
C1453 C 0.41871 0.72781 0.32015 0.0
C1454 C 0.42768 0.7535 0.32559 0.0
H1455 H 0.39171 0.70176 0.29967 0.0
H1456 H 0.42784 0.71238 0.32851 0.0
C1457 C 0.41568 0.77309 0.3143 0.0
C1458 C 0.96829 0.37904 0.94849 0.0
C1459 C 0.95812 0.37238 0.97217 0.0
H1460 H 0.98299 0.36574 0.9127 0.0
C1461 C 0.95508 0.34642 0.978 0.0
H1462 H 0.971 0.39898 0.94369 0.0
C1463 C 0.96169 0.32736 0.9602 0.0
C1464 C 0.97182 0.334 0.93644 0.0
H1465 H 0.94715 0.34086 0.99612 0.0
H1466 H 0.95893 0.30745 0.96507 0.0
C1467 C 0.97526 0.36004 0.93085 0.0
C1468 C 0.59736 0.76474 0.32874 0.0
C1469 C 0.6078 0.78509 0.31455 0.0
H1470 H 0.56574 0.75016 0.35118 0.0
C1471 C 0.59374 0.80652 0.3118 0.0
H1472 H 0.60788 0.74805 0.33119 0.0
C1473 C 0.56985 0.80775 0.32313 0.0
C1474 C 0.55941 0.7876 0.33753 0.0
H1475 H 0.60112 0.8223 0.30062 0.0
H1476 H 0.55956 0.82458 0.32054 0.0
C1477 C 0.57337 0.76604 0.34026 0.0
C1478 C 0.98723 0.17658 0.97223 0.0
C1479 C 0.01313 0.17451 0.97786 0.0
H1480 H 0.9601 0.19415 0.95007 0.0
C1481 C 0.03201 0.18815 0.96374 0.0
H1482 H 0.97226 0.16587 0.9824 0.0
C1483 C 0.02504 0.20433 0.94499 0.0
C1484 C -0.00092 0.20703 0.94003 0.0
H1485 H 0.05214 0.18693 0.96772 0.0
H1486 H 0.03995 0.21521 0.9349 0.0
C1487 C 0.98028 0.19265 0.95355 0.0
C1488 C 0.39945 0.31227 0.21354 0.0
C1489 C 0.39233 0.29128 0.2285 0.0
H1490 H 0.42307 0.32686 0.18345 0.0
C1491 C 0.40507 0.26872 0.22469 0.0
H1492 H 0.39065 0.33022 0.21629 0.0
C1493 C 0.42431 0.26718 0.20641 0.0
C1494 C 0.43082 0.28793 0.19112 0.0
H1495 H 0.39989 0.25198 0.23544 0.0
H1496 H 0.43353 0.24945 0.2037 0.0
C1497 C 0.41824 0.31049 0.19486 0.0
C1498 C 0.4786 0.37422 0.04033 0.0
C1499 C 0.49633 0.39474 0.04832 0.0
H1500 H 0.45912 0.33821 0.04909 0.0
C1501 C 0.50887 0.39355 0.07191 0.0
H1502 H 0.46908 0.37384 0.02205 0.0
C1503 C 0.5038 0.37244 0.08698 0.0
C1504 C 0.48558 0.35249 0.07912 0.0
H1505 H 0.52229 0.40908 0.07906 0.0
H1506 H 0.51362 0.37204 0.10506 0.0
C1507 C 0.47301 0.35359 0.05573 0.0
C1508 C 0.60411 0.29377 0.18735 0.0
C1509 C 0.61304 0.27187 0.19771 0.0
H1510 H 0.57351 0.30962 0.16801 0.0
C1511 C 0.59813 0.24835 0.19485 0.0
H1512 H 0.61531 0.31212 0.1892 0.0
C1513 C 0.57421 0.24699 0.18302 0.0
C1514 C 0.56478 0.26906 0.17358 0.0
H1515 H 0.60437 0.23124 0.20288 0.0
H1516 H 0.56284 0.22871 0.18184 0.0
C1517 C 0.58023 0.29234 0.17523 0.0
C1518 C 0.48164 0.17778 0.06124 0.0
C1519 C 0.45861 0.17465 0.04745 0.0
H1520 H 0.50464 0.201 0.08854 0.0
C1521 C 0.44112 0.19353 0.04999 0.0
H1522 H 0.49532 0.16333 0.05962 0.0
C1523 C 0.44657 0.21525 0.06623 0.0
C1524 C 0.46936 0.21812 0.08051 0.0
H1525 H 0.42329 0.19148 0.03939 0.0
H1526 H 0.43269 0.22949 0.06802 0.0
C1527 C 0.48688 0.19923 0.07781 0.0
C1528 C 0.30432 0.43995 0.78899 0.0
C1529 C 0.30105 0.42345 0.76704 0.0
H1530 H 0.32116 0.47556 0.80551 0.0
C1531 C 0.31295 0.43104 0.74429 0.0
H1532 H 0.2961 0.43461 0.80704 0.0
C1533 C 0.32807 0.45429 0.74369 0.0
C1534 C 0.331 0.4707 0.76563 0.0
H1535 H 0.3105 0.41918 0.72684 0.0
H1536 H 0.33729 0.45954 0.72604 0.0
C1537 C 0.31881 0.46344 0.78819 0.0
C1538 C 0.32018 0.64878 0.77841 0.0
C1539 C 0.30048 0.64649 0.76002 0.0
H1540 H 0.34957 0.63033 0.79687 0.0
C1541 C 0.29828 0.62456 0.74321 0.0
H1542 H 0.3231 0.66574 0.79111 0.0
C1543 C 0.31428 0.60466 0.74598 0.0
C1544 C 0.33236 0.60633 0.76578 0.0
H1545 H 0.28334 0.6221 0.72888 0.0
H1546 H 0.31142 0.58735 0.73375 0.0
C1547 C 0.33559 0.6287 0.78157 0.0
C1548 C 0.85809 0.45798 0.48268 0.0
C1549 C 0.87542 0.45342 0.50188 0.0
H1550 H 0.81936 0.45275 0.46938 0.0
C1551 C 0.86705 0.43897 0.52247 0.0
H1552 H 0.86422 0.46945 0.46686 0.0
C1553 C 0.84151 0.4291 0.52378 0.0
C1554 C 0.82395 0.43428 0.5049 0.0
H1555 H 0.88019 0.43561 0.53761 0.0
H1556 H 0.83536 0.41803 0.53985 0.0
C1557 C 0.83247 0.4487 0.48429 0.0
C1558 C 0.70262 0.92114 0.80502 0.0
C1559 C 0.7048 0.90521 0.78293 0.0
H1560 H 0.68633 0.95373 0.82246 0.0
C1561 C 0.69089 0.90993 0.76106 0.0
H1562 H 0.71339 0.91821 0.82205 0.0
C1563 C 0.67514 0.93035 0.76133 0.0
C1564 C 0.67347 0.94657 0.78334 0.0
H1565 H 0.69222 0.89787 0.74381 0.0
H1566 H 0.66479 0.93381 0.74418 0.0
C1567 C 0.68723 0.94161 0.80519 0.0
C1568 C 0.67984 0.56391 -0.00031 0.0
C1569 C 0.65518 0.57212 0.00268 0.0
H1570 H 0.72007 0.57497 -0.00086 0.0
C1571 C 0.65211 0.59821 0.00832 0.0
H1572 H 0.68254 0.54386 0.99517 0.0
C1573 C 0.67343 0.61593 0.01087 0.0
C1574 C 0.69815 0.60789 0.00733 0.0
H1575 H 0.63317 0.60487 0.01075 0.0
H1576 H 0.67054 0.63596 0.01519 0.0
C1577 C 0.70119 0.58172 0.00176 0.0
C1578 C 0.20044 0.59635 0.22758 0.0
C1579 C 0.18902 0.61839 0.22054 0.0
H1580 H 0.19494 0.55891 0.24227 0.0
C1581 C 0.1622 0.61819 0.22076 0.0
H1582 H 0.22103 0.59562 0.22702 0.0
C1583 C 0.14723 0.59692 0.22907 0.0
C1584 C 0.15881 0.57558 0.23759 0.0
H1585 H 0.15281 0.6349 0.21565 0.0
H1586 H 0.12665 0.5977 0.22987 0.0
C1587 C 0.18551 0.57527 0.23623 0.0
C1588 C 0.83936 0.55839 0.02293 0.0
C1589 C 0.85567 0.56428 0.04403 0.0
H1590 H 0.81239 0.57157 -0.00267 0.0
C1591 C 0.85664 0.58922 0.05572 0.0
H1592 H 0.8373 0.53928 0.01386 0.0
C1593 C 0.84149 0.60764 0.0466 0.0
C1594 C 0.82565 0.60163 0.02528 0.0
H1595 H 0.86919 0.59463 0.07177 0.0
H1596 H 0.8423 0.62658 0.05608 0.0
C1597 C 0.82489 0.57692 0.01347 0.0
C1598 C 0.16581 0.00511 0.00903 0.0
C1599 C 0.14532 0.00095 0.02604 0.0
H1600 H 0.1959 0.98884 0.98782 0.0
C1601 C 0.14107 0.97655 0.03631 0.0
H1602 H 0.17041 0.02374 0.00136 0.0
C1603 C 0.15655 0.9568 0.02925 0.0
C1604 C 0.17598 0.96087 0.01125 0.0
H1605 H 0.12533 0.97236 0.04917 0.0
H1606 H 0.15269 0.93811 0.03707 0.0
C1607 C 0.18062 0.98518 0.00138 0.0
loop_
_geom_bond_atom_site_label_1
_geom_bond_atom_site_label_2
_geom_bond_distance
_geom_bond_site_symmetry_2
_ccdc_geom_bond_type
C0 C1 1.391 . S
C0 C4 1.391 . S
C0 H42 0.948 . S
C1 C0 1.391 . S
C1 C2 1.391 . S
C2 C1 1.391 . S
C2 H58 0.947 . S
C2 C59 1.392 . S
C3 C4 1.391 . S
C3 C7 1.397 . S
C3 C59 1.419 . S
C4 C0 1.391 . S
C4 C3 1.391 . S
C4 C5 1.399 . S
C5 C4 1.399 . S
C5 C8 1.396 . S
C5 C17 1.453 . S
C5 C18 1.684 . S
H6 C30 0.948 . S
C7 C3 1.397 . S
C7 C8 1.394 . S
C7 C26 1.723 . S
C8 C5 1.396 . S
C8 C7 1.394 . S
C8 C38 1.723 . S
H9 C32 0.947 . S
H10 C33 0.948 . S
H11 C39 0.982 . S
H12 C40 0.979 . S
H13 C40 0.980 . S
H14 C40 0.983 . S
H15 C39 0.979 . S
H16 C39 0.977 . S
C17 C5 1.453 . S
C17 H46 0.982 . S
C17 H47 0.979 . S
C17 H48 0.977 . S
C18 C5 1.684 . S
C18 H43 0.979 . S
C18 H44 0.980 . S
C18 H45 0.983 . S
C19 C20 1.391 . S
C19 C24 1.391 . S
C19 H49 0.948 . S
C20 C19 1.391 . S
C20 C21 1.391 . S
C21 C20 1.391 . S
C21 C22 1.392 . S
C21 H50 0.947 . S
C22 C21 1.392 . S
C22 C23 1.419 . S
C22 H51 0.948 . S
C23 C22 1.419 . S
C23 C24 1.391 . S
C23 C27 1.397 . S
C24 C19 1.391 . S
C24 C23 1.391 . S
C24 C25 1.399 . S
C25 C24 1.399 . S
C25 C26 1.396 . S
C25 C28 1.453 . S
C25 C29 1.684 . S
C26 C7 1.723 . S
C26 C25 1.396 . S
C26 C27 1.394 . S
C27 C23 1.397 . S
C27 C26 1.394 . S
C27 C37 1.723 . S
C28 C25 1.453 . S
C28 H52 0.982 . S
C28 H53 0.979 . S
C28 H54 0.977 . S
C29 C25 1.684 . S
C29 H55 0.979 . S
C29 H56 0.980 . S
C29 H57 0.983 . S
C30 H6 0.948 . S
C30 C31 1.391 . S
C30 C35 1.391 . S
C31 C30 1.391 . S
C31 C32 1.391 . S
C32 H9 0.947 . S
C32 C31 1.391 . S
C32 C33 1.392 . S
C33 H10 0.948 . S
C33 C32 1.392 . S
C33 C34 1.419 . S
C34 C33 1.419 . S
C34 C35 1.391 . S
C34 C38 1.397 . S
C35 C30 1.391 . S
C35 C34 1.391 . S
C35 C36 1.399 . S
C36 C35 1.399 . S
C36 C37 1.396 . S
C36 C39 1.453 . S
C36 C40 1.684 . S
C37 C27 1.723 . S
C37 C36 1.396 . S
C37 C38 1.394 . S
C38 C8 1.723 . S
C38 C34 1.397 . S
C38 C37 1.394 . S
C39 H11 0.982 . S
C39 H15 0.979 . S
C39 H16 0.977 . S
C39 C36 1.453 . S
C40 H12 0.979 . S
C40 H13 0.980 . S
C40 H14 0.983 . S
C40 C36 1.684 . S
H41 C59 0.948 . S
H42 C0 0.948 . S
H43 C18 0.979 . S
H44 C18 0.980 . S
H45 C18 0.983 . S
H46 C17 0.982 . S
H47 C17 0.979 . S
H48 C17 0.977 . S
H49 C19 0.948 . S
H50 C21 0.947 . S
H51 C22 0.948 . S
H52 C28 0.982 . S
H53 C28 0.979 . S
H54 C28 0.977 . S
H55 C29 0.979 . S
H56 C29 0.980 . S
H57 C29 0.983 . S
H58 C2 0.947 . S
C59 C2 1.392 . S
C59 C3 1.419 . S
C59 H41 0.948 . S
C60 C61 1.391 . S
C60 C64 1.391 . S
C60 H102 0.948 . S
C61 C60 1.391 . S
C61 C62 1.391 . S
C62 C61 1.391 . S
C62 H118 0.947 . S
C62 C119 1.392 . S
C63 C64 1.391 . S
C63 C67 1.397 . S
C63 C119 1.419 . S
C64 C60 1.391 . S
C64 C63 1.391 . S
C64 C65 1.399 . S
C65 C64 1.399 . S
C65 C68 1.396 . S
C65 C77 1.453 . S
C65 C78 1.684 . S
H66 C90 0.948 . S
C67 C63 1.397 . S
C67 C68 1.394 . S
C67 C86 1.723 . S
C68 C65 1.396 . S
C68 C67 1.394 . S
C68 C98 1.723 . S
H69 C92 0.947 . S
H70 C93 0.948 . S
H71 C99 0.982 . S
H72 C100 0.979 . S
H73 C100 0.980 . S
H74 C100 0.983 . S
H75 C99 0.979 . S
H76 C99 0.977 . S
C77 C65 1.453 . S
C77 H106 0.982 . S
C77 H107 0.979 . S
C77 H108 0.977 . S
C78 C65 1.684 . S
C78 H103 0.979 . S
C78 H104 0.980 . S
C78 H105 0.983 . S
C79 C80 1.391 . S
C79 C84 1.391 . S
C79 H109 0.948 . S
C80 C79 1.391 . S
C80 C81 1.391 . S
C81 C80 1.391 . S
C81 C82 1.392 . S
C81 H110 0.947 . S
C82 C81 1.392 . S
C82 C83 1.419 . S
C82 H111 0.948 . S
C83 C82 1.419 . S
C83 C84 1.391 . S
C83 C87 1.397 . S
C84 C79 1.391 . S
C84 C83 1.391 . S
C84 C85 1.399 . S
C85 C84 1.399 . S
C85 C86 1.396 . S
C85 C88 1.453 . S
C85 C89 1.684 . S
C86 C67 1.723 . S
C86 C85 1.396 . S
C86 C87 1.394 . S
C87 C83 1.397 . S
C87 C86 1.394 . S
C87 C97 1.723 . S
C88 C85 1.453 . S
C88 H112 0.982 . S
C88 H113 0.979 . S
C88 H114 0.977 . S
C89 C85 1.684 . S
C89 H115 0.979 . S
C89 H116 0.980 . S
C89 H117 0.983 . S
C90 H66 0.948 . S
C90 C91 1.391 . S
C90 C95 1.391 . S
C91 C90 1.391 . S
C91 C92 1.391 . S
C92 H69 0.947 . S
C92 C91 1.391 . S
C92 C93 1.392 . S
C93 H70 0.948 . S
C93 C92 1.392 . S
C93 C94 1.419 . S
C94 C93 1.419 . S
C94 C95 1.391 . S
C94 C98 1.397 . S
C95 C90 1.391 . S
C95 C94 1.391 . S
C95 C96 1.399 . S
C96 C95 1.399 . S
C96 C97 1.396 . S
C96 C99 1.453 . S
C96 C100 1.684 . S
C97 C87 1.723 . S
C97 C96 1.396 . S
C97 C98 1.394 . S
C98 C68 1.723 . S
C98 C94 1.397 . S
C98 C97 1.394 . S
C99 H71 0.982 . S
C99 H75 0.979 . S
C99 H76 0.977 . S
C99 C96 1.453 . S
C100 H72 0.979 . S
C100 H73 0.980 . S
C100 H74 0.983 . S
C100 C96 1.684 . S
H101 C119 0.948 . S
H102 C60 0.948 . S
H103 C78 0.979 . S
H104 C78 0.980 . S
H105 C78 0.983 . S
H106 C77 0.982 . S
H107 C77 0.979 . S
H108 C77 0.977 . S
H109 C79 0.948 . S
H110 C81 0.947 . S
H111 C82 0.948 . S
H112 C88 0.982 . S
H113 C88 0.979 . S
H114 C88 0.977 . S
H115 C89 0.979 . S
H116 C89 0.980 . S
H117 C89 0.983 . S
H118 C62 0.947 . S
C119 C62 1.392 . S
C119 C63 1.419 . S
C119 H101 0.948 . S
C120 C121 1.391 . S
C120 C124 1.391 . S
C120 H162 0.948 . S
C121 C120 1.391 . S
C121 C122 1.391 . S
C122 C121 1.391 . S
C122 H178 0.947 1_554 S
C122 C179 1.392 . S
C123 C124 1.391 . S
C123 C127 1.397 . S
C123 C179 1.419 . S
C124 C120 1.391 . S
C124 C123 1.391 . S
C124 C125 1.399 . S
C125 C124 1.399 . S
C125 C128 1.396 . S
C125 C137 1.453 . S
C125 C138 1.684 . S
H126 C150 0.948 . S
C127 C123 1.397 . S
C127 C128 1.394 . S
C127 C146 1.723 . S
C128 C125 1.396 . S
C128 C127 1.394 . S
C128 C158 1.723 . S
H129 C152 0.947 . S
H130 C153 0.948 . S
H131 C159 0.982 . S
H132 C160 0.979 . S
H133 C160 0.980 . S
H134 C160 0.983 . S
H135 C159 0.979 . S
H136 C159 0.977 . S
C137 C125 1.453 . S
C137 H166 0.982 . S
C137 H167 0.979 . S
C137 H168 0.977 . S
C138 C125 1.684 . S
C138 H163 0.979 . S
C138 H164 0.980 . S
C138 H165 0.983 . S
C139 C140 1.391 . S
C139 C144 1.391 . S
C139 H169 0.948 . S
C140 C139 1.391 . S
C140 C141 1.391 . S
C141 C140 1.391 . S
C141 C142 1.392 . S
C141 H170 0.947 . S
C142 C141 1.392 . S
C142 C143 1.419 . S
C142 H171 0.948 . S
C143 C142 1.419 . S
C143 C144 1.391 . S
C143 C147 1.397 . S
C144 C139 1.391 . S
C144 C143 1.391 . S
C144 C145 1.399 . S
C145 C144 1.399 . S
C145 C146 1.396 . S
C145 C148 1.453 . S
C145 C149 1.684 . S
C146 C127 1.723 . S
C146 C145 1.396 . S
C146 C147 1.394 . S
C147 C143 1.397 . S
C147 C146 1.394 . S
C147 C157 1.723 . S
C148 C145 1.453 . S
C148 H172 0.982 . S
C148 H173 0.979 . S
C148 H174 0.977 . S
C149 C145 1.684 . S
C149 H175 0.979 . S
C149 H176 0.980 . S
C149 H177 0.983 . S
C150 H126 0.948 . S
C150 C151 1.391 . S
C150 C155 1.391 . S
C151 C150 1.391 . S
C151 C152 1.391 . S
C152 H129 0.947 . S
C152 C151 1.391 . S
C152 C153 1.392 . S
C153 H130 0.948 . S
C153 C152 1.392 . S
C153 C154 1.419 . S
C154 C153 1.419 . S
C154 C155 1.391 . S
C154 C158 1.397 . S
C155 C150 1.391 . S
C155 C154 1.391 . S
C155 C156 1.399 . S
C156 C155 1.399 . S
C156 C157 1.396 . S
C156 C159 1.453 . S
C156 C160 1.684 . S
C157 C147 1.723 . S
C157 C156 1.396 . S
C157 C158 1.394 . S
C158 C128 1.723 . S
C158 C154 1.397 . S
C158 C157 1.394 . S
C159 H131 0.982 . S
C159 H135 0.979 . S
C159 H136 0.977 . S
C159 C156 1.453 . S
C160 H132 0.979 . S
C160 H133 0.980 . S
C160 H134 0.983 . S
C160 C156 1.684 . S
H161 C179 0.948 . S
H162 C120 0.948 . S
H163 C138 0.979 . S
H164 C138 0.980 . S
H165 C138 0.983 . S
H166 C137 0.982 . S
H167 C137 0.979 . S
H168 C137 0.977 . S
H169 C139 0.948 . S
H170 C141 0.947 . S
H171 C142 0.948 . S
H172 C148 0.982 . S
H173 C148 0.979 . S
H174 C148 0.977 . S
H175 C149 0.979 . S
H176 C149 0.980 . S
H177 C149 0.983 . S
H178 C122 0.947 1_556 S
C179 C122 1.392 . S
C179 C123 1.419 . S
C179 H161 0.948 . S
C180 C181 1.391 . S
C180 C184 1.391 . S
C180 H222 0.948 . S
C181 C180 1.391 . S
C181 C182 1.391 . S
C182 C181 1.391 . S
C182 H238 0.947 . S
C182 C239 1.392 . S
C183 C184 1.391 . S
C183 C187 1.397 . S
C183 C239 1.419 . S
C184 C180 1.391 . S
C184 C183 1.391 . S
C184 C185 1.399 . S
C185 C184 1.399 . S
C185 C188 1.396 . S
C185 C197 1.453 . S
C185 C198 1.684 . S
H186 C210 0.948 . S
C187 C183 1.397 . S
C187 C188 1.394 . S
C187 C206 1.723 . S
C188 C185 1.396 . S
C188 C187 1.394 . S
C188 C218 1.723 . S
H189 C212 0.947 . S
H190 C213 0.948 . S
H191 C219 0.982 . S
H192 C220 0.979 . S
H193 C220 0.980 . S
H194 C220 0.983 . S
H195 C219 0.979 . S
H196 C219 0.977 . S
C197 C185 1.453 . S
C197 H226 0.982 . S
C197 H227 0.979 . S
C197 H228 0.977 . S
C198 C185 1.684 . S
C198 H223 0.979 . S
C198 H224 0.980 . S
C198 H225 0.983 . S
C199 C200 1.391 . S
C199 C204 1.391 . S
C199 H229 0.948 . S
C200 C199 1.391 . S
C200 C201 1.391 . S
C201 C200 1.391 . S
C201 C202 1.392 . S
C201 H230 0.947 . S
C202 C201 1.392 . S
C202 C203 1.419 . S
C202 H231 0.948 . S
C203 C202 1.419 . S
C203 C204 1.391 . S
C203 C207 1.397 . S
C204 C199 1.391 . S
C204 C203 1.391 . S
C204 C205 1.399 . S
C205 C204 1.399 . S
C205 C206 1.396 . S
C205 C208 1.453 . S
C205 C209 1.684 . S
C206 C187 1.723 . S
C206 C205 1.396 . S
C206 C207 1.394 . S
C207 C203 1.397 . S
C207 C206 1.394 . S
C207 C217 1.723 . S
C208 C205 1.453 . S
C208 H232 0.982 . S
C208 H233 0.979 . S
C208 H234 0.977 . S
C209 C205 1.684 . S
C209 H235 0.979 . S
C209 H236 0.980 . S
C209 H237 0.983 . S
C210 H186 0.948 . S
C210 C211 1.391 . S
C210 C215 1.391 . S
C211 C210 1.391 . S
C211 C212 1.391 . S
C212 H189 0.947 . S
C212 C211 1.391 . S
C212 C213 1.392 . S
C213 H190 0.948 . S
C213 C212 1.392 . S
C213 C214 1.419 . S
C214 C213 1.419 . S
C214 C215 1.391 . S
C214 C218 1.397 . S
C215 C210 1.391 . S
C215 C214 1.391 . S
C215 C216 1.399 . S
C216 C215 1.399 . S
C216 C217 1.396 . S
C216 C219 1.453 . S
C216 C220 1.684 . S
C217 C207 1.723 . S
C217 C216 1.396 . S
C217 C218 1.394 . S
C218 C188 1.723 . S
C218 C214 1.397 . S
C218 C217 1.394 . S
C219 H191 0.982 . S
C219 H195 0.979 . S
C219 H196 0.977 . S
C219 C216 1.453 . S
C220 H192 0.979 . S
C220 H193 0.980 . S
C220 H194 0.983 . S
C220 C216 1.684 . S
H221 C239 0.948 . S
H222 C180 0.948 . S
H223 C198 0.979 . S
H224 C198 0.980 . S
H225 C198 0.983 . S
H226 C197 0.982 . S
H227 C197 0.979 . S
H228 C197 0.977 . S
H229 C199 0.948 . S
H230 C201 0.947 . S
H231 C202 0.948 . S
H232 C208 0.982 . S
H233 C208 0.979 . S
H234 C208 0.977 . S
H235 C209 0.979 . S
H236 C209 0.980 . S
H237 C209 0.983 . S
H238 C182 0.947 . S
C239 C182 1.392 . S
C239 C183 1.419 . S
C239 H221 0.948 . S
C240 C241 1.391 . S
C240 C244 1.391 . S
C240 H282 0.948 . S
C241 C240 1.391 . S
C241 C242 1.391 . S
C242 C241 1.391 . S
C242 H298 0.947 . S
C242 C299 1.392 . S
C243 C244 1.391 . S
C243 C247 1.397 . S
C243 C299 1.419 . S
C244 C240 1.391 . S
C244 C243 1.391 . S
C244 C245 1.399 . S
C245 C244 1.399 . S
C245 C248 1.396 . S
C245 C257 1.453 . S
C245 C258 1.684 . S
H246 C270 0.948 . S
C247 C243 1.397 . S
C247 C248 1.394 . S
C247 C266 1.723 . S
C248 C245 1.396 . S
C248 C247 1.394 . S
C248 C278 1.723 . S
H249 C272 0.947 . S
H250 C273 0.948 . S
H251 C279 0.982 . S
H252 C280 0.979 1_565 S
H253 C280 0.980 . S
H254 C280 0.983 . S
H255 C279 0.979 . S
H256 C279 0.977 . S
C257 C245 1.453 . S
C257 H286 0.982 . S
C257 H287 0.979 . S
C257 H288 0.977 . S
C258 C245 1.684 . S
C258 H283 0.979 . S
C258 H284 0.980 . S
C258 H285 0.983 . S
C259 C260 1.391 . S
C259 C264 1.391 . S
C259 H289 0.948 1_455 S
C260 C259 1.391 . S
C260 C261 1.391 . S
C261 C260 1.391 . S
C261 C262 1.392 . S
C261 H290 0.947 1_565 S
C262 C261 1.392 . S
C262 C263 1.419 . S
C262 H291 0.935 1_565 S
C263 C262 1.419 . S
C263 C264 1.391 . S
C263 C267 1.397 . S
C264 C259 1.391 . S
C264 C263 1.391 . S
C264 C265 1.399 . S
C265 C264 1.399 . S
C265 C266 1.396 . S
C265 C268 1.453 . S
C265 C269 1.684 . S
C266 C247 1.723 . S
C266 C265 1.396 . S
C266 C267 1.394 . S
C267 C263 1.397 . S
C267 C266 1.394 . S
C267 C277 1.723 . S
C268 C265 1.453 . S
C268 H292 0.982 . S
C268 H293 0.979 1_455 S
C268 H294 0.977 . S
C269 C265 1.684 . S
C269 H295 0.979 . S
C269 H296 0.980 . S
C269 H297 0.983 . S
C270 H246 0.948 . S
C270 C271 1.391 . S
C270 C275 1.394 1_545 S
C271 C270 1.391 . S
C271 C272 1.391 1_545 S
C272 H249 0.947 . S
C272 C271 1.391 1_565 S
C272 C273 1.392 . S
C273 H250 0.948 . S
C273 C272 1.392 . S
C273 C274 1.419 . S
C274 C273 1.419 . S
C274 C275 1.388 . S
C274 C278 1.397 . S
C275 C270 1.394 1_565 S
C275 C274 1.388 . S
C275 C276 1.403 . S
C276 C275 1.403 . S
C276 C277 1.416 . S
C276 C279 1.427 1_565 S
C276 C280 1.678 1_565 S
C277 C267 1.723 . S
C277 C276 1.416 . S
C277 C278 1.394 . S
C278 C248 1.723 . S
C278 C274 1.397 . S
C278 C277 1.394 . S
C279 H251 0.982 . S
C279 H255 0.979 . S
C279 H256 0.977 . S
C279 C276 1.427 1_545 S
C280 H252 0.979 1_545 S
C280 H253 0.980 . S
C280 H254 0.983 . S
C280 C276 1.678 1_545 S
H281 C299 0.948 . S
H282 C240 0.948 . S
H283 C258 0.979 . S
H284 C258 0.980 . S
H285 C258 0.983 . S
H286 C257 0.982 . S
H287 C257 0.979 . S
H288 C257 0.977 . S
H289 C259 0.948 1_655 S
H290 C261 0.947 1_545 S
H291 C262 0.935 1_545 S
H292 C268 0.982 . S
H293 C268 0.979 1_655 S
H294 C268 0.977 . S
H295 C269 0.979 . S
H296 C269 0.980 . S
H297 C269 0.983 . S
H298 C242 0.947 . S
C299 C242 1.392 . S
C299 C243 1.419 . S
C299 H281 0.948 . S
C300 C301 1.391 . S
C300 C304 1.391 . S
C300 H342 0.948 . S
C301 C300 1.391 . S
C301 C302 1.391 . S
C302 C301 1.391 . S
C302 H358 0.947 . S
C302 C359 1.392 . S
C303 C304 1.391 . S
C303 C307 1.397 . S
C303 C359 1.419 . S
C304 C300 1.391 . S
C304 C303 1.391 . S
C304 C305 1.399 . S
C305 C304 1.399 . S
C305 C308 1.396 . S
C305 C317 1.453 . S
C305 C318 1.684 . S
H306 C330 0.948 . S
C307 C303 1.397 . S
C307 C308 1.394 . S
C307 C326 1.723 . S
C308 C305 1.396 . S
C308 C307 1.394 . S
C308 C338 1.723 . S
H309 C332 0.947 . S
H310 C333 0.948 . S
H311 C339 0.982 . S
H312 C340 0.979 . S
H313 C340 0.980 . S
H314 C340 0.983 . S
H315 C339 0.979 . S
H316 C339 0.977 . S
C317 C305 1.453 . S
C317 H346 0.982 . S
C317 H347 0.979 . S
C317 H348 0.977 . S
C318 C305 1.684 . S
C318 H343 0.979 . S
C318 H344 0.980 . S
C318 H345 0.983 . S
C319 C320 1.391 . S
C319 C324 1.391 . S
C319 H349 0.948 . S
C320 C319 1.391 . S
C320 C321 1.391 . S
C321 C320 1.391 . S
C321 C322 1.392 . S
C321 H350 0.947 . S
C322 C321 1.392 . S
C322 C323 1.419 . S
C322 H351 0.948 . S
C323 C322 1.419 . S
C323 C324 1.391 . S
C323 C327 1.397 . S
C324 C319 1.391 . S
C324 C323 1.391 . S
C324 C325 1.399 . S
C325 C324 1.399 . S
C325 C326 1.396 . S
C325 C328 1.453 . S
C325 C329 1.684 . S
C326 C307 1.723 . S
C326 C325 1.396 . S
C326 C327 1.394 . S
C327 C323 1.397 . S
C327 C326 1.394 . S
C327 C337 1.723 . S
C328 C325 1.453 . S
C328 H352 0.982 . S
C328 H353 0.979 . S
C328 H354 0.977 . S
C329 C325 1.684 . S
C329 H355 0.979 . S
C329 H356 0.980 . S
C329 H357 0.983 . S
C330 H306 0.948 . S
C330 C331 1.391 . S
C330 C335 1.391 . S
C331 C330 1.391 . S
C331 C332 1.391 . S
C332 H309 0.947 . S
C332 C331 1.391 . S
C332 C333 1.392 . S
C333 H310 0.948 . S
C333 C332 1.392 . S
C333 C334 1.419 . S
C334 C333 1.419 . S
C334 C335 1.391 . S
C334 C338 1.397 . S
C335 C330 1.391 . S
C335 C334 1.391 . S
C335 C336 1.399 . S
C336 C335 1.399 . S
C336 C337 1.396 . S
C336 C339 1.453 . S
C336 C340 1.684 . S
C337 C327 1.723 . S
C337 C336 1.396 . S
C337 C338 1.394 . S
C338 C308 1.723 . S
C338 C334 1.397 . S
C338 C337 1.394 . S
C339 H311 0.982 . S
C339 H315 0.979 . S
C339 H316 0.977 . S
C339 C336 1.453 . S
C340 H312 0.979 . S
C340 H313 0.980 . S
C340 H314 0.983 . S
C340 C336 1.684 . S
H341 C359 0.948 . S
H342 C300 0.948 . S
H343 C318 0.979 . S
H344 C318 0.980 . S
H345 C318 0.983 . S
H346 C317 0.982 . S
H347 C317 0.979 . S
H348 C317 0.977 . S
H349 C319 0.948 . S
H350 C321 0.947 . S
H351 C322 0.948 . S
H352 C328 0.982 . S
H353 C328 0.979 . S
H354 C328 0.977 . S
H355 C329 0.979 . S
H356 C329 0.980 . S
H357 C329 0.983 . S
H358 C302 0.947 . S
C359 C302 1.392 . S
C359 C303 1.419 . S
C359 H341 0.948 . S
C360 C361 1.391 . S
C360 C364 1.391 . S
C360 H402 0.948 . S
C361 C360 1.391 . S
C361 C362 1.391 . S
C362 C361 1.391 . S
C362 H418 0.947 . S
C362 C419 1.392 . S
C363 C364 1.391 . S
C363 C367 1.397 . S
C363 C419 1.419 . S
C364 C360 1.391 . S
C364 C363 1.391 . S
C364 C365 1.399 . S
C365 C364 1.399 . S
C365 C368 1.396 . S
C365 C377 1.453 . S
C365 C378 1.684 . S
H366 C390 0.948 . S
C367 C363 1.397 . S
C367 C368 1.394 . S
C367 C386 1.723 . S
C368 C365 1.396 . S
C368 C367 1.394 . S
C368 C398 1.723 . S
H369 C392 0.947 . S
H370 C393 0.948 . S
H371 C399 0.982 . S
H372 C400 0.979 1_455 S
H373 C400 0.973 1_455 S
H374 C400 0.983 1_455 S
H375 C399 0.979 . S
H376 C399 0.977 . S
C377 C365 1.453 . S
C377 H406 0.982 . S
C377 H407 0.979 . S
C377 H408 0.977 . S
C378 C365 1.684 . S
C378 H403 0.979 . S
C378 H404 0.980 . S
C378 H405 0.983 . S
C379 C380 1.391 . S
C379 C384 1.391 . S
C379 H409 0.948 . S
C380 C379 1.391 . S
C380 C381 1.391 . S
C381 C380 1.391 . S
C381 C382 1.392 . S
C381 H410 0.947 1_655 S
C382 C381 1.392 . S
C382 C383 1.419 . S
C382 H411 0.948 . S
C383 C382 1.419 . S
C383 C384 1.391 . S
C383 C387 1.397 . S
C384 C379 1.391 . S
C384 C383 1.391 . S
C384 C385 1.399 . S
C385 C384 1.399 . S
C385 C386 1.396 . S
C385 C388 1.453 . S
C385 C389 1.684 . S
C386 C367 1.723 . S
C386 C385 1.396 . S
C386 C387 1.394 . S
C387 C383 1.397 . S
C387 C386 1.394 . S
C387 C397 1.723 . S
C388 C385 1.453 . S
C388 H412 0.982 . S
C388 H413 0.979 . S
C388 H414 0.977 . S
C389 C385 1.684 . S
C389 H415 0.979 . S
C389 H416 0.980 . S
C389 H417 0.983 . S
C390 H366 0.948 . S
C390 C391 1.391 . S
C390 C395 1.391 . S
C391 C390 1.391 . S
C391 C392 1.391 . S
C392 H369 0.947 . S
C392 C391 1.391 . S
C392 C393 1.392 . S
C393 H370 0.948 . S
C393 C392 1.392 . S
C393 C394 1.419 . S
C394 C393 1.419 . S
C394 C395 1.391 . S
C394 C398 1.397 . S
C395 C390 1.391 . S
C395 C394 1.391 . S
C395 C396 1.399 . S
C396 C395 1.399 . S
C396 C397 1.396 . S
C396 C399 1.453 . S
C396 C400 1.684 . S
C397 C387 1.723 . S
C397 C396 1.396 . S
C397 C398 1.394 . S
C398 C368 1.723 . S
C398 C394 1.397 . S
C398 C397 1.394 . S
C399 H371 0.982 . S
C399 H375 0.979 . S
C399 H376 0.977 . S
C399 C396 1.453 . S
C400 H372 0.979 1_655 S
C400 H373 0.973 1_655 S
C400 H374 0.983 1_655 S
C400 C396 1.684 . S
H401 C419 0.948 . S
H402 C360 0.948 . S
H403 C378 0.979 . S
H404 C378 0.980 . S
H405 C378 0.983 . S
H406 C377 0.982 . S
H407 C377 0.979 . S
H408 C377 0.977 . S
H409 C379 0.948 . S
H410 C381 0.947 1_455 S
H411 C382 0.948 . S
H412 C388 0.982 . S
H413 C388 0.979 . S
H414 C388 0.977 . S
H415 C389 0.979 . S
H416 C389 0.980 . S
H417 C389 0.983 . S
H418 C362 0.947 . S
C419 C362 1.392 . S
C419 C363 1.419 . S
C419 H401 0.948 . S
C420 C421 1.391 . S
C420 C424 1.391 . S
C420 H462 0.948 . S
C421 C420 1.391 . S
C421 C422 1.391 . S
C422 C421 1.391 . S
C422 H478 0.947 . S
C422 C479 1.392 . S
C423 C424 1.391 . S
C423 C427 1.397 . S
C423 C479 1.419 . S
C424 C420 1.391 . S
C424 C423 1.391 . S
C424 C425 1.399 . S
C425 C424 1.399 . S
C425 C428 1.396 . S
C425 C437 1.453 . S
C425 C438 1.684 . S
H426 C450 0.948 . S
C427 C423 1.397 . S
C427 C428 1.394 . S
C427 C446 1.723 . S
C428 C425 1.396 . S
C428 C427 1.394 . S
C428 C458 1.723 . S
H429 C452 0.947 . S
H430 C453 0.948 . S
H431 C459 0.982 . S
H432 C460 0.979 . S
H433 C460 0.980 . S
H434 C460 0.983 . S
H435 C459 0.979 . S
H436 C459 0.977 . S
C437 C425 1.453 . S
C437 H466 0.982 . S
C437 H467 0.979 . S
C437 H468 0.977 . S
C438 C425 1.684 . S
C438 H463 0.979 . S
C438 H464 0.980 . S
C438 H465 0.983 . S
C439 C440 1.391 . S
C439 C444 1.391 . S
C439 H469 0.948 . S
C440 C439 1.391 . S
C440 C441 1.391 . S
C441 C440 1.391 . S
C441 C442 1.392 . S
C441 H470 0.947 . S
C442 C441 1.392 . S
C442 C443 1.419 . S
C442 H471 0.948 . S
C443 C442 1.419 . S
C443 C444 1.391 . S
C443 C447 1.397 . S
C444 C439 1.391 . S
C444 C443 1.391 . S
C444 C445 1.399 . S
C445 C444 1.399 . S
C445 C446 1.396 . S
C445 C448 1.453 . S
C445 C449 1.684 . S
C446 C427 1.723 . S
C446 C445 1.396 . S
C446 C447 1.394 . S
C447 C443 1.397 . S
C447 C446 1.394 . S
C447 C457 1.723 . S
C448 C445 1.453 . S
C448 H472 0.982 . S
C448 H473 0.979 . S
C448 H474 0.977 . S
C449 C445 1.684 . S
C449 H475 0.979 . S
C449 H476 0.980 . S
C449 H477 0.983 . S
C450 H426 0.948 . S
C450 C451 1.391 . S
C450 C455 1.391 . S
C451 C450 1.391 . S
C451 C452 1.391 . S
C452 H429 0.947 . S
C452 C451 1.391 . S
C452 C453 1.392 . S
C453 H430 0.948 . S
C453 C452 1.392 . S
C453 C454 1.419 . S
C454 C453 1.419 . S
C454 C455 1.391 . S
C454 C458 1.397 . S
C455 C450 1.391 . S
C455 C454 1.391 . S
C455 C456 1.399 . S
C456 C455 1.399 . S
C456 C457 1.396 . S
C456 C459 1.453 . S
C456 C460 1.684 . S
C457 C447 1.723 . S
C457 C456 1.396 . S
C457 C458 1.394 . S
C458 C428 1.723 . S
C458 C454 1.397 . S
C458 C457 1.394 . S
C459 H431 0.982 . S
C459 H435 0.979 . S
C459 H436 0.977 . S
C459 C456 1.453 . S
C460 H432 0.979 . S
C460 H433 0.980 . S
C460 H434 0.983 . S
C460 C456 1.684 . S
H461 C479 0.948 . S
H462 C420 0.948 . S
H463 C438 0.979 . S
H464 C438 0.980 . S
H465 C438 0.983 . S
H466 C437 0.982 . S
H467 C437 0.979 . S
H468 C437 0.977 . S
H469 C439 0.948 . S
H470 C441 0.947 . S
H471 C442 0.948 . S
H472 C448 0.982 . S
H473 C448 0.979 . S
H474 C448 0.977 . S
H475 C449 0.979 . S
H476 C449 0.980 . S
H477 C449 0.983 . S
H478 C422 0.947 . S
C479 C422 1.392 . S
C479 C423 1.419 . S
C479 H461 0.948 . S
C480 C481 1.391 . S
C480 C484 1.391 . S
C480 H522 0.948 . S
C481 C480 1.391 . S
C481 C482 1.391 . S
C482 C481 1.391 . S
C482 H538 0.947 . S
C482 C539 1.392 . S
C483 C484 1.391 . S
C483 C487 1.397 . S
C483 C539 1.419 . S
C484 C480 1.391 . S
C484 C483 1.391 . S
C484 C485 1.399 . S
C485 C484 1.399 . S
C485 C488 1.396 . S
C485 C497 1.453 . S
C485 C498 1.684 . S
H486 C510 0.948 . S
C487 C483 1.397 . S
C487 C488 1.394 . S
C487 C506 1.723 . S
C488 C485 1.396 . S
C488 C487 1.394 . S
C488 C518 1.723 . S
H489 C512 0.947 . S
H490 C513 0.948 . S
H491 C519 0.982 . S
H492 C520 0.979 . S
H493 C520 0.980 . S
H494 C520 0.983 . S
H495 C519 0.979 . S
H496 C519 0.977 . S
C497 C485 1.453 . S
C497 H526 0.982 . S
C497 H527 0.979 . S
C497 H528 0.977 . S
C498 C485 1.684 . S
C498 H523 0.979 . S
C498 H524 0.980 . S
C498 H525 0.983 . S
C499 C500 1.391 . S
C499 C504 1.391 . S
C499 H529 0.948 . S
C500 C499 1.391 . S
C500 C501 1.391 . S
C501 C500 1.391 . S
C501 C502 1.392 . S
C501 H530 0.947 . S
C502 C501 1.392 . S
C502 C503 1.419 . S
C502 H531 0.948 . S
C503 C502 1.419 . S
C503 C504 1.391 . S
C503 C507 1.397 . S
C504 C499 1.391 . S
C504 C503 1.391 . S
C504 C505 1.399 . S
C505 C504 1.399 . S
C505 C506 1.396 . S
C505 C508 1.453 . S
C505 C509 1.684 . S
C506 C487 1.723 . S
C506 C505 1.396 . S
C506 C507 1.394 . S
C507 C503 1.397 . S
C507 C506 1.394 . S
C507 C517 1.723 . S
C508 C505 1.453 . S
C508 H532 0.982 . S
C508 H533 0.979 . S
C508 H534 0.977 . S
C509 C505 1.684 . S
C509 H535 0.979 . S
C509 H536 0.980 . S
C509 H537 0.983 . S
C510 H486 0.948 . S
C510 C511 1.391 . S
C510 C515 1.391 . S
C511 C510 1.391 . S
C511 C512 1.391 . S
C512 H489 0.947 . S
C512 C511 1.391 . S
C512 C513 1.392 . S
C513 H490 0.948 . S
C513 C512 1.392 . S
C513 C514 1.419 . S
C514 C513 1.419 . S
C514 C515 1.391 . S
C514 C518 1.397 . S
C515 C510 1.391 . S
C515 C514 1.391 . S
C515 C516 1.399 . S
C516 C515 1.399 . S
C516 C517 1.396 . S
C516 C519 1.453 . S
C516 C520 1.684 . S
C517 C507 1.723 . S
C517 C516 1.396 . S
C517 C518 1.394 . S
C518 C488 1.723 . S
C518 C514 1.397 . S
C518 C517 1.394 . S
C519 H491 0.982 . S
C519 H495 0.979 . S
C519 H496 0.977 . S
C519 C516 1.453 . S
C520 H492 0.979 . S
C520 H493 0.980 . S
C520 H494 0.983 . S
C520 C516 1.684 . S
H521 C539 0.948 . S
H522 C480 0.948 . S
H523 C498 0.979 . S
H524 C498 0.980 . S
H525 C498 0.983 . S
H526 C497 0.982 . S
H527 C497 0.979 . S
H528 C497 0.977 . S
H529 C499 0.948 . S
H530 C501 0.947 . S
H531 C502 0.948 . S
H532 C508 0.982 . S
H533 C508 0.979 . S
H534 C508 0.977 . S
H535 C509 0.979 . S
H536 C509 0.980 . S
H537 C509 0.983 . S
H538 C482 0.947 . S
C539 C482 1.392 . S
C539 C483 1.419 . S
C539 H521 0.948 . S
C540 C541 1.391 . S
C540 C544 1.391 . S
C540 H582 0.948 . S
C541 C540 1.391 . S
C541 C542 1.391 . S
C542 C541 1.391 . S
C542 H598 0.947 . S
C542 C599 1.392 . S
C543 C544 1.391 . S
C543 C547 1.397 . S
C543 C599 1.419 . S
C544 C540 1.391 . S
C544 C543 1.391 . S
C544 C545 1.399 . S
C545 C544 1.399 . S
C545 C548 1.396 . S
C545 C557 1.453 . S
C545 C558 1.684 . S
H546 C570 0.948 . S
C547 C543 1.397 . S
C547 C548 1.394 . S
C547 C566 1.723 . S
C548 C545 1.396 . S
C548 C547 1.394 . S
C548 C578 1.723 . S
H549 C572 0.947 . S
H550 C573 0.948 . S
H551 C579 0.982 . S
H552 C580 0.979 1_545 S
H553 C580 0.980 1_545 S
H554 C580 0.983 1_545 S
H555 C579 0.979 . S
H556 C579 0.977 . S
C557 C545 1.453 . S
C557 H586 0.982 . S
C557 H587 0.979 . S
C557 H588 0.977 . S
C558 C545 1.684 . S
C558 H583 0.979 . S
C558 H584 0.980 . S
C558 H585 0.983 . S
C559 C560 1.391 . S
C559 C564 1.391 . S
C559 H589 0.948 . S
C560 C559 1.391 . S
C560 C561 1.391 1_565 S
C561 C560 1.391 1_545 S
C561 C562 1.392 1_545 S
C561 H590 0.947 . S
C562 C561 1.392 1_565 S
C562 C563 1.419 . S
C562 H591 0.948 . S
C563 C562 1.419 . S
C563 C564 1.391 . S
C563 C567 1.397 . S
C564 C559 1.391 . S
C564 C563 1.391 . S
C564 C565 1.399 . S
C565 C564 1.399 . S
C565 C566 1.396 . S
C565 C568 1.453 . S
C565 C569 1.684 . S
C566 C547 1.723 . S
C566 C565 1.396 . S
C566 C567 1.394 . S
C567 C563 1.397 . S
C567 C566 1.394 . S
C567 C577 1.723 . S
C568 C565 1.453 . S
C568 H592 0.982 . S
C568 H593 0.979 . S
C568 H594 0.977 . S
C569 C565 1.684 . S
C569 H595 0.979 . S
C569 H596 0.980 . S
C569 H597 0.983 . S
C570 H546 0.948 . S
C570 C571 1.391 . S
C570 C575 1.391 . S
C571 C570 1.391 . S
C571 C572 1.391 . S
C572 H549 0.947 . S
C572 C571 1.391 . S
C572 C573 1.392 . S
C573 H550 0.948 . S
C573 C572 1.392 . S
C573 C574 1.419 . S
C574 C573 1.419 . S
C574 C575 1.391 . S
C574 C578 1.397 . S
C575 C570 1.391 . S
C575 C574 1.391 . S
C575 C576 1.399 . S
C576 C575 1.399 . S
C576 C577 1.396 . S
C576 C579 1.453 . S
C576 C580 1.684 . S
C577 C567 1.723 . S
C577 C576 1.396 . S
C577 C578 1.394 . S
C578 C548 1.723 . S
C578 C574 1.397 . S
C578 C577 1.394 . S
C579 H551 0.982 . S
C579 H555 0.979 . S
C579 H556 0.977 . S
C579 C576 1.453 . S
C580 H552 0.979 1_565 S
C580 H553 0.980 1_565 S
C580 H554 0.983 1_565 S
C580 C576 1.684 . S
H581 C599 0.948 . S
H582 C540 0.948 . S
H583 C558 0.979 . S
H584 C558 0.980 . S
H585 C558 0.983 . S
H586 C557 0.982 . S
H587 C557 0.979 . S
H588 C557 0.977 . S
H589 C559 0.948 . S
H590 C561 0.947 . S
H591 C562 0.948 . S
H592 C568 0.982 . S
H593 C568 0.979 . S
H594 C568 0.977 . S
H595 C569 0.979 . S
H596 C569 0.980 . S
H597 C569 0.983 . S
H598 C542 0.947 . S
C599 C542 1.392 . S
C599 C543 1.419 . S
C599 H581 0.948 . S
C600 C601 1.391 . S
C600 C604 1.391 . S
C600 H642 0.948 . S
C601 C600 1.391 . S
C601 C602 1.391 . S
C602 C601 1.391 . S
C602 H658 0.947 . S
C602 C659 1.392 . S
C603 C604 1.391 . S
C603 C607 1.397 . S
C603 C659 1.419 . S
C604 C600 1.391 . S
C604 C603 1.391 . S
C604 C605 1.399 . S
C605 C604 1.399 . S
C605 C608 1.396 . S
C605 C617 1.453 . S
C605 C618 1.684 . S
H606 C630 0.948 . S
C607 C603 1.397 . S
C607 C608 1.394 . S
C607 C626 1.723 . S
C608 C605 1.396 . S
C608 C607 1.394 . S
C608 C638 1.723 . S
H609 C632 0.947 . S
H610 C633 0.948 . S
H611 C639 0.982 . S
H612 C640 0.979 . S
H613 C640 0.980 . S
H614 C640 0.983 . S
H615 C639 0.979 . S
H616 C639 0.977 . S
C617 C605 1.453 . S
C617 H646 0.982 . S
C617 H647 0.979 . S
C617 H648 0.977 . S
C618 C605 1.684 . S
C618 H643 0.979 . S
C618 H644 0.980 . S
C618 H645 0.983 . S
C619 C620 1.391 . S
C619 C624 1.391 . S
C619 H649 0.948 . S
C620 C619 1.391 . S
C620 C621 1.391 . S
C621 C620 1.391 . S
C621 C622 1.392 . S
C621 H650 0.947 . S
C622 C621 1.392 . S
C622 C623 1.419 . S
C622 H651 0.948 . S
C623 C622 1.419 . S
C623 C624 1.391 . S
C623 C627 1.397 . S
C624 C619 1.391 . S
C624 C623 1.391 . S
C624 C625 1.399 . S
C625 C624 1.399 . S
C625 C626 1.396 . S
C625 C628 1.453 . S
C625 C629 1.684 . S
C626 C607 1.723 . S
C626 C625 1.396 . S
C626 C627 1.394 . S
C627 C623 1.397 . S
C627 C626 1.394 . S
C627 C637 1.723 . S
C628 C625 1.453 . S
C628 H652 0.982 . S
C628 H653 0.979 . S
C628 H654 0.977 . S
C629 C625 1.684 . S
C629 H655 0.979 . S
C629 H656 0.980 . S
C629 H657 0.983 . S
C630 H606 0.948 . S
C630 C631 1.391 . S
C630 C635 1.391 . S
C631 C630 1.391 . S
C631 C632 1.391 . S
C632 H609 0.947 . S
C632 C631 1.391 . S
C632 C633 1.392 . S
C633 H610 0.948 . S
C633 C632 1.392 . S
C633 C634 1.419 . S
C634 C633 1.419 . S
C634 C635 1.391 . S
C634 C638 1.397 . S
C635 C630 1.391 . S
C635 C634 1.391 . S
C635 C636 1.399 . S
C636 C635 1.399 . S
C636 C637 1.396 . S
C636 C639 1.453 . S
C636 C640 1.684 . S
C637 C627 1.723 . S
C637 C636 1.396 . S
C637 C638 1.394 . S
C638 C608 1.723 . S
C638 C634 1.397 . S
C638 C637 1.394 . S
C639 H611 0.982 . S
C639 H615 0.979 . S
C639 H616 0.977 . S
C639 C636 1.453 . S
C640 H612 0.979 . S
C640 H613 0.980 . S
C640 H614 0.983 . S
C640 C636 1.684 . S
H641 C659 0.948 . S
H642 C600 0.948 . S
H643 C618 0.979 . S
H644 C618 0.980 . S
H645 C618 0.983 . S
H646 C617 0.982 . S
H647 C617 0.979 . S
H648 C617 0.977 . S
H649 C619 0.948 . S
H650 C621 0.947 . S
H651 C622 0.948 . S
H652 C628 0.982 . S
H653 C628 0.979 . S
H654 C628 0.977 . S
H655 C629 0.979 . S
H656 C629 0.980 . S
H657 C629 0.983 . S
H658 C602 0.947 . S
C659 C602 1.392 . S
C659 C603 1.419 . S
C659 H641 0.948 . S
C660 C661 1.391 . S
C660 C664 1.391 . S
C660 H702 0.948 . S
C661 C660 1.391 . S
C661 C662 1.391 . S
C662 C661 1.391 . S
C662 H718 0.947 . S
C662 C719 1.392 . S
C663 C664 1.391 . S
C663 C667 1.397 . S
C663 C719 1.419 . S
C664 C660 1.391 . S
C664 C663 1.391 . S
C664 C665 1.399 . S
C665 C664 1.399 . S
C665 C668 1.396 . S
C665 C677 1.453 . S
C665 C678 1.684 . S
H666 C690 0.948 . S
C667 C663 1.397 . S
C667 C668 1.394 . S
C667 C686 1.723 . S
C668 C665 1.396 . S
C668 C667 1.394 . S
C668 C698 1.723 . S
H669 C692 0.947 . S
H670 C693 0.948 . S
H671 C699 0.982 . S
H672 C700 0.979 . S
H673 C700 0.980 . S
H674 C700 0.983 . S
H675 C699 0.979 . S
H676 C699 0.977 . S
C677 C665 1.453 . S
C677 H706 0.982 . S
C677 H707 0.979 . S
C677 H708 0.977 . S
C678 C665 1.684 . S
C678 H703 0.979 . S
C678 H704 0.980 . S
C678 H705 0.983 . S
C679 C680 1.391 . S
C679 C684 1.391 . S
C679 H709 0.948 . S
C680 C679 1.391 . S
C680 C681 1.391 . S
C681 C680 1.391 . S
C681 C682 1.392 . S
C681 H710 0.947 . S
C682 C681 1.392 . S
C682 C683 1.419 . S
C682 H711 0.948 . S
C683 C682 1.419 . S
C683 C684 1.391 . S
C683 C687 1.397 . S
C684 C679 1.391 . S
C684 C683 1.391 . S
C684 C685 1.399 . S
C685 C684 1.399 . S
C685 C686 1.396 . S
C685 C688 1.453 . S
C685 C689 1.684 . S
C686 C667 1.723 . S
C686 C685 1.396 . S
C686 C687 1.394 . S
C687 C683 1.397 . S
C687 C686 1.394 . S
C687 C697 1.723 . S
C688 C685 1.453 . S
C688 H712 0.982 . S
C688 H713 0.979 . S
C688 H714 0.977 . S
C689 C685 1.684 . S
C689 H715 0.979 . S
C689 H716 0.980 . S
C689 H717 0.983 . S
C690 H666 0.948 . S
C690 C691 1.391 . S
C690 C695 1.391 . S
C691 C690 1.391 . S
C691 C692 1.391 . S
C692 H669 0.947 . S
C692 C691 1.391 . S
C692 C693 1.392 . S
C693 H670 0.948 . S
C693 C692 1.392 . S
C693 C694 1.419 . S
C694 C693 1.419 . S
C694 C695 1.391 . S
C694 C698 1.397 . S
C695 C690 1.391 . S
C695 C694 1.391 . S
C695 C696 1.399 . S
C696 C695 1.399 . S
C696 C697 1.396 . S
C696 C699 1.453 . S
C696 C700 1.684 . S
C697 C687 1.723 . S
C697 C696 1.396 . S
C697 C698 1.394 . S
C698 C668 1.723 . S
C698 C694 1.397 . S
C698 C697 1.394 . S
C699 H671 0.982 . S
C699 H675 0.979 . S
C699 H676 0.977 . S
C699 C696 1.453 . S
C700 H672 0.979 . S
C700 H673 0.980 . S
C700 H674 0.983 . S
C700 C696 1.684 . S
H701 C719 0.948 . S
H702 C660 0.948 . S
H703 C678 0.979 . S
H704 C678 0.980 . S
H705 C678 0.983 . S
H706 C677 0.982 . S
H707 C677 0.979 . S
H708 C677 0.977 . S
H709 C679 0.948 . S
H710 C681 0.947 . S
H711 C682 0.948 . S
H712 C688 0.982 . S
H713 C688 0.979 . S
H714 C688 0.977 . S
H715 C689 0.979 . S
H716 C689 0.980 . S
H717 C689 0.983 . S
H718 C662 0.947 . S
C719 C662 1.392 . S
C719 C663 1.419 . S
C719 H701 0.948 . S
C720 C721 1.391 . S
C720 C724 1.391 . S
C720 H762 0.948 . S
C721 C720 1.391 . S
C721 C722 1.391 . S
C722 C721 1.391 . S
C722 H778 0.947 . S
C722 C779 1.392 . S
C723 C724 1.391 . S
C723 C727 1.397 . S
C723 C779 1.419 . S
C724 C720 1.391 . S
C724 C723 1.391 . S
C724 C725 1.399 . S
C725 C724 1.399 . S
C725 C728 1.396 . S
C725 C737 1.453 . S
C725 C738 1.684 . S
H726 C750 0.948 . S
C727 C723 1.397 . S
C727 C728 1.394 . S
C727 C746 1.723 . S
C728 C725 1.396 . S
C728 C727 1.394 . S
C728 C758 1.723 . S
H729 C752 0.947 . S
H730 C753 0.948 . S
H731 C759 0.982 . S
H732 C760 0.979 . S
H733 C760 0.980 . S
H734 C760 0.983 . S
H735 C759 0.979 . S
H736 C759 0.977 . S
C737 C725 1.453 . S
C737 H766 0.982 . S
C737 H767 0.979 . S
C737 H768 0.977 . S
C738 C725 1.684 . S
C738 H763 0.979 . S
C738 H764 0.980 . S
C738 H765 0.983 . S
C739 C740 1.391 . S
C739 C744 1.391 . S
C739 H769 0.948 . S
C740 C739 1.391 . S
C740 C741 1.391 . S
C741 C740 1.391 . S
C741 C742 1.392 . S
C741 H770 0.947 . S
C742 C741 1.392 . S
C742 C743 1.419 . S
C742 H771 0.948 . S
C743 C742 1.419 . S
C743 C744 1.391 . S
C743 C747 1.397 . S
C744 C739 1.391 . S
C744 C743 1.391 . S
C744 C745 1.399 . S
C745 C744 1.399 . S
C745 C746 1.396 . S
C745 C748 1.453 . S
C745 C749 1.684 . S
C746 C727 1.723 . S
C746 C745 1.396 . S
C746 C747 1.394 . S
C747 C743 1.397 . S
C747 C746 1.394 . S
C747 C757 1.723 . S
C748 C745 1.453 . S
C748 H772 0.982 . S
C748 H773 0.979 . S
C748 H774 0.977 . S
C749 C745 1.684 . S
C749 H775 0.979 . S
C749 H776 0.980 . S
C749 H777 0.983 . S
C750 H726 0.948 . S
C750 C751 1.391 . S
C750 C755 1.391 . S
C751 C750 1.391 . S
C751 C752 1.391 . S
C752 H729 0.947 . S
C752 C751 1.391 . S
C752 C753 1.392 . S
C753 H730 0.948 . S
C753 C752 1.392 . S
C753 C754 1.419 . S
C754 C753 1.419 . S
C754 C755 1.391 . S
C754 C758 1.397 . S
C755 C750 1.391 . S
C755 C754 1.391 . S
C755 C756 1.399 . S
C756 C755 1.399 . S
C756 C757 1.396 . S
C756 C759 1.453 . S
C756 C760 1.684 . S
C757 C747 1.723 . S
C757 C756 1.396 . S
C757 C758 1.394 . S
C758 C728 1.723 . S
C758 C754 1.397 . S
C758 C757 1.394 . S
C759 H731 0.982 . S
C759 H735 0.979 . S
C759 H736 0.977 . S
C759 C756 1.453 . S
C760 H732 0.979 . S
C760 H733 0.980 . S
C760 H734 0.983 . S
C760 C756 1.684 . S
H761 C779 0.948 . S
H762 C720 0.948 . S
H763 C738 0.979 . S
H764 C738 0.980 . S
H765 C738 0.983 . S
H766 C737 0.982 . S
H767 C737 0.979 . S
H768 C737 0.977 . S
H769 C739 0.948 . S
H770 C741 0.947 . S
H771 C742 0.948 . S
H772 C748 0.982 . S
H773 C748 0.979 . S
H774 C748 0.977 . S
H775 C749 0.979 . S
H776 C749 0.980 . S
H777 C749 0.983 . S
H778 C722 0.947 . S
C779 C722 1.392 . S
C779 C723 1.419 . S
C779 H761 0.948 . S
C780 C781 1.391 . S
C780 C784 1.391 . S
C780 H822 0.948 . S
C781 C780 1.391 . S
C781 C782 1.391 . S
C782 C781 1.391 . S
C782 H838 0.947 . S
C782 C839 1.392 . S
C783 C784 1.391 . S
C783 C787 1.397 . S
C783 C839 1.419 . S
C784 C780 1.391 . S
C784 C783 1.391 . S
C784 C785 1.399 . S
C785 C784 1.399 . S
C785 C788 1.396 . S
C785 C797 1.453 . S
C785 C798 1.684 . S
H786 C810 0.948 . S
C787 C783 1.397 . S
C787 C788 1.394 . S
C787 C806 1.723 . S
C788 C785 1.396 . S
C788 C787 1.394 . S
C788 C818 1.723 . S
H789 C812 0.947 . S
H790 C813 0.948 . S
H791 C819 0.982 . S
H792 C820 0.979 . S
H793 C820 0.980 . S
H794 C820 0.983 . S
H795 C819 0.979 . S
H796 C819 0.977 . S
C797 C785 1.453 . S
C797 H826 0.982 . S
C797 H827 0.979 . S
C797 H828 0.977 . S
C798 C785 1.684 . S
C798 H823 0.979 . S
C798 H824 0.980 . S
C798 H825 0.983 . S
C799 C800 1.391 . S
C799 C804 1.391 . S
C799 H829 0.948 . S
C800 C799 1.391 . S
C800 C801 1.391 . S
C801 C800 1.391 . S
C801 C802 1.392 . S
C801 H830 0.947 . S
C802 C801 1.392 . S
C802 C803 1.419 . S
C802 H831 0.948 . S
C803 C802 1.419 . S
C803 C804 1.391 . S
C803 C807 1.397 . S
C804 C799 1.391 . S
C804 C803 1.391 . S
C804 C805 1.399 . S
C805 C804 1.399 . S
C805 C806 1.396 . S
C805 C808 1.453 . S
C805 C809 1.684 . S
C806 C787 1.723 . S
C806 C805 1.396 . S
C806 C807 1.394 . S
C807 C803 1.397 . S
C807 C806 1.394 . S
C807 C817 1.723 . S
C808 C805 1.453 . S
C808 H832 0.982 . S
C808 H833 0.979 . S
C808 H834 0.977 . S
C809 C805 1.684 . S
C809 H835 0.979 . S
C809 H836 0.980 . S
C809 H837 0.983 . S
C810 H786 0.948 . S
C810 C811 1.391 . S
C810 C815 1.391 . S
C811 C810 1.391 . S
C811 C812 1.391 . S
C812 H789 0.947 . S
C812 C811 1.391 . S
C812 C813 1.392 . S
C813 H790 0.948 . S
C813 C812 1.392 . S
C813 C814 1.419 . S
C814 C813 1.419 . S
C814 C815 1.391 . S
C814 C818 1.397 . S
C815 C810 1.391 . S
C815 C814 1.391 . S
C815 C816 1.399 . S
C816 C815 1.399 . S
C816 C817 1.396 . S
C816 C819 1.453 . S
C816 C820 1.684 . S
C817 C807 1.723 . S
C817 C816 1.396 . S
C817 C818 1.394 . S
C818 C788 1.723 . S
C818 C814 1.397 . S
C818 C817 1.394 . S
C819 H791 0.982 . S
C819 H795 0.979 . S
C819 H796 0.977 . S
C819 C816 1.453 . S
C820 H792 0.979 . S
C820 H793 0.980 . S
C820 H794 0.983 . S
C820 C816 1.684 . S
H821 C839 0.948 . S
H822 C780 0.948 . S
H823 C798 0.979 . S
H824 C798 0.980 . S
H825 C798 0.983 . S
H826 C797 0.982 . S
H827 C797 0.979 . S
H828 C797 0.977 . S
H829 C799 0.948 . S
H830 C801 0.947 . S
H831 C802 0.948 . S
H832 C808 0.982 . S
H833 C808 0.979 . S
H834 C808 0.977 . S
H835 C809 0.979 . S
H836 C809 0.980 . S
H837 C809 0.983 . S
H838 C782 0.947 . S
C839 C782 1.392 . S
C839 C783 1.419 . S
C839 H821 0.948 . S
C840 C841 1.391 . S
C840 C844 1.391 . S
C840 H882 0.948 . S
C841 C840 1.391 . S
C841 C842 1.391 . S
C842 C841 1.391 . S
C842 H898 0.947 . S
C842 C899 1.392 . S
C843 C844 1.391 . S
C843 C847 1.397 . S
C843 C899 1.419 . S
C844 C840 1.391 . S
C844 C843 1.391 . S
C844 C845 1.399 . S
C845 C844 1.399 . S
C845 C848 1.396 . S
C845 C857 1.453 . S
C845 C858 1.684 . S
H846 C870 0.948 . S
C847 C843 1.397 . S
C847 C848 1.394 . S
C847 C866 1.723 . S
C848 C845 1.396 . S
C848 C847 1.394 . S
C848 C878 1.723 . S
H849 C872 0.947 . S
H850 C873 0.948 . S
H851 C879 0.982 . S
H852 C880 0.979 . S
H853 C880 0.980 . S
H854 C880 0.983 . S
H855 C879 0.979 . S
H856 C879 0.977 . S
C857 C845 1.453 . S
C857 H886 0.982 . S
C857 H887 0.979 . S
C857 H888 0.977 . S
C858 C845 1.684 . S
C858 H883 0.979 . S
C858 H884 0.980 . S
C858 H885 0.983 . S
C859 C860 1.391 . S
C859 C864 1.391 . S
C859 H889 0.948 . S
C860 C859 1.391 . S
C860 C861 1.391 . S
C861 C860 1.391 . S
C861 C862 1.392 . S
C861 H890 0.947 . S
C862 C861 1.392 . S
C862 C863 1.419 . S
C862 H891 0.948 . S
C863 C862 1.419 . S
C863 C864 1.391 . S
C863 C867 1.397 . S
C864 C859 1.391 . S
C864 C863 1.391 . S
C864 C865 1.399 . S
C865 C864 1.399 . S
C865 C866 1.396 . S
C865 C868 1.453 . S
C865 C869 1.684 . S
C866 C847 1.723 . S
C866 C865 1.396 . S
C866 C867 1.394 . S
C867 C863 1.397 . S
C867 C866 1.394 . S
C867 C877 1.723 . S
C868 C865 1.453 . S
C868 H892 0.982 . S
C868 H893 0.979 . S
C868 H894 0.977 . S
C869 C865 1.684 . S
C869 H895 0.979 . S
C869 H896 0.980 . S
C869 H897 0.983 . S
C870 H846 0.948 . S
C870 C871 1.391 . S
C870 C875 1.391 . S
C871 C870 1.391 . S
C871 C872 1.391 . S
C872 H849 0.947 . S
C872 C871 1.391 . S
C872 C873 1.392 . S
C873 H850 0.948 . S
C873 C872 1.392 . S
C873 C874 1.419 . S
C874 C873 1.419 . S
C874 C875 1.391 . S
C874 C878 1.397 . S
C875 C870 1.391 . S
C875 C874 1.391 . S
C875 C876 1.399 . S
C876 C875 1.399 . S
C876 C877 1.396 . S
C876 C879 1.453 . S
C876 C880 1.684 . S
C877 C867 1.723 . S
C877 C876 1.396 . S
C877 C878 1.394 . S
C878 C848 1.723 . S
C878 C874 1.397 . S
C878 C877 1.394 . S
C879 H851 0.982 . S
C879 H855 0.979 . S
C879 H856 0.977 . S
C879 C876 1.453 . S
C880 H852 0.979 . S
C880 H853 0.980 . S
C880 H854 0.983 . S
C880 C876 1.684 . S
H881 C899 0.948 . S
H882 C840 0.948 . S
H883 C858 0.979 . S
H884 C858 0.980 . S
H885 C858 0.983 . S
H886 C857 0.982 . S
H887 C857 0.979 . S
H888 C857 0.977 . S
H889 C859 0.948 . S
H890 C861 0.947 . S
H891 C862 0.948 . S
H892 C868 0.982 . S
H893 C868 0.979 . S
H894 C868 0.977 . S
H895 C869 0.979 . S
H896 C869 0.980 . S
H897 C869 0.983 . S
H898 C842 0.947 . S
C899 C842 1.392 . S
C899 C843 1.419 . S
C899 H881 0.948 . S
C900 C901 1.391 . S
C900 C904 1.391 . S
C900 H942 0.948 . S
C901 C900 1.391 . S
C901 C902 1.391 . S
C902 C901 1.391 . S
C902 H958 0.947 . S
C902 C959 1.392 . S
C903 C904 1.391 . S
C903 C907 1.397 . S
C903 C959 1.419 . S
C904 C900 1.391 . S
C904 C903 1.391 . S
C904 C905 1.399 . S
C905 C904 1.399 . S
C905 C908 1.396 . S
C905 C917 1.453 . S
C905 C918 1.684 1_556 S
H906 C930 0.948 . S
C907 C903 1.397 . S
C907 C908 1.394 . S
C907 C926 1.723 . S
C908 C905 1.396 . S
C908 C907 1.394 . S
C908 C938 1.723 . S
H909 C932 0.947 . S
H910 C933 0.948 . S
H911 C939 0.982 . S
H912 C940 0.979 . S
H913 C940 0.980 . S
H914 C940 0.983 . S
H915 C939 0.979 . S
H916 C939 0.977 . S
C917 C905 1.453 . S
C917 H946 0.982 . S
C917 H947 0.979 . S
C917 H948 0.977 . S
C918 C905 1.684 1_554 S
C918 H943 0.979 . S
C918 H944 0.980 . S
C918 H945 0.983 . S
C919 C920 1.391 . S
C919 C924 1.391 . S
C919 H949 0.948 . S
C920 C919 1.391 . S
C920 C921 1.391 . S
C921 C920 1.391 . S
C921 C922 1.392 . S
C921 H950 0.947 . S
C922 C921 1.392 . S
C922 C923 1.419 . S
C922 H951 0.948 . S
C923 C922 1.419 . S
C923 C924 1.391 . S
C923 C927 1.397 . S
C924 C919 1.391 . S
C924 C923 1.391 . S
C924 C925 1.399 . S
C925 C924 1.399 . S
C925 C926 1.396 . S
C925 C928 1.453 . S
C925 C929 1.684 . S
C926 C907 1.723 . S
C926 C925 1.396 . S
C926 C927 1.394 . S
C927 C923 1.397 . S
C927 C926 1.394 . S
C927 C937 1.723 . S
C928 C925 1.453 . S
C928 H952 0.982 . S
C928 H953 0.979 . S
C928 H954 0.977 . S
C929 C925 1.684 . S
C929 H955 0.979 . S
C929 H956 0.980 . S
C929 H957 0.983 . S
C930 H906 0.948 . S
C930 C931 1.391 1_556 S
C930 C935 1.391 . S
C931 C930 1.391 1_554 S
C931 C932 1.391 . S
C932 H909 0.947 . S
C932 C931 1.391 . S
C932 C933 1.392 . S
C933 H910 0.948 . S
C933 C932 1.392 . S
C933 C934 1.419 1_554 S
C934 C933 1.419 1_556 S
C934 C935 1.391 . S
C934 C938 1.397 . S
C935 C930 1.391 . S
C935 C934 1.391 . S
C935 C936 1.399 . S
C936 C935 1.399 . S
C936 C937 1.396 . S
C936 C939 1.453 . S
C936 C940 1.684 . S
C937 C927 1.723 . S
C937 C936 1.396 . S
C937 C938 1.394 . S
C938 C908 1.723 . S
C938 C934 1.397 . S
C938 C937 1.394 . S
C939 H911 0.982 . S
C939 H915 0.979 . S
C939 H916 0.977 . S
C939 C936 1.453 . S
C940 H912 0.979 . S
C940 H913 0.980 . S
C940 H914 0.983 . S
C940 C936 1.684 . S
H941 C959 0.948 . S
H942 C900 0.948 . S
H943 C918 0.979 . S
H944 C918 0.980 . S
H945 C918 0.983 . S
H946 C917 0.982 . S
H947 C917 0.979 . S
H948 C917 0.977 . S
H949 C919 0.948 . S
H950 C921 0.947 . S
H951 C922 0.948 . S
H952 C928 0.982 . S
H953 C928 0.979 . S
H954 C928 0.977 . S
H955 C929 0.979 . S
H956 C929 0.980 . S
H957 C929 0.983 . S
H958 C902 0.947 . S
C959 C902 1.392 . S
C959 C903 1.419 . S
C959 H941 0.948 . S
O960 Cd961 2.223 . S
O960 C968 1.315 . S
Cd961 O960 2.223 . S
Cd961 O964 2.297 . S
Cd961 O965 2.439 . S
Cd961 O971 2.240 . S
Cd962 O963 2.240 . S
Cd962 O970 2.223 . S
Cd962 O972 2.297 . S
Cd962 O973 2.439 . S
O963 Cd962 2.240 . S
O963 C968 1.279 . S
O964 Cd961 2.297 . S
O964 C966 1.247 . S
O965 Cd961 2.439 . S
O965 C966 1.208 . S
C966 O964 1.247 . S
C966 O965 1.208 . S
C967 O972 1.247 . S
C967 O973 1.208 . S
C968 O960 1.315 . S
C968 O963 1.279 . S
C969 O970 1.315 . S
C969 O971 1.279 . S
O970 Cd962 2.223 . S
O970 C969 1.315 . S
O971 Cd961 2.240 . S
O971 C969 1.279 . S
O972 Cd962 2.297 . S
O972 C967 1.247 . S
O973 Cd962 2.439 . S
O973 C967 1.208 . S
O974 Cd975 2.223 . S
O974 C982 1.315 . S
Cd975 O974 2.223 . S
Cd975 O978 2.297 . S
Cd975 O979 2.439 . S
Cd975 O985 2.240 . S
Cd976 O977 2.240 . S
Cd976 O984 2.223 . S
Cd976 O986 2.297 . S
Cd976 O987 2.439 . S
O977 Cd976 2.240 . S
O977 C982 1.279 . S
O978 Cd975 2.297 . S
O978 C980 1.247 . S
O979 Cd975 2.439 . S
O979 C980 1.208 . S
C980 O978 1.247 . S
C980 O979 1.208 . S
C981 O986 1.247 . S
C981 O987 1.208 . S
C982 O974 1.315 . S
C982 O977 1.279 . S
C983 O984 1.315 . S
C983 O985 1.279 . S
O984 Cd976 2.223 . S
O984 C983 1.315 . S
O985 Cd975 2.240 . S
O985 C983 1.279 . S
O986 Cd976 2.297 . S
O986 C981 1.247 . S
O987 Cd976 2.439 . S
O987 C981 1.208 . S
O988 Cd989 2.223 1_556 S
O988 C996 1.315 . S
Cd989 O988 2.223 1_554 S
Cd989 O992 2.297 . S
Cd989 O993 2.439 . S
Cd989 O999 2.240 . S
Cd990 O991 2.240 . S
Cd990 O998 2.223 . S
Cd990 O1000 2.283 1_556 S
Cd990 O1001 2.439 1_556 S
O991 Cd990 2.240 . S
O991 C996 1.279 . S
O992 Cd989 2.297 . S
O992 C994 1.247 . S
O993 Cd989 2.439 . S
O993 C994 1.208 . S
C994 O992 1.247 . S
C994 O993 1.208 . S
C995 O1000 1.287 . S
C995 O1001 1.208 . S
C996 O988 1.315 . S
C996 O991 1.279 . S
C997 O998 1.315 . S
C997 O999 1.279 1_556 S
O998 Cd990 2.223 . S
O998 C997 1.315 . S
O999 Cd989 2.240 . S
O999 C997 1.279 1_554 S
O1000 Cd990 2.283 1_554 S
O1000 C995 1.287 . S
O1001 Cd990 2.439 1_554 S
O1001 C995 1.208 . S
O1002 Cd1003 2.223 . S
O1002 C1010 1.315 . S
Cd1003 O1002 2.223 . S
Cd1003 O1006 2.297 . S
Cd1003 O1007 2.439 . S
Cd1003 O1013 2.240 . S
Cd1004 O1005 2.240 . S
Cd1004 O1012 2.223 . S
Cd1004 O1014 2.297 . S
Cd1004 O1015 2.439 . S
O1005 Cd1004 2.240 . S
O1005 C1010 1.279 . S
O1006 Cd1003 2.297 . S
O1006 C1008 1.247 . S
O1007 Cd1003 2.439 . S
O1007 C1008 1.208 . S
C1008 O1006 1.247 . S
C1008 O1007 1.208 . S
C1009 O1014 1.247 . S
C1009 O1015 1.208 . S
C1010 O1002 1.315 . S
C1010 O1005 1.279 . S
C1011 O1012 1.315 . S
C1011 O1013 1.279 . S
O1012 Cd1004 2.223 . S
O1012 C1011 1.315 . S
O1013 Cd1003 2.240 . S
O1013 C1011 1.279 . S
O1014 Cd1004 2.297 . S
O1014 C1009 1.247 . S
O1015 Cd1004 2.439 . S
O1015 C1009 1.208 . S
O1016 Cd1017 2.223 . S
O1016 C1024 1.315 . S
Cd1017 O1016 2.223 . S
Cd1017 O1020 2.297 . S
Cd1017 O1021 2.439 . S
Cd1017 O1027 2.240 . S
Cd1018 O1019 2.240 . S
Cd1018 O1026 2.223 . S
Cd1018 O1028 2.297 . S
Cd1018 O1029 2.439 . S
O1019 Cd1018 2.240 . S
O1019 C1024 1.279 . S
O1020 Cd1017 2.297 . S
O1020 C1022 1.247 . S
O1021 Cd1017 2.439 . S
O1021 C1022 1.208 . S
C1022 O1020 1.247 . S
C1022 O1021 1.208 . S
C1023 O1028 1.247 . S
C1023 O1029 1.208 . S
C1024 O1016 1.315 . S
C1024 O1019 1.279 . S
C1025 O1026 1.315 . S
C1025 O1027 1.279 . S
O1026 Cd1018 2.223 . S
O1026 C1025 1.315 . S
O1027 Cd1017 2.240 . S
O1027 C1025 1.279 . S
O1028 Cd1018 2.297 . S
O1028 C1023 1.247 . S
O1029 Cd1018 2.439 . S
O1029 C1023 1.208 . S
O1030 Cd1031 2.223 . S
O1030 C1038 1.315 . S
Cd1031 O1030 2.223 . S
Cd1031 O1034 2.297 . S
Cd1031 O1035 2.439 . S
Cd1031 O1041 2.240 . S
Cd1032 O1033 2.240 . S
Cd1032 O1040 2.223 . S
Cd1032 O1042 2.297 . S
Cd1032 O1043 2.439 . S
O1033 Cd1032 2.240 . S
O1033 C1038 1.279 . S
O1034 Cd1031 2.297 . S
O1034 C1036 1.247 . S
O1035 Cd1031 2.439 . S
O1035 C1036 1.208 . S
C1036 O1034 1.247 . S
C1036 O1035 1.208 . S
C1037 O1042 1.247 . S
C1037 O1043 1.208 . S
C1038 O1030 1.315 . S
C1038 O1033 1.279 . S
C1039 O1040 1.315 . S
C1039 O1041 1.279 . S
O1040 Cd1032 2.223 . S
O1040 C1039 1.315 . S
O1041 Cd1031 2.240 . S
O1041 C1039 1.279 . S
O1042 Cd1032 2.297 . S
O1042 C1037 1.247 . S
O1043 Cd1032 2.439 . S
O1043 C1037 1.208 . S
O1044 Cd1045 2.223 . S
O1044 C1052 1.315 . S
Cd1045 O1044 2.223 . S
Cd1045 O1048 2.297 . S
Cd1045 O1049 2.439 . S
Cd1045 O1055 2.240 . S
Cd1046 O1047 2.240 . S
Cd1046 O1054 2.223 . S
Cd1046 O1056 2.297 . S
Cd1046 O1057 2.439 . S
O1047 Cd1046 2.240 . S
O1047 C1052 1.279 . S
O1048 Cd1045 2.297 . S
O1048 C1050 1.247 . S
O1049 Cd1045 2.439 . S
O1049 C1050 1.208 . S
C1050 O1048 1.247 . S
C1050 O1049 1.208 . S
C1051 O1056 1.247 . S
C1051 O1057 1.208 . S
C1052 O1044 1.315 . S
C1052 O1047 1.279 . S
C1053 O1054 1.315 . S
C1053 O1055 1.279 . S
O1054 Cd1046 2.223 . S
O1054 C1053 1.315 . S
O1055 Cd1045 2.240 . S
O1055 C1053 1.279 . S
O1056 Cd1046 2.297 . S
O1056 C1051 1.247 . S
O1057 Cd1046 2.439 . S
O1057 C1051 1.208 . S
O1058 Cd1059 2.223 1_545 S
O1058 C1066 1.315 . S
Cd1059 O1058 2.223 1_565 S
Cd1059 O1062 2.297 . S
Cd1059 O1063 2.439 . S
Cd1059 O1069 2.240 1_565 S
Cd1060 O1061 2.240 . S
Cd1060 O1068 2.223 . S
Cd1060 O1070 2.297 . S
Cd1060 O1071 2.439 1_545 S
O1061 Cd1060 2.240 . S
O1061 C1066 1.279 . S
O1062 Cd1059 2.297 . S
O1062 C1064 1.247 . S
O1063 Cd1059 2.439 . S
O1063 C1064 1.208 . S
C1064 O1062 1.247 . S
C1064 O1063 1.208 . S
C1065 O1070 1.247 1_565 S
C1065 O1071 1.208 . S
C1066 O1058 1.315 . S
C1066 O1061 1.279 . S
C1067 O1068 1.315 . S
C1067 O1069 1.279 . S
O1068 Cd1060 2.223 . S
O1068 C1067 1.315 . S
O1069 Cd1059 2.240 1_545 S
O1069 C1067 1.279 . S
O1070 Cd1060 2.297 . S
O1070 C1065 1.247 1_545 S
O1071 Cd1060 2.439 1_565 S
O1071 C1065 1.208 . S
O1072 Cd1073 2.223 . S
O1072 C1080 1.315 . S
Cd1073 O1072 2.223 . S
Cd1073 O1076 2.297 1_655 S
Cd1073 O1077 2.439 1_655 S
Cd1073 O1083 2.240 . S
Cd1074 O1075 2.240 . S
Cd1074 O1082 2.223 1_455 S
Cd1074 O1084 2.297 . S
Cd1074 O1085 2.439 . S
O1075 Cd1074 2.240 . S
O1075 C1080 1.279 1_455 S
O1076 Cd1073 2.297 1_455 S
O1076 C1078 1.247 . S
O1077 Cd1073 2.439 1_455 S
O1077 C1078 1.208 . S
C1078 O1076 1.247 . S
C1078 O1077 1.208 . S
C1079 O1084 1.247 . S
C1079 O1085 1.208 . S
C1080 O1072 1.315 . S
C1080 O1075 1.279 1_655 S
C1081 O1082 1.315 . S
C1081 O1083 1.279 . S
O1082 Cd1074 2.223 1_655 S
O1082 C1081 1.315 . S
O1083 Cd1073 2.240 . S
O1083 C1081 1.279 . S
O1084 Cd1074 2.297 . S
O1084 C1079 1.247 . S
O1085 Cd1074 2.439 . S
O1085 C1079 1.208 . S
O1086 Cd1087 2.223 . S
O1086 C1094 1.315 . S
Cd1087 O1086 2.223 . S
Cd1087 O1090 2.297 . S
Cd1087 O1091 2.439 . S
Cd1087 O1097 2.240 . S
Cd1088 O1089 2.240 . S
Cd1088 O1096 2.223 . S
Cd1088 O1098 2.297 . S
Cd1088 O1099 2.439 . S
O1089 Cd1088 2.240 . S
O1089 C1094 1.279 . S
O1090 Cd1087 2.297 . S
O1090 C1092 1.247 . S
O1091 Cd1087 2.439 . S
O1091 C1092 1.208 . S
C1092 O1090 1.247 . S
C1092 O1091 1.208 . S
C1093 O1098 1.247 . S
C1093 O1099 1.208 . S
C1094 O1086 1.315 . S
C1094 O1089 1.279 . S
C1095 O1096 1.315 . S
C1095 O1097 1.279 . S
O1096 Cd1088 2.223 . S
O1096 C1095 1.315 . S
O1097 Cd1087 2.240 . S
O1097 C1095 1.279 . S
O1098 Cd1088 2.297 . S
O1098 C1093 1.247 . S
O1099 Cd1088 2.439 . S
O1099 C1093 1.208 . S
O1100 Cd1101 2.223 1_655 S
O1100 C1108 1.315 . S
Cd1101 O1100 2.223 1_455 S
Cd1101 O1104 2.297 . S
Cd1101 O1105 2.439 . S
Cd1101 O1111 2.240 . S
Cd1102 O1103 2.240 . S
Cd1102 O1110 2.223 . S
Cd1102 O1112 2.297 1_655 S
Cd1102 O1113 2.439 1_655 S
O1103 Cd1102 2.240 . S
O1103 C1108 1.279 . S
O1104 Cd1101 2.297 . S
O1104 C1106 1.247 . S
O1105 Cd1101 2.439 . S
O1105 C1106 1.208 . S
C1106 O1104 1.247 . S
C1106 O1105 1.208 . S
C1107 O1112 1.247 . S
C1107 O1113 1.208 . S
C1108 O1100 1.315 . S
C1108 O1103 1.279 . S
C1109 O1110 1.315 . S
C1109 O1111 1.279 1_655 S
O1110 Cd1102 2.223 . S
O1110 C1109 1.315 . S
O1111 Cd1101 2.240 . S
O1111 C1109 1.279 1_455 S
O1112 Cd1102 2.297 1_455 S
O1112 C1107 1.247 . S
O1113 Cd1102 2.439 1_455 S
O1113 C1107 1.208 . S
O1114 Cd1115 2.223 . S
O1114 C1122 1.315 . S
Cd1115 O1114 2.223 . S
Cd1115 O1118 2.297 . S
Cd1115 O1119 2.439 . S
Cd1115 O1125 2.240 . S
Cd1116 O1117 2.240 . S
Cd1116 O1124 2.223 . S
Cd1116 O1126 2.297 . S
Cd1116 O1127 2.439 . S
O1117 Cd1116 2.240 . S
O1117 C1122 1.279 . S
O1118 Cd1115 2.297 . S
O1118 C1120 1.247 . S
O1119 Cd1115 2.439 . S
O1119 C1120 1.208 . S
C1120 O1118 1.247 . S
C1120 O1119 1.208 . S
C1121 O1126 1.247 . S
C1121 O1127 1.208 . S
C1122 O1114 1.315 . S
C1122 O1117 1.279 . S
C1123 O1124 1.315 . S
C1123 O1125 1.279 . S
O1124 Cd1116 2.223 . S
O1124 C1123 1.315 . S
O1125 Cd1115 2.240 . S
O1125 C1123 1.279 . S
O1126 Cd1116 2.297 . S
O1126 C1121 1.247 . S
O1127 Cd1116 2.439 . S
O1127 C1121 1.208 . S
C1128 C1129 1.387 . S
C1128 H1132 0.950 . S
C1128 C1137 1.390 . S
C1129 C1128 1.387 . S
C1129 C1131 1.387 . S
H1130 C1137 0.950 . S
C1131 C1129 1.387 . S
C1131 C1133 1.390 . S
C1131 H1135 0.950 . S
H1132 C1128 0.950 . S
C1133 C1131 1.390 . S
C1133 C1134 1.387 . S
C1133 H1136 0.950 . S
C1134 C1133 1.387 . S
C1134 C1137 1.387 . S
H1135 C1131 0.950 . S
H1136 C1133 0.950 . S
C1137 C1128 1.390 . S
C1137 H1130 0.950 . S
C1137 C1134 1.387 . S
C1138 C1139 1.387 . S
C1138 H1142 0.950 . S
C1138 C1147 1.390 . S
C1139 C1138 1.387 . S
C1139 C1141 1.387 . S
H1140 C1147 0.950 . S
C1141 C1139 1.387 . S
C1141 C1143 1.390 . S
C1141 H1145 0.950 . S
H1142 C1138 0.950 . S
C1143 C1141 1.390 . S
C1143 C1144 1.387 . S
C1143 H1146 0.950 . S
C1144 C1143 1.387 . S
C1144 C1147 1.387 . S
H1145 C1141 0.950 . S
H1146 C1143 0.950 . S
C1147 C1138 1.390 . S
C1147 H1140 0.950 . S
C1147 C1144 1.387 . S
C1148 C1149 1.387 . S
C1148 H1152 0.950 . S
C1148 C1157 1.390 . S
C1149 C1148 1.387 . S
C1149 C1151 1.387 . S
H1150 C1157 0.950 . S
C1151 C1149 1.387 . S
C1151 C1153 1.390 . S
C1151 H1155 0.950 . S
H1152 C1148 0.950 . S
C1153 C1151 1.390 . S
C1153 C1154 1.387 . S
C1153 H1156 0.950 . S
C1154 C1153 1.387 . S
C1154 C1157 1.387 . S
H1155 C1151 0.950 . S
H1156 C1153 0.950 . S
C1157 C1148 1.390 . S
C1157 H1150 0.950 . S
C1157 C1154 1.387 . S
C1158 C1159 1.387 1_545 S
C1158 H1162 0.950 . S
C1158 C1167 1.390 . S
C1159 C1158 1.387 1_565 S
C1159 C1161 1.387 . S
H1160 C1167 0.950 . S
C1161 C1159 1.387 . S
C1161 C1163 1.390 . S
C1161 H1165 0.950 . S
H1162 C1158 0.950 . S
C1163 C1161 1.390 . S
C1163 C1164 1.387 1_565 S
C1163 H1166 0.950 . S
C1164 C1163 1.387 1_545 S
C1164 C1167 1.387 . S
H1165 C1161 0.950 . S
H1166 C1163 0.950 . S
C1167 C1158 1.390 . S
C1167 H1160 0.950 . S
C1167 C1164 1.387 . S
C1168 C1169 1.387 . S
C1168 H1172 0.950 . S
C1168 C1177 1.390 . S
C1169 C1168 1.387 . S
C1169 C1171 1.387 . S
H1170 C1177 0.950 . S
C1171 C1169 1.387 . S
C1171 C1173 1.390 . S
C1171 H1175 0.950 . S
H1172 C1168 0.950 . S
C1173 C1171 1.390 . S
C1173 C1174 1.387 . S
C1173 H1176 0.950 . S
C1174 C1173 1.387 . S
C1174 C1177 1.387 . S
H1175 C1171 0.950 . S
H1176 C1173 0.950 . S
C1177 C1168 1.390 . S
C1177 H1170 0.950 . S
C1177 C1174 1.387 . S
C1178 C1179 1.387 . S
C1178 H1182 0.950 . S
C1178 C1187 1.390 . S
C1179 C1178 1.387 . S
C1179 C1181 1.387 . S
H1180 C1187 0.950 . S
C1181 C1179 1.387 . S
C1181 C1183 1.390 . S
C1181 H1185 0.950 . S
H1182 C1178 0.950 . S
C1183 C1181 1.390 . S
C1183 C1184 1.387 . S
C1183 H1186 0.950 . S
C1184 C1183 1.387 . S
C1184 C1187 1.387 . S
H1185 C1181 0.950 . S
H1186 C1183 0.950 . S
C1187 C1178 1.390 . S
C1187 H1180 0.950 . S
C1187 C1184 1.387 . S
C1188 C1189 1.387 . S
C1188 H1192 0.950 . S
C1188 C1197 1.390 . S
C1189 C1188 1.387 . S
C1189 C1191 1.387 . S
H1190 C1197 0.950 . S
C1191 C1189 1.387 . S
C1191 C1193 1.390 . S
C1191 H1195 0.950 . S
H1192 C1188 0.950 . S
C1193 C1191 1.390 . S
C1193 C1194 1.387 . S
C1193 H1196 0.950 . S
C1194 C1193 1.387 . S
C1194 C1197 1.387 . S
H1195 C1191 0.950 . S
H1196 C1193 0.950 . S
C1197 C1188 1.390 . S
C1197 H1190 0.950 . S
C1197 C1194 1.387 . S
C1198 C1199 1.387 . S
C1198 H1202 0.950 . S
C1198 C1207 1.390 . S
C1199 C1198 1.387 . S
C1199 C1201 1.387 . S
H1200 C1207 0.950 . S
C1201 C1199 1.387 . S
C1201 C1203 1.390 . S
C1201 H1205 0.950 . S
H1202 C1198 0.950 . S
C1203 C1201 1.390 . S
C1203 C1204 1.387 . S
C1203 H1206 0.950 . S
C1204 C1203 1.387 . S
C1204 C1207 1.387 . S
H1205 C1201 0.950 . S
H1206 C1203 0.950 . S
C1207 C1198 1.390 . S
C1207 H1200 0.950 . S
C1207 C1204 1.387 . S
C1208 C1209 1.387 . S
C1208 H1212 0.950 . S
C1208 C1217 1.390 . S
C1209 C1208 1.387 . S
C1209 C1211 1.387 . S
H1210 C1217 0.950 . S
C1211 C1209 1.387 . S
C1211 C1213 1.390 . S
C1211 H1215 0.950 . S
H1212 C1208 0.950 . S
C1213 C1211 1.390 . S
C1213 C1214 1.387 . S
C1213 H1216 0.950 . S
C1214 C1213 1.387 . S
C1214 C1217 1.387 . S
H1215 C1211 0.950 . S
H1216 C1213 0.950 . S
C1217 C1208 1.390 . S
C1217 H1210 0.950 . S
C1217 C1214 1.387 . S
C1218 C1219 1.387 . S
C1218 H1222 0.950 . S
C1218 C1227 1.390 . S
C1219 C1218 1.387 . S
C1219 C1221 1.387 . S
H1220 C1227 0.950 . S
C1221 C1219 1.387 . S
C1221 C1223 1.390 . S
C1221 H1225 0.950 . S
H1222 C1218 0.950 . S
C1223 C1221 1.390 . S
C1223 C1224 1.387 . S
C1223 H1226 0.950 . S
C1224 C1223 1.387 . S
C1224 C1227 1.387 . S
H1225 C1221 0.950 . S
H1226 C1223 0.950 . S
C1227 C1218 1.390 . S
C1227 H1220 0.950 . S
C1227 C1224 1.387 . S
C1228 C1229 1.387 . S
C1228 H1232 0.950 . S
C1228 C1237 1.390 . S
C1229 C1228 1.387 . S
C1229 C1231 1.387 . S
H1230 C1237 0.950 . S
C1231 C1229 1.387 . S
C1231 C1233 1.390 . S
C1231 H1235 0.950 . S
H1232 C1228 0.950 . S
C1233 C1231 1.390 . S
C1233 C1234 1.387 . S
C1233 H1236 0.950 . S
C1234 C1233 1.387 . S
C1234 C1237 1.387 . S
H1235 C1231 0.950 . S
H1236 C1233 0.950 . S
C1237 C1228 1.390 . S
C1237 H1230 0.950 . S
C1237 C1234 1.387 . S
C1238 C1239 1.387 . S
C1238 H1242 0.950 . S
C1238 C1247 1.390 . S
C1239 C1238 1.387 . S
C1239 C1241 1.387 . S
H1240 C1247 0.950 . S
C1241 C1239 1.387 . S
C1241 C1243 1.390 . S
C1241 H1245 0.950 . S
H1242 C1238 0.950 . S
C1243 C1241 1.390 . S
C1243 C1244 1.387 . S
C1243 H1246 0.950 . S
C1244 C1243 1.387 . S
C1244 C1247 1.387 . S
H1245 C1241 0.950 . S
H1246 C1243 0.950 . S
C1247 C1238 1.390 . S
C1247 H1240 0.950 . S
C1247 C1244 1.387 . S
C1248 C1249 1.387 . S
C1248 H1252 0.950 . S
C1248 C1257 1.390 . S
C1249 C1248 1.387 . S
C1249 C1251 1.387 . S
H1250 C1257 0.950 . S
C1251 C1249 1.387 . S
C1251 C1253 1.390 . S
C1251 H1255 0.950 . S
H1252 C1248 0.950 . S
C1253 C1251 1.390 . S
C1253 C1254 1.387 . S
C1253 H1256 0.950 . S
C1254 C1253 1.387 . S
C1254 C1257 1.387 . S
H1255 C1251 0.950 . S
H1256 C1253 0.950 . S
C1257 C1248 1.390 . S
C1257 H1250 0.950 . S
C1257 C1254 1.387 . S
C1258 C1259 1.387 . S
C1258 H1262 0.950 . S
C1258 C1267 1.390 . S
C1259 C1258 1.387 . S
C1259 C1261 1.387 . S
H1260 C1267 0.950 . S
C1261 C1259 1.387 . S
C1261 C1263 1.390 . S
C1261 H1265 0.950 . S
H1262 C1258 0.950 . S
C1263 C1261 1.390 . S
C1263 C1264 1.387 . S
C1263 H1266 0.950 . S
C1264 C1263 1.387 . S
C1264 C1267 1.387 . S
H1265 C1261 0.950 . S
H1266 C1263 0.950 . S
C1267 C1258 1.390 . S
C1267 H1260 0.950 . S
C1267 C1264 1.387 . S
C1268 C1269 1.387 . S
C1268 H1272 0.950 . S
C1268 C1277 1.390 . S
C1269 C1268 1.387 . S
C1269 C1271 1.387 . S
H1270 C1277 0.950 . S
C1271 C1269 1.387 . S
C1271 C1273 1.390 . S
C1271 H1275 0.950 . S
H1272 C1268 0.950 . S
C1273 C1271 1.390 . S
C1273 C1274 1.387 . S
C1273 H1276 0.950 . S
C1274 C1273 1.387 . S
C1274 C1277 1.387 . S
H1275 C1271 0.950 . S
H1276 C1273 0.950 . S
C1277 C1268 1.390 . S
C1277 H1270 0.950 . S
C1277 C1274 1.387 . S
C1278 C1279 1.387 . S
C1278 H1282 0.950 . S
C1278 C1287 1.390 . S
C1279 C1278 1.387 . S
C1279 C1281 1.387 . S
H1280 C1287 0.950 . S
C1281 C1279 1.387 . S
C1281 C1283 1.390 . S
C1281 H1285 0.950 . S
H1282 C1278 0.950 . S
C1283 C1281 1.390 . S
C1283 C1284 1.387 . S
C1283 H1286 0.972 . S
C1284 C1283 1.387 . S
C1284 C1287 1.387 . S
H1285 C1281 0.950 . S
H1286 C1283 0.972 . S
C1287 C1278 1.390 . S
C1287 H1280 0.950 . S
C1287 C1284 1.387 . S
C1288 C1289 1.387 . S
C1288 H1292 0.950 . S
C1288 C1297 1.390 . S
C1289 C1288 1.387 . S
C1289 C1291 1.387 . S
H1290 C1297 0.950 . S
C1291 C1289 1.387 . S
C1291 C1293 1.390 . S
C1291 H1295 0.950 . S
H1292 C1288 0.950 . S
C1293 C1291 1.390 . S
C1293 C1294 1.387 . S
C1293 H1296 0.950 1_565 S
C1294 C1293 1.387 . S
C1294 C1297 1.387 . S
H1295 C1291 0.950 . S
H1296 C1293 0.950 1_545 S
C1297 C1288 1.390 . S
C1297 H1290 0.950 . S
C1297 C1294 1.387 . S
C1298 C1299 1.387 . S
C1298 H1302 0.950 . S
C1298 C1307 1.390 . S
C1299 C1298 1.387 . S
C1299 C1301 1.387 . S
H1300 C1307 0.950 . S
C1301 C1299 1.387 . S
C1301 C1303 1.390 . S
C1301 H1305 0.950 . S
H1302 C1298 0.950 . S
C1303 C1301 1.390 . S
C1303 C1304 1.387 . S
C1303 H1306 0.950 . S
C1304 C1303 1.387 . S
C1304 C1307 1.387 . S
H1305 C1301 0.950 . S
H1306 C1303 0.950 . S
C1307 C1298 1.390 . S
C1307 H1300 0.950 . S
C1307 C1304 1.387 . S
C1308 C1309 1.387 1_565 S
C1308 H1312 0.950 . S
C1308 C1317 1.390 . S
C1309 C1308 1.387 1_545 S
C1309 C1311 1.387 1_556 S
H1310 C1317 0.950 . S
C1311 C1309 1.387 1_554 S
C1311 C1313 1.390 1_545 S
C1311 H1315 0.950 . S
H1312 C1308 0.950 . S
C1313 C1311 1.390 1_565 S
C1313 C1314 1.387 . S
C1313 H1316 0.950 . S
C1314 C1313 1.387 . S
C1314 C1317 1.387 1_554 S
H1315 C1311 0.950 . S
H1316 C1313 0.950 . S
C1317 C1308 1.390 . S
C1317 H1310 0.950 . S
C1317 C1314 1.387 1_556 S
C1318 C1319 1.387 . S
C1318 H1322 0.950 . S
C1318 C1327 1.390 . S
C1319 C1318 1.387 . S
C1319 C1321 1.387 . S
H1320 C1327 0.950 . S
C1321 C1319 1.387 . S
C1321 C1323 1.390 . S
C1321 H1325 0.950 . S
H1322 C1318 0.950 . S
C1323 C1321 1.390 . S
C1323 C1324 1.387 . S
C1323 H1326 0.950 . S
C1324 C1323 1.387 . S
C1324 C1327 1.387 . S
H1325 C1321 0.950 . S
H1326 C1323 0.950 . S
C1327 C1318 1.390 . S
C1327 H1320 0.950 . S
C1327 C1324 1.387 . S
C1328 C1329 1.387 . S
C1328 H1332 0.950 . S
C1328 C1337 1.390 . S
C1329 C1328 1.387 . S
C1329 C1331 1.387 . S
H1330 C1337 0.950 . S
C1331 C1329 1.387 . S
C1331 C1333 1.390 . S
C1331 H1335 0.950 . S
H1332 C1328 0.950 . S
C1333 C1331 1.390 . S
C1333 C1334 1.387 . S
C1333 H1336 0.950 . S
C1334 C1333 1.387 . S
C1334 C1337 1.387 . S
H1335 C1331 0.950 . S
H1336 C1333 0.950 . S
C1337 C1328 1.390 . S
C1337 H1330 0.950 . S
C1337 C1334 1.387 . S
C1338 C1339 1.387 . S
C1338 H1342 0.950 . S
C1338 C1347 1.390 . S
C1339 C1338 1.387 . S
C1339 C1341 1.387 . S
H1340 C1347 0.950 . S
C1341 C1339 1.387 . S
C1341 C1343 1.390 . S
C1341 H1345 0.950 . S
H1342 C1338 0.950 . S
C1343 C1341 1.390 . S
C1343 C1344 1.387 . S
C1343 H1346 0.950 . S
C1344 C1343 1.387 . S
C1344 C1347 1.387 . S
H1345 C1341 0.950 . S
H1346 C1343 0.950 . S
C1347 C1338 1.390 . S
C1347 H1340 0.950 . S
C1347 C1344 1.387 . S
C1348 C1349 1.387 . S
C1348 H1352 0.950 . S
C1348 C1357 1.390 . S
C1349 C1348 1.387 . S
C1349 C1351 1.387 . S
H1350 C1357 0.950 . S
C1351 C1349 1.387 . S
C1351 C1353 1.390 . S
C1351 H1355 0.950 . S
H1352 C1348 0.950 . S
C1353 C1351 1.390 . S
C1353 C1354 1.387 . S
C1353 H1356 0.950 . S
C1354 C1353 1.387 . S
C1354 C1357 1.387 . S
H1355 C1351 0.950 . S
H1356 C1353 0.950 . S
C1357 C1348 1.390 . S
C1357 H1350 0.950 . S
C1357 C1354 1.387 . S
C1358 C1359 1.387 . S
C1358 H1362 0.950 . S
C1358 C1367 1.390 . S
C1359 C1358 1.387 . S
C1359 C1361 1.387 . S
H1360 C1367 0.950 . S
C1361 C1359 1.387 . S
C1361 C1363 1.390 . S
C1361 H1365 0.950 . S
H1362 C1358 0.950 . S
C1363 C1361 1.390 . S
C1363 C1364 1.387 . S
C1363 H1366 0.950 . S
C1364 C1363 1.387 . S
C1364 C1367 1.387 . S
H1365 C1361 0.950 . S
H1366 C1363 0.950 . S
C1367 C1358 1.390 . S
C1367 H1360 0.950 . S
C1367 C1364 1.387 . S
C1368 C1369 1.387 . S
C1368 H1372 0.950 . S
C1368 C1377 1.390 . S
C1369 C1368 1.387 . S
C1369 C1371 1.387 . S
H1370 C1377 0.950 . S
C1371 C1369 1.387 . S
C1371 C1373 1.390 . S
C1371 H1375 0.950 . S
H1372 C1368 0.950 . S
C1373 C1371 1.390 . S
C1373 C1374 1.387 . S
C1373 H1376 0.950 . S
C1374 C1373 1.387 . S
C1374 C1377 1.387 . S
H1375 C1371 0.950 . S
H1376 C1373 0.950 . S
C1377 C1368 1.390 . S
C1377 H1370 0.950 . S
C1377 C1374 1.387 . S
C1378 C1379 1.387 . S
C1378 H1382 0.950 . S
C1378 C1387 1.390 . S
C1379 C1378 1.387 . S
C1379 C1381 1.387 . S
H1380 C1387 0.950 . S
C1381 C1379 1.387 . S
C1381 C1383 1.390 . S
C1381 H1385 0.950 . S
H1382 C1378 0.950 . S
C1383 C1381 1.390 . S
C1383 C1384 1.387 . S
C1383 H1386 0.950 . S
C1384 C1383 1.387 . S
C1384 C1387 1.387 . S
H1385 C1381 0.950 . S
H1386 C1383 0.950 . S
C1387 C1378 1.390 . S
C1387 H1380 0.950 . S
C1387 C1384 1.387 . S
C1388 C1389 1.387 . S
C1388 H1392 0.950 . S
C1388 C1397 1.390 . S
C1389 C1388 1.387 . S
C1389 C1391 1.387 . S
H1390 C1397 0.950 . S
C1391 C1389 1.387 . S
C1391 C1393 1.390 . S
C1391 H1395 0.950 . S
H1392 C1388 0.950 . S
C1393 C1391 1.390 . S
C1393 C1394 1.387 . S
C1393 H1396 0.950 . S
C1394 C1393 1.387 . S
C1394 C1397 1.387 . S
H1395 C1391 0.950 . S
H1396 C1393 0.950 . S
C1397 C1388 1.390 . S
C1397 H1390 0.950 . S
C1397 C1394 1.387 . S
C1398 C1399 1.387 . S
C1398 H1402 0.950 . S
C1398 C1407 1.390 . S
C1399 C1398 1.387 . S
C1399 C1401 1.387 . S
H1400 C1407 0.950 . S
C1401 C1399 1.387 . S
C1401 C1403 1.390 . S
C1401 H1405 0.950 . S
H1402 C1398 0.950 . S
C1403 C1401 1.390 . S
C1403 C1404 1.387 . S
C1403 H1406 0.950 . S
C1404 C1403 1.387 . S
C1404 C1407 1.387 . S
H1405 C1401 0.950 . S
H1406 C1403 0.950 . S
C1407 C1398 1.390 . S
C1407 H1400 0.950 . S
C1407 C1404 1.387 . S
C1408 C1409 1.387 . S
C1408 H1412 0.950 . S
C1408 C1417 1.390 . S
C1409 C1408 1.387 . S
C1409 C1411 1.387 . S
H1410 C1417 0.950 . S
C1411 C1409 1.387 . S
C1411 C1413 1.390 . S
C1411 H1415 0.950 . S
H1412 C1408 0.950 . S
C1413 C1411 1.390 . S
C1413 C1414 1.387 . S
C1413 H1416 0.950 . S
C1414 C1413 1.387 . S
C1414 C1417 1.387 . S
H1415 C1411 0.950 . S
H1416 C1413 0.950 . S
C1417 C1408 1.390 . S
C1417 H1410 0.950 . S
C1417 C1414 1.387 . S
C1418 C1419 1.387 1_655 S
C1418 H1422 0.950 1_655 S
C1418 C1427 1.390 . S
C1419 C1418 1.387 1_455 S
C1419 C1421 1.387 . S
H1420 C1427 0.950 . S
C1421 C1419 1.387 . S
C1421 C1423 1.390 1_455 S
C1421 H1425 0.950 . S
H1422 C1418 0.950 1_455 S
C1423 C1421 1.390 1_655 S
C1423 C1424 1.387 . S
C1423 H1426 0.950 . S
C1424 C1423 1.387 . S
C1424 C1427 1.387 . S
H1425 C1421 0.950 . S
H1426 C1423 0.950 . S
C1427 C1418 1.390 . S
C1427 H1420 0.950 . S
C1427 C1424 1.387 . S
C1428 C1429 1.387 . S
C1428 H1432 0.950 . S
C1428 C1437 1.390 . S
C1429 C1428 1.387 . S
C1429 C1431 1.387 . S
H1430 C1437 0.950 . S
C1431 C1429 1.387 . S
C1431 C1433 1.390 . S
C1431 H1435 0.950 . S
H1432 C1428 0.950 . S
C1433 C1431 1.390 . S
C1433 C1434 1.387 . S
C1433 H1436 0.950 . S
C1434 C1433 1.387 . S
C1434 C1437 1.387 . S
H1435 C1431 0.950 . S
H1436 C1433 0.950 . S
C1437 C1428 1.390 . S
C1437 H1430 0.950 . S
C1437 C1434 1.387 . S
C1438 C1439 1.387 . S
C1438 H1442 0.950 . S
C1438 C1447 1.390 1_655 S
C1439 C1438 1.387 . S
C1439 C1441 1.379 1_655 S
H1440 C1447 0.950 . S
C1441 C1439 1.379 1_455 S
C1441 C1443 1.406 . S
C1441 H1445 0.943 1_455 S
H1442 C1438 0.950 . S
C1443 C1441 1.406 . S
C1443 C1444 1.387 . S
C1443 H1446 0.950 . S
C1444 C1443 1.387 . S
C1444 C1447 1.387 . S
H1445 C1441 0.943 1_655 S
H1446 C1443 0.950 . S
C1447 C1438 1.390 1_455 S
C1447 H1440 0.950 . S
C1447 C1444 1.387 . S
C1448 C1449 1.387 . S
C1448 H1452 0.950 . S
C1448 C1457 1.390 . S
C1449 C1448 1.387 . S
C1449 C1451 1.387 . S
H1450 C1457 0.950 . S
C1451 C1449 1.387 . S
C1451 C1453 1.390 . S
C1451 H1455 0.950 . S
H1452 C1448 0.950 . S
C1453 C1451 1.390 . S
C1453 C1454 1.387 . S
C1453 H1456 0.950 . S
C1454 C1453 1.387 . S
C1454 C1457 1.387 . S
H1455 C1451 0.950 . S
H1456 C1453 0.950 . S
C1457 C1448 1.390 . S
C1457 H1450 0.950 . S
C1457 C1454 1.387 . S
C1458 C1459 1.387 . S
C1458 H1462 0.950 . S
C1458 C1467 1.390 . S
C1459 C1458 1.387 . S
C1459 C1461 1.387 . S
H1460 C1467 0.950 . S
C1461 C1459 1.387 . S
C1461 C1463 1.390 . S
C1461 H1465 0.950 1_556 S
H1462 C1458 0.950 . S
C1463 C1461 1.390 . S
C1463 C1464 1.387 . S
C1463 H1466 0.950 . S
C1464 C1463 1.387 . S
C1464 C1467 1.387 . S
H1465 C1461 0.950 1_554 S
H1466 C1463 0.950 . S
C1467 C1458 1.390 . S
C1467 H1460 0.950 . S
C1467 C1464 1.387 . S
C1468 C1469 1.387 . S
C1468 H1472 0.950 . S
C1468 C1477 1.390 . S
C1469 C1468 1.387 . S
C1469 C1471 1.387 . S
H1470 C1477 0.950 . S
C1471 C1469 1.387 . S
C1471 C1473 1.390 . S
C1471 H1475 0.950 . S
H1472 C1468 0.950 . S
C1473 C1471 1.390 . S
C1473 C1474 1.387 . S
C1473 H1476 0.950 . S
C1474 C1473 1.387 . S
C1474 C1477 1.387 . S
H1475 C1471 0.950 . S
H1476 C1473 0.950 . S
C1477 C1468 1.390 . S
C1477 H1470 0.950 . S
C1477 C1474 1.387 . S
C1478 C1479 1.387 . S
C1478 H1482 0.950 . S
C1478 C1487 1.390 1_554 S
C1479 C1478 1.387 . S
C1479 C1481 1.387 . S
H1480 C1487 0.950 . S
C1481 C1479 1.387 . S
C1481 C1483 1.390 1_554 S
C1481 H1485 0.950 . S
H1482 C1478 0.950 . S
C1483 C1481 1.390 1_556 S
C1483 C1484 1.387 . S
C1483 H1486 0.950 . S
C1484 C1483 1.387 . S
C1484 C1487 1.387 . S
H1485 C1481 0.950 . S
H1486 C1483 0.950 . S
C1487 C1478 1.390 1_556 S
C1487 H1480 0.950 . S
C1487 C1484 1.387 . S
C1488 C1489 1.387 . S
C1488 H1492 0.950 . S
C1488 C1497 1.390 . S
C1489 C1488 1.387 . S
C1489 C1491 1.387 . S
H1490 C1497 0.950 . S
C1491 C1489 1.387 . S
C1491 C1493 1.390 . S
C1491 H1495 0.950 . S
H1492 C1488 0.950 . S
C1493 C1491 1.390 . S
C1493 C1494 1.387 . S
C1493 H1496 0.950 . S
C1494 C1493 1.387 . S
C1494 C1497 1.387 . S
H1495 C1491 0.950 . S
H1496 C1493 0.950 . S
C1497 C1488 1.390 . S
C1497 H1490 0.950 . S
C1497 C1494 1.387 . S
C1498 C1499 1.387 . S
C1498 H1502 0.950 1_554 S
C1498 C1507 1.390 . S
C1499 C1498 1.387 . S
C1499 C1501 1.387 . S
H1500 C1507 0.950 . S
C1501 C1499 1.387 . S
C1501 C1503 1.390 . S
C1501 H1505 0.950 . S
H1502 C1498 0.950 1_556 S
C1503 C1501 1.390 . S
C1503 C1504 1.387 . S
C1503 H1506 0.950 . S
C1504 C1503 1.387 . S
C1504 C1507 1.387 . S
H1505 C1501 0.950 . S
H1506 C1503 0.950 . S
C1507 C1498 1.390 . S
C1507 H1500 0.950 . S
C1507 C1504 1.387 . S
C1508 C1509 1.387 . S
C1508 H1512 0.950 . S
C1508 C1517 1.390 . S
C1509 C1508 1.387 . S
C1509 C1511 1.387 . S
H1510 C1517 0.950 . S
C1511 C1509 1.387 . S
C1511 C1513 1.390 . S
C1511 H1515 0.950 . S
H1512 C1508 0.950 . S
C1513 C1511 1.390 . S
C1513 C1514 1.387 . S
C1513 H1516 0.950 . S
C1514 C1513 1.387 . S
C1514 C1517 1.387 . S
H1515 C1511 0.950 . S
H1516 C1513 0.950 . S
C1517 C1508 1.390 . S
C1517 H1510 0.950 . S
C1517 C1514 1.387 . S
C1518 C1519 1.387 . S
C1518 H1522 0.950 . S
C1518 C1527 1.390 . S
C1519 C1518 1.387 . S
C1519 C1521 1.387 . S
H1520 C1527 0.950 . S
C1521 C1519 1.387 . S
C1521 C1523 1.390 . S
C1521 H1525 0.950 . S
H1522 C1518 0.950 . S
C1523 C1521 1.390 . S
C1523 C1524 1.387 . S
C1523 H1526 0.950 . S
C1524 C1523 1.387 . S
C1524 C1527 1.387 . S
H1525 C1521 0.950 . S
H1526 C1523 0.950 . S
C1527 C1518 1.390 . S
C1527 H1520 0.950 . S
C1527 C1524 1.387 . S
C1528 C1529 1.387 . S
C1528 H1532 0.950 . S
C1528 C1537 1.390 . S
C1529 C1528 1.387 . S
C1529 C1531 1.387 . S
H1530 C1537 0.950 . S
C1531 C1529 1.387 . S
C1531 C1533 1.390 . S
C1531 H1535 0.950 . S
H1532 C1528 0.950 . S
C1533 C1531 1.390 . S
C1533 C1534 1.387 . S
C1533 H1536 0.950 . S
C1534 C1533 1.387 . S
C1534 C1537 1.387 . S
H1535 C1531 0.950 . S
H1536 C1533 0.950 . S
C1537 C1528 1.390 . S
C1537 H1530 0.950 . S
C1537 C1534 1.387 . S
C1538 C1539 1.387 . S
C1538 H1542 0.950 . S
C1538 C1547 1.390 . S
C1539 C1538 1.387 . S
C1539 C1541 1.387 . S
H1540 C1547 0.950 . S
C1541 C1539 1.387 . S
C1541 C1543 1.390 . S
C1541 H1545 0.950 . S
H1542 C1538 0.950 . S
C1543 C1541 1.390 . S
C1543 C1544 1.387 . S
C1543 H1546 0.950 . S
C1544 C1543 1.387 . S
C1544 C1547 1.387 . S
H1545 C1541 0.950 . S
H1546 C1543 0.950 . S
C1547 C1538 1.390 . S
C1547 H1540 0.950 . S
C1547 C1544 1.387 . S
C1548 C1549 1.387 . S
C1548 H1552 0.950 . S
C1548 C1557 1.390 . S
C1549 C1548 1.387 . S
C1549 C1551 1.387 . S
H1550 C1557 0.950 . S
C1551 C1549 1.387 . S
C1551 C1553 1.390 . S
C1551 H1555 0.950 . S
H1552 C1548 0.950 . S
C1553 C1551 1.390 . S
C1553 C1554 1.387 . S
C1553 H1556 0.950 . S
C1554 C1553 1.387 . S
C1554 C1557 1.387 . S
H1555 C1551 0.950 . S
H1556 C1553 0.950 . S
C1557 C1548 1.390 . S
C1557 H1550 0.950 . S
C1557 C1554 1.387 . S
C1558 C1559 1.387 . S
C1558 H1562 0.950 . S
C1558 C1567 1.390 . S
C1559 C1558 1.387 . S
C1559 C1561 1.387 . S
H1560 C1567 0.950 . S
C1561 C1559 1.387 . S
C1561 C1563 1.390 . S
C1561 H1565 0.950 . S
H1562 C1558 0.950 . S
C1563 C1561 1.390 . S
C1563 C1564 1.387 . S
C1563 H1566 0.950 . S
C1564 C1563 1.387 . S
C1564 C1567 1.387 . S
H1565 C1561 0.950 . S
H1566 C1563 0.950 . S
C1567 C1558 1.390 . S
C1567 H1560 0.950 . S
C1567 C1564 1.387 . S
C1568 C1569 1.387 . S
C1568 H1572 0.950 . S
C1568 C1577 1.390 . S
C1569 C1568 1.387 . S
C1569 C1571 1.387 . S
H1570 C1577 0.950 . S
C1571 C1569 1.387 . S
C1571 C1573 1.390 . S
C1571 H1575 0.950 . S
H1572 C1568 0.950 . S
C1573 C1571 1.390 . S
C1573 C1574 1.387 . S
C1573 H1576 0.950 . S
C1574 C1573 1.387 . S
C1574 C1577 1.387 . S
H1575 C1571 0.950 . S
H1576 C1573 0.950 . S
C1577 C1568 1.390 . S
C1577 H1570 0.950 . S
C1577 C1574 1.387 . S
C1578 C1579 1.387 . S
C1578 H1582 0.950 . S
C1578 C1587 1.390 . S
C1579 C1578 1.387 . S
C1579 C1581 1.387 . S
H1580 C1587 0.950 . S
C1581 C1579 1.387 . S
C1581 C1583 1.390 . S
C1581 H1585 0.950 . S
H1582 C1578 0.950 . S
C1583 C1581 1.390 . S
C1583 C1584 1.387 . S
C1583 H1586 0.950 . S
C1584 C1583 1.387 . S
C1584 C1587 1.387 . S
H1585 C1581 0.950 . S
H1586 C1583 0.950 . S
C1587 C1578 1.390 . S
C1587 H1580 0.950 . S
C1587 C1584 1.387 . S
C1588 C1589 1.387 . S
C1588 H1592 0.950 . S
C1588 C1597 1.390 . S
C1589 C1588 1.387 . S
C1589 C1591 1.387 . S
H1590 C1597 0.950 . S
C1591 C1589 1.387 . S
C1591 C1593 1.390 . S
C1591 H1595 0.950 . S
H1592 C1588 0.950 . S
C1593 C1591 1.390 . S
C1593 C1594 1.387 . S
C1593 H1596 0.950 . S
C1594 C1593 1.387 . S
C1594 C1597 1.387 . S
H1595 C1591 0.950 . S
H1596 C1593 0.950 . S
C1597 C1588 1.390 . S
C1597 H1590 0.950 . S
C1597 C1594 1.387 . S
C1598 C1599 1.387 . S
C1598 H1602 0.950 . S
C1598 C1607 1.390 . S
C1599 C1598 1.387 . S
C1599 C1601 1.387 . S
H1600 C1607 0.950 . S
C1601 C1599 1.387 . S
C1601 C1603 1.390 . S
C1601 H1605 0.950 . S
H1602 C1598 0.950 . S
C1603 C1601 1.390 . S
C1603 C1604 1.387 1_545 S
C1603 H1606 0.950 1_545 S
C1604 C1603 1.387 1_565 S
C1604 C1607 1.387 1_565 S
H1605 C1601 0.950 . S
H1606 C1603 0.950 1_565 S
C1607 C1598 1.390 . S
C1607 H1600 0.950 . S
C1607 C1604 1.387 1_545 S
C1134 C968 1.605 1_556 S
C1129 C331 1.555 . S
C1144 C983 1.731 . S
C1139 C380 1.697 1_455 S
C1149 C421 1.656 . S
C1154 C996 1.675 . S
C1164 C1010 1.614 . S
C1159 C260 1.690 1_655 S
C1174 C1022 1.600 . S
C1169 C620 1.628 . S
C1184 C1036 1.527 . S
C1179 C740 1.396 . S
C1189 C680 1.692 . S
C1194 C1050 1.692 . S
C1204 C1065 1.608 . S
C1199 C571 1.489 . S
C1209 C691 1.623 . S
C1214 C1081 1.644 . S
C1224 C1094 1.618 . S
C1219 C541 1.567 . S
C1229 C601 1.535 . S
C1234 C1079 1.526 . S
C1244 C1092 1.707 . S
C1239 C721 1.547 . S
C1249 C451 1.767 . S
C1254 C1108 1.789 . S
C1259 C241 1.712 . S
C1264 C1107 1.673 . S
C1269 C320 1.660 . S
C1274 C1106 1.632 . S
C1279 C391 1.595 . S
C1284 C1109 1.654 . S
C1289 C211 1.617 . S
C1294 C1011 1.679 1_565 S
C1299 C841 1.474 . S
C1304 C1009 1.474 . S
C1314 C969 1.584 . S
C1309 C901 1.557 . S
C1324 C980 1.727 . S
C1319 C500 1.731 . S
C1329 C271 1.694 . S
C1334 C1025 1.660 . S
C1344 C1066 1.827 . S
C1339 C661 1.807 . S
C1354 C1023 1.665 . S
C1349 C560 1.528 1_545 S
C1364 C1051 1.664 . S
C1359 C751 1.558 . S
C1374 C1052 1.604 . S
C1369 C871 1.553 . S
C1379 C920 1.700 . S
C1384 C1067 1.734 . S
C1389 C481 1.654 . S
C1394 C1024 1.676 . S
C1404 C1038 1.616 . S
C1399 C800 1.689 . S
C1409 C200 1.625 . S
C1414 C994 1.598 . S
C1424 C1008 1.527 . S
C1419 C20 1.396 . S
C1434 C966 1.690 . S
C1429 C80 1.693 . S
C1444 C981 1.610 . S
C1439 C151 1.492 . S
C1449 C91 1.623 . S
C1454 C1095 1.644 . S
C1459 C121 1.567 1_556 S
C1464 C1080 1.618 . S
C1469 C181 1.534 . S
C1474 C1093 1.525 . S
C1479 C1 1.546 . S
C1484 C1078 1.707 . S
C1494 C1122 1.788 . S
C1489 C511 1.768 . S
C1504 C1121 1.675 . S
C1499 C781 1.711 1_554 S
C1514 C1120 1.631 . S
C1509 C860 1.660 . S
C1519 C931 1.592 . S
C1524 C1123 1.651 . S
C1529 C631 1.617 . S
C1534 C1039 1.679 . S
C1544 C1037 1.473 . S
C1539 C301 1.473 . S
C1554 C1053 1.584 . S
C1549 C361 1.557 . S
C1564 C1064 1.727 . S
C1559 C440 1.731 . S
C1569 C811 1.691 . S
C1574 C997 1.659 . S
C1584 C982 1.827 . S
C1579 C61 1.807 . S
C1589 C140 1.526 . S
C1594 C995 1.666 . S
C1604 C967 1.664 . S
C1599 C31 1.559 . S
