# Generated by pormake.
# Topology tbo, (3,4)-cn, num edge types: 1
# Building blocks:
#     Node 0, Type 0, BuildingBlock: BETDIP_clean_linker_0, # of connection points: 3
#     Node 1, Type 0, BuildingBlock: BETDIP_clean_linker_0, # of connection points: 3
#     Node 2, Type 0, BuildingBlock: BETDIP_clean_linker_0, # of connection points: 3
#     Node 3, Type 0, BuildingBlock: BETDIP_clean_linker_0, # of connection points: 3
#     Node 4, Type 0, BuildingBlock: BETDIP_clean_linker_0, # of connection points: 3
#     Node 5, Type 0, BuildingBlock: BETDIP_clean_linker_0, # of connection points: 3
#     Node 6, Type 0, BuildingBlock: BETDIP_clean_linker_0, # of connection points: 3
#     Node 7, Type 0, BuildingBlock: BETDIP_clean_linker_0, # of connection points: 3
#     Node 8, Type 0, BuildingBlock: BETDIP_clean_linker_0, # of connection points: 3
#     Node 9, Type 0, BuildingBlock: BETDIP_clean_linker_0, # of connection points: 3
#     Node 10, Type 0, BuildingBlock: BETDIP_clean_linker_0, # of connection points: 3
#     Node 11, Type 0, BuildingBlock: BETDIP_clean_linker_0, # of connection points: 3
#     Node 12, Type 0, BuildingBlock: BETDIP_clean_linker_0, # of connection points: 3
#     Node 13, Type 0, BuildingBlock: BETDIP_clean_linker_0, # of connection points: 3
#     Node 14, Type 0, BuildingBlock: BETDIP_clean_linker_0, # of connection points: 3
#     Node 15, Type 0, BuildingBlock: BETDIP_clean_linker_0, # of connection points: 3
#     Node 16, Type 0, BuildingBlock: BETDIP_clean_linker_0, # of connection points: 3
#     Node 17, Type 0, BuildingBlock: BETDIP_clean_linker_0, # of connection points: 3
#     Node 18, Type 0, BuildingBlock: BETDIP_clean_linker_0, # of connection points: 3
#     Node 19, Type 0, BuildingBlock: BETDIP_clean_linker_0, # of connection points: 3
#     Node 20, Type 0, BuildingBlock: BETDIP_clean_linker_0, # of connection points: 3
#     Node 21, Type 0, BuildingBlock: BETDIP_clean_linker_0, # of connection points: 3
#     Node 22, Type 0, BuildingBlock: BETDIP_clean_linker_0, # of connection points: 3
#     Node 23, Type 0, BuildingBlock: BETDIP_clean_linker_0, # of connection points: 3
#     Node 24, Type 0, BuildingBlock: BETDIP_clean_linker_0, # of connection points: 3
#     Node 25, Type 0, BuildingBlock: BETDIP_clean_linker_0, # of connection points: 3
#     Node 26, Type 0, BuildingBlock: BETDIP_clean_linker_0, # of connection points: 3
#     Node 27, Type 0, BuildingBlock: BETDIP_clean_linker_0, # of connection points: 3
#     Node 28, Type 0, BuildingBlock: BETDIP_clean_linker_0, # of connection points: 3
#     Node 29, Type 0, BuildingBlock: BETDIP_clean_linker_0, # of connection points: 3
#     Node 30, Type 0, BuildingBlock: BETDIP_clean_linker_0, # of connection points: 3
#     Node 31, Type 0, BuildingBlock: BETDIP_clean_linker_0, # of connection points: 3
#     Node 32, Type 1, BuildingBlock: ESEHIV_clean_sbu_0, # of connection points: 4
#     Node 33, Type 1, BuildingBlock: ESEHIV_clean_sbu_0, # of connection points: 4
#     Node 34, Type 1, BuildingBlock: ESEHIV_clean_sbu_0, # of connection points: 4
#     Node 35, Type 1, BuildingBlock: ESEHIV_clean_sbu_0, # of connection points: 4
#     Node 36, Type 1, BuildingBlock: ESEHIV_clean_sbu_0, # of connection points: 4
#     Node 37, Type 1, BuildingBlock: ESEHIV_clean_sbu_0, # of connection points: 4
#     Node 38, Type 1, BuildingBlock: ESEHIV_clean_sbu_0, # of connection points: 4
#     Node 39, Type 1, BuildingBlock: ESEHIV_clean_sbu_0, # of connection points: 4
#     Node 40, Type 1, BuildingBlock: ESEHIV_clean_sbu_0, # of connection points: 4
#     Node 41, Type 1, BuildingBlock: ESEHIV_clean_sbu_0, # of connection points: 4
#     Node 42, Type 1, BuildingBlock: ESEHIV_clean_sbu_0, # of connection points: 4
#     Node 43, Type 1, BuildingBlock: ESEHIV_clean_sbu_0, # of connection points: 4
#     Node 44, Type 1, BuildingBlock: ESEHIV_clean_sbu_0, # of connection points: 4
#     Node 45, Type 1, BuildingBlock: ESEHIV_clean_sbu_0, # of connection points: 4
#     Node 46, Type 1, BuildingBlock: ESEHIV_clean_sbu_0, # of connection points: 4
#     Node 47, Type 1, BuildingBlock: ESEHIV_clean_sbu_0, # of connection points: 4
#     Node 48, Type 1, BuildingBlock: ESEHIV_clean_sbu_0, # of connection points: 4
#     Node 49, Type 1, BuildingBlock: ESEHIV_clean_sbu_0, # of connection points: 4
#     Node 50, Type 1, BuildingBlock: ESEHIV_clean_sbu_0, # of connection points: 4
#     Node 51, Type 1, BuildingBlock: ESEHIV_clean_sbu_0, # of connection points: 4
#     Node 52, Type 1, BuildingBlock: ESEHIV_clean_sbu_0, # of connection points: 4
#     Node 53, Type 1, BuildingBlock: ESEHIV_clean_sbu_0, # of connection points: 4
#     Node 54, Type 1, BuildingBlock: ESEHIV_clean_sbu_0, # of connection points: 4
#     Node 55, Type 1, BuildingBlock: ESEHIV_clean_sbu_0, # of connection points: 4
#     Edge 56, Type (0, 1), BuildingBlock: AJUNOK_clean_linker_0, # of connection points: 2
#     Edge 57, Type (0, 1), BuildingBlock: AJUNOK_clean_linker_0, # of connection points: 2
#     Edge 58, Type (0, 1), BuildingBlock: AJUNOK_clean_linker_0, # of connection points: 2
#     Edge 59, Type (0, 1), BuildingBlock: AJUNOK_clean_linker_0, # of connection points: 2
#     Edge 60, Type (0, 1), BuildingBlock: AJUNOK_clean_linker_0, # of connection points: 2
#     Edge 61, Type (0, 1), BuildingBlock: AJUNOK_clean_linker_0, # of connection points: 2
#     Edge 62, Type (0, 1), BuildingBlock: AJUNOK_clean_linker_0, # of connection points: 2
#     Edge 63, Type (0, 1), BuildingBlock: AJUNOK_clean_linker_0, # of connection points: 2
#     Edge 64, Type (0, 1), BuildingBlock: AJUNOK_clean_linker_0, # of connection points: 2
#     Edge 65, Type (0, 1), BuildingBlock: AJUNOK_clean_linker_0, # of connection points: 2
#     Edge 66, Type (0, 1), BuildingBlock: AJUNOK_clean_linker_0, # of connection points: 2
#     Edge 67, Type (0, 1), BuildingBlock: AJUNOK_clean_linker_0, # of connection points: 2
#     Edge 68, Type (0, 1), BuildingBlock: AJUNOK_clean_linker_0, # of connection points: 2
#     Edge 69, Type (0, 1), BuildingBlock: AJUNOK_clean_linker_0, # of connection points: 2
#     Edge 70, Type (0, 1), BuildingBlock: AJUNOK_clean_linker_0, # of connection points: 2
#     Edge 71, Type (0, 1), BuildingBlock: AJUNOK_clean_linker_0, # of connection points: 2
#     Edge 72, Type (0, 1), BuildingBlock: AJUNOK_clean_linker_0, # of connection points: 2
#     Edge 73, Type (0, 1), BuildingBlock: AJUNOK_clean_linker_0, # of connection points: 2
#     Edge 74, Type (0, 1), BuildingBlock: AJUNOK_clean_linker_0, # of connection points: 2
#     Edge 75, Type (0, 1), BuildingBlock: AJUNOK_clean_linker_0, # of connection points: 2
#     Edge 76, Type (0, 1), BuildingBlock: AJUNOK_clean_linker_0, # of connection points: 2
#     Edge 77, Type (0, 1), BuildingBlock: AJUNOK_clean_linker_0, # of connection points: 2
#     Edge 78, Type (0, 1), BuildingBlock: AJUNOK_clean_linker_0, # of connection points: 2
#     Edge 79, Type (0, 1), BuildingBlock: AJUNOK_clean_linker_0, # of connection points: 2
#     Edge 80, Type (0, 1), BuildingBlock: AJUNOK_clean_linker_0, # of connection points: 2
#     Edge 81, Type (0, 1), BuildingBlock: AJUNOK_clean_linker_0, # of connection points: 2
#     Edge 82, Type (0, 1), BuildingBlock: AJUNOK_clean_linker_0, # of connection points: 2
#     Edge 83, Type (0, 1), BuildingBlock: AJUNOK_clean_linker_0, # of connection points: 2
#     Edge 84, Type (0, 1), BuildingBlock: AJUNOK_clean_linker_0, # of connection points: 2
#     Edge 85, Type (0, 1), BuildingBlock: AJUNOK_clean_linker_0, # of connection points: 2
#     Edge 86, Type (0, 1), BuildingBlock: AJUNOK_clean_linker_0, # of connection points: 2
#     Edge 87, Type (0, 1), BuildingBlock: AJUNOK_clean_linker_0, # of connection points: 2
#     Edge 88, Type (0, 1), BuildingBlock: AJUNOK_clean_linker_0, # of connection points: 2
#     Edge 89, Type (0, 1), BuildingBlock: AJUNOK_clean_linker_0, # of connection points: 2
#     Edge 90, Type (0, 1), BuildingBlock: AJUNOK_clean_linker_0, # of connection points: 2
#     Edge 91, Type (0, 1), BuildingBlock: AJUNOK_clean_linker_0, # of connection points: 2
#     Edge 92, Type (0, 1), BuildingBlock: AJUNOK_clean_linker_0, # of connection points: 2
#     Edge 93, Type (0, 1), BuildingBlock: AJUNOK_clean_linker_0, # of connection points: 2
#     Edge 94, Type (0, 1), BuildingBlock: AJUNOK_clean_linker_0, # of connection points: 2
#     Edge 95, Type (0, 1), BuildingBlock: AJUNOK_clean_linker_0, # of connection points: 2
#     Edge 96, Type (0, 1), BuildingBlock: AJUNOK_clean_linker_0, # of connection points: 2
#     Edge 97, Type (0, 1), BuildingBlock: AJUNOK_clean_linker_0, # of connection points: 2
#     Edge 98, Type (0, 1), BuildingBlock: AJUNOK_clean_linker_0, # of connection points: 2
#     Edge 99, Type (0, 1), BuildingBlock: AJUNOK_clean_linker_0, # of connection points: 2
#     Edge 100, Type (0, 1), BuildingBlock: AJUNOK_clean_linker_0, # of connection points: 2
#     Edge 101, Type (0, 1), BuildingBlock: AJUNOK_clean_linker_0, # of connection points: 2
#     Edge 102, Type (0, 1), BuildingBlock: AJUNOK_clean_linker_0, # of connection points: 2
#     Edge 103, Type (0, 1), BuildingBlock: AJUNOK_clean_linker_0, # of connection points: 2
#     Edge 104, Type (0, 1), BuildingBlock: AJUNOK_clean_linker_0, # of connection points: 2
#     Edge 105, Type (0, 1), BuildingBlock: AJUNOK_clean_linker_0, # of connection points: 2
#     Edge 106, Type (0, 1), BuildingBlock: AJUNOK_clean_linker_0, # of connection points: 2
#     Edge 107, Type (0, 1), BuildingBlock: AJUNOK_clean_linker_0, # of connection points: 2
#     Edge 108, Type (0, 1), BuildingBlock: AJUNOK_clean_linker_0, # of connection points: 2
#     Edge 109, Type (0, 1), BuildingBlock: AJUNOK_clean_linker_0, # of connection points: 2
#     Edge 110, Type (0, 1), BuildingBlock: AJUNOK_clean_linker_0, # of connection points: 2
#     Edge 111, Type (0, 1), BuildingBlock: AJUNOK_clean_linker_0, # of connection points: 2
#     Edge 112, Type (0, 1), BuildingBlock: AJUNOK_clean_linker_0, # of connection points: 2
#     Edge 113, Type (0, 1), BuildingBlock: AJUNOK_clean_linker_0, # of connection points: 2
#     Edge 114, Type (0, 1), BuildingBlock: AJUNOK_clean_linker_0, # of connection points: 2
#     Edge 115, Type (0, 1), BuildingBlock: AJUNOK_clean_linker_0, # of connection points: 2
#     Edge 116, Type (0, 1), BuildingBlock: AJUNOK_clean_linker_0, # of connection points: 2
#     Edge 117, Type (0, 1), BuildingBlock: AJUNOK_clean_linker_0, # of connection points: 2
#     Edge 118, Type (0, 1), BuildingBlock: AJUNOK_clean_linker_0, # of connection points: 2
#     Edge 119, Type (0, 1), BuildingBlock: AJUNOK_clean_linker_0, # of connection points: 2
#     Edge 120, Type (0, 1), BuildingBlock: AJUNOK_clean_linker_0, # of connection points: 2
#     Edge 121, Type (0, 1), BuildingBlock: AJUNOK_clean_linker_0, # of connection points: 2
#     Edge 122, Type (0, 1), BuildingBlock: AJUNOK_clean_linker_0, # of connection points: 2
#     Edge 123, Type (0, 1), BuildingBlock: AJUNOK_clean_linker_0, # of connection points: 2
#     Edge 124, Type (0, 1), BuildingBlock: AJUNOK_clean_linker_0, # of connection points: 2
#     Edge 125, Type (0, 1), BuildingBlock: AJUNOK_clean_linker_0, # of connection points: 2
#     Edge 126, Type (0, 1), BuildingBlock: AJUNOK_clean_linker_0, # of connection points: 2
#     Edge 127, Type (0, 1), BuildingBlock: AJUNOK_clean_linker_0, # of connection points: 2
#     Edge 128, Type (0, 1), BuildingBlock: AJUNOK_clean_linker_0, # of connection points: 2
#     Edge 129, Type (0, 1), BuildingBlock: AJUNOK_clean_linker_0, # of connection points: 2
#     Edge 130, Type (0, 1), BuildingBlock: AJUNOK_clean_linker_0, # of connection points: 2
#     Edge 131, Type (0, 1), BuildingBlock: AJUNOK_clean_linker_0, # of connection points: 2
#     Edge 132, Type (0, 1), BuildingBlock: AJUNOK_clean_linker_0, # of connection points: 2
#     Edge 133, Type (0, 1), BuildingBlock: AJUNOK_clean_linker_0, # of connection points: 2
#     Edge 134, Type (0, 1), BuildingBlock: AJUNOK_clean_linker_0, # of connection points: 2
#     Edge 135, Type (0, 1), BuildingBlock: AJUNOK_clean_linker_0, # of connection points: 2
#     Edge 136, Type (0, 1), BuildingBlock: AJUNOK_clean_linker_0, # of connection points: 2
#     Edge 137, Type (0, 1), BuildingBlock: AJUNOK_clean_linker_0, # of connection points: 2
#     Edge 138, Type (0, 1), BuildingBlock: AJUNOK_clean_linker_0, # of connection points: 2
#     Edge 139, Type (0, 1), BuildingBlock: AJUNOK_clean_linker_0, # of connection points: 2
#     Edge 140, Type (0, 1), BuildingBlock: AJUNOK_clean_linker_0, # of connection points: 2
#     Edge 141, Type (0, 1), BuildingBlock: AJUNOK_clean_linker_0, # of connection points: 2
#     Edge 142, Type (0, 1), BuildingBlock: AJUNOK_clean_linker_0, # of connection points: 2
#     Edge 143, Type (0, 1), BuildingBlock: AJUNOK_clean_linker_0, # of connection points: 2
#     Edge 144, Type (0, 1), BuildingBlock: AJUNOK_clean_linker_0, # of connection points: 2
#     Edge 145, Type (0, 1), BuildingBlock: AJUNOK_clean_linker_0, # of connection points: 2
#     Edge 146, Type (0, 1), BuildingBlock: AJUNOK_clean_linker_0, # of connection points: 2
#     Edge 147, Type (0, 1), BuildingBlock: AJUNOK_clean_linker_0, # of connection points: 2
#     Edge 148, Type (0, 1), BuildingBlock: AJUNOK_clean_linker_0, # of connection points: 2
#     Edge 149, Type (0, 1), BuildingBlock: AJUNOK_clean_linker_0, # of connection points: 2
#     Edge 150, Type (0, 1), BuildingBlock: AJUNOK_clean_linker_0, # of connection points: 2
#     Edge 151, Type (0, 1), BuildingBlock: AJUNOK_clean_linker_0, # of connection points: 2
# Relax obj value: 0.052
# Max RMSD: 0.179
# Mean RMSD: 0.121
data_MOF--net-tbo--node1-ESEHIV_clean_sbu_0--node2-BETDIP_clean_linker_0--edge1-AJUNOK_clean_linker_0
_symmetry_space_group_name_H-M    P1
_symmetry_Int_Tables_number       1
_symmetry_cell_setting            triclinic
loop_
_symmetry_equiv_pos_as_xyz
'x, y, z'
_cell_length_a     52.08121
_cell_length_b     51.13203
_cell_length_c     55.356325
_cell_angle_alpha  95.748333
_cell_angle_beta   86.666118
_cell_angle_gamma 100.99409
loop_
_atom_site_label
_atom_site_type_symbol
_atom_site_fract_x
_atom_site_fract_y
_atom_site_fract_z
_atom_type_partial_charge
H0 H 0.16705 0.18101 0.25712 0.0
H1 H 0.22983 0.17713 0.20399 0.0
H2 H 0.18655 0.24099 0.2061 0.0
H3 H 0.24674 0.16003 0.23363 0.0
C4 C 0.22996 0.14654 0.24073 0.0
C5 C 0.17903 0.18925 0.24202 0.0
C6 C 0.17402 0.21233 0.23267 0.0
C7 C 0.19982 0.17711 0.23252 0.0
C8 C 0.21496 0.18747 0.21264 0.0
C9 C 0.21083 0.21076 0.20326 0.0
C10 C 0.19015 0.22316 0.21333 0.0
N11 N 0.20506 0.15442 0.243 0.0
H12 H 0.92096 0.28917 0.18403 0.0
H13 H 0.86023 0.21911 0.18761 0.0
H14 H 0.92819 0.22925 0.23079 0.0
H15 H 0.8466 0.23185 0.15291 0.0
C16 C 0.85549 0.2525 0.15075 0.0
C17 C 0.91309 0.27028 0.19139 0.0
C18 C 0.92739 0.26069 0.20809 0.0
C19 C 0.88908 0.2553 0.18346 0.0
C20 C 0.87885 0.23075 0.19322 0.0
C21 C 0.89292 0.22124 0.21049 0.0
C22 C 0.91724 0.23628 0.21749 0.0
N23 N 0.8763 0.26593 0.16566 0.0
H24 H 0.88609 0.86488 0.1809 0.0
H25 H 0.89004 0.93175 0.23508 0.0
H26 H 0.8328 0.91969 0.18028 0.0
H27 H 0.91718 0.91306 0.25315 0.0
C28 C 0.92392 0.8972 0.24149 0.0
C29 C 0.87919 0.88285 0.18829 0.0
C30 C 0.85852 0.8909 0.17744 0.0
C31 C 0.89068 0.89714 0.20916 0.0
C32 C 0.88119 0.92011 0.21932 0.0
C33 C 0.86021 0.9285 0.20904 0.0
C34 C 0.84912 0.9137 0.18811 0.0
N35 N 0.91153 0.88753 0.21914 0.0
H36 H 0.16624 0.77252 0.16392 0.0
H37 H 0.24154 0.82429 0.1712 0.0
H38 H 0.17231 0.84871 0.20496 0.0
H39 H 0.18522 0.74779 0.13786 0.0
C40 C 0.20611 0.75501 0.13602 0.0
C41 C 0.17835 0.79108 0.17063 0.0
C42 C 0.16645 0.80981 0.18514 0.0
C43 C 0.2055 0.7964 0.1653 0.0
C44 C 0.22056 0.82057 0.17487 0.0
C45 C 0.20874 0.83979 0.18899 0.0
C46 C 0.18164 0.83419 0.19388 0.0
N47 N 0.21839 0.77843 0.15006 0.0
H48 H 0.17106 0.8335 0.883 0.0
H49 H 0.23526 0.90068 0.88472 0.0
H50 H 0.16923 0.8997 0.84143 0.0
H51 H 0.25111 0.88084 0.913 0.0
C52 C 0.23943 0.8613 0.91556 0.0
C53 C 0.17992 0.85302 0.87739 0.0
C54 C 0.16699 0.86519 0.86126 0.0
C55 C 0.20437 0.86556 0.88628 0.0
C56 C 0.21633 0.89062 0.87845 0.0
C57 C 0.20349 0.90299 0.86237 0.0
C58 C 0.17901 0.89014 0.85388 0.0
N59 N 0.21591 0.85198 0.90285 0.0
H60 H 0.22832 0.24479 0.92334 0.0
H61 H 0.22999 0.18879 0.86028 0.0
H62 H 0.27738 0.18555 0.92071 0.0
H63 H 0.21164 0.26821 0.89929 0.0
C64 C 0.20088 0.25443 0.8856 0.0
C65 C 0.23591 0.22835 0.91355 0.0
C66 C 0.25417 0.21695 0.92478 0.0
C67 C 0.22738 0.2185 0.89013 0.0
C68 C 0.23689 0.19659 0.87816 0.0
C69 C 0.25507 0.18458 0.88887 0.0
C70 C 0.26386 0.19507 0.91214 0.0
N71 N 0.20855 0.22937 0.87842 0.0
H72 H 0.86256 0.23343 0.86271 0.0
H73 H 0.93592 0.27763 0.83679 0.0
H74 H 0.91594 0.19326 0.81735 0.0
H75 H 0.93046 0.30691 0.86719 0.0
C76 C 0.91043 0.30376 0.87441 0.0
C77 C 0.88072 0.23399 0.85198 0.0
C78 C 0.88708 0.21023 0.84032 0.0
C79 C 0.89826 0.25836 0.85116 0.0
C80 C 0.92209 0.25906 0.83775 0.0
C81 C 0.92867 0.23551 0.8259 0.0
C82 C 0.91099 0.21128 0.82696 0.0
N83 N 0.89197 0.28113 0.86546 0.0
H84 H 0.84143 0.90287 0.90022 0.0
H85 H 0.89449 0.88432 0.84138 0.0
H86 H 0.88016 0.8361 0.90205 0.0
H87 H 0.87444 0.9122 0.82106 0.0
C88 C 0.86721 0.92588 0.8349 0.0
C89 C 0.85448 0.8901 0.89182 0.0
C90 C 0.85907 0.86865 0.90381 0.0
C91 C 0.86681 0.8958 0.86931 0.0
C92 C 0.8844 0.87981 0.85854 0.0
C93 C 0.88924 0.858 0.87025 0.0
C94 C 0.8764 0.85262 0.89283 0.0
N95 N 0.86154 0.91856 0.85904 0.0
H96 H 0.16667 0.66892 0.73765 0.0
H97 H 0.22609 0.67867 0.68043 0.0
H98 H 0.16722 0.728 0.68729 0.0
H99 H 0.22917 0.63681 0.68647 0.0
C100 C 0.22432 0.63414 0.70549 0.0
C101 C 0.17527 0.67886 0.7219 0.0
C102 C 0.16427 0.6994 0.71395 0.0
C103 C 0.19717 0.67078 0.70975 0.0
C104 C 0.20864 0.68403 0.68955 0.0
C105 C 0.19811 0.70487 0.68129 0.0
C106 C 0.17592 0.71249 0.69373 0.0
N107 N 0.20721 0.64962 0.71869 0.0
H108 H 0.91238 0.76904 0.6706 0.0
H109 H 0.84555 0.70505 0.66137 0.0
H110 H 0.89522 0.70906 0.72127 0.0
H111 H 0.83695 0.72411 0.63038 0.0
C112 C 0.85157 0.74158 0.62687 0.0
C113 C 0.9002 0.751 0.67657 0.0
C114 C 0.90605 0.74083 0.69777 0.0
C115 C 0.87838 0.73844 0.66324 0.0
C116 C 0.86259 0.71498 0.67111 0.0
C117 C 0.86861 0.7042 0.69203 0.0
C118 C 0.89026 0.71738 0.70527 0.0
N119 N 0.87309 0.75032 0.6423 0.0
H120 H 0.91211 0.36869 0.68817 0.0
H121 H 0.90461 0.43217 0.74368 0.0
H122 H 0.85347 0.41688 0.68356 0.0
H123 H 0.92915 0.41318 0.76478 0.0
C124 C 0.94002 0.40065 0.7529 0.0
C125 C 0.90261 0.38512 0.69527 0.0
C126 C 0.88205 0.39117 0.68272 0.0
C127 C 0.91087 0.39946 0.71726 0.0
C128 C 0.89839 0.42061 0.72692 0.0
C129 C 0.87737 0.42684 0.71515 0.0
C130 C 0.86931 0.41195 0.69301 0.0
N131 N 0.93185 0.39196 0.72881 0.0
H132 H 0.20109 0.38522 0.68277 0.0
H133 H 0.25364 0.45159 0.71828 0.0
H134 H 0.18705 0.41125 0.75791 0.0
H135 H 0.28312 0.43296 0.69202 0.0
C136 C 0.27265 0.42885 0.67524 0.0
C137 C 0.20648 0.39886 0.69871 0.0
C138 C 0.19141 0.39597 0.72043 0.0
C139 C 0.22937 0.41841 0.6979 0.0
C140 C 0.23638 0.43598 0.71871 0.0
C141 C 0.22092 0.4335 0.74021 0.0
C142 C 0.19866 0.41343 0.74105 0.0
N143 N 0.24513 0.41958 0.6761 0.0
H144 H 0.17621 0.36235 0.39269 0.0
H145 H 0.24928 0.41689 0.40015 0.0
H146 H 0.19562 0.42738 0.34698 0.0
H147 H 0.23051 0.40824 0.4438 0.0
C148 C 0.23092 0.38714 0.43925 0.0
C149 C 0.18953 0.37989 0.38709 0.0
C150 C 0.18272 0.39413 0.36871 0.0
C151 C 0.21307 0.38847 0.39885 0.0
C152 C 0.23061 0.41094 0.3916 0.0
C153 C 0.22469 0.42506 0.37277 0.0
C154 C 0.20064 0.41642 0.36124 0.0
N155 N 0.21909 0.37404 0.41772 0.0
H156 H 0.21545 0.72915 0.41539 0.0
H157 H 0.21355 0.68299 0.34601 0.0
H158 H 0.26594 0.67146 0.39958 0.0
H159 H 0.19905 0.71832 0.33372 0.0
C160 C 0.1877 0.72608 0.34888 0.0
C161 C 0.22282 0.7142 0.40308 0.0
C162 C 0.24177 0.70084 0.41079 0.0
C163 C 0.2131 0.70863 0.37961 0.0
C164 C 0.22186 0.68852 0.36366 0.0
C165 C 0.2407 0.67465 0.37083 0.0
C166 C 0.25072 0.68128 0.39432 0.0
N167 N 0.19404 0.72319 0.37308 0.0
H168 H 0.82902 0.68755 0.32129 0.0
H169 H 0.89717 0.74603 0.34093 0.0
H170 H 0.90592 0.67354 0.2976 0.0
H171 H 0.86229 0.775 0.33917 0.0
C172 C 0.853 0.76226 0.353 0.0
C173 C 0.85008 0.69413 0.3205 0.0
C174 C 0.86619 0.67776 0.30784 0.0
C175 C 0.86111 0.71884 0.33241 0.0
C176 C 0.8884 0.72698 0.33176 0.0
C177 C 0.90462 0.71065 0.31947 0.0
C178 C 0.89345 0.68613 0.30735 0.0
N179 N 0.84473 0.7345 0.34624 0.0
H180 H 0.83339 0.39417 0.41617 0.0
H181 H 0.89297 0.39223 0.35923 0.0
H182 H 0.88969 0.34353 0.41903 0.0
H183 H 0.83663 0.43637 0.40632 0.0
C184 C 0.83738 0.4334 0.38661 0.0
C185 C 0.85081 0.38729 0.40858 0.0
C186 C 0.86036 0.3683 0.42026 0.0
C187 C 0.86285 0.39645 0.38682 0.0
C188 C 0.8843 0.38574 0.3764 0.0
C189 C 0.89439 0.36665 0.38788 0.0
C190 C 0.8821 0.35801 0.40982 0.0
N191 N 0.85305 0.41559 0.37469 0.0
H192 H 0.69956 0.17683 0.71879 0.0
H193 H 0.75543 0.19232 0.65975 0.0
H194 H 0.69043 0.23426 0.66973 0.0
H195 H 0.76576 0.15009 0.66995 0.0
C196 C 0.76345 0.15293 0.6896 0.0
C197 C 0.70616 0.18752 0.70295 0.0
C198 C 0.69212 0.20612 0.69588 0.0
C199 C 0.7289 0.18257 0.69026 0.0
C200 C 0.73758 0.19587 0.66945 0.0
C201 C 0.72359 0.21446 0.66161 0.0
C202 C 0.70079 0.21937 0.67496 0.0
N203 N 0.74344 0.166 0.7007 0.0
H204 H 0.42084 0.25905 0.6784 0.0
H205 H 0.35169 0.19868 0.66599 0.0
H206 H 0.40476 0.19088 0.72007 0.0
H207 H 0.33952 0.22767 0.64381 0.0
C208 C 0.35627 0.24262 0.63902 0.0
C209 C 0.40857 0.24031 0.68263 0.0
C210 C 0.41546 0.22631 0.70103 0.0
C211 C 0.38558 0.23077 0.66998 0.0
C212 C 0.36936 0.20655 0.67564 0.0
C213 C 0.37633 0.19196 0.69369 0.0
C214 C 0.39941 0.20199 0.70609 0.0
N215 N 0.37989 0.24621 0.65165 0.0
H216 H 0.40389 0.8639 0.71154 0.0
H217 H 0.40452 0.93271 0.76304 0.0
H218 H 0.34822 0.91527 0.70688 0.0
H219 H 0.43205 0.91558 0.78298 0.0
C220 C 0.43972 0.9 0.77174 0.0
C221 C 0.3957 0.88131 0.71835 0.0
C222 C 0.37476 0.88758 0.70654 0.0
C223 C 0.40629 0.89692 0.73896 0.0
C224 C 0.39584 0.91975 0.74788 0.0
C225 C 0.37466 0.92659 0.73659 0.0
C226 C 0.36427 0.9102 0.71592 0.0
N227 N 0.42775 0.88904 0.74951 0.0
H228 H 0.65423 0.8455 0.65649 0.0
H229 H 0.70541 0.92217 0.66596 0.0
H230 H 0.66376 0.88716 0.72769 0.0
H231 H 0.69749 0.92075 0.62291 0.0
C232 C 0.703 0.90118 0.6203 0.0
C233 C 0.66283 0.86289 0.66816 0.0
C234 C 0.65644 0.86444 0.69312 0.0
C235 C 0.68075 0.88353 0.65828 0.0
C236 C 0.69187 0.906 0.67355 0.0
C237 C 0.68621 0.90734 0.69872 0.0
C238 C 0.66833 0.88647 0.70829 0.0
N239 N 0.68921 0.88008 0.63353 0.0
H240 H 0.65759 0.868 0.38794 0.0
H241 H 0.73717 0.91001 0.38872 0.0
H242 H 0.68192 0.93437 0.34456 0.0
H243 H 0.74077 0.86238 0.39144 0.0
C244 C 0.72682 0.85966 0.40678 0.0
C245 C 0.67265 0.88391 0.38172 0.0
C246 C 0.66671 0.9008 0.36519 0.0
C247 C 0.69799 0.88667 0.38979 0.0
C248 C 0.71762 0.90734 0.38202 0.0
C249 C 0.71191 0.9249 0.36594 0.0
C250 C 0.6865 0.92108 0.35708 0.0
N251 N 0.7029 0.86904 0.40649 0.0
H252 H 0.70671 0.24698 0.38796 0.0
H253 H 0.70109 0.18874 0.3256 0.0
H254 H 0.75441 0.18612 0.38117 0.0
H255 H 0.68337 0.26939 0.36405 0.0
C256 C 0.6725 0.25421 0.35146 0.0
C257 C 0.71288 0.22984 0.37791 0.0
C258 C 0.73213 0.21789 0.38746 0.0
C259 C 0.7017 0.21938 0.35538 0.0
C260 C 0.70988 0.19696 0.34266 0.0
C261 C 0.72872 0.18472 0.35183 0.0
C262 C 0.73978 0.19547 0.37409 0.0
N263 N 0.68141 0.22955 0.34508 0.0
H264 H 0.36115 0.1788 0.38657 0.0
H265 H 0.42611 0.23708 0.36275 0.0
H266 H 0.39902 0.16609 0.31621 0.0
H267 H 0.4305 0.24789 0.40298 0.0
C268 C 0.41034 0.24619 0.40979 0.0
C269 C 0.37627 0.18522 0.37298 0.0
C270 C 0.37787 0.16956 0.3508 0.0
C271 C 0.3938 0.20936 0.37767 0.0
C272 C 0.41284 0.21813 0.35973 0.0
C273 C 0.4147 0.20264 0.3375 0.0
C274 C 0.39743 0.17821 0.33327 0.0
N275 N 0.39086 0.22502 0.4 0.0
H276 H 0.30347 0.87085 0.43318 0.0
H277 H 0.36496 0.87935 0.3776 0.0
H278 H 0.37303 0.83856 0.43993 0.0
H279 H 0.3303 0.87521 0.35378 0.0
C280 C 0.31899 0.88862 0.36407 0.0
C281 C 0.32259 0.86754 0.42626 0.0
C282 C 0.33718 0.85383 0.43952 0.0
C283 C 0.33205 0.87595 0.40349 0.0
C284 C 0.35694 0.87177 0.39455 0.0
C285 C 0.37188 0.85815 0.40743 0.0
C286 C 0.36183 0.84935 0.42994 0.0
N287 N 0.31631 0.88855 0.38983 0.0
H288 H 0.6425 0.70499 0.23989 0.0
H289 H 0.69981 0.70517 0.18092 0.0
H290 H 0.64836 0.76245 0.18724 0.0
H291 H 0.71838 0.68158 0.20402 0.0
C292 C 0.70328 0.67093 0.21563 0.0
C293 C 0.65162 0.71336 0.22355 0.0
C294 C 0.64324 0.73517 0.21517 0.0
C295 C 0.67213 0.70263 0.21165 0.0
C296 C 0.684 0.71338 0.19039 0.0
C297 C 0.67534 0.73477 0.18111 0.0
C298 C 0.65519 0.74591 0.19398 0.0
N299 N 0.67971 0.68071 0.22149 0.0
H300 H 0.41089 0.78483 0.1761 0.0
H301 H 0.37119 0.70226 0.17283 0.0
H302 H 0.41273 0.73844 0.23619 0.0
H303 H 0.38233 0.7874 0.14684 0.0
C304 C 0.38036 0.76821 0.13609 0.0
C305 C 0.40495 0.76614 0.18426 0.0
C306 C 0.41309 0.76415 0.20764 0.0
C307 C 0.38944 0.74382 0.17162 0.0
C308 C 0.38279 0.71953 0.18257 0.0
C309 C 0.39127 0.7174 0.20587 0.0
C310 C 0.4063 0.73984 0.21813 0.0
N311 N 0.38107 0.74464 0.14765 0.0
H312 H 0.38708 0.35808 0.18833 0.0
H313 H 0.40331 0.42758 0.23945 0.0
H314 H 0.3418 0.42009 0.18859 0.0
H315 H 0.44262 0.41224 0.24406 0.0
C316 C 0.43916 0.39093 0.2385 0.0
C317 C 0.38283 0.3773 0.1958 0.0
C318 C 0.36255 0.3873 0.18631 0.0
C319 C 0.39808 0.3917 0.21455 0.0
C320 C 0.39241 0.41669 0.22438 0.0
C321 C 0.37186 0.42715 0.21519 0.0
C322 C 0.35735 0.41229 0.19597 0.0
N323 N 0.41798 0.37944 0.22313 0.0
H324 H 0.7433 0.30979 0.19402 0.0
H325 H 0.80711 0.37709 0.19812 0.0
H326 H 0.72795 0.38931 0.21165 0.0
H327 H 0.83565 0.32183 0.18025 0.0
C328 C 0.81943 0.33091 0.17601 0.0
C329 C 0.75029 0.33118 0.19701 0.0
C330 C 0.7324 0.34853 0.20227 0.0
C331 C 0.7772 0.34145 0.19486 0.0
C332 C 0.78628 0.36914 0.19905 0.0
C333 C 0.76868 0.38662 0.2049 0.0
C334 C 0.74173 0.37613 0.20634 0.0
N335 N 0.79498 0.32367 0.1888 0.0
H336 H 0.68682 0.33219 0.8783 0.0
H337 H 0.74578 0.40377 0.87734 0.0
H338 H 0.68102 0.39215 0.83056 0.0
H339 H 0.77038 0.37624 0.89016 0.0
C340 C 0.75764 0.36481 0.90316 0.0
C341 C 0.69431 0.35137 0.87137 0.0
C342 C 0.68089 0.36039 0.85339 0.0
C343 C 0.7179 0.36656 0.88002 0.0
C344 C 0.72803 0.39128 0.87055 0.0
C345 C 0.71474 0.40046 0.85265 0.0
C346 C 0.69124 0.38499 0.84434 0.0
N347 N 0.73053 0.35681 0.89857 0.0
H348 H 0.7443 0.73796 0.92536 0.0
H349 H 0.74122 0.68995 0.85701 0.0
H350 H 0.79096 0.6766 0.91245 0.0
H351 H 0.72317 0.72298 0.8444 0.0
C352 C 0.71259 0.73091 0.86005 0.0
C353 C 0.75108 0.7224 0.91331 0.0
C354 C 0.7693 0.70857 0.92139 0.0
C355 C 0.74097 0.71615 0.89016 0.0
C356 C 0.74932 0.69546 0.87476 0.0
C357 C 0.76757 0.68104 0.88246 0.0
C358 C 0.77756 0.68787 0.90593 0.0
N359 N 0.72133 0.73006 0.88383 0.0
H360 H 0.3426 0.69105 0.80819 0.0
H361 H 0.40643 0.75676 0.82159 0.0
H362 H 0.42051 0.67595 0.8136 0.0
H363 H 0.35382 0.7846 0.83001 0.0
C364 C 0.3541 0.76443 0.83436 0.0
C365 C 0.36327 0.6984 0.81086 0.0
C366 C 0.38045 0.68034 0.81085 0.0
C367 C 0.37254 0.72588 0.81509 0.0
C368 C 0.39923 0.73539 0.81873 0.0
C369 C 0.41678 0.71754 0.81758 0.0
C370 C 0.40724 0.68994 0.81375 0.0
N371 N 0.35505 0.744 0.81517 0.0
H372 H 0.37099 0.36982 0.92406 0.0
H373 H 0.4192 0.36014 0.85908 0.0
H374 H 0.42047 0.31106 0.91741 0.0
H375 H 0.41205 0.40016 0.85299 0.0
C376 C 0.39239 0.40122 0.86011 0.0
C377 C 0.3853 0.35997 0.91368 0.0
C378 C 0.39572 0.34032 0.92386 0.0
C379 C 0.39364 0.36744 0.89033 0.0
C380 C 0.4124 0.35457 0.87697 0.0
C381 C 0.42228 0.33416 0.88663 0.0
C382 C 0.41363 0.32723 0.91001 0.0
N383 N 0.38215 0.38718 0.8806 0.0
Cu384 Cu 0.3033 0.28466 0.06499 0.0
N385 N 0.33606 0.28892 0.04878 0.0
N386 N 0.36316 0.30171 1.01757 0.0
C387 C 0.34052 0.30392 0.02985 0.0
C388 C 0.37369 0.28473 0.02948 0.0
C389 C 0.35686 0.27683 0.04881 0.0
O390 O 0.28012 0.2758 0.03726 0.0
C391 C 0.32156 0.31804 0.10348 0.0
O392 O 0.3357 0.29919 0.10178 0.0
H393 H 0.32659 0.3153 1.02452 0.0
H394 H 0.35906 0.26232 0.06108 0.0
N395 N 0.29518 0.25692 0.08547 0.0
N396 N 0.27658 0.23715 0.11805 0.0
C397 C 0.2764 0.25655 0.10333 0.0
C398 C 0.30749 0.23675 0.08879 0.0
C399 C 0.29603 0.2245 0.10893 0.0
C400 C 0.28498 0.2551 1.02405 0.0
O401 O 0.30097 0.24128 0.03216 0.0
H402 H 0.2638 0.27123 0.10629 0.0
H403 H 0.32411 0.23183 0.07793 0.0
O404 O 0.3045 0.31716 0.08752 0.0
H405 H 0.39139 0.27726 1.0238 0.0
H406 H 0.30182 0.20791 0.11653 0.0
Cu407 Cu 0.83268 0.33173 0.02706 0.0
N408 N 0.8344 0.3639 0.04747 0.0
N409 N 0.83154 0.38058 0.08647 0.0
C410 C 0.8451 0.36737 0.06945 0.0
C411 C 0.8129 0.388 0.07422 0.0
C412 C 0.81451 0.37753 0.05043 0.0
O413 O 0.82628 0.30401 0.05056 0.0
C414 C 0.80879 0.35132 0.99104 0.0
O415 O 0.82665 0.37211 0.99791 0.0
H416 H 0.85942 0.35638 0.07416 0.0
H417 H 0.79914 0.37584 0.03775 0.0
N418 N 0.86352 0.32812 1.00834 0.0
N419 N 0.88982 0.32801 0.97483 0.0
C420 C 0.87337 0.34115 0.9888 0.0
C421 C 0.87421 0.3059 1.00622 0.0
C422 C 0.89072 0.30608 0.98602 0.0
C423 C 0.84589 0.30217 0.06283 0.0
O424 O 0.8691 0.31555 0.05683 0.0
H425 H 0.86658 0.35817 0.98323 0.0
H426 H 0.86794 0.2889 1.01667 0.0
O427 O 0.80598 0.33053 1.00275 0.0
H428 H 0.79652 0.39622 0.08262 0.0
H429 H 0.89969 0.28953 0.97828 0.0
Cu430 Cu 0.78938 0.80053 0.05094 0.0
N431 N 0.79143 0.82724 0.02986 0.0
N432 N 0.80554 0.84852 0.99682 0.0
C433 C 0.80937 0.8301 1.01136 0.0
C434 C 0.7843 0.85778 1.00668 0.0
C435 C 0.77571 0.84473 0.02721 0.0
O436 O 0.79837 0.77064 0.02884 0.0
C437 C 0.80537 0.83322 0.09207 0.0
O438 O 0.78331 0.84059 0.08798 0.0
H439 H 0.82423 0.81789 1.00805 0.0
H440 H 0.75881 0.84727 0.03886 0.0
N441 N 0.75574 0.79129 0.06546 0.0
N442 N 0.72464 0.77748 0.09329 0.0
C443 C 0.75031 0.78048 0.08686 0.0
C444 C 0.73257 0.79502 0.05813 0.0
C445 C 0.71331 0.78653 0.07537 0.0
C446 C 0.78117 0.75056 1.02144 0.0
O447 O 0.75849 0.74604 0.03343 0.0
H448 H 0.76495 0.77527 0.09766 0.0
H449 H 0.72987 0.80339 0.04149 0.0
O450 O 0.81309 0.8151 0.07736 0.0
H451 H 0.77534 0.87256 0.99933 0.0
H452 H 0.69264 0.78693 0.07482 0.0
Cu453 Cu 0.31434 0.77083 1.00118 0.0
N454 N 0.28656 0.74823 1.0153 0.0
N455 N 0.2597 0.73341 0.04574 0.0
C456 C 0.27877 0.75301 0.03853 0.0
C457 C 0.25471 0.7157 0.02607 0.0
C458 C 0.27168 0.72479 1.00723 0.0
O459 O 0.33893 0.78106 0.02761 0.0
C460 C 0.28157 0.79185 0.97445 0.0
O461 O 0.27371 0.766 0.96947 0.0
H462 H 0.28694 0.77078 0.04991 0.0
H463 H 0.27315 0.71497 0.9891 0.0
N464 N 0.32895 0.75301 0.97433 0.0
N465 N 0.34152 0.74491 0.93552 0.0
C466 C 0.33576 0.76344 0.953 0.0
C467 C 0.33072 0.72699 0.97029 0.0
C468 C 0.33859 0.72195 0.94632 0.0
C469 C 0.34553 0.76142 0.03673 0.0
O470 O 0.33799 0.73732 0.02599 0.0
H471 H 0.3347 0.78378 0.94992 0.0
H472 H 0.32527 0.71237 0.98338 0.0
O473 O 0.3003 0.79975 0.98893 0.0
H474 H 0.24012 0.6975 0.02547 0.0
H475 H 0.34102 0.70273 0.93735 0.0
Cu476 Cu 0.04493 0.31427 0.30061 0.0
N477 N 0.05926 0.28301 0.29482 0.0
N478 N 0.08704 0.25595 0.28046 0.0
C479 C 0.08271 0.28139 0.28358 0.0
C480 C 0.06534 0.24112 0.29022 0.0
C481 C 0.04829 0.25778 0.29896 0.0
O482 O 0.07418 0.34322 0.30937 0.0
C483 C 0.02593 0.30406 0.25245 0.0
O484 O 0.04451 0.28995 0.24786 0.0
H485 H 0.0956 0.29845 0.27673 0.0
H486 H 0.02897 0.25179 0.30714 0.0
N487 N 1.01919 0.31228 0.32609 0.0
N488 N 0.98422 0.32123 0.3488 0.0
C489 C 1.00078 0.32781 0.32969 0.0
C490 C 1.01403 0.2952 0.34349 0.0
C491 C 0.99248 0.30061 0.35745 0.0
C492 C 0.08273 0.34301 0.33046 0.0
O493 O 0.07098 0.32455 0.34432 0.0
H494 H 0.99917 0.34315 0.31803 0.0
H495 H 0.02511 0.27985 0.34589 0.0
O496 O 0.02566 0.31858 0.27251 0.0
H497 H 0.06183 0.21963 0.29079 0.0
H498 H 0.98365 0.29028 0.37287 0.0
Cu499 Cu 0.80691 0.06471 0.28299 0.0
N500 N 0.83637 0.09136 0.27879 0.0
N501 N 0.85987 0.12764 0.26334 0.0
C502 C 0.83634 0.11133 0.26469 0.0
C503 C 0.87548 0.11737 0.27703 0.0
C504 C 0.86087 0.095 0.28666 0.0
O505 O 0.7776 0.08437 0.2869 0.0
C506 C 0.82749 0.02314 0.26006 0.0
O507 O 0.84299 0.03196 0.27816 0.0
H508 H 0.81946 0.11329 0.25497 0.0
H509 H 0.86776 0.08214 0.29818 0.0
N510 N 0.80468 0.04723 0.31133 0.0
N511 N 0.78726 1.01524 0.33538 0.0
C512 C 0.78473 0.02699 0.31516 0.0
C513 C 0.82061 0.04863 0.32991 0.0
C514 C 0.80985 0.02881 0.34484 0.0
C515 C 0.77953 0.10039 0.30634 0.0
O516 O 0.79951 0.10147 0.32007 0.0
H517 H 0.76875 0.02078 0.30296 0.0
H518 H 0.839 0.06243 0.33207 0.0
O519 O 0.8089 0.03557 0.257 0.0
H520 H 0.89597 0.12542 0.27984 0.0
H521 H 0.81855 0.02417 0.36079 0.0
Cu522 Cu 0.05076 0.79808 0.28725 0.0
N523 N 0.0368 0.82942 0.28706 0.0
N524 N 1.0098 0.85616 0.27801 0.0
C525 C 1.01404 0.83077 0.27711 0.0
C526 C 0.03057 0.87129 0.28935 0.0
C527 C 0.04723 0.8548 0.29476 0.0
O528 O 0.02197 0.76916 0.29153 0.0
C529 C 0.06793 0.80103 0.23712 0.0
O530 O 0.05216 0.81797 0.23571 0.0
H531 H 1.00096 0.81338 0.26924 0.0
H532 H 0.06588 0.86096 0.30324 0.0
N533 N 0.07541 0.79876 0.31093 0.0
N534 N 0.10796 0.78602 0.32899 0.0
C535 C 0.09247 0.78179 0.30967 0.0
C536 C 0.08009 0.81425 0.33191 0.0
C537 C 0.10006 0.80634 0.34314 0.0
C538 C 1.01142 0.76598 0.31253 0.0
O539 O 0.02134 0.78191 0.33114 0.0
H540 H 0.093 0.76619 0.29502 0.0
H541 H 0.06959 0.82999 0.33867 0.0
O542 O 0.06884 0.79059 0.25684 0.0
H543 H 0.03385 0.89285 0.29289 0.0
H544 H 0.10827 0.81501 0.3603 0.0
Cu545 Cu 0.27873 1.00653 0.2813 0.0
N546 N 0.289 0.03129 0.3097 0.0
N547 N 0.30835 0.06864 0.33052 0.0
C548 C 0.30712 0.05375 0.30899 0.0
C549 C 0.29055 0.0549 0.34549 0.0
C550 C 0.27833 0.03188 0.33246 0.0
O551 O 0.268 0.0371 0.26589 0.0
C552 C 0.2763 0.96369 0.31299 0.0
O553 O 0.25296 0.96898 0.31911 0.0
H554 H 0.31878 0.05927 0.29282 0.0
H555 H 0.26226 0.01728 0.33892 0.0
N556 N 0.2695 0.98249 0.25196 0.0
N557 N 0.25794 0.9459 0.22643 0.0
C558 C 0.26188 0.95567 0.24983 0.0
C559 C 0.27037 0.98993 0.22925 0.0
C560 C 0.26299 0.9675 0.21353 0.0
C561 C 0.24775 0.04664 0.27306 0.0
O562 O 0.232 0.03526 0.28998 0.0
H563 H 0.25936 0.94355 0.26502 0.0
H564 H 0.27579 1.01028 0.22443 0.0
O565 O 0.29046 0.97666 0.29703 0.0
H566 H 0.28603 0.06156 0.36417 0.0
H567 H 0.26069 0.96738 0.19423 0.0
Cu568 Cu 0.03035 0.7846 0.79167 0.0
N569 N 0.04529 0.75388 0.78522 0.0
N570 N 0.07385 0.72892 0.76842 0.0
C571 C 0.0661 0.75279 0.76973 0.0
C572 C 0.05726 0.71445 0.78392 0.0
C573 C 0.03962 0.72984 0.79416 0.0
O574 O 0.05922 0.81272 0.80242 0.0
C575 C 0.99436 0.76882 0.758 0.0
O576 O 0.99138 0.74861 0.77143 0.0
H577 H 0.07536 0.76932 0.75958 0.0
H578 H 0.02399 0.72387 0.80729 0.0
N579 N 1.00352 0.78347 0.81599 0.0
N580 N 0.96853 0.79577 0.83614 0.0
C581 C 0.98712 0.80112 0.8184 0.0
C582 C 0.99519 0.76643 0.83306 0.0
C583 C 0.97359 0.774 0.84553 0.0
C584 C 0.06747 0.8094 0.82296 0.0
O585 O 0.05548 0.78891 0.83438 0.0
H586 H 0.98851 0.81732 0.80692 0.0
H587 H 1.00414 0.74982 0.8364 0.0
O588 O 1.0127 0.78881 0.76263 0.0
H589 H 0.05816 0.69445 0.78815 0.0
H590 H 0.96279 0.7645 0.86061 0.0
Cu591 Cu 0.29951 0.05702 0.79288 0.0
N592 N 0.2986 0.07415 0.76451 0.0
N593 N 0.31159 0.10235 0.73597 0.0
C594 C 0.31796 0.093 0.75632 0.0
C595 C 0.28728 0.08903 0.73111 0.0
C596 C 0.27941 0.07141 0.74861 0.0
O597 O 0.30161 0.08494 0.82078 0.0
C598 C 0.32501 0.0191 0.76734 0.0
O599 O 0.30748 0.02147 0.75198 0.0
H600 H 0.33617 0.10012 0.76542 0.0
H601 H 0.26101 0.05757 0.74949 0.0
N602 N 0.26858 0.03289 0.79888 0.0
N603 N 0.24239 0.99924 0.8159 0.0
C604 C 0.26728 1.01172 0.81185 0.0
C605 C 0.24362 0.03374 0.79445 0.0
C606 C 0.22744 1.01287 0.80477 0.0
C607 C 0.28297 0.09824 0.82205 0.0
O608 O 0.26634 0.09351 0.80451 0.0
H609 H 0.28423 1.0062 0.81896 0.0
H610 H 0.23739 0.04887 0.78512 0.0
O611 O 0.32643 0.03411 0.78741 0.0
H612 H 0.27616 0.09173 0.71592 0.0
H613 H 0.20631 1.00819 0.80417 0.0
Cu614 Cu 0.07216 0.308 0.79245 0.0
N615 N 0.05596 0.33793 0.79636 0.0
N616 N 0.02729 0.36418 0.79099 0.0
C617 C 0.03384 0.33988 0.78572 0.0
C618 C 0.04614 0.37812 0.80547 0.0
C619 C 0.0638 0.36186 0.80875 0.0
O620 O 0.04425 0.2783 0.78388 0.0
C621 C 0.09777 0.32523 0.74868 0.0
O622 O 0.0748 0.32978 0.74358 0.0
H623 H 0.0229 0.32382 0.7741 0.0
H624 H 0.08138 0.36726 0.81902 0.0
N625 N 0.08765 0.30348 0.82112 0.0
N626 N 0.11492 0.29191 0.84625 0.0
C627 C 0.10857 0.29183 0.8229 0.0
C628 C 0.08059 0.31127 0.84407 0.0
C629 C 0.09744 0.30429 0.85959 0.0
C630 C 0.0373 0.25854 0.79654 0.0
O631 O 0.05339 0.2541 0.81241 0.0
H632 H 0.11918 0.28395 0.80732 0.0
H633 H 0.06437 0.3214 0.84913 0.0
O634 O 0.09974 0.31383 0.7677 0.0
H635 H 0.04759 0.39884 0.81254 0.0
H636 H 0.0968 0.30789 0.87921 0.0
Cu637 Cu 0.79849 0.04778 0.78546 0.0
N638 N 0.80137 0.07116 0.8137 0.0
N639 N 0.81796 0.10824 0.83646 0.0
C640 C 0.82254 0.09025 0.81806 0.0
C641 C 0.79292 0.10018 0.84415 0.0
C642 C 0.78276 0.07695 0.83022 0.0
O643 O 0.80461 0.06965 0.75767 0.0
C644 C 0.81911 1.01185 0.80796 0.0
O645 O 0.8008 0.01779 0.82374 0.0
H646 H 0.84008 0.09242 0.80636 0.0
H647 H 0.76271 0.06636 0.83081 0.0
N648 N 0.76486 0.02801 0.78218 0.0
N649 N 0.73477 0.9966 0.76366 0.0
C650 C 0.75986 1.00347 0.77034 0.0
C651 C 0.74204 0.03684 0.78371 0.0
C652 C 0.72338 0.01739 0.77245 0.0
C653 C 0.79341 0.08998 0.75991 0.0
O654 O 0.78017 0.09488 0.78021 0.0
H655 H 0.77487 0.99167 0.76568 0.0
H656 H 0.7396 0.05677 0.79066 0.0
O657 O 0.82208 0.0227 0.78796 0.0
H658 H 0.78235 0.11119 0.85775 0.0
H659 H 0.70352 0.01932 0.76932 0.0
Cu660 Cu 0.28853 0.78361 0.56807 0.0
N661 N 0.31646 0.79387 0.58955 0.0
N662 N 0.33928 0.81625 0.62101 0.0
C663 C 0.31718 0.81301 0.60839 0.0
C664 C 0.353 0.79843 0.60948 0.0
C665 C 0.3389 0.78463 0.59026 0.0
O666 O 0.25764 0.77315 0.58946 0.0
C667 C 0.31126 0.81786 0.53556 0.0
O668 O 0.33103 0.80843 0.54269 0.0
H669 H 0.30192 0.82468 0.6124 0.0
H670 H 0.34477 0.76914 0.57763 0.0
N671 N 0.29035 0.75476 0.54412 0.0
N672 N 0.28193 0.73064 0.50818 0.0
C673 C 0.27655 0.75122 0.52371 0.0
C674 C 0.3051 0.73564 0.54142 0.0
C675 C 0.29992 0.72073 0.51933 0.0
C676 C 0.25703 0.75083 0.59823 0.0
O677 O 0.2754 0.73708 0.59107 0.0
H678 H 0.26312 0.76399 0.5201 0.0
H679 H 0.319 0.73295 0.55428 0.0
O680 O 0.28919 0.81236 0.54706 0.0
H681 H 0.37185 0.79538 0.61469 0.0
H682 H 0.30946 0.70457 0.5117 0.0
Cu683 Cu 0.80763 0.81756 0.51083 0.0
N684 N 0.83564 0.81951 0.48834 0.0
N685 N 0.85439 0.80914 0.45229 0.0
C686 C 0.83495 0.80177 0.46871 0.0
C687 C 0.86805 0.83259 0.46204 0.0
C688 C 0.85647 0.8389 0.48446 0.0
O689 O 0.77777 0.80612 0.49024 0.0
C690 C 0.8324 0.80103 0.54702 0.0
O691 O 0.84806 0.82347 0.54237 0.0
H692 H 0.81906 0.78491 0.46568 0.0
H693 H 0.86194 0.857 0.49634 0.0
N694 N 0.80504 0.85058 0.5273 0.0
N695 N 0.78661 0.8786 0.55325 0.0
C696 C 0.78965 0.8531 0.54738 0.0
C697 C 0.81276 0.87545 0.52044 0.0
C698 C 0.80157 0.89287 0.53656 0.0
C699 C 0.75779 0.81722 0.49144 0.0
O700 O 0.75154 0.83003 0.51201 0.0
H701 H 0.77887 0.83606 0.55607 0.0
H702 H 0.82434 0.88039 0.50411 0.0
O703 O 0.81202 0.79345 0.53461 0.0
H704 H 0.88444 0.84482 0.45314 0.0
H705 H 0.80364 0.91417 0.53545 0.0
Cu706 Cu 0.79662 0.29454 0.54279 0.0
N707 N 0.79455 0.2666 0.51742 0.0
N708 N 0.78202 0.24646 0.48076 0.0
C709 C 0.77733 0.26419 0.49955 0.0
C710 C 0.80314 0.2373 0.48712 0.0
C711 C 0.81082 0.24971 0.50966 0.0
O712 O 0.79951 0.32489 0.52346 0.0
C713 C 0.77033 0.26404 0.57579 0.0
O714 O 0.78986 0.25217 0.56788 0.0
H715 H 0.7628 0.27677 0.49962 0.0
H716 H 0.82784 0.24756 0.519 0.0
N717 N 0.82562 0.30235 0.56324 0.0
N718 N 0.84965 0.32316 0.59451 0.0
C719 C 0.82772 0.32157 0.58207 0.0
C720 C 0.84687 0.29108 0.56396 0.0
C721 C 0.86171 0.30388 0.58315 0.0
C722 C 0.82125 0.32731 0.51114 0.0
O723 O 0.83832 0.31287 0.51593 0.0
H724 H 0.81334 0.33423 0.58655 0.0
H725 H 0.85118 0.27456 0.55166 0.0
O726 O 0.76722 0.28462 0.56575 0.0
H727 H 0.81287 0.22321 0.47596 0.0
H728 H 0.87964 0.29887 0.58866 0.0
Cu729 Cu 0.33081 0.34647 0.53571 0.0
N730 N 0.33741 0.37892 0.55472 0.0
N731 N 0.32996 0.40779 0.58604 0.0
C732 C 0.33091 0.3821 0.57855 0.0
C733 C 0.33601 0.42137 0.56622 0.0
C734 C 0.34066 0.40347 0.54687 0.0
O735 O 0.32817 0.31785 0.55683 0.0
C736 C 0.29331 0.33762 0.49827 0.0
O737 O 0.30782 0.32178 0.48647 0.0
H738 H 0.32391 0.36556 0.58947 0.0
H739 H 0.34328 0.40757 0.52801 0.0
N740 N 0.35774 0.34363 0.5125 0.0
N741 N 0.38176 0.32478 0.48356 0.0
C742 C 0.36232 0.32059 0.5007 0.0
C743 C 0.37504 0.36314 0.50269 0.0
C744 C 0.38987 0.35155 0.48474 0.0
C745 C 0.34897 0.3171 0.56752 0.0
O746 O 0.36996 0.33508 0.56321 0.0
H747 H 0.35103 0.30115 0.50417 0.0
H748 H 0.37623 0.38431 0.50763 0.0
O749 O 0.2988 0.34727 0.51982 0.0
H750 H 0.33474 0.44214 0.56536 0.0
H751 H 0.40451 0.36209 0.47271 0.0
Cu752 Cu 0.80422 0.55509 0.77988 0.0
N753 N 0.80186 0.57361 0.75282 0.0
N754 N 0.81169 0.60611 0.7278 0.0
C755 C 0.81668 0.59755 0.749 0.0
C756 C 0.79281 0.58686 0.7179 0.0
C757 C 0.78677 0.5668 0.73341 0.0
O758 O 0.80797 0.58231 0.80817 0.0
C759 C 0.82287 0.51294 0.75501 0.0
O760 O 0.80062 0.51256 0.74485 0.0
H761 H 0.83124 0.60827 0.7614 0.0
H762 H 0.77251 0.54852 0.73061 0.0
N763 N 0.77365 0.53087 0.78674 0.0
N764 N 0.74914 0.49557 0.80273 0.0
C765 C 0.77312 0.51092 0.80095 0.0
C766 C 0.74904 0.52828 0.77936 0.0
C767 C 0.7338 0.50652 0.78935 0.0
C768 C 0.78818 0.594 0.81132 0.0
O769 O 0.76949 0.5872 0.79569 0.0
H770 H 0.7901 0.50794 0.80996 0.0
H771 H 0.74264 0.54119 0.76756 0.0
O772 O 0.83047 0.53188 0.7715 0.0
H773 H 0.78382 0.58735 0.70085 0.0
H774 H 0.71318 0.49906 0.78668 0.0
Cu775 Cu 0.29406 0.52397 0.8044 0.0
N776 N 0.31419 0.49696 0.80056 0.0
N777 N 0.33775 0.46715 0.80971 0.0
C778 C 0.32269 0.48506 0.81848 0.0
C779 C 0.33909 0.4682 0.78539 0.0
C780 C 0.32461 0.48656 0.77982 0.0
O781 O 0.26783 0.51751 0.83063 0.0
C782 C 0.33402 0.5678 0.79832 0.0
O783 O 0.33761 0.55428 0.77732 0.0
H784 H 0.31835 0.48992 0.83757 0.0
H785 H 0.32237 0.49233 0.76192 0.0
N786 N 0.27846 0.52889 0.77583 0.0
N787 N 0.26146 0.55003 0.74883 0.0
C788 C 0.2706 0.55156 0.77138 0.0
C789 C 0.27399 0.51235 0.75541 0.0
C790 C 0.26337 0.52524 0.7388 0.0
C791 C 0.24653 0.50062 0.82885 0.0
O792 O 0.22954 0.49876 0.84735 0.0
H793 H 0.27224 0.56915 0.78424 0.0
H794 H 0.27796 0.49225 0.7528 0.0
O795 O 0.31661 0.55748 0.81338 0.0
H796 H 0.34987 0.45656 0.77254 0.0
H797 H 0.25728 0.51686 0.72085 0.0
Cu798 Cu 0.32004 0.56316 0.28836 0.0
N799 N 0.31984 0.54475 0.31584 0.0
N800 N 0.30177 0.51325 0.34014 0.0
C801 C 0.29974 0.52465 0.31965 0.0
C802 C 0.32431 0.52674 0.34976 0.0
C803 C 0.33553 0.54624 0.33462 0.0
O804 O 0.32269 0.53456 0.26206 0.0
C805 C 0.2923 0.59648 0.31476 0.0
O806 O 0.31341 0.59795 0.32706 0.0
H807 H 0.28361 0.51873 0.30758 0.0
H808 H 0.35367 0.56035 0.33716 0.0
N809 N 0.34766 0.59151 0.28281 0.0
N810 N 0.36771 0.62766 0.26471 0.0
C811 C 0.3475 0.60676 0.26435 0.0
C812 C 0.36892 0.60294 0.29533 0.0
C813 C 0.38144 0.62518 0.28409 0.0
C814 C 0.34498 0.52726 0.2615 0.0
O815 O 0.36249 0.54033 0.27665 0.0
H816 H 0.33256 0.60251 0.25098 0.0
H817 H 0.37454 0.59609 0.31175 0.0
O818 O 0.28965 0.58112 0.29489 0.0
H819 H 0.33234 0.52256 0.36625 0.0
H820 H 0.39879 0.63896 0.29017 0.0
Cu821 Cu 0.77183 0.5328 0.27703 0.0
N822 N 0.76709 0.51425 0.30471 0.0
N823 N 0.77679 0.49025 0.33329 0.0
C824 C 0.78585 0.50392 0.31403 0.0
C825 C 0.75125 0.49204 0.33629 0.0
C826 C 0.74529 0.50688 0.31854 0.0
O827 O 0.77527 0.50713 0.24968 0.0
C828 C 0.81208 0.576 0.26545 0.0
O829 O 0.80201 0.57268 0.24389 0.0
H830 H 0.80583 0.50637 0.30682 0.0
H831 H 0.72635 0.51149 0.31564 0.0
N832 N 0.7434 0.54881 0.27223 0.0
N833 N 0.72224 0.57842 0.25904 0.0
C834 C 0.74489 0.5743 0.26724 0.0
C835 C 0.71873 0.5365 0.2676 0.0
C836 C 0.70553 0.55481 0.25961 0.0
C837 C 0.79499 0.49576 0.24625 0.0
O838 O 0.81521 0.50395 0.26 0.0
H839 H 0.76253 0.58931 0.26863 0.0
H840 H 0.7114 0.51533 0.26842 0.0
O841 O 0.80263 0.56014 0.28131 0.0
H842 H 0.73769 0.48263 0.34981 0.0
H843 H 0.68582 0.55064 0.25314 0.0
Cu844 Cu 0.55013 0.26623 0.78325 0.0
N845 N 0.52646 0.26175 0.80994 0.0
N846 N 0.49563 0.27345 0.83631 0.0
C847 C 0.50884 0.27784 0.81504 0.0
C848 C 0.50531 0.2538 0.84509 0.0
C849 C 0.52425 0.24644 0.82867 0.0
O850 O 0.52815 0.26971 0.75702 0.0
C851 C 0.5882 0.29294 0.81238 0.0
O852 O 0.5806 0.2704 0.82241 0.0
H853 H 0.50677 0.2935 0.8039 0.0
H854 H 0.53632 0.23195 0.83094 0.0
N855 N 0.56771 0.23807 0.77364 0.0
N856 N 0.599 0.2188 0.75429 0.0
C857 C 0.58613 0.23935 0.75547 0.0
C858 C 0.56882 0.21573 0.7842 0.0
C859 C 0.58833 0.20386 0.77235 0.0
C860 C 0.51095 0.24852 0.75335 0.0
O861 O 0.51221 0.22781 0.76519 0.0
H862 H 0.59123 0.25605 0.74443 0.0
H863 H 0.55729 0.20919 0.80007 0.0
O864 O 0.57731 0.29644 0.79319 0.0
H865 H 0.49955 0.24584 0.86241 0.0
H866 H 0.59493 0.18632 0.77721 0.0
Cu867 Cu 0.56952 0.80046 0.80522 0.0
N868 N 0.59305 0.79766 0.82887 0.0
N869 N 0.62649 0.78471 0.84533 0.0
C870 C 0.61108 0.7817 0.82599 0.0
C871 C 0.61744 0.8031 0.86111 0.0
C872 C 0.59693 0.81112 0.85089 0.0
O873 O 0.58937 0.80083 0.77479 0.0
C874 C 0.52539 0.7697 0.82407 0.0
O875 O 0.53219 0.78663 0.84309 0.0
H876 H 0.61259 0.76799 0.81001 0.0
H877 H 0.58588 0.82595 0.85882 0.0
N878 N 0.55518 0.83178 0.80951 0.0
N879 N 0.52756 0.85957 0.80494 0.0
C880 C 0.53192 0.8342 0.80124 0.0
C881 C 0.56606 0.85651 0.81865 0.0
C882 C 0.54908 0.87367 0.81589 0.0
C883 C 0.58064 0.80424 0.75463 0.0
O884 O 0.55571 0.80514 0.75339 0.0
H885 H 0.51862 0.81769 0.79227 0.0
H886 H 0.58534 0.86187 0.82601 0.0
O887 O 0.54033 0.77097 0.80507 0.0
H888 H 0.62543 0.81067 0.87861 0.0
H889 H 0.55288 0.89507 0.82061 0.0
Cu890 Cu 0.52252 0.82884 0.30819 0.0
N891 N 0.50034 0.82483 0.33629 0.0
N892 N 0.46787 0.83019 0.36348 0.0
C893 C 0.4799 0.83726 0.34223 0.0
C894 C 0.48105 0.81258 0.37124 0.0
C895 C 0.50097 0.80919 0.35438 0.0
O896 O 0.50162 0.83264 0.2811 0.0
C897 C 0.56299 0.85799 0.33482 0.0
O898 O 0.55361 0.83916 0.34909 0.0
H899 H 0.47384 0.85106 0.33109 0.0
H900 H 0.51496 0.79622 0.3553 0.0
N901 N 0.53721 0.79865 0.29891 0.0
N902 N 0.56321 0.7734 0.27817 0.0
C903 C 0.55732 0.79809 0.28255 0.0
C904 C 0.52981 0.77341 0.30495 0.0
C905 C 0.54585 0.7578 0.29223 0.0
C906 C 0.47982 0.8164 0.27984 0.0
O907 O 0.47335 0.79934 0.29637 0.0
H908 H 0.56668 0.81534 0.2734 0.0
H909 H 0.51355 0.76667 0.31726 0.0
O910 O 0.55202 0.85814 0.31486 0.0
H911 H 0.47619 0.80241 0.3876 0.0
H912 H 0.54472 0.73657 0.29318 0.0
Cu913 Cu 0.56047 0.30504 0.2671 0.0
N914 N 0.53662 0.27282 0.26452 0.0
N915 N 0.50071 0.24377 0.27393 0.0
C916 C 0.51527 0.26815 0.27932 0.0
C917 C 0.5136 0.23233 0.25516 0.0
C918 C 0.53576 0.25052 0.24918 0.0
O919 O 0.53788 0.3328 0.26874 0.0
C920 C 0.59341 0.28169 0.29194 0.0
O921 O 0.58935 0.26578 0.27185 0.0
H922 H 0.51076 0.28232 0.29409 0.0
H923 H 0.55024 0.24765 0.23483 0.0
N924 N 0.58327 0.30807 0.23972 0.0
N925 N 0.62113 0.31546 0.21817 0.0
C926 C 0.60941 0.316 0.24051 0.0
C927 C 0.5783 0.30217 0.21598 0.0
C928 C 0.60169 0.30685 0.2026 0.0
C929 C 0.52036 0.32864 0.25268 0.0
O930 O 0.52047 0.30848 0.23604 0.0
H931 H 0.61968 0.32201 0.2572 0.0
H932 H 0.55916 0.2945 0.20888 0.0
O933 O 0.58255 0.30239 0.29464 0.0
H934 H 0.50738 0.2124 0.2464 0.0
H935 H 0.60427 0.30354 0.18306 0.0
C936 C 0.21743 0.22611 0.16106 0.0
C937 C 0.22814 0.22112 0.18254 0.0
C938 C 0.23344 0.23187 0.14015 0.0
C939 C 0.26061 0.23251 0.13993 0.0
H940 H 0.19647 0.2245 0.1601 0.0
H941 H 0.22443 0.23493 0.12378 0.0
S942 S 0.29876 0.22508 0.19244 0.0
N943 N 0.26808 0.2205 0.20303 0.0
N944 N 0.29781 0.23064 0.16366 0.0
C945 C 0.27166 0.22886 0.16157 0.0
C946 C 0.25553 0.22338 0.18288 0.0
C947 C 0.86086 0.2923 0.12671 0.0
C948 C 0.849 0.26563 0.12959 0.0
C949 C 0.85821 0.3041 0.10551 0.0
C950 C 0.84329 0.29006 0.0863 0.0
H951 H 0.87319 0.30401 0.1405 0.0
H952 H 0.86885 0.32424 0.1038 0.0
S953 S 0.80585 0.22076 0.08564 0.0
N954 N 0.81996 0.2261 0.11214 0.0
N955 N 0.81477 0.24874 0.07221 0.0
C956 C 0.82984 0.26403 0.08946 0.0
C957 C 0.83275 0.25175 0.11112 0.0
C958 C 0.81833 0.86957 0.15465 0.0
C959 C 0.8458 0.8749 0.15565 0.0
C960 C 0.80569 0.85555 0.13426 0.0
C961 C 0.81984 0.84581 0.11397 0.0
H962 H 0.80636 0.87632 0.16979 0.0
H963 H 0.78451 0.85238 0.13441 0.0
S964 S 0.89208 0.8543 0.10697 0.0
N965 N 0.88684 0.86944 0.1341 0.0
N966 N 0.86286 0.84232 0.09611 0.0
C967 C 0.84725 0.85033 0.11481 0.0
C968 C 0.86026 0.86502 0.13553 0.0
C969 C 0.20615 0.73323 0.09375 0.0
C970 C 0.22022 0.74465 0.11436 0.0
C971 C 0.2192 0.72771 0.07148 0.0
C972 C 0.24665 0.73331 0.0693 0.0
H973 H 0.18496 0.7301 0.09446 0.0
H974 H 0.2078 0.72071 0.05557 0.0
S975 S 0.29237 0.75749 0.11907 0.0
N976 N 0.26299 0.75743 0.13206 0.0
N977 N 0.28743 0.74659 0.09031 0.0
C978 C 0.26086 0.74235 0.0903 0.0
C979 C 0.24765 0.74816 0.11285 0.0
C980 C 0.27377 0.85224 0.94206 0.0
C981 C 0.24891 0.84404 0.93205 0.0
C982 C 0.28395 0.83589 0.95667 0.0
C983 C 0.26966 0.81065 0.96172 0.0
H984 H 0.28572 0.87124 0.93815 0.0
H985 H 0.30348 0.84267 0.9633 0.0
S986 S 0.2024 0.78098 0.94232 0.0
N987 N 0.20943 0.80973 0.93007 0.0
N988 N 0.22846 0.77923 0.95722 0.0
C989 C 0.24436 0.80271 0.95263 0.0
C990 C 0.23401 0.81931 0.93788 0.0
C991 C 0.24369 0.23372 0.96825 0.0
C992 C 0.26242 0.22787 0.94992 0.0
C993 C 0.25098 0.24394 0.99202 0.0
C994 C 0.27727 0.24853 0.9984 0.0
H995 H 0.2231 0.22977 0.96436 0.0
H996 H 0.23589 0.24725 1.00566 0.0
S997 S 0.33425 0.23971 0.95692 0.0
N998 N 0.30873 0.23001 0.93967 0.0
N999 N 0.32226 0.24834 0.9842 0.0
C1000 C 0.29621 0.24359 0.98014 0.0
C1001 C 0.28887 0.23346 0.956 0.0
C1002 C 0.92615 0.32302 0.91509 0.0
C1003 C 0.90556 0.31651 0.89894 0.0
C1004 C 0.92116 0.32902 0.93999 0.0
C1005 C 0.89559 0.32947 0.94931 0.0
H1006 H 0.94593 0.3214 0.90879 0.0
H1007 H 0.93708 0.33174 0.95229 0.0
S1008 S 0.83546 0.31755 0.91401 0.0
N1009 N 0.85908 0.31354 0.89352 0.0
N1010 N 0.84982 0.3253 0.94027 0.0
C1011 C 0.87519 0.32527 0.93302 0.0
C1012 C 0.88016 0.31868 0.90778 0.0
C1013 C 0.8187 0.863 0.9314 0.0
C1014 C 0.84579 0.86339 0.92791 0.0
C1015 C 0.80578 0.85861 0.95402 0.0
C1016 C 0.81941 0.8544 0.97406 0.0
H1017 H 0.80731 0.86579 0.91641 0.0
H1018 H 0.78486 0.85794 0.95569 0.0
S1019 S 0.89083 0.85577 0.97517 0.0
N1020 N 0.88602 0.86073 0.9469 0.0
N1021 N 0.86175 0.85244 0.98932 0.0
C1022 C 0.84654 0.85516 0.97094 0.0
C1023 C 0.85971 0.85964 0.94792 0.0
C1024 C 0.12641 0.20951 0.24426 0.0
C1025 C 0.15187 0.2248 0.2435 0.0
C1026 C 0.10543 0.21996 0.256 0.0
C1027 C 0.10901 0.24608 0.26781 0.0
H1028 H 0.1227 0.18919 0.23576 0.0
H1029 H 0.08621 0.20738 0.25575 0.0
S1030 S 0.17245 0.29378 0.27208 0.0
N1031 N 0.17978 0.26714 0.25579 0.0
N1032 N 0.14066 0.28664 0.27852 0.0
C1033 C 0.13451 0.2616 0.26714 0.0
C1034 C 0.15583 0.251 0.25486 0.0
C1035 C 0.89933 0.17745 0.22356 0.0
C1036 C 0.88271 0.19592 0.22192 0.0
C1037 C 0.8917 0.15519 0.23699 0.0
C1038 C 0.86708 0.15038 0.24922 0.0
H1039 H 0.91863 0.18048 0.21469 0.0
H1040 H 0.90518 0.14162 0.23781 0.0
S1041 S 0.81651 0.1929 0.2513 0.0
N1042 N 0.84061 0.20802 0.234 0.0
N1043 N 0.82619 0.1661 0.25912 0.0
C1044 C 0.85006 0.1684 0.24742 0.0
C1045 C 0.85788 0.19114 0.23378 0.0
C1046 C 0.95738 0.89678 0.27208 0.0
C1047 C 0.94581 0.88571 0.25007 0.0
C1048 C 0.97812 0.88702 0.28104 0.0
C1049 C 0.98812 0.86555 0.26852 0.0
H1050 H 0.95037 0.91327 0.28253 0.0
H1051 H 0.98625 0.89622 0.29808 0.0
S1052 S 0.96558 0.82988 0.20956 0.0
N1053 N 0.94646 0.85222 0.21566 0.0
N1054 N 0.98538 0.83403 0.23243 0.0
C1055 C 0.97681 0.85426 0.24643 0.0
C1056 C 0.95573 0.8643 0.23722 0.0
C1057 C 0.21917 0.87577 0.22302 0.0
C1058 C 0.22414 0.86584 0.19889 0.0
C1059 C 0.23087 0.90157 0.23208 0.0
C1060 C 0.24818 0.91851 0.21744 0.0
H1061 H 0.20559 0.86371 0.2349 0.0
H1062 H 0.22551 0.9086 0.25042 0.0
S1063 S 0.2702 0.90102 0.15384 0.0
N1064 N 0.24882 0.8744 0.16094 0.0
N1065 N 0.2719 0.92239 0.17836 0.0
C1066 C 0.2545 0.90829 0.19369 0.0
C1067 C 0.24231 0.88207 0.18436 0.0
C1068 C 0.13633 0.85048 0.82692 0.0
C1069 C 0.14098 0.85203 0.85193 0.0
C1070 C 0.11208 0.83775 0.81767 0.0
C1071 C 0.09164 0.826 0.83309 0.0
H1072 H 0.15178 0.85861 0.8143 0.0
H1073 H 0.10969 0.83625 0.79824 0.0
S1074 S 0.09266 0.82748 0.90025 0.0
N1075 N 0.12222 0.84294 0.89211 0.0
N1076 N 0.07691 0.81867 0.87481 0.0
C1077 C 0.09572 0.82828 0.8582 0.0
C1078 C 0.12031 0.84133 0.8676 0.0
C1079 C 0.28976 0.16031 0.86783 0.0
C1080 C 0.26347 0.16032 0.8757 0.0
C1081 C 0.29676 0.13914 0.8518 0.0
C1082 C 0.27766 0.11731 0.84319 0.0
H1083 H 0.30476 0.17743 0.87301 0.0
H1084 H 0.31686 0.1407 0.84498 0.0
S1085 S 0.20692 0.10593 0.8613 0.0
N1086 N 0.21901 0.13512 0.87575 0.0
N1087 N 0.23192 0.09579 0.84597 0.0
C1088 C 0.25172 0.11639 0.85231 0.0
C1089 C 0.24468 0.13773 0.86846 0.0
C1090 C 0.96423 0.25483 0.79713 0.0
C1091 C 0.95503 0.23632 0.81417 0.0
C1092 C 0.99066 0.2599 0.7895 0.0
C1093 C 1.00897 0.24704 0.79907 0.0
H1094 H 0.95114 0.26643 0.79057 0.0
H1095 H 0.99696 0.27546 0.77739 0.0
S1096 S 0.99368 0.19375 0.8414 0.0
N1097 N 0.96532 0.20269 0.83817 0.0
N1098 N 1.01515 0.21229 0.82401 0.0
C1099 C 0.99949 0.22677 0.81451 0.0
C1100 C 0.97248 0.22143 0.82208 0.0
C1101 C 0.85352 0.95197 0.8032 0.0
C1102 C 0.85832 0.94993 0.82769 0.0
C1103 C 0.84213 0.97294 0.79644 0.0
C1104 C 0.83514 0.99249 0.814 0.0
H1105 H 0.8576 0.93664 0.78931 0.0
H1106 H 0.8376 0.97307 0.77761 0.0
S1107 S 0.84781 0.99898 0.87981 0.0
N1108 N 0.8583 0.97147 0.86895 0.0
N1109 N 0.83676 1.01035 0.85634 0.0
C1110 C 0.84139 0.99159 0.83824 0.0
C1111 C 0.85303 0.97047 0.84507 0.0
C1112 C 0.21477 0.10451 0.26181 0.0
C1113 C 0.2341 0.1207 0.2483 0.0
C1114 C 0.21923 0.08045 0.26951 0.0
C1115 C 0.24305 0.07155 0.26375 0.0
H1116 H 0.19622 0.11059 0.2668 0.0
H1117 H 0.20388 0.06882 0.28014 0.0
S1118 S 0.29956 0.1065 0.22789 0.0
N1119 N 0.27764 0.12607 0.22903 0.0
N1120 N 0.286 0.08089 0.24313 0.0
C1121 C 0.26234 0.08745 0.24985 0.0
C1122 C 0.25786 0.112 0.24225 0.0
C1123 C 0.23902 0.93228 0.83987 0.0
C1124 C 0.21531 0.92924 0.85368 0.0
C1125 C 0.24813 0.95554 0.82804 0.0
C1126 C 0.23377 0.97642 0.8296 0.0
H1127 H 0.24994 0.91611 0.83729 0.0
H1128 H 0.26599 0.95676 0.81683 0.0
S1129 S 0.1726 0.97963 0.86666 0.0
N1130 N 0.17909 0.94995 0.87035 0.0
N1131 N 0.19633 0.99373 0.84842 0.0
C1132 C 0.21081 0.97414 0.84449 0.0
C1133 C 0.20157 0.95053 0.85648 0.0
C1134 C 0.17135 0.28724 0.88416 0.0
C1135 C 0.1788 0.26312 0.87455 0.0
C1136 C 0.15054 0.29643 0.87484 0.0
C1137 C 0.13643 0.28206 0.8553 0.0
H1138 H 0.18165 0.29913 0.89917 0.0
H1139 H 0.14562 0.31514 0.88284 0.0
S1140 S 0.14747 0.21737 0.82377 0.0
N1141 N 0.16999 0.22475 0.84444 0.0
N1142 N 0.13095 0.24214 0.82693 0.0
C1143 C 0.14364 0.25791 0.84541 0.0
C1144 C 0.16476 0.24839 0.85505 0.0
C1145 C 0.84203 0.18211 0.83863 0.0
C1146 C 0.86893 0.18427 0.8423 0.0
C1147 C 0.82496 0.15731 0.83829 0.0
C1148 C 0.83428 0.13391 0.84149 0.0
H1149 H 0.83432 0.19949 0.83498 0.0
H1150 H 0.80467 0.15614 0.8342 0.0
S1151 S 0.90184 0.12905 0.85498 0.0
N1152 N 0.90326 0.16113 0.85204 0.0
N1153 N 0.87117 0.11445 0.85039 0.0
C1154 C 0.8607 0.13591 0.84629 0.0
C1155 C 0.87804 0.16111 0.84695 0.0
C1156 C 0.93398 0.85399 0.85232 0.0
C1157 C 0.90866 0.84153 0.85974 0.0
C1158 C 0.95329 0.83892 0.84438 0.0
C1159 C 0.94811 0.8108 0.84364 0.0
H1160 H 0.93915 0.87561 0.85334 0.0
H1161 H 0.97266 0.84939 0.83938 0.0
S1162 S 0.88409 0.7683 0.85806 0.0
N1163 N 0.87884 0.79922 0.86368 0.0
N1164 N 0.91515 0.77102 0.84889 0.0
C1165 C 0.92266 0.79805 0.8502 0.0
C1166 C 0.90296 0.81337 0.85819 0.0
C1167 C 0.84549 0.95476 0.24645 0.0
C1168 C 0.84926 0.95199 0.221 0.0
C1169 C 0.83689 0.97716 0.25854 0.0
C1170 C 0.83125 0.99778 0.24584 0.0
H1171 H 0.8496 0.93963 0.25726 0.0
H1172 H 0.83525 0.97867 0.27822 0.0
S1173 S 0.83718 1.00048 0.17911 0.0
N1174 N 0.84621 0.97206 0.1834 0.0
N1175 N 0.82945 1.01386 0.20635 0.0
C1176 C 0.83385 0.99496 0.22037 0.0
C1177 C 0.84296 0.97217 0.20793 0.0
C1178 C 0.12244 0.82253 0.19159 0.0
C1179 C 0.13852 0.80359 0.19302 0.0
C1180 C 0.09806 0.8202 0.20407 0.0
C1181 C 0.08915 0.79897 0.21856 0.0
H1182 H 0.12945 0.84011 0.18194 0.0
H1183 H 0.08719 0.83625 0.20386 0.0
S1184 S 0.12191 0.74172 0.2248 0.0
N1185 N 0.14245 0.76122 0.20747 0.0
N1186 N 0.09644 0.75656 0.23063 0.0
C1187 C 0.10391 0.77854 0.21815 0.0
C1188 C 0.12869 0.78092 0.20545 0.0
C1189 C 0.97577 0.26504 0.209 0.0
C1190 C 0.95322 0.27565 0.21591 0.0
C1191 C 0.99978 0.27587 0.21951 0.0
C1192 C 1.00207 0.29745 0.23774 0.0
H1193 H 0.97456 0.24748 0.1961 0.0
H1194 H 1.01627 0.26616 0.21426 0.0
S1195 S 0.94881 0.3338 0.26047 0.0
N1196 N 0.93475 0.31002 0.24043 0.0
N1197 N 0.97972 0.33042 0.26059 0.0
C1198 C 0.97984 0.30923 0.24371 0.0
C1199 C 0.95544 0.29827 0.23274 0.0
C1200 C 0.21662 0.70159 0.63849 0.0
C1201 C 0.21007 0.71777 0.65914 0.0
C1202 C 0.23033 0.71274 0.61829 0.0
C1203 C 0.23792 0.7406 0.61764 0.0
H1204 H 0.21168 0.67999 0.63815 0.0
H1205 H 0.2358 0.69931 0.6033 0.0
S1206 S 0.225 0.79205 0.66655 0.0
N1207 N 0.2117 0.76336 0.67737 0.0
N1208 N 0.23721 0.78427 0.63912 0.0
C1209 C 0.23049 0.75717 0.63761 0.0
C1210 C 0.21663 0.74577 0.6584 0.0
C1211 C 0.82506 0.74885 0.59279 0.0
C1212 C 0.84781 0.75682 0.60622 0.0
C1213 C 0.82031 0.76299 0.57352 0.0
C1214 C 0.83817 0.7857 0.5669 0.0
H1215 H 0.81063 0.73162 0.59734 0.0
H1216 H 0.80237 0.75617 0.56394 0.0
S1217 S 0.90146 0.81429 0.59568 0.0
N1218 N 0.88885 0.78852 0.61104 0.0
N1219 N 0.88007 0.815 0.57503 0.0
C1220 C 0.86126 0.79364 0.58 0.0
C1221 C 0.86605 0.77925 0.5996 0.0
C1222 C 0.84723 0.36454 0.65514 0.0
C1223 C 0.87382 0.37523 0.65918 0.0
C1224 C 0.83944 0.34788 0.63392 0.0
C1225 C 0.8579 0.3411 0.61585 0.0
H1226 H 0.83235 0.36848 0.66879 0.0
H1227 H 0.81884 0.33968 0.63193 0.0
S1228 S 0.92954 0.36662 0.61597 0.0
N1229 N 0.91832 0.37973 0.642 0.0
N1230 N 0.90373 0.34843 0.60253 0.0
C1231 C 0.88441 0.35237 0.61929 0.0
C1232 C 0.89233 0.3694 0.64078 0.0
C1233 C 0.31333 0.42063 0.65229 0.0
C1234 C 0.28791 0.42619 0.65207 0.0
C1235 C 0.32741 0.41536 0.63055 0.0
C1236 C 0.31682 0.41634 0.60801 0.0
H1237 H 0.32196 0.41929 0.66937 0.0
H1238 H 0.34648 0.41 0.63125 0.0
S1239 S 0.25191 0.43156 0.59744 0.0
N1240 N 0.25319 0.43337 0.62732 0.0
N1241 N 0.28006 0.42403 0.58653 0.0
C1242 C 0.29192 0.42288 0.60751 0.0
C1243 C 0.27735 0.42771 0.62957 0.0
C1244 C 0.25165 0.34849 0.44733 0.0
C1245 C 0.24387 0.37284 0.45554 0.0
C1246 C 0.26662 0.33653 0.46175 0.0
C1247 C 0.27407 0.34828 0.48503 0.0
H1248 H 0.2471 0.33914 0.42927 0.0
H1249 H 0.27305 0.31835 0.45428 0.0
S1250 S 0.25624 0.41085 0.51565 0.0
N1251 N 0.24312 0.40742 0.48882 0.0
N1252 N 0.27071 0.38488 0.51618 0.0
C1253 C 0.26511 0.37193 0.4939 0.0
C1254 C 0.2502 0.38423 0.47907 0.0
C1255 C 0.25807 0.7348 0.44563 0.0
C1256 C 0.25237 0.70785 0.43587 0.0
C1257 C 0.26745 0.742 0.46918 0.0
C1258 C 0.27205 0.72266 0.48401 0.0
H1259 H 0.25548 0.75064 0.43491 0.0
H1260 H 0.27155 0.76299 0.47566 0.0
S1261 S 0.25856 0.64921 0.46824 0.0
N1262 N 0.2506 0.66159 0.44389 0.0
N1263 N 0.26894 0.67524 0.48767 0.0
C1264 C 0.26637 0.69565 0.47463 0.0
C1265 C 0.25644 0.68825 0.45074 0.0
C1266 C 0.86044 0.8013 0.38411 0.0
C1267 C 0.85361 0.77343 0.37878 0.0
C1268 C 0.86169 0.81288 0.40818 0.0
C1269 C 0.85623 0.79696 0.4278 0.0
H1270 H 0.86453 0.81432 0.36953 0.0
H1271 H 0.8661 0.83446 0.41145 0.0
S1272 S 0.84016 0.72284 0.42382 0.0
N1273 N 0.84301 0.73006 0.39527 0.0
N1274 N 0.84579 0.75187 0.4404 0.0
C1275 C 0.85025 0.76902 0.42273 0.0
C1276 C 0.84881 0.75722 0.39826 0.0
C1277 C 0.83938 0.33107 0.44498 0.0
C1278 C 0.84713 0.35867 0.44311 0.0
C1279 C 0.82851 0.32131 0.46677 0.0
C1280 C 0.825 0.33873 0.48755 0.0
H1281 H 0.84231 0.31689 0.42963 0.0
H1282 H 0.82404 0.29984 0.46776 0.0
S1283 S 0.84115 0.41265 0.49204 0.0
N1284 N 0.84953 0.40339 0.46367 0.0
N1285 N 0.82931 0.38474 0.50482 0.0
C1286 C 0.83157 0.36633 0.48574 0.0
C1287 C 0.84259 0.37638 0.46344 0.0
C1288 C 0.14029 0.73346 0.73613 0.0
C1289 C 0.14044 0.70686 0.72685 0.0
C1290 C 0.11848 0.74051 0.74957 0.0
C1291 C 0.09589 0.72126 0.75416 0.0
H1292 H 0.1574 0.74883 0.73346 0.0
H1293 H 0.11956 0.76112 0.75686 0.0
S1294 S 0.08542 0.6494 0.7313 0.0
N1295 N 0.11552 0.66156 0.72165 0.0
N1296 N 0.07444 0.6748 0.74645 0.0
C1297 C 0.09557 0.69473 0.7443 0.0
C1298 C 0.11782 0.68756 0.73076 0.0
C1299 C 0.8445 0.67796 0.72501 0.0
C1300 C 0.85245 0.67916 0.70034 0.0
C1301 C 0.8308 0.65419 0.73371 0.0
C1302 C 0.82435 0.63068 0.71808 0.0
H1303 H 0.84906 0.69554 0.73777 0.0
H1304 H 0.82524 0.65415 0.75286 0.0
S1305 S 0.84142 0.62279 0.65211 0.0
N1306 N 0.85336 0.65449 0.66049 0.0
N1307 N 0.82737 0.60988 0.67685 0.0
C1308 C 0.83184 0.63162 0.69332 0.0
C1309 C 0.84594 0.65583 0.68445 0.0
C1310 C 0.97666 0.3743 0.74847 0.0
C1311 C 0.96246 0.39145 0.76279 0.0
C1312 C 0.9977 0.36543 0.75783 0.0
C1313 C 1.00553 0.3735 0.78179 0.0
H1314 H 0.97156 0.3676 0.72989 0.0
H1315 H 1.00817 0.35243 0.74609 0.0
S1316 S 0.97412 0.41729 0.82704 0.0
N1317 N 0.95735 0.4156 0.80233 0.0
N1318 N 0.99674 0.39887 0.81986 0.0
C1319 C 0.99142 0.39052 0.7963 0.0
C1320 C 0.96994 0.39946 0.78682 0.0
C1321 C 0.21696 0.47365 0.76859 0.0
C1322 C 0.22842 0.45103 0.76234 0.0
C1323 C 0.22293 0.48975 0.79032 0.0
C1324 C 0.24049 0.48358 0.80625 0.0
H1325 H 0.20336 0.47886 0.75663 0.0
H1326 H 0.21399 0.50722 0.79458 0.0
S1327 S 0.27304 0.42475 0.79932 0.0
N1328 N 0.25661 0.42227 0.77429 0.0
N1329 N 0.26724 0.45213 0.81549 0.0
C1330 C 0.25138 0.46058 0.80051 0.0
C1331 C 0.2455 0.44437 0.77838 0.0
C1332 C 0.15374 0.37874 0.33303 0.0
C1333 C 0.15644 0.38569 0.35816 0.0
C1334 C 0.12928 0.3666 0.32361 0.0
C1335 C 0.10686 0.36104 0.33909 0.0
H1336 H 0.17085 0.38134 0.32079 0.0
H1337 H 0.12827 0.36003 0.30441 0.0
S1338 S 0.10283 0.37954 0.40554 0.0
N1339 N 0.134 0.38933 0.39771 0.0
N1340 N 0.0884 0.36635 0.38021 0.0
C1341 C 0.10908 0.36964 0.36393 0.0
C1342 C 0.13376 0.38202 0.37341 0.0
C1343 C 0.25195 0.62868 0.36337 0.0
C1344 C 0.24984 0.65287 0.3542 0.0
C1345 C 0.26335 0.60913 0.3493 0.0
C1346 C 0.27285 0.61263 0.32529 0.0
H1347 H 0.2456 0.6252 0.38195 0.0
H1348 H 0.26609 0.5917 0.35779 0.0
S1349 S 0.27146 0.6717 0.2921 0.0
N1350 N 0.25761 0.67871 0.31899 0.0
N1351 N 0.27884 0.64174 0.29266 0.0
C1352 C 0.26972 0.636 0.31537 0.0
C1353 C 0.25821 0.65612 0.32976 0.0
C1354 C 0.94661 0.72246 0.29582 0.0
C1355 C 0.93317 0.72023 0.31845 0.0
C1356 C 0.97256 0.73599 0.29418 0.0
C1357 C 0.98591 0.74778 0.31514 0.0
H1358 H 0.93655 0.71504 0.27921 0.0
H1359 H 0.98168 0.73834 0.27625 0.0
S1360 S 0.96046 0.7431 0.37893 0.0
N1361 N 0.93581 0.72755 0.36234 0.0
N1362 N 0.98466 0.75314 0.3594 0.0
C1363 C 0.97323 0.74383 0.33799 0.0
C1364 C 0.94681 0.73003 0.33961 0.0
C1365 C 0.82424 0.44736 0.34748 0.0
C1366 C 0.82174 0.44791 0.37295 0.0
C1367 C 0.80944 0.46122 0.33466 0.0
C1368 C 0.7914 0.4758 0.34681 0.0
H1369 H 0.83777 0.43633 0.33734 0.0
H1370 H 0.81193 0.46031 0.31505 0.0
S1371 S 0.77792 0.48387 0.41333 0.0
N1372 N 0.80012 0.4645 0.40986 0.0
N1373 N 0.77229 0.49034 0.38569 0.0
C1374 C 0.78868 0.47641 0.37221 0.0
C1375 C 0.80389 0.46254 0.38529 0.0
C1376 C 0.22842 0.60821 0.74125 0.0
C1377 C 0.23391 0.61255 0.71658 0.0
C1378 C 0.23752 0.58784 0.75165 0.0
C1379 C 0.25224 0.57083 0.73778 0.0
H1380 H 0.21706 0.62063 0.75267 0.0
H1381 H 0.23274 0.58514 0.77064 0.0
S1382 S 0.27298 0.57466 0.67275 0.0
N1383 N 0.25568 0.59861 0.67881 0.0
N1384 N 0.27275 0.56053 0.69832 0.0
C1385 C 0.25799 0.5751 0.71317 0.0
C1386 C 0.24887 0.5959 0.70263 0.0
C1387 C 0.25139 0.44975 0.34013 0.0
C1388 C 0.24411 0.4483 0.36488 0.0
C1389 C 0.27057 0.47072 0.33234 0.0
C1390 C 0.28328 0.49111 0.34895 0.0
H1391 H 0.2425 0.43431 0.3267 0.0
H1392 H 0.27566 0.47087 0.3131 0.0
S1393 S 0.27 0.49767 0.41558 0.0
N1394 N 0.25024 0.46981 0.40591 0.0
N1395 N 0.28632 0.50916 0.39117 0.0
C1396 C 0.27607 0.49004 0.37373 0.0
C1397 C 0.25647 0.4687 0.38169 0.0
C1398 C 0.15137 0.75156 0.36258 0.0
C1399 C 0.16743 0.74173 0.3438 0.0
C1400 C 0.1322 0.76618 0.35766 0.0
C1401 C 0.1282 0.77147 0.33378 0.0
H1402 H 0.15346 0.74784 0.38121 0.0
H1403 H 0.12009 0.77302 0.37263 0.0
S1404 S 0.16641 0.75187 0.27843 0.0
N1405 N 0.17873 0.73934 0.30055 0.0
N1406 N 0.14313 0.76696 0.2914 0.0
C1407 C 0.14443 0.76211 0.31494 0.0
C1408 C 0.1639 0.74724 0.31994 0.0
C1409 C 0.83757 0.65022 0.27651 0.0
C1410 C 0.85458 0.6516 0.29556 0.0
C1411 C 0.82527 0.62546 0.26552 0.0
C1412 C 0.82921 0.60137 0.27363 0.0
H1413 H 0.83344 0.6684 0.27035 0.0
H1414 H 0.81154 0.62524 0.25151 0.0
S1415 S 0.87298 0.59445 0.32216 0.0
N1416 N 0.87587 0.62708 0.32125 0.0
N1417 N 0.85224 0.58046 0.30105 0.0
C1418 C 0.84682 0.60257 0.29218 0.0
C1419 C 0.85965 0.62774 0.30305 0.0
C1420 C 0.91729 0.32775 0.37601 0.0
C1421 C 0.91754 0.35546 0.37709 0.0
C1422 C 0.939 0.31677 0.36666 0.0
C1423 C 0.9619 0.33297 0.35783 0.0
H1424 H 0.90009 0.31435 0.38235 0.0
H1425 H 0.93777 0.29535 0.36613 0.0
S1426 S 0.97346 0.40687 0.35795 0.0
N1427 N 0.94331 0.39898 0.36945 0.0
N1428 N 0.98387 0.3783 0.3517 0.0
C1429 C 0.96248 0.36069 0.3588 0.0
C1430 C 0.9404 0.37192 0.36844 0.0
C1431 C 0.87759 0.47405 0.73459 0.0
C1432 C 0.86352 0.44852 0.72642 0.0
C1433 C 0.86466 0.49471 0.7449 0.0
C1434 C 0.83718 0.49058 0.74742 0.0
H1435 H 0.89874 0.47829 0.73247 0.0
H1436 H 0.87618 0.51423 0.7501 0.0
S1437 S 0.79155 0.42637 0.73243 0.0
N1438 N 0.82075 0.41974 0.72411 0.0
N1439 N 0.79658 0.45815 0.74317 0.0
C1440 C 0.82306 0.46481 0.74033 0.0
C1441 C 0.83616 0.44393 0.7299 0.0
C1442 C 0.16927 0.35494 0.73883 0.0
C1443 C 0.16864 0.37412 0.72256 0.0
C1444 C 0.14647 0.33748 0.7455 0.0
C1445 C 0.12207 0.3389 0.73646 0.0
H1446 H 0.1873 0.35438 0.74744 0.0
H1447 H 0.14784 0.32398 0.75905 0.0
S1448 S 0.11108 0.38347 0.69054 0.0
N1449 N 0.14272 0.3918 0.6954 0.0
N1450 N 0.09949 0.35912 0.70796 0.0
C1451 C 0.12166 0.35663 0.71859 0.0
C1452 C 0.14506 0.37429 0.71168 0.0
C1453 C 0.95447 0.75662 0.70192 0.0
C1454 C 0.92882 0.75411 0.71223 0.0
C1455 C 0.97636 0.76412 0.71659 0.0
C1456 C 0.97312 0.7696 0.74185 0.0
H1457 H 0.95756 0.751 0.68274 0.0
H1458 H 0.99571 0.76376 0.7084 0.0
S1459 S 0.91039 0.76957 0.77706 0.0
N1460 N 0.90171 0.76052 0.74876 0.0
N1461 N 0.9427 0.77456 0.77615 0.0
C1462 C 0.94772 0.76911 0.75198 0.0
C1463 C 0.92557 0.76139 0.7372 0.0
C1464 C 0.76085 0.24103 0.63871 0.0
C1465 C 0.73401 0.22992 0.64049 0.0
C1466 C 0.77189 0.25365 0.61825 0.0
C1467 C 0.75658 0.25607 0.59878 0.0
H1468 H 0.77362 0.23945 0.65305 0.0
H1469 H 0.79287 0.26086 0.6173 0.0
S1470 S 0.68523 0.23163 0.59456 0.0
N1471 N 0.69214 0.22305 0.62111 0.0
N1472 N 0.71313 0.24729 0.58274 0.0
C1473 C 0.72956 0.2463 0.60065 0.0
C1474 C 0.71822 0.23314 0.6215 0.0
C1475 C 0.37554 0.28006 0.61366 0.0
C1476 C 0.35387 0.26083 0.62031 0.0
C1477 C 0.37363 0.29782 0.59648 0.0
C1478 C 0.34997 0.29721 0.58514 0.0
H1479 H 0.39424 0.28162 0.6218 0.0
H1480 H 0.39097 0.31227 0.59222 0.0
S1481 S 0.28751 0.25021 0.59585 0.0
N1482 N 0.30808 0.24182 0.61401 0.0
N1483 N 0.30438 0.2753 0.58163 0.0
C1484 C 0.32816 0.27787 0.59142 0.0
C1485 C 0.33015 0.25969 0.60899 0.0
C1486 C 0.38243 0.86332 0.66556 0.0
C1487 C 0.36468 0.87055 0.6841 0.0
C1488 C 0.37394 0.846 0.64502 0.0
C1489 C 0.34726 0.83501 0.64194 0.0
H1490 H 0.4032 0.87109 0.66696 0.0
H1491 H 0.38848 0.8412 0.63137 0.0
S1492 S 0.29274 0.84655 0.68559 0.0
N1493 N 0.31906 0.86481 0.69817 0.0
N1494 N 0.30312 0.83223 0.65973 0.0
C1495 C 0.32921 0.84221 0.66023 0.0
C1496 C 0.33789 0.85995 0.6812 0.0
C1497 C 0.73967 0.87717 0.60738 0.0
C1498 C 0.72517 0.89677 0.60351 0.0
C1499 C 0.76056 0.87246 0.59155 0.0
C1500 C 0.76752 0.88678 0.57096 0.0
H1501 H 0.73494 0.8654 0.6228 0.0
H1502 H 0.77112 0.8571 0.59527 0.0
S1503 S 0.73535 0.94046 0.55303 0.0
N1504 N 0.71943 0.93129 0.57839 0.0
N1505 N 0.75788 0.92161 0.54778 0.0
C1506 C 0.75338 0.90686 0.56719 0.0
C1507 C 0.73238 0.912 0.58367 0.0
C1508 C 0.71832 0.847 0.44958 0.0
C1509 C 0.73252 0.84534 0.42725 0.0
C1510 C 0.72552 0.83611 0.46988 0.0
C1511 C 0.74702 0.8229 0.4686 0.0
H1512 H 0.70224 0.85782 0.45177 0.0
H1513 H 0.7148 0.83911 0.48698 0.0
S1514 S 0.78835 0.8102 0.41314 0.0
N1515 N 0.76747 0.82754 0.40429 0.0
N1516 N 0.78075 0.8065 0.44211 0.0
C1517 C 0.7602 0.8195 0.44581 0.0
C1518 C 0.75306 0.83095 0.42526 0.0
C1519 C 0.77182 0.23034 0.41334 0.0
C1520 C 0.74453 0.22791 0.41139 0.0
C1521 C 0.78383 0.23656 0.43587 0.0
C1522 C 0.76921 0.24083 0.45763 0.0
H1523 H 0.78407 0.22708 0.39724 0.0
H1524 H 0.80482 0.23808 0.43622 0.0
S1525 S 0.69715 0.23662 0.46296 0.0
N1526 N 0.70325 0.23021 0.43357 0.0
N1527 N 0.72579 0.24212 0.47576 0.0
C1528 C 0.74199 0.23904 0.45598 0.0
C1529 C 0.7297 0.23259 0.43297 0.0
C1530 C 0.37744 0.26446 0.43823 0.0
C1531 C 0.40347 0.26598 0.4293 0.0
C1532 C 0.37061 0.28357 0.45613 0.0
C1533 C 0.3895 0.30497 0.46571 0.0
H1534 H 0.36209 0.2486 0.43125 0.0
H1535 H 0.35025 0.2819 0.46212 0.0
S1536 S 0.46054 0.3172 0.44931 0.0
N1537 N 0.44835 0.29008 0.43184 0.0
N1538 N 0.43547 0.32592 0.46568 0.0
C1539 C 0.41563 0.30653 0.45718 0.0
C1540 C 0.42262 0.28702 0.43896 0.0
C1541 C 0.31687 0.86006 0.48189 0.0
C1542 C 0.32669 0.84341 0.46309 0.0
C1543 C 0.31015 0.85134 0.50523 0.0
C1544 C 0.3132 0.82578 0.51043 0.0
H1545 H 0.31551 0.88034 0.47887 0.0
H1546 H 0.30389 0.86509 0.51953 0.0
S1547 S 0.33471 0.77338 0.46689 0.0
N1548 N 0.33586 0.79903 0.45073 0.0
N1549 N 0.32469 0.78332 0.49453 0.0
C1550 C 0.32168 0.8086 0.49147 0.0
C1551 C 0.32802 0.81721 0.46782 0.0
C1552 C 0.64492 0.21147 0.70007 0.0
C1553 C 0.66877 0.21167 0.71093 0.0
C1554 C 0.62211 0.21402 0.71434 0.0
C1555 C 0.62239 0.21644 0.73984 0.0
H1556 H 0.64371 0.20861 0.68049 0.0
H1557 H 0.60401 0.21351 0.70546 0.0
S1558 S 0.68019 0.22205 0.77714 0.0
N1559 N 0.69163 0.21779 0.74885 0.0
N1560 N 0.64855 0.2215 0.77534 0.0
C1561 C 0.64614 0.21766 0.75088 0.0
C1562 C 0.66939 0.21556 0.73649 0.0
C1563 C 0.33222 0.16657 0.70646 0.0
C1564 C 0.35906 0.16703 0.701 0.0
C1565 C 0.3165 0.14487 0.71709 0.0
C1566 C 0.32716 0.12311 0.72287 0.0
H1567 H 0.32358 0.1836 0.70354 0.0
H1568 H 0.29617 0.14562 0.72182 0.0
S1569 S 0.39498 0.11248 0.70882 0.0
N1570 N 0.39459 0.14202 0.69935 0.0
N1571 N 0.36517 0.10186 0.72008 0.0
C1572 C 0.3535 0.12265 0.71639 0.0
C1573 C 0.3694 0.14443 0.70524 0.0
C1574 C 0.47246 0.86884 0.7669 0.0
C1575 C 0.4622 0.88963 0.78044 0.0
C1576 C 0.49359 0.85902 0.77509 0.0
C1577 C 0.50551 0.86966 0.79707 0.0
H1578 H 0.46419 0.86004 0.74979 0.0
H1579 H 0.50095 0.84324 0.76389 0.0
S1580 S 0.48528 0.9234 0.83984 0.0
N1581 N 0.46518 0.91997 0.81726 0.0
N1582 N 0.50464 0.90148 0.83264 0.0
C1583 C 0.49529 0.89028 0.81084 0.0
C1584 C 0.47373 0.90022 0.80255 0.0
C1585 C 0.68455 0.94209 0.73383 0.0
C1586 C 0.69924 0.93015 0.7152 0.0
C1587 C 0.69637 0.9635 0.7497 0.0
C1588 C 0.72333 0.97395 0.74753 0.0
H1589 H 0.66366 0.935 0.73606 0.0
H1590 H 0.6843 0.9719 0.76384 0.0
S1591 S 0.77053 0.94991 0.70151 0.0
N1592 N 0.74235 0.92981 0.69592 0.0
N1593 N 0.76423 0.97119 0.7245 0.0
C1594 C 0.73824 0.9623 0.72881 0.0
C1595 C 0.72627 0.94019 0.71294 0.0
C1596 C 0.63473 0.88954 0.33177 0.0
C1597 C 0.63968 0.89652 0.35655 0.0
C1598 C 0.60912 0.87936 0.32416 0.0
C1599 C 0.58788 0.87589 0.34117 0.0
H1600 H 0.65088 0.89011 0.31847 0.0
H1601 H 0.60628 0.87217 0.30524 0.0
S1602 S 0.59009 0.8958 0.40739 0.0
N1603 N 0.62091 0.90287 0.39741 0.0
N1604 N 0.57303 0.88357 0.38324 0.0
C1605 C 0.59241 0.88503 0.36561 0.0
C1606 C 0.61828 0.89541 0.37328 0.0
C1607 C 0.74662 0.16092 0.31401 0.0
C1608 C 0.73705 0.16058 0.3384 0.0
C1609 C 0.7582 0.13986 0.30243 0.0
C1610 C 0.76032 0.11766 0.31479 0.0
H1611 H 0.74659 0.17829 0.3043 0.0
H1612 H 0.76717 0.14189 0.28439 0.0
S1613 S 0.73504 0.10526 0.37742 0.0
N1614 N 0.72791 0.13459 0.37334 0.0
N1615 N 0.74981 0.09551 0.35181 0.0
C1616 C 0.74926 0.11633 0.33851 0.0
C1617 C 0.73757 0.13761 0.35024 0.0
C1618 C 0.45299 0.19619 0.30954 0.0
C1619 C 0.43483 0.21218 0.3188 0.0
C1620 C 0.47391 0.20613 0.2938 0.0
C1621 C 0.47724 0.23232 0.28693 0.0
H1622 H 0.45163 0.17631 0.31529 0.0
H1623 H 0.48823 0.19377 0.28793 0.0
S1624 S 0.43258 0.28041 0.30291 0.0
N1625 N 0.41976 0.25417 0.31768 0.0
N1626 N 0.45902 0.27278 0.28812 0.0
C1627 C 0.45831 0.24783 0.29489 0.0
C1628 C 0.43711 0.23777 0.31085 0.0
C1629 C 0.28878 0.92129 0.36211 0.0
C1630 C 0.30753 0.90712 0.35081 0.0
C1631 C 0.27829 0.9391 0.34953 0.0
C1632 C 0.28655 0.94371 0.32539 0.0
H1633 H 0.28212 0.91864 0.38076 0.0
H1634 H 0.26406 0.94978 0.35898 0.0
S1635 S 0.33453 0.91085 0.28747 0.0
N1636 N 0.33326 0.89818 0.3139 0.0
N1637 N 0.314 0.93201 0.29048 0.0
C1638 C 0.30511 0.92948 0.31387 0.0
C1639 C 0.31545 0.91107 0.32652 0.0
C1640 C 0.78075 0.14867 0.72965 0.0
C1641 C 0.77675 0.13832 0.70542 0.0
C1642 C 0.78851 0.13347 0.74656 0.0
C1643 C 0.79246 0.10717 0.74005 0.0
H1644 H 0.77674 0.16831 0.73593 0.0
H1645 H 0.79004 0.14196 0.76528 0.0
S1646 S 0.78751 0.07186 0.67817 0.0
N1647 N 0.77984 0.10122 0.67502 0.0
N1648 N 0.79413 0.07228 0.70708 0.0
C1649 C 0.79053 0.09726 0.71545 0.0
C1650 C 0.78273 0.11295 0.69806 0.0
C1651 C 0.738 0.95087 0.33392 0.0
C1652 C 0.73232 0.94751 0.35864 0.0
C1653 C 0.75647 0.9726 0.32656 0.0
C1654 C 0.76982 0.99205 0.34362 0.0
H1655 H 0.7281 0.93654 0.32014 0.0
H1656 H 0.76028 0.9742 0.30728 0.0
S1657 S 0.76117 0.99283 0.41066 0.0
N1658 N 0.74117 0.96544 0.40028 0.0
N1659 N 0.77556 1.00663 0.38644 0.0
C1660 C 0.76444 0.98879 0.36844 0.0
C1661 C 0.74574 0.96648 0.37594 0.0
C1662 C 0.64747 0.28773 0.33771 0.0
C1663 C 0.65053 0.2609 0.33818 0.0
C1664 C 0.62813 0.29461 0.32381 0.0
C1665 C 0.61104 0.27487 0.30991 0.0
H1666 H 0.66069 0.30364 0.34755 0.0
H1667 H 0.62732 0.31554 0.32317 0.0
S1668 S 0.60812 0.20144 0.30781 0.0
N1669 N 0.63271 0.21443 0.32542 0.0
N1670 N 0.59676 0.22712 0.29969 0.0
C1671 C 0.61304 0.24793 0.31136 0.0
C1672 C 0.63263 0.24099 0.32535 0.0
C1673 C 0.35492 0.12472 0.36257 0.0
C1674 C 0.35901 0.14424 0.34583 0.0
C1675 C 0.3379 0.1002 0.3577 0.0
C1676 C 0.32453 0.09441 0.33591 0.0
H1677 H 0.36539 0.12822 0.37928 0.0
H1678 H 0.33567 0.08538 0.37071 0.0
S1679 S 0.32566 0.14016 0.28782 0.0
N1680 N 0.3464 0.15712 0.30776 0.0
N1681 N 0.31447 0.111 0.29862 0.0
C1682 C 0.32771 0.1141 0.31947 0.0
C1683 C 0.34495 0.13903 0.32442 0.0
C1684 C 0.39916 0.84307 0.37161 0.0
C1685 C 0.39722 0.85191 0.39653 0.0
C1686 C 0.42244 0.83654 0.36084 0.0
C1687 C 0.44455 0.8381 0.37462 0.0
H1688 H 0.38239 0.84071 0.36035 0.0
H1689 H 0.42299 0.82955 0.34172 0.0
S1690 S 0.45092 0.86198 0.43977 0.0
N1691 N 0.42051 0.86368 0.43414 0.0
N1692 N 0.46381 0.85021 0.41393 0.0
C1693 C 0.44314 0.84709 0.39936 0.0
C1694 C 0.4196 0.85425 0.4103 0.0
C1695 C 0.35821 0.96823 0.72882 0.0
C1696 C 0.36398 0.95139 0.74559 0.0
C1697 C 0.3469 0.99071 0.73632 0.0
C1698 C 0.34101 0.9978 0.76102 0.0
H1699 H 0.36223 0.96387 0.70957 0.0
H1700 H 0.34224 1.00244 0.72249 0.0
S1701 S 0.35202 0.96071 0.81253 0.0
N1702 N 0.36275 0.94361 0.78837 0.0
N1703 N 0.342 0.98621 0.80235 0.0
C1704 C 0.34736 0.98175 0.77815 0.0
C1705 C 0.3587 0.95854 0.77048 0.0
C1706 C 0.61045 0.84213 0.70143 0.0
C1707 C 0.6373 0.84337 0.70402 0.0
C1708 C 0.59182 0.82735 0.71657 0.0
C1709 C 0.59958 0.81348 0.73482 0.0
H1710 H 0.6039 0.85418 0.68885 0.0
H1711 H 0.57141 0.82843 0.71508 0.0
S1712 S 0.66772 0.80679 0.7455 0.0
N1713 N 0.67077 0.82702 0.72362 0.0
N1714 N 0.63599 0.79878 0.75189 0.0
C1715 C 0.62638 0.8126 0.73586 0.0
C1716 C 0.64523 0.82775 0.72054 0.0
C1717 C 0.46375 0.24549 0.70313 0.0
C1718 C 0.43941 0.23665 0.71508 0.0
C1719 C 0.48711 0.25133 0.71585 0.0
C1720 C 0.48674 0.24824 0.74079 0.0
H1721 H 0.46493 0.24654 0.68364 0.0
H1722 H 0.50559 0.25668 0.70589 0.0
S1723 S 0.42813 0.22937 0.7811 0.0
N1724 N 0.41637 0.22875 0.75396 0.0
N1725 N 0.4602 0.23808 0.77736 0.0
C1726 C 0.46251 0.24096 0.75313 0.0
C1727 C 0.43885 0.23562 0.74041 0.0
C1728 C 0.69473 0.77329 0.15656 0.0
C1729 C 0.68744 0.74545 0.15807 0.0
C1730 C 0.70678 0.78371 0.13526 0.0
C1731 C 0.71199 0.76668 0.11482 0.0
H1732 H 0.6915 0.78713 0.17207 0.0
H1733 H 0.71231 0.80518 0.13478 0.0
S1734 S 0.69555 0.69281 0.10833 0.0
N1735 N 0.68518 0.70127 0.13627 0.0
N1736 N 0.70846 0.72116 0.09674 0.0
C1737 C 0.70463 0.73904 0.11584 0.0
C1738 C 0.69221 0.72834 0.13734 0.0
C1739 C 0.36468 0.78833 0.1014 0.0
C1740 C 0.37335 0.76669 0.11016 0.0
C1741 C 0.35675 0.78713 0.07733 0.0
C1742 C 0.35739 0.76427 0.06101 0.0
H1743 H 0.36334 0.80611 0.11345 0.0
H1744 H 0.34926 0.80386 0.07178 0.0
S1745 S 0.38151 0.70339 0.07409 0.0
N1746 N 0.38407 0.72259 0.09996 0.0
N1747 N 0.3696 0.72033 0.05496 0.0
C1748 C 0.36716 0.74298 0.06931 0.0
C1749 C 0.37501 0.74416 0.0938 0.0
C1750 C 0.34643 0.38135 0.14352 0.0
C1751 C 0.34698 0.37125 0.16626 0.0
C1752 C 0.33563 0.3647 0.12326 0.0
C1753 C 0.32481 0.33757 0.12525 0.0
H1754 H 0.35588 0.40173 0.14099 0.0
H1755 H 0.33748 0.37259 0.10566 0.0
S1756 S 0.31783 0.3026 0.18148 0.0
N1757 N 0.33302 0.33326 0.19002 0.0
N1758 N 0.31286 0.30222 0.15224 0.0
C1759 C 0.32353 0.32793 0.14828 0.0
C1760 C 0.33456 0.34469 0.16872 0.0
C1761 C 0.80064 0.34787 0.14114 0.0
C1762 C 0.82238 0.34702 0.15477 0.0
C1763 C 0.80351 0.36103 0.11992 0.0
C1764 C 0.8283 0.37355 0.11119 0.0
H1765 H 0.78136 0.33716 0.14607 0.0
H1766 H 0.78637 0.3597 0.10938 0.0
S1767 S 0.89122 0.37799 0.14065 0.0
N1768 N 0.86933 0.36079 0.15868 0.0
N1769 N 0.87476 0.38521 0.11834 0.0
C1770 C 0.85005 0.37361 0.12506 0.0
C1771 C 0.8471 0.36032 0.14684 0.0
C1772 C 0.79489 0.37309 0.93046 0.0
C1773 C 0.7695 0.35929 0.92554 0.0
C1774 C 0.80715 0.36988 0.95148 0.0
C1775 C 0.79482 0.35235 0.96853 0.0
H1776 H 0.80536 0.38694 0.91808 0.0
H1777 H 0.82667 0.38133 0.9543 0.0
S1778 S 0.72868 0.31019 0.96373 0.0
N1779 N 0.73249 0.3266 0.93912 0.0
N1780 N 0.75595 0.32016 0.97862 0.0
C1781 C 0.76967 0.33771 0.96359 0.0
C1782 C 0.75688 0.34131 0.94215 0.0
C1783 C 0.76257 0.7025 0.96563 0.0
C1784 C 0.77772 0.7152 0.94682 0.0
C1785 C 0.76545 0.71289 0.99003 0.0
C1786 C 0.78358 0.73643 0.99662 0.0
H1787 H 0.7472 0.68543 0.96132 0.0
H1788 H 0.75224 0.70321 1.00368 0.0
S1789 S 0.8297 0.77563 0.95393 0.0
N1790 N 0.81266 0.7513 0.93625 0.0
N1791 N 0.81866 0.77057 0.98198 0.0
C1792 C 0.80021 0.74811 0.97798 0.0
C1793 C 0.79704 0.73763 0.95311 0.0
C1794 C 0.36423 0.77699 0.87795 0.0
C1795 C 0.35157 0.75835 0.86006 0.0
C1796 C 0.36143 0.77211 0.90255 0.0
C1797 C 0.34578 0.74851 0.91005 0.0
H1798 H 0.37635 0.79545 0.87287 0.0
H1799 H 0.37142 0.78696 0.91586 0.0
S1800 S 0.30559 0.69525 0.87055 0.0
N1801 N 0.32103 0.71655 0.85165 0.0
N1802 N 0.31574 0.70744 0.89782 0.0
C1803 C 0.3327 0.72992 0.89233 0.0
C1804 C 0.33558 0.73485 0.86732 0.0
C1805 C 0.36106 0.32444 0.95515 0.0
C1806 C 0.38766 0.33251 0.94871 0.0
C1807 C 0.35326 0.31453 0.97769 0.0
C1808 C 0.37176 0.31233 0.99466 0.0
H1809 H 0.3462 0.32501 0.9424 0.0
H1810 H 0.33256 0.30789 0.98156 0.0
S1811 S 0.44371 0.33326 0.98738 0.0
N1812 N 0.43247 0.33934 0.96163 0.0
N1813 N 0.41773 0.32077 1.004 0.0
C1814 C 0.39837 0.32099 0.98865 0.0
C1815 C 0.40633 0.3311 0.96572 0.0
C1816 C 0.59789 0.72979 0.23381 0.0
C1817 C 0.62207 0.74646 0.22914 0.0
C1818 C 0.57866 0.7389 0.24945 0.0
C1819 C 0.58293 0.76498 0.26125 0.0
H1820 H 0.59398 0.70937 0.22557 0.0
H1821 H 0.56034 0.72532 0.25242 0.0
S1822 S 0.64362 0.81608 0.25573 0.0
N1823 N 0.64949 0.79006 0.23755 0.0
N1824 N 0.6137 0.80714 0.26745 0.0
C1825 C 0.60703 0.78195 0.25651 0.0
C1826 C 0.6265 0.77269 0.24034 0.0
C1827 C 0.40467 0.68171 0.22758 0.0
C1828 C 0.38461 0.69223 0.21818 0.0
C1829 C 0.399 0.6604 0.24237 0.0
C1830 C 0.37302 0.64875 0.24848 0.0
H1831 H 0.42499 0.69044 0.22385 0.0
H1832 H 0.4151 0.65311 0.24926 0.0
S1833 S 0.31336 0.66981 0.22937 0.0
N1834 N 0.33779 0.68973 0.21629 0.0
N1835 N 0.32697 0.65 0.24435 0.0
C1836 C 0.35273 0.65891 0.23895 0.0
C1837 C 0.35857 0.68053 0.22374 0.0
C1838 C 0.48341 0.38719 0.25356 0.0
C1839 C 0.45888 0.3746 0.24434 0.0
C1840 C 0.50299 0.37243 0.25755 0.0
C1841 C 0.49883 0.34442 0.25242 0.0
H1842 H 0.48779 0.40877 0.25706 0.0
H1843 H 0.52182 0.3831 0.2637 0.0
S1844 S 0.43688 0.30124 0.2315 0.0
N1845 N 0.43091 0.33191 0.23279 0.0
N1846 N 0.46726 0.30453 0.23999 0.0
C1847 C 0.47394 0.33156 0.2444 0.0
C1848 C 0.45412 0.34648 0.24043 0.0
C1849 C 0.7983 0.42327 0.22855 0.0
C1850 C 0.77843 0.41547 0.2117 0.0
C1851 C 0.80507 0.4499 0.23827 0.0
C1852 C 0.79203 0.46963 0.23164 0.0
H1853 H 0.80767 0.40846 0.23537 0.0
H1854 H 0.81937 0.45461 0.25226 0.0
S1855 S 0.74206 0.46045 0.18489 0.0
N1856 N 0.74857 0.43025 0.18614 0.0
N1857 N 0.7608 0.48027 0.20488 0.0
C1858 C 0.77353 0.46248 0.21348 0.0
C1859 C 0.76681 0.4354 0.20342 0.0
C1860 C 0.65304 0.34089 0.81802 0.0
C1861 C 0.65637 0.34412 0.84335 0.0
C1862 C 0.63024 0.32548 0.80802 0.0
C1863 C 0.61014 0.31249 0.82298 0.0
H1864 H 0.66845 0.34982 0.80575 0.0
H1865 H 0.62885 0.32278 0.78844 0.0
S1866 S 0.60774 0.31676 0.89036 0.0
N1867 N 0.63639 0.33494 0.88314 0.0
N1868 N 0.59399 0.30525 0.86432 0.0
C1869 C 0.61282 0.31615 0.8483 0.0
C1870 C 0.63584 0.33209 0.85849 0.0
C1871 C 0.75381 0.63876 0.85569 0.0
C1872 C 0.77419 0.65761 0.8664 0.0
C1873 C 0.75888 0.61782 0.83888 0.0
C1874 C 0.78461 0.61448 0.83187 0.0
H1875 H 0.7336 0.64042 0.86007 0.0
H1876 H 0.74226 0.60434 0.83092 0.0
S1877 S 0.84521 0.65763 0.85526 0.0
N1878 N 0.82136 0.67104 0.86945 0.0
N1879 N 0.83087 0.63139 0.8378 0.0
C1880 C 0.8053 0.63247 0.84314 0.0
C1881 C 0.80009 0.65405 0.86039 0.0
C1882 C 0.45362 0.74607 0.84013 0.0
C1883 C 0.44507 0.72802 0.82014 0.0
C1884 C 0.47995 0.75832 0.84182 0.0
C1885 C 0.49868 0.75327 0.8234 0.0
H1886 H 0.43973 0.75115 0.85434 0.0
H1887 H 0.48537 0.77267 0.85728 0.0
S1888 S 0.48626 0.70625 0.76792 0.0
N1889 N 0.4573 0.70458 0.78213 0.0
N1890 N 0.50691 0.72768 0.78516 0.0
C1891 C 0.49049 0.73442 0.80374 0.0
C1892 C 0.46365 0.72178 0.80215 0.0
C1893 C 0.38914 0.43087 0.82779 0.0
C1894 C 0.37754 0.41836 0.84829 0.0
C1895 C 0.37609 0.44679 0.81544 0.0
C1896 C 0.35091 0.45113 0.82317 0.0
H1897 H 0.40852 0.42821 0.82107 0.0
H1898 H 0.38591 0.45599 0.79979 0.0
S1899 S 0.31138 0.42254 0.87548 0.0
N1900 N 0.339 0.41117 0.87561 0.0
N1901 N 0.31455 0.44115 0.85238 0.0
C1902 C 0.33903 0.43886 0.84371 0.0
C1903 C 0.35228 0.42244 0.85625 0.0
C1904 C 0.68928 0.63298 0.24208 0.0
C1905 C 0.70836 0.64729 0.2268 0.0
C1906 C 0.69397 0.61054 0.25258 0.0
C1907 C 0.71794 0.60175 0.24839 0.0
H1908 H 0.67054 0.63903 0.24596 0.0
H1909 H 0.67884 0.60008 0.26423 0.0
S1910 S 0.77369 0.63131 0.20872 0.0
N1911 N 0.75176 0.65052 0.20742 0.0
N1912 N 0.76046 0.60828 0.22693 0.0
C1913 C 0.73707 0.61573 0.23298 0.0
C1914 C 0.73227 0.63849 0.22224 0.0
C1915 C 0.70897 0.44499 0.84119 0.0
C1916 C 0.72515 0.42598 0.84189 0.0
C1917 C 0.71701 0.46776 0.82854 0.0
C1918 C 0.74154 0.47237 0.81613 0.0
H1919 H 0.68973 0.44199 0.85019 0.0
H1920 H 0.70394 0.48187 0.82842 0.0
S1921 S 0.79059 0.42791 0.81127 0.0
N1922 N 0.76649 0.41285 0.82861 0.0
N1923 N 0.7816 0.45555 0.80464 0.0
C1924 C 0.758 0.4536 0.81682 0.0
C1925 C 0.74982 0.43044 0.82978 0.0
C1926 C 0.67436 0.75263 0.87565 0.0
C1927 C 0.69062 0.7448 0.8561 0.0
C1928 C 0.65354 0.76559 0.87198 0.0
C1929 C 0.64808 0.77131 0.84862 0.0
H1930 H 0.67753 0.74855 0.89396 0.0
H1931 H 0.64141 0.77086 0.88756 0.0
S1932 S 0.68603 0.75659 0.79158 0.0
N1933 N 0.70038 0.74449 0.81267 0.0
N1934 N 0.66186 0.76934 0.80582 0.0
C1935 C 0.66447 0.7639 0.82897 0.0
C1936 C 0.68554 0.75056 0.83271 0.0
C1937 C 0.37617 0.63527 0.78797 0.0
C1938 C 0.37011 0.65138 0.80873 0.0
C1939 C 0.36503 0.608 0.7851 0.0
C1940 C 0.34763 0.59594 0.80301 0.0
H1941 H 0.38903 0.64398 0.77361 0.0
H1942 H 0.36966 0.59649 0.76846 0.0
S1943 S 0.32818 0.6296 0.86203 0.0
N1944 N 0.34755 0.65351 0.84822 0.0
N1945 N 0.32666 0.60225 0.84318 0.0
C1946 C 0.34243 0.61183 0.82438 0.0
C1947 C 0.35364 0.63958 0.82713 0.0
C1948 C 0.46225 0.31311 0.88494 0.0
C1949 C 0.4416 0.31967 0.87274 0.0
C1950 C 0.47957 0.29774 0.87303 0.0
C1951 C 0.47739 0.28886 0.8483 0.0
H1952 H 0.46508 0.31984 0.90395 0.0
H1953 H 0.49506 0.2931 0.88314 0.0
S1954 S 0.42724 0.30037 0.80775 0.0
N1955 N 0.41983 0.3153 0.83438 0.0
N1956 N 0.45353 0.28793 0.81178 0.0
C1957 C 0.45739 0.29577 0.83565 0.0
C1958 C 0.43927 0.31084 0.8479 0.0
C1959 C 0.33869 0.45579 0.23126 0.0
C1960 C 0.36503 0.45336 0.22565 0.0
C1961 C 0.33192 0.4801 0.24157 0.0
C1962 C 0.35123 0.503 0.24667 0.0
H1963 H 0.32318 0.43853 0.2283 0.0
H1964 H 0.31158 0.48061 0.2465 0.0
S1965 S 0.42264 0.50835 0.23258 0.0
N1966 N 0.41011 0.47689 0.22394 0.0
N1967 N 0.39765 0.52219 0.24332 0.0
C1968 C 0.37749 0.50109 0.24018 0.0
C1969 C 0.38432 0.47643 0.22974 0.0
C1970 C 0.69376 0.32081 0.2223 0.0
C1971 C 0.70389 0.33811 0.20444 0.0
C1972 C 0.66664 0.31318 0.22646 0.0
C1973 C 0.6488 0.32216 0.21258 0.0
H1974 H 0.70687 0.31391 0.23368 0.0
H1975 H 0.65951 0.30031 0.24075 0.0
S1976 S 0.66553 0.36693 0.16308 0.0
N1977 N 0.69416 0.3635 0.17243 0.0
N1978 N 0.64318 0.34875 0.17999 0.0
C1979 C 0.65872 0.33877 0.19419 0.0
C1980 C 0.68628 0.34688 0.19021 0.0
C1981 C 0.45635 0.79267 0.21728 0.0
C1982 C 0.42911 0.78676 0.22194 0.0
C1983 C 0.47319 0.80588 0.23547 0.0
C1984 C 0.46314 0.81322 0.25878 0.0
H1985 H 0.46479 0.7847 0.20043 0.0
H1986 H 0.49413 0.80771 0.23211 0.0
S1987 S 0.3932 0.80632 0.2785 0.0
N1988 N 0.39281 0.79264 0.25016 0.0
N1989 N 0.42437 0.81705 0.28438 0.0
C1990 C 0.4359 0.80993 0.26268 0.0
C1991 C 0.41887 0.79679 0.2442 0.0
loop_
_geom_bond_atom_site_label_1
_geom_bond_atom_site_label_2
_geom_bond_distance
_geom_bond_site_symmetry_2
_ccdc_geom_bond_type
H0 C5 0.930 . S
H1 C8 0.930 . S
H2 C10 0.930 . S
H3 C4 1.016 . S
C4 H3 1.016 . S
C4 N11 1.286 . S
C5 H0 0.930 . S
C5 C6 1.397 . S
C5 C7 1.361 . S
C6 C5 1.397 . S
C6 C10 1.390 . S
C7 C5 1.361 . S
C7 C8 1.393 . S
C7 N11 1.413 . S
C8 H1 0.930 . S
C8 C7 1.393 . S
C8 C9 1.399 . S
C9 C8 1.399 . S
C9 C10 1.381 . S
C10 H2 0.930 . S
C10 C6 1.390 . S
C10 C9 1.381 . S
N11 C4 1.286 . S
N11 C7 1.413 . S
H12 C17 0.930 . S
H13 C20 0.930 . S
H14 C22 0.930 . S
H15 C16 1.016 . S
C16 H15 1.016 . S
C16 N23 1.286 . S
C17 H12 0.930 . S
C17 C18 1.397 . S
C17 C19 1.361 . S
C18 C17 1.397 . S
C18 C22 1.390 . S
C19 C17 1.361 . S
C19 C20 1.393 . S
C19 N23 1.413 . S
C20 H13 0.930 . S
C20 C19 1.393 . S
C20 C21 1.399 . S
C21 C20 1.399 . S
C21 C22 1.381 . S
C22 H14 0.930 . S
C22 C18 1.390 . S
C22 C21 1.381 . S
N23 C16 1.286 . S
N23 C19 1.413 . S
H24 C29 0.930 . S
H25 C32 0.930 . S
H26 C34 0.930 . S
H27 C28 1.016 . S
C28 H27 1.016 . S
C28 N35 1.286 . S
C29 H24 0.930 . S
C29 C30 1.397 . S
C29 C31 1.361 . S
C30 C29 1.397 . S
C30 C34 1.390 . S
C31 C29 1.361 . S
C31 C32 1.393 . S
C31 N35 1.413 . S
C32 H25 0.930 . S
C32 C31 1.393 . S
C32 C33 1.399 . S
C33 C32 1.399 . S
C33 C34 1.381 . S
C34 H26 0.930 . S
C34 C30 1.390 . S
C34 C33 1.381 . S
N35 C28 1.286 . S
N35 C31 1.413 . S
H36 C41 0.930 . S
H37 C44 0.930 . S
H38 C46 0.930 . S
H39 C40 1.016 . S
C40 H39 1.016 . S
C40 N47 1.286 . S
C41 H36 0.930 . S
C41 C42 1.397 . S
C41 C43 1.361 . S
C42 C41 1.397 . S
C42 C46 1.390 . S
C43 C41 1.361 . S
C43 C44 1.393 . S
C43 N47 1.413 . S
C44 H37 0.930 . S
C44 C43 1.393 . S
C44 C45 1.399 . S
C45 C44 1.399 . S
C45 C46 1.381 . S
C46 H38 0.930 . S
C46 C42 1.390 . S
C46 C45 1.381 . S
N47 C40 1.286 . S
N47 C43 1.413 . S
H48 C53 0.930 . S
H49 C56 0.930 . S
H50 C58 0.930 . S
H51 C52 1.016 . S
C52 H51 1.016 . S
C52 N59 1.286 . S
C53 H48 0.930 . S
C53 C54 1.397 . S
C53 C55 1.361 . S
C54 C53 1.397 . S
C54 C58 1.390 . S
C55 C53 1.361 . S
C55 C56 1.393 . S
C55 N59 1.413 . S
C56 H49 0.930 . S
C56 C55 1.393 . S
C56 C57 1.399 . S
C57 C56 1.399 . S
C57 C58 1.381 . S
C58 H50 0.930 . S
C58 C54 1.390 . S
C58 C57 1.381 . S
N59 C52 1.286 . S
N59 C55 1.413 . S
H60 C65 0.930 . S
H61 C68 0.930 . S
H62 C70 0.930 . S
H63 C64 1.016 . S
C64 H63 1.016 . S
C64 N71 1.286 . S
C65 H60 0.930 . S
C65 C66 1.397 . S
C65 C67 1.361 . S
C66 C65 1.397 . S
C66 C70 1.390 . S
C67 C65 1.361 . S
C67 C68 1.393 . S
C67 N71 1.413 . S
C68 H61 0.930 . S
C68 C67 1.393 . S
C68 C69 1.399 . S
C69 C68 1.399 . S
C69 C70 1.381 . S
C70 H62 0.930 . S
C70 C66 1.390 . S
C70 C69 1.381 . S
N71 C64 1.286 . S
N71 C67 1.413 . S
H72 C77 0.930 . S
H73 C80 0.930 . S
H74 C82 0.930 . S
H75 C76 1.016 . S
C76 H75 1.016 . S
C76 N83 1.286 . S
C77 H72 0.930 . S
C77 C78 1.397 . S
C77 C79 1.361 . S
C78 C77 1.397 . S
C78 C82 1.390 . S
C79 C77 1.361 . S
C79 C80 1.393 . S
C79 N83 1.413 . S
C80 H73 0.930 . S
C80 C79 1.393 . S
C80 C81 1.399 . S
C81 C80 1.399 . S
C81 C82 1.381 . S
C82 H74 0.930 . S
C82 C78 1.390 . S
C82 C81 1.381 . S
N83 C76 1.286 . S
N83 C79 1.413 . S
H84 C89 0.930 . S
H85 C92 0.930 . S
H86 C94 0.930 . S
H87 C88 1.016 . S
C88 H87 1.016 . S
C88 N95 1.286 . S
C89 H84 0.930 . S
C89 C90 1.397 . S
C89 C91 1.361 . S
C90 C89 1.397 . S
C90 C94 1.390 . S
C91 C89 1.361 . S
C91 C92 1.393 . S
C91 N95 1.413 . S
C92 H85 0.930 . S
C92 C91 1.393 . S
C92 C93 1.399 . S
C93 C92 1.399 . S
C93 C94 1.381 . S
C94 H86 0.930 . S
C94 C90 1.390 . S
C94 C93 1.381 . S
N95 C88 1.286 . S
N95 C91 1.413 . S
H96 C101 0.930 . S
H97 C104 0.930 . S
H98 C106 0.930 . S
H99 C100 1.016 . S
C100 H99 1.016 . S
C100 N107 1.286 . S
C101 H96 0.930 . S
C101 C102 1.397 . S
C101 C103 1.361 . S
C102 C101 1.397 . S
C102 C106 1.390 . S
C103 C101 1.361 . S
C103 C104 1.393 . S
C103 N107 1.413 . S
C104 H97 0.930 . S
C104 C103 1.393 . S
C104 C105 1.399 . S
C105 C104 1.399 . S
C105 C106 1.381 . S
C106 H98 0.930 . S
C106 C102 1.390 . S
C106 C105 1.381 . S
N107 C100 1.286 . S
N107 C103 1.413 . S
H108 C113 0.930 . S
H109 C116 0.930 . S
H110 C118 0.930 . S
H111 C112 1.016 . S
C112 H111 1.016 . S
C112 N119 1.286 . S
C113 H108 0.930 . S
C113 C114 1.397 . S
C113 C115 1.361 . S
C114 C113 1.397 . S
C114 C118 1.390 . S
C115 C113 1.361 . S
C115 C116 1.393 . S
C115 N119 1.413 . S
C116 H109 0.930 . S
C116 C115 1.393 . S
C116 C117 1.399 . S
C117 C116 1.399 . S
C117 C118 1.381 . S
C118 H110 0.930 . S
C118 C114 1.390 . S
C118 C117 1.381 . S
N119 C112 1.286 . S
N119 C115 1.413 . S
H120 C125 0.930 . S
H121 C128 0.930 . S
H122 C130 0.930 . S
H123 C124 1.016 . S
C124 H123 1.016 . S
C124 N131 1.286 . S
C125 H120 0.930 . S
C125 C126 1.397 . S
C125 C127 1.361 . S
C126 C125 1.397 . S
C126 C130 1.390 . S
C127 C125 1.361 . S
C127 C128 1.393 . S
C127 N131 1.413 . S
C128 H121 0.930 . S
C128 C127 1.393 . S
C128 C129 1.399 . S
C129 C128 1.399 . S
C129 C130 1.381 . S
C130 H122 0.930 . S
C130 C126 1.390 . S
C130 C129 1.381 . S
N131 C124 1.286 . S
N131 C127 1.413 . S
H132 C137 0.930 . S
H133 C140 0.930 . S
H134 C142 0.930 . S
H135 C136 1.016 . S
C136 H135 1.016 . S
C136 N143 1.286 . S
C137 H132 0.930 . S
C137 C138 1.397 . S
C137 C139 1.361 . S
C138 C137 1.397 . S
C138 C142 1.390 . S
C139 C137 1.361 . S
C139 C140 1.393 . S
C139 N143 1.413 . S
C140 H133 0.930 . S
C140 C139 1.393 . S
C140 C141 1.399 . S
C141 C140 1.399 . S
C141 C142 1.381 . S
C142 H134 0.930 . S
C142 C138 1.390 . S
C142 C141 1.381 . S
N143 C136 1.286 . S
N143 C139 1.413 . S
H144 C149 0.930 . S
H145 C152 0.930 . S
H146 C154 0.930 . S
H147 C148 1.016 . S
C148 H147 1.016 . S
C148 N155 1.286 . S
C149 H144 0.930 . S
C149 C150 1.397 . S
C149 C151 1.361 . S
C150 C149 1.397 . S
C150 C154 1.390 . S
C151 C149 1.361 . S
C151 C152 1.393 . S
C151 N155 1.413 . S
C152 H145 0.930 . S
C152 C151 1.393 . S
C152 C153 1.399 . S
C153 C152 1.399 . S
C153 C154 1.381 . S
C154 H146 0.930 . S
C154 C150 1.390 . S
C154 C153 1.381 . S
N155 C148 1.286 . S
N155 C151 1.413 . S
H156 C161 0.930 . S
H157 C164 0.930 . S
H158 C166 0.930 . S
H159 C160 1.016 . S
C160 H159 1.016 . S
C160 N167 1.286 . S
C161 H156 0.930 . S
C161 C162 1.397 . S
C161 C163 1.361 . S
C162 C161 1.397 . S
C162 C166 1.390 . S
C163 C161 1.361 . S
C163 C164 1.393 . S
C163 N167 1.413 . S
C164 H157 0.930 . S
C164 C163 1.393 . S
C164 C165 1.399 . S
C165 C164 1.399 . S
C165 C166 1.381 . S
C166 H158 0.930 . S
C166 C162 1.390 . S
C166 C165 1.381 . S
N167 C160 1.286 . S
N167 C163 1.413 . S
H168 C173 0.930 . S
H169 C176 0.930 . S
H170 C178 0.930 . S
H171 C172 1.016 . S
C172 H171 1.016 . S
C172 N179 1.286 . S
C173 H168 0.930 . S
C173 C174 1.397 . S
C173 C175 1.361 . S
C174 C173 1.397 . S
C174 C178 1.390 . S
C175 C173 1.361 . S
C175 C176 1.393 . S
C175 N179 1.413 . S
C176 H169 0.930 . S
C176 C175 1.393 . S
C176 C177 1.399 . S
C177 C176 1.399 . S
C177 C178 1.381 . S
C178 H170 0.930 . S
C178 C174 1.390 . S
C178 C177 1.381 . S
N179 C172 1.286 . S
N179 C175 1.413 . S
H180 C185 0.930 . S
H181 C188 0.930 . S
H182 C190 0.930 . S
H183 C184 1.016 . S
C184 H183 1.016 . S
C184 N191 1.286 . S
C185 H180 0.930 . S
C185 C186 1.397 . S
C185 C187 1.361 . S
C186 C185 1.397 . S
C186 C190 1.390 . S
C187 C185 1.361 . S
C187 C188 1.393 . S
C187 N191 1.413 . S
C188 H181 0.930 . S
C188 C187 1.393 . S
C188 C189 1.399 . S
C189 C188 1.399 . S
C189 C190 1.381 . S
C190 H182 0.930 . S
C190 C186 1.390 . S
C190 C189 1.381 . S
N191 C184 1.286 . S
N191 C187 1.413 . S
H192 C197 0.930 . S
H193 C200 0.930 . S
H194 C202 0.930 . S
H195 C196 1.016 . S
C196 H195 1.016 . S
C196 N203 1.286 . S
C197 H192 0.930 . S
C197 C198 1.397 . S
C197 C199 1.361 . S
C198 C197 1.397 . S
C198 C202 1.390 . S
C199 C197 1.361 . S
C199 C200 1.393 . S
C199 N203 1.413 . S
C200 H193 0.930 . S
C200 C199 1.393 . S
C200 C201 1.399 . S
C201 C200 1.399 . S
C201 C202 1.381 . S
C202 H194 0.930 . S
C202 C198 1.390 . S
C202 C201 1.381 . S
N203 C196 1.286 . S
N203 C199 1.413 . S
H204 C209 0.930 . S
H205 C212 0.930 . S
H206 C214 0.930 . S
H207 C208 1.016 . S
C208 H207 1.016 . S
C208 N215 1.286 . S
C209 H204 0.930 . S
C209 C210 1.397 . S
C209 C211 1.361 . S
C210 C209 1.397 . S
C210 C214 1.390 . S
C211 C209 1.361 . S
C211 C212 1.393 . S
C211 N215 1.413 . S
C212 H205 0.930 . S
C212 C211 1.393 . S
C212 C213 1.399 . S
C213 C212 1.399 . S
C213 C214 1.381 . S
C214 H206 0.930 . S
C214 C210 1.390 . S
C214 C213 1.381 . S
N215 C208 1.286 . S
N215 C211 1.413 . S
H216 C221 0.930 . S
H217 C224 0.930 . S
H218 C226 0.930 . S
H219 C220 1.016 . S
C220 H219 1.016 . S
C220 N227 1.286 . S
C221 H216 0.930 . S
C221 C222 1.397 . S
C221 C223 1.361 . S
C222 C221 1.397 . S
C222 C226 1.390 . S
C223 C221 1.361 . S
C223 C224 1.393 . S
C223 N227 1.413 . S
C224 H217 0.930 . S
C224 C223 1.393 . S
C224 C225 1.399 . S
C225 C224 1.399 . S
C225 C226 1.381 . S
C226 H218 0.930 . S
C226 C222 1.390 . S
C226 C225 1.381 . S
N227 C220 1.286 . S
N227 C223 1.413 . S
H228 C233 0.930 . S
H229 C236 0.930 . S
H230 C238 0.930 . S
H231 C232 1.016 . S
C232 H231 1.016 . S
C232 N239 1.286 . S
C233 H228 0.930 . S
C233 C234 1.397 . S
C233 C235 1.361 . S
C234 C233 1.397 . S
C234 C238 1.390 . S
C235 C233 1.361 . S
C235 C236 1.393 . S
C235 N239 1.413 . S
C236 H229 0.930 . S
C236 C235 1.393 . S
C236 C237 1.399 . S
C237 C236 1.399 . S
C237 C238 1.381 . S
C238 H230 0.930 . S
C238 C234 1.390 . S
C238 C237 1.381 . S
N239 C232 1.286 . S
N239 C235 1.413 . S
H240 C245 0.930 . S
H241 C248 0.930 . S
H242 C250 0.930 . S
H243 C244 1.016 . S
C244 H243 1.016 . S
C244 N251 1.286 . S
C245 H240 0.930 . S
C245 C246 1.397 . S
C245 C247 1.361 . S
C246 C245 1.397 . S
C246 C250 1.390 . S
C247 C245 1.361 . S
C247 C248 1.393 . S
C247 N251 1.413 . S
C248 H241 0.930 . S
C248 C247 1.393 . S
C248 C249 1.399 . S
C249 C248 1.399 . S
C249 C250 1.381 . S
C250 H242 0.930 . S
C250 C246 1.390 . S
C250 C249 1.381 . S
N251 C244 1.286 . S
N251 C247 1.413 . S
H252 C257 0.930 . S
H253 C260 0.930 . S
H254 C262 0.930 . S
H255 C256 1.016 . S
C256 H255 1.016 . S
C256 N263 1.286 . S
C257 H252 0.930 . S
C257 C258 1.397 . S
C257 C259 1.361 . S
C258 C257 1.397 . S
C258 C262 1.390 . S
C259 C257 1.361 . S
C259 C260 1.393 . S
C259 N263 1.413 . S
C260 H253 0.930 . S
C260 C259 1.393 . S
C260 C261 1.399 . S
C261 C260 1.399 . S
C261 C262 1.381 . S
C262 H254 0.930 . S
C262 C258 1.390 . S
C262 C261 1.381 . S
N263 C256 1.286 . S
N263 C259 1.413 . S
H264 C269 0.930 . S
H265 C272 0.930 . S
H266 C274 0.930 . S
H267 C268 1.016 . S
C268 H267 1.016 . S
C268 N275 1.286 . S
C269 H264 0.930 . S
C269 C270 1.397 . S
C269 C271 1.361 . S
C270 C269 1.397 . S
C270 C274 1.390 . S
C271 C269 1.361 . S
C271 C272 1.393 . S
C271 N275 1.413 . S
C272 H265 0.930 . S
C272 C271 1.393 . S
C272 C273 1.399 . S
C273 C272 1.399 . S
C273 C274 1.381 . S
C274 H266 0.930 . S
C274 C270 1.390 . S
C274 C273 1.381 . S
N275 C268 1.286 . S
N275 C271 1.413 . S
H276 C281 0.930 . S
H277 C284 0.930 . S
H278 C286 0.930 . S
H279 C280 1.016 . S
C280 H279 1.016 . S
C280 N287 1.286 . S
C281 H276 0.930 . S
C281 C282 1.397 . S
C281 C283 1.361 . S
C282 C281 1.397 . S
C282 C286 1.390 . S
C283 C281 1.361 . S
C283 C284 1.393 . S
C283 N287 1.413 . S
C284 H277 0.930 . S
C284 C283 1.393 . S
C284 C285 1.399 . S
C285 C284 1.399 . S
C285 C286 1.381 . S
C286 H278 0.930 . S
C286 C282 1.390 . S
C286 C285 1.381 . S
N287 C280 1.286 . S
N287 C283 1.413 . S
H288 C293 0.930 . S
H289 C296 0.930 . S
H290 C298 0.930 . S
H291 C292 1.016 . S
C292 H291 1.016 . S
C292 N299 1.286 . S
C293 H288 0.930 . S
C293 C294 1.397 . S
C293 C295 1.361 . S
C294 C293 1.397 . S
C294 C298 1.390 . S
C295 C293 1.361 . S
C295 C296 1.393 . S
C295 N299 1.413 . S
C296 H289 0.930 . S
C296 C295 1.393 . S
C296 C297 1.399 . S
C297 C296 1.399 . S
C297 C298 1.381 . S
C298 H290 0.930 . S
C298 C294 1.390 . S
C298 C297 1.381 . S
N299 C292 1.286 . S
N299 C295 1.413 . S
H300 C305 0.930 . S
H301 C308 0.930 . S
H302 C310 0.930 . S
H303 C304 1.016 . S
C304 H303 1.016 . S
C304 N311 1.286 . S
C305 H300 0.930 . S
C305 C306 1.397 . S
C305 C307 1.361 . S
C306 C305 1.397 . S
C306 C310 1.390 . S
C307 C305 1.361 . S
C307 C308 1.393 . S
C307 N311 1.413 . S
C308 H301 0.930 . S
C308 C307 1.393 . S
C308 C309 1.399 . S
C309 C308 1.399 . S
C309 C310 1.381 . S
C310 H302 0.930 . S
C310 C306 1.390 . S
C310 C309 1.381 . S
N311 C304 1.286 . S
N311 C307 1.413 . S
H312 C317 0.930 . S
H313 C320 0.930 . S
H314 C322 0.930 . S
H315 C316 1.016 . S
C316 H315 1.016 . S
C316 N323 1.286 . S
C317 H312 0.930 . S
C317 C318 1.397 . S
C317 C319 1.361 . S
C318 C317 1.397 . S
C318 C322 1.390 . S
C319 C317 1.361 . S
C319 C320 1.393 . S
C319 N323 1.413 . S
C320 H313 0.930 . S
C320 C319 1.393 . S
C320 C321 1.399 . S
C321 C320 1.399 . S
C321 C322 1.381 . S
C322 H314 0.930 . S
C322 C318 1.390 . S
C322 C321 1.381 . S
N323 C316 1.286 . S
N323 C319 1.413 . S
H324 C329 0.930 . S
H325 C332 0.930 . S
H326 C334 0.930 . S
H327 C328 1.016 . S
C328 H327 1.016 . S
C328 N335 1.286 . S
C329 H324 0.930 . S
C329 C330 1.397 . S
C329 C331 1.361 . S
C330 C329 1.397 . S
C330 C334 1.390 . S
C331 C329 1.361 . S
C331 C332 1.393 . S
C331 N335 1.413 . S
C332 H325 0.930 . S
C332 C331 1.393 . S
C332 C333 1.399 . S
C333 C332 1.399 . S
C333 C334 1.381 . S
C334 H326 0.930 . S
C334 C330 1.390 . S
C334 C333 1.381 . S
N335 C328 1.286 . S
N335 C331 1.413 . S
H336 C341 0.930 . S
H337 C344 0.930 . S
H338 C346 0.930 . S
H339 C340 1.016 . S
C340 H339 1.016 . S
C340 N347 1.286 . S
C341 H336 0.930 . S
C341 C342 1.397 . S
C341 C343 1.361 . S
C342 C341 1.397 . S
C342 C346 1.390 . S
C343 C341 1.361 . S
C343 C344 1.393 . S
C343 N347 1.413 . S
C344 H337 0.930 . S
C344 C343 1.393 . S
C344 C345 1.399 . S
C345 C344 1.399 . S
C345 C346 1.381 . S
C346 H338 0.930 . S
C346 C342 1.390 . S
C346 C345 1.381 . S
N347 C340 1.286 . S
N347 C343 1.413 . S
H348 C353 0.930 . S
H349 C356 0.930 . S
H350 C358 0.930 . S
H351 C352 1.016 . S
C352 H351 1.016 . S
C352 N359 1.286 . S
C353 H348 0.930 . S
C353 C354 1.397 . S
C353 C355 1.361 . S
C354 C353 1.397 . S
C354 C358 1.390 . S
C355 C353 1.361 . S
C355 C356 1.393 . S
C355 N359 1.413 . S
C356 H349 0.930 . S
C356 C355 1.393 . S
C356 C357 1.399 . S
C357 C356 1.399 . S
C357 C358 1.381 . S
C358 H350 0.930 . S
C358 C354 1.390 . S
C358 C357 1.381 . S
N359 C352 1.286 . S
N359 C355 1.413 . S
H360 C365 0.930 . S
H361 C368 0.930 . S
H362 C370 0.930 . S
H363 C364 1.016 . S
C364 H363 1.016 . S
C364 N371 1.286 . S
C365 H360 0.930 . S
C365 C366 1.397 . S
C365 C367 1.361 . S
C366 C365 1.397 . S
C366 C370 1.390 . S
C367 C365 1.361 . S
C367 C368 1.393 . S
C367 N371 1.413 . S
C368 H361 0.930 . S
C368 C367 1.393 . S
C368 C369 1.399 . S
C369 C368 1.399 . S
C369 C370 1.381 . S
C370 H362 0.930 . S
C370 C366 1.390 . S
C370 C369 1.381 . S
N371 C364 1.286 . S
N371 C367 1.413 . S
H372 C377 0.930 . S
H373 C380 0.930 . S
H374 C382 0.930 . S
H375 C376 1.016 . S
C376 H375 1.016 . S
C376 N383 1.286 . S
C377 H372 0.930 . S
C377 C378 1.397 . S
C377 C379 1.361 . S
C378 C377 1.397 . S
C378 C382 1.390 . S
C379 C377 1.361 . S
C379 C380 1.393 . S
C379 N383 1.413 . S
C380 H373 0.930 . S
C380 C379 1.393 . S
C380 C381 1.399 . S
C381 C380 1.399 . S
C381 C382 1.381 . S
C382 H374 0.930 . S
C382 C378 1.390 . S
C382 C381 1.381 . S
N383 C376 1.286 . S
N383 C379 1.413 . S
Cu384 N385 1.999 . S
Cu384 O390 1.974 1_554 S
Cu384 N395 1.985 . S
Cu384 O404 1.959 . S
N385 Cu384 1.999 . S
N385 C387 1.263 1_554 S
N385 C389 1.389 . S
N386 C387 1.358 . S
N386 C388 1.400 . S
C387 N385 1.263 1_556 S
C387 N386 1.358 . S
C387 H393 0.930 . S
C388 N386 1.400 . S
C388 C389 1.351 1_556 S
C388 H405 0.930 . S
C389 N385 1.389 . S
C389 C388 1.351 1_554 S
C389 H394 0.930 . S
O390 Cu384 1.974 1_556 S
O390 C400 1.282 . S
C391 O392 1.261 . S
C391 O404 1.251 . S
O392 C391 1.261 . S
H393 C387 0.930 . S
H394 C389 0.930 . S
N395 Cu384 1.985 . S
N395 C397 1.335 . S
N395 C398 1.390 . S
N396 C397 1.345 . S
N396 C399 1.336 . S
C397 N395 1.335 . S
C397 N396 1.345 . S
C397 H402 0.930 . S
C398 N395 1.390 . S
C398 C399 1.346 . S
C398 H403 0.930 . S
C399 N396 1.336 . S
C399 C398 1.346 . S
C399 H406 0.929 . S
C400 O390 1.282 . S
C400 O401 1.229 . S
O401 C400 1.229 . S
H402 C397 0.930 . S
H403 C398 0.930 . S
O404 Cu384 1.959 . S
O404 C391 1.251 . S
H405 C388 0.930 . S
H406 C399 0.929 . S
Cu407 N408 1.999 . S
Cu407 O413 1.974 . S
Cu407 N418 1.985 1_554 S
Cu407 O427 1.959 1_554 S
N408 Cu407 1.999 . S
N408 C410 1.263 . S
N408 C412 1.389 . S
N409 C410 1.358 . S
N409 C411 1.400 . S
C410 N408 1.263 . S
C410 N409 1.358 . S
C410 H416 0.930 . S
C411 N409 1.400 . S
C411 C412 1.351 . S
C411 H428 0.930 . S
C412 N408 1.389 . S
C412 C411 1.351 . S
C412 H417 0.930 . S
O413 Cu407 1.974 . S
O413 C423 1.282 . S
C414 O415 1.287 . S
C414 O427 1.251 . S
O415 C414 1.287 . S
H416 C410 0.930 . S
H417 C412 0.930 . S
N418 Cu407 1.985 1_556 S
N418 C420 1.335 . S
N418 C421 1.390 . S
N419 C420 1.345 . S
N419 C422 1.336 . S
C420 N418 1.335 . S
C420 N419 1.345 . S
C420 H425 0.930 . S
C421 N418 1.390 . S
C421 C422 1.346 . S
C421 H426 0.930 1_556 S
C422 N419 1.336 . S
C422 C421 1.346 . S
C422 H429 0.929 . S
C423 O413 1.282 . S
C423 O424 1.216 . S
O424 C423 1.216 . S
H425 C420 0.930 . S
H426 C421 0.930 1_554 S
O427 Cu407 1.959 1_556 S
O427 C414 1.251 . S
H428 C411 0.930 . S
H429 C422 0.929 . S
Cu430 N431 1.999 1_554 S
Cu430 O436 1.974 1_554 S
Cu430 N441 1.985 . S
Cu430 O450 1.959 . S
N431 Cu430 1.999 1_556 S
N431 C433 1.263 . S
N431 C435 1.389 . S
N432 C433 1.358 . S
N432 C434 1.400 . S
C433 N431 1.263 . S
C433 N432 1.358 . S
C433 H439 0.930 . S
C434 N432 1.400 . S
C434 C435 1.351 . S
C434 H451 0.930 . S
C435 N431 1.389 . S
C435 C434 1.351 . S
C435 H440 0.930 1_556 S
O436 Cu430 1.974 1_556 S
O436 C446 1.282 . S
C437 O438 1.261 . S
C437 O450 1.251 . S
O438 C437 1.261 . S
H439 C433 0.930 . S
H440 C435 0.930 1_554 S
N441 Cu430 1.985 . S
N441 C443 1.335 . S
N441 C444 1.390 . S
N442 C443 1.345 . S
N442 C445 1.336 . S
C443 N441 1.335 . S
C443 N442 1.345 . S
C443 H448 0.930 . S
C444 N441 1.390 . S
C444 C445 1.346 . S
C444 H449 0.930 . S
C445 N442 1.336 . S
C445 C444 1.346 . S
C445 H452 0.929 . S
C446 O436 1.282 . S
C446 O447 1.216 . S
O447 C446 1.216 . S
H448 C443 0.930 . S
H449 C444 0.930 . S
O450 Cu430 1.959 . S
O450 C437 1.251 . S
H451 C434 0.930 . S
H452 C445 0.929 . S
Cu453 N454 1.999 1_556 S
Cu453 O459 1.974 1_556 S
Cu453 N464 1.985 . S
Cu453 O473 1.959 . S
N454 Cu453 1.999 1_554 S
N454 C456 1.263 . S
N454 C458 1.389 . S
N455 C456 1.358 . S
N455 C457 1.400 . S
C456 N454 1.263 . S
C456 N455 1.358 . S
C456 H462 0.930 . S
C457 N455 1.400 . S
C457 C458 1.351 . S
C457 H474 0.930 . S
C458 N454 1.389 . S
C458 C457 1.351 . S
C458 H463 0.930 . S
O459 Cu453 1.974 1_554 S
O459 C469 1.282 . S
C460 O461 1.261 . S
C460 O473 1.251 . S
O461 C460 1.261 . S
H462 C456 0.930 . S
H463 C458 0.930 . S
N464 Cu453 1.985 . S
N464 C466 1.335 . S
N464 C467 1.390 . S
N465 C466 1.345 . S
N465 C468 1.336 . S
C466 N464 1.335 . S
C466 N465 1.345 . S
C466 H471 0.930 . S
C467 N464 1.390 . S
C467 C468 1.346 . S
C467 H472 0.930 . S
C468 N465 1.336 . S
C468 C467 1.346 . S
C468 H475 0.929 . S
C469 O459 1.282 . S
C469 O470 1.216 . S
O470 C469 1.216 . S
H471 C466 0.930 . S
H472 C467 0.930 . S
O473 Cu453 1.959 . S
O473 C460 1.251 . S
H474 C457 0.930 . S
H475 C468 0.929 . S
Cu476 N477 1.999 . S
Cu476 O482 1.974 . S
Cu476 N487 1.985 . S
Cu476 O496 1.959 . S
N477 Cu476 1.999 . S
N477 C479 1.263 . S
N477 C481 1.389 . S
N478 C479 1.358 . S
N478 C480 1.400 . S
C479 N477 1.263 . S
C479 N478 1.358 . S
C479 H485 0.930 . S
C480 N478 1.400 . S
C480 C481 1.351 . S
C480 H497 0.930 . S
C481 N477 1.389 . S
C481 C480 1.351 . S
C481 H486 0.930 . S
O482 Cu476 1.974 . S
O482 C492 1.282 . S
C483 O484 1.261 . S
C483 O496 1.251 1_655 S
O484 C483 1.261 . S
H485 C479 0.930 . S
H486 C481 0.930 . S
N487 Cu476 1.985 . S
N487 C489 1.335 1_455 S
N487 C490 1.390 . S
N488 C489 1.345 . S
N488 C491 1.336 . S
C489 N487 1.335 1_655 S
C489 N488 1.345 . S
C489 H494 0.930 . S
C490 N487 1.390 . S
C490 C491 1.346 1_455 S
C490 H495 0.930 . S
C491 N488 1.336 . S
C491 C490 1.346 1_655 S
C491 H498 0.929 . S
C492 O482 1.282 . S
C492 O493 1.216 . S
O493 C492 1.216 . S
H494 C489 0.930 . S
H495 C490 0.930 . S
O496 Cu476 1.959 . S
O496 C483 1.251 1_455 S
H497 C480 0.930 . S
H498 C491 0.929 . S
Cu499 N500 1.999 . S
Cu499 O505 1.974 . S
Cu499 N510 2.014 . S
Cu499 O519 1.942 1_545 S
N500 Cu499 1.999 . S
N500 C502 1.263 . S
N500 C504 1.389 . S
N501 C502 1.358 . S
N501 C503 1.400 . S
C502 N500 1.263 . S
C502 N501 1.358 . S
C502 H508 0.930 . S
C503 N501 1.400 . S
C503 C504 1.351 . S
C503 H520 0.930 . S
C504 N500 1.389 . S
C504 C503 1.351 . S
C504 H509 0.930 . S
O505 Cu499 1.974 . S
O505 C515 1.282 . S
C506 O507 1.261 1_565 S
C506 O519 1.259 . S
O507 C506 1.261 1_545 S
H508 C502 0.930 . S
H509 C504 0.930 . S
N510 Cu499 2.014 . S
N510 C512 1.289 1_545 S
N510 C513 1.401 . S
N511 C512 1.345 . S
N511 C514 1.336 . S
C512 N510 1.289 1_565 S
C512 N511 1.345 . S
C512 H517 0.930 . S
C513 N510 1.401 . S
C513 C514 1.346 1_545 S
C513 H518 0.930 . S
C514 N511 1.336 . S
C514 C513 1.346 1_565 S
C514 H521 0.929 . S
C515 O505 1.282 . S
C515 O516 1.216 . S
O516 C515 1.216 . S
H517 C512 0.930 . S
H518 C513 0.930 . S
O519 Cu499 1.942 1_565 S
O519 C506 1.259 . S
H520 C503 0.930 . S
H521 C514 0.929 . S
Cu522 N523 1.999 . S
Cu522 O528 1.974 . S
Cu522 N533 1.985 1_655 S
Cu522 O542 1.959 1_655 S
N523 Cu522 1.999 . S
N523 C525 1.263 . S
N523 C527 1.389 . S
N524 C525 1.358 . S
N524 C526 1.400 . S
C525 N523 1.263 . S
C525 N524 1.358 . S
C525 H531 0.930 . S
C526 N524 1.400 . S
C526 C527 1.351 . S
C526 H543 0.930 . S
C527 N523 1.389 . S
C527 C526 1.351 . S
C527 H532 0.930 1_655 S
O528 Cu522 1.974 . S
O528 C538 1.282 . S
C529 O530 1.261 . S
C529 O542 1.251 . S
O530 C529 1.261 . S
H531 C525 0.930 . S
H532 C527 0.930 1_455 S
N533 Cu522 1.985 1_455 S
N533 C535 1.335 . S
N533 C536 1.390 . S
N534 C535 1.345 . S
N534 C537 1.336 . S
C535 N533 1.335 . S
C535 N534 1.345 . S
C535 H540 0.930 . S
C536 N533 1.390 . S
C536 C537 1.346 . S
C536 H541 0.930 1_455 S
C537 N534 1.336 . S
C537 C536 1.346 . S
C537 H544 0.929 . S
C538 O528 1.282 . S
C538 O539 1.216 . S
O539 C538 1.216 . S
H540 C535 0.930 . S
H541 C536 0.930 1_655 S
O542 Cu522 1.959 1_455 S
O542 C529 1.251 . S
H543 C526 0.930 . S
H544 C537 0.929 . S
Cu545 N546 2.029 . S
Cu545 O551 2.010 . S
Cu545 N556 1.956 1_545 S
Cu545 O565 1.924 1_545 S
N546 Cu545 2.029 . S
N546 C548 1.263 . S
N546 C550 1.389 . S
N547 C548 1.358 . S
N547 C549 1.400 . S
C548 N546 1.263 . S
C548 N547 1.358 . S
C548 H554 0.930 . S
C549 N547 1.400 . S
C549 C550 1.351 . S
C549 H566 0.930 . S
C550 N546 1.389 . S
C550 C549 1.351 . S
C550 H555 0.930 . S
O551 Cu545 2.010 . S
O551 C561 1.282 . S
C552 O553 1.261 . S
C552 O565 1.251 . S
O553 C552 1.261 . S
H554 C548 0.930 . S
H555 C550 0.930 . S
N556 Cu545 1.956 1_565 S
N556 C558 1.335 . S
N556 C559 1.390 . S
N557 C558 1.345 . S
N557 C560 1.336 . S
C558 N556 1.335 . S
C558 N557 1.345 . S
C558 H563 0.930 . S
C559 N556 1.390 . S
C559 C560 1.346 . S
C559 H564 0.930 . S
C560 N557 1.336 . S
C560 C559 1.346 . S
C560 H567 0.929 . S
C561 O551 1.282 . S
C561 O562 1.216 . S
O562 C561 1.216 . S
H563 C558 0.930 . S
H564 C559 0.930 . S
O565 Cu545 1.924 1_565 S
O565 C552 1.251 . S
H566 C549 0.930 . S
H567 C560 0.929 . S
Cu568 N569 1.999 . S
Cu568 O574 1.974 . S
Cu568 N579 1.985 . S
Cu568 O588 1.959 . S
N569 Cu568 1.999 . S
N569 C571 1.263 . S
N569 C573 1.389 . S
N570 C571 1.358 . S
N570 C572 1.400 . S
C571 N569 1.263 . S
C571 N570 1.358 . S
C571 H577 0.930 . S
C572 N570 1.400 . S
C572 C573 1.351 . S
C572 H589 0.930 . S
C573 N569 1.389 . S
C573 C572 1.351 . S
C573 H578 0.930 . S
O574 Cu568 1.974 . S
O574 C584 1.282 . S
C575 O576 1.261 . S
C575 O588 1.251 1_655 S
O576 C575 1.261 . S
H577 C571 0.930 . S
H578 C573 0.930 . S
N579 Cu568 1.985 . S
N579 C581 1.335 1_455 S
N579 C582 1.390 . S
N580 C581 1.345 . S
N580 C583 1.336 . S
C581 N579 1.335 1_655 S
C581 N580 1.345 . S
C581 H586 0.930 . S
C582 N579 1.390 . S
C582 C583 1.346 1_455 S
C582 H587 0.930 . S
C583 N580 1.336 . S
C583 C582 1.346 1_655 S
C583 H590 0.929 . S
C584 O574 1.282 . S
C584 O585 1.216 . S
O585 C584 1.216 . S
H586 C581 0.930 . S
H587 C582 0.930 . S
O588 Cu568 1.959 . S
O588 C575 1.251 1_455 S
H589 C572 0.930 . S
H590 C583 0.929 . S
Cu591 N592 1.999 . S
Cu591 O597 1.974 . S
Cu591 N602 1.985 . S
Cu591 O611 1.959 . S
N592 Cu591 1.999 . S
N592 C594 1.263 . S
N592 C596 1.389 . S
N593 C594 1.358 . S
N593 C595 1.400 . S
C594 N592 1.263 . S
C594 N593 1.358 . S
C594 H600 0.930 . S
C595 N593 1.400 . S
C595 C596 1.351 . S
C595 H612 0.930 . S
C596 N592 1.389 . S
C596 C595 1.351 . S
C596 H601 0.930 . S
O597 Cu591 1.974 . S
O597 C607 1.282 . S
C598 O599 1.261 . S
C598 O611 1.251 . S
O599 C598 1.261 . S
H600 C594 0.930 . S
H601 C596 0.930 . S
N602 Cu591 1.985 . S
N602 C604 1.335 1_545 S
N602 C605 1.390 . S
N603 C604 1.345 . S
N603 C606 1.336 . S
C604 N602 1.335 1_565 S
C604 N603 1.345 . S
C604 H609 0.930 . S
C605 N602 1.390 . S
C605 C606 1.346 1_545 S
C605 H610 0.930 . S
C606 N603 1.336 . S
C606 C605 1.346 1_565 S
C606 H613 0.929 . S
C607 O597 1.282 . S
C607 O608 1.216 . S
O608 C607 1.216 . S
H609 C604 0.930 . S
H610 C605 0.930 . S
O611 Cu591 1.959 . S
O611 C598 1.251 . S
H612 C595 0.930 . S
H613 C606 0.929 . S
Cu614 N615 1.999 . S
Cu614 O620 1.974 . S
Cu614 N625 1.985 . S
Cu614 O634 1.959 . S
N615 Cu614 1.999 . S
N615 C617 1.263 . S
N615 C619 1.389 . S
N616 C617 1.358 . S
N616 C618 1.400 . S
C617 N615 1.263 . S
C617 N616 1.358 . S
C617 H623 0.930 . S
C618 N616 1.400 . S
C618 C619 1.351 . S
C618 H635 0.930 . S
C619 N615 1.389 . S
C619 C618 1.351 . S
C619 H624 0.930 . S
O620 Cu614 1.974 . S
O620 C630 1.282 . S
C621 O622 1.261 . S
C621 O634 1.251 . S
O622 C621 1.261 . S
H623 C617 0.930 . S
H624 C619 0.930 . S
N625 Cu614 1.985 . S
N625 C627 1.335 . S
N625 C628 1.390 . S
N626 C627 1.345 . S
N626 C629 1.336 . S
C627 N625 1.335 . S
C627 N626 1.345 . S
C627 H632 0.930 . S
C628 N625 1.390 . S
C628 C629 1.346 . S
C628 H633 0.930 . S
C629 N626 1.336 . S
C629 C628 1.346 . S
C629 H636 0.929 . S
C630 O620 1.282 . S
C630 O631 1.216 . S
O631 C630 1.216 . S
H632 C627 0.930 . S
H633 C628 0.930 . S
O634 Cu614 1.959 . S
O634 C621 1.251 . S
H635 C618 0.930 . S
H636 C629 0.929 . S
Cu637 N638 1.999 . S
Cu637 O643 1.974 . S
Cu637 N648 1.985 . S
Cu637 O657 1.959 . S
N638 Cu637 1.999 . S
N638 C640 1.263 . S
N638 C642 1.389 . S
N639 C640 1.358 . S
N639 C641 1.400 . S
C640 N638 1.263 . S
C640 N639 1.358 . S
C640 H646 0.930 . S
C641 N639 1.400 . S
C641 C642 1.351 . S
C641 H658 0.930 . S
C642 N638 1.389 . S
C642 C641 1.351 . S
C642 H647 0.930 . S
O643 Cu637 1.974 . S
O643 C653 1.282 . S
C644 O645 1.261 . S
C644 O657 1.251 . S
O645 C644 1.261 . S
H646 C640 0.930 . S
H647 C642 0.930 . S
N648 Cu637 1.985 . S
N648 C650 1.335 1_545 S
N648 C651 1.390 . S
N649 C650 1.345 . S
N649 C652 1.336 . S
C650 N648 1.335 1_565 S
C650 N649 1.345 . S
C650 H655 0.930 . S
C651 N648 1.390 . S
C651 C652 1.346 1_545 S
C651 H656 0.930 . S
C652 N649 1.336 . S
C652 C651 1.346 1_565 S
C652 H659 0.929 . S
C653 O643 1.282 . S
C653 O654 1.216 . S
O654 C653 1.216 . S
H655 C650 0.930 . S
H656 C651 0.930 . S
O657 Cu637 1.959 . S
O657 C644 1.251 . S
H658 C641 0.930 . S
H659 C652 0.929 . S
Cu660 N661 1.999 . S
Cu660 O666 1.974 . S
Cu660 N671 1.985 . S
Cu660 O680 1.959 . S
N661 Cu660 1.999 . S
N661 C663 1.263 . S
N661 C665 1.389 . S
N662 C663 1.358 . S
N662 C664 1.400 . S
C663 N661 1.263 . S
C663 N662 1.358 . S
C663 H669 0.930 . S
C664 N662 1.400 . S
C664 C665 1.351 . S
C664 H681 0.930 . S
C665 N661 1.389 . S
C665 C664 1.351 . S
C665 H670 0.930 . S
O666 Cu660 1.974 . S
O666 C676 1.282 . S
C667 O668 1.261 . S
C667 O680 1.251 . S
O668 C667 1.261 . S
H669 C663 0.930 . S
H670 C665 0.930 . S
N671 Cu660 1.985 . S
N671 C673 1.335 . S
N671 C674 1.390 . S
N672 C673 1.345 . S
N672 C675 1.336 . S
C673 N671 1.335 . S
C673 N672 1.345 . S
C673 H678 0.930 . S
C674 N671 1.390 . S
C674 C675 1.346 . S
C674 H679 0.930 . S
C675 N672 1.336 . S
C675 C674 1.346 . S
C675 H682 0.929 . S
C676 O666 1.282 . S
C676 O677 1.216 . S
O677 C676 1.216 . S
H678 C673 0.930 . S
H679 C674 0.930 . S
O680 Cu660 1.959 . S
O680 C667 1.251 . S
H681 C664 0.930 . S
H682 C675 0.929 . S
Cu683 N684 1.999 . S
Cu683 O689 1.974 . S
Cu683 N694 1.985 . S
Cu683 O703 1.959 . S
N684 Cu683 1.999 . S
N684 C686 1.263 . S
N684 C688 1.389 . S
N685 C686 1.358 . S
N685 C687 1.400 . S
C686 N684 1.263 . S
C686 N685 1.358 . S
C686 H692 0.930 . S
C687 N685 1.400 . S
C687 C688 1.351 . S
C687 H704 0.930 . S
C688 N684 1.389 . S
C688 C687 1.351 . S
C688 H693 0.930 . S
O689 Cu683 1.974 . S
O689 C699 1.282 . S
C690 O691 1.261 . S
C690 O703 1.251 . S
O691 C690 1.261 . S
H692 C686 0.930 . S
H693 C688 0.930 . S
N694 Cu683 1.985 . S
N694 C696 1.335 . S
N694 C697 1.390 . S
N695 C696 1.345 . S
N695 C698 1.336 . S
C696 N694 1.335 . S
C696 N695 1.345 . S
C696 H701 0.930 . S
C697 N694 1.390 . S
C697 C698 1.346 . S
C697 H702 0.930 . S
C698 N695 1.336 . S
C698 C697 1.346 . S
C698 H705 0.929 . S
C699 O689 1.282 . S
C699 O700 1.216 . S
O700 C699 1.216 . S
H701 C696 0.930 . S
H702 C697 0.930 . S
O703 Cu683 1.959 . S
O703 C690 1.251 . S
H704 C687 0.930 . S
H705 C698 0.929 . S
Cu706 N707 1.999 . S
Cu706 O712 1.974 . S
Cu706 N717 1.985 . S
Cu706 O726 1.959 . S
N707 Cu706 1.999 . S
N707 C709 1.263 . S
N707 C711 1.389 . S
N708 C709 1.358 . S
N708 C710 1.400 . S
C709 N707 1.263 . S
C709 N708 1.358 . S
C709 H715 0.930 . S
C710 N708 1.400 . S
C710 C711 1.351 . S
C710 H727 0.930 . S
C711 N707 1.389 . S
C711 C710 1.351 . S
C711 H716 0.930 . S
O712 Cu706 1.974 . S
O712 C722 1.282 . S
C713 O714 1.261 . S
C713 O726 1.251 . S
O714 C713 1.261 . S
H715 C709 0.930 . S
H716 C711 0.930 . S
N717 Cu706 1.985 . S
N717 C719 1.335 . S
N717 C720 1.390 . S
N718 C719 1.345 . S
N718 C721 1.336 . S
C719 N717 1.335 . S
C719 N718 1.345 . S
C719 H724 0.930 . S
C720 N717 1.390 . S
C720 C721 1.346 . S
C720 H725 0.930 . S
C721 N718 1.336 . S
C721 C720 1.346 . S
C721 H728 0.929 . S
C722 O712 1.282 . S
C722 O723 1.216 . S
O723 C722 1.216 . S
H724 C719 0.930 . S
H725 C720 0.930 . S
O726 Cu706 1.959 . S
O726 C713 1.251 . S
H727 C710 0.930 . S
H728 C721 0.929 . S
Cu729 N730 1.999 . S
Cu729 O735 1.974 . S
Cu729 N740 1.985 . S
Cu729 O749 1.959 . S
N730 Cu729 1.999 . S
N730 C732 1.263 . S
N730 C734 1.389 . S
N731 C732 1.358 . S
N731 C733 1.400 . S
C732 N730 1.263 . S
C732 N731 1.358 . S
C732 H738 0.930 . S
C733 N731 1.400 . S
C733 C734 1.351 . S
C733 H750 0.930 . S
C734 N730 1.389 . S
C734 C733 1.351 . S
C734 H739 0.930 . S
O735 Cu729 1.974 . S
O735 C745 1.282 . S
C736 O737 1.261 . S
C736 O749 1.251 . S
O737 C736 1.261 . S
H738 C732 0.930 . S
H739 C734 0.930 . S
N740 Cu729 1.985 . S
N740 C742 1.335 . S
N740 C743 1.390 . S
N741 C742 1.345 . S
N741 C744 1.336 . S
C742 N740 1.335 . S
C742 N741 1.345 . S
C742 H747 0.930 . S
C743 N740 1.390 . S
C743 C744 1.346 . S
C743 H748 0.930 . S
C744 N741 1.336 . S
C744 C743 1.346 . S
C744 H751 0.929 . S
C745 O735 1.282 . S
C745 O746 1.216 . S
O746 C745 1.216 . S
H747 C742 0.930 . S
H748 C743 0.930 . S
O749 Cu729 1.959 . S
O749 C736 1.251 . S
H750 C733 0.930 . S
H751 C744 0.929 . S
Cu752 N753 1.999 . S
Cu752 O758 1.974 . S
Cu752 N763 1.985 . S
Cu752 O772 1.959 . S
N753 Cu752 1.999 . S
N753 C755 1.263 . S
N753 C757 1.389 . S
N754 C755 1.358 . S
N754 C756 1.400 . S
C755 N753 1.263 . S
C755 N754 1.358 . S
C755 H761 0.930 . S
C756 N754 1.400 . S
C756 C757 1.351 . S
C756 H773 0.930 . S
C757 N753 1.389 . S
C757 C756 1.351 . S
C757 H762 0.930 . S
O758 Cu752 1.974 . S
O758 C768 1.282 . S
C759 O760 1.261 . S
C759 O772 1.251 . S
O760 C759 1.261 . S
H761 C755 0.930 . S
H762 C757 0.930 . S
N763 Cu752 1.985 . S
N763 C765 1.335 . S
N763 C766 1.390 . S
N764 C765 1.345 . S
N764 C767 1.336 . S
C765 N763 1.335 . S
C765 N764 1.345 . S
C765 H770 0.930 . S
C766 N763 1.390 . S
C766 C767 1.346 . S
C766 H771 0.930 . S
C767 N764 1.336 . S
C767 C766 1.346 . S
C767 H774 0.929 . S
C768 O758 1.282 . S
C768 O769 1.216 . S
O769 C768 1.216 . S
H770 C765 0.930 . S
H771 C766 0.930 . S
O772 Cu752 1.959 . S
O772 C759 1.251 . S
H773 C756 0.930 . S
H774 C767 0.929 . S
Cu775 N776 1.999 . S
Cu775 O781 1.974 . S
Cu775 N786 1.985 . S
Cu775 O795 1.959 . S
N776 Cu775 1.999 . S
N776 C778 1.263 . S
N776 C780 1.389 . S
N777 C778 1.358 . S
N777 C779 1.400 . S
C778 N776 1.263 . S
C778 N777 1.358 . S
C778 H784 0.930 . S
C779 N777 1.400 . S
C779 C780 1.351 . S
C779 H796 0.930 . S
C780 N776 1.389 . S
C780 C779 1.351 . S
C780 H785 0.930 . S
O781 Cu775 1.974 . S
O781 C791 1.282 . S
C782 O783 1.261 . S
C782 O795 1.251 . S
O783 C782 1.261 . S
H784 C778 0.930 . S
H785 C780 0.930 . S
N786 Cu775 1.985 . S
N786 C788 1.335 . S
N786 C789 1.390 . S
N787 C788 1.345 . S
N787 C790 1.336 . S
C788 N786 1.335 . S
C788 N787 1.345 . S
C788 H793 0.930 . S
C789 N786 1.390 . S
C789 C790 1.346 . S
C789 H794 0.930 . S
C790 N787 1.336 . S
C790 C789 1.346 . S
C790 H797 0.929 . S
C791 O781 1.282 . S
C791 O792 1.216 . S
O792 C791 1.216 . S
H793 C788 0.930 . S
H794 C789 0.930 . S
O795 Cu775 1.959 . S
O795 C782 1.251 . S
H796 C779 0.930 . S
H797 C790 0.929 . S
Cu798 N799 1.999 . S
Cu798 O804 1.974 . S
Cu798 N809 1.985 . S
Cu798 O818 1.959 . S
N799 Cu798 1.999 . S
N799 C801 1.263 . S
N799 C803 1.389 . S
N800 C801 1.358 . S
N800 C802 1.400 . S
C801 N799 1.263 . S
C801 N800 1.358 . S
C801 H807 0.930 . S
C802 N800 1.400 . S
C802 C803 1.351 . S
C802 H819 0.930 . S
C803 N799 1.389 . S
C803 C802 1.351 . S
C803 H808 0.930 . S
O804 Cu798 1.974 . S
O804 C814 1.282 . S
C805 O806 1.261 . S
C805 O818 1.251 . S
O806 C805 1.261 . S
H807 C801 0.930 . S
H808 C803 0.930 . S
N809 Cu798 1.985 . S
N809 C811 1.335 . S
N809 C812 1.390 . S
N810 C811 1.345 . S
N810 C813 1.336 . S
C811 N809 1.335 . S
C811 N810 1.345 . S
C811 H816 0.930 . S
C812 N809 1.390 . S
C812 C813 1.346 . S
C812 H817 0.930 . S
C813 N810 1.336 . S
C813 C812 1.346 . S
C813 H820 0.929 . S
C814 O804 1.282 . S
C814 O815 1.216 . S
O815 C814 1.216 . S
H816 C811 0.930 . S
H817 C812 0.930 . S
O818 Cu798 1.959 . S
O818 C805 1.251 . S
H819 C802 0.930 . S
H820 C813 0.929 . S
Cu821 N822 1.999 . S
Cu821 O827 1.974 . S
Cu821 N832 1.985 . S
Cu821 O841 1.959 . S
N822 Cu821 1.999 . S
N822 C824 1.263 . S
N822 C826 1.389 . S
N823 C824 1.358 . S
N823 C825 1.400 . S
C824 N822 1.263 . S
C824 N823 1.358 . S
C824 H830 0.930 . S
C825 N823 1.400 . S
C825 C826 1.351 . S
C825 H842 0.930 . S
C826 N822 1.389 . S
C826 C825 1.351 . S
C826 H831 0.930 . S
O827 Cu821 1.974 . S
O827 C837 1.282 . S
C828 O829 1.261 . S
C828 O841 1.251 . S
O829 C828 1.261 . S
H830 C824 0.930 . S
H831 C826 0.930 . S
N832 Cu821 1.985 . S
N832 C834 1.335 . S
N832 C835 1.390 . S
N833 C834 1.345 . S
N833 C836 1.336 . S
C834 N832 1.335 . S
C834 N833 1.345 . S
C834 H839 0.930 . S
C835 N832 1.390 . S
C835 C836 1.346 . S
C835 H840 0.930 . S
C836 N833 1.336 . S
C836 C835 1.346 . S
C836 H843 0.929 . S
C837 O827 1.282 . S
C837 O838 1.216 . S
O838 C837 1.216 . S
H839 C834 0.930 . S
H840 C835 0.930 . S
O841 Cu821 1.959 . S
O841 C828 1.251 . S
H842 C825 0.930 . S
H843 C836 0.929 . S
Cu844 N845 1.999 . S
Cu844 O850 1.974 . S
Cu844 N855 1.985 . S
Cu844 O864 1.959 . S
N845 Cu844 1.999 . S
N845 C847 1.263 . S
N845 C849 1.389 . S
N846 C847 1.358 . S
N846 C848 1.400 . S
C847 N845 1.263 . S
C847 N846 1.358 . S
C847 H853 0.930 . S
C848 N846 1.400 . S
C848 C849 1.351 . S
C848 H865 0.930 . S
C849 N845 1.389 . S
C849 C848 1.351 . S
C849 H854 0.930 . S
O850 Cu844 1.974 . S
O850 C860 1.282 . S
C851 O852 1.261 . S
C851 O864 1.251 . S
O852 C851 1.261 . S
H853 C847 0.930 . S
H854 C849 0.930 . S
N855 Cu844 1.985 . S
N855 C857 1.335 . S
N855 C858 1.390 . S
N856 C857 1.345 . S
N856 C859 1.336 . S
C857 N855 1.335 . S
C857 N856 1.345 . S
C857 H862 0.930 . S
C858 N855 1.390 . S
C858 C859 1.346 . S
C858 H863 0.930 . S
C859 N856 1.336 . S
C859 C858 1.346 . S
C859 H866 0.929 . S
C860 O850 1.282 . S
C860 O861 1.216 . S
O861 C860 1.216 . S
H862 C857 0.930 . S
H863 C858 0.930 . S
O864 Cu844 1.959 . S
O864 C851 1.251 . S
H865 C848 0.930 . S
H866 C859 0.929 . S
Cu867 N868 1.999 . S
Cu867 O873 1.974 . S
Cu867 N878 1.985 . S
Cu867 O887 1.959 . S
N868 Cu867 1.999 . S
N868 C870 1.263 . S
N868 C872 1.389 . S
N869 C870 1.358 . S
N869 C871 1.400 . S
C870 N868 1.263 . S
C870 N869 1.358 . S
C870 H876 0.930 . S
C871 N869 1.400 . S
C871 C872 1.351 . S
C871 H888 0.930 . S
C872 N868 1.389 . S
C872 C871 1.351 . S
C872 H877 0.930 . S
O873 Cu867 1.974 . S
O873 C883 1.282 . S
C874 O875 1.261 . S
C874 O887 1.251 . S
O875 C874 1.261 . S
H876 C870 0.930 . S
H877 C872 0.930 . S
N878 Cu867 1.985 . S
N878 C880 1.335 . S
N878 C881 1.390 . S
N879 C880 1.345 . S
N879 C882 1.336 . S
C880 N878 1.335 . S
C880 N879 1.345 . S
C880 H885 0.930 . S
C881 N878 1.390 . S
C881 C882 1.346 . S
C881 H886 0.930 . S
C882 N879 1.336 . S
C882 C881 1.346 . S
C882 H889 0.929 . S
C883 O873 1.282 . S
C883 O884 1.216 . S
O884 C883 1.216 . S
H885 C880 0.930 . S
H886 C881 0.930 . S
O887 Cu867 1.959 . S
O887 C874 1.251 . S
H888 C871 0.930 . S
H889 C882 0.929 . S
Cu890 N891 1.999 . S
Cu890 O896 1.974 . S
Cu890 N901 1.985 . S
Cu890 O910 1.959 . S
N891 Cu890 1.999 . S
N891 C893 1.263 . S
N891 C895 1.389 . S
N892 C893 1.358 . S
N892 C894 1.400 . S
C893 N891 1.263 . S
C893 N892 1.358 . S
C893 H899 0.930 . S
C894 N892 1.400 . S
C894 C895 1.351 . S
C894 H911 0.930 . S
C895 N891 1.389 . S
C895 C894 1.351 . S
C895 H900 0.930 . S
O896 Cu890 1.974 . S
O896 C906 1.282 . S
C897 O898 1.261 . S
C897 O910 1.251 . S
O898 C897 1.261 . S
H899 C893 0.930 . S
H900 C895 0.930 . S
N901 Cu890 1.985 . S
N901 C903 1.335 . S
N901 C904 1.390 . S
N902 C903 1.345 . S
N902 C905 1.336 . S
C903 N901 1.335 . S
C903 N902 1.345 . S
C903 H908 0.930 . S
C904 N901 1.390 . S
C904 C905 1.346 . S
C904 H909 0.930 . S
C905 N902 1.336 . S
C905 C904 1.346 . S
C905 H912 0.929 . S
C906 O896 1.282 . S
C906 O907 1.216 . S
O907 C906 1.216 . S
H908 C903 0.930 . S
H909 C904 0.930 . S
O910 Cu890 1.959 . S
O910 C897 1.251 . S
H911 C894 0.930 . S
H912 C905 0.929 . S
Cu913 N914 1.999 . S
Cu913 O919 1.974 . S
Cu913 N924 1.985 . S
Cu913 O933 1.959 . S
N914 Cu913 1.999 . S
N914 C916 1.263 . S
N914 C918 1.389 . S
N915 C916 1.358 . S
N915 C917 1.400 . S
C916 N914 1.263 . S
C916 N915 1.358 . S
C916 H922 0.930 . S
C917 N915 1.400 . S
C917 C918 1.351 . S
C917 H934 0.930 . S
C918 N914 1.389 . S
C918 C917 1.351 . S
C918 H923 0.930 . S
O919 Cu913 1.974 . S
O919 C929 1.282 . S
C920 O921 1.261 . S
C920 O933 1.251 . S
O921 C920 1.261 . S
H922 C916 0.930 . S
H923 C918 0.930 . S
N924 Cu913 1.985 . S
N924 C926 1.335 . S
N924 C927 1.390 . S
N925 C926 1.345 . S
N925 C928 1.336 . S
C926 N924 1.335 . S
C926 N925 1.345 . S
C926 H931 0.930 . S
C927 N924 1.390 . S
C927 C928 1.346 . S
C927 H932 0.930 . S
C928 N925 1.336 . S
C928 C927 1.346 . S
C928 H935 0.929 . S
C929 O919 1.282 . S
C929 O930 1.216 . S
O930 C929 1.216 . S
H931 C926 0.930 . S
H932 C927 0.930 . S
O933 Cu913 1.959 . S
O933 C920 1.251 . S
H934 C917 0.930 . S
H935 C928 0.929 . S
C936 C937 1.369 . S
C936 C938 1.419 . S
C936 H940 0.930 . S
C937 C936 1.369 . S
C937 C946 1.429 . S
C938 C936 1.419 . S
C938 C939 1.363 . S
C938 H941 0.929 . S
C939 C938 1.363 . S
C939 C945 1.428 . S
H940 C936 0.930 . S
H941 C938 0.929 . S
S942 N943 1.613 . S
S942 N944 1.610 . S
N943 S942 1.613 . S
N943 C946 1.350 . S
N944 S942 1.610 . S
N944 C945 1.351 . S
C945 C939 1.428 . S
C945 N944 1.351 . S
C945 C946 1.434 . S
C946 C937 1.429 . S
C946 N943 1.350 . S
C946 C945 1.434 . S
C947 C948 1.369 . S
C947 C949 1.419 . S
C947 H951 0.930 . S
C948 C947 1.369 . S
C948 C957 1.429 . S
C949 C947 1.419 . S
C949 C950 1.363 . S
C949 H952 0.929 . S
C950 C949 1.363 . S
C950 C956 1.428 . S
H951 C947 0.930 . S
H952 C949 0.929 . S
S953 N954 1.613 . S
S953 N955 1.610 . S
N954 S953 1.613 . S
N954 C957 1.350 . S
N955 S953 1.610 . S
N955 C956 1.351 . S
C956 C950 1.428 . S
C956 N955 1.351 . S
C956 C957 1.434 . S
C957 C948 1.429 . S
C957 N954 1.350 . S
C957 C956 1.434 . S
C958 C959 1.369 . S
C958 C960 1.419 . S
C958 H962 0.930 . S
C959 C958 1.369 . S
C959 C968 1.429 . S
C960 C958 1.419 . S
C960 C961 1.363 . S
C960 H963 0.929 . S
C961 C960 1.363 . S
C961 C967 1.428 . S
H962 C958 0.930 . S
H963 C960 0.929 . S
S964 N965 1.613 . S
S964 N966 1.610 . S
N965 S964 1.613 . S
N965 C968 1.350 . S
N966 S964 1.610 . S
N966 C967 1.351 . S
C967 C961 1.428 . S
C967 N966 1.351 . S
C967 C968 1.434 . S
C968 C959 1.429 . S
C968 N965 1.350 . S
C968 C967 1.434 . S
C969 C970 1.369 . S
C969 C971 1.419 . S
C969 H973 0.930 . S
C970 C969 1.369 . S
C970 C979 1.429 . S
C971 C969 1.419 . S
C971 C972 1.363 . S
C971 H974 0.929 . S
C972 C971 1.363 . S
C972 C978 1.428 . S
H973 C969 0.930 . S
H974 C971 0.929 . S
S975 N976 1.613 . S
S975 N977 1.610 . S
N976 S975 1.613 . S
N976 C979 1.350 . S
N977 S975 1.610 . S
N977 C978 1.351 . S
C978 C972 1.428 . S
C978 N977 1.351 . S
C978 C979 1.434 . S
C979 C970 1.429 . S
C979 N976 1.350 . S
C979 C978 1.434 . S
C980 C981 1.369 . S
C980 C982 1.419 . S
C980 H984 0.930 . S
C981 C980 1.369 . S
C981 C990 1.429 . S
C982 C980 1.419 . S
C982 C983 1.363 . S
C982 H985 0.929 . S
C983 C982 1.363 . S
C983 C989 1.428 . S
H984 C980 0.930 . S
H985 C982 0.929 . S
S986 N987 1.613 . S
S986 N988 1.610 . S
N987 S986 1.613 . S
N987 C990 1.350 . S
N988 S986 1.610 . S
N988 C989 1.351 . S
C989 C983 1.428 . S
C989 N988 1.351 . S
C989 C990 1.434 . S
C990 C981 1.429 . S
C990 N987 1.350 . S
C990 C989 1.434 . S
C991 C992 1.369 . S
C991 C993 1.419 . S
C991 H995 0.930 . S
C992 C991 1.369 . S
C992 C1001 1.429 . S
C993 C991 1.419 . S
C993 C994 1.363 . S
C993 H996 0.929 . S
C994 C993 1.363 . S
C994 C1000 1.428 . S
H995 C991 0.930 . S
H996 C993 0.929 . S
S997 N998 1.613 . S
S997 N999 1.610 . S
N998 S997 1.613 . S
N998 C1001 1.350 . S
N999 S997 1.610 . S
N999 C1000 1.351 . S
C1000 C994 1.428 . S
C1000 N999 1.351 . S
C1000 C1001 1.434 . S
C1001 C992 1.429 . S
C1001 N998 1.350 . S
C1001 C1000 1.434 . S
C1002 C1003 1.369 . S
C1002 C1004 1.419 . S
C1002 H1006 0.930 . S
C1003 C1002 1.369 . S
C1003 C1012 1.429 . S
C1004 C1002 1.419 . S
C1004 C1005 1.363 . S
C1004 H1007 0.929 . S
C1005 C1004 1.363 . S
C1005 C1011 1.428 . S
H1006 C1002 0.930 . S
H1007 C1004 0.929 . S
S1008 N1009 1.613 . S
S1008 N1010 1.610 . S
N1009 S1008 1.613 . S
N1009 C1012 1.350 . S
N1010 S1008 1.610 . S
N1010 C1011 1.351 . S
C1011 C1005 1.428 . S
C1011 N1010 1.351 . S
C1011 C1012 1.434 . S
C1012 C1003 1.429 . S
C1012 N1009 1.350 . S
C1012 C1011 1.434 . S
C1013 C1014 1.369 . S
C1013 C1015 1.419 . S
C1013 H1017 0.930 . S
C1014 C1013 1.369 . S
C1014 C1023 1.429 . S
C1015 C1013 1.419 . S
C1015 C1016 1.363 . S
C1015 H1018 0.929 . S
C1016 C1015 1.363 . S
C1016 C1022 1.428 . S
H1017 C1013 0.930 . S
H1018 C1015 0.929 . S
S1019 N1020 1.613 . S
S1019 N1021 1.610 . S
N1020 S1019 1.613 . S
N1020 C1023 1.350 . S
N1021 S1019 1.610 . S
N1021 C1022 1.351 . S
C1022 C1016 1.428 . S
C1022 N1021 1.351 . S
C1022 C1023 1.434 . S
C1023 C1014 1.429 . S
C1023 N1020 1.350 . S
C1023 C1022 1.434 . S
C1024 C1025 1.369 . S
C1024 C1026 1.419 . S
C1024 H1028 0.930 . S
C1025 C1024 1.369 . S
C1025 C1034 1.429 . S
C1026 C1024 1.419 . S
C1026 C1027 1.363 . S
C1026 H1029 0.929 . S
C1027 C1026 1.363 . S
C1027 C1033 1.428 . S
H1028 C1024 0.930 . S
H1029 C1026 0.929 . S
S1030 N1031 1.613 . S
S1030 N1032 1.610 . S
N1031 S1030 1.613 . S
N1031 C1034 1.350 . S
N1032 S1030 1.610 . S
N1032 C1033 1.351 . S
C1033 C1027 1.428 . S
C1033 N1032 1.351 . S
C1033 C1034 1.434 . S
C1034 C1025 1.429 . S
C1034 N1031 1.350 . S
C1034 C1033 1.434 . S
C1035 C1036 1.369 . S
C1035 C1037 1.419 . S
C1035 H1039 0.930 . S
C1036 C1035 1.369 . S
C1036 C1045 1.429 . S
C1037 C1035 1.419 . S
C1037 C1038 1.363 . S
C1037 H1040 0.929 . S
C1038 C1037 1.363 . S
C1038 C1044 1.428 . S
H1039 C1035 0.930 . S
H1040 C1037 0.929 . S
S1041 N1042 1.613 . S
S1041 N1043 1.610 . S
N1042 S1041 1.613 . S
N1042 C1045 1.350 . S
N1043 S1041 1.610 . S
N1043 C1044 1.351 . S
C1044 C1038 1.428 . S
C1044 N1043 1.351 . S
C1044 C1045 1.434 . S
C1045 C1036 1.429 . S
C1045 N1042 1.350 . S
C1045 C1044 1.434 . S
C1046 C1047 1.369 . S
C1046 C1048 1.419 . S
C1046 H1050 0.930 . S
C1047 C1046 1.369 . S
C1047 C1056 1.429 . S
C1048 C1046 1.419 . S
C1048 C1049 1.363 . S
C1048 H1051 0.929 . S
C1049 C1048 1.363 . S
C1049 C1055 1.428 . S
H1050 C1046 0.930 . S
H1051 C1048 0.929 . S
S1052 N1053 1.613 . S
S1052 N1054 1.610 . S
N1053 S1052 1.613 . S
N1053 C1056 1.350 . S
N1054 S1052 1.610 . S
N1054 C1055 1.351 . S
C1055 C1049 1.428 . S
C1055 N1054 1.351 . S
C1055 C1056 1.434 . S
C1056 C1047 1.429 . S
C1056 N1053 1.350 . S
C1056 C1055 1.434 . S
C1057 C1058 1.369 . S
C1057 C1059 1.419 . S
C1057 H1061 0.930 . S
C1058 C1057 1.369 . S
C1058 C1067 1.429 . S
C1059 C1057 1.419 . S
C1059 C1060 1.363 . S
C1059 H1062 0.929 . S
C1060 C1059 1.363 . S
C1060 C1066 1.428 . S
H1061 C1057 0.930 . S
H1062 C1059 0.929 . S
S1063 N1064 1.613 . S
S1063 N1065 1.610 . S
N1064 S1063 1.613 . S
N1064 C1067 1.350 . S
N1065 S1063 1.610 . S
N1065 C1066 1.351 . S
C1066 C1060 1.428 . S
C1066 N1065 1.351 . S
C1066 C1067 1.434 . S
C1067 C1058 1.429 . S
C1067 N1064 1.350 . S
C1067 C1066 1.434 . S
C1068 C1069 1.369 . S
C1068 C1070 1.419 . S
C1068 H1072 0.930 . S
C1069 C1068 1.369 . S
C1069 C1078 1.429 . S
C1070 C1068 1.419 . S
C1070 C1071 1.363 . S
C1070 H1073 0.929 . S
C1071 C1070 1.363 . S
C1071 C1077 1.428 . S
H1072 C1068 0.930 . S
H1073 C1070 0.929 . S
S1074 N1075 1.613 . S
S1074 N1076 1.610 . S
N1075 S1074 1.613 . S
N1075 C1078 1.350 . S
N1076 S1074 1.610 . S
N1076 C1077 1.351 . S
C1077 C1071 1.428 . S
C1077 N1076 1.351 . S
C1077 C1078 1.434 . S
C1078 C1069 1.429 . S
C1078 N1075 1.350 . S
C1078 C1077 1.434 . S
C1079 C1080 1.369 . S
C1079 C1081 1.419 . S
C1079 H1083 0.930 . S
C1080 C1079 1.369 . S
C1080 C1089 1.429 . S
C1081 C1079 1.419 . S
C1081 C1082 1.363 . S
C1081 H1084 0.929 . S
C1082 C1081 1.363 . S
C1082 C1088 1.428 . S
H1083 C1079 0.930 . S
H1084 C1081 0.929 . S
S1085 N1086 1.613 . S
S1085 N1087 1.610 . S
N1086 S1085 1.613 . S
N1086 C1089 1.350 . S
N1087 S1085 1.610 . S
N1087 C1088 1.351 . S
C1088 C1082 1.428 . S
C1088 N1087 1.351 . S
C1088 C1089 1.434 . S
C1089 C1080 1.429 . S
C1089 N1086 1.350 . S
C1089 C1088 1.434 . S
C1090 C1091 1.369 . S
C1090 C1092 1.419 . S
C1090 H1094 0.930 . S
C1091 C1090 1.369 . S
C1091 C1100 1.429 . S
C1092 C1090 1.419 . S
C1092 C1093 1.363 . S
C1092 H1095 0.929 . S
C1093 C1092 1.363 . S
C1093 C1099 1.428 . S
H1094 C1090 0.930 . S
H1095 C1092 0.929 . S
S1096 N1097 1.613 . S
S1096 N1098 1.610 1_655 S
N1097 S1096 1.613 . S
N1097 C1100 1.350 . S
N1098 S1096 1.610 1_455 S
N1098 C1099 1.351 1_455 S
C1099 C1093 1.428 . S
C1099 N1098 1.351 1_655 S
C1099 C1100 1.434 . S
C1100 C1091 1.429 . S
C1100 N1097 1.350 . S
C1100 C1099 1.434 . S
C1101 C1102 1.369 . S
C1101 C1103 1.419 1_565 S
C1101 H1105 0.930 . S
C1102 C1101 1.369 . S
C1102 C1111 1.429 . S
C1103 C1101 1.419 1_545 S
C1103 C1104 1.363 . S
C1103 H1106 0.929 . S
C1104 C1103 1.363 . S
C1104 C1110 1.428 1_545 S
H1105 C1101 0.930 . S
H1106 C1103 0.929 . S
S1107 N1108 1.613 . S
S1107 N1109 1.610 . S
N1108 S1107 1.613 . S
N1108 C1111 1.350 . S
N1109 S1107 1.610 . S
N1109 C1110 1.351 . S
C1110 C1104 1.428 1_565 S
C1110 N1109 1.351 . S
C1110 C1111 1.434 . S
C1111 C1102 1.429 . S
C1111 N1108 1.350 . S
C1111 C1110 1.434 . S
C1112 C1113 1.369 . S
C1112 C1114 1.419 . S
C1112 H1116 0.930 . S
C1113 C1112 1.369 . S
C1113 C1122 1.429 . S
C1114 C1112 1.419 . S
C1114 C1115 1.363 . S
C1114 H1117 0.929 . S
C1115 C1114 1.363 . S
C1115 C1121 1.428 . S
H1116 C1112 0.930 . S
H1117 C1114 0.929 . S
S1118 N1119 1.613 . S
S1118 N1120 1.610 . S
N1119 S1118 1.613 . S
N1119 C1122 1.350 . S
N1120 S1118 1.610 . S
N1120 C1121 1.351 . S
C1121 C1115 1.428 . S
C1121 N1120 1.351 . S
C1121 C1122 1.434 . S
C1122 C1113 1.429 . S
C1122 N1119 1.350 . S
C1122 C1121 1.434 . S
C1123 C1124 1.369 . S
C1123 C1125 1.419 . S
C1123 H1127 0.930 . S
C1124 C1123 1.369 . S
C1124 C1133 1.429 . S
C1125 C1123 1.419 . S
C1125 C1126 1.363 . S
C1125 H1128 0.929 . S
C1126 C1125 1.363 . S
C1126 C1132 1.428 . S
H1127 C1123 0.930 . S
H1128 C1125 0.929 . S
S1129 N1130 1.613 . S
S1129 N1131 1.610 . S
N1130 S1129 1.613 . S
N1130 C1133 1.350 . S
N1131 S1129 1.610 . S
N1131 C1132 1.351 . S
C1132 C1126 1.428 . S
C1132 N1131 1.351 . S
C1132 C1133 1.434 . S
C1133 C1124 1.429 . S
C1133 N1130 1.350 . S
C1133 C1132 1.434 . S
C1134 C1135 1.369 . S
C1134 C1136 1.419 . S
C1134 H1138 0.930 . S
C1135 C1134 1.369 . S
C1135 C1144 1.429 . S
C1136 C1134 1.419 . S
C1136 C1137 1.363 . S
C1136 H1139 0.929 . S
C1137 C1136 1.363 . S
C1137 C1143 1.428 . S
H1138 C1134 0.930 . S
H1139 C1136 0.929 . S
S1140 N1141 1.613 . S
S1140 N1142 1.610 . S
N1141 S1140 1.613 . S
N1141 C1144 1.350 . S
N1142 S1140 1.610 . S
N1142 C1143 1.351 . S
C1143 C1137 1.428 . S
C1143 N1142 1.351 . S
C1143 C1144 1.434 . S
C1144 C1135 1.429 . S
C1144 N1141 1.350 . S
C1144 C1143 1.434 . S
C1145 C1146 1.369 . S
C1145 C1147 1.419 . S
C1145 H1149 0.930 . S
C1146 C1145 1.369 . S
C1146 C1155 1.429 . S
C1147 C1145 1.419 . S
C1147 C1148 1.363 . S
C1147 H1150 0.929 . S
C1148 C1147 1.363 . S
C1148 C1154 1.428 . S
H1149 C1145 0.930 . S
H1150 C1147 0.929 . S
S1151 N1152 1.613 . S
S1151 N1153 1.610 . S
N1152 S1151 1.613 . S
N1152 C1155 1.350 . S
N1153 S1151 1.610 . S
N1153 C1154 1.351 . S
C1154 C1148 1.428 . S
C1154 N1153 1.351 . S
C1154 C1155 1.434 . S
C1155 C1146 1.429 . S
C1155 N1152 1.350 . S
C1155 C1154 1.434 . S
C1156 C1157 1.369 . S
C1156 C1158 1.419 . S
C1156 H1160 0.930 . S
C1157 C1156 1.369 . S
C1157 C1166 1.429 . S
C1158 C1156 1.419 . S
C1158 C1159 1.363 . S
C1158 H1161 0.929 . S
C1159 C1158 1.363 . S
C1159 C1165 1.428 . S
H1160 C1156 0.930 . S
H1161 C1158 0.929 . S
S1162 N1163 1.613 . S
S1162 N1164 1.610 . S
N1163 S1162 1.613 . S
N1163 C1166 1.350 . S
N1164 S1162 1.610 . S
N1164 C1165 1.351 . S
C1165 C1159 1.428 . S
C1165 N1164 1.351 . S
C1165 C1166 1.434 . S
C1166 C1157 1.429 . S
C1166 N1163 1.350 . S
C1166 C1165 1.434 . S
C1167 C1168 1.369 . S
C1167 C1169 1.419 . S
C1167 H1171 0.930 . S
C1168 C1167 1.369 . S
C1168 C1177 1.429 . S
C1169 C1167 1.419 . S
C1169 C1170 1.363 . S
C1169 H1172 0.929 . S
C1170 C1169 1.363 . S
C1170 C1176 1.428 . S
H1171 C1167 0.930 . S
H1172 C1169 0.929 . S
S1173 N1174 1.613 . S
S1173 N1175 1.610 . S
N1174 S1173 1.613 . S
N1174 C1177 1.350 . S
N1175 S1173 1.610 . S
N1175 C1176 1.351 . S
C1176 C1170 1.428 . S
C1176 N1175 1.351 . S
C1176 C1177 1.434 . S
C1177 C1168 1.429 . S
C1177 N1174 1.350 . S
C1177 C1176 1.434 . S
C1178 C1179 1.369 . S
C1178 C1180 1.419 . S
C1178 H1182 0.930 . S
C1179 C1178 1.369 . S
C1179 C1188 1.429 . S
C1180 C1178 1.419 . S
C1180 C1181 1.363 . S
C1180 H1183 0.929 . S
C1181 C1180 1.363 . S
C1181 C1187 1.428 . S
H1182 C1178 0.930 . S
H1183 C1180 0.929 . S
S1184 N1185 1.613 . S
S1184 N1186 1.610 . S
N1185 S1184 1.613 . S
N1185 C1188 1.350 . S
N1186 S1184 1.610 . S
N1186 C1187 1.351 . S
C1187 C1181 1.428 . S
C1187 N1186 1.351 . S
C1187 C1188 1.434 . S
C1188 C1179 1.429 . S
C1188 N1185 1.350 . S
C1188 C1187 1.434 . S
C1189 C1190 1.369 . S
C1189 C1191 1.419 . S
C1189 H1193 0.930 . S
C1190 C1189 1.369 . S
C1190 C1199 1.429 . S
C1191 C1189 1.419 . S
C1191 C1192 1.363 . S
C1191 H1194 0.929 . S
C1192 C1191 1.363 . S
C1192 C1198 1.428 . S
H1193 C1189 0.930 . S
H1194 C1191 0.929 . S
S1195 N1196 1.613 . S
S1195 N1197 1.610 . S
N1196 S1195 1.613 . S
N1196 C1199 1.350 . S
N1197 S1195 1.610 . S
N1197 C1198 1.351 . S
C1198 C1192 1.428 . S
C1198 N1197 1.351 . S
C1198 C1199 1.434 . S
C1199 C1190 1.429 . S
C1199 N1196 1.350 . S
C1199 C1198 1.434 . S
C1200 C1201 1.369 . S
C1200 C1202 1.419 . S
C1200 H1204 0.930 . S
C1201 C1200 1.369 . S
C1201 C1210 1.429 . S
C1202 C1200 1.419 . S
C1202 C1203 1.363 . S
C1202 H1205 0.929 . S
C1203 C1202 1.363 . S
C1203 C1209 1.428 . S
H1204 C1200 0.930 . S
H1205 C1202 0.929 . S
S1206 N1207 1.613 . S
S1206 N1208 1.610 . S
N1207 S1206 1.613 . S
N1207 C1210 1.350 . S
N1208 S1206 1.610 . S
N1208 C1209 1.351 . S
C1209 C1203 1.428 . S
C1209 N1208 1.351 . S
C1209 C1210 1.434 . S
C1210 C1201 1.429 . S
C1210 N1207 1.350 . S
C1210 C1209 1.434 . S
C1211 C1212 1.369 . S
C1211 C1213 1.419 . S
C1211 H1215 0.930 . S
C1212 C1211 1.369 . S
C1212 C1221 1.429 . S
C1213 C1211 1.419 . S
C1213 C1214 1.363 . S
C1213 H1216 0.929 . S
C1214 C1213 1.363 . S
C1214 C1220 1.428 . S
H1215 C1211 0.930 . S
H1216 C1213 0.929 . S
S1217 N1218 1.613 . S
S1217 N1219 1.610 . S
N1218 S1217 1.613 . S
N1218 C1221 1.350 . S
N1219 S1217 1.610 . S
N1219 C1220 1.351 . S
C1220 C1214 1.428 . S
C1220 N1219 1.351 . S
C1220 C1221 1.434 . S
C1221 C1212 1.429 . S
C1221 N1218 1.350 . S
C1221 C1220 1.434 . S
C1222 C1223 1.369 . S
C1222 C1224 1.419 . S
C1222 H1226 0.930 . S
C1223 C1222 1.369 . S
C1223 C1232 1.429 . S
C1224 C1222 1.419 . S
C1224 C1225 1.363 . S
C1224 H1227 0.929 . S
C1225 C1224 1.363 . S
C1225 C1231 1.428 . S
H1226 C1222 0.930 . S
H1227 C1224 0.929 . S
S1228 N1229 1.613 . S
S1228 N1230 1.610 . S
N1229 S1228 1.613 . S
N1229 C1232 1.350 . S
N1230 S1228 1.610 . S
N1230 C1231 1.351 . S
C1231 C1225 1.428 . S
C1231 N1230 1.351 . S
C1231 C1232 1.434 . S
C1232 C1223 1.429 . S
C1232 N1229 1.350 . S
C1232 C1231 1.434 . S
C1233 C1234 1.369 . S
C1233 C1235 1.419 . S
C1233 H1237 0.930 . S
C1234 C1233 1.369 . S
C1234 C1243 1.429 . S
C1235 C1233 1.419 . S
C1235 C1236 1.363 . S
C1235 H1238 0.929 . S
C1236 C1235 1.363 . S
C1236 C1242 1.428 . S
H1237 C1233 0.930 . S
H1238 C1235 0.929 . S
S1239 N1240 1.613 . S
S1239 N1241 1.610 . S
N1240 S1239 1.613 . S
N1240 C1243 1.350 . S
N1241 S1239 1.610 . S
N1241 C1242 1.351 . S
C1242 C1236 1.428 . S
C1242 N1241 1.351 . S
C1242 C1243 1.434 . S
C1243 C1234 1.429 . S
C1243 N1240 1.350 . S
C1243 C1242 1.434 . S
C1244 C1245 1.369 . S
C1244 C1246 1.419 . S
C1244 H1248 0.930 . S
C1245 C1244 1.369 . S
C1245 C1254 1.429 . S
C1246 C1244 1.419 . S
C1246 C1247 1.363 . S
C1246 H1249 0.929 . S
C1247 C1246 1.363 . S
C1247 C1253 1.428 . S
H1248 C1244 0.930 . S
H1249 C1246 0.929 . S
S1250 N1251 1.613 . S
S1250 N1252 1.610 . S
N1251 S1250 1.613 . S
N1251 C1254 1.350 . S
N1252 S1250 1.610 . S
N1252 C1253 1.351 . S
C1253 C1247 1.428 . S
C1253 N1252 1.351 . S
C1253 C1254 1.434 . S
C1254 C1245 1.429 . S
C1254 N1251 1.350 . S
C1254 C1253 1.434 . S
C1255 C1256 1.369 . S
C1255 C1257 1.419 . S
C1255 H1259 0.930 . S
C1256 C1255 1.369 . S
C1256 C1265 1.429 . S
C1257 C1255 1.419 . S
C1257 C1258 1.363 . S
C1257 H1260 0.929 . S
C1258 C1257 1.363 . S
C1258 C1264 1.428 . S
H1259 C1255 0.930 . S
H1260 C1257 0.929 . S
S1261 N1262 1.613 . S
S1261 N1263 1.610 . S
N1262 S1261 1.613 . S
N1262 C1265 1.350 . S
N1263 S1261 1.610 . S
N1263 C1264 1.351 . S
C1264 C1258 1.428 . S
C1264 N1263 1.351 . S
C1264 C1265 1.434 . S
C1265 C1256 1.429 . S
C1265 N1262 1.350 . S
C1265 C1264 1.434 . S
C1266 C1267 1.369 . S
C1266 C1268 1.419 . S
C1266 H1270 0.930 . S
C1267 C1266 1.369 . S
C1267 C1276 1.429 . S
C1268 C1266 1.419 . S
C1268 C1269 1.363 . S
C1268 H1271 0.929 . S
C1269 C1268 1.363 . S
C1269 C1275 1.428 . S
H1270 C1266 0.930 . S
H1271 C1268 0.929 . S
S1272 N1273 1.613 . S
S1272 N1274 1.610 . S
N1273 S1272 1.613 . S
N1273 C1276 1.350 . S
N1274 S1272 1.610 . S
N1274 C1275 1.351 . S
C1275 C1269 1.428 . S
C1275 N1274 1.351 . S
C1275 C1276 1.434 . S
C1276 C1267 1.429 . S
C1276 N1273 1.350 . S
C1276 C1275 1.434 . S
C1277 C1278 1.369 . S
C1277 C1279 1.419 . S
C1277 H1281 0.930 . S
C1278 C1277 1.369 . S
C1278 C1287 1.429 . S
C1279 C1277 1.419 . S
C1279 C1280 1.363 . S
C1279 H1282 0.929 . S
C1280 C1279 1.363 . S
C1280 C1286 1.428 . S
H1281 C1277 0.930 . S
H1282 C1279 0.929 . S
S1283 N1284 1.613 . S
S1283 N1285 1.610 . S
N1284 S1283 1.613 . S
N1284 C1287 1.350 . S
N1285 S1283 1.610 . S
N1285 C1286 1.351 . S
C1286 C1280 1.428 . S
C1286 N1285 1.351 . S
C1286 C1287 1.434 . S
C1287 C1278 1.429 . S
C1287 N1284 1.350 . S
C1287 C1286 1.434 . S
C1288 C1289 1.369 . S
C1288 C1290 1.419 . S
C1288 H1292 0.930 . S
C1289 C1288 1.369 . S
C1289 C1298 1.429 . S
C1290 C1288 1.419 . S
C1290 C1291 1.363 . S
C1290 H1293 0.929 . S
C1291 C1290 1.363 . S
C1291 C1297 1.428 . S
H1292 C1288 0.930 . S
H1293 C1290 0.929 . S
S1294 N1295 1.613 . S
S1294 N1296 1.610 . S
N1295 S1294 1.613 . S
N1295 C1298 1.350 . S
N1296 S1294 1.610 . S
N1296 C1297 1.351 . S
C1297 C1291 1.428 . S
C1297 N1296 1.351 . S
C1297 C1298 1.434 . S
C1298 C1289 1.429 . S
C1298 N1295 1.350 . S
C1298 C1297 1.434 . S
C1299 C1300 1.369 . S
C1299 C1301 1.419 . S
C1299 H1303 0.930 . S
C1300 C1299 1.369 . S
C1300 C1309 1.429 . S
C1301 C1299 1.419 . S
C1301 C1302 1.363 . S
C1301 H1304 0.929 . S
C1302 C1301 1.363 . S
C1302 C1308 1.428 . S
H1303 C1299 0.930 . S
H1304 C1301 0.929 . S
S1305 N1306 1.613 . S
S1305 N1307 1.610 . S
N1306 S1305 1.613 . S
N1306 C1309 1.350 . S
N1307 S1305 1.610 . S
N1307 C1308 1.351 . S
C1308 C1302 1.428 . S
C1308 N1307 1.351 . S
C1308 C1309 1.434 . S
C1309 C1300 1.429 . S
C1309 N1306 1.350 . S
C1309 C1308 1.434 . S
C1310 C1311 1.369 . S
C1310 C1312 1.451 . S
C1310 H1314 0.930 . S
C1311 C1310 1.369 . S
C1311 C1320 1.429 . S
C1312 C1310 1.451 . S
C1312 C1313 1.363 . S
C1312 H1315 0.897 1_655 S
C1313 C1312 1.363 . S
C1313 C1319 1.428 . S
H1314 C1310 0.930 . S
H1315 C1312 0.897 1_455 S
S1316 N1317 1.613 . S
S1316 N1318 1.610 . S
N1317 S1316 1.613 . S
N1317 C1320 1.350 . S
N1318 S1316 1.610 . S
N1318 C1319 1.351 . S
C1319 C1313 1.428 . S
C1319 N1318 1.351 . S
C1319 C1320 1.434 . S
C1320 C1311 1.429 . S
C1320 N1317 1.350 . S
C1320 C1319 1.434 . S
C1321 C1322 1.369 . S
C1321 C1323 1.419 . S
C1321 H1325 0.930 . S
C1322 C1321 1.369 . S
C1322 C1331 1.429 . S
C1323 C1321 1.419 . S
C1323 C1324 1.363 . S
C1323 H1326 0.929 . S
C1324 C1323 1.363 . S
C1324 C1330 1.428 . S
H1325 C1321 0.930 . S
H1326 C1323 0.929 . S
S1327 N1328 1.613 . S
S1327 N1329 1.610 . S
N1328 S1327 1.613 . S
N1328 C1331 1.350 . S
N1329 S1327 1.610 . S
N1329 C1330 1.351 . S
C1330 C1324 1.428 . S
C1330 N1329 1.351 . S
C1330 C1331 1.434 . S
C1331 C1322 1.429 . S
C1331 N1328 1.350 . S
C1331 C1330 1.434 . S
C1332 C1333 1.369 . S
C1332 C1334 1.419 . S
C1332 H1336 0.930 . S
C1333 C1332 1.369 . S
C1333 C1342 1.429 . S
C1334 C1332 1.419 . S
C1334 C1335 1.363 . S
C1334 H1337 0.929 . S
C1335 C1334 1.363 . S
C1335 C1341 1.428 . S
H1336 C1332 0.930 . S
H1337 C1334 0.929 . S
S1338 N1339 1.613 . S
S1338 N1340 1.610 . S
N1339 S1338 1.613 . S
N1339 C1342 1.350 . S
N1340 S1338 1.610 . S
N1340 C1341 1.351 . S
C1341 C1335 1.428 . S
C1341 N1340 1.351 . S
C1341 C1342 1.434 . S
C1342 C1333 1.429 . S
C1342 N1339 1.350 . S
C1342 C1341 1.434 . S
C1343 C1344 1.369 . S
C1343 C1345 1.419 . S
C1343 H1347 0.930 . S
C1344 C1343 1.369 . S
C1344 C1353 1.429 . S
C1345 C1343 1.419 . S
C1345 C1346 1.363 . S
C1345 H1348 0.929 . S
C1346 C1345 1.363 . S
C1346 C1352 1.428 . S
H1347 C1343 0.930 . S
H1348 C1345 0.929 . S
S1349 N1350 1.613 . S
S1349 N1351 1.610 . S
N1350 S1349 1.613 . S
N1350 C1353 1.350 . S
N1351 S1349 1.610 . S
N1351 C1352 1.351 . S
C1352 C1346 1.428 . S
C1352 N1351 1.351 . S
C1352 C1353 1.434 . S
C1353 C1344 1.429 . S
C1353 N1350 1.350 . S
C1353 C1352 1.434 . S
C1354 C1355 1.369 . S
C1354 C1356 1.419 . S
C1354 H1358 0.930 . S
C1355 C1354 1.369 . S
C1355 C1364 1.429 . S
C1356 C1354 1.419 . S
C1356 C1357 1.363 . S
C1356 H1359 0.929 . S
C1357 C1356 1.363 . S
C1357 C1363 1.428 . S
H1358 C1354 0.930 . S
H1359 C1356 0.929 . S
S1360 N1361 1.613 . S
S1360 N1362 1.610 . S
N1361 S1360 1.613 . S
N1361 C1364 1.350 . S
N1362 S1360 1.610 . S
N1362 C1363 1.351 . S
C1363 C1357 1.428 . S
C1363 N1362 1.351 . S
C1363 C1364 1.434 . S
C1364 C1355 1.429 . S
C1364 N1361 1.350 . S
C1364 C1363 1.434 . S
C1365 C1366 1.369 . S
C1365 C1367 1.419 . S
C1365 H1369 0.930 . S
C1366 C1365 1.369 . S
C1366 C1375 1.429 . S
C1367 C1365 1.419 . S
C1367 C1368 1.363 . S
C1367 H1370 0.929 . S
C1368 C1367 1.363 . S
C1368 C1374 1.428 . S
H1369 C1365 0.930 . S
H1370 C1367 0.929 . S
S1371 N1372 1.613 . S
S1371 N1373 1.610 . S
N1372 S1371 1.613 . S
N1372 C1375 1.350 . S
N1373 S1371 1.610 . S
N1373 C1374 1.351 . S
C1374 C1368 1.428 . S
C1374 N1373 1.351 . S
C1374 C1375 1.434 . S
C1375 C1366 1.429 . S
C1375 N1372 1.350 . S
C1375 C1374 1.434 . S
C1376 C1377 1.369 . S
C1376 C1378 1.419 . S
C1376 H1380 0.930 . S
C1377 C1376 1.369 . S
C1377 C1386 1.429 . S
C1378 C1376 1.419 . S
C1378 C1379 1.363 . S
C1378 H1381 0.929 . S
C1379 C1378 1.363 . S
C1379 C1385 1.428 . S
H1380 C1376 0.930 . S
H1381 C1378 0.929 . S
S1382 N1383 1.613 . S
S1382 N1384 1.610 . S
N1383 S1382 1.613 . S
N1383 C1386 1.350 . S
N1384 S1382 1.610 . S
N1384 C1385 1.351 . S
C1385 C1379 1.428 . S
C1385 N1384 1.351 . S
C1385 C1386 1.434 . S
C1386 C1377 1.429 . S
C1386 N1383 1.350 . S
C1386 C1385 1.434 . S
C1387 C1388 1.369 . S
C1387 C1389 1.419 . S
C1387 H1391 0.930 . S
C1388 C1387 1.369 . S
C1388 C1397 1.429 . S
C1389 C1387 1.419 . S
C1389 C1390 1.363 . S
C1389 H1392 0.929 . S
C1390 C1389 1.363 . S
C1390 C1396 1.428 . S
H1391 C1387 0.930 . S
H1392 C1389 0.929 . S
S1393 N1394 1.613 . S
S1393 N1395 1.610 . S
N1394 S1393 1.613 . S
N1394 C1397 1.350 . S
N1395 S1393 1.610 . S
N1395 C1396 1.351 . S
C1396 C1390 1.428 . S
C1396 N1395 1.351 . S
C1396 C1397 1.434 . S
C1397 C1388 1.429 . S
C1397 N1394 1.350 . S
C1397 C1396 1.434 . S
C1398 C1399 1.369 . S
C1398 C1400 1.419 . S
C1398 H1402 0.930 . S
C1399 C1398 1.369 . S
C1399 C1408 1.429 . S
C1400 C1398 1.419 . S
C1400 C1401 1.363 . S
C1400 H1403 0.929 . S
C1401 C1400 1.363 . S
C1401 C1407 1.428 . S
H1402 C1398 0.930 . S
H1403 C1400 0.929 . S
S1404 N1405 1.613 . S
S1404 N1406 1.610 . S
N1405 S1404 1.613 . S
N1405 C1408 1.350 . S
N1406 S1404 1.610 . S
N1406 C1407 1.351 . S
C1407 C1401 1.428 . S
C1407 N1406 1.351 . S
C1407 C1408 1.434 . S
C1408 C1399 1.429 . S
C1408 N1405 1.350 . S
C1408 C1407 1.434 . S
C1409 C1410 1.369 . S
C1409 C1411 1.419 . S
C1409 H1413 0.930 . S
C1410 C1409 1.369 . S
C1410 C1419 1.429 . S
C1411 C1409 1.419 . S
C1411 C1412 1.363 . S
C1411 H1414 0.929 . S
C1412 C1411 1.363 . S
C1412 C1418 1.428 . S
H1413 C1409 0.930 . S
H1414 C1411 0.929 . S
S1415 N1416 1.613 . S
S1415 N1417 1.610 . S
N1416 S1415 1.613 . S
N1416 C1419 1.350 . S
N1417 S1415 1.610 . S
N1417 C1418 1.351 . S
C1418 C1412 1.428 . S
C1418 N1417 1.351 . S
C1418 C1419 1.434 . S
C1419 C1410 1.429 . S
C1419 N1416 1.350 . S
C1419 C1418 1.434 . S
C1420 C1421 1.369 . S
C1420 C1422 1.419 . S
C1420 H1424 0.930 . S
C1421 C1420 1.369 . S
C1421 C1430 1.429 . S
C1422 C1420 1.419 . S
C1422 C1423 1.363 . S
C1422 H1425 0.929 . S
C1423 C1422 1.363 . S
C1423 C1429 1.428 . S
H1424 C1420 0.930 . S
H1425 C1422 0.929 . S
S1426 N1427 1.613 . S
S1426 N1428 1.610 . S
N1427 S1426 1.613 . S
N1427 C1430 1.350 . S
N1428 S1426 1.610 . S
N1428 C1429 1.351 . S
C1429 C1423 1.428 . S
C1429 N1428 1.351 . S
C1429 C1430 1.434 . S
C1430 C1421 1.429 . S
C1430 N1427 1.350 . S
C1430 C1429 1.434 . S
C1431 C1432 1.369 . S
C1431 C1433 1.419 . S
C1431 H1435 0.930 . S
C1432 C1431 1.369 . S
C1432 C1441 1.429 . S
C1433 C1431 1.419 . S
C1433 C1434 1.363 . S
C1433 H1436 0.929 . S
C1434 C1433 1.363 . S
C1434 C1440 1.428 . S
H1435 C1431 0.930 . S
H1436 C1433 0.929 . S
S1437 N1438 1.613 . S
S1437 N1439 1.610 . S
N1438 S1437 1.613 . S
N1438 C1441 1.350 . S
N1439 S1437 1.610 . S
N1439 C1440 1.351 . S
C1440 C1434 1.428 . S
C1440 N1439 1.351 . S
C1440 C1441 1.434 . S
C1441 C1432 1.429 . S
C1441 N1438 1.350 . S
C1441 C1440 1.434 . S
C1442 C1443 1.369 . S
C1442 C1444 1.419 . S
C1442 H1446 0.930 . S
C1443 C1442 1.369 . S
C1443 C1452 1.429 . S
C1444 C1442 1.419 . S
C1444 C1445 1.363 . S
C1444 H1447 0.929 . S
C1445 C1444 1.363 . S
C1445 C1451 1.428 . S
H1446 C1442 0.930 . S
H1447 C1444 0.929 . S
S1448 N1449 1.613 . S
S1448 N1450 1.610 . S
N1449 S1448 1.613 . S
N1449 C1452 1.350 . S
N1450 S1448 1.610 . S
N1450 C1451 1.351 . S
C1451 C1445 1.428 . S
C1451 N1450 1.351 . S
C1451 C1452 1.434 . S
C1452 C1443 1.429 . S
C1452 N1449 1.350 . S
C1452 C1451 1.434 . S
C1453 C1454 1.369 . S
C1453 C1455 1.419 . S
C1453 H1457 0.930 . S
C1454 C1453 1.369 . S
C1454 C1463 1.429 . S
C1455 C1453 1.419 . S
C1455 C1456 1.363 . S
C1455 H1458 0.929 . S
C1456 C1455 1.363 . S
C1456 C1462 1.428 . S
H1457 C1453 0.930 . S
H1458 C1455 0.929 . S
S1459 N1460 1.613 . S
S1459 N1461 1.610 . S
N1460 S1459 1.613 . S
N1460 C1463 1.350 . S
N1461 S1459 1.610 . S
N1461 C1462 1.351 . S
C1462 C1456 1.428 . S
C1462 N1461 1.351 . S
C1462 C1463 1.434 . S
C1463 C1454 1.429 . S
C1463 N1460 1.350 . S
C1463 C1462 1.434 . S
C1464 C1465 1.369 . S
C1464 C1466 1.419 . S
C1464 H1468 0.930 . S
C1465 C1464 1.369 . S
C1465 C1474 1.429 . S
C1466 C1464 1.419 . S
C1466 C1467 1.363 . S
C1466 H1469 0.929 . S
C1467 C1466 1.363 . S
C1467 C1473 1.428 . S
H1468 C1464 0.930 . S
H1469 C1466 0.929 . S
S1470 N1471 1.613 . S
S1470 N1472 1.610 . S
N1471 S1470 1.613 . S
N1471 C1474 1.350 . S
N1472 S1470 1.610 . S
N1472 C1473 1.351 . S
C1473 C1467 1.428 . S
C1473 N1472 1.351 . S
C1473 C1474 1.434 . S
C1474 C1465 1.429 . S
C1474 N1471 1.350 . S
C1474 C1473 1.434 . S
C1475 C1476 1.369 . S
C1475 C1477 1.419 . S
C1475 H1479 0.930 . S
C1476 C1475 1.369 . S
C1476 C1485 1.429 . S
C1477 C1475 1.419 . S
C1477 C1478 1.363 . S
C1477 H1480 0.929 . S
C1478 C1477 1.363 . S
C1478 C1484 1.428 . S
H1479 C1475 0.930 . S
H1480 C1477 0.929 . S
S1481 N1482 1.613 . S
S1481 N1483 1.610 . S
N1482 S1481 1.613 . S
N1482 C1485 1.350 . S
N1483 S1481 1.610 . S
N1483 C1484 1.351 . S
C1484 C1478 1.428 . S
C1484 N1483 1.351 . S
C1484 C1485 1.434 . S
C1485 C1476 1.429 . S
C1485 N1482 1.350 . S
C1485 C1484 1.434 . S
C1486 C1487 1.369 . S
C1486 C1488 1.419 . S
C1486 H1490 0.930 . S
C1487 C1486 1.369 . S
C1487 C1496 1.429 . S
C1488 C1486 1.419 . S
C1488 C1489 1.363 . S
C1488 H1491 0.929 . S
C1489 C1488 1.363 . S
C1489 C1495 1.428 . S
H1490 C1486 0.930 . S
H1491 C1488 0.929 . S
S1492 N1493 1.613 . S
S1492 N1494 1.610 . S
N1493 S1492 1.613 . S
N1493 C1496 1.350 . S
N1494 S1492 1.610 . S
N1494 C1495 1.351 . S
C1495 C1489 1.428 . S
C1495 N1494 1.351 . S
C1495 C1496 1.434 . S
C1496 C1487 1.429 . S
C1496 N1493 1.350 . S
C1496 C1495 1.434 . S
C1497 C1498 1.369 . S
C1497 C1499 1.419 . S
C1497 H1501 0.930 . S
C1498 C1497 1.369 . S
C1498 C1507 1.429 . S
C1499 C1497 1.419 . S
C1499 C1500 1.363 . S
C1499 H1502 0.929 . S
C1500 C1499 1.363 . S
C1500 C1506 1.428 . S
H1501 C1497 0.930 . S
H1502 C1499 0.929 . S
S1503 N1504 1.613 . S
S1503 N1505 1.610 . S
N1504 S1503 1.613 . S
N1504 C1507 1.350 . S
N1505 S1503 1.610 . S
N1505 C1506 1.351 . S
C1506 C1500 1.428 . S
C1506 N1505 1.351 . S
C1506 C1507 1.434 . S
C1507 C1498 1.429 . S
C1507 N1504 1.350 . S
C1507 C1506 1.434 . S
C1508 C1509 1.369 . S
C1508 C1510 1.419 . S
C1508 H1512 0.930 . S
C1509 C1508 1.369 . S
C1509 C1518 1.429 . S
C1510 C1508 1.419 . S
C1510 C1511 1.363 . S
C1510 H1513 0.929 . S
C1511 C1510 1.363 . S
C1511 C1517 1.428 . S
H1512 C1508 0.930 . S
H1513 C1510 0.929 . S
S1514 N1515 1.613 . S
S1514 N1516 1.610 . S
N1515 S1514 1.613 . S
N1515 C1518 1.350 . S
N1516 S1514 1.610 . S
N1516 C1517 1.351 . S
C1517 C1511 1.428 . S
C1517 N1516 1.351 . S
C1517 C1518 1.434 . S
C1518 C1509 1.429 . S
C1518 N1515 1.350 . S
C1518 C1517 1.434 . S
C1519 C1520 1.369 . S
C1519 C1521 1.419 . S
C1519 H1523 0.930 . S
C1520 C1519 1.369 . S
C1520 C1529 1.429 . S
C1521 C1519 1.419 . S
C1521 C1522 1.363 . S
C1521 H1524 0.929 . S
C1522 C1521 1.363 . S
C1522 C1528 1.428 . S
H1523 C1519 0.930 . S
H1524 C1521 0.929 . S
S1525 N1526 1.613 . S
S1525 N1527 1.610 . S
N1526 S1525 1.613 . S
N1526 C1529 1.350 . S
N1527 S1525 1.610 . S
N1527 C1528 1.351 . S
C1528 C1522 1.428 . S
C1528 N1527 1.351 . S
C1528 C1529 1.434 . S
C1529 C1520 1.429 . S
C1529 N1526 1.350 . S
C1529 C1528 1.434 . S
C1530 C1531 1.369 . S
C1530 C1532 1.419 . S
C1530 H1534 0.930 . S
C1531 C1530 1.369 . S
C1531 C1540 1.429 . S
C1532 C1530 1.419 . S
C1532 C1533 1.363 . S
C1532 H1535 0.929 . S
C1533 C1532 1.363 . S
C1533 C1539 1.428 . S
H1534 C1530 0.930 . S
H1535 C1532 0.929 . S
S1536 N1537 1.613 . S
S1536 N1538 1.610 . S
N1537 S1536 1.613 . S
N1537 C1540 1.350 . S
N1538 S1536 1.610 . S
N1538 C1539 1.351 . S
C1539 C1533 1.428 . S
C1539 N1538 1.351 . S
C1539 C1540 1.434 . S
C1540 C1531 1.429 . S
C1540 N1537 1.350 . S
C1540 C1539 1.434 . S
C1541 C1542 1.369 . S
C1541 C1543 1.419 . S
C1541 H1545 0.930 . S
C1542 C1541 1.369 . S
C1542 C1551 1.429 . S
C1543 C1541 1.419 . S
C1543 C1544 1.363 . S
C1543 H1546 0.929 . S
C1544 C1543 1.363 . S
C1544 C1550 1.428 . S
H1545 C1541 0.930 . S
H1546 C1543 0.929 . S
S1547 N1548 1.613 . S
S1547 N1549 1.610 . S
N1548 S1547 1.613 . S
N1548 C1551 1.350 . S
N1549 S1547 1.610 . S
N1549 C1550 1.351 . S
C1550 C1544 1.428 . S
C1550 N1549 1.351 . S
C1550 C1551 1.434 . S
C1551 C1542 1.429 . S
C1551 N1548 1.350 . S
C1551 C1550 1.434 . S
C1552 C1553 1.369 . S
C1552 C1554 1.419 . S
C1552 H1556 0.930 . S
C1553 C1552 1.369 . S
C1553 C1562 1.429 . S
C1554 C1552 1.419 . S
C1554 C1555 1.363 . S
C1554 H1557 0.929 . S
C1555 C1554 1.363 . S
C1555 C1561 1.428 . S
H1556 C1552 0.930 . S
H1557 C1554 0.929 . S
S1558 N1559 1.613 . S
S1558 N1560 1.610 . S
N1559 S1558 1.613 . S
N1559 C1562 1.350 . S
N1560 S1558 1.610 . S
N1560 C1561 1.351 . S
C1561 C1555 1.428 . S
C1561 N1560 1.351 . S
C1561 C1562 1.434 . S
C1562 C1553 1.429 . S
C1562 N1559 1.350 . S
C1562 C1561 1.434 . S
C1563 C1564 1.369 . S
C1563 C1565 1.419 . S
C1563 H1567 0.930 . S
C1564 C1563 1.369 . S
C1564 C1573 1.429 . S
C1565 C1563 1.419 . S
C1565 C1566 1.363 . S
C1565 H1568 0.929 . S
C1566 C1565 1.363 . S
C1566 C1572 1.428 . S
H1567 C1563 0.930 . S
H1568 C1565 0.929 . S
S1569 N1570 1.613 . S
S1569 N1571 1.610 . S
N1570 S1569 1.613 . S
N1570 C1573 1.350 . S
N1571 S1569 1.610 . S
N1571 C1572 1.351 . S
C1572 C1566 1.428 . S
C1572 N1571 1.351 . S
C1572 C1573 1.434 . S
C1573 C1564 1.429 . S
C1573 N1570 1.350 . S
C1573 C1572 1.434 . S
C1574 C1575 1.369 . S
C1574 C1576 1.419 . S
C1574 H1578 0.930 . S
C1575 C1574 1.369 . S
C1575 C1584 1.429 . S
C1576 C1574 1.419 . S
C1576 C1577 1.363 . S
C1576 H1579 0.929 . S
C1577 C1576 1.363 . S
C1577 C1583 1.428 . S
H1578 C1574 0.930 . S
H1579 C1576 0.929 . S
S1580 N1581 1.613 . S
S1580 N1582 1.610 . S
N1581 S1580 1.613 . S
N1581 C1584 1.350 . S
N1582 S1580 1.610 . S
N1582 C1583 1.351 . S
C1583 C1577 1.428 . S
C1583 N1582 1.351 . S
C1583 C1584 1.434 . S
C1584 C1575 1.429 . S
C1584 N1581 1.350 . S
C1584 C1583 1.434 . S
C1585 C1586 1.369 . S
C1585 C1587 1.419 . S
C1585 H1589 0.930 . S
C1586 C1585 1.369 . S
C1586 C1595 1.429 . S
C1587 C1585 1.419 . S
C1587 C1588 1.363 . S
C1587 H1590 0.929 . S
C1588 C1587 1.363 . S
C1588 C1594 1.428 . S
H1589 C1585 0.930 . S
H1590 C1587 0.929 . S
S1591 N1592 1.613 . S
S1591 N1593 1.610 . S
N1592 S1591 1.613 . S
N1592 C1595 1.350 . S
N1593 S1591 1.610 . S
N1593 C1594 1.351 . S
C1594 C1588 1.428 . S
C1594 N1593 1.351 . S
C1594 C1595 1.434 . S
C1595 C1586 1.429 . S
C1595 N1592 1.350 . S
C1595 C1594 1.434 . S
C1596 C1597 1.369 . S
C1596 C1598 1.419 . S
C1596 H1600 0.930 . S
C1597 C1596 1.369 . S
C1597 C1606 1.429 . S
C1598 C1596 1.419 . S
C1598 C1599 1.363 . S
C1598 H1601 0.929 . S
C1599 C1598 1.363 . S
C1599 C1605 1.428 . S
H1600 C1596 0.930 . S
H1601 C1598 0.929 . S
S1602 N1603 1.613 . S
S1602 N1604 1.610 . S
N1603 S1602 1.613 . S
N1603 C1606 1.350 . S
N1604 S1602 1.610 . S
N1604 C1605 1.351 . S
C1605 C1599 1.428 . S
C1605 N1604 1.351 . S
C1605 C1606 1.434 . S
C1606 C1597 1.429 . S
C1606 N1603 1.350 . S
C1606 C1605 1.434 . S
C1607 C1608 1.369 . S
C1607 C1609 1.419 . S
C1607 H1611 0.930 . S
C1608 C1607 1.369 . S
C1608 C1617 1.429 . S
C1609 C1607 1.419 . S
C1609 C1610 1.363 . S
C1609 H1612 0.929 . S
C1610 C1609 1.363 . S
C1610 C1616 1.428 . S
H1611 C1607 0.930 . S
H1612 C1609 0.929 . S
S1613 N1614 1.613 . S
S1613 N1615 1.610 . S
N1614 S1613 1.613 . S
N1614 C1617 1.350 . S
N1615 S1613 1.610 . S
N1615 C1616 1.351 . S
C1616 C1610 1.428 . S
C1616 N1615 1.351 . S
C1616 C1617 1.434 . S
C1617 C1608 1.429 . S
C1617 N1614 1.350 . S
C1617 C1616 1.434 . S
C1618 C1619 1.369 . S
C1618 C1620 1.419 . S
C1618 H1622 0.930 . S
C1619 C1618 1.369 . S
C1619 C1628 1.429 . S
C1620 C1618 1.419 . S
C1620 C1621 1.363 . S
C1620 H1623 0.929 . S
C1621 C1620 1.363 . S
C1621 C1627 1.428 . S
H1622 C1618 0.930 . S
H1623 C1620 0.929 . S
S1624 N1625 1.613 . S
S1624 N1626 1.610 . S
N1625 S1624 1.613 . S
N1625 C1628 1.350 . S
N1626 S1624 1.610 . S
N1626 C1627 1.351 . S
C1627 C1621 1.428 . S
C1627 N1626 1.351 . S
C1627 C1628 1.434 . S
C1628 C1619 1.429 . S
C1628 N1625 1.350 . S
C1628 C1627 1.434 . S
C1629 C1630 1.369 . S
C1629 C1631 1.419 . S
C1629 H1633 0.930 . S
C1630 C1629 1.369 . S
C1630 C1639 1.429 . S
C1631 C1629 1.419 . S
C1631 C1632 1.363 . S
C1631 H1634 0.929 . S
C1632 C1631 1.363 . S
C1632 C1638 1.428 . S
H1633 C1629 0.930 . S
H1634 C1631 0.929 . S
S1635 N1636 1.613 . S
S1635 N1637 1.610 . S
N1636 S1635 1.613 . S
N1636 C1639 1.350 . S
N1637 S1635 1.610 . S
N1637 C1638 1.351 . S
C1638 C1632 1.428 . S
C1638 N1637 1.351 . S
C1638 C1639 1.434 . S
C1639 C1630 1.429 . S
C1639 N1636 1.350 . S
C1639 C1638 1.434 . S
C1640 C1641 1.369 . S
C1640 C1642 1.419 . S
C1640 H1644 0.930 . S
C1641 C1640 1.369 . S
C1641 C1650 1.429 . S
C1642 C1640 1.419 . S
C1642 C1643 1.363 . S
C1642 H1645 0.929 . S
C1643 C1642 1.363 . S
C1643 C1649 1.428 . S
H1644 C1640 0.930 . S
H1645 C1642 0.929 . S
S1646 N1647 1.613 . S
S1646 N1648 1.610 . S
N1647 S1646 1.613 . S
N1647 C1650 1.350 . S
N1648 S1646 1.610 . S
N1648 C1649 1.351 . S
C1649 C1643 1.428 . S
C1649 N1648 1.351 . S
C1649 C1650 1.434 . S
C1650 C1641 1.429 . S
C1650 N1647 1.350 . S
C1650 C1649 1.434 . S
C1651 C1652 1.369 . S
C1651 C1653 1.419 . S
C1651 H1655 0.930 . S
C1652 C1651 1.369 . S
C1652 C1661 1.429 . S
C1653 C1651 1.419 . S
C1653 C1654 1.363 . S
C1653 H1656 0.929 . S
C1654 C1653 1.363 . S
C1654 C1660 1.428 . S
H1655 C1651 0.930 . S
H1656 C1653 0.929 . S
S1657 N1658 1.613 . S
S1657 N1659 1.610 . S
N1658 S1657 1.613 . S
N1658 C1661 1.350 . S
N1659 S1657 1.610 . S
N1659 C1660 1.351 . S
C1660 C1654 1.428 . S
C1660 N1659 1.351 . S
C1660 C1661 1.434 . S
C1661 C1652 1.429 . S
C1661 N1658 1.350 . S
C1661 C1660 1.434 . S
C1662 C1663 1.369 . S
C1662 C1664 1.419 . S
C1662 H1666 0.930 . S
C1663 C1662 1.369 . S
C1663 C1672 1.429 . S
C1664 C1662 1.419 . S
C1664 C1665 1.363 . S
C1664 H1667 0.929 . S
C1665 C1664 1.363 . S
C1665 C1671 1.428 . S
H1666 C1662 0.930 . S
H1667 C1664 0.929 . S
S1668 N1669 1.613 . S
S1668 N1670 1.610 . S
N1669 S1668 1.613 . S
N1669 C1672 1.350 . S
N1670 S1668 1.610 . S
N1670 C1671 1.351 . S
C1671 C1665 1.428 . S
C1671 N1670 1.351 . S
C1671 C1672 1.434 . S
C1672 C1663 1.429 . S
C1672 N1669 1.350 . S
C1672 C1671 1.434 . S
C1673 C1674 1.369 . S
C1673 C1675 1.419 . S
C1673 H1677 0.930 . S
C1674 C1673 1.369 . S
C1674 C1683 1.429 . S
C1675 C1673 1.419 . S
C1675 C1676 1.363 . S
C1675 H1678 0.929 . S
C1676 C1675 1.363 . S
C1676 C1682 1.428 . S
H1677 C1673 0.930 . S
H1678 C1675 0.929 . S
S1679 N1680 1.613 . S
S1679 N1681 1.610 . S
N1680 S1679 1.613 . S
N1680 C1683 1.350 . S
N1681 S1679 1.610 . S
N1681 C1682 1.351 . S
C1682 C1676 1.428 . S
C1682 N1681 1.351 . S
C1682 C1683 1.434 . S
C1683 C1674 1.429 . S
C1683 N1680 1.350 . S
C1683 C1682 1.434 . S
C1684 C1685 1.369 . S
C1684 C1686 1.419 . S
C1684 H1688 0.930 . S
C1685 C1684 1.369 . S
C1685 C1694 1.429 . S
C1686 C1684 1.419 . S
C1686 C1687 1.363 . S
C1686 H1689 0.929 . S
C1687 C1686 1.363 . S
C1687 C1693 1.428 . S
H1688 C1684 0.930 . S
H1689 C1686 0.929 . S
S1690 N1691 1.613 . S
S1690 N1692 1.610 . S
N1691 S1690 1.613 . S
N1691 C1694 1.350 . S
N1692 S1690 1.610 . S
N1692 C1693 1.351 . S
C1693 C1687 1.428 . S
C1693 N1692 1.351 . S
C1693 C1694 1.434 . S
C1694 C1685 1.429 . S
C1694 N1691 1.350 . S
C1694 C1693 1.434 . S
C1695 C1696 1.369 . S
C1695 C1697 1.419 . S
C1695 H1699 0.930 . S
C1696 C1695 1.369 . S
C1696 C1705 1.429 . S
C1697 C1695 1.419 . S
C1697 C1698 1.363 . S
C1697 H1700 0.929 1_565 S
C1698 C1697 1.363 . S
C1698 C1704 1.428 . S
H1699 C1695 0.930 . S
H1700 C1697 0.929 1_545 S
S1701 N1702 1.613 . S
S1701 N1703 1.610 . S
N1702 S1701 1.613 . S
N1702 C1705 1.350 . S
N1703 S1701 1.610 . S
N1703 C1704 1.351 . S
C1704 C1698 1.428 . S
C1704 N1703 1.351 . S
C1704 C1705 1.434 . S
C1705 C1696 1.429 . S
C1705 N1702 1.350 . S
C1705 C1704 1.434 . S
C1706 C1707 1.369 . S
C1706 C1708 1.419 . S
C1706 H1710 0.930 . S
C1707 C1706 1.369 . S
C1707 C1716 1.429 . S
C1708 C1706 1.419 . S
C1708 C1709 1.363 . S
C1708 H1711 0.929 . S
C1709 C1708 1.363 . S
C1709 C1715 1.428 . S
H1710 C1706 0.930 . S
H1711 C1708 0.929 . S
S1712 N1713 1.613 . S
S1712 N1714 1.610 . S
N1713 S1712 1.613 . S
N1713 C1716 1.350 . S
N1714 S1712 1.610 . S
N1714 C1715 1.351 . S
C1715 C1709 1.428 . S
C1715 N1714 1.351 . S
C1715 C1716 1.434 . S
C1716 C1707 1.429 . S
C1716 N1713 1.350 . S
C1716 C1715 1.434 . S
C1717 C1718 1.369 . S
C1717 C1719 1.419 . S
C1717 H1721 0.930 . S
C1718 C1717 1.369 . S
C1718 C1727 1.429 . S
C1719 C1717 1.419 . S
C1719 C1720 1.363 . S
C1719 H1722 0.929 . S
C1720 C1719 1.363 . S
C1720 C1726 1.428 . S
H1721 C1717 0.930 . S
H1722 C1719 0.929 . S
S1723 N1724 1.613 . S
S1723 N1725 1.610 . S
N1724 S1723 1.613 . S
N1724 C1727 1.350 . S
N1725 S1723 1.610 . S
N1725 C1726 1.351 . S
C1726 C1720 1.428 . S
C1726 N1725 1.351 . S
C1726 C1727 1.434 . S
C1727 C1718 1.429 . S
C1727 N1724 1.350 . S
C1727 C1726 1.434 . S
C1728 C1729 1.369 . S
C1728 C1730 1.419 . S
C1728 H1732 0.930 . S
C1729 C1728 1.369 . S
C1729 C1738 1.429 . S
C1730 C1728 1.419 . S
C1730 C1731 1.363 . S
C1730 H1733 0.929 . S
C1731 C1730 1.363 . S
C1731 C1737 1.428 . S
H1732 C1728 0.930 . S
H1733 C1730 0.929 . S
S1734 N1735 1.613 . S
S1734 N1736 1.610 . S
N1735 S1734 1.613 . S
N1735 C1738 1.350 . S
N1736 S1734 1.610 . S
N1736 C1737 1.351 . S
C1737 C1731 1.428 . S
C1737 N1736 1.351 . S
C1737 C1738 1.434 . S
C1738 C1729 1.429 . S
C1738 N1735 1.350 . S
C1738 C1737 1.434 . S
C1739 C1740 1.369 . S
C1739 C1741 1.419 . S
C1739 H1743 0.930 . S
C1740 C1739 1.369 . S
C1740 C1749 1.429 . S
C1741 C1739 1.419 . S
C1741 C1742 1.363 . S
C1741 H1744 0.929 . S
C1742 C1741 1.363 . S
C1742 C1748 1.428 . S
H1743 C1739 0.930 . S
H1744 C1741 0.929 . S
S1745 N1746 1.613 . S
S1745 N1747 1.610 . S
N1746 S1745 1.613 . S
N1746 C1749 1.350 . S
N1747 S1745 1.610 . S
N1747 C1748 1.351 . S
C1748 C1742 1.428 . S
C1748 N1747 1.351 . S
C1748 C1749 1.434 . S
C1749 C1740 1.429 . S
C1749 N1746 1.350 . S
C1749 C1748 1.434 . S
C1750 C1751 1.369 . S
C1750 C1752 1.419 . S
C1750 H1754 0.930 . S
C1751 C1750 1.369 . S
C1751 C1760 1.429 . S
C1752 C1750 1.419 . S
C1752 C1753 1.363 . S
C1752 H1755 0.929 . S
C1753 C1752 1.363 . S
C1753 C1759 1.428 . S
H1754 C1750 0.930 . S
H1755 C1752 0.929 . S
S1756 N1757 1.613 . S
S1756 N1758 1.610 . S
N1757 S1756 1.613 . S
N1757 C1760 1.350 . S
N1758 S1756 1.610 . S
N1758 C1759 1.351 . S
C1759 C1753 1.428 . S
C1759 N1758 1.351 . S
C1759 C1760 1.434 . S
C1760 C1751 1.429 . S
C1760 N1757 1.350 . S
C1760 C1759 1.434 . S
C1761 C1762 1.369 . S
C1761 C1763 1.419 . S
C1761 H1765 0.930 . S
C1762 C1761 1.369 . S
C1762 C1771 1.429 . S
C1763 C1761 1.419 . S
C1763 C1764 1.363 . S
C1763 H1766 0.929 . S
C1764 C1763 1.363 . S
C1764 C1770 1.428 . S
H1765 C1761 0.930 . S
H1766 C1763 0.929 . S
S1767 N1768 1.613 . S
S1767 N1769 1.610 . S
N1768 S1767 1.613 . S
N1768 C1771 1.350 . S
N1769 S1767 1.610 . S
N1769 C1770 1.351 . S
C1770 C1764 1.428 . S
C1770 N1769 1.351 . S
C1770 C1771 1.434 . S
C1771 C1762 1.429 . S
C1771 N1768 1.350 . S
C1771 C1770 1.434 . S
C1772 C1773 1.369 . S
C1772 C1774 1.419 . S
C1772 H1776 0.930 . S
C1773 C1772 1.369 . S
C1773 C1782 1.429 . S
C1774 C1772 1.419 . S
C1774 C1775 1.363 . S
C1774 H1777 0.929 . S
C1775 C1774 1.363 . S
C1775 C1781 1.428 . S
H1776 C1772 0.930 . S
H1777 C1774 0.929 . S
S1778 N1779 1.613 . S
S1778 N1780 1.610 . S
N1779 S1778 1.613 . S
N1779 C1782 1.350 . S
N1780 S1778 1.610 . S
N1780 C1781 1.351 . S
C1781 C1775 1.428 . S
C1781 N1780 1.351 . S
C1781 C1782 1.434 . S
C1782 C1773 1.429 . S
C1782 N1779 1.350 . S
C1782 C1781 1.434 . S
C1783 C1784 1.369 . S
C1783 C1785 1.419 . S
C1783 H1787 0.930 . S
C1784 C1783 1.369 . S
C1784 C1793 1.429 . S
C1785 C1783 1.419 . S
C1785 C1786 1.363 . S
C1785 H1788 0.929 . S
C1786 C1785 1.363 . S
C1786 C1792 1.428 . S
H1787 C1783 0.930 . S
H1788 C1785 0.929 . S
S1789 N1790 1.613 . S
S1789 N1791 1.610 . S
N1790 S1789 1.613 . S
N1790 C1793 1.350 . S
N1791 S1789 1.610 . S
N1791 C1792 1.351 . S
C1792 C1786 1.428 . S
C1792 N1791 1.351 . S
C1792 C1793 1.434 . S
C1793 C1784 1.429 . S
C1793 N1790 1.350 . S
C1793 C1792 1.434 . S
C1794 C1795 1.369 . S
C1794 C1796 1.419 . S
C1794 H1798 0.930 . S
C1795 C1794 1.369 . S
C1795 C1804 1.429 . S
C1796 C1794 1.419 . S
C1796 C1797 1.363 . S
C1796 H1799 0.929 . S
C1797 C1796 1.363 . S
C1797 C1803 1.428 . S
H1798 C1794 0.930 . S
H1799 C1796 0.929 . S
S1800 N1801 1.613 . S
S1800 N1802 1.610 . S
N1801 S1800 1.613 . S
N1801 C1804 1.350 . S
N1802 S1800 1.610 . S
N1802 C1803 1.351 . S
C1803 C1797 1.428 . S
C1803 N1802 1.351 . S
C1803 C1804 1.434 . S
C1804 C1795 1.429 . S
C1804 N1801 1.350 . S
C1804 C1803 1.434 . S
C1805 C1806 1.369 . S
C1805 C1807 1.419 . S
C1805 H1809 0.930 . S
C1806 C1805 1.369 . S
C1806 C1815 1.429 . S
C1807 C1805 1.419 . S
C1807 C1808 1.363 . S
C1807 H1810 0.929 . S
C1808 C1807 1.363 . S
C1808 C1814 1.428 . S
H1809 C1805 0.930 . S
H1810 C1807 0.929 . S
S1811 N1812 1.613 . S
S1811 N1813 1.610 . S
N1812 S1811 1.613 . S
N1812 C1815 1.350 . S
N1813 S1811 1.610 . S
N1813 C1814 1.351 . S
C1814 C1808 1.428 . S
C1814 N1813 1.351 . S
C1814 C1815 1.434 . S
C1815 C1806 1.429 . S
C1815 N1812 1.350 . S
C1815 C1814 1.434 . S
C1816 C1817 1.369 . S
C1816 C1818 1.419 . S
C1816 H1820 0.930 . S
C1817 C1816 1.369 . S
C1817 C1826 1.429 . S
C1818 C1816 1.419 . S
C1818 C1819 1.363 . S
C1818 H1821 0.929 . S
C1819 C1818 1.363 . S
C1819 C1825 1.428 . S
H1820 C1816 0.930 . S
H1821 C1818 0.929 . S
S1822 N1823 1.613 . S
S1822 N1824 1.610 . S
N1823 S1822 1.613 . S
N1823 C1826 1.350 . S
N1824 S1822 1.610 . S
N1824 C1825 1.351 . S
C1825 C1819 1.428 . S
C1825 N1824 1.351 . S
C1825 C1826 1.434 . S
C1826 C1817 1.429 . S
C1826 N1823 1.350 . S
C1826 C1825 1.434 . S
C1827 C1828 1.369 . S
C1827 C1829 1.419 . S
C1827 H1831 0.930 . S
C1828 C1827 1.369 . S
C1828 C1837 1.429 . S
C1829 C1827 1.419 . S
C1829 C1830 1.363 . S
C1829 H1832 0.929 . S
C1830 C1829 1.363 . S
C1830 C1836 1.428 . S
H1831 C1827 0.930 . S
H1832 C1829 0.929 . S
S1833 N1834 1.613 . S
S1833 N1835 1.610 . S
N1834 S1833 1.613 . S
N1834 C1837 1.350 . S
N1835 S1833 1.610 . S
N1835 C1836 1.351 . S
C1836 C1830 1.428 . S
C1836 N1835 1.351 . S
C1836 C1837 1.434 . S
C1837 C1828 1.429 . S
C1837 N1834 1.350 . S
C1837 C1836 1.434 . S
C1838 C1839 1.369 . S
C1838 C1840 1.419 . S
C1838 H1842 0.930 . S
C1839 C1838 1.369 . S
C1839 C1848 1.429 . S
C1840 C1838 1.419 . S
C1840 C1841 1.363 . S
C1840 H1843 0.929 . S
C1841 C1840 1.363 . S
C1841 C1847 1.428 . S
H1842 C1838 0.930 . S
H1843 C1840 0.929 . S
S1844 N1845 1.613 . S
S1844 N1846 1.610 . S
N1845 S1844 1.613 . S
N1845 C1848 1.350 . S
N1846 S1844 1.610 . S
N1846 C1847 1.351 . S
C1847 C1841 1.428 . S
C1847 N1846 1.351 . S
C1847 C1848 1.434 . S
C1848 C1839 1.429 . S
C1848 N1845 1.350 . S
C1848 C1847 1.434 . S
C1849 C1850 1.369 . S
C1849 C1851 1.419 . S
C1849 H1853 0.930 . S
C1850 C1849 1.369 . S
C1850 C1859 1.429 . S
C1851 C1849 1.419 . S
C1851 C1852 1.363 . S
C1851 H1854 0.929 . S
C1852 C1851 1.363 . S
C1852 C1858 1.428 . S
H1853 C1849 0.930 . S
H1854 C1851 0.929 . S
S1855 N1856 1.613 . S
S1855 N1857 1.610 . S
N1856 S1855 1.613 . S
N1856 C1859 1.350 . S
N1857 S1855 1.610 . S
N1857 C1858 1.351 . S
C1858 C1852 1.428 . S
C1858 N1857 1.351 . S
C1858 C1859 1.434 . S
C1859 C1850 1.429 . S
C1859 N1856 1.350 . S
C1859 C1858 1.434 . S
C1860 C1861 1.369 . S
C1860 C1862 1.419 . S
C1860 H1864 0.930 . S
C1861 C1860 1.369 . S
C1861 C1870 1.429 . S
C1862 C1860 1.419 . S
C1862 C1863 1.363 . S
C1862 H1865 0.929 . S
C1863 C1862 1.363 . S
C1863 C1869 1.428 . S
H1864 C1860 0.930 . S
H1865 C1862 0.929 . S
S1866 N1867 1.613 . S
S1866 N1868 1.610 . S
N1867 S1866 1.613 . S
N1867 C1870 1.350 . S
N1868 S1866 1.610 . S
N1868 C1869 1.351 . S
C1869 C1863 1.428 . S
C1869 N1868 1.351 . S
C1869 C1870 1.434 . S
C1870 C1861 1.429 . S
C1870 N1867 1.350 . S
C1870 C1869 1.434 . S
C1871 C1872 1.369 . S
C1871 C1873 1.419 . S
C1871 H1875 0.930 . S
C1872 C1871 1.369 . S
C1872 C1881 1.429 . S
C1873 C1871 1.419 . S
C1873 C1874 1.363 . S
C1873 H1876 0.929 . S
C1874 C1873 1.363 . S
C1874 C1880 1.428 . S
H1875 C1871 0.930 . S
H1876 C1873 0.929 . S
S1877 N1878 1.613 . S
S1877 N1879 1.610 . S
N1878 S1877 1.613 . S
N1878 C1881 1.350 . S
N1879 S1877 1.610 . S
N1879 C1880 1.351 . S
C1880 C1874 1.428 . S
C1880 N1879 1.351 . S
C1880 C1881 1.434 . S
C1881 C1872 1.429 . S
C1881 N1878 1.350 . S
C1881 C1880 1.434 . S
C1882 C1883 1.369 . S
C1882 C1884 1.419 . S
C1882 H1886 0.930 . S
C1883 C1882 1.369 . S
C1883 C1892 1.429 . S
C1884 C1882 1.419 . S
C1884 C1885 1.363 . S
C1884 H1887 0.929 . S
C1885 C1884 1.363 . S
C1885 C1891 1.428 . S
H1886 C1882 0.930 . S
H1887 C1884 0.929 . S
S1888 N1889 1.613 . S
S1888 N1890 1.610 . S
N1889 S1888 1.613 . S
N1889 C1892 1.350 . S
N1890 S1888 1.610 . S
N1890 C1891 1.351 . S
C1891 C1885 1.428 . S
C1891 N1890 1.351 . S
C1891 C1892 1.434 . S
C1892 C1883 1.429 . S
C1892 N1889 1.350 . S
C1892 C1891 1.434 . S
C1893 C1894 1.369 . S
C1893 C1895 1.419 . S
C1893 H1897 0.930 . S
C1894 C1893 1.369 . S
C1894 C1903 1.429 . S
C1895 C1893 1.419 . S
C1895 C1896 1.363 . S
C1895 H1898 0.929 . S
C1896 C1895 1.363 . S
C1896 C1902 1.428 . S
H1897 C1893 0.930 . S
H1898 C1895 0.929 . S
S1899 N1900 1.613 . S
S1899 N1901 1.610 . S
N1900 S1899 1.613 . S
N1900 C1903 1.350 . S
N1901 S1899 1.610 . S
N1901 C1902 1.351 . S
C1902 C1896 1.428 . S
C1902 N1901 1.351 . S
C1902 C1903 1.434 . S
C1903 C1894 1.429 . S
C1903 N1900 1.350 . S
C1903 C1902 1.434 . S
C1904 C1905 1.369 . S
C1904 C1906 1.419 . S
C1904 H1908 0.930 . S
C1905 C1904 1.369 . S
C1905 C1914 1.429 . S
C1906 C1904 1.419 . S
C1906 C1907 1.363 . S
C1906 H1909 0.929 . S
C1907 C1906 1.363 . S
C1907 C1913 1.428 . S
H1908 C1904 0.930 . S
H1909 C1906 0.929 . S
S1910 N1911 1.613 . S
S1910 N1912 1.610 . S
N1911 S1910 1.613 . S
N1911 C1914 1.350 . S
N1912 S1910 1.610 . S
N1912 C1913 1.351 . S
C1913 C1907 1.428 . S
C1913 N1912 1.351 . S
C1913 C1914 1.434 . S
C1914 C1905 1.429 . S
C1914 N1911 1.350 . S
C1914 C1913 1.434 . S
C1915 C1916 1.369 . S
C1915 C1917 1.419 . S
C1915 H1919 0.930 . S
C1916 C1915 1.369 . S
C1916 C1925 1.429 . S
C1917 C1915 1.419 . S
C1917 C1918 1.363 . S
C1917 H1920 0.929 . S
C1918 C1917 1.363 . S
C1918 C1924 1.428 . S
H1919 C1915 0.930 . S
H1920 C1917 0.929 . S
S1921 N1922 1.613 . S
S1921 N1923 1.610 . S
N1922 S1921 1.613 . S
N1922 C1925 1.350 . S
N1923 S1921 1.610 . S
N1923 C1924 1.351 . S
C1924 C1918 1.428 . S
C1924 N1923 1.351 . S
C1924 C1925 1.434 . S
C1925 C1916 1.429 . S
C1925 N1922 1.350 . S
C1925 C1924 1.434 . S
C1926 C1927 1.369 . S
C1926 C1928 1.419 . S
C1926 H1930 0.930 . S
C1927 C1926 1.369 . S
C1927 C1936 1.429 . S
C1928 C1926 1.419 . S
C1928 C1929 1.363 . S
C1928 H1931 0.929 . S
C1929 C1928 1.363 . S
C1929 C1935 1.428 . S
H1930 C1926 0.930 . S
H1931 C1928 0.929 . S
S1932 N1933 1.613 . S
S1932 N1934 1.610 . S
N1933 S1932 1.613 . S
N1933 C1936 1.350 . S
N1934 S1932 1.610 . S
N1934 C1935 1.351 . S
C1935 C1929 1.428 . S
C1935 N1934 1.351 . S
C1935 C1936 1.434 . S
C1936 C1927 1.429 . S
C1936 N1933 1.350 . S
C1936 C1935 1.434 . S
C1937 C1938 1.369 . S
C1937 C1939 1.419 . S
C1937 H1941 0.930 . S
C1938 C1937 1.369 . S
C1938 C1947 1.429 . S
C1939 C1937 1.419 . S
C1939 C1940 1.363 . S
C1939 H1942 0.929 . S
C1940 C1939 1.363 . S
C1940 C1946 1.428 . S
H1941 C1937 0.930 . S
H1942 C1939 0.929 . S
S1943 N1944 1.613 . S
S1943 N1945 1.610 . S
N1944 S1943 1.613 . S
N1944 C1947 1.350 . S
N1945 S1943 1.610 . S
N1945 C1946 1.351 . S
C1946 C1940 1.428 . S
C1946 N1945 1.351 . S
C1946 C1947 1.434 . S
C1947 C1938 1.429 . S
C1947 N1944 1.350 . S
C1947 C1946 1.434 . S
C1948 C1949 1.369 . S
C1948 C1950 1.419 . S
C1948 H1952 0.930 . S
C1949 C1948 1.369 . S
C1949 C1958 1.429 . S
C1950 C1948 1.419 . S
C1950 C1951 1.363 . S
C1950 H1953 0.929 . S
C1951 C1950 1.363 . S
C1951 C1957 1.428 . S
H1952 C1948 0.930 . S
H1953 C1950 0.929 . S
S1954 N1955 1.613 . S
S1954 N1956 1.610 . S
N1955 S1954 1.613 . S
N1955 C1958 1.350 . S
N1956 S1954 1.610 . S
N1956 C1957 1.351 . S
C1957 C1951 1.428 . S
C1957 N1956 1.351 . S
C1957 C1958 1.434 . S
C1958 C1949 1.429 . S
C1958 N1955 1.350 . S
C1958 C1957 1.434 . S
C1959 C1960 1.369 . S
C1959 C1961 1.419 . S
C1959 H1963 0.930 . S
C1960 C1959 1.369 . S
C1960 C1969 1.429 . S
C1961 C1959 1.419 . S
C1961 C1962 1.363 . S
C1961 H1964 0.929 . S
C1962 C1961 1.363 . S
C1962 C1968 1.428 . S
H1963 C1959 0.930 . S
H1964 C1961 0.929 . S
S1965 N1966 1.613 . S
S1965 N1967 1.610 . S
N1966 S1965 1.613 . S
N1966 C1969 1.350 . S
N1967 S1965 1.610 . S
N1967 C1968 1.351 . S
C1968 C1962 1.428 . S
C1968 N1967 1.351 . S
C1968 C1969 1.434 . S
C1969 C1960 1.429 . S
C1969 N1966 1.350 . S
C1969 C1968 1.434 . S
C1970 C1971 1.369 . S
C1970 C1972 1.419 . S
C1970 H1974 0.930 . S
C1971 C1970 1.369 . S
C1971 C1980 1.429 . S
C1972 C1970 1.419 . S
C1972 C1973 1.363 . S
C1972 H1975 0.929 . S
C1973 C1972 1.363 . S
C1973 C1979 1.428 . S
H1974 C1970 0.930 . S
H1975 C1972 0.929 . S
S1976 N1977 1.613 . S
S1976 N1978 1.610 . S
N1977 S1976 1.613 . S
N1977 C1980 1.350 . S
N1978 S1976 1.610 . S
N1978 C1979 1.351 . S
C1979 C1973 1.428 . S
C1979 N1978 1.351 . S
C1979 C1980 1.434 . S
C1980 C1971 1.429 . S
C1980 N1977 1.350 . S
C1980 C1979 1.434 . S
C1981 C1982 1.369 . S
C1981 C1983 1.419 . S
C1981 H1985 0.930 . S
C1982 C1981 1.369 . S
C1982 C1991 1.429 . S
C1983 C1981 1.419 . S
C1983 C1984 1.363 . S
C1983 H1986 0.929 . S
C1984 C1983 1.363 . S
C1984 C1990 1.428 . S
H1985 C1981 0.930 . S
H1986 C1983 0.929 . S
S1987 N1988 1.613 . S
S1987 N1989 1.610 . S
N1988 S1987 1.613 . S
N1988 C1991 1.350 . S
N1989 S1987 1.610 . S
N1989 C1990 1.351 . S
C1990 C1984 1.428 . S
C1990 N1989 1.351 . S
C1990 C1991 1.434 . S
C1991 C1982 1.429 . S
C1991 N1988 1.350 . S
C1991 C1990 1.434 . S
C939 N396 1.699 . S
C937 C9 1.742 . S
C950 C423 1.670 . S
C948 C16 1.678 . S
C959 C30 1.770 . S
C961 C437 1.783 . S
C972 N455 0.990 . S
C970 C40 0.985 . S
C981 C52 1.558 . S
C983 C460 1.562 . S
C992 C66 1.778 . S
C994 C400 1.788 . S
C1003 C76 0.920 . S
C1005 N419 0.930 . S
C1016 N432 1.709 . S
C1014 C90 1.734 . S
C1027 N478 1.678 . S
C1025 C6 1.725 . S
C1036 C21 1.674 . S
C1038 N501 1.643 . S
C1047 C28 1.690 . S
C1049 N524 1.671 . S
C1060 N557 1.245 . S
C1058 C45 1.289 . S
C1069 C54 1.575 . S
C1071 C584 1.562 . S
C1082 C607 1.957 . S
C1080 C69 1.968 . S
C1091 C81 1.144 . S
C1093 C630 1.150 1_655 S
C1104 C644 1.559 . S
C1102 C88 1.548 . S
C1113 C4 1.530 . S
C1115 C561 1.524 . S
C1124 C57 1.590 . S
C1126 N603 1.563 . S
C1137 N626 1.550 . S
C1135 C64 1.598 . S
C1146 C78 1.318 . S
C1148 N639 1.314 . S
C1159 N580 1.667 . S
C1157 C93 1.736 . S
C1170 C506 2.047 . S
C1168 C33 2.052 . S
C1179 C42 1.059 . S
C1181 C529 1.054 . S
C1192 C483 1.634 . S
C1190 C18 1.623 . S
C1203 C676 1.698 . S
C1201 C105 1.693 . S
C1212 C112 1.560 . S
C1214 C690 1.576 . S
C1223 C126 1.730 . S
C1225 N718 1.689 . S
C1236 N731 0.899 . S
C1234 C136 0.900 . S
C1245 C148 1.547 . S
C1247 C736 1.571 . S
C1256 C162 1.718 . S
C1258 N672 1.662 . S
C1267 C172 1.028 . S
C1269 N685 1.037 . S
C1278 C186 1.656 . S
C1280 C722 1.652 . S
C1291 N570 1.685 . S
C1289 C102 1.725 . S
C1300 C117 1.574 . S
C1302 N754 1.529 . S
C1313 N616 1.557 1_655 S
C1311 C124 1.587 . S
C1322 C141 1.369 . S
C1324 C791 1.370 . S
C1333 C150 1.692 . S
C1335 C492 1.686 . S
C1346 C805 2.020 . S
C1344 C165 2.011 . S
C1355 C177 1.206 . S
C1357 C538 1.217 . S
C1368 N823 1.444 . S
C1366 C184 1.483 . S
C1377 C100 1.518 . S
C1379 N787 1.489 . S
C1390 N800 1.512 . S
C1388 C153 1.548 . S
C1399 C160 1.597 . S
C1401 N534 1.572 . S
C1412 C828 1.091 . S
C1410 C174 1.085 . S
C1421 C189 1.733 . S
C1423 N488 1.674 . S
C1432 C129 1.951 . S
C1434 C759 1.959 . S
C1443 C138 1.200 . S
C1445 C621 1.205 . S
C1454 C114 1.662 . S
C1456 C575 1.683 . S
C1465 C201 1.755 . S
C1467 C713 1.758 . S
C1478 C745 1.535 . S
C1476 C208 1.529 . S
C1487 C222 1.739 . S
C1489 N662 1.705 . S
C1498 C232 0.959 . S
C1500 N695 0.963 . S
C1509 C244 1.558 . S
C1511 C699 1.559 . S
C1520 C258 1.823 . S
C1522 N708 1.804 . S
C1533 N741 0.852 . S
C1531 C268 0.840 . S
C1542 C282 1.721 . S
C1544 C667 1.731 . S
C1555 N856 1.716 . S
C1553 C198 1.759 . S
C1564 C213 1.553 . S
C1566 N593 1.512 . S
C1577 N879 1.477 . S
C1575 C220 1.503 . S
C1586 C237 1.419 . S
C1588 N649 1.343 . S
C1597 C246 1.629 . S
C1599 C897 1.630 . S
C1608 C261 2.045 . S
C1610 C515 2.045 . S
C1621 N915 1.103 . S
C1619 C273 1.114 . S
C1630 C280 1.566 . S
C1632 C552 1.557 . S
C1643 C653 1.534 . S
C1641 C196 1.549 . S
C1654 N511 1.548 . S
C1652 C249 1.592 . S
C1663 C256 1.726 . S
C1665 C920 1.739 . S
C1674 C270 1.102 . S
C1676 N547 1.089 . S
C1687 N892 1.773 . S
C1685 C285 1.807 . S
C1698 C598 1.939 1_565 S
C1696 C225 1.936 . S
C1709 C883 1.252 . S
C1707 C234 1.251 . S
C1720 C860 1.677 . S
C1718 C210 1.655 . S
C1729 C297 1.695 . S
C1731 N442 1.648 . S
C1740 C304 1.540 . S
C1742 C469 1.531 . S
C1753 C391 1.796 . S
C1751 C318 1.784 . S
C1764 N409 0.862 . S
C1762 C328 0.847 . S
C1775 C414 1.645 . S
C1773 C340 1.631 . S
C1786 C446 1.732 . S
C1784 C354 1.708 . S
C1797 N465 1.086 . S
C1795 C364 1.100 . S
C1806 C378 1.732 . S
C1808 N386 1.706 . S
C1817 C294 1.697 . S
C1819 N902 1.642 . S
C1830 N810 1.555 . S
C1828 C309 1.587 . S
C1841 C929 1.795 . S
C1839 C316 1.793 . S
C1852 C837 1.031 . S
C1850 C333 1.020 . S
C1861 C342 1.692 . S
C1863 C851 1.679 . S
C1874 C768 1.959 . S
C1872 C357 1.971 . S
C1885 C874 1.387 . S
C1883 C369 1.426 . S
C1894 C376 1.554 . S
C1896 N777 1.506 . S
C1907 N833 1.423 . S
C1905 C292 1.456 . S
C1918 N764 1.533 . S
C1916 C345 1.558 . S
C1929 N869 1.456 . S
C1927 C352 1.526 . S
C1938 C366 1.229 . S
C1940 C782 1.226 . S
C1949 C381 1.697 . S
C1951 N846 1.653 . S
C1960 C321 2.080 . S
C1962 C814 2.079 . S
C1971 C330 1.157 . S
C1973 N925 1.154 . S
C1984 C906 1.589 . S
C1982 C306 1.588 . S
