# Generated by pormake.
# Topology hwx, (6,3)-cn, num edge types: 1
# Building blocks:
#     Node 0, Type 0, BuildingBlock: IZENUY_clean_sbu_0, # of connection points: 6
#     Node 1, Type 0, BuildingBlock: IZENUY_clean_sbu_0, # of connection points: 6
#     Node 2, Type 0, BuildingBlock: IZENUY_clean_sbu_0, # of connection points: 6
#     Node 3, Type 0, BuildingBlock: IZENUY_clean_sbu_0, # of connection points: 6
#     Node 4, Type 1, BuildingBlock: PAMTOO_clean_linker_0, # of connection points: 3
#     Node 5, Type 1, BuildingBlock: PAMTOO_clean_linker_0, # of connection points: 3
#     Node 6, Type 1, BuildingBlock: PAMTOO_clean_linker_0, # of connection points: 3
#     Node 7, Type 1, BuildingBlock: PAMTOO_clean_linker_0, # of connection points: 3
#     Node 8, Type 1, BuildingBlock: PAMTOO_clean_linker_0, # of connection points: 3
#     Node 9, Type 1, BuildingBlock: PAMTOO_clean_linker_0, # of connection points: 3
#     Node 10, Type 1, BuildingBlock: PAMTOO_clean_linker_0, # of connection points: 3
#     Node 11, Type 1, BuildingBlock: PAMTOO_clean_linker_0, # of connection points: 3
#     Edge 12, Type (0, 1), BuildingBlock: TEMPAE_clean_linker_10, # of connection points: 2
#     Edge 13, Type (0, 1), BuildingBlock: TEMPAE_clean_linker_10, # of connection points: 2
#     Edge 14, Type (0, 1), BuildingBlock: TEMPAE_clean_linker_10, # of connection points: 2
#     Edge 15, Type (0, 1), BuildingBlock: TEMPAE_clean_linker_10, # of connection points: 2
#     Edge 16, Type (0, 1), BuildingBlock: TEMPAE_clean_linker_10, # of connection points: 2
#     Edge 17, Type (0, 1), BuildingBlock: TEMPAE_clean_linker_10, # of connection points: 2
#     Edge 18, Type (0, 1), BuildingBlock: TEMPAE_clean_linker_10, # of connection points: 2
#     Edge 19, Type (0, 1), BuildingBlock: TEMPAE_clean_linker_10, # of connection points: 2
#     Edge 20, Type (0, 1), BuildingBlock: TEMPAE_clean_linker_10, # of connection points: 2
#     Edge 21, Type (0, 1), BuildingBlock: TEMPAE_clean_linker_10, # of connection points: 2
#     Edge 22, Type (0, 1), BuildingBlock: TEMPAE_clean_linker_10, # of connection points: 2
#     Edge 23, Type (0, 1), BuildingBlock: TEMPAE_clean_linker_10, # of connection points: 2
#     Edge 24, Type (0, 1), BuildingBlock: TEMPAE_clean_linker_10, # of connection points: 2
#     Edge 25, Type (0, 1), BuildingBlock: TEMPAE_clean_linker_10, # of connection points: 2
#     Edge 26, Type (0, 1), BuildingBlock: TEMPAE_clean_linker_10, # of connection points: 2
#     Edge 27, Type (0, 1), BuildingBlock: TEMPAE_clean_linker_10, # of connection points: 2
#     Edge 28, Type (0, 1), BuildingBlock: TEMPAE_clean_linker_10, # of connection points: 2
#     Edge 29, Type (0, 1), BuildingBlock: TEMPAE_clean_linker_10, # of connection points: 2
#     Edge 30, Type (0, 1), BuildingBlock: TEMPAE_clean_linker_10, # of connection points: 2
#     Edge 31, Type (0, 1), BuildingBlock: TEMPAE_clean_linker_10, # of connection points: 2
#     Edge 32, Type (0, 1), BuildingBlock: TEMPAE_clean_linker_10, # of connection points: 2
#     Edge 33, Type (0, 1), BuildingBlock: TEMPAE_clean_linker_10, # of connection points: 2
#     Edge 34, Type (0, 1), BuildingBlock: TEMPAE_clean_linker_10, # of connection points: 2
#     Edge 35, Type (0, 1), BuildingBlock: TEMPAE_clean_linker_10, # of connection points: 2
# Relax obj value: 0.003
# Max RMSD: 0.062
# Mean RMSD: 0.050
data_MOF--net-hwx--node1-IZENUY_clean_sbu_0--node2-PAMTOO_clean_linker_0--edge1-TEMPAE_clean_linker_10
_symmetry_space_group_name_H-M    P1
_symmetry_Int_Tables_number       1
_symmetry_cell_setting            triclinic
loop_
_symmetry_equiv_pos_as_xyz
'x, y, z'
_cell_length_a     51.97716
_cell_length_b     52.002579
_cell_length_c     20.987044
_cell_angle_alpha  88.22639
_cell_angle_beta   91.713637
_cell_angle_gamma 90.003782
loop_
_atom_site_label
_atom_site_type_symbol
_atom_site_fract_x
_atom_site_fract_y
_atom_site_fract_z
_atom_type_partial_charge
Fe0 Fe 0.23734 0.23562 0.08319 0.0
Fe1 Fe 0.23709 0.23635 0.937 0.0
O2 O 0.22601 0.22326 0.00995 0.0
Fe3 Fe 0.20348 0.19773 0.00926 0.0
O4 O 0.17999 0.21673 0.04907 0.0
O5 O 0.20676 0.23038 0.12387 0.0
O6 O 0.2256 0.26764 0.06147 0.0
C7 C 0.23195 0.2804 0.01238 0.0
C8 C 0.23671 0.18415 0.11411 0.0
O9 O 0.24142 0.26921 0.96568 0.0
C10 C 0.235 0.18269 0.91626 0.0
O11 O 0.26988 0.24308 0.05499 0.0
O12 O 0.27008 0.22781 0.95839 0.0
O13 O 0.21518 0.18264 0.08471 0.0
O14 O 0.2499 0.20447 0.11037 0.0
C15 C 0.18628 0.23012 0.90625 0.0
O16 O 0.23497 0.20578 0.89478 0.0
O17 O 0.22566 0.17716 0.96967 0.0
C18 C 0.28203 0.235 0.00795 0.0
O19 O 0.20467 0.24579 0.91142 0.0
O20 O 0.18754 0.20806 0.93338 0.0
C21 C 0.18399 0.22709 0.10201 0.0
Fe22 Fe 0.26801 0.73613 0.59371 0.0
Fe23 Fe 0.30178 0.6984 0.52479 0.0
O24 O 0.27866 0.72347 0.52184 0.0
Fe25 Fe 0.26623 0.73583 0.44758 0.0
O26 O 0.26281 0.7691 0.47463 0.0
O27 O 0.27984 0.76782 0.57195 0.0
O28 O 0.29873 0.73086 0.63806 0.0
C29 C 0.32138 0.72844 0.61831 0.0
C30 C 0.22238 0.73541 0.51642 0.0
O31 O 0.32516 0.71823 0.56578 0.0
C32 C 0.26939 0.68182 0.4298 0.0
O33 O 0.25548 0.70502 0.61945 0.0
O34 O 0.29077 0.68373 0.60003 0.0
O35 O 0.23342 0.72759 0.46793 0.0
O36 O 0.23545 0.744 0.56294 0.0
C37 C 0.31715 0.72997 0.42061 0.0
O38 O 0.27997 0.67696 0.48369 0.0
O39 O 0.26763 0.70479 0.40776 0.0
C40 C 0.26908 0.68498 0.62563 0.0
O41 O 0.31705 0.70847 0.45052 0.0
O42 O 0.29809 0.74495 0.42176 0.0
C43 C 0.27333 0.78034 0.52157 0.0
Fe44 Fe 0.76445 0.77519 0.93256 0.0
Fe45 Fe 0.76663 0.77415 0.07884 0.0
O46 O 0.77713 0.78718 0.00512 0.0
Fe47 Fe 0.80025 0.81217 0.00385 0.0
O48 O 0.7783 0.83372 0.9597 0.0
O49 O 0.76668 0.80597 0.88765 0.0
O50 O 0.73202 0.78443 0.95219 0.0
C51 C 0.72088 0.77704 0.00214 0.0
C52 C 0.81535 0.78011 0.90489 0.0
O53 O 0.7337 0.76739 0.04936 0.0
C54 C 0.82016 0.78159 0.10139 0.0
O55 O 0.75999 0.7421 0.964 0.0
O56 O 0.77785 0.74231 0.06009 0.0
O57 O 0.81537 0.80175 0.93105 0.0
O58 O 0.79614 0.76533 0.90843 0.0
C59 C 0.76824 0.82542 0.10491 0.0
O60 O 0.79759 0.77856 0.12157 0.0
O61 O 0.82377 0.79241 0.04786 0.0
C62 C 0.7708 0.7303 0.01128 0.0
O63 O 0.75483 0.80521 0.10259 0.0
O64 O 0.78938 0.827 0.07655 0.0
C65 C 0.76797 0.82887 0.90635 0.0
Fe66 Fe 0.70294 0.31197 0.50163 0.0
Fe67 Fe 0.73958 0.27543 0.57766 0.0
O68 O 0.72676 0.2876 0.50352 0.0
Fe69 Fe 0.73778 0.27549 0.43125 0.0
O70 O 0.74871 0.30705 0.40445 0.0
O71 O 0.71332 0.32746 0.42712 0.0
O72 O 0.72426 0.33381 0.54293 0.0
C73 C 0.73494 0.32905 0.59668 0.0
C74 C 0.68401 0.28146 0.40777 0.0
O75 O 0.73678 0.30609 0.61861 0.0
C76 C 0.73507 0.23087 0.50286 0.0
O77 O 0.68814 0.30096 0.57574 0.0
O78 O 0.70804 0.2648 0.60291 0.0
O79 O 0.70669 0.27933 0.38787 0.0
O80 O 0.68004 0.29175 0.46014 0.0
C81 C 0.78333 0.27866 0.50841 0.0
O82 O 0.74478 0.24256 0.54999 0.0
O83 O 0.72759 0.24318 0.45305 0.0
C84 C 0.68853 0.27921 0.60454 0.0
O85 O 0.77187 0.28535 0.5574 0.0
O86 O 0.77087 0.2694 0.46162 0.0
C87 C 0.73467 0.32685 0.39976 0.0
H88 H 0.24281 0.58796 0.03862 0.0
H89 H 0.22546 0.5204 0.93101 0.0
H90 H 0.23602 0.51438 0.13471 0.0
H91 H 0.2659 0.47858 0.05603 0.0
C92 C 0.25054 0.47377 0.02019 0.0
O93 O 0.22902 0.48859 0.02988 0.0
H94 H 0.2579 0.47821 0.97185 0.0
C95 C 0.23872 0.56756 0.03634 0.0
C96 C 0.23926 0.55272 0.09318 0.0
C97 C 0.23335 0.55644 0.97719 0.0
C98 C 0.22933 0.52967 0.97578 0.0
C99 C 0.23075 0.5145 0.03236 0.0
C100 C 0.2351 0.52613 0.09116 0.0
H101 H 0.91524 0.76278 0.50522 0.0
H102 H 0.9882 0.75085 0.41982 0.0
H103 H 0.98322 0.7493 0.62405 0.0
H104 H 0.02988 0.77375 0.58324 0.0
C105 C 0.03092 0.76627 0.53433 0.0
O106 O 0.01428 0.74571 0.52829 0.0
H107 H 0.02503 0.78201 0.49969 0.0
C108 C 0.93578 0.75928 0.51045 0.0
C109 C 0.94728 0.7565 0.57162 0.0
C110 C 0.95028 0.75741 0.45559 0.0
C111 C 0.97669 0.75207 0.46183 0.0
C112 C 0.98852 0.74924 0.52261 0.0
C113 C 0.97379 0.75115 0.57739 0.0
H114 H 0.75551 0.42512 0.98404 0.0
H115 H 0.76426 0.49382 0.09223 0.0
H116 H 0.7672 0.49805 0.88759 0.0
H117 H 0.80534 0.53151 0.96159 0.0
C118 C 0.79251 0.53667 0.00077 0.0
O119 O 0.76906 0.52461 0.99215 0.0
H120 H 0.80167 0.5301 0.04703 0.0
C121 C 0.75844 0.44573 0.98617 0.0
C122 C 0.76102 0.46012 0.92926 0.0
C123 C 0.75964 0.45751 0.04542 0.0
C124 C 0.7638 0.4842 0.04714 0.0
C125 C 0.76668 0.49876 0.9903 0.0
C126 C 0.76549 0.48668 0.93138 0.0
H127 H 0.08792 0.24788 0.48836 0.0
H128 H 0.02071 0.26737 0.59248 0.0
H129 H 0.01498 0.25856 0.38973 0.0
H130 H 0.98333 0.30119 0.44689 0.0
C131 C 0.97783 0.29055 0.49128 0.0
O132 O 0.98923 0.26655 0.4931 0.0
H133 H 0.98467 0.30155 0.53312 0.0
C134 C 0.06764 0.25263 0.48962 0.0
C135 C 0.05298 0.25292 0.43249 0.0
C136 C 0.05657 0.25835 0.54781 0.0
C137 C 0.02995 0.26325 0.54835 0.0
C138 C 0.01499 0.26321 0.49149 0.0
C139 C 0.0266 0.25853 0.43345 0.0
H140 H 0.73935 0.92334 0.51076 0.0
H141 H 0.7341 0.99832 0.5895 0.0
H142 H 0.73727 0.99095 0.38638 0.0
H143 H 0.76819 0.0336 0.43903 0.0
C144 C 0.75665 0.03793 0.48124 0.0
O145 O 0.73437 0.02345 0.47918 0.0
H146 H 0.7683 0.03278 0.52515 0.0
C147 C 0.73803 0.94405 0.50356 0.0
C148 C 0.73847 0.95505 0.44164 0.0
C149 C 0.7365 0.95947 0.55679 0.0
C150 C 0.73483 0.98624 0.54844 0.0
C151 C 0.73495 0.99754 0.48688 0.0
C152 C 0.7366 0.98197 0.43357 0.0
H153 H 0.58895 0.26177 0.00644 0.0
H154 H 0.51598 0.25084 0.09418 0.0
H155 H 0.52044 0.25077 0.88985 0.0
H156 H 0.47699 0.28016 0.94 0.0
C157 C 0.47332 0.26847 0.98414 0.0
O158 O 0.48949 0.24734 0.98643 0.0
H159 H 0.47738 0.28058 0.02606 0.0
C160 C 0.56834 0.25871 0.00187 0.0
C161 C 0.55665 0.25653 0.94116 0.0
C162 C 0.55392 0.25685 0.05711 0.0
C163 C 0.52741 0.25207 0.05184 0.0
C164 C 0.51534 0.2501 0.99144 0.0
C165 C 0.52999 0.25204 0.93625 0.0
H166 H 0.26449 0.08739 0.53857 0.0
H167 H 0.26859 0.01944 0.42667 0.0
H168 H 0.26876 0.01268 0.63139 0.0
H169 H 0.30414 0.97735 0.57385 0.0
C170 C 0.29384 0.9741 0.52758 0.0
O171 O 0.27076 0.98729 0.52522 0.0
H172 H 0.30603 0.98143 0.48826 0.0
C173 C 0.26589 0.06666 0.53534 0.0
C174 C 0.26676 0.05145 0.59149 0.0
C175 C 0.26623 0.05545 0.47538 0.0
C176 C 0.26849 0.02856 0.47238 0.0
C177 C 0.26962 0.01318 0.52859 0.0
C178 C 0.26846 0.02463 0.58815 0.0
H179 H 0.41738 0.74488 0.0195 0.0
H180 H 0.49 0.75733 0.93119 0.0
H181 H 0.48537 0.75963 0.13515 0.0
H182 H 0.52171 0.79925 0.07332 0.0
C183 C 0.52685 0.78773 0.03173 0.0
O184 O 0.51612 0.76355 0.03836 0.0
H185 H 0.51915 0.79764 0.98743 0.0
C186 C 0.4379 0.74854 0.02391 0.0
C187 C 0.44947 0.75167 0.08445 0.0
C188 C 0.45226 0.75046 0.96858 0.0
C189 C 0.47861 0.75602 0.97358 0.0
C190 C 0.49046 0.75947 0.03366 0.0
C191 C 0.47591 0.75742 0.08895 0.0
C192 C 0.13691 0.22448 0.12518 0.0
C193 C 0.16185 0.23268 0.14244 0.0
C194 C 0.11619 0.22802 0.1655 0.0
C195 C 0.12046 0.24018 0.22427 0.0
C196 C 0.14535 0.2494 0.24076 0.0
C197 C 0.16572 0.2455 0.19977 0.0
C198 C 0.08995 0.21789 0.14634 0.0
C199 C 0.15067 0.26266 0.30281 0.0
C200 C 0.06683 0.26628 0.32332 0.0
C201 C 0.06602 0.24756 0.37261 0.0
C202 C 0.08356 0.26359 0.27249 0.0
C203 C 0.09959 0.24157 0.27111 0.0
C204 C 0.09743 0.22182 0.31861 0.0
C205 C 0.08075 0.22512 0.36894 0.0
C206 C 0.0853 0.28505 0.22275 0.0
C207 C 0.11391 0.1979 0.31857 0.0
H208 H 0.13366 0.21465 0.08086 0.0
H209 H 0.18482 0.25215 0.21325 0.0
H210 H 0.08479 0.20163 0.17897 0.0
H211 H 0.07511 0.23302 0.15066 0.0
H212 H 0.08926 0.21106 0.09668 0.0
H213 H 0.17062 0.27027 0.30652 0.0
H214 H 0.13701 0.27883 0.30768 0.0
H215 H 0.14776 0.24892 0.34345 0.0
H216 H 0.05556 0.28372 0.32655 0.0
H217 H 0.08 0.21062 0.40711 0.0
H218 H 0.08503 0.27723 0.17416 0.0
H219 H 0.10381 0.29539 0.22956 0.0
H220 H 0.06933 0.29912 0.2257 0.0
H221 H 0.11288 0.18915 0.27103 0.0
H222 H 0.10801 0.18328 0.35498 0.0
H223 H 0.13431 0.20308 0.3286 0.0
C224 C 0.2796 0.65588 0.71856 0.0
C225 C 0.26173 0.66458 0.6716 0.0
C226 C 0.27284 0.63712 0.76445 0.0
C227 C 0.24791 0.62609 0.76162 0.0
C228 C 0.23008 0.63421 0.71269 0.0
C229 C 0.23704 0.65383 0.66894 0.0
C230 C 0.29215 0.62968 0.81704 0.0
C231 C 0.20372 0.6222 0.7066 0.0
C232 C 0.24376 0.56415 0.86146 0.0
C233 C 0.23331 0.57299 0.91773 0.0
C234 C 0.24694 0.58084 0.80829 0.0
C235 C 0.24031 0.60715 0.81222 0.0
C236 C 0.2286 0.61589 0.86755 0.0
C237 C 0.22471 0.59859 0.91886 0.0
C238 C 0.25856 0.57058 0.74911 0.0
C239 C 0.2217 0.64388 0.87435 0.0
H240 H 0.29865 0.66438 0.72057 0.0
H241 H 0.22337 0.66049 0.63199 0.0
H242 H 0.28398 0.63344 0.86413 0.0
H243 H 0.2964 0.6088 0.81605 0.0
H244 H 0.31052 0.64044 0.81299 0.0
H245 H 0.19298 0.62912 0.66281 0.0
H246 H 0.20546 0.60094 0.70567 0.0
H247 H 0.19227 0.62673 0.74857 0.0
H248 H 0.25052 0.54449 0.85968 0.0
H249 H 0.21573 0.60547 0.96104 0.0
H250 H 0.27874 0.57731 0.74581 0.0
H251 H 0.24786 0.57791 0.70572 0.0
H252 H 0.25855 0.54922 0.74943 0.0
H253 H 0.23948 0.6557 0.87365 0.0
H254 H 0.21173 0.64734 0.91939 0.0
H255 H 0.20914 0.65071 0.83372 0.0
C256 C 0.86745 0.78325 0.12911 0.0
C257 C 0.84252 0.77526 0.1445 0.0
C258 C 0.88829 0.77942 0.17256 0.0
C259 C 0.88408 0.76724 0.23257 0.0
C260 C 0.85924 0.75795 0.24695 0.0
C261 C 0.83879 0.7621 0.20282 0.0
C262 C 0.91451 0.78951 0.15547 0.0
C263 C 0.85397 0.74468 0.31028 0.0
C264 C 0.93716 0.74259 0.347 0.0
C265 C 0.93728 0.76171 0.39255 0.0
C266 C 0.92093 0.74471 0.29226 0.0
C267 C 0.9047 0.76651 0.28322 0.0
C268 C 0.90621 0.78665 0.32705 0.0
C269 C 0.92243 0.78395 0.38127 0.0
C270 C 0.91991 0.72291 0.24646 0.0
C271 C 0.88947 0.81034 0.31892 0.0
H272 H 0.87059 0.79328 0.08395 0.0
H273 H 0.81969 0.75553 0.2148 0.0
H274 H 0.91927 0.80641 0.18459 0.0
H275 H 0.92951 0.77472 0.1664 0.0
H276 H 0.91535 0.79546 0.10427 0.0
H277 H 0.83417 0.73669 0.31189 0.0
H278 H 0.86792 0.72881 0.32021 0.0
H279 H 0.85645 0.75858 0.34907 0.0
H280 H 0.94861 0.72536 0.35599 0.0
H281 H 0.92277 0.79882 0.4164 0.0
H282 H 0.92018 0.73041 0.19642 0.0
H283 H 0.90165 0.71214 0.25218 0.0
H284 H 0.93621 0.7093 0.25491 0.0
H285 H 0.89088 0.8188 0.26999 0.0
H286 H 0.89482 0.82528 0.35365 0.0
H287 H 0.86905 0.80497 0.32571 0.0
C288 C 0.75223 0.34591 0.69993 0.0
C289 C 0.74227 0.35073 0.63784 0.0
C290 C 0.75709 0.36611 0.74141 0.0
C291 C 0.75192 0.39178 0.72036 0.0
C292 C 0.74304 0.3969 0.65686 0.0
C293 C 0.73832 0.37632 0.61633 0.0
C294 C 0.76669 0.35984 0.80875 0.0
C295 C 0.73741 0.42401 0.63259 0.0
C296 C 0.73427 0.43462 0.85478 0.0
C297 C 0.75769 0.44684 0.86843 0.0
C298 C 0.73178 0.41775 0.80425 0.0
C299 C 0.75337 0.41277 0.76696 0.0
C300 C 0.77673 0.42617 0.77843 0.0
C301 C 0.7786 0.44319 0.82921 0.0
C302 C 0.70644 0.4041 0.7933 0.0
C303 C 0.80016 0.42137 0.73973 0.0
H304 H 0.75559 0.32627 0.71687 0.0
H305 H 0.73087 0.3803 0.56825 0.0
H306 H 0.78388 0.37161 0.82063 0.0
H307 H 0.7516 0.36464 0.84275 0.0
H308 H 0.77177 0.33919 0.81606 0.0
H309 H 0.73344 0.42503 0.58026 0.0
H310 H 0.72037 0.43151 0.6567 0.0
H311 H 0.75382 0.43687 0.64402 0.0
H312 H 0.71817 0.43749 0.8855 0.0
H313 H 0.79677 0.4525 0.84044 0.0
H314 H 0.70879 0.3833 0.80553 0.0
H315 H 0.70026 0.40584 0.7423 0.0
H316 H 0.69095 0.41186 0.8226 0.0
H317 H 0.80783 0.40186 0.75188 0.0
H318 H 0.81564 0.43562 0.74898 0.0
H319 H 0.79502 0.42199 0.68802 0.0
C320 C 0.66592 0.26208 0.30858 0.0
C321 C 0.66185 0.27483 0.36532 0.0
C322 C 0.64557 0.2577 0.26493 0.0
C323 C 0.62052 0.26636 0.27815 0.0
C324 C 0.616 0.27812 0.33668 0.0
C325 C 0.63672 0.28217 0.37971 0.0
C326 C 0.65116 0.24487 0.20323 0.0
C327 C 0.58956 0.28758 0.35248 0.0
C328 C 0.58163 0.28325 0.12772 0.0
C329 C 0.56708 0.26088 0.11938 0.0
C330 C 0.59796 0.28587 0.18135 0.0
C331 C 0.59992 0.2655 0.22755 0.0
C332 C 0.58407 0.24348 0.2213 0.0
C333 C 0.56769 0.24146 0.16711 0.0
C334 C 0.61428 0.30981 0.18647 0.0
C335 C 0.5856 0.22141 0.26964 0.0
H336 H 0.68518 0.25602 0.29743 0.0
H337 H 0.63333 0.29188 0.42365 0.0
H338 H 0.63753 0.22881 0.19513 0.0
H339 H 0.64847 0.25894 0.16274 0.0
H340 H 0.67112 0.23724 0.20272 0.0
H341 H 0.58856 0.29329 0.40293 0.0
H342 H 0.58442 0.30451 0.32118 0.0
H343 H 0.57489 0.27252 0.34343 0.0
H344 H 0.58095 0.29833 0.09081 0.0
H345 H 0.55647 0.22412 0.16033 0.0
H346 H 0.63479 0.30481 0.18029 0.0
H347 H 0.61273 0.318 0.23438 0.0
H348 H 0.60865 0.32483 0.1499 0.0
H349 H 0.60411 0.21109 0.26519 0.0
H350 H 0.56963 0.20747 0.26278 0.0
H351 H 0.58514 0.22859 0.31882 0.0
C352 C 0.24485 0.16615 0.80902 0.0
C353 C 0.24253 0.16157 0.87478 0.0
C354 C 0.25013 0.14601 0.76841 0.0
C355 C 0.25356 0.1207 0.79426 0.0
C356 C 0.2521 0.11608 0.86085 0.0
C357 C 0.24643 0.13654 0.9003 0.0
C358 C 0.25132 0.15171 0.69753 0.0
C359 C 0.25605 0.08945 0.89022 0.0
C360 C 0.23961 0.06891 0.67494 0.0
C361 C 0.2642 0.06425 0.65256 0.0
C362 C 0.23601 0.08623 0.72383 0.0
C363 C 0.25757 0.09909 0.75076 0.0
C364 C 0.28264 0.09313 0.73087 0.0
C365 C 0.28563 0.0759 0.6814 0.0
C366 C 0.20896 0.09213 0.74333 0.0
C367 C 0.30612 0.10618 0.75889 0.0
H368 H 0.24181 0.18539 0.78886 0.0
H369 H 0.24489 0.13289 0.95118 0.0
H370 H 0.2701 0.1454 0.67967 0.0
H371 H 0.23609 0.14078 0.67198 0.0
H372 H 0.24875 0.1725 0.68522 0.0
H373 H 0.25595 0.08937 0.94315 0.0
H374 H 0.24058 0.07648 0.87294 0.0
H375 H 0.27461 0.08137 0.87533 0.0
H376 H 0.22308 0.06014 0.65153 0.0
H377 H 0.30458 0.07248 0.66307 0.0
H378 H 0.20378 0.11205 0.72728 0.0
H379 H 0.20767 0.09106 0.79599 0.0
H380 H 0.19461 0.07873 0.72242 0.0
H381 H 0.30642 0.12662 0.7421 0.0
H382 H 0.32425 0.09689 0.74486 0.0
H383 H 0.30551 0.10594 0.8117 0.0
C384 C 0.33577 0.75356 0.32675 0.0
C385 C 0.3389 0.73618 0.37882 0.0
C386 C 0.3556 0.75757 0.2835 0.0
C387 C 0.37924 0.74423 0.29325 0.0
C388 C 0.38298 0.72781 0.34777 0.0
C389 C 0.3627 0.72381 0.38957 0.0
C390 C 0.35075 0.77502 0.22555 0.0
C391 C 0.40804 0.71362 0.36056 0.0
C392 C 0.4151 0.72879 0.14466 0.0
C393 C 0.43351 0.74852 0.14185 0.0
C394 C 0.39762 0.72707 0.19407 0.0
C395 C 0.39883 0.74522 0.24292 0.0
C396 C 0.41816 0.76444 0.24229 0.0
C397 C 0.43524 0.76594 0.19151 0.0
C398 C 0.37735 0.70624 0.19286 0.0
C399 C 0.4203 0.78382 0.29421 0.0
H400 H 0.31745 0.76322 0.31825 0.0
H401 H 0.36538 0.71067 0.43035 0.0
H402 H 0.36654 0.78923 0.2208 0.0
H403 H 0.35038 0.76343 0.182 0.0
H404 H 0.33221 0.78554 0.22753 0.0
H405 H 0.40904 0.70425 0.40887 0.0
H406 H 0.41019 0.69856 0.32479 0.0
H407 H 0.42458 0.72696 0.35586 0.0
H408 H 0.41404 0.71487 0.10727 0.0
H409 H 0.44936 0.78126 0.18958 0.0
H410 H 0.3579 0.71508 0.19023 0.0
H411 H 0.3787 0.69424 0.23745 0.0
H412 H 0.3792 0.6935 0.15171 0.0
H413 H 0.40306 0.79642 0.29214 0.0
H414 H 0.4377 0.79609 0.28981 0.0
H415 H 0.42096 0.77388 0.34178 0.0
C416 C 0.75722 0.84594 0.79627 0.0
C417 C 0.76049 0.85035 0.86159 0.0
C418 C 0.75187 0.86621 0.75236 0.0
C419 C 0.74928 0.89154 0.7743 0.0
C420 C 0.75166 0.89605 0.84038 0.0
C421 C 0.75745 0.87541 0.88328 0.0
C422 C 0.74978 0.86061 0.68216 0.0
C423 C 0.74855 0.92271 0.86556 0.0
C424 C 0.76363 0.94214 0.6469 0.0
C425 C 0.73903 0.94707 0.62063 0.0
C426 C 0.76714 0.92531 0.69993 0.0
C427 C 0.74544 0.91323 0.7271 0.0
C428 C 0.72038 0.9196 0.7032 0.0
C429 C 0.71748 0.93633 0.64961 0.0
C430 C 0.79418 0.91891 0.72354 0.0
C431 C 0.69677 0.9074 0.73134 0.0
H432 H 0.75959 0.82666 0.77904 0.0
H433 H 0.75973 0.87893 0.93378 0.0
H434 H 0.73093 0.86732 0.66182 0.0
H435 H 0.76496 0.87124 0.65623 0.0
H436 H 0.7518 0.83978 0.67309 0.0
H437 H 0.74901 0.92268 0.91852 0.0
H438 H 0.76422 0.93532 0.84813 0.0
H439 H 0.73009 0.93128 0.84751 0.0
H440 H 0.78023 0.95027 0.62352 0.0
H441 H 0.6985 0.94002 0.62843 0.0
H442 H 0.79888 0.89887 0.71135 0.0
H443 H 0.79582 0.92007 0.77618 0.0
H444 H 0.80868 0.93198 0.70201 0.0
H445 H 0.69559 0.88698 0.71775 0.0
H446 H 0.67881 0.91731 0.71422 0.0
H447 H 0.69794 0.90768 0.78419 0.0
C448 C 0.83382 0.75592 0.81535 0.0
C449 C 0.83702 0.77362 0.86402 0.0
C450 C 0.85355 0.75163 0.77261 0.0
C451 C 0.87718 0.76503 0.77941 0.0
C452 C 0.88101 0.78179 0.83068 0.0
C453 C 0.86082 0.78605 0.87202 0.0
C454 C 0.84861 0.7338 0.71816 0.0
C455 C 0.90605 0.79608 0.84032 0.0
C456 C 0.93311 0.74276 0.68131 0.0
C457 C 0.93122 0.75985 0.62833 0.0
C458 C 0.91607 0.74453 0.7319 0.0
C459 C 0.89665 0.7637 0.729 0.0
C460 C 0.89528 0.7815 0.67664 0.0
C461 C 0.91269 0.77951 0.62742 0.0
C462 C 0.91838 0.72551 0.78754 0.0
C463 C 0.87492 0.80228 0.67163 0.0
H464 H 0.81551 0.74621 0.80899 0.0
H465 H 0.86357 0.79945 0.91019 0.0
H466 H 0.84808 0.74509 0.67239 0.0
H467 H 0.86445 0.71959 0.71591 0.0
H468 H 0.83012 0.72327 0.7225 0.0
H469 H 0.90713 0.80577 0.88676 0.0
H470 H 0.92261 0.78272 0.83798 0.0
H471 H 0.90806 0.81088 0.80159 0.0
H472 H 0.94733 0.7275 0.68227 0.0
H473 H 0.91152 0.79318 0.58739 0.0
H474 H 0.90113 0.71295 0.78826 0.0
H475 H 0.91919 0.73577 0.83312 0.0
H476 H 0.93575 0.71317 0.78519 0.0
H477 H 0.8555 0.79341 0.67103 0.0
H478 H 0.87663 0.81472 0.62797 0.0
H479 H 0.87634 0.81459 0.71381 0.0
C480 C 0.75984 0.3453 0.3091 0.0
C481 C 0.7415 0.34847 0.35589 0.0
C482 C 0.76437 0.36489 0.26324 0.0
C483 C 0.75045 0.38828 0.26476 0.0
C484 C 0.73304 0.39213 0.31412 0.0
C485 C 0.72867 0.37213 0.35886 0.0
C486 C 0.78301 0.36001 0.21113 0.0
C487 C 0.71811 0.41692 0.31797 0.0
C488 C 0.77244 0.44417 0.15818 0.0
C489 C 0.75603 0.44158 0.10448 0.0
C490 C 0.77056 0.42732 0.21158 0.0
C491 C 0.75193 0.40743 0.21087 0.0
C492 C 0.73481 0.40531 0.15761 0.0
C493 C 0.73695 0.42251 0.1054 0.0
C494 C 0.78891 0.43034 0.26793 0.0
C495 C 0.71459 0.38445 0.15498 0.0
H496 H 0.76992 0.32712 0.30665 0.0
H497 H 0.71476 0.37489 0.39553 0.0
H498 H 0.77228 0.3588 0.1648 0.0
H499 H 0.79682 0.37618 0.20663 0.0
H500 H 0.794 0.34186 0.21994 0.0
H501 H 0.70782 0.41809 0.36343 0.0
H502 H 0.73116 0.43371 0.31341 0.0
H503 H 0.70373 0.4184 0.27788 0.0
H504 H 0.78728 0.45882 0.15761 0.0
H505 H 0.72384 0.42077 0.0646 0.0
H506 H 0.80179 0.41334 0.27284 0.0
H507 H 0.77809 0.43126 0.31259 0.0
H508 H 0.80095 0.4479 0.26307 0.0
H509 H 0.72397 0.36527 0.15847 0.0
H510 H 0.70259 0.38565 0.11028 0.0
H511 H 0.70177 0.38575 0.19606 0.0
C512 C 0.15674 0.21688 0.81812 0.0
C513 C 0.1651 0.23583 0.85986 0.0
C514 C 0.1376 0.22221 0.77114 0.0
C515 C 0.12588 0.24683 0.76747 0.0
C516 C 0.13353 0.26572 0.81142 0.0
C517 C 0.1535 0.26016 0.85636 0.0
C518 C 0.13064 0.20181 0.72392 0.0
C519 C 0.12082 0.29183 0.81052 0.0
C520 C 0.09872 0.26714 0.60429 0.0
C521 C 0.07313 0.25856 0.60714 0.0
C522 C 0.11589 0.26406 0.65666 0.0
C523 C 0.10704 0.25317 0.71456 0.0
C524 C 0.08077 0.24638 0.7196 0.0
C525 C 0.06419 0.24879 0.66555 0.0
C526 C 0.14384 0.27113 0.64876 0.0
C527 C 0.07043 0.23557 0.7813 0.0
H528 H 0.1659 0.19812 0.8207 0.0
H529 H 0.15987 0.27469 0.88925 0.0
H530 H 0.10978 0.19746 0.72528 0.0
H531 H 0.13466 0.209 0.67486 0.0
H532 H 0.14155 0.18366 0.73348 0.0
H533 H 0.12703 0.30328 0.85208 0.0
H534 H 0.12561 0.30278 0.76627 0.0
H535 H 0.09958 0.28969 0.81049 0.0
H536 H 0.10565 0.27563 0.56024 0.0
H537 H 0.04452 0.24209 0.66861 0.0
H538 H 0.15597 0.25361 0.6552 0.0
H539 H 0.15019 0.28472 0.6857 0.0
H540 H 0.14745 0.28004 0.60107 0.0
H541 H 0.07765 0.21567 0.79005 0.0
H542 H 0.04905 0.23509 0.78035 0.0
H543 H 0.07724 0.24716 0.822 0.0
C544 C 0.24991 0.66502 0.32873 0.0
C545 C 0.26217 0.66019 0.38835 0.0
C546 C 0.24509 0.64507 0.28648 0.0
C547 C 0.25282 0.61964 0.30407 0.0
C548 C 0.26423 0.61442 0.36514 0.0
C549 C 0.2687 0.63474 0.40665 0.0
C550 C 0.23263 0.65139 0.22196 0.0
C551 C 0.27276 0.58759 0.38557 0.0
C552 C 0.22532 0.56743 0.19888 0.0
C553 C 0.24452 0.56571 0.15382 0.0
C554 C 0.22817 0.58411 0.25011 0.0
C555 C 0.25083 0.59911 0.25628 0.0
C556 C 0.27092 0.59608 0.21298 0.0
C557 C 0.26742 0.57955 0.16198 0.0
C558 C 0.2063 0.58687 0.29511 0.0
C559 C 0.29553 0.61141 0.21831 0.0
H560 H 0.24455 0.68454 0.31435 0.0
H561 H 0.27808 0.63074 0.4527 0.0
H562 H 0.2466 0.64811 0.18408 0.0
H563 H 0.21594 0.63854 0.21314 0.0
H564 H 0.22593 0.67167 0.21756 0.0
H565 H 0.27899 0.58627 0.43667 0.0
H566 H 0.25696 0.57363 0.37737 0.0
H567 H 0.28909 0.58173 0.35638 0.0
H568 H 0.20751 0.55689 0.19194 0.0
H569 H 0.2822 0.57817 0.12683 0.0
H570 H 0.19705 0.60595 0.28658 0.0
H571 H 0.21357 0.58598 0.34536 0.0
H572 H 0.19145 0.57174 0.28863 0.0
H573 H 0.29135 0.63207 0.20788 0.0
H574 H 0.31017 0.60499 0.1847 0.0
H575 H 0.30384 0.60975 0.26757 0.0
C576 C 0.33979 0.74666 0.71857 0.0
C577 C 0.34365 0.73435 0.66113 0.0
C578 C 0.36024 0.75047 0.7623 0.0
C579 C 0.38518 0.74168 0.74841 0.0
C580 C 0.38947 0.73028 0.68932 0.0
C581 C 0.36865 0.7268 0.64624 0.0
C582 C 0.3549 0.76293 0.82463 0.0
C583 C 0.41579 0.72068 0.67284 0.0
C584 C 0.43843 0.76598 0.85889 0.0
C585 C 0.43909 0.74643 0.90632 0.0
C586 C 0.4219 0.76418 0.80495 0.0
C587 C 0.40595 0.74224 0.7986 0.0
C588 C 0.40797 0.72171 0.84437 0.0
C589 C 0.42445 0.72413 0.89783 0.0
C590 C 0.42027 0.78642 0.75712 0.0
C591 C 0.39156 0.69786 0.83904 0.0
H592 H 0.32062 0.75286 0.73013 0.0
H593 H 0.37188 0.71742 0.60176 0.0
H594 H 0.3577 0.74863 0.86458 0.0
H595 H 0.3686 0.77892 0.83299 0.0
H596 H 0.33497 0.7706 0.82586 0.0
H597 H 0.41658 0.71506 0.62228 0.0
H598 H 0.43057 0.73563 0.68175 0.0
H599 H 0.42094 0.70368 0.70386 0.0
H600 H 0.44968 0.78328 0.86582 0.0
H601 H 0.42515 0.70897 0.93452 0.0
H602 H 0.40181 0.79677 0.76219 0.0
H603 H 0.42054 0.77943 0.70774 0.0
H604 H 0.4363 0.8003 0.76396 0.0
H605 H 0.3711 0.70288 0.84596 0.0
H606 H 0.39732 0.68266 0.87505 0.0
H607 H 0.39285 0.68988 0.79082 0.0
C608 C 0.77441 0.86985 0.1452 0.0
C609 C 0.7609 0.84647 0.14699 0.0
C610 C 0.76932 0.88925 0.18812 0.0
C611 C 0.75035 0.88516 0.23431 0.0
C612 C 0.73585 0.86208 0.23463 0.0
C613 C 0.74123 0.84304 0.19081 0.0
C614 C 0.78506 0.91365 0.18579 0.0
C615 C 0.71548 0.85698 0.28321 0.0
C616 C 0.7601 0.91804 0.39196 0.0
C617 C 0.74211 0.93817 0.38664 0.0
C618 C 0.76292 0.90078 0.34271 0.0
C619 C 0.74755 0.90379 0.28617 0.0
C620 C 0.72978 0.92443 0.27964 0.0
C621 C 0.72726 0.94142 0.33004 0.0
C622 C 0.78223 0.87914 0.35154 0.0
C623 C 0.7132 0.92834 0.21986 0.0
H624 H 0.78941 0.87286 0.11096 0.0
H625 H 0.73058 0.82512 0.19238 0.0
H626 H 0.77232 0.93076 0.1858 0.0
H627 H 0.79789 0.91434 0.22893 0.0
H628 H 0.79714 0.91501 0.14302 0.0
H629 H 0.70432 0.83923 0.27349 0.0
H630 H 0.72471 0.85487 0.33146 0.0
H631 H 0.70195 0.87346 0.284 0.0
H632 H 0.77204 0.91573 0.435 0.0
H633 H 0.71326 0.95687 0.32576 0.0
H634 H 0.79655 0.8804 0.31343 0.0
H635 H 0.77232 0.86033 0.34753 0.0
H636 H 0.79264 0.87946 0.39851 0.0
H637 H 0.72547 0.93003 0.17756 0.0
H638 H 0.70096 0.9458 0.22135 0.0
H639 H 0.70057 0.91138 0.21323 0.0
C640 C 0.67024 0.25465 0.69752 0.0
C641 C 0.6669 0.27229 0.64608 0.0
C642 C 0.65053 0.2503 0.741 0.0
C643 C 0.62684 0.26364 0.73217 0.0
C644 C 0.62286 0.28026 0.67815 0.0
C645 C 0.64298 0.28451 0.63604 0.0
C646 C 0.65559 0.23256 0.79829 0.0
C647 C 0.59777 0.29453 0.66641 0.0
C648 C 0.57072 0.24227 0.83404 0.0
C649 C 0.57272 0.25954 0.88397 0.0
C650 C 0.58788 0.24359 0.7834 0.0
C651 C 0.60748 0.26254 0.78306 0.0
C652 C 0.60898 0.28052 0.83227 0.0
C653 C 0.5915 0.27892 0.8817 0.0
C654 C 0.58548 0.22434 0.73121 0.0
C655 C 0.62947 0.30113 0.83365 0.0
H656 H 0.68864 0.24508 0.70545 0.0
H657 H 0.64011 0.29787 0.59574 0.0
H658 H 0.65641 0.24396 0.84215 0.0
H659 H 0.63968 0.2185 0.80336 0.0
H660 H 0.67399 0.22186 0.7952 0.0
H661 H 0.59656 0.30407 0.61831 0.0
H662 H 0.58123 0.28121 0.67133 0.0
H663 H 0.59585 0.30946 0.7026 0.0
H664 H 0.55632 0.22721 0.83567 0.0
H665 H 0.59279 0.29267 0.91944 0.0
H666 H 0.60275 0.21177 0.73251 0.0
H667 H 0.58457 0.23441 0.68382 0.0
H668 H 0.56813 0.21203 0.73596 0.0
H669 H 0.64884 0.2921 0.83568 0.0
H670 H 0.62788 0.31371 0.87518 0.0
H671 H 0.6281 0.31332 0.78937 0.0
C672 C 0.2641 0.16674 0.20609 0.0
C673 C 0.24466 0.16301 0.15947 0.0
C674 C 0.26968 0.1477 0.25344 0.0
C675 C 0.25565 0.12435 0.2538 0.0
C676 C 0.23709 0.1199 0.2047 0.0
C677 C 0.23177 0.1393 0.15828 0.0
C678 C 0.28959 0.15318 0.3051 0.0
C679 C 0.22189 0.09516 0.203 0.0
C680 C 0.27853 0.06884 0.36406 0.0
C681 C 0.26303 0.07208 0.41681 0.0
C682 C 0.2763 0.08558 0.31021 0.0
C683 C 0.25818 0.10595 0.30934 0.0
C684 C 0.24217 0.10894 0.36198 0.0
C685 C 0.24471 0.09192 0.41477 0.0
C686 C 0.29354 0.08173 0.2547 0.0
C687 C 0.22248 0.1303 0.36288 0.0
H688 H 0.27426 0.18493 0.20718 0.0
H689 H 0.21699 0.13608 0.12186 0.0
H690 H 0.27993 0.15542 0.35105 0.0
H691 H 0.30324 0.13685 0.31158 0.0
H692 H 0.30067 0.17099 0.29441 0.0
H693 H 0.21047 0.09344 0.15775 0.0
H694 H 0.23493 0.07831 0.20896 0.0
H695 H 0.2085 0.09436 0.24319 0.0
H696 H 0.29278 0.0536 0.36552 0.0
H697 H 0.23228 0.09418 0.4548 0.0
H698 H 0.30603 0.09883 0.24785 0.0
H699 H 0.28177 0.07976 0.21014 0.0
H700 H 0.30596 0.06443 0.2618 0.0
H701 H 0.23214 0.14924 0.35758 0.0
H702 H 0.2116 0.12999 0.40767 0.0
H703 H 0.20858 0.12865 0.32207 0.0
C704 C 0.21961 0.32185 0.0619 0.0
C705 C 0.23133 0.30897 0.01257 0.0
C706 C 0.22033 0.34882 0.06454 0.0
C707 C 0.23325 0.36329 0.01701 0.0
C708 C 0.24455 0.35046 0.96626 0.0
C709 C 0.24335 0.32352 0.9645 0.0
C710 C 0.20782 0.3618 0.11903 0.0
C711 C 0.25864 0.36514 0.9148 0.0
C712 C 0.22276 0.43547 0.99244 0.0
C713 C 0.24438 0.4454 0.02477 0.0
C714 C 0.21837 0.40879 0.99125 0.0
C715 C 0.23631 0.39167 0.02207 0.0
C716 C 0.25804 0.40167 0.05524 0.0
C717 C 0.26182 0.42838 0.05604 0.0
C718 C 0.19493 0.39889 0.9556 0.0
C719 C 0.27776 0.38412 0.08821 0.0
H720 H 0.2101 0.31083 0.09902 0.0
H721 H 0.25245 0.31382 0.92612 0.0
H722 H 0.22275 0.37125 0.14907 0.0
H723 H 0.19442 0.37705 0.10043 0.0
H724 H 0.197 0.34802 0.14961 0.0
H725 H 0.26537 0.35243 0.87711 0.0
H726 H 0.24596 0.38021 0.89224 0.0
H727 H 0.27558 0.37502 0.93619 0.0
H728 H 0.20953 0.44858 0.96712 0.0
H729 H 0.27881 0.43598 0.08003 0.0
H730 H 0.18401 0.38546 0.98675 0.0
H731 H 0.20099 0.38795 0.91404 0.0
H732 H 0.18189 0.41469 0.9382 0.0
H733 H 0.2683 0.37089 0.12272 0.0
H734 H 0.29303 0.39496 0.11405 0.0
H735 H 0.28697 0.37208 0.05257 0.0
C736 C 0.1819 0.75023 0.56549 0.0
C737 C 0.19385 0.73723 0.5167 0.0
C738 C 0.15508 0.75314 0.56578 0.0
C739 C 0.13965 0.7426 0.51641 0.0
C740 C 0.15146 0.72894 0.46773 0.0
C741 C 0.17844 0.72651 0.46827 0.0
C742 C 0.14331 0.76801 0.61837 0.0
C743 C 0.13562 0.71721 0.41466 0.0
C744 C 0.06868 0.73598 0.55331 0.0
C745 C 0.05835 0.75832 0.52346 0.0
C746 C 0.09492 0.72992 0.54886 0.0
C747 C 0.11128 0.7469 0.51487 0.0
C748 C 0.1008 0.76924 0.48374 0.0
C749 C 0.0745 0.7747 0.48855 0.0
C750 C 0.10532 0.70586 0.58251 0.0
C751 C 0.11759 0.788 0.44761 0.0
H752 H 0.19355 0.75859 0.60319 0.0
H753 H 0.18745 0.71629 0.43061 0.0
H754 H 0.13304 0.78516 0.5977 0.0
H755 H 0.12893 0.75595 0.64336 0.0
H756 H 0.15795 0.77451 0.65402 0.0
H757 H 0.14757 0.70608 0.38224 0.0
H758 H 0.12075 0.70427 0.43486 0.0
H759 H 0.12538 0.7326 0.38622 0.0
H760 H 0.05633 0.72353 0.58129 0.0
H761 H 0.06666 0.79221 0.46632 0.0
H762 H 0.11834 0.71119 0.62283 0.0
H763 H 0.11682 0.69457 0.54953 0.0
H764 H 0.08975 0.69343 0.60146 0.0
H765 H 0.13159 0.79693 0.48118 0.0
H766 H 0.10621 0.80354 0.42256 0.0
H767 H 0.12881 0.77781 0.412 0.0
C768 C 0.76165 0.68774 0.96238 0.0
C769 C 0.77363 0.70188 0.01084 0.0
C770 C 0.76436 0.66089 0.9609 0.0
C771 C 0.77962 0.64783 0.00862 0.0
C772 C 0.79181 0.66197 0.05761 0.0
C773 C 0.78858 0.68879 0.05828 0.0
C774 C 0.75088 0.64649 0.90816 0.0
C775 C 0.80843 0.64878 0.10903 0.0
C776 C 0.76915 0.57601 0.03712 0.0
C777 C 0.78883 0.56546 0.00179 0.0
C778 C 0.76584 0.60278 0.0395 0.0
C779 C 0.78298 0.61939 0.00693 0.0
C780 C 0.80323 0.60882 0.97237 0.0
C781 C 0.80592 0.58198 0.97029 0.0
C782 C 0.74396 0.61327 0.07668 0.0
C783 C 0.82209 0.62588 0.93768 0.0
H784 H 0.75002 0.69763 0.92557 0.0
H785 H 0.79805 0.69955 0.09571 0.0
H786 H 0.76525 0.63632 0.88007 0.0
H787 H 0.73793 0.63168 0.92883 0.0
H788 H 0.73935 0.65943 0.8753 0.0
H789 H 0.81658 0.66253 0.14374 0.0
H790 H 0.79701 0.63413 0.1353 0.0
H791 H 0.82453 0.63856 0.08718 0.0
H792 H 0.75627 0.56327 0.06269 0.0
H793 H 0.82147 0.57387 0.94405 0.0
H794 H 0.73124 0.62539 0.04474 0.0
H795 H 0.75162 0.62573 0.11477 0.0
H796 H 0.73221 0.59777 0.09892 0.0
H797 H 0.81171 0.63816 0.90119 0.0
H798 H 0.83699 0.61465 0.91378 0.0
H799 H 0.83181 0.63891 0.97165 0.0
C800 C 0.82522 0.26795 0.45919 0.0
C801 C 0.81186 0.28004 0.50713 0.0
C802 C 0.85216 0.26924 0.45694 0.0
C803 C 0.86615 0.28321 0.50331 0.0
C804 C 0.85281 0.2955 0.55177 0.0
C805 C 0.82586 0.29368 0.55328 0.0
C806 C 0.86568 0.25567 0.40485 0.0
C807 C 0.86701 0.31079 0.60172 0.0
C808 C 0.93746 0.26868 0.53088 0.0
C809 C 0.94889 0.28811 0.49344 0.0
C810 C 0.91056 0.26675 0.53421 0.0
C811 C 0.89473 0.2851 0.50069 0.0
C812 C 0.90619 0.30516 0.46425 0.0
C813 C 0.93313 0.30643 0.46115 0.0
C814 C 0.89909 0.24503 0.57338 0.0
C815 C 0.89001 0.32532 0.42861 0.0
H816 H 0.81462 0.2573 0.42341 0.0
H817 H 0.81572 0.30321 0.59029 0.0
H818 H 0.87648 0.26981 0.3754 0.0
H819 H 0.87989 0.24172 0.42616 0.0
H820 H 0.85206 0.2452 0.37314 0.0
H821 H 0.85381 0.31922 0.63615 0.0
H822 H 0.88114 0.2983 0.62852 0.0
H823 H 0.87797 0.3266 0.57844 0.0
H824 H 0.94957 0.25489 0.55738 0.0
H825 H 0.94194 0.32183 0.43349 0.0
H826 H 0.88617 0.23335 0.54273 0.0
H827 H 0.88721 0.25289 0.61128 0.0
H828 H 0.91404 0.2322 0.59607 0.0
H829 H 0.87708 0.31605 0.39312 0.0
H830 H 0.90191 0.33992 0.40336 0.0
H831 H 0.87761 0.33528 0.46223 0.0
C832 C 0.74978 0.18815 0.54948 0.0
C833 C 0.73543 0.2023 0.50279 0.0
C834 C 0.75185 0.16125 0.54712 0.0
C835 C 0.73904 0.14812 0.49726 0.0
C836 C 0.72382 0.16219 0.45126 0.0
C837 C 0.72229 0.18909 0.45439 0.0
C838 C 0.76841 0.14698 0.59686 0.0
C839 C 0.70962 0.14888 0.39781 0.0
C840 C 0.76683 0.08395 0.45101 0.0
C841 C 0.75066 0.06634 0.48202 0.0
C842 C 0.76308 0.11057 0.45508 0.0
C843 C 0.74269 0.11986 0.49135 0.0
C844 C 0.72626 0.10217 0.52279 0.0
C845 C 0.73064 0.07561 0.51839 0.0
C846 C 0.78123 0.12876 0.42146 0.0
C847 C 0.70428 0.11131 0.56169 0.0
H848 H 0.76002 0.19814 0.58704 0.0
H849 H 0.71097 0.19981 0.41839 0.0
H850 H 0.75719 0.1314 0.62023 0.0
H851 H 0.78483 0.1378 0.57371 0.0
H852 H 0.77614 0.15984 0.63414 0.0
H853 H 0.69728 0.16235 0.36833 0.0
H854 H 0.72364 0.13989 0.36644 0.0
H855 H 0.69738 0.13324 0.41744 0.0
H856 H 0.7827 0.07684 0.42416 0.0
H857 H 0.71852 0.06206 0.54382 0.0
H858 H 0.79123 0.14102 0.45676 0.0
H859 H 0.77026 0.14176 0.38769 0.0
H860 H 0.79594 0.11845 0.39464 0.0
H861 H 0.71186 0.12257 0.60217 0.0
H862 H 0.69261 0.09511 0.58094 0.0
H863 H 0.69151 0.12428 0.53206 0.0
C864 C 0.32384 0.25158 0.05314 0.0
C865 C 0.31053 0.23698 0.0077 0.0
C866 C 0.35059 0.2552 0.05051 0.0
C867 C 0.36444 0.2437 0.00172 0.0
C868 C 0.35127 0.2282 0.95709 0.0
C869 C 0.32448 0.22513 0.96039 0.0
C870 C 0.36387 0.27204 0.09872 0.0
C871 C 0.36539 0.21535 0.90487 0.0
C872 C 0.42678 0.27586 0.95273 0.0
C873 C 0.44538 0.26052 0.98525 0.0
C874 C 0.40044 0.2704 0.95714 0.0
C875 C 0.39244 0.2491 0.99529 0.0
C876 C 0.41114 0.23347 0.02821 0.0
C877 C 0.43739 0.23956 0.02345 0.0
C878 C 0.38114 0.28775 0.92192 0.0
C879 C 0.40338 0.21055 0.06915 0.0
H880 H 0.31327 0.26083 0.08982 0.0
H881 H 0.31442 0.21363 0.9254 0.0
H882 H 0.38012 0.26151 0.12298 0.0
H883 H 0.37203 0.28923 0.07404 0.0
H884 H 0.35058 0.27859 0.13542 0.0
H885 H 0.35267 0.20251 0.87666 0.0
H886 H 0.37348 0.23019 0.87207 0.0
H887 H 0.38177 0.20387 0.92554 0.0
H888 H 0.43288 0.29244 0.92448 0.0
H889 H 0.45167 0.22806 0.05007 0.0
H890 H 0.36831 0.29664 0.95638 0.0
H891 H 0.36881 0.27635 0.88925 0.0
H892 H 0.39052 0.30332 0.89362 0.0
H893 H 0.39176 0.21701 0.10915 0.0
H894 H 0.42028 0.19964 0.0892 0.0
H895 H 0.39114 0.19737 0.04078 0.0
C896 C 0.29065 0.82094 0.56758 0.0
C897 C 0.27611 0.80878 0.51978 0.0
C898 C 0.29328 0.84781 0.56731 0.0
C899 C 0.28091 0.863 0.51832 0.0
C900 C 0.26625 0.85089 0.46984 0.0
C901 C 0.26412 0.82392 0.47095 0.0
C902 C 0.30931 0.85994 0.61953 0.0
C903 C 0.25264 0.86645 0.41706 0.0
C904 C 0.26927 0.93328 0.55404 0.0
C905 C 0.28934 0.94555 0.52184 0.0
C906 C 0.2659 0.90651 0.5519 0.0
C907 C 0.28338 0.89157 0.51804 0.0
C908 C 0.3038 0.90385 0.48588 0.0
C909 C 0.30655 0.93068 0.4883 0.0
C910 C 0.24385 0.89415 0.5867 0.0
C911 C 0.32306 0.8886 0.45 0.0
H912 H 0.30014 0.80943 0.6053 0.0
H913 H 0.25281 0.81474 0.43389 0.0
H914 H 0.32501 0.87155 0.59846 0.0
H915 H 0.29725 0.87319 0.64639 0.0
H916 H 0.31798 0.84539 0.65363 0.0
H917 H 0.24194 0.85414 0.38302 0.0
H918 H 0.23889 0.88 0.43766 0.0
H919 H 0.26679 0.87816 0.39031 0.0
H920 H 0.25629 0.94464 0.58129 0.0
H921 H 0.32241 0.94005 0.46454 0.0
H922 H 0.25146 0.8809 0.6252 0.0
H923 H 0.23202 0.88249 0.55351 0.0
H924 H 0.23123 0.90858 0.60815 0.0
H925 H 0.33343 0.87494 0.48333 0.0
H926 H 0.33741 0.90111 0.4261 0.0
H927 H 0.31298 0.87702 0.41341 0.0
C928 C 0.67797 0.79268 0.95861 0.0
C929 C 0.69238 0.77813 0.00444 0.0
C930 C 0.65105 0.79443 0.96157 0.0
C931 C 0.63818 0.78111 0.01116 0.0
C932 C 0.65258 0.76616 0.05707 0.0
C933 C 0.67948 0.76498 0.05338 0.0
C934 C 0.6364 0.81079 0.91209 0.0
C935 C 0.63957 0.75147 0.1103 0.0
C936 C 0.57181 0.80337 0.05784 0.0
C937 C 0.55572 0.78567 0.02722 0.0
C938 C 0.59867 0.80226 0.05254 0.0
C939 C 0.60968 0.783 0.0156 0.0
C940 C 0.59347 0.76532 0.98374 0.0
C941 C 0.56667 0.76706 0.98932 0.0
C942 C 0.61526 0.82168 0.08653 0.0
C943 C 0.60446 0.74445 0.94411 0.0
H944 H 0.68777 0.80304 0.92087 0.0
H945 H 0.6904 0.75361 0.08892 0.0
H946 H 0.6219 0.79892 0.88664 0.0
H947 H 0.6258 0.82619 0.93568 0.0
H948 H 0.64924 0.81985 0.87647 0.0
H949 H 0.65346 0.74024 0.1413 0.0
H950 H 0.62918 0.76501 0.14025 0.0
H951 H 0.62509 0.73806 0.09015 0.0
H952 H 0.56335 0.81814 0.08596 0.0
H953 H 0.55421 0.75376 0.96431 0.0
H954 H 0.62732 0.83228 0.0518 0.0
H955 H 0.62851 0.81167 0.12152 0.0
H956 H 0.60367 0.83581 0.11211 0.0
H957 H 0.61599 0.75313 0.90538 0.0
H958 H 0.58924 0.73219 0.92248 0.0
H959 H 0.6176 0.73202 0.97417 0.0
loop_
_geom_bond_atom_site_label_1
_geom_bond_atom_site_label_2
_geom_bond_distance
_geom_bond_site_symmetry_2
_ccdc_geom_bond_type
Fe0 O2 1.918 . S
Fe0 O5 1.997 . S
Fe0 O6 2.002 . S
Fe0 O11 1.976 . S
Fe0 O14 1.996 . S
Fe1 O2 1.918 1_556 S
Fe1 O9 1.997 . S
Fe1 O12 1.996 . S
Fe1 O16 1.976 . S
Fe1 O19 2.002 . S
O2 Fe0 1.918 . S
O2 Fe1 1.918 1_554 S
O2 Fe3 1.918 . S
Fe3 O2 1.918 . S
Fe3 O4 2.002 . S
Fe3 O13 1.976 . S
Fe3 O17 1.996 1_554 S
Fe3 O20 1.997 1_554 S
O4 Fe3 2.002 . S
O4 C21 1.295 . S
O5 Fe0 1.997 . S
O5 C21 1.235 . S
O6 Fe0 2.002 . S
O6 C7 1.295 . S
C7 O6 1.295 . S
C7 O9 1.235 1_554 S
C8 O13 1.287 . S
C8 O14 1.255 . S
O9 Fe1 1.997 . S
O9 C7 1.235 1_556 S
C10 O16 1.287 . S
C10 O17 1.255 . S
O11 Fe0 1.976 . S
O11 C18 1.287 . S
O12 Fe1 1.996 . S
O12 C18 1.255 1_556 S
O13 Fe3 1.976 . S
O13 C8 1.287 . S
O14 Fe0 1.996 . S
O14 C8 1.255 . S
C15 O19 1.295 . S
C15 O20 1.235 . S
O16 Fe1 1.976 . S
O16 C10 1.287 . S
O17 Fe3 1.996 1_556 S
O17 C10 1.255 . S
C18 O11 1.287 . S
C18 O12 1.255 1_554 S
O19 Fe1 2.002 . S
O19 C15 1.295 . S
O20 Fe3 1.997 1_556 S
O20 C15 1.235 . S
C21 O4 1.295 . S
C21 O5 1.235 . S
Fe22 O24 1.918 . S
Fe22 O27 1.997 . S
Fe22 O28 2.002 . S
Fe22 O33 1.976 . S
Fe22 O36 1.996 . S
Fe23 O24 1.918 . S
Fe23 O31 1.997 . S
Fe23 O34 1.996 . S
Fe23 O38 1.976 . S
Fe23 O41 2.002 . S
O24 Fe22 1.918 . S
O24 Fe23 1.918 . S
O24 Fe25 1.918 . S
Fe25 O24 1.918 . S
Fe25 O26 2.002 . S
Fe25 O35 1.976 . S
Fe25 O39 1.996 . S
Fe25 O42 1.997 . S
O26 Fe25 2.002 . S
O26 C43 1.295 . S
O27 Fe22 1.997 . S
O27 C43 1.235 . S
O28 Fe22 2.002 . S
O28 C29 1.295 . S
C29 O28 1.295 . S
C29 O31 1.235 . S
C30 O35 1.287 . S
C30 O36 1.255 . S
O31 Fe23 1.997 . S
O31 C29 1.235 . S
C32 O38 1.287 . S
C32 O39 1.255 . S
O33 Fe22 1.976 . S
O33 C40 1.287 . S
O34 Fe23 1.996 . S
O34 C40 1.255 . S
O35 Fe25 1.976 . S
O35 C30 1.287 . S
O36 Fe22 1.996 . S
O36 C30 1.255 . S
C37 O41 1.295 . S
C37 O42 1.235 . S
O38 Fe23 1.976 . S
O38 C32 1.287 . S
O39 Fe25 1.996 . S
O39 C32 1.255 . S
C40 O33 1.287 . S
C40 O34 1.255 . S
O41 Fe23 2.002 . S
O41 C37 1.295 . S
O42 Fe25 1.997 . S
O42 C37 1.235 . S
C43 O26 1.295 . S
C43 O27 1.235 . S
Fe44 O46 1.918 1_556 S
Fe44 O49 1.997 . S
Fe44 O50 2.002 . S
Fe44 O55 1.976 . S
Fe44 O58 1.996 . S
Fe45 O46 1.918 . S
Fe45 O53 1.997 . S
Fe45 O56 1.996 . S
Fe45 O60 1.976 . S
Fe45 O63 2.002 . S
O46 Fe44 1.918 1_554 S
O46 Fe45 1.918 . S
O46 Fe47 1.918 . S
Fe47 O46 1.918 . S
Fe47 O48 2.002 1_554 S
Fe47 O57 1.976 1_554 S
Fe47 O61 1.996 . S
Fe47 O64 1.997 . S
O48 Fe47 2.002 1_556 S
O48 C65 1.295 . S
O49 Fe44 1.997 . S
O49 C65 1.235 . S
O50 Fe44 2.002 . S
O50 C51 1.295 1_556 S
C51 O50 1.295 1_554 S
C51 O53 1.235 . S
C52 O57 1.287 . S
C52 O58 1.255 . S
O53 Fe45 1.997 . S
O53 C51 1.235 . S
C54 O60 1.287 . S
C54 O61 1.255 . S
O55 Fe44 1.976 . S
O55 C62 1.287 1_556 S
O56 Fe45 1.996 . S
O56 C62 1.255 . S
O57 Fe47 1.976 1_556 S
O57 C52 1.287 . S
O58 Fe44 1.996 . S
O58 C52 1.255 . S
C59 O63 1.295 . S
C59 O64 1.235 . S
O60 Fe45 1.976 . S
O60 C54 1.287 . S
O61 Fe47 1.996 . S
O61 C54 1.255 . S
C62 O55 1.287 1_554 S
C62 O56 1.255 . S
O63 Fe45 2.002 . S
O63 C59 1.295 . S
O64 Fe47 1.997 . S
O64 C59 1.235 . S
C65 O48 1.295 . S
C65 O49 1.235 . S
Fe66 O68 1.918 . S
Fe66 O71 1.997 . S
Fe66 O72 2.002 . S
Fe66 O77 1.976 . S
Fe66 O80 1.996 . S
Fe67 O68 1.918 . S
Fe67 O75 1.997 . S
Fe67 O78 1.996 . S
Fe67 O82 1.976 . S
Fe67 O85 2.002 . S
O68 Fe66 1.918 . S
O68 Fe67 1.918 . S
O68 Fe69 1.918 . S
Fe69 O68 1.918 . S
Fe69 O70 2.002 . S
Fe69 O79 1.976 . S
Fe69 O83 1.996 . S
Fe69 O86 1.997 . S
O70 Fe69 2.002 . S
O70 C87 1.295 . S
O71 Fe66 1.997 . S
O71 C87 1.235 . S
O72 Fe66 2.002 . S
O72 C73 1.295 . S
C73 O72 1.295 . S
C73 O75 1.235 . S
C74 O79 1.287 . S
C74 O80 1.255 . S
O75 Fe67 1.997 . S
O75 C73 1.235 . S
C76 O82 1.287 . S
C76 O83 1.255 . S
O77 Fe66 1.976 . S
O77 C84 1.287 . S
O78 Fe67 1.996 . S
O78 C84 1.255 . S
O79 Fe69 1.976 . S
O79 C74 1.287 . S
O80 Fe66 1.996 . S
O80 C74 1.255 . S
C81 O85 1.295 . S
C81 O86 1.235 . S
O82 Fe67 1.976 . S
O82 C76 1.287 . S
O83 Fe69 1.996 . S
O83 C76 1.255 . S
C84 O77 1.287 . S
C84 O78 1.255 . S
O85 Fe67 2.002 . S
O85 C81 1.295 . S
O86 Fe69 1.997 . S
O86 C81 1.235 . S
C87 O70 1.295 . S
C87 O71 1.235 . S
H88 C95 0.929 . S
H89 C98 0.930 . S
H90 C100 0.929 . S
H91 C92 0.969 . S
C92 H91 0.969 . S
C92 O93 1.550 1_556 S
C92 H94 0.973 . S
O93 C92 1.550 1_554 S
O93 C99 1.412 . S
H94 C92 0.973 . S
C95 H88 0.929 . S
C95 C96 1.400 . S
C95 C97 1.364 1_554 S
C96 C95 1.400 . S
C96 C100 1.377 . S
C97 C95 1.364 1_556 S
C97 C98 1.374 . S
C98 H89 0.930 . S
C98 C97 1.374 . S
C98 C99 1.383 1_556 S
C99 O93 1.412 . S
C99 C98 1.383 1_554 S
C99 C100 1.394 . S
C100 H90 0.929 . S
C100 C96 1.377 . S
C100 C99 1.394 . S
H101 C108 0.929 . S
H102 C111 0.930 . S
H103 C113 0.929 . S
H104 C105 0.969 . S
C105 H104 0.969 . S
C105 O106 1.550 . S
C105 H107 0.973 . S
O106 C105 1.550 . S
O106 C112 1.384 1_455 S
H107 C105 0.973 . S
C108 H101 0.929 . S
C108 C109 1.400 . S
C108 C110 1.364 . S
C109 C108 1.400 . S
C109 C113 1.377 . S
C110 C108 1.364 . S
C110 C111 1.374 . S
C111 H102 0.930 . S
C111 C110 1.374 . S
C111 C112 1.396 . S
C112 O106 1.384 1_655 S
C112 C111 1.396 . S
C112 C113 1.414 . S
C113 H103 0.929 . S
C113 C109 1.377 . S
C113 C112 1.414 . S
H114 C121 0.929 . S
H115 C124 0.930 . S
H116 C126 0.929 . S
H117 C118 0.969 . S
C118 H117 0.969 . S
C118 O119 1.550 1_554 S
C118 H120 0.973 . S
O119 C118 1.550 1_556 S
O119 C125 1.412 . S
H120 C118 0.973 . S
C121 H114 0.929 . S
C121 C122 1.400 1_554 S
C121 C123 1.364 . S
C122 C121 1.400 1_556 S
C122 C126 1.377 . S
C123 C121 1.364 . S
C123 C124 1.374 . S
C124 H115 0.930 . S
C124 C123 1.374 . S
C124 C125 1.383 1_554 S
C125 O119 1.412 . S
C125 C124 1.383 1_556 S
C125 C126 1.394 . S
C126 H116 0.929 . S
C126 C122 1.377 . S
C126 C125 1.394 . S
H127 C134 0.929 . S
H128 C137 0.930 1_655 S
H129 C139 0.929 . S
H130 C131 0.969 . S
C131 H130 0.969 . S
C131 O132 1.550 . S
C131 H133 0.973 . S
O132 C131 1.550 . S
O132 C138 1.412 . S
H133 C131 0.973 . S
C134 H127 0.929 . S
C134 C135 1.400 . S
C134 C136 1.364 . S
C135 C134 1.400 . S
C135 C139 1.377 . S
C136 C134 1.364 . S
C136 C137 1.374 . S
C137 H128 0.930 1_455 S
C137 C136 1.374 . S
C137 C138 1.383 1_455 S
C138 O132 1.412 . S
C138 C137 1.383 1_655 S
C138 C139 1.394 1_655 S
C139 H129 0.929 . S
C139 C135 1.377 . S
C139 C138 1.394 1_455 S
H140 C147 0.929 . S
H141 C150 0.930 1_545 S
H142 C152 0.929 . S
H143 C144 0.969 . S
C144 H143 0.969 . S
C144 O145 1.550 . S
C144 H146 0.973 . S
O145 C144 1.550 . S
O145 C151 1.412 . S
H146 C144 0.973 . S
C147 H140 0.929 . S
C147 C148 1.400 . S
C147 C149 1.364 . S
C148 C147 1.400 . S
C148 C152 1.377 . S
C149 C147 1.364 . S
C149 C150 1.374 . S
C150 H141 0.930 1_565 S
C150 C149 1.374 . S
C150 C151 1.383 1_565 S
C151 O145 1.412 . S
C151 C150 1.383 1_545 S
C151 C152 1.394 1_545 S
C152 H142 0.929 . S
C152 C148 1.377 . S
C152 C151 1.394 1_565 S
H153 C160 0.929 1_554 S
H154 C163 0.930 . S
H155 C165 0.929 . S
H156 C157 0.969 . S
C157 H156 0.969 . S
C157 O158 1.550 1_554 S
C157 H159 0.973 . S
O158 C157 1.550 1_556 S
O158 C164 1.412 . S
H159 C157 0.973 . S
C160 H153 0.929 1_556 S
C160 C161 1.400 . S
C160 C162 1.364 1_556 S
C161 C160 1.400 . S
C161 C165 1.377 . S
C162 C160 1.364 1_554 S
C162 C163 1.374 . S
C163 H154 0.930 . S
C163 C162 1.374 . S
C163 C164 1.383 1_554 S
C164 O158 1.412 . S
C164 C163 1.383 1_556 S
C164 C165 1.394 . S
C165 H155 0.929 . S
C165 C161 1.377 . S
C165 C164 1.394 . S
H166 C173 0.929 . S
H167 C176 0.930 1_565 S
H168 C178 0.929 . S
H169 C170 0.969 . S
C170 H169 0.969 . S
C170 O171 1.550 . S
C170 H172 0.973 . S
O171 C170 1.550 . S
O171 C177 1.412 . S
H172 C170 0.973 . S
C173 H166 0.929 . S
C173 C174 1.400 . S
C173 C175 1.364 . S
C174 C173 1.400 . S
C174 C178 1.377 . S
C175 C173 1.364 . S
C175 C176 1.374 . S
C176 H167 0.930 1_545 S
C176 C175 1.374 . S
C176 C177 1.383 1_545 S
C177 O171 1.412 . S
C177 C176 1.383 1_565 S
C177 C178 1.394 1_565 S
C178 H168 0.929 . S
C178 C174 1.377 . S
C178 C177 1.394 1_545 S
H179 C186 0.929 . S
H180 C189 0.930 . S
H181 C191 0.929 . S
H182 C183 0.969 . S
C183 H182 0.969 . S
C183 O184 1.550 1_556 S
C183 H185 0.973 . S
O184 C183 1.550 1_554 S
O184 C190 1.412 . S
H185 C183 0.973 . S
C186 H179 0.929 . S
C186 C187 1.400 . S
C186 C188 1.364 1_554 S
C187 C186 1.400 . S
C187 C191 1.377 . S
C188 C186 1.364 1_556 S
C188 C189 1.374 . S
C189 H180 0.930 . S
C189 C188 1.374 . S
C189 C190 1.383 1_556 S
C190 O184 1.412 . S
C190 C189 1.383 1_554 S
C190 C191 1.394 . S
C191 H181 0.929 . S
C191 C187 1.377 . S
C191 C190 1.394 . S
C192 C193 1.391 . S
C192 C194 1.394 . S
C192 H208 0.931 . S
C193 C192 1.391 . S
C193 C197 1.376 . S
C194 C192 1.394 . S
C194 C195 1.369 . S
C194 C198 1.531 . S
C195 C194 1.369 . S
C195 C196 1.410 . S
C195 C203 1.503 . S
C196 C195 1.410 . S
C196 C197 1.392 . S
C196 C199 1.511 . S
C197 C193 1.376 . S
C197 C196 1.392 . S
C197 H209 0.929 . S
C198 C194 1.531 . S
C198 H210 0.960 . S
C198 H211 0.962 . S
C198 H212 0.960 . S
C199 C196 1.511 . S
C199 H213 0.961 . S
C199 H214 0.961 . S
C199 H215 0.961 . S
C200 C201 1.370 . S
C200 C202 1.363 . S
C200 H216 0.931 . S
C201 C200 1.370 . S
C201 C205 1.408 . S
C202 C200 1.363 . S
C202 C203 1.370 . S
C202 C206 1.524 . S
C203 C195 1.503 . S
C203 C202 1.370 . S
C203 C204 1.403 . S
C204 C203 1.403 . S
C204 C205 1.404 . S
C204 C207 1.539 . S
C205 C201 1.408 . S
C205 C204 1.404 . S
C205 H217 0.930 . S
C206 C202 1.524 . S
C206 H218 0.956 . S
C206 H219 0.961 . S
C206 H220 0.961 . S
C207 C204 1.539 . S
C207 H221 0.958 . S
C207 H222 0.961 . S
C207 H223 0.960 . S
H208 C192 0.931 . S
H209 C197 0.929 . S
H210 C198 0.960 . S
H211 C198 0.962 . S
H212 C198 0.960 . S
H213 C199 0.961 . S
H214 C199 0.961 . S
H215 C199 0.961 . S
H216 C200 0.931 . S
H217 C205 0.930 . S
H218 C206 0.956 . S
H219 C206 0.961 . S
H220 C206 0.961 . S
H221 C207 0.958 . S
H222 C207 0.961 . S
H223 C207 0.960 . S
C224 C225 1.391 . S
C224 C226 1.394 . S
C224 H240 0.931 . S
C225 C224 1.391 . S
C225 C229 1.376 . S
C226 C224 1.394 . S
C226 C227 1.369 . S
C226 C230 1.531 . S
C227 C226 1.369 . S
C227 C228 1.410 . S
C227 C235 1.503 . S
C228 C227 1.410 . S
C228 C229 1.392 . S
C228 C231 1.511 . S
C229 C225 1.376 . S
C229 C228 1.392 . S
C229 H241 0.929 . S
C230 C226 1.531 . S
C230 H242 0.960 . S
C230 H243 0.962 . S
C230 H244 0.960 . S
C231 C228 1.511 . S
C231 H245 0.961 . S
C231 H246 0.961 . S
C231 H247 0.961 . S
C232 C233 1.370 . S
C232 C234 1.363 . S
C232 H248 0.931 . S
C233 C232 1.370 . S
C233 C237 1.408 . S
C234 C232 1.363 . S
C234 C235 1.370 . S
C234 C238 1.524 . S
C235 C227 1.503 . S
C235 C234 1.370 . S
C235 C236 1.403 . S
C236 C235 1.403 . S
C236 C237 1.404 . S
C236 C239 1.539 . S
C237 C233 1.408 . S
C237 C236 1.404 . S
C237 H249 0.930 . S
C238 C234 1.524 . S
C238 H250 0.956 . S
C238 H251 0.961 . S
C238 H252 0.961 . S
C239 C236 1.539 . S
C239 H253 0.958 . S
C239 H254 0.961 . S
C239 H255 0.960 . S
H240 C224 0.931 . S
H241 C229 0.929 . S
H242 C230 0.960 . S
H243 C230 0.962 . S
H244 C230 0.960 . S
H245 C231 0.961 . S
H246 C231 0.961 . S
H247 C231 0.961 . S
H248 C232 0.931 . S
H249 C237 0.930 . S
H250 C238 0.956 . S
H251 C238 0.961 . S
H252 C238 0.961 . S
H253 C239 0.958 . S
H254 C239 0.961 . S
H255 C239 0.960 . S
C256 C257 1.391 . S
C256 C258 1.394 . S
C256 H272 0.931 . S
C257 C256 1.391 . S
C257 C261 1.376 . S
C258 C256 1.394 . S
C258 C259 1.369 . S
C258 C262 1.531 . S
C259 C258 1.369 . S
C259 C260 1.410 . S
C259 C267 1.503 . S
C260 C259 1.410 . S
C260 C261 1.392 . S
C260 C263 1.511 . S
C261 C257 1.376 . S
C261 C260 1.392 . S
C261 H273 0.929 . S
C262 C258 1.531 . S
C262 H274 0.960 . S
C262 H275 0.962 . S
C262 H276 0.960 . S
C263 C260 1.511 . S
C263 H277 0.961 . S
C263 H278 0.961 . S
C263 H279 0.961 . S
C264 C265 1.370 . S
C264 C266 1.363 . S
C264 H280 0.931 . S
C265 C264 1.370 . S
C265 C269 1.408 . S
C266 C264 1.363 . S
C266 C267 1.370 . S
C266 C270 1.524 . S
C267 C259 1.503 . S
C267 C266 1.370 . S
C267 C268 1.403 . S
C268 C267 1.403 . S
C268 C269 1.404 . S
C268 C271 1.539 . S
C269 C265 1.408 . S
C269 C268 1.404 . S
C269 H281 0.930 . S
C270 C266 1.524 . S
C270 H282 0.956 . S
C270 H283 0.961 . S
C270 H284 0.961 . S
C271 C268 1.539 . S
C271 H285 0.958 . S
C271 H286 0.961 . S
C271 H287 0.960 . S
H272 C256 0.931 . S
H273 C261 0.929 . S
H274 C262 0.960 . S
H275 C262 0.962 . S
H276 C262 0.960 . S
H277 C263 0.961 . S
H278 C263 0.961 . S
H279 C263 0.961 . S
H280 C264 0.931 . S
H281 C269 0.930 . S
H282 C270 0.956 . S
H283 C270 0.961 . S
H284 C270 0.961 . S
H285 C271 0.958 . S
H286 C271 0.961 . S
H287 C271 0.960 . S
C288 C289 1.391 . S
C288 C290 1.394 . S
C288 H304 0.931 . S
C289 C288 1.391 . S
C289 C293 1.376 . S
C290 C288 1.394 . S
C290 C291 1.369 . S
C290 C294 1.531 . S
C291 C290 1.369 . S
C291 C292 1.410 . S
C291 C299 1.503 . S
C292 C291 1.410 . S
C292 C293 1.392 . S
C292 C295 1.511 . S
C293 C289 1.376 . S
C293 C292 1.392 . S
C293 H305 0.929 . S
C294 C290 1.531 . S
C294 H306 0.960 . S
C294 H307 0.962 . S
C294 H308 0.960 . S
C295 C292 1.511 . S
C295 H309 0.961 . S
C295 H310 0.961 . S
C295 H311 0.961 . S
C296 C297 1.370 . S
C296 C298 1.363 . S
C296 H312 0.931 . S
C297 C296 1.370 . S
C297 C301 1.408 . S
C298 C296 1.363 . S
C298 C299 1.370 . S
C298 C302 1.524 . S
C299 C291 1.503 . S
C299 C298 1.370 . S
C299 C300 1.403 . S
C300 C299 1.403 . S
C300 C301 1.404 . S
C300 C303 1.539 . S
C301 C297 1.408 . S
C301 C300 1.404 . S
C301 H313 0.930 . S
C302 C298 1.524 . S
C302 H314 0.956 . S
C302 H315 0.961 . S
C302 H316 0.961 . S
C303 C300 1.539 . S
C303 H317 0.958 . S
C303 H318 0.961 . S
C303 H319 0.960 . S
H304 C288 0.931 . S
H305 C293 0.929 . S
H306 C294 0.960 . S
H307 C294 0.962 . S
H308 C294 0.960 . S
H309 C295 0.961 . S
H310 C295 0.961 . S
H311 C295 0.961 . S
H312 C296 0.931 . S
H313 C301 0.930 . S
H314 C302 0.956 . S
H315 C302 0.961 . S
H316 C302 0.961 . S
H317 C303 0.958 . S
H318 C303 0.961 . S
H319 C303 0.960 . S
C320 C321 1.391 . S
C320 C322 1.394 . S
C320 H336 0.931 . S
C321 C320 1.391 . S
C321 C325 1.376 . S
C322 C320 1.394 . S
C322 C323 1.369 . S
C322 C326 1.531 . S
C323 C322 1.369 . S
C323 C324 1.410 . S
C323 C331 1.503 . S
C324 C323 1.410 . S
C324 C325 1.392 . S
C324 C327 1.511 . S
C325 C321 1.376 . S
C325 C324 1.392 . S
C325 H337 0.929 . S
C326 C322 1.531 . S
C326 H338 0.960 . S
C326 H339 0.962 . S
C326 H340 0.960 . S
C327 C324 1.511 . S
C327 H341 0.961 . S
C327 H342 0.961 . S
C327 H343 0.961 . S
C328 C329 1.370 . S
C328 C330 1.363 . S
C328 H344 0.931 . S
C329 C328 1.370 . S
C329 C333 1.408 . S
C330 C328 1.363 . S
C330 C331 1.370 . S
C330 C334 1.524 . S
C331 C323 1.503 . S
C331 C330 1.370 . S
C331 C332 1.403 . S
C332 C331 1.403 . S
C332 C333 1.404 . S
C332 C335 1.539 . S
C333 C329 1.408 . S
C333 C332 1.404 . S
C333 H345 0.930 . S
C334 C330 1.524 . S
C334 H346 0.956 . S
C334 H347 0.961 . S
C334 H348 0.961 . S
C335 C332 1.539 . S
C335 H349 0.958 . S
C335 H350 0.961 . S
C335 H351 0.960 . S
H336 C320 0.931 . S
H337 C325 0.929 . S
H338 C326 0.960 . S
H339 C326 0.962 . S
H340 C326 0.960 . S
H341 C327 0.961 . S
H342 C327 0.961 . S
H343 C327 0.961 . S
H344 C328 0.931 . S
H345 C333 0.930 . S
H346 C334 0.956 . S
H347 C334 0.961 . S
H348 C334 0.961 . S
H349 C335 0.958 . S
H350 C335 0.961 . S
H351 C335 0.960 . S
C352 C353 1.391 . S
C352 C354 1.394 . S
C352 H368 0.931 . S
C353 C352 1.391 . S
C353 C357 1.376 . S
C354 C352 1.394 . S
C354 C355 1.369 . S
C354 C358 1.531 . S
C355 C354 1.369 . S
C355 C356 1.410 . S
C355 C363 1.503 . S
C356 C355 1.410 . S
C356 C357 1.392 . S
C356 C359 1.511 . S
C357 C353 1.376 . S
C357 C356 1.392 . S
C357 H369 0.929 . S
C358 C354 1.531 . S
C358 H370 0.960 . S
C358 H371 0.962 . S
C358 H372 0.960 . S
C359 C356 1.511 . S
C359 H373 0.961 . S
C359 H374 0.961 . S
C359 H375 0.961 . S
C360 C361 1.370 . S
C360 C362 1.363 . S
C360 H376 0.931 . S
C361 C360 1.370 . S
C361 C365 1.408 . S
C362 C360 1.363 . S
C362 C363 1.370 . S
C362 C366 1.524 . S
C363 C355 1.503 . S
C363 C362 1.370 . S
C363 C364 1.403 . S
C364 C363 1.403 . S
C364 C365 1.404 . S
C364 C367 1.539 . S
C365 C361 1.408 . S
C365 C364 1.404 . S
C365 H377 0.930 . S
C366 C362 1.524 . S
C366 H378 0.956 . S
C366 H379 0.961 . S
C366 H380 0.961 . S
C367 C364 1.539 . S
C367 H381 0.958 . S
C367 H382 0.961 . S
C367 H383 0.960 . S
H368 C352 0.931 . S
H369 C357 0.929 . S
H370 C358 0.960 . S
H371 C358 0.962 . S
H372 C358 0.960 . S
H373 C359 0.961 . S
H374 C359 0.961 . S
H375 C359 0.961 . S
H376 C360 0.931 . S
H377 C365 0.930 . S
H378 C366 0.956 . S
H379 C366 0.961 . S
H380 C366 0.961 . S
H381 C367 0.958 . S
H382 C367 0.961 . S
H383 C367 0.960 . S
C384 C385 1.391 . S
C384 C386 1.394 . S
C384 H400 0.931 . S
C385 C384 1.391 . S
C385 C389 1.376 . S
C386 C384 1.394 . S
C386 C387 1.369 . S
C386 C390 1.531 . S
C387 C386 1.369 . S
C387 C388 1.410 . S
C387 C395 1.503 . S
C388 C387 1.410 . S
C388 C389 1.392 . S
C388 C391 1.511 . S
C389 C385 1.376 . S
C389 C388 1.392 . S
C389 H401 0.929 . S
C390 C386 1.531 . S
C390 H402 0.960 . S
C390 H403 0.962 . S
C390 H404 0.960 . S
C391 C388 1.511 . S
C391 H405 0.961 . S
C391 H406 0.961 . S
C391 H407 0.961 . S
C392 C393 1.370 . S
C392 C394 1.363 . S
C392 H408 0.931 . S
C393 C392 1.370 . S
C393 C397 1.408 . S
C394 C392 1.363 . S
C394 C395 1.370 . S
C394 C398 1.524 . S
C395 C387 1.503 . S
C395 C394 1.370 . S
C395 C396 1.403 . S
C396 C395 1.403 . S
C396 C397 1.404 . S
C396 C399 1.539 . S
C397 C393 1.408 . S
C397 C396 1.404 . S
C397 H409 0.930 . S
C398 C394 1.524 . S
C398 H410 0.956 . S
C398 H411 0.961 . S
C398 H412 0.961 . S
C399 C396 1.539 . S
C399 H413 0.958 . S
C399 H414 0.961 . S
C399 H415 0.960 . S
H400 C384 0.931 . S
H401 C389 0.929 . S
H402 C390 0.960 . S
H403 C390 0.962 . S
H404 C390 0.960 . S
H405 C391 0.961 . S
H406 C391 0.961 . S
H407 C391 0.961 . S
H408 C392 0.931 . S
H409 C397 0.930 . S
H410 C398 0.956 . S
H411 C398 0.961 . S
H412 C398 0.961 . S
H413 C399 0.958 . S
H414 C399 0.961 . S
H415 C399 0.960 . S
C416 C417 1.391 . S
C416 C418 1.394 . S
C416 H432 0.931 . S
C417 C416 1.391 . S
C417 C421 1.376 . S
C418 C416 1.394 . S
C418 C419 1.369 . S
C418 C422 1.531 . S
C419 C418 1.369 . S
C419 C420 1.410 . S
C419 C427 1.503 . S
C420 C419 1.410 . S
C420 C421 1.392 . S
C420 C423 1.511 . S
C421 C417 1.376 . S
C421 C420 1.392 . S
C421 H433 0.929 . S
C422 C418 1.531 . S
C422 H434 0.960 . S
C422 H435 0.962 . S
C422 H436 0.960 . S
C423 C420 1.511 . S
C423 H437 0.961 . S
C423 H438 0.961 . S
C423 H439 0.961 . S
C424 C425 1.370 . S
C424 C426 1.363 . S
C424 H440 0.931 . S
C425 C424 1.370 . S
C425 C429 1.408 . S
C426 C424 1.363 . S
C426 C427 1.370 . S
C426 C430 1.524 . S
C427 C419 1.503 . S
C427 C426 1.370 . S
C427 C428 1.403 . S
C428 C427 1.403 . S
C428 C429 1.404 . S
C428 C431 1.539 . S
C429 C425 1.408 . S
C429 C428 1.404 . S
C429 H441 0.930 . S
C430 C426 1.524 . S
C430 H442 0.956 . S
C430 H443 0.961 . S
C430 H444 0.961 . S
C431 C428 1.539 . S
C431 H445 0.958 . S
C431 H446 0.961 . S
C431 H447 0.960 . S
H432 C416 0.931 . S
H433 C421 0.929 . S
H434 C422 0.960 . S
H435 C422 0.962 . S
H436 C422 0.960 . S
H437 C423 0.961 . S
H438 C423 0.961 . S
H439 C423 0.961 . S
H440 C424 0.931 . S
H441 C429 0.930 . S
H442 C430 0.956 . S
H443 C430 0.961 . S
H444 C430 0.961 . S
H445 C431 0.958 . S
H446 C431 0.961 . S
H447 C431 0.960 . S
C448 C449 1.391 . S
C448 C450 1.394 . S
C448 H464 0.931 . S
C449 C448 1.391 . S
C449 C453 1.376 . S
C450 C448 1.394 . S
C450 C451 1.369 . S
C450 C454 1.531 . S
C451 C450 1.369 . S
C451 C452 1.410 . S
C451 C459 1.503 . S
C452 C451 1.410 . S
C452 C453 1.392 . S
C452 C455 1.511 . S
C453 C449 1.376 . S
C453 C452 1.392 . S
C453 H465 0.929 . S
C454 C450 1.531 . S
C454 H466 0.960 . S
C454 H467 0.962 . S
C454 H468 0.960 . S
C455 C452 1.511 . S
C455 H469 0.961 . S
C455 H470 0.961 . S
C455 H471 0.961 . S
C456 C457 1.370 . S
C456 C458 1.363 . S
C456 H472 0.931 . S
C457 C456 1.370 . S
C457 C461 1.408 . S
C458 C456 1.363 . S
C458 C459 1.370 . S
C458 C462 1.524 . S
C459 C451 1.503 . S
C459 C458 1.370 . S
C459 C460 1.403 . S
C460 C459 1.403 . S
C460 C461 1.404 . S
C460 C463 1.539 . S
C461 C457 1.408 . S
C461 C460 1.404 . S
C461 H473 0.930 . S
C462 C458 1.524 . S
C462 H474 0.956 . S
C462 H475 0.961 . S
C462 H476 0.961 . S
C463 C460 1.539 . S
C463 H477 0.958 . S
C463 H478 0.961 . S
C463 H479 0.960 . S
H464 C448 0.931 . S
H465 C453 0.929 . S
H466 C454 0.960 . S
H467 C454 0.962 . S
H468 C454 0.960 . S
H469 C455 0.961 . S
H470 C455 0.961 . S
H471 C455 0.961 . S
H472 C456 0.931 . S
H473 C461 0.930 . S
H474 C462 0.956 . S
H475 C462 0.961 . S
H476 C462 0.961 . S
H477 C463 0.958 . S
H478 C463 0.961 . S
H479 C463 0.960 . S
C480 C481 1.391 . S
C480 C482 1.394 . S
C480 H496 0.931 . S
C481 C480 1.391 . S
C481 C485 1.376 . S
C482 C480 1.394 . S
C482 C483 1.369 . S
C482 C486 1.531 . S
C483 C482 1.369 . S
C483 C484 1.410 . S
C483 C491 1.503 . S
C484 C483 1.410 . S
C484 C485 1.392 . S
C484 C487 1.511 . S
C485 C481 1.376 . S
C485 C484 1.392 . S
C485 H497 0.929 . S
C486 C482 1.531 . S
C486 H498 0.960 . S
C486 H499 0.962 . S
C486 H500 0.960 . S
C487 C484 1.511 . S
C487 H501 0.961 . S
C487 H502 0.961 . S
C487 H503 0.961 . S
C488 C489 1.370 . S
C488 C490 1.363 . S
C488 H504 0.931 . S
C489 C488 1.370 . S
C489 C493 1.408 . S
C490 C488 1.363 . S
C490 C491 1.370 . S
C490 C494 1.524 . S
C491 C483 1.503 . S
C491 C490 1.370 . S
C491 C492 1.403 . S
C492 C491 1.403 . S
C492 C493 1.404 . S
C492 C495 1.539 . S
C493 C489 1.408 . S
C493 C492 1.404 . S
C493 H505 0.930 . S
C494 C490 1.524 . S
C494 H506 0.956 . S
C494 H507 0.961 . S
C494 H508 0.961 . S
C495 C492 1.539 . S
C495 H509 0.958 . S
C495 H510 0.961 . S
C495 H511 0.960 . S
H496 C480 0.931 . S
H497 C485 0.929 . S
H498 C486 0.960 . S
H499 C486 0.962 . S
H500 C486 0.960 . S
H501 C487 0.961 . S
H502 C487 0.961 . S
H503 C487 0.961 . S
H504 C488 0.931 . S
H505 C493 0.930 . S
H506 C494 0.956 . S
H507 C494 0.961 . S
H508 C494 0.961 . S
H509 C495 0.958 . S
H510 C495 0.961 . S
H511 C495 0.960 . S
C512 C513 1.391 . S
C512 C514 1.394 . S
C512 H528 0.931 . S
C513 C512 1.391 . S
C513 C517 1.376 . S
C514 C512 1.394 . S
C514 C515 1.369 . S
C514 C518 1.531 . S
C515 C514 1.369 . S
C515 C516 1.410 . S
C515 C523 1.503 . S
C516 C515 1.410 . S
C516 C517 1.392 . S
C516 C519 1.511 . S
C517 C513 1.376 . S
C517 C516 1.392 . S
C517 H529 0.929 . S
C518 C514 1.531 . S
C518 H530 0.960 . S
C518 H531 0.962 . S
C518 H532 0.960 . S
C519 C516 1.511 . S
C519 H533 0.961 . S
C519 H534 0.961 . S
C519 H535 0.961 . S
C520 C521 1.370 . S
C520 C522 1.363 . S
C520 H536 0.931 . S
C521 C520 1.370 . S
C521 C525 1.408 . S
C522 C520 1.363 . S
C522 C523 1.370 . S
C522 C526 1.524 . S
C523 C515 1.503 . S
C523 C522 1.370 . S
C523 C524 1.403 . S
C524 C523 1.403 . S
C524 C525 1.404 . S
C524 C527 1.539 . S
C525 C521 1.408 . S
C525 C524 1.404 . S
C525 H537 0.930 . S
C526 C522 1.524 . S
C526 H538 0.956 . S
C526 H539 0.961 . S
C526 H540 0.961 . S
C527 C524 1.539 . S
C527 H541 0.958 . S
C527 H542 0.961 . S
C527 H543 0.960 . S
H528 C512 0.931 . S
H529 C517 0.929 . S
H530 C518 0.960 . S
H531 C518 0.962 . S
H532 C518 0.960 . S
H533 C519 0.961 . S
H534 C519 0.961 . S
H535 C519 0.961 . S
H536 C520 0.931 . S
H537 C525 0.930 . S
H538 C526 0.956 . S
H539 C526 0.961 . S
H540 C526 0.961 . S
H541 C527 0.958 . S
H542 C527 0.961 . S
H543 C527 0.960 . S
C544 C545 1.391 . S
C544 C546 1.394 . S
C544 H560 0.931 . S
C545 C544 1.391 . S
C545 C549 1.376 . S
C546 C544 1.394 . S
C546 C547 1.369 . S
C546 C550 1.531 . S
C547 C546 1.369 . S
C547 C548 1.410 . S
C547 C555 1.503 . S
C548 C547 1.410 . S
C548 C549 1.392 . S
C548 C551 1.511 . S
C549 C545 1.376 . S
C549 C548 1.392 . S
C549 H561 0.929 . S
C550 C546 1.531 . S
C550 H562 0.960 . S
C550 H563 0.962 . S
C550 H564 0.960 . S
C551 C548 1.511 . S
C551 H565 0.961 . S
C551 H566 0.961 . S
C551 H567 0.961 . S
C552 C553 1.370 . S
C552 C554 1.363 . S
C552 H568 0.931 . S
C553 C552 1.370 . S
C553 C557 1.408 . S
C554 C552 1.363 . S
C554 C555 1.370 . S
C554 C558 1.524 . S
C555 C547 1.503 . S
C555 C554 1.370 . S
C555 C556 1.403 . S
C556 C555 1.403 . S
C556 C557 1.404 . S
C556 C559 1.539 . S
C557 C553 1.408 . S
C557 C556 1.404 . S
C557 H569 0.930 . S
C558 C554 1.524 . S
C558 H570 0.956 . S
C558 H571 0.961 . S
C558 H572 0.961 . S
C559 C556 1.539 . S
C559 H573 0.958 . S
C559 H574 0.961 . S
C559 H575 0.960 . S
H560 C544 0.931 . S
H561 C549 0.929 . S
H562 C550 0.960 . S
H563 C550 0.962 . S
H564 C550 0.960 . S
H565 C551 0.961 . S
H566 C551 0.961 . S
H567 C551 0.961 . S
H568 C552 0.931 . S
H569 C557 0.930 . S
H570 C558 0.956 . S
H571 C558 0.961 . S
H572 C558 0.961 . S
H573 C559 0.958 . S
H574 C559 0.961 . S
H575 C559 0.960 . S
C576 C577 1.391 . S
C576 C578 1.394 . S
C576 H592 0.931 . S
C577 C576 1.391 . S
C577 C581 1.376 . S
C578 C576 1.394 . S
C578 C579 1.369 . S
C578 C582 1.531 . S
C579 C578 1.369 . S
C579 C580 1.410 . S
C579 C587 1.503 . S
C580 C579 1.410 . S
C580 C581 1.392 . S
C580 C583 1.511 . S
C581 C577 1.376 . S
C581 C580 1.392 . S
C581 H593 0.929 . S
C582 C578 1.531 . S
C582 H594 0.960 . S
C582 H595 0.962 . S
C582 H596 0.960 . S
C583 C580 1.511 . S
C583 H597 0.961 . S
C583 H598 0.961 . S
C583 H599 0.961 . S
C584 C585 1.370 . S
C584 C586 1.363 . S
C584 H600 0.931 . S
C585 C584 1.370 . S
C585 C589 1.408 . S
C586 C584 1.363 . S
C586 C587 1.370 . S
C586 C590 1.524 . S
C587 C579 1.503 . S
C587 C586 1.370 . S
C587 C588 1.403 . S
C588 C587 1.403 . S
C588 C589 1.404 . S
C588 C591 1.539 . S
C589 C585 1.408 . S
C589 C588 1.404 . S
C589 H601 0.930 . S
C590 C586 1.524 . S
C590 H602 0.956 . S
C590 H603 0.961 . S
C590 H604 0.961 . S
C591 C588 1.539 . S
C591 H605 0.958 . S
C591 H606 0.961 . S
C591 H607 0.960 . S
H592 C576 0.931 . S
H593 C581 0.929 . S
H594 C582 0.960 . S
H595 C582 0.962 . S
H596 C582 0.960 . S
H597 C583 0.961 . S
H598 C583 0.961 . S
H599 C583 0.961 . S
H600 C584 0.931 . S
H601 C589 0.930 . S
H602 C590 0.956 . S
H603 C590 0.961 . S
H604 C590 0.961 . S
H605 C591 0.958 . S
H606 C591 0.961 . S
H607 C591 0.960 . S
C608 C609 1.391 . S
C608 C610 1.394 . S
C608 H624 0.931 . S
C609 C608 1.391 . S
C609 C613 1.376 . S
C610 C608 1.394 . S
C610 C611 1.369 . S
C610 C614 1.531 . S
C611 C610 1.369 . S
C611 C612 1.410 . S
C611 C619 1.503 . S
C612 C611 1.410 . S
C612 C613 1.392 . S
C612 C615 1.511 . S
C613 C609 1.376 . S
C613 C612 1.392 . S
C613 H625 0.929 . S
C614 C610 1.531 . S
C614 H626 0.960 . S
C614 H627 0.962 . S
C614 H628 0.960 . S
C615 C612 1.511 . S
C615 H629 0.961 . S
C615 H630 0.961 . S
C615 H631 0.961 . S
C616 C617 1.370 . S
C616 C618 1.363 . S
C616 H632 0.931 . S
C617 C616 1.370 . S
C617 C621 1.408 . S
C618 C616 1.363 . S
C618 C619 1.370 . S
C618 C622 1.524 . S
C619 C611 1.503 . S
C619 C618 1.370 . S
C619 C620 1.403 . S
C620 C619 1.403 . S
C620 C621 1.404 . S
C620 C623 1.539 . S
C621 C617 1.408 . S
C621 C620 1.404 . S
C621 H633 0.930 . S
C622 C618 1.524 . S
C622 H634 0.956 . S
C622 H635 0.961 . S
C622 H636 0.961 . S
C623 C620 1.539 . S
C623 H637 0.958 . S
C623 H638 0.961 . S
C623 H639 0.960 . S
H624 C608 0.931 . S
H625 C613 0.929 . S
H626 C614 0.960 . S
H627 C614 0.962 . S
H628 C614 0.960 . S
H629 C615 0.961 . S
H630 C615 0.961 . S
H631 C615 0.961 . S
H632 C616 0.931 . S
H633 C621 0.930 . S
H634 C622 0.956 . S
H635 C622 0.961 . S
H636 C622 0.961 . S
H637 C623 0.958 . S
H638 C623 0.961 . S
H639 C623 0.960 . S
C640 C641 1.391 . S
C640 C642 1.394 . S
C640 H656 0.931 . S
C641 C640 1.391 . S
C641 C645 1.376 . S
C642 C640 1.394 . S
C642 C643 1.369 . S
C642 C646 1.531 . S
C643 C642 1.369 . S
C643 C644 1.410 . S
C643 C651 1.503 . S
C644 C643 1.410 . S
C644 C645 1.392 . S
C644 C647 1.511 . S
C645 C641 1.376 . S
C645 C644 1.392 . S
C645 H657 0.929 . S
C646 C642 1.531 . S
C646 H658 0.960 . S
C646 H659 0.962 . S
C646 H660 0.960 . S
C647 C644 1.511 . S
C647 H661 0.961 . S
C647 H662 0.961 . S
C647 H663 0.961 . S
C648 C649 1.370 . S
C648 C650 1.363 . S
C648 H664 0.931 . S
C649 C648 1.370 . S
C649 C653 1.408 . S
C650 C648 1.363 . S
C650 C651 1.370 . S
C650 C654 1.524 . S
C651 C643 1.503 . S
C651 C650 1.370 . S
C651 C652 1.403 . S
C652 C651 1.403 . S
C652 C653 1.404 . S
C652 C655 1.539 . S
C653 C649 1.408 . S
C653 C652 1.404 . S
C653 H665 0.930 . S
C654 C650 1.524 . S
C654 H666 0.956 . S
C654 H667 0.961 . S
C654 H668 0.961 . S
C655 C652 1.539 . S
C655 H669 0.958 . S
C655 H670 0.961 . S
C655 H671 0.960 . S
H656 C640 0.931 . S
H657 C645 0.929 . S
H658 C646 0.960 . S
H659 C646 0.962 . S
H660 C646 0.960 . S
H661 C647 0.961 . S
H662 C647 0.961 . S
H663 C647 0.961 . S
H664 C648 0.931 . S
H665 C653 0.930 . S
H666 C654 0.956 . S
H667 C654 0.961 . S
H668 C654 0.961 . S
H669 C655 0.958 . S
H670 C655 0.961 . S
H671 C655 0.960 . S
C672 C673 1.391 . S
C672 C674 1.394 . S
C672 H688 0.931 . S
C673 C672 1.391 . S
C673 C677 1.376 . S
C674 C672 1.394 . S
C674 C675 1.369 . S
C674 C678 1.531 . S
C675 C674 1.369 . S
C675 C676 1.410 . S
C675 C683 1.503 . S
C676 C675 1.410 . S
C676 C677 1.392 . S
C676 C679 1.511 . S
C677 C673 1.376 . S
C677 C676 1.392 . S
C677 H689 0.929 . S
C678 C674 1.531 . S
C678 H690 0.960 . S
C678 H691 0.962 . S
C678 H692 0.960 . S
C679 C676 1.511 . S
C679 H693 0.961 . S
C679 H694 0.961 . S
C679 H695 0.961 . S
C680 C681 1.370 . S
C680 C682 1.363 . S
C680 H696 0.931 . S
C681 C680 1.370 . S
C681 C685 1.408 . S
C682 C680 1.363 . S
C682 C683 1.370 . S
C682 C686 1.524 . S
C683 C675 1.503 . S
C683 C682 1.370 . S
C683 C684 1.403 . S
C684 C683 1.403 . S
C684 C685 1.404 . S
C684 C687 1.539 . S
C685 C681 1.408 . S
C685 C684 1.404 . S
C685 H697 0.930 . S
C686 C682 1.524 . S
C686 H698 0.956 . S
C686 H699 0.961 . S
C686 H700 0.961 . S
C687 C684 1.539 . S
C687 H701 0.958 . S
C687 H702 0.961 . S
C687 H703 0.960 . S
H688 C672 0.931 . S
H689 C677 0.929 . S
H690 C678 0.960 . S
H691 C678 0.962 . S
H692 C678 0.960 . S
H693 C679 0.961 . S
H694 C679 0.961 . S
H695 C679 0.961 . S
H696 C680 0.931 . S
H697 C685 0.930 . S
H698 C686 0.956 . S
H699 C686 0.961 . S
H700 C686 0.961 . S
H701 C687 0.958 . S
H702 C687 0.961 . S
H703 C687 0.960 . S
C704 C705 1.391 . S
C704 C706 1.394 . S
C704 H720 0.931 . S
C705 C704 1.391 . S
C705 C709 1.376 1_554 S
C706 C704 1.394 . S
C706 C707 1.369 . S
C706 C710 1.531 . S
C707 C706 1.369 . S
C707 C708 1.410 1_554 S
C707 C715 1.503 . S
C708 C707 1.410 1_556 S
C708 C709 1.392 . S
C708 C711 1.511 . S
C709 C705 1.376 1_556 S
C709 C708 1.392 . S
C709 H721 0.929 . S
C710 C706 1.531 . S
C710 H722 0.960 . S
C710 H723 0.962 . S
C710 H724 0.960 . S
C711 C708 1.511 . S
C711 H725 0.961 . S
C711 H726 0.961 . S
C711 H727 0.961 1_556 S
C712 C713 1.370 1_556 S
C712 C714 1.363 . S
C712 H728 0.931 . S
C713 C712 1.370 1_554 S
C713 C717 1.408 . S
C714 C712 1.363 . S
C714 C715 1.370 1_556 S
C714 C718 1.524 . S
C715 C707 1.503 . S
C715 C714 1.370 1_554 S
C715 C716 1.403 . S
C716 C715 1.403 . S
C716 C717 1.404 . S
C716 C719 1.539 . S
C717 C713 1.408 . S
C717 C716 1.404 . S
C717 H729 0.930 . S
C718 C714 1.524 . S
C718 H730 0.956 . S
C718 H731 0.961 . S
C718 H732 0.961 . S
C719 C716 1.539 . S
C719 H733 0.958 . S
C719 H734 0.961 . S
C719 H735 0.960 . S
H720 C704 0.931 . S
H721 C709 0.929 . S
H722 C710 0.960 . S
H723 C710 0.962 . S
H724 C710 0.960 . S
H725 C711 0.961 . S
H726 C711 0.961 . S
H727 C711 0.961 1_554 S
H728 C712 0.931 . S
H729 C717 0.930 . S
H730 C718 0.956 . S
H731 C718 0.961 . S
H732 C718 0.961 . S
H733 C719 0.958 . S
H734 C719 0.961 . S
H735 C719 0.960 . S
C736 C737 1.391 . S
C736 C738 1.394 . S
C736 H752 0.931 . S
C737 C736 1.391 . S
C737 C741 1.376 . S
C738 C736 1.394 . S
C738 C739 1.369 . S
C738 C742 1.531 . S
C739 C738 1.369 . S
C739 C740 1.410 . S
C739 C747 1.503 . S
C740 C739 1.410 . S
C740 C741 1.392 . S
C740 C743 1.511 . S
C741 C737 1.376 . S
C741 C740 1.392 . S
C741 H753 0.929 . S
C742 C738 1.531 . S
C742 H754 0.960 . S
C742 H755 0.962 . S
C742 H756 0.960 . S
C743 C740 1.511 . S
C743 H757 0.961 . S
C743 H758 0.961 . S
C743 H759 0.961 . S
C744 C745 1.370 . S
C744 C746 1.363 . S
C744 H760 0.931 . S
C745 C744 1.370 . S
C745 C749 1.408 . S
C746 C744 1.363 . S
C746 C747 1.370 . S
C746 C750 1.524 . S
C747 C739 1.503 . S
C747 C746 1.370 . S
C747 C748 1.403 . S
C748 C747 1.403 . S
C748 C749 1.404 . S
C748 C751 1.539 . S
C749 C745 1.408 . S
C749 C748 1.404 . S
C749 H761 0.930 . S
C750 C746 1.524 . S
C750 H762 0.956 . S
C750 H763 0.961 . S
C750 H764 0.961 . S
C751 C748 1.539 . S
C751 H765 0.958 . S
C751 H766 0.961 . S
C751 H767 0.960 . S
H752 C736 0.931 . S
H753 C741 0.929 . S
H754 C742 0.960 . S
H755 C742 0.962 . S
H756 C742 0.960 . S
H757 C743 0.961 . S
H758 C743 0.961 . S
H759 C743 0.961 . S
H760 C744 0.931 . S
H761 C749 0.930 . S
H762 C750 0.956 . S
H763 C750 0.961 . S
H764 C750 0.961 . S
H765 C751 0.958 . S
H766 C751 0.961 . S
H767 C751 0.960 . S
C768 C769 1.391 1_556 S
C768 C770 1.394 . S
C768 H784 0.931 . S
C769 C768 1.391 1_554 S
C769 C773 1.376 . S
C770 C768 1.394 . S
C770 C771 1.369 1_556 S
C770 C774 1.531 . S
C771 C770 1.369 1_554 S
C771 C772 1.410 . S
C771 C779 1.503 . S
C772 C771 1.410 . S
C772 C773 1.392 . S
C772 C775 1.511 . S
C773 C769 1.376 . S
C773 C772 1.392 . S
C773 H785 0.929 . S
C774 C770 1.531 . S
C774 H786 0.960 . S
C774 H787 0.962 . S
C774 H788 0.960 . S
C775 C772 1.511 . S
C775 H789 0.961 . S
C775 H790 0.961 . S
C775 H791 0.961 . S
C776 C777 1.370 . S
C776 C778 1.363 . S
C776 H792 0.931 . S
C777 C776 1.370 . S
C777 C781 1.408 . S
C778 C776 1.363 . S
C778 C779 1.370 . S
C778 C782 1.524 . S
C779 C771 1.503 . S
C779 C778 1.370 . S
C779 C780 1.403 . S
C780 C779 1.403 . S
C780 C781 1.404 . S
C780 C783 1.539 . S
C781 C777 1.408 . S
C781 C780 1.404 . S
C781 H793 0.930 . S
C782 C778 1.524 . S
C782 H794 0.956 1_554 S
C782 H795 0.961 . S
C782 H796 0.961 . S
C783 C780 1.539 . S
C783 H797 0.958 1_554 S
C783 H798 0.961 . S
C783 H799 0.960 . S
H784 C768 0.931 . S
H785 C773 0.929 . S
H786 C774 0.960 . S
H787 C774 0.962 . S
H788 C774 0.960 . S
H789 C775 0.961 . S
H790 C775 0.961 . S
H791 C775 0.961 . S
H792 C776 0.931 . S
H793 C781 0.930 . S
H794 C782 0.956 1_556 S
H795 C782 0.961 . S
H796 C782 0.961 . S
H797 C783 0.958 1_556 S
H798 C783 0.961 . S
H799 C783 0.960 . S
C800 C801 1.391 . S
C800 C802 1.394 . S
C800 H816 0.931 . S
C801 C800 1.391 . S
C801 C805 1.376 . S
C802 C800 1.394 . S
C802 C803 1.369 . S
C802 C806 1.531 . S
C803 C802 1.369 . S
C803 C804 1.410 . S
C803 C811 1.503 . S
C804 C803 1.410 . S
C804 C805 1.392 . S
C804 C807 1.511 . S
C805 C801 1.376 . S
C805 C804 1.392 . S
C805 H817 0.929 . S
C806 C802 1.531 . S
C806 H818 0.960 . S
C806 H819 0.962 . S
C806 H820 0.960 . S
C807 C804 1.511 . S
C807 H821 0.961 . S
C807 H822 0.961 . S
C807 H823 0.961 . S
C808 C809 1.370 . S
C808 C810 1.363 . S
C808 H824 0.931 . S
C809 C808 1.370 . S
C809 C813 1.408 . S
C810 C808 1.363 . S
C810 C811 1.370 . S
C810 C814 1.524 . S
C811 C803 1.503 . S
C811 C810 1.370 . S
C811 C812 1.403 . S
C812 C811 1.403 . S
C812 C813 1.404 . S
C812 C815 1.539 . S
C813 C809 1.408 . S
C813 C812 1.404 . S
C813 H825 0.930 . S
C814 C810 1.524 . S
C814 H826 0.956 . S
C814 H827 0.961 . S
C814 H828 0.961 . S
C815 C812 1.539 . S
C815 H829 0.958 . S
C815 H830 0.961 . S
C815 H831 0.960 . S
H816 C800 0.931 . S
H817 C805 0.929 . S
H818 C806 0.960 . S
H819 C806 0.962 . S
H820 C806 0.960 . S
H821 C807 0.961 . S
H822 C807 0.961 . S
H823 C807 0.961 . S
H824 C808 0.931 . S
H825 C813 0.930 . S
H826 C814 0.956 . S
H827 C814 0.961 . S
H828 C814 0.961 . S
H829 C815 0.958 . S
H830 C815 0.961 . S
H831 C815 0.960 . S
C832 C833 1.391 . S
C832 C834 1.394 . S
C832 H848 0.931 . S
C833 C832 1.391 . S
C833 C837 1.376 . S
C834 C832 1.394 . S
C834 C835 1.369 . S
C834 C838 1.531 . S
C835 C834 1.369 . S
C835 C836 1.410 . S
C835 C843 1.503 . S
C836 C835 1.410 . S
C836 C837 1.392 . S
C836 C839 1.511 . S
C837 C833 1.376 . S
C837 C836 1.392 . S
C837 H849 0.929 . S
C838 C834 1.531 . S
C838 H850 0.960 . S
C838 H851 0.962 . S
C838 H852 0.960 . S
C839 C836 1.511 . S
C839 H853 0.961 . S
C839 H854 0.961 . S
C839 H855 0.961 . S
C840 C841 1.370 . S
C840 C842 1.363 . S
C840 H856 0.931 . S
C841 C840 1.370 . S
C841 C845 1.408 . S
C842 C840 1.363 . S
C842 C843 1.370 . S
C842 C846 1.524 . S
C843 C835 1.503 . S
C843 C842 1.370 . S
C843 C844 1.403 . S
C844 C843 1.403 . S
C844 C845 1.404 . S
C844 C847 1.539 . S
C845 C841 1.408 . S
C845 C844 1.404 . S
C845 H857 0.930 . S
C846 C842 1.524 . S
C846 H858 0.956 . S
C846 H859 0.961 . S
C846 H860 0.961 . S
C847 C844 1.539 . S
C847 H861 0.958 . S
C847 H862 0.961 . S
C847 H863 0.960 . S
H848 C832 0.931 . S
H849 C837 0.929 . S
H850 C838 0.960 . S
H851 C838 0.962 . S
H852 C838 0.960 . S
H853 C839 0.961 . S
H854 C839 0.961 . S
H855 C839 0.961 . S
H856 C840 0.931 . S
H857 C845 0.930 . S
H858 C846 0.956 . S
H859 C846 0.961 . S
H860 C846 0.961 . S
H861 C847 0.958 . S
H862 C847 0.961 . S
H863 C847 0.960 . S
C864 C865 1.391 . S
C864 C866 1.394 . S
C864 H880 0.931 . S
C865 C864 1.391 . S
C865 C869 1.376 1_554 S
C866 C864 1.394 . S
C866 C867 1.369 . S
C866 C870 1.531 . S
C867 C866 1.369 . S
C867 C868 1.410 1_554 S
C867 C875 1.503 . S
C868 C867 1.410 1_556 S
C868 C869 1.392 . S
C868 C871 1.511 . S
C869 C865 1.376 1_556 S
C869 C868 1.392 . S
C869 H881 0.929 . S
C870 C866 1.531 . S
C870 H882 0.960 . S
C870 H883 0.962 . S
C870 H884 0.960 . S
C871 C868 1.511 . S
C871 H885 0.961 . S
C871 H886 0.961 . S
C871 H887 0.961 . S
C872 C873 1.370 1_556 S
C872 C874 1.363 . S
C872 H888 0.931 . S
C873 C872 1.370 1_554 S
C873 C877 1.408 . S
C874 C872 1.363 . S
C874 C875 1.370 1_556 S
C874 C878 1.524 . S
C875 C867 1.503 . S
C875 C874 1.370 1_554 S
C875 C876 1.403 . S
C876 C875 1.403 . S
C876 C877 1.404 . S
C876 C879 1.539 . S
C877 C873 1.408 . S
C877 C876 1.404 . S
C877 H889 0.930 . S
C878 C874 1.524 . S
C878 H890 0.956 . S
C878 H891 0.961 . S
C878 H892 0.961 . S
C879 C876 1.539 . S
C879 H893 0.958 . S
C879 H894 0.961 . S
C879 H895 0.960 . S
H880 C864 0.931 . S
H881 C869 0.929 . S
H882 C870 0.960 . S
H883 C870 0.962 . S
H884 C870 0.960 . S
H885 C871 0.961 . S
H886 C871 0.961 . S
H887 C871 0.961 . S
H888 C872 0.931 . S
H889 C877 0.930 . S
H890 C878 0.956 . S
H891 C878 0.961 . S
H892 C878 0.961 . S
H893 C879 0.958 . S
H894 C879 0.961 . S
H895 C879 0.960 . S
C896 C897 1.391 . S
C896 C898 1.394 . S
C896 H912 0.931 . S
C897 C896 1.391 . S
C897 C901 1.376 . S
C898 C896 1.394 . S
C898 C899 1.369 . S
C898 C902 1.531 . S
C899 C898 1.369 . S
C899 C900 1.410 . S
C899 C907 1.503 . S
C900 C899 1.410 . S
C900 C901 1.392 . S
C900 C903 1.511 . S
C901 C897 1.376 . S
C901 C900 1.392 . S
C901 H913 0.929 . S
C902 C898 1.531 . S
C902 H914 0.960 . S
C902 H915 0.962 . S
C902 H916 0.960 . S
C903 C900 1.511 . S
C903 H917 0.961 . S
C903 H918 0.961 . S
C903 H919 0.961 . S
C904 C905 1.370 . S
C904 C906 1.363 . S
C904 H920 0.931 . S
C905 C904 1.370 . S
C905 C909 1.408 . S
C906 C904 1.363 . S
C906 C907 1.370 . S
C906 C910 1.524 . S
C907 C899 1.503 . S
C907 C906 1.370 . S
C907 C908 1.403 . S
C908 C907 1.403 . S
C908 C909 1.404 . S
C908 C911 1.539 . S
C909 C905 1.408 . S
C909 C908 1.404 . S
C909 H921 0.930 . S
C910 C906 1.524 . S
C910 H922 0.956 . S
C910 H923 0.961 . S
C910 H924 0.961 . S
C911 C908 1.539 . S
C911 H925 0.958 . S
C911 H926 0.961 . S
C911 H927 0.960 . S
H912 C896 0.931 . S
H913 C901 0.929 . S
H914 C902 0.960 . S
H915 C902 0.962 . S
H916 C902 0.960 . S
H917 C903 0.961 . S
H918 C903 0.961 . S
H919 C903 0.961 . S
H920 C904 0.931 . S
H921 C909 0.930 . S
H922 C910 0.956 . S
H923 C910 0.961 . S
H924 C910 0.961 . S
H925 C911 0.958 . S
H926 C911 0.961 . S
H927 C911 0.960 . S
C928 C929 1.391 1_556 S
C928 C930 1.394 . S
C928 H944 0.931 . S
C929 C928 1.391 1_554 S
C929 C933 1.376 . S
C930 C928 1.394 . S
C930 C931 1.369 . S
C930 C934 1.531 . S
C931 C930 1.369 . S
C931 C932 1.410 1_556 S
C931 C939 1.503 . S
C932 C931 1.410 1_554 S
C932 C933 1.392 . S
C932 C935 1.511 . S
C933 C929 1.376 . S
C933 C932 1.392 . S
C933 H945 0.929 . S
C934 C930 1.531 . S
C934 H946 0.960 . S
C934 H947 0.962 . S
C934 H948 0.960 . S
C935 C932 1.511 . S
C935 H949 0.961 . S
C935 H950 0.961 . S
C935 H951 0.961 1_554 S
C936 C937 1.370 . S
C936 C938 1.363 . S
C936 H952 0.931 . S
C937 C936 1.370 . S
C937 C941 1.408 1_554 S
C938 C936 1.363 . S
C938 C939 1.370 1_554 S
C938 C942 1.524 . S
C939 C931 1.503 . S
C939 C938 1.370 1_556 S
C939 C940 1.403 . S
C940 C939 1.403 . S
C940 C941 1.404 . S
C940 C943 1.539 . S
C941 C937 1.408 1_556 S
C941 C940 1.404 . S
C941 H953 0.930 . S
C942 C938 1.524 . S
C942 H954 0.956 . S
C942 H955 0.961 . S
C942 H956 0.961 . S
C943 C940 1.539 . S
C943 H957 0.958 . S
C943 H958 0.961 . S
C943 H959 0.960 . S
H944 C928 0.931 . S
H945 C933 0.929 . S
H946 C934 0.960 . S
H947 C934 0.962 . S
H948 C934 0.960 . S
H949 C935 0.961 . S
H950 C935 0.961 . S
H951 C935 0.961 1_556 S
H952 C936 0.931 . S
H953 C941 0.930 . S
H954 C942 0.956 . S
H955 C942 0.961 . S
H956 C942 0.961 . S
H957 C943 0.958 . S
H958 C943 0.961 . S
H959 C943 0.960 . S
C193 C21 1.481 . S
C201 C135 1.502 . S
C225 C40 1.510 . S
C233 C97 1.483 . S
C265 C110 1.438 . S
C257 C54 1.450 . S
C289 C73 1.504 . S
C297 C122 1.509 . S
C329 C162 1.451 . S
C321 C74 1.473 . S
C361 C174 1.483 . S
C353 C10 1.488 . S
C393 C187 1.496 . S
C385 C37 1.494 . S
C425 C149 1.502 . S
C417 C65 1.515 . S
C449 C52 1.443 . S
C457 C109 1.448 . S
C481 C87 1.518 . S
C489 C123 1.510 . S
C513 C15 1.508 . S
C521 C136 1.504 . S
C553 C96 1.467 . S
C545 C32 1.476 . S
C577 C29 1.518 . S
C585 C188 1.513 . S
C617 C148 1.518 . S
C609 C59 1.524 . S
C649 C161 1.437 . S
C641 C84 1.430 . S
C673 C8 1.490 . S
C681 C175 1.464 . S
C713 C92 1.469 1_554 S
C705 C7 1.521 . S
C745 C105 1.441 . S
C737 C30 1.487 . S
C769 C62 1.536 . S
C777 C118 1.495 . S
C801 C81 1.514 . S
C809 C131 1.446 . S
C841 C144 1.472 . S
C833 C76 1.536 . S
C865 C18 1.492 . S
C873 C157 1.451 . S
C897 C43 1.540 . S
C905 C170 1.505 . S
C929 C51 1.496 . S
C937 C183 1.452 1_554 S
