# Generated by pormake.
# Topology hwx, (6,3)-cn, num edge types: 1
# Building blocks:
#     Node 0, Type 0, BuildingBlock: OJICUG_clean_sbu_0, # of connection points: 6
#     Node 1, Type 0, BuildingBlock: OJICUG_clean_sbu_0, # of connection points: 6
#     Node 2, Type 0, BuildingBlock: OJICUG_clean_sbu_0, # of connection points: 6
#     Node 3, Type 0, BuildingBlock: OJICUG_clean_sbu_0, # of connection points: 6
#     Node 4, Type 1, BuildingBlock: KAKCAD_clean_linker_0, # of connection points: 3
#     Node 5, Type 1, BuildingBlock: KAKCAD_clean_linker_0, # of connection points: 3
#     Node 6, Type 1, BuildingBlock: KAKCAD_clean_linker_0, # of connection points: 3
#     Node 7, Type 1, BuildingBlock: KAKCAD_clean_linker_0, # of connection points: 3
#     Node 8, Type 1, BuildingBlock: KAKCAD_clean_linker_0, # of connection points: 3
#     Node 9, Type 1, BuildingBlock: KAKCAD_clean_linker_0, # of connection points: 3
#     Node 10, Type 1, BuildingBlock: KAKCAD_clean_linker_0, # of connection points: 3
#     Node 11, Type 1, BuildingBlock: KAKCAD_clean_linker_0, # of connection points: 3
#     Edge 12, Type (0, 1), None
#     Edge 13, Type (0, 1), None
#     Edge 14, Type (0, 1), None
#     Edge 15, Type (0, 1), None
#     Edge 16, Type (0, 1), None
#     Edge 17, Type (0, 1), None
#     Edge 18, Type (0, 1), None
#     Edge 19, Type (0, 1), None
#     Edge 20, Type (0, 1), None
#     Edge 21, Type (0, 1), None
#     Edge 22, Type (0, 1), None
#     Edge 23, Type (0, 1), None
#     Edge 24, Type (0, 1), None
#     Edge 25, Type (0, 1), None
#     Edge 26, Type (0, 1), None
#     Edge 27, Type (0, 1), None
#     Edge 28, Type (0, 1), None
#     Edge 29, Type (0, 1), None
#     Edge 30, Type (0, 1), None
#     Edge 31, Type (0, 1), None
#     Edge 32, Type (0, 1), None
#     Edge 33, Type (0, 1), None
#     Edge 34, Type (0, 1), None
#     Edge 35, Type (0, 1), None
# Relax obj value: 0.075
# Max RMSD: 0.101
# Mean RMSD: 0.094
data_MOF--net-hwx--node1-OJICUG_clean_sbu_0--node2-KAKCAD_clean_linker_0--edge1-none
_symmetry_space_group_name_H-M    P1
_symmetry_Int_Tables_number       1
_symmetry_cell_setting            triclinic
loop_
_symmetry_equiv_pos_as_xyz
'x, y, z'
_cell_length_a     34.490749
_cell_length_b     34.490047
_cell_length_c     15.60821
_cell_angle_alpha  89.874303
_cell_angle_beta   90.125096
_cell_angle_gamma 89.767115
loop_
_atom_site_label
_atom_site_type_symbol
_atom_site_fract_x
_atom_site_fract_y
_atom_site_fract_z
_atom_type_partial_charge
Sc0 Sc 0.23393 0.22495 0.1013 0.0
Sc1 Sc 0.16664 0.16655 -0.00971 0.0
Sc2 Sc 0.22496 0.23391 0.87924 0.0
O3 O 0.20843 0.20839 -0.00972 0.0
C4 C 0.2248 0.30579 0.00423 0.0
C5 C 0.14503 0.21728 0.15412 0.0
C6 C 0.13387 0.22562 0.85065 0.0
C7 C 0.22577 0.13386 0.12992 0.0
C8 C 0.3058 0.22488 0.97628 0.0
C9 C 0.2174 0.14498 0.82645 0.0
O10 O 0.23153 0.2855 0.07053 0.0
O11 O 0.1364 0.19289 0.09612 0.0
O12 O 0.16683 0.24005 0.835 0.0
O13 O 0.24016 0.16683 0.14556 0.0
O14 O 0.2855 0.23159 0.90998 0.0
O15 O 0.19302 0.13633 0.88446 0.0
O16 O 0.29134 0.21993 0.05015 0.0
O17 O 0.19879 0.12877 0.07557 0.0
O18 O 0.23147 0.17877 0.81759 0.0
O19 O 0.1788 0.2314 0.16297 0.0
O20 O 0.21986 0.29131 0.93036 0.0
O21 O 0.12882 0.19863 0.90501 0.0
Sc22 Sc 0.25395 0.72666 0.41718 0.0
Sc23 Sc 0.31676 0.66711 0.53809 0.0
Sc24 Sc 0.25223 0.73224 0.64046 0.0
O25 O 0.2744 0.7086 0.53208 0.0
C26 C 0.2566 0.80599 0.52107 0.0
C27 C 0.34456 0.72018 0.38213 0.0
C28 C 0.34238 0.72446 0.68683 0.0
C29 C 0.264 0.63572 0.387 0.0
C30 C 0.17644 0.72381 0.52387 0.0
C31 C 0.26007 0.6432 0.69115 0.0
O32 O 0.25304 0.78658 0.45259 0.0
O33 O 0.35074 0.69386 0.43786 0.0
O34 O 0.30832 0.73749 0.69873 0.0
O35 O 0.25129 0.66919 0.36814 0.0
O36 O 0.19302 0.73043 0.59516 0.0
O37 O 0.28754 0.63611 0.63909 0.0
O38 O 0.1948 0.71962 0.4542 0.0
O39 O 0.2879 0.62956 0.44763 0.0
O40 O 0.24373 0.6762 0.69685 0.0
O41 O 0.31138 0.73527 0.36941 0.0
O42 O 0.25899 0.79052 0.59475 0.0
O43 O 0.3504 0.69949 0.6297 0.0
Sc44 Sc 0.75002 0.75896 0.87993 0.0
Sc45 Sc 0.81629 0.8164 -0.00984 0.0
Sc46 Sc 0.75893 0.75007 0.10039 0.0
O47 O 0.77513 0.7752 -0.00984 0.0
C48 C 0.67886 0.75796 0.01117 0.0
C49 C 0.75447 0.84854 0.85336 0.0
C50 C 0.77109 0.83836 0.15519 0.0
C51 C 0.8383 0.77121 0.82513 0.0
C52 C 0.75799 0.6789 0.96915 0.0
C53 C 0.8485 0.7546 0.12696 0.0
O54 O 0.69378 0.75144 0.93808 0.0
O55 O 0.78681 0.8507 0.89281 0.0
O56 O 0.76441 0.80299 0.17274 0.0
O57 O 0.80294 0.76449 0.80758 0.0
O58 O 0.75146 0.69382 0.04224 0.0
O59 O 0.85062 0.78695 0.08752 0.0
O60 O 0.76405 0.69912 0.90241 0.0
O61 O 0.84946 0.78588 0.89542 0.0
O62 O 0.81767 0.73456 0.12901 0.0
O63 O 0.73446 0.81769 0.8513 0.0
O64 O 0.69908 0.76404 0.07791 0.0
O65 O 0.78575 0.84953 0.0849 0.0
Sc66 Sc 0.72666 0.25399 0.56322 0.0
Sc67 Sc 0.66719 0.31687 0.44229 0.0
Sc68 Sc 0.73227 0.25228 0.33994 0.0
O69 O 0.70864 0.27446 0.44831 0.0
C70 C 0.806 0.25655 0.45938 0.0
C71 C 0.72027 0.34461 0.59828 0.0
C72 C 0.72458 0.34244 0.29359 0.0
C73 C 0.63573 0.26414 0.59335 0.0
C74 C 0.72375 0.17649 0.4565 0.0
C75 C 0.64324 0.26022 0.2892 0.0
O76 O 0.78658 0.25301 0.52784 0.0
O77 O 0.69396 0.35081 0.54254 0.0
O78 O 0.73758 0.30837 0.28169 0.0
O79 O 0.66918 0.25139 0.61222 0.0
O80 O 0.73039 0.19307 0.38522 0.0
O81 O 0.63617 0.28769 0.34127 0.0
O82 O 0.71956 0.19485 0.52617 0.0
O83 O 0.6296 0.28805 0.53272 0.0
O84 O 0.67623 0.24384 0.28351 0.0
O85 O 0.73533 0.31141 0.61101 0.0
O86 O 0.79055 0.25897 0.38569 0.0
O87 O 0.69961 0.35048 0.3507 0.0
C88 C 0.21826 0.61977 0.81096 0.0
C89 C 0.24833 0.61265 0.7523 0.0
C90 C 0.21064 0.59346 0.87654 0.0
C91 C 0.23282 0.55946 0.88472 0.0
C92 C 0.26111 0.55096 0.82297 0.0
C93 C 0.26883 0.57736 0.75725 0.0
C94 C 0.22932 0.53535 0.96257 0.0
C95 C 0.22792 0.49486 0.95781 0.0
C96 C 0.22659 0.47225 0.03296 0.0
C97 C 0.22765 0.49074 0.11327 0.0
C98 C 0.22943 0.53115 0.11816 0.0
C99 C 0.22986 0.55322 0.04289 0.0
C100 C 0.23313 0.55124 0.20079 0.0
C101 C 0.20791 0.58198 0.2192 0.0
C102 C 0.26549 0.54451 0.25364 0.0
C103 C 0.27445 0.57055 0.31937 0.0
C104 C 0.2511 0.60349 0.33225 0.0
C105 C 0.225 0.42944 0.02728 0.0
C106 C 0.2033 0.41142 0.96228 0.0
C107 C 0.24573 0.40627 0.08584 0.0
C108 C 0.24492 0.36602 0.07933 0.0
C109 C 0.22397 0.34816 0.0132 0.0
C110 C 0.2031 0.37116 0.95481 0.0
C111 C 0.21674 0.60783 0.28447 0.0
H112 H 0.20149 0.64637 0.80842 0.0
H113 H 0.18828 0.60035 0.9228 0.0
H114 H 0.27872 0.52498 0.82819 0.0
H115 H 0.292 0.57083 0.71277 0.0
H116 H 0.22837 0.48106 0.89551 0.0
H117 H 0.2324 0.58451 0.04699 0.0
H118 H 0.22666 0.47396 0.17199 0.0
H119 H 0.18264 0.5874 0.17949 0.0
H120 H 0.28537 0.52093 0.23996 0.0
H121 H 0.30096 0.56644 0.35566 0.0
H122 H 0.18634 0.42838 0.9172 0.0
H123 H 0.26331 0.41916 0.13569 0.0
H124 H 0.19769 0.63248 0.2943 0.0
H125 H 0.1864 0.35803 0.90374 0.0
H126 H 0.26158 0.34892 0.12474 0.0
C127 C 0.87865 0.70749 0.22949 0.0
C128 C 0.88141 0.74194 0.18146 0.0
C129 C 0.90482 0.69987 0.29559 0.0
C130 C 0.93443 0.72627 0.3142 0.0
C131 C 0.93992 0.75844 0.26052 0.0
C132 C 0.91355 0.76627 0.19449 0.0
C133 C 0.95284 0.72543 0.3994 0.0
C134 C -0.00689 0.72468 0.40968 0.0
C135 C 0.0097 0.72715 0.49213 0.0
C136 C 0.98524 0.73266 0.56338 0.0
C137 C 0.94485 0.73507 0.55294 0.0
C138 C 0.92905 0.72962 0.47111 0.0
C139 C 0.91889 0.74551 0.62531 0.0
C140 C 0.92609 0.73228 0.7093 0.0
C141 C 0.88611 0.76904 0.60999 0.0
C142 C 0.86014 0.77732 0.67544 0.0
C143 C 0.86703 0.76354 0.75841 0.0
C144 C 0.05248 0.72504 0.50333 0.0
C145 C 0.0749 0.70062 0.45085 0.0
C146 C 0.07134 0.74763 0.56572 0.0
C147 C 0.1116 0.74608 0.57475 0.0
C148 C 0.13385 0.72264 0.5203 0.0
C149 C 0.11517 0.69977 0.45861 0.0
C150 C 0.90051 0.74167 0.77568 0.0
H151 H 0.8547 0.68771 0.22027 0.0
H152 H 0.90017 0.67487 0.33644 0.0
H153 H 0.96246 0.77932 0.27438 0.0
H154 H 0.91683 0.79279 0.158 0.0
H155 H 0.01132 0.72264 0.35336 0.0
H156 H 0.89787 0.73027 0.46212 0.0
H157 H -0.00236 0.73579 0.6267 0.0
H158 H 0.95087 0.71399 0.72349 0.0
H159 H 0.88031 0.78116 0.54719 0.0
H160 H 0.83471 0.79481 0.66135 0.0
H161 H 0.06139 0.68213 0.40353 0.0
H162 H 0.05525 0.76736 0.60624 0.0
H163 H 0.90614 0.73075 0.83967 0.0
H164 H 0.13174 0.68119 0.41626 0.0
H165 H 0.12541 0.76435 0.62214 0.0
C166 C 0.71745 0.40886 0.22912 0.0
C167 C 0.73729 0.37321 0.23389 0.0
C168 C 0.72563 0.43515 0.16333 0.0
C169 C 0.75379 0.42618 0.10149 0.0
C170 C 0.77565 0.39201 0.11028 0.0
C171 C 0.76751 0.3658 0.17576 0.0
C172 C 0.75661 0.44941 0.02202 0.0
C173 C 0.75736 0.48996 0.02413 0.0
C174 C 0.75596 0.51173 0.94765 0.0
C175 C 0.75391 0.49219 0.86859 0.0
C176 C 0.75404 0.45157 0.86615 0.0
C177 C 0.75541 0.43053 0.94287 0.0
C178 C 0.75016 0.43002 0.78505 0.0
C179 C 0.71822 0.43642 0.73084 0.0
C180 C 0.77506 0.39863 0.76909 0.0
C181 C 0.76643 0.37216 0.70477 0.0
C182 C 0.73266 0.37652 0.65502 0.0
C183 C 0.75584 0.55473 0.95107 0.0
C184 C 0.73578 0.57408 0.0167 0.0
C185 C 0.77609 0.57676 0.88993 0.0
C186 C 0.77654 0.61722 0.89496 0.0
C187 C 0.75721 0.63631 0.9619 0.0
C188 C 0.73676 0.61434 0.02249 0.0
C189 C 0.70953 0.40982 0.66602 0.0
H190 H 0.69419 0.41559 0.27323 0.0
H191 H 0.70825 0.46126 0.15773 0.0
H192 H 0.79792 0.38474 0.06409 0.0
H193 H 0.7839 0.33896 0.1785 0.0
H194 H 0.75918 0.50442 0.08557 0.0
H195 H 0.75359 0.39915 0.94096 0.0
H196 H 0.75178 0.50837 0.80917 0.0
H197 H 0.69854 0.46039 0.74237 0.0
H198 H 0.80008 0.3934 0.80967 0.0
H199 H 0.78534 0.34727 0.69677 0.0
H200 H 0.71903 0.55817 0.06358 0.0
H201 H 0.79221 0.56278 0.83911 0.0
H202 H 0.68347 0.41412 0.62825 0.0
H203 H 0.72104 0.62828 0.07404 0.0
H204 H 0.79262 0.63348 0.84749 0.0
C205 C 0.06867 0.21508 0.78342 0.0
C206 C 0.1013 0.23867 0.79623 0.0
C207 C 0.04296 0.2231 0.7162 0.0
C208 C 0.04973 0.25471 0.66149 0.0
C209 C 0.0799 0.28043 0.67986 0.0
C210 C 0.10536 0.27261 0.74696 0.0
C211 C 0.03059 0.25665 0.57731 0.0
C212 C 0.99025 0.25783 0.56981 0.0
C213 C 0.97254 0.25617 0.48857 0.0
C214 C -0.0041 0.25307 0.41505 0.0
C215 C 0.0364 0.25222 0.4223 0.0
C216 C 0.05344 0.25424 0.5036 0.0
C217 C 0.06137 0.24672 0.34642 0.0
C218 C 0.05304 0.21772 0.28616 0.0
C219 C 0.09569 0.26811 0.33831 0.0
C220 C 0.12223 0.2593 0.27409 0.0
C221 C 0.11497 0.22895 0.21635 0.0
C222 C 0.92975 0.25654 0.48075 0.0
C223 C 0.90689 0.23718 0.54161 0.0
C224 C 0.91141 0.27596 0.4123 0.0
C225 C 0.87111 0.27576 0.40468 0.0
C226 C 0.84846 0.25679 0.46627 0.0
C227 C 0.86666 0.23765 0.53491 0.0
C228 C 0.07961 0.20893 0.22154 0.0
H229 H 0.06466 0.18889 0.82072 0.0
H230 H 0.01981 0.20286 0.70264 0.0
H231 H 0.08532 0.30514 0.63864 0.0
H232 H 0.12974 0.29185 0.75644 0.0
H233 H 0.97288 0.26022 0.62735 0.0
H234 H 0.0847 0.25199 0.51005 0.0
H235 H 0.98269 0.25072 0.35225 0.0
H236 H 0.02689 0.2006 0.29137 0.0
H237 H 0.1025 0.29103 0.38318 0.0
H238 H 0.14888 0.27576 0.27111 0.0
H239 H 0.92001 0.22115 0.59395 0.0
H240 H 0.92813 0.29168 0.36507 0.0
H241 H 0.07305 0.18551 0.1778 0.0
H242 H 0.84983 0.22235 0.58268 0.0
H243 H 0.85766 0.29096 0.35148 0.0
C244 C 0.70734 0.87865 0.75082 0.0
C245 C 0.74178 0.88145 0.79886 0.0
C246 C 0.69969 0.90483 0.68473 0.0
C247 C 0.72607 0.93446 0.66612 0.0
C248 C 0.75823 0.93998 0.71981 0.0
C249 C 0.76608 0.91361 0.78584 0.0
C250 C 0.72522 0.95287 0.58092 0.0
C251 C 0.72448 -0.00685 0.57065 0.0
C252 C 0.72696 0.00974 0.4882 0.0
C253 C 0.73247 0.98528 0.41695 0.0
C254 C 0.73486 0.94488 0.42739 0.0
C255 C 0.72941 0.92908 0.50921 0.0
C256 C 0.74532 0.91893 0.35502 0.0
C257 C 0.73211 0.92613 0.27101 0.0
C258 C 0.76885 0.88615 0.37035 0.0
C259 C 0.77715 0.86018 0.30491 0.0
C260 C 0.76339 0.86708 0.22192 0.0
C261 C 0.72488 0.05252 0.47701 0.0
C262 C 0.70047 0.07495 0.52949 0.0
C263 C 0.74749 0.07137 0.41462 0.0
C264 C 0.74597 0.11163 0.4056 0.0
C265 C 0.72253 0.1339 0.46006 0.0
C266 C 0.69965 0.11523 0.52174 0.0
C267 C 0.74152 0.90056 0.20464 0.0
H268 H 0.68758 0.85468 0.76003 0.0
H269 H 0.67471 0.90015 0.64387 0.0
H270 H 0.77909 0.96253 0.70597 0.0
H271 H 0.7926 0.91691 0.82234 0.0
H272 H 0.72245 0.01135 0.62697 0.0
H273 H 0.73005 0.89791 0.51819 0.0
H274 H 0.73561 -0.00232 0.35363 0.0
H275 H 0.71382 0.95091 0.25681 0.0
H276 H 0.78095 0.88034 0.43317 0.0
H277 H 0.79463 0.83476 0.31901 0.0
H278 H 0.68197 0.06146 0.57681 0.0
H279 H 0.7672 0.05527 0.3741 0.0
H280 H 0.73062 0.90619 0.14063 0.0
H281 H 0.68108 0.1318 0.56408 0.0
H282 H 0.76425 0.12543 0.35822 0.0
C283 C 0.61979 0.21845 0.16934 0.0
C284 C 0.61269 0.24851 0.22803 0.0
C285 C 0.59348 0.21086 0.10376 0.0
C286 C 0.55949 0.23305 0.09561 0.0
C287 C 0.55101 0.26133 0.15739 0.0
C288 C 0.57741 0.26903 0.22311 0.0
C289 C 0.53536 0.22957 0.01778 0.0
C290 C 0.49487 0.22817 0.02257 0.0
C291 C 0.47226 0.22682 0.94744 0.0
C292 C 0.49073 0.22789 0.86712 0.0
C293 C 0.53114 0.22968 0.86219 0.0
C294 C 0.55322 0.2301 0.93745 0.0
C295 C 0.55121 0.23335 0.77955 0.0
C296 C 0.58192 0.20809 0.76111 0.0
C297 C 0.54452 0.26573 0.72672 0.0
C298 C 0.57058 0.27466 0.66099 0.0
C299 C 0.60348 0.25126 0.64808 0.0
C300 C 0.42945 0.2252 0.95316 0.0
C301 C 0.41146 0.20349 0.01817 0.0
C302 C 0.40625 0.24592 0.89462 0.0
C303 C 0.366 0.24508 0.90116 0.0
C304 C 0.34818 0.22411 0.9673 0.0
C305 C 0.3712 0.20326 0.02567 0.0
C306 C 0.60777 0.21689 0.69583 0.0
H307 H 0.64638 0.20166 0.17186 0.0
H308 H 0.60035 0.1885 0.05748 0.0
H309 H 0.52503 0.27895 0.1522 0.0
H310 H 0.57089 0.29219 0.26762 0.0
H311 H 0.48109 0.22861 0.08488 0.0
H312 H 0.58451 0.23265 0.93332 0.0
H313 H 0.47394 0.22689 0.80841 0.0
H314 H 0.58731 0.1828 0.8008 0.0
H315 H 0.52097 0.28564 0.74042 0.0
H316 H 0.56649 0.30118 0.62471 0.0
H317 H 0.42843 0.18655 0.06323 0.0
H318 H 0.41912 0.26352 0.84476 0.0
H319 H 0.6324 0.19781 0.68598 0.0
H320 H 0.35809 0.18653 0.07674 0.0
H321 H 0.34888 0.26172 0.85576 0.0
C322 C 0.21532 0.06864 0.19714 0.0
C323 C 0.23886 0.1013 0.18436 0.0
C324 C 0.22337 0.04294 0.26436 0.0
C325 C 0.25495 0.04975 0.3191 0.0
C326 C 0.28063 0.07996 0.30075 0.0
C327 C 0.27278 0.10541 0.23366 0.0
C328 C 0.25691 0.0306 0.40327 0.0
C329 C 0.25808 0.99026 0.41075 0.0
C330 C 0.25641 0.97253 0.49197 0.0
C331 C 0.25331 -0.00411 0.5655 0.0
C332 C 0.25247 0.03638 0.55829 0.0
C333 C 0.2545 0.05344 0.477 0.0
C334 C 0.24693 0.06135 0.63417 0.0
C335 C 0.21792 0.053 0.6944 0.0
C336 C 0.2683 0.09568 0.64233 0.0
C337 C 0.25947 0.12222 0.70653 0.0
C338 C 0.2291 0.11493 0.76424 0.0
C339 C 0.25674 0.92974 0.49976 0.0
C340 C 0.23736 0.90691 0.43887 0.0
C341 C 0.27612 0.91138 0.56821 0.0
C342 C 0.27587 0.87107 0.57581 0.0
C343 C 0.25689 0.84844 0.51419 0.0
C344 C 0.23778 0.86668 0.44556 0.0
C345 C 0.20911 0.07956 0.75902 0.0
H346 H 0.18914 0.06459 0.15982 0.0
H347 H 0.20316 0.01975 0.27789 0.0
H348 H 0.30532 0.08542 0.342 0.0
H349 H 0.29199 0.12983 0.2242 0.0
H350 H 0.26047 0.9729 0.3532 0.0
H351 H 0.25224 0.0847 0.47057 0.0
H352 H 0.25094 0.98266 0.62829 0.0
H353 H 0.20082 0.02684 0.68916 0.0
H354 H 0.29124 0.10251 0.59749 0.0
H355 H 0.27591 0.14887 0.70954 0.0
H356 H 0.22135 0.92006 0.38653 0.0
H357 H 0.29185 0.92807 0.61547 0.0
H358 H 0.18567 0.07298 0.80272 0.0
H359 H 0.22247 0.84987 0.39776 0.0
H360 H 0.29105 0.8576 0.62902 0.0
C361 C 0.4088 0.71727 0.7513 0.0
C362 C 0.37316 0.73714 0.74653 0.0
C363 C 0.43508 0.72544 0.81709 0.0
C364 C 0.42614 0.75359 0.87894 0.0
C365 C 0.39198 0.77548 0.87016 0.0
C366 C 0.36577 0.76736 0.80467 0.0
C367 C 0.44937 0.7564 0.95839 0.0
C368 C 0.48993 0.75716 0.95626 0.0
C369 C 0.5117 0.75578 0.03273 0.0
C370 C 0.49216 0.75373 0.11181 0.0
C371 C 0.45155 0.75385 0.11426 0.0
C372 C 0.4305 0.75521 0.03755 0.0
C373 C 0.43 0.74999 0.19537 0.0
C374 C 0.43638 0.71805 0.24958 0.0
C375 C 0.39864 0.77492 0.21133 0.0
C376 C 0.37216 0.76631 0.27566 0.0
C377 C 0.37649 0.73254 0.32541 0.0
C378 C 0.5547 0.75568 0.0293 0.0
C379 C 0.57406 0.73564 0.96367 0.0
C380 C 0.57672 0.77597 0.09043 0.0
C381 C 0.61717 0.77645 0.08538 0.0
C382 C 0.63627 0.75714 0.01844 0.0
C383 C 0.61431 0.73666 0.95786 0.0
C384 C 0.40977 0.70937 0.3144 0.0
H385 H 0.41551 0.69401 0.70718 0.0
H386 H 0.46119 0.70804 0.82268 0.0
H387 H 0.38473 0.79775 0.91635 0.0
H388 H 0.33894 0.78377 0.80195 0.0
H389 H 0.50437 0.75899 0.89482 0.0
H390 H 0.39912 0.75339 0.03947 0.0
H391 H 0.50835 0.75161 0.17123 0.0
H392 H 0.46033 0.69833 0.23804 0.0
H393 H 0.39343 0.79995 0.17076 0.0
H394 H 0.3473 0.78525 0.28367 0.0
H395 H 0.55816 0.71888 0.91681 0.0
H396 H 0.56272 0.79208 0.14125 0.0
H397 H 0.41404 0.68331 0.35216 0.0
H398 H 0.62827 0.72095 0.90631 0.0
H399 H 0.63341 0.79256 0.13284 0.0
loop_
_geom_bond_atom_site_label_1
_geom_bond_atom_site_label_2
_geom_bond_distance
_geom_bond_site_symmetry_2
_ccdc_geom_bond_type
Sc0 O3 2.029 . S
Sc0 O10 2.105 . S
Sc0 O13 2.105 . S
Sc0 O16 2.105 . S
Sc0 O19 2.105 . S
Sc1 O3 2.025 . S
Sc1 O11 2.108 . S
Sc1 O15 2.102 1_554 S
Sc1 O17 2.108 . S
Sc1 O21 2.102 1_554 S
Sc2 O3 2.022 1_556 S
Sc2 O12 2.105 . S
Sc2 O14 2.105 . S
Sc2 O18 2.105 . S
Sc2 O20 2.105 . S
O3 Sc0 2.029 . S
O3 Sc1 2.025 . S
O3 Sc2 2.022 1_554 S
C4 O10 1.269 . S
C4 O20 1.267 1_554 S
C5 O11 1.268 . S
C5 O19 1.268 . S
C6 O12 1.268 . S
C6 O21 1.268 . S
C7 O13 1.268 . S
C7 O17 1.268 . S
C8 O14 1.261 1_554 S
C8 O16 1.275 . S
C9 O15 1.268 . S
C9 O18 1.268 . S
O10 Sc0 2.105 . S
O10 C4 1.269 . S
O11 Sc1 2.108 . S
O11 C5 1.268 . S
O12 Sc2 2.105 . S
O12 C6 1.268 . S
O13 Sc0 2.105 . S
O13 C7 1.268 . S
O14 Sc2 2.105 . S
O14 C8 1.261 1_556 S
O15 Sc1 2.102 1_556 S
O15 C9 1.268 . S
O16 Sc0 2.105 . S
O16 C8 1.275 . S
O17 Sc1 2.108 . S
O17 C7 1.268 . S
O18 Sc2 2.105 . S
O18 C9 1.268 . S
O19 Sc0 2.105 . S
O19 C5 1.268 . S
O20 Sc2 2.105 . S
O20 C4 1.267 1_556 S
O21 Sc1 2.102 1_556 S
O21 C6 1.268 . S
Sc22 O25 2.025 . S
Sc22 O32 2.105 . S
Sc22 O35 2.105 . S
Sc22 O38 2.105 . S
Sc22 O41 2.105 . S
Sc23 O25 2.025 . S
Sc23 O33 2.105 . S
Sc23 O37 2.105 . S
Sc23 O39 2.105 . S
Sc23 O43 2.105 . S
Sc24 O25 2.025 . S
Sc24 O34 2.105 . S
Sc24 O36 2.105 . S
Sc24 O40 2.105 . S
Sc24 O42 2.105 . S
O25 Sc22 2.025 . S
O25 Sc23 2.025 . S
O25 Sc24 2.025 . S
C26 O32 1.268 . S
C26 O42 1.268 . S
C27 O33 1.268 . S
C27 O41 1.268 . S
C28 O34 1.268 . S
C28 O43 1.268 . S
C29 O35 1.268 . S
C29 O39 1.268 . S
C30 O36 1.268 . S
C30 O38 1.268 . S
C31 O37 1.268 . S
C31 O40 1.268 . S
O32 Sc22 2.105 . S
O32 C26 1.268 . S
O33 Sc23 2.105 . S
O33 C27 1.268 . S
O34 Sc24 2.105 . S
O34 C28 1.268 . S
O35 Sc22 2.105 . S
O35 C29 1.268 . S
O36 Sc24 2.105 . S
O36 C30 1.268 . S
O37 Sc23 2.105 . S
O37 C31 1.268 . S
O38 Sc22 2.105 . S
O38 C30 1.268 . S
O39 Sc23 2.105 . S
O39 C29 1.268 . S
O40 Sc24 2.105 . S
O40 C31 1.268 . S
O41 Sc22 2.105 . S
O41 C27 1.268 . S
O42 Sc24 2.105 . S
O42 C26 1.268 . S
O43 Sc23 2.105 . S
O43 C28 1.268 . S
Sc44 O47 2.022 1_556 S
Sc44 O54 2.105 . S
Sc44 O57 2.105 . S
Sc44 O60 2.105 . S
Sc44 O63 2.105 . S
Sc45 O47 2.025 . S
Sc45 O55 2.102 1_554 S
Sc45 O59 2.108 . S
Sc45 O61 2.102 1_554 S
Sc45 O65 2.108 . S
Sc46 O47 2.029 . S
Sc46 O56 2.105 . S
Sc46 O58 2.105 . S
Sc46 O62 2.105 . S
Sc46 O64 2.105 . S
O47 Sc44 2.022 1_554 S
O47 Sc45 2.025 . S
O47 Sc46 2.029 . S
C48 O54 1.267 1_554 S
C48 O64 1.269 . S
C49 O55 1.268 . S
C49 O63 1.268 . S
C50 O56 1.268 . S
C50 O65 1.268 . S
C51 O57 1.268 . S
C51 O61 1.268 . S
C52 O58 1.275 . S
C52 O60 1.261 1_554 S
C53 O59 1.268 . S
C53 O62 1.268 . S
O54 Sc44 2.105 . S
O54 C48 1.267 1_556 S
O55 Sc45 2.102 1_556 S
O55 C49 1.268 . S
O56 Sc46 2.105 . S
O56 C50 1.268 . S
O57 Sc44 2.105 . S
O57 C51 1.268 . S
O58 Sc46 2.105 . S
O58 C52 1.275 . S
O59 Sc45 2.108 . S
O59 C53 1.268 . S
O60 Sc44 2.105 . S
O60 C52 1.261 1_556 S
O61 Sc45 2.102 1_556 S
O61 C51 1.268 . S
O62 Sc46 2.105 . S
O62 C53 1.268 . S
O63 Sc44 2.105 . S
O63 C49 1.268 . S
O64 Sc46 2.105 . S
O64 C48 1.269 . S
O65 Sc45 2.108 . S
O65 C50 1.268 . S
Sc66 O69 2.025 . S
Sc66 O76 2.105 . S
Sc66 O79 2.105 . S
Sc66 O82 2.105 . S
Sc66 O85 2.105 . S
Sc67 O69 2.025 . S
Sc67 O77 2.105 . S
Sc67 O81 2.105 . S
Sc67 O83 2.105 . S
Sc67 O87 2.105 . S
Sc68 O69 2.025 . S
Sc68 O78 2.105 . S
Sc68 O80 2.105 . S
Sc68 O84 2.105 . S
Sc68 O86 2.105 . S
O69 Sc66 2.025 . S
O69 Sc67 2.025 . S
O69 Sc68 2.025 . S
C70 O76 1.268 . S
C70 O86 1.268 . S
C71 O77 1.268 . S
C71 O85 1.268 . S
C72 O78 1.268 . S
C72 O87 1.268 . S
C73 O79 1.268 . S
C73 O83 1.268 . S
C74 O80 1.268 . S
C74 O82 1.268 . S
C75 O81 1.268 . S
C75 O84 1.268 . S
O76 Sc66 2.105 . S
O76 C70 1.268 . S
O77 Sc67 2.105 . S
O77 C71 1.268 . S
O78 Sc68 2.105 . S
O78 C72 1.268 . S
O79 Sc66 2.105 . S
O79 C73 1.268 . S
O80 Sc68 2.105 . S
O80 C74 1.268 . S
O81 Sc67 2.105 . S
O81 C75 1.268 . S
O82 Sc66 2.105 . S
O82 C74 1.268 . S
O83 Sc67 2.105 . S
O83 C73 1.268 . S
O84 Sc68 2.105 . S
O84 C75 1.268 . S
O85 Sc66 2.105 . S
O85 C71 1.268 . S
O86 Sc68 2.105 . S
O86 C70 1.268 . S
O87 Sc67 2.105 . S
O87 C72 1.268 . S
C88 C89 1.386 . S
C88 C90 1.397 . S
C88 H112 0.931 . S
C89 C88 1.386 . S
C89 C93 1.397 . S
C90 C88 1.397 . S
C90 C91 1.384 . S
C90 H113 0.930 . S
C91 C90 1.384 . S
C91 C92 1.377 . S
C91 C94 1.481 . S
C92 C91 1.377 . S
C92 C93 1.389 . S
C92 H114 0.929 . S
C93 C89 1.397 . S
C93 C92 1.389 . S
C93 H115 0.931 . S
C94 C91 1.481 . S
C94 C95 1.387 . S
C94 C99 1.390 1_556 S
C95 C94 1.387 . S
C95 C96 1.401 1_556 S
C95 H116 0.930 . S
C96 C95 1.401 1_554 S
C96 C97 1.376 . S
C96 C105 1.511 . S
C97 C96 1.376 . S
C97 C98 1.392 . S
C97 H118 0.931 . S
C98 C97 1.392 . S
C98 C99 1.361 . S
C98 C100 1.500 . S
C99 C94 1.390 1_554 S
C99 C98 1.361 . S
C99 H117 0.931 . S
C100 C98 1.500 . S
C100 C101 1.371 . S
C100 C102 1.365 . S
C101 C100 1.371 . S
C101 C111 1.386 . S
C101 H119 0.931 . S
C102 C100 1.365 . S
C102 C103 1.409 . S
C102 H120 0.929 . S
C103 C102 1.409 . S
C103 C104 1.380 . S
C103 H121 0.930 . S
C104 C103 1.380 . S
C104 C111 1.357 . S
C105 C96 1.511 . S
C105 C106 1.341 1_554 S
C105 C107 1.371 . S
C106 C105 1.341 1_556 S
C106 C110 1.394 . S
C106 H122 0.930 . S
C107 C105 1.371 . S
C107 C108 1.392 . S
C107 H123 0.931 . S
C108 C107 1.392 . S
C108 C109 1.331 . S
C108 H126 0.932 . S
C109 C108 1.331 . S
C109 C110 1.336 1_554 S
C110 C106 1.394 . S
C110 C109 1.336 1_556 S
C110 H125 0.929 . S
C111 C101 1.386 . S
C111 C104 1.357 . S
C111 H124 0.928 . S
H112 C88 0.931 . S
H113 C90 0.930 . S
H114 C92 0.929 . S
H115 C93 0.931 . S
H116 C95 0.930 . S
H117 C99 0.931 . S
H118 C97 0.931 . S
H119 C101 0.931 . S
H120 C102 0.929 . S
H121 C103 0.930 . S
H122 C106 0.930 . S
H123 C107 0.931 . S
H124 C111 0.928 . S
H125 C110 0.929 . S
H126 C108 0.932 . S
C127 C128 1.386 . S
C127 C129 1.397 . S
C127 H151 0.931 . S
C128 C127 1.386 . S
C128 C132 1.397 . S
C129 C127 1.397 . S
C129 C130 1.384 . S
C129 H152 0.930 . S
C130 C129 1.384 . S
C130 C131 1.377 . S
C130 C133 1.481 . S
C131 C130 1.377 . S
C131 C132 1.389 . S
C131 H153 0.929 . S
C132 C128 1.397 . S
C132 C131 1.389 . S
C132 H154 0.931 . S
C133 C130 1.481 . S
C133 C134 1.363 1_655 S
C133 C138 1.390 . S
C134 C133 1.363 1_455 S
C134 C135 1.413 . S
C134 H155 0.942 . S
C135 C134 1.413 . S
C135 C136 1.381 . S
C135 C144 1.511 . S
C136 C135 1.381 . S
C136 C137 1.383 1_455 S
C136 H157 0.936 . S
C137 C136 1.383 1_655 S
C137 C138 1.361 . S
C137 C139 1.500 . S
C138 C133 1.390 . S
C138 C137 1.361 . S
C138 H156 0.931 . S
C139 C137 1.500 . S
C139 C140 1.371 . S
C139 C141 1.365 . S
C140 C139 1.371 . S
C140 C150 1.386 . S
C140 H158 0.931 . S
C141 C139 1.365 . S
C141 C142 1.409 . S
C141 H159 0.929 . S
C142 C141 1.409 . S
C142 C143 1.380 . S
C142 H160 0.930 . S
C143 C142 1.380 . S
C143 C150 1.357 . S
C144 C135 1.511 . S
C144 C145 1.341 . S
C144 C146 1.371 . S
C145 C144 1.341 . S
C145 C149 1.394 . S
C145 H161 0.930 . S
C146 C144 1.371 . S
C146 C147 1.392 . S
C146 H162 0.931 . S
C147 C146 1.392 . S
C147 C148 1.331 . S
C147 H165 0.932 . S
C148 C147 1.331 . S
C148 C149 1.336 . S
C149 C145 1.394 . S
C149 C148 1.336 . S
C149 H164 0.929 . S
C150 C140 1.386 . S
C150 C143 1.357 . S
C150 H163 0.928 . S
H151 C127 0.931 . S
H152 C129 0.930 . S
H153 C131 0.929 . S
H154 C132 0.931 . S
H155 C134 0.942 . S
H156 C138 0.931 . S
H157 C136 0.936 . S
H158 C140 0.931 . S
H159 C141 0.929 . S
H160 C142 0.930 . S
H161 C145 0.930 . S
H162 C146 0.931 . S
H163 C150 0.928 . S
H164 C149 0.929 . S
H165 C147 0.932 . S
C166 C167 1.386 . S
C166 C168 1.397 . S
C166 H190 0.931 . S
C167 C166 1.386 . S
C167 C171 1.397 . S
C168 C166 1.397 . S
C168 C169 1.384 . S
C168 H191 0.930 . S
C169 C168 1.384 . S
C169 C170 1.377 . S
C169 C172 1.481 . S
C170 C169 1.377 . S
C170 C171 1.389 . S
C170 H192 0.929 . S
C171 C167 1.397 . S
C171 C170 1.389 . S
C171 H193 0.931 . S
C172 C169 1.481 . S
C172 C173 1.387 . S
C172 C177 1.382 1_554 S
C173 C172 1.387 . S
C173 C174 1.401 1_554 S
C173 H194 0.930 . S
C174 C173 1.401 1_556 S
C174 C175 1.376 . S
C174 C183 1.511 . S
C175 C174 1.376 . S
C175 C176 1.392 . S
C175 H196 0.931 . S
C176 C175 1.392 . S
C176 C177 1.370 . S
C176 C178 1.500 . S
C177 C172 1.382 1_556 S
C177 C176 1.370 . S
C177 H195 0.931 . S
C178 C176 1.500 . S
C178 C179 1.371 . S
C178 C180 1.365 . S
C179 C178 1.371 . S
C179 C189 1.386 . S
C179 H197 0.931 . S
C180 C178 1.365 . S
C180 C181 1.409 . S
C180 H198 0.929 . S
C181 C180 1.409 . S
C181 C182 1.380 . S
C181 H199 0.930 . S
C182 C181 1.380 . S
C182 C189 1.357 . S
C183 C174 1.511 . S
C183 C184 1.341 1_556 S
C183 C185 1.371 . S
C184 C183 1.341 1_554 S
C184 C188 1.394 . S
C184 H200 0.930 . S
C185 C183 1.371 . S
C185 C186 1.392 . S
C185 H201 0.931 . S
C186 C185 1.392 . S
C186 C187 1.333 . S
C186 H204 0.932 . S
C187 C186 1.333 . S
C187 C188 1.333 1_556 S
C188 C184 1.394 . S
C188 C187 1.333 1_554 S
C188 H203 0.929 . S
C189 C179 1.386 . S
C189 C182 1.357 . S
C189 H202 0.928 . S
H190 C166 0.931 . S
H191 C168 0.930 . S
H192 C170 0.929 . S
H193 C171 0.931 . S
H194 C173 0.930 . S
H195 C177 0.931 . S
H196 C175 0.931 . S
H197 C179 0.931 . S
H198 C180 0.929 . S
H199 C181 0.930 . S
H200 C184 0.930 . S
H201 C185 0.931 . S
H202 C189 0.928 . S
H203 C188 0.929 . S
H204 C186 0.932 . S
C205 C206 1.386 . S
C205 C207 1.397 . S
C205 H229 0.931 . S
C206 C205 1.386 . S
C206 C210 1.397 . S
C207 C205 1.397 . S
C207 C208 1.384 . S
C207 H230 0.930 . S
C208 C207 1.384 . S
C208 C209 1.377 . S
C208 C211 1.481 . S
C209 C208 1.377 . S
C209 C210 1.389 . S
C209 H231 0.929 . S
C210 C206 1.397 . S
C210 C209 1.389 . S
C210 H232 0.931 . S
C211 C208 1.481 . S
C211 C212 1.387 1_455 S
C211 C216 1.390 . S
C212 C211 1.387 1_655 S
C212 C213 1.401 . S
C212 H233 0.930 . S
C213 C212 1.401 . S
C213 C214 1.389 . S
C213 C222 1.511 . S
C214 C213 1.389 . S
C214 C215 1.368 1_655 S
C214 H235 0.943 . S
C215 C214 1.368 1_455 S
C215 C216 1.361 . S
C215 C217 1.500 . S
C216 C211 1.390 . S
C216 C215 1.361 . S
C216 H234 0.931 . S
C217 C215 1.500 . S
C217 C218 1.371 . S
C217 C219 1.365 . S
C218 C217 1.371 . S
C218 C228 1.386 . S
C218 H236 0.931 . S
C219 C217 1.365 . S
C219 C220 1.409 . S
C219 H237 0.929 . S
C220 C219 1.409 . S
C220 C221 1.380 . S
C220 H238 0.930 . S
C221 C220 1.380 . S
C221 C228 1.357 . S
C222 C213 1.511 . S
C222 C223 1.341 . S
C222 C224 1.371 . S
C223 C222 1.341 . S
C223 C227 1.394 . S
C223 H239 0.930 . S
C224 C222 1.371 . S
C224 C225 1.392 . S
C224 H240 0.931 . S
C225 C224 1.392 . S
C225 C226 1.331 . S
C225 H243 0.932 . S
C226 C225 1.331 . S
C226 C227 1.336 . S
C227 C223 1.394 . S
C227 C226 1.336 . S
C227 H242 0.929 . S
C228 C218 1.386 . S
C228 C221 1.357 . S
C228 H241 0.928 . S
H229 C205 0.931 . S
H230 C207 0.930 . S
H231 C209 0.929 . S
H232 C210 0.931 . S
H233 C212 0.930 . S
H234 C216 0.931 . S
H235 C214 0.943 . S
H236 C218 0.931 . S
H237 C219 0.929 . S
H238 C220 0.930 . S
H239 C223 0.930 . S
H240 C224 0.931 . S
H241 C228 0.928 . S
H242 C227 0.929 . S
H243 C225 0.932 . S
C244 C245 1.386 . S
C244 C246 1.397 . S
C244 H268 0.931 . S
C245 C244 1.386 . S
C245 C249 1.397 . S
C246 C244 1.397 . S
C246 C247 1.384 . S
C246 H269 0.930 . S
C247 C246 1.384 . S
C247 C248 1.377 . S
C247 C250 1.481 . S
C248 C247 1.377 . S
C248 C249 1.389 . S
C248 H270 0.929 . S
C249 C245 1.397 . S
C249 C248 1.389 . S
C249 H271 0.931 . S
C250 C247 1.481 . S
C250 C251 1.363 1_565 S
C250 C255 1.390 . S
C251 C250 1.363 1_545 S
C251 C252 1.413 . S
C251 H272 0.942 . S
C252 C251 1.413 . S
C252 C253 1.381 . S
C252 C261 1.511 . S
C253 C252 1.381 . S
C253 C254 1.382 1_545 S
C253 H274 0.936 . S
C254 C253 1.382 1_565 S
C254 C255 1.361 . S
C254 C256 1.500 . S
C255 C250 1.390 . S
C255 C254 1.361 . S
C255 H273 0.931 . S
C256 C254 1.500 . S
C256 C257 1.371 . S
C256 C258 1.365 . S
C257 C256 1.371 . S
C257 C267 1.386 . S
C257 H275 0.931 . S
C258 C256 1.365 . S
C258 C259 1.409 . S
C258 H276 0.929 . S
C259 C258 1.409 . S
C259 C260 1.380 . S
C259 H277 0.930 . S
C260 C259 1.380 . S
C260 C267 1.357 . S
C261 C252 1.511 . S
C261 C262 1.341 . S
C261 C263 1.371 . S
C262 C261 1.341 . S
C262 C266 1.394 . S
C262 H278 0.930 . S
C263 C261 1.371 . S
C263 C264 1.392 . S
C263 H279 0.931 . S
C264 C263 1.392 . S
C264 C265 1.331 . S
C264 H282 0.932 . S
C265 C264 1.331 . S
C265 C266 1.336 . S
C266 C262 1.394 . S
C266 C265 1.336 . S
C266 H281 0.929 . S
C267 C257 1.386 . S
C267 C260 1.357 . S
C267 H280 0.928 . S
H268 C244 0.931 . S
H269 C246 0.930 . S
H270 C248 0.929 . S
H271 C249 0.931 . S
H272 C251 0.942 . S
H273 C255 0.931 . S
H274 C253 0.936 . S
H275 C257 0.931 . S
H276 C258 0.929 . S
H277 C259 0.930 . S
H278 C262 0.930 . S
H279 C263 0.931 . S
H280 C267 0.928 . S
H281 C266 0.929 . S
H282 C264 0.932 . S
C283 C284 1.386 . S
C283 C285 1.397 . S
C283 H307 0.931 . S
C284 C283 1.386 . S
C284 C288 1.397 . S
C285 C283 1.397 . S
C285 C286 1.384 . S
C285 H308 0.930 . S
C286 C285 1.384 . S
C286 C287 1.377 . S
C286 C289 1.481 . S
C287 C286 1.377 . S
C287 C288 1.389 . S
C287 H309 0.929 . S
C288 C284 1.397 . S
C288 C287 1.389 . S
C288 H310 0.931 . S
C289 C286 1.481 . S
C289 C290 1.387 . S
C289 C294 1.382 1_554 S
C290 C289 1.387 . S
C290 C291 1.401 1_554 S
C290 H311 0.930 . S
C291 C290 1.401 1_556 S
C291 C292 1.376 . S
C291 C300 1.511 . S
C292 C291 1.376 . S
C292 C293 1.392 . S
C292 H313 0.931 . S
C293 C292 1.392 . S
C293 C294 1.370 . S
C293 C295 1.500 . S
C294 C289 1.382 1_556 S
C294 C293 1.370 . S
C294 H312 0.931 . S
C295 C293 1.500 . S
C295 C296 1.371 . S
C295 C297 1.365 . S
C296 C295 1.371 . S
C296 C306 1.386 . S
C296 H314 0.931 . S
C297 C295 1.365 . S
C297 C298 1.409 . S
C297 H315 0.929 . S
C298 C297 1.409 . S
C298 C299 1.380 . S
C298 H316 0.930 . S
C299 C298 1.380 . S
C299 C306 1.357 . S
C300 C291 1.511 . S
C300 C301 1.341 1_556 S
C300 C302 1.371 . S
C301 C300 1.341 1_554 S
C301 C305 1.394 . S
C301 H317 0.930 . S
C302 C300 1.371 . S
C302 C303 1.392 . S
C302 H318 0.931 . S
C303 C302 1.392 . S
C303 C304 1.333 . S
C303 H321 0.932 . S
C304 C303 1.333 . S
C304 C305 1.334 1_556 S
C305 C301 1.394 . S
C305 C304 1.334 1_554 S
C305 H320 0.929 . S
C306 C296 1.386 . S
C306 C299 1.357 . S
C306 H319 0.928 . S
H307 C283 0.931 . S
H308 C285 0.930 . S
H309 C287 0.929 . S
H310 C288 0.931 . S
H311 C290 0.930 . S
H312 C294 0.931 . S
H313 C292 0.931 . S
H314 C296 0.931 . S
H315 C297 0.929 . S
H316 C298 0.930 . S
H317 C301 0.930 . S
H318 C302 0.931 . S
H319 C306 0.928 . S
H320 C305 0.929 . S
H321 C303 0.932 . S
C322 C323 1.386 . S
C322 C324 1.397 . S
C322 H346 0.931 . S
C323 C322 1.386 . S
C323 C327 1.397 . S
C324 C322 1.397 . S
C324 C325 1.384 . S
C324 H347 0.930 . S
C325 C324 1.384 . S
C325 C326 1.377 . S
C325 C328 1.481 . S
C326 C325 1.377 . S
C326 C327 1.389 . S
C326 H348 0.929 . S
C327 C323 1.397 . S
C327 C326 1.389 . S
C327 H349 0.931 . S
C328 C325 1.481 . S
C328 C329 1.387 1_545 S
C328 C333 1.390 . S
C329 C328 1.387 1_565 S
C329 C330 1.401 . S
C329 H350 0.930 . S
C330 C329 1.401 . S
C330 C331 1.389 . S
C330 C339 1.511 . S
C331 C330 1.389 . S
C331 C332 1.368 1_565 S
C331 H352 0.943 . S
C332 C331 1.368 1_545 S
C332 C333 1.361 . S
C332 C334 1.500 . S
C333 C328 1.390 . S
C333 C332 1.361 . S
C333 H351 0.931 . S
C334 C332 1.500 . S
C334 C335 1.371 . S
C334 C336 1.365 . S
C335 C334 1.371 . S
C335 C345 1.386 . S
C335 H353 0.931 . S
C336 C334 1.365 . S
C336 C337 1.409 . S
C336 H354 0.929 . S
C337 C336 1.409 . S
C337 C338 1.380 . S
C337 H355 0.930 . S
C338 C337 1.380 . S
C338 C345 1.357 . S
C339 C330 1.511 . S
C339 C340 1.341 . S
C339 C341 1.371 . S
C340 C339 1.341 . S
C340 C344 1.394 . S
C340 H356 0.930 . S
C341 C339 1.371 . S
C341 C342 1.392 . S
C341 H357 0.931 . S
C342 C341 1.392 . S
C342 C343 1.331 . S
C342 H360 0.932 . S
C343 C342 1.331 . S
C343 C344 1.336 . S
C344 C340 1.394 . S
C344 C343 1.336 . S
C344 H359 0.929 . S
C345 C335 1.386 . S
C345 C338 1.357 . S
C345 H358 0.928 . S
H346 C322 0.931 . S
H347 C324 0.930 . S
H348 C326 0.929 . S
H349 C327 0.931 . S
H350 C329 0.930 . S
H351 C333 0.931 . S
H352 C331 0.943 . S
H353 C335 0.931 . S
H354 C336 0.929 . S
H355 C337 0.930 . S
H356 C340 0.930 . S
H357 C341 0.931 . S
H358 C345 0.928 . S
H359 C344 0.929 . S
H360 C342 0.932 . S
C361 C362 1.386 . S
C361 C363 1.397 . S
C361 H385 0.931 . S
C362 C361 1.386 . S
C362 C366 1.397 . S
C363 C361 1.397 . S
C363 C364 1.384 . S
C363 H386 0.930 . S
C364 C363 1.384 . S
C364 C365 1.377 . S
C364 C367 1.481 . S
C365 C364 1.377 . S
C365 C366 1.389 . S
C365 H387 0.929 . S
C366 C362 1.397 . S
C366 C365 1.389 . S
C366 H388 0.931 . S
C367 C364 1.481 . S
C367 C368 1.387 . S
C367 C372 1.390 1_556 S
C368 C367 1.387 . S
C368 C369 1.401 1_556 S
C368 H389 0.930 . S
C369 C368 1.401 1_554 S
C369 C370 1.376 . S
C369 C378 1.511 . S
C370 C369 1.376 . S
C370 C371 1.392 . S
C370 H391 0.931 . S
C371 C370 1.392 . S
C371 C372 1.361 . S
C371 C373 1.500 . S
C372 C367 1.390 1_554 S
C372 C371 1.361 . S
C372 H390 0.931 . S
C373 C371 1.500 . S
C373 C374 1.371 . S
C373 C375 1.365 . S
C374 C373 1.371 . S
C374 C384 1.386 . S
C374 H392 0.931 . S
C375 C373 1.365 . S
C375 C376 1.409 . S
C375 H393 0.929 . S
C376 C375 1.409 . S
C376 C377 1.380 . S
C376 H394 0.930 . S
C377 C376 1.380 . S
C377 C384 1.357 . S
C378 C369 1.511 . S
C378 C379 1.341 1_554 S
C378 C380 1.371 . S
C379 C378 1.341 1_556 S
C379 C383 1.394 . S
C379 H395 0.930 . S
C380 C378 1.371 . S
C380 C381 1.392 . S
C380 H396 0.931 . S
C381 C380 1.392 . S
C381 C382 1.331 . S
C381 H399 0.932 . S
C382 C381 1.331 . S
C382 C383 1.336 1_554 S
C383 C379 1.394 . S
C383 C382 1.336 1_556 S
C383 H398 0.929 . S
C384 C374 1.386 . S
C384 C377 1.357 . S
C384 H397 0.928 . S
H385 C361 0.931 . S
H386 C363 0.930 . S
H387 C365 0.929 . S
H388 C366 0.931 . S
H389 C368 0.930 . S
H390 C372 0.931 . S
H391 C370 0.931 . S
H392 C374 0.931 . S
H393 C375 0.929 . S
H394 C376 0.930 . S
H395 C379 0.930 . S
H396 C380 0.931 . S
H397 C384 0.928 . S
H398 C383 0.929 . S
H399 C381 0.932 . S
C5 C221 1.908 . S
C31 C89 1.922 . S
C128 C53 1.918 . S
C71 C182 1.904 . S
C284 C75 1.923 . S
C338 C9 1.910 . S
C377 C27 1.904 . S
C245 C49 1.919 . S
C51 C143 1.899 . S
C72 C167 1.905 . S
C6 C206 1.901 . S
C104 C29 1.895 . S
C28 C362 1.906 . S
C260 C50 1.899 . S
C299 C73 1.895 . S
C7 C323 1.903 . S
C109 C4 1.793 . S
C148 C30 1.794 . S
C52 C187 1.755 1_554 S
C70 C226 1.756 . S
C265 C74 1.795 . S
C8 C304 1.794 1_554 S
C26 C343 1.756 . S
C48 C382 1.755 . S
