# Generated by pormake.
# Topology pyr, (3,6)-cn, num edge types: 1
# Building blocks:
#     Node 0, Type 0, BuildingBlock: BELTOD_clean_linker_0, # of connection points: 3
#     Node 1, Type 0, BuildingBlock: BELTOD_clean_linker_0, # of connection points: 3
#     Node 2, Type 0, BuildingBlock: BELTOD_clean_linker_0, # of connection points: 3
#     Node 3, Type 0, BuildingBlock: BELTOD_clean_linker_0, # of connection points: 3
#     Node 4, Type 0, BuildingBlock: BELTOD_clean_linker_0, # of connection points: 3
#     Node 5, Type 0, BuildingBlock: BELTOD_clean_linker_0, # of connection points: 3
#     Node 6, Type 0, BuildingBlock: BELTOD_clean_linker_0, # of connection points: 3
#     Node 7, Type 0, BuildingBlock: BELTOD_clean_linker_0, # of connection points: 3
#     Node 8, Type 1, BuildingBlock: PAMTOO_clean_sbu_0, # of connection points: 6
#     Node 9, Type 1, BuildingBlock: PAMTOO_clean_sbu_0, # of connection points: 6
#     Node 10, Type 1, BuildingBlock: PAMTOO_clean_sbu_0, # of connection points: 6
#     Node 11, Type 1, BuildingBlock: PAMTOO_clean_sbu_0, # of connection points: 6
#     Edge 12, Type (0, 1), BuildingBlock: OJICUG_clean_linker_0, # of connection points: 2
#     Edge 13, Type (0, 1), BuildingBlock: OJICUG_clean_linker_0, # of connection points: 2
#     Edge 14, Type (0, 1), BuildingBlock: OJICUG_clean_linker_0, # of connection points: 2
#     Edge 15, Type (0, 1), BuildingBlock: OJICUG_clean_linker_0, # of connection points: 2
#     Edge 16, Type (0, 1), BuildingBlock: OJICUG_clean_linker_0, # of connection points: 2
#     Edge 17, Type (0, 1), BuildingBlock: OJICUG_clean_linker_0, # of connection points: 2
#     Edge 18, Type (0, 1), BuildingBlock: OJICUG_clean_linker_0, # of connection points: 2
#     Edge 19, Type (0, 1), BuildingBlock: OJICUG_clean_linker_0, # of connection points: 2
#     Edge 20, Type (0, 1), BuildingBlock: OJICUG_clean_linker_0, # of connection points: 2
#     Edge 21, Type (0, 1), BuildingBlock: OJICUG_clean_linker_0, # of connection points: 2
#     Edge 22, Type (0, 1), BuildingBlock: OJICUG_clean_linker_0, # of connection points: 2
#     Edge 23, Type (0, 1), BuildingBlock: OJICUG_clean_linker_0, # of connection points: 2
#     Edge 24, Type (0, 1), BuildingBlock: OJICUG_clean_linker_0, # of connection points: 2
#     Edge 25, Type (0, 1), BuildingBlock: OJICUG_clean_linker_0, # of connection points: 2
#     Edge 26, Type (0, 1), BuildingBlock: OJICUG_clean_linker_0, # of connection points: 2
#     Edge 27, Type (0, 1), BuildingBlock: OJICUG_clean_linker_0, # of connection points: 2
#     Edge 28, Type (0, 1), BuildingBlock: OJICUG_clean_linker_0, # of connection points: 2
#     Edge 29, Type (0, 1), BuildingBlock: OJICUG_clean_linker_0, # of connection points: 2
#     Edge 30, Type (0, 1), BuildingBlock: OJICUG_clean_linker_0, # of connection points: 2
#     Edge 31, Type (0, 1), BuildingBlock: OJICUG_clean_linker_0, # of connection points: 2
#     Edge 32, Type (0, 1), BuildingBlock: OJICUG_clean_linker_0, # of connection points: 2
#     Edge 33, Type (0, 1), BuildingBlock: OJICUG_clean_linker_0, # of connection points: 2
#     Edge 34, Type (0, 1), BuildingBlock: OJICUG_clean_linker_0, # of connection points: 2
#     Edge 35, Type (0, 1), BuildingBlock: OJICUG_clean_linker_0, # of connection points: 2
# Relax obj value: 0.149
# Max RMSD: 0.180
# Mean RMSD: 0.076
data_MOF--net-pyr--node1-PAMTOO_clean_sbu_0--node2-BELTOD_clean_linker_0--edge1-OJICUG_clean_linker_0
_symmetry_space_group_name_H-M    P1
_symmetry_Int_Tables_number       1
_symmetry_cell_setting            triclinic
loop_
_symmetry_equiv_pos_as_xyz
'x, y, z'
_cell_length_a     32.279875
_cell_length_b     34.368777
_cell_length_c     33.194475
_cell_angle_alpha  90.254568
_cell_angle_beta   90.070367
_cell_angle_gamma 104.67845
loop_
_atom_site_label
_atom_site_type_symbol
_atom_site_fract_x
_atom_site_fract_y
_atom_site_fract_z
_atom_type_partial_charge
P0 P 0.40605 0.34489 0.27006 0.0
H1 H 0.47976 0.3348 0.22258 0.0
H2 H 0.4977 0.27494 0.19417 0.0
H3 H 0.38243 0.19983 0.24596 0.0
H4 H 0.36475 0.25925 0.27404 0.0
H5 H 0.37386 0.41668 0.26548 0.0
H6 H 0.30944 0.42888 0.23463 0.0
H7 H 0.28387 0.3125 0.17645 0.0
H8 H 0.34764 0.30038 0.2075 0.0
H9 H 0.44357 0.32374 0.34417 0.0
H10 H 0.31926 0.33264 0.3035 0.0
O11 O 0.44885 0.3839 0.27396 0.0
H12 H 0.41047 0.2876 0.40418 0.0
H13 H 0.28645 0.29659 0.36208 0.0
C14 C 0.42109 0.30142 0.25057 0.0
C15 C 0.45866 0.30539 0.2281 0.0
C16 C 0.46896 0.27123 0.21211 0.0
C17 C 0.44142 0.23281 0.21792 0.0
C18 C 0.40411 0.22907 0.24084 0.0
C19 C 0.3941 0.26303 0.25704 0.0
C20 C 0.36589 0.3578 0.23868 0.0
C21 C 0.35504 0.39432 0.24514 0.0
C22 C 0.3181 0.40118 0.22759 0.0
C23 C 0.29124 0.37143 0.20346 0.0
C24 C 0.30345 0.33571 0.19547 0.0
C25 C 0.34032 0.32892 0.21299 0.0
C26 C 0.38406 0.33095 0.31927 0.0
C27 C 0.40947 0.31921 0.34879 0.0
C28 C 0.39048 0.2983 0.38288 0.0
C29 C 0.34575 0.28886 0.3878 0.0
C30 C 0.32101 0.30373 0.35972 0.0
C31 C 0.33993 0.3244 0.32576 0.0
P32 P 0.1881 0.82637 0.73268 0.0
H33 H 0.2559 0.82096 0.78672 0.0
H34 H 0.26179 0.82284 0.85932 0.0
H35 H 0.12535 0.8108 0.86881 0.0
H36 H 0.12019 0.80997 0.7952 0.0
H37 H 0.23202 0.82729 0.65615 0.0
H38 H 0.2753 0.78412 0.63011 0.0
H39 H 0.22644 0.69767 0.72368 0.0
H40 H 0.18373 0.74151 0.74997 0.0
H41 H 0.14652 0.88772 0.75633 0.0
H42 H 0.12385 0.78994 0.67073 0.0
O43 O 0.22609 0.8689 0.72593 0.0
H44 H 0.0924 0.91457 0.7238 0.0
H45 H 0.06781 0.81562 0.63867 0.0
C46 C 0.18799 0.81662 0.78575 0.0
C47 C 0.22707 0.81778 0.80444 0.0
C48 C 0.23019 0.81831 0.84623 0.0
C49 C 0.19407 0.81758 0.87028 0.0
C50 C 0.15396 0.81229 0.85126 0.0
C51 C 0.15095 0.81188 0.80916 0.0
C52 C 0.20555 0.78803 0.7055 0.0
C53 C 0.22959 0.79846 0.67029 0.0
C54 C 0.25433 0.77365 0.65539 0.0
C55 C 0.25516 0.73788 0.67544 0.0
C56 C 0.22734 0.72554 0.7082 0.0
C57 C 0.20262 0.75043 0.72307 0.0
C58 C 0.13943 0.83719 0.71561 0.0
C59 C 0.12862 0.8712 0.73132 0.0
C60 C 0.09728 0.88638 0.71278 0.0
C61 C 0.07604 0.86771 0.67808 0.0
C62 C 0.08423 0.83131 0.66477 0.0
C63 C 0.11606 0.81638 0.68319 0.0
P64 P 0.6663 0.33873 0.8456 0.0
H65 H 0.74712 0.39766 0.83045 0.0
H66 H 0.80447 0.43431 0.87461 0.0
H67 H 0.72767 0.38832 0.97868 0.0
H68 H 0.67025 0.35169 0.93417 0.0
H69 H 0.57425 0.31072 0.87005 0.0
H70 H 0.53664 0.25479 0.91358 0.0
H71 H 0.65476 0.21939 0.92926 0.0
H72 H 0.69155 0.27449 0.88619 0.0
H73 H 0.60365 0.31083 0.78152 0.0
H74 H 0.66616 0.42449 0.83615 0.0
O75 O 0.69563 0.31895 0.81395 0.0
H76 H 0.57547 0.34596 0.72816 0.0
H77 H 0.63853 0.45989 0.78275 0.0
C78 C 0.70447 0.3716 0.87882 0.0
C79 C 0.74227 0.39598 0.86275 0.0
C80 C 0.7751 0.41699 0.88815 0.0
C81 C 0.77093 0.41406 0.93035 0.0
C82 C 0.73226 0.39077 0.94639 0.0
C83 C 0.69924 0.36998 0.92086 0.0
C84 C 0.63567 0.29659 0.8746 0.0
C85 C 0.59178 0.29058 0.88255 0.0
C86 C 0.57036 0.2586 0.90737 0.0
C87 C 0.59277 0.23274 0.92516 0.0
C88 C 0.63658 0.2389 0.91655 0.0
C89 C 0.65762 0.27031 0.89162 0.0
C90 C 0.63666 0.3648 0.8133 0.0
C91 C 0.61049 0.34334 0.78262 0.0
C92 C 0.5949 0.36358 0.7517 0.0
C93 C 0.60508 0.40594 0.75063 0.0
C94 C 0.62974 0.42732 0.78252 0.0
C95 C 0.64555 0.407 0.81331 0.0
P96 P 0.8312 0.70409 0.33064 0.0
H97 H 0.80242 0.77286 0.35751 0.0
H98 H 0.83731 0.83613 0.39045 0.0
H99 H 0.95764 0.8028 0.38865 0.0
H100 H 0.92211 0.739 0.35493 0.0
H101 H 0.89407 0.73216 0.26744 0.0
H102 H 0.92714 0.697 0.21757 0.0
H103 H 0.87027 0.58413 0.27604 0.0
H104 H 0.83796 0.61965 0.32619 0.0
H105 H 0.83022 0.70421 0.42016 0.0
H106 H 0.75701 0.63565 0.32324 0.0
O107 O 0.79747 0.71585 0.29748 0.0
H108 H 0.77792 0.66756 0.46894 0.0
H109 H 0.70465 0.59921 0.3715 0.0
C110 C 0.85969 0.75138 0.35328 0.0
C111 C 0.83642 0.77922 0.36379 0.0
C112 C 0.85641 0.81537 0.38295 0.0
C113 C 0.90032 0.82462 0.39242 0.0
C114 C 0.92388 0.79681 0.38145 0.0
C115 C 0.90361 0.76029 0.36231 0.0
C116 C 0.86388 0.67879 0.30099 0.0
C117 C 0.88963 0.69997 0.27019 0.0
C118 C 0.90805 0.67967 0.24126 0.0
C119 C 0.90102 0.63752 0.24228 0.0
C120 C 0.87668 0.61656 0.2743 0.0
C121 C 0.85813 0.63695 0.30317 0.0
C122 C 0.79758 0.67273 0.36788 0.0
C123 C 0.80323 0.68095 0.40932 0.0
C124 C 0.77306 0.66015 0.43725 0.0
C125 C 0.73683 0.63044 0.42431 0.0
C126 C 0.73231 0.62143 0.38282 0.0
C127 C 0.76227 0.64234 0.35504 0.0
P128 P 0.67141 0.81892 0.91089 0.0
H129 H 0.63766 0.79838 0.99117 0.0
H130 H 0.58336 0.82385 1.0258 0.0
H131 H 0.53647 0.85419 0.91141 0.0
H132 H 0.58983 0.8276 0.8768 0.0
H133 H 0.74144 0.80575 0.86356 0.0
H134 H 0.78508 0.7586 0.86924 0.0
H135 H 0.69923 0.69279 0.95956 0.0
H136 H 0.65495 0.74095 0.95356 0.0
H137 H 0.69455 0.9033 0.88834 0.0
H138 H 0.6551 0.78837 0.82799 0.0
O139 O 0.70398 0.85083 0.94214 0.0
H140 H 0.71514 0.93621 0.82382 0.0
H141 H 0.67615 0.82138 0.763 0.0
C142 C 0.61865 0.81213 0.93151 0.0
C143 C 0.61396 0.80798 0.97333 0.0
C144 C 0.58308 0.82291 0.99316 0.0
C145 C 0.55682 0.84225 0.97126 0.0
C146 C 0.55659 0.8398 0.92904 0.0
C147 C 0.58741 0.82469 0.90921 0.0
C148 C 0.69416 0.77642 0.90737 0.0
C149 C 0.73061 0.78022 0.8833 0.0
C150 C 0.75584 0.75309 0.88667 0.0
C151 C 0.74573 0.72177 0.91482 0.0
C152 C 0.708 0.71676 0.93771 0.0
C153 C 0.68246 0.74406 0.93411 0.0
C154 C 0.6751 0.84333 0.86286 0.0
C155 C 0.68959 0.88525 0.86111 0.0
C156 C 0.70114 0.90404 0.82429 0.0
C157 C 0.69801 0.88109 0.78881 0.0
C158 C 0.67893 0.83959 0.79007 0.0
C159 C 0.66726 0.82076 0.82709 0.0
P160 P 0.91829 0.34261 0.35239 0.0
H161 H 0.89287 0.41513 0.37898 0.0
H162 H 0.82474 0.42495 0.404 0.0
H163 H 0.77013 0.29652 0.3999 0.0
H164 H 0.83795 0.28698 0.37476 0.0
H165 H 0.99375 0.31238 0.33905 0.0
H166 H 0.01664 0.25643 0.36959 0.0
H167 H 0.92042 0.24757 0.46176 0.0
H168 H 0.89797 0.30323 0.43151 0.0
H169 H 0.88354 0.36923 0.27946 0.0
H170 H 0.90687 0.25905 0.32458 0.0
O171 O 0.95332 0.38639 0.34298 0.0
H172 H 0.84226 0.33153 0.22326 0.0
H173 H 0.86738 0.22219 0.26867 0.0
C174 C 0.87059 0.3503 0.37561 0.0
C175 C 0.86642 0.3891 0.38401 0.0
C176 C 0.82744 0.39468 0.39802 0.0
C177 C 0.79219 0.36147 0.40397 0.0
C178 C 0.79686 0.32262 0.39615 0.0
C179 C 0.83558 0.31715 0.38177 0.0
C180 C 0.94339 0.31127 0.38228 0.0
C181 C 0.97846 0.29912 0.36652 0.0
C182 C 0.9914 0.26707 0.38388 0.0
C183 C 0.96946 0.24696 0.41737 0.0
C184 C 0.93703 0.26177 0.43522 0.0
C185 C 0.9242 0.29374 0.4179 0.0
C186 C 0.89927 0.31732 0.30582 0.0
C187 C 0.88135 0.33738 0.27644 0.0
C188 C 0.85762 0.31585 0.24455 0.0
C189 C 0.85197 0.27403 0.24149 0.0
C190 C 0.872 0.25452 0.26972 0.0
C191 C 0.8949 0.27583 0.30185 0.0
P192 P 0.37891 0.67202 0.22749 0.0
H193 H 0.35001 0.67375 0.14507 0.0
H194 H 0.28121 0.6473 0.11114 0.0
H195 H 0.22382 0.60256 0.22468 0.0
H196 H 0.29253 0.6304 0.25884 0.0
H197 H 0.46009 0.73055 0.21097 0.0
H198 H 0.47798 0.80163 0.19384 0.0
H199 H 0.34762 0.8054 0.21881 0.0
H200 H 0.32974 0.7335 0.23472 0.0
H201 H 0.34895 0.5917 0.26244 0.0
H202 H 0.42602 0.7074 0.30059 0.0
O203 O 0.41307 0.65552 0.19839 0.0
H204 H 0.36478 0.56197 0.32519 0.0
H205 H 0.44448 0.67756 0.36249 0.0
C206 C 0.32681 0.65316 0.20432 0.0
C207 C 0.32262 0.65833 0.16274 0.0
C208 C 0.28326 0.64334 0.14338 0.0
C209 C 0.24725 0.62248 0.16517 0.0
C210 C 0.25124 0.61796 0.20703 0.0
C211 C 0.29056 0.63373 0.22656 0.0
C212 C 0.39346 0.72646 0.2237 0.0
C213 C 0.43544 0.74673 0.21334 0.0
C214 C 0.44569 0.78769 0.20369 0.0
C215 C 0.41423 0.80963 0.20449 0.0
C216 C 0.37258 0.78954 0.217 0.0
C217 C 0.36235 0.74841 0.22656 0.0
C218 C 0.38475 0.65224 0.27727 0.0
C219 C 0.36851 0.61102 0.28479 0.0
C220 C 0.37846 0.59378 0.32058 0.0
C221 C 0.4062 0.61704 0.34945 0.0
C222 C 0.4223 0.65853 0.34177 0.0
C223 C 0.41175 0.67583 0.30614 0.0
P224 P 0.17903 0.34386 0.7709 0.0
H225 H 0.17576 0.25812 0.77203 0.0
H226 H 0.14271 0.20213 0.72794 0.0
H227 H 0.08286 0.27995 0.65984 0.0
H228 H 0.11598 0.33627 0.7049 0.0
H229 H 0.26131 0.33174 0.74779 0.0
H230 H 0.31657 0.36554 0.70096 0.0
H231 H 0.24145 0.44905 0.67073 0.0
H232 H 0.18592 0.41487 0.71849 0.0
H233 H 0.09022 0.32888 0.79993 0.0
H234 H 0.20495 0.42565 0.80308 0.0
O235 O 0.2041 0.32572 0.80759 0.0
H236 H 0.05651 0.36506 0.84842 0.0
H237 H 0.1721 0.46162 0.85209 0.0
C238 C 0.1478 0.30141 0.74232 0.0
C239 C 0.15488 0.26318 0.74818 0.0
C240 C 0.13634 0.23111 0.72249 0.0
C241 C 0.11037 0.23642 0.68997 0.0
C242 C 0.10238 0.2746 0.68473 0.0
C243 C 0.12117 0.30685 0.71053 0.0
C244 C 0.22 0.37138 0.7374 0.0
C245 C 0.25681 0.35758 0.73146 0.0
C246 C 0.28824 0.37671 0.70425 0.0
C247 C 0.28345 0.40997 0.68188 0.0
C248 C 0.24633 0.42377 0.68776 0.0
C249 C 0.21461 0.40432 0.71503 0.0
C250 C 0.14973 0.37497 0.79684 0.0
C251 C 0.10774 0.35847 0.81009 0.0
C252 C 0.08874 0.37901 0.83843 0.0
C253 C 0.11159 0.41632 0.85469 0.0
C254 C 0.15312 0.43337 0.84004 0.0
C255 C 0.17199 0.41282 0.81171 0.0
Dy256 Dy 0.05516 0.0427 0.51024 0.0
Dy257 Dy 0.95991 0.03616 0.54763 0.0
C258 C 0.04092 0.10195 0.5809 0.0
O259 O 0.03862 0.98579 0.54462 0.0
O260 O 0.99047 1.00013 0.58949 0.0
O261 O 0.12029 0.03927 0.51902 0.0
O262 O 0.09884 0.05291 0.45992 0.0
O263 O 0.95379 0.97858 0.51437 0.0
O264 O 0.00932 0.9988 0.46987 0.0
O265 O 0.96497 0.07067 0.49033 0.0
O266 O 0.03698 0.09809 0.49073 0.0
O267 O 0.89136 1.02143 0.53846 0.0
O268 O 0.9191 0.04789 0.59486 0.0
C269 C 0.0169 0.97857 0.57827 0.0
O270 O 0.06535 0.07932 0.56751 0.0
O271 O 1.00066 0.09491 0.56986 0.0
C272 C 0.16915 0.0853 0.47889 0.0
C273 C 0.23751 0.15353 0.46632 0.0
C274 C 0.20735 0.15354 0.49689 0.0
C275 C 0.17331 0.11975 0.50299 0.0
C276 C 0.19989 0.08453 0.44947 0.0
C277 C 0.23375 0.11833 0.44317 0.0
C278 C 0.13151 0.05112 0.48242 0.0
C279 C 0.97363 0.97298 0.48118 0.0
C280 C 0.99833 0.09943 0.48006 0.0
C281 C 0.85205 1.00196 0.59769 0.0
C282 C 0.79485 0.95259 0.65077 0.0
C283 C 0.78216 0.98264 0.62914 0.0
C284 C 0.8108 1.00739 0.60281 0.0
C285 C 0.86364 0.97008 0.61698 0.0
C286 C 0.83524 0.94563 0.6435 0.0
C287 C 0.88397 0.03153 0.57513 0.0
H288 H 0.20948 0.17996 0.51547 0.0
H289 H 0.14968 0.12087 0.52584 0.0
H290 H 0.19693 0.05824 0.43047 0.0
H291 H 0.25579 0.11744 0.41882 0.0
H292 H 0.75128 0.98866 0.63457 0.0
H293 H 0.80148 0.03186 0.58791 0.0
H294 H 0.89535 0.96539 0.61302 0.0
H295 H 0.84552 0.92245 0.6598 0.0
Dy296 Dy 0.44054 1.02858 0.06491 0.0
Dy297 Dy 0.53781 0.04478 0.10414 0.0
C298 C 0.46152 0.96977 0.13399 0.0
O299 O 0.44924 0.08369 0.10266 0.0
O300 O 0.50545 0.08033 0.14408 0.0
O301 O 0.37342 1.02499 0.07307 0.0
O302 O 0.39867 1.01958 1.01321 0.0
O303 O 0.53824 0.09967 0.06849 0.0
O304 O 0.48516 0.07166 1.02341 0.0
O305 O 0.53447 1.00827 1.04803 0.0
O306 O 0.46355 0.97554 1.04564 0.0
O307 O 0.60496 0.05424 0.09142 0.0
O308 O 0.58282 0.04935 0.15331 0.0
C309 C 0.47336 0.09555 0.13447 0.0
O310 O 0.43264 0.9854 0.1168 0.0
O311 O 0.50285 0.98542 0.12948 0.0
C312 C 0.3282 0.98309 1.02612 0.0
C313 C 0.26384 0.91635 0.99945 0.0
C314 C 0.2937 0.91164 1.02883 0.0
C315 C 0.32585 0.94478 1.0419 0.0
C316 C 0.29712 0.98837 0.99887 0.0
C317 C 0.2653 0.95539 0.98558 0.0
C318 C 0.36452 1.01725 1.03506 0.0
C319 C 0.51867 0.1007 1.03399 0.0
C320 C 0.50362 0.9769 1.03795 0.0
C321 C 0.65114 0.09155 0.14012 0.0
C322 C 0.72004 0.15695 0.1607 0.0
C323 C 0.68375 0.16343 0.14101 0.0
C324 C 0.64949 0.13092 0.1308 0.0
C325 C 0.68722 0.08492 0.15943 0.0
C326 C 0.72136 0.1173 0.16972 0.0
C327 C 0.61588 0.05705 0.12934 0.0
H328 H 0.29333 0.88217 1.04047 0.0
H329 H 0.34975 0.94031 0.06311 0.0
H330 H 0.29865 1.01778 0.98637 0.0
H331 H 0.24369 0.9604 0.96235 0.0
H332 H 0.68185 0.19356 0.13349 0.0
H333 H 0.62176 0.13644 0.11571 0.0
H334 H 0.68887 0.05466 0.16681 0.0
H335 H 0.74835 0.11128 0.18565 0.0
Dy336 Dy 0.5074 0.47678 0.52632 0.0
Dy337 Dy 0.51153 0.55947 0.57855 0.0
C338 C 0.54891 0.48798 0.61455 0.0
O339 O 0.45217 0.46095 0.56865 0.0
O340 O 0.44298 0.52395 0.58036 0.0
O341 O 0.50154 0.41276 0.52369 0.0
O342 O 0.50991 0.44761 0.46887 0.0
O343 O 0.4905 0.57152 0.5166 0.0
O344 O 0.46391 0.50721 0.49278 0.0
O345 O 0.57878 0.56868 0.55531 0.0
O346 O 0.5645 0.52224 0.50379 0.0
O347 O 0.52237 0.62407 0.58302 0.0
O348 O 0.50147 0.58691 0.63513 0.0
C349 C 0.42933 0.48463 0.58261 0.0
O350 O 0.55248 0.47541 0.57755 0.0
O351 O 0.52927 0.51638 0.62196 0.0
C352 C 0.54865 0.39854 0.47419 0.0
C353 C 0.62623 0.38145 0.45098 0.0
C354 C 0.61643 0.38424 0.49193 0.0
C355 C 0.57814 0.39293 0.50345 0.0
C356 C 0.5576 0.39404 0.43332 0.0
C357 C 0.59613 0.38576 0.42179 0.0
C358 C 0.51137 0.41373 0.48553 0.0
C359 C 0.46828 0.54625 0.48998 0.0
C360 C 0.58995 0.55329 0.52183 0.0
C361 C 0.4707 0.64072 0.625 0.0
C362 C 0.39841 0.67058 0.63971 0.0
C363 C 0.39828 0.64348 0.60783 0.0
C364 C 0.43406 0.62859 0.60062 0.0
C365 C 0.47134 0.66818 0.65639 0.0
C366 C 0.43551 0.68305 0.66368 0.0
C367 C 0.50678 0.62244 0.61935 0.0
H368 H 0.63918 0.38138 0.51505 0.0
H369 H 0.57245 0.39665 0.53521 0.0
H370 H 0.53544 0.39838 0.41024 0.0
H371 H 0.6027 0.38331 0.39001 0.0
H372 H 0.37012 0.63296 0.5891 0.0
H373 H 0.43286 0.60701 0.57647 0.0
H374 H 0.49928 0.67766 0.6756 0.0
H375 H 0.43684 0.70433 0.68811 0.0
Dy376 Dy 0.00893 0.56234 1.02512 0.0
Dy377 Dy 1.00227 0.48114 0.07869 0.0
C378 C 0.96598 0.5538 0.11247 0.0
O379 O 0.06469 0.5793 0.06731 0.0
O380 O 0.07105 0.51575 0.0808 0.0
O381 O 0.01397 0.62606 1.02058 0.0
O382 O 0.00669 0.58926 0.96674 0.0
O383 O 0.01881 0.46703 1.01562 0.0
O384 O 0.05219 0.53014 0.99372 0.0
O385 O 0.93484 0.47308 0.05638 0.0
O386 O 0.95171 0.51627 1.00286 0.0
O387 O 0.99613 0.4171 0.08293 0.0
O388 O 0.00768 0.45408 0.13649 0.0
C389 C 0.08612 0.55498 0.08241 0.0
O390 O 0.96308 0.56512 0.07507 0.0
O391 O 0.98563 0.5258 0.1212 0.0
C392 C 0.96526 0.63568 0.97164 0.0
C393 C 0.88909 0.65635 0.95075 0.0
C394 C 0.88876 0.62709 0.98017 0.0
C395 C 0.92645 0.61673 0.99036 0.0
C396 C 0.96584 0.66466 0.94201 0.0
C397 C 0.92793 0.67492 0.93155 0.0
C398 C 0.00419 0.62344 0.98234 0.0
C399 C 0.04392 0.49082 0.9899 0.0
C400 C 0.92459 0.48741 1.02206 0.0
C401 C 0.04754 0.40662 0.12916 0.0
C402 C 0.12657 0.39177 0.15103 0.0
C403 C 0.12302 0.41324 0.11583 0.0
C404 C 0.08393 0.42059 0.10502 0.0
C405 C 0.05053 0.38431 0.16377 0.0
C406 C 0.08973 0.37674 0.17455 0.0
C407 C 0.00846 0.41965 0.12047 0.0
H408 H 0.85927 0.61199 0.99509 0.0
H409 H 0.92528 0.59373 1.01284 0.0
H410 H 0.99546 0.67928 0.92705 0.0
H411 H 0.92911 0.69785 0.90901 0.0
H412 H 0.15061 0.42474 0.09679 0.0
H413 H 0.08241 0.43818 0.0783 0.0
H414 H 0.02294 0.37381 0.18306 0.0
H415 H 0.09154 0.3604 0.20204 0.0
C416 C 0.33711 0.22272 0.4223 0.0
C417 C 0.32385 0.25837 0.41751 0.0
H418 H 0.32065 0.16177 0.44259 0.0
C419 C 0.28539 0.26128 0.4356 0.0
H420 H 0.36647 0.21931 0.4087 0.0
C421 C 0.25858 0.2279 0.45415 0.0
C422 C 0.26992 0.19102 0.45539 0.0
H423 H 0.27466 0.28859 0.43308 0.0
H424 H 0.22763 0.23032 0.46478 0.0
C425 C 0.31049 0.18945 0.4412 0.0
C426 C 0.17973 0.85892 0.92833 0.0
C427 C 0.20061 0.83067 0.91313 0.0
H428 H 0.18238 0.90729 0.96967 0.0
C429 C 0.23479 0.82306 0.93542 0.0
H430 H 0.15285 0.86532 0.91258 0.0
C431 C 0.25286 0.84841 0.96725 0.0
C432 C 0.23622 0.88106 0.97803 0.0
H433 H 0.25051 0.80034 0.92558 0.0
H434 H 0.28248 0.84486 0.98019 0.0
C435 C 0.19714 0.88357 0.96084 0.0
C436 C 0.57724 0.46269 0.72157 0.0
C437 C 0.59145 0.42758 0.71569 0.0
H438 H 0.55283 0.5091 0.6948 0.0
C439 C 0.59293 0.41344 0.67591 0.0
H440 H 0.57536 0.47444 0.75165 0.0
C441 C 0.58021 0.43349 0.64315 0.0
C442 C 0.56532 0.46821 0.64911 0.0
H443 H 0.60432 0.38694 0.66996 0.0
H444 H 0.58151 0.42136 0.61315 0.0
C445 C 0.5642 0.48258 0.68884 0.0
C446 C 0.93408 0.58234 0.21727 0.0
C447 C 0.91731 0.61553 0.20911 0.0
H448 H 0.96254 0.53699 0.19362 0.0
C449 C 0.91569 0.62738 0.16867 0.0
H450 H 0.93612 0.57242 0.24796 0.0
C451 C 0.93071 0.60698 0.13745 0.0
C452 C 0.94801 0.57414 0.14564 0.0
H453 H 0.90233 0.65228 0.16099 0.0
H454 H 0.92906 0.61727 0.10683 0.0
C455 C 0.94936 0.56203 0.18602 0.0
C456 C 0.41697 0.17041 0.17661 0.0
C457 C 0.44986 0.19685 0.1982 0.0
H458 H 0.39864 0.1177 0.13981 0.0
C459 C 0.49042 0.18885 0.20024 0.0
H460 H 0.38551 0.17603 0.17425 0.0
C461 C 0.49789 0.155 0.18078 0.0
C462 C 0.46512 0.12913 0.15842 0.0
H463 H 0.51624 0.2087 0.21689 0.0
H464 H 0.52957 0.14977 0.18228 0.0
C465 C 0.42456 0.13708 0.15678 0.0
C466 C 0.02879 0.91573 0.66917 0.0
C467 C 0.05197 0.88992 0.65233 0.0
H468 H 0.99913 0.96423 0.65893 0.0
C469 C 0.05769 0.89012 0.61039 0.0
H470 H 0.02312 0.9159 0.70131 0.0
C471 C 0.04378 0.9174 0.58638 0.0
C472 C 0.02392 0.94547 0.60354 0.0
H473 H 0.07565 0.87119 0.59614 0.0
H474 H 0.05055 0.91768 0.5544 0.0
C475 C 0.01484 0.94329 0.64494 0.0
C476 C 0.81925 0.41447 0.99071 0.0
C477 C 0.80752 0.43425 0.95705 0.0
H478 H 0.86536 0.41553 1.03785 0.0
C479 C 0.83266 0.47281 0.94757 0.0
H480 H 0.80074 0.38464 0.99879 0.0
C481 C 0.86953 0.49033 0.96976 0.0
C482 C 0.88252 0.46988 1.00221 0.0
H483 H 0.82419 0.48935 0.9225 0.0
H484 H 0.88837 0.51979 0.96083 0.0
C485 C 0.85636 0.43211 1.01307 0.0
C486 C 0.6822 0.56885 0.44804 0.0
C487 C 0.70282 0.60979 0.45324 0.0
H488 H 0.6313 0.51906 0.4658 0.0
C489 C 0.6886 0.63116 0.48449 0.0
H490 H 0.69278 0.55111 0.42504 0.0
C491 C 0.65322 0.61252 0.50839 0.0
C492 C 0.63122 0.57217 0.50144 0.0
H493 H 0.70354 0.66278 0.4893 0.0
H494 H 0.64195 0.6302 0.53098 0.0
C495 C 0.64694 0.55038 0.47166 0.0
C496 C 0.21244 0.34432 0.19106 0.0
C497 C 0.24938 0.37645 0.18881 0.0
H498 H 0.14485 0.32386 0.18079 0.0
C499 C 0.24563 0.41354 0.17373 0.0
H500 H 0.21411 0.31551 0.20309 0.0
C501 C 0.20586 0.41838 0.16124 0.0
C502 C 0.16889 0.38629 0.16372 0.0
H503 H 0.27347 0.43882 0.17147 0.0
H504 H 0.20394 0.4475 0.15024 0.0
C505 C 0.17265 0.3492 0.17874 0.0
C506 C 0.59263 0.19482 0.98967 0.0
C507 C 0.57174 0.20013 0.95368 0.0
H508 H 0.59253 0.16 1.04281 0.0
C509 C 0.53208 0.1731 0.94478 0.0
H510 H 0.62292 0.21533 0.99778 0.0
C511 C 0.51451 0.14084 0.97072 0.0
C512 C 0.53597 0.13522 1.00639 0.0
H513 H 0.51525 0.17625 0.91723 0.0
H514 H 0.4843 0.12018 0.96269 0.0
C515 C 0.57501 0.16302 1.01563 0.0
C516 C 0.96071 0.88719 0.40451 0.0
C517 C 0.92035 0.86246 0.41506 0.0
H518 H 0.00914 0.94183 0.41652 0.0
C519 C 0.89824 0.87453 0.44731 0.0
H520 H 0.97852 0.87889 0.37969 0.0
C521 C 0.91556 0.91034 0.46819 0.0
C522 C 0.95563 0.93545 0.45754 0.0
H523 H 0.86745 0.85602 0.45677 0.0
H524 H 0.89727 0.91826 0.49285 0.0
C525 C 0.97809 0.92342 0.4254 0.0
C526 C 0.3011 0.71247 0.62555 0.0
C527 C 0.28878 0.7167 0.66562 0.0
H528 H 0.34555 0.6949 0.5859 0.0
C529 C 0.31167 0.70397 0.69685 0.0
H530 H 0.28403 0.72182 0.6008 0.0
C531 C 0.34674 0.68849 0.68835 0.0
C532 C 0.35985 0.68534 0.64839 0.0
H533 H 0.30355 0.70735 0.7281 0.0
H534 H 0.36383 0.67928 0.71317 0.0
C535 C 0.3362 0.69685 0.61702 0.0
C536 C 0.76492 0.91911 0.7566 0.0
C537 C 0.72142 0.89929 0.7527 0.0
H538 H 0.82203 0.95109 0.72713 0.0
C539 C 0.70185 0.89599 0.71459 0.0
H540 H 0.78084 0.92147 0.7856 0.0
C541 C 0.72555 0.91327 0.68094 0.0
C542 C 0.76917 0.93292 0.68509 0.0
H543 H 0.66835 0.88057 0.71103 0.0
H544 H 0.71004 0.91107 0.65176 0.0
C545 C 0.78858 0.93559 0.72314 0.0
C546 C 0.83038 0.21723 0.19224 0.0
C547 C 0.82066 0.24947 0.21299 0.0
H548 H 0.80625 0.16314 0.15836 0.0
C549 C 0.77869 0.2541 0.2115 0.0
H550 H 0.86262 0.21325 0.19263 0.0
C551 C 0.74628 0.22517 0.19239 0.0
C552 C 0.75536 0.1912 0.17429 0.0
H553 H 0.77023 0.27844 0.22764 0.0
H554 H 0.71371 0.22809 0.19419 0.0
C555 C 0.79807 0.18845 0.17292 0.0
C556 C 0.42422 0.55809 0.38528 0.0
C557 C 0.41969 0.5979 0.38636 0.0
H558 H 0.44242 0.51051 0.4168 0.0
C559 C 0.42937 0.61952 0.4228 0.0
H560 H 0.41798 0.54041 0.35786 0.0
C561 C 0.44425 0.60246 0.45646 0.0
C562 C 0.44937 0.563 0.45503 0.0
H563 H 0.42554 0.6498 0.42551 0.0
H564 H 0.45191 0.62038 0.48366 0.0
C565 C 0.43853 0.54083 0.41917 0.0
C566 C 0.06953 0.41232 0.91935 0.0
C567 C 0.09354 0.43587 0.8887 0.0
H568 H 0.03566 0.41085 0.97489 0.0
C569 C 0.10143 0.47806 0.8919 0.0
H570 H 0.06346 0.37987 0.91864 0.0
C571 C 0.08571 0.49604 0.9247 0.0
C572 C 0.06169 0.47234 0.95524 0.0
H573 H 0.11947 0.49729 0.86885 0.0
H574 H 0.09223 0.52852 0.92596 0.0
C575 C 0.05386 0.43023 0.95201 0.0
C576 C 0.49879 0.87835 0.98333 0.0
C577 C 0.54012 0.87377 0.99112 0.0
H578 H 0.45427 0.91471 0.99261 0.0
C579 C 0.56856 0.90301 1.01434 0.0
H580 H 0.47652 0.85644 0.96504 0.0
C581 C 0.55648 0.93645 1.0289 0.0
C582 C 0.51541 0.9414 1.02109 0.0
H583 H 0.60098 0.90089 1.02003 0.0
H584 H 0.57951 0.95845 1.04647 0.0
C585 C 0.48626 0.91171 0.99879 0.0
C586 C 0.01948 0.20468 0.43696 0.0
C587 C 0.97761 0.20878 0.43171 0.0
H588 H 0.05901 0.16674 0.45631 0.0
C589 C 0.94291 0.17576 0.43979 0.0
H590 H 0.0468 0.22963 0.43085 0.0
C591 C 0.94977 0.13979 0.45398 0.0
C592 C 0.99155 0.13599 0.4606 0.0
H593 H 0.91027 0.17773 0.43513 0.0
H594 H 0.92217 0.11528 0.46058 0.0
C595 C 0.0264 0.16865 0.45146 0.0
C596 C 0.18896 0.62875 0.11714 0.0
C597 C 0.2059 0.60525 0.14405 0.0
H598 H 0.13783 0.63154 0.07685 0.0
C599 C 0.18355 0.56493 0.14993 0.0
H600 H 0.20544 0.65995 0.11209 0.0
C601 C 0.14522 0.54842 0.12924 0.0
C602 C 0.12792 0.57207 0.1027 0.0
H603 H 0.19605 0.54599 0.17016 0.0
H604 H 0.12882 0.51724 0.13454 0.0
C605 C 0.15022 0.61247 0.097 0.0
C606 C 0.33198 0.4719 0.65069 0.0
C607 C 0.31746 0.42975 0.65283 0.0
H608 H 0.37863 0.52247 0.62678 0.0
C609 C 0.33756 0.40626 0.62865 0.0
H610 H 0.31731 0.49089 0.66899 0.0
C611 C 0.37266 0.42423 0.60465 0.0
C612 C 0.38864 0.46627 0.604 0.0
H613 H 0.32663 0.37375 0.62883 0.0
H614 H 0.38794 0.40497 0.58738 0.0
C615 C 0.36722 0.48999 0.62654 0.0
C616 C 0.7878 0.69146 0.96359 0.0
C617 C 0.77768 0.69848 0.92352 0.0
H618 H 0.83126 0.67306 1.00354 0.0
C619 C 0.80238 0.68807 0.89229 0.0
H620 H 0.76995 0.69969 0.98841 0.0
C621 C 0.83799 0.67345 0.90103 0.0
C622 C 0.84929 0.66843 0.94116 0.0
H623 H 0.79503 0.6925 0.86106 0.0
H624 H 0.85711 0.66671 0.87644 0.0
C625 C 0.82316 0.67648 0.9723 0.0
C626 C 0.46547 0.87839 0.19676 0.0
C627 C 0.42459 0.85245 0.19023 0.0
H628 H 0.50897 0.93539 0.18464 0.0
C629 C 0.3947 0.86711 0.16775 0.0
H630 H 0.48914 0.86878 0.21459 0.0
C631 C 0.40594 0.90585 0.15103 0.0
C632 C 0.44747 0.93091 0.15606 0.0
H633 H 0.36308 0.8481 0.16154 0.0
H634 H 0.38256 0.91544 0.13274 0.0
C635 C 0.47679 0.91688 0.17977 0.0
C636 C 0.11793 0.17657 0.6488 0.0
C637 C 0.09272 0.2024 0.66138 0.0
H638 H 0.12175 0.12507 0.61366 0.0
C639 C 0.05055 0.19509 0.64673 0.0
H640 H 0.15078 0.18159 0.65891 0.0
C641 C 0.03387 0.16258 0.62073 0.0
C642 C 0.05897 0.13658 0.60842 0.0
H643 H 0.03008 0.21407 0.65593 0.0
H644 H 1.00113 0.15783 0.61037 0.0
C645 C 0.10134 0.14419 0.62263 0.0
C646 C 0.73296 0.39618 0.398 0.0
C647 C 0.75013 0.36717 0.41675 0.0
H648 H 0.68016 0.42319 0.39399 0.0
C649 C 0.72619 0.34272 0.44676 0.0
H650 H 0.75051 0.41514 0.37449 0.0
C651 C 0.68592 0.34726 0.45786 0.0
C652 C 0.66859 0.37601 0.43883 0.0
H653 H 0.73874 0.32023 0.46183 0.0
H654 H 0.66812 0.328 0.48105 0.0
C655 C 0.69251 0.40043 0.4088 0.0
loop_
_geom_bond_atom_site_label_1
_geom_bond_atom_site_label_2
_geom_bond_distance
_geom_bond_site_symmetry_2
_ccdc_geom_bond_type
P0 O11 1.490 . S
P0 C14 1.812 . S
P0 C20 1.803 . S
P0 C26 1.819 . S
H1 C15 0.941 . S
H2 C16 0.939 . S
H3 C18 0.940 . S
H4 C19 0.940 . S
H5 C21 0.939 . S
H6 C22 0.942 . S
H7 C24 0.940 . S
H8 C25 0.939 . S
H9 C27 0.941 . S
H10 C31 0.939 . S
O11 P0 1.490 . S
H12 C28 0.939 . S
H13 C30 0.940 . S
C14 P0 1.812 . S
C14 C15 1.389 . S
C14 C19 1.391 . S
C15 H1 0.941 . S
C15 C14 1.389 . S
C15 C16 1.397 . S
C16 H2 0.939 . S
C16 C15 1.397 . S
C16 C17 1.378 . S
C17 C16 1.378 . S
C17 C18 1.378 . S
C18 H3 0.940 . S
C18 C17 1.378 . S
C18 C19 1.396 . S
C19 H4 0.940 . S
C19 C14 1.391 . S
C19 C18 1.396 . S
C20 P0 1.803 . S
C20 C21 1.378 . S
C20 C25 1.400 . S
C21 H5 0.939 . S
C21 C20 1.378 . S
C21 C22 1.361 . S
C22 H6 0.942 . S
C22 C21 1.361 . S
C22 C23 1.369 . S
C23 C22 1.369 . S
C23 C24 1.404 . S
C24 H7 0.940 . S
C24 C23 1.404 . S
C24 C25 1.389 . S
C25 H8 0.939 . S
C25 C20 1.400 . S
C25 C24 1.389 . S
C26 P0 1.819 . S
C26 C27 1.391 . S
C26 C31 1.391 . S
C27 H9 0.941 . S
C27 C26 1.391 . S
C27 C28 1.396 . S
C28 H12 0.939 . S
C28 C27 1.396 . S
C28 C29 1.397 . S
C29 C28 1.397 . S
C29 C30 1.385 . S
C30 H13 0.940 . S
C30 C29 1.385 . S
C30 C31 1.388 . S
C31 H10 0.939 . S
C31 C26 1.391 . S
C31 C30 1.388 . S
P32 O43 1.490 . S
P32 C46 1.812 . S
P32 C52 1.803 . S
P32 C58 1.819 . S
H33 C47 0.941 . S
H34 C48 0.939 . S
H35 C50 0.940 . S
H36 C51 0.940 . S
H37 C53 0.939 . S
H38 C54 0.942 . S
H39 C56 0.940 . S
H40 C57 0.939 . S
H41 C59 0.941 . S
H42 C63 0.939 . S
O43 P32 1.490 . S
H44 C60 0.939 . S
H45 C62 0.940 . S
C46 P32 1.812 . S
C46 C47 1.389 . S
C46 C51 1.391 . S
C47 H33 0.941 . S
C47 C46 1.389 . S
C47 C48 1.397 . S
C48 H34 0.939 . S
C48 C47 1.397 . S
C48 C49 1.378 . S
C49 C48 1.378 . S
C49 C50 1.378 . S
C50 H35 0.940 . S
C50 C49 1.378 . S
C50 C51 1.396 . S
C51 H36 0.940 . S
C51 C46 1.391 . S
C51 C50 1.396 . S
C52 P32 1.803 . S
C52 C53 1.378 . S
C52 C57 1.400 . S
C53 H37 0.939 . S
C53 C52 1.378 . S
C53 C54 1.361 . S
C54 H38 0.942 . S
C54 C53 1.361 . S
C54 C55 1.369 . S
C55 C54 1.369 . S
C55 C56 1.404 . S
C56 H39 0.940 . S
C56 C55 1.404 . S
C56 C57 1.389 . S
C57 H40 0.939 . S
C57 C52 1.400 . S
C57 C56 1.389 . S
C58 P32 1.819 . S
C58 C59 1.391 . S
C58 C63 1.391 . S
C59 H41 0.941 . S
C59 C58 1.391 . S
C59 C60 1.396 . S
C60 H44 0.939 . S
C60 C59 1.396 . S
C60 C61 1.397 . S
C61 C60 1.397 . S
C61 C62 1.385 . S
C62 H45 0.940 . S
C62 C61 1.385 . S
C62 C63 1.388 . S
C63 H42 0.939 . S
C63 C58 1.391 . S
C63 C62 1.388 . S
P64 O75 1.490 . S
P64 C78 1.812 . S
P64 C84 1.803 . S
P64 C90 1.819 . S
H65 C79 0.941 . S
H66 C80 0.939 . S
H67 C82 0.940 . S
H68 C83 0.940 . S
H69 C85 0.939 . S
H70 C86 0.942 . S
H71 C88 0.940 . S
H72 C89 0.939 . S
H73 C91 0.941 . S
H74 C95 0.939 . S
O75 P64 1.490 . S
H76 C92 0.939 . S
H77 C94 0.940 . S
C78 P64 1.812 . S
C78 C79 1.389 . S
C78 C83 1.391 . S
C79 H65 0.941 . S
C79 C78 1.389 . S
C79 C80 1.397 . S
C80 H66 0.939 . S
C80 C79 1.397 . S
C80 C81 1.378 . S
C81 C80 1.378 . S
C81 C82 1.378 . S
C82 H67 0.940 . S
C82 C81 1.378 . S
C82 C83 1.396 . S
C83 H68 0.940 . S
C83 C78 1.391 . S
C83 C82 1.396 . S
C84 P64 1.803 . S
C84 C85 1.378 . S
C84 C89 1.400 . S
C85 H69 0.939 . S
C85 C84 1.378 . S
C85 C86 1.361 . S
C86 H70 0.942 . S
C86 C85 1.361 . S
C86 C87 1.369 . S
C87 C86 1.369 . S
C87 C88 1.404 . S
C88 H71 0.940 . S
C88 C87 1.404 . S
C88 C89 1.389 . S
C89 H72 0.939 . S
C89 C84 1.400 . S
C89 C88 1.389 . S
C90 P64 1.819 . S
C90 C91 1.391 . S
C90 C95 1.391 . S
C91 H73 0.941 . S
C91 C90 1.391 . S
C91 C92 1.396 . S
C92 H76 0.939 . S
C92 C91 1.396 . S
C92 C93 1.397 . S
C93 C92 1.397 . S
C93 C94 1.385 . S
C94 H77 0.940 . S
C94 C93 1.385 . S
C94 C95 1.388 . S
C95 H74 0.939 . S
C95 C90 1.391 . S
C95 C94 1.388 . S
P96 O107 1.490 . S
P96 C110 1.812 . S
P96 C116 1.803 . S
P96 C122 1.819 . S
H97 C111 0.941 . S
H98 C112 0.939 . S
H99 C114 0.940 . S
H100 C115 0.940 . S
H101 C117 0.939 . S
H102 C118 0.942 . S
H103 C120 0.940 . S
H104 C121 0.939 . S
H105 C123 0.941 . S
H106 C127 0.939 . S
O107 P96 1.490 . S
H108 C124 0.939 . S
H109 C126 0.940 . S
C110 P96 1.812 . S
C110 C111 1.389 . S
C110 C115 1.391 . S
C111 H97 0.941 . S
C111 C110 1.389 . S
C111 C112 1.397 . S
C112 H98 0.939 . S
C112 C111 1.397 . S
C112 C113 1.378 . S
C113 C112 1.378 . S
C113 C114 1.378 . S
C114 H99 0.940 . S
C114 C113 1.378 . S
C114 C115 1.396 . S
C115 H100 0.940 . S
C115 C110 1.391 . S
C115 C114 1.396 . S
C116 P96 1.803 . S
C116 C117 1.378 . S
C116 C121 1.400 . S
C117 H101 0.939 . S
C117 C116 1.378 . S
C117 C118 1.361 . S
C118 H102 0.942 . S
C118 C117 1.361 . S
C118 C119 1.369 . S
C119 C118 1.369 . S
C119 C120 1.404 . S
C120 H103 0.940 . S
C120 C119 1.404 . S
C120 C121 1.389 . S
C121 H104 0.939 . S
C121 C116 1.400 . S
C121 C120 1.389 . S
C122 P96 1.819 . S
C122 C123 1.391 . S
C122 C127 1.391 . S
C123 H105 0.941 . S
C123 C122 1.391 . S
C123 C124 1.396 . S
C124 H108 0.939 . S
C124 C123 1.396 . S
C124 C125 1.397 . S
C125 C124 1.397 . S
C125 C126 1.385 . S
C126 H109 0.940 . S
C126 C125 1.385 . S
C126 C127 1.388 . S
C127 H106 0.939 . S
C127 C122 1.391 . S
C127 C126 1.388 . S
P128 O139 1.490 . S
P128 C142 1.812 . S
P128 C148 1.803 . S
P128 C154 1.819 . S
H129 C143 0.941 . S
H130 C144 0.939 . S
H131 C146 0.940 . S
H132 C147 0.940 . S
H133 C149 0.939 . S
H134 C150 0.942 . S
H135 C152 0.940 . S
H136 C153 0.939 . S
H137 C155 0.941 . S
H138 C159 0.939 . S
O139 P128 1.490 . S
H140 C156 0.939 . S
H141 C158 0.940 . S
C142 P128 1.812 . S
C142 C143 1.389 . S
C142 C147 1.391 . S
C143 H129 0.941 . S
C143 C142 1.389 . S
C143 C144 1.397 . S
C144 H130 0.939 . S
C144 C143 1.397 . S
C144 C145 1.378 . S
C145 C144 1.378 . S
C145 C146 1.378 . S
C146 H131 0.940 . S
C146 C145 1.378 . S
C146 C147 1.396 . S
C147 H132 0.940 . S
C147 C142 1.391 . S
C147 C146 1.396 . S
C148 P128 1.803 . S
C148 C149 1.378 . S
C148 C153 1.400 . S
C149 H133 0.939 . S
C149 C148 1.378 . S
C149 C150 1.361 . S
C150 H134 0.942 . S
C150 C149 1.361 . S
C150 C151 1.369 . S
C151 C150 1.369 . S
C151 C152 1.404 . S
C152 H135 0.940 . S
C152 C151 1.404 . S
C152 C153 1.389 . S
C153 H136 0.939 . S
C153 C148 1.400 . S
C153 C152 1.389 . S
C154 P128 1.819 . S
C154 C155 1.391 . S
C154 C159 1.391 . S
C155 H137 0.941 . S
C155 C154 1.391 . S
C155 C156 1.396 . S
C156 H140 0.939 . S
C156 C155 1.396 . S
C156 C157 1.397 . S
C157 C156 1.397 . S
C157 C158 1.385 . S
C158 H141 0.940 . S
C158 C157 1.385 . S
C158 C159 1.388 . S
C159 H138 0.939 . S
C159 C154 1.391 . S
C159 C158 1.388 . S
P160 O171 1.490 . S
P160 C174 1.812 . S
P160 C180 1.803 . S
P160 C186 1.819 . S
H161 C175 0.941 . S
H162 C176 0.939 . S
H163 C178 0.940 . S
H164 C179 0.940 . S
H165 C181 0.939 . S
H166 C182 0.942 1_455 S
H167 C184 0.940 . S
H168 C185 0.939 . S
H169 C187 0.941 . S
H170 C191 0.939 . S
O171 P160 1.490 . S
H172 C188 0.939 . S
H173 C190 0.940 . S
C174 P160 1.812 . S
C174 C175 1.389 . S
C174 C179 1.391 . S
C175 H161 0.941 . S
C175 C174 1.389 . S
C175 C176 1.397 . S
C176 H162 0.939 . S
C176 C175 1.397 . S
C176 C177 1.378 . S
C177 C176 1.378 . S
C177 C178 1.378 . S
C178 H163 0.940 . S
C178 C177 1.378 . S
C178 C179 1.396 . S
C179 H164 0.940 . S
C179 C174 1.391 . S
C179 C178 1.396 . S
C180 P160 1.803 . S
C180 C181 1.378 . S
C180 C185 1.400 . S
C181 H165 0.939 . S
C181 C180 1.378 . S
C181 C182 1.361 . S
C182 H166 0.942 1_655 S
C182 C181 1.361 . S
C182 C183 1.369 . S
C183 C182 1.369 . S
C183 C184 1.404 . S
C184 H167 0.940 . S
C184 C183 1.404 . S
C184 C185 1.389 . S
C185 H168 0.939 . S
C185 C180 1.400 . S
C185 C184 1.389 . S
C186 P160 1.819 . S
C186 C187 1.391 . S
C186 C191 1.391 . S
C187 H169 0.941 . S
C187 C186 1.391 . S
C187 C188 1.396 . S
C188 H172 0.939 . S
C188 C187 1.396 . S
C188 C189 1.397 . S
C189 C188 1.397 . S
C189 C190 1.385 . S
C190 H173 0.940 . S
C190 C189 1.385 . S
C190 C191 1.388 . S
C191 H170 0.939 . S
C191 C186 1.391 . S
C191 C190 1.388 . S
P192 O203 1.490 . S
P192 C206 1.812 . S
P192 C212 1.803 . S
P192 C218 1.819 . S
H193 C207 0.941 . S
H194 C208 0.939 . S
H195 C210 0.940 . S
H196 C211 0.940 . S
H197 C213 0.939 . S
H198 C214 0.942 . S
H199 C216 0.940 . S
H200 C217 0.939 . S
H201 C219 0.941 . S
H202 C223 0.939 . S
O203 P192 1.490 . S
H204 C220 0.939 . S
H205 C222 0.940 . S
C206 P192 1.812 . S
C206 C207 1.389 . S
C206 C211 1.391 . S
C207 H193 0.941 . S
C207 C206 1.389 . S
C207 C208 1.397 . S
C208 H194 0.939 . S
C208 C207 1.397 . S
C208 C209 1.378 . S
C209 C208 1.378 . S
C209 C210 1.378 . S
C210 H195 0.940 . S
C210 C209 1.378 . S
C210 C211 1.396 . S
C211 H196 0.940 . S
C211 C206 1.391 . S
C211 C210 1.396 . S
C212 P192 1.803 . S
C212 C213 1.378 . S
C212 C217 1.400 . S
C213 H197 0.939 . S
C213 C212 1.378 . S
C213 C214 1.361 . S
C214 H198 0.942 . S
C214 C213 1.361 . S
C214 C215 1.369 . S
C215 C214 1.369 . S
C215 C216 1.404 . S
C216 H199 0.940 . S
C216 C215 1.404 . S
C216 C217 1.389 . S
C217 H200 0.939 . S
C217 C212 1.400 . S
C217 C216 1.389 . S
C218 P192 1.819 . S
C218 C219 1.391 . S
C218 C223 1.391 . S
C219 H201 0.941 . S
C219 C218 1.391 . S
C219 C220 1.396 . S
C220 H204 0.939 . S
C220 C219 1.396 . S
C220 C221 1.397 . S
C221 C220 1.397 . S
C221 C222 1.385 . S
C222 H205 0.940 . S
C222 C221 1.385 . S
C222 C223 1.388 . S
C223 H202 0.939 . S
C223 C218 1.391 . S
C223 C222 1.388 . S
P224 O235 1.490 . S
P224 C238 1.812 . S
P224 C244 1.803 . S
P224 C250 1.819 . S
H225 C239 0.941 . S
H226 C240 0.939 . S
H227 C242 0.940 . S
H228 C243 0.940 . S
H229 C245 0.939 . S
H230 C246 0.942 . S
H231 C248 0.940 . S
H232 C249 0.939 . S
H233 C251 0.941 . S
H234 C255 0.939 . S
O235 P224 1.490 . S
H236 C252 0.939 . S
H237 C254 0.940 . S
C238 P224 1.812 . S
C238 C239 1.389 . S
C238 C243 1.391 . S
C239 H225 0.941 . S
C239 C238 1.389 . S
C239 C240 1.397 . S
C240 H226 0.939 . S
C240 C239 1.397 . S
C240 C241 1.378 . S
C241 C240 1.378 . S
C241 C242 1.378 . S
C242 H227 0.940 . S
C242 C241 1.378 . S
C242 C243 1.396 . S
C243 H228 0.940 . S
C243 C238 1.391 . S
C243 C242 1.396 . S
C244 P224 1.803 . S
C244 C245 1.378 . S
C244 C249 1.400 . S
C245 H229 0.939 . S
C245 C244 1.378 . S
C245 C246 1.361 . S
C246 H230 0.942 . S
C246 C245 1.361 . S
C246 C247 1.369 . S
C247 C246 1.369 . S
C247 C248 1.404 . S
C248 H231 0.940 . S
C248 C247 1.404 . S
C248 C249 1.389 . S
C249 H232 0.939 . S
C249 C244 1.400 . S
C249 C248 1.389 . S
C250 P224 1.819 . S
C250 C251 1.391 . S
C250 C255 1.391 . S
C251 H233 0.941 . S
C251 C250 1.391 . S
C251 C252 1.396 . S
C252 H236 0.939 . S
C252 C251 1.396 . S
C252 C253 1.397 . S
C253 C252 1.397 . S
C253 C254 1.385 . S
C254 H237 0.940 . S
C254 C253 1.385 . S
C254 C255 1.388 . S
C255 H234 0.939 . S
C255 C250 1.391 . S
C255 C254 1.388 . S
Dy256 O259 2.307 1_545 S
Dy256 O261 2.395 . S
Dy256 O262 2.379 . S
Dy256 O264 2.339 1_545 S
Dy256 O266 2.298 . S
Dy256 O270 2.275 . S
Dy256 C278 2.738 . S
Dy257 O260 2.298 1_655 S
Dy257 O263 2.275 . S
Dy257 O265 2.307 1_565 S
Dy257 O267 2.395 . S
Dy257 O268 2.379 . S
Dy257 O271 2.339 1_565 S
Dy257 C287 2.738 . S
C258 O270 1.254 . S
C258 O271 1.257 1_455 S
O259 Dy256 2.307 1_565 S
O259 C269 1.266 . S
O260 Dy257 2.298 1_455 S
O260 C269 1.236 . S
O261 Dy256 2.395 . S
O261 C278 1.255 . S
O262 Dy256 2.379 . S
O262 C278 1.249 . S
O263 Dy257 2.275 . S
O263 C279 1.254 . S
O264 Dy256 2.339 1_565 S
O264 C279 1.257 1_455 S
O265 Dy257 2.307 1_545 S
O265 C280 1.266 . S
O266 Dy256 2.298 . S
O266 C280 1.236 1_455 S
O267 Dy257 2.395 . S
O267 C287 1.255 . S
O268 Dy257 2.379 . S
O268 C287 1.249 . S
C269 O259 1.266 . S
C269 O260 1.236 . S
O270 Dy256 2.275 . S
O270 C258 1.254 . S
O271 Dy257 2.339 1_545 S
O271 C258 1.257 1_655 S
C272 C275 1.344 . S
C272 C276 1.328 . S
C272 C278 1.516 . S
C273 C274 1.304 . S
C273 C277 1.323 . S
C274 C273 1.304 . S
C274 C275 1.371 . S
C274 H288 0.930 . S
C275 C272 1.344 . S
C275 C274 1.371 . S
C275 H289 0.931 . S
C276 C272 1.328 . S
C276 C277 1.433 . S
C276 H290 0.931 . S
C277 C273 1.323 . S
C277 C276 1.433 . S
C277 H291 0.933 . S
C278 Dy256 2.738 . S
C278 O261 1.255 . S
C278 O262 1.249 . S
C278 C272 1.516 . S
C279 O263 1.254 . S
C279 O264 1.257 1_655 S
C280 O265 1.266 . S
C280 O266 1.236 1_655 S
C281 C284 1.344 . S
C281 C285 1.328 . S
C281 C287 1.516 . S
C282 C283 1.304 . S
C282 C286 1.323 . S
C283 C282 1.304 . S
C283 C284 1.371 . S
C283 H292 0.930 . S
C284 C281 1.344 . S
C284 C283 1.371 . S
C284 H293 0.931 . S
C285 C281 1.328 . S
C285 C286 1.433 . S
C285 H294 0.931 . S
C286 C282 1.323 . S
C286 C285 1.433 . S
C286 H295 0.933 . S
C287 Dy257 2.738 . S
C287 O267 1.255 . S
C287 O268 1.249 . S
C287 C281 1.516 . S
H288 C274 0.930 . S
H289 C275 0.931 . S
H290 C276 0.931 . S
H291 C277 0.933 . S
H292 C283 0.930 . S
H293 C284 0.931 . S
H294 C285 0.931 . S
H295 C286 0.933 . S
Dy296 O299 2.317 1_556 S
Dy296 O301 2.383 1_545 S
Dy296 O302 2.377 1_545 S
Dy296 O304 2.349 . S
Dy296 O306 2.289 1_545 S
Dy296 O310 2.267 1_546 S
Dy296 C318 2.731 1_545 S
Dy297 O300 2.298 . S
Dy297 O303 2.275 1_554 S
Dy297 O305 2.307 1_544 S
Dy297 O307 2.395 . S
Dy297 O308 2.379 . S
Dy297 O311 2.339 1_545 S
Dy297 C327 2.738 . S
C298 O310 1.254 . S
C298 O311 1.257 . S
O299 Dy296 2.317 1_554 S
O299 C309 1.266 . S
O300 Dy297 2.298 . S
O300 C309 1.236 . S
O301 Dy296 2.383 1_565 S
O301 C318 1.255 . S
O302 Dy296 2.377 1_565 S
O302 C318 1.249 . S
O303 Dy297 2.275 1_556 S
O303 C319 1.254 . S
O304 Dy296 2.349 . S
O304 C319 1.257 . S
O305 Dy297 2.307 1_566 S
O305 C320 1.266 . S
O306 Dy296 2.289 1_565 S
O306 C320 1.236 . S
O307 Dy297 2.395 . S
O307 C327 1.255 . S
O308 Dy297 2.379 . S
O308 C327 1.249 . S
C309 O299 1.266 . S
C309 O300 1.236 . S
O310 Dy296 2.267 1_564 S
O310 C298 1.254 . S
O311 Dy297 2.339 1_565 S
O311 C298 1.257 . S
C312 C315 1.344 . S
C312 C316 1.328 . S
C312 C318 1.516 . S
C313 C314 1.304 . S
C313 C317 1.323 . S
C314 C313 1.304 . S
C314 C315 1.371 . S
C314 H328 0.930 . S
C315 C312 1.344 . S
C315 C314 1.371 . S
C315 H329 0.931 . S
C316 C312 1.328 . S
C316 C317 1.433 . S
C316 H330 0.931 . S
C317 C313 1.323 . S
C317 C316 1.433 . S
C317 H331 0.933 . S
C318 Dy296 2.731 1_565 S
C318 O301 1.255 . S
C318 O302 1.249 . S
C318 C312 1.516 . S
C319 O303 1.254 . S
C319 O304 1.257 . S
C320 O305 1.266 . S
C320 O306 1.236 . S
C321 C324 1.344 . S
C321 C325 1.328 . S
C321 C327 1.516 . S
C322 C323 1.304 . S
C322 C326 1.323 . S
C323 C322 1.304 . S
C323 C324 1.371 . S
C323 H332 0.930 . S
C324 C321 1.344 . S
C324 C323 1.371 . S
C324 H333 0.931 . S
C325 C321 1.328 . S
C325 C326 1.433 . S
C325 H334 0.931 . S
C326 C322 1.323 . S
C326 C325 1.433 . S
C326 H335 0.933 . S
C327 Dy297 2.738 . S
C327 O307 1.255 . S
C327 O308 1.249 . S
C327 C321 1.516 . S
H328 C314 0.930 . S
H329 C315 0.931 . S
H330 C316 0.931 . S
H331 C317 0.933 . S
H332 C323 0.930 . S
H333 C324 0.931 . S
H334 C325 0.931 . S
H335 C326 0.933 . S
Dy336 O339 2.307 . S
Dy336 O341 2.395 . S
Dy336 O342 2.379 . S
Dy336 O344 2.339 . S
Dy336 O346 2.298 . S
Dy336 O350 2.275 . S
Dy336 C358 2.738 . S
Dy337 O340 2.298 . S
Dy337 O343 2.275 . S
Dy337 O345 2.307 . S
Dy337 O347 2.395 . S
Dy337 O348 2.379 . S
Dy337 O351 2.339 . S
Dy337 C367 2.738 . S
C338 O350 1.254 . S
C338 O351 1.257 . S
O339 Dy336 2.307 . S
O339 C349 1.266 . S
O340 Dy337 2.298 . S
O340 C349 1.236 . S
O341 Dy336 2.395 . S
O341 C358 1.255 . S
O342 Dy336 2.379 . S
O342 C358 1.249 . S
O343 Dy337 2.275 . S
O343 C359 1.254 . S
O344 Dy336 2.339 . S
O344 C359 1.257 . S
O345 Dy337 2.307 . S
O345 C360 1.266 . S
O346 Dy336 2.298 . S
O346 C360 1.236 . S
O347 Dy337 2.395 . S
O347 C367 1.255 . S
O348 Dy337 2.379 . S
O348 C367 1.249 . S
C349 O339 1.266 . S
C349 O340 1.236 . S
O350 Dy336 2.275 . S
O350 C338 1.254 . S
O351 Dy337 2.339 . S
O351 C338 1.257 . S
C352 C355 1.344 . S
C352 C356 1.328 . S
C352 C358 1.516 . S
C353 C354 1.304 . S
C353 C357 1.323 . S
C354 C353 1.304 . S
C354 C355 1.371 . S
C354 H368 0.930 . S
C355 C352 1.344 . S
C355 C354 1.371 . S
C355 H369 0.931 . S
C356 C352 1.328 . S
C356 C357 1.433 . S
C356 H370 0.931 . S
C357 C353 1.323 . S
C357 C356 1.433 . S
C357 H371 0.933 . S
C358 Dy336 2.738 . S
C358 O341 1.255 . S
C358 O342 1.249 . S
C358 C352 1.516 . S
C359 O343 1.254 . S
C359 O344 1.257 . S
C360 O345 1.266 . S
C360 O346 1.236 . S
C361 C364 1.344 . S
C361 C365 1.328 . S
C361 C367 1.516 . S
C362 C363 1.304 . S
C362 C366 1.323 . S
C363 C362 1.304 . S
C363 C364 1.371 . S
C363 H372 0.930 . S
C364 C361 1.344 . S
C364 C363 1.371 . S
C364 H373 0.931 . S
C365 C361 1.328 . S
C365 C366 1.433 . S
C365 H374 0.931 . S
C366 C362 1.323 . S
C366 C365 1.433 . S
C366 H375 0.933 . S
C367 Dy337 2.738 . S
C367 O347 1.255 . S
C367 O348 1.249 . S
C367 C361 1.516 . S
H368 C354 0.930 . S
H369 C355 0.931 . S
H370 C356 0.931 . S
H371 C357 0.933 . S
H372 C363 0.930 . S
H373 C364 0.931 . S
H374 C365 0.931 . S
H375 C366 0.933 . S
Dy376 O379 2.307 1_656 S
Dy376 O381 2.395 . S
Dy376 O382 2.379 . S
Dy376 O384 2.339 1_655 S
Dy376 O386 2.298 . S
Dy376 O390 2.275 1_556 S
Dy376 C398 2.738 . S
Dy377 O380 2.298 . S
Dy377 O383 2.275 1_554 S
Dy377 O385 2.307 1_455 S
Dy377 O387 2.395 . S
Dy377 O388 2.379 . S
Dy377 O391 2.339 1_455 S
Dy377 C407 2.738 . S
C378 O390 1.254 . S
C378 O391 1.257 . S
O379 Dy376 2.307 1_454 S
O379 C389 1.266 . S
O380 Dy377 2.298 . S
O380 C389 1.236 . S
O381 Dy376 2.395 . S
O381 C398 1.255 . S
O382 Dy376 2.379 . S
O382 C398 1.249 . S
O383 Dy377 2.275 1_556 S
O383 C399 1.254 . S
O384 Dy376 2.339 1_455 S
O384 C399 1.257 . S
O385 Dy377 2.307 1_655 S
O385 C400 1.266 1_554 S
O386 Dy376 2.298 . S
O386 C400 1.236 . S
O387 Dy377 2.395 . S
O387 C407 1.255 . S
O388 Dy377 2.379 . S
O388 C407 1.249 . S
C389 O379 1.266 . S
C389 O380 1.236 . S
O390 Dy376 2.275 1_554 S
O390 C378 1.254 . S
O391 Dy377 2.339 1_655 S
O391 C378 1.257 . S
C392 C395 1.344 . S
C392 C396 1.328 . S
C392 C398 1.516 . S
C393 C394 1.304 . S
C393 C397 1.323 . S
C394 C393 1.304 . S
C394 C395 1.371 . S
C394 H408 0.930 . S
C395 C392 1.344 . S
C395 C394 1.371 . S
C395 H409 0.931 . S
C396 C392 1.328 . S
C396 C397 1.433 . S
C396 H410 0.931 . S
C397 C393 1.323 . S
C397 C396 1.433 . S
C397 H411 0.933 . S
C398 Dy376 2.738 . S
C398 O381 1.255 . S
C398 O382 1.249 . S
C398 C392 1.516 . S
C399 O383 1.254 . S
C399 O384 1.257 . S
C400 O385 1.266 1_556 S
C400 O386 1.236 . S
C401 C404 1.344 . S
C401 C405 1.328 . S
C401 C407 1.516 . S
C402 C403 1.304 . S
C402 C406 1.323 . S
C403 C402 1.304 . S
C403 C404 1.371 . S
C403 H412 0.930 . S
C404 C401 1.344 . S
C404 C403 1.371 . S
C404 H413 0.931 . S
C405 C401 1.328 . S
C405 C406 1.433 . S
C405 H414 0.931 . S
C406 C402 1.323 . S
C406 C405 1.433 . S
C406 H415 0.933 . S
C407 Dy377 2.738 . S
C407 O387 1.255 . S
C407 O388 1.249 . S
C407 C401 1.516 . S
H408 C394 0.930 . S
H409 C395 0.931 . S
H410 C396 0.931 . S
H411 C397 0.933 . S
H412 C403 0.930 . S
H413 C404 0.931 . S
H414 C405 0.931 . S
H415 C406 0.933 . S
C416 C417 1.387 . S
C416 H420 0.950 . S
C416 C425 1.390 . S
C417 C416 1.387 . S
C417 C419 1.387 . S
H418 C425 0.950 . S
C419 C417 1.387 . S
C419 C421 1.390 . S
C419 H423 0.950 . S
H420 C416 0.950 . S
C421 C419 1.390 . S
C421 C422 1.387 . S
C421 H424 0.950 . S
C422 C421 1.387 . S
C422 C425 1.387 . S
H423 C419 0.950 . S
H424 C421 0.950 . S
C425 C416 1.390 . S
C425 H418 0.950 . S
C425 C422 1.387 . S
C426 C427 1.387 . S
C426 H430 0.950 . S
C426 C435 1.390 . S
C427 C426 1.387 . S
C427 C429 1.387 . S
H428 C435 0.950 . S
C429 C427 1.387 . S
C429 C431 1.390 . S
C429 H433 0.950 . S
H430 C426 0.950 . S
C431 C429 1.390 . S
C431 C432 1.387 . S
C431 H434 0.950 . S
C432 C431 1.387 . S
C432 C435 1.387 . S
H433 C429 0.950 . S
H434 C431 0.950 . S
C435 C426 1.390 . S
C435 H428 0.950 . S
C435 C432 1.387 . S
C436 C437 1.387 . S
C436 H440 0.950 . S
C436 C445 1.390 . S
C437 C436 1.387 . S
C437 C439 1.387 . S
H438 C445 0.950 . S
C439 C437 1.387 . S
C439 C441 1.390 . S
C439 H443 0.950 . S
H440 C436 0.950 . S
C441 C439 1.390 . S
C441 C442 1.387 . S
C441 H444 0.950 . S
C442 C441 1.387 . S
C442 C445 1.387 . S
H443 C439 0.950 . S
H444 C441 0.950 . S
C445 C436 1.390 . S
C445 H438 0.950 . S
C445 C442 1.387 . S
C446 C447 1.387 . S
C446 H450 0.950 . S
C446 C455 1.390 . S
C447 C446 1.387 . S
C447 C449 1.387 . S
H448 C455 0.950 . S
C449 C447 1.387 . S
C449 C451 1.390 . S
C449 H453 0.950 . S
H450 C446 0.950 . S
C451 C449 1.390 . S
C451 C452 1.387 . S
C451 H454 0.950 . S
C452 C451 1.387 . S
C452 C455 1.387 . S
H453 C449 0.950 . S
H454 C451 0.950 . S
C455 C446 1.390 . S
C455 H448 0.950 . S
C455 C452 1.387 . S
C456 C457 1.387 . S
C456 H460 0.950 . S
C456 C465 1.390 . S
C457 C456 1.387 . S
C457 C459 1.387 . S
H458 C465 0.950 . S
C459 C457 1.387 . S
C459 C461 1.390 . S
C459 H463 0.950 . S
H460 C456 0.950 . S
C461 C459 1.390 . S
C461 C462 1.387 . S
C461 H464 0.950 . S
C462 C461 1.387 . S
C462 C465 1.387 . S
H463 C459 0.950 . S
H464 C461 0.950 . S
C465 C456 1.390 . S
C465 H458 0.950 . S
C465 C462 1.387 . S
C466 C467 1.387 1_655 S
C466 H470 0.950 . S
C466 C475 1.390 . S
C467 C466 1.387 1_455 S
C467 C469 1.387 . S
H468 C475 0.950 . S
C469 C467 1.387 . S
C469 C471 1.390 . S
C469 H473 0.950 . S
H470 C466 0.950 . S
C471 C469 1.390 . S
C471 C472 1.387 . S
C471 H474 0.950 . S
C472 C471 1.387 . S
C472 C475 1.387 1_455 S
H473 C469 0.950 . S
H474 C471 0.950 . S
C475 C466 1.390 . S
C475 H468 0.950 . S
C475 C472 1.387 1_655 S
C476 C477 1.387 . S
C476 H480 0.950 . S
C476 C485 1.390 . S
C477 C476 1.387 . S
C477 C479 1.387 . S
H478 C485 0.950 . S
C479 C477 1.387 . S
C479 C481 1.390 . S
C479 H483 0.950 . S
H480 C476 0.950 . S
C481 C479 1.390 . S
C481 C482 1.387 . S
C481 H484 0.950 . S
C482 C481 1.387 . S
C482 C485 1.387 . S
H483 C479 0.950 . S
H484 C481 0.950 . S
C485 C476 1.390 . S
C485 H478 0.950 . S
C485 C482 1.387 . S
C486 C487 1.387 . S
C486 H490 0.950 . S
C486 C495 1.390 . S
C487 C486 1.387 . S
C487 C489 1.387 . S
H488 C495 0.950 . S
C489 C487 1.387 . S
C489 C491 1.390 . S
C489 H493 0.950 . S
H490 C486 0.950 . S
C491 C489 1.390 . S
C491 C492 1.387 . S
C491 H494 0.950 . S
C492 C491 1.387 . S
C492 C495 1.387 . S
H493 C489 0.950 . S
H494 C491 0.950 . S
C495 C486 1.390 . S
C495 H488 0.950 . S
C495 C492 1.387 . S
C496 C497 1.387 . S
C496 H500 0.950 . S
C496 C505 1.390 . S
C497 C496 1.387 . S
C497 C499 1.387 . S
H498 C505 0.950 . S
C499 C497 1.387 . S
C499 C501 1.390 . S
C499 H503 0.950 . S
H500 C496 0.950 . S
C501 C499 1.390 . S
C501 C502 1.387 . S
C501 H504 0.950 . S
C502 C501 1.387 . S
C502 C505 1.387 . S
H503 C499 0.950 . S
H504 C501 0.950 . S
C505 C496 1.390 . S
C505 H498 0.950 . S
C505 C502 1.387 . S
C506 C507 1.387 . S
C506 H510 0.950 . S
C506 C515 1.390 . S
C507 C506 1.387 . S
C507 C509 1.387 . S
H508 C515 0.950 . S
C509 C507 1.387 . S
C509 C511 1.390 . S
C509 H513 0.950 . S
H510 C506 0.950 . S
C511 C509 1.390 . S
C511 C512 1.387 . S
C511 H514 0.950 . S
C512 C511 1.387 . S
C512 C515 1.387 . S
H513 C509 0.950 . S
H514 C511 0.950 . S
C515 C506 1.390 . S
C515 H508 0.950 . S
C515 C512 1.387 . S
C516 C517 1.387 . S
C516 H520 0.950 . S
C516 C525 1.390 . S
C517 C516 1.387 . S
C517 C519 1.387 . S
H518 C525 0.950 1_455 S
C519 C517 1.387 . S
C519 C521 1.390 . S
C519 H523 0.950 . S
H520 C516 0.950 . S
C521 C519 1.390 . S
C521 C522 1.387 . S
C521 H524 0.950 . S
C522 C521 1.387 . S
C522 C525 1.387 . S
H523 C519 0.950 . S
H524 C521 0.950 . S
C525 C516 1.390 . S
C525 H518 0.950 1_655 S
C525 C522 1.387 . S
C526 C527 1.387 . S
C526 H530 0.950 . S
C526 C535 1.390 . S
C527 C526 1.387 . S
C527 C529 1.387 . S
H528 C535 0.950 . S
C529 C527 1.387 . S
C529 C531 1.390 . S
C529 H533 0.950 . S
H530 C526 0.950 . S
C531 C529 1.390 . S
C531 C532 1.387 . S
C531 H534 0.950 . S
C532 C531 1.387 . S
C532 C535 1.387 . S
H533 C529 0.950 . S
H534 C531 0.950 . S
C535 C526 1.390 . S
C535 H528 0.950 . S
C535 C532 1.387 . S
C536 C537 1.387 . S
C536 H540 0.950 . S
C536 C545 1.390 . S
C537 C536 1.387 . S
C537 C539 1.387 . S
H538 C545 0.950 . S
C539 C537 1.387 . S
C539 C541 1.390 . S
C539 H543 0.950 . S
H540 C536 0.950 . S
C541 C539 1.390 . S
C541 C542 1.387 . S
C541 H544 0.950 . S
C542 C541 1.387 . S
C542 C545 1.387 . S
H543 C539 0.950 . S
H544 C541 0.950 . S
C545 C536 1.390 . S
C545 H538 0.950 . S
C545 C542 1.387 . S
C546 C547 1.387 . S
C546 H550 0.950 . S
C546 C555 1.390 . S
C547 C546 1.387 . S
C547 C549 1.387 . S
H548 C555 0.950 . S
C549 C547 1.387 . S
C549 C551 1.390 . S
C549 H553 0.950 . S
H550 C546 0.950 . S
C551 C549 1.390 . S
C551 C552 1.387 . S
C551 H554 0.950 . S
C552 C551 1.387 . S
C552 C555 1.387 . S
H553 C549 0.950 . S
H554 C551 0.950 . S
C555 C546 1.390 . S
C555 H548 0.950 . S
C555 C552 1.387 . S
C556 C557 1.387 . S
C556 H560 0.950 . S
C556 C565 1.390 . S
C557 C556 1.387 . S
C557 C559 1.387 . S
H558 C565 0.950 . S
C559 C557 1.387 . S
C559 C561 1.390 . S
C559 H563 0.950 . S
H560 C556 0.950 . S
C561 C559 1.390 . S
C561 C562 1.387 . S
C561 H564 0.950 . S
C562 C561 1.387 . S
C562 C565 1.387 . S
H563 C559 0.950 . S
H564 C561 0.950 . S
C565 C556 1.390 . S
C565 H558 0.950 . S
C565 C562 1.387 . S
C566 C567 1.387 . S
C566 H570 0.950 . S
C566 C575 1.390 . S
C567 C566 1.387 . S
C567 C569 1.387 . S
H568 C575 0.950 . S
C569 C567 1.387 . S
C569 C571 1.390 . S
C569 H573 0.950 . S
H570 C566 0.950 . S
C571 C569 1.390 . S
C571 C572 1.387 . S
C571 H574 0.950 . S
C572 C571 1.387 . S
C572 C575 1.387 . S
H573 C569 0.950 . S
H574 C571 0.950 . S
C575 C566 1.390 . S
C575 H568 0.950 . S
C575 C572 1.387 . S
C576 C577 1.387 . S
C576 H580 0.950 . S
C576 C585 1.390 . S
C577 C576 1.387 . S
C577 C579 1.387 . S
H578 C585 0.950 . S
C579 C577 1.387 . S
C579 C581 1.390 . S
C579 H583 0.950 . S
H580 C576 0.950 . S
C581 C579 1.390 . S
C581 C582 1.387 . S
C581 H584 0.950 . S
C582 C581 1.387 . S
C582 C585 1.387 . S
H583 C579 0.950 . S
H584 C581 0.950 . S
C585 C576 1.390 . S
C585 H578 0.950 . S
C585 C582 1.387 . S
C586 C587 1.387 1_455 S
C586 H590 0.950 . S
C586 C595 1.390 . S
C587 C586 1.387 1_655 S
C587 C589 1.387 . S
H588 C595 0.950 . S
C589 C587 1.387 . S
C589 C591 1.390 . S
C589 H593 0.950 . S
H590 C586 0.950 . S
C591 C589 1.390 . S
C591 C592 1.387 . S
C591 H594 0.950 . S
C592 C591 1.387 . S
C592 C595 1.387 1_655 S
H593 C589 0.950 . S
H594 C591 0.950 . S
C595 C586 1.390 . S
C595 H588 0.950 . S
C595 C592 1.387 1_455 S
C596 C597 1.387 . S
C596 H600 0.950 . S
C596 C605 1.390 . S
C597 C596 1.387 . S
C597 C599 1.387 . S
H598 C605 0.950 . S
C599 C597 1.387 . S
C599 C601 1.390 . S
C599 H603 0.950 . S
H600 C596 0.950 . S
C601 C599 1.390 . S
C601 C602 1.387 . S
C601 H604 0.950 . S
C602 C601 1.387 . S
C602 C605 1.387 . S
H603 C599 0.950 . S
H604 C601 0.950 . S
C605 C596 1.390 . S
C605 H598 0.950 . S
C605 C602 1.387 . S
C606 C607 1.387 . S
C606 H610 0.950 . S
C606 C615 1.390 . S
C607 C606 1.387 . S
C607 C609 1.387 . S
H608 C615 0.950 . S
C609 C607 1.387 . S
C609 C611 1.390 . S
C609 H613 0.950 . S
H610 C606 0.950 . S
C611 C609 1.390 . S
C611 C612 1.387 . S
C611 H614 0.950 . S
C612 C611 1.387 . S
C612 C615 1.387 . S
H613 C609 0.950 . S
H614 C611 0.950 . S
C615 C606 1.390 . S
C615 H608 0.950 . S
C615 C612 1.387 . S
C616 C617 1.387 . S
C616 H620 0.950 . S
C616 C625 1.390 . S
C617 C616 1.387 . S
C617 C619 1.387 . S
H618 C625 0.950 . S
C619 C617 1.387 . S
C619 C621 1.390 . S
C619 H623 0.950 . S
H620 C616 0.950 . S
C621 C619 1.390 . S
C621 C622 1.387 . S
C621 H624 0.950 . S
C622 C621 1.387 . S
C622 C625 1.387 . S
H623 C619 0.950 . S
H624 C621 0.950 . S
C625 C616 1.390 . S
C625 H618 0.950 . S
C625 C622 1.387 . S
C626 C627 1.387 . S
C626 H630 0.950 . S
C626 C635 1.390 . S
C627 C626 1.387 . S
C627 C629 1.387 . S
H628 C635 0.950 . S
C629 C627 1.387 . S
C629 C631 1.390 . S
C629 H633 0.950 . S
H630 C626 0.950 . S
C631 C629 1.390 . S
C631 C632 1.387 . S
C631 H634 0.950 . S
C632 C631 1.387 . S
C632 C635 1.387 . S
H633 C629 0.950 . S
H634 C631 0.950 . S
C635 C626 1.390 . S
C635 H628 0.950 . S
C635 C632 1.387 . S
C636 C637 1.387 . S
C636 H640 0.950 . S
C636 C645 1.390 . S
C637 C636 1.387 . S
C637 C639 1.387 . S
H638 C645 0.950 . S
C639 C637 1.387 . S
C639 C641 1.390 . S
C639 H643 0.950 . S
H640 C636 0.950 . S
C641 C639 1.390 . S
C641 C642 1.387 . S
C641 H644 0.950 1_455 S
C642 C641 1.387 . S
C642 C645 1.387 . S
H643 C639 0.950 . S
H644 C641 0.950 1_655 S
C645 C636 1.390 . S
C645 H638 0.950 . S
C645 C642 1.387 . S
C646 C647 1.387 . S
C646 H650 0.950 . S
C646 C655 1.390 . S
C647 C646 1.387 . S
C647 C649 1.387 . S
H648 C655 0.950 . S
C649 C647 1.387 . S
C649 C651 1.390 . S
C649 H653 0.950 . S
H650 C646 0.950 . S
C651 C649 1.390 . S
C651 C652 1.387 . S
C651 H654 0.950 . S
C652 C651 1.387 . S
C652 C655 1.387 . S
H653 C649 0.950 . S
H654 C651 0.950 . S
C655 C646 1.390 . S
C655 H648 0.950 . S
C655 C652 1.387 . S
C417 C29 1.262 . S
C422 C273 1.266 . S
C427 C49 1.048 . S
C432 C313 1.228 . S
C442 C338 2.492 . S
C437 C93 2.499 . S
C447 C119 2.419 . S
C452 C378 2.404 . S
C462 C309 1.806 . S
C457 C17 1.772 . S
C472 C269 1.859 . S
C467 C61 1.539 . S
C482 C400 1.805 . S
C477 C81 1.801 . S
C492 C360 1.811 . S
C487 C125 1.829 . S
C497 C23 1.559 . S
C502 C402 1.517 . S
C512 C319 2.196 . S
C507 C87 2.183 . S
C517 C113 2.237 . S
C522 C279 2.225 . S
C527 C55 1.339 . S
C532 C362 1.553 . S
C542 C282 1.276 . S
C537 C157 1.071 . S
C547 C189 1.295 . S
C552 C322 1.276 . S
C557 C221 2.498 . S
C562 C359 2.460 . S
C567 C253 2.473 . S
C572 C399 2.483 . S
C577 C145 1.596 . S
C582 C320 1.885 . S
C592 C280 1.851 . S
C587 C183 1.820 . S
C602 C389 1.832 . S
C597 C209 1.813 . S
C612 C349 1.790 . S
C607 C247 1.796 . S
C617 C151 1.363 . S
C622 C393 1.536 . S
C632 C298 2.187 . S
C627 C215 2.213 . S
C642 C258 2.215 . S
C637 C241 2.198 . S
C647 C177 1.587 . S
C652 C353 1.544 . S
