# Generated by pormake.
# Topology zzz, (3,6)-cn, num edge types: 1
# Building blocks:
#     Node 0, Type 0, BuildingBlock: CUQRIR_clean_linker_1, # of connection points: 3
#     Node 1, Type 0, BuildingBlock: CUQRIR_clean_linker_1, # of connection points: 3
#     Node 2, Type 0, BuildingBlock: CUQRIR_clean_linker_1, # of connection points: 3
#     Node 3, Type 0, BuildingBlock: CUQRIR_clean_linker_1, # of connection points: 3
#     Node 4, Type 0, BuildingBlock: CUQRIR_clean_linker_1, # of connection points: 3
#     Node 5, Type 0, BuildingBlock: CUQRIR_clean_linker_1, # of connection points: 3
#     Node 6, Type 0, BuildingBlock: CUQRIR_clean_linker_1, # of connection points: 3
#     Node 7, Type 0, BuildingBlock: CUQRIR_clean_linker_1, # of connection points: 3
#     Node 8, Type 1, BuildingBlock: BETDAH_clean_sbu_0, # of connection points: 6
#     Node 9, Type 1, BuildingBlock: BETDAH_clean_sbu_0, # of connection points: 6
#     Node 10, Type 1, BuildingBlock: BETDAH_clean_sbu_0, # of connection points: 6
#     Node 11, Type 1, BuildingBlock: BETDAH_clean_sbu_0, # of connection points: 6
#     Edge 12, Type (0, 1), BuildingBlock: ZUJKAS_clean_linker_0, # of connection points: 2
#     Edge 13, Type (0, 1), BuildingBlock: ZUJKAS_clean_linker_0, # of connection points: 2
#     Edge 14, Type (0, 1), BuildingBlock: ZUJKAS_clean_linker_0, # of connection points: 2
#     Edge 15, Type (0, 1), BuildingBlock: ZUJKAS_clean_linker_0, # of connection points: 2
#     Edge 16, Type (0, 1), BuildingBlock: ZUJKAS_clean_linker_0, # of connection points: 2
#     Edge 17, Type (0, 1), BuildingBlock: ZUJKAS_clean_linker_0, # of connection points: 2
#     Edge 18, Type (0, 1), BuildingBlock: ZUJKAS_clean_linker_0, # of connection points: 2
#     Edge 19, Type (0, 1), BuildingBlock: ZUJKAS_clean_linker_0, # of connection points: 2
#     Edge 20, Type (0, 1), BuildingBlock: ZUJKAS_clean_linker_0, # of connection points: 2
#     Edge 21, Type (0, 1), BuildingBlock: ZUJKAS_clean_linker_0, # of connection points: 2
#     Edge 22, Type (0, 1), BuildingBlock: ZUJKAS_clean_linker_0, # of connection points: 2
#     Edge 23, Type (0, 1), BuildingBlock: ZUJKAS_clean_linker_0, # of connection points: 2
#     Edge 24, Type (0, 1), BuildingBlock: ZUJKAS_clean_linker_0, # of connection points: 2
#     Edge 25, Type (0, 1), BuildingBlock: ZUJKAS_clean_linker_0, # of connection points: 2
#     Edge 26, Type (0, 1), BuildingBlock: ZUJKAS_clean_linker_0, # of connection points: 2
#     Edge 27, Type (0, 1), BuildingBlock: ZUJKAS_clean_linker_0, # of connection points: 2
#     Edge 28, Type (0, 1), BuildingBlock: ZUJKAS_clean_linker_0, # of connection points: 2
#     Edge 29, Type (0, 1), BuildingBlock: ZUJKAS_clean_linker_0, # of connection points: 2
#     Edge 30, Type (0, 1), BuildingBlock: ZUJKAS_clean_linker_0, # of connection points: 2
#     Edge 31, Type (0, 1), BuildingBlock: ZUJKAS_clean_linker_0, # of connection points: 2
#     Edge 32, Type (0, 1), BuildingBlock: ZUJKAS_clean_linker_0, # of connection points: 2
#     Edge 33, Type (0, 1), BuildingBlock: ZUJKAS_clean_linker_0, # of connection points: 2
#     Edge 34, Type (0, 1), BuildingBlock: ZUJKAS_clean_linker_0, # of connection points: 2
#     Edge 35, Type (0, 1), BuildingBlock: ZUJKAS_clean_linker_0, # of connection points: 2
# Relax obj value: 0.245
# Max RMSD: 0.178
# Mean RMSD: 0.160
data_MOF--net-zzz--node1-BETDAH_clean_sbu_0--node2-CUQRIR_clean_linker_1--edge1-ZUJKAS_clean_linker_0
_symmetry_space_group_name_H-M    P1
_symmetry_Int_Tables_number       1
_symmetry_cell_setting            triclinic
loop_
_symmetry_equiv_pos_as_xyz
'x, y, z'
_cell_length_a     64.716306
_cell_length_b     64.851064
_cell_length_c     15.431465
_cell_angle_alpha  89.991154
_cell_angle_beta   89.886682
_cell_angle_gamma 89.993941
loop_
_atom_site_label
_atom_site_type_symbol
_atom_site_fract_x
_atom_site_fract_y
_atom_site_fract_z
_atom_type_partial_charge
C0 C 0.74971 0.50877 0.32309 0.0
N1 N 0.76748 0.49876 0.34342 0.0
N2 N 0.73648 0.49599 0.2806 0.0
C3 C 0.74577 0.53119 0.34026 0.0
C4 C 0.747 0.47795 0.27529 0.0
N5 N 0.76573 0.47962 0.31355 0.0
C6 C 0.73929 0.45911 0.22853 0.0
H7 H 0.75321 0.53605 0.40165 0.0
H8 H 0.72894 0.53439 0.34326 0.0
H9 H 0.75258 0.5404 0.28674 0.0
H10 H 0.73471 0.46336 0.16159 0.0
H11 H 0.72534 0.45314 0.26199 0.0
H12 H 0.75099 0.44664 0.22629 0.0
C13 C 0.01898 0.743 0.30536 0.0
N14 N 0.02936 0.76062 0.32508 0.0
N15 N 0.03042 0.73088 0.25139 0.0
C16 C 0.99738 0.73819 0.3345 0.0
C17 C 0.04805 0.74182 0.23937 0.0
N18 N 0.04743 0.75969 0.28414 0.0
C19 C 0.06546 0.73559 0.18033 0.0
H20 H 0.99389 0.74591 0.397 0.0
H21 H 0.9951 0.72133 0.34128 0.0
H22 H 0.98639 0.74392 0.28497 0.0
H23 H 0.06245 0.74178 0.11452 0.0
H24 H 0.06667 0.71855 0.17611 0.0
H25 H 0.08034 0.74204 0.2034 0.0
C26 C 0.7804 0.01613 0.33317 0.0
N27 N 0.76161 0.02546 0.33923 0.0
N28 N 0.79253 0.02574 0.27302 0.0
C29 C 0.78718 0.9983 0.38814 0.0
C30 C 0.78023 0.04099 0.24212 0.0
N31 N 0.76171 0.04094 0.28271 0.0
C32 C 0.78547 0.05453 0.16575 0.0
H33 H 0.77933 0.99866 0.45212 0.0
H34 H 0.80418 0.9985 0.39736 0.0
H35 H 0.78291 0.98373 0.35506 0.0
H36 H 0.79629 0.04664 0.12084 0.0
H37 H 0.7929 0.06886 0.18956 0.0
H38 H 0.77137 0.05889 0.12929 0.0
C39 C 0.51091 0.77138 0.35121 0.0
N40 N 0.50025 0.75391 0.37027 0.0
N41 N 0.49936 0.7842 0.30093 0.0
C42 C 0.53234 0.77604 0.38237 0.0
C43 C 0.48148 0.77368 0.28916 0.0
N44 N 0.48197 0.75547 0.33172 0.0
C45 C 0.46432 0.78041 0.22992 0.0
H46 H 0.53525 0.76851 0.44577 0.0
H47 H 0.53472 0.79293 0.38814 0.0
H48 H 0.54363 0.76991 0.3347 0.0
H49 H 0.47073 0.78807 0.17141 0.0
H50 H 0.45448 0.79176 0.26455 0.0
H51 H 0.45447 0.76726 0.20994 0.0
C52 C 0.28066 0.51898 0.13931 0.0
N53 N 0.26285 0.52951 0.12436 0.0
N54 N 0.29362 0.53017 0.19049 0.0
C55 C 0.28556 0.49809 0.10305 0.0
C56 C 0.28285 0.54766 0.20711 0.0
N57 N 0.26439 0.54731 0.1666 0.0
C58 C 0.2898 0.56441 0.26791 0.0
H59 H 0.27995 0.48617 0.14895 0.0
H60 H 0.30249 0.49615 0.09491 0.0
H61 H 0.27769 0.49577 0.03998 0.0
H62 H 0.30044 0.5749 0.23269 0.0
H63 H 0.29833 0.55771 0.32352 0.0
H64 H 0.27657 0.57361 0.29234 0.0
C65 C 1.00442 0.27394 0.1199 0.0
N66 N 0.99449 0.25568 0.10862 0.0
N67 N 0.99342 0.28654 0.17366 0.0
C68 C 0.02446 0.27963 0.07725 0.0
C69 C 0.97667 0.27504 0.19536 0.0
N70 N 0.97728 0.25651 0.15552 0.0
C71 C 0.96073 0.28115 0.26176 0.0
H72 H 0.02558 0.29657 0.06827 0.0
H73 H 0.02603 0.27175 0.01373 0.0
H74 H 0.03739 0.27456 0.11932 0.0
H75 H 0.94846 0.29026 0.22935 0.0
H76 H 0.96774 0.29085 0.31313 0.0
H77 H 0.95344 0.26745 0.29206 0.0
C78 C 0.24283 1.00857 0.09204 0.0
N79 N 0.26108 0.01849 0.0792 0.0
N80 N 0.22946 0.02063 0.13786 0.0
C81 C 0.23847 0.98689 0.0637 0.0
C82 C 0.2404 0.03811 0.15289 0.0
N83 N 0.25941 0.03685 0.11685 0.0
C84 C 0.23284 0.05589 0.20709 0.0
H85 H 0.24665 0.98339 1.00221 0.0
H86 H 0.22162 0.98442 0.05543 0.0
H87 H 0.24419 0.97612 0.11408 0.0
H88 H 0.22127 0.06476 0.16955 0.0
H89 H 0.24552 0.06652 0.22533 0.0
H90 H 0.22514 0.05005 0.26654 0.0
C91 C 0.5167 0.23511 0.10348 0.0
N92 N 0.52822 0.25225 0.0879 0.0
N93 N 0.5278 0.22093 0.14883 0.0
C94 C 0.49481 0.23213 0.07441 0.0
C95 C 0.54628 0.23026 0.1615 0.0
N96 N 0.54659 0.24908 0.12404 0.0
C97 C 0.56335 0.22159 0.21666 0.0
H98 H 0.48427 0.23814 0.12526 0.0
H99 H 0.49142 0.21551 0.06478 0.0
H100 H 0.49186 0.24074 0.01353 0.0
H101 H 0.57122 0.20908 0.18038 0.0
H102 H 0.55682 0.21477 0.27675 0.0
H103 H 0.57497 0.23346 0.23384 0.0
Ho104 Ho 0.02104 1.00159 0.81136 0.0
Ho105 Ho 1.00424 0.01513 0.61779 0.0
C106 C 1.01243 0.96668 0.66687 0.0
C107 C 0.02569 0.99144 0.97155 0.0
C108 C 0.04126 0.979 0.01649 0.0
C109 C 0.03822 0.97304 0.10279 0.0
C110 C 0.05212 0.95951 0.1426 0.0
C111 C 0.06919 0.95175 0.09628 0.0
C112 C 0.07272 0.9587 0.0113 0.0
C113 C 0.05883 0.97214 0.97167 0.0
C114 C 0.05205 1.00514 0.68952 0.0
C115 C 1.01209 0.05006 0.76426 0.0
C116 C 1.00112 0.02433 0.456 0.0
C117 C 0.98763 0.0371 0.40078 0.0
C118 C 0.99635 0.05338 0.35363 0.0
C119 C 0.98387 0.06653 0.30509 0.0
C120 C 0.96232 0.06357 0.30168 0.0
C121 C 0.95369 0.04666 0.3459 0.0
C122 C 0.96621 0.03358 0.39523 0.0
C123 C 0.97318 0.0121 0.73918 0.0
O124 O 1.01294 0.9709 0.75116 0.0
O125 O 1.01215 0.98121 0.60606 0.0
O126 O 0.03244 1.00887 0.939 0.0
O127 O 0.01375 0.98123 0.91792 0.0
O128 O 0.05511 0.99996 0.76965 0.0
O129 O 0.03302 1.00816 0.68281 0.0
O130 O 1.01125 0.04599 0.67969 0.0
O131 O 1.01292 0.03536 0.82437 0.0
O132 O 0.99284 1.00776 0.49047 0.0
O133 O 0.01327 0.03433 0.50966 0.0
O134 O 0.97034 0.01789 0.6594 0.0
O135 O 0.99209 1.00816 0.74584 0.0
H136 H 0.02472 0.97823 0.13826 0.0
H137 H 0.04884 0.95421 0.20777 0.0
H138 H 0.08581 0.9531 0.97428 0.0
H139 H 0.06146 0.97662 0.90502 0.0
H140 H 1.01283 0.05631 0.35639 0.0
H141 H 0.9911 0.07959 0.27352 0.0
H142 H 0.93722 0.04379 0.34393 0.0
H143 H 0.95903 0.021 0.43026 0.0
Ho144 Ho 0.51655 0.01403 0.80563 0.0
Ho145 Ho 0.50852 0.99234 0.64539 0.0
C146 C 0.55579 1.00276 0.67963 0.0
C147 C 0.52909 0.02891 0.9516 0.0
C148 C 0.54452 0.04469 0.97162 0.0
C149 C 0.54919 0.04947 0.05776 0.0
C150 C 0.56477 0.0637 0.07644 0.0
C151 C 0.57589 0.07329 0.00903 0.0
C152 C 0.57049 0.06903 0.92267 0.0
C153 C 0.55493 0.05482 0.90413 0.0
C154 C 0.50655 0.03977 0.67225 0.0
C155 C 0.47044 1.00317 0.77144 0.0
C156 C 0.49471 0.98211 0.49447 0.0
C157 C 0.47853 0.9912 0.43882 0.0
C158 C 0.45751 0.98716 0.4543 0.0
C159 C 0.44233 0.99749 0.40715 0.0
C160 C 0.44784 0.01207 0.34377 0.0
C161 C 0.46881 0.01571 0.32659 0.0
C162 C 0.48401 1.00525 0.37319 0.0
C163 C 0.51906 0.96636 0.77673 0.0
O164 O 0.54955 1.00898 0.75723 0.0
O165 O 0.54232 0.99658 0.62124 0.0
O166 O 0.51281 0.03566 0.91077 0.0
O167 O 0.53636 1.01186 0.91807 0.0
O168 O 0.50048 0.04214 0.75135 0.0
O169 O 0.51825 0.0243 0.66853 0.0
O170 O 0.47662 1.00323 0.68959 0.0
O171 O 0.48442 1.00308 0.83333 0.0
O172 O 0.48871 0.97312 0.5661 0.0
O173 O 0.51097 0.99365 0.50619 0.0
O174 O 0.52477 0.96417 0.69674 0.0
O175 O 0.50721 0.98176 0.78263 0.0
H176 H 0.5412 0.04181 0.11044 0.0
H177 H 0.5688 0.06641 0.14359 0.0
H178 H 0.5787 0.07626 0.86949 0.0
H179 H 0.55132 0.05139 0.83711 0.0
H180 H 0.45274 0.97642 0.50426 0.0
H181 H 0.42624 0.9945 0.42206 0.0
H182 H 0.47344 0.02667 0.27727 0.0
H183 H 0.50009 1.00856 0.35927 0.0
Ho184 Ho 0.50694 0.51039 0.83531 0.0
Ho185 Ho 0.52193 0.49985 0.64473 0.0
C186 C 0.51357 0.54681 0.69493 0.0
C187 C 0.50436 0.52107 0.99534 0.0
C188 C 0.49216 0.53695 0.04108 0.0
C189 C 0.49438 0.5579 0.02017 0.0
C190 C 0.48178 0.57264 0.05915 0.0
C191 C 0.46646 0.56683 0.11926 0.0
C192 C 0.46452 0.54591 0.14161 0.0
C193 C 0.47728 0.5311 0.10286 0.0
C194 C 0.47439 0.51055 0.72081 0.0
C195 C 0.51409 0.46225 0.78272 0.0
C196 C 0.5266 0.48814 0.48581 0.0
C197 C 0.53601 0.47122 0.43582 0.0
C198 C 0.53 0.45065 0.4487 0.0
C199 C 0.53845 0.43501 0.39769 0.0
C200 C 0.55314 0.43962 0.3333 0.0
C201 C 0.55943 0.46013 0.32146 0.0
C202 C 0.55081 0.47583 0.37198 0.0
C203 C 0.55197 0.50804 0.76347 0.0
O204 O 0.51568 0.54147 0.77761 0.0
O205 O 0.51157 0.53282 0.63297 0.0
O206 O 0.49362 0.50584 0.9623 0.0
O207 O 0.51904 0.52767 0.94328 0.0
O208 O 0.47251 0.51401 0.80312 0.0
O209 O 0.4932 0.50719 0.7078 0.0
O210 O 0.51726 0.46764 0.70048 0.0
O211 O 0.51154 0.47598 0.84564 0.0
O212 O 0.5394 0.50061 0.52517 0.0
O213 O 0.51026 0.48379 0.53259 0.0
O214 O 0.5533 0.51253 0.68176 0.0
O215 O 0.53546 0.49821 0.77628 0.0
H216 H 0.50569 0.56297 0.97294 0.0
H217 H 0.48415 0.58868 0.04229 0.0
H218 H 0.45291 0.54093 0.18772 0.0
H219 H 0.47528 0.51502 0.11995 0.0
H220 H 0.5187 0.4466 0.49773 0.0
H221 H 0.53359 0.41925 0.40905 0.0
H222 H 0.57069 0.46406 0.2721 0.0
H223 H 0.55559 0.49162 0.36073 0.0
Ho224 Ho 1.00845 0.49966 0.81392 0.0
Ho225 Ho 0.02217 0.51372 0.62656 0.0
C226 C 0.97341 0.51043 0.67846 0.0
C227 C 1.00238 0.491 0.97505 0.0
C228 C 0.98861 0.47659 0.02042 0.0
C229 C 0.98005 0.45973 0.9763 0.0
C230 C 0.96552 0.44712 0.01705 0.0
C231 C 0.9592 0.45122 0.1025 0.0
C232 C 0.9686 0.46754 0.14793 0.0
C233 C 0.98318 0.48015 0.10702 0.0
C234 C 1.00719 0.47014 0.68832 0.0
C235 C 0.05724 0.50952 0.77157 0.0
C236 C 0.03095 0.51411 0.46303 0.0
C237 C 0.0429 0.52722 0.40419 0.0
C238 C 0.04533 0.5214 0.31739 0.0
C239 C 0.05825 0.53276 0.26262 0.0
C240 C 0.06891 0.5501 0.29411 0.0
C241 C 0.06561 0.5564 0.3803 0.0
C242 C 0.05273 0.54502 0.43498 0.0
C243 C 0.01851 0.54716 0.73452 0.0
O244 O 0.97822 0.51141 0.76187 0.0
O245 O 0.98776 0.50747 0.61808 0.0
O246 O 0.01688 0.48242 0.92788 0.0
O247 O 0.99325 0.50644 0.93567 0.0
O248 O 0.99467 0.47107 0.75363 0.0
O249 O 0.02065 0.48407 0.69625 0.0
O250 O 0.05355 0.50973 0.68706 0.0
O251 O 0.04221 0.50832 0.83009 0.0
O252 O 0.01422 0.52239 0.49563 0.0
O253 O 0.04173 0.50397 0.52069 0.0
O254 O 0.02453 0.54831 0.65434 0.0
O255 O 0.01513 0.52846 0.74965 0.0
H256 H 0.98416 0.45662 0.90955 0.0
H257 H 0.95872 0.43455 0.98072 0.0
H258 H 0.96387 0.47126 0.21346 0.0
H259 H 0.98969 0.49309 0.14203 0.0
H260 H 0.03772 0.50774 0.29267 0.0
H261 H 0.06041 0.52761 0.19643 0.0
H262 H 0.07385 0.56947 0.40695 0.0
H263 H 0.051 0.54968 0.50202 0.0
H264 H 0.21912 0.98894 0.24408 0.0
H265 H 0.18616 0.9844 0.32165 0.0
H266 H 0.16142 0.03768 0.19075 0.0
H267 H 0.19422 0.04195 0.11267 0.0
H268 H 0.1581 0.03987 0.37085 0.0
H269 H 0.12751 0.96519 0.25126 0.0
H270 H 0.15396 0.96441 0.28661 0.0
H271 H 0.1471 0.97962 0.19371 0.0
C272 C 0.2064 0.99924 0.23009 0.0
C273 C 0.20919 0.01578 0.17233 0.0
C274 C 0.18756 0.99669 0.2745 0.0
C275 C 0.17115 1.01063 0.26191 0.0
C276 C 0.17375 0.02669 0.20168 0.0
H277 H 0.04759 1.00885 0.51194 0.0
H278 H 0.07542 1.01027 0.40242 0.0
C279 C 0.19249 0.02915 0.15713 0.0
C280 C 0.15214 1.0098 0.31726 0.0
H281 H 0.11118 0.97938 0.37663 0.0
C282 C 0.14778 0.02668 0.37144 0.0
C283 C 0.13849 0.99271 0.31788 0.0
C284 C 0.14182 0.9745 0.25876 0.0
C285 C 0.13065 0.02669 0.42777 0.0
C286 C 0.11742 1.00933 0.43069 0.0
C287 C 0.12134 0.99267 0.37471 0.0
C288 C 0.10029 1.00787 0.49543 0.0
C289 C 0.12687 0.04525 0.48454 0.0
C290 C 0.10496 1.00588 0.58378 0.0
C291 C 0.08919 1.00503 0.64586 0.0
C292 C 0.06831 1.00628 0.6214 0.0
C293 C 0.06353 1.00812 0.53282 0.0
C294 C 0.07941 1.00879 0.47026 0.0
H295 H 0.13559 0.05897 0.46167 0.0
H296 H 0.11015 0.04911 0.48662 0.0
H297 H 0.1319 0.0417 0.55161 0.0
H298 H 0.1209 1.00498 0.60482 0.0
H299 H 0.0934 1.00349 0.71347 0.0
H300 H 0.49763 0.21345 0.2663 0.0
H301 H 0.4916 0.1808 0.34417 0.0
H302 H 0.53837 0.15134 0.18782 0.0
H303 H 0.54458 0.18403 0.11188 0.0
H304 H 0.48061 0.14087 0.29924 0.0
H305 H 0.56043 0.14177 0.42922 0.0
H306 H 0.54933 0.16363 0.3741 0.0
H307 H 0.55945 0.14223 0.31309 0.0
C308 C 0.50625 0.19984 0.24773 0.0
C309 C 0.52157 0.20117 0.18339 0.0
C310 C 0.50291 0.18122 0.29238 0.0
C311 C 0.51488 0.16364 0.27351 0.0
C312 C 0.52931 0.16474 0.20542 0.0
H313 H 0.5272 0.04194 0.51696 0.0
H314 H 0.52799 0.07099 0.41474 0.0
C315 C 0.53273 0.18334 0.16144 0.0
C316 C 0.51298 0.1445 0.32724 0.0
H317 H 0.54062 0.11182 0.45727 0.0
C318 C 0.49373 0.13456 0.33388 0.0
C319 C 0.53007 0.13617 0.37286 0.0
C320 C 0.55094 0.14658 0.37282 0.0
C321 C 0.4912 0.11647 0.38367 0.0
C322 C 0.5083 0.1082 0.42912 0.0
C323 C 0.52754 0.11805 0.42205 0.0
C324 C 0.50647 0.08985 0.48728 0.0
C325 C 0.47032 0.10616 0.38625 0.0
C326 C 0.49407 0.09068 0.56205 0.0
C327 C 0.49371 0.07417 0.62074 0.0
C328 C 0.50574 0.05644 0.60608 0.0
C329 C 0.51775 0.05538 0.53012 0.0
C330 C 0.51823 0.07198 0.47169 0.0
H331 H 0.46038 0.11115 0.33147 0.0
H332 H 0.47191 0.08912 0.38423 0.0
H333 H 0.46237 0.11033 0.44756 0.0
H334 H 0.48513 0.10438 0.57647 0.0
H335 H 0.48431 0.07548 0.67865 0.0
H336 H 0.32898 0.55125 0.16737 0.0
H337 H 0.36189 0.54585 0.2427 0.0
H338 H 0.33619 0.49258 0.37108 0.0
H339 H 0.30337 0.49791 0.29396 0.0
H340 H 0.36811 0.54831 0.41148 0.0
H341 H 0.39216 0.47043 0.30495 0.0
H342 H 0.372 0.48474 0.25107 0.0
H343 H 0.36651 0.47077 0.34924 0.0
C344 C 0.3306 0.53814 0.21024 0.0
C345 C 0.31376 0.5249 0.22445 0.0
C346 C 0.34937 0.53507 0.25356 0.0
C347 C 0.35176 0.51868 0.31237 0.0
C348 C 0.33505 0.50505 0.3247 0.0
H349 H 0.43361 0.51594 0.75403 0.0
H350 H 0.40498 0.51777 0.6512 0.0
C351 C 0.31627 0.50807 0.28075 0.0
C352 C 0.37103 0.51705 0.36581 0.0
H353 H 0.40963 0.48416 0.42907 0.0
C354 C 0.37723 0.53429 0.41455 0.0
C355 C 0.38324 0.4989 0.36955 0.0
C356 C 0.37828 0.48023 0.31523 0.0
C357 C 0.39477 0.53373 0.46828 0.0
C358 C 0.40639 0.51531 0.47523 0.0
C359 C 0.40063 0.49823 0.42461 0.0
C360 C 0.424 0.51338 0.53728 0.0
C361 C 0.4008 0.55298 0.51702 0.0
C362 C 0.44431 0.50983 0.50803 0.0
C363 C 0.46082 0.50877 0.56715 0.0
C364 C 0.45727 0.51101 0.65662 0.0
C365 C 0.4369 0.5142 0.68556 0.0
C366 C 0.42049 0.51533 0.62673 0.0
H367 H 0.39397 0.56703 0.4874 0.0
H368 H 0.39507 0.55186 0.58469 0.0
H369 H 0.41786 0.55479 0.51895 0.0
H370 H 0.44744 0.50827 0.43936 0.0
H371 H 0.47633 0.50649 0.54281 0.0
H372 H 0.02846 0.29838 0.25613 0.0
H373 H 0.0344 0.33138 0.33074 0.0
H374 H 0.97494 0.35313 0.24408 0.0
H375 H 0.96943 0.32048 0.16731 0.0
H376 H 1.00347 0.38411 0.2406 0.0
H377 H 1.00601 0.34409 0.55846 0.0
H378 H 0.02526 0.33551 0.48278 0.0
H379 H 0.99835 0.33119 0.46015 0.0
C380 C 0.01694 0.31043 0.25144 0.0
C381 C 0.99844 0.30686 0.20639 0.0
C382 C 0.02019 0.32919 0.29502 0.0
C383 C 1.0049 0.34467 0.29504 0.0
C384 C 0.98693 0.34148 0.24586 0.0
H385 H 0.97966 0.43872 0.67581 0.0
H386 H 0.98008 0.40944 0.57615 0.0
C387 C 0.98375 0.3228 0.20215 0.0
C388 C 1.00695 0.36368 0.34962 0.0
H389 H 1.01136 0.38003 0.5597 0.0
C390 C 1.00535 0.3832 0.31031 0.0
C391 C 1.00901 0.36261 0.44099 0.0
C392 C 1.00956 0.34226 0.48841 0.0
C393 C 1.00575 0.40155 0.35957 0.0
C394 C 1.00811 0.40043 0.45067 0.0
C395 C 1.00978 0.38094 0.48984 0.0
C396 C 1.00761 0.41909 0.50761 0.0
C397 C 1.00291 0.42195 0.31414 0.0
C398 C 0.02294 0.43446 0.50256 0.0
C399 C 0.02278 0.4513 0.56013 0.0
C400 C 1.00728 0.45308 0.62377 0.0
C401 C 0.99184 0.43783 0.62769 0.0
C402 C 0.99206 0.42104 0.57068 0.0
H403 H 0.99702 0.41999 0.24704 0.0
H404 H 0.99199 0.43193 0.35064 0.0
H405 H 0.01799 0.43005 0.3107 0.0
H406 H 0.03529 0.4332 0.45543 0.0
H407 H 0.03495 0.4627 0.55582 0.0
H408 H 0.82441 0.05234 0.26047 0.0
H409 H 0.85717 0.0468 0.18471 0.0
H410 H 0.84141 0.98273 0.14888 0.0
H411 H 0.80786 0.98878 0.21954 0.0
H412 H 0.89071 0.02539 0.19865 0.0
H413 H 0.85047 0.99793 0.90357 0.0
H414 H 0.83666 1.00816 0.99534 0.0
H415 H 0.84577 0.9819 0.9961 0.0
C416 C 0.828 0.03706 0.23661 0.0
C417 C 0.8134 0.0211 0.2445 0.0
C418 C 0.84682 0.03384 0.19357 0.0
C419 C 0.8517 0.01447 0.15812 0.0
C420 C 0.83783 0.99803 0.17252 0.0
H421 H 0.97475 0.99645 0.90617 0.0
H422 H 0.94655 0.99573 0.01359 0.0
C423 C 0.81877 1.00137 0.21437 0.0
C424 C 0.87066 0.01206 0.1025 0.0
H425 H 0.88676 0.99769 0.8999 0.0
C426 C 0.88983 0.01926 0.13338 0.0
C427 C 0.86966 1.00438 0.01648 0.0
C428 C 0.84952 0.99785 0.97548 0.0
C429 C 0.90774 0.01933 0.08081 0.0
C430 C 0.90674 1.01133 0.99535 0.0
C431 C 0.8877 1.00372 0.96535 0.0
C432 C 0.92459 0.01209 0.93295 0.0
C433 C 0.92725 0.02885 0.11626 0.0
C434 C 0.92178 0.02112 0.851 0.0
C435 C 0.93768 0.02115 0.78946 0.0
C436 C 0.957 0.01229 0.80793 0.0
C437 C 0.96009 1.00349 0.89021 0.0
C438 C 0.94398 1.00323 0.9519 0.0
H439 H 0.92401 0.03917 0.17214 0.0
H440 H 0.93771 0.01643 0.13903 0.0
H441 H 0.93547 0.03788 0.0657 0.0
H442 H 0.90713 0.02813 0.83419 0.0
H443 H 0.93477 0.02811 0.72685 0.0
H444 H 0.47905 0.82027 0.31696 0.0
H445 H 0.48534 0.85219 0.23515 0.0
H446 H 0.53822 0.82401 0.1128 0.0
H447 H 0.53172 0.79198 0.19433 0.0
H448 H 0.52111 0.87881 0.22078 0.0
H449 H 0.50064 0.84165 0.90795 0.0
H450 H 0.49441 0.83019 0.01137 0.0
H451 H 0.52034 0.82891 0.97005 0.0
C452 C 0.49214 0.82105 0.27327 0.0
C453 C 0.5049 0.80372 0.26179 0.0
C454 C 0.49575 0.83926 0.22664 0.0
C455 C 0.51209 0.84046 0.16677 0.0
C456 C 0.52536 0.82339 0.15771 0.0
H457 H 0.54252 0.93149 0.76871 0.0
H458 H 0.54216 0.9019 0.86725 0.0
C459 C 0.5218 0.80519 0.20484 0.0
C460 C 0.51461 0.85925 0.1116 0.0
H461 H 0.51154 0.87626 0.90219 0.0
C462 C 0.51906 0.87826 0.15108 0.0
C463 C 0.51192 0.8586 0.02061 0.0
C464 C 0.5064 0.83882 0.97467 0.0
C465 C 0.52118 0.89652 0.10207 0.0
C466 C 0.51822 0.89593 0.01103 0.0
C467 C 0.51386 0.87685 0.97173 0.0
C468 C 0.51942 0.91478 0.95494 0.0
C469 C 0.52704 0.91615 0.14834 0.0
C470 C 0.50687 0.93212 0.971 0.0
C471 C 0.50723 0.9492 0.91497 0.0
C472 C 0.51989 0.9492 0.84076 0.0
C473 C 0.53258 0.93198 0.82526 0.0
C474 C 0.53235 0.91501 0.88158 0.0
H475 H 0.53499 0.91289 0.21061 0.0
H476 H 0.53731 0.9259 0.10769 0.0
H477 H 0.51283 0.92505 0.16329 0.0
H478 H 0.49635 0.93224 0.02559 0.0
H479 H 0.49714 0.96214 0.92839 0.0
H480 H 0.69959 0.47839 0.31458 0.0
H481 H 0.66735 0.48275 0.23249 0.0
H482 H 0.69702 0.52839 0.07162 0.0
H483 H 0.72935 0.52372 0.15324 0.0
H484 H 0.642 0.51778 0.19673 0.0
H485 H 0.67626 0.48511 0.89647 0.0
H486 H 0.68845 0.48258 1.00103 0.0
H487 H 0.69019 0.50644 0.94225 0.0
C488 C 0.69909 0.48944 0.26207 0.0
C489 C 0.71691 0.50066 0.2399 0.0
C490 C 0.68069 0.49197 0.21532 0.0
C491 C 0.67978 0.50566 0.14478 0.0
C492 C 0.69739 0.5175 0.12478 0.0
H493 H 0.58835 0.52852 0.74138 0.0
H494 H 0.61838 0.52902 0.8375 0.0
C495 C 0.71578 0.51501 0.17186 0.0
C496 C 0.66067 0.50695 0.0906 0.0
H497 H 0.6423 0.49807 0.88625 0.0
C498 C 0.64205 0.51348 0.12882 0.0
C499 C 0.66065 0.50126 1.00199 0.0
C500 C 0.67988 0.49328 0.95788 0.0
C501 C 0.62359 0.5149 0.08058 0.0
C502 C 0.62355 0.50914 0.99187 0.0
C503 C 0.6422 0.50256 0.95394 0.0
C504 C 0.6045 0.50985 0.93665 0.0
C505 C 0.60446 0.52306 0.12483 0.0
C506 C 0.58646 0.49901 0.95986 0.0
C507 C 0.56912 0.4989 0.90509 0.0
C508 C 0.56956 0.50936 0.82523 0.0
C509 C 0.58751 0.52032 0.80243 0.0
C510 C 0.60474 0.52056 0.85739 0.0
H511 H 0.60839 0.53252 0.18251 0.0
H512 H 0.59505 0.53259 0.07996 0.0
H513 H 0.59488 0.5099 0.14722 0.0
H514 H 0.58593 0.49016 0.01931 0.0
H515 H 0.55559 0.49017 0.92421 0.0
H516 H 0.02654 0.72511 0.07953 0.0
H517 H 0.02251 0.69211 1.00335 0.0
H518 H 0.01841 0.66055 0.24867 0.0
H519 H 0.02279 0.6937 0.32484 0.0
H520 H 0.05101 0.65747 0.02871 0.0
H521 H 0.96929 0.63666 0.10001 0.0
H522 H 0.9785 0.66293 0.10573 0.0
H523 H 0.98518 0.6449 0.18919 0.0
C524 C 0.02442 0.71114 0.11695 0.0
C525 C 0.0248 0.71193 0.20793 0.0
C526 C 0.02216 0.6923 0.07354 0.0
C527 C 0.02002 0.6738 0.12008 0.0
C528 C 0.01972 0.67462 0.21122 0.0
H529 H 1.01106 0.54669 0.91094 0.0
H530 H 1.0117 0.57635 0.01095 0.0
C531 C 0.02213 0.69352 0.25475 0.0
C532 C 0.01968 0.6537 0.07272 0.0
H533 H 0.98867 0.61308 0.01652 0.0
C534 C 0.03739 0.64775 0.02634 0.0
C535 C 1.00204 0.64082 0.07048 0.0
C536 C 0.98256 0.64657 0.11849 0.0
C537 C 0.03787 0.62949 0.97703 0.0
C538 C 0.01993 0.61701 0.97155 0.0
C539 C 1.00239 0.62263 0.02013 0.0
C540 C 0.01885 0.59887 0.91172 0.0
C541 C 0.05772 0.62369 0.93167 0.0
C542 C 0.0222 0.6016 0.82249 0.0
C543 C 0.02189 0.58477 0.76579 0.0
C544 C 0.018 0.56472 0.79646 0.0
C545 C 0.01412 0.56194 0.88543 0.0
C546 C 0.01448 0.57889 0.94254 0.0
H547 H 0.07134 0.63074 0.96387 0.0
H548 H 0.05985 0.60671 0.93 0.0
H549 H 0.05727 0.62946 0.864 0.0
H550 H 0.0251 0.61684 0.79646 0.0
H551 H 0.02478 0.58748 0.69756 0.0
H552 H 0.93749 0.2505 0.10952 0.0
H553 H 0.91744 0.21835 0.12911 0.0
H554 H 0.96955 0.19107 0.26053 0.0
H555 H 0.98913 0.22297 0.2414 0.0
H556 H 0.92772 0.1796 0.06548 0.0
H557 H 0.92192 0.17606 0.42021 0.0
H558 H 0.92723 0.19985 0.36325 0.0
H559 H 0.94794 0.18243 0.39077 0.0
C560 C 0.94426 0.23766 0.14423 0.0
C561 C 0.96461 0.23894 0.17484 0.0
C562 C 0.93294 0.21941 0.15508 0.0
C563 C 0.94187 0.2025 0.19788 0.0
C564 C 0.96213 0.2041 0.2296 0.0
H565 H 0.9697 0.08544 0.15267 0.0
H566 H 0.95429 0.11823 0.11447 0.0
C567 C 0.97335 0.22218 0.21838 0.0
C568 C 0.93127 0.18235 0.20385 0.0
H569 H 0.9274 0.14275 0.34683 0.0
C570 C 0.92696 0.17159 0.1271 0.0
C571 C 0.92933 0.17212 0.28417 0.0
C572 C 0.93161 0.18335 0.3692 0.0
C573 C 0.92384 0.15015 0.12808 0.0
C574 C 0.92543 0.13938 0.20762 0.0
C575 C 0.92666 0.15072 0.28513 0.0
C576 C 0.93014 0.11696 0.21209 0.0
C577 C 0.92003 0.13923 0.04339 0.0
C578 C 0.9214 0.10469 0.27767 0.0
C579 C 0.93082 0.08619 0.30212 0.0
C580 C 0.94902 0.07952 0.26064 0.0
C581 C 0.95608 0.09045 0.18772 0.0
C582 C 0.94693 0.10912 0.16449 0.0
H583 H 0.90964 0.14857 1.00171 0.0
H584 H 0.93488 0.1375 0.00798 0.0
H585 H 0.91304 0.12377 0.05314 0.0
H586 H 0.90839 0.1103 0.31515 0.0
H587 H 0.92486 0.07818 0.35841 0.0
H588 H 0.27882 0.04338 0.26646 0.0
H589 H 0.31397 0.05607 0.28115 0.0
H590 H 0.31438 0.07309 0.01038 0.0
H591 H 0.27932 0.05909 0.99573 0.0
H592 H 0.34385 0.04982 0.03322 0.0
H593 H 0.35038 0.10355 0.30344 0.0
H594 H 0.33515 0.08268 0.34402 0.0
H595 H 0.32559 0.09811 0.25493 0.0
C596 C 0.28611 0.05084 0.21154 0.0
C597 C 0.27654 0.05051 0.13036 0.0
C598 C 0.30621 0.05824 0.21976 0.0
C599 C 0.31693 0.06589 0.14714 0.0
C600 C 0.30648 0.0674 0.06754 0.0
H601 H 0.44602 0.05362 0.31332 0.0
H602 H 0.41767 0.07284 0.24496 0.0
C603 C 0.28646 0.05957 0.0591 0.0
C604 C 0.33982 0.06753 0.15086 0.0
H605 H 0.3779 0.0756 0.29936 0.0
C606 C 0.35136 0.05627 0.08975 0.0
C607 C 0.35016 0.07638 0.22257 0.0
C608 C 0.33958 0.09106 0.28406 0.0
C609 C 0.37207 0.0513 0.10491 0.0
C610 C 0.38113 0.05691 0.18453 0.0
C611 C 0.37066 0.07059 0.23963 0.0
C612 C 0.39931 0.0457 0.21827 0.0
C613 C 0.38361 0.03891 0.03794 0.0
C614 C 0.3983 0.02415 0.22593 0.0
C615 C 0.41432 0.01322 0.26466 0.0
C616 C 0.43164 0.02364 0.29703 0.0
C617 C 0.43289 0.04521 0.288 0.0
C618 C 0.41673 0.0562 0.24941 0.0
H619 H 0.37939 0.0442 0.97192 0.0
H620 H 0.40062 0.04025 0.04545 0.0
H621 H 0.37916 0.02245 0.04392 0.0
H622 H 0.38479 0.01577 0.20411 0.0
H623 H 0.41303 0.99662 0.27031 0.0
H624 H 0.5806 0.25937 0.03237 0.0
H625 H 0.5988 0.29274 0.042 0.0
H626 H 0.56212 0.30845 0.26638 0.0
H627 H 0.54374 0.27564 0.25436 0.0
H628 H 0.57394 0.32921 0.02714 0.0
H629 H 0.6201 0.33099 0.32715 0.0
H630 H 0.61415 0.30729 0.27052 0.0
H631 H 0.59573 0.31846 0.34455 0.0
C632 C 0.57712 0.26978 0.08525 0.0
C633 C 0.5609 0.26533 0.14264 0.0
C634 C 0.58743 0.28871 0.09072 0.0
C635 C 0.58195 0.3029 0.15549 0.0
C636 C 0.5669 0.29753 0.2171 0.0
H637 H 0.53197 0.40934 0.25064 0.0
H638 H 0.54614 0.37878 0.18076 0.0
C639 C 0.55639 0.2789 0.21042 0.0
C640 C 0.58861 0.32463 0.15106 0.0
H641 H 0.60181 0.36306 0.29025 0.0
C642 C 0.58087 0.33668 0.0829 0.0
C643 C 0.59793 0.33433 0.22289 0.0
C644 C 0.60765 0.32204 0.29499 0.0
C645 C 0.57965 0.35818 0.09054 0.0
C646 C 0.58611 0.3676 0.16851 0.0
C647 C 0.59652 0.3558 0.23097 0.0
C648 C 0.57813 0.388 0.19526 0.0
C649 C 0.56992 0.37041 0.01821 0.0
C650 C 0.5914 0.40332 0.22721 0.0
C651 C 0.58328 0.42076 0.26843 0.0
C652 C 0.5618 0.42287 0.27937 0.0
C653 C 0.54858 0.40798 0.24377 0.0
C654 C 0.55667 0.39069 0.20246 0.0
H655 H 0.57309 0.36315 0.95434 0.0
H656 H 0.55294 0.37066 0.02739 0.0
H657 H 0.57562 0.38656 0.01732 0.0
H658 H 0.608 0.40136 0.22349 0.0
H659 H 0.59378 0.43201 0.29575 0.0
H660 H 0.25585 0.58315 0.08587 0.0
H661 H 0.22168 0.60008 0.08398 0.0
H662 H 0.20026 0.55754 0.27955 0.0
H663 H 0.23399 0.54049 0.27888 0.0
H664 H 0.18619 0.5744 0.03935 0.0
H665 H 0.17514 0.61415 0.35257 0.0
H666 H 0.20038 0.60982 0.30524 0.0
H667 H 0.18769 0.58965 0.3653 0.0
C668 C 0.24396 0.57812 0.13059 0.0
C669 C 0.2472 0.56071 0.18274 0.0
C670 C 0.22455 0.58765 0.12925 0.0
C671 C 0.20858 0.58016 0.18223 0.0
C672 C 0.21251 0.5638 0.23943 0.0
H673 H 0.09826 0.53075 0.19796 0.0
H674 H 0.13007 0.54552 0.14266 0.0
C675 C 0.23167 0.5541 0.23935 0.0
C676 C 0.18695 0.58661 0.16926 0.0
H677 H 0.14459 0.59775 0.29097 0.0
C678 C 0.17705 0.5803 0.09293 0.0
C679 C 0.17514 0.59458 0.23841 0.0
C680 C 0.18518 0.60264 0.31971 0.0
C681 C 0.15542 0.57935 0.08833 0.0
C682 C 0.14361 0.58459 0.16244 0.0
C683 C 0.15355 0.59345 0.23431 0.0
C684 C 0.12219 0.57705 0.17488 0.0
C685 C 0.14561 0.57142 0.00628 0.0
C686 C 0.10692 0.58984 0.21097 0.0
C687 C 0.08871 0.58131 0.24436 0.0
C688 C 0.08551 0.55987 0.24201 0.0
C689 C 0.10007 0.54735 0.19963 0.0
C690 C 0.11828 0.55583 0.16715 0.0
H691 H 0.15424 0.577 0.94855 0.0
H692 H 0.14636 0.55432 0.00556 0.0
H693 H 0.12921 0.57626 1.00069 0.0
H694 H 0.10964 0.60624 0.21815 0.0
H695 H 0.07763 0.59134 0.27596 0.0
H696 H 0.08487 0.76606 0.35645 0.0
H697 H 0.10422 0.79898 0.3558 0.0
H698 H 0.05832 0.82527 0.1862 0.0
H699 H 0.03917 0.79266 0.1877 0.0
H700 H 0.11561 0.82857 0.18358 0.0
H701 H 0.06211 0.85844 0.43678 0.0
H702 H 0.0718 0.83225 0.4362 0.0
H703 H 0.05193 0.83973 0.36198 0.0
C704 C 0.07942 0.77881 0.31735 0.0
C705 C 0.06077 0.77711 0.27157 0.0
C706 C 0.09032 0.79749 0.31732 0.0
C707 C 0.08257 0.81444 0.27118 0.0
C708 C 0.0645 0.81229 0.22201 0.0
H709 H 0.07981 0.91678 0.01161 0.0
H710 H 0.09283 0.88514 0.07336 0.0
C711 C 0.05366 0.79377 0.22243 0.0
C712 C 0.09193 0.83509 0.27785 0.0
H713 H 0.07685 0.88299 0.3407 0.0
C714 C 0.10774 0.84052 0.22013 0.0
C715 C 0.08216 0.8505 0.32772 0.0
C716 C 0.06614 0.84508 0.39494 0.0
C717 C 0.11218 0.86133 0.20326 0.0
C718 C 0.09985 0.87682 0.24244 0.0
C719 C 0.08609 0.87125 0.30896 0.0
C720 C 0.09723 0.89751 0.20261 0.0
C721 C 0.12915 0.86642 0.13974 0.0
C722 C 0.09529 0.91531 0.2541 0.0
C723 C 0.0873 0.93354 0.21877 0.0
C724 C 0.0813 0.93424 0.13129 0.0
C725 C 0.08465 0.91688 0.07878 0.0
C726 C 0.09234 0.89871 0.11413 0.0
H727 H 0.14258 0.85603 0.14987 0.0
H728 H 0.12354 0.86377 0.07274 0.0
H729 H 0.1344 0.88265 0.14594 0.0
H730 H 0.0988 0.91476 0.32266 0.0
H731 H 0.08501 0.94677 0.26054 0.0
H732 H 0.75994 0.08253 0.28525 0.0
H733 H 0.72961 0.10411 0.25066 0.0
H734 H 0.69417 0.04914 0.19899 0.0
H735 H 0.72441 0.02783 0.23139 0.0
H736 H 0.70443 0.10375 0.08864 0.0
H737 H 0.66069 0.08361 0.38321 0.0
H738 H 0.6882 0.07922 0.37389 0.0
H739 H 0.67009 0.06088 0.32986 0.0
C740 C 0.74561 0.07525 0.26605 0.0
C741 C 0.74422 0.05365 0.26165 0.0
C742 C 0.72841 0.08748 0.24665 0.0
C743 C 0.70967 0.07815 0.22369 0.0
C744 C 0.70845 0.05658 0.21808 0.0
H745 H 0.61319 0.07049 0.92931 0.0
H746 H 0.64592 0.0832 0.98231 0.0
C747 C 0.72561 0.04444 0.23663 0.0
C748 C 0.6911 0.09045 0.20386 0.0
H749 H 0.63996 0.09031 0.25329 0.0
C750 C 0.69037 0.10149 0.1258 0.0
C751 C 0.67297 0.08818 0.25383 0.0
C752 C 0.67311 0.07751 0.34053 0.0
C753 C 0.67137 0.10785 0.09101 0.0
C754 C 0.65286 0.10254 0.13475 0.0
C755 C 0.65402 0.09416 0.21851 0.0
C756 C 0.63283 0.10069 0.08886 0.0
C757 C 0.67127 0.11902 0.00537 0.0
C758 C 0.61429 0.10655 0.12963 0.0
C759 C 0.59538 0.09887 0.10001 0.0
C760 C 0.59475 0.08534 0.02889 0.0
C761 C 0.61309 0.08109 0.98357 0.0
C762 C 0.63193 0.08856 0.01357 0.0
H763 H 0.68429 0.13016 1.00219 0.0
H764 H 0.67356 0.10773 0.95215 0.0
H765 H 0.65655 0.12743 0.99457 0.0
H766 H 0.61458 0.1158 0.18805 0.0
H767 H 0.58142 0.1026 0.13552 0.0
H768 H 0.44612 0.74747 0.41516 0.0
H769 H 0.42721 0.71431 0.41207 0.0
H770 H 0.46931 0.69192 0.2165 0.0
H771 H 0.48819 0.72467 0.22123 0.0
H772 H 0.41307 0.68568 0.2352 0.0
H773 H 0.47179 0.65692 0.46793 0.0
H774 H 0.46191 0.683 0.46988 0.0
H775 H 0.48061 0.67559 0.38961 0.0
C776 C 0.45077 0.73556 0.36999 0.0
C777 C 0.4684 0.7383 0.31812 0.0
C778 C 0.44009 0.71676 0.36833 0.0
C779 C 0.44694 0.70081 0.31401 0.0
C780 C 0.46378 0.70415 0.25842 0.0
H781 H 0.44935 0.60029 0.04031 0.0
H782 H 0.43526 0.63058 0.10987 0.0
C783 C 0.47449 0.72274 0.2608 0.0
C784 C 0.43863 0.67972 0.32068 0.0
H785 H 0.45709 0.63228 0.37217 0.0
C786 C 0.42212 0.67389 0.26747 0.0
C787 C 0.44997 0.66448 0.36519 0.0
C788 C 0.467 0.6702 0.42713 0.0
C789 C 0.41836 0.65299 0.24954 0.0
C790 C 0.43208 0.63787 0.28254 0.0
C791 C 0.44671 0.64371 0.34509 0.0
C792 C 0.43505 0.61757 0.23947 0.0
C793 C 0.40045 0.6475 0.19172 0.0
C794 C 0.43957 0.5998 0.28818 0.0
C795 C 0.44863 0.58261 0.24846 0.0
C796 C 0.45314 0.58288 0.15926 0.0
C797 C 0.44662 0.59982 0.10956 0.0
C798 C 0.43799 0.61705 0.14928 0.0
H799 H 0.38671 0.65692 0.20905 0.0
H800 H 0.40443 0.65121 0.12349 0.0
H801 H 0.3963 0.63092 0.19659 0.0
H802 H 0.4375 0.59976 0.35786 0.0
H803 H 0.45338 0.56977 0.28865 0.0
H804 H 0.78383 0.46089 0.44947 0.0
H805 H 0.81634 0.44119 0.44626 0.0
H806 H 0.81845 0.44773 0.16792 0.0
H807 H 0.78573 0.46666 0.17173 0.0
H808 H 0.83368 0.41031 0.21863 0.0
H809 H 0.86848 0.47328 0.41651 0.0
H810 H 0.84951 0.4574 0.4691 0.0
H811 H 0.84199 0.47411 0.38175 0.0
C812 C 0.79105 0.45745 0.38779 0.0
C813 C 0.78242 0.465 0.31073 0.0
C814 C 0.80963 0.44639 0.3859 0.0
C815 C 0.82004 0.44326 0.30694 0.0
C816 C 0.8107 0.44985 0.22958 0.0
H817 H 0.92314 0.44234 0.02115 0.0
H818 H 0.89087 0.43172 0.0869 0.0
C819 C 0.79205 0.46062 0.2315 0.0
C820 C 0.8416 0.43544 0.30374 0.0
H821 H 0.89087 0.45099 0.34634 0.0
C822 C 0.84621 0.41892 0.24806 0.0
C823 C 0.85803 0.44628 0.34372 0.0
C824 C 0.85438 0.46385 0.40576 0.0
C825 C 0.86669 0.41421 0.22536 0.0
C826 C 0.8829 0.42663 0.2577 0.0
C827 C 0.87844 0.4416 0.32058 0.0
C828 C 0.90352 0.42752 0.21563 0.0
C829 C 0.87065 0.39653 0.1641 0.0
C830 C 0.92165 0.42859 0.26555 0.0
C831 C 0.94025 0.43505 0.22792 0.0
C832 C 0.941 0.44048 0.13975 0.0
C833 C 0.9232 0.43795 0.08887 0.0
C834 C 0.90467 0.43168 0.12648 0.0
H835 H 0.85968 0.3837 0.17686 0.0
H836 H 0.86805 0.40178 0.09654 0.0
H837 H 0.88669 0.39059 0.16977 0.0
H838 H 0.92113 0.42561 0.33459 0.0
H839 H 0.95379 0.43667 0.26851 0.0
H840 H 0.97229 0.23827 0.98154 0.0
H841 H 0.97769 0.20413 0.91697 0.0
H842 H 0.03484 0.19805 0.05766 0.0
H843 H 0.02923 0.23236 0.12303 0.0
H844 H 0.03537 0.1823 0.87633 0.0
H845 H 0.97039 0.15197 0.07342 0.0
H846 H 0.96421 0.17435 0.00972 0.0
H847 H 0.98269 0.17633 0.096 0.0
C848 C 0.98625 0.22983 0.99686 0.0
C849 C 1.0004 0.23798 0.05676 0.0
C850 C 0.98926 0.21026 0.96055 0.0
C851 C 1.00653 0.19832 0.98324 0.0
C852 C 0.02138 0.20694 0.03913 0.0
H853 H 1.01294 0.06444 0.93157 0.0
H854 H 1.01258 0.10005 0.98228 0.0
C855 C 0.0183 0.22659 0.07586 0.0
C856 C 1.00818 0.17647 0.95283 0.0
H857 H 0.98387 0.12968 0.96527 0.0
C858 C 0.02416 0.17077 0.89589 0.0
C859 C 0.99377 0.16127 0.97928 0.0
C860 C 0.97688 0.16615 0.0436 0.0
C861 C 0.02579 0.15047 0.86326 0.0
C862 C 1.01087 0.13545 0.88716 0.0
C863 C 0.99519 0.14111 0.94575 0.0
C864 C 1.0115 0.11366 0.8544 0.0
C865 C 0.04373 0.14523 0.80478 0.0
C866 C 1.01078 0.10916 0.76518 0.0
C867 C 1.011 0.08863 0.73558 0.0
C868 C 1.01182 0.07204 0.7945 0.0
C869 C 1.01236 0.07666 0.88379 0.0
C870 C 1.01214 0.09712 0.91318 0.0
H871 H 0.0566 0.15644 0.81195 0.0
H872 H 0.0497 0.12951 0.81859 0.0
H873 H 0.03852 0.14568 0.73636 0.0
H874 H 1.00977 0.12152 0.71824 0.0
H875 H 1.01044 0.08578 0.66648 0.0
H876 H 0.29614 1.00861 0.16349 0.0
H877 H 0.33046 1.00376 0.09905 0.0
H878 H 0.30342 1.00593 0.84387 0.0
H879 H 0.26923 0.01207 0.90929 0.0
H880 H 0.34854 0.97617 1.00058 0.0
H881 H 0.34632 0.04938 0.81616 0.0
H882 H 0.32631 0.04237 0.89189 0.0
H883 H 0.32637 0.03179 0.78407 0.0
C884 C 0.29756 1.00774 0.09368 0.0
C885 C 0.28005 1.01067 0.04133 0.0
C886 C 0.31719 1.00502 0.05668 0.0
C887 C 0.31983 1.00493 0.96613 0.0
C888 C 0.30207 1.00653 0.91374 0.0
H889 H 0.43653 1.00133 0.66298 0.0
H890 H 0.39981 1.00034 0.70403 0.0
C891 C 0.28243 1.0096 0.95098 0.0
C892 C 0.34118 1.00351 0.92776 0.0
H893 H 0.37557 0.0281 0.79356 0.0
C894 C 0.35437 0.98756 0.95527 0.0
C895 C 0.34902 0.01825 0.86804 0.0
C896 C 0.33636 0.03652 0.83894 0.0
C897 C 0.37498 0.98607 0.92603 0.0
C898 C 0.38295 1.00106 0.86798 0.0
C899 C 0.36958 0.01656 0.83782 0.0
C900 C 0.40534 1.00163 0.8422 0.0
C901 C 0.38802 0.96833 0.95775 0.0
C902 C 0.42083 1.00312 0.90565 0.0
C903 C 0.44179 1.00365 0.8824 0.0
C904 C 0.44796 1.00292 0.79481 0.0
C905 C 0.43243 1.00184 0.73104 0.0
C906 C 0.41139 1.00128 0.75448 0.0
H907 H 0.3783 0.95499 0.97725 0.0
H908 H 0.39913 0.96316 0.90733 0.0
H909 H 0.39688 0.97335 0.01554 0.0
H910 H 0.41671 1.00402 0.9736 0.0
H911 H 0.45318 1.00467 0.93352 0.0
H912 H 0.49589 0.27778 0.12415 0.0
H913 H 0.48991 0.31238 0.06347 0.0
H914 H 0.54394 0.30521 0.90173 0.0
H915 H 0.54814 0.27007 0.95453 0.0
H916 H 0.50907 0.34542 0.0738 0.0
H917 H 0.50952 0.32925 0.72432 0.0
H918 H 0.50878 0.30878 0.80305 0.0
H919 H 0.53314 0.31991 0.76957 0.0
C920 C 0.50589 0.28338 0.073 0.0
C921 C 0.52248 0.27121 0.04394 0.0
C922 C 0.50272 0.30331 0.03913 0.0
C923 C 0.51625 0.31166 0.97629 0.0
C924 C 0.5327 0.29925 0.94725 0.0
H925 H 0.53413 0.4449 0.91941 0.0
H926 H 0.53455 0.40874 0.96396 0.0
C927 C 0.53539 0.27919 0.9788 0.0
C928 C 0.51403 0.33358 0.94495 0.0
H929 H 0.51804 0.36417 0.76473 0.0
C930 C 0.51069 0.34939 0.00587 0.0
C931 C 0.51568 0.33917 0.85615 0.0
C932 C 0.51672 0.32331 0.78469 0.0
C933 C 0.50948 0.37033 0.98126 0.0
C934 C 0.513 0.37603 0.89349 0.0
C935 C 0.51578 0.36017 0.83231 0.0
C936 C 0.5137 0.39817 0.86348 0.0
C937 C 0.5039 0.38593 0.04998 0.0
C938 C 0.50317 0.40448 0.78793 0.0
C939 C 0.50382 0.42511 0.75976 0.0
C940 C 0.51459 0.44006 0.80757 0.0
C941 C 0.52538 0.43378 0.88203 0.0
C942 C 0.52536 0.41306 0.90837 0.0
H943 H 0.49468 0.37877 0.10283 0.0
H944 H 0.51822 0.39211 0.07954 0.0
H945 H 0.49487 0.39894 0.02259 0.0
H946 H 0.49416 0.39349 0.75107 0.0
H947 H 0.49535 0.42949 0.70214 0.0
H948 H 0.23896 0.49521 0.14348 0.0
H949 H 0.20529 0.48873 0.07464 0.0
H950 H 0.21105 0.54602 0.93417 0.0
H951 H 0.24545 0.55087 0.99429 0.0
H952 H 0.17109 0.50571 0.0858 0.0
H953 H 0.19055 0.51447 0.74099 0.0
H954 H 0.21032 0.51317 0.82266 0.0
H955 H 0.19811 0.53746 0.79642 0.0
C956 C 0.23333 0.50586 0.09495 0.0
C957 C 0.24486 0.52354 0.0741 0.0
C958 C 0.21389 0.50239 0.05654 0.0
C959 C 0.2054 0.51669 0.99739 0.0
C960 C 0.2172 0.53422 0.97643 0.0
H961 H 0.07156 0.52809 0.91894 0.0
H962 H 0.10709 0.52973 0.97215 0.0
C963 C 0.23683 0.53724 0.01221 0.0
C964 C 0.18388 0.51404 0.96155 0.0
H965 H 0.15479 0.52011 0.77809 0.0
C966 C 0.16768 0.50857 0.0181 0.0
C967 C 0.17905 0.51727 0.87276 0.0
C968 C 0.19551 0.52066 0.8048 0.0
C969 C 0.14707 0.50667 0.98924 0.0
C970 C 0.14203 0.51166 0.90216 0.0
C971 C 0.15829 0.51669 0.84527 0.0
C972 C 0.12021 0.51142 0.86813 0.0
C973 C 0.13115 0.49848 0.05204 0.0
C974 C 0.11552 0.50176 0.78868 0.0
C975 C 0.09524 0.5016 0.75619 0.0
C976 C 0.07899 0.51073 0.80307 0.0
C977 C 0.08365 0.52061 0.88186 0.0
C978 C 0.10403 0.52131 0.91302 0.0
H979 H 0.13843 0.48892 0.10335 0.0
H980 H 0.12329 0.51154 0.08453 0.0
H981 H 0.11934 0.489 0.01849 0.0
H982 H 0.12753 0.49408 0.75191 0.0
H983 H 0.09219 0.49384 0.69541 0.0
H984 H 0.99442 0.7837 0.30591 0.0
H985 H 0.98737 0.81723 0.37409 0.0
H986 H 0.04403 0.81197 0.51965 0.0
H987 H 0.04984 0.7779 0.45759 0.0
H988 H 0.02046 0.83088 0.6138 0.0
H989 H 1.01123 0.86889 0.29546 0.0
H990 H 0.99081 0.85085 0.31527 0.0
H991 H 0.01705 0.84188 0.30402 0.0
C992 C 1.00493 0.78948 0.35467 0.0
C993 C 0.02276 0.77824 0.37614 0.0
C994 C 1.0012 0.80894 0.39221 0.0
C995 C 0.0156 0.81787 0.44968 0.0
C996 C 0.0327 0.80588 0.47488 0.0
H997 H 0.03088 0.95044 0.52291 0.0
H998 H 0.03145 0.91449 0.4751 0.0
C999 C 0.0361 0.78634 0.4392 0.0
C1000 C 0.0135 0.83969 0.48242 0.0
H1001 H 1.00538 0.88969 0.41915 0.0
C1002 C 0.01725 0.8437 0.57073 0.0
C1003 C 1.00964 0.85677 0.42696 0.0
C1004 C 1.00719 0.85442 0.33015 0.0
C1005 C 0.01763 0.8639 0.60453 0.0
C1006 C 1.0129 0.88087 0.5499 0.0
C1007 C 1.00886 0.87687 0.46185 0.0
C1008 C 1.0128 0.90289 0.5813 0.0
C1009 C 0.02411 0.86672 0.69771 0.0
C1010 C 1.00213 0.90879 0.65713 0.0
C1011 C 1.00242 0.92934 0.68618 0.0
C1012 C 1.01265 0.94472 0.63829 0.0
C1013 C 0.02282 0.93899 0.56131 0.0
C1014 C 0.02307 0.91836 0.53374 0.0
H1015 H 0.03383 0.85366 0.7203 0.0
H1016 H 0.03296 0.88121 0.70682 0.0
H1017 H 1.01015 0.86718 0.73952 0.0
H1018 H 0.99334 0.89758 0.6937 0.0
H1019 H 0.99415 0.9333 0.74496 0.0
H1020 H 0.74245 0.05104 0.45097 0.0
H1021 H 0.70922 0.04542 0.52378 0.0
H1022 H 0.70739 0.98341 0.4233 0.0
H1023 H 0.74076 0.98919 0.35023 0.0
H1024 H 0.67324 0.03759 0.44211 0.0
H1025 H 0.68873 0.97413 0.67306 0.0
H1026 H 0.70915 0.98892 0.62283 0.0
H1027 H 0.69653 0.96866 0.56367 0.0
C1028 C 0.73518 0.03605 0.44642 0.0
C1029 C 0.74428 0.02051 0.39557 0.0
C1030 C 0.71612 0.03284 0.48773 0.0
C1031 C 0.70569 0.01391 0.48011 0.0
C1032 C 0.71521 0.99802 0.43212 0.0
H1033 H 0.57321 0.9943 0.52157 0.0
H1034 H 0.60945 0.99668 0.47841 0.0
C1035 C 0.73433 1.00127 0.39047 0.0
C1036 C 0.68414 1.01166 0.51544 0.0
H1037 H 0.65331 0.98289 0.65023 0.0
C1038 C 0.66895 0.02566 0.48764 0.0
C1039 C 0.67842 0.99621 0.57597 0.0
C1040 C 0.69407 0.98122 0.61142 0.0
C1041 C 0.64833 0.02442 0.51658 0.0
C1042 C 0.64248 1.00869 0.57526 0.0
C1043 C 0.6577 0.9949 0.60489 0.0
C1044 C 0.6205 1.00619 0.60426 0.0
C1045 C 0.63288 0.04004 0.48422 0.0
C1046 C 0.6145 1.01045 0.69012 0.0
C1047 C 0.59359 1.00922 0.71526 0.0
C1048 C 0.57822 1.00348 0.65526 0.0
C1049 C 0.58446 0.9988 0.56987 0.0
C1050 C 0.60526 1.00017 0.54481 0.0
H1051 H 0.64056 0.05368 0.45487 0.0
H1052 H 0.62301 0.03278 0.43405 0.0
H1053 H 0.62269 0.04534 0.53774 0.0
H1054 H 0.62594 0.01515 0.73728 0.0
H1055 H 0.58945 0.01293 0.78149 0.0
H1056 H 0.48057 0.73725 0.50663 0.0
H1057 H 0.48641 0.70332 0.56991 0.0
H1058 H 0.54074 0.69589 0.4102 0.0
H1059 H 0.53379 0.72952 0.34238 0.0
H1060 H 0.52109 0.66282 0.40112 0.0
H1061 H 0.52133 0.68024 0.7495 0.0
H1062 H 0.49766 0.68947 0.7042 0.0
H1063 H 0.52197 0.70042 0.66929 0.0
C1064 C 0.49394 0.72847 0.48617 0.0
C1065 C 0.50673 0.73604 0.41981 0.0
C1066 C 0.49747 0.70909 0.52322 0.0
C1067 C 0.51429 0.69685 0.49665 0.0
C1068 C 0.52767 0.70487 0.43262 0.0
H1069 H 0.53443 0.57892 0.77101 0.0
H1070 H 0.53628 0.61485 0.72191 0.0
C1071 C 0.52391 0.72423 0.39449 0.0
C1072 C 0.51661 0.67511 0.52954 0.0
H1073 H 0.51237 0.64511 0.71143 0.0
C1074 C 0.51954 0.65907 0.46931 0.0
C1075 C 0.51495 0.66983 0.61861 0.0
C1076 C 0.51405 0.68597 0.68894 0.0
C1077 C 0.52005 0.63819 0.49469 0.0
C1078 C 0.51666 0.63284 0.58288 0.0
C1079 C 0.51453 0.6489 0.64356 0.0
C1080 C 0.51538 0.61083 0.61358 0.0
C1081 C 0.52464 0.62223 0.42614 0.0
C1082 C 0.50268 0.59639 0.57108 0.0
C1083 C 0.50211 0.57571 0.59771 0.0
C1084 C 0.51355 0.56901 0.66984 0.0
C1085 C 0.52544 0.58357 0.71522 0.0
C1086 C 0.52648 0.60417 0.68699 0.0
H1087 H 0.5341 0.62885 0.37279 0.0
H1088 H 0.53304 0.60878 0.45333 0.0
H1089 H 0.5099 0.61682 0.39734 0.0
H1090 H 0.49315 0.60106 0.51699 0.0
H1091 H 0.49251 0.56496 0.56219 0.0
H1092 H 0.80361 0.50555 0.26195 0.0
H1093 H 0.83715 0.51201 0.33007 0.0
H1094 H 0.80716 0.51703 0.57922 0.0
H1095 H 0.77366 0.50974 0.51037 0.0
H1096 H 0.85588 0.54008 0.4185 0.0
H1097 H 0.84649 0.47291 0.63748 0.0
H1098 H 0.82725 0.47945 0.55803 0.0
H1099 H 0.82836 0.49315 0.65929 0.0
C1100 C 0.80423 0.50842 0.33102 0.0
C1101 C 0.78615 0.50712 0.38106 0.0
C1102 C 0.82339 0.51208 0.3702 0.0
C1103 C 0.82499 0.51431 0.4607 0.0
C1104 C 0.80662 0.51458 0.5099 0.0
H1105 H 0.93869 0.51738 0.77894 0.0
H1106 H 0.90262 0.51985 0.73092 0.0
C1107 C 0.78741 0.51079 0.47053 0.0
C1108 C 0.84595 0.51543 0.50233 0.0
H1109 H 0.87753 0.49184 0.65053 0.0
C1110 C 0.86052 0.52952 0.4694 0.0
C1111 C 0.85221 0.50184 0.56967 0.0
C1112 C 0.83782 0.48588 0.60765 0.0
C1113 C 0.88098 0.53023 0.50043 0.0
C1114 C 0.8874 0.51619 0.56541 0.0
C1115 C 0.87272 0.50255 0.60048 0.0
C1116 C 0.90942 0.51485 0.59517 0.0
C1117 C 0.89548 0.5462 0.4635 0.0
C1118 C 0.92536 0.51085 0.53552 0.0
C1119 C 0.94597 0.5095 0.5627 0.0
C1120 C 0.9513 0.51189 0.65067 0.0
C1121 C 0.93527 0.51555 0.71071 0.0
C1122 C 0.91459 0.51695 0.68329 0.0
H1123 H 0.88689 0.5596 0.43673 0.0
H1124 H 0.90645 0.55187 0.51333 0.0
H1125 H 0.90451 0.53923 0.40978 0.0
H1126 H 0.92185 0.50858 0.46761 0.0
H1127 H 0.95774 0.50647 0.51437 0.0
loop_
_geom_bond_atom_site_label_1
_geom_bond_atom_site_label_2
_geom_bond_distance
_geom_bond_site_symmetry_2
_ccdc_geom_bond_type
C0 N1 1.317 . S
C0 N2 1.348 . S
C0 C3 1.485 . S
N1 C0 1.317 . S
N1 N5 1.370 . S
N2 C0 1.348 . S
N2 C4 1.346 . S
C3 C0 1.485 . S
C3 H7 0.960 . S
C3 H8 0.961 . S
C3 H9 0.960 . S
C4 N2 1.346 . S
C4 N5 1.307 . S
C4 C6 1.486 . S
N5 N1 1.370 . S
N5 C4 1.307 . S
C6 C4 1.486 . S
C6 H10 0.960 . S
C6 H11 0.960 . S
C6 H12 0.959 . S
H7 C3 0.960 . S
H8 C3 0.961 . S
H9 C3 0.960 . S
H10 C6 0.960 . S
H11 C6 0.960 . S
H12 C6 0.959 . S
C13 N14 1.317 . S
C13 N15 1.348 . S
C13 C16 1.485 . S
N14 C13 1.317 . S
N14 N18 1.373 . S
N15 C13 1.348 . S
N15 C17 1.347 . S
C16 C13 1.485 . S
C16 H20 0.960 1_655 S
C16 H21 0.961 . S
C16 H22 0.960 . S
C17 N15 1.347 . S
C17 N18 1.307 . S
C17 C19 1.486 1_655 S
N18 N14 1.373 . S
N18 C17 1.307 . S
C19 C17 1.486 1_455 S
C19 H23 0.955 1_455 S
C19 H24 0.964 . S
C19 H25 0.960 . S
H20 C16 0.960 1_455 S
H21 C16 0.961 . S
H22 C16 0.960 . S
H23 C19 0.955 1_655 S
H24 C19 0.964 . S
H25 C19 0.960 . S
C26 N27 1.317 . S
C26 N28 1.348 . S
C26 C29 1.485 . S
N27 C26 1.317 . S
N27 N31 1.370 . S
N28 C26 1.348 . S
N28 C30 1.349 . S
C29 C26 1.485 . S
C29 H33 0.960 1_565 S
C29 H34 0.961 . S
C29 H35 0.960 . S
C30 N28 1.349 . S
C30 N31 1.308 . S
C30 C32 1.485 . S
N31 N27 1.370 . S
N31 C30 1.308 . S
C32 C30 1.485 . S
C32 H36 0.962 . S
C32 H37 0.958 1_565 S
C32 H38 0.958 1_565 S
H33 C29 0.960 1_545 S
H34 C29 0.961 . S
H35 C29 0.960 . S
H36 C32 0.962 . S
H37 C32 0.958 1_545 S
H38 C32 0.958 1_545 S
C39 N40 1.317 . S
C39 N41 1.348 . S
C39 C42 1.485 . S
N40 C39 1.317 . S
N40 N44 1.370 . S
N41 C39 1.348 . S
N41 C43 1.346 . S
C42 C39 1.485 . S
C42 H46 0.960 . S
C42 H47 0.961 . S
C42 H48 0.960 . S
C43 N41 1.346 . S
C43 N44 1.307 . S
C43 C45 1.486 . S
N44 N40 1.370 . S
N44 C43 1.307 . S
C45 C43 1.486 . S
C45 H49 0.960 . S
C45 H50 0.960 . S
C45 H51 0.959 . S
H46 C42 0.960 . S
H47 C42 0.961 . S
H48 C42 0.960 . S
H49 C45 0.960 . S
H50 C45 0.960 . S
H51 C45 0.959 . S
C52 N53 1.317 . S
C52 N54 1.348 1_556 S
C52 C55 1.485 . S
N53 C52 1.317 . S
N53 N57 1.370 1_556 S
N54 C52 1.348 1_554 S
N54 C56 1.346 . S
C55 C52 1.485 . S
C55 H59 0.960 . S
C55 H60 0.961 . S
C55 H61 0.960 . S
C56 N54 1.346 . S
C56 N57 1.307 . S
C56 C58 1.486 . S
N57 N53 1.370 1_554 S
N57 C56 1.307 . S
C58 C56 1.486 . S
C58 H62 0.960 . S
C58 H63 0.960 . S
C58 H64 0.959 . S
H59 C55 0.960 . S
H60 C55 0.961 . S
H61 C55 0.960 . S
H62 C58 0.960 . S
H63 C58 0.960 . S
H64 C58 0.959 . S
C65 N66 1.317 . S
C65 N67 1.349 1_556 S
C65 C68 1.483 1_455 S
N66 C65 1.317 . S
N66 N70 1.372 1_556 S
N67 C65 1.349 1_554 S
N67 C69 1.346 . S
C68 C65 1.483 1_655 S
C68 H72 0.915 1_655 S
C68 H73 0.991 . S
C68 H74 0.981 . S
C69 N67 1.346 . S
C69 N70 1.307 . S
C69 C71 1.486 . S
N70 N66 1.372 1_554 S
N70 C69 1.307 . S
C71 C69 1.486 . S
C71 H75 0.960 1_455 S
C71 H76 0.960 . S
C71 H77 0.959 . S
H72 C68 0.915 1_455 S
H73 C68 0.991 . S
H74 C68 0.981 . S
H75 C71 0.960 1_655 S
H76 C71 0.960 . S
H77 C71 0.959 . S
C78 N79 1.317 1_565 S
C78 N80 1.347 1_566 S
C78 C81 1.485 . S
N79 C78 1.317 1_545 S
N79 N83 1.369 1_556 S
N80 C78 1.347 1_544 S
N80 C82 1.348 . S
C81 C78 1.485 . S
C81 H85 0.960 1_565 S
C81 H86 0.961 . S
C81 H87 0.960 . S
C82 N80 1.348 . S
C82 N83 1.309 . S
C82 C84 1.486 . S
N83 N79 1.369 1_554 S
N83 C82 1.309 . S
C84 C82 1.486 . S
C84 H88 0.960 1_545 S
C84 H89 0.960 . S
C84 H90 0.959 . S
H85 C81 0.960 1_545 S
H86 C81 0.961 . S
H87 C81 0.960 . S
H88 C84 0.960 1_565 S
H89 C84 0.960 . S
H90 C84 0.959 . S
C91 N92 1.317 . S
C91 N93 1.348 1_556 S
C91 C94 1.485 . S
N92 C91 1.317 . S
N92 N96 1.370 1_556 S
N93 C91 1.348 1_554 S
N93 C95 1.346 . S
C94 C91 1.485 . S
C94 H98 0.960 . S
C94 H99 0.961 . S
C94 H100 0.960 . S
C95 N93 1.346 . S
C95 N96 1.307 . S
C95 C97 1.486 . S
N96 N92 1.370 1_554 S
N96 C95 1.307 . S
C97 C95 1.486 . S
C97 H101 0.960 . S
C97 H102 0.960 . S
C97 H103 0.959 . S
H98 C94 0.960 . S
H99 C94 0.961 . S
H100 C94 0.960 . S
H101 C97 0.960 . S
H102 C97 0.960 . S
H103 C97 0.959 . S
Ho104 C107 2.811 . S
Ho104 O124 2.322 . S
Ho104 O126 2.378 . S
Ho104 O127 2.513 1_455 S
Ho104 O128 2.381 . S
Ho104 O129 2.669 1_565 S
Ho104 O131 2.346 1_565 S
Ho104 O135 2.305 1_455 S
Ho105 C116 2.811 . S
Ho105 O125 2.346 1_545 S
Ho105 O129 2.305 1_655 S
Ho105 O130 2.322 . S
Ho105 O132 2.378 . S
Ho105 O133 2.524 1_655 S
Ho105 O134 2.381 . S
Ho105 O135 2.669 1_545 S
C106 O124 1.259 1_655 S
C106 O125 1.268 . S
C107 Ho104 2.811 . S
C107 C108 1.488 . S
C107 O126 1.215 . S
C107 O127 1.266 1_455 S
C108 C107 1.488 . S
C108 C109 1.348 . S
C108 C113 1.413 . S
C109 C108 1.348 . S
C109 C110 1.442 . S
C109 H136 0.930 1_455 S
C110 C109 1.442 . S
C110 C111 1.381 1_556 S
C110 H137 0.931 1_456 S
C111 C110 1.381 1_554 S
C111 C112 1.321 1_554 S
C112 C111 1.321 1_556 S
C112 C113 1.403 . S
C112 H138 0.934 1_556 S
C113 C108 1.413 . S
C113 C112 1.403 . S
C113 H139 0.930 . S
C114 O128 1.294 . S
C114 O129 1.245 1_565 S
C115 O130 1.259 1_455 S
C115 O131 1.268 . S
C116 Ho105 2.811 . S
C116 C117 1.488 . S
C116 O132 1.215 . S
C116 O133 1.289 1_655 S
C117 C116 1.488 . S
C117 C118 1.348 . S
C117 C122 1.413 . S
C118 C117 1.348 . S
C118 C119 1.442 . S
C118 H140 0.930 1_655 S
C119 C118 1.442 . S
C119 C120 1.381 . S
C119 H141 0.931 1_655 S
C120 C119 1.381 . S
C120 C121 1.321 . S
C121 C120 1.321 . S
C121 C122 1.403 . S
C121 H142 0.934 . S
C122 C117 1.413 . S
C122 C121 1.403 . S
C122 H143 0.930 . S
C123 O134 1.301 . S
C123 O135 1.242 1_545 S
O124 Ho104 2.322 . S
O124 C106 1.259 1_455 S
O125 Ho105 2.346 1_565 S
O125 C106 1.268 . S
O126 Ho104 2.378 . S
O126 C107 1.215 . S
O127 Ho104 2.513 1_655 S
O127 C107 1.266 1_655 S
O128 Ho104 2.381 . S
O128 C114 1.294 . S
O129 Ho104 2.669 1_545 S
O129 Ho105 2.305 1_455 S
O129 C114 1.245 1_545 S
O130 Ho105 2.322 . S
O130 C115 1.259 1_655 S
O131 Ho104 2.346 1_545 S
O131 C115 1.268 . S
O132 Ho105 2.378 . S
O132 C116 1.215 . S
O133 Ho105 2.524 1_455 S
O133 C116 1.289 1_455 S
O134 Ho105 2.381 . S
O134 C123 1.301 . S
O135 Ho104 2.305 1_655 S
O135 Ho105 2.669 1_565 S
O135 C123 1.242 1_565 S
H136 C109 0.930 1_655 S
H137 C110 0.931 1_654 S
H138 C112 0.934 1_554 S
H139 C113 0.930 . S
H140 C118 0.930 1_455 S
H141 C119 0.931 1_455 S
H142 C121 0.934 . S
H143 C122 0.930 . S
Ho144 C147 2.811 . S
Ho144 O164 2.322 . S
Ho144 O166 2.378 . S
Ho144 O167 2.504 1_545 S
Ho144 O168 2.381 . S
Ho144 O169 2.669 . S
Ho144 O171 2.346 . S
Ho144 O175 2.305 1_545 S
Ho145 C156 2.811 . S
Ho145 O165 2.346 . S
Ho145 O169 2.305 1_565 S
Ho145 O170 2.322 . S
Ho145 O172 2.378 . S
Ho145 O173 2.524 1_565 S
Ho145 O174 2.381 . S
Ho145 O175 2.669 . S
C146 O164 1.259 1_565 S
C146 O165 1.268 . S
C147 Ho144 2.811 . S
C147 C148 1.488 . S
C147 O166 1.215 . S
C147 O167 1.244 1_545 S
C148 C147 1.488 . S
C148 C149 1.348 . S
C148 C153 1.413 . S
C149 C148 1.348 . S
C149 C150 1.442 . S
C149 H176 0.930 1_545 S
C150 C149 1.442 . S
C150 C151 1.381 1_556 S
C150 H177 0.931 1_546 S
C151 C150 1.381 1_554 S
C151 C152 1.321 1_554 S
C152 C151 1.321 1_556 S
C152 C153 1.403 . S
C152 H178 0.934 1_556 S
C153 C148 1.413 . S
C153 C152 1.403 . S
C153 H179 0.930 . S
C154 O168 1.275 . S
C154 O169 1.256 . S
C155 O170 1.259 1_545 S
C155 O171 1.268 . S
C156 Ho145 2.811 . S
C156 C157 1.488 . S
C156 O172 1.215 . S
C156 O173 1.289 1_565 S
C157 C156 1.488 . S
C157 C158 1.348 . S
C157 C162 1.413 . S
C158 C157 1.348 . S
C158 C159 1.442 . S
C158 H180 0.930 1_565 S
C159 C158 1.442 . S
C159 C160 1.381 . S
C159 H181 0.931 1_565 S
C160 C159 1.381 . S
C160 C161 1.321 . S
C161 C160 1.321 . S
C161 C162 1.403 . S
C161 H182 0.934 . S
C162 C157 1.413 . S
C162 C161 1.403 . S
C162 H183 0.930 . S
C163 O174 1.275 . S
C163 O175 1.256 . S
O164 Ho144 2.322 . S
O164 C146 1.259 1_545 S
O165 Ho145 2.346 . S
O165 C146 1.268 . S
O166 Ho144 2.378 . S
O166 C147 1.215 . S
O167 Ho144 2.504 1_565 S
O167 C147 1.244 1_565 S
O168 Ho144 2.381 . S
O168 C154 1.275 . S
O169 Ho144 2.669 . S
O169 Ho145 2.305 1_545 S
O169 C154 1.256 . S
O170 Ho145 2.322 . S
O170 C155 1.259 1_565 S
O171 Ho144 2.346 . S
O171 C155 1.268 . S
O172 Ho145 2.378 . S
O172 C156 1.215 . S
O173 Ho145 2.524 1_545 S
O173 C156 1.289 1_545 S
O174 Ho145 2.381 . S
O174 C163 1.275 . S
O175 Ho144 2.305 1_565 S
O175 Ho145 2.669 . S
O175 C163 1.256 . S
H176 C149 0.930 1_565 S
H177 C150 0.931 1_564 S
H178 C152 0.934 1_554 S
H179 C153 0.930 . S
H180 C158 0.930 1_545 S
H181 C159 0.931 1_545 S
H182 C161 0.934 . S
H183 C162 0.930 . S
Ho184 C187 2.811 . S
Ho184 O204 2.322 . S
Ho184 O206 2.378 . S
Ho184 O207 2.524 . S
Ho184 O208 2.381 . S
Ho184 O209 2.669 . S
Ho184 O211 2.346 . S
Ho184 O215 2.305 . S
Ho185 C196 2.811 . S
Ho185 O205 2.346 . S
Ho185 O209 2.305 . S
Ho185 O210 2.322 . S
Ho185 O212 2.378 . S
Ho185 O213 2.524 . S
Ho185 O214 2.381 . S
Ho185 O215 2.669 . S
C186 O204 1.259 . S
C186 O205 1.268 . S
C187 Ho184 2.811 . S
C187 C188 1.488 . S
C187 O206 1.215 . S
C187 O207 1.289 . S
C188 C187 1.488 . S
C188 C189 1.348 . S
C188 C193 1.413 . S
C189 C188 1.348 . S
C189 C190 1.442 . S
C189 H216 0.930 . S
C190 C189 1.442 . S
C190 C191 1.381 1_556 S
C190 H217 0.931 1_556 S
C191 C190 1.381 1_554 S
C191 C192 1.321 1_554 S
C192 C191 1.321 1_556 S
C192 C193 1.403 . S
C192 H218 0.934 1_556 S
C193 C188 1.413 . S
C193 C192 1.403 . S
C193 H219 0.930 . S
C194 O208 1.275 . S
C194 O209 1.256 . S
C195 O210 1.259 . S
C195 O211 1.268 . S
C196 Ho185 2.811 . S
C196 C197 1.488 . S
C196 O212 1.215 . S
C196 O213 1.289 . S
C197 C196 1.488 . S
C197 C198 1.348 . S
C197 C202 1.413 . S
C198 C197 1.348 . S
C198 C199 1.442 . S
C198 H220 0.930 . S
C199 C198 1.442 . S
C199 C200 1.381 . S
C199 H221 0.931 . S
C200 C199 1.381 . S
C200 C201 1.321 . S
C201 C200 1.321 . S
C201 C202 1.403 . S
C201 H222 0.934 . S
C202 C197 1.413 . S
C202 C201 1.403 . S
C202 H223 0.930 . S
C203 O214 1.275 . S
C203 O215 1.256 . S
O204 Ho184 2.322 . S
O204 C186 1.259 . S
O205 Ho185 2.346 . S
O205 C186 1.268 . S
O206 Ho184 2.378 . S
O206 C187 1.215 . S
O207 Ho184 2.524 . S
O207 C187 1.289 . S
O208 Ho184 2.381 . S
O208 C194 1.275 . S
O209 Ho184 2.669 . S
O209 Ho185 2.305 . S
O209 C194 1.256 . S
O210 Ho185 2.322 . S
O210 C195 1.259 . S
O211 Ho184 2.346 . S
O211 C195 1.268 . S
O212 Ho185 2.378 . S
O212 C196 1.215 . S
O213 Ho185 2.524 . S
O213 C196 1.289 . S
O214 Ho185 2.381 . S
O214 C203 1.275 . S
O215 Ho184 2.305 . S
O215 Ho185 2.669 . S
O215 C203 1.256 . S
H216 C189 0.930 . S
H217 C190 0.931 1_554 S
H218 C192 0.934 1_554 S
H219 C193 0.930 . S
H220 C198 0.930 . S
H221 C199 0.931 . S
H222 C201 0.934 . S
H223 C202 0.930 . S
Ho224 C227 2.811 . S
Ho224 O244 2.322 . S
Ho224 O246 2.378 . S
Ho224 O247 2.524 . S
Ho224 O248 2.381 . S
Ho224 O249 2.669 1_655 S
Ho224 O251 2.346 1_655 S
Ho224 O255 2.305 . S
Ho225 C236 2.811 . S
Ho225 O245 2.346 1_455 S
Ho225 O249 2.305 . S
Ho225 O250 2.322 . S
Ho225 O252 2.378 . S
Ho225 O253 2.524 . S
Ho225 O254 2.381 . S
Ho225 O255 2.669 1_455 S
C226 O244 1.259 . S
C226 O245 1.268 . S
C227 Ho224 2.811 . S
C227 C228 1.488 . S
C227 O246 1.215 . S
C227 O247 1.289 . S
C228 C227 1.488 . S
C228 C229 1.348 . S
C228 C233 1.413 . S
C229 C228 1.348 . S
C229 C230 1.442 . S
C229 H256 0.930 . S
C230 C229 1.442 . S
C230 C231 1.381 1_556 S
C230 H257 0.931 1_556 S
C231 C230 1.381 1_554 S
C231 C232 1.321 1_554 S
C232 C231 1.321 1_556 S
C232 C233 1.403 . S
C232 H258 0.934 1_556 S
C233 C228 1.413 . S
C233 C232 1.403 . S
C233 H259 0.930 . S
C234 O248 1.280 . S
C234 O249 1.253 1_655 S
C235 O250 1.259 . S
C235 O251 1.268 . S
C236 Ho225 2.811 . S
C236 C237 1.488 . S
C236 O252 1.215 . S
C236 O253 1.289 . S
C237 C236 1.488 . S
C237 C238 1.348 . S
C237 C242 1.413 . S
C238 C237 1.348 . S
C238 C239 1.442 . S
C238 H260 0.930 . S
C239 C238 1.442 . S
C239 C240 1.381 . S
C239 H261 0.931 . S
C240 C239 1.381 . S
C240 C241 1.321 . S
C241 C240 1.321 . S
C241 C242 1.403 . S
C241 H262 0.934 . S
C242 C237 1.413 . S
C242 C241 1.403 . S
C242 H263 0.930 . S
C243 O254 1.275 . S
C243 O255 1.256 1_455 S
O244 Ho224 2.322 . S
O244 C226 1.259 . S
O245 Ho225 2.346 1_655 S
O245 C226 1.268 . S
O246 Ho224 2.378 . S
O246 C227 1.215 . S
O247 Ho224 2.524 . S
O247 C227 1.289 . S
O248 Ho224 2.381 . S
O248 C234 1.280 . S
O249 Ho224 2.669 1_455 S
O249 Ho225 2.305 . S
O249 C234 1.253 1_455 S
O250 Ho225 2.322 . S
O250 C235 1.259 . S
O251 Ho224 2.346 1_455 S
O251 C235 1.268 . S
O252 Ho225 2.378 . S
O252 C236 1.215 . S
O253 Ho225 2.524 . S
O253 C236 1.289 . S
O254 Ho225 2.381 . S
O254 C243 1.275 . S
O255 Ho224 2.305 . S
O255 Ho225 2.669 1_655 S
O255 C243 1.256 1_655 S
H256 C229 0.930 . S
H257 C230 0.931 1_554 S
H258 C232 0.934 1_554 S
H259 C233 0.930 . S
H260 C238 0.930 . S
H261 C239 0.931 . S
H262 C241 0.934 . S
H263 C242 0.930 . S
H264 C272 0.929 . S
H265 C274 0.930 . S
H266 C276 0.930 . S
H267 C279 0.929 . S
H268 C282 0.930 . S
H269 C284 0.960 . S
H270 C284 0.960 . S
H271 C284 0.960 . S
C272 H264 0.929 . S
C272 C273 1.348 1_565 S
C272 C274 1.384 . S
C273 C272 1.348 1_545 S
C273 C279 1.420 . S
C274 H265 0.930 . S
C274 C272 1.384 . S
C274 C275 1.361 1_565 S
C275 C274 1.361 1_545 S
C275 C276 1.411 . S
C275 C280 1.490 . S
C276 H266 0.930 . S
C276 C275 1.411 . S
C276 C279 1.386 . S
H277 C293 0.930 . S
H278 C294 0.931 . S
C279 H267 0.929 . S
C279 C273 1.420 . S
C279 C276 1.386 . S
C280 C275 1.490 . S
C280 C282 1.407 . S
C280 C283 1.392 1_545 S
H281 C287 0.930 . S
C282 H268 0.930 . S
C282 C280 1.407 . S
C282 C285 1.403 . S
C283 C280 1.392 1_565 S
C283 C284 1.524 . S
C283 C287 1.400 . S
C284 H269 0.960 . S
C284 H270 0.960 . S
C284 H271 0.960 . S
C284 C283 1.524 . S
C285 C282 1.403 . S
C285 C286 1.392 . S
C285 C289 1.495 . S
C286 C285 1.392 . S
C286 C287 1.385 1_545 S
C286 C288 1.478 . S
C287 H281 0.930 . S
C287 C283 1.400 . S
C287 C286 1.385 1_565 S
C288 C286 1.478 . S
C288 C290 1.381 1_545 S
C288 C294 1.383 . S
C289 C285 1.495 . S
C289 H295 0.959 . S
C289 H296 0.961 . S
C289 H297 0.960 . S
C290 C288 1.381 1_565 S
C290 C291 1.394 . S
C290 H298 0.930 . S
C291 C290 1.394 . S
C291 C292 1.383 1_565 S
C291 H299 0.929 . S
C292 C291 1.383 1_545 S
C292 C293 1.377 . S
C293 H277 0.930 . S
C293 C292 1.377 . S
C293 C294 1.379 . S
C294 H278 0.931 . S
C294 C288 1.383 . S
C294 C293 1.379 . S
H295 C289 0.959 . S
H296 C289 0.961 . S
H297 C289 0.960 . S
H298 C290 0.930 . S
H299 C291 0.929 . S
H300 C308 0.929 . S
H301 C310 0.930 . S
H302 C312 0.930 . S
H303 C315 0.929 . S
H304 C318 0.930 . S
H305 C320 0.960 . S
H306 C320 0.960 . S
H307 C320 0.960 . S
C308 H300 0.929 . S
C308 C309 1.377 . S
C308 C310 1.384 . S
C309 C308 1.377 . S
C309 C315 1.390 . S
C310 H301 0.930 . S
C310 C308 1.384 . S
C310 C311 1.372 . S
C311 C310 1.372 . S
C311 C312 1.400 . S
C311 C316 1.490 . S
C312 H302 0.930 . S
C312 C311 1.400 . S
C312 C315 1.386 . S
H313 C329 0.930 . S
H314 C330 0.931 . S
C315 H303 0.929 . S
C315 C309 1.390 . S
C315 C312 1.386 . S
C316 C311 1.490 . S
C316 C318 1.395 . S
C316 C319 1.403 . S
H317 C323 0.930 . S
C318 H304 0.930 . S
C318 C316 1.395 . S
C318 C321 1.403 . S
C319 C316 1.403 . S
C319 C320 1.524 . S
C319 C323 1.400 . S
C320 H305 0.960 . S
C320 H306 0.960 . S
C320 H307 0.960 . S
C320 C319 1.524 . S
C321 C318 1.403 . S
C321 C322 1.392 . S
C321 C325 1.495 . S
C322 C321 1.392 . S
C322 C323 1.385 . S
C322 C324 1.478 . S
C323 H317 0.930 . S
C323 C319 1.400 . S
C323 C322 1.385 . S
C324 C322 1.478 . S
C324 C326 1.381 . S
C324 C330 1.383 . S
C325 C321 1.495 . S
C325 H331 0.959 . S
C325 H332 0.961 . S
C325 H333 0.960 . S
C326 C324 1.381 . S
C326 C327 1.394 . S
C326 H334 0.930 . S
C327 C326 1.394 . S
C327 C328 1.383 . S
C327 H335 0.929 . S
C328 C327 1.383 . S
C328 C329 1.377 . S
C329 H313 0.930 . S
C329 C328 1.377 . S
C329 C330 1.379 . S
C330 H314 0.931 . S
C330 C324 1.383 . S
C330 C329 1.379 . S
H331 C325 0.959 . S
H332 C325 0.961 . S
H333 C325 0.960 . S
H334 C326 0.930 . S
H335 C327 0.929 . S
H336 C344 0.929 . S
H337 C346 0.930 . S
H338 C348 0.930 . S
H339 C351 0.929 . S
H340 C354 0.930 . S
H341 C356 0.960 . S
H342 C356 0.960 . S
H343 C356 0.960 . S
C344 H336 0.929 . S
C344 C345 1.377 . S
C344 C346 1.384 . S
C345 C344 1.377 . S
C345 C351 1.390 . S
C346 H337 0.930 . S
C346 C344 1.384 . S
C346 C347 1.372 . S
C347 C346 1.372 . S
C347 C348 1.400 . S
C347 C352 1.490 . S
C348 H338 0.930 . S
C348 C347 1.400 . S
C348 C351 1.386 . S
H349 C365 0.930 . S
H350 C366 0.931 . S
C351 H339 0.929 . S
C351 C345 1.390 . S
C351 C348 1.386 . S
C352 C347 1.490 . S
C352 C354 1.395 . S
C352 C355 1.403 . S
H353 C359 0.930 . S
C354 H340 0.930 . S
C354 C352 1.395 . S
C354 C357 1.403 . S
C355 C352 1.403 . S
C355 C356 1.524 . S
C355 C359 1.400 . S
C356 H341 0.960 . S
C356 H342 0.960 . S
C356 H343 0.960 . S
C356 C355 1.524 . S
C357 C354 1.403 . S
C357 C358 1.392 . S
C357 C361 1.495 . S
C358 C357 1.392 . S
C358 C359 1.385 . S
C358 C360 1.478 . S
C359 H353 0.930 . S
C359 C355 1.400 . S
C359 C358 1.385 . S
C360 C358 1.478 . S
C360 C362 1.381 . S
C360 C366 1.383 . S
C361 C357 1.495 . S
C361 H367 0.959 . S
C361 H368 0.961 . S
C361 H369 0.960 . S
C362 C360 1.381 . S
C362 C363 1.394 . S
C362 H370 0.930 . S
C363 C362 1.394 . S
C363 C364 1.383 . S
C363 H371 0.929 . S
C364 C363 1.383 . S
C364 C365 1.377 . S
C365 H349 0.930 . S
C365 C364 1.377 . S
C365 C366 1.379 . S
C366 H350 0.931 . S
C366 C360 1.383 . S
C366 C365 1.379 . S
H367 C361 0.959 . S
H368 C361 0.961 . S
H369 C361 0.960 . S
H370 C362 0.930 . S
H371 C363 0.929 . S
H372 C380 0.929 . S
H373 C382 0.930 . S
H374 C384 0.930 . S
H375 C387 0.929 . S
H376 C390 0.930 . S
H377 C392 0.961 . S
H378 C392 0.960 . S
H379 C392 0.960 1_655 S
C380 H372 0.929 . S
C380 C381 1.377 . S
C380 C382 1.384 . S
C381 C380 1.377 . S
C381 C387 1.390 1_455 S
C382 H373 0.930 . S
C382 C380 1.384 . S
C382 C383 1.372 . S
C383 C382 1.372 . S
C383 C384 1.400 1_455 S
C383 C388 1.490 . S
C384 H374 0.930 . S
C384 C383 1.400 1_655 S
C384 C387 1.386 . S
H385 C401 0.930 . S
H386 C402 0.931 . S
C387 H375 0.929 . S
C387 C381 1.390 1_655 S
C387 C384 1.386 . S
C388 C383 1.490 . S
C388 C390 1.395 . S
C388 C391 1.403 . S
H389 C395 0.932 . S
C390 H376 0.930 . S
C390 C388 1.395 . S
C390 C393 1.403 . S
C391 C388 1.403 . S
C391 C392 1.524 . S
C391 C395 1.400 . S
C392 H377 0.961 . S
C392 H378 0.960 . S
C392 H379 0.960 1_455 S
C392 C391 1.524 . S
C393 C390 1.403 . S
C393 C394 1.392 . S
C393 C397 1.495 . S
C394 C393 1.392 . S
C394 C395 1.385 . S
C394 C396 1.478 . S
C395 H389 0.932 . S
C395 C391 1.400 . S
C395 C394 1.385 . S
C396 C394 1.478 . S
C396 C398 1.381 . S
C396 C402 1.383 1_455 S
C397 C393 1.495 . S
C397 H403 0.959 . S
C397 H404 0.961 1_455 S
C397 H405 0.960 . S
C398 C396 1.381 . S
C398 C399 1.394 . S
C398 H406 0.930 . S
C399 C398 1.394 . S
C399 C400 1.383 . S
C399 H407 0.929 . S
C400 C399 1.383 . S
C400 C401 1.377 1_455 S
C401 H385 0.930 . S
C401 C400 1.377 1_655 S
C401 C402 1.379 . S
C402 H386 0.931 . S
C402 C396 1.383 1_655 S
C402 C401 1.379 . S
H403 C397 0.959 . S
H404 C397 0.961 1_655 S
H405 C397 0.960 . S
H406 C398 0.930 . S
H407 C399 0.929 . S
H408 C416 0.929 . S
H409 C418 0.930 . S
H410 C420 0.930 . S
H411 C423 0.929 . S
H412 C426 0.930 . S
H413 C428 0.960 . S
H414 C428 0.960 . S
H415 C428 0.960 . S
C416 H408 0.929 . S
C416 C417 1.336 1_545 S
C416 C418 1.384 . S
C417 C416 1.336 1_565 S
C417 C423 1.431 . S
C418 H409 0.930 . S
C418 C416 1.384 . S
C418 C419 1.376 1_545 S
C419 C418 1.376 1_565 S
C419 C420 1.396 . S
C419 C424 1.490 1_565 S
C420 H410 0.930 . S
C420 C419 1.396 . S
C420 C423 1.386 . S
H421 C437 0.930 . S
H422 C438 0.931 1_554 S
C423 H411 0.929 . S
C423 C417 1.431 . S
C423 C420 1.386 . S
C424 C419 1.490 1_545 S
C424 C426 1.409 . S
C424 C427 1.390 1_545 S
H425 C431 0.930 1_556 S
C426 H412 0.930 . S
C426 C424 1.409 . S
C426 C429 1.403 . S
C427 C424 1.390 1_565 S
C427 C428 1.524 . S
C427 C431 1.400 . S
C428 H413 0.960 . S
C428 H414 0.960 . S
C428 H415 0.960 . S
C428 C427 1.524 . S
C429 C426 1.403 . S
C429 C430 1.392 . S
C429 C433 1.495 . S
C430 C429 1.392 . S
C430 C431 1.385 1_545 S
C430 C432 1.478 1_554 S
C431 H425 0.930 1_554 S
C431 C427 1.400 . S
C431 C430 1.385 1_565 S
C432 C430 1.478 1_556 S
C432 C434 1.381 . S
C432 C438 1.383 1_545 S
C433 C429 1.495 . S
C433 H439 0.959 . S
C433 H440 0.961 . S
C433 H441 0.960 . S
C434 C432 1.381 . S
C434 C435 1.394 . S
C434 H442 0.930 . S
C435 C434 1.394 . S
C435 C436 1.370 1_545 S
C435 H443 0.929 . S
C436 C435 1.370 1_565 S
C436 C437 1.390 . S
C437 H421 0.930 . S
C437 C436 1.390 . S
C437 C438 1.379 . S
C438 H422 0.931 1_556 S
C438 C432 1.383 1_565 S
C438 C437 1.379 . S
H439 C433 0.959 . S
H440 C433 0.961 . S
H441 C433 0.960 . S
H442 C434 0.930 . S
H443 C435 0.929 . S
H444 C452 0.929 . S
H445 C454 0.930 . S
H446 C456 0.930 . S
H447 C459 0.929 . S
H448 C462 0.930 . S
H449 C464 0.960 1_556 S
H450 C464 0.960 . S
H451 C464 0.960 . S
C452 H444 0.929 . S
C452 C453 1.377 . S
C452 C454 1.384 . S
C453 C452 1.377 . S
C453 C459 1.390 . S
C454 H445 0.930 . S
C454 C452 1.384 . S
C454 C455 1.372 . S
C455 C454 1.372 . S
C455 C456 1.400 . S
C455 C460 1.490 . S
C456 H446 0.930 . S
C456 C455 1.400 . S
C456 C459 1.386 . S
H457 C473 0.930 . S
H458 C474 0.931 . S
C459 H447 0.929 . S
C459 C453 1.390 . S
C459 C456 1.386 . S
C460 C455 1.490 . S
C460 C462 1.395 . S
C460 C463 1.403 . S
H461 C467 0.930 1_556 S
C462 H448 0.930 . S
C462 C460 1.395 . S
C462 C465 1.403 . S
C463 C460 1.403 . S
C463 C464 1.524 . S
C463 C467 1.400 . S
C464 H449 0.960 1_554 S
C464 H450 0.960 . S
C464 H451 0.960 . S
C464 C463 1.524 . S
C465 C462 1.403 . S
C465 C466 1.392 . S
C465 C469 1.495 . S
C466 C465 1.392 . S
C466 C467 1.385 . S
C466 C468 1.478 1_554 S
C467 H461 0.930 1_554 S
C467 C463 1.400 . S
C467 C466 1.385 . S
C468 C466 1.478 1_556 S
C468 C470 1.381 . S
C468 C474 1.383 . S
C469 C465 1.495 . S
C469 H475 0.959 . S
C469 H476 0.961 . S
C469 H477 0.960 . S
C470 C468 1.381 . S
C470 C471 1.394 . S
C470 H478 0.930 1_556 S
C471 C470 1.394 . S
C471 C472 1.383 . S
C471 H479 0.929 . S
C472 C471 1.383 . S
C472 C473 1.377 . S
C473 H457 0.930 . S
C473 C472 1.377 . S
C473 C474 1.379 . S
C474 H458 0.931 . S
C474 C468 1.383 . S
C474 C473 1.379 . S
H475 C469 0.959 . S
H476 C469 0.961 . S
H477 C469 0.960 . S
H478 C470 0.930 1_554 S
H479 C471 0.929 . S
H480 C488 0.929 . S
H481 C490 0.930 . S
H482 C492 0.930 . S
H483 C495 0.929 . S
H484 C498 0.930 . S
H485 C500 0.960 1_556 S
H486 C500 0.960 . S
H487 C500 0.960 . S
C488 H480 0.929 . S
C488 C489 1.377 . S
C488 C490 1.384 . S
C489 C488 1.377 . S
C489 C495 1.390 . S
C490 H481 0.930 . S
C490 C488 1.384 . S
C490 C491 1.372 . S
C491 C490 1.372 . S
C491 C492 1.400 . S
C491 C496 1.490 . S
C492 H482 0.930 . S
C492 C491 1.400 . S
C492 C495 1.386 . S
H493 C509 0.930 . S
H494 C510 0.931 . S
C495 H483 0.929 . S
C495 C489 1.390 . S
C495 C492 1.386 . S
C496 C491 1.490 . S
C496 C498 1.395 . S
C496 C499 1.403 . S
H497 C503 0.930 1_556 S
C498 H484 0.930 . S
C498 C496 1.395 . S
C498 C501 1.403 . S
C499 C496 1.403 . S
C499 C500 1.524 . S
C499 C503 1.400 . S
C500 H485 0.960 1_554 S
C500 H486 0.960 . S
C500 H487 0.960 . S
C500 C499 1.524 . S
C501 C498 1.403 . S
C501 C502 1.392 . S
C501 C505 1.495 . S
C502 C501 1.392 . S
C502 C503 1.385 . S
C502 C504 1.478 1_554 S
C503 H497 0.930 1_554 S
C503 C499 1.400 . S
C503 C502 1.385 . S
C504 C502 1.478 1_556 S
C504 C506 1.381 . S
C504 C510 1.383 . S
C505 C501 1.495 . S
C505 H511 0.959 . S
C505 H512 0.961 . S
C505 H513 0.960 . S
C506 C504 1.381 . S
C506 C507 1.394 . S
C506 H514 0.930 . S
C507 C506 1.394 . S
C507 C508 1.383 . S
C507 H515 0.929 . S
C508 C507 1.383 . S
C508 C509 1.377 . S
C509 H493 0.930 . S
C509 C508 1.377 . S
C509 C510 1.379 . S
C510 H494 0.931 . S
C510 C504 1.383 . S
C510 C509 1.379 . S
H511 C505 0.959 . S
H512 C505 0.961 . S
H513 C505 0.960 . S
H514 C506 0.930 . S
H515 C507 0.929 . S
H516 C524 0.929 . S
H517 C526 0.930 . S
H518 C528 0.930 . S
H519 C531 0.929 . S
H520 C534 0.930 . S
H521 C536 0.960 . S
H522 C536 0.960 1_655 S
H523 C536 0.960 . S
C524 H516 0.929 . S
C524 C525 1.422 . S
C524 C526 1.384 . S
C525 C524 1.422 . S
C525 C531 1.347 1_655 S
C526 H517 0.930 . S
C526 C524 1.384 . S
C526 C527 1.372 . S
C527 C526 1.372 . S
C527 C528 1.400 1_655 S
C527 C532 1.490 . S
C528 H518 0.930 . S
C528 C527 1.400 1_455 S
C528 C531 1.386 . S
H529 C545 0.930 . S
H530 C546 0.931 . S
C531 H519 0.929 . S
C531 C525 1.347 1_455 S
C531 C528 1.386 . S
C532 C527 1.490 . S
C532 C534 1.395 . S
C532 C535 1.403 1_655 S
H533 C539 0.930 . S
C534 H520 0.930 . S
C534 C532 1.395 . S
C534 C537 1.403 1_554 S
C535 C532 1.403 1_455 S
C535 C536 1.524 . S
C535 C539 1.400 . S
C536 H521 0.960 . S
C536 H522 0.960 1_455 S
C536 H523 0.960 . S
C536 C535 1.524 . S
C537 C534 1.403 1_556 S
C537 C538 1.392 1_556 S
C537 C541 1.495 . S
C538 C537 1.392 1_554 S
C538 C539 1.385 1_655 S
C538 C540 1.478 1_554 S
C539 H533 0.930 . S
C539 C535 1.400 . S
C539 C538 1.385 1_455 S
C540 C538 1.478 1_556 S
C540 C542 1.381 . S
C540 C546 1.383 1_655 S
C541 C537 1.495 . S
C541 H547 0.959 . S
C541 H548 0.961 1_655 S
C541 H549 0.960 . S
C542 C540 1.381 . S
C542 C543 1.394 . S
C542 H550 0.930 . S
C543 C542 1.394 . S
C543 C544 1.383 . S
C543 H551 0.929 . S
C544 C543 1.383 . S
C544 C545 1.377 1_655 S
C545 H529 0.930 . S
C545 C544 1.377 1_455 S
C545 C546 1.379 . S
C546 H530 0.931 . S
C546 C540 1.383 1_455 S
C546 C545 1.379 . S
H547 C541 0.959 . S
H548 C541 0.961 1_455 S
H549 C541 0.960 . S
H550 C542 0.930 . S
H551 C543 0.929 . S
H552 C560 0.929 . S
H553 C562 0.930 . S
H554 C564 0.930 . S
H555 C567 0.929 . S
H556 C570 0.930 . S
H557 C572 0.960 . S
H558 C572 0.960 . S
H559 C572 0.960 . S
C560 H552 0.929 . S
C560 C561 1.377 1_655 S
C560 C562 1.384 . S
C561 C560 1.377 1_455 S
C561 C567 1.390 . S
C562 H553 0.930 . S
C562 C560 1.384 . S
C562 C563 1.372 . S
C563 C562 1.372 . S
C563 C564 1.400 1_655 S
C563 C568 1.490 . S
C564 H554 0.930 . S
C564 C563 1.400 1_455 S
C564 C567 1.386 . S
H565 C581 0.930 . S
H566 C582 0.931 1_455 S
C567 H555 0.929 . S
C567 C561 1.390 . S
C567 C564 1.386 . S
C568 C563 1.490 . S
C568 C570 1.395 . S
C568 C571 1.403 1_655 S
H569 C575 0.930 1_455 S
C570 H556 0.930 . S
C570 C568 1.395 . S
C570 C573 1.403 . S
C571 C568 1.403 1_455 S
C571 C572 1.524 . S
C571 C575 1.400 1_455 S
C572 H557 0.960 . S
C572 H558 0.960 . S
C572 H559 0.960 . S
C572 C571 1.524 . S
C573 C570 1.403 . S
C573 C574 1.392 . S
C573 C577 1.495 . S
C574 C573 1.392 . S
C574 C575 1.385 . S
C574 C576 1.478 . S
C575 H569 0.930 1_655 S
C575 C571 1.400 1_655 S
C575 C574 1.385 . S
C576 C574 1.478 . S
C576 C578 1.381 . S
C576 C582 1.383 . S
C577 C573 1.495 . S
C577 H583 0.959 . S
C577 H584 0.961 . S
C577 H585 0.960 . S
C578 C576 1.381 . S
C578 C579 1.394 . S
C578 H586 0.930 . S
C579 C578 1.394 . S
C579 C580 1.383 . S
C579 H587 0.929 . S
C580 C579 1.383 . S
C580 C581 1.377 . S
C581 H565 0.930 . S
C581 C580 1.377 . S
C581 C582 1.379 . S
C582 H566 0.931 1_655 S
C582 C576 1.383 . S
C582 C581 1.379 . S
H583 C577 0.959 . S
H584 C577 0.961 . S
H585 C577 0.960 . S
H586 C578 0.930 . S
H587 C579 0.929 . S
H588 C596 0.929 . S
H589 C598 0.930 . S
H590 C600 0.930 . S
H591 C603 0.932 1_556 S
H592 C606 0.930 . S
H593 C608 0.960 . S
H594 C608 0.960 . S
H595 C608 0.960 . S
C596 H588 0.929 . S
C596 C597 1.377 . S
C596 C598 1.378 1_545 S
C597 C596 1.377 . S
C597 C603 1.381 1_545 S
C598 H589 0.930 . S
C598 C596 1.378 1_565 S
C598 C599 1.379 . S
C599 C598 1.379 . S
C599 C600 1.400 . S
C599 C604 1.490 . S
C600 H590 0.930 . S
C600 C599 1.400 . S
C600 C603 1.395 . S
H601 C617 0.930 . S
H602 C618 0.931 . S
C603 H591 0.932 1_554 S
C603 C597 1.381 1_565 S
C603 C600 1.395 . S
C604 C599 1.490 . S
C604 C606 1.395 . S
C604 C607 1.403 1_565 S
H605 C611 0.930 1_545 S
C606 H592 0.930 . S
C606 C604 1.395 . S
C606 C609 1.403 . S
C607 C604 1.403 1_545 S
C607 C608 1.524 . S
C607 C611 1.400 1_545 S
C608 H593 0.960 . S
C608 H594 0.960 . S
C608 H595 0.960 . S
C608 C607 1.524 . S
C609 C606 1.403 . S
C609 C610 1.392 . S
C609 C613 1.495 . S
C610 C609 1.392 . S
C610 C611 1.385 . S
C610 C612 1.478 . S
C611 H605 0.930 1_565 S
C611 C607 1.400 1_565 S
C611 C610 1.385 . S
C612 C610 1.478 . S
C612 C614 1.381 . S
C612 C618 1.383 . S
C613 C609 1.495 . S
C613 H619 0.959 . S
C613 H620 0.961 . S
C613 H621 0.960 . S
C614 C612 1.381 . S
C614 C615 1.394 . S
C614 H622 0.930 . S
C615 C614 1.394 . S
C615 C616 1.383 . S
C615 H623 0.929 . S
C616 C615 1.383 . S
C616 C617 1.377 . S
C617 H601 0.930 . S
C617 C616 1.377 . S
C617 C618 1.379 . S
C618 H602 0.931 . S
C618 C612 1.383 . S
C618 C617 1.379 . S
H619 C613 0.959 . S
H620 C613 0.961 . S
H621 C613 0.960 . S
H622 C614 0.930 . S
H623 C615 0.929 . S
H624 C632 0.929 . S
H625 C634 0.930 . S
H626 C636 0.930 . S
H627 C639 0.929 . S
H628 C642 0.930 . S
H629 C644 0.960 . S
H630 C644 0.960 . S
H631 C644 0.960 . S
C632 H624 0.929 . S
C632 C633 1.377 . S
C632 C634 1.384 . S
C633 C632 1.377 . S
C633 C639 1.390 . S
C634 H625 0.930 . S
C634 C632 1.384 . S
C634 C635 1.372 . S
C635 C634 1.372 . S
C635 C636 1.400 . S
C635 C640 1.490 . S
C636 H626 0.930 . S
C636 C635 1.400 . S
C636 C639 1.386 . S
H637 C653 0.930 . S
H638 C654 0.931 . S
C639 H627 0.929 . S
C639 C633 1.390 . S
C639 C636 1.386 . S
C640 C635 1.490 . S
C640 C642 1.395 . S
C640 C643 1.403 . S
H641 C647 0.930 . S
C642 H628 0.930 . S
C642 C640 1.395 . S
C642 C645 1.403 . S
C643 C640 1.403 . S
C643 C644 1.524 . S
C643 C647 1.400 . S
C644 H629 0.960 . S
C644 H630 0.960 . S
C644 H631 0.960 . S
C644 C643 1.524 . S
C645 C642 1.403 . S
C645 C646 1.392 . S
C645 C649 1.495 . S
C646 C645 1.392 . S
C646 C647 1.385 . S
C646 C648 1.478 . S
C647 H641 0.930 . S
C647 C643 1.400 . S
C647 C646 1.385 . S
C648 C646 1.478 . S
C648 C650 1.381 . S
C648 C654 1.383 . S
C649 C645 1.495 . S
C649 H655 0.959 . S
C649 H656 0.961 . S
C649 H657 0.960 . S
C650 C648 1.381 . S
C650 C651 1.394 . S
C650 H658 0.930 . S
C651 C650 1.394 . S
C651 C652 1.383 . S
C651 H659 0.929 . S
C652 C651 1.383 . S
C652 C653 1.377 . S
C653 H637 0.930 . S
C653 C652 1.377 . S
C653 C654 1.379 . S
C654 H638 0.931 . S
C654 C648 1.383 . S
C654 C653 1.379 . S
H655 C649 0.959 . S
H656 C649 0.961 . S
H657 C649 0.960 . S
H658 C650 0.930 . S
H659 C651 0.929 . S
H660 C668 0.929 . S
H661 C670 0.930 . S
H662 C672 0.930 . S
H663 C675 0.929 . S
H664 C678 0.930 . S
H665 C680 0.960 . S
H666 C680 0.960 . S
H667 C680 0.960 . S
C668 H660 0.929 . S
C668 C669 1.377 . S
C668 C670 1.384 . S
C669 C668 1.377 . S
C669 C675 1.390 . S
C670 H661 0.930 . S
C670 C668 1.384 . S
C670 C671 1.372 . S
C671 C670 1.372 . S
C671 C672 1.400 . S
C671 C676 1.490 . S
C672 H662 0.930 . S
C672 C671 1.400 . S
C672 C675 1.386 . S
H673 C689 0.930 . S
H674 C690 0.931 . S
C675 H663 0.929 . S
C675 C669 1.390 . S
C675 C672 1.386 . S
C676 C671 1.490 . S
C676 C678 1.395 . S
C676 C679 1.403 . S
H677 C683 0.930 . S
C678 H664 0.930 . S
C678 C676 1.395 . S
C678 C681 1.403 . S
C679 C676 1.403 . S
C679 C680 1.524 . S
C679 C683 1.400 . S
C680 H665 0.960 . S
C680 H666 0.960 . S
C680 H667 0.960 . S
C680 C679 1.524 . S
C681 C678 1.403 . S
C681 C682 1.392 . S
C681 C685 1.495 . S
C682 C681 1.392 . S
C682 C683 1.385 . S
C682 C684 1.478 . S
C683 H677 0.930 . S
C683 C679 1.400 . S
C683 C682 1.385 . S
C684 C682 1.478 . S
C684 C686 1.381 . S
C684 C690 1.383 . S
C685 C681 1.495 . S
C685 H691 0.959 . S
C685 H692 0.961 . S
C685 H693 0.960 . S
C686 C684 1.381 . S
C686 C687 1.394 . S
C686 H694 0.930 . S
C687 C686 1.394 . S
C687 C688 1.383 . S
C687 H695 0.929 . S
C688 C687 1.383 . S
C688 C689 1.377 . S
C689 H673 0.930 . S
C689 C688 1.377 . S
C689 C690 1.379 . S
C690 H674 0.931 . S
C690 C684 1.383 . S
C690 C689 1.379 . S
H691 C685 0.959 . S
H692 C685 0.961 . S
H693 C685 0.960 . S
H694 C686 0.930 . S
H695 C687 0.929 . S
H696 C704 0.929 . S
H697 C706 0.930 . S
H698 C708 0.930 . S
H699 C711 0.929 . S
H700 C714 0.930 . S
H701 C716 0.960 . S
H702 C716 0.960 . S
H703 C716 0.960 . S
C704 H696 0.929 . S
C704 C705 1.377 1_455 S
C704 C706 1.384 . S
C705 C704 1.377 1_655 S
C705 C711 1.390 . S
C706 H697 0.930 . S
C706 C704 1.384 . S
C706 C707 1.372 . S
C707 C706 1.372 . S
C707 C708 1.400 1_455 S
C707 C712 1.490 . S
C708 H698 0.930 . S
C708 C707 1.400 1_655 S
C708 C711 1.386 . S
H709 C725 0.930 . S
H710 C726 0.931 1_556 S
C711 H699 0.929 . S
C711 C705 1.390 . S
C711 C708 1.386 . S
C712 C707 1.490 . S
C712 C714 1.395 . S
C712 C715 1.403 1_455 S
H713 C719 0.901 1_655 S
C714 H700 0.930 . S
C714 C712 1.395 . S
C714 C717 1.403 . S
C715 C712 1.403 1_655 S
C715 C716 1.524 . S
C715 C719 1.389 1_655 S
C716 H701 0.960 . S
C716 H702 0.960 . S
C716 H703 0.960 . S
C716 C715 1.524 . S
C717 C714 1.403 . S
C717 C718 1.392 . S
C717 C721 1.495 . S
C718 C717 1.392 . S
C718 C719 1.425 . S
C718 C720 1.478 . S
C719 H713 0.901 1_455 S
C719 C715 1.389 1_455 S
C719 C718 1.425 . S
C720 C718 1.478 . S
C720 C722 1.381 . S
C720 C726 1.383 . S
C721 C717 1.495 . S
C721 H727 0.959 . S
C721 H728 0.961 . S
C721 H729 0.960 . S
C722 C720 1.381 . S
C722 C723 1.394 . S
C722 H730 0.930 . S
C723 C722 1.394 . S
C723 C724 1.383 . S
C723 H731 0.929 . S
C724 C723 1.383 . S
C724 C725 1.377 1_554 S
C725 H709 0.930 . S
C725 C724 1.377 1_556 S
C725 C726 1.379 1_556 S
C726 H710 0.931 1_554 S
C726 C720 1.383 . S
C726 C725 1.379 1_554 S
H727 C721 0.959 . S
H728 C721 0.961 . S
H729 C721 0.960 . S
H730 C722 0.930 . S
H731 C723 0.929 . S
H732 C740 0.929 . S
H733 C742 0.930 . S
H734 C744 0.930 . S
H735 C747 0.929 . S
H736 C750 0.930 . S
H737 C752 0.960 . S
H738 C752 0.961 1_545 S
H739 C752 0.960 . S
C740 H732 0.929 . S
C740 C741 1.377 1_545 S
C740 C742 1.384 . S
C741 C740 1.377 1_565 S
C741 C747 1.390 . S
C742 H733 0.930 . S
C742 C740 1.384 . S
C742 C743 1.372 . S
C743 C742 1.372 . S
C743 C744 1.400 1_545 S
C743 C748 1.490 . S
C744 H734 0.930 . S
C744 C743 1.400 1_565 S
C744 C747 1.386 . S
H745 C761 0.930 1_566 S
H746 C762 0.931 1_565 S
C747 H735 0.929 . S
C747 C741 1.390 . S
C747 C744 1.386 . S
C748 C743 1.490 . S
C748 C750 1.395 . S
C748 C751 1.403 . S
H749 C755 0.930 . S
C750 H736 0.930 . S
C750 C748 1.395 . S
C750 C753 1.403 . S
C751 C748 1.403 . S
C751 C752 1.524 1_545 S
C751 C755 1.400 . S
C752 H737 0.960 . S
C752 H738 0.961 1_565 S
C752 H739 0.960 . S
C752 C751 1.524 1_565 S
C753 C750 1.403 . S
C753 C754 1.392 . S
C753 C757 1.495 . S
C754 C753 1.392 . S
C754 C755 1.385 . S
C754 C756 1.478 . S
C755 H749 0.930 . S
C755 C751 1.400 . S
C755 C754 1.385 . S
C756 C754 1.478 . S
C756 C758 1.381 . S
C756 C762 1.383 . S
C757 C753 1.495 . S
C757 H763 0.959 . S
C757 H764 0.961 1_554 S
C757 H765 0.960 . S
C758 C756 1.381 . S
C758 C759 1.394 . S
C758 H766 0.930 . S
C759 C758 1.394 . S
C759 C760 1.383 . S
C759 H767 0.929 . S
C760 C759 1.383 . S
C760 C761 1.377 . S
C761 H745 0.930 1_544 S
C761 C760 1.377 . S
C761 C762 1.379 . S
C762 H746 0.931 1_545 S
C762 C756 1.383 . S
C762 C761 1.379 . S
H763 C757 0.959 . S
H764 C757 0.961 1_556 S
H765 C757 0.960 . S
H766 C758 0.930 . S
H767 C759 0.929 . S
H768 C776 0.929 . S
H769 C778 0.930 . S
H770 C780 0.930 . S
H771 C783 0.929 . S
H772 C786 0.930 . S
H773 C788 0.960 . S
H774 C788 0.960 . S
H775 C788 0.960 . S
C776 H768 0.929 . S
C776 C777 1.377 . S
C776 C778 1.384 . S
C777 C776 1.377 . S
C777 C783 1.390 . S
C778 H769 0.930 . S
C778 C776 1.384 . S
C778 C779 1.372 . S
C779 C778 1.372 . S
C779 C780 1.400 . S
C779 C784 1.490 . S
C780 H770 0.930 . S
C780 C779 1.400 . S
C780 C783 1.386 . S
H781 C797 0.930 . S
H782 C798 0.931 1_556 S
C783 H771 0.929 . S
C783 C777 1.390 . S
C783 C780 1.386 . S
C784 C779 1.490 . S
C784 C786 1.395 . S
C784 C787 1.403 . S
H785 C791 0.930 . S
C786 H772 0.930 . S
C786 C784 1.395 . S
C786 C789 1.403 . S
C787 C784 1.403 . S
C787 C788 1.524 . S
C787 C791 1.400 . S
C788 H773 0.960 . S
C788 H774 0.960 . S
C788 H775 0.960 . S
C788 C787 1.524 . S
C789 C786 1.403 . S
C789 C790 1.392 . S
C789 C793 1.495 . S
C790 C789 1.392 . S
C790 C791 1.385 . S
C790 C792 1.478 . S
C791 H785 0.930 . S
C791 C787 1.400 . S
C791 C790 1.385 . S
C792 C790 1.478 . S
C792 C794 1.381 . S
C792 C798 1.383 . S
C793 C789 1.495 . S
C793 H799 0.959 . S
C793 H800 0.961 . S
C793 H801 0.960 . S
C794 C792 1.381 . S
C794 C795 1.394 . S
C794 H802 0.930 . S
C795 C794 1.394 . S
C795 C796 1.383 . S
C795 H803 0.929 . S
C796 C795 1.383 . S
C796 C797 1.377 1_554 S
C797 H781 0.930 . S
C797 C796 1.377 1_556 S
C797 C798 1.379 1_556 S
C798 H782 0.931 1_554 S
C798 C792 1.383 . S
C798 C797 1.379 1_554 S
H799 C793 0.959 . S
H800 C793 0.961 . S
H801 C793 0.960 . S
H802 C794 0.930 . S
H803 C795 0.929 . S
H804 C812 0.929 . S
H805 C814 0.930 . S
H806 C816 0.930 . S
H807 C819 0.929 . S
H808 C822 0.930 . S
H809 C824 0.960 . S
H810 C824 0.960 . S
H811 C824 0.960 . S
C812 H804 0.929 . S
C812 C813 1.377 . S
C812 C814 1.384 . S
C813 C812 1.377 . S
C813 C819 1.390 . S
C814 H805 0.930 . S
C814 C812 1.384 . S
C814 C815 1.372 . S
C815 C814 1.372 . S
C815 C816 1.400 . S
C815 C820 1.490 . S
C816 H806 0.930 . S
C816 C815 1.400 . S
C816 C819 1.386 . S
H817 C833 0.930 . S
H818 C834 0.931 . S
C819 H807 0.929 . S
C819 C813 1.390 . S
C819 C816 1.386 . S
C820 C815 1.490 . S
C820 C822 1.395 . S
C820 C823 1.403 . S
H821 C827 0.930 . S
C822 H808 0.930 . S
C822 C820 1.395 . S
C822 C825 1.403 . S
C823 C820 1.403 . S
C823 C824 1.524 . S
C823 C827 1.400 . S
C824 H809 0.960 . S
C824 H810 0.960 . S
C824 H811 0.960 . S
C824 C823 1.524 . S
C825 C822 1.403 . S
C825 C826 1.392 . S
C825 C829 1.495 . S
C826 C825 1.392 . S
C826 C827 1.385 . S
C826 C828 1.478 . S
C827 H821 0.930 . S
C827 C823 1.400 . S
C827 C826 1.385 . S
C828 C826 1.478 . S
C828 C830 1.381 . S
C828 C834 1.383 . S
C829 C825 1.495 . S
C829 H835 0.959 . S
C829 H836 0.961 1_554 S
C829 H837 0.960 . S
C830 C828 1.381 . S
C830 C831 1.394 . S
C830 H838 0.930 . S
C831 C830 1.394 . S
C831 C832 1.383 . S
C831 H839 0.929 . S
C832 C831 1.383 . S
C832 C833 1.377 . S
C833 H817 0.930 . S
C833 C832 1.377 . S
C833 C834 1.379 . S
C834 H818 0.931 . S
C834 C828 1.383 . S
C834 C833 1.379 . S
H835 C829 0.959 . S
H836 C829 0.961 1_556 S
H837 C829 0.960 . S
H838 C830 0.930 . S
H839 C831 0.929 . S
H840 C848 0.929 . S
H841 C850 0.930 . S
H842 C852 0.930 . S
H843 C855 0.929 1_554 S
H844 C858 0.930 . S
H845 C860 0.960 . S
H846 C860 0.960 1_556 S
H847 C860 0.960 . S
C848 H840 0.929 . S
C848 C849 1.377 1_655 S
C848 C850 1.384 . S
C849 C848 1.377 1_455 S
C849 C855 1.390 . S
C850 H841 0.930 . S
C850 C848 1.384 . S
C850 C851 1.372 1_655 S
C851 C850 1.372 1_455 S
C851 C852 1.400 . S
C851 C856 1.490 . S
C852 H842 0.930 . S
C852 C851 1.400 . S
C852 C855 1.386 . S
H853 C869 0.930 . S
H854 C870 0.931 . S
C855 H843 0.929 1_556 S
C855 C849 1.390 . S
C855 C852 1.386 . S
C856 C851 1.490 . S
C856 C858 1.395 . S
C856 C859 1.403 1_455 S
H857 C863 0.951 . S
C858 H844 0.930 . S
C858 C856 1.395 . S
C858 C861 1.403 . S
C859 C856 1.403 1_655 S
C859 C860 1.524 1_556 S
C859 C863 1.407 . S
C860 H845 0.960 . S
C860 H846 0.960 1_554 S
C860 H847 0.960 . S
C860 C859 1.524 1_554 S
C861 C858 1.403 . S
C861 C862 1.392 . S
C861 C865 1.495 . S
C862 C861 1.392 . S
C862 C863 1.361 1_455 S
C862 C864 1.478 . S
C863 H857 0.951 . S
C863 C859 1.407 . S
C863 C862 1.361 1_655 S
C864 C862 1.478 . S
C864 C866 1.381 1_455 S
C864 C870 1.383 . S
C865 C861 1.495 . S
C865 H871 0.959 . S
C865 H872 0.961 . S
C865 H873 0.960 . S
C866 C864 1.381 1_655 S
C866 C867 1.394 . S
C866 H874 0.930 . S
C867 C866 1.394 . S
C867 C868 1.383 1_655 S
C867 H875 0.929 . S
C868 C867 1.383 1_455 S
C868 C869 1.377 . S
C869 H853 0.930 . S
C869 C868 1.377 . S
C869 C870 1.379 . S
C870 H854 0.931 . S
C870 C864 1.383 . S
C870 C869 1.379 . S
H871 C865 0.959 . S
H872 C865 0.961 . S
H873 C865 0.960 . S
H874 C866 0.930 . S
H875 C867 0.929 . S
H876 C884 0.929 1_554 S
H877 C886 0.930 1_554 S
H878 C888 0.930 . S
H879 C891 0.929 . S
H880 C894 0.930 . S
H881 C896 0.960 . S
H882 C896 0.960 . S
H883 C896 0.960 . S
C884 H876 0.929 1_556 S
C884 C885 1.377 1_565 S
C884 C886 1.384 . S
C885 C884 1.377 1_545 S
C885 C891 1.390 . S
C886 H877 0.930 1_556 S
C886 C884 1.384 . S
C886 C887 1.372 1_565 S
C887 C886 1.372 1_545 S
C887 C888 1.400 . S
C887 C892 1.490 . S
C888 H878 0.930 . S
C888 C887 1.400 . S
C888 C891 1.386 . S
H889 C905 0.930 . S
H890 C906 0.931 . S
C891 H879 0.929 . S
C891 C885 1.390 . S
C891 C888 1.386 . S
C892 C887 1.490 . S
C892 C894 1.395 1_545 S
C892 C895 1.403 . S
H893 C899 0.930 . S
C894 H880 0.930 . S
C894 C892 1.395 1_565 S
C894 C897 1.403 . S
C895 C892 1.403 . S
C895 C896 1.524 . S
C895 C899 1.400 . S
C896 H881 0.960 . S
C896 H882 0.960 . S
C896 H883 0.960 . S
C896 C895 1.524 . S
C897 C894 1.403 . S
C897 C898 1.392 1_565 S
C897 C901 1.495 . S
C898 C897 1.392 1_545 S
C898 C899 1.385 . S
C898 C900 1.478 . S
C899 H893 0.930 . S
C899 C895 1.400 . S
C899 C898 1.385 . S
C900 C898 1.478 . S
C900 C902 1.381 1_545 S
C900 C906 1.383 . S
C901 C897 1.495 . S
C901 H907 0.959 . S
C901 H908 0.961 . S
C901 H909 0.960 . S
C902 C900 1.381 1_565 S
C902 C903 1.399 . S
C902 H910 0.930 . S
C903 C902 1.399 . S
C903 C904 1.369 1_565 S
C903 H911 0.941 . S
C904 C903 1.369 1_545 S
C904 C905 1.377 . S
C905 H889 0.930 . S
C905 C904 1.377 . S
C905 C906 1.379 . S
C906 H890 0.931 . S
C906 C900 1.383 . S
C906 C905 1.379 . S
H907 C901 0.959 . S
H908 C901 0.961 . S
H909 C901 0.960 . S
H910 C902 0.930 . S
H911 C903 0.941 . S
H912 C920 0.929 . S
H913 C922 0.930 . S
H914 C924 0.927 1_554 S
H915 C927 0.929 1_554 S
H916 C930 0.930 . S
H917 C932 0.960 . S
H918 C932 0.960 . S
H919 C932 0.960 . S
C920 H912 0.929 . S
C920 C921 1.377 . S
C920 C922 1.384 . S
C921 C920 1.377 . S
C921 C927 1.390 . S
C922 H913 0.930 . S
C922 C920 1.384 . S
C922 C923 1.372 . S
C923 C922 1.372 . S
C923 C924 1.400 . S
C923 C928 1.490 . S
C924 H914 0.927 1_556 S
C924 C923 1.400 . S
C924 C927 1.386 . S
H925 C941 0.930 . S
H926 C942 0.931 . S
C927 H915 0.929 1_556 S
C927 C921 1.390 . S
C927 C924 1.386 . S
C928 C923 1.490 . S
C928 C930 1.395 . S
C928 C931 1.403 . S
H929 C935 0.930 . S
C930 H916 0.930 . S
C930 C928 1.395 . S
C930 C933 1.403 . S
C931 C928 1.403 . S
C931 C932 1.524 . S
C931 C935 1.400 . S
C932 H917 0.960 . S
C932 H918 0.960 . S
C932 H919 0.960 . S
C932 C931 1.524 . S
C933 C930 1.403 . S
C933 C934 1.392 . S
C933 C937 1.495 . S
C934 C933 1.392 . S
C934 C935 1.385 . S
C934 C936 1.478 . S
C935 H929 0.930 . S
C935 C931 1.400 . S
C935 C934 1.385 . S
C936 C934 1.478 . S
C936 C938 1.381 . S
C936 C942 1.383 . S
C937 C933 1.495 . S
C937 H943 0.959 . S
C937 H944 0.961 . S
C937 H945 0.960 . S
C938 C936 1.381 . S
C938 C939 1.394 . S
C938 H946 0.930 . S
C939 C938 1.394 . S
C939 C940 1.383 . S
C939 H947 0.929 . S
C940 C939 1.383 . S
C940 C941 1.377 . S
C941 H925 0.930 . S
C941 C940 1.377 . S
C941 C942 1.379 . S
C942 H926 0.931 . S
C942 C936 1.383 . S
C942 C941 1.379 . S
H943 C937 0.959 . S
H944 C937 0.961 . S
H945 C937 0.960 . S
H946 C938 0.930 . S
H947 C939 0.929 . S
H948 C956 0.929 . S
H949 C958 0.930 . S
H950 C960 0.930 . S
H951 C963 0.929 1_554 S
H952 C966 0.930 . S
H953 C968 0.960 . S
H954 C968 0.960 . S
H955 C968 0.960 . S
C956 H948 0.929 . S
C956 C957 1.377 . S
C956 C958 1.384 . S
C957 C956 1.377 . S
C957 C963 1.390 . S
C958 H949 0.930 . S
C958 C956 1.384 . S
C958 C959 1.372 . S
C959 C958 1.372 . S
C959 C960 1.400 . S
C959 C964 1.490 . S
C960 H950 0.930 . S
C960 C959 1.400 . S
C960 C963 1.386 . S
H961 C977 0.930 . S
H962 C978 0.931 . S
C963 H951 0.929 1_556 S
C963 C957 1.390 . S
C963 C960 1.386 . S
C964 C959 1.490 . S
C964 C966 1.395 . S
C964 C967 1.403 . S
H965 C971 0.930 . S
C966 H952 0.930 . S
C966 C964 1.395 . S
C966 C969 1.403 . S
C967 C964 1.403 . S
C967 C968 1.524 . S
C967 C971 1.400 . S
C968 H953 0.960 . S
C968 H954 0.960 . S
C968 H955 0.960 . S
C968 C967 1.524 . S
C969 C966 1.403 . S
C969 C970 1.392 . S
C969 C973 1.495 . S
C970 C969 1.392 . S
C970 C971 1.385 . S
C970 C972 1.478 . S
C971 H965 0.930 . S
C971 C967 1.400 . S
C971 C970 1.385 . S
C972 C970 1.478 . S
C972 C974 1.381 . S
C972 C978 1.383 . S
C973 C969 1.495 . S
C973 H979 0.959 . S
C973 H980 0.961 . S
C973 H981 0.960 . S
C974 C972 1.381 . S
C974 C975 1.394 . S
C974 H982 0.930 . S
C975 C974 1.394 . S
C975 C976 1.383 . S
C975 H983 0.929 . S
C976 C975 1.383 . S
C976 C977 1.377 . S
C977 H961 0.930 . S
C977 C976 1.377 . S
C977 C978 1.379 . S
C978 H962 0.931 . S
C978 C972 1.383 . S
C978 C977 1.379 . S
H979 C973 0.959 . S
H980 C973 0.961 . S
H981 C973 0.960 . S
H982 C974 0.930 . S
H983 C975 0.929 . S
H984 C992 0.929 . S
H985 C994 0.930 . S
H986 C996 0.930 . S
H987 C999 0.929 . S
H988 C1002 0.932 . S
H989 C1004 0.960 . S
H990 C1004 0.960 . S
H991 C1004 0.960 . S
C992 H984 0.929 . S
C992 C993 1.377 . S
C992 C994 1.384 . S
C993 C992 1.377 . S
C993 C999 1.390 1_655 S
C994 H985 0.930 . S
C994 C992 1.384 . S
C994 C995 1.372 . S
C995 C994 1.372 . S
C995 C996 1.400 1_655 S
C995 C1000 1.490 . S
C996 H986 0.930 . S
C996 C995 1.400 1_455 S
C996 C999 1.386 . S
H997 C1013 0.930 . S
H998 C1014 0.931 . S
C999 H987 0.929 . S
C999 C993 1.390 1_455 S
C999 C996 1.386 . S
C1000 C995 1.490 . S
C1000 C1002 1.395 . S
C1000 C1003 1.403 . S
H1001 C1007 0.930 . S
C1002 H988 0.932 . S
C1002 C1000 1.395 . S
C1002 C1005 1.403 . S
C1003 C1000 1.403 . S
C1003 C1004 1.524 . S
C1003 C1007 1.400 . S
C1004 H989 0.960 . S
C1004 H990 0.960 . S
C1004 H991 0.960 . S
C1004 C1003 1.524 . S
C1005 C1002 1.403 . S
C1005 C1006 1.392 . S
C1005 C1009 1.490 1_655 S
C1006 C1005 1.392 . S
C1006 C1007 1.385 . S
C1006 C1008 1.478 . S
C1007 H1001 0.930 . S
C1007 C1003 1.400 . S
C1007 C1006 1.385 . S
C1008 C1006 1.478 . S
C1008 C1010 1.381 . S
C1008 C1014 1.383 1_655 S
C1009 C1005 1.490 1_455 S
C1009 H1015 0.965 . S
C1009 H1016 0.996 . S
C1009 H1017 0.926 1_455 S
C1010 C1008 1.381 . S
C1010 C1011 1.394 . S
C1010 H1018 0.930 . S
C1011 C1010 1.394 . S
C1011 C1012 1.383 . S
C1011 H1019 0.929 . S
C1012 C1011 1.383 . S
C1012 C1013 1.377 1_655 S
C1013 H997 0.930 . S
C1013 C1012 1.377 1_455 S
C1013 C1014 1.379 . S
C1014 H998 0.931 . S
C1014 C1008 1.383 1_455 S
C1014 C1013 1.379 . S
H1015 C1009 0.965 . S
H1016 C1009 0.996 . S
H1017 C1009 0.926 1_655 S
H1018 C1010 0.930 . S
H1019 C1011 0.929 . S
H1020 C1028 0.929 . S
H1021 C1030 0.930 . S
H1022 C1032 0.930 . S
H1023 C1035 0.929 . S
H1024 C1038 0.930 . S
H1025 C1040 0.960 . S
H1026 C1040 0.960 1_545 S
H1027 C1040 0.960 . S
C1028 H1020 0.929 . S
C1028 C1029 1.377 1_545 S
C1028 C1030 1.384 . S
C1029 C1028 1.377 1_565 S
C1029 C1035 1.390 . S
C1030 H1021 0.930 . S
C1030 C1028 1.384 . S
C1030 C1031 1.372 1_545 S
C1031 C1030 1.372 1_565 S
C1031 C1032 1.400 . S
C1031 C1036 1.490 . S
C1032 H1022 0.930 . S
C1032 C1031 1.400 . S
C1032 C1035 1.386 . S
H1033 C1049 0.930 . S
H1034 C1050 0.931 . S
C1035 H1023 0.929 . S
C1035 C1029 1.390 . S
C1035 C1032 1.386 . S
C1036 C1031 1.490 . S
C1036 C1038 1.395 . S
C1036 C1039 1.403 . S
H1037 C1043 0.930 . S
C1038 H1024 0.930 . S
C1038 C1036 1.395 . S
C1038 C1041 1.403 . S
C1039 C1036 1.403 . S
C1039 C1040 1.524 . S
C1039 C1043 1.400 . S
C1040 H1025 0.960 . S
C1040 H1026 0.960 1_565 S
C1040 H1027 0.960 . S
C1040 C1039 1.524 . S
C1041 C1038 1.403 . S
C1041 C1042 1.392 . S
C1041 C1045 1.495 . S
C1042 C1041 1.392 . S
C1042 C1043 1.385 . S
C1042 C1044 1.478 . S
C1043 H1037 0.930 . S
C1043 C1039 1.400 . S
C1043 C1042 1.385 . S
C1044 C1042 1.478 . S
C1044 C1046 1.381 1_565 S
C1044 C1050 1.383 . S
C1045 C1041 1.495 . S
C1045 H1051 0.959 . S
C1045 H1052 0.961 . S
C1045 H1053 0.960 1_565 S
C1046 C1044 1.381 1_545 S
C1046 C1047 1.394 . S
C1046 H1054 0.930 . S
C1047 C1046 1.394 . S
C1047 C1048 1.383 1_545 S
C1047 H1055 0.929 . S
C1048 C1047 1.383 1_565 S
C1048 C1049 1.377 . S
C1049 H1033 0.930 . S
C1049 C1048 1.377 . S
C1049 C1050 1.379 . S
C1050 H1034 0.931 . S
C1050 C1044 1.383 . S
C1050 C1049 1.379 . S
H1051 C1045 0.959 . S
H1052 C1045 0.961 . S
H1053 C1045 0.960 1_545 S
H1054 C1046 0.930 . S
H1055 C1047 0.929 . S
H1056 C1064 0.929 . S
H1057 C1066 0.930 . S
H1058 C1068 0.930 . S
H1059 C1071 0.929 . S
H1060 C1074 0.930 . S
H1061 C1076 0.960 . S
H1062 C1076 0.960 . S
H1063 C1076 0.960 . S
C1064 H1056 0.929 . S
C1064 C1065 1.377 . S
C1064 C1066 1.384 . S
C1065 C1064 1.377 . S
C1065 C1071 1.390 . S
C1066 H1057 0.930 . S
C1066 C1064 1.384 . S
C1066 C1067 1.372 . S
C1067 C1066 1.372 . S
C1067 C1068 1.400 . S
C1067 C1072 1.490 . S
C1068 H1058 0.930 . S
C1068 C1067 1.400 . S
C1068 C1071 1.386 . S
H1069 C1085 0.930 . S
H1070 C1086 0.931 . S
C1071 H1059 0.929 . S
C1071 C1065 1.390 . S
C1071 C1068 1.386 . S
C1072 C1067 1.490 . S
C1072 C1074 1.395 . S
C1072 C1075 1.403 . S
H1073 C1079 0.930 . S
C1074 H1060 0.930 . S
C1074 C1072 1.395 . S
C1074 C1077 1.403 . S
C1075 C1072 1.403 . S
C1075 C1076 1.524 . S
C1075 C1079 1.400 . S
C1076 H1061 0.960 . S
C1076 H1062 0.960 . S
C1076 H1063 0.960 . S
C1076 C1075 1.524 . S
C1077 C1074 1.403 . S
C1077 C1078 1.392 . S
C1077 C1081 1.495 . S
C1078 C1077 1.392 . S
C1078 C1079 1.385 . S
C1078 C1080 1.478 . S
C1079 H1073 0.930 . S
C1079 C1075 1.400 . S
C1079 C1078 1.385 . S
C1080 C1078 1.478 . S
C1080 C1082 1.381 . S
C1080 C1086 1.383 . S
C1081 C1077 1.495 . S
C1081 H1087 0.959 . S
C1081 H1088 0.961 . S
C1081 H1089 0.960 . S
C1082 C1080 1.381 . S
C1082 C1083 1.394 . S
C1082 H1090 0.930 . S
C1083 C1082 1.394 . S
C1083 C1084 1.383 . S
C1083 H1091 0.929 . S
C1084 C1083 1.383 . S
C1084 C1085 1.377 . S
C1085 H1069 0.930 . S
C1085 C1084 1.377 . S
C1085 C1086 1.379 . S
C1086 H1070 0.931 . S
C1086 C1080 1.383 . S
C1086 C1085 1.379 . S
H1087 C1081 0.959 . S
H1088 C1081 0.961 . S
H1089 C1081 0.960 . S
H1090 C1082 0.930 . S
H1091 C1083 0.929 . S
H1092 C1100 0.929 . S
H1093 C1102 0.930 . S
H1094 C1104 0.930 . S
H1095 C1107 0.929 . S
H1096 C1110 0.930 . S
H1097 C1112 0.960 . S
H1098 C1112 0.960 . S
H1099 C1112 0.960 . S
C1100 H1092 0.929 . S
C1100 C1101 1.377 . S
C1100 C1102 1.384 . S
C1101 C1100 1.377 . S
C1101 C1107 1.390 . S
C1102 H1093 0.930 . S
C1102 C1100 1.384 . S
C1102 C1103 1.372 . S
C1103 C1102 1.372 . S
C1103 C1104 1.400 . S
C1103 C1108 1.490 . S
C1104 H1094 0.930 . S
C1104 C1103 1.400 . S
C1104 C1107 1.386 . S
H1105 C1121 0.930 . S
H1106 C1122 0.931 . S
C1107 H1095 0.929 . S
C1107 C1101 1.390 . S
C1107 C1104 1.386 . S
C1108 C1103 1.490 . S
C1108 C1110 1.395 . S
C1108 C1111 1.403 . S
H1109 C1115 0.930 . S
C1110 H1096 0.930 . S
C1110 C1108 1.395 . S
C1110 C1113 1.403 . S
C1111 C1108 1.403 . S
C1111 C1112 1.524 . S
C1111 C1115 1.400 . S
C1112 H1097 0.960 . S
C1112 H1098 0.960 . S
C1112 H1099 0.960 . S
C1112 C1111 1.524 . S
C1113 C1110 1.403 . S
C1113 C1114 1.392 . S
C1113 C1117 1.495 . S
C1114 C1113 1.392 . S
C1114 C1115 1.385 . S
C1114 C1116 1.478 . S
C1115 H1109 0.930 . S
C1115 C1111 1.400 . S
C1115 C1114 1.385 . S
C1116 C1114 1.478 . S
C1116 C1118 1.381 . S
C1116 C1122 1.383 . S
C1117 C1113 1.495 . S
C1117 H1123 0.959 . S
C1117 H1124 0.961 . S
C1117 H1125 0.960 . S
C1118 C1116 1.381 . S
C1118 C1119 1.394 . S
C1118 H1126 0.930 . S
C1119 C1118 1.394 . S
C1119 C1120 1.383 . S
C1119 H1127 0.929 . S
C1120 C1119 1.383 . S
C1120 C1121 1.377 . S
C1121 H1105 0.930 . S
C1121 C1120 1.377 . S
C1121 C1122 1.379 . S
C1122 H1106 0.931 . S
C1122 C1116 1.383 . S
C1122 C1121 1.379 . S
H1123 C1117 0.959 . S
H1124 C1117 0.961 . S
H1125 C1117 0.960 . S
H1126 C1118 0.930 . S
H1127 C1119 0.929 . S
C273 N80 1.794 . S
C292 C114 1.826 1_545 S
C328 C154 1.843 . S
C309 N93 1.791 . S
C364 C194 1.824 . S
C345 N54 1.799 . S
C400 C234 1.838 1_455 S
C381 N67 1.793 . S
C436 C123 1.832 1_565 S
C417 N28 1.793 . S
C453 N41 1.795 . S
C472 C163 1.842 . S
C489 N2 1.792 . S
C508 C203 1.838 . S
C525 N15 1.799 . S
C544 C243 1.827 1_655 S
C580 C120 0.364 . S
C561 N70 0.242 . S
C616 C160 0.361 . S
C597 N83 0.289 . S
C652 C200 0.342 . S
C633 N96 0.237 . S
C669 N57 0.236 . S
C688 C240 0.322 . S
C705 N18 0.267 . S
C724 C111 0.374 . S
C760 C151 0.330 . S
C741 N31 0.234 . S
C796 C191 0.374 . S
C777 N44 0.247 . S
C813 N5 0.232 . S
C832 C231 0.316 . S
C849 N66 1.976 . S
C868 C115 2.041 . S
C885 N79 1.971 . S
C904 C155 2.019 . S
C940 C195 2.046 . S
C921 N92 1.980 . S
C976 C235 2.045 . S
C957 N53 1.979 . S
C993 N14 1.969 . S
C1012 C106 2.031 . S
C1048 C146 2.030 . S
C1029 N27 1.974 . S
C1084 C186 2.030 . S
C1065 N40 1.974 . S
C1101 N1 1.967 . S
C1120 C226 2.045 . S
