# Generated by pormake.
# Topology pth, (4,4)-cn, num edge types: 1
# Building blocks:
#     Node 0, Type 0, BuildingBlock: NAHDIM_clean_sbu_0, # of connection points: 4
#     Node 1, Type 0, BuildingBlock: NAHDIM_clean_sbu_0, # of connection points: 4
#     Node 2, Type 0, BuildingBlock: NAHDIM_clean_sbu_0, # of connection points: 4
#     Node 3, Type 1, BuildingBlock: AZAVOO_clean_linker_0, # of connection points: 4
#     Node 4, Type 1, BuildingBlock: AZAVOO_clean_linker_0, # of connection points: 4
#     Node 5, Type 1, BuildingBlock: AZAVOO_clean_linker_0, # of connection points: 4
#     Edge 6, Type (0, 1), BuildingBlock: XIVTED_clean_linker_0, # of connection points: 2
#     Edge 7, Type (0, 1), BuildingBlock: XIVTED_clean_linker_0, # of connection points: 2
#     Edge 8, Type (0, 1), BuildingBlock: XIVTED_clean_linker_0, # of connection points: 2
#     Edge 9, Type (0, 1), BuildingBlock: XIVTED_clean_linker_0, # of connection points: 2
#     Edge 10, Type (0, 1), BuildingBlock: XIVTED_clean_linker_0, # of connection points: 2
#     Edge 11, Type (0, 1), BuildingBlock: XIVTED_clean_linker_0, # of connection points: 2
#     Edge 12, Type (0, 1), BuildingBlock: XIVTED_clean_linker_0, # of connection points: 2
#     Edge 13, Type (0, 1), BuildingBlock: XIVTED_clean_linker_0, # of connection points: 2
#     Edge 14, Type (0, 1), BuildingBlock: XIVTED_clean_linker_0, # of connection points: 2
#     Edge 15, Type (0, 1), BuildingBlock: XIVTED_clean_linker_0, # of connection points: 2
#     Edge 16, Type (0, 1), BuildingBlock: XIVTED_clean_linker_0, # of connection points: 2
#     Edge 17, Type (0, 1), BuildingBlock: XIVTED_clean_linker_0, # of connection points: 2
# Relax obj value: 0.156
# Max RMSD: 0.228
# Mean RMSD: 0.208
data_MOF--net-pth--node1-NAHDIM_clean_sbu_0--node2-AZAVOO_clean_linker_0--edge1-XIVTED_clean_linker_0
_symmetry_space_group_name_H-M    P1
_symmetry_Int_Tables_number       1
_symmetry_cell_setting            triclinic
loop_
_symmetry_equiv_pos_as_xyz
'x, y, z'
_cell_length_a     26.340475
_cell_length_b     26.692021
_cell_length_c     70.225071
_cell_angle_alpha  94.218581
_cell_angle_beta   88.769357
_cell_angle_gamma 120.66244
loop_
_atom_site_label
_atom_site_type_symbol
_atom_site_fract_x
_atom_site_fract_y
_atom_site_fract_z
_atom_type_partial_charge
C0 C 0.12243 0.00791 0.0899 0.0
O1 O 0.166 0.06156 0.09391 0.0
O2 O 0.07264 0.11309 0.09229 0.0
Zn3 Zn 0.08116 0.06846 0.06946 0.0
O4 O 0.01231 0.0409 0.05138 0.0
C5 C 0.20264 0.16273 0.06185 0.0
O6 O 0.20783 0.17879 0.08018 0.0
O7 O 0.08083 -0.00067 0.07883 0.0
C8 C 0.0173 0.06758 0.03654 0.0
O9 O 0.06771 0.11473 0.03327 0.0
C10 C 0.08335 0.16512 0.09214 0.0
O11 O 0.10082 0.19215 0.0763 0.0
O12 O 0.15538 0.118 0.05531 0.0
C13 C 0.09962 0.16558 0.37341 0.0
O14 O 0.0908 0.11532 0.36575 0.0
O15 O 0.07495 0.04152 0.39413 0.0
Zn16 Zn 0.11309 0.12129 0.40804 0.0
O17 O 0.06894 0.12063 0.43163 0.0
C18 C 0.22315 0.12119 0.4106 0.0
O19 O 0.19906 0.07814 0.39725 0.0
O20 O 0.11184 0.17838 0.39115 0.0
C21 C 0.07879 0.10701 0.44754 0.0
O22 O 0.11744 0.09006 0.44864 0.0
C23 C 0.05659 0.99311 0.40143 0.0
O24 O 0.0607 0.99218 0.41998 0.0
O25 O 0.19563 0.14689 0.41635 0.0
C26 C 0.1998 0.03974 0.73801 0.0
O27 O 0.21248 0.07584 0.75329 0.0
O28 O 0.04677 0.04458 0.71693 0.0
Zn29 Zn 0.096 0.04789 0.73892 0.0
O30 O 0.14787 0.13102 0.74948 0.0
C31 C 0.99168 -0.00104 0.76055 0.0
O32 O 0.981 0.02978 0.74928 0.0
O33 O 0.14973 0.01845 0.72977 0.0
C34 C 0.13193 0.16713 0.75514 0.0
O35 O 0.07587 0.15119 0.75428 0.0
C36 C 0.0617 0.08549 0.70598 0.0
O37 O 0.11421 0.13268 0.7081 0.0
O38 O 0.04025 -0.0004 0.75908 0.0
H39 H 0.98658 0.41023 0.11951 0.0
H40 H 0.08321 0.92102 0.26584 0.0
H41 H 0.92641 0.40222 0.2206 0.0
H42 H 0.93974 0.32841 0.20226 0.0
H43 H 0.12295 0.41935 0.22034 0.0
H44 H 0.10913 0.49301 0.23872 0.0
H45 H 0.93425 0.49287 0.19263 0.0
H46 H 0.93946 0.45416 0.16038 0.0
H47 H 0.12161 0.50676 0.17129 0.0
H48 H 0.11586 0.54567 0.20338 0.0
H49 H 0.94621 0.62108 0.20796 0.0
H50 H 0.96734 0.68693 0.18251 0.0
H51 H 0.14579 0.71949 0.1799 0.0
H52 H 0.1247 0.65522 0.20567 0.0
H53 H 0.92766 0.62987 0.25456 0.0
H54 H 0.93203 0.7224 0.26347 0.0
H55 H 0.11758 0.81607 0.2501 0.0
H56 H 0.11274 0.7232 0.24149 0.0
H57 H 0.92081 0.54567 0.28226 0.0
H58 H 0.91691 0.60337 0.31068 0.0
H59 H 0.10346 0.72542 0.30623 0.0
H60 H 0.10739 0.66752 0.27819 0.0
H61 H 0.92787 0.41836 0.26392 0.0
H62 H 0.93678 0.35838 0.28693 0.0
H63 H 0.11193 0.50059 0.30286 0.0
H64 H 0.10273 0.55996 0.27981 0.0
O65 O 0.98583 0.42697 0.13214 0.0
O66 O 0.07879 0.45338 0.13871 0.0
O67 O 0.9847 0.83357 0.26901 0.0
O68 O 0.08004 0.88385 0.26215 0.0
C69 C 0.01486 0.50695 0.23542 0.0
C70 C 0.01992 0.54133 0.22031 0.0
C71 C 0.0222 0.5949 0.22421 0.0
C72 C 0.01778 0.61352 0.24315 0.0
C73 C 0.01391 0.57967 0.25834 0.0
C74 C 0.01292 0.52654 0.25449 0.0
C75 C 0.01693 0.45301 0.23081 0.0
C76 C 0.96859 0.40453 0.22137 0.0
C77 C 0.97636 0.36254 0.21087 0.0
C78 C 0.03264 0.3689 0.20966 0.0
C79 C 0.0793 0.41393 0.22092 0.0
C80 C 0.07136 0.45562 0.23155 0.0
C81 C 0.02453 0.52168 0.20032 0.0
C82 C 0.97533 0.49639 0.18794 0.0
C83 C 0.9784 0.47415 0.16957 0.0
C84 C 0.03085 0.47698 0.1633 0.0
C85 C 0.08047 0.50358 0.17568 0.0
C86 C 0.07733 0.52586 0.19401 0.0
C87 C 0.03392 0.63348 0.20857 0.0
C88 C 0.98976 0.64252 0.20184 0.0
C89 C 0.00181 0.6797 0.18723 0.0
C90 C 0.05825 0.70834 0.17919 0.0
C91 C 0.10213 0.69863 0.18594 0.0
C92 C 0.09008 0.66165 0.20054 0.0
C93 C 0.01979 0.66991 0.24731 0.0
C94 C 0.9691 0.67047 0.25347 0.0
C95 C 0.97175 0.72335 0.25857 0.0
C96 C 0.0252 0.77667 0.25751 0.0
C97 C 0.07573 0.77586 0.25108 0.0
C98 C 0.07304 0.72291 0.24605 0.0
C99 C 0.01434 0.60273 0.27819 0.0
C100 C 0.96123 0.58339 0.28797 0.0
C101 C 0.959 0.61631 0.30409 0.0
C102 C 0.00984 0.66872 0.31039 0.0
C103 C 0.06382 0.68505 0.30155 0.0
C104 C 0.06614 0.652 0.28564 0.0
C105 C 0.01456 0.49349 0.27027 0.0
C106 C 0.9677 0.43678 0.27263 0.0
C107 C 0.97301 0.40257 0.28567 0.0
C108 C 0.02519 0.42474 0.29661 0.0
C109 C 0.07095 0.48256 0.2948 0.0
C110 C 0.06576 0.51655 0.28167 0.0
C111 C 0.03353 0.45189 0.14399 0.0
C112 C 0.0285 0.83292 0.26323 0.0
H113 H 0.70884 0.08622 0.45115 0.0
H114 H 0.30763 0.15819 0.60438 0.0
H115 H 0.67067 0.01249 0.55344 0.0
H116 H 0.76154 0.02067 0.54071 0.0
H117 H 0.85827 0.20281 0.5612 0.0
H118 H 0.76669 0.19429 0.57355 0.0
H119 H 0.58767 0.02172 0.52387 0.0
H120 H 0.62678 0.03181 0.49155 0.0
H121 H 0.75333 0.21374 0.50673 0.0
H122 H 0.71322 0.20311 0.53893 0.0
H123 H 0.48212 0.01983 0.53416 0.0
H124 H 0.43585 0.03332 0.50671 0.0
H125 H 0.5492 0.22053 0.51631 0.0
H126 H 0.59366 0.20631 0.54416 0.0
H127 H 0.43465 0.01285 0.56679 0.0
H128 H 0.34536 0.01712 0.57362 0.0
H129 H 0.45239 0.19071 0.60098 0.0
H130 H 0.54132 0.186 0.59389 0.0
H131 H 0.47923 0.99405 0.60047 0.0
H132 H 0.42714 0.97936 0.63037 0.0
H133 H 0.57125 0.144 0.65454 0.0
H134 H 0.6197 0.16072 0.62378 0.0
H135 H 0.63073 -0.00345 0.59777 0.0
H136 H 0.70214 0.99299 0.61856 0.0
H137 H 0.78837 0.17997 0.6309 0.0
H138 H 0.718 0.18305 0.60961 0.0
O139 O 0.69383 0.08329 0.46397 0.0
O140 O 0.75854 0.17636 0.47257 0.0
O141 O 0.28913 0.06601 0.58727 0.0
O142 O 0.34218 0.15541 0.60144 0.0
C143 C 0.65601 0.10065 0.56838 0.0
C144 C 0.62433 0.10501 0.55333 0.0
C145 C 0.57098 0.10375 0.557 0.0
C146 C 0.54854 0.09679 0.57565 0.0
C147 C 0.57947 0.09052 0.59068 0.0
C148 C 0.63395 0.09376 0.58705 0.0
C149 C 0.71238 0.10286 0.56428 0.0
C150 C 0.71185 0.05366 0.55561 0.0
C151 C 0.76382 0.05838 0.54847 0.0
C152 C 0.81692 0.11252 0.54987 0.0
C153 C 0.81786 0.16073 0.55978 0.0
C154 C 0.76584 0.15592 0.56692 0.0
C155 C 0.64761 0.1117 0.53366 0.0
C156 C 0.62361 0.06375 0.52012 0.0
C157 C 0.64615 0.06963 0.5017 0.0
C158 C 0.69323 0.12358 0.49655 0.0
C159 C 0.71707 0.17159 0.51022 0.0
C160 C 0.69431 0.16567 0.52861 0.0
C161 C 0.54032 0.11213 0.54126 0.0
C162 C 0.49614 0.06369 0.53047 0.0
C163 C 0.47049 0.07153 0.51464 0.0
C164 C 0.48908 0.12804 0.50925 0.0
C165 C 0.5334 0.17651 0.52021 0.0
C166 C 0.55881 0.16855 0.53609 0.0
C167 C 0.49436 0.09934 0.57968 0.0
C168 C 0.4387 0.05195 0.57409 0.0
C169 C 0.38779 0.05441 0.57809 0.0
C170 C 0.39175 0.10435 0.58782 0.0
C171 C 0.44774 0.15166 0.59345 0.0
C172 C 0.49859 0.14913 0.58941 0.0
C173 C 0.5532 0.07847 0.6099 0.0
C174 C 0.4996 0.02677 0.61229 0.0
C175 C 0.4702 0.01817 0.62957 0.0
C176 C 0.49455 0.06054 0.64508 0.0
C177 C 0.5502 0.11087 0.6429 0.0
C178 C 0.57873 0.12014 0.62539 0.0
C179 C 0.66882 0.08991 0.60247 0.0
C180 C 0.66419 0.03639 0.60538 0.0
C181 C 0.70508 0.03454 0.61722 0.0
C182 C 0.75127 0.08631 0.62626 0.0
C183 C 0.75396 0.13948 0.6239 0.0
C184 C 0.7133 0.14126 0.61201 0.0
C185 C 0.71732 0.12958 0.47701 0.0
C186 C 0.33782 0.10719 0.59212 0.0
H187 H 0.60049 0.76909 0.02954 0.0
H188 H 0.28069 0.22988 0.88888 0.0
H189 H 0.56072 0.7597 0.92834 0.0
H190 H 0.63657 0.85126 0.94469 0.0
H191 H 0.77042 0.8125 0.92528 0.0
H192 H 0.69425 0.72084 0.9091 0.0
H193 H 0.48533 0.65744 0.95558 0.0
H194 H 0.5176 0.70248 0.98802 0.0
H195 H 0.68588 0.71402 0.97845 0.0
H196 H 0.65267 0.66805 0.94619 0.0
H197 H 0.39123 0.52295 0.9373 0.0
H198 H 0.34882 0.45209 0.96173 0.0
H199 H 0.51989 0.47311 0.97212 0.0
H200 H 0.56172 0.54263 0.94726 0.0
H201 H 0.3733 0.5145 0.89288 0.0
H202 H 0.29511 0.41301 0.88565 0.0
H203 H 0.41289 0.35489 0.90218 0.0
H204 H 0.49091 0.45659 0.9091 0.0
H205 H 0.45211 0.62033 0.86766 0.0
H206 H 0.39874 0.56808 0.83784 0.0
H207 H 0.47043 0.45439 0.83953 0.0
H208 H 0.5244 0.50765 0.86901 0.0
H209 H 0.57537 0.75051 0.88173 0.0
H210 H 0.64646 0.81082 0.85818 0.0
H211 H 0.69727 0.68087 0.84751 0.0
H212 H 0.62802 0.62229 0.87146 0.0
O213 O 0.5882 0.75035 0.01681 0.0
O214 O 0.67438 0.75633 0.01099 0.0
O215 O 0.25213 0.3025 0.88312 0.0
O216 O 0.31079 0.27034 0.8916 0.0
C217 C 0.57561 0.67185 0.91323 0.0
C218 C 0.54832 0.63574 0.92846 0.0
C219 C 0.50424 0.57676 0.92462 0.0
C220 C 0.48536 0.55454 0.90559 0.0
C221 C 0.51304 0.59057 0.89037 0.0
C222 C 0.55976 0.64855 0.89415 0.0
C223 C 0.62207 0.73355 0.91773 0.0
C224 C 0.60668 0.77212 0.92704 0.0
C225 C 0.6499 0.8241 0.93644 0.0
C226 C 0.70913 0.83841 0.93647 0.0
C227 C 0.72512 0.80267 0.92541 0.0
C228 C 0.68174 0.75036 0.91613 0.0
C229 C 0.56676 0.6598 0.94853 0.0
C230 C 0.52891 0.66924 0.9606 0.0
C231 C 0.54757 0.69519 0.97908 0.0
C232 C 0.60445 0.71214 0.98579 0.0
C233 C 0.64189 0.70168 0.97372 0.0
C234 C 0.62307 0.6755 0.95529 0.0
C235 C 0.47942 0.53764 0.94046 0.0
C236 C 0.41951 0.5123 0.94487 0.0
C237 C 0.39545 0.47195 0.95877 0.0
C238 C 0.43119 0.45716 0.96869 0.0
C239 C 0.4916 0.48414 0.96474 0.0
C240 C 0.51544 0.52376 0.9506 0.0
C241 C 0.43768 0.49282 0.90152 0.0
C242 C 0.3821 0.47975 0.89489 0.0
C243 C 0.33753 0.42178 0.8908 0.0
C244 C 0.34775 0.37581 0.89335 0.0
C245 C 0.40352 0.38919 0.90006 0.0
C246 C 0.44812 0.4472 0.90408 0.0
C247 C 0.49162 0.56736 0.87052 0.0
C248 C 0.45758 0.58525 0.86124 0.0
C249 C 0.42675 0.55504 0.84433 0.0
C250 C 0.42979 0.50667 0.83644 0.0
C251 C 0.46748 0.49172 0.84511 0.0
C252 C 0.4982 0.5219 0.862 0.0
C253 C 0.59668 0.68214 0.87831 0.0
C254 C 0.60157 0.73501 0.87415 0.0
C255 C 0.64197 0.7692 0.86066 0.0
C256 C 0.67795 0.75087 0.85113 0.0
C257 C 0.67108 0.69676 0.85486 0.0
C258 C 0.631 0.66287 0.86836 0.0
C259 C 0.62464 0.74089 0.00527 0.0
C260 C 0.30054 0.31413 0.88903 0.0
H261 H 0.12621 0.28202 0.09974 0.0
H262 H 0.97077 0.25078 0.20009 0.0
H263 H 0.02748 0.11635 0.12483 0.0
H264 H 0.11988 0.41234 0.1837 0.0
H265 H 0.98469 0.19989 0.17169 0.0
H266 H 0.1171 0.33062 0.12943 0.0
C267 C 0.10251 0.25588 0.11147 0.0
C268 C 0.07757 0.1951 0.10983 0.0
C269 C 0.01477 0.24636 0.17449 0.0
C270 C 0.06692 0.25029 0.14375 0.0
C271 C 0.00687 0.27525 0.19065 0.0
C272 C 0.04458 0.33561 0.19429 0.0
C273 C 0.05985 0.2784 0.16174 0.0
C274 C 0.09044 0.36558 0.18157 0.0
C275 C 0.09764 0.28364 0.12844 0.0
C276 C 0.04753 0.16336 0.12552 0.0
N277 N 0.09642 0.33678 0.16575 0.0
N278 N 0.04273 0.1913 0.14181 0.0
H279 H 0.06285 0.05493 0.48115 0.0
H280 H 0.88552 0.20129 0.52753 0.0
H281 H 0.02581 0.17154 0.45299 0.0
H282 H 0.86363 0.04074 0.54596 0.0
H283 H 0.95867 0.20597 0.50478 0.0
H284 H 0.00867 0.06273 0.50905 0.0
C285 C 0.04366 0.08239 0.4809 0.0
C286 C 0.04817 0.11216 0.4647 0.0
C287 C 0.93842 0.17009 0.51397 0.0
C288 C 0.98752 0.12195 0.49647 0.0
C289 C 0.89715 0.16772 0.52712 0.0
C290 C 0.86826 0.12036 0.53859 0.0
C291 C 0.95098 0.12485 0.51225 0.0
C292 C 0.88443 0.07759 0.53719 0.0
C293 C 0.01284 0.08676 0.49677 0.0
C294 C 0.02271 0.14726 0.46508 0.0
N295 N 0.92451 0.08057 0.52411 0.0
N296 N 0.99352 0.1512 0.48071 0.0
H297 H -0.00122 0.93148 0.78686 0.0
H298 H 0.67053 0.81679 0.82427 0.0
H299 H 0.88229 0.98501 0.76569 0.0
H300 H 0.79065 0.77156 0.84789 0.0
H301 H 0.74755 0.87849 0.80257 0.0
H302 H 0.92273 0.87181 0.80918 0.0
C303 C 0.95729 0.93075 0.78692 0.0
C304 C 0.94689 0.96325 0.77438 0.0
C305 C 0.75704 0.85504 0.8125 0.0
C306 C 0.85967 0.89505 0.79983 0.0
C307 C 0.71316 0.82003 0.82495 0.0
C308 C 0.72402 0.78871 0.83785 0.0
C309 C 0.81223 0.85885 0.81297 0.0
C310 C 0.77993 0.79408 0.83795 0.0
C311 C 0.91388 0.89671 0.79966 0.0
C312 C 0.8923 0.96069 0.77509 0.0
N313 N 0.82187 0.82839 0.8257 0.0
N314 N 0.85074 0.92712 0.78756 0.0
H315 H 0.03362 0.89324 0.08728 0.0
H316 H 0.15849 0.81435 0.17584 0.0
H317 H 0.2005 0.0121 0.11591 0.0
H318 H 0.98927 0.69638 0.14848 0.0
H319 H 0.17903 0.88341 0.1518 0.0
H320 H 0.02137 0.81672 0.1072 0.0
C321 C 0.06801 0.9031 0.09761 0.0
C322 C 0.11786 0.95937 0.1001 0.0
C323 C 0.13752 0.84229 0.15097 0.0
C324 C 0.10387 0.87212 0.12302 0.0
C325 C 0.12588 0.80268 0.16465 0.0
C326 C 0.07194 0.74958 0.16421 0.0
C327 C 0.09488 0.82891 0.13676 0.0
C328 C 0.03101 0.73722 0.14953 0.0
C329 C 0.06089 0.8594 0.10901 0.0
C330 C 0.16111 0.96951 0.11362 0.0
N331 N 0.04323 0.77672 0.13643 0.0
N332 N 0.15286 0.92644 0.12469 0.0
H333 H 0.28192 0.06078 0.40733 0.0
H334 H 0.4581 0.21057 0.5056 0.0
H335 H 0.28431 0.20738 0.43867 0.0
H336 H 0.45721 0.06425 0.47463 0.0
H337 H 0.40614 0.21877 0.4788 0.0
H338 H 0.35786 0.0704 0.42919 0.0
C339 C 0.2991 0.09561 0.4186 0.0
C340 C 0.27604 0.13273 0.42137 0.0
C341 C 0.41771 0.18513 0.47778 0.0
C342 C 0.36241 0.14359 0.44653 0.0
C343 C 0.44767 0.1806 0.49307 0.0
C344 C 0.46143 0.13619 0.49248 0.0
C345 C 0.401 0.14476 0.4618 0.0
C346 C 0.44625 0.09829 0.4759 0.0
C347 C 0.34232 0.10094 0.43112 0.0
C348 C 0.30019 0.17725 0.43615 0.0
N349 N 0.41638 0.10311 0.46129 0.0
N350 N 0.34152 0.18097 0.44831 0.0
H351 H 0.11335 0.24909 0.77473 0.0
H352 H 0.45372 0.45337 0.80551 0.0
H353 H 0.25186 0.21764 0.75516 0.0
H354 H 0.31292 0.47044 0.83162 0.0
H355 H 0.38223 0.37769 0.78266 0.0
H356 H 0.18784 0.34082 0.79142 0.0
C357 C 0.15942 0.26174 0.77377 0.0
C358 C 0.17633 0.22529 0.76375 0.0
C359 C 0.3671 0.39851 0.79325 0.0
C360 C 0.26164 0.33001 0.78277 0.0
C361 C 0.40788 0.44164 0.8063 0.0
C362 C 0.38923 0.46789 0.82062 0.0
C363 C 0.30713 0.38127 0.79455 0.0
C364 C 0.32942 0.45169 0.82076 0.0
C365 C 0.2019 0.31404 0.78332 0.0
C366 C 0.2367 0.244 0.76292 0.0
N367 N 0.2904 0.40897 0.80807 0.0
N368 N 0.27708 0.29482 0.77241 0.0
H369 H 0.94771 -0.00338 0.69982 0.0
H370 H 0.87024 0.16439 0.62645 0.0
H371 H 0.07485 0.16679 0.68154 0.0
H372 H 0.73972 0.00576 0.65083 0.0
H373 H 0.94714 0.16251 0.64459 0.0
H374 H 0.87288 0.99503 0.67955 0.0
C375 C 0.96008 0.03353 0.69143 0.0
C376 C 0.01765 0.08212 0.69247 0.0
C377 C 0.90168 0.12813 0.64598 0.0
C378 C 0.93185 0.08062 0.66929 0.0
C379 C 0.85764 0.12939 0.63575 0.0
C380 C 0.79826 0.08544 0.63726 0.0
C381 C 0.88641 0.08247 0.65778 0.0
C382 C 0.78488 0.04035 0.64913 0.0
C383 C 0.91718 0.03263 0.6799 0.0
C384 C 0.03101 0.12854 0.68123 0.0
N385 N 0.8286 0.0401 0.65896 0.0
N386 N 0.98833 0.12675 0.67017 0.0
H387 H 0.9017 0.98489 0.04127 0.0
H388 H 0.82393 0.92345 0.9306 0.0
H389 H 0.02229 0.09366 -0.00066 0.0
H390 H 0.69218 0.85545 0.97413 0.0
H391 H 0.8974 0.98816 0.95525 0.0
H392 H 0.82386 0.93817 0.01671 0.0
C393 C 0.91166 -0.00077 0.02692 0.0
C394 C 0.96861 0.04284 0.02229 0.0
C395 C 0.85215 0.95982 0.95933 0.0
C396 C 0.87997 0.98925 0.99408 0.0
C397 C 0.81037 0.92292 0.94529 0.0
C398 C 0.75202 0.88429 0.95035 0.0
C399 C 0.83552 0.95707 0.97855 0.0
C400 C 0.73655 0.88515 0.96958 0.0
C401 C 0.86717 0.97272 0.01292 0.0
C402 C 0.97898 0.06006 0.0035 0.0
N403 N 0.77823 0.92037 0.983 0.0
N404 N 0.93525 0.03265 0.99 0.0
H405 H 0.02737 0.88352 0.41103 0.0
H406 H 0.02842 0.77386 0.30262 0.0
H407 H 0.04065 0.98069 0.36277 0.0
H408 H 0.98157 0.65978 0.34839 0.0
H409 H 0.02861 0.84847 0.32486 0.0
H410 H 0.00546 0.79907 0.38895 0.0
C411 C 0.02504 0.88692 0.39584 0.0
C412 C 0.03668 0.93952 0.38872 0.0
C413 C 0.01783 0.80711 0.33013 0.0
C414 C 0.01198 0.84346 0.36348 0.0
C415 C 0.01794 0.7647 0.31744 0.0
C416 C 0.00558 0.71127 0.32385 0.0
C417 C 0.00612 0.79638 0.34948 0.0
C418 C 0.99159 0.70083 0.34306 0.0
C419 C 0.01253 0.83872 0.38326 0.0
C420 C 0.03276 0.94136 0.36892 0.0
N421 N 0.99295 0.74347 0.35534 0.0
N422 N 0.02132 0.89429 0.35703 0.0
H423 H 0.18791 0.95405 0.71131 0.0
H424 H 0.49478 0.1476 0.66881 0.0
H425 H 0.31875 0.11217 0.74255 0.0
H426 H 0.41329 0.95966 0.6617 0.0
H427 H 0.42929 0.13654 0.6951 0.0
H428 H 0.26666 0.95435 0.69191 0.0
C429 C 0.23325 0.98822 0.71428 0.0
C430 C 0.24684 0.03341 0.72843 0.0
C431 C 0.42645 0.09782 0.68792 0.0
C432 C 0.33638 0.03462 0.70614 0.0
C433 C 0.4642 0.10398 0.67292 0.0
C434 C 0.45967 0.05448 0.66269 0.0
C435 C 0.38265 0.04185 0.69249 0.0
C436 C 0.41756 -0.00082 0.66865 0.0
C437 C 0.27806 0.98825 0.70328 0.0
C438 C 0.3063 0.07656 0.73176 0.0
N439 N 0.37988 0.99431 0.6829 0.0
N440 N 0.34881 0.07682 0.72041 0.0
H441 H 0.2034 0.14201 0.02327 0.0
H442 H 0.46894 0.46249 0.00525 0.0
H443 H 0.30124 0.27113 0.06937 0.0
H444 H 0.33402 0.34887 0.96342 0.0
H445 H 0.42139 0.38697 0.0282 0.0
H446 H 0.26615 0.21118 0.00044 0.0
C447 C 0.23856 0.1847 0.02863 0.0
C448 C 0.24648 0.20112 0.04828 0.0
C449 C 0.4025 0.37863 0.01396 0.0
C450 C 0.31828 0.28071 0.02212 0.0
C451 C 0.42957 0.42148 0.0009 0.0
C452 C 0.40479 0.41189 0.98256 0.0
C453 C 0.35097 0.32574 0.00846 0.0
C454 C 0.35385 0.35822 0.97755 0.0
C455 C 0.27423 0.22425 0.01556 0.0
C456 C 0.29326 0.25684 0.05434 0.0
N457 N 0.32861 0.31717 0.99043 0.0
N458 N 0.32714 0.29499 0.04128 0.0
H459 H 0.06298 0.14657 0.33608 0.0
H460 H 0.07334 0.45071 0.3328 0.0
H461 H 0.11551 0.27345 0.38444 0.0
H462 H -0.00227 0.31221 0.2879 0.0
H463 H 0.09286 0.38845 0.35162 0.0
H464 H 0.04362 0.2093 0.31769 0.0
C465 C 0.07073 0.18776 0.34282 0.0
C466 C 0.09084 0.20473 0.36185 0.0
C467 C 0.07172 0.3716 0.33769 0.0
C468 C 0.06847 0.27673 0.34087 0.0
C469 C 0.06071 0.40714 0.32695 0.0
C470 C 0.03375 0.38652 0.30879 0.0
C471 C 0.05613 0.31525 0.33015 0.0
C472 C 0.01787 0.32958 0.30193 0.0
C473 C 0.05942 0.22348 0.33232 0.0
C474 C 0.09999 0.25859 0.36982 0.0
N475 N 0.02955 0.29607 0.31258 0.0
N476 N 0.08872 0.29269 0.35929 0.0
loop_
_geom_bond_atom_site_label_1
_geom_bond_atom_site_label_2
_geom_bond_distance
_geom_bond_site_symmetry_2
_ccdc_geom_bond_type
C0 O1 1.160 . S
C0 O7 1.185 . S
O1 C0 1.160 . S
O2 Zn3 1.899 . S
O2 C10 1.284 . S
Zn3 O2 1.899 . S
Zn3 O4 2.032 . S
Zn3 O7 2.086 . S
Zn3 O12 1.977 . S
O4 Zn3 2.032 . S
O4 C8 1.278 . S
C5 O6 1.203 . S
C5 O12 1.267 . S
O6 C5 1.203 . S
O7 C0 1.185 . S
O7 Zn3 2.086 . S
C8 O4 1.278 . S
C8 O9 1.211 . S
O9 C8 1.211 . S
C10 O2 1.284 . S
C10 O11 1.273 . S
O11 C10 1.273 . S
O12 Zn3 1.977 . S
O12 C5 1.267 . S
C13 O14 1.160 . S
C13 O20 1.185 . S
O14 C13 1.160 . S
O15 Zn16 1.899 . S
O15 C23 1.284 1_545 S
Zn16 O15 1.899 . S
Zn16 O17 2.032 . S
Zn16 O20 2.086 . S
Zn16 O25 1.977 . S
O17 Zn16 2.032 . S
O17 C21 1.278 . S
C18 O19 1.203 . S
C18 O25 1.267 . S
O19 C18 1.203 . S
O20 C13 1.185 . S
O20 Zn16 2.086 . S
C21 O17 1.278 . S
C21 O22 1.211 . S
O22 C21 1.211 . S
C23 O15 1.284 1_565 S
C23 O24 1.273 . S
O24 C23 1.273 . S
O25 Zn16 1.977 . S
O25 C18 1.267 . S
C26 O27 1.160 . S
C26 O33 1.185 . S
O27 C26 1.160 . S
O28 Zn29 1.899 . S
O28 C36 1.284 . S
Zn29 O28 1.899 . S
Zn29 O30 2.032 . S
Zn29 O33 2.086 . S
Zn29 O38 1.977 . S
O30 Zn29 2.032 . S
O30 C34 1.278 . S
C31 O32 1.203 . S
C31 O38 1.267 . S
O32 C31 1.203 . S
O33 C26 1.185 . S
O33 Zn29 2.086 . S
C34 O30 1.278 . S
C34 O35 1.211 . S
O35 C34 1.211 . S
C36 O28 1.284 . S
C36 O37 1.273 . S
O37 C36 1.273 . S
O38 Zn29 1.977 . S
O38 C31 1.267 . S
H39 O65 0.856 . S
H40 O68 0.854 . S
H41 C76 0.915 1_655 S
H42 C77 0.930 . S
H43 C79 0.930 . S
H44 C80 0.930 . S
H45 C82 0.931 1_655 S
H46 C83 0.930 1_655 S
H47 C85 0.930 . S
H48 C86 0.929 . S
H49 C88 0.930 1_655 S
H50 C89 0.922 1_655 S
H51 C91 0.930 . S
H52 C92 0.929 . S
H53 C94 0.931 1_655 S
H54 C95 0.930 1_655 S
H55 C97 0.930 . S
H56 C98 0.932 . S
H57 C100 0.930 1_655 S
H58 C101 0.929 . S
H59 C103 0.931 . S
H60 C104 0.930 . S
H61 C106 0.929 1_655 S
H62 C107 0.931 1_655 S
H63 C109 0.930 . S
H64 C110 0.929 . S
O65 H39 0.856 . S
O65 C111 1.300 . S
O66 C111 1.209 . S
O67 C112 1.199 . S
O68 H40 0.854 . S
O68 C112 1.297 . S
C69 C70 1.404 . S
C69 C74 1.397 . S
C69 C75 1.492 . S
C70 C69 1.404 . S
C70 C71 1.396 . S
C70 C81 1.492 . S
C71 C70 1.396 . S
C71 C72 1.397 . S
C71 C87 1.509 . S
C72 C71 1.397 . S
C72 C73 1.412 . S
C72 C93 1.485 . S
C73 C72 1.412 . S
C73 C74 1.388 . S
C73 C99 1.490 . S
C74 C69 1.397 . S
C74 C73 1.388 . S
C74 C105 1.519 . S
C75 C69 1.492 . S
C75 C76 1.372 . S
C75 C80 1.390 . S
C76 H41 0.915 1_455 S
C76 C75 1.372 . S
C76 C77 1.378 1_455 S
C77 H42 0.930 . S
C77 C76 1.378 1_655 S
C77 C78 1.383 1_655 S
C78 C77 1.383 1_455 S
C78 C79 1.395 . S
C79 H43 0.930 . S
C79 C78 1.395 . S
C79 C80 1.362 . S
C80 H44 0.930 . S
C80 C75 1.390 . S
C80 C79 1.362 . S
C81 C70 1.492 . S
C81 C82 1.377 . S
C81 C86 1.397 . S
C82 H45 0.931 1_455 S
C82 C81 1.377 . S
C82 C83 1.376 . S
C83 H46 0.930 1_455 S
C83 C82 1.376 . S
C83 C84 1.376 . S
C84 C83 1.376 . S
C84 C85 1.378 . S
C84 C111 1.486 . S
C85 H47 0.930 . S
C85 C84 1.378 . S
C85 C86 1.376 . S
C86 H48 0.929 . S
C86 C81 1.397 . S
C86 C85 1.376 . S
C87 C71 1.509 . S
C87 C88 1.391 . S
C87 C92 1.386 . S
C88 H49 0.930 1_455 S
C88 C87 1.391 . S
C88 C89 1.375 . S
C89 H50 0.922 1_455 S
C89 C88 1.375 . S
C89 C90 1.375 . S
C90 C89 1.375 . S
C90 C91 1.361 . S
C91 H51 0.930 . S
C91 C90 1.361 . S
C91 C92 1.399 . S
C92 H52 0.929 . S
C92 C87 1.386 . S
C92 C91 1.399 . S
C93 C72 1.485 . S
C93 C94 1.394 . S
C93 C98 1.360 . S
C94 H53 0.931 1_455 S
C94 C93 1.394 . S
C94 C95 1.372 . S
C95 H54 0.930 1_455 S
C95 C94 1.372 . S
C95 C96 1.397 . S
C96 C95 1.397 . S
C96 C97 1.390 . S
C96 C112 1.476 . S
C97 H55 0.930 . S
C97 C96 1.390 . S
C97 C98 1.366 . S
C98 H56 0.932 . S
C98 C93 1.360 . S
C98 C97 1.366 . S
C99 C73 1.490 . S
C99 C100 1.380 . S
C99 C104 1.386 . S
C100 H57 0.930 1_455 S
C100 C99 1.380 . S
C100 C101 1.381 1_455 S
C101 H58 0.929 . S
C101 C100 1.381 1_655 S
C101 C102 1.371 1_655 S
C102 C101 1.371 1_455 S
C102 C103 1.380 . S
C103 H59 0.931 . S
C103 C102 1.380 . S
C103 C104 1.387 . S
C104 H60 0.930 . S
C104 C99 1.386 . S
C104 C103 1.387 . S
C105 C74 1.519 . S
C105 C106 1.377 . S
C105 C110 1.361 . S
C106 H61 0.929 1_455 S
C106 C105 1.377 . S
C106 C107 1.386 . S
C107 H62 0.931 1_455 S
C107 C106 1.386 . S
C107 C108 1.363 . S
C108 C107 1.363 . S
C108 C109 1.385 . S
C109 H63 0.930 . S
C109 C108 1.385 . S
C109 C110 1.396 . S
C110 H64 0.929 . S
C110 C105 1.361 . S
C110 C109 1.396 . S
C111 O65 1.300 . S
C111 O66 1.209 . S
C111 C84 1.486 . S
C112 O67 1.199 . S
C112 O68 1.297 . S
C112 C96 1.476 . S
H113 O139 0.856 . S
H114 O142 0.854 . S
H115 C150 0.930 . S
H116 C151 0.930 1_565 S
H117 C153 0.930 . S
H118 C154 0.930 . S
H119 C156 0.931 . S
H120 C157 0.930 . S
H121 C159 0.930 . S
H122 C160 0.929 . S
H123 C162 0.930 . S
H124 C163 0.931 . S
H125 C165 0.930 . S
H126 C166 0.929 . S
H127 C168 0.931 . S
H128 C169 0.930 . S
H129 C171 0.930 . S
H130 C172 0.932 . S
H131 C174 0.930 . S
H132 C175 0.921 1_565 S
H133 C177 0.931 . S
H134 C178 0.930 . S
H135 C180 0.929 . S
H136 C181 0.931 . S
H137 C183 0.930 . S
H138 C184 0.929 . S
O139 H113 0.856 . S
O139 C185 1.300 . S
O140 C185 1.209 . S
O141 C186 1.199 . S
O142 H114 0.854 . S
O142 C186 1.297 . S
C143 C144 1.404 . S
C143 C148 1.397 . S
C143 C149 1.492 . S
C144 C143 1.404 . S
C144 C145 1.396 . S
C144 C155 1.492 . S
C145 C144 1.396 . S
C145 C146 1.397 . S
C145 C161 1.509 . S
C146 C145 1.397 . S
C146 C147 1.412 . S
C146 C167 1.485 . S
C147 C146 1.412 . S
C147 C148 1.388 . S
C147 C173 1.490 . S
C148 C143 1.397 . S
C148 C147 1.388 . S
C148 C179 1.519 . S
C149 C143 1.492 . S
C149 C150 1.363 . S
C149 C154 1.390 . S
C150 H115 0.930 . S
C150 C149 1.363 . S
C150 C151 1.372 . S
C151 H116 0.930 1_545 S
C151 C150 1.372 . S
C151 C152 1.383 . S
C152 C151 1.383 . S
C152 C153 1.395 . S
C153 H117 0.930 . S
C153 C152 1.395 . S
C153 C154 1.362 . S
C154 H118 0.930 . S
C154 C149 1.390 . S
C154 C153 1.362 . S
C155 C144 1.492 . S
C155 C156 1.377 . S
C155 C160 1.397 . S
C156 H119 0.931 . S
C156 C155 1.377 . S
C156 C157 1.376 . S
C157 H120 0.930 . S
C157 C156 1.376 . S
C157 C158 1.376 . S
C158 C157 1.376 . S
C158 C159 1.378 . S
C158 C185 1.486 . S
C159 H121 0.930 . S
C159 C158 1.378 . S
C159 C160 1.376 . S
C160 H122 0.929 . S
C160 C155 1.397 . S
C160 C159 1.376 . S
C161 C145 1.509 . S
C161 C162 1.391 . S
C161 C166 1.386 . S
C162 H123 0.930 . S
C162 C161 1.391 . S
C162 C163 1.375 . S
C163 H124 0.931 . S
C163 C162 1.375 . S
C163 C164 1.375 . S
C164 C163 1.375 . S
C164 C165 1.361 . S
C165 H125 0.930 . S
C165 C164 1.361 . S
C165 C166 1.399 . S
C166 H126 0.929 . S
C166 C161 1.386 . S
C166 C165 1.399 . S
C167 C146 1.485 . S
C167 C168 1.394 . S
C167 C172 1.360 . S
C168 H127 0.931 . S
C168 C167 1.394 . S
C168 C169 1.372 . S
C169 H128 0.930 . S
C169 C168 1.372 . S
C169 C170 1.397 . S
C170 C169 1.397 . S
C170 C171 1.390 . S
C170 C186 1.476 . S
C171 H129 0.930 . S
C171 C170 1.390 . S
C171 C172 1.366 . S
C172 H130 0.932 . S
C172 C167 1.360 . S
C172 C171 1.366 . S
C173 C147 1.490 . S
C173 C174 1.380 . S
C173 C178 1.386 . S
C174 H131 0.930 . S
C174 C173 1.380 . S
C174 C175 1.381 . S
C175 H132 0.921 1_545 S
C175 C174 1.381 . S
C175 C176 1.371 . S
C176 C175 1.371 . S
C176 C177 1.380 . S
C177 H133 0.931 . S
C177 C176 1.380 . S
C177 C178 1.387 . S
C178 H134 0.930 . S
C178 C173 1.386 . S
C178 C177 1.387 . S
C179 C148 1.519 . S
C179 C180 1.377 . S
C179 C184 1.361 . S
C180 H135 0.929 . S
C180 C179 1.377 . S
C180 C181 1.386 . S
C181 H136 0.931 . S
C181 C180 1.386 . S
C181 C182 1.363 . S
C182 C181 1.363 . S
C182 C183 1.385 . S
C183 H137 0.930 . S
C183 C182 1.385 . S
C183 C184 1.396 . S
C184 H138 0.929 . S
C184 C179 1.361 . S
C184 C183 1.396 . S
C185 O139 1.300 . S
C185 O140 1.209 . S
C185 C158 1.486 . S
C186 O141 1.199 . S
C186 O142 1.297 . S
C186 C170 1.476 . S
H187 O213 0.856 . S
H188 O216 0.854 . S
H189 C224 0.930 . S
H190 C225 0.930 . S
H191 C227 0.930 . S
H192 C228 0.930 . S
H193 C230 0.931 . S
H194 C231 0.930 1_554 S
H195 C233 0.930 . S
H196 C234 0.929 . S
H197 C236 0.930 . S
H198 C237 0.931 . S
H199 C239 0.930 . S
H200 C240 0.929 . S
H201 C242 0.931 . S
H202 C243 0.930 . S
H203 C245 0.930 . S
H204 C246 0.932 . S
H205 C248 0.930 . S
H206 C249 0.929 . S
H207 C251 0.931 . S
H208 C252 0.930 . S
H209 C254 0.929 . S
H210 C255 0.931 . S
H211 C257 0.930 . S
H212 C258 0.929 . S
O213 H187 0.856 . S
O213 C259 1.300 . S
O214 C259 1.209 . S
O215 C260 1.199 . S
O216 H188 0.854 . S
O216 C260 1.297 . S
C217 C218 1.404 . S
C217 C222 1.397 . S
C217 C223 1.492 . S
C218 C217 1.404 . S
C218 C219 1.396 . S
C218 C229 1.492 . S
C219 C218 1.396 . S
C219 C220 1.397 . S
C219 C235 1.509 . S
C220 C219 1.397 . S
C220 C221 1.412 . S
C220 C241 1.485 . S
C221 C220 1.412 . S
C221 C222 1.388 . S
C221 C247 1.490 . S
C222 C217 1.397 . S
C222 C221 1.388 . S
C222 C253 1.519 . S
C223 C217 1.492 . S
C223 C224 1.363 . S
C223 C228 1.390 . S
C224 H189 0.930 . S
C224 C223 1.363 . S
C224 C225 1.372 . S
C225 H190 0.930 . S
C225 C224 1.372 . S
C225 C226 1.383 . S
C226 C225 1.383 . S
C226 C227 1.395 . S
C227 H191 0.930 . S
C227 C226 1.395 . S
C227 C228 1.362 . S
C228 H192 0.930 . S
C228 C223 1.390 . S
C228 C227 1.362 . S
C229 C218 1.492 . S
C229 C230 1.377 . S
C229 C234 1.397 . S
C230 H193 0.931 . S
C230 C229 1.377 . S
C230 C231 1.376 . S
C231 H194 0.930 1_556 S
C231 C230 1.376 . S
C231 C232 1.376 1_556 S
C232 C231 1.376 1_554 S
C232 C233 1.378 1_554 S
C232 C259 1.486 . S
C233 H195 0.930 . S
C233 C232 1.378 1_556 S
C233 C234 1.376 . S
C234 H196 0.929 . S
C234 C229 1.397 . S
C234 C233 1.376 . S
C235 C219 1.509 . S
C235 C236 1.391 . S
C235 C240 1.386 . S
C236 H197 0.930 . S
C236 C235 1.391 . S
C236 C237 1.375 . S
C237 H198 0.931 . S
C237 C236 1.375 . S
C237 C238 1.375 . S
C238 C237 1.375 . S
C238 C239 1.361 . S
C239 H199 0.930 . S
C239 C238 1.361 . S
C239 C240 1.399 . S
C240 H200 0.929 . S
C240 C235 1.386 . S
C240 C239 1.399 . S
C241 C220 1.485 . S
C241 C242 1.394 . S
C241 C246 1.360 . S
C242 H201 0.931 . S
C242 C241 1.394 . S
C242 C243 1.372 . S
C243 H202 0.930 . S
C243 C242 1.372 . S
C243 C244 1.397 . S
C244 C243 1.397 . S
C244 C245 1.390 . S
C244 C260 1.476 . S
C245 H203 0.930 . S
C245 C244 1.390 . S
C245 C246 1.366 . S
C246 H204 0.932 . S
C246 C241 1.360 . S
C246 C245 1.366 . S
C247 C221 1.490 . S
C247 C248 1.380 . S
C247 C252 1.386 . S
C248 H205 0.930 . S
C248 C247 1.380 . S
C248 C249 1.381 . S
C249 H206 0.929 . S
C249 C248 1.381 . S
C249 C250 1.371 . S
C250 C249 1.371 . S
C250 C251 1.380 . S
C251 H207 0.931 . S
C251 C250 1.380 . S
C251 C252 1.387 . S
C252 H208 0.930 . S
C252 C247 1.386 . S
C252 C251 1.387 . S
C253 C222 1.519 . S
C253 C254 1.377 . S
C253 C258 1.361 . S
C254 H209 0.929 . S
C254 C253 1.377 . S
C254 C255 1.386 . S
C255 H210 0.931 . S
C255 C254 1.386 . S
C255 C256 1.363 . S
C256 C255 1.363 . S
C256 C257 1.385 . S
C257 H211 0.930 . S
C257 C256 1.385 . S
C257 C258 1.396 . S
C258 H212 0.929 . S
C258 C253 1.361 . S
C258 C257 1.396 . S
C259 O213 1.300 . S
C259 O214 1.209 . S
C259 C232 1.486 . S
C260 O215 1.199 . S
C260 O216 1.297 . S
C260 C244 1.476 . S
H261 C267 0.930 . S
H262 C271 0.930 1_655 S
H263 C276 0.929 1_655 S
H264 C274 0.929 . S
H265 C269 0.929 1_655 S
H266 C275 0.929 . S
C267 H261 0.930 . S
C267 C268 1.367 . S
C267 C275 1.378 . S
C268 C267 1.367 . S
C268 C276 1.433 . S
C269 H265 0.929 1_455 S
C269 C271 1.378 . S
C269 C273 1.350 . S
C270 C273 1.463 . S
C270 C275 1.350 . S
C270 N278 1.427 . S
C271 H262 0.930 1_455 S
C271 C269 1.378 . S
C271 C272 1.367 . S
C272 C271 1.367 . S
C272 C274 1.433 . S
C273 C269 1.350 . S
C273 C270 1.463 . S
C273 N277 1.427 . S
C274 H264 0.929 . S
C274 C272 1.433 . S
C274 N277 1.384 . S
C275 H266 0.929 . S
C275 C267 1.378 . S
C275 C270 1.350 . S
C276 H263 0.929 1_455 S
C276 C268 1.433 . S
C276 N278 1.384 . S
N277 C273 1.427 . S
N277 C274 1.384 . S
N278 C270 1.427 . S
N278 C276 1.384 . S
H279 C285 0.930 1_565 S
H280 C289 0.930 . S
H281 C294 0.929 1_455 S
H282 C292 0.929 1_565 S
H283 C287 0.929 . S
H284 C293 0.929 1_565 S
C285 H279 0.930 1_545 S
C285 C286 1.367 . S
C285 C293 1.378 . S
C286 C285 1.367 . S
C286 C294 1.433 . S
C287 H283 0.929 . S
C287 C289 1.378 . S
C287 C291 1.350 . S
C288 C291 1.463 . S
C288 C293 1.350 . S
C288 N296 1.427 . S
C289 H280 0.930 . S
C289 C287 1.378 . S
C289 C290 1.367 . S
C290 C289 1.367 . S
C290 C292 1.433 . S
C291 C287 1.350 . S
C291 C288 1.463 . S
C291 N295 1.427 . S
C292 H282 0.929 1_545 S
C292 C290 1.433 . S
C292 N295 1.384 . S
C293 H284 0.929 1_545 S
C293 C285 1.378 . S
C293 C288 1.350 . S
C294 H281 0.929 1_655 S
C294 C286 1.433 . S
C294 N296 1.384 . S
N295 C291 1.427 . S
N295 C292 1.384 . S
N296 C288 1.427 . S
N296 C294 1.384 . S
H297 C303 0.930 . S
H298 C307 0.930 . S
H299 C312 0.929 . S
H300 C310 0.929 . S
H301 C305 0.929 . S
H302 C311 0.929 . S
C303 H297 0.930 . S
C303 C304 1.367 1_455 S
C303 C311 1.378 1_455 S
C304 C303 1.367 1_655 S
C304 C312 1.433 . S
C305 H301 0.929 . S
C305 C307 1.378 . S
C305 C309 1.350 . S
C306 C309 1.463 . S
C306 C311 1.350 . S
C306 N314 1.427 . S
C307 H298 0.930 . S
C307 C305 1.378 . S
C307 C308 1.367 . S
C308 C307 1.367 . S
C308 C310 1.433 . S
C309 C305 1.350 . S
C309 C306 1.463 . S
C309 N313 1.427 . S
C310 H300 0.929 . S
C310 C308 1.433 . S
C310 N313 1.384 . S
C311 H302 0.929 . S
C311 C303 1.378 1_655 S
C311 C306 1.350 . S
C312 H299 0.929 . S
C312 C304 1.433 . S
C312 N314 1.384 . S
N313 C309 1.427 . S
N313 C310 1.384 . S
N314 C306 1.427 . S
N314 C312 1.384 . S
H315 C321 0.930 . S
H316 C325 0.930 . S
H317 C330 0.929 . S
H318 C328 0.929 . S
H319 C323 0.929 . S
H320 C329 0.929 . S
C321 H315 0.930 . S
C321 C322 1.367 . S
C321 C329 1.378 . S
C322 C321 1.367 . S
C322 C330 1.433 1_565 S
C323 H319 0.929 . S
C323 C325 1.378 . S
C323 C327 1.350 . S
C324 C327 1.463 . S
C324 C329 1.350 . S
C324 N332 1.427 . S
C325 H316 0.930 . S
C325 C323 1.378 . S
C325 C326 1.367 . S
C326 C325 1.367 . S
C326 C328 1.433 . S
C327 C323 1.350 . S
C327 C324 1.463 . S
C327 N331 1.427 . S
C328 H318 0.929 . S
C328 C326 1.433 . S
C328 N331 1.384 . S
C329 H320 0.929 . S
C329 C321 1.378 . S
C329 C324 1.350 . S
C330 H317 0.929 . S
C330 C322 1.433 1_545 S
C330 N332 1.384 1_545 S
N331 C327 1.427 . S
N331 C328 1.384 . S
N332 C324 1.427 . S
N332 C330 1.384 1_565 S
H333 C339 0.930 . S
H334 C343 0.930 . S
H335 C348 0.929 . S
H336 C346 0.929 . S
H337 C341 0.929 . S
H338 C347 0.929 . S
C339 H333 0.930 . S
C339 C340 1.367 . S
C339 C347 1.378 . S
C340 C339 1.367 . S
C340 C348 1.433 . S
C341 H337 0.929 . S
C341 C343 1.378 . S
C341 C345 1.350 . S
C342 C345 1.463 . S
C342 C347 1.350 . S
C342 N350 1.427 . S
C343 H334 0.930 . S
C343 C341 1.378 . S
C343 C344 1.367 . S
C344 C343 1.367 . S
C344 C346 1.433 . S
C345 C341 1.350 . S
C345 C342 1.463 . S
C345 N349 1.427 . S
C346 H336 0.929 . S
C346 C344 1.433 . S
C346 N349 1.384 . S
C347 H338 0.929 . S
C347 C339 1.378 . S
C347 C342 1.350 . S
C348 H335 0.929 . S
C348 C340 1.433 . S
C348 N350 1.384 . S
N349 C345 1.427 . S
N349 C346 1.384 . S
N350 C342 1.427 . S
N350 C348 1.384 . S
H351 C357 0.930 . S
H352 C361 0.930 . S
H353 C366 0.929 . S
H354 C364 0.929 . S
H355 C359 0.929 . S
H356 C365 0.929 . S
C357 H351 0.930 . S
C357 C358 1.367 . S
C357 C365 1.378 . S
C358 C357 1.367 . S
C358 C366 1.433 . S
C359 H355 0.929 . S
C359 C361 1.378 . S
C359 C363 1.350 . S
C360 C363 1.463 . S
C360 C365 1.350 . S
C360 N368 1.427 . S
C361 H352 0.930 . S
C361 C359 1.378 . S
C361 C362 1.367 . S
C362 C361 1.367 . S
C362 C364 1.433 . S
C363 C359 1.350 . S
C363 C360 1.463 . S
C363 N367 1.427 . S
C364 H354 0.929 . S
C364 C362 1.433 . S
C364 N367 1.384 . S
C365 H356 0.929 . S
C365 C357 1.378 . S
C365 C360 1.350 . S
C366 H353 0.929 . S
C366 C358 1.433 . S
C366 N368 1.384 . S
N367 C363 1.427 . S
N367 C364 1.384 . S
N368 C360 1.427 . S
N368 C366 1.384 . S
H369 C375 0.930 . S
H370 C379 0.930 . S
H371 C384 0.929 . S
H372 C382 0.929 . S
H373 C377 0.929 . S
H374 C383 0.929 . S
C375 H369 0.930 . S
C375 C376 1.367 1_655 S
C375 C383 1.378 . S
C376 C375 1.367 1_455 S
C376 C384 1.433 . S
C377 H373 0.929 . S
C377 C379 1.378 . S
C377 C381 1.350 . S
C378 C381 1.463 . S
C378 C383 1.350 . S
C378 N386 1.427 . S
C379 H370 0.930 . S
C379 C377 1.378 . S
C379 C380 1.367 . S
C380 C379 1.367 . S
C380 C382 1.433 . S
C381 C377 1.350 . S
C381 C378 1.463 . S
C381 N385 1.427 . S
C382 H372 0.929 . S
C382 C380 1.433 . S
C382 N385 1.384 . S
C383 H374 0.929 . S
C383 C375 1.378 . S
C383 C378 1.350 . S
C384 H371 0.929 . S
C384 C376 1.433 . S
C384 N386 1.384 1_455 S
N385 C381 1.427 . S
N385 C382 1.384 . S
N386 C378 1.427 . S
N386 C384 1.384 1_655 S
H387 C393 0.930 . S
H388 C397 0.930 . S
H389 C402 0.929 1_445 S
H390 C400 0.929 . S
H391 C395 0.929 . S
H392 C401 0.929 . S
C393 H387 0.930 . S
C393 C394 1.367 . S
C393 C401 1.378 . S
C394 C393 1.367 . S
C394 C402 1.431 . S
C395 H391 0.929 . S
C395 C397 1.378 . S
C395 C399 1.350 . S
C396 C399 1.463 1_554 S
C396 C401 1.350 . S
C396 N404 1.427 . S
C397 H388 0.930 . S
C397 C395 1.378 . S
C397 C398 1.367 . S
C398 C397 1.367 . S
C398 C400 1.433 . S
C399 C395 1.350 . S
C399 C396 1.463 1_556 S
C399 N403 1.427 . S
C400 H390 0.929 . S
C400 C398 1.433 . S
C400 N403 1.384 . S
C401 H392 0.929 . S
C401 C393 1.378 . S
C401 C396 1.350 . S
C402 H389 0.929 1_665 S
C402 C394 1.431 . S
C402 N404 1.386 . S
N403 C399 1.427 . S
N403 C400 1.384 . S
N404 C396 1.427 . S
N404 C402 1.386 . S
H405 C411 0.941 . S
H406 C415 0.930 . S
H407 C420 0.929 . S
H408 C418 0.929 1_655 S
H409 C413 0.929 . S
H410 C419 0.929 1_655 S
C411 H405 0.941 . S
C411 C412 1.367 . S
C411 C419 1.378 . S
C412 C411 1.367 . S
C412 C420 1.433 . S
C413 H409 0.929 . S
C413 C415 1.378 . S
C413 C417 1.350 . S
C414 C417 1.463 . S
C414 C419 1.350 . S
C414 N422 1.427 . S
C415 H406 0.930 . S
C415 C413 1.378 . S
C415 C416 1.367 . S
C416 C415 1.367 . S
C416 C418 1.433 . S
C417 C413 1.350 . S
C417 C414 1.463 . S
C417 N421 1.427 . S
C418 H408 0.929 1_455 S
C418 C416 1.433 . S
C418 N421 1.384 . S
C419 H410 0.929 1_455 S
C419 C411 1.378 . S
C419 C414 1.350 . S
C420 H407 0.929 . S
C420 C412 1.433 . S
C420 N422 1.384 . S
N421 C417 1.427 . S
N421 C418 1.384 . S
N422 C414 1.427 . S
N422 C420 1.384 . S
H423 C429 0.930 1_565 S
H424 C433 0.930 . S
H425 C438 0.929 . S
H426 C436 0.929 1_565 S
H427 C431 0.929 . S
H428 C437 0.929 1_565 S
C429 H423 0.930 1_545 S
C429 C430 1.367 . S
C429 C437 1.378 . S
C430 C429 1.367 . S
C430 C438 1.433 . S
C431 H427 0.929 . S
C431 C433 1.378 . S
C431 C435 1.350 . S
C432 C435 1.463 . S
C432 C437 1.350 . S
C432 N440 1.427 . S
C433 H424 0.930 . S
C433 C431 1.378 . S
C433 C434 1.367 . S
C434 C433 1.367 . S
C434 C436 1.433 . S
C435 C431 1.350 . S
C435 C432 1.463 . S
C435 N439 1.427 . S
C436 H426 0.929 1_545 S
C436 C434 1.433 . S
C436 N439 1.384 . S
C437 H428 0.929 1_545 S
C437 C429 1.378 . S
C437 C432 1.350 . S
C438 H425 0.929 . S
C438 C430 1.433 . S
C438 N440 1.384 . S
N439 C435 1.427 . S
N439 C436 1.384 . S
N440 C432 1.427 . S
N440 C438 1.384 . S
H441 C447 0.930 . S
H442 C451 0.930 . S
H443 C456 0.929 . S
H444 C454 0.929 . S
H445 C449 0.929 . S
H446 C455 0.929 . S
C447 H441 0.930 . S
C447 C448 1.367 . S
C447 C455 1.378 . S
C448 C447 1.367 . S
C448 C456 1.433 . S
C449 H445 0.929 . S
C449 C451 1.378 . S
C449 C453 1.350 . S
C450 C453 1.463 . S
C450 C455 1.350 . S
C450 N458 1.427 . S
C451 H442 0.930 . S
C451 C449 1.378 . S
C451 C452 1.367 1_554 S
C452 C451 1.367 1_556 S
C452 C454 1.433 . S
C453 C449 1.350 . S
C453 C450 1.463 . S
C453 N457 1.427 1_554 S
C454 H444 0.929 . S
C454 C452 1.433 . S
C454 N457 1.384 . S
C455 H446 0.929 . S
C455 C447 1.378 . S
C455 C450 1.350 . S
C456 H443 0.929 . S
C456 C448 1.433 . S
C456 N458 1.384 . S
N457 C453 1.427 1_556 S
N457 C454 1.384 . S
N458 C450 1.427 . S
N458 C456 1.384 . S
H459 C465 0.930 . S
H460 C469 0.930 . S
H461 C474 0.929 . S
H462 C472 0.929 . S
H463 C467 0.929 . S
H464 C473 0.929 . S
C465 H459 0.930 . S
C465 C466 1.367 . S
C465 C473 1.378 . S
C466 C465 1.367 . S
C466 C474 1.433 . S
C467 H463 0.929 . S
C467 C469 1.378 . S
C467 C471 1.350 . S
C468 C471 1.463 . S
C468 C473 1.350 . S
C468 N476 1.427 . S
C469 H460 0.930 . S
C469 C467 1.378 . S
C469 C470 1.367 . S
C470 C469 1.367 . S
C470 C472 1.433 . S
C471 C467 1.350 . S
C471 C468 1.463 . S
C471 N475 1.427 . S
C472 H462 0.929 . S
C472 C470 1.433 . S
C472 N475 1.384 . S
C473 H464 0.929 . S
C473 C465 1.378 . S
C473 C468 1.350 . S
C474 H461 0.929 . S
C474 C466 1.433 . S
C474 N476 1.384 . S
N475 C471 1.427 . S
N475 C472 1.384 . S
N476 C468 1.427 . S
N476 C474 1.384 . S
C272 C78 1.349 . S
C268 C10 1.424 . S
C286 C21 1.359 1_655 S
C290 C152 1.354 . S
C304 C31 1.990 1_665 S
C308 C256 2.069 . S
C322 C0 0.761 1_565 S
C326 C90 0.744 . S
C344 C164 0.738 . S
C340 C18 0.722 . S
C358 C34 1.525 . S
C362 C250 1.423 . S
C380 C182 2.071 . S
C376 C36 2.073 . S
C394 C8 1.383 1_665 S
C398 C226 1.367 . S
C416 C102 1.401 . S
C412 C23 1.518 . S
C434 C176 1.302 . S
C430 C26 1.391 . S
C452 C238 0.766 . S
C448 C5 0.752 . S
C466 C13 2.004 . S
C470 C108 2.079 . S
