# Generated by pormake.
# Topology pyr, (3,6)-cn, num edge types: 1
# Building blocks:
#     Node 0, Type 0, BuildingBlock: BETDAH_clean_linker_0, # of connection points: 3
#     Node 1, Type 0, BuildingBlock: BETDAH_clean_linker_0, # of connection points: 3
#     Node 2, Type 0, BuildingBlock: BETDAH_clean_linker_0, # of connection points: 3
#     Node 3, Type 0, BuildingBlock: BETDAH_clean_linker_0, # of connection points: 3
#     Node 4, Type 0, BuildingBlock: BETDAH_clean_linker_0, # of connection points: 3
#     Node 5, Type 0, BuildingBlock: BETDAH_clean_linker_0, # of connection points: 3
#     Node 6, Type 0, BuildingBlock: BETDAH_clean_linker_0, # of connection points: 3
#     Node 7, Type 0, BuildingBlock: BETDAH_clean_linker_0, # of connection points: 3
#     Node 8, Type 1, BuildingBlock: BETDEL_clean_sbu_0, # of connection points: 6
#     Node 9, Type 1, BuildingBlock: BETDEL_clean_sbu_0, # of connection points: 6
#     Node 10, Type 1, BuildingBlock: BETDEL_clean_sbu_0, # of connection points: 6
#     Node 11, Type 1, BuildingBlock: BETDEL_clean_sbu_0, # of connection points: 6
#     Edge 12, Type (0, 1), BuildingBlock: EYOCIG_clean_linker_4, # of connection points: 2
#     Edge 13, Type (0, 1), BuildingBlock: EYOCIG_clean_linker_4, # of connection points: 2
#     Edge 14, Type (0, 1), BuildingBlock: EYOCIG_clean_linker_4, # of connection points: 2
#     Edge 15, Type (0, 1), BuildingBlock: EYOCIG_clean_linker_4, # of connection points: 2
#     Edge 16, Type (0, 1), BuildingBlock: EYOCIG_clean_linker_4, # of connection points: 2
#     Edge 17, Type (0, 1), BuildingBlock: EYOCIG_clean_linker_4, # of connection points: 2
#     Edge 18, Type (0, 1), BuildingBlock: EYOCIG_clean_linker_4, # of connection points: 2
#     Edge 19, Type (0, 1), BuildingBlock: EYOCIG_clean_linker_4, # of connection points: 2
#     Edge 20, Type (0, 1), BuildingBlock: EYOCIG_clean_linker_4, # of connection points: 2
#     Edge 21, Type (0, 1), BuildingBlock: EYOCIG_clean_linker_4, # of connection points: 2
#     Edge 22, Type (0, 1), BuildingBlock: EYOCIG_clean_linker_4, # of connection points: 2
#     Edge 23, Type (0, 1), BuildingBlock: EYOCIG_clean_linker_4, # of connection points: 2
#     Edge 24, Type (0, 1), BuildingBlock: EYOCIG_clean_linker_4, # of connection points: 2
#     Edge 25, Type (0, 1), BuildingBlock: EYOCIG_clean_linker_4, # of connection points: 2
#     Edge 26, Type (0, 1), BuildingBlock: EYOCIG_clean_linker_4, # of connection points: 2
#     Edge 27, Type (0, 1), BuildingBlock: EYOCIG_clean_linker_4, # of connection points: 2
#     Edge 28, Type (0, 1), BuildingBlock: EYOCIG_clean_linker_4, # of connection points: 2
#     Edge 29, Type (0, 1), BuildingBlock: EYOCIG_clean_linker_4, # of connection points: 2
#     Edge 30, Type (0, 1), BuildingBlock: EYOCIG_clean_linker_4, # of connection points: 2
#     Edge 31, Type (0, 1), BuildingBlock: EYOCIG_clean_linker_4, # of connection points: 2
#     Edge 32, Type (0, 1), BuildingBlock: EYOCIG_clean_linker_4, # of connection points: 2
#     Edge 33, Type (0, 1), BuildingBlock: EYOCIG_clean_linker_4, # of connection points: 2
#     Edge 34, Type (0, 1), BuildingBlock: EYOCIG_clean_linker_4, # of connection points: 2
#     Edge 35, Type (0, 1), BuildingBlock: EYOCIG_clean_linker_4, # of connection points: 2
# Relax obj value: 0.078
# Max RMSD: 0.185
# Mean RMSD: 0.132
data_MOF--net-pyr--node1-BETDEL_clean_sbu_0--node2-BETDAH_clean_linker_0--edge1-EYOCIG_clean_linker_4
_symmetry_space_group_name_H-M    P1
_symmetry_Int_Tables_number       1
_symmetry_cell_setting            triclinic
loop_
_symmetry_equiv_pos_as_xyz
'x, y, z'
_cell_length_a     27.904262
_cell_length_b     29.596899
_cell_length_c     28.444438
_cell_angle_alpha  91.842213
_cell_angle_beta   89.69432
_cell_angle_gamma 102.34532
loop_
_atom_site_label
_atom_site_type_symbol
_atom_site_fract_x
_atom_site_fract_y
_atom_site_fract_z
_atom_type_partial_charge
H0 H 0.31373 0.19558 0.29333 0.0
H1 H 0.32746 0.28383 0.17534 0.0
H2 H 0.22222 0.29499 0.28283 0.0
C3 C 0.3056 0.22566 0.27686 0.0
C4 C 0.26783 0.2459 0.29491 0.0
C5 C 0.32735 0.23943 0.23364 0.0
C6 C 0.31348 0.27556 0.2104 0.0
C7 C 0.27595 0.29615 0.22783 0.0
C8 C 0.25415 0.28231 0.27121 0.0
N9 N 0.25082 0.3164 0.19384 0.0
C10 C 0.23501 0.35783 0.19691 0.0
H11 H 0.41434 0.86489 0.73717 0.0
H12 H 0.33432 0.97016 0.7081 0.0
H13 H 0.35719 0.87348 0.59846 0.0
C14 C 0.39394 0.88132 0.71294 0.0
C15 C 0.38715 0.86484 0.66642 0.0
C16 C 0.37502 0.91928 0.7281 0.0
C17 C 0.34871 0.9404 0.69665 0.0
C18 C 0.34264 0.92382 0.6497 0.0
C19 C 0.36197 0.88613 0.63472 0.0
N20 N 0.3191 0.9457 0.61631 0.0
C21 C 0.27255 0.95342 0.62383 0.0
H22 H 0.72532 0.34295 0.98913 0.0
H23 H 0.71583 0.43002 0.87254 0.0
H24 H 0.60908 0.30271 0.88777 0.0
C25 C 0.70645 0.3501 0.95786 0.0
C26 C 0.66442 0.31864 0.942 0.0
C27 C 0.72513 0.39002 0.93269 0.0
C28 C 0.70093 0.39938 0.89214 0.0
C29 C 0.65881 0.36771 0.87587 0.0
C30 C 0.64115 0.32734 0.90074 0.0
N31 N 0.6344 0.37393 0.83369 0.0
C32 C 0.63704 0.41596 0.81228 0.0
H33 H 0.82097 0.74255 0.47502 0.0
H34 H 0.92984 0.72983 0.36993 0.0
H35 H 0.81374 0.61311 0.39948 0.0
C36 C 0.83575 0.72204 0.4486 0.0
C37 C 0.81229 0.67582 0.43949 0.0
C38 C 0.87813 0.74187 0.42355 0.0
C39 C 0.89675 0.71504 0.38895 0.0
C40 C 0.87332 0.66839 0.38029 0.0
C41 C 0.83147 0.64912 0.40595 0.0
N42 N 0.89318 0.63849 0.34953 0.0
C43 C 0.90932 0.64826 0.30387 0.0
H44 H 0.85389 0.78505 0.80894 0.0
H45 H 0.73792 0.77801 0.91109 0.0
H46 H 0.74134 0.86177 0.78957 0.0
C47 C 0.81984 0.79405 0.82039 0.0
C48 C 0.80024 0.82538 0.79482 0.0
C49 C 0.79829 0.77745 0.8628 0.0
C50 C 0.75507 0.79087 0.8785 0.0
C51 C 0.73395 0.82095 0.85165 0.0
C52 C 0.75673 0.83776 0.8097 0.0
N53 N 0.68741 0.83067 0.86318 0.0
C54 C 0.67745 0.85696 0.90229 0.0
H55 H 0.72147 0.10417 0.40765 0.0
H56 H 0.76489 0.21356 0.51131 0.0
H57 H 0.64708 0.21741 0.41653 0.0
C58 C 0.71443 0.13468 0.42629 0.0
C59 C 0.67878 0.15698 0.40961 0.0
C60 C 0.74543 0.15523 0.46291 0.0
C61 C 0.73908 0.1963 0.48467 0.0
C62 C 0.70333 0.21839 0.46862 0.0
C63 C 0.67222 0.19839 0.43147 0.0
N64 N 0.70792 0.26513 0.4824 0.0
C65 C 0.67068 0.28225 0.50342 0.0
H66 H 0.31152 0.7661 0.15207 0.0
H67 H 0.32371 0.65701 0.24543 0.0
H68 H 0.43909 0.77961 0.23876 0.0
C69 C 0.33126 0.75253 0.17924 0.0
C70 C 0.37669 0.77786 0.1941 0.0
C71 C 0.3118 0.70922 0.19741 0.0
C72 C 0.33779 0.69128 0.23233 0.0
C73 C 0.38402 0.71727 0.2476 0.0
C74 C 0.40298 0.76038 0.22819 0.0
N75 N 0.41643 0.69864 0.27568 0.0
C76 C 0.40553 0.67541 0.31734 0.0
H77 H 0.22708 0.3591 0.62296 0.0
H78 H 0.20107 0.47082 0.71418 0.0
H79 H 0.08916 0.34715 0.69514 0.0
C80 C 0.20316 0.3736 0.64647 0.0
C81 C 0.15631 0.34744 0.65727 0.0
C82 C 0.21925 0.41832 0.66691 0.0
C83 C 0.18873 0.43649 0.69838 0.0
C84 C 0.14166 0.41073 0.70839 0.0
C85 C 0.12558 0.36683 0.68715 0.0
N86 N 0.10845 0.42841 0.73794 0.0
C87 C 0.12102 0.4555 0.77872 0.0
Dy88 Dy 0.04217 0.06253 0.49196 0.0
C89 C 0.94135 0.9695 0.65211 0.0
C90 C 0.09845 0.1148 0.42688 0.0
Dy91 Dy 0.98123 0.02842 0.58469 0.0
O92 O 0.10936 0.07979 0.44707 0.0
O93 O 0.05505 0.11996 0.43975 0.0
O94 O 0.08846 1.01149 0.50608 0.0
O95 O 0.05726 0.04226 0.5626 0.0
C96 C 0.08139 1.01245 0.55112 0.0
C97 C 0.92742 0.06621 0.52633 0.0
O98 O 0.02584 0.09668 0.61338 0.0
O99 O 0.0581 0.1252 0.54101 0.0
O100 O 0.93 1.00919 0.6454 0.0
O101 O 0.9772 0.96376 0.62488 0.0
O102 O 0.91205 0.05187 0.56734 0.0
O103 O 0.96976 0.05918 0.51986 0.0
O104 O 0.99325 0.99825 0.46162 0.0
O105 O 0.97091 0.96628 0.53476 0.0
C106 C 0.0508 0.13029 0.58688 0.0
C107 C 0.97366 0.9629 0.48826 0.0
Dy108 Dy 0.54771 0.05894 0.1145 0.0
C109 C 0.42788 0.99868 0.94842 0.0
C110 C 0.6015 0.09345 0.19197 0.0
Dy111 Dy 0.48052 0.03968 0.02468 0.0
O112 O 0.58638 0.04995 0.18137 0.0
O113 O 0.5896 0.11865 0.15921 0.0
O114 O 0.52177 0.98764 0.1395 0.0
O115 O 0.47486 0.01659 0.09722 0.0
C116 C 0.48191 0.97977 0.1148 0.0
C117 C 0.54951 0.11738 0.0205 0.0
O118 O 0.43374 0.07581 0.07243 0.0
O119 O 0.49192 0.10116 0.13179 0.0
O120 O 0.4389 0.04286 0.95764 0.0
O121 O 0.44265 0.97655 0.98224 0.0
O122 O 0.51226 0.10764 0.99223 0.0
O123 O 0.55307 0.08152 0.0421 0.0
O124 O 0.59476 0.02399 0.06683 0.0
O125 O 0.53393 0.99387 1.01144 0.0
C126 C 0.44921 0.1007 0.11158 0.0
C127 C 0.57762 0.99593 0.03034 0.0
Dy128 Dy 0.52781 0.52031 0.55749 0.0
C129 C 0.48644 0.68377 0.63223 0.0
C130 C 0.56385 0.4452 0.53361 0.0
Dy131 Dy 0.52161 0.60946 0.60429 0.0
O132 O 0.51762 0.44585 0.53437 0.0
O133 O 0.5906 0.48599 0.54249 0.0
O134 O 0.44723 0.49474 0.55943 0.0
O135 O 0.48217 0.53851 0.61506 0.0
C136 C 0.44137 0.51818 0.59747 0.0
C137 C 0.60681 0.61026 0.56118 0.0
O138 O 0.54492 0.57865 0.6685 0.0
O139 O 0.56723 0.51846 0.62593 0.0
O140 O 0.53268 0.68399 0.62765 0.0
O141 O 0.45962 0.64301 0.62376 0.0
O142 O 0.60313 0.63419 0.59949 0.0
O143 O 0.56518 0.59076 0.54576 0.0
O144 O 0.50425 0.55261 0.49375 0.0
O145 O 0.48068 0.61192 0.53701 0.0
C146 C 0.56636 0.54299 0.66539 0.0
C147 C 0.48172 0.58774 0.49735 0.0
Dy148 Dy 0.04381 0.53282 0.06286 0.0
C149 C 0.95469 0.6719 0.97377 0.0
C150 C 0.10103 0.47614 0.09643 0.0
Dy151 Dy 0.01298 0.616 1.00868 0.0
O152 O 0.05912 0.48051 0.11398 0.0
O153 O 0.11014 0.50012 0.0587 0.0
O154 O 0.99731 0.5423 0.12577 0.0
O155 O 0.02095 0.59719 0.08124 0.0
C156 C 0.99211 0.58317 0.11445 0.0
C157 C 0.06715 0.56649 0.95925 0.0
O158 O 0.07904 0.65496 0.05062 0.0
O159 O 0.10977 0.58997 0.06926 0.0
O160 O 0.9954 0.66556 0.95485 0.0
O161 O 0.94757 0.65024 0.01306 0.0
O162 O 0.06564 0.609 0.95031 0.0
O163 O 0.03539 0.5513 0.98989 0.0
O164 O 0.9758 0.49319 0.02662 0.0
O165 O 0.94702 0.55758 1.00218 0.0
C166 C 0.11377 0.63515 0.06801 0.0
C167 C 0.94152 0.5126 1.00845 0.0
C168 C 0.20539 0.20079 0.35656 0.0
C169 C 0.23429 0.22083 0.32856 0.0
C170 C 0.16687 0.17336 0.38212 0.0
C171 C 0.13402 0.14802 0.40218 0.0
C172 C 0.3925 0.94947 0.81596 0.0
C173 C 0.38384 0.93664 0.77571 0.0
C174 C 0.40327 0.96444 0.86302 0.0
C175 C 0.41452 0.97893 0.90238 0.0
C176 C 0.62092 0.48386 0.76274 0.0
C177 C 0.6334 0.44969 0.79103 0.0
C178 C 0.60516 0.50783 0.73583 0.0
C179 C 0.58667 0.52706 0.70635 0.0
C180 C 0.93636 0.64399 0.22347 0.0
C181 C 0.92265 0.64918 0.26332 0.0
C182 C 0.95449 0.63047 0.17969 0.0
C183 C 0.97264 0.61286 0.14713 0.0
C184 C 0.37691 0.18582 0.18531 0.0
C185 C 0.35432 0.20988 0.20776 0.0
C186 C 0.39938 0.15531 0.1574 0.0
C187 C 0.41945 0.12956 0.13428 0.0
C188 C 0.18446 0.96797 0.62012 0.0
C189 C 0.23143 0.95936 0.62613 0.0
C190 C 0.14802 0.97893 0.60689 0.0
C191 C 0.11297 0.99688 0.58294 0.0
C192 C 0.80987 0.44134 0.96138 0.0
C193 C 0.77121 0.41913 0.94691 0.0
C194 C 0.85631 0.46426 0.97848 0.0
C195 C 0.89594 0.48418 0.99287 0.0
C196 C 0.73128 0.63989 0.48533 0.0
C197 C 0.76816 0.65572 0.46413 0.0
C198 C 0.68754 0.62538 0.51065 0.0
C199 C 0.65003 0.61772 0.53282 0.0
C200 C 0.1915 0.42004 0.16491 0.0
C201 C 0.2177 0.39052 0.1873 0.0
C202 C 0.16504 0.43916 0.14278 0.0
C203 C 0.13661 0.45627 0.12089 0.0
C204 C 0.62958 0.24118 0.98717 0.0
C205 C 0.64606 0.27665 0.96715 0.0
C206 C 0.60825 0.19798 1.00689 0.0
C207 C 0.58575 0.16001 0.01755 0.0
C208 C 0.92021 0.82992 0.44319 0.0
C209 C 0.90186 0.78979 0.43349 0.0
C210 C 0.94002 0.87731 0.45493 0.0
C211 C 0.95609 0.9173 0.46713 0.0
C212 C 0.42578 0.79438 0.64325 0.0
C213 C 0.40722 0.82656 0.65137 0.0
C214 C 0.44845 0.7569 0.63874 0.0
C215 C 0.46706 0.72417 0.63585 0.0
C216 C 0.85347 0.87184 0.72792 0.0
C217 C 0.82925 0.85065 0.75841 0.0
C218 C 0.88474 0.90325 0.69922 0.0
C219 C 0.91116 0.93293 0.67748 0.0
C220 C 0.64197 0.13134 0.3256 0.0
C221 C 0.6583 0.14366 0.36395 0.0
C222 C 0.62849 0.12024 0.27849 0.0
C223 C 0.61639 0.11002 0.23845 0.0
C224 C 0.42122 0.63539 0.3942 0.0
C225 C 0.40702 0.65644 0.35408 0.0
C226 C 0.43913 0.61825 0.42581 0.0
C227 C 0.45918 0.60253 0.45697 0.0
C228 C 0.11671 0.49861 0.85972 0.0
C229 C 0.124 0.4766 0.81606 0.0
C230 C 0.1035 0.51728 0.89439 0.0
C231 C 0.08597 0.53735 0.92552 0.0
C232 C 0.64717 0.90646 0.95979 0.0
C233 C 0.66356 0.88103 0.93264 0.0
C234 C 0.62636 0.93816 0.98801 0.0
C235 C 0.60672 0.96548 1.00934 0.0
C236 C 0.8266 0.12656 0.47823 0.0
C237 C 0.78964 0.13984 0.47143 0.0
C238 C 0.86919 0.10988 0.48583 0.0
C239 C 0.90118 0.09166 0.49836 0.0
C240 C 0.23053 0.67496 0.15139 0.0
C241 C 0.26649 0.68443 0.17628 0.0
C242 C 0.19032 0.66972 0.11994 0.0
C243 C 0.15455 0.66098 0.09476 0.0
C244 C 0.30725 0.46892 0.648 0.0
C245 C 0.26723 0.44567 0.65643 0.0
C246 C 0.35504 0.49309 0.63672 0.0
C247 C 0.39617 0.50777 0.62298 0.0
C248 C 0.85131 0.72966 0.91063 0.0
C249 C 0.82455 0.75087 0.89144 0.0
C250 C 0.88715 0.7091 0.93231 0.0
C251 C 0.91827 0.6923 0.95071 0.0
C252 C 0.41046 0.85614 0.15152 0.0
C253 C 0.39667 0.82072 0.17194 0.0
C254 C 0.42705 0.89896 0.13016 0.0
C255 C 0.44662 0.93728 0.11869 0.0
C256 C 0.12002 0.26034 0.62922 0.0
C257 C 0.13938 0.29995 0.64024 0.0
C258 C 0.09491 0.21395 0.61874 0.0
C259 C 0.07351 0.1749 0.60778 0.0
C260 C 0.61939 0.33116 0.53293 0.0
C261 C 0.64282 0.30347 0.52081 0.0
C262 C 0.5978 0.36951 0.53673 0.0
C263 C 0.58193 0.40392 0.53526 0.0
loop_
_geom_bond_atom_site_label_1
_geom_bond_atom_site_label_2
_geom_bond_distance
_geom_bond_site_symmetry_2
_ccdc_geom_bond_type
H0 C3 0.929 . S
H1 C6 0.929 . S
H2 C8 0.930 . S
C3 H0 0.929 . S
C3 C4 1.398 . S
C3 C5 1.396 . S
C4 C3 1.398 . S
C4 C8 1.407 . S
C5 C3 1.396 . S
C5 C6 1.394 . S
C6 H1 0.929 . S
C6 C5 1.394 . S
C6 C7 1.382 . S
C7 C6 1.382 . S
C7 C8 1.392 . S
C7 N9 1.420 . S
C8 H2 0.930 . S
C8 C4 1.407 . S
C8 C7 1.392 . S
N9 C7 1.420 . S
N9 C10 1.244 . S
C10 N9 1.244 . S
H11 C14 0.929 . S
H12 C17 0.929 . S
H13 C19 0.930 . S
C14 H11 0.929 . S
C14 C15 1.398 . S
C14 C16 1.396 . S
C15 C14 1.398 . S
C15 C19 1.407 . S
C16 C14 1.396 . S
C16 C17 1.394 . S
C17 H12 0.929 . S
C17 C16 1.394 . S
C17 C18 1.382 . S
C18 C17 1.382 . S
C18 C19 1.392 . S
C18 N20 1.420 . S
C19 H13 0.930 . S
C19 C15 1.407 . S
C19 C18 1.392 . S
N20 C18 1.420 . S
N20 C21 1.244 . S
C21 N20 1.244 . S
H22 C25 0.929 . S
H23 C28 0.929 . S
H24 C30 0.930 . S
C25 H22 0.929 . S
C25 C26 1.398 . S
C25 C27 1.396 . S
C26 C25 1.398 . S
C26 C30 1.407 . S
C27 C25 1.396 . S
C27 C28 1.394 . S
C28 H23 0.929 . S
C28 C27 1.394 . S
C28 C29 1.382 . S
C29 C28 1.382 . S
C29 C30 1.392 . S
C29 N31 1.420 . S
C30 H24 0.930 . S
C30 C26 1.407 . S
C30 C29 1.392 . S
N31 C29 1.420 . S
N31 C32 1.244 . S
C32 N31 1.244 . S
H33 C36 0.929 . S
H34 C39 0.929 . S
H35 C41 0.930 . S
C36 H33 0.929 . S
C36 C37 1.398 . S
C36 C38 1.396 . S
C37 C36 1.398 . S
C37 C41 1.407 . S
C38 C36 1.396 . S
C38 C39 1.394 . S
C39 H34 0.929 . S
C39 C38 1.394 . S
C39 C40 1.382 . S
C40 C39 1.382 . S
C40 C41 1.392 . S
C40 N42 1.420 . S
C41 H35 0.930 . S
C41 C37 1.407 . S
C41 C40 1.392 . S
N42 C40 1.420 . S
N42 C43 1.244 . S
C43 N42 1.244 . S
H44 C47 0.929 . S
H45 C50 0.929 . S
H46 C52 0.930 . S
C47 H44 0.929 . S
C47 C48 1.398 . S
C47 C49 1.396 . S
C48 C47 1.398 . S
C48 C52 1.407 . S
C49 C47 1.396 . S
C49 C50 1.394 . S
C50 H45 0.929 . S
C50 C49 1.394 . S
C50 C51 1.382 . S
C51 C50 1.382 . S
C51 C52 1.392 . S
C51 N53 1.420 . S
C52 H46 0.930 . S
C52 C48 1.407 . S
C52 C51 1.392 . S
N53 C51 1.420 . S
N53 C54 1.244 . S
C54 N53 1.244 . S
H55 C58 0.929 . S
H56 C61 0.929 . S
H57 C63 0.930 . S
C58 H55 0.929 . S
C58 C59 1.398 . S
C58 C60 1.396 . S
C59 C58 1.398 . S
C59 C63 1.407 . S
C60 C58 1.396 . S
C60 C61 1.394 . S
C61 H56 0.929 . S
C61 C60 1.394 . S
C61 C62 1.382 . S
C62 C61 1.382 . S
C62 C63 1.392 . S
C62 N64 1.420 . S
C63 H57 0.930 . S
C63 C59 1.407 . S
C63 C62 1.392 . S
N64 C62 1.420 . S
N64 C65 1.244 . S
C65 N64 1.244 . S
H66 C69 0.929 . S
H67 C72 0.929 . S
H68 C74 0.930 . S
C69 H66 0.929 . S
C69 C70 1.398 . S
C69 C71 1.396 . S
C70 C69 1.398 . S
C70 C74 1.407 . S
C71 C69 1.396 . S
C71 C72 1.394 . S
C72 H67 0.929 . S
C72 C71 1.394 . S
C72 C73 1.382 . S
C73 C72 1.382 . S
C73 C74 1.392 . S
C73 N75 1.420 . S
C74 H68 0.930 . S
C74 C70 1.407 . S
C74 C73 1.392 . S
N75 C73 1.420 . S
N75 C76 1.244 . S
C76 N75 1.244 . S
H77 C80 0.929 . S
H78 C83 0.929 . S
H79 C85 0.930 . S
C80 H77 0.929 . S
C80 C81 1.398 . S
C80 C82 1.396 . S
C81 C80 1.398 . S
C81 C85 1.407 . S
C82 C80 1.396 . S
C82 C83 1.394 . S
C83 H78 0.929 . S
C83 C82 1.394 . S
C83 C84 1.382 . S
C84 C83 1.382 . S
C84 C85 1.392 . S
C84 N86 1.420 . S
C85 H79 0.930 . S
C85 C81 1.407 . S
C85 C84 1.392 . S
N86 C84 1.420 . S
N86 C87 1.244 . S
C87 N86 1.244 . S
Dy88 O92 2.398 . S
Dy88 O93 2.491 . S
Dy88 O94 2.403 . S
Dy88 O95 2.664 . S
Dy88 O99 2.326 . S
Dy88 O103 2.310 1_455 S
Dy88 O104 2.351 1_445 S
C89 O100 1.185 . S
C89 O101 1.355 . S
C90 O92 1.185 . S
C90 O93 1.355 . S
Dy91 O95 2.310 1_655 S
Dy91 O98 2.351 1_655 S
Dy91 O100 2.398 1_545 S
Dy91 O101 2.491 1_545 S
Dy91 O102 2.403 . S
Dy91 O103 2.664 . S
Dy91 O105 2.326 1_545 S
O92 Dy88 2.398 . S
O92 C90 1.185 . S
O93 Dy88 2.491 . S
O93 C90 1.355 . S
O94 Dy88 2.403 . S
O94 C96 1.254 1_545 S
O95 Dy88 2.664 . S
O95 Dy91 2.310 1_455 S
O95 C96 1.268 1_545 S
C96 O94 1.254 1_565 S
C96 O95 1.268 1_565 S
C97 O102 1.254 . S
C97 O103 1.268 . S
O98 Dy91 2.351 1_455 S
O98 C106 1.249 . S
O99 Dy88 2.326 . S
O99 C106 1.267 . S
O100 C89 1.185 . S
O100 Dy91 2.398 1_565 S
O101 C89 1.355 . S
O101 Dy91 2.491 1_565 S
O102 Dy91 2.403 . S
O102 C97 1.254 . S
O103 Dy88 2.310 1_655 S
O103 Dy91 2.664 . S
O103 C97 1.268 . S
O104 Dy88 2.351 1_665 S
O104 C107 1.249 . S
O105 Dy91 2.326 1_565 S
O105 C107 1.267 . S
C106 O98 1.249 . S
C106 O99 1.267 . S
C107 O104 1.249 . S
C107 O105 1.267 . S
Dy108 O112 2.398 . S
Dy108 O113 2.491 . S
Dy108 O114 2.403 1_545 S
Dy108 O115 2.664 1_545 S
Dy108 O119 2.326 . S
Dy108 O123 2.310 . S
Dy108 O124 2.351 1_545 S
C109 O120 1.185 1_565 S
C109 O121 1.355 . S
C110 O112 1.185 . S
C110 O113 1.355 . S
Dy111 O115 2.310 1_545 S
Dy111 O118 2.351 . S
Dy111 O120 2.398 1_554 S
Dy111 O121 2.491 1_544 S
Dy111 O122 2.403 1_554 S
Dy111 O123 2.664 . S
Dy111 O125 2.334 1_554 S
O112 Dy108 2.398 . S
O112 C110 1.185 . S
O113 Dy108 2.491 . S
O113 C110 1.355 . S
O114 Dy108 2.403 1_565 S
O114 C116 1.254 . S
O115 Dy108 2.664 1_565 S
O115 Dy111 2.310 1_565 S
O115 C116 1.268 . S
C116 O114 1.254 . S
C116 O115 1.268 . S
C117 O122 1.254 1_554 S
C117 O123 1.268 . S
O118 Dy111 2.351 . S
O118 C126 1.249 . S
O119 Dy108 2.326 . S
O119 C126 1.267 . S
O120 C109 1.185 1_545 S
O120 Dy111 2.398 1_556 S
O121 C109 1.355 . S
O121 Dy111 2.491 1_566 S
O122 Dy111 2.403 1_556 S
O122 C117 1.254 1_556 S
O123 Dy108 2.310 . S
O123 Dy111 2.664 . S
O123 C117 1.268 . S
O124 Dy108 2.351 1_565 S
O124 C127 1.249 . S
O125 Dy111 2.334 1_556 S
O125 C127 1.257 1_546 S
C126 O118 1.249 . S
C126 O119 1.267 . S
C127 O124 1.249 . S
C127 O125 1.257 1_564 S
Dy128 O132 2.398 . S
Dy128 O133 2.491 . S
Dy128 O134 2.403 . S
Dy128 O135 2.664 . S
Dy128 O139 2.326 . S
Dy128 O143 2.310 . S
Dy128 O144 2.351 . S
C129 O140 1.185 . S
C129 O141 1.355 . S
C130 O132 1.185 . S
C130 O133 1.355 . S
Dy131 O135 2.310 . S
Dy131 O138 2.351 . S
Dy131 O140 2.398 . S
Dy131 O141 2.491 . S
Dy131 O142 2.403 . S
Dy131 O143 2.664 . S
Dy131 O145 2.326 . S
O132 Dy128 2.398 . S
O132 C130 1.185 . S
O133 Dy128 2.491 . S
O133 C130 1.355 . S
O134 Dy128 2.403 . S
O134 C136 1.254 . S
O135 Dy128 2.664 . S
O135 Dy131 2.310 . S
O135 C136 1.268 . S
C136 O134 1.254 . S
C136 O135 1.268 . S
C137 O142 1.254 . S
C137 O143 1.268 . S
O138 Dy131 2.351 . S
O138 C146 1.249 . S
O139 Dy128 2.326 . S
O139 C146 1.267 . S
O140 C129 1.185 . S
O140 Dy131 2.398 . S
O141 C129 1.355 . S
O141 Dy131 2.491 . S
O142 Dy131 2.403 . S
O142 C137 1.254 . S
O143 Dy128 2.310 . S
O143 Dy131 2.664 . S
O143 C137 1.268 . S
O144 Dy128 2.351 . S
O144 C147 1.249 . S
O145 Dy131 2.326 . S
O145 C147 1.267 . S
C146 O138 1.249 . S
C146 O139 1.267 . S
C147 O144 1.249 . S
C147 O145 1.267 . S
Dy148 O152 2.398 . S
Dy148 O153 2.491 . S
Dy148 O154 2.403 1_455 S
Dy148 O155 2.664 1_455 S
Dy148 O159 2.326 . S
Dy148 O163 2.310 1_554 S
Dy148 O164 2.351 1_455 S
C149 O160 1.185 . S
C149 O161 1.355 . S
C150 O152 1.185 . S
C150 O153 1.355 . S
Dy151 O155 2.310 1_456 S
Dy151 O158 2.351 1_556 S
Dy151 O160 2.398 1_455 S
Dy151 O161 2.491 1_455 S
Dy151 O162 2.403 . S
Dy151 O163 2.664 . S
Dy151 O165 2.326 1_455 S
O152 Dy148 2.398 . S
O152 C150 1.185 . S
O153 Dy148 2.491 . S
O153 C150 1.355 . S
O154 Dy148 2.403 1_655 S
O154 C156 1.254 . S
O155 Dy148 2.664 1_655 S
O155 Dy151 2.310 1_654 S
O155 C156 1.268 . S
C156 O154 1.254 . S
C156 O155 1.268 . S
C157 O162 1.254 . S
C157 O163 1.268 . S
O158 Dy151 2.351 1_554 S
O158 C166 1.249 . S
O159 Dy148 2.326 . S
O159 C166 1.267 . S
O160 C149 1.185 . S
O160 Dy151 2.398 1_655 S
O161 C149 1.355 . S
O161 Dy151 2.491 1_655 S
O162 Dy151 2.403 . S
O162 C157 1.254 . S
O163 Dy148 2.310 1_556 S
O163 Dy151 2.664 . S
O163 C157 1.268 . S
O164 Dy148 2.351 1_655 S
O164 C167 1.249 1_554 S
O165 Dy151 2.326 1_655 S
O165 C167 1.267 . S
C166 O158 1.249 . S
C166 O159 1.267 . S
C167 O164 1.249 1_556 S
C167 O165 1.267 . S
C168 C169 1.170 . S
C168 C170 1.380 . S
C169 C168 1.170 . S
C170 C168 1.380 . S
C170 C171 1.170 . S
C171 C170 1.170 . S
C172 C173 1.170 . S
C172 C174 1.380 . S
C173 C172 1.170 . S
C174 C172 1.380 . S
C174 C175 1.170 . S
C175 C174 1.170 . S
C176 C177 1.170 . S
C176 C178 1.380 . S
C177 C176 1.170 . S
C178 C176 1.380 . S
C178 C179 1.170 . S
C179 C178 1.170 . S
C180 C181 1.170 . S
C180 C182 1.380 . S
C181 C180 1.170 . S
C182 C180 1.380 . S
C182 C183 1.170 . S
C183 C182 1.170 . S
C184 C185 1.170 . S
C184 C186 1.380 . S
C185 C184 1.170 . S
C186 C184 1.380 . S
C186 C187 1.170 . S
C187 C186 1.170 . S
C188 C189 1.170 . S
C188 C190 1.380 . S
C189 C188 1.170 . S
C190 C188 1.380 . S
C190 C191 1.170 . S
C191 C190 1.170 . S
C192 C193 1.170 . S
C192 C194 1.380 . S
C193 C192 1.170 . S
C194 C192 1.380 . S
C194 C195 1.170 . S
C195 C194 1.170 . S
C196 C197 1.170 . S
C196 C198 1.380 . S
C197 C196 1.170 . S
C198 C196 1.380 . S
C198 C199 1.170 . S
C199 C198 1.170 . S
C200 C201 1.170 . S
C200 C202 1.380 . S
C201 C200 1.170 . S
C202 C200 1.380 . S
C202 C203 1.170 . S
C203 C202 1.170 . S
C204 C205 1.170 . S
C204 C206 1.380 . S
C205 C204 1.170 . S
C206 C204 1.380 . S
C206 C207 1.170 1_556 S
C207 C206 1.170 1_554 S
C208 C209 1.170 . S
C208 C210 1.380 . S
C209 C208 1.170 . S
C210 C208 1.380 . S
C210 C211 1.170 . S
C211 C210 1.170 . S
C212 C213 1.170 . S
C212 C214 1.380 . S
C213 C212 1.170 . S
C214 C212 1.380 . S
C214 C215 1.170 . S
C215 C214 1.170 . S
C216 C217 1.170 . S
C216 C218 1.380 . S
C217 C216 1.170 . S
C218 C216 1.380 . S
C218 C219 1.170 . S
C219 C218 1.170 . S
C220 C221 1.170 . S
C220 C222 1.380 . S
C221 C220 1.170 . S
C222 C220 1.380 . S
C222 C223 1.170 . S
C223 C222 1.170 . S
C224 C225 1.170 . S
C224 C226 1.380 . S
C225 C224 1.170 . S
C226 C224 1.380 . S
C226 C227 1.170 . S
C227 C226 1.170 . S
C228 C229 1.170 . S
C228 C230 1.380 . S
C229 C228 1.170 . S
C230 C228 1.380 . S
C230 C231 1.170 . S
C231 C230 1.170 . S
C232 C233 1.170 . S
C232 C234 1.380 . S
C233 C232 1.170 . S
C234 C232 1.380 . S
C234 C235 1.170 . S
C235 C234 1.170 . S
C236 C237 1.170 . S
C236 C238 1.380 . S
C237 C236 1.170 . S
C238 C236 1.380 . S
C238 C239 1.170 . S
C239 C238 1.170 . S
C240 C241 1.170 . S
C240 C242 1.380 . S
C241 C240 1.170 . S
C242 C240 1.380 . S
C242 C243 1.170 . S
C243 C242 1.170 . S
C244 C245 1.170 . S
C244 C246 1.380 . S
C245 C244 1.170 . S
C246 C244 1.380 . S
C246 C247 1.170 . S
C247 C246 1.170 . S
C248 C249 1.170 . S
C248 C250 1.380 . S
C249 C248 1.170 . S
C250 C248 1.380 . S
C250 C251 1.170 . S
C251 C250 1.170 . S
C252 C253 1.170 . S
C252 C254 1.380 . S
C253 C252 1.170 . S
C254 C252 1.380 . S
C254 C255 1.170 . S
C255 C254 1.170 . S
C256 C257 1.170 . S
C256 C258 1.380 . S
C257 C256 1.170 . S
C258 C256 1.380 . S
C258 C259 1.170 . S
C259 C258 1.170 . S
C260 C261 1.170 . S
C260 C262 1.380 . S
C261 C260 1.170 . S
C262 C260 1.380 . S
C262 C263 1.170 . S
C263 C262 1.170 . S
C169 C4 1.472 . S
C171 C90 1.471 . S
C173 C16 1.548 . S
C175 C109 1.494 . S
C179 C146 1.466 . S
C177 C32 1.467 . S
C181 C43 1.624 . S
C183 C156 1.576 . S
C187 C126 2.158 . S
C185 C5 2.091 . S
C191 C96 1.170 . S
C189 C21 1.229 . S
C195 C167 1.514 . S
C193 C27 1.538 . S
C199 C137 1.417 . S
C197 C37 1.426 . S
C201 C10 1.562 . S
C203 C150 1.574 . S
C207 C117 1.812 . S
C205 C26 1.877 . S
C209 C38 1.591 . S
C211 C107 1.591 . S
C213 C15 1.343 . S
C215 C129 1.343 . S
C219 C89 1.555 . S
C217 C48 1.552 . S
C221 C59 1.413 . S
C223 C110 1.414 . S
C225 C76 1.722 . S
C227 C147 1.693 . S
C229 C87 1.520 . S
C231 C157 1.495 . S
C233 C54 1.631 . S
C235 C127 1.685 1_556 S
C239 C97 1.726 . S
C237 C60 1.807 . S
C243 C166 1.440 . S
C241 C71 1.440 . S
C247 C136 1.347 . S
C245 C82 1.400 . S
C249 C49 1.730 . S
C251 C149 1.795 . S
C255 C116 1.455 . S
C253 C70 1.521 . S
C259 C106 1.864 . S
C257 C81 1.871 . S
C261 C65 1.305 . S
C263 C130 1.298 . S
