# Generated by pormake.
# Topology pyr, (3,6)-cn, num edge types: 1
# Building blocks:
#     Node 0, Type 0, BuildingBlock: KAKCAD_clean_linker_0, # of connection points: 3
#     Node 1, Type 0, BuildingBlock: KAKCAD_clean_linker_0, # of connection points: 3
#     Node 2, Type 0, BuildingBlock: KAKCAD_clean_linker_0, # of connection points: 3
#     Node 3, Type 0, BuildingBlock: KAKCAD_clean_linker_0, # of connection points: 3
#     Node 4, Type 0, BuildingBlock: KAKCAD_clean_linker_0, # of connection points: 3
#     Node 5, Type 0, BuildingBlock: KAKCAD_clean_linker_0, # of connection points: 3
#     Node 6, Type 0, BuildingBlock: KAKCAD_clean_linker_0, # of connection points: 3
#     Node 7, Type 0, BuildingBlock: KAKCAD_clean_linker_0, # of connection points: 3
#     Node 8, Type 1, BuildingBlock: LEVNOQ01_clean_sbu_1, # of connection points: 6
#     Node 9, Type 1, BuildingBlock: LEVNOQ01_clean_sbu_1, # of connection points: 6
#     Node 10, Type 1, BuildingBlock: LEVNOQ01_clean_sbu_1, # of connection points: 6
#     Node 11, Type 1, BuildingBlock: LEVNOQ01_clean_sbu_1, # of connection points: 6
#     Edge 12, Type (0, 1), BuildingBlock: AJUNOK_clean_linker_0, # of connection points: 2
#     Edge 13, Type (0, 1), BuildingBlock: AJUNOK_clean_linker_0, # of connection points: 2
#     Edge 14, Type (0, 1), BuildingBlock: AJUNOK_clean_linker_0, # of connection points: 2
#     Edge 15, Type (0, 1), BuildingBlock: AJUNOK_clean_linker_0, # of connection points: 2
#     Edge 16, Type (0, 1), BuildingBlock: AJUNOK_clean_linker_0, # of connection points: 2
#     Edge 17, Type (0, 1), BuildingBlock: AJUNOK_clean_linker_0, # of connection points: 2
#     Edge 18, Type (0, 1), BuildingBlock: AJUNOK_clean_linker_0, # of connection points: 2
#     Edge 19, Type (0, 1), BuildingBlock: AJUNOK_clean_linker_0, # of connection points: 2
#     Edge 20, Type (0, 1), BuildingBlock: AJUNOK_clean_linker_0, # of connection points: 2
#     Edge 21, Type (0, 1), BuildingBlock: AJUNOK_clean_linker_0, # of connection points: 2
#     Edge 22, Type (0, 1), BuildingBlock: AJUNOK_clean_linker_0, # of connection points: 2
#     Edge 23, Type (0, 1), BuildingBlock: AJUNOK_clean_linker_0, # of connection points: 2
#     Edge 24, Type (0, 1), BuildingBlock: AJUNOK_clean_linker_0, # of connection points: 2
#     Edge 25, Type (0, 1), BuildingBlock: AJUNOK_clean_linker_0, # of connection points: 2
#     Edge 26, Type (0, 1), BuildingBlock: AJUNOK_clean_linker_0, # of connection points: 2
#     Edge 27, Type (0, 1), BuildingBlock: AJUNOK_clean_linker_0, # of connection points: 2
#     Edge 28, Type (0, 1), BuildingBlock: AJUNOK_clean_linker_0, # of connection points: 2
#     Edge 29, Type (0, 1), BuildingBlock: AJUNOK_clean_linker_0, # of connection points: 2
#     Edge 30, Type (0, 1), BuildingBlock: AJUNOK_clean_linker_0, # of connection points: 2
#     Edge 31, Type (0, 1), BuildingBlock: AJUNOK_clean_linker_0, # of connection points: 2
#     Edge 32, Type (0, 1), BuildingBlock: AJUNOK_clean_linker_0, # of connection points: 2
#     Edge 33, Type (0, 1), BuildingBlock: AJUNOK_clean_linker_0, # of connection points: 2
#     Edge 34, Type (0, 1), BuildingBlock: AJUNOK_clean_linker_0, # of connection points: 2
#     Edge 35, Type (0, 1), BuildingBlock: AJUNOK_clean_linker_0, # of connection points: 2
# Relax obj value: 0.034
# Max RMSD: 0.110
# Mean RMSD: 0.045
data_MOF--net-pry--node1-LEVNOQ01_clean_sbu_1--node2-KAKCAD_clean_linker_0--edge1-AJUNOK_clean_linker_0
_symmetry_space_group_name_H-M    P1
_symmetry_Int_Tables_number       1
_symmetry_cell_setting            triclinic
loop_
_symmetry_equiv_pos_as_xyz
'x, y, z'
_cell_length_a     36.108654
_cell_length_b     34.974884
_cell_length_c     34.570665
_cell_angle_alpha  92.825226
_cell_angle_beta   90.717983
_cell_angle_gamma 92.979849
loop_
_atom_site_label
_atom_site_type_symbol
_atom_site_fract_x
_atom_site_fract_y
_atom_site_fract_z
_atom_type_partial_charge
C0 C 0.07539 0.12573 0.26782 0.0
C1 C 0.09628 0.10883 0.29638 0.0
C2 C 0.09224 0.13981 0.23486 0.0
C3 C 0.13075 0.13824 0.22971 0.0
C4 C 0.15192 0.12271 0.25911 0.0
C5 C 0.13487 0.10783 0.29178 0.0
C6 C 0.14826 0.15144 0.19323 0.0
C7 C 0.13379 0.18177 0.17339 0.0
C8 C 0.14827 0.19275 0.13768 0.0
C9 C 0.17895 0.174 0.12278 0.0
C10 C 0.19492 0.14473 0.14272 0.0
C11 C 0.17888 0.13314 0.17742 0.0
C12 C 0.2294 0.12759 0.12816 0.0
C13 C 0.23491 0.12058 0.08822 0.0
C14 C 0.25817 0.12034 0.15417 0.0
C15 C 0.29206 0.10808 0.14057 0.0
C16 C 0.29819 0.1031 0.10062 0.0
C17 C 0.13124 0.2236 0.11594 0.0
C18 C 0.09276 0.2282 0.11702 0.0
C19 C 0.1531 0.24861 0.09374 0.0
C20 C 0.13693 0.2771 0.07313 0.0
C21 C 0.09852 0.28181 0.07454 0.0
C22 C 0.07676 0.25717 0.09711 0.0
C23 C 0.26895 0.10843 0.0746 0.0
H24 H 0.04564 0.1273 0.27047 0.0
H25 H 0.07464 0.15084 0.2129 0.0
H26 H 0.1817 0.12155 0.25681 0.0
H27 H 0.15184 0.0944 0.3127 0.0
H28 H 0.11146 0.19734 0.1861 0.0
H29 H 0.18998 0.10925 0.19167 0.0
H30 H 0.19075 0.18243 0.09567 0.0
H31 H 0.21313 0.12511 0.06738 0.0
H32 H 0.25508 0.12556 0.18507 0.0
H33 H 0.31387 0.10339 0.16134 0.0
H34 H 0.07476 0.20935 0.13323 0.0
H35 H 0.18289 0.24671 0.09264 0.0
H36 H 0.27286 0.10457 0.04367 0.0
H37 H 0.04731 0.26066 0.10016 0.0
H38 H 0.15462 0.29562 0.05623 0.0
C39 C 0.38602 0.92314 0.76118 0.0
C40 C 0.41517 0.95158 0.76379 0.0
C41 C 0.37469 0.90585 0.72542 0.0
C42 C 0.39258 0.91606 0.69145 0.0
C43 C 0.4218 0.94419 0.69363 0.0
C44 C 0.43279 0.96209 0.72947 0.0
C45 C 0.37982 0.89775 0.65385 0.0
C46 C 0.34541 0.90649 0.63823 0.0
C47 C 0.33165 0.88766 0.60379 0.0
C48 C 0.3522 0.85919 0.58555 0.0
C49 C 0.38621 0.84929 0.60146 0.0
C50 C 0.40033 0.86937 0.63522 0.0
C51 C 0.40493 0.8156 0.58482 0.0
C52 C 0.38455 0.78059 0.57789 0.0
C53 C 0.44308 0.81751 0.57718 0.0
C54 C 0.46048 0.7849 0.56292 0.0
C55 C 0.44016 0.74962 0.55654 0.0
C56 C 0.29531 0.897 0.58744 0.0
C57 C 0.26365 0.89632 0.61062 0.0
C58 C 0.2922 0.90734 0.54881 0.0
C59 C 0.25826 0.91823 0.53407 0.0
C60 C 0.22674 0.91797 0.55744 0.0
C61 C 0.22959 0.90644 0.59565 0.0
C62 C 0.40198 0.74796 0.56436 0.0
H63 H 0.37215 0.91383 0.78695 0.0
H64 H 0.35209 0.88416 0.72429 0.0
H65 H 0.43568 0.9527 0.66758 0.0
H66 H 0.45474 0.98441 0.73018 0.0
H67 H 0.3294 0.92811 0.65286 0.0
H68 H 0.42619 0.86152 0.64816 0.0
H69 H 0.34117 0.84393 0.5595 0.0
H70 H 0.35525 0.7781 0.5843 0.0
H71 H 0.4594 0.8442 0.58228 0.0
H72 H 0.48994 0.78715 0.55737 0.0
H73 H 0.26535 0.88821 0.64041 0.0
H74 H 0.3163 0.90817 0.53045 0.0
H75 H 0.38567 0.72109 0.56151 0.0
H76 H 0.20576 0.90666 0.61438 0.0
H77 H 0.25672 0.92745 0.50466 0.0
C78 C 0.79089 0.4067 0.85632 0.0
C79 C 0.81363 0.38859 0.88228 0.0
C80 C 0.76391 0.38564 0.83388 0.0
C81 C 0.75976 0.34545 0.83532 0.0
C82 C 0.78273 0.3272 0.8611 0.0
C83 C 0.80906 0.34853 0.88452 0.0
C84 C 0.73105 0.32328 0.81046 0.0
C85 C 0.72041 0.33694 0.77466 0.0
C86 C 0.68886 0.32125 0.75426 0.0
C87 C 0.67049 0.28805 0.76754 0.0
C88 C 0.68232 0.27195 0.80179 0.0
C89 C 0.71206 0.29031 0.82345 0.0
C90 C 0.6619 0.23797 0.81716 0.0
C91 C 0.62285 0.23505 0.81709 0.0
C92 C 0.68148 0.20973 0.83499 0.0
C93 C 0.66263 0.18103 0.85481 0.0
C94 C 0.62379 0.1797 0.85695 0.0
C95 C 0.6723 0.34303 0.72292 0.0
C96 C 0.67277 0.38331 0.72707 0.0
C97 C 0.65296 0.32447 0.69103 0.0
C98 C 0.63292 0.34566 0.66527 0.0
C99 C 0.63217 0.3856 0.67105 0.0
C100 C 0.6531 0.40425 0.70138 0.0
C101 C 0.60396 0.2061 0.8368 0.0
H102 H 0.79429 0.43721 0.85258 0.0
H103 H 0.74627 0.40125 0.81544 0.0
H104 H 0.78084 0.29636 0.86296 0.0
H105 H 0.82603 0.33353 0.90422 0.0
H106 H 0.7358 0.36115 0.76322 0.0
H107 H 0.71908 0.27989 0.85145 0.0
H108 H 0.64617 0.27554 0.7521 0.0
H109 H 0.60689 0.25648 0.80395 0.0
H110 H 0.71151 0.21074 0.83496 0.0
H111 H 0.6785 0.16101 0.87025 0.0
H112 H 0.68645 0.39879 0.75159 0.0
H113 H 0.65226 0.29356 0.68674 0.0
H114 H 0.57402 0.20605 0.83864 0.0
H115 H 0.65239 0.43502 0.70661 0.0
H116 H 0.61647 0.33078 0.64223 0.0
C117 C 0.86416 0.59337 0.23748 0.0
C118 C 0.90106 0.58957 0.22658 0.0
C119 C 0.85588 0.60581 0.27531 0.0
C120 C 0.88435 0.61359 0.30337 0.0
C121 C 0.9214 0.61065 0.29182 0.0
C122 C 0.92963 0.59903 0.25377 0.0
C123 C 0.87543 0.62309 0.34473 0.0
C124 C 0.84324 0.60687 0.3612 0.0
C125 C 0.83441 0.61574 0.39988 0.0
C126 C 0.85852 0.6402 0.42291 0.0
C127 C 0.89066 0.65722 0.40709 0.0
C128 C 0.89883 0.64848 0.36799 0.0
C129 C 0.91361 0.68716 0.42987 0.0
C130 C 0.8964 0.71544 0.45251 0.0
C131 C 0.95238 0.6902 0.42596 0.0
C132 C 0.97297 0.72244 0.44154 0.0
C133 C 0.95522 0.75217 0.46145 0.0
C134 C 0.79853 0.60147 0.41515 0.0
C135 C 0.76551 0.60899 0.39575 0.0
C136 C 0.79689 0.58023 0.44859 0.0
C137 C 0.76266 0.56574 0.46172 0.0
C138 C 0.72977 0.57317 0.44205 0.0
C139 C 0.73139 0.59522 0.40928 0.0
C140 C 0.91697 0.74756 0.46811 0.0
H141 H 0.84173 0.586 0.21691 0.0
H142 H 0.82707 0.60871 0.28262 0.0
H143 H 0.94411 0.61577 0.31247 0.0
H144 H 0.95831 0.59556 0.24605 0.0
H145 H 0.82486 0.58698 0.34414 0.0
H146 H 0.92263 0.66282 0.35519 0.0
H147 H 0.85148 0.64702 0.45276 0.0
H148 H 0.86659 0.71433 0.45579 0.0
H149 H 0.96656 0.66853 0.4093 0.0
H150 H 0.00242 0.72527 0.43595 0.0
H151 H 0.76615 0.62557 0.37008 0.0
H152 H 0.82208 0.57411 0.46392 0.0
H153 H 0.90226 0.77032 0.48246 0.0
H154 H 0.70626 0.60097 0.39361 0.0
H155 H 0.76182 0.54858 0.48697 0.0
C156 C 0.89916 0.86224 0.72659 0.0
C157 C 0.90484 0.90211 0.72457 0.0
C158 C 0.88361 0.84663 0.75969 0.0
C159 C 0.873 0.87069 0.79101 0.0
C160 C 0.87809 0.91059 0.78846 0.0
C161 C 0.89408 0.92609 0.75574 0.0
C162 C 0.8565 0.85458 0.82632 0.0
C163 C 0.87319 0.8249 0.84502 0.0
C164 C 0.85799 0.81019 0.87903 0.0
C165 C 0.82544 0.82558 0.89374 0.0
C166 C 0.80856 0.85543 0.87556 0.0
C167 C 0.82435 0.86971 0.84191 0.0
C168 C 0.77414 0.8714 0.89135 0.0
C169 C 0.74539 0.84692 0.90453 0.0
C170 C 0.76943 0.91114 0.89266 0.0
C171 C 0.73653 0.92597 0.90633 0.0
C172 C 0.70768 0.90139 0.91904 0.0
C173 C 0.8761 0.77908 0.89933 0.0
C174 C 0.89398 0.75018 0.87814 0.0
C175 C 0.87579 0.77795 0.94011 0.0
C176 C 0.89284 0.74883 0.95901 0.0
C177 C 0.9111 0.72061 0.93763 0.0
C178 C 0.91153 0.72154 0.8971 0.0
C179 C 0.71254 0.86175 0.91816 0.0
H180 H 0.90766 0.84321 0.70305 0.0
H181 H 0.87976 0.81578 0.76079 0.0
H182 H 0.87043 0.92984 0.8122 0.0
H183 H 0.89844 0.95693 0.75491 0.0
H184 H 0.8987 0.81421 0.83365 0.0
H185 H 0.81107 0.89212 0.82721 0.0
H186 H 0.81308 0.81436 0.9195 0.0
H187 H 0.74791 0.81617 0.9035 0.0
H188 H 0.79118 0.9308 0.88305 0.0
H189 H 0.73333 0.95658 0.90609 0.0
H190 H 0.89427 0.74942 0.84681 0.0
H191 H 0.86301 0.79998 0.95763 0.0
H192 H 0.69075 0.84214 0.92781 0.0
H193 H 0.92538 0.6999 0.88003 0.0
H194 H 0.89256 0.74886 0.99035 0.0
C195 C 0.60285 0.04019 0.27872 0.0
C196 C 0.58454 0.06149 0.25179 0.0
C197 C 0.6135 0.05689 0.31511 0.0
C198 C 0.60689 0.09557 0.32489 0.0
C199 C 0.58832 0.1166 0.29756 0.0
C200 C 0.57702 0.09963 0.26163 0.0
C201 C 0.62029 0.11438 0.36271 0.0
C202 C 0.65369 0.10436 0.37984 0.0
C203 C 0.66702 0.12225 0.41509 0.0
C204 C 0.64724 0.15221 0.43225 0.0
C205 C 0.61437 0.16366 0.41495 0.0
C206 C 0.60057 0.14357 0.38106 0.0
C207 C 0.59521 0.19781 0.43059 0.0
C208 C 0.59187 0.20595 0.47071 0.0
C209 C 0.58035 0.22307 0.40479 0.0
C210 C 0.56192 0.2549 0.41849 0.0
C211 C 0.5579 0.26265 0.4584 0.0
C212 C 0.70194 0.10967 0.43314 0.0
C213 C 0.71046 0.07087 0.42997 0.0
C214 C 0.72745 0.13598 0.45268 0.0
C215 C 0.7609 0.12384 0.46771 0.0
C216 C 0.76995 0.08525 0.46295 0.0
C217 C 0.74404 0.05896 0.44421 0.0
C218 C 0.57353 0.23825 0.48449 0.0
H219 H 0.60903 0.01073 0.27153 0.0
H220 H 0.62707 0.03944 0.33546 0.0
H221 H 0.58341 0.14659 0.30331 0.0
H222 H 0.56345 0.11673 0.24091 0.0
H223 H 0.67005 0.08326 0.36504 0.0
H224 H 0.57426 0.15094 0.36886 0.0
H225 H 0.65764 0.16698 0.45875 0.0
H226 H 0.60293 0.18713 0.49141 0.0
H227 H 0.58337 0.21857 0.37379 0.0
H228 H 0.55116 0.2739 0.39773 0.0
H229 H 0.69126 0.04946 0.41611 0.0
H230 H 0.72208 0.16614 0.45564 0.0
H231 H 0.5711 0.24388 0.51542 0.0
H232 H 0.74999 0.02905 0.43968 0.0
H233 H 0.77969 0.14477 0.48284 0.0
C234 C 0.19688 0.6215 0.17738 0.0
C235 C 0.19743 0.61641 0.13685 0.0
C236 C 0.22449 0.6444 0.19721 0.0
C237 C 0.25339 0.6626 0.17695 0.0
C238 C 0.25349 0.65792 0.13623 0.0
C239 C 0.22565 0.63525 0.11639 0.0
C240 C 0.28408 0.6851 0.19822 0.0
C241 C 0.29897 0.67187 0.23254 0.0
C242 C 0.32992 0.69107 0.25122 0.0
C243 C 0.34589 0.72416 0.23527 0.0
C244 C 0.33164 0.7376 0.20078 0.0
C245 C 0.30031 0.71835 0.18294 0.0
C246 C 0.35189 0.76887 0.18093 0.0
C247 C 0.36638 0.80222 0.20148 0.0
C248 C 0.35854 0.76429 0.14107 0.0
C249 C 0.37978 0.79187 0.12231 0.0
C250 C 0.39496 0.82469 0.14289 0.0
C251 C 0.34778 0.67387 0.28474 0.0
C252 C 0.32622 0.65721 0.31372 0.0
C253 C 0.38646 0.67098 0.2861 0.0
C254 C 0.40295 0.65016 0.31449 0.0
C255 C 0.38117 0.63167 0.34208 0.0
C256 C 0.34277 0.63637 0.34217 0.0
C257 C 0.38756 0.83014 0.18247 0.0
H258 H 0.17494 0.60783 0.19373 0.0
H259 H 0.22316 0.64788 0.22846 0.0
H260 H 0.27561 0.67094 0.11966 0.0
H261 H 0.22665 0.63169 0.08512 0.0
H262 H 0.28784 0.64523 0.24354 0.0
H263 H 0.28895 0.729 0.15662 0.0
H264 H 0.37042 0.73848 0.24879 0.0
H265 H 0.36152 0.80655 0.23219 0.0
H266 H 0.34827 0.73875 0.1245 0.0
H267 H 0.38483 0.7873 0.09163 0.0
H268 H 0.29641 0.65944 0.31377 0.0
H269 H 0.40385 0.68302 0.26398 0.0
H270 H 0.39892 0.85539 0.19877 0.0
H271 H 0.32542 0.62297 0.36354 0.0
H272 H 0.43258 0.64675 0.31351 0.0
C273 C 0.0802 0.25951 0.54266 0.0
C274 C 0.04226 0.25473 0.55088 0.0
C275 C 0.10094 0.29215 0.55678 0.0
C276 C 0.08416 0.32064 0.57949 0.0
C277 C 0.04561 0.31739 0.58487 0.0
C278 C 0.02485 0.28473 0.57071 0.0
C279 C 0.10734 0.35141 0.60064 0.0
C280 C 0.13765 0.36964 0.58268 0.0
C281 C 0.16063 0.39716 0.60342 0.0
C282 C 0.15312 0.40659 0.64237 0.0
C283 C 0.1237 0.38788 0.66136 0.0
C284 C 0.10081 0.36044 0.64004 0.0
C285 C 0.1174 0.39661 0.70344 0.0
C286 C 0.14749 0.40616 0.72913 0.0
C287 C 0.08121 0.39658 0.71818 0.0
C288 C 0.07529 0.40703 0.75707 0.0
C289 C 0.10531 0.41822 0.78195 0.0
C290 C 0.19429 0.41429 0.58577 0.0
C291 C 0.22087 0.39064 0.56944 0.0
C292 C 0.20198 0.45407 0.58913 0.0
C293 C 0.23657 0.46969 0.57875 0.0
C294 C 0.26432 0.44573 0.56554 0.0
C295 C 0.25571 0.40625 0.55949 0.0
C296 C 0.14146 0.41739 0.76783 0.0
H297 H 0.09464 0.23657 0.52828 0.0
H298 H 0.13061 0.29362 0.55233 0.0
H299 H 0.0318 0.33928 0.60164 0.0
H300 H 0.99565 0.28177 0.57745 0.0
H301 H 0.14342 0.36248 0.55256 0.0
H302 H 0.07877 0.34481 0.65448 0.0
H303 H 0.17091 0.42809 0.65808 0.0
H304 H 0.17581 0.40553 0.71931 0.0
H305 H 0.05728 0.38996 0.6994 0.0
H306 H 0.04709 0.40826 0.76727 0.0
H307 H 0.21559 0.35984 0.56671 0.0
H308 H 0.18171 0.4729 0.60118 0.0
H309 H 0.16497 0.42618 0.78656 0.0
H310 H 0.27662 0.38718 0.54934 0.0
H311 H 0.24224 0.50035 0.58279 0.0
O312 O 0.01132 0.00075 0.61331 0.0
Mg313 Mg 0.03924 0.03551 0.57447 0.0
O314 O 0.97508 0.97629 0.56594 0.0
Mg315 Mg -0.0001 0.00342 0.50949 0.0
O316 O 0.00993 0.06653 0.53692 0.0
O317 O 0.03759 0.0906 0.59226 0.0
O318 O 0.02515 0.03052 0.45328 0.0
O319 O 0.93993 0.0273 0.50029 0.0
Mg320 Mg 0.96081 0.97236 0.44445 0.0
O321 O 0.98946 0.9402 0.48187 0.0
O322 O 0.98948 0.00633 0.40539 0.0
O323 O 0.90783 0.98671 0.46075 0.0
O324 O 0.96176 0.91741 0.42605 0.0
C325 C 0.09077 0.99228 0.53475 0.0
C326 C 0.98421 0.97867 0.60185 0.0
C327 C 0.01942 0.09557 0.56071 0.0
C328 C 0.01666 0.02812 0.41722 0.0
C329 C 0.90919 0.01566 0.48396 0.0
C330 C 0.97978 0.91166 0.45748 0.0
O331 O 0.09197 0.02181 0.55721 0.0
O332 O 0.05998 0.97988 0.51897 0.0
O333 O 0.47384 0.08665 0.05898 0.0
Mg334 Mg 0.527 0.07633 0.03651 0.0
O335 O 0.4496 0.03937 0.02148 0.0
Mg336 Mg 0.50491 0.01076 0.00601 0.0
O337 O 0.53465 0.06627 0.97854 0.0
O338 O 0.54644 0.12308 0.01101 0.0
O339 O 0.5599 0.9821 0.9912 0.0
O340 O 0.48405 0.00544 0.93914 0.0
Mg341 Mg 0.48293 0.94669 0.97596 0.0
O342 O 0.47709 0.95504 0.03443 0.0
O343 O 0.53538 0.9376 0.95068 0.0
O344 O 0.43881 0.96203 0.94123 0.0
O345 O 0.46847 0.89808 1.00138 0.0
C346 C 0.55285 0.03333 0.09001 0.0
C347 C 0.44544 0.0676 0.04549 0.0
C348 C 0.54758 0.10188 0.97954 0.0
C349 C 0.56391 0.95514 0.96577 0.0
C350 C 0.45532 0.98809 0.92329 0.0
C351 C 0.46794 0.91845 0.0334 0.0
O352 O 0.56908 0.06065 0.07374 0.0
O353 O 0.52522 0.01557 0.07258 0.0
O354 O 0.50928 0.59168 0.57755 0.0
Mg355 Mg 0.49095 0.53632 0.59017 0.0
O356 O 0.49094 0.57242 0.51868 0.0
Mg357 Mg 0.49969 0.50528 0.51 0.0
O358 O 0.52296 0.49335 0.57125 0.0
O359 O 0.51899 0.51335 0.63353 0.0
O360 O 0.5079 0.4383 0.50084 0.0
O361 O 0.56051 0.52021 0.4929 0.0
Mg362 Mg 0.51109 0.4753 0.42486 0.0
O363 O 0.47751 0.51501 0.44852 0.0
O364 O 0.49543 0.41978 0.43989 0.0
O365 O 0.56772 0.494 0.43375 0.0
O366 O 0.47853 0.49989 0.38502 0.0
C367 C 0.41911 0.50039 0.55652 0.0
C368 C 0.4989 0.59958 0.54406 0.0
C369 C 0.53272 0.49084 0.60734 0.0
C370 C 0.50204 0.41167 0.47442 0.0
C371 C 0.5808 0.51241 0.46389 0.0
C372 C 0.46554 0.51983 0.41364 0.0
O373 O 0.43389 0.52034 0.58478 0.0
O374 O 0.43839 0.49073 0.52721 0.0
O375 O 0.99428 0.41545 0.04236 0.0
Mg376 Mg 0.00694 0.47193 0.06623 0.0
O377 O 0.03966 0.44482 0.0142 0.0
Mg378 Mg 0.00717 0.50267 0.00735 0.0
O379 O 0.97089 0.51411 0.0649 0.0
O380 O 0.97774 0.47659 0.11521 0.0
O381 O 0.97525 0.56194 1.00085 0.0
O382 O 0.95776 0.46652 0.98097 0.0
Mg383 Mg 0.0039 0.53049 0.94877 0.0
O384 O 0.04266 0.4907 0.94894 0.0
O385 O 0.01904 0.58753 0.96745 0.0
O386 O 0.94677 0.50986 0.93929 0.0
O387 O 0.02853 0.5243 0.89742 0.0
C388 C 0.07538 0.52419 0.06292 0.0
C389 C 0.02432 0.41349 0.02462 0.0
C390 C 0.96252 0.5048 0.09987 0.0
C391 C 0.9903 0.59191 0.98687 0.0
C392 C 0.93699 0.4791 0.95517 0.0
C393 C 0.04734 0.4986 0.91282 0.0
O394 O 0.06296 0.49407 0.07855 0.0
O395 O 0.05715 0.53717 0.0351 0.0
C396 C 0.04429 0.06684 0.32043 0.0
C397 C 0.07701 0.08948 0.32871 0.0
C398 C 0.02525 0.04776 0.34933 0.0
C399 C 0.03803 0.04998 0.38812 0.0
H400 H 0.0334 0.06323 0.29107 0.0
H401 H 0.00024 0.03084 0.34083 0.0
S402 S 0.12267 0.1052 0.42552 0.0
N403 N 0.12135 0.11349 0.3789 0.0
N404 N 0.08609 0.07637 0.43322 0.0
C405 C 0.0709 0.07232 0.39701 0.0
C406 C 0.09028 0.0922 0.36737 0.0
C407 C 0.39989 0.97788 0.83023 0.0
C408 C 0.42697 0.96917 0.80259 0.0
C409 C 0.4096 0.98752 0.869 0.0
C410 C 0.44682 0.98984 0.88154 0.0
H411 H 0.37072 0.97543 0.82229 0.0
H412 H 0.38767 0.99119 0.88976 0.0
S413 S 0.52879 0.97331 0.82072 0.0
N414 N 0.49306 0.96582 0.7905 0.0
N415 N 0.51116 0.98546 0.86314 0.0
C416 C 0.47442 0.98432 0.85383 0.0
C417 C 0.46455 0.97369 0.81438 0.0
C418 C 0.57556 0.42184 0.67283 0.0
C419 C 0.60472 0.4076 0.65098 0.0
C420 C 0.55195 0.44778 0.65769 0.0
C421 C 0.55645 0.46052 0.61999 0.0
H422 H 0.57176 0.41379 0.70246 0.0
H423 H 0.53035 0.4585 0.67613 0.0
S424 S 0.62788 0.43035 0.55032 0.0
N425 N 0.63642 0.40665 0.58942 0.0
N426 N 0.59144 0.45561 0.56039 0.0
C427 C 0.58454 0.44518 0.59704 0.0
C428 C 0.60889 0.41867 0.61272 0.0
C429 C 0.9006 0.53154 0.1823 0.0
C430 C 0.90989 0.57083 0.18884 0.0
C431 C 0.91535 0.51072 0.15103 0.0
C432 C 0.93919 0.52868 0.12479 0.0
H433 H 0.88396 0.51628 0.20303 0.0
H434 H 0.90976 0.47994 0.14861 0.0
S435 S 0.96815 0.63196 0.12662 0.0
N436 N 0.94176 0.62764 0.16505 0.0
N437 N 0.9686 0.58865 0.1053 0.0
C438 C 0.94617 0.56856 0.12918 0.0
C439 C 0.93182 0.58962 0.16159 0.0
C440 C 0.34047 0.06442 0.0586 0.0
C441 C 0.33568 0.09462 0.08622 0.0
C442 C 0.37593 0.05599 0.04528 0.0
C443 C 0.40791 0.07768 0.05883 0.0
H444 H 0.31669 0.04681 0.04767 0.0
H445 H 0.37824 0.03212 0.02443 0.0
S446 S 0.40962 0.1617 0.12933 0.0
N447 N 0.36541 0.14752 0.12509 0.0
N448 N 0.4318 0.13187 0.10059 0.0
C449 C 0.4032 0.10849 0.08596 0.0
C450 C 0.36721 0.1169 0.0995 0.0
C451 C 0.19231 0.9727 0.53501 0.0
C452 C 0.192 0.93392 0.54385 0.0
C453 C 0.15914 0.99082 0.52926 0.0
C454 C 0.12459 0.97057 0.53128 0.0
H455 H 0.21824 0.98976 0.53498 0.0
H456 H 0.16047 0.02135 0.52498 0.0
S457 S 0.10908 0.86745 0.54927 0.0
N458 N 0.15464 0.87506 0.5515 0.0
N459 N 0.09214 0.90897 0.53956 0.0
C460 C 0.124 0.93112 0.53727 0.0
C461 C 0.15779 0.91283 0.54396 0.0
C462 C 0.87886 0.39611 0.90869 0.0
C463 C 0.84357 0.41111 0.90491 0.0
C464 C 0.90856 0.41791 0.92652 0.0
C465 C 0.90433 0.45579 0.94043 0.0
H466 H 0.88408 0.3678 0.89656 0.0
H467 H 0.93545 0.40559 0.92795 0.0
S468 S 0.81737 0.50722 0.9428 0.0
N469 N 0.80548 0.46503 0.92137 0.0
N470 N 0.86225 0.50664 0.95243 0.0
C471 C 0.86928 0.47089 0.93814 0.0
C472 C 0.83866 0.44839 0.921 0.0
C473 C 0.666 0.57998 0.46767 0.0
C474 C 0.69364 0.55622 0.45374 0.0
C475 C 0.62976 0.56506 0.47336 0.0
C476 C 0.61999 0.52622 0.46419 0.0
H477 H 0.67222 0.61043 0.47302 0.0
H478 H 0.60884 0.5844 0.4829 0.0
S479 S 0.68287 0.45192 0.42938 0.0
N480 N 0.70955 0.49179 0.43341 0.0
N481 N 0.64114 0.46392 0.44291 0.0
C482 C 0.6477 0.50201 0.4516 0.0
C483 C 0.68468 0.517 0.44666 0.0
C484 C 0.09949 0.35079 0.0569 0.0
C485 C 0.08157 0.31393 0.05489 0.0
C486 C 0.08195 0.38264 0.04359 0.0
C487 C 0.04562 0.37892 0.02828 0.0
H488 H 0.12645 0.35561 0.07088 0.0
H489 H 0.0959 0.41074 0.04798 0.0
S490 S 0.98895 0.28837 0.01007 0.0
N491 N 0.02748 0.27509 0.03059 0.0
N492 N 0.9939 0.3354 0.00766 0.0
C493 C 0.0283 0.34212 0.02373 0.0
C494 C 0.0464 0.30953 0.03653 0.0
C495 C 0.61619 0.16288 0.92511 0.0
C496 C 0.60507 0.1563 0.88622 0.0
C497 C 0.59758 0.14442 0.95458 0.0
C498 C 0.56731 0.11817 0.94646 0.0
H499 H 0.63884 0.18345 0.93299 0.0
H500 H 0.60692 0.15109 0.98417 0.0
S501 S 0.52851 0.08913 0.84904 0.0
N502 N 0.56263 0.12091 0.84065 0.0
N503 N 0.52796 0.0851 0.8965 0.0
C504 C 0.55659 0.11013 0.90757 0.0
C505 C 0.57528 0.12963 0.87734 0.0
C506 C 0.99009 0.80758 0.43471 0.0
C507 C 0.97385 0.79094 0.46704 0.0
C508 C 0.99631 0.84727 0.43376 0.0
C509 C 0.98695 0.87169 0.46522 0.0
H510 H 0.99443 0.79039 0.40838 0.0
H511 H 0.00539 0.85915 0.40688 0.0
S512 S 0.9528 0.84177 0.5602 0.0
N513 N 0.95521 0.80121 0.53395 0.0
N514 N 0.96722 0.87627 0.5321 0.0
C515 C 0.97542 0.85524 0.49955 0.0
C516 C 0.96868 0.81466 0.50043 0.0
C517 C 0.4921 0.70584 0.56518 0.0
C518 C 0.4591 0.71376 0.54576 0.0
C519 C 0.5067 0.66952 0.56157 0.0
C520 C 0.48899 0.63957 0.53838 0.0
H521 H 0.50547 0.72697 0.58544 0.0
H522 H 0.53088 0.66419 0.57898 0.0
S523 S 0.40448 0.64685 0.4776 0.0
N524 N 0.41168 0.69001 0.49869 0.0
N525 N 0.43835 0.62128 0.49312 0.0
C526 C 0.45759 0.64789 0.51648 0.0
C527 C 0.44279 0.68504 0.51998 0.0
C528 C 0.9581 0.94072 0.69941 0.0
C529 C 0.92484 0.91905 0.69177 0.0
C530 C 0.9771 0.95892 0.66991 0.0
C531 C 0.96353 0.95669 0.63134 0.0
H532 H 0.96949 0.94379 0.72862 0.0
H533 H 0.00258 0.97533 0.67777 0.0
S534 S 0.87682 0.90356 0.59647 0.0
N535 N 0.87882 0.89582 0.64321 0.0
N536 N 0.91417 0.93082 0.58742 0.0
C537 C 0.93028 0.93469 0.6232 0.0
C538 C 0.91106 0.91568 0.65347 0.0
C539 C 0.60458 0.04111 0.18563 0.0
C540 C 0.57577 0.04549 0.21216 0.0
C541 C 0.59688 0.03388 0.146 0.0
C542 C 0.56012 0.02993 0.13177 0.0
H543 H 0.63321 0.04584 0.19523 0.0
H544 H 0.6198 0.03343 0.12608 0.0
S545 S 0.47498 0.03566 0.19013 0.0
N546 N 0.5093 0.04321 0.22211 0.0
N547 N 0.4947 0.02841 0.14772 0.0
C548 C 0.53112 0.03151 0.15844 0.0
C549 C 0.53898 0.03972 0.19867 0.0
C550 C 0.43196 0.61505 0.38747 0.0
C551 C 0.39837 0.60446 0.36766 0.0
C552 C 0.45212 0.58782 0.40605 0.0
C553 C 0.43948 0.54916 0.40505 0.0
H554 H 0.44343 0.64428 0.3873 0.0
H555 H 0.47889 0.5966 0.41903 0.0
S556 S 0.35312 0.50664 0.35838 0.0
N557 N 0.35291 0.55262 0.34961 0.0
N558 N 0.39121 0.50163 0.38418 0.0
C559 C 0.40534 0.53847 0.38692 0.0
C560 C 0.3846 0.56612 0.36837 0.0
C561 C 0.10609 0.47559 0.82708 0.0
C562 C 0.09828 0.43602 0.82063 0.0
C563 C 0.09233 0.49537 0.85954 0.0
C564 C 0.07103 0.47611 0.88705 0.0
H565 H 0.12052 0.49181 0.80543 0.0
H566 H 0.09637 0.52633 0.86187 0.0
S567 S 0.04719 0.37177 0.88596 0.0
N568 N 0.07091 0.37762 0.84589 0.0
N569 N 0.0459 0.4148 0.90778 0.0
C570 C 0.06582 0.43606 0.8827 0.0
C571 C 0.07915 0.41599 0.84912 0.0
C572 C 0.63854 0.89944 0.91542 0.0
C573 C 0.67174 0.91652 0.93131 0.0
C574 C 0.60409 0.91251 0.9265 0.0
C575 C 0.60127 0.94318 0.95413 0.0
H576 H 0.63916 0.87583 0.89397 0.0
H577 H 0.57945 0.89815 0.91328 0.0
S578 S 0.68024 -0.00237 0.00472 0.0
N579 N 0.69996 0.96557 0.9762 0.0
N580 N 0.63512 0.99045 0.99706 0.0
C581 C 0.63437 0.96077 0.97012 0.0
C582 C 0.66958 0.94742 0.95868 0.0
C583 C 0.80818 0.03563 0.49182 0.0
C584 C 0.80654 0.07185 0.47584 0.0
C585 C 0.84204 0.01864 0.49714 0.0
C586 C 0.87568 0.0377 0.48793 0.0
H587 H 0.78294 0.01938 0.49858 0.0
H588 H 0.8418 0.98967 0.50694 0.0
S589 S 0.88776 0.13404 0.44865 0.0
N590 N 0.84242 0.12691 0.45273 0.0
N591 N 0.90607 0.09548 0.46483 0.0
C592 C 0.87496 0.07499 0.47486 0.0
C593 C 0.84038 0.09203 0.46844 0.0
C594 C 0.14722 0.60569 0.08624 0.0
C595 C 0.16852 0.5914 0.11607 0.0
C596 C 0.11796 0.58328 0.0682 0.0
C597 C 0.10905 0.54567 0.07923 0.0
H598 H 0.15246 0.63483 0.07765 0.0
H599 H 0.10154 0.59601 0.04628 0.0
S600 S 0.16002 0.49345 0.15244 0.0
N601 N 0.18121 0.53647 0.15343 0.0
N602 N 0.12648 0.49412 0.11962 0.0
C603 C 0.13145 0.53051 0.10782 0.0
C604 C 0.16107 0.55343 0.12623 0.0
C605 C 0.32418 0.45295 0.52948 0.0
C606 C 0.30316 0.46119 0.56256 0.0
C607 C 0.36151 0.46612 0.52741 0.0
C608 C 0.37922 0.48773 0.5585 0.0
H609 H 0.31167 0.4362 0.50507 0.0
H610 H 0.3766 0.45901 0.50137 0.0
S611 S 0.33631 0.51515 0.65253 0.0
N612 N 0.30289 0.49088 0.62754 0.0
N613 N 0.37245 0.51603 0.62383 0.0
C614 C 0.35826 0.49602 0.59179 0.0
C615 C 0.32043 0.48265 0.59378 0.0
C616 C 0.96968 0.68945 0.95225 0.0
C617 C 0.93128 0.69093 0.95711 0.0
C618 C 0.98901 0.65882 0.96536 0.0
C619 C 0.97062 0.62794 0.98324 0.0
H620 H 0.9847 0.71152 0.93692 0.0
H621 H 0.01837 0.65839 0.95937 0.0
S622 S 0.87044 0.62047 0.00628 0.0
N623 N 0.87581 0.66112 0.98406 0.0
N624 N 0.91197 0.60284 0.00821 0.0
C625 C 0.9325 0.6304 0.99058 0.0
C626 C 0.91285 0.66201 0.9775 0.0
C627 C 0.40887 0.88994 0.11777 0.0
C628 C 0.41918 0.85214 0.12234 0.0
C629 C 0.42709 0.91325 0.09108 0.0
C630 C 0.45583 0.8991 0.06829 0.0
H631 H 0.38509 0.90056 0.13289 0.0
H632 H 0.41682 0.9412 0.08619 0.0
S633 S 0.49745 0.80496 0.07498 0.0
N634 N 0.46328 0.80393 0.10627 0.0
N635 N 0.49705 0.84732 0.05593 0.0
C636 C 0.46832 0.86269 0.07519 0.0
C637 C 0.45008 0.83926 0.10231 0.0
C638 C 0.00921 0.20008 0.58081 0.0
C639 C 0.02394 0.21574 0.54724 0.0
C640 C 0.00346 0.1605 0.58323 0.0
C641 C 0.01181 0.13521 0.55211 0.0
H642 H 0.00574 0.21804 0.60681 0.0
H643 H 0.99553 0.14947 0.61087 0.0
S644 S 0.0415 0.16227 0.4546 0.0
N645 N 0.03986 0.20354 0.47978 0.0
N646 N 0.02867 0.12865 0.48439 0.0
C647 C 0.02172 0.15059 0.51673 0.0
C648 C 0.028 0.19107 0.51433 0.0
C649 C 0.5568 0.32613 0.49562 0.0
C650 C 0.5384 0.29715 0.47176 0.0
C651 C 0.54252 0.36274 0.50034 0.0
C652 C 0.50961 0.37138 0.48114 0.0
H653 H 0.58374 0.32147 0.50817 0.0
H654 H 0.559 0.38521 0.51613 0.0
S655 S 0.44721 0.30304 0.42257 0.0
N656 N 0.48257 0.27765 0.43442 0.0
N657 N 0.45622 0.34641 0.44267 0.0
C658 C 0.48922 0.34149 0.46061 0.0
C659 C 0.50352 0.30437 0.45604 0.0
loop_
_geom_bond_atom_site_label_1
_geom_bond_atom_site_label_2
_geom_bond_distance
_geom_bond_site_symmetry_2
_ccdc_geom_bond_type
C0 C1 1.386 . S
C0 C2 1.397 . S
C0 H24 0.931 . S
C1 C0 1.386 . S
C1 C5 1.397 . S
C2 C0 1.397 . S
C2 C3 1.384 . S
C2 H25 0.930 . S
C3 C2 1.384 . S
C3 C4 1.377 . S
C3 C6 1.481 . S
C4 C3 1.377 . S
C4 C5 1.389 . S
C4 H26 0.929 . S
C5 C1 1.397 . S
C5 C4 1.389 . S
C5 H27 0.931 . S
C6 C3 1.481 . S
C6 C7 1.387 . S
C6 C11 1.390 . S
C7 C6 1.387 . S
C7 C8 1.401 . S
C7 H28 0.930 . S
C8 C7 1.401 . S
C8 C9 1.376 . S
C8 C17 1.511 . S
C9 C8 1.376 . S
C9 C10 1.392 . S
C9 H30 0.931 . S
C10 C9 1.392 . S
C10 C11 1.361 . S
C10 C12 1.500 . S
C11 C6 1.390 . S
C11 C10 1.361 . S
C11 H29 0.931 . S
C12 C10 1.500 . S
C12 C13 1.371 . S
C12 C14 1.365 . S
C13 C12 1.371 . S
C13 C23 1.386 . S
C13 H31 0.931 . S
C14 C12 1.365 . S
C14 C15 1.409 . S
C14 H32 0.929 . S
C15 C14 1.409 . S
C15 C16 1.380 . S
C15 H33 0.930 . S
C16 C15 1.380 . S
C16 C23 1.357 . S
C17 C8 1.511 . S
C17 C18 1.341 . S
C17 C19 1.371 . S
C18 C17 1.341 . S
C18 C22 1.394 . S
C18 H34 0.930 . S
C19 C17 1.371 . S
C19 C20 1.392 . S
C19 H35 0.931 . S
C20 C19 1.392 . S
C20 C21 1.331 . S
C20 H38 0.932 . S
C21 C20 1.331 . S
C21 C22 1.336 . S
C22 C18 1.394 . S
C22 C21 1.336 . S
C22 H37 0.929 . S
C23 C13 1.386 . S
C23 C16 1.357 . S
C23 H36 0.928 . S
H24 C0 0.931 . S
H25 C2 0.930 . S
H26 C4 0.929 . S
H27 C5 0.931 . S
H28 C7 0.930 . S
H29 C11 0.931 . S
H30 C9 0.931 . S
H31 C13 0.931 . S
H32 C14 0.929 . S
H33 C15 0.930 . S
H34 C18 0.930 . S
H35 C19 0.931 . S
H36 C23 0.928 . S
H37 C22 0.929 . S
H38 C20 0.932 . S
C39 C40 1.386 . S
C39 C41 1.397 . S
C39 H63 0.931 . S
C40 C39 1.386 . S
C40 C44 1.397 . S
C41 C39 1.397 . S
C41 C42 1.384 . S
C41 H64 0.930 . S
C42 C41 1.384 . S
C42 C43 1.377 . S
C42 C45 1.481 . S
C43 C42 1.377 . S
C43 C44 1.389 . S
C43 H65 0.929 . S
C44 C40 1.397 . S
C44 C43 1.389 . S
C44 H66 0.931 . S
C45 C42 1.481 . S
C45 C46 1.387 . S
C45 C50 1.390 . S
C46 C45 1.387 . S
C46 C47 1.401 . S
C46 H67 0.930 . S
C47 C46 1.401 . S
C47 C48 1.376 . S
C47 C56 1.511 . S
C48 C47 1.376 . S
C48 C49 1.392 . S
C48 H69 0.931 . S
C49 C48 1.392 . S
C49 C50 1.361 . S
C49 C51 1.500 . S
C50 C45 1.390 . S
C50 C49 1.361 . S
C50 H68 0.931 . S
C51 C49 1.500 . S
C51 C52 1.371 . S
C51 C53 1.365 . S
C52 C51 1.371 . S
C52 C62 1.386 . S
C52 H70 0.931 . S
C53 C51 1.365 . S
C53 C54 1.409 . S
C53 H71 0.929 . S
C54 C53 1.409 . S
C54 C55 1.380 . S
C54 H72 0.930 . S
C55 C54 1.380 . S
C55 C62 1.357 . S
C56 C47 1.511 . S
C56 C57 1.341 . S
C56 C58 1.371 . S
C57 C56 1.341 . S
C57 C61 1.394 . S
C57 H73 0.930 . S
C58 C56 1.371 . S
C58 C59 1.392 . S
C58 H74 0.931 . S
C59 C58 1.392 . S
C59 C60 1.331 . S
C59 H77 0.932 . S
C60 C59 1.331 . S
C60 C61 1.336 . S
C61 C57 1.394 . S
C61 C60 1.336 . S
C61 H76 0.929 . S
C62 C52 1.386 . S
C62 C55 1.357 . S
C62 H75 0.928 . S
H63 C39 0.931 . S
H64 C41 0.930 . S
H65 C43 0.929 . S
H66 C44 0.931 . S
H67 C46 0.930 . S
H68 C50 0.931 . S
H69 C48 0.931 . S
H70 C52 0.931 . S
H71 C53 0.929 . S
H72 C54 0.930 . S
H73 C57 0.930 . S
H74 C58 0.931 . S
H75 C62 0.928 . S
H76 C61 0.929 . S
H77 C59 0.932 . S
C78 C79 1.386 . S
C78 C80 1.397 . S
C78 H102 0.931 . S
C79 C78 1.386 . S
C79 C83 1.397 . S
C80 C78 1.397 . S
C80 C81 1.384 . S
C80 H103 0.930 . S
C81 C80 1.384 . S
C81 C82 1.377 . S
C81 C84 1.481 . S
C82 C81 1.377 . S
C82 C83 1.389 . S
C82 H104 0.929 . S
C83 C79 1.397 . S
C83 C82 1.389 . S
C83 H105 0.931 . S
C84 C81 1.481 . S
C84 C85 1.387 . S
C84 C89 1.390 . S
C85 C84 1.387 . S
C85 C86 1.401 . S
C85 H106 0.930 . S
C86 C85 1.401 . S
C86 C87 1.376 . S
C86 C95 1.511 . S
C87 C86 1.376 . S
C87 C88 1.392 . S
C87 H108 0.931 . S
C88 C87 1.392 . S
C88 C89 1.361 . S
C88 C90 1.500 . S
C89 C84 1.390 . S
C89 C88 1.361 . S
C89 H107 0.931 . S
C90 C88 1.500 . S
C90 C91 1.371 . S
C90 C92 1.365 . S
C91 C90 1.371 . S
C91 C101 1.386 . S
C91 H109 0.931 . S
C92 C90 1.365 . S
C92 C93 1.409 . S
C92 H110 0.929 . S
C93 C92 1.409 . S
C93 C94 1.380 . S
C93 H111 0.930 . S
C94 C93 1.380 . S
C94 C101 1.357 . S
C95 C86 1.511 . S
C95 C96 1.341 . S
C95 C97 1.371 . S
C96 C95 1.341 . S
C96 C100 1.394 . S
C96 H112 0.930 . S
C97 C95 1.371 . S
C97 C98 1.392 . S
C97 H113 0.931 . S
C98 C97 1.392 . S
C98 C99 1.331 . S
C98 H116 0.932 . S
C99 C98 1.331 . S
C99 C100 1.336 . S
C100 C96 1.394 . S
C100 C99 1.336 . S
C100 H115 0.929 . S
C101 C91 1.386 . S
C101 C94 1.357 . S
C101 H114 0.928 . S
H102 C78 0.931 . S
H103 C80 0.930 . S
H104 C82 0.929 . S
H105 C83 0.931 . S
H106 C85 0.930 . S
H107 C89 0.931 . S
H108 C87 0.931 . S
H109 C91 0.931 . S
H110 C92 0.929 . S
H111 C93 0.930 . S
H112 C96 0.930 . S
H113 C97 0.931 . S
H114 C101 0.928 . S
H115 C100 0.929 . S
H116 C98 0.932 . S
C117 C118 1.386 . S
C117 C119 1.397 . S
C117 H141 0.931 . S
C118 C117 1.386 . S
C118 C122 1.397 . S
C119 C117 1.397 . S
C119 C120 1.384 . S
C119 H142 0.930 . S
C120 C119 1.384 . S
C120 C121 1.377 . S
C120 C123 1.481 . S
C121 C120 1.377 . S
C121 C122 1.389 . S
C121 H143 0.929 . S
C122 C118 1.397 . S
C122 C121 1.389 . S
C122 H144 0.931 . S
C123 C120 1.481 . S
C123 C124 1.387 . S
C123 C128 1.390 . S
C124 C123 1.387 . S
C124 C125 1.401 . S
C124 H145 0.930 . S
C125 C124 1.401 . S
C125 C126 1.376 . S
C125 C134 1.511 . S
C126 C125 1.376 . S
C126 C127 1.392 . S
C126 H147 0.931 . S
C127 C126 1.392 . S
C127 C128 1.361 . S
C127 C129 1.500 . S
C128 C123 1.390 . S
C128 C127 1.361 . S
C128 H146 0.931 . S
C129 C127 1.500 . S
C129 C130 1.371 . S
C129 C131 1.365 . S
C130 C129 1.371 . S
C130 C140 1.386 . S
C130 H148 0.931 . S
C131 C129 1.365 . S
C131 C132 1.409 . S
C131 H149 0.929 . S
C132 C131 1.409 . S
C132 C133 1.380 . S
C132 H150 0.930 . S
C133 C132 1.380 . S
C133 C140 1.357 . S
C134 C125 1.511 . S
C134 C135 1.341 . S
C134 C136 1.371 . S
C135 C134 1.341 . S
C135 C139 1.394 . S
C135 H151 0.930 . S
C136 C134 1.371 . S
C136 C137 1.392 . S
C136 H152 0.931 . S
C137 C136 1.392 . S
C137 C138 1.331 . S
C137 H155 0.932 . S
C138 C137 1.331 . S
C138 C139 1.336 . S
C139 C135 1.394 . S
C139 C138 1.336 . S
C139 H154 0.929 . S
C140 C130 1.386 . S
C140 C133 1.357 . S
C140 H153 0.928 . S
H141 C117 0.931 . S
H142 C119 0.930 . S
H143 C121 0.929 . S
H144 C122 0.931 . S
H145 C124 0.930 . S
H146 C128 0.931 . S
H147 C126 0.931 . S
H148 C130 0.931 . S
H149 C131 0.929 . S
H150 C132 0.930 . S
H151 C135 0.930 . S
H152 C136 0.931 . S
H153 C140 0.928 . S
H154 C139 0.929 . S
H155 C137 0.932 . S
C156 C157 1.386 . S
C156 C158 1.397 . S
C156 H180 0.931 . S
C157 C156 1.386 . S
C157 C161 1.397 . S
C158 C156 1.397 . S
C158 C159 1.384 . S
C158 H181 0.930 . S
C159 C158 1.384 . S
C159 C160 1.377 . S
C159 C162 1.481 . S
C160 C159 1.377 . S
C160 C161 1.389 . S
C160 H182 0.929 . S
C161 C157 1.397 . S
C161 C160 1.389 . S
C161 H183 0.931 . S
C162 C159 1.481 . S
C162 C163 1.387 . S
C162 C167 1.390 . S
C163 C162 1.387 . S
C163 C164 1.401 . S
C163 H184 0.930 . S
C164 C163 1.401 . S
C164 C165 1.376 . S
C164 C173 1.511 . S
C165 C164 1.376 . S
C165 C166 1.392 . S
C165 H186 0.931 . S
C166 C165 1.392 . S
C166 C167 1.361 . S
C166 C168 1.500 . S
C167 C162 1.390 . S
C167 C166 1.361 . S
C167 H185 0.931 . S
C168 C166 1.500 . S
C168 C169 1.371 . S
C168 C170 1.365 . S
C169 C168 1.371 . S
C169 C179 1.386 . S
C169 H187 0.931 . S
C170 C168 1.365 . S
C170 C171 1.409 . S
C170 H188 0.929 . S
C171 C170 1.409 . S
C171 C172 1.380 . S
C171 H189 0.930 . S
C172 C171 1.380 . S
C172 C179 1.357 . S
C173 C164 1.511 . S
C173 C174 1.341 . S
C173 C175 1.371 . S
C174 C173 1.341 . S
C174 C178 1.394 . S
C174 H190 0.930 . S
C175 C173 1.371 . S
C175 C176 1.392 . S
C175 H191 0.931 . S
C176 C175 1.392 . S
C176 C177 1.331 . S
C176 H194 0.932 . S
C177 C176 1.331 . S
C177 C178 1.336 . S
C178 C174 1.394 . S
C178 C177 1.336 . S
C178 H193 0.929 . S
C179 C169 1.386 . S
C179 C172 1.357 . S
C179 H192 0.928 . S
H180 C156 0.931 . S
H181 C158 0.930 . S
H182 C160 0.929 . S
H183 C161 0.931 . S
H184 C163 0.930 . S
H185 C167 0.931 . S
H186 C165 0.931 . S
H187 C169 0.931 . S
H188 C170 0.929 . S
H189 C171 0.930 . S
H190 C174 0.930 . S
H191 C175 0.931 . S
H192 C179 0.928 . S
H193 C178 0.929 . S
H194 C176 0.932 . S
C195 C196 1.386 . S
C195 C197 1.397 . S
C195 H219 0.931 . S
C196 C195 1.386 . S
C196 C200 1.397 . S
C197 C195 1.397 . S
C197 C198 1.384 . S
C197 H220 0.930 . S
C198 C197 1.384 . S
C198 C199 1.377 . S
C198 C201 1.481 . S
C199 C198 1.377 . S
C199 C200 1.389 . S
C199 H221 0.929 . S
C200 C196 1.397 . S
C200 C199 1.389 . S
C200 H222 0.931 . S
C201 C198 1.481 . S
C201 C202 1.387 . S
C201 C206 1.390 . S
C202 C201 1.387 . S
C202 C203 1.401 . S
C202 H223 0.930 . S
C203 C202 1.401 . S
C203 C204 1.376 . S
C203 C212 1.511 . S
C204 C203 1.376 . S
C204 C205 1.392 . S
C204 H225 0.931 . S
C205 C204 1.392 . S
C205 C206 1.361 . S
C205 C207 1.500 . S
C206 C201 1.390 . S
C206 C205 1.361 . S
C206 H224 0.931 . S
C207 C205 1.500 . S
C207 C208 1.371 . S
C207 C209 1.365 . S
C208 C207 1.371 . S
C208 C218 1.386 . S
C208 H226 0.931 . S
C209 C207 1.365 . S
C209 C210 1.409 . S
C209 H227 0.929 . S
C210 C209 1.409 . S
C210 C211 1.380 . S
C210 H228 0.930 . S
C211 C210 1.380 . S
C211 C218 1.357 . S
C212 C203 1.511 . S
C212 C213 1.341 . S
C212 C214 1.371 . S
C213 C212 1.341 . S
C213 C217 1.394 . S
C213 H229 0.930 . S
C214 C212 1.371 . S
C214 C215 1.392 . S
C214 H230 0.931 . S
C215 C214 1.392 . S
C215 C216 1.331 . S
C215 H233 0.932 . S
C216 C215 1.331 . S
C216 C217 1.336 . S
C217 C213 1.394 . S
C217 C216 1.336 . S
C217 H232 0.929 . S
C218 C208 1.386 . S
C218 C211 1.357 . S
C218 H231 0.928 . S
H219 C195 0.931 . S
H220 C197 0.930 . S
H221 C199 0.929 . S
H222 C200 0.931 . S
H223 C202 0.930 . S
H224 C206 0.931 . S
H225 C204 0.931 . S
H226 C208 0.931 . S
H227 C209 0.929 . S
H228 C210 0.930 . S
H229 C213 0.930 . S
H230 C214 0.931 . S
H231 C218 0.928 . S
H232 C217 0.929 . S
H233 C215 0.932 . S
C234 C235 1.386 . S
C234 C236 1.397 . S
C234 H258 0.931 . S
C235 C234 1.386 . S
C235 C239 1.397 . S
C236 C234 1.397 . S
C236 C237 1.384 . S
C236 H259 0.930 . S
C237 C236 1.384 . S
C237 C238 1.377 . S
C237 C240 1.481 . S
C238 C237 1.377 . S
C238 C239 1.389 . S
C238 H260 0.929 . S
C239 C235 1.397 . S
C239 C238 1.389 . S
C239 H261 0.931 . S
C240 C237 1.481 . S
C240 C241 1.387 . S
C240 C245 1.390 . S
C241 C240 1.387 . S
C241 C242 1.401 . S
C241 H262 0.930 . S
C242 C241 1.401 . S
C242 C243 1.376 . S
C242 C251 1.511 . S
C243 C242 1.376 . S
C243 C244 1.392 . S
C243 H264 0.931 . S
C244 C243 1.392 . S
C244 C245 1.361 . S
C244 C246 1.500 . S
C245 C240 1.390 . S
C245 C244 1.361 . S
C245 H263 0.931 . S
C246 C244 1.500 . S
C246 C247 1.371 . S
C246 C248 1.365 . S
C247 C246 1.371 . S
C247 C257 1.386 . S
C247 H265 0.931 . S
C248 C246 1.365 . S
C248 C249 1.409 . S
C248 H266 0.929 . S
C249 C248 1.409 . S
C249 C250 1.380 . S
C249 H267 0.930 . S
C250 C249 1.380 . S
C250 C257 1.357 . S
C251 C242 1.511 . S
C251 C252 1.341 . S
C251 C253 1.371 . S
C252 C251 1.341 . S
C252 C256 1.394 . S
C252 H268 0.930 . S
C253 C251 1.371 . S
C253 C254 1.392 . S
C253 H269 0.931 . S
C254 C253 1.392 . S
C254 C255 1.331 . S
C254 H272 0.932 . S
C255 C254 1.331 . S
C255 C256 1.336 . S
C256 C252 1.394 . S
C256 C255 1.336 . S
C256 H271 0.929 . S
C257 C247 1.386 . S
C257 C250 1.357 . S
C257 H270 0.928 . S
H258 C234 0.931 . S
H259 C236 0.930 . S
H260 C238 0.929 . S
H261 C239 0.931 . S
H262 C241 0.930 . S
H263 C245 0.931 . S
H264 C243 0.931 . S
H265 C247 0.931 . S
H266 C248 0.929 . S
H267 C249 0.930 . S
H268 C252 0.930 . S
H269 C253 0.931 . S
H270 C257 0.928 . S
H271 C256 0.929 . S
H272 C254 0.932 . S
C273 C274 1.386 . S
C273 C275 1.397 . S
C273 H297 0.931 . S
C274 C273 1.386 . S
C274 C278 1.397 . S
C275 C273 1.397 . S
C275 C276 1.384 . S
C275 H298 0.930 . S
C276 C275 1.384 . S
C276 C277 1.377 . S
C276 C279 1.481 . S
C277 C276 1.377 . S
C277 C278 1.389 . S
C277 H299 0.929 . S
C278 C274 1.397 . S
C278 C277 1.389 . S
C278 H300 0.931 . S
C279 C276 1.481 . S
C279 C280 1.387 . S
C279 C284 1.390 . S
C280 C279 1.387 . S
C280 C281 1.401 . S
C280 H301 0.930 . S
C281 C280 1.401 . S
C281 C282 1.376 . S
C281 C290 1.511 . S
C282 C281 1.376 . S
C282 C283 1.392 . S
C282 H303 0.931 . S
C283 C282 1.392 . S
C283 C284 1.361 . S
C283 C285 1.500 . S
C284 C279 1.390 . S
C284 C283 1.361 . S
C284 H302 0.931 . S
C285 C283 1.500 . S
C285 C286 1.371 . S
C285 C287 1.365 . S
C286 C285 1.371 . S
C286 C296 1.386 . S
C286 H304 0.931 . S
C287 C285 1.365 . S
C287 C288 1.409 . S
C287 H305 0.929 . S
C288 C287 1.409 . S
C288 C289 1.380 . S
C288 H306 0.930 . S
C289 C288 1.380 . S
C289 C296 1.357 . S
C290 C281 1.511 . S
C290 C291 1.341 . S
C290 C292 1.371 . S
C291 C290 1.341 . S
C291 C295 1.394 . S
C291 H307 0.930 . S
C292 C290 1.371 . S
C292 C293 1.392 . S
C292 H308 0.931 . S
C293 C292 1.392 . S
C293 C294 1.331 . S
C293 H311 0.932 . S
C294 C293 1.331 . S
C294 C295 1.336 . S
C295 C291 1.394 . S
C295 C294 1.336 . S
C295 H310 0.929 . S
C296 C286 1.386 . S
C296 C289 1.357 . S
C296 H309 0.928 . S
H297 C273 0.931 . S
H298 C275 0.930 . S
H299 C277 0.929 . S
H300 C278 0.931 . S
H301 C280 0.930 . S
H302 C284 0.931 . S
H303 C282 0.931 . S
H304 C286 0.931 . S
H305 C287 0.929 . S
H306 C288 0.930 . S
H307 C291 0.930 . S
H308 C292 0.931 . S
H309 C296 0.928 . S
H310 C295 0.929 . S
H311 C293 0.932 . S
O312 Mg313 1.990 . S
O312 C326 1.253 1_445 S
Mg313 O312 1.990 . S
Mg313 O316 2.180 . S
Mg313 O317 2.117 . S
Mg313 O331 2.030 1_545 S
O314 Mg315 2.072 1_665 S
O314 C326 1.260 . S
Mg315 O314 2.072 1_445 S
Mg315 O316 2.099 . S
Mg315 O318 2.079 . S
Mg315 O319 2.072 1_455 S
Mg315 O321 2.099 1_445 S
Mg315 O332 2.079 1_545 S
O316 Mg313 2.180 . S
O316 Mg315 2.099 . S
O316 C327 1.279 . S
O317 Mg313 2.117 . S
O317 C327 1.250 . S
O318 Mg315 2.079 . S
O318 C328 1.264 . S
O319 Mg315 2.072 1_655 S
O319 C329 1.260 . S
Mg320 O321 2.180 . S
Mg320 O322 2.030 1_565 S
Mg320 O323 1.990 1_565 S
Mg320 O324 2.117 . S
O321 Mg315 2.099 1_665 S
O321 Mg320 2.180 . S
O321 C330 1.279 . S
O322 Mg320 2.030 1_545 S
O322 C328 1.248 1_655 S
O323 Mg320 1.990 1_545 S
O323 C329 1.253 . S
O324 Mg320 2.117 . S
O324 C330 1.250 . S
C325 O331 1.248 . S
C325 O332 1.264 . S
C326 O312 1.253 1_665 S
C326 O314 1.260 . S
C327 O316 1.279 . S
C327 O317 1.250 . S
C328 O318 1.264 . S
C328 O322 1.248 1_455 S
C329 O319 1.260 . S
C329 O323 1.253 . S
C330 O321 1.279 . S
C330 O324 1.250 . S
O331 Mg313 2.030 1_565 S
O331 C325 1.248 . S
O332 Mg315 2.079 1_565 S
O332 C325 1.264 . S
O333 Mg334 1.990 . S
O333 C347 1.253 . S
Mg334 O333 1.990 . S
Mg334 O337 2.180 1_554 S
Mg334 O338 2.117 1_554 S
Mg334 O352 2.030 . S
O335 Mg336 2.072 . S
O335 C347 1.260 . S
Mg336 O335 2.072 . S
Mg336 O337 2.099 1_554 S
Mg336 O339 2.079 1_544 S
Mg336 O340 2.072 1_554 S
Mg336 O342 2.099 1_545 S
Mg336 O353 2.079 . S
O337 Mg334 2.180 1_556 S
O337 Mg336 2.099 1_556 S
O337 C348 1.279 . S
O338 Mg334 2.117 1_556 S
O338 C348 1.250 . S
O339 Mg336 2.079 1_566 S
O339 C349 1.264 . S
O340 Mg336 2.072 1_556 S
O340 C350 1.260 1_545 S
Mg341 O342 2.180 1_556 S
Mg341 O343 2.030 . S
Mg341 O344 1.990 . S
Mg341 O345 2.117 1_556 S
O342 Mg336 2.099 1_565 S
O342 Mg341 2.180 1_554 S
O342 C351 1.279 . S
O343 Mg341 2.030 . S
O343 C349 1.248 . S
O344 Mg341 1.990 . S
O344 C350 1.253 . S
O345 Mg341 2.117 1_554 S
O345 C351 1.250 . S
C346 O352 1.248 . S
C346 O353 1.264 . S
C347 O333 1.253 . S
C347 O335 1.260 . S
C348 O337 1.279 . S
C348 O338 1.250 . S
C349 O339 1.264 . S
C349 O343 1.248 . S
C350 O340 1.260 1_565 S
C350 O344 1.253 . S
C351 O342 1.279 . S
C351 O345 1.250 . S
O352 Mg334 2.030 . S
O352 C346 1.248 . S
O353 Mg336 2.079 . S
O353 C346 1.264 . S
O354 Mg355 1.990 . S
O354 C368 1.253 . S
Mg355 O354 1.990 . S
Mg355 O358 2.180 . S
Mg355 O359 2.117 . S
Mg355 O373 2.030 . S
O356 Mg357 2.072 . S
O356 C368 1.260 . S
Mg357 O356 2.072 . S
Mg357 O358 2.099 . S
Mg357 O360 2.079 . S
Mg357 O361 2.072 . S
Mg357 O363 2.099 . S
Mg357 O374 2.079 . S
O358 Mg355 2.180 . S
O358 Mg357 2.099 . S
O358 C369 1.279 . S
O359 Mg355 2.117 . S
O359 C369 1.250 . S
O360 Mg357 2.079 . S
O360 C370 1.264 . S
O361 Mg357 2.072 . S
O361 C371 1.260 . S
Mg362 O363 2.180 . S
Mg362 O364 2.030 . S
Mg362 O365 1.990 . S
Mg362 O366 2.117 . S
O363 Mg357 2.099 . S
O363 Mg362 2.180 . S
O363 C372 1.279 . S
O364 Mg362 2.030 . S
O364 C370 1.248 . S
O365 Mg362 1.990 . S
O365 C371 1.253 . S
O366 Mg362 2.117 . S
O366 C372 1.250 . S
C367 O373 1.248 . S
C367 O374 1.264 . S
C368 O354 1.253 . S
C368 O356 1.260 . S
C369 O358 1.279 . S
C369 O359 1.250 . S
C370 O360 1.264 . S
C370 O364 1.248 . S
C371 O361 1.260 . S
C371 O365 1.253 . S
C372 O363 1.279 . S
C372 O366 1.250 . S
O373 Mg355 2.030 . S
O373 C367 1.248 . S
O374 Mg357 2.079 . S
O374 C367 1.264 . S
O375 Mg376 1.990 . S
O375 C389 1.253 . S
Mg376 O375 1.990 . S
Mg376 O379 2.180 1_455 S
Mg376 O380 2.117 1_455 S
Mg376 O394 2.030 . S
O377 Mg378 2.072 . S
O377 C389 1.260 . S
Mg378 O377 2.072 . S
Mg378 O379 2.099 1_455 S
Mg378 O381 2.079 1_454 S
Mg378 O382 2.072 1_455 S
Mg378 O384 2.099 1_554 S
Mg378 O395 2.079 . S
O379 Mg376 2.180 1_655 S
O379 Mg378 2.099 1_655 S
O379 C390 1.279 . S
O380 Mg376 2.117 1_655 S
O380 C390 1.250 . S
O381 Mg378 2.079 1_656 S
O381 C391 1.264 . S
O382 Mg378 2.072 1_655 S
O382 C392 1.260 1_554 S
Mg383 O384 2.180 1_655 S
Mg383 O385 2.030 . S
Mg383 O386 1.990 . S
Mg383 O387 2.117 . S
O384 Mg378 2.099 1_556 S
O384 Mg383 2.180 1_455 S
O384 C393 1.279 . S
O385 Mg383 2.030 . S
O385 C391 1.248 . S
O386 Mg383 1.990 . S
O386 C392 1.253 . S
O387 Mg383 2.117 . S
O387 C393 1.250 1_655 S
C388 O394 1.248 . S
C388 O395 1.264 . S
C389 O375 1.253 . S
C389 O377 1.260 . S
C390 O379 1.279 . S
C390 O380 1.250 . S
C391 O381 1.264 . S
C391 O385 1.248 . S
C392 O382 1.260 1_556 S
C392 O386 1.253 . S
C393 O384 1.279 . S
C393 O387 1.250 1_455 S
O394 Mg376 2.030 . S
O394 C388 1.248 . S
O395 Mg378 2.079 . S
O395 C388 1.264 . S
C396 C397 1.369 . S
C396 C398 1.419 . S
C396 H400 0.930 . S
C397 C396 1.369 . S
C397 C406 1.429 . S
C398 C396 1.419 . S
C398 C399 1.363 . S
C398 H401 0.929 1_545 S
C399 C398 1.363 . S
C399 C405 1.428 . S
H400 C396 0.930 . S
H401 C398 0.929 1_565 S
S402 N403 1.613 . S
S402 N404 1.610 . S
N403 S402 1.613 . S
N403 C406 1.350 . S
N404 S402 1.610 . S
N404 C405 1.351 . S
C405 C399 1.428 . S
C405 N404 1.351 . S
C405 C406 1.434 . S
C406 C397 1.429 . S
C406 N403 1.350 . S
C406 C405 1.434 . S
C407 C408 1.369 . S
C407 C409 1.419 1_565 S
C407 H411 0.930 1_565 S
C408 C407 1.369 . S
C408 C417 1.429 . S
C409 C407 1.419 1_545 S
C409 C410 1.363 1_545 S
C409 H412 0.929 . S
C410 C409 1.363 1_565 S
C410 C416 1.428 . S
H411 C407 0.930 1_545 S
H412 C409 0.929 . S
S413 N414 1.613 . S
S413 N415 1.610 . S
N414 S413 1.613 . S
N414 C417 1.350 . S
N415 S413 1.610 . S
N415 C416 1.351 . S
C416 C410 1.428 . S
C416 N415 1.351 . S
C416 C417 1.434 . S
C417 C408 1.429 . S
C417 N414 1.350 . S
C417 C416 1.434 . S
C418 C419 1.369 . S
C418 C420 1.419 . S
C418 H422 0.930 . S
C419 C418 1.369 . S
C419 C428 1.429 . S
C420 C418 1.419 . S
C420 C421 1.363 . S
C420 H423 0.929 . S
C421 C420 1.363 . S
C421 C427 1.428 . S
H422 C418 0.930 . S
H423 C420 0.929 . S
S424 N425 1.613 . S
S424 N426 1.610 . S
N425 S424 1.613 . S
N425 C428 1.350 . S
N426 S424 1.610 . S
N426 C427 1.351 . S
C427 C421 1.428 . S
C427 N426 1.351 . S
C427 C428 1.434 . S
C428 C419 1.429 . S
C428 N425 1.350 . S
C428 C427 1.434 . S
C429 C430 1.369 . S
C429 C431 1.419 . S
C429 H433 0.930 . S
C430 C429 1.369 . S
C430 C439 1.429 . S
C431 C429 1.419 . S
C431 C432 1.363 . S
C431 H434 0.929 . S
C432 C431 1.363 . S
C432 C438 1.428 . S
H433 C429 0.930 . S
H434 C431 0.929 . S
S435 N436 1.613 1_455 S
S435 N437 1.610 1_455 S
N436 S435 1.613 1_655 S
N436 C439 1.350 . S
N437 S435 1.610 1_655 S
N437 C438 1.351 . S
C438 C432 1.428 . S
C438 N437 1.351 . S
C438 C439 1.434 . S
C439 C430 1.429 . S
C439 N436 1.350 . S
C439 C438 1.434 . S
C440 C441 1.369 . S
C440 C442 1.419 . S
C440 H444 0.930 . S
C441 C440 1.369 . S
C441 C450 1.429 . S
C442 C440 1.419 . S
C442 C443 1.363 . S
C442 H445 0.930 . S
C443 C442 1.363 . S
C443 C449 1.428 . S
H444 C440 0.930 . S
H445 C442 0.930 . S
S446 N447 1.613 . S
S446 N448 1.610 . S
N447 S446 1.613 . S
N447 C450 1.350 . S
N448 S446 1.610 . S
N448 C449 1.351 . S
C449 C443 1.428 . S
C449 N448 1.351 . S
C449 C450 1.434 . S
C450 C441 1.429 . S
C450 N447 1.350 . S
C450 C449 1.434 . S
C451 C452 1.369 . S
C451 C453 1.419 . S
C451 H455 0.930 1_565 S
C452 C451 1.369 . S
C452 C461 1.429 . S
C453 C451 1.419 . S
C453 C454 1.363 . S
C453 H456 0.929 1_565 S
C454 C453 1.363 . S
C454 C460 1.428 . S
H455 C451 0.930 1_545 S
H456 C453 0.929 1_545 S
S457 N458 1.613 . S
S457 N459 1.610 . S
N458 S457 1.613 . S
N458 C461 1.350 . S
N459 S457 1.610 . S
N459 C460 1.351 . S
C460 C454 1.428 . S
C460 N459 1.351 . S
C460 C461 1.434 . S
C461 C452 1.429 . S
C461 N458 1.350 . S
C461 C460 1.434 . S
C462 C463 1.369 . S
C462 C464 1.419 . S
C462 H466 0.930 . S
C463 C462 1.369 . S
C463 C472 1.429 . S
C464 C462 1.419 . S
C464 C465 1.363 . S
C464 H467 0.929 . S
C465 C464 1.363 . S
C465 C471 1.428 . S
H466 C462 0.930 . S
H467 C464 0.929 . S
S468 N469 1.613 . S
S468 N470 1.610 . S
N469 S468 1.613 . S
N469 C472 1.350 1_554 S
N470 S468 1.610 . S
N470 C471 1.351 1_554 S
C471 C465 1.428 . S
C471 N470 1.351 1_556 S
C471 C472 1.434 . S
C472 C463 1.429 . S
C472 N469 1.350 1_556 S
C472 C471 1.434 . S
C473 C474 1.369 . S
C473 C475 1.419 . S
C473 H477 0.930 . S
C474 C473 1.369 . S
C474 C483 1.429 . S
C475 C473 1.419 . S
C475 C476 1.363 . S
C475 H478 0.929 . S
C476 C475 1.363 . S
C476 C482 1.428 . S
H477 C473 0.930 . S
H478 C475 0.929 . S
S479 N480 1.613 . S
S479 N481 1.610 . S
N480 S479 1.613 . S
N480 C483 1.350 . S
N481 S479 1.610 . S
N481 C482 1.351 . S
C482 C476 1.428 . S
C482 N481 1.351 . S
C482 C483 1.434 . S
C483 C474 1.429 . S
C483 N480 1.350 . S
C483 C482 1.434 . S
C484 C485 1.369 . S
C484 C486 1.419 . S
C484 H488 0.930 . S
C485 C484 1.369 . S
C485 C494 1.429 . S
C486 C484 1.419 . S
C486 C487 1.363 . S
C486 H489 0.929 . S
C487 C486 1.363 . S
C487 C493 1.428 . S
H488 C484 0.930 . S
H489 C486 0.929 . S
S490 N491 1.613 . S
S490 N492 1.610 . S
N491 S490 1.613 . S
N491 C494 1.350 1_556 S
N492 S490 1.610 . S
N492 C493 1.351 1_556 S
C493 C487 1.428 . S
C493 N492 1.351 1_554 S
C493 C494 1.434 . S
C494 C485 1.429 . S
C494 N491 1.350 1_554 S
C494 C493 1.434 . S
C495 C496 1.369 . S
C495 C497 1.419 . S
C495 H499 0.930 . S
C496 C495 1.369 . S
C496 C505 1.429 . S
C497 C495 1.419 . S
C497 C498 1.363 . S
C497 H500 0.929 1_556 S
C498 C497 1.363 . S
C498 C504 1.428 . S
H499 C495 0.930 . S
H500 C497 0.929 1_554 S
S501 N502 1.613 . S
S501 N503 1.610 . S
N502 S501 1.613 . S
N502 C505 1.350 . S
N503 S501 1.610 . S
N503 C504 1.351 . S
C504 C498 1.428 . S
C504 N503 1.351 . S
C504 C505 1.434 . S
C505 C496 1.429 . S
C505 N502 1.350 . S
C505 C504 1.434 . S
C506 C507 1.369 . S
C506 C508 1.419 . S
C506 H510 0.930 . S
C507 C506 1.369 . S
C507 C516 1.429 . S
C508 C506 1.419 . S
C508 C509 1.363 . S
C508 H511 0.929 . S
C509 C508 1.363 . S
C509 C515 1.428 . S
H510 C506 0.930 . S
H511 C508 0.929 . S
S512 N513 1.613 . S
S512 N514 1.610 . S
N513 S512 1.613 . S
N513 C516 1.350 . S
N514 S512 1.610 . S
N514 C515 1.351 . S
C515 C509 1.428 . S
C515 N514 1.351 . S
C515 C516 1.434 . S
C516 C507 1.429 . S
C516 N513 1.350 . S
C516 C515 1.434 . S
C517 C518 1.369 . S
C517 C519 1.419 . S
C517 H521 0.930 . S
C518 C517 1.369 . S
C518 C527 1.429 . S
C519 C517 1.419 . S
C519 C520 1.363 . S
C519 H522 0.929 . S
C520 C519 1.363 . S
C520 C526 1.428 . S
H521 C517 0.930 . S
H522 C519 0.929 . S
S523 N524 1.613 . S
S523 N525 1.610 . S
N524 S523 1.613 . S
N524 C527 1.350 . S
N525 S523 1.610 . S
N525 C526 1.351 . S
C526 C520 1.428 . S
C526 N525 1.351 . S
C526 C527 1.434 . S
C527 C518 1.429 . S
C527 N524 1.350 . S
C527 C526 1.434 . S
C528 C529 1.369 . S
C528 C530 1.419 . S
C528 H532 0.930 . S
C529 C528 1.369 . S
C529 C538 1.429 . S
C530 C528 1.419 . S
C530 C531 1.363 . S
C530 H533 0.929 1_655 S
C531 C530 1.363 . S
C531 C537 1.428 . S
H532 C528 0.930 . S
H533 C530 0.929 1_455 S
S534 N535 1.613 . S
S534 N536 1.610 . S
N535 S534 1.613 . S
N535 C538 1.350 . S
N536 S534 1.610 . S
N536 C537 1.351 . S
C537 C531 1.428 . S
C537 N536 1.351 . S
C537 C538 1.434 . S
C538 C529 1.429 . S
C538 N535 1.350 . S
C538 C537 1.434 . S
C539 C540 1.369 . S
C539 C541 1.419 . S
C539 H543 0.930 . S
C540 C539 1.369 . S
C540 C549 1.429 . S
C541 C539 1.419 . S
C541 C542 1.363 . S
C541 H544 0.929 . S
C542 C541 1.363 . S
C542 C548 1.428 . S
H543 C539 0.930 . S
H544 C541 0.929 . S
S545 N546 1.613 . S
S545 N547 1.610 . S
N546 S545 1.613 . S
N546 C549 1.350 . S
N547 S545 1.610 . S
N547 C548 1.351 . S
C548 C542 1.428 . S
C548 N547 1.351 . S
C548 C549 1.434 . S
C549 C540 1.429 . S
C549 N546 1.350 . S
C549 C548 1.434 . S
C550 C551 1.369 . S
C550 C552 1.419 . S
C550 H554 0.930 . S
C551 C550 1.369 . S
C551 C560 1.429 . S
C552 C550 1.419 . S
C552 C553 1.363 . S
C552 H555 0.929 . S
C553 C552 1.363 . S
C553 C559 1.428 . S
H554 C550 0.930 . S
H555 C552 0.929 . S
S556 N557 1.613 . S
S556 N558 1.610 . S
N557 S556 1.613 . S
N557 C560 1.350 . S
N558 S556 1.610 . S
N558 C559 1.351 . S
C559 C553 1.428 . S
C559 N558 1.351 . S
C559 C560 1.434 . S
C560 C551 1.429 . S
C560 N557 1.350 . S
C560 C559 1.434 . S
C561 C562 1.369 . S
C561 C563 1.419 . S
C561 H565 0.930 1_455 S
C562 C561 1.369 . S
C562 C571 1.429 . S
C563 C561 1.419 . S
C563 C564 1.363 . S
C563 H566 0.929 1_455 S
C564 C563 1.363 . S
C564 C570 1.428 . S
H565 C561 0.930 1_655 S
H566 C563 0.929 1_655 S
S567 N568 1.613 . S
S567 N569 1.610 . S
N568 S567 1.613 . S
N568 C571 1.350 . S
N569 S567 1.610 . S
N569 C570 1.351 . S
C570 C564 1.428 . S
C570 N569 1.351 . S
C570 C571 1.434 . S
C571 C562 1.429 . S
C571 N568 1.350 . S
C571 C570 1.434 . S
C572 C573 1.369 . S
C572 C574 1.419 . S
C572 H576 0.930 . S
C573 C572 1.369 . S
C573 C582 1.429 . S
C574 C572 1.419 . S
C574 C575 1.363 . S
C574 H577 0.929 . S
C575 C574 1.363 . S
C575 C581 1.428 . S
H576 C572 0.930 . S
H577 C574 0.929 . S
S578 N579 1.613 1_545 S
S578 N580 1.610 . S
N579 S578 1.613 1_565 S
N579 C582 1.350 1_554 S
N580 S578 1.610 . S
N580 C581 1.351 1_544 S
C581 C575 1.428 . S
C581 N580 1.351 1_566 S
C581 C582 1.434 . S
C582 C573 1.429 . S
C582 N579 1.350 1_556 S
C582 C581 1.434 . S
C583 C584 1.369 . S
C583 C585 1.419 . S
C583 H587 0.930 . S
C584 C583 1.369 . S
C584 C593 1.429 . S
C585 C583 1.419 . S
C585 C586 1.363 . S
C585 H588 0.929 . S
C586 C585 1.363 . S
C586 C592 1.428 . S
H587 C583 0.930 . S
H588 C585 0.929 . S
S589 N590 1.613 . S
S589 N591 1.610 . S
N590 S589 1.613 . S
N590 C593 1.350 . S
N591 S589 1.610 . S
N591 C592 1.351 . S
C592 C586 1.428 . S
C592 N591 1.351 . S
C592 C593 1.434 . S
C593 C584 1.429 . S
C593 N590 1.350 . S
C593 C592 1.434 . S
C594 C595 1.369 . S
C594 C596 1.419 . S
C594 H598 0.930 . S
C595 C594 1.369 . S
C595 C604 1.429 . S
C596 C594 1.419 . S
C596 C597 1.363 . S
C596 H599 0.929 . S
C597 C596 1.363 . S
C597 C603 1.428 . S
H598 C594 0.930 . S
H599 C596 0.929 . S
S600 N601 1.613 . S
S600 N602 1.610 . S
N601 S600 1.613 . S
N601 C604 1.350 . S
N602 S600 1.610 . S
N602 C603 1.351 . S
C603 C597 1.428 . S
C603 N602 1.351 . S
C603 C604 1.434 . S
C604 C595 1.429 . S
C604 N601 1.350 . S
C604 C603 1.434 . S
C605 C606 1.369 . S
C605 C607 1.419 . S
C605 H609 0.930 . S
C606 C605 1.369 . S
C606 C615 1.429 . S
C607 C605 1.419 . S
C607 C608 1.363 . S
C607 H610 0.929 . S
C608 C607 1.363 . S
C608 C614 1.428 . S
H609 C605 0.930 . S
H610 C607 0.929 . S
S611 N612 1.613 . S
S611 N613 1.610 . S
N612 S611 1.613 . S
N612 C615 1.350 . S
N613 S611 1.610 . S
N613 C614 1.351 . S
C614 C608 1.428 . S
C614 N613 1.351 . S
C614 C615 1.434 . S
C615 C606 1.429 . S
C615 N612 1.350 . S
C615 C614 1.434 . S
C616 C617 1.369 . S
C616 C618 1.419 . S
C616 H620 0.930 . S
C617 C616 1.369 . S
C617 C626 1.429 . S
C618 C616 1.419 . S
C618 C619 1.363 . S
C618 H621 0.929 1_556 S
C619 C618 1.363 . S
C619 C625 1.428 . S
H620 C616 0.930 . S
H621 C618 0.929 1_554 S
S622 N623 1.613 . S
S622 N624 1.610 . S
N623 S622 1.613 . S
N623 C626 1.350 . S
N624 S622 1.610 . S
N624 C625 1.351 . S
C625 C619 1.428 . S
C625 N624 1.351 . S
C625 C626 1.434 . S
C626 C617 1.429 . S
C626 N623 1.350 . S
C626 C625 1.434 . S
C627 C628 1.369 . S
C627 C629 1.419 . S
C627 H631 0.930 . S
C628 C627 1.369 . S
C628 C637 1.429 . S
C629 C627 1.419 . S
C629 C630 1.363 . S
C629 H632 0.929 . S
C630 C629 1.363 . S
C630 C636 1.428 . S
H631 C627 0.930 . S
H632 C629 0.929 . S
S633 N634 1.613 . S
S633 N635 1.610 . S
N634 S633 1.613 . S
N634 C637 1.350 . S
N635 S633 1.610 . S
N635 C636 1.351 . S
C636 C630 1.428 . S
C636 N635 1.351 . S
C636 C637 1.434 . S
C637 C628 1.429 . S
C637 N634 1.350 . S
C637 C636 1.434 . S
C638 C639 1.369 . S
C638 C640 1.419 . S
C638 H642 0.930 . S
C639 C638 1.369 . S
C639 C648 1.429 . S
C640 C638 1.419 . S
C640 C641 1.363 . S
C640 H643 0.929 1_455 S
C641 C640 1.363 . S
C641 C647 1.428 . S
H642 C638 0.930 . S
H643 C640 0.929 1_655 S
S644 N645 1.613 . S
S644 N646 1.610 . S
N645 S644 1.613 . S
N645 C648 1.350 . S
N646 S644 1.610 . S
N646 C647 1.351 . S
C647 C641 1.428 . S
C647 N646 1.351 . S
C647 C648 1.434 . S
C648 C639 1.429 . S
C648 N645 1.350 . S
C648 C647 1.434 . S
C649 C650 1.369 . S
C649 C651 1.419 . S
C649 H653 0.930 . S
C650 C649 1.369 . S
C650 C659 1.429 . S
C651 C649 1.419 . S
C651 C652 1.363 . S
C651 H654 0.929 . S
C652 C651 1.363 . S
C652 C658 1.428 . S
H653 C649 0.930 . S
H654 C651 0.929 . S
S655 N656 1.613 . S
S655 N657 1.610 . S
N656 S655 1.613 . S
N656 C659 1.350 . S
N657 S655 1.610 . S
N657 C658 1.351 . S
C658 C652 1.428 . S
C658 N657 1.351 . S
C658 C659 1.434 . S
C659 C650 1.429 . S
C659 N656 1.350 . S
C659 C658 1.434 . S
C397 C1 1.601 . S
C399 C328 1.551 . S
C408 C40 1.502 . S
C410 C350 1.469 . S
C421 C369 1.215 . S
C419 C99 1.512 . S
C430 C118 1.832 . S
C432 C390 1.444 . S
C443 C347 1.747 . S
C441 C16 1.785 . S
C454 C325 1.679 . S
C452 C60 1.699 . S
C465 C392 1.370 . S
C463 C79 1.432 . S
C476 C371 1.514 . S
C474 C138 1.520 . S
C485 C21 1.713 . S
C487 C389 1.681 . S
C498 C348 1.301 . S
C496 C94 1.640 . S
C507 C133 1.682 . S
C509 C330 1.592 . S
C518 C55 1.551 . S
C520 C368 1.566 . S
C531 C326 1.552 . S
C529 C157 1.627 . S
C540 C196 1.368 . S
C542 C346 1.342 . S
C551 C255 1.539 . S
C553 C372 1.253 . S
C562 C289 1.762 . S
C564 C393 1.371 . S
C573 C172 1.719 . S
C575 C349 1.706 . S
C586 C329 1.712 . S
C584 C216 1.775 . S
C597 C388 1.275 . S
C595 C235 1.329 . S
C608 C367 1.551 . S
C606 C294 1.575 . S
C617 C177 1.550 . S
C619 C391 1.542 . S
C630 C351 1.258 . S
C628 C250 1.558 . S
C641 C327 1.449 . S
C639 C274 1.536 . S
C650 C211 1.482 . S
C652 C370 1.496 . S
