# Generated by pormake.
# Topology ctn, (3,4)-cn, num edge types: 1
# Building blocks:
#     Node 0, Type 0, BuildingBlock: BETDIP_clean_linker_0, # of connection points: 3
#     Node 1, Type 0, BuildingBlock: BETDIP_clean_linker_0, # of connection points: 3
#     Node 2, Type 0, BuildingBlock: BETDIP_clean_linker_0, # of connection points: 3
#     Node 3, Type 0, BuildingBlock: BETDIP_clean_linker_0, # of connection points: 3
#     Node 4, Type 0, BuildingBlock: BETDIP_clean_linker_0, # of connection points: 3
#     Node 5, Type 0, BuildingBlock: BETDIP_clean_linker_0, # of connection points: 3
#     Node 6, Type 0, BuildingBlock: BETDIP_clean_linker_0, # of connection points: 3
#     Node 7, Type 0, BuildingBlock: BETDIP_clean_linker_0, # of connection points: 3
#     Node 8, Type 0, BuildingBlock: BETDIP_clean_linker_0, # of connection points: 3
#     Node 9, Type 0, BuildingBlock: BETDIP_clean_linker_0, # of connection points: 3
#     Node 10, Type 0, BuildingBlock: BETDIP_clean_linker_0, # of connection points: 3
#     Node 11, Type 0, BuildingBlock: BETDIP_clean_linker_0, # of connection points: 3
#     Node 12, Type 0, BuildingBlock: BETDIP_clean_linker_0, # of connection points: 3
#     Node 13, Type 0, BuildingBlock: BETDIP_clean_linker_0, # of connection points: 3
#     Node 14, Type 0, BuildingBlock: BETDIP_clean_linker_0, # of connection points: 3
#     Node 15, Type 0, BuildingBlock: BETDIP_clean_linker_0, # of connection points: 3
#     Node 16, Type 1, BuildingBlock: AZAVOO_clean_sbu_0, # of connection points: 4
#     Node 17, Type 1, BuildingBlock: AZAVOO_clean_sbu_0, # of connection points: 4
#     Node 18, Type 1, BuildingBlock: AZAVOO_clean_sbu_0, # of connection points: 4
#     Node 19, Type 1, BuildingBlock: AZAVOO_clean_sbu_0, # of connection points: 4
#     Node 20, Type 1, BuildingBlock: AZAVOO_clean_sbu_0, # of connection points: 4
#     Node 21, Type 1, BuildingBlock: AZAVOO_clean_sbu_0, # of connection points: 4
#     Node 22, Type 1, BuildingBlock: AZAVOO_clean_sbu_0, # of connection points: 4
#     Node 23, Type 1, BuildingBlock: AZAVOO_clean_sbu_0, # of connection points: 4
#     Node 24, Type 1, BuildingBlock: AZAVOO_clean_sbu_0, # of connection points: 4
#     Node 25, Type 1, BuildingBlock: AZAVOO_clean_sbu_0, # of connection points: 4
#     Node 26, Type 1, BuildingBlock: AZAVOO_clean_sbu_0, # of connection points: 4
#     Node 27, Type 1, BuildingBlock: AZAVOO_clean_sbu_0, # of connection points: 4
#     Edge 28, Type (0, 1), BuildingBlock: CIFDUS_clean_linker_0, # of connection points: 2
#     Edge 29, Type (0, 1), BuildingBlock: CIFDUS_clean_linker_0, # of connection points: 2
#     Edge 30, Type (0, 1), BuildingBlock: CIFDUS_clean_linker_0, # of connection points: 2
#     Edge 31, Type (0, 1), BuildingBlock: CIFDUS_clean_linker_0, # of connection points: 2
#     Edge 32, Type (0, 1), BuildingBlock: CIFDUS_clean_linker_0, # of connection points: 2
#     Edge 33, Type (0, 1), BuildingBlock: CIFDUS_clean_linker_0, # of connection points: 2
#     Edge 34, Type (0, 1), BuildingBlock: CIFDUS_clean_linker_0, # of connection points: 2
#     Edge 35, Type (0, 1), BuildingBlock: CIFDUS_clean_linker_0, # of connection points: 2
#     Edge 36, Type (0, 1), BuildingBlock: CIFDUS_clean_linker_0, # of connection points: 2
#     Edge 37, Type (0, 1), BuildingBlock: CIFDUS_clean_linker_0, # of connection points: 2
#     Edge 38, Type (0, 1), BuildingBlock: CIFDUS_clean_linker_0, # of connection points: 2
#     Edge 39, Type (0, 1), BuildingBlock: CIFDUS_clean_linker_0, # of connection points: 2
#     Edge 40, Type (0, 1), BuildingBlock: CIFDUS_clean_linker_0, # of connection points: 2
#     Edge 41, Type (0, 1), BuildingBlock: CIFDUS_clean_linker_0, # of connection points: 2
#     Edge 42, Type (0, 1), BuildingBlock: CIFDUS_clean_linker_0, # of connection points: 2
#     Edge 43, Type (0, 1), BuildingBlock: CIFDUS_clean_linker_0, # of connection points: 2
#     Edge 44, Type (0, 1), BuildingBlock: CIFDUS_clean_linker_0, # of connection points: 2
#     Edge 45, Type (0, 1), BuildingBlock: CIFDUS_clean_linker_0, # of connection points: 2
#     Edge 46, Type (0, 1), BuildingBlock: CIFDUS_clean_linker_0, # of connection points: 2
#     Edge 47, Type (0, 1), BuildingBlock: CIFDUS_clean_linker_0, # of connection points: 2
#     Edge 48, Type (0, 1), BuildingBlock: CIFDUS_clean_linker_0, # of connection points: 2
#     Edge 49, Type (0, 1), BuildingBlock: CIFDUS_clean_linker_0, # of connection points: 2
#     Edge 50, Type (0, 1), BuildingBlock: CIFDUS_clean_linker_0, # of connection points: 2
#     Edge 51, Type (0, 1), BuildingBlock: CIFDUS_clean_linker_0, # of connection points: 2
#     Edge 52, Type (0, 1), BuildingBlock: CIFDUS_clean_linker_0, # of connection points: 2
#     Edge 53, Type (0, 1), BuildingBlock: CIFDUS_clean_linker_0, # of connection points: 2
#     Edge 54, Type (0, 1), BuildingBlock: CIFDUS_clean_linker_0, # of connection points: 2
#     Edge 55, Type (0, 1), BuildingBlock: CIFDUS_clean_linker_0, # of connection points: 2
#     Edge 56, Type (0, 1), BuildingBlock: CIFDUS_clean_linker_0, # of connection points: 2
#     Edge 57, Type (0, 1), BuildingBlock: CIFDUS_clean_linker_0, # of connection points: 2
#     Edge 58, Type (0, 1), BuildingBlock: CIFDUS_clean_linker_0, # of connection points: 2
#     Edge 59, Type (0, 1), BuildingBlock: CIFDUS_clean_linker_0, # of connection points: 2
#     Edge 60, Type (0, 1), BuildingBlock: CIFDUS_clean_linker_0, # of connection points: 2
#     Edge 61, Type (0, 1), BuildingBlock: CIFDUS_clean_linker_0, # of connection points: 2
#     Edge 62, Type (0, 1), BuildingBlock: CIFDUS_clean_linker_0, # of connection points: 2
#     Edge 63, Type (0, 1), BuildingBlock: CIFDUS_clean_linker_0, # of connection points: 2
#     Edge 64, Type (0, 1), BuildingBlock: CIFDUS_clean_linker_0, # of connection points: 2
#     Edge 65, Type (0, 1), BuildingBlock: CIFDUS_clean_linker_0, # of connection points: 2
#     Edge 66, Type (0, 1), BuildingBlock: CIFDUS_clean_linker_0, # of connection points: 2
#     Edge 67, Type (0, 1), BuildingBlock: CIFDUS_clean_linker_0, # of connection points: 2
#     Edge 68, Type (0, 1), BuildingBlock: CIFDUS_clean_linker_0, # of connection points: 2
#     Edge 69, Type (0, 1), BuildingBlock: CIFDUS_clean_linker_0, # of connection points: 2
#     Edge 70, Type (0, 1), BuildingBlock: CIFDUS_clean_linker_0, # of connection points: 2
#     Edge 71, Type (0, 1), BuildingBlock: CIFDUS_clean_linker_0, # of connection points: 2
#     Edge 72, Type (0, 1), BuildingBlock: CIFDUS_clean_linker_0, # of connection points: 2
#     Edge 73, Type (0, 1), BuildingBlock: CIFDUS_clean_linker_0, # of connection points: 2
#     Edge 74, Type (0, 1), BuildingBlock: CIFDUS_clean_linker_0, # of connection points: 2
#     Edge 75, Type (0, 1), BuildingBlock: CIFDUS_clean_linker_0, # of connection points: 2
# Relax obj value: 0.068
# Max RMSD: 0.206
# Mean RMSD: 0.113
data_MOF--net-ctn--node1-AZAVOO_clean_sbu_0--node2-BETDIP_clean_linker_0--edge1-CIFDUS_clean_linker_0
_symmetry_space_group_name_H-M    P1
_symmetry_Int_Tables_number       1
_symmetry_cell_setting            triclinic
loop_
_symmetry_equiv_pos_as_xyz
'x, y, z'
_cell_length_a     44.756958
_cell_length_b     46.060185
_cell_length_c     50.468504
_cell_angle_alpha  93.465543
_cell_angle_beta   96.94329
_cell_angle_gamma 96.468967
loop_
_atom_site_label
_atom_site_type_symbol
_atom_site_fract_x
_atom_site_fract_y
_atom_site_fract_z
_atom_type_partial_charge
H0 H 0.006 0.04037 0.05263 0.0
H1 H 0.06229 0.00164 1.00112 0.0
H2 H 0.05815 0.97228 0.07994 0.0
H3 H 0.05352 0.03767 0.97505 0.0
C4 C 0.03956 0.05232 0.984 0.0
C5 C 0.02202 0.0249 0.04965 0.0
C6 C 0.03064 0.0067 0.06989 0.0
C7 C 0.03406 0.0241 0.02537 0.0
C8 C 0.05374 0.0033 0.02021 0.0
C9 C 0.0617 0.98379 0.03956 0.0
C10 C 0.05063 0.98616 0.06454 0.0
N11 N 0.02631 0.04545 0.0074 0.0
H12 H 0.27219 0.71344 0.21999 0.0
H13 H 0.36131 0.76019 0.23968 0.0
H14 H 0.32671 0.69779 0.29239 0.0
H15 H 0.33544 0.79574 0.21371 0.0
C16 C 0.32533 0.77979 0.19744 0.0
C17 C 0.29284 0.71854 0.23391 0.0
C18 C 0.29682 0.70346 0.25704 0.0
C19 C 0.3157 0.73938 0.22791 0.0
C20 C 0.34312 0.74515 0.24518 0.0
C21 C 0.34768 0.73009 0.26858 0.0
C22 C 0.32406 0.70945 0.2744 0.0
N23 N 0.31136 0.75206 0.20308 0.0
H24 H 0.95374 0.50269 0.02115 0.0
H25 H 0.0295 0.47823 0.0713 0.0
H26 H 0.98255 0.54882 0.0986 0.0
H27 H 0.04492 0.4752 0.02512 0.0
C28 C 0.02471 0.46009 0.01794 0.0
C29 C 0.96865 0.50578 0.03996 0.0
C30 C 0.96509 0.52786 0.05938 0.0
C31 C 0.99239 0.48865 0.04386 0.0
C32 C 0.01199 0.49253 0.06797 0.0
C33 C 0.00859 0.51396 0.08808 0.0
C34 C 0.98511 0.53181 0.08354 0.0
N35 N 0.9959 0.4672 0.02346 0.0
H36 H 0.70341 0.80017 0.1738 0.0
H37 H 0.75145 0.86898 0.23003 0.0
H38 H 0.78714 0.84634 0.15739 0.0
H39 H 0.70842 0.86741 0.24792 0.0
C40 C 0.69623 0.84563 0.24321 0.0
C41 C 0.72217 0.81734 0.17934 0.0
C42 C 0.74477 0.82177 0.16259 0.0
C43 C 0.7237 0.83477 0.20336 0.0
C44 C 0.74885 0.85632 0.21098 0.0
C45 C 0.77196 0.86033 0.19452 0.0
C46 C 0.76933 0.84341 0.17014 0.0
N47 N 0.70058 0.82848 0.21993 0.0
H48 H 0.02235 0.98079 0.4596 0.0
H49 H 0.1001 0.01982 0.51411 0.0
H50 H 0.06848 0.06442 0.44574 0.0
H51 H 0.10393 0.97029 0.51928 0.0
C52 C 0.08057 0.96121 0.51993 0.0
C53 C 0.0402 0.99873 0.46558 0.0
C54 C 0.04289 0.02287 0.44996 0.0
C55 C 0.06076 0.99725 0.48863 0.0
C56 C 0.08431 0.0204 0.49618 0.0
C57 C 0.08679 0.04496 0.48096 0.0
C58 C 0.06597 0.04598 0.45801 0.0
N59 N 0.05682 0.97232 0.50378 0.0
H60 H 0.18876 0.74685 0.80112 0.0
H61 H 0.22306 0.68371 0.75036 0.0
H62 H 0.26971 0.70948 0.82916 0.0
H63 H 0.19679 0.70403 0.7176 0.0
C64 C 0.17742 0.71172 0.72561 0.0
C65 C 0.20585 0.73257 0.79789 0.0
C66 C 0.22968 0.73047 0.81825 0.0
C67 C 0.20352 0.71632 0.77324 0.0
C68 C 0.22493 0.69686 0.76909 0.0
C69 C 0.24893 0.69417 0.78923 0.0
C70 C 0.25121 0.71128 0.81363 0.0
N71 N 0.17898 0.71981 0.75342 0.0
H72 H 0.984 0.56001 0.4559 0.0
H73 H 0.92913 0.47922 0.42652 0.0
H74 H 0.90853 0.52764 0.49592 0.0
H75 H 0.94942 0.48751 0.38795 0.0
C76 C 0.97197 0.49886 0.39438 0.0
C77 C 0.96469 0.54401 0.45737 0.0
C78 C 0.94689 0.54732 0.47825 0.0
C79 C 0.95821 0.52 0.43831 0.0
C80 C 0.93383 0.49849 0.44042 0.0
C81 C 0.91631 0.50104 0.46155 0.0
C82 C 0.92276 0.52552 0.48016 0.0
N83 N 0.97783 0.51766 0.41832 0.0
H84 H 0.7844 0.81161 0.74585 0.0
H85 H 0.81623 0.74942 0.79881 0.0
H86 H 0.75103 0.80476 0.822 0.0
H87 H 0.85628 0.75116 0.77447 0.0
C88 C 0.85046 0.76137 0.75602 0.0
C89 C 0.78414 0.80221 0.76497 0.0
C90 C 0.7652 0.81152 0.78328 0.0
C91 C 0.80363 0.78118 0.77091 0.0
C92 C 0.80247 0.76687 0.79473 0.0
C93 C 0.7823 0.77438 0.81276 0.0
C94 C 0.76474 0.79747 0.80724 0.0
N95 N 0.82377 0.77544 0.752 0.0
H96 H 0.28239 0.29566 0.2315 0.0
H97 H 0.32446 0.25073 0.29499 0.0
H98 H 0.25806 0.30827 0.3109 0.0
H99 H 0.36548 0.25922 0.26938 0.0
C100 C 0.35528 0.25882 0.24869 0.0
C101 C 0.28459 0.29113 0.25242 0.0
C102 C 0.26835 0.30549 0.2703 0.0
C103 C 0.30554 0.27246 0.2613 0.0
C104 C 0.30842 0.26544 0.28815 0.0
C105 C 0.2906 0.27762 0.30615 0.0
C106 C 0.2709 0.29789 0.297 0.0
N107 N 0.32415 0.26246 0.24264 0.0
H108 H 0.44441 0.99914 0.51637 0.0
H109 H 0.52878 0.97403 0.55145 0.0
H110 H 0.49129 0.04526 0.58932 0.0
H111 H 0.53081 0.96783 0.50185 0.0
C112 C 0.50971 0.95316 0.49947 0.0
C113 C 0.46353 0.00259 0.53205 0.0
C114 C 0.46509 0.02498 0.55258 0.0
C115 C 0.48665 0.98471 0.53126 0.0
C116 C 0.51127 0.98846 0.55166 0.0
C117 C 0.51284 0.00988 0.57294 0.0
C118 C 0.48965 0.02812 0.57334 0.0
N119 N 0.48416 0.96224 0.51034 0.0
H120 H 0.20807 0.27626 0.68664 0.0
H121 H 0.24286 0.3535 0.73876 0.0
H122 H 0.29084 0.3273 0.67432 0.0
H123 H 0.19898 0.34701 0.75531 0.0
C124 C 0.18787 0.32499 0.74953 0.0
C125 C 0.22497 0.2951 0.69227 0.0
C126 C 0.24961 0.2998 0.6778 0.0
C127 C 0.22178 0.31455 0.71392 0.0
C128 C 0.24414 0.33876 0.72154 0.0
C129 C 0.26933 0.34319 0.70743 0.0
C130 C 0.27153 0.32391 0.68535 0.0
N131 N 0.19652 0.30786 0.728 0.0
H132 H 0.78541 0.21079 0.70493 0.0
H133 H 0.86417 0.26969 0.73873 0.0
H134 H 0.84037 0.18919 0.77483 0.0
H135 H 0.83567 0.30345 0.71512 0.0
C136 C 0.82706 0.28997 0.69679 0.0
C137 C 0.80466 0.21642 0.72032 0.0
C138 C 0.81042 0.19739 0.74033 0.0
C139 C 0.82386 0.24243 0.71957 0.0
C140 C 0.84912 0.24969 0.73932 0.0
C141 C 0.8551 0.23068 0.75966 0.0
C142 C 0.83573 0.20442 0.75971 0.0
N143 N 0.81786 0.25958 0.69761 0.0
H144 H 0.51339 0.55383 0.56244 0.0
H145 H 0.57816 0.5187 0.51764 0.0
H146 H 0.55084 0.4759 0.58585 0.0
H147 H 0.5589 0.54479 0.48479 0.0
C148 C 0.55114 0.56342 0.49498 0.0
C149 C 0.52747 0.53666 0.55907 0.0
C150 C 0.53028 0.51487 0.57719 0.0
C151 C 0.54367 0.53752 0.53705 0.0
C152 C 0.56391 0.51678 0.53342 0.0
C153 C 0.56714 0.49458 0.55118 0.0
C154 C 0.54945 0.4934 0.57253 0.0
N155 N 0.54061 0.56101 0.52031 0.0
H156 H 0.51036 0.48924 0.95384 0.0
H157 H 0.59063 0.5211 0.00837 0.0
H158 H 0.56448 0.56901 0.94066 0.0
H159 H 0.58774 0.47329 0.01834 0.0
C160 C 0.56374 0.46531 0.01619 0.0
C161 C 0.52991 0.50547 0.95972 0.0
C162 C 0.53497 0.52955 0.94436 0.0
C163 C 0.5499 0.50191 0.98261 0.0
C164 C 0.57536 0.52299 0.99039 0.0
C165 C 0.58035 0.54751 0.97548 0.0
C166 C 0.56012 0.55053 0.95256 0.0
N167 N 0.54299 0.4773 0.99752 0.0
H168 H 0.69399 0.22987 0.29855 0.0
H169 H 0.74144 0.18856 0.2403 0.0
H170 H 0.78343 0.20585 0.32139 0.0
H171 H 0.69448 0.17148 0.22209 0.0
C172 C 0.68216 0.19033 0.22414 0.0
C173 C 0.71396 0.22059 0.29349 0.0
C174 C 0.73862 0.2193 0.31336 0.0
C175 C 0.71435 0.20887 0.26724 0.0
C176 C 0.74032 0.19688 0.26061 0.0
C177 C 0.76509 0.19532 0.28015 0.0
C178 C 0.76404 0.20653 0.30642 0.0
N179 N 0.68856 0.20954 0.24783 0.0
H180 H 0.50029 0.05968 0.95602 0.0
H181 H 0.46744 0.96798 0.94661 0.0
H182 H 0.4318 0.02443 0.00252 0.0
H183 H 0.52066 0.96748 0.94336 0.0
C184 C 0.52198 0.98341 0.92837 0.0
C185 C 0.48562 0.04141 0.96173 0.0
C186 C 0.46576 0.04589 0.98084 0.0
C187 C 0.48704 0.01327 0.95004 0.0
C188 C 0.46738 0.9895 0.95651 0.0
C189 C 0.44683 0.99359 0.97493 0.0
C190 C 0.4466 0.02167 0.98732 0.0
N191 N 0.50798 0.00943 0.93143 0.0
Mg192 Mg 0.24164 0.85015 0.01455 0.0
O193 O 0.28448 0.87945 0.00709 0.0
O194 O 0.3232 0.85292 0.01405 0.0
Mg195 Mg 0.30598 0.80784 0.02682 0.0
C196 C 0.31264 0.87656 0.00773 0.0
C197 C 0.18522 0.87811 0.00849 0.0
O198 O 0.18097 0.85494 0.02219 0.0
O199 O 0.2412 0.824 0.97394 0.0
O200 O 0.27854 0.79679 0.98538 0.0
O201 O 0.24989 0.86506 0.05815 0.0
O202 O 0.26743 0.82648 0.04052 0.0
C203 C 0.2572 0.80354 0.96855 0.0
C204 C 0.26596 0.8436 0.06127 0.0
O205 O 0.21007 0.88269 0.99865 0.0
Mg206 Mg 0.1578 0.50769 0.27469 0.0
O207 O 0.13331 0.50968 0.23149 0.0
O208 O 0.17052 0.51133 0.20561 0.0
Mg209 Mg 0.21683 0.51142 0.2301 0.0
C210 C 0.14251 0.5109 0.20847 0.0
C211 C 0.11842 0.50667 0.31718 0.0
O212 O 0.14605 0.51825 0.32692 0.0
O213 O 0.16481 0.459 0.26683 0.0
O214 O 0.20302 0.46537 0.24224 0.0
O215 O 0.16697 0.55719 0.28004 0.0
O216 O 0.19807 0.52848 0.26471 0.0
C217 C 0.18516 0.44882 0.25438 0.0
C218 C 0.19238 0.5545 0.27089 0.0
O219 O 0.11348 0.49748 0.29256 0.0
Mg220 Mg 0.807 0.68428 0.0139 0.0
O221 O 0.76112 0.65387 0.00581 0.0
O222 O 0.72563 0.68442 1.00159 0.0
Mg223 Mg 0.74683 0.73195 0.00489 0.0
C224 C 0.73327 0.65855 0.00221 0.0
C225 C 0.86224 0.65498 0.02343 0.0
O226 O 0.86859 0.68272 0.03217 0.0
O227 O 0.80506 0.69343 0.96921 0.0
O228 O 0.76858 0.72302 0.96671 0.0
O229 O 0.80274 0.68743 0.05752 0.0
O230 O 0.78553 0.7183 0.02935 0.0
C231 C 0.78814 0.70964 0.956 0.0
C232 C 0.78804 0.70964 0.05319 0.0
O233 O 0.83578 0.64633 0.01133 0.0
Mg234 Mg 0.94512 0.05494 0.25082 0.0
O235 O 0.90966 0.01464 0.23889 0.0
O236 O 0.9348 0.97704 0.22884 0.0
Mg237 Mg 0.98549 0.9929 0.23304 0.0
C238 C 0.9101 0.98763 0.23166 0.0
C239 C 0.90069 0.10148 0.25635 0.0
O240 O 0.91357 0.10963 0.23551 0.0
O241 O 0.95906 0.03638 0.29085 0.0
O242 O 0.98529 1.00035 0.27864 0.0
O243 O 0.94333 0.06674 0.20842 0.0
O244 O 0.97454 0.03743 0.22643 0.0
C245 C 0.97502 0.01576 0.29663 0.0
C246 C 0.964 0.0497 0.20562 0.0
O247 O 0.90902 0.07943 0.26799 0.0
Mg248 Mg 0.30785 0.18873 0.50754 0.0
O249 O 0.26216 0.15912 0.50255 0.0
O250 O 0.22593 0.18871 0.49745 0.0
Mg251 Mg 0.24743 0.23654 0.49944 0.0
C252 C 0.23419 0.16314 0.49915 0.0
C253 C 0.3415 0.13601 0.52425 0.0
O254 O 0.33161 0.14445 0.54658 0.0
O255 O 0.3029 0.19595 0.46223 0.0
O256 O 0.26906 0.22833 0.46119 0.0
O257 O 0.306 0.19535 0.55193 0.0
O258 O 0.28784 0.22419 0.52239 0.0
C259 C 0.28741 0.21392 0.44986 0.0
C260 C 0.29174 0.21765 0.54681 0.0
O261 O 0.33418 0.14891 0.5032 0.0
Mg262 Mg 0.42047 0.55551 0.74572 0.0
O263 O 0.38846 0.51202 0.73806 0.0
O264 O 0.41741 0.4769 0.72962 0.0
Mg265 Mg 0.46667 0.49676 0.73154 0.0
C266 C 0.39164 0.48515 0.7326 0.0
C267 C 0.39035 0.60512 0.7721 0.0
O268 O 0.41918 0.61571 0.77554 0.0
O269 O 0.43809 0.54234 0.78761 0.0
O270 O 0.4663 0.50744 0.77644 0.0
O271 O 0.41572 0.56179 0.70161 0.0
O272 O 0.45118 0.53884 0.72242 0.0
C273 C 0.45572 0.52313 0.79399 0.0
C274 C 0.43857 0.54708 0.70032 0.0
O275 O 0.38278 0.57932 0.7611 0.0
Mg276 Mg 0.73183 0.34427 0.50891 0.0
O277 O 0.77514 0.37387 0.50243 0.0
O278 O 0.81307 0.3458 0.50642 0.0
Mg279 Mg 0.79433 0.29865 0.51198 0.0
C280 C 0.80312 0.37036 0.50279 0.0
C281 C 0.684 0.38228 0.51736 0.0
O282 O 0.68599 0.36453 0.53674 0.0
O283 O 0.72817 0.32424 0.46544 0.0
O284 O 0.76548 0.29575 0.47098 0.0
O285 O 0.74381 0.35248 0.55367 0.0
O286 O 0.75764 0.31588 0.52989 0.0
C287 C 0.7437 0.30503 0.45638 0.0
C288 C 0.75851 0.32995 0.55276 0.0
O289 O 0.70089 0.37983 0.49895 0.0
Mg290 Mg 0.66307 0.01299 0.7671 0.0
O291 O 0.63266 0.01085 0.7265 0.0
O292 O 0.66328 0.017 0.695 0.0
Mg293 Mg 0.71264 0.02344 0.71473 0.0
C294 C 0.63675 0.01297 0.70202 0.0
C295 C 0.62589 0.98711 0.81054 0.0
O296 O 0.65304 0.98116 0.81989 0.0
O297 O 0.67653 0.9664 0.75894 0.0
O298 O 0.70888 0.97747 0.7296 0.0
O299 O 0.66476 0.06219 0.77074 0.0
O300 O 0.69796 0.03837 0.75237 0.0
C301 C 0.69641 0.95926 0.74427 0.0
C302 C 0.68874 0.06292 0.75871 0.0
O303 O 0.62215 0.99797 0.78797 0.0
Mg304 Mg 0.05449 0.25881 0.90797 0.0
O305 O 0.00711 0.24954 0.88296 0.0
O306 O 0.97581 0.23049 0.91048 0.0
Mg307 Mg 1.00175 0.22708 0.95158 0.0
C308 C 0.98067 0.23919 0.88766 0.0
C309 C 0.07559 0.27408 0.85354 0.0
O310 O 0.06485 0.24632 0.84828 0.0
O311 O 0.0394 0.29851 0.92958 0.0
O312 O 0.00836 0.27742 0.95637 0.0
O313 O 0.06508 0.21349 0.89733 0.0
O314 O 0.04315 0.22563 0.93254 0.0
C315 C 0.02169 0.30016 0.94752 0.0
C316 C 0.05263 0.20552 0.918 0.0
O317 O 0.07313 0.28646 0.87624 0.0
Mg318 Mg 0.56863 0.75436 0.39319 0.0
O319 O 0.52081 0.7424 0.36964 0.0
O320 O 0.49014 0.72612 0.39896 0.0
Mg321 Mg 0.51676 0.73057 0.44077 0.0
C322 C 0.49487 0.73187 0.3753 0.0
C323 C 0.60391 0.80053 0.36307 0.0
O324 O 0.60975 0.81183 0.38794 0.0
O325 O 0.55401 0.79663 0.41001 0.0
O326 O 0.52341 0.78087 0.43941 0.0
O327 O 0.57858 0.70785 0.38824 0.0
O328 O 0.55799 0.7261 0.42214 0.0
C329 C 0.53682 0.80155 0.42778 0.0
C330 C 0.56682 0.70378 0.41014 0.0
O331 O 0.58633 0.77664 0.35792 0.0
Mg332 Mg 0.98158 0.75104 0.59068 0.0
O333 O 0.02783 0.74068 0.61133 0.0
O334 O 0.05653 0.73317 0.57885 0.0
Mg335 Mg 0.03041 0.73985 0.53846 0.0
C336 C 0.05266 0.7344 0.60353 0.0
C337 C 0.94163 0.77588 0.62943 0.0
O338 O 0.93004 0.78296 0.60585 0.0
O339 O 1.00212 0.79795 0.58429 0.0
O340 O 0.03056 0.78846 0.55192 0.0
O341 O 0.96498 0.70312 0.58401 0.0
O342 O 0.98801 0.72844 0.55504 0.0
C343 C 0.02032 0.80646 0.56781 0.0
C344 C 0.97596 0.70358 0.56145 0.0
O345 O 0.96583 0.76367 0.63103 0.0
Mg346 Mg 0.49052 0.25348 0.0856 0.0
O347 O 0.53149 0.24276 0.11415 0.0
O348 O 0.56739 0.23227 0.08911 0.0
Mg349 Mg 0.55089 0.23799 0.04541 0.0
C350 C 0.55769 0.23513 0.11178 0.0
C351 C 0.43885 0.26589 0.11721 0.0
O352 O 0.42558 0.25893 0.09261 0.0
O353 O 0.51494 0.29922 0.08096 0.0
O354 O 0.5503 0.28733 0.05574 0.0
O355 O 0.47203 0.20623 0.07856 0.0
O356 O 0.50412 0.22833 0.05411 0.0
C357 C 0.53727 0.30637 0.06809 0.0
C358 C 0.4887 0.20456 0.05944 0.0
O359 O 0.46763 0.26799 0.12159 0.0
H360 H 0.24576 0.7132 0.86807 0.0
H361 H 0.21836 0.78745 0.82729 0.0
H362 H 0.22209 0.81613 0.87016 0.0
H363 H 0.2352 0.82076 0.91954 0.0
H364 H 0.26569 0.7469 0.9591 0.0
H365 H 0.25901 0.71774 0.91652 0.0
C366 C 0.24094 0.73576 0.86844 0.0
C367 C 0.23189 0.74806 0.84437 0.0
C368 C 0.24371 0.75232 0.89307 0.0
C369 C 0.22505 0.7772 0.84547 0.0
C370 C 0.22735 0.79372 0.87001 0.0
C371 C 0.2401 0.79822 0.91877 0.0
C372 C 0.25098 0.78608 0.94245 0.0
C373 C 0.23682 0.78157 0.89398 0.0
C374 C 0.2575 0.75689 0.94115 0.0
C375 C 0.25368 0.74013 0.9168 0.0
H376 H 0.0319 0.51912 0.40581 0.0
H377 H 0.96576 0.47401 0.34334 0.0
H378 H 0.00505 0.47184 0.31354 0.0
H379 H 0.05842 0.4838 0.30516 0.0
H380 H 0.1237 0.52829 0.3689 0.0
H381 H 0.08456 0.52958 0.39813 0.0
C382 C 0.02598 0.50884 0.38566 0.0
C383 C 0.99592 0.49696 0.37668 0.0
C384 C 0.04861 0.50755 0.36882 0.0
C385 C 0.98879 0.4834 0.35064 0.0
C386 C 0.01123 0.48218 0.33361 0.0
C387 C 0.06404 0.49368 0.32546 0.0
C388 C 0.09402 0.50601 0.33468 0.0
C389 C 0.04126 0.49433 0.34245 0.0
C390 C 0.1009 0.51865 0.36113 0.0
C391 C 0.07849 0.51946 0.37796 0.0
H392 H 0.82616 0.75322 0.84725 0.0
H393 H 0.72977 0.75813 0.833 0.0
H394 H 0.72304 0.7365 0.87491 0.0
H395 H 0.74456 0.71979 0.9172 0.0
H396 H 0.84021 0.71258 0.93189 0.0
H397 H 0.84703 0.7306 0.88793 0.0
C398 C 0.80363 0.74913 0.85309 0.0
C399 C 0.77865 0.75815 0.83718 0.0
C400 C 0.79973 0.73619 0.8773 0.0
C401 C 0.74961 0.75245 0.84516 0.0
C402 C 0.74563 0.73981 0.86908 0.0
C403 C 0.76687 0.72177 0.91064 0.0
C404 C 0.79188 0.71514 0.92786 0.0
C405 C 0.77057 0.73223 0.88557 0.0
C406 C 0.82056 0.71745 0.91896 0.0
C407 C 0.82448 0.728 0.89391 0.0
H408 H 0.03178 0.98076 0.40898 0.0
H409 H 0.01106 0.06686 0.43297 0.0
H410 H 0.98529 0.07113 0.38801 0.0
H411 H 0.9732 0.05234 0.34083 0.0
H412 H 0.99668 0.96726 0.3164 0.0
H413 H 0.01647 0.96052 0.36251 0.0
C414 C 0.021 1.00015 0.40447 0.0
C415 C 0.02327 0.02346 0.42417 0.0
C416 C 0.00701 0.00277 0.3784 0.0
C417 C 0.00966 0.04869 0.41802 0.0
C418 C 0.99501 0.05116 0.39233 0.0
C419 C 0.98222 0.03214 0.34565 0.0
C420 C 0.98365 0.01047 0.3251 0.0
C421 C 0.99424 0.02865 0.37217 0.0
C422 C 0.99555 0.98446 0.33174 0.0
C423 C 0.00688 0.98055 0.35813 0.0
H424 H 0.25283 0.31235 0.62674 0.0
H425 H 0.25534 0.24164 0.67871 0.0
H426 H 0.26791 0.20915 0.64238 0.0
H427 H 0.28138 0.20212 0.59653 0.0
H428 H 0.27661 0.27284 0.5444 0.0
H429 H 0.26158 0.30403 0.57997 0.0
C430 C 0.25581 0.2897 0.6299 0.0
C431 C 0.25337 0.27928 0.65517 0.0
C432 C 0.26279 0.27128 0.60898 0.0
C433 C 0.25703 0.24994 0.65924 0.0
C434 C 0.26437 0.23149 0.63857 0.0
C435 C 0.27684 0.2243 0.59297 0.0
C436 C 0.28036 0.23525 0.56798 0.0
C437 C 0.26783 0.24209 0.61347 0.0
C438 C 0.27406 0.26389 0.56348 0.0
C439 C 0.26555 0.2818 0.58382 0.0
H440 H 0.47385 0.53042 0.5832 0.0
H441 H 0.55301 0.50256 0.62755 0.0
H442 H 0.5306 0.50797 0.66888 0.0
H443 H 0.49037 0.52383 0.69309 0.0
H444 H 0.4124 0.55449 0.64963 0.0
H445 H 0.43281 0.54529 0.60747 0.0
C446 C 0.48629 0.5256 0.60188 0.0
C447 C 0.51517 0.51603 0.60203 0.0
C448 C 0.47361 0.52953 0.62587 0.0
C449 C 0.53058 0.50943 0.62653 0.0
C450 C 0.5179 0.51282 0.65033 0.0
C451 C 0.47761 0.5282 0.67439 0.0
C452 C 0.44985 0.53981 0.67456 0.0
C453 C 0.48966 0.52324 0.65029 0.0
C454 C 0.43384 0.5456 0.65011 0.0
C455 C 0.44551 0.54035 0.62598 0.0
H456 H 0.82024 0.26468 0.64647 0.0
H457 H 0.81463 0.34611 0.69127 0.0
H458 H 0.794 0.36672 0.65014 0.0
H459 H 0.77395 0.35981 0.60192 0.0
H460 H 0.78095 0.27801 0.55789 0.0
H461 H 0.80477 0.25936 0.59824 0.0
C462 C 0.81467 0.28702 0.6472 0.0
C463 C 0.81841 0.30378 0.6718 0.0
C464 C 0.80296 0.29856 0.62364 0.0
C465 C 0.81176 0.33284 0.67246 0.0
C466 C 0.79986 0.34453 0.64901 0.0
C467 C 0.78094 0.33801 0.60116 0.0
C468 C 0.77547 0.32027 0.57695 0.0
C469 C 0.79476 0.32734 0.62455 0.0
C470 C 0.78491 0.29217 0.5762 0.0
C471 C 0.79845 0.2814 0.59931 0.0
H472 H 0.51182 0.01046 0.62693 0.0
H473 H 0.5726 0.01546 0.56684 0.0
H474 H 0.61609 0.01665 0.60133 0.0
H475 H 0.63681 0.01516 0.64823 0.0
H476 H 0.57644 0.00901 0.70877 0.0
H477 H 0.53293 0.00918 0.67449 0.0
C478 C 0.53464 0.01216 0.62152 0.0
C479 C 0.53904 0.01294 0.59442 0.0
C480 C 0.55959 0.01232 0.64148 0.0
C481 C 0.56867 0.01473 0.58757 0.0
C482 C 0.59353 0.01537 0.60727 0.0
C483 C 0.61417 0.01382 0.65403 0.0
C484 C 0.61006 0.01203 0.68115 0.0
C485 C 0.58925 0.0139 0.63424 0.0
C486 C 0.58041 0.0103 0.6881 0.0
C487 C 0.55546 0.0105 0.66849 0.0
H488 H 0.85595 0.22391 0.81255 0.0
H489 H 0.9137 0.2525 0.7543 0.0
H490 H 0.95783 0.25864 0.7889 0.0
H491 H 0.98029 0.25302 0.83538 0.0
H492 H 0.92143 0.22223 0.89233 0.0
H493 H 0.87772 0.21923 0.85838 0.0
C494 C 0.87822 0.23139 0.80735 0.0
C495 C 0.88155 0.23743 0.78083 0.0
C496 C 0.90342 0.23414 0.82707 0.0
C497 C 0.91045 0.24783 0.77461 0.0
C498 C 0.93573 0.25109 0.79433 0.0
C499 C 0.95791 0.24569 0.84036 0.0
C500 C 0.95437 0.2377 0.86644 0.0
C501 C 0.93255 0.24384 0.82058 0.0
C502 C 0.92507 0.22835 0.87248 0.0
C503 C 0.89992 0.22669 0.85308 0.0
H504 H 0.54945 0.9352 0.46794 0.0
H505 H 0.46665 0.90589 0.49925 0.0
H506 H 0.46701 0.85658 0.4786 0.0
H507 H 0.49251 0.82119 0.45392 0.0
H508 H 0.57452 0.8508 0.42134 0.0
H509 H 0.57259 0.90065 0.43988 0.0
C510 C 0.53138 0.91801 0.46998 0.0
C511 C 0.50821 0.92403 0.48515 0.0
C512 C 0.53161 0.88979 0.45789 0.0
C513 C 0.48474 0.90177 0.48761 0.0
C514 C 0.48498 0.87355 0.47589 0.0
C515 C 0.50985 0.83858 0.45072 0.0
C516 C 0.5338 0.8322 0.43653 0.0
C517 C 0.50855 0.86722 0.46133 0.0
C518 C 0.55585 0.85508 0.43222 0.0
C519 C 0.55485 0.88359 0.44291 0.0
H520 H 0.16747 0.3506 0.79247 0.0
H521 H 0.15413 0.27106 0.74047 0.0
H522 H 0.11658 0.24944 0.76693 0.0
H523 H 0.08963 0.25183 0.80619 0.0
H524 H 0.10324 0.33071 0.85909 0.0
H525 H 0.13815 0.35392 0.83078 0.0
C526 C 0.15614 0.32862 0.7869 0.0
C527 C 0.16376 0.31246 0.76469 0.0
C528 C 0.13459 0.31614 0.80235 0.0
C529 C 0.14889 0.28401 0.75756 0.0
C530 C 0.12735 0.27157 0.77268 0.0
C531 C 0.09995 0.27421 0.81143 0.0
C532 C 0.09394 0.28939 0.83485 0.0
C533 C 0.12033 0.28727 0.79531 0.0
C534 C 0.10752 0.31843 0.84124 0.0
C535 C 0.12758 0.33171 0.8251 0.0
H536 H 0.56735 0.5746 0.44625 0.0
H537 H 0.53402 0.61489 0.51454 0.0
H538 H 0.53495 0.6612 0.49368 0.0
H539 H 0.54689 0.69079 0.4571 0.0
H540 H 0.58017 0.65152 0.38837 0.0
H541 H 0.5776 0.60431 0.40834 0.0
C542 C 0.56019 0.59355 0.45644 0.0
C543 C 0.55073 0.5913 0.48189 0.0
C544 C 0.5608 0.62028 0.44431 0.0
C545 C 0.54145 0.61594 0.49494 0.0
C546 C 0.54197 0.6425 0.48304 0.0
C547 C 0.55322 0.67188 0.44624 0.0
C548 C 0.56358 0.6747 0.42121 0.0
C549 C 0.5518 0.64497 0.45785 0.0
C550 C 0.57207 0.64996 0.40766 0.0
C551 C 0.57065 0.62297 0.41909 0.0
H552 H 0.84721 0.79104 0.71074 0.0
H553 H 0.90133 0.73405 0.7551 0.0
H554 H 0.93589 0.73489 0.72085 0.0
H555 H 0.94945 0.75047 0.67723 0.0
H556 H 0.89434 0.8073 0.6335 0.0
H557 H 0.86173 0.80811 0.66875 0.0
C558 C 0.86653 0.77874 0.71301 0.0
C559 C 0.87153 0.76223 0.73536 0.0
C560 C 0.88625 0.77943 0.69336 0.0
C561 C 0.89691 0.74677 0.73799 0.0
C562 C 0.91668 0.74729 0.71843 0.0
C563 C 0.93054 0.76333 0.67559 0.0
C564 C 0.92436 0.77873 0.65263 0.0
C565 C 0.91147 0.76341 0.6959 0.0
C566 C 0.89962 0.79514 0.65082 0.0
C567 C 0.88085 0.79557 0.67097 0.0
H568 H 0.02868 0.93793 0.53837 0.0
H569 H 0.11982 0.92138 0.52879 0.0
H570 H 0.11001 0.87256 0.54476 0.0
H571 H 0.07431 0.83325 0.55805 0.0
H572 H 0.9841 0.85027 0.57046 0.0
H573 H 0.99481 0.90041 0.5573 0.0
C574 C 0.04639 0.92364 0.53998 0.0
C575 C 0.07478 0.93292 0.53199 0.0
C576 C 0.04076 0.89579 0.54974 0.0
C577 C 0.09775 0.91455 0.53466 0.0
C578 C 0.09214 0.88665 0.54375 0.0
C579 C 0.05717 0.84813 0.55828 0.0
C580 C 0.02839 0.83808 0.565 0.0
C581 C 0.06358 0.87686 0.55088 0.0
C582 C 0.00647 0.85759 0.5655 0.0
C583 C 0.01251 0.88616 0.55774 0.0
H584 H 0.17164 0.7044 0.67191 0.0
H585 H 0.12368 0.73033 0.73688 0.0
H586 H 0.08066 0.7392 0.70492 0.0
H587 H 0.0569 0.74019 0.6583 0.0
H588 H 0.10579 0.71478 0.59357 0.0
H589 H 0.14799 0.70517 0.62559 0.0
C590 C 0.15172 0.71194 0.67903 0.0
C591 C 0.15088 0.71674 0.70664 0.0
C592 C 0.12717 0.71716 0.66057 0.0
C593 C 0.12497 0.72653 0.71569 0.0
C594 C 0.10033 0.7316 0.69741 0.0
C595 C 0.07673 0.73249 0.65118 0.0
C596 C 0.07802 0.7283 0.62347 0.0
C597 C 0.10121 0.72709 0.66977 0.0
C598 C 0.10405 0.71834 0.61471 0.0
C599 C 0.12829 0.71278 0.63302 0.0
H600 H 0.96561 0.60377 0.46861 0.0
H601 H 0.94254 0.55012 0.5322 0.0
H602 H 0.94981 0.59349 0.56354 0.0
H603 H 0.96141 0.64697 0.57272 0.0
H604 H 0.98693 0.69996 0.50953 0.0
H605 H 0.98085 0.6564 0.47851 0.0
C606 C 0.96269 0.60136 0.48941 0.0
C607 C 0.95321 0.57358 0.49782 0.0
C608 C 0.96745 0.62633 0.50751 0.0
C609 C 0.94913 0.57121 0.52487 0.0
C610 C 0.95352 0.59601 0.54293 0.0
C611 C 0.96583 0.64894 0.55221 0.0
C612 C 0.9745 0.67671 0.54346 0.0
C613 C 0.96238 0.62373 0.53442 0.0
C614 C 0.98032 0.67887 0.51685 0.0
C615 C 0.97673 0.65396 0.49903 0.0
H616 H 0.77763 0.91838 0.2116 0.0
H617 H 0.82945 0.84699 0.19669 0.0
H618 H 0.87658 0.87994 0.20719 0.0
H619 H 0.90298 0.92899 0.21888 0.0
H620 H 0.85209 0.00131 0.23346 0.0
H621 H 0.80476 0.96809 0.22483 0.0
C622 C 0.79931 0.91012 0.21098 0.0
C623 C 0.80015 0.88041 0.20323 0.0
C624 C 0.82644 0.92934 0.21674 0.0
C625 C 0.8283 0.86988 0.20232 0.0
C626 C 0.85523 0.88868 0.20833 0.0
C627 C 0.8816 0.93762 0.22021 0.0
C628 C 0.88121 0.96769 0.22668 0.0
C629 C 0.85456 0.91849 0.2152 0.0
C630 C 0.85315 0.97828 0.22843 0.0
C631 C 0.82603 0.95929 0.22352 0.0
H632 H 0.79392 0.15456 0.30668 0.0
H633 H 0.79599 0.20506 0.23754 0.0
H634 H 0.83853 0.181 0.22455 0.0
H635 H 0.87426 0.14492 0.23219 0.0
H636 H 0.87176 0.09338 0.30071 0.0
H637 H 0.83042 0.11869 0.31469 0.0
C638 C 0.80393 0.16048 0.28893 0.0
C639 C 0.79182 0.18153 0.27307 0.0
C640 C 0.82822 0.14633 0.28144 0.0
C641 C 0.80473 0.18873 0.24993 0.0
C642 C 0.8291 0.17504 0.24254 0.0
C643 C 0.8648 0.13926 0.25026 0.0
C644 C 0.87615 0.11725 0.26536 0.0
C645 C 0.84087 0.15367 0.25802 0.0
C646 C 0.86347 0.11019 0.28867 0.0
C647 C 0.83982 0.12466 0.29669 0.0
H648 H 0.38678 0.99307 0.97904 0.0
H649 H 0.45886 0.93806 0.98473 0.0
H650 H 0.42366 0.89704 0.99512 0.0
H651 H 0.37268 0.87703 0.00299 0.0
H652 H 0.30046 0.93205 0.99732 0.0
H653 H 0.33559 0.97292 0.98674 0.0
C654 C 0.39482 0.97216 0.98277 0.0
C655 C 0.42541 0.96864 0.98118 0.0
C656 C 0.37448 0.9487 0.98875 0.0
C657 C 0.43538 0.94127 0.9856 0.0
C658 C 0.4153 0.91786 0.99166 0.0
C659 C 0.36454 0.89793 0.99948 0.0
C660 C 0.3339 0.90137 1.00104 0.0
C661 C 0.38482 0.92134 0.99332 0.0
C662 C 0.32386 0.92868 0.99626 0.0
C663 C 0.34395 0.95211 0.99022 0.0
H664 H 0.21643 0.32426 0.28731 0.0
H665 H 0.2837 0.34467 0.23422 0.0
H666 H 0.26018 0.38718 0.22154 0.0
H667 H 0.22456 0.42152 0.22836 0.0
H668 H 0.16076 0.40663 0.28519 0.0
H669 H 0.17888 0.35919 0.29341 0.0
C670 C 0.22604 0.33798 0.27302 0.0
C671 C 0.25182 0.33057 0.26163 0.0
C672 C 0.21314 0.36365 0.26652 0.0
C673 C 0.26346 0.34876 0.24285 0.0
C674 C 0.25022 0.37354 0.23574 0.0
C675 C 0.21424 0.40792 0.24242 0.0
C676 C 0.19149 0.41793 0.25633 0.0
C677 C 0.22553 0.38149 0.24781 0.0
C678 C 0.17832 0.3996 0.27418 0.0
C679 C 0.18887 0.37255 0.27904 0.0
H680 H 0.14784 0.04287 0.48992 0.0
H681 H 0.08019 0.10263 0.48734 0.0
H682 H 0.11981 0.14437 0.49332 0.0
H683 H 0.17325 0.16388 0.49674 0.0
H684 H 0.24159 0.10467 0.49848 0.0
H685 H 0.2022 0.06281 0.49535 0.0
C686 C 0.14192 0.06506 0.49116 0.0
C687 C 0.1112 0.06973 0.48822 0.0
C688 C 0.16488 0.08904 0.49408 0.0
C689 C 0.10371 0.09856 0.48949 0.0
C690 C 0.12633 0.1224 0.49282 0.0
C691 C 0.17966 0.14185 0.49646 0.0
C692 C 0.21043 0.13755 0.49763 0.0
C693 C 0.15694 0.11791 0.49463 0.0
C694 C 0.21812 0.10874 0.49747 0.0
C695 C 0.19559 0.08474 0.49572 0.0
H696 H 0.75046 0.19069 0.74545 0.0
H697 H 0.82622 0.14248 0.73657 0.0
H698 H 0.79428 0.09633 0.73939 0.0
H699 H 0.74589 0.07018 0.74661 0.0
H700 H 0.67051 0.1179 0.75893 0.0
H701 H 0.70113 0.16393 0.75244 0.0
C702 C 0.75972 0.16997 0.74392 0.0
C703 C 0.79047 0.16971 0.74077 0.0
C704 C 0.74139 0.14363 0.74626 0.0
C705 C 0.80258 0.14298 0.73907 0.0
C706 C 0.78435 0.1167 0.74067 0.0
C707 C 0.73597 0.09058 0.74757 0.0
C708 C 0.70594 0.09066 0.7531 0.0
C709 C 0.75387 0.11682 0.74456 0.0
C710 C 0.69359 0.11732 0.75468 0.0
C711 C 0.71109 0.1436 0.751 0.0
H712 H 0.43915 0.0495 0.50907 0.0
H713 H 0.43774 0.04625 0.59422 0.0
H714 H 0.39878 0.0795 0.59267 0.0
H715 H 0.36548 0.10967 0.56727 0.0
H716 H 0.36677 0.1129 0.48208 0.0
H717 H 0.40497 0.07883 0.48346 0.0
C718 C 0.43009 0.05576 0.52727 0.0
C719 C 0.44138 0.04529 0.55174 0.0
C720 C 0.40756 0.07474 0.5262 0.0
C721 C 0.42976 0.05419 0.57518 0.0
C722 C 0.40732 0.07305 0.57428 0.0
C723 C 0.37392 0.10281 0.54892 0.0
C724 C 0.3632 0.11388 0.52458 0.0
C725 C 0.3961 0.08348 0.54991 0.0
C726 C 0.37455 0.10476 0.50108 0.0
C727 C 0.39647 0.08533 0.50187 0.0
H728 H 0.58616 0.47123 0.50523 0.0
H729 H 0.60152 0.47169 0.59156 0.0
H730 H 0.63824 0.43722 0.58825 0.0
H731 H 0.66599 0.40671 0.56142 0.0
H732 H 0.65514 0.4086 0.47553 0.0
H733 H 0.61743 0.44323 0.4782 0.0
C734 C 0.59774 0.46414 0.52338 0.0
C735 C 0.59027 0.47381 0.54862 0.0
C736 C 0.61989 0.4449 0.52146 0.0
C737 C 0.60567 0.46403 0.57179 0.0
C738 C 0.6271 0.44451 0.56999 0.0
C739 C 0.65542 0.41471 0.54323 0.0
C740 C 0.66307 0.40491 0.51829 0.0
C741 C 0.63423 0.4347 0.54499 0.0
C742 C 0.64961 0.41587 0.49497 0.0
C743 C 0.62797 0.43553 0.49651 0.0
H744 H 0.71866 0.27015 0.33169 0.0
H745 H 0.75679 0.19331 0.35851 0.0
H746 H 0.76042 0.21277 0.40482 0.0
H747 H 0.75537 0.25221 0.4375 0.0
H748 H 0.71639 0.32909 0.41231 0.0
H749 H 0.70985 0.30871 0.36554 0.0
C750 C 0.72736 0.25752 0.34771 0.0
C751 C 0.73797 0.23052 0.34154 0.0
C752 C 0.72927 0.26883 0.37453 0.0
C753 C 0.7492 0.21445 0.36258 0.0
C754 C 0.75113 0.22547 0.38911 0.0
C755 C 0.74535 0.26458 0.42183 0.0
C756 C 0.73676 0.29231 0.42833 0.0
C757 C 0.74175 0.2528 0.39526 0.0
C758 C 0.72325 0.30771 0.40782 0.0
C759 C 0.71964 0.29611 0.38109 0.0
H760 H 0.52147 0.00812 0.88053 0.0
H761 H 0.56785 0.94988 0.93011 0.0
H762 H 0.60341 0.9445 0.89743 0.0
H763 H 0.62264 0.95814 0.85569 0.0
H764 H 0.57461 0.01441 0.80494 0.0
H765 H 0.53813 0.01838 0.83685 0.0
C766 C 0.53938 0.99428 0.88412 0.0
C767 C 0.54245 0.97978 0.90783 0.0
C768 C 0.55933 0.99081 0.86496 0.0
C769 C 0.56529 0.96141 0.91204 0.0
C770 C 0.58558 0.95832 0.89337 0.0
C771 C 0.60401 0.97103 0.85148 0.0
C772 C 0.60154 0.98612 0.82805 0.0
C773 C 0.583 0.97314 0.86988 0.0
C774 C 0.57707 0.00251 0.82278 0.0
C775 C 0.55628 0.00496 0.84112 0.0
H776 H 0.29698 0.22416 0.32648 0.0
H777 H 0.29062 0.31468 0.35053 0.0
H778 H 0.28935 0.3026 0.39658 0.0
H779 H 0.28772 0.26647 0.42981 0.0
H780 H 0.29751 0.17647 0.40795 0.0
H781 H 0.30048 0.18831 0.36135 0.0
C782 C 0.29577 0.24133 0.34184 0.0
C783 C 0.29307 0.27022 0.33471 0.0
C784 C 0.29564 0.23433 0.36868 0.0
C785 C 0.29162 0.29211 0.35506 0.0
C786 C 0.29116 0.28528 0.38154 0.0
C787 C 0.29057 0.2494 0.41485 0.0
C788 C 0.29191 0.22055 0.42215 0.0
C789 C 0.29261 0.25645 0.38846 0.0
C790 C 0.29631 0.19882 0.40275 0.0
C791 C 0.29789 0.2056 0.37613 0.0
H792 H 0.51469 0.48704 0.90473 0.0
H793 H 0.51121 0.57834 0.92692 0.0
H794 H 0.48339 0.58397 0.88307 0.0
H795 H 0.4638 0.56371 0.83692 0.0
H796 H 0.4699 0.47283 0.81474 0.0
H797 H 0.4923 0.46614 0.86008 0.0
C798 C 0.50731 0.50802 0.90017 0.0
C799 C 0.51509 0.53223 0.91901 0.0
C800 C 0.49185 0.51121 0.87479 0.0
C801 C 0.50576 0.55941 0.91263 0.0
C802 C 0.48981 0.56263 0.88758 0.0
C803 C 0.46955 0.54237 0.8422 0.0
C804 C 0.46534 0.51886 0.82246 0.0
C805 C 0.48326 0.53882 0.86826 0.0
C806 C 0.47316 0.49136 0.82951 0.0
C807 C 0.48601 0.48749 0.85544 0.0
H808 H 0.75021 0.76403 0.15989 0.0
H809 H 0.74105 0.83706 0.11137 0.0
H810 H 0.75044 0.80734 0.07199 0.0
H811 H 0.76688 0.76252 0.05288 0.0
H812 H 0.78009 0.69065 0.10234 0.0
H813 H 0.76339 0.7178 0.13985 0.0
C814 C 0.74954 0.77305 0.14049 0.0
C815 C 0.74471 0.80243 0.13824 0.0
C816 C 0.75613 0.75619 0.11829 0.0
C817 C 0.7445 0.81434 0.11329 0.0
C818 C 0.75006 0.79744 0.09091 0.0
C819 C 0.76564 0.7526 0.07173 0.0
C820 C 0.77486 0.72469 0.07488 0.0
C821 C 0.75676 0.76861 0.09337 0.0
C822 C 0.77332 0.71221 0.09948 0.0
C823 C 0.76377 0.72771 0.12093 0.0
H824 H 0.01605 0.05628 0.0957 0.0
H825 H 0.01893 0.96385 0.10472 0.0
H826 H 1.00022 0.96917 0.14794 0.0
H827 H 0.98151 0.99995 0.18289 0.0
H828 H 0.97256 0.09047 0.17022 0.0
H829 H 0.99394 0.08562 0.12813 0.0
C830 C 0.01199 0.03696 0.10657 0.0
C831 C 0.01902 0.00964 0.09649 0.0
C832 C 0.99981 0.03979 0.13082 0.0
C833 C 0.01443 0.98535 0.11187 0.0
C834 C 1.00336 0.98826 0.13658 0.0
C835 C 0.98432 0.01855 0.17088 0.0
C836 C 0.97571 0.04559 0.17969 0.0
C837 C 0.99586 0.01538 0.14623 0.0
C838 C 0.97894 0.06942 0.16377 0.0
C839 C 0.99128 0.06669 0.13977 0.0
H840 H 0.31625 0.83391 0.18236 0.0
H841 H 0.32124 0.74555 0.15132 0.0
H842 H 0.30638 0.75863 0.10584 0.0
H843 H 0.28769 0.79377 0.07558 0.0
H844 H 0.27804 0.88113 0.10647 0.0
H845 H 0.29908 0.87004 0.1513 0.0
C846 C 0.31447 0.81776 0.1655 0.0
C847 C 0.31966 0.78886 0.16999 0.0
C848 C 0.30484 0.8252 0.13949 0.0
C849 C 0.31709 0.7679 0.14821 0.0
C850 C 0.3086 0.77535 0.12226 0.0
C851 C 0.2906 0.81054 0.09202 0.0
C852 C 0.28134 0.8382 0.08776 0.0
C853 C 0.30176 0.80373 0.11775 0.0
C854 C 0.28493 0.85961 0.10931 0.0
C855 C 0.29692 0.85328 0.13493 0.0
H856 H 0.06951 0.51359 0.09367 0.0
H857 H 0.99538 0.52134 0.13977 0.0
H858 H 0.03004 0.52146 0.18135 0.0
H859 H 0.08143 0.51689 0.2045 0.0
H860 H 0.15438 0.508 0.15686 0.0
H861 H 0.12006 0.51019 0.11623 0.0
C862 C 0.06085 0.51522 0.11281 0.0
C863 C 0.02982 0.51716 0.11354 0.0
C864 C 0.0807 0.51474 0.13647 0.0
C865 C 0.01919 0.51998 0.13858 0.0
C866 C 0.03897 0.51978 0.16237 0.0
C867 C 0.08979 0.5154 0.18524 0.0
C868 C 0.12059 0.51215 0.18397 0.0
C869 C 0.06977 0.51674 0.16156 0.0
C870 C 0.13093 0.51047 0.15871 0.0
C871 C 0.11129 0.51176 0.13531 0.0
H872 H 0.37644 0.6898 0.29627 0.0
H873 H 0.38613 0.78142 0.28085 0.0
H874 H 0.43431 0.78924 0.31008 0.0
H875 H 0.47248 0.77068 0.3423 0.0
H876 H 0.45898 0.68072 0.36169 0.0
H877 H 0.41325 0.6717 0.32899 0.0
C878 C 0.38869 0.71165 0.29955 0.0
C879 C 0.3773 0.73497 0.28633 0.0
C880 C 0.41581 0.71628 0.31717 0.0
C881 C 0.39432 0.76288 0.29037 0.0
C882 C 0.42185 0.76747 0.30728 0.0
C883 C 0.45963 0.74907 0.339 0.0
C884 C 0.46902 0.72625 0.35398 0.0
C885 C 0.4327 0.74439 0.32097 0.0
C886 C 0.45206 0.69847 0.35015 0.0
C887 C 0.42595 0.69337 0.33156 0.0
H888 H 0.98296 0.4119 0.00621 0.0
H889 H 0.07331 0.44734 0.99437 0.0
H890 H 0.07977 0.4016 0.9695 0.0
H891 H 0.06048 0.35067 0.95306 0.0
H892 H 0.97144 0.31446 0.96802 0.0
H893 H 0.9636 0.36138 0.98958 0.0
C894 C 1.00394 0.40971 0.99795 0.0
C895 C 0.0276 0.43291 1.0019 0.0
C896 C 0.00773 0.38317 0.98433 0.0
C897 C 0.05481 0.42967 0.99146 0.0
C898 C 0.0585 0.40357 0.97729 0.0
C899 C 0.03927 0.35321 0.96081 0.0
C900 C 0.01658 0.32918 0.95897 0.0
C901 C 0.03522 0.38005 0.97384 0.0
C902 C 0.98932 0.33261 0.96936 0.0
C903 C 0.9848 0.35943 0.98166 0.0
H904 H 0.6865 0.87141 0.29025 0.0
H905 H 0.65903 0.79334 0.23739 0.0
H906 H 0.62648 0.77341 0.26906 0.0
H907 H 0.60763 0.7771 0.31281 0.0
H908 H 0.63637 0.85461 0.36624 0.0
H909 H 0.6663 0.87583 0.33331 0.0
C910 C 0.67321 0.85011 0.28565 0.0
C911 C 0.67527 0.83388 0.26162 0.0
C912 C 0.65476 0.83863 0.30408 0.0
C913 C 0.65798 0.80629 0.25582 0.0
C914 C 0.63932 0.79485 0.27393 0.0
C915 C 0.62019 0.79876 0.31714 0.0
C916 C 0.61982 0.81418 0.34201 0.0
C917 C 0.63779 0.81069 0.29826 0.0
C918 C 0.63635 0.84218 0.34732 0.0
C919 C 0.65352 0.85435 0.32851 0.0
H920 H 0.06111 0.07268 0.93977 0.0
H921 H 0.01149 0.09698 0.00424 0.0
H922 H 0.01012 0.1458 0.98869 0.0
H923 H 0.02545 0.18252 0.95861 0.0
H924 H 0.07415 0.15903 0.89333 0.0
H925 H 0.07338 0.10905 0.90732 0.0
C926 C 0.0498 0.08865 0.95021 0.0
C927 C 0.03664 0.08121 0.97319 0.0
C928 C 0.04901 0.11688 0.94112 0.0
C929 C 0.02192 0.10203 0.98654 0.0
C930 C 0.02114 0.13006 0.97769 0.0
C931 C 0.03553 0.16646 0.94715 0.0
C932 C 0.04984 0.17461 0.92496 0.0
C933 C 0.03496 0.13784 0.95525 0.0
C934 C 0.06296 0.15339 0.91051 0.0
C935 C 0.06259 0.1248 0.91853 0.0
H936 H 0.33917 0.26451 0.19547 0.0
H937 H 0.416 0.25556 0.2535 0.0
H938 H 0.44938 0.25868 0.21839 0.0
H939 H 0.45641 0.26325 0.17086 0.0
H940 H 0.37881 0.27177 0.11339 0.0
H941 H 0.3462 0.26996 0.14871 0.0
C942 C 0.3632 0.26316 0.20052 0.0
C943 C 0.37509 0.25964 0.22709 0.0
C944 C 0.38218 0.26515 0.18032 0.0
C945 C 0.40631 0.25809 0.23316 0.0
C946 C 0.42539 0.25999 0.21312 0.0
C947 C 0.43243 0.26505 0.16614 0.0
C948 C 0.42012 0.26768 0.13946 0.0
C949 C 0.41358 0.26354 0.18658 0.0
C950 C 0.38893 0.2697 0.13369 0.0
C951 C 0.37019 0.26857 0.15388 0.0
H952 H 0.59933 0.42755 0.03881 0.0
H953 H 0.50582 0.44267 0.02219 0.0
H954 H 0.48958 0.39635 0.04044 0.0
H955 H 0.50174 0.3494 0.05754 0.0
H956 H 0.59498 0.33254 0.07024 0.0
H957 H 0.61162 0.38164 0.05764 0.0
C958 C 0.57544 0.42078 0.03946 0.0
C959 C 0.55384 0.43835 0.02901 0.0
C960 C 0.56623 0.39375 0.04935 0.0
C961 C 0.52291 0.42938 0.02988 0.0
C962 C 0.5136 0.40291 0.04037 0.0
C963 C 0.52571 0.35681 0.05813 0.0
C964 C 0.54715 0.33756 0.06501 0.0
C965 C 0.53501 0.38463 0.04971 0.0
C966 C 0.57811 0.34709 0.06511 0.0
C967 C 0.58761 0.37508 0.05778 0.0
H968 H 0.63658 0.22573 0.22323 0.0
H969 H 0.67876 0.16701 0.17369 0.0
H970 H 0.64418 0.17574 0.13454 0.0
H971 H 0.60247 0.20026 0.11427 0.0
H972 H 0.55772 0.25688 0.16358 0.0
H973 H 0.59258 0.24865 0.20299 0.0
C974 C 0.63814 0.21493 0.20384 0.0
C975 C 0.66031 0.19595 0.2012 0.0
C976 C 0.61771 0.21961 0.18144 0.0
C977 C 0.66188 0.18175 0.1761 0.0
C978 C 0.64216 0.18674 0.15373 0.0
C979 C 0.60034 0.21085 0.13363 0.0
C980 C 0.57773 0.22934 0.13596 0.0
C981 C 0.62007 0.20567 0.15615 0.0
C982 C 0.57495 0.24251 0.16127 0.0
C983 C 0.59493 0.23789 0.18378 0.0
H984 H 0.51338 0.08889 0.99641 0.0
H985 H 0.41649 0.06998 0.99586 0.0
H986 H 0.4156 0.11639 0.02124 0.0
H987 H 0.44214 0.16236 0.044 0.0
H988 H 0.53787 0.18368 0.04116 0.0
H989 H 0.53932 0.13662 0.01631 0.0
C990 C 0.49194 0.09504 1.00139 0.0
C991 C 0.46514 0.07549 0.99447 0.0
C992 C 0.49137 0.12227 0.01544 0.0
C993 C 0.43768 0.08401 1.00147 0.0
C994 C 0.43706 0.11072 0.01586 0.0
C995 C 0.46331 0.1566 0.03796 0.0
C996 C 0.48988 0.17629 0.04444 0.0
C997 C 0.46377 0.12989 0.02316 0.0
C998 C 0.51709 0.16892 0.03621 0.0
C999 C 0.51792 0.14198 0.02209 0.0
H1000 H 0.26673 0.40208 0.71547 0.0
H1001 H 0.32864 0.33671 0.71839 0.0
H1002 H 0.37174 0.37487 0.72722 0.0
H1003 H 0.39195 0.42638 0.73141 0.0
H1004 H 0.33116 0.49284 0.72825 0.0
H1005 H 0.28753 0.45475 0.72231 0.0
C1006 C 0.28968 0.39634 0.71848 0.0
C1007 C 0.29461 0.36672 0.71612 0.0
C1008 C 0.31451 0.41852 0.72319 0.0
C1009 C 0.32439 0.35942 0.71988 0.0
C1010 C 0.34902 0.3812 0.72489 0.0
C1011 C 0.3692 0.43267 0.72943 0.0
C1012 C 0.36491 0.46247 0.72997 0.0
C1013 C 0.34437 0.41078 0.72604 0.0
C1014 C 0.33517 0.47007 0.72778 0.0
C1015 C 0.3102 0.44829 0.72438 0.0
H1016 H 0.3103 0.70342 0.8031 0.0
H1017 H 0.23849 0.63822 0.76545 0.0
H1018 H 0.27553 0.60459 0.75755 0.0
H1019 H 0.32857 0.59389 0.7607 0.0
H1020 H 0.40008 0.65929 0.79868 0.0
H1021 H 0.36289 0.69223 0.80755 0.0
C1022 C 0.30267 0.68173 0.79345 0.0
C1023 C 0.27158 0.67349 0.78482 0.0
C1024 C 0.32408 0.6624 0.7891 0.0
C1025 C 0.26227 0.6454 0.77195 0.0
C1026 C 0.28344 0.62603 0.76758 0.0
C1027 C 0.336 0.61525 0.7711 0.0
C1028 C 0.36716 0.62403 0.77895 0.0
C1029 C 0.31444 0.63433 0.77596 0.0
C1030 C 0.37631 0.65189 0.79233 0.0
C1031 C 0.35504 0.67083 0.79739 0.0
H1032 H 0.91224 0.4697 0.50459 0.0
H1033 H 0.86633 0.48 0.42628 0.0
H1034 H 0.82564 0.4417 0.43282 0.0
H1035 H 0.80368 0.40455 0.46088 0.0
H1036 H 0.85253 0.39162 0.53735 0.0
H1037 H 0.89141 0.43183 0.53179 0.0
C1038 C 0.89322 0.46354 0.48904 0.0
C1039 C 0.89201 0.47759 0.46509 0.0
C1040 C 0.87046 0.44116 0.49274 0.0
C1041 C 0.86761 0.46931 0.44486 0.0
C1042 C 0.84437 0.44754 0.44864 0.0
C1043 C 0.82275 0.41086 0.47633 0.0
C1044 C 0.82527 0.39561 0.49961 0.0
C1045 C 0.84557 0.43327 0.47251 0.0
C1046 C 0.85024 0.40332 0.51936 0.0
C1047 C 0.87243 0.4262 0.51616 0.0
H1048 H 0.77863 0.85799 0.75368 0.0
H1049 H 0.71013 0.82198 0.80006 0.0
H1050 H 0.68235 0.86393 0.79209 0.0
H1051 H 0.67807 0.91192 0.7724 0.0
H1052 H 0.74437 0.94268 0.7216 0.0
H1053 H 0.77116 0.90082 0.7298 0.0
C1054 C 0.75718 0.85842 0.76149 0.0
C1055 C 0.74689 0.83639 0.77756 0.0
C1056 C 0.74051 0.88179 0.75582 0.0
C1057 C 0.71937 0.83869 0.78812 0.0
C1058 C 0.70313 0.86262 0.78331 0.0
C1059 C 0.6981 0.90922 0.76282 0.0
C1060 C 0.70915 0.93087 0.74663 0.0
C1061 C 0.71358 0.88448 0.76727 0.0
C1062 C 0.73514 0.92672 0.73429 0.0
C1063 C 0.75075 0.90273 0.73904 0.0
H1064 H 0.64083 0.54166 0.98487 0.0
H1065 H 0.57729 0.60548 0.98394 0.0
H1066 H 0.61899 0.64513 0.99282 0.0
H1067 H 0.6729 0.6618 0.99861 0.0
H1068 H 0.73777 0.59915 0.99873 0.0
H1069 H 0.69618 0.55889 0.99242 0.0
C1070 C 0.63628 0.56426 0.98701 0.0
C1071 C 0.60609 0.57074 0.98373 0.0
C1072 C 0.66051 0.5871 0.99167 0.0
C1073 C 0.60036 0.60006 0.98626 0.0
C1074 C 0.62417 0.6227 0.99129 0.0
C1075 C 0.67816 0.63938 0.99729 0.0
C1076 C 0.70855 0.63364 0.99895 0.0
C1077 C 0.65427 0.6165 0.99359 0.0
C1078 C 0.71464 0.60431 0.99741 0.0
C1079 C 0.69084 0.58126 0.99382 0.0
H1080 H 0.30466 0.64689 0.26087 0.0
H1081 H 0.23712 0.70636 0.26211 0.0
H1082 H 0.19833 0.66554 0.26701 0.0
H1083 H 0.18374 0.61243 0.27012 0.0
H1084 H 0.25167 0.55337 0.26573 0.0
H1085 H 0.29007 0.59436 0.26272 0.0
C1086 C 0.28148 0.65085 0.26252 0.0
C1087 C 0.27366 0.67941 0.26154 0.0
C1088 C 0.25935 0.6273 0.2645 0.0
C1089 C 0.24352 0.68442 0.26304 0.0
C1090 C 0.22141 0.66113 0.26576 0.0
C1091 C 0.20694 0.60862 0.26846 0.0
C1092 C 0.21478 0.57989 0.26809 0.0
C1093 C 0.22903 0.63239 0.26635 0.0
C1094 C 0.24492 0.57523 0.26582 0.0
C1095 C 0.267 0.59868 0.26424 0.0
H1096 H 0.97222 0.58728 0.06398 0.0
H1097 H 0.90529 0.51256 0.04016 0.0
H1098 H 0.86761 0.54496 0.02588 0.0
H1099 H 0.85388 0.59483 0.01959 0.0
H1100 H 0.92161 0.66922 0.04313 0.0
H1101 H 0.95862 0.63678 0.05781 0.0
C1102 C 0.94925 0.57815 0.05605 0.0
C1103 C 0.94149 0.54762 0.0533 0.0
C1104 C 0.92788 0.59688 0.04747 0.0
C1105 C 0.91179 0.53604 0.04247 0.0
C1106 C 0.89027 0.55455 0.03423 0.0
C1107 C 0.8768 0.60389 0.02771 0.0
C1108 C 0.88487 0.63446 0.03017 0.0
C1109 C 0.89812 0.58504 0.03638 0.0
C1110 C 0.91466 0.64581 0.04098 0.0
C1111 C 0.93591 0.62727 0.04949 0.0
H1112 H 0.11248 0.98798 0.01371 0.0
H1113 H 0.05415 0.9269 0.05185 0.0
H1114 H 0.08605 0.88863 0.04386 0.0
H1115 H 0.13125 0.87286 0.02778 0.0
H1116 H 0.19039 0.93316 0.98975 0.0
H1117 H 0.1569 0.9711 0.99525 0.0
C1118 C 0.10657 0.96621 0.02 0.0
C1119 C 0.08107 0.9605 0.03367 0.0
C1120 C 0.12503 0.9441 0.01523 0.0
C1121 C 0.07394 0.93216 0.04183 0.0
C1122 C 0.09204 0.91015 0.03708 0.0
C1123 C 0.13678 0.8942 0.02043 0.0
C1124 C 0.16342 0.90015 0.00847 0.0
C1125 C 0.11778 0.91595 0.02407 0.0
C1126 C 0.17003 0.92794 0.99899 0.0
C1127 C 0.15097 0.9497 0.00229 0.0
loop_
_geom_bond_atom_site_label_1
_geom_bond_atom_site_label_2
_geom_bond_distance
_geom_bond_site_symmetry_2
_ccdc_geom_bond_type
H0 C5 0.930 . S
H1 C8 0.930 1_556 S
H2 C10 0.930 . S
H3 C4 1.016 . S
C4 H3 1.016 . S
C4 N11 1.286 . S
C5 H0 0.930 . S
C5 C6 1.397 . S
C5 C7 1.361 . S
C6 C5 1.397 . S
C6 C10 1.390 . S
C7 C5 1.361 . S
C7 C8 1.393 . S
C7 N11 1.413 1_554 S
C8 H1 0.930 1_554 S
C8 C7 1.393 . S
C8 C9 1.399 . S
C9 C8 1.399 . S
C9 C10 1.381 . S
C10 H2 0.930 . S
C10 C6 1.390 . S
C10 C9 1.381 . S
N11 C4 1.286 . S
N11 C7 1.413 1_556 S
H12 C17 0.930 . S
H13 C20 0.930 . S
H14 C22 0.930 . S
H15 C16 1.016 . S
C16 H15 1.016 . S
C16 N23 1.286 . S
C17 H12 0.930 . S
C17 C18 1.397 . S
C17 C19 1.361 . S
C18 C17 1.397 . S
C18 C22 1.390 . S
C19 C17 1.361 . S
C19 C20 1.393 . S
C19 N23 1.413 . S
C20 H13 0.930 . S
C20 C19 1.393 . S
C20 C21 1.399 . S
C21 C20 1.399 . S
C21 C22 1.381 . S
C22 H14 0.930 . S
C22 C18 1.390 . S
C22 C21 1.381 . S
N23 C16 1.286 . S
N23 C19 1.413 . S
H24 C29 0.930 . S
H25 C32 0.930 1_455 S
H26 C34 0.930 . S
H27 C28 1.016 1_455 S
C28 H27 1.016 1_655 S
C28 N35 1.286 . S
C29 H24 0.930 . S
C29 C30 1.397 . S
C29 C31 1.361 . S
C30 C29 1.397 . S
C30 C34 1.390 . S
C31 C29 1.361 . S
C31 C32 1.393 . S
C31 N35 1.413 . S
C32 H25 0.930 1_655 S
C32 C31 1.393 . S
C32 C33 1.399 . S
C33 C32 1.399 . S
C33 C34 1.381 . S
C34 H26 0.930 . S
C34 C30 1.390 . S
C34 C33 1.381 . S
N35 C28 1.286 . S
N35 C31 1.413 . S
H36 C41 0.930 . S
H37 C44 0.930 . S
H38 C46 0.930 . S
H39 C40 1.016 . S
C40 H39 1.016 . S
C40 N47 1.286 . S
C41 H36 0.930 . S
C41 C42 1.397 . S
C41 C43 1.361 . S
C42 C41 1.397 . S
C42 C46 1.390 . S
C43 C41 1.361 . S
C43 C44 1.393 . S
C43 N47 1.413 . S
C44 H37 0.930 . S
C44 C43 1.393 . S
C44 C45 1.399 . S
C45 C44 1.399 . S
C45 C46 1.381 . S
C46 H38 0.930 . S
C46 C42 1.390 . S
C46 C45 1.381 . S
N47 C40 1.286 . S
N47 C43 1.413 . S
H48 C53 0.930 . S
H49 C56 0.930 . S
H50 C58 0.930 . S
H51 C52 1.016 . S
C52 H51 1.016 . S
C52 N59 1.286 . S
C53 H48 0.930 . S
C53 C54 1.401 . S
C53 C55 1.361 . S
C54 C53 1.401 . S
C54 C58 1.388 1_565 S
C55 C53 1.361 . S
C55 C56 1.393 . S
C55 N59 1.413 . S
C56 H49 0.930 . S
C56 C55 1.393 . S
C56 C57 1.399 1_565 S
C57 C56 1.399 1_545 S
C57 C58 1.381 . S
C58 H50 0.930 . S
C58 C54 1.388 1_545 S
C58 C57 1.381 . S
N59 C52 1.286 . S
N59 C55 1.413 . S
H60 C65 0.930 . S
H61 C68 0.930 . S
H62 C70 0.930 . S
H63 C64 1.016 . S
C64 H63 1.016 . S
C64 N71 1.286 . S
C65 H60 0.930 . S
C65 C66 1.397 . S
C65 C67 1.361 . S
C66 C65 1.397 . S
C66 C70 1.390 . S
C67 C65 1.361 . S
C67 C68 1.393 . S
C67 N71 1.413 . S
C68 H61 0.930 . S
C68 C67 1.393 . S
C68 C69 1.399 . S
C69 C68 1.399 . S
C69 C70 1.381 . S
C70 H62 0.930 . S
C70 C66 1.390 . S
C70 C69 1.381 . S
N71 C64 1.286 . S
N71 C67 1.413 . S
H72 C77 0.910 1_455 S
H73 C80 0.930 . S
H74 C82 0.930 . S
H75 C76 1.017 1_655 S
C76 H75 1.017 1_455 S
C76 N83 1.290 . S
C77 H72 0.910 1_655 S
C77 C78 1.397 . S
C77 C79 1.361 . S
C78 C77 1.397 . S
C78 C82 1.390 . S
C79 C77 1.361 . S
C79 C80 1.393 . S
C79 N83 1.407 1_655 S
C80 H73 0.930 . S
C80 C79 1.393 . S
C80 C81 1.399 . S
C81 C80 1.399 . S
C81 C82 1.381 . S
C82 H74 0.930 . S
C82 C78 1.390 . S
C82 C81 1.381 . S
N83 C76 1.290 . S
N83 C79 1.407 1_455 S
H84 C89 0.930 . S
H85 C92 0.930 . S
H86 C94 0.930 . S
H87 C88 1.016 . S
C88 H87 1.016 . S
C88 N95 1.286 . S
C89 H84 0.930 . S
C89 C90 1.397 . S
C89 C91 1.361 . S
C90 C89 1.397 . S
C90 C94 1.390 . S
C91 C89 1.361 . S
C91 C92 1.393 . S
C91 N95 1.413 . S
C92 H85 0.930 . S
C92 C91 1.393 . S
C92 C93 1.399 . S
C93 C92 1.399 . S
C93 C94 1.381 . S
C94 H86 0.930 . S
C94 C90 1.390 . S
C94 C93 1.381 . S
N95 C88 1.286 . S
N95 C91 1.413 . S
H96 C101 0.930 . S
H97 C104 0.930 . S
H98 C106 0.930 . S
H99 C100 1.016 . S
C100 H99 1.016 . S
C100 N107 1.286 . S
C101 H96 0.930 . S
C101 C102 1.397 . S
C101 C103 1.361 . S
C102 C101 1.397 . S
C102 C106 1.390 . S
C103 C101 1.361 . S
C103 C104 1.393 . S
C103 N107 1.413 . S
C104 H97 0.930 . S
C104 C103 1.393 . S
C104 C105 1.399 . S
C105 C104 1.399 . S
C105 C106 1.381 . S
C106 H98 0.930 . S
C106 C102 1.390 . S
C106 C105 1.381 . S
N107 C100 1.286 . S
N107 C103 1.413 . S
H108 C113 0.930 . S
H109 C116 0.930 . S
H110 C118 0.930 . S
H111 C112 1.016 . S
C112 H111 1.016 . S
C112 N119 1.286 . S
C113 H108 0.930 . S
C113 C114 1.397 1_565 S
C113 C115 1.361 . S
C114 C113 1.397 1_545 S
C114 C118 1.390 . S
C115 C113 1.361 . S
C115 C116 1.393 . S
C115 N119 1.413 . S
C116 H109 0.930 . S
C116 C115 1.393 . S
C116 C117 1.399 . S
C117 C116 1.399 . S
C117 C118 1.381 1_565 S
C118 H110 0.930 . S
C118 C114 1.390 . S
C118 C117 1.381 1_545 S
N119 C112 1.286 . S
N119 C115 1.413 . S
H120 C125 0.930 . S
H121 C128 0.930 . S
H122 C130 0.930 . S
H123 C124 1.016 . S
C124 H123 1.016 . S
C124 N131 1.286 . S
C125 H120 0.930 . S
C125 C126 1.397 . S
C125 C127 1.361 . S
C126 C125 1.397 . S
C126 C130 1.390 . S
C127 C125 1.361 . S
C127 C128 1.393 . S
C127 N131 1.413 . S
C128 H121 0.930 . S
C128 C127 1.393 . S
C128 C129 1.399 . S
C129 C128 1.399 . S
C129 C130 1.381 . S
C130 H122 0.930 . S
C130 C126 1.390 . S
C130 C129 1.381 . S
N131 C124 1.286 . S
N131 C127 1.413 . S
H132 C137 0.930 . S
H133 C140 0.930 . S
H134 C142 0.930 . S
H135 C136 1.016 . S
C136 H135 1.016 . S
C136 N143 1.286 . S
C137 H132 0.930 . S
C137 C138 1.397 . S
C137 C139 1.361 . S
C138 C137 1.397 . S
C138 C142 1.390 . S
C139 C137 1.361 . S
C139 C140 1.393 . S
C139 N143 1.413 . S
C140 H133 0.930 . S
C140 C139 1.393 . S
C140 C141 1.399 . S
C141 C140 1.399 . S
C141 C142 1.381 . S
C142 H134 0.930 . S
C142 C138 1.390 . S
C142 C141 1.381 . S
N143 C136 1.286 . S
N143 C139 1.413 . S
H144 C149 0.930 . S
H145 C152 0.930 . S
H146 C154 0.930 . S
H147 C148 1.016 . S
C148 H147 1.016 . S
C148 N155 1.286 . S
C149 H144 0.930 . S
C149 C150 1.397 . S
C149 C151 1.361 . S
C150 C149 1.397 . S
C150 C154 1.390 . S
C151 C149 1.361 . S
C151 C152 1.393 . S
C151 N155 1.413 . S
C152 H145 0.930 . S
C152 C151 1.393 . S
C152 C153 1.399 . S
C153 C152 1.399 . S
C153 C154 1.381 . S
C154 H146 0.930 . S
C154 C150 1.390 . S
C154 C153 1.381 . S
N155 C148 1.286 . S
N155 C151 1.413 . S
H156 C161 0.930 . S
H157 C164 0.930 1_554 S
H158 C166 0.930 . S
H159 C160 1.016 . S
C160 H159 1.016 . S
C160 N167 1.286 1_554 S
C161 H156 0.930 . S
C161 C162 1.397 . S
C161 C163 1.361 . S
C162 C161 1.397 . S
C162 C166 1.390 . S
C163 C161 1.361 . S
C163 C164 1.393 . S
C163 N167 1.413 . S
C164 H157 0.930 1_556 S
C164 C163 1.393 . S
C164 C165 1.399 . S
C165 C164 1.399 . S
C165 C166 1.381 . S
C166 H158 0.930 . S
C166 C162 1.390 . S
C166 C165 1.381 . S
N167 C160 1.286 1_556 S
N167 C163 1.413 . S
H168 C173 0.930 . S
H169 C176 0.930 . S
H170 C178 0.930 . S
H171 C172 1.016 . S
C172 H171 1.016 . S
C172 N179 1.286 . S
C173 H168 0.930 . S
C173 C174 1.397 . S
C173 C175 1.361 . S
C174 C173 1.397 . S
C174 C178 1.390 . S
C175 C173 1.361 . S
C175 C176 1.393 . S
C175 N179 1.413 . S
C176 H169 0.930 . S
C176 C175 1.393 . S
C176 C177 1.399 . S
C177 C176 1.399 . S
C177 C178 1.381 . S
C178 H170 0.930 . S
C178 C174 1.390 . S
C178 C177 1.381 . S
N179 C172 1.286 . S
N179 C175 1.413 . S
H180 C185 0.930 . S
H181 C188 0.930 1_565 S
H182 C190 0.921 1_554 S
H183 C184 1.016 1_565 S
C184 H183 1.016 1_545 S
C184 N191 1.286 . S
C185 H180 0.930 . S
C185 C186 1.397 . S
C185 C187 1.361 . S
C186 C185 1.397 . S
C186 C190 1.393 . S
C187 C185 1.361 . S
C187 C188 1.393 . S
C187 N191 1.413 . S
C188 H181 0.930 1_545 S
C188 C187 1.393 . S
C188 C189 1.399 . S
C189 C188 1.399 . S
C189 C190 1.388 . S
C190 H182 0.921 1_556 S
C190 C186 1.393 . S
C190 C189 1.388 . S
N191 C184 1.286 . S
N191 C187 1.413 . S
Mg192 O193 2.028 . S
Mg192 O199 1.986 1_554 S
Mg192 O201 2.114 . S
Mg192 O202 2.251 . S
Mg192 O205 2.010 . S
O193 Mg192 2.028 . S
O193 C196 1.250 . S
O194 Mg195 2.028 . S
O194 C196 1.248 . S
Mg195 O194 2.028 . S
Mg195 O200 2.032 1_554 S
Mg195 O202 2.079 . S
C196 O193 1.250 . S
C196 O194 1.248 . S
C197 O198 1.264 . S
C197 O205 1.249 . S
O198 C197 1.264 . S
O199 Mg192 1.986 1_556 S
O199 C203 1.246 . S
O200 Mg195 2.032 1_556 S
O200 C203 1.259 . S
O201 Mg192 2.114 . S
O201 C204 1.252 . S
O202 Mg192 2.251 . S
O202 Mg195 2.079 . S
O202 C204 1.273 . S
C203 O199 1.246 . S
C203 O200 1.259 . S
C204 O201 1.252 . S
C204 O202 1.273 . S
O205 Mg192 2.010 . S
O205 C197 1.249 . S
Mg206 O207 2.028 . S
Mg206 O213 1.986 . S
Mg206 O215 2.114 . S
Mg206 O216 2.251 . S
Mg206 O219 2.010 . S
O207 Mg206 2.028 . S
O207 C210 1.250 . S
O208 Mg209 2.028 . S
O208 C210 1.248 . S
Mg209 O208 2.028 . S
Mg209 O214 2.032 . S
Mg209 O216 2.079 . S
C210 O207 1.250 . S
C210 O208 1.248 . S
C211 O212 1.264 . S
C211 O219 1.249 . S
O212 C211 1.264 . S
O213 Mg206 1.986 . S
O213 C217 1.246 . S
O214 Mg209 2.032 . S
O214 C217 1.259 . S
O215 Mg206 2.114 . S
O215 C218 1.252 . S
O216 Mg206 2.251 . S
O216 Mg209 2.079 . S
O216 C218 1.273 . S
C217 O213 1.246 . S
C217 O214 1.259 . S
C218 O215 1.252 . S
C218 O216 1.273 . S
O219 Mg206 2.010 . S
O219 C211 1.249 . S
Mg220 O221 2.028 . S
Mg220 O227 1.986 1_554 S
Mg220 O229 2.114 . S
Mg220 O230 2.251 . S
Mg220 O233 2.010 . S
O221 Mg220 2.028 . S
O221 C224 1.250 1_554 S
O222 Mg223 2.028 . S
O222 C224 1.248 . S
Mg223 O222 2.028 . S
Mg223 O228 2.032 . S
Mg223 O230 2.079 1_556 S
C224 O221 1.250 1_556 S
C224 O222 1.248 . S
C225 O226 1.264 . S
C225 O233 1.249 . S
O226 C225 1.264 . S
O227 Mg220 1.986 1_556 S
O227 C231 1.246 . S
O228 Mg223 2.032 . S
O228 C231 1.259 . S
O229 Mg220 2.114 . S
O229 C232 1.252 . S
O230 Mg220 2.251 . S
O230 Mg223 2.079 1_554 S
O230 C232 1.273 . S
C231 O227 1.246 . S
C231 O228 1.259 . S
C232 O229 1.252 . S
C232 O230 1.273 . S
O233 Mg220 2.010 . S
O233 C225 1.249 . S
Mg234 O235 2.028 . S
Mg234 O241 1.986 . S
Mg234 O243 2.114 . S
Mg234 O244 2.251 . S
Mg234 O247 2.010 . S
O235 Mg234 2.028 . S
O235 C238 1.250 1_545 S
O236 Mg237 2.028 . S
O236 C238 1.248 . S
Mg237 O236 2.028 . S
Mg237 O242 2.032 1_565 S
Mg237 O244 2.079 1_565 S
C238 O235 1.250 1_565 S
C238 O236 1.248 . S
C239 O240 1.264 . S
C239 O247 1.249 . S
O240 C239 1.264 . S
O241 Mg234 1.986 . S
O241 C245 1.246 . S
O242 Mg237 2.032 1_545 S
O242 C245 1.259 . S
O243 Mg234 2.114 . S
O243 C246 1.252 . S
O244 Mg234 2.251 . S
O244 Mg237 2.079 1_545 S
O244 C246 1.273 . S
C245 O241 1.246 . S
C245 O242 1.259 . S
C246 O243 1.252 . S
C246 O244 1.273 . S
O247 Mg234 2.010 . S
O247 C239 1.249 . S
Mg248 O249 2.028 . S
Mg248 O255 1.986 . S
Mg248 O257 2.114 . S
Mg248 O258 2.251 . S
Mg248 O261 2.010 . S
O249 Mg248 2.028 . S
O249 C252 1.250 . S
O250 Mg251 2.028 . S
O250 C252 1.248 . S
Mg251 O250 2.028 . S
Mg251 O256 2.032 . S
Mg251 O258 2.079 . S
C252 O249 1.250 . S
C252 O250 1.248 . S
C253 O254 1.264 . S
C253 O261 1.249 . S
O254 C253 1.264 . S
O255 Mg248 1.986 . S
O255 C259 1.246 . S
O256 Mg251 2.032 . S
O256 C259 1.259 . S
O257 Mg248 2.114 . S
O257 C260 1.252 . S
O258 Mg248 2.251 . S
O258 Mg251 2.079 . S
O258 C260 1.273 . S
C259 O255 1.246 . S
C259 O256 1.259 . S
C260 O257 1.252 . S
C260 O258 1.273 . S
O261 Mg248 2.010 . S
O261 C253 1.249 . S
Mg262 O263 2.028 . S
Mg262 O269 1.986 . S
Mg262 O271 2.114 . S
Mg262 O272 2.251 . S
Mg262 O275 2.010 . S
O263 Mg262 2.028 . S
O263 C266 1.250 . S
O264 Mg265 2.028 . S
O264 C266 1.248 . S
Mg265 O264 2.028 . S
Mg265 O270 2.032 . S
Mg265 O272 2.079 . S
C266 O263 1.250 . S
C266 O264 1.248 . S
C267 O268 1.264 . S
C267 O275 1.249 . S
O268 C267 1.264 . S
O269 Mg262 1.986 . S
O269 C273 1.246 . S
O270 Mg265 2.032 . S
O270 C273 1.259 . S
O271 Mg262 2.114 . S
O271 C274 1.252 . S
O272 Mg262 2.251 . S
O272 Mg265 2.079 . S
O272 C274 1.273 . S
C273 O269 1.246 . S
C273 O270 1.259 . S
C274 O271 1.252 . S
C274 O272 1.273 . S
O275 Mg262 2.010 . S
O275 C267 1.249 . S
Mg276 O277 2.028 . S
Mg276 O283 1.986 . S
Mg276 O285 2.114 . S
Mg276 O286 2.251 . S
Mg276 O289 2.010 . S
O277 Mg276 2.028 . S
O277 C280 1.250 . S
O278 Mg279 2.028 . S
O278 C280 1.248 . S
Mg279 O278 2.028 . S
Mg279 O284 2.032 . S
Mg279 O286 2.079 . S
C280 O277 1.250 . S
C280 O278 1.248 . S
C281 O282 1.264 . S
C281 O289 1.249 . S
O282 C281 1.264 . S
O283 Mg276 1.986 . S
O283 C287 1.246 . S
O284 Mg279 2.032 . S
O284 C287 1.259 . S
O285 Mg276 2.114 . S
O285 C288 1.252 . S
O286 Mg276 2.251 . S
O286 Mg279 2.079 . S
O286 C288 1.273 . S
C287 O283 1.246 . S
C287 O284 1.259 . S
C288 O285 1.252 . S
C288 O286 1.273 . S
O289 Mg276 2.010 . S
O289 C281 1.249 . S
Mg290 O291 2.028 1_545 S
Mg290 O297 1.986 1_545 S
Mg290 O299 2.114 . S
Mg290 O300 2.251 . S
Mg290 O303 2.010 . S
O291 Mg290 2.028 1_565 S
O291 C294 1.250 . S
O292 Mg293 2.028 . S
O292 C294 1.248 . S
Mg293 O292 2.028 . S
Mg293 O298 2.032 . S
Mg293 O300 2.079 1_565 S
C294 O291 1.250 . S
C294 O292 1.248 . S
C295 O296 1.264 . S
C295 O303 1.249 . S
O296 C295 1.264 . S
O297 Mg290 1.986 1_565 S
O297 C301 1.246 . S
O298 Mg293 2.032 . S
O298 C301 1.259 . S
O299 Mg290 2.114 . S
O299 C302 1.252 . S
O300 Mg290 2.251 . S
O300 Mg293 2.079 1_545 S
O300 C302 1.273 . S
C301 O297 1.246 . S
C301 O298 1.259 . S
C302 O299 1.252 . S
C302 O300 1.273 . S
O303 Mg290 2.010 . S
O303 C295 1.249 . S
Mg304 O305 2.028 1_455 S
Mg304 O311 1.986 . S
Mg304 O313 2.114 . S
Mg304 O314 2.251 . S
Mg304 O317 2.010 . S
O305 Mg304 2.028 1_655 S
O305 C308 1.250 . S
O306 Mg307 2.028 . S
O306 C308 1.248 . S
Mg307 O306 2.028 . S
Mg307 O312 2.032 . S
Mg307 O314 2.079 1_655 S
C308 O305 1.250 . S
C308 O306 1.248 . S
C309 O310 1.264 . S
C309 O317 1.249 . S
O310 C309 1.264 . S
O311 Mg304 1.986 . S
O311 C315 1.246 . S
O312 Mg307 2.032 . S
O312 C315 1.259 1_655 S
O313 Mg304 2.114 . S
O313 C316 1.252 . S
O314 Mg304 2.251 . S
O314 Mg307 2.079 1_455 S
O314 C316 1.273 . S
C315 O311 1.246 . S
C315 O312 1.259 1_455 S
C316 O313 1.252 . S
C316 O314 1.273 . S
O317 Mg304 2.010 . S
O317 C309 1.249 . S
Mg318 O319 2.028 . S
Mg318 O325 1.986 . S
Mg318 O327 2.114 . S
Mg318 O328 2.251 . S
Mg318 O331 2.010 . S
O319 Mg318 2.028 . S
O319 C322 1.250 . S
O320 Mg321 2.028 . S
O320 C322 1.248 . S
Mg321 O320 2.028 . S
Mg321 O326 2.032 . S
Mg321 O328 2.079 . S
C322 O319 1.250 . S
C322 O320 1.248 . S
C323 O324 1.264 . S
C323 O331 1.249 . S
O324 C323 1.264 . S
O325 Mg318 1.986 . S
O325 C329 1.246 . S
O326 Mg321 2.032 . S
O326 C329 1.259 . S
O327 Mg318 2.114 . S
O327 C330 1.252 . S
O328 Mg318 2.251 . S
O328 Mg321 2.079 . S
O328 C330 1.273 . S
C329 O325 1.246 . S
C329 O326 1.259 . S
C330 O327 1.252 . S
C330 O328 1.273 . S
O331 Mg318 2.010 . S
O331 C323 1.249 . S
Mg332 O333 2.028 1_655 S
Mg332 O339 1.988 . S
Mg332 O341 2.114 . S
Mg332 O342 2.251 1_655 S
Mg332 O345 2.010 . S
O333 Mg332 2.028 1_455 S
O333 C336 1.250 . S
O334 Mg335 2.028 . S
O334 C336 1.248 . S
Mg335 O334 2.028 . S
Mg335 O340 2.032 . S
Mg335 O342 2.079 . S
C336 O333 1.250 . S
C336 O334 1.248 . S
C337 O338 1.264 . S
C337 O345 1.249 . S
O338 C337 1.264 . S
O339 Mg332 1.988 . S
O339 C343 1.241 1_655 S
O340 Mg335 2.032 . S
O340 C343 1.259 . S
O341 Mg332 2.114 . S
O341 C344 1.252 . S
O342 Mg332 2.251 1_455 S
O342 Mg335 2.079 . S
O342 C344 1.273 1_455 S
C343 O339 1.241 1_455 S
C343 O340 1.259 . S
C344 O341 1.252 . S
C344 O342 1.273 1_655 S
O345 Mg332 2.010 . S
O345 C337 1.249 . S
Mg346 O347 2.028 . S
Mg346 O353 1.986 . S
Mg346 O355 2.114 . S
Mg346 O356 2.251 . S
Mg346 O359 2.010 . S
O347 Mg346 2.028 . S
O347 C350 1.250 . S
O348 Mg349 2.028 . S
O348 C350 1.248 . S
Mg349 O348 2.028 . S
Mg349 O354 2.032 . S
Mg349 O356 2.079 . S
C350 O347 1.250 . S
C350 O348 1.248 . S
C351 O352 1.264 . S
C351 O359 1.249 . S
O352 C351 1.264 . S
O353 Mg346 1.986 . S
O353 C357 1.246 . S
O354 Mg349 2.032 . S
O354 C357 1.259 . S
O355 Mg346 2.114 . S
O355 C358 1.252 . S
O356 Mg346 2.251 . S
O356 Mg349 2.079 . S
O356 C358 1.273 . S
C357 O353 1.246 . S
C357 O354 1.259 . S
C358 O355 1.252 . S
C358 O356 1.273 . S
O359 Mg346 2.010 . S
O359 C351 1.249 . S
H360 C366 0.930 . S
H361 C369 0.930 . S
H362 C370 0.930 . S
H363 C371 0.930 . S
H364 C374 0.930 . S
H365 C375 0.930 . S
C366 H360 0.930 . S
C366 C367 1.355 . S
C366 C368 1.415 . S
C367 C366 1.355 . S
C367 C369 1.419 . S
C368 C366 1.415 . S
C368 C373 1.425 . S
C368 C375 1.409 . S
C369 H361 0.930 . S
C369 C367 1.419 . S
C369 C370 1.362 . S
C370 H362 0.930 . S
C370 C369 1.362 . S
C370 C373 1.409 . S
C371 H363 0.930 . S
C371 C372 1.355 . S
C371 C373 1.415 . S
C372 C371 1.355 . S
C372 C374 1.419 . S
C373 C368 1.425 . S
C373 C370 1.409 . S
C373 C371 1.415 . S
C374 H364 0.930 . S
C374 C372 1.419 . S
C374 C375 1.362 . S
C375 H365 0.930 . S
C375 C368 1.409 . S
C375 C374 1.362 . S
H376 C382 0.930 . S
H377 C385 0.930 1_655 S
H378 C386 0.930 1_655 S
H379 C387 0.930 . S
H380 C390 0.930 . S
H381 C391 0.930 . S
C382 H376 0.930 . S
C382 C383 1.355 . S
C382 C384 1.415 . S
C383 C382 1.355 . S
C383 C385 1.419 . S
C384 C382 1.415 . S
C384 C389 1.425 . S
C384 C391 1.409 . S
C385 H377 0.930 1_455 S
C385 C383 1.419 . S
C385 C386 1.362 . S
C386 H378 0.930 1_455 S
C386 C385 1.362 . S
C386 C389 1.409 . S
C387 H379 0.930 . S
C387 C388 1.355 . S
C387 C389 1.415 . S
C388 C387 1.355 . S
C388 C390 1.419 . S
C389 C384 1.425 . S
C389 C386 1.409 . S
C389 C387 1.415 . S
C390 H380 0.930 . S
C390 C388 1.419 . S
C390 C391 1.362 . S
C391 H381 0.930 . S
C391 C384 1.409 . S
C391 C390 1.362 . S
H392 C398 0.930 . S
H393 C401 0.930 . S
H394 C402 0.930 . S
H395 C403 0.930 . S
H396 C406 0.930 . S
H397 C407 0.930 . S
C398 H392 0.930 . S
C398 C399 1.355 . S
C398 C400 1.415 . S
C399 C398 1.355 . S
C399 C401 1.419 . S
C400 C398 1.415 . S
C400 C405 1.425 . S
C400 C407 1.409 . S
C401 H393 0.930 . S
C401 C399 1.419 . S
C401 C402 1.362 . S
C402 H394 0.930 . S
C402 C401 1.362 . S
C402 C405 1.409 . S
C403 H395 0.930 . S
C403 C404 1.355 . S
C403 C405 1.415 . S
C404 C403 1.355 . S
C404 C406 1.419 . S
C405 C400 1.425 . S
C405 C402 1.409 . S
C405 C403 1.415 . S
C406 H396 0.930 . S
C406 C404 1.419 . S
C406 C407 1.362 . S
C407 H397 0.930 . S
C407 C400 1.409 . S
C407 C406 1.362 . S
H408 C414 0.930 . S
H409 C417 0.930 . S
H410 C418 0.930 . S
H411 C419 0.930 . S
H412 C422 0.930 . S
H413 C423 0.930 . S
C414 H408 0.930 . S
C414 C415 1.355 1_565 S
C414 C416 1.422 . S
C415 C414 1.355 1_545 S
C415 C417 1.419 . S
C416 C414 1.422 . S
C416 C421 1.408 1_565 S
C416 C423 1.418 1_455 S
C417 H409 0.930 . S
C417 C415 1.419 . S
C417 C418 1.362 . S
C418 H410 0.930 . S
C418 C417 1.362 . S
C418 C421 1.409 . S
C419 H411 0.930 . S
C419 C420 1.355 . S
C419 C421 1.415 1_655 S
C420 C419 1.355 . S
C420 C422 1.419 1_545 S
C421 C416 1.408 1_545 S
C421 C418 1.409 . S
C421 C419 1.415 1_455 S
C422 H412 0.930 . S
C422 C420 1.419 1_565 S
C422 C423 1.362 . S
C423 H413 0.930 . S
C423 C416 1.418 1_655 S
C423 C422 1.362 . S
H424 C430 0.930 . S
H425 C433 0.930 . S
H426 C434 0.930 . S
H427 C435 0.930 . S
H428 C438 0.930 . S
H429 C439 0.930 . S
C430 H424 0.930 . S
C430 C431 1.355 . S
C430 C432 1.415 . S
C431 C430 1.355 . S
C431 C433 1.419 . S
C432 C430 1.415 . S
C432 C437 1.425 . S
C432 C439 1.409 . S
C433 H425 0.930 . S
C433 C431 1.419 . S
C433 C434 1.362 . S
C434 H426 0.930 . S
C434 C433 1.362 . S
C434 C437 1.409 . S
C435 H427 0.930 . S
C435 C436 1.355 . S
C435 C437 1.415 . S
C436 C435 1.355 . S
C436 C438 1.419 . S
C437 C432 1.425 . S
C437 C434 1.409 . S
C437 C435 1.415 . S
C438 H428 0.930 . S
C438 C436 1.419 . S
C438 C439 1.362 . S
C439 H429 0.930 . S
C439 C432 1.409 . S
C439 C438 1.362 . S
H440 C446 0.930 . S
H441 C449 0.930 . S
H442 C450 0.930 . S
H443 C451 0.930 . S
H444 C454 0.930 . S
H445 C455 0.930 . S
C446 H440 0.930 . S
C446 C447 1.355 . S
C446 C448 1.415 . S
C447 C446 1.355 . S
C447 C449 1.419 . S
C448 C446 1.415 . S
C448 C453 1.425 . S
C448 C455 1.409 . S
C449 H441 0.930 . S
C449 C447 1.419 . S
C449 C450 1.362 . S
C450 H442 0.930 . S
C450 C449 1.362 . S
C450 C453 1.409 . S
C451 H443 0.930 . S
C451 C452 1.355 . S
C451 C453 1.415 . S
C452 C451 1.355 . S
C452 C454 1.419 . S
C453 C448 1.425 . S
C453 C450 1.409 . S
C453 C451 1.415 . S
C454 H444 0.930 . S
C454 C452 1.419 . S
C454 C455 1.362 . S
C455 H445 0.930 . S
C455 C448 1.409 . S
C455 C454 1.362 . S
H456 C462 0.930 . S
H457 C465 0.930 . S
H458 C466 0.930 . S
H459 C467 0.930 . S
H460 C470 0.930 . S
H461 C471 0.930 . S
C462 H456 0.930 . S
C462 C463 1.355 . S
C462 C464 1.415 . S
C463 C462 1.355 . S
C463 C465 1.419 . S
C464 C462 1.415 . S
C464 C469 1.425 . S
C464 C471 1.409 . S
C465 H457 0.930 . S
C465 C463 1.419 . S
C465 C466 1.362 . S
C466 H458 0.930 . S
C466 C465 1.362 . S
C466 C469 1.409 . S
C467 H459 0.930 . S
C467 C468 1.355 . S
C467 C469 1.415 . S
C468 C467 1.355 . S
C468 C470 1.419 . S
C469 C464 1.425 . S
C469 C466 1.409 . S
C469 C467 1.415 . S
C470 H460 0.930 . S
C470 C468 1.419 . S
C470 C471 1.362 . S
C471 H461 0.930 . S
C471 C464 1.409 . S
C471 C470 1.362 . S
H472 C478 0.930 1_545 S
H473 C481 0.930 . S
H474 C482 0.930 . S
H475 C483 0.930 . S
H476 C486 0.928 1_545 S
H477 C487 0.930 1_545 S
C478 H472 0.930 1_565 S
C478 C479 1.355 . S
C478 C480 1.415 . S
C479 C478 1.355 . S
C479 C481 1.419 . S
C480 C478 1.415 . S
C480 C485 1.425 . S
C480 C487 1.409 . S
C481 H473 0.930 . S
C481 C479 1.419 . S
C481 C482 1.362 . S
C482 H474 0.930 . S
C482 C481 1.362 . S
C482 C485 1.409 . S
C483 H475 0.930 . S
C483 C484 1.355 . S
C483 C485 1.415 . S
C484 C483 1.355 . S
C484 C486 1.419 . S
C485 C480 1.425 . S
C485 C482 1.409 . S
C485 C483 1.415 . S
C486 H476 0.928 1_565 S
C486 C484 1.419 . S
C486 C487 1.362 . S
C487 H477 0.930 1_565 S
C487 C480 1.409 . S
C487 C486 1.362 . S
H488 C494 0.930 . S
H489 C497 0.930 . S
H490 C498 0.930 . S
H491 C499 0.930 . S
H492 C502 0.930 . S
H493 C503 0.930 . S
C494 H488 0.930 . S
C494 C495 1.355 . S
C494 C496 1.415 . S
C495 C494 1.355 . S
C495 C497 1.419 . S
C496 C494 1.415 . S
C496 C501 1.425 . S
C496 C503 1.409 . S
C497 H489 0.930 . S
C497 C495 1.419 . S
C497 C498 1.362 . S
C498 H490 0.930 . S
C498 C497 1.362 . S
C498 C501 1.409 . S
C499 H491 0.930 . S
C499 C500 1.355 . S
C499 C501 1.415 . S
C500 C499 1.355 . S
C500 C502 1.419 . S
C501 C496 1.425 . S
C501 C498 1.409 . S
C501 C499 1.415 . S
C502 H492 0.930 . S
C502 C500 1.419 . S
C502 C503 1.362 . S
C503 H493 0.930 . S
C503 C496 1.409 . S
C503 C502 1.362 . S
H504 C510 0.930 . S
H505 C513 0.930 . S
H506 C514 0.930 . S
H507 C515 0.930 . S
H508 C518 0.930 . S
H509 C519 0.930 . S
C510 H504 0.930 . S
C510 C511 1.355 . S
C510 C512 1.415 . S
C511 C510 1.355 . S
C511 C513 1.419 . S
C512 C510 1.415 . S
C512 C517 1.425 . S
C512 C519 1.409 . S
C513 H505 0.930 . S
C513 C511 1.419 . S
C513 C514 1.362 . S
C514 H506 0.930 . S
C514 C513 1.362 . S
C514 C517 1.409 . S
C515 H507 0.930 . S
C515 C516 1.355 . S
C515 C517 1.415 . S
C516 C515 1.355 . S
C516 C518 1.419 . S
C517 C512 1.425 . S
C517 C514 1.409 . S
C517 C515 1.415 . S
C518 H508 0.930 . S
C518 C516 1.419 . S
C518 C519 1.362 . S
C519 H509 0.930 . S
C519 C512 1.409 . S
C519 C518 1.362 . S
H520 C526 0.930 . S
H521 C529 0.930 . S
H522 C530 0.930 . S
H523 C531 0.930 . S
H524 C534 0.930 . S
H525 C535 0.930 . S
C526 H520 0.930 . S
C526 C527 1.355 . S
C526 C528 1.415 . S
C527 C526 1.355 . S
C527 C529 1.419 . S
C528 C526 1.415 . S
C528 C533 1.425 . S
C528 C535 1.409 . S
C529 H521 0.930 . S
C529 C527 1.419 . S
C529 C530 1.362 . S
C530 H522 0.930 . S
C530 C529 1.362 . S
C530 C533 1.409 . S
C531 H523 0.930 . S
C531 C532 1.355 . S
C531 C533 1.415 . S
C532 C531 1.355 . S
C532 C534 1.419 . S
C533 C528 1.425 . S
C533 C530 1.409 . S
C533 C531 1.415 . S
C534 H524 0.930 . S
C534 C532 1.419 . S
C534 C535 1.362 . S
C535 H525 0.930 . S
C535 C528 1.409 . S
C535 C534 1.362 . S
H536 C542 0.930 . S
H537 C545 0.930 . S
H538 C546 0.930 . S
H539 C547 0.930 . S
H540 C550 0.930 . S
H541 C551 0.930 . S
C542 H536 0.930 . S
C542 C543 1.355 . S
C542 C544 1.415 . S
C543 C542 1.355 . S
C543 C545 1.419 . S
C544 C542 1.415 . S
C544 C549 1.425 . S
C544 C551 1.409 . S
C545 H537 0.930 . S
C545 C543 1.419 . S
C545 C546 1.362 . S
C546 H538 0.930 . S
C546 C545 1.362 . S
C546 C549 1.409 . S
C547 H539 0.930 . S
C547 C548 1.355 . S
C547 C549 1.415 . S
C548 C547 1.355 . S
C548 C550 1.419 . S
C549 C544 1.425 . S
C549 C546 1.409 . S
C549 C547 1.415 . S
C550 H540 0.930 . S
C550 C548 1.419 . S
C550 C551 1.362 . S
C551 H541 0.930 . S
C551 C544 1.409 . S
C551 C550 1.362 . S
H552 C558 0.930 . S
H553 C561 0.930 . S
H554 C562 0.930 . S
H555 C563 0.930 . S
H556 C566 0.930 . S
H557 C567 0.930 . S
C558 H552 0.930 . S
C558 C559 1.355 . S
C558 C560 1.415 . S
C559 C558 1.355 . S
C559 C561 1.419 . S
C560 C558 1.415 . S
C560 C565 1.425 . S
C560 C567 1.409 . S
C561 H553 0.930 . S
C561 C559 1.419 . S
C561 C562 1.362 . S
C562 H554 0.930 . S
C562 C561 1.362 . S
C562 C565 1.409 . S
C563 H555 0.930 . S
C563 C564 1.355 . S
C563 C565 1.415 . S
C564 C563 1.355 . S
C564 C566 1.419 . S
C565 C560 1.425 . S
C565 C562 1.409 . S
C565 C563 1.415 . S
C566 H556 0.930 . S
C566 C564 1.419 . S
C566 C567 1.362 . S
C567 H557 0.930 . S
C567 C560 1.409 . S
C567 C566 1.362 . S
H568 C574 0.930 . S
H569 C577 0.930 . S
H570 C578 0.930 . S
H571 C579 0.930 . S
H572 C582 0.930 . S
H573 C583 0.930 . S
C574 H568 0.930 . S
C574 C575 1.355 . S
C574 C576 1.415 . S
C575 C574 1.355 . S
C575 C577 1.419 . S
C576 C574 1.415 . S
C576 C581 1.425 . S
C576 C583 1.409 1_455 S
C577 H569 0.930 . S
C577 C575 1.419 . S
C577 C578 1.362 . S
C578 H570 0.930 . S
C578 C577 1.362 . S
C578 C581 1.409 . S
C579 H571 0.930 . S
C579 C580 1.355 . S
C579 C581 1.415 . S
C580 C579 1.355 . S
C580 C582 1.419 1_455 S
C581 C576 1.425 . S
C581 C578 1.409 . S
C581 C579 1.415 . S
C582 H572 0.930 . S
C582 C580 1.419 1_655 S
C582 C583 1.362 . S
C583 H573 0.930 . S
C583 C576 1.409 1_655 S
C583 C582 1.362 . S
H584 C590 0.930 . S
H585 C593 0.930 . S
H586 C594 0.930 . S
H587 C595 0.930 . S
H588 C598 0.930 . S
H589 C599 0.930 . S
C590 H584 0.930 . S
C590 C591 1.355 . S
C590 C592 1.415 . S
C591 C590 1.355 . S
C591 C593 1.419 . S
C592 C590 1.415 . S
C592 C597 1.425 . S
C592 C599 1.409 . S
C593 H585 0.930 . S
C593 C591 1.419 . S
C593 C594 1.362 . S
C594 H586 0.930 . S
C594 C593 1.362 . S
C594 C597 1.409 . S
C595 H587 0.930 . S
C595 C596 1.355 . S
C595 C597 1.415 . S
C596 C595 1.355 . S
C596 C598 1.419 . S
C597 C592 1.425 . S
C597 C594 1.409 . S
C597 C595 1.415 . S
C598 H588 0.930 . S
C598 C596 1.419 . S
C598 C599 1.362 . S
C599 H589 0.930 . S
C599 C592 1.409 . S
C599 C598 1.362 . S
H600 C606 0.930 . S
H601 C609 0.930 1_455 S
H602 C610 0.948 . S
H603 C611 0.930 1_455 S
H604 C614 0.930 . S
H605 C615 0.930 . S
C606 H600 0.930 . S
C606 C607 1.355 . S
C606 C608 1.415 . S
C607 C606 1.355 . S
C607 C609 1.419 . S
C608 C606 1.415 . S
C608 C613 1.425 . S
C608 C615 1.409 . S
C609 H601 0.930 1_655 S
C609 C607 1.419 . S
C609 C610 1.362 1_655 S
C610 H602 0.948 . S
C610 C609 1.362 1_455 S
C610 C613 1.393 1_455 S
C611 H603 0.930 1_655 S
C611 C612 1.355 . S
C611 C613 1.415 . S
C612 C611 1.355 . S
C612 C614 1.419 . S
C613 C608 1.425 . S
C613 C610 1.393 1_655 S
C613 C611 1.415 . S
C614 H604 0.930 . S
C614 C612 1.419 . S
C614 C615 1.362 . S
C615 H605 0.930 . S
C615 C608 1.409 . S
C615 C614 1.362 . S
H616 C622 0.930 . S
H617 C625 0.930 . S
H618 C626 0.930 . S
H619 C627 0.930 . S
H620 C630 0.930 . S
H621 C631 0.930 . S
C622 H616 0.930 . S
C622 C623 1.355 . S
C622 C624 1.415 . S
C623 C622 1.355 . S
C623 C625 1.419 . S
C624 C622 1.415 . S
C624 C629 1.425 . S
C624 C631 1.409 . S
C625 H617 0.930 . S
C625 C623 1.419 . S
C625 C626 1.362 . S
C626 H618 0.930 . S
C626 C625 1.362 . S
C626 C629 1.409 . S
C627 H619 0.930 . S
C627 C628 1.355 . S
C627 C629 1.415 . S
C628 C627 1.355 . S
C628 C630 1.419 . S
C629 C624 1.425 . S
C629 C626 1.409 . S
C629 C627 1.415 . S
C630 H620 0.930 . S
C630 C628 1.419 . S
C630 C631 1.362 . S
C631 H621 0.930 . S
C631 C624 1.409 . S
C631 C630 1.362 . S
H632 C638 0.930 . S
H633 C641 0.930 . S
H634 C642 0.930 . S
H635 C643 0.930 . S
H636 C646 0.930 . S
H637 C647 0.930 . S
C638 H632 0.930 . S
C638 C639 1.355 . S
C638 C640 1.415 . S
C639 C638 1.355 . S
C639 C641 1.419 . S
C640 C638 1.415 . S
C640 C645 1.425 . S
C640 C647 1.409 . S
C641 H633 0.930 . S
C641 C639 1.419 . S
C641 C642 1.362 . S
C642 H634 0.930 . S
C642 C641 1.362 . S
C642 C645 1.409 . S
C643 H635 0.930 . S
C643 C644 1.355 . S
C643 C645 1.415 . S
C644 C643 1.355 . S
C644 C646 1.419 . S
C645 C640 1.425 . S
C645 C642 1.409 . S
C645 C643 1.415 . S
C646 H636 0.930 . S
C646 C644 1.419 . S
C646 C647 1.362 . S
C647 H637 0.930 . S
C647 C640 1.409 . S
C647 C646 1.362 . S
H648 C654 0.930 . S
H649 C657 0.930 1_545 S
H650 C658 0.930 . S
H651 C659 0.930 . S
H652 C662 0.930 . S
H653 C663 0.930 . S
C654 H648 0.930 . S
C654 C655 1.355 . S
C654 C656 1.415 . S
C655 C654 1.355 . S
C655 C657 1.419 1_556 S
C656 C654 1.415 . S
C656 C661 1.425 1_556 S
C656 C663 1.409 . S
C657 H649 0.930 1_565 S
C657 C655 1.419 1_554 S
C657 C658 1.362 . S
C658 H650 0.930 . S
C658 C657 1.362 . S
C658 C661 1.409 . S
C659 H651 0.930 . S
C659 C660 1.355 . S
C659 C661 1.415 . S
C660 C659 1.355 . S
C660 C662 1.419 1_554 S
C661 C656 1.425 1_554 S
C661 C658 1.409 . S
C661 C659 1.415 . S
C662 H652 0.930 . S
C662 C660 1.419 1_556 S
C662 C663 1.362 . S
C663 H653 0.930 . S
C663 C656 1.409 . S
C663 C662 1.362 . S
H664 C670 0.930 . S
H665 C673 0.930 . S
H666 C674 0.930 . S
H667 C675 0.930 . S
H668 C678 0.930 . S
H669 C679 0.930 . S
C670 H664 0.930 . S
C670 C671 1.355 . S
C670 C672 1.415 . S
C671 C670 1.355 . S
C671 C673 1.419 . S
C672 C670 1.415 . S
C672 C677 1.425 . S
C672 C679 1.409 . S
C673 H665 0.930 . S
C673 C671 1.419 . S
C673 C674 1.362 . S
C674 H666 0.930 . S
C674 C673 1.362 . S
C674 C677 1.409 . S
C675 H667 0.930 . S
C675 C676 1.355 . S
C675 C677 1.415 . S
C676 C675 1.355 . S
C676 C678 1.419 . S
C677 C672 1.425 . S
C677 C674 1.409 . S
C677 C675 1.415 . S
C678 H668 0.930 . S
C678 C676 1.419 . S
C678 C679 1.362 . S
C679 H669 0.930 . S
C679 C672 1.409 . S
C679 C678 1.362 . S
H680 C686 0.930 . S
H681 C689 0.930 . S
H682 C690 0.930 . S
H683 C691 0.930 . S
H684 C694 0.930 . S
H685 C695 0.930 . S
C686 H680 0.930 . S
C686 C687 1.355 . S
C686 C688 1.415 . S
C687 C686 1.355 . S
C687 C689 1.419 . S
C688 C686 1.415 . S
C688 C693 1.425 . S
C688 C695 1.409 . S
C689 H681 0.930 . S
C689 C687 1.419 . S
C689 C690 1.362 . S
C690 H682 0.930 . S
C690 C689 1.362 . S
C690 C693 1.409 . S
C691 H683 0.930 . S
C691 C692 1.355 . S
C691 C693 1.415 . S
C692 C691 1.355 . S
C692 C694 1.419 . S
C693 C688 1.425 . S
C693 C690 1.409 . S
C693 C691 1.415 . S
C694 H684 0.930 . S
C694 C692 1.419 . S
C694 C695 1.362 . S
C695 H685 0.930 . S
C695 C688 1.409 . S
C695 C694 1.362 . S
H696 C702 0.930 . S
H697 C705 0.930 . S
H698 C706 0.930 . S
H699 C707 0.930 . S
H700 C710 0.930 . S
H701 C711 0.930 . S
C702 H696 0.930 . S
C702 C703 1.355 . S
C702 C704 1.415 . S
C703 C702 1.355 . S
C703 C705 1.419 . S
C704 C702 1.415 . S
C704 C709 1.425 . S
C704 C711 1.409 . S
C705 H697 0.930 . S
C705 C703 1.419 . S
C705 C706 1.362 . S
C706 H698 0.930 . S
C706 C705 1.362 . S
C706 C709 1.409 . S
C707 H699 0.930 . S
C707 C708 1.355 . S
C707 C709 1.415 . S
C708 C707 1.355 . S
C708 C710 1.419 . S
C709 C704 1.425 . S
C709 C706 1.409 . S
C709 C707 1.415 . S
C710 H700 0.930 . S
C710 C708 1.419 . S
C710 C711 1.362 . S
C711 H701 0.930 . S
C711 C704 1.409 . S
C711 C710 1.362 . S
H712 C718 0.930 . S
H713 C721 0.930 . S
H714 C722 0.930 . S
H715 C723 0.930 . S
H716 C726 0.930 . S
H717 C727 0.930 . S
C718 H712 0.930 . S
C718 C719 1.355 . S
C718 C720 1.415 . S
C719 C718 1.355 . S
C719 C721 1.419 . S
C720 C718 1.415 . S
C720 C725 1.425 . S
C720 C727 1.409 . S
C721 H713 0.930 . S
C721 C719 1.419 . S
C721 C722 1.362 . S
C722 H714 0.930 . S
C722 C721 1.362 . S
C722 C725 1.409 . S
C723 H715 0.930 . S
C723 C724 1.355 . S
C723 C725 1.415 . S
C724 C723 1.355 . S
C724 C726 1.419 . S
C725 C720 1.425 . S
C725 C722 1.409 . S
C725 C723 1.415 . S
C726 H716 0.930 . S
C726 C724 1.419 . S
C726 C727 1.362 . S
C727 H717 0.930 . S
C727 C720 1.409 . S
C727 C726 1.362 . S
H728 C734 0.930 . S
H729 C737 0.930 . S
H730 C738 0.930 . S
H731 C739 0.930 . S
H732 C742 0.930 . S
H733 C743 0.930 . S
C734 H728 0.930 . S
C734 C735 1.355 . S
C734 C736 1.415 . S
C735 C734 1.355 . S
C735 C737 1.419 . S
C736 C734 1.415 . S
C736 C741 1.425 . S
C736 C743 1.409 . S
C737 H729 0.930 . S
C737 C735 1.419 . S
C737 C738 1.362 . S
C738 H730 0.930 . S
C738 C737 1.362 . S
C738 C741 1.409 . S
C739 H731 0.930 . S
C739 C740 1.355 . S
C739 C741 1.415 . S
C740 C739 1.355 . S
C740 C742 1.419 . S
C741 C736 1.425 . S
C741 C738 1.409 . S
C741 C739 1.415 . S
C742 H732 0.930 . S
C742 C740 1.419 . S
C742 C743 1.362 . S
C743 H733 0.930 . S
C743 C736 1.409 . S
C743 C742 1.362 . S
H744 C750 0.930 . S
H745 C753 0.930 . S
H746 C754 0.930 . S
H747 C755 0.930 . S
H748 C758 0.930 . S
H749 C759 0.930 . S
C750 H744 0.930 . S
C750 C751 1.355 . S
C750 C752 1.415 . S
C751 C750 1.355 . S
C751 C753 1.419 . S
C752 C750 1.415 . S
C752 C757 1.425 . S
C752 C759 1.409 . S
C753 H745 0.930 . S
C753 C751 1.419 . S
C753 C754 1.362 . S
C754 H746 0.930 . S
C754 C753 1.362 . S
C754 C757 1.409 . S
C755 H747 0.930 . S
C755 C756 1.355 . S
C755 C757 1.415 . S
C756 C755 1.355 . S
C756 C758 1.419 . S
C757 C752 1.425 . S
C757 C754 1.409 . S
C757 C755 1.415 . S
C758 H748 0.930 . S
C758 C756 1.419 . S
C758 C759 1.362 . S
C759 H749 0.930 . S
C759 C752 1.409 . S
C759 C758 1.362 . S
H760 C766 0.930 . S
H761 C769 0.930 . S
H762 C770 0.930 1_565 S
H763 C771 0.930 . S
H764 C774 0.930 . S
H765 C775 0.930 . S
C766 H760 0.930 . S
C766 C767 1.355 . S
C766 C768 1.415 . S
C767 C766 1.355 . S
C767 C769 1.419 . S
C768 C766 1.415 . S
C768 C773 1.425 . S
C768 C775 1.409 . S
C769 H761 0.930 . S
C769 C767 1.419 . S
C769 C770 1.362 . S
C770 H762 0.930 1_545 S
C770 C769 1.362 . S
C770 C773 1.409 . S
C771 H763 0.930 . S
C771 C772 1.355 . S
C771 C773 1.415 . S
C772 C771 1.355 . S
C772 C774 1.419 . S
C773 C768 1.425 . S
C773 C770 1.409 . S
C773 C771 1.415 . S
C774 H764 0.930 . S
C774 C772 1.419 . S
C774 C775 1.362 . S
C775 H765 0.930 . S
C775 C768 1.409 . S
C775 C774 1.362 . S
H776 C782 0.930 . S
H777 C785 0.930 . S
H778 C786 0.930 . S
H779 C787 0.930 . S
H780 C790 0.930 . S
H781 C791 0.930 . S
C782 H776 0.930 . S
C782 C783 1.355 . S
C782 C784 1.415 . S
C783 C782 1.355 . S
C783 C785 1.419 . S
C784 C782 1.415 . S
C784 C789 1.425 . S
C784 C791 1.409 . S
C785 H777 0.930 . S
C785 C783 1.419 . S
C785 C786 1.362 . S
C786 H778 0.930 . S
C786 C785 1.362 . S
C786 C789 1.409 . S
C787 H779 0.930 . S
C787 C788 1.355 . S
C787 C789 1.415 . S
C788 C787 1.355 . S
C788 C790 1.419 . S
C789 C784 1.425 . S
C789 C786 1.409 . S
C789 C787 1.415 . S
C790 H780 0.930 . S
C790 C788 1.419 . S
C790 C791 1.362 . S
C791 H781 0.930 . S
C791 C784 1.409 . S
C791 C790 1.362 . S
H792 C798 0.930 . S
H793 C801 0.930 . S
H794 C802 0.930 . S
H795 C803 0.930 . S
H796 C806 0.930 . S
H797 C807 0.930 . S
C798 H792 0.930 . S
C798 C799 1.355 . S
C798 C800 1.415 . S
C799 C798 1.355 . S
C799 C801 1.419 . S
C800 C798 1.415 . S
C800 C805 1.425 . S
C800 C807 1.409 . S
C801 H793 0.930 . S
C801 C799 1.419 . S
C801 C802 1.362 . S
C802 H794 0.930 . S
C802 C801 1.362 . S
C802 C805 1.409 . S
C803 H795 0.930 . S
C803 C804 1.355 . S
C803 C805 1.415 . S
C804 C803 1.355 . S
C804 C806 1.419 . S
C805 C800 1.425 . S
C805 C802 1.409 . S
C805 C803 1.415 . S
C806 H796 0.930 . S
C806 C804 1.419 . S
C806 C807 1.362 . S
C807 H797 0.930 . S
C807 C800 1.409 . S
C807 C806 1.362 . S
H808 C814 0.930 . S
H809 C817 0.930 . S
H810 C818 0.930 . S
H811 C819 0.930 . S
H812 C822 0.930 . S
H813 C823 0.930 . S
C814 H808 0.930 . S
C814 C815 1.355 . S
C814 C816 1.415 . S
C815 C814 1.355 . S
C815 C817 1.419 . S
C816 C814 1.415 . S
C816 C821 1.425 . S
C816 C823 1.409 . S
C817 H809 0.930 . S
C817 C815 1.419 . S
C817 C818 1.362 . S
C818 H810 0.930 . S
C818 C817 1.362 . S
C818 C821 1.409 . S
C819 H811 0.930 . S
C819 C820 1.355 . S
C819 C821 1.415 . S
C820 C819 1.355 . S
C820 C822 1.419 . S
C821 C816 1.425 . S
C821 C818 1.409 . S
C821 C819 1.415 . S
C822 H812 0.930 . S
C822 C820 1.419 . S
C822 C823 1.362 . S
C823 H813 0.930 . S
C823 C816 1.409 . S
C823 C822 1.362 . S
H824 C830 0.930 . S
H825 C833 0.930 1_565 S
H826 C834 0.921 1_565 S
H827 C835 0.930 . S
H828 C838 0.930 1_455 S
H829 C839 0.930 . S
C830 H824 0.930 . S
C830 C831 1.355 . S
C830 C832 1.415 . S
C831 C830 1.355 . S
C831 C833 1.419 1_455 S
C832 C830 1.415 . S
C832 C837 1.425 1_455 S
C832 C839 1.409 . S
C833 H825 0.930 1_545 S
C833 C831 1.419 1_655 S
C833 C834 1.363 . S
C834 H826 0.921 1_545 S
C834 C833 1.363 . S
C834 C837 1.418 . S
C835 H827 0.930 . S
C835 C836 1.355 . S
C835 C837 1.415 . S
C836 C835 1.355 . S
C836 C838 1.419 . S
C837 C832 1.425 1_655 S
C837 C834 1.418 . S
C837 C835 1.415 . S
C838 H828 0.930 1_655 S
C838 C836 1.419 . S
C838 C839 1.362 1_655 S
C839 H829 0.930 . S
C839 C832 1.409 . S
C839 C838 1.362 1_455 S
H840 C846 0.930 . S
H841 C849 0.930 . S
H842 C850 0.930 . S
H843 C851 0.930 . S
H844 C854 0.930 . S
H845 C855 0.930 . S
C846 H840 0.930 . S
C846 C847 1.355 . S
C846 C848 1.415 . S
C847 C846 1.355 . S
C847 C849 1.419 . S
C848 C846 1.415 . S
C848 C853 1.425 . S
C848 C855 1.409 . S
C849 H841 0.930 . S
C849 C847 1.419 . S
C849 C850 1.362 . S
C850 H842 0.930 . S
C850 C849 1.362 . S
C850 C853 1.409 . S
C851 H843 0.930 . S
C851 C852 1.355 . S
C851 C853 1.415 . S
C852 C851 1.355 . S
C852 C854 1.419 . S
C853 C848 1.425 . S
C853 C850 1.409 . S
C853 C851 1.415 . S
C854 H844 0.930 . S
C854 C852 1.419 . S
C854 C855 1.362 . S
C855 H845 0.930 . S
C855 C848 1.409 . S
C855 C854 1.362 . S
H856 C862 0.930 . S
H857 C865 0.930 1_655 S
H858 C866 0.930 . S
H859 C867 0.930 . S
H860 C870 0.930 . S
H861 C871 0.930 . S
C862 H856 0.930 . S
C862 C863 1.355 . S
C862 C864 1.415 . S
C863 C862 1.355 . S
C863 C865 1.419 . S
C864 C862 1.415 . S
C864 C869 1.425 . S
C864 C871 1.409 . S
C865 H857 0.930 1_455 S
C865 C863 1.419 . S
C865 C866 1.362 . S
C866 H858 0.930 . S
C866 C865 1.362 . S
C866 C869 1.409 . S
C867 H859 0.930 . S
C867 C868 1.355 . S
C867 C869 1.415 . S
C868 C867 1.355 . S
C868 C870 1.419 . S
C869 C864 1.425 . S
C869 C866 1.409 . S
C869 C867 1.415 . S
C870 H860 0.930 . S
C870 C868 1.419 . S
C870 C871 1.362 . S
C871 H861 0.930 . S
C871 C864 1.409 . S
C871 C870 1.362 . S
H872 C878 0.930 . S
H873 C881 0.930 . S
H874 C882 0.930 . S
H875 C883 0.930 . S
H876 C886 0.930 . S
H877 C887 0.930 . S
C878 H872 0.930 . S
C878 C879 1.355 . S
C878 C880 1.415 . S
C879 C878 1.355 . S
C879 C881 1.419 . S
C880 C878 1.415 . S
C880 C885 1.425 . S
C880 C887 1.409 . S
C881 H873 0.930 . S
C881 C879 1.419 . S
C881 C882 1.362 . S
C882 H874 0.930 . S
C882 C881 1.362 . S
C882 C885 1.409 . S
C883 H875 0.930 . S
C883 C884 1.355 . S
C883 C885 1.415 . S
C884 C883 1.355 . S
C884 C886 1.419 . S
C885 C880 1.425 . S
C885 C882 1.409 . S
C885 C883 1.415 . S
C886 H876 0.930 . S
C886 C884 1.419 . S
C886 C887 1.362 . S
C887 H877 0.930 . S
C887 C880 1.409 . S
C887 C886 1.362 . S
H888 C894 0.930 . S
H889 C897 0.930 . S
H890 C898 0.930 . S
H891 C899 0.930 . S
H892 C902 0.930 . S
H893 C903 0.930 . S
C894 H888 0.930 . S
C894 C895 1.355 . S
C894 C896 1.415 . S
C895 C894 1.355 . S
C895 C897 1.419 1_655 S
C896 C894 1.415 . S
C896 C901 1.425 1_655 S
C896 C903 1.409 . S
C897 H889 0.930 . S
C897 C895 1.419 1_455 S
C897 C898 1.362 . S
C898 H890 0.930 . S
C898 C897 1.362 . S
C898 C901 1.409 . S
C899 H891 0.930 . S
C899 C900 1.355 1_455 S
C899 C901 1.415 . S
C900 C899 1.355 1_655 S
C900 C902 1.418 . S
C901 C896 1.425 1_455 S
C901 C898 1.409 . S
C901 C899 1.415 . S
C902 H892 0.930 . S
C902 C900 1.418 . S
C902 C903 1.362 . S
C903 H893 0.930 . S
C903 C896 1.409 . S
C903 C902 1.362 . S
H904 C910 0.930 . S
H905 C913 0.930 . S
H906 C914 0.930 . S
H907 C915 0.930 . S
H908 C918 0.930 . S
H909 C919 0.930 . S
C910 H904 0.930 . S
C910 C911 1.355 . S
C910 C912 1.415 . S
C911 C910 1.355 . S
C911 C913 1.419 . S
C912 C910 1.415 . S
C912 C917 1.425 . S
C912 C919 1.409 . S
C913 H905 0.930 . S
C913 C911 1.419 . S
C913 C914 1.362 . S
C914 H906 0.930 . S
C914 C913 1.362 . S
C914 C917 1.409 . S
C915 H907 0.930 . S
C915 C916 1.355 . S
C915 C917 1.415 . S
C916 C915 1.355 . S
C916 C918 1.419 . S
C917 C912 1.425 . S
C917 C914 1.409 . S
C917 C915 1.415 . S
C918 H908 0.930 . S
C918 C916 1.419 . S
C918 C919 1.362 . S
C919 H909 0.930 . S
C919 C912 1.409 . S
C919 C918 1.362 . S
H920 C926 0.930 . S
H921 C929 0.930 1_655 S
H922 C930 0.930 . S
H923 C931 0.930 1_655 S
H924 C934 0.930 . S
H925 C935 0.930 . S
C926 H920 0.930 . S
C926 C927 1.355 . S
C926 C928 1.415 . S
C927 C926 1.355 . S
C927 C929 1.419 . S
C928 C926 1.415 . S
C928 C933 1.425 . S
C928 C935 1.409 . S
C929 H921 0.930 1_455 S
C929 C927 1.419 . S
C929 C930 1.362 1_455 S
C930 H922 0.930 . S
C930 C929 1.362 1_655 S
C930 C933 1.409 1_655 S
C931 H923 0.930 1_455 S
C931 C932 1.355 . S
C931 C933 1.415 . S
C932 C931 1.355 . S
C932 C934 1.419 . S
C933 C928 1.425 . S
C933 C930 1.409 1_455 S
C933 C931 1.415 . S
C934 H924 0.930 . S
C934 C932 1.419 . S
C934 C935 1.362 . S
C935 H925 0.930 . S
C935 C928 1.409 . S
C935 C934 1.362 . S
H936 C942 0.930 . S
H937 C945 0.930 . S
H938 C946 0.930 . S
H939 C947 0.930 . S
H940 C950 0.930 . S
H941 C951 0.930 . S
C942 H936 0.930 . S
C942 C943 1.355 . S
C942 C944 1.415 . S
C943 C942 1.355 . S
C943 C945 1.419 . S
C944 C942 1.415 . S
C944 C949 1.425 . S
C944 C951 1.409 . S
C945 H937 0.930 . S
C945 C943 1.419 . S
C945 C946 1.362 . S
C946 H938 0.930 . S
C946 C945 1.362 . S
C946 C949 1.409 . S
C947 H939 0.930 . S
C947 C948 1.355 . S
C947 C949 1.415 . S
C948 C947 1.355 . S
C948 C950 1.419 . S
C949 C944 1.425 . S
C949 C946 1.409 . S
C949 C947 1.415 . S
C950 H940 0.930 . S
C950 C948 1.419 . S
C950 C951 1.362 . S
C951 H941 0.930 . S
C951 C944 1.409 . S
C951 C950 1.362 . S
H952 C958 0.930 . S
H953 C961 0.930 . S
H954 C962 0.930 . S
H955 C963 0.930 . S
H956 C966 0.930 . S
H957 C967 0.930 . S
C958 H952 0.930 . S
C958 C959 1.355 . S
C958 C960 1.415 . S
C959 C958 1.355 . S
C959 C961 1.419 . S
C960 C958 1.415 . S
C960 C965 1.425 . S
C960 C967 1.409 . S
C961 H953 0.930 . S
C961 C959 1.419 . S
C961 C962 1.362 . S
C962 H954 0.930 . S
C962 C961 1.362 . S
C962 C965 1.409 . S
C963 H955 0.930 . S
C963 C964 1.355 . S
C963 C965 1.415 . S
C964 C963 1.355 . S
C964 C966 1.419 . S
C965 C960 1.425 . S
C965 C962 1.409 . S
C965 C963 1.415 . S
C966 H956 0.930 . S
C966 C964 1.419 . S
C966 C967 1.362 . S
C967 H957 0.930 . S
C967 C960 1.409 . S
C967 C966 1.362 . S
H968 C974 0.930 . S
H969 C977 0.930 . S
H970 C978 0.930 . S
H971 C979 0.930 . S
H972 C982 0.930 . S
H973 C983 0.930 . S
C974 H968 0.930 . S
C974 C975 1.355 . S
C974 C976 1.415 . S
C975 C974 1.355 . S
C975 C977 1.419 . S
C976 C974 1.415 . S
C976 C981 1.425 . S
C976 C983 1.409 . S
C977 H969 0.930 . S
C977 C975 1.419 . S
C977 C978 1.362 . S
C978 H970 0.930 . S
C978 C977 1.362 . S
C978 C981 1.409 . S
C979 H971 0.930 . S
C979 C980 1.355 . S
C979 C981 1.415 . S
C980 C979 1.355 . S
C980 C982 1.419 . S
C981 C976 1.425 . S
C981 C978 1.409 . S
C981 C979 1.415 . S
C982 H972 0.930 . S
C982 C980 1.419 . S
C982 C983 1.362 . S
C983 H973 0.930 . S
C983 C976 1.409 . S
C983 C982 1.362 . S
H984 C990 0.930 . S
H985 C993 0.930 . S
H986 C994 0.930 . S
H987 C995 0.930 . S
H988 C998 0.930 . S
H989 C999 0.930 . S
C990 H984 0.930 . S
C990 C991 1.355 . S
C990 C992 1.415 . S
C991 C990 1.355 . S
C991 C993 1.419 . S
C992 C990 1.415 . S
C992 C997 1.425 . S
C992 C999 1.409 . S
C993 H985 0.930 . S
C993 C991 1.419 . S
C993 C994 1.362 . S
C994 H986 0.930 . S
C994 C993 1.362 . S
C994 C997 1.409 . S
C995 H987 0.930 . S
C995 C996 1.355 . S
C995 C997 1.415 . S
C996 C995 1.355 . S
C996 C998 1.419 . S
C997 C992 1.425 . S
C997 C994 1.409 . S
C997 C995 1.415 . S
C998 H988 0.930 . S
C998 C996 1.419 . S
C998 C999 1.362 . S
C999 H989 0.930 . S
C999 C992 1.409 . S
C999 C998 1.362 . S
H1000 C1006 0.930 . S
H1001 C1009 0.930 . S
H1002 C1010 0.930 . S
H1003 C1011 0.930 . S
H1004 C1014 0.930 . S
H1005 C1015 0.930 . S
C1006 H1000 0.930 . S
C1006 C1007 1.355 . S
C1006 C1008 1.415 . S
C1007 C1006 1.355 . S
C1007 C1009 1.419 . S
C1008 C1006 1.415 . S
C1008 C1013 1.425 . S
C1008 C1015 1.409 . S
C1009 H1001 0.930 . S
C1009 C1007 1.419 . S
C1009 C1010 1.362 . S
C1010 H1002 0.930 . S
C1010 C1009 1.362 . S
C1010 C1013 1.409 . S
C1011 H1003 0.930 . S
C1011 C1012 1.355 . S
C1011 C1013 1.415 . S
C1012 C1011 1.355 . S
C1012 C1014 1.419 . S
C1013 C1008 1.425 . S
C1013 C1010 1.409 . S
C1013 C1011 1.415 . S
C1014 H1004 0.930 . S
C1014 C1012 1.419 . S
C1014 C1015 1.362 . S
C1015 H1005 0.930 . S
C1015 C1008 1.409 . S
C1015 C1014 1.362 . S
H1016 C1022 0.930 . S
H1017 C1025 0.930 . S
H1018 C1026 0.930 . S
H1019 C1027 0.930 . S
H1020 C1030 0.930 . S
H1021 C1031 0.930 . S
C1022 H1016 0.930 . S
C1022 C1023 1.355 . S
C1022 C1024 1.415 . S
C1023 C1022 1.355 . S
C1023 C1025 1.419 . S
C1024 C1022 1.415 . S
C1024 C1029 1.425 . S
C1024 C1031 1.409 . S
C1025 H1017 0.930 . S
C1025 C1023 1.419 . S
C1025 C1026 1.362 . S
C1026 H1018 0.930 . S
C1026 C1025 1.362 . S
C1026 C1029 1.409 . S
C1027 H1019 0.930 . S
C1027 C1028 1.355 . S
C1027 C1029 1.415 . S
C1028 C1027 1.355 . S
C1028 C1030 1.419 . S
C1029 C1024 1.425 . S
C1029 C1026 1.409 . S
C1029 C1027 1.415 . S
C1030 H1020 0.930 . S
C1030 C1028 1.419 . S
C1030 C1031 1.362 . S
C1031 H1021 0.930 . S
C1031 C1024 1.409 . S
C1031 C1030 1.362 . S
H1032 C1038 0.930 . S
H1033 C1041 0.930 . S
H1034 C1042 0.930 . S
H1035 C1043 0.930 . S
H1036 C1046 0.930 . S
H1037 C1047 0.930 . S
C1038 H1032 0.930 . S
C1038 C1039 1.355 . S
C1038 C1040 1.415 . S
C1039 C1038 1.355 . S
C1039 C1041 1.419 . S
C1040 C1038 1.415 . S
C1040 C1045 1.425 . S
C1040 C1047 1.409 . S
C1041 H1033 0.930 . S
C1041 C1039 1.419 . S
C1041 C1042 1.362 . S
C1042 H1034 0.930 . S
C1042 C1041 1.362 . S
C1042 C1045 1.409 . S
C1043 H1035 0.930 . S
C1043 C1044 1.355 . S
C1043 C1045 1.415 . S
C1044 C1043 1.355 . S
C1044 C1046 1.419 . S
C1045 C1040 1.425 . S
C1045 C1042 1.409 . S
C1045 C1043 1.415 . S
C1046 H1036 0.930 . S
C1046 C1044 1.419 . S
C1046 C1047 1.362 . S
C1047 H1037 0.930 . S
C1047 C1040 1.409 . S
C1047 C1046 1.362 . S
H1048 C1054 0.930 . S
H1049 C1057 0.930 . S
H1050 C1058 0.930 . S
H1051 C1059 0.930 . S
H1052 C1062 0.930 . S
H1053 C1063 0.930 . S
C1054 H1048 0.930 . S
C1054 C1055 1.355 . S
C1054 C1056 1.415 . S
C1055 C1054 1.355 . S
C1055 C1057 1.419 . S
C1056 C1054 1.415 . S
C1056 C1061 1.425 . S
C1056 C1063 1.409 . S
C1057 H1049 0.930 . S
C1057 C1055 1.419 . S
C1057 C1058 1.362 . S
C1058 H1050 0.930 . S
C1058 C1057 1.362 . S
C1058 C1061 1.409 . S
C1059 H1051 0.930 . S
C1059 C1060 1.355 . S
C1059 C1061 1.415 . S
C1060 C1059 1.355 . S
C1060 C1062 1.419 . S
C1061 C1056 1.425 . S
C1061 C1058 1.409 . S
C1061 C1059 1.415 . S
C1062 H1052 0.930 . S
C1062 C1060 1.419 . S
C1062 C1063 1.362 . S
C1063 H1053 0.930 . S
C1063 C1056 1.409 . S
C1063 C1062 1.362 . S
H1064 C1070 0.930 . S
H1065 C1073 0.930 . S
H1066 C1074 0.930 1_554 S
H1067 C1075 0.930 1_554 S
H1068 C1078 0.930 . S
H1069 C1079 0.930 . S
C1070 H1064 0.930 . S
C1070 C1071 1.355 . S
C1070 C1072 1.415 . S
C1071 C1070 1.355 . S
C1071 C1073 1.419 . S
C1072 C1070 1.415 . S
C1072 C1077 1.425 . S
C1072 C1079 1.409 . S
C1073 H1065 0.930 . S
C1073 C1071 1.419 . S
C1073 C1074 1.362 . S
C1074 H1066 0.930 1_556 S
C1074 C1073 1.362 . S
C1074 C1077 1.409 . S
C1075 H1067 0.930 1_556 S
C1075 C1076 1.355 . S
C1075 C1077 1.415 . S
C1076 C1075 1.355 . S
C1076 C1078 1.419 . S
C1077 C1072 1.425 . S
C1077 C1074 1.409 . S
C1077 C1075 1.415 . S
C1078 H1068 0.930 . S
C1078 C1076 1.419 . S
C1078 C1079 1.362 . S
C1079 H1069 0.930 . S
C1079 C1072 1.409 . S
C1079 C1078 1.362 . S
H1080 C1086 0.930 . S
H1081 C1089 0.930 . S
H1082 C1090 0.930 . S
H1083 C1091 0.930 . S
H1084 C1094 0.930 . S
H1085 C1095 0.930 . S
C1086 H1080 0.930 . S
C1086 C1087 1.355 . S
C1086 C1088 1.415 . S
C1087 C1086 1.355 . S
C1087 C1089 1.419 . S
C1088 C1086 1.415 . S
C1088 C1093 1.425 . S
C1088 C1095 1.409 . S
C1089 H1081 0.930 . S
C1089 C1087 1.419 . S
C1089 C1090 1.362 . S
C1090 H1082 0.930 . S
C1090 C1089 1.362 . S
C1090 C1093 1.409 . S
C1091 H1083 0.930 . S
C1091 C1092 1.355 . S
C1091 C1093 1.415 . S
C1092 C1091 1.355 . S
C1092 C1094 1.419 . S
C1093 C1088 1.425 . S
C1093 C1090 1.409 . S
C1093 C1091 1.415 . S
C1094 H1084 0.930 . S
C1094 C1092 1.419 . S
C1094 C1095 1.362 . S
C1095 H1085 0.930 . S
C1095 C1088 1.409 . S
C1095 C1094 1.362 . S
H1096 C1102 0.930 . S
H1097 C1105 0.930 . S
H1098 C1106 0.930 . S
H1099 C1107 0.930 . S
H1100 C1110 0.930 . S
H1101 C1111 0.930 . S
C1102 H1096 0.930 . S
C1102 C1103 1.355 . S
C1102 C1104 1.415 . S
C1103 C1102 1.355 . S
C1103 C1105 1.419 . S
C1104 C1102 1.415 . S
C1104 C1109 1.425 . S
C1104 C1111 1.409 . S
C1105 H1097 0.930 . S
C1105 C1103 1.419 . S
C1105 C1106 1.362 . S
C1106 H1098 0.930 . S
C1106 C1105 1.362 . S
C1106 C1109 1.409 . S
C1107 H1099 0.930 . S
C1107 C1108 1.355 . S
C1107 C1109 1.415 . S
C1108 C1107 1.355 . S
C1108 C1110 1.419 . S
C1109 C1104 1.425 . S
C1109 C1106 1.409 . S
C1109 C1107 1.415 . S
C1110 H1100 0.930 . S
C1110 C1108 1.419 . S
C1110 C1111 1.362 . S
C1111 H1101 0.930 . S
C1111 C1104 1.409 . S
C1111 C1110 1.362 . S
H1112 C1118 0.930 . S
H1113 C1121 0.930 . S
H1114 C1122 0.930 . S
H1115 C1123 0.930 . S
H1116 C1126 0.930 . S
H1117 C1127 0.930 1_545 S
C1118 H1112 0.930 . S
C1118 C1119 1.355 1_545 S
C1118 C1120 1.415 1_545 S
C1119 C1118 1.355 1_565 S
C1119 C1121 1.419 . S
C1120 C1118 1.415 1_565 S
C1120 C1125 1.425 . S
C1120 C1127 1.409 . S
C1121 H1113 0.930 . S
C1121 C1119 1.419 . S
C1121 C1122 1.362 . S
C1122 H1114 0.930 . S
C1122 C1121 1.362 . S
C1122 C1125 1.409 . S
C1123 H1115 0.930 . S
C1123 C1124 1.355 . S
C1123 C1125 1.415 . S
C1124 C1123 1.355 . S
C1124 C1126 1.419 . S
C1125 C1120 1.425 . S
C1125 C1122 1.409 . S
C1125 C1123 1.415 . S
C1126 H1116 0.930 . S
C1126 C1124 1.419 . S
C1126 C1127 1.362 . S
C1127 H1117 0.930 1_565 S
C1127 C1120 1.409 . S
C1127 C1126 1.362 . S
C372 C203 1.640 . S
C367 C66 1.692 . S
C388 C211 0.943 . S
C383 C76 1.233 . S
C399 C93 1.759 . S
C404 C231 1.735 . S
C420 C245 1.446 . S
C415 C54 1.487 1_545 S
C436 C260 1.508 . S
C431 C126 1.508 . S
C452 C274 1.803 . S
C447 C150 1.809 . S
C463 C136 1.268 . S
C468 C288 1.281 . S
C484 C294 1.708 . S
C479 C117 1.750 . S
C495 C141 1.344 . S
C500 C308 1.281 . S
C516 C329 1.386 . S
C511 C112 1.392 . S
C527 C124 1.486 . S
C532 C309 1.186 . S
C548 C330 1.331 . S
C543 C148 1.322 . S
C559 C88 1.292 . S
C564 C337 1.066 . S
C575 C52 1.565 . S
C580 C343 1.567 . S
C591 C64 1.302 . S
C596 C336 1.231 . S
C607 C78 1.230 . S
C612 C344 1.225 . S
C623 C45 1.673 . S
C628 C238 1.674 . S
C639 C177 1.837 . S
C644 C239 1.612 . S
C660 C196 1.361 . S
C655 C189 1.409 1_565 S
C676 C217 1.564 . S
C671 C102 1.553 . S
C687 C57 1.678 . S
C692 C252 1.699 . S
C708 C302 1.475 . S
C703 C138 1.465 . S
C724 C253 1.539 . S
C719 C114 1.709 . S
C740 C281 1.444 . S
C735 C153 1.731 . S
C756 C287 1.691 . S
C751 C174 1.713 . S
C767 C184 1.248 . S
C772 C295 1.103 . S
C783 C105 1.741 . S
C788 C259 1.734 . S
C804 C273 1.448 . S
C799 C162 1.489 . S
C815 C42 1.496 . S
C820 C232 1.500 . S
C836 C246 1.820 . S
C831 C6 1.823 . S
C852 C204 1.289 . S
C847 C16 1.289 . S
C868 C210 1.645 . S
C863 C33 1.739 1_455 S
C879 C21 1.347 . S
C884 C322 1.291 . S
C895 C28 1.371 1_556 S
C900 C315 1.345 1_655 S
C911 C40 1.484 . S
C916 C323 1.175 . S
C927 C4 1.333 . S
C932 C316 1.315 . S
C948 C351 1.062 . S
C943 C100 1.292 . S
C964 C357 1.527 . S
C959 C160 1.580 . S
C980 C350 1.262 . S
C975 C172 1.294 . S
C991 C186 1.216 1_554 S
C996 C358 1.221 . S
C1007 C129 1.674 . S
C1012 C266 1.677 . S
C1028 C267 1.588 . S
C1023 C69 1.836 . S
C1044 C280 1.382 . S
C1039 C81 1.422 . S
C1060 C301 1.532 . S
C1055 C90 1.570 . S
C1071 C165 1.689 . S
C1076 C224 1.692 . S
C1092 C218 1.472 . S
C1087 C18 1.472 . S
C1103 C30 1.702 . S
C1108 C225 1.462 . S
C1124 C197 1.482 . S
C1119 C9 1.739 1_565 S
