# Generated by pormake.
# Topology pyr, (3,6)-cn, num edge types: 1
# Building blocks:
#     Node 0, Type 0, BuildingBlock: KAKCAD_clean_linker_0, # of connection points: 3
#     Node 1, Type 0, BuildingBlock: KAKCAD_clean_linker_0, # of connection points: 3
#     Node 2, Type 0, BuildingBlock: KAKCAD_clean_linker_0, # of connection points: 3
#     Node 3, Type 0, BuildingBlock: KAKCAD_clean_linker_0, # of connection points: 3
#     Node 4, Type 0, BuildingBlock: KAKCAD_clean_linker_0, # of connection points: 3
#     Node 5, Type 0, BuildingBlock: KAKCAD_clean_linker_0, # of connection points: 3
#     Node 6, Type 0, BuildingBlock: KAKCAD_clean_linker_0, # of connection points: 3
#     Node 7, Type 0, BuildingBlock: KAKCAD_clean_linker_0, # of connection points: 3
#     Node 8, Type 1, BuildingBlock: MIFKUJ_clean_sbu_0, # of connection points: 6
#     Node 9, Type 1, BuildingBlock: MIFKUJ_clean_sbu_0, # of connection points: 6
#     Node 10, Type 1, BuildingBlock: MIFKUJ_clean_sbu_0, # of connection points: 6
#     Node 11, Type 1, BuildingBlock: MIFKUJ_clean_sbu_0, # of connection points: 6
#     Edge 12, Type (0, 1), None
#     Edge 13, Type (0, 1), None
#     Edge 14, Type (0, 1), None
#     Edge 15, Type (0, 1), None
#     Edge 16, Type (0, 1), None
#     Edge 17, Type (0, 1), None
#     Edge 18, Type (0, 1), None
#     Edge 19, Type (0, 1), None
#     Edge 20, Type (0, 1), None
#     Edge 21, Type (0, 1), None
#     Edge 22, Type (0, 1), None
#     Edge 23, Type (0, 1), None
#     Edge 24, Type (0, 1), None
#     Edge 25, Type (0, 1), None
#     Edge 26, Type (0, 1), None
#     Edge 27, Type (0, 1), None
#     Edge 28, Type (0, 1), None
#     Edge 29, Type (0, 1), None
#     Edge 30, Type (0, 1), None
#     Edge 31, Type (0, 1), None
#     Edge 32, Type (0, 1), None
#     Edge 33, Type (0, 1), None
#     Edge 34, Type (0, 1), None
#     Edge 35, Type (0, 1), None
# Relax obj value: 0.039
# Max RMSD: 0.089
# Mean RMSD: 0.053
data_MOF--net-pyr--node1-MIFKUJ_clean_sbu_0--node2-KAKCAD_clean_linker_0--edge1-none
_symmetry_space_group_name_H-M    P1
_symmetry_Int_Tables_number       1
_symmetry_cell_setting            triclinic
loop_
_symmetry_equiv_pos_as_xyz
'x, y, z'
_cell_length_a     27.41814
_cell_length_b     24.49413
_cell_length_c     25.651513
_cell_angle_alpha  84.86339
_cell_angle_beta   87.016008
_cell_angle_gamma 97.199274
loop_
_atom_site_label
_atom_site_type_symbol
_atom_site_fract_x
_atom_site_fract_y
_atom_site_fract_z
_atom_type_partial_charge
C0 C 0.07339 0.08574 0.35491 0.0
C1 C 0.09672 0.07228 0.4009 0.0
C2 C 0.10082 0.11343 0.31082 0.0
C3 C 0.15205 0.12731 0.31177 0.0
C4 C 0.17547 0.11319 0.35741 0.0
C5 C 0.14802 0.08629 0.40171 0.0
C6 C 0.18097 0.15635 0.26508 0.0
C7 C 0.16576 0.20368 0.23953 0.0
C8 C 0.19146 0.23014 0.19357 0.0
C9 C 0.23318 0.20892 0.17375 0.0
C10 C 0.24893 0.16157 0.19902 0.0
C11 C 0.22281 0.13578 0.24503 0.0
C12 C 0.29086 0.13726 0.17571 0.0
C13 C 0.29594 0.13445 0.12124 0.0
C14 C 0.3252 0.11532 0.20765 0.0
C15 C 0.36341 0.0904 0.18562 0.0
C16 C 0.36815 0.08728 0.13121 0.0
C17 C 0.17374 0.27858 0.1652 0.0
C18 C 0.12296 0.2807 0.16158 0.0
C19 C 0.20738 0.32248 0.14054 0.0
C20 C 0.19065 0.36698 0.11228 0.0
C21 C 0.13996 0.36894 0.10879 0.0
C22 C 0.10623 0.32569 0.13401 0.0
C23 C 0.3343 0.10996 0.09921 0.0
H24 H 0.03393 0.07561 0.35321 0.0
H25 H 0.08209 0.12357 0.27576 0.0
H26 H 0.21491 0.12369 0.35905 0.0
H27 H 0.16708 0.07634 0.43657 0.0
H28 H 0.13399 0.22005 0.25586 0.0
H29 H 0.23364 0.09824 0.26405 0.0
H30 H 0.25294 0.22861 0.13794 0.0
H31 H 0.26963 0.15008 0.09561 0.0
H32 H 0.32261 0.11751 0.24968 0.0
H33 H 0.38923 0.07369 0.21124 0.0
H34 H 0.09603 0.24714 0.17925 0.0
H35 H 0.24668 0.32273 0.14332 0.0
H36 H 0.33691 0.10803 0.05715 0.0
H37 H 0.06694 0.32613 0.13171 0.0
H38 H 0.21748 0.40019 0.0937 0.0
C39 C 0.39494 0.89406 0.87825 0.0
C40 C 0.44627 0.89531 0.87366 0.0
C41 C 0.36666 0.88015 0.83617 0.0
C42 C 0.38958 0.86823 0.78878 0.0
C43 C 0.44136 0.87262 0.78398 0.0
C44 C 0.46925 0.88515 0.82619 0.0
C45 C 0.36033 0.84876 0.74504 0.0
C46 C 0.31687 0.87038 0.73206 0.0
C47 C 0.2906 0.85255 0.68952 0.0
C48 C 0.30902 0.81342 0.65937 0.0
C49 C 0.3524 0.79137 0.6718 0.0
C50 C 0.37678 0.80831 0.71545 0.0
C51 C 0.3727 0.75063 0.63965 0.0
C52 C 0.34126 0.70958 0.61858 0.0
C53 C 0.42403 0.75167 0.63092 0.0
C54 C 0.44335 0.71177 0.60326 0.0
C55 C 0.41182 0.67059 0.58274 0.0
C56 C 0.24448 0.8755 0.67596 0.0
C57 C 0.20993 0.88503 0.71553 0.0
C58 C 0.23469 0.88824 0.62327 0.0
C59 C 0.19181 0.91049 0.61051 0.0
C60 C 0.15772 0.92094 0.6501 0.0
C61 C 0.16711 0.90758 0.70276 0.0
C62 C 0.3606 0.67027 0.59016 0.0
H63 H 0.3767 0.90184 0.91482 0.0
H64 H 0.32693 0.87696 0.84138 0.0
H65 H 0.46053 0.86562 0.74768 0.0
H66 H 0.50896 0.88673 0.82181 0.0
H67 H 0.30426 0.90224 0.75406 0.0
H68 H 0.40866 0.78924 0.72692 0.0
H69 H 0.28955 0.80015 0.62611 0.0
H70 H 0.30165 0.70682 0.62511 0.0
H71 H 0.44947 0.78337 0.6455 0.0
H72 H 0.48296 0.71323 0.59786 0.0
H73 H 0.21588 0.87492 0.75648 0.0
H74 H 0.26072 0.88225 0.59174 0.0
H75 H 0.3353 0.63863 0.57527 0.0
H76 H 0.14164 0.91504 0.73424 0.0
H77 H 0.18602 0.9207 0.56952 0.0
C78 C 0.79978 0.46646 0.84803 0.0
C79 C 0.83095 0.43375 0.87437 0.0
C80 C 0.7553 0.44237 0.83103 0.0
C81 C 0.74177 0.38468 0.83842 0.0
C82 C 0.77391 0.35205 0.8642 0.0
C83 C 0.81762 0.3765 0.88286 0.0
C84 C 0.69428 0.35882 0.81987 0.0
C85 C 0.67382 0.38247 0.77536 0.0
C86 C 0.62864 0.35879 0.7585 0.0
C87 C 0.6047 0.30927 0.78556 0.0
C88 C 0.62517 0.28422 0.82925 0.0
C89 C 0.66904 0.31016 0.8468 0.0
C90 C 0.6017 0.2306 0.85683 0.0
C91 C 0.55056 0.22022 0.86883 0.0
C92 C 0.6311 0.18993 0.87306 0.0
C93 C 0.61027 0.14093 0.90209 0.0
C94 C 0.55938 0.13108 0.91542 0.0
C95 C 0.60704 0.38555 0.71218 0.0
C96 C 0.60876 0.44347 0.70453 0.0
C97 C 0.58472 0.35343 0.67509 0.0
C98 C 0.56448 0.37842 0.63167 0.0
C99 C 0.56614 0.43628 0.62397 0.0
C100 C 0.58859 0.46856 0.66089 0.0
C101 C 0.52959 0.17089 0.89786 0.0
H102 H 0.80942 0.51093 0.84149 0.0
H103 H 0.7314 0.46932 0.8127 0.0
H104 H 0.76585 0.30745 0.86953 0.0
H105 H 0.84163 0.35059 0.90258 0.0
H106 H 0.69351 0.4188 0.75285 0.0
H107 H 0.68305 0.29247 0.88231 0.0
H108 H 0.5703 0.29003 0.77252 0.0
H109 H 0.52696 0.25083 0.85712 0.0
H110 H 0.67049 0.19613 0.86354 0.0
H111 H 0.63424 0.11091 0.91441 0.0
H112 H 0.6252 0.46946 0.73265 0.0
H113 H 0.58343 0.30887 0.67919 0.0
H114 H 0.49023 0.16451 0.90744 0.0
H115 H 0.59037 0.51317 0.65629 0.0
H116 H 0.54762 0.35215 0.604 0.0
C117 C 0.88156 0.54953 0.11903 0.0
C118 C 0.93265 0.54815 0.11993 0.0
C119 C 0.85625 0.57351 0.15797 0.0
C120 C 0.88138 0.59705 0.19866 0.0
C121 C 0.93238 0.59539 0.19982 0.0
C122 C 0.95766 0.571 0.1611 0.0
C123 C 0.85425 0.6228 0.23985 0.0
C124 C 0.80839 0.59627 0.26215 0.0
C125 C 0.78202 0.61992 0.30082 0.0
C126 C 0.80169 0.67101 0.31654 0.0
C127 C 0.8471 0.69869 0.29456 0.0
C128 C 0.87361 0.67396 0.2567 0.0
C129 C 0.8656 0.75349 0.3119 0.0
C130 C 0.83267 0.79221 0.31888 0.0
C131 C 0.91437 0.76574 0.32616 0.0
C132 C 0.92878 0.8141 0.35012 0.0
C133 C 0.89451 0.8506 0.3604 0.0
C134 C 0.73375 0.59181 0.32486 0.0
C135 C 0.69829 0.56716 0.29362 0.0
C136 C 0.72239 0.59042 0.37917 0.0
C137 C 0.67677 0.56471 0.40174 0.0
C138 C 0.64146 0.53976 0.37051 0.0
C139 C 0.65268 0.54153 0.31615 0.0
C140 C 0.84682 0.83988 0.34311 0.0
H141 H 0.86105 0.53247 0.08798 0.0
H142 H 0.81704 0.5745 0.15566 0.0
H143 H 0.95272 0.61263 0.23092 0.0
H144 H 0.99704 0.57099 0.16297 0.0
H145 H 0.79375 0.55639 0.25033 0.0
H146 H 0.90842 0.69531 0.23919 0.0
H147 H 0.7813 0.68956 0.34608 0.0
H148 H 0.79524 0.78476 0.30707 0.0
H149 H 0.94058 0.73671 0.32123 0.0
H150 H 0.96588 0.8215 0.36284 0.0
H151 H 0.70557 0.56819 0.25161 0.0
H152 H 0.74909 0.60856 0.40444 0.0
H153 H 0.81985 0.86779 0.34942 0.0
H154 H 0.62633 0.52275 0.29086 0.0
H155 H 0.66946 0.56378 0.44373 0.0
C156 C 0.88916 0.87204 0.60177 0.0
C157 C 0.91823 0.92306 0.60463 0.0
C158 C 0.86093 0.84565 0.64586 0.0
C159 C 0.86039 0.87082 0.69275 0.0
C160 C 0.88893 0.92204 0.69556 0.0
C161 C 0.91825 0.94772 0.6519 0.0
C162 C 0.83146 0.84301 0.73956 0.0
C163 C 0.84803 0.79797 0.76735 0.0
C164 C 0.82365 0.77421 0.81502 0.0
C165 C 0.78192 0.79619 0.83411 0.0
C166 C 0.76513 0.84192 0.80672 0.0
C167 C 0.78991 0.86442 0.75877 0.0
C168 C 0.72441 0.86871 0.83009 0.0
C169 C 0.68552 0.83743 0.86197 0.0
C170 C 0.72544 0.92655 0.82269 0.0
C171 C 0.68884 0.95232 0.84649 0.0
C172 C 0.6512 0.92113 0.87947 0.0
C173 C 0.84373 0.72898 0.84627 0.0
C174 C 0.86648 0.68901 0.82125 0.0
C175 C 0.84159 0.72627 0.90141 0.0
C176 C 0.86086 0.68421 0.93071 0.0
C177 C 0.88392 0.64497 0.90552 0.0
C178 C 0.88694 0.64783 0.8506 0.0
C179 C 0.64966 0.8635 0.887 0.0
H180 H 0.88877 0.85232 0.5656 0.0
H181 H 0.83928 0.80592 0.64332 0.0
H182 H 0.88889 0.94177 0.73172 0.0
H183 H 0.94006 0.98729 0.6547 0.0
H184 H 0.88143 0.78339 0.75284 0.0
H185 H 0.77756 0.89918 0.73639 0.0
H186 H 0.7634 0.77865 0.87121 0.0
H187 H 0.68267 0.7928 0.86775 0.0
H188 H 0.75523 0.95243 0.79966 0.0
H189 H 0.69085 0.99691 0.84033 0.0
H190 H 0.86801 0.68901 0.77899 0.0
H191 H 0.8256 0.75696 0.92218 0.0
H192 H 0.6204 0.83854 0.91173 0.0
H193 H 0.9037 0.6172 0.83038 0.0
H194 H 0.85812 0.68266 0.97313 0.0
C195 C 0.59464 0.0669 0.15452 0.0
C196 C 0.57617 0.10829 0.12255 0.0
C197 C 0.62337 0.08079 0.19607 0.0
C198 C 0.63385 0.13622 0.20648 0.0
C199 C 0.61734 0.17768 0.17303 0.0
C200 C 0.58891 0.16389 0.13145 0.0
C201 C 0.65842 0.15076 0.25436 0.0
C202 C 0.70157 0.12948 0.26805 0.0
C203 C 0.72393 0.14206 0.31459 0.0
C204 C 0.7028 0.17833 0.34638 0.0
C205 C 0.6599 0.20095 0.33242 0.0
C206 C 0.63764 0.18566 0.28695 0.0
C207 C 0.63777 0.24069 0.36447 0.0
C208 C 0.63838 0.23597 0.41953 0.0
C209 C 0.61477 0.28351 0.33977 0.0
C210 C 0.59201 0.31956 0.36913 0.0
C211 C 0.59285 0.31487 0.42392 0.0
C212 C 0.76886 0.11682 0.32963 0.0
C213 C 0.77582 0.064 0.3152 0.0
C214 C 0.80525 0.14477 0.35814 0.0
C215 C 0.84706 0.12044 0.37178 0.0
C216 C 0.85413 0.06861 0.35569 0.0
C217 C 0.81825 0.04074 0.32724 0.0
C218 C 0.61659 0.27309 0.44888 0.0
H219 H 0.58559 0.02367 0.14854 0.0
H220 H 0.63552 0.04805 0.22145 0.0
H221 H 0.62549 0.2208 0.17983 0.0
H222 H 0.57569 0.19682 0.1073 0.0
H223 H 0.71795 0.10379 0.24164 0.0
H224 H 0.6032 0.20014 0.27708 0.0
H225 H 0.7196 0.18896 0.38196 0.0
H226 H 0.65507 0.20326 0.44011 0.0
H227 H 0.61473 0.28982 0.29745 0.0
H228 H 0.57501 0.3522 0.34872 0.0
H229 H 0.74825 0.0399 0.29504 0.0
H230 H 0.80199 0.18573 0.36943 0.0
H231 H 0.61795 0.2688 0.49117 0.0
H232 H 0.82235 6e-05 0.31549 0.0
H233 H 0.87431 0.14256 0.39396 0.0
C234 C 0.18229 0.57554 0.18776 0.0
C235 C 0.17583 0.57721 0.13358 0.0
C236 C 0.22757 0.59572 0.20609 0.0
C237 C 0.26726 0.6181 0.17061 0.0
C238 C 0.26071 0.61976 0.11646 0.0
C239 C 0.21551 0.59967 0.09816 0.0
C240 C 0.31508 0.64125 0.18953 0.0
C241 C 0.33675 0.61357 0.23082 0.0
C242 C 0.38256 0.63562 0.24795 0.0
C243 C 0.4071 0.68543 0.22143 0.0
C244 C 0.38622 0.71301 0.17922 0.0
C245 C 0.33951 0.69126 0.1651 0.0
C246 C 0.41247 0.76414 0.14885 0.0
C247 C 0.44248 0.80412 0.17317 0.0
C248 C 0.40614 0.77411 0.09474 0.0
C249 C 0.42667 0.82368 0.06657 0.0
C250 C 0.45566 0.86359 0.09118 0.0
C251 C 0.40459 0.60651 0.29318 0.0
C252 C 0.37427 0.57589 0.33466 0.0
C253 C 0.45611 0.60948 0.29583 0.0
C254 C 0.47649 0.58418 0.33913 0.0
C255 C 0.44598 0.55381 0.37996 0.0
C256 C 0.39479 0.54926 0.3772 0.0
C257 C 0.46439 0.85319 0.14433 0.0
H258 H 0.15247 0.55826 0.21612 0.0
H259 H 0.23133 0.59443 0.24799 0.0
H260 H 0.29082 0.63607 0.08809 0.0
H261 H 0.21197 0.60097 0.05622 0.0
H262 H 0.31831 0.57412 0.24859 0.0
H263 H 0.32154 0.71363 0.13492 0.0
H264 H 0.44249 0.7028 0.23345 0.0
H265 H 0.44799 0.79837 0.21467 0.0
H266 H 0.38494 0.74374 0.0739 0.0
H267 H 0.42018 0.8307 0.02533 0.0
H268 H 0.33456 0.57335 0.33511 0.0
H269 H 0.48098 0.63118 0.26446 0.0
H270 H 0.48674 0.8838 0.1639 0.0
H271 H 0.37065 0.52663 0.40881 0.0
H272 H 0.51619 0.58806 0.34061 0.0
C273 C 0.16679 0.15888 0.66316 0.0
C274 C 0.1189 0.14612 0.64699 0.0
C275 C 0.1802 0.20757 0.68602 0.0
C276 C 0.14626 0.2452 0.69294 0.0
C277 C 0.09745 0.23118 0.67964 0.0
C278 C 0.08383 0.18189 0.65684 0.0
C279 C 0.16382 0.30035 0.70998 0.0
C280 C 0.20824 0.32928 0.68683 0.0
C281 C 0.22909 0.37914 0.70438 0.0
C282 C 0.2035 0.40087 0.74515 0.0
C283 C 0.15763 0.37404 0.76723 0.0
C284 C 0.13799 0.32359 0.74935 0.0
C285 C 0.13063 0.39888 0.80912 0.0
C286 C 0.15554 0.42023 0.85094 0.0
C287 C 0.08 0.40251 0.80703 0.0
C288 C 0.0549 0.42711 0.84573 0.0
C289 C 0.07973 0.44816 0.88782 0.0
C290 C 0.27727 0.40809 0.67971 0.0
C291 C 0.31318 0.37792 0.6589 0.0
C292 C 0.28768 0.46616 0.67588 0.0
C293 C 0.33259 0.49298 0.65265 0.0
C294 C 0.36747 0.46263 0.63121 0.0
C295 C 0.35741 0.40501 0.6341 0.0
C296 C 0.13039 0.44434 0.8899 0.0
H297 H 0.19448 0.1318 0.65705 0.0
H298 H 0.21778 0.21659 0.69699 0.0
H299 H 0.07052 0.2594 0.6846 0.0
H300 H 0.04657 0.173 0.64494 0.0
H301 H 0.22625 0.31274 0.6543 0.0
H302 H 0.10356 0.30161 0.76724 0.0
H303 H 0.21899 0.43896 0.75979 0.0
H304 H 0.19446 0.41762 0.85395 0.0
H305 H 0.05989 0.38691 0.77505 0.0
H306 H 0.01585 0.42899 0.84294 0.0
H307 H 0.30766 0.33319 0.66225 0.0
H308 H 0.26105 0.49126 0.69017 0.0
H309 H 0.15072 0.45977 0.92181 0.0
H310 H 0.38435 0.38088 0.61859 0.0
H311 H 0.33983 0.53767 0.65073 0.0
Zn312 Zn 0.05961 0.01399 0.56386 0.0
Zn313 Zn 0.95508 0.98338 0.44233 0.0
C314 C 0.10769 0.09757 0.61706 0.0
O315 O 0.14411 0.07571 0.59524 0.0
C316 C 0.90627 0.89772 0.39194 0.0
O317 O 0.87023 0.9176 0.41671 0.0
O318 O 0.10669 0.96105 0.58866 0.0
O319 O 0.99031 0.97516 0.56106 0.0
O320 O 0.9277 0.95006 0.51372 0.0
C321 C 0.11447 0.94894 0.6365 0.0
O322 O 0.08745 0.96726 0.67327 0.0
O323 O 0.0637 0.07753 0.60993 0.0
C324 C 0.89748 0.04184 0.36978 0.0
O325 O 0.9179 0.01296 0.33598 0.0
O326 O 0.90962 0.0384 0.41701 0.0
O327 O 0.02436 0.02117 0.44594 0.0
O328 O 0.08736 0.04599 0.49231 0.0
O329 O 0.95034 0.91966 0.39612 0.0
C330 C 0.94683 0.95116 0.55772 0.0
C331 C 0.06802 0.04493 0.44843 0.0
Zn332 Zn 0.5405 0.96746 0.98098 0.0
Zn333 Zn 0.47119 0.02758 0.02883 0.0
C334 C 0.47659 0.90487 0.91818 0.0
O335 O 0.50383 0.86713 0.93447 0.0
C336 C 0.54117 0.09379 0.08248 0.0
O337 O 0.52102 0.13269 0.05607 0.0
O338 O 0.59368 0.92884 0.95024 0.0
O339 O 0.56635 0.04858 0.96998 0.0
O340 O 0.49188 0.06807 0.95735 0.0
C341 C 0.61372 0.94886 0.90575 0.0
O342 O 0.60057 0.99457 0.88319 0.0
O343 O 0.48401 0.95272 0.93396 0.0
C344 C 0.40796 0.06025 0.10787 0.0
O345 O 0.43535 0.03222 0.13797 0.0
O346 O 0.41606 0.06376 0.05839 0.0
O347 O 0.44686 0.94569 0.03795 0.0
O348 O 0.52171 0.92992 0.05398 0.0
O349 O 0.52671 0.04353 0.07643 0.0
C350 C 0.53817 0.08004 0.94844 0.0
C351 C 0.47556 0.91624 0.06125 0.0
Zn352 Zn 0.52377 0.45088 0.46886 0.0
Zn353 Zn 0.48916 0.54332 0.53409 0.0
C354 C 0.59416 0.50956 0.39431 0.0
O355 O 0.5636 0.4827 0.36475 0.0
C356 C 0.41505 0.49153 0.60857 0.0
O357 O 0.441 0.52553 0.63648 0.0
O358 O 0.53913 0.38298 0.43552 0.0
O359 O 0.52193 0.43101 0.5469 0.0
O360 O 0.54688 0.51434 0.56878 0.0
C361 C 0.57201 0.3559 0.45423 0.0
O362 O 0.59158 0.3694 0.4977 0.0
O363 O 0.58395 0.50542 0.44365 0.0
C364 C 0.4317 0.62672 0.55543 0.0
O365 O 0.40303 0.59613 0.52686 0.0
O366 O 0.47462 0.61418 0.5633 0.0
O367 O 0.49195 0.56166 0.45514 0.0
O368 O 0.46395 0.47781 0.4371 0.0
O369 O 0.42888 0.48893 0.56074 0.0
C370 C 0.54427 0.46202 0.57764 0.0
C371 C 0.46757 0.52986 0.42663 0.0
Zn372 Zn 0.94694 0.50387 0.95812 0.0
Zn373 Zn 0.06658 0.49765 0.04772 0.0
C374 C 0.87764 0.46 0.89154 0.0
O375 O 0.90565 0.49665 0.85888 0.0
C376 C 0.12911 0.5521 0.11433 0.0
O377 O 0.09499 0.52414 0.14767 0.0
O378 O 0.93729 0.57616 0.91926 0.0
O379 O 0.93908 0.51806 0.03445 0.0
O380 O 0.00523 0.52078 0.08077 0.0
C381 C 0.90133 0.59887 0.9366 0.0
O382 O 0.87612 0.57701 0.97999 0.0
O383 O 0.88867 0.45234 0.939 0.0
C384 C 0.12269 0.41628 0.07924 0.0
O385 O 0.15328 0.44925 0.04569 0.0
O386 O 0.07899 0.42728 0.08726 0.0
O387 O 0.07377 0.48029 0.97246 0.0
O388 O 0.0077 0.47805 0.9259 0.0
O389 O 0.12373 0.55124 0.06539 0.0
C390 C 0.96014 0.52628 0.07654 0.0
C391 C 0.05252 0.47133 0.93062 0.0
loop_
_geom_bond_atom_site_label_1
_geom_bond_atom_site_label_2
_geom_bond_distance
_geom_bond_site_symmetry_2
_ccdc_geom_bond_type
C0 C1 1.386 . S
C0 C2 1.397 . S
C0 H24 0.931 . S
C1 C0 1.386 . S
C1 C5 1.397 . S
C2 C0 1.397 . S
C2 C3 1.384 . S
C2 H25 0.930 . S
C3 C2 1.384 . S
C3 C4 1.377 . S
C3 C6 1.481 . S
C4 C3 1.377 . S
C4 C5 1.389 . S
C4 H26 0.929 . S
C5 C1 1.397 . S
C5 C4 1.389 . S
C5 H27 0.931 . S
C6 C3 1.481 . S
C6 C7 1.387 . S
C6 C11 1.390 . S
C7 C6 1.387 . S
C7 C8 1.401 . S
C7 H28 0.930 . S
C8 C7 1.401 . S
C8 C9 1.376 . S
C8 C17 1.511 . S
C9 C8 1.376 . S
C9 C10 1.392 . S
C9 H30 0.931 . S
C10 C9 1.392 . S
C10 C11 1.361 . S
C10 C12 1.500 . S
C11 C6 1.390 . S
C11 C10 1.361 . S
C11 H29 0.931 . S
C12 C10 1.500 . S
C12 C13 1.371 . S
C12 C14 1.365 . S
C13 C12 1.371 . S
C13 C23 1.386 . S
C13 H31 0.931 . S
C14 C12 1.365 . S
C14 C15 1.409 . S
C14 H32 0.929 . S
C15 C14 1.409 . S
C15 C16 1.380 . S
C15 H33 0.930 . S
C16 C15 1.380 . S
C16 C23 1.357 . S
C17 C8 1.511 . S
C17 C18 1.341 . S
C17 C19 1.371 . S
C18 C17 1.341 . S
C18 C22 1.394 . S
C18 H34 0.930 . S
C19 C17 1.371 . S
C19 C20 1.392 . S
C19 H35 0.931 . S
C20 C19 1.392 . S
C20 C21 1.331 . S
C20 H38 0.932 . S
C21 C20 1.331 . S
C21 C22 1.336 . S
C22 C18 1.394 . S
C22 C21 1.336 . S
C22 H37 0.929 . S
C23 C13 1.386 . S
C23 C16 1.357 . S
C23 H36 0.928 . S
H24 C0 0.931 . S
H25 C2 0.930 . S
H26 C4 0.929 . S
H27 C5 0.931 . S
H28 C7 0.930 . S
H29 C11 0.931 . S
H30 C9 0.931 . S
H31 C13 0.931 . S
H32 C14 0.929 . S
H33 C15 0.930 . S
H34 C18 0.930 . S
H35 C19 0.931 . S
H36 C23 0.928 . S
H37 C22 0.929 . S
H38 C20 0.932 . S
C39 C40 1.386 . S
C39 C41 1.397 . S
C39 H63 0.931 . S
C40 C39 1.386 . S
C40 C44 1.397 . S
C41 C39 1.397 . S
C41 C42 1.384 . S
C41 H64 0.930 . S
C42 C41 1.384 . S
C42 C43 1.377 . S
C42 C45 1.481 . S
C43 C42 1.377 . S
C43 C44 1.389 . S
C43 H65 0.929 . S
C44 C40 1.397 . S
C44 C43 1.389 . S
C44 H66 0.931 . S
C45 C42 1.481 . S
C45 C46 1.387 . S
C45 C50 1.390 . S
C46 C45 1.387 . S
C46 C47 1.401 . S
C46 H67 0.930 . S
C47 C46 1.401 . S
C47 C48 1.376 . S
C47 C56 1.511 . S
C48 C47 1.376 . S
C48 C49 1.392 . S
C48 H69 0.931 . S
C49 C48 1.392 . S
C49 C50 1.361 . S
C49 C51 1.500 . S
C50 C45 1.390 . S
C50 C49 1.361 . S
C50 H68 0.931 . S
C51 C49 1.500 . S
C51 C52 1.371 . S
C51 C53 1.365 . S
C52 C51 1.371 . S
C52 C62 1.386 . S
C52 H70 0.931 . S
C53 C51 1.365 . S
C53 C54 1.409 . S
C53 H71 0.929 . S
C54 C53 1.409 . S
C54 C55 1.380 . S
C54 H72 0.930 . S
C55 C54 1.380 . S
C55 C62 1.357 . S
C56 C47 1.511 . S
C56 C57 1.341 . S
C56 C58 1.371 . S
C57 C56 1.341 . S
C57 C61 1.394 . S
C57 H73 0.930 . S
C58 C56 1.371 . S
C58 C59 1.392 . S
C58 H74 0.931 . S
C59 C58 1.392 . S
C59 C60 1.331 . S
C59 H77 0.932 . S
C60 C59 1.331 . S
C60 C61 1.336 . S
C61 C57 1.394 . S
C61 C60 1.336 . S
C61 H76 0.929 . S
C62 C52 1.386 . S
C62 C55 1.357 . S
C62 H75 0.928 . S
H63 C39 0.931 . S
H64 C41 0.930 . S
H65 C43 0.929 . S
H66 C44 0.931 . S
H67 C46 0.930 . S
H68 C50 0.931 . S
H69 C48 0.931 . S
H70 C52 0.931 . S
H71 C53 0.929 . S
H72 C54 0.930 . S
H73 C57 0.930 . S
H74 C58 0.931 . S
H75 C62 0.928 . S
H76 C61 0.929 . S
H77 C59 0.932 . S
C78 C79 1.386 . S
C78 C80 1.397 . S
C78 H102 0.931 . S
C79 C78 1.386 . S
C79 C83 1.397 . S
C80 C78 1.397 . S
C80 C81 1.384 . S
C80 H103 0.930 . S
C81 C80 1.384 . S
C81 C82 1.377 . S
C81 C84 1.481 . S
C82 C81 1.377 . S
C82 C83 1.389 . S
C82 H104 0.929 . S
C83 C79 1.397 . S
C83 C82 1.389 . S
C83 H105 0.931 . S
C84 C81 1.481 . S
C84 C85 1.387 . S
C84 C89 1.390 . S
C85 C84 1.387 . S
C85 C86 1.401 . S
C85 H106 0.930 . S
C86 C85 1.401 . S
C86 C87 1.376 . S
C86 C95 1.511 . S
C87 C86 1.376 . S
C87 C88 1.392 . S
C87 H108 0.931 . S
C88 C87 1.392 . S
C88 C89 1.361 . S
C88 C90 1.500 . S
C89 C84 1.390 . S
C89 C88 1.361 . S
C89 H107 0.931 . S
C90 C88 1.500 . S
C90 C91 1.371 . S
C90 C92 1.365 . S
C91 C90 1.371 . S
C91 C101 1.386 . S
C91 H109 0.931 . S
C92 C90 1.365 . S
C92 C93 1.409 . S
C92 H110 0.929 . S
C93 C92 1.409 . S
C93 C94 1.380 . S
C93 H111 0.930 . S
C94 C93 1.380 . S
C94 C101 1.357 . S
C95 C86 1.511 . S
C95 C96 1.341 . S
C95 C97 1.371 . S
C96 C95 1.341 . S
C96 C100 1.394 . S
C96 H112 0.930 . S
C97 C95 1.371 . S
C97 C98 1.392 . S
C97 H113 0.931 . S
C98 C97 1.392 . S
C98 C99 1.331 . S
C98 H116 0.932 . S
C99 C98 1.331 . S
C99 C100 1.336 . S
C100 C96 1.394 . S
C100 C99 1.336 . S
C100 H115 0.929 . S
C101 C91 1.386 . S
C101 C94 1.357 . S
C101 H114 0.928 . S
H102 C78 0.931 . S
H103 C80 0.930 . S
H104 C82 0.929 . S
H105 C83 0.931 . S
H106 C85 0.930 . S
H107 C89 0.931 . S
H108 C87 0.931 . S
H109 C91 0.931 . S
H110 C92 0.929 . S
H111 C93 0.930 . S
H112 C96 0.930 . S
H113 C97 0.931 . S
H114 C101 0.928 . S
H115 C100 0.929 . S
H116 C98 0.932 . S
C117 C118 1.386 . S
C117 C119 1.397 . S
C117 H141 0.931 . S
C118 C117 1.386 . S
C118 C122 1.397 . S
C119 C117 1.397 . S
C119 C120 1.384 . S
C119 H142 0.930 . S
C120 C119 1.384 . S
C120 C121 1.377 . S
C120 C123 1.481 . S
C121 C120 1.377 . S
C121 C122 1.389 . S
C121 H143 0.929 . S
C122 C118 1.397 . S
C122 C121 1.389 . S
C122 H144 0.931 . S
C123 C120 1.481 . S
C123 C124 1.387 . S
C123 C128 1.390 . S
C124 C123 1.387 . S
C124 C125 1.401 . S
C124 H145 0.930 . S
C125 C124 1.401 . S
C125 C126 1.376 . S
C125 C134 1.511 . S
C126 C125 1.376 . S
C126 C127 1.392 . S
C126 H147 0.931 . S
C127 C126 1.392 . S
C127 C128 1.361 . S
C127 C129 1.500 . S
C128 C123 1.390 . S
C128 C127 1.361 . S
C128 H146 0.931 . S
C129 C127 1.500 . S
C129 C130 1.371 . S
C129 C131 1.365 . S
C130 C129 1.371 . S
C130 C140 1.386 . S
C130 H148 0.931 . S
C131 C129 1.365 . S
C131 C132 1.409 . S
C131 H149 0.929 . S
C132 C131 1.409 . S
C132 C133 1.380 . S
C132 H150 0.930 1_655 S
C133 C132 1.380 . S
C133 C140 1.357 . S
C134 C125 1.511 . S
C134 C135 1.341 . S
C134 C136 1.371 . S
C135 C134 1.341 . S
C135 C139 1.394 . S
C135 H151 0.930 . S
C136 C134 1.371 . S
C136 C137 1.392 . S
C136 H152 0.931 . S
C137 C136 1.392 . S
C137 C138 1.331 . S
C137 H155 0.932 . S
C138 C137 1.331 . S
C138 C139 1.336 . S
C139 C135 1.394 . S
C139 C138 1.336 . S
C139 H154 0.929 . S
C140 C130 1.386 . S
C140 C133 1.357 . S
C140 H153 0.928 . S
H141 C117 0.931 . S
H142 C119 0.930 . S
H143 C121 0.929 . S
H144 C122 0.931 . S
H145 C124 0.930 . S
H146 C128 0.931 . S
H147 C126 0.931 . S
H148 C130 0.931 . S
H149 C131 0.929 . S
H150 C132 0.930 1_455 S
H151 C135 0.930 . S
H152 C136 0.931 . S
H153 C140 0.928 . S
H154 C139 0.929 . S
H155 C137 0.932 . S
C156 C157 1.386 . S
C156 C158 1.397 . S
C156 H180 0.931 . S
C157 C156 1.386 . S
C157 C161 1.397 . S
C158 C156 1.397 . S
C158 C159 1.384 . S
C158 H181 0.930 . S
C159 C158 1.384 . S
C159 C160 1.377 . S
C159 C162 1.481 . S
C160 C159 1.377 . S
C160 C161 1.389 . S
C160 H182 0.929 . S
C161 C157 1.397 . S
C161 C160 1.389 . S
C161 H183 0.931 . S
C162 C159 1.481 . S
C162 C163 1.387 . S
C162 C167 1.390 . S
C163 C162 1.387 . S
C163 C164 1.401 . S
C163 H184 0.930 . S
C164 C163 1.401 . S
C164 C165 1.376 . S
C164 C173 1.511 . S
C165 C164 1.376 . S
C165 C166 1.392 . S
C165 H186 0.931 . S
C166 C165 1.392 . S
C166 C167 1.361 . S
C166 C168 1.500 . S
C167 C162 1.390 . S
C167 C166 1.361 . S
C167 H185 0.931 . S
C168 C166 1.500 . S
C168 C169 1.371 . S
C168 C170 1.365 . S
C169 C168 1.371 . S
C169 C179 1.386 . S
C169 H187 0.931 . S
C170 C168 1.365 . S
C170 C171 1.409 . S
C170 H188 0.929 . S
C171 C170 1.409 . S
C171 C172 1.380 . S
C171 H189 0.930 . S
C172 C171 1.380 . S
C172 C179 1.357 . S
C173 C164 1.511 . S
C173 C174 1.341 . S
C173 C175 1.371 . S
C174 C173 1.341 . S
C174 C178 1.394 . S
C174 H190 0.930 . S
C175 C173 1.371 . S
C175 C176 1.392 . S
C175 H191 0.931 . S
C176 C175 1.392 . S
C176 C177 1.331 . S
C176 H194 0.932 . S
C177 C176 1.331 . S
C177 C178 1.336 . S
C178 C174 1.394 . S
C178 C177 1.336 . S
C178 H193 0.929 . S
C179 C169 1.386 . S
C179 C172 1.357 . S
C179 H192 0.928 . S
H180 C156 0.931 . S
H181 C158 0.930 . S
H182 C160 0.929 . S
H183 C161 0.931 . S
H184 C163 0.930 . S
H185 C167 0.931 . S
H186 C165 0.931 . S
H187 C169 0.931 . S
H188 C170 0.929 . S
H189 C171 0.930 . S
H190 C174 0.930 . S
H191 C175 0.931 . S
H192 C179 0.928 . S
H193 C178 0.929 . S
H194 C176 0.932 . S
C195 C196 1.386 . S
C195 C197 1.397 . S
C195 H219 0.931 . S
C196 C195 1.386 . S
C196 C200 1.397 . S
C197 C195 1.397 . S
C197 C198 1.384 . S
C197 H220 0.930 . S
C198 C197 1.384 . S
C198 C199 1.377 . S
C198 C201 1.481 . S
C199 C198 1.377 . S
C199 C200 1.389 . S
C199 H221 0.929 . S
C200 C196 1.397 . S
C200 C199 1.389 . S
C200 H222 0.931 . S
C201 C198 1.481 . S
C201 C202 1.387 . S
C201 C206 1.390 . S
C202 C201 1.387 . S
C202 C203 1.401 . S
C202 H223 0.930 . S
C203 C202 1.401 . S
C203 C204 1.376 . S
C203 C212 1.511 . S
C204 C203 1.376 . S
C204 C205 1.392 . S
C204 H225 0.931 . S
C205 C204 1.392 . S
C205 C206 1.361 . S
C205 C207 1.500 . S
C206 C201 1.390 . S
C206 C205 1.361 . S
C206 H224 0.931 . S
C207 C205 1.500 . S
C207 C208 1.371 . S
C207 C209 1.365 . S
C208 C207 1.371 . S
C208 C218 1.386 . S
C208 H226 0.931 . S
C209 C207 1.365 . S
C209 C210 1.409 . S
C209 H227 0.929 . S
C210 C209 1.409 . S
C210 C211 1.380 . S
C210 H228 0.930 . S
C211 C210 1.380 . S
C211 C218 1.357 . S
C212 C203 1.511 . S
C212 C213 1.341 . S
C212 C214 1.371 . S
C213 C212 1.341 . S
C213 C217 1.394 . S
C213 H229 0.930 . S
C214 C212 1.371 . S
C214 C215 1.392 . S
C214 H230 0.931 . S
C215 C214 1.392 . S
C215 C216 1.331 . S
C215 H233 0.932 . S
C216 C215 1.331 . S
C216 C217 1.336 . S
C217 C213 1.394 . S
C217 C216 1.336 . S
C217 H232 0.929 . S
C218 C208 1.386 . S
C218 C211 1.357 . S
C218 H231 0.928 . S
H219 C195 0.931 . S
H220 C197 0.930 . S
H221 C199 0.929 . S
H222 C200 0.931 . S
H223 C202 0.930 . S
H224 C206 0.931 . S
H225 C204 0.931 . S
H226 C208 0.931 . S
H227 C209 0.929 . S
H228 C210 0.930 . S
H229 C213 0.930 . S
H230 C214 0.931 . S
H231 C218 0.928 . S
H232 C217 0.929 . S
H233 C215 0.932 . S
C234 C235 1.386 . S
C234 C236 1.397 . S
C234 H258 0.931 . S
C235 C234 1.386 . S
C235 C239 1.397 . S
C236 C234 1.397 . S
C236 C237 1.384 . S
C236 H259 0.930 . S
C237 C236 1.384 . S
C237 C238 1.377 . S
C237 C240 1.481 . S
C238 C237 1.377 . S
C238 C239 1.389 . S
C238 H260 0.929 . S
C239 C235 1.397 . S
C239 C238 1.389 . S
C239 H261 0.931 . S
C240 C237 1.481 . S
C240 C241 1.387 . S
C240 C245 1.390 . S
C241 C240 1.387 . S
C241 C242 1.401 . S
C241 H262 0.930 . S
C242 C241 1.401 . S
C242 C243 1.376 . S
C242 C251 1.511 . S
C243 C242 1.376 . S
C243 C244 1.392 . S
C243 H264 0.931 . S
C244 C243 1.392 . S
C244 C245 1.361 . S
C244 C246 1.500 . S
C245 C240 1.390 . S
C245 C244 1.361 . S
C245 H263 0.931 . S
C246 C244 1.500 . S
C246 C247 1.371 . S
C246 C248 1.365 . S
C247 C246 1.371 . S
C247 C257 1.386 . S
C247 H265 0.931 . S
C248 C246 1.365 . S
C248 C249 1.409 . S
C248 H266 0.929 . S
C249 C248 1.409 . S
C249 C250 1.380 . S
C249 H267 0.930 . S
C250 C249 1.380 . S
C250 C257 1.357 . S
C251 C242 1.511 . S
C251 C252 1.341 . S
C251 C253 1.371 . S
C252 C251 1.341 . S
C252 C256 1.394 . S
C252 H268 0.930 . S
C253 C251 1.371 . S
C253 C254 1.392 . S
C253 H269 0.931 . S
C254 C253 1.392 . S
C254 C255 1.331 . S
C254 H272 0.932 . S
C255 C254 1.331 . S
C255 C256 1.336 . S
C256 C252 1.394 . S
C256 C255 1.336 . S
C256 H271 0.929 . S
C257 C247 1.386 . S
C257 C250 1.357 . S
C257 H270 0.928 . S
H258 C234 0.931 . S
H259 C236 0.930 . S
H260 C238 0.929 . S
H261 C239 0.931 . S
H262 C241 0.930 . S
H263 C245 0.931 . S
H264 C243 0.931 . S
H265 C247 0.931 . S
H266 C248 0.929 . S
H267 C249 0.930 . S
H268 C252 0.930 . S
H269 C253 0.931 . S
H270 C257 0.928 . S
H271 C256 0.929 . S
H272 C254 0.932 . S
C273 C274 1.386 . S
C273 C275 1.397 . S
C273 H297 0.931 . S
C274 C273 1.386 . S
C274 C278 1.397 . S
C275 C273 1.397 . S
C275 C276 1.384 . S
C275 H298 0.930 . S
C276 C275 1.384 . S
C276 C277 1.377 . S
C276 C279 1.481 . S
C277 C276 1.377 . S
C277 C278 1.389 . S
C277 H299 0.929 . S
C278 C274 1.397 . S
C278 C277 1.389 . S
C278 H300 0.931 . S
C279 C276 1.481 . S
C279 C280 1.387 . S
C279 C284 1.390 . S
C280 C279 1.387 . S
C280 C281 1.401 . S
C280 H301 0.930 . S
C281 C280 1.401 . S
C281 C282 1.376 . S
C281 C290 1.511 . S
C282 C281 1.376 . S
C282 C283 1.392 . S
C282 H303 0.931 . S
C283 C282 1.392 . S
C283 C284 1.361 . S
C283 C285 1.500 . S
C284 C279 1.390 . S
C284 C283 1.361 . S
C284 H302 0.931 . S
C285 C283 1.500 . S
C285 C286 1.371 . S
C285 C287 1.365 . S
C286 C285 1.371 . S
C286 C296 1.386 . S
C286 H304 0.931 . S
C287 C285 1.365 . S
C287 C288 1.409 . S
C287 H305 0.929 . S
C288 C287 1.409 . S
C288 C289 1.380 . S
C288 H306 0.930 . S
C289 C288 1.380 . S
C289 C296 1.357 . S
C290 C281 1.511 . S
C290 C291 1.341 . S
C290 C292 1.371 . S
C291 C290 1.341 . S
C291 C295 1.394 . S
C291 H307 0.930 . S
C292 C290 1.371 . S
C292 C293 1.392 . S
C292 H308 0.931 . S
C293 C292 1.392 . S
C293 C294 1.331 . S
C293 H311 0.932 . S
C294 C293 1.331 . S
C294 C295 1.336 . S
C295 C291 1.394 . S
C295 C294 1.336 . S
C295 H310 0.929 . S
C296 C286 1.386 . S
C296 C289 1.357 . S
C296 H309 0.928 . S
H297 C273 0.931 . S
H298 C275 0.930 . S
H299 C277 0.929 . S
H300 C278 0.931 . S
H301 C280 0.930 . S
H302 C284 0.931 . S
H303 C282 0.931 . S
H304 C286 0.931 . S
H305 C287 0.929 . S
H306 C288 0.930 . S
H307 C291 0.930 . S
H308 C292 0.931 . S
H309 C296 0.928 . S
H310 C295 0.929 . S
H311 C293 0.932 . S
Zn312 O318 1.969 1_545 S
Zn312 O319 1.965 1_545 S
Zn312 O323 2.024 . S
Zn312 O328 1.969 . S
Zn313 O320 1.969 . S
Zn313 O326 1.969 1_565 S
Zn313 O327 1.965 1_665 S
Zn313 O329 2.024 . S
C314 O315 1.229 . S
C314 O323 1.058 . S
O315 C314 1.229 . S
C316 O317 1.229 . S
C316 O329 1.058 . S
O317 C316 1.229 . S
O318 Zn312 1.969 1_565 S
O318 C321 1.267 . S
O319 Zn312 1.965 1_565 S
O319 C330 1.260 1_455 S
O320 Zn313 1.969 . S
O320 C330 1.258 . S
C321 O318 1.267 . S
C321 O322 1.228 . S
O322 C321 1.228 . S
O323 Zn312 2.024 . S
O323 C314 1.058 . S
C324 O325 1.228 . S
C324 O326 1.267 . S
O325 C324 1.228 . S
O326 Zn313 1.969 1_545 S
O326 C324 1.267 . S
O327 Zn313 1.965 1_445 S
O327 C331 1.260 . S
O328 Zn312 1.969 . S
O328 C331 1.258 . S
O329 Zn313 2.024 . S
O329 C316 1.058 . S
C330 O319 1.260 1_655 S
C330 O320 1.258 . S
C331 O327 1.260 . S
C331 O328 1.258 . S
Zn332 O338 1.969 . S
Zn332 O339 1.965 1_565 S
Zn332 O343 2.024 . S
Zn332 O348 1.954 1_556 S
Zn333 O340 1.969 . S
Zn333 O346 1.969 . S
Zn333 O347 1.965 1_545 S
Zn333 O349 2.024 . S
C334 O335 1.229 . S
C334 O343 1.058 . S
O335 C334 1.229 . S
C336 O337 1.229 . S
C336 O349 1.058 . S
O337 C336 1.229 . S
O338 Zn332 1.969 . S
O338 C341 1.267 . S
O339 Zn332 1.965 1_545 S
O339 C350 1.260 . S
O340 Zn333 1.969 . S
O340 C350 1.258 1_554 S
C341 O338 1.267 . S
C341 O342 1.228 . S
O342 C341 1.228 . S
O343 Zn332 2.024 . S
O343 C334 1.058 . S
C344 O345 1.228 . S
C344 O346 1.267 . S
O345 C344 1.228 . S
O346 Zn333 1.969 . S
O346 C344 1.267 . S
O347 Zn333 1.965 1_565 S
O347 C351 1.260 . S
O348 Zn332 1.954 1_554 S
O348 C351 1.274 . S
O349 Zn333 2.024 . S
O349 C336 1.058 . S
C350 O339 1.260 . S
C350 O340 1.258 1_556 S
C351 O347 1.260 . S
C351 O348 1.274 . S
Zn352 O358 1.969 . S
Zn352 O359 1.965 . S
Zn352 O363 2.024 . S
Zn352 O368 1.969 . S
Zn353 O360 1.969 . S
Zn353 O366 1.969 . S
Zn353 O367 1.965 . S
Zn353 O369 2.024 . S
C354 O355 1.229 . S
C354 O363 1.058 . S
O355 C354 1.229 . S
C356 O357 1.229 . S
C356 O369 1.058 . S
O357 C356 1.229 . S
O358 Zn352 1.969 . S
O358 C361 1.267 . S
O359 Zn352 1.965 . S
O359 C370 1.260 . S
O360 Zn353 1.969 . S
O360 C370 1.258 . S
C361 O358 1.267 . S
C361 O362 1.228 . S
O362 C361 1.228 . S
O363 Zn352 2.024 . S
O363 C354 1.058 . S
C364 O365 1.228 . S
C364 O366 1.267 . S
O365 C364 1.228 . S
O366 Zn353 1.969 . S
O366 C364 1.267 . S
O367 Zn353 1.965 . S
O367 C371 1.260 . S
O368 Zn352 1.969 . S
O368 C371 1.258 . S
O369 Zn353 2.024 . S
O369 C356 1.058 . S
C370 O359 1.260 . S
C370 O360 1.258 . S
C371 O367 1.260 . S
C371 O368 1.258 . S
Zn372 O378 1.969 . S
Zn372 O379 1.965 1_556 S
Zn372 O383 2.024 . S
Zn372 O388 1.969 1_655 S
Zn373 O380 1.969 . S
Zn373 O386 1.969 . S
Zn373 O387 1.965 1_554 S
Zn373 O389 2.024 . S
C374 O375 1.229 . S
C374 O383 1.058 . S
O375 C374 1.229 . S
C376 O377 1.229 . S
C376 O389 1.058 . S
O377 C376 1.229 . S
O378 Zn372 1.969 . S
O378 C381 1.267 . S
O379 Zn372 1.965 1_554 S
O379 C390 1.260 . S
O380 Zn373 1.969 . S
O380 C390 1.258 1_455 S
C381 O378 1.267 . S
C381 O382 1.228 . S
O382 C381 1.228 . S
O383 Zn372 2.024 . S
O383 C374 1.058 . S
C384 O385 1.228 . S
C384 O386 1.267 . S
O385 C384 1.228 . S
O386 Zn373 1.969 . S
O386 C384 1.267 . S
O387 Zn373 1.965 1_556 S
O387 C391 1.260 . S
O388 Zn372 1.969 1_455 S
O388 C391 1.258 . S
O389 Zn373 2.024 . S
O389 C376 1.058 . S
C390 O379 1.260 . S
C390 O380 1.258 1_655 S
C391 O387 1.260 . S
C391 O388 1.258 . S
C1 C331 1.799 . S
C40 C334 1.342 . S
C370 C99 2.203 . S
C118 C390 2.073 . S
C344 C16 1.748 . S
C321 C60 1.478 . S
C374 C79 1.822 . S
C354 C138 1.680 . S
C21 C384 1.322 . S
C350 C94 1.959 . S
C133 C316 2.044 . S
C55 C364 1.121 . S
C330 C157 1.824 . S
C196 C336 1.336 . S
C255 C371 2.212 . S
C289 C391 2.054 . S
C172 C341 1.739 . S
C324 C216 1.476 . S
C376 C235 1.828 . S
C356 C294 1.686 . S
C177 C381 1.357 . S
C351 C250 1.958 . S
C314 C274 2.036 . S
C211 C361 1.110 . S
