# Generated by pormake.
# Topology pts, (4,4)-cn, num edge types: 1
# Building blocks:
#     Node 0, Type 0, BuildingBlock: NAWXER_clean_linker_0, # of connection points: 4
#     Node 1, Type 0, BuildingBlock: NAWXER_clean_linker_0, # of connection points: 4
#     Node 2, Type 1, BuildingBlock: AZAVOO_clean_sbu_0, # of connection points: 4
#     Node 3, Type 1, BuildingBlock: AZAVOO_clean_sbu_0, # of connection points: 4
#     Edge 4, Type (0, 1), BuildingBlock: ZUJKAS_clean_linker_0, # of connection points: 2
#     Edge 5, Type (0, 1), BuildingBlock: ZUJKAS_clean_linker_0, # of connection points: 2
#     Edge 6, Type (0, 1), BuildingBlock: ZUJKAS_clean_linker_0, # of connection points: 2
#     Edge 7, Type (0, 1), BuildingBlock: ZUJKAS_clean_linker_0, # of connection points: 2
#     Edge 8, Type (0, 1), BuildingBlock: ZUJKAS_clean_linker_0, # of connection points: 2
#     Edge 9, Type (0, 1), BuildingBlock: ZUJKAS_clean_linker_0, # of connection points: 2
#     Edge 10, Type (0, 1), BuildingBlock: ZUJKAS_clean_linker_0, # of connection points: 2
#     Edge 11, Type (0, 1), BuildingBlock: ZUJKAS_clean_linker_0, # of connection points: 2
# Relax obj value: 0.000
# Max RMSD: 0.036
# Mean RMSD: 0.020
data_MOF--net-pts--node1-AZAVOO_clean_sbu_0--node2-NAWXER_clean_linker_0--edge1-ZUJKAS_clean_linker_0
_symmetry_space_group_name_H-M    P1
_symmetry_Int_Tables_number       1
_symmetry_cell_setting            triclinic
loop_
_symmetry_equiv_pos_as_xyz
'x, y, z'
_cell_length_a     36.249613
_cell_length_b     37.175638
_cell_length_c     53.583449
_cell_angle_alpha  90.030244
_cell_angle_beta   95.849385
_cell_angle_gamma 89.948022
loop_
_atom_site_label
_atom_site_type_symbol
_atom_site_fract_x
_atom_site_fract_y
_atom_site_fract_z
_atom_type_partial_charge
C0 C 0.66218 0.05608 0.96443 0.0
C1 C 0.66435 0.03373 0.94346 0.0
C2 C 0.63287 0.05257 0.9793 0.0
C3 C 0.60553 0.02613 0.97381 0.0
C4 C 0.63659 0.00775 0.93773 0.0
C5 C 0.60743 0.00409 0.95271 0.0
C6 C 0.574 0.02243 0.9892 0.0
C7 C 0.67627 -0.00523 0.03996 0.0
C8 C 0.68294 0.01632 0.06154 0.0
C9 C 0.64234 -0.00341 0.02506 0.0
C10 C 0.61462 0.02067 0.03102 0.0
C11 C 0.6548 0.03986 0.06772 0.0
C12 C 0.62107 0.04197 0.05264 0.0
C13 C 0.57814 0.02239 0.01574 0.0
C14 C 0.42301 -0.00493 0.04244 0.0
C15 C 0.41989 0.02241 0.06027 0.0
C16 C 0.45312 0.9944 0.02806 0.0
C17 C 0.48052 0.02118 0.03115 0.0
C18 C 0.44779 0.04873 0.06363 0.0
C19 C 0.47791 0.04797 0.04932 0.0
C20 C 0.51227 0.02139 0.01585 0.0
C21 C 0.40898 0.04134 0.96369 0.0
C22 C 0.40265 0.01554 0.94451 0.0
C23 C 0.44326 0.04317 0.97819 0.0
C24 C 0.47169 0.01879 0.97414 0.0
C25 C 0.43153 0.99177 0.94013 0.0
C26 C 0.46567 0.99346 0.95475 0.0
C27 C 0.50817 0.02005 0.98935 0.0
H28 H 0.68274 0.0768 0.96904 0.0
H29 H 0.6314 0.07078 0.99495 0.0
H30 H 0.63762 0.98997 0.9218 0.0
H31 H 0.58649 0.98375 0.94794 0.0
H32 H 0.69725 0.97647 0.03449 0.0
H33 H 0.63773 0.97887 0.009 0.0
H34 H 0.65849 0.05625 0.0845 0.0
H35 H 0.59993 0.0603 0.05792 0.0
H36 H 0.40195 0.97444 0.03939 0.0
H37 H 0.45497 0.97302 0.0145 0.0
H38 H 0.44657 0.06974 0.07753 0.0
H39 H 0.49896 0.06865 0.05221 0.0
H40 H 0.38738 0.06001 0.96765 0.0
H41 H 0.44753 0.06372 0.99252 0.0
H42 H 0.428 0.97212 0.92515 0.0
H43 H 0.48737 0.97474 0.951 0.0
N44 N 0.5392 0.02067 0.97709 0.0
N45 N 0.54706 0.02245 0.02798 0.0
C46 C 0.04549 0.6288 0.54884 0.0
C47 C 0.01714 0.62907 0.56493 0.0
C48 C 0.04906 0.6 0.53251 0.0
C49 C 0.02395 0.57115 0.5316 0.0
C50 C 0.99191 0.60028 0.56383 0.0
C51 C 0.99537 0.5716 0.5474 0.0
C52 C 0.02952 0.53871 0.5164 0.0
C53 C 0.00849 0.6269 0.45899 0.0
C54 C 0.03783 0.6331 0.44425 0.0
C55 C 0.00901 0.59695 0.47478 0.0
C56 C 0.03905 0.57288 0.47633 0.0
C57 C 0.06789 0.609 0.44595 0.0
C58 C 0.06836 0.57911 0.46171 0.0
C59 C 0.03891 0.53967 0.49148 0.0
C60 C 0.03405 0.38483 0.45962 0.0
C61 C 0.06256 0.38587 0.44365 0.0
C62 C 0.02894 0.4134 0.47589 0.0
C63 C 0.05269 0.44332 0.47689 0.0
C64 C 0.08656 0.41564 0.44496 0.0
C65 C 0.08162 0.44403 0.46135 0.0
C66 C 0.04536 0.4757 0.49174 0.0
C67 C 0.06615 0.39018 0.55202 0.0
C68 C 0.03544 0.3834 0.56544 0.0
C69 C 0.06575 0.41905 0.53528 0.0
C70 C 0.03463 0.44163 0.53166 0.0
C71 C 0.00402 0.40566 0.56123 0.0
C72 C 0.0038 0.43465 0.5447 0.0
C73 C 0.03534 0.47472 0.51652 0.0
H74 H 0.0652 0.6507 0.54904 0.0
H75 H 0.07212 0.59985 0.52116 0.0
H76 H 0.97011 0.59931 0.57622 0.0
H77 H 0.976 0.54941 0.54732 0.0
H78 H 0.98468 0.64465 0.45781 0.0
H79 H 0.98551 0.59215 0.4853 0.0
H80 H 0.09116 0.61329 0.43513 0.0
H81 H 0.0917 0.56077 0.46247 0.0
H82 H 0.01527 0.36217 0.4593 0.0
H83 H 0.00563 0.41255 0.487 0.0
H84 H 0.10843 0.41767 0.43269 0.0
H85 H 0.10002 0.46701 0.46151 0.0
H86 H 0.09102 0.37395 0.55506 0.0
H87 H 0.09021 0.42449 0.52587 0.0
H88 H 0.97961 0.40086 0.57083 0.0
H89 H 0.97958 0.4519 0.54225 0.0
N90 N 0.02785 0.50622 0.52781 0.0
N91 N 0.04669 0.50818 0.48026 0.0
Mg92 Mg 0.08675 0.00019 0.26864 0.0
O93 O 0.0305 0.00048 0.24421 0.0
O94 O 0.98659 -0.00171 0.27062 0.0
Mg95 Mg 0.01353 -0.00498 0.31088 0.0
C96 C 0.99641 -3e-05 0.24843 0.0
C97 C 0.15206 0.00851 0.23857 0.0
O98 O 0.16539 0.99395 0.25996 0.0
O99 O 0.07854 0.0587 0.28012 0.0
O100 O 0.03549 0.05233 0.30692 0.0
O101 O 0.08799 0.94001 0.26851 0.0
O102 O 0.06353 0.97281 0.29695 0.0
C103 C 0.05759 0.07184 0.29564 0.0
C104 C 0.07039 0.94148 0.28834 0.0
O105 O 0.11769 0.01608 0.23536 0.0
Mg106 Mg 0.99705 0.00066 0.7407 0.0
O107 O 0.05286 -0.00449 0.76514 0.0
O108 O 0.09586 0.98322 0.73928 0.0
Mg109 Mg 0.06838 0.97974 0.69909 0.0
C110 C 0.08647 0.98918 0.76124 0.0
C111 C 0.93504 0.03152 0.76816 0.0
O112 O 0.92021 0.02765 0.7449 0.0
O113 O 0.01431 0.0559 0.7272 0.0
O114 O 0.05486 0.03996 0.70039 0.0
O115 O 0.98633 0.94138 0.74288 0.0
O116 O 0.01558 0.96719 0.71355 0.0
C117 C 0.03637 0.06392 0.71088 0.0
C118 C 0.00366 0.9382 0.72303 0.0
O119 O 0.96919 0.02407 0.77332 0.0
H120 H 0.3885 0.9661 0.08328 0.0
H121 H 0.33788 0.96827 0.11013 0.0
H122 H 0.32861 0.08294 0.09892 0.0
H123 H 0.37933 0.08098 0.0721 0.0
H124 H 0.33143 0.06494 0.14801 0.0
H125 H 0.227 0.98048 0.0929 0.0
H126 H 0.27101 0.95834 0.09889 0.0
H127 H 0.26719 -0.00169 0.07986 0.0
C128 C 0.37526 0.99168 0.08619 0.0
C129 C 0.38793 0.02337 0.07557 0.0
C130 C 0.34625 0.99287 0.10148 0.0
C131 C 0.32905 0.02569 0.10621 0.0
C132 C 0.34138 0.05731 0.09543 0.0
H133 H 0.13371 0.03484 0.19097 0.0
H134 H 0.17509 0.04286 0.15787 0.0
C135 C 0.37048 0.05616 0.08023 0.0
C136 C 0.29997 0.02733 0.12377 0.0
H137 H 0.21732 0.99072 0.13601 0.0
C138 C 0.30627 0.04903 0.14522 0.0
C139 C 0.26685 0.00704 0.11994 0.0
C140 C 0.25737 0.98502 0.09652 0.0
C141 C 0.28116 0.04979 0.16348 0.0
C142 C 0.24923 0.02776 0.16042 0.0
C143 C 0.24204 0.00729 0.13845 0.0
C144 C 0.22417 0.02403 0.18047 0.0
C145 C 0.2892 0.07405 0.18597 0.0
C146 C 0.238 0.01049 0.20401 0.0
C147 C 0.21458 0.00594 0.22286 0.0
C148 C 0.17669 0.01458 0.21855 0.0
C149 C 0.16279 0.02808 0.19492 0.0
C150 C 0.18635 0.03261 0.17599 0.0
H151 H 0.30763 0.09669 0.18187 0.0
H152 H 0.26323 0.08523 0.19219 0.0
H153 H 0.30351 0.05831 0.20169 0.0
H154 H 0.26692 0.00295 0.2077 0.0
H155 H 0.22621 -0.00471 0.24077 0.0
H156 H 0.00731 0.38385 0.61107 0.0
H157 H 0.00806 0.33494 0.64163 0.0
H158 H 0.0676 0.26795 0.5937 0.0
H159 H 0.06589 0.31612 0.56254 0.0
H160 H 0.97963 0.25937 0.62945 0.0
H161 H 0.12821 0.26834 0.66659 0.0
H162 H 0.10295 0.30581 0.65165 0.0
H163 H 0.11839 0.26977 0.63299 0.0
C164 C 0.02022 0.3586 0.60684 0.0
C165 C 0.03644 0.35391 0.58425 0.0
C166 C 0.02087 0.33084 0.62444 0.0
C167 C 0.0382 0.29814 0.61996 0.0
C168 C 0.05456 0.2933 0.59758 0.0
H169 H 0.07957 0.08973 0.67617 0.0
H170 H 0.07916 0.14967 0.65819 0.0
C171 C 0.05365 0.3209 0.57985 0.0
C172 C 0.0381 0.26838 0.63817 0.0
H173 H 0.09552 0.21619 0.6774 0.0
C174 C 0.00476 0.25011 0.64028 0.0
C175 C 0.071 0.2567 0.65218 0.0
C176 C 0.10721 0.27625 0.65099 0.0
C177 C 0.00384 0.21898 0.65501 0.0
C178 C 0.03707 0.2065 0.66844 0.0
C179 C 0.07009 0.22585 0.66715 0.0
C180 C 0.03906 0.1713 0.68146 0.0
C181 C 0.96781 0.19862 0.65487 0.0
C182 C 0.01737 0.16374 0.70109 0.0
C183 C 0.01723 0.1291 0.71138 0.0
C184 C 0.03907 0.10165 0.70232 0.0
C185 C 0.06215 0.11002 0.68354 0.0
C186 C 0.06207 0.1444 0.67324 0.0
H187 H 0.94683 0.20786 0.63965 0.0
H188 H 0.97234 0.16932 0.65252 0.0
H189 H 0.95622 0.20282 0.67303 0.0
H190 H 3e-05 0.18438 0.70811 0.0
H191 H 0.99938 0.12367 0.72596 0.0
H192 H 0.72493 0.95595 0.07351 0.0
H193 H 0.78211 0.95153 0.10159 0.0
H194 H 0.77808 0.06552 0.11602 0.0
H195 H 0.72219 0.07067 0.08673 0.0
H196 H 0.84783 0.04379 0.11109 0.0
H197 H 0.78406 0.95297 0.17673 0.0
H198 H 0.78282 0.9355 0.14545 0.0
H199 H 0.75714 0.97557 0.15126 0.0
C200 C 0.73647 0.98025 0.08227 0.0
C201 C 0.71859 0.01365 0.07796 0.0
C202 C 0.76896 0.97755 0.09863 0.0
C203 C 0.78391 0.00803 0.11139 0.0
C204 C 0.76685 0.04156 0.10657 0.0
H205 H 0.92331 0.01568 0.25027 0.0
H206 H 0.87423 0.01751 0.21572 0.0
C207 C 0.73462 0.04437 0.09 0.0
C208 C 0.81676 0.00503 0.13023 0.0
H209 H 0.84808 0.96464 0.18557 0.0
C210 C 0.84796 0.02645 0.12737 0.0
C211 C 0.8167 0.98269 0.15161 0.0
C212 C 0.78328 0.96064 0.15665 0.0
C213 C 0.87894 0.02642 0.14542 0.0
C214 C 0.87907 0.00365 0.16659 0.0
C215 C 0.84806 0.9819 0.16925 0.0
C216 C 0.90984 0.00353 0.18713 0.0
C217 C 0.91058 0.05174 0.14209 0.0
C218 C 0.94637 -0.00492 0.18261 0.0
C219 C 0.97478 0.99442 0.20241 0.0
C220 C 0.96697 0.00156 0.22712 0.0
C221 C 0.93033 0.00985 0.23152 0.0
C222 C 0.90216 0.01091 0.21176 0.0
H223 H 0.90211 0.0736 0.12856 0.0
H224 H 0.92141 0.06408 0.16024 0.0
H225 H 0.93346 0.03651 0.1347 0.0
H226 H 0.95283 0.98848 0.16386 0.0
H227 H 0.00265 0.98766 0.19842 0.0
H228 H 0.07405 0.66311 0.5931 0.0
H229 H 0.06986 0.71207 0.62304 0.0
H230 H 0.95054 0.70982 0.60948 0.0
H231 H 0.95451 0.66195 0.57857 0.0
H232 H 0.97705 0.77698 0.60815 0.0
H233 H 0.04068 0.70896 0.69385 0.0
H234 H 0.06992 0.70763 0.66879 0.0
H235 H 0.02592 0.68481 0.66533 0.0
C236 C 0.0469 0.67319 0.59631 0.0
C237 C 0.0146 0.65862 0.58338 0.0
C238 C 0.04454 0.70077 0.61378 0.0
C239 C 0.00987 0.71404 0.61891 0.0
C240 C 0.97758 0.69966 0.60601 0.0
H241 H 0.97718 0.87251 0.73617 0.0
H242 H 0.97773 0.81629 0.71217 0.0
C243 C 0.97989 0.67219 0.58844 0.0
C244 C 0.00742 0.74448 0.63652 0.0
H245 H 0.03565 0.77331 0.69596 0.0
C246 C 0.98952 0.77601 0.62742 0.0
C247 C 0.02321 0.74302 0.66178 0.0
C248 C 0.04066 0.70914 0.67311 0.0
C249 C 0.98818 0.80658 0.6426 0.0
C250 C 0.00595 0.80585 0.66736 0.0
C251 C 0.02256 0.77391 0.67684 0.0
C252 C 0.00847 0.83848 0.68324 0.0
C253 C 0.96778 0.83945 0.63194 0.0
C254 C 0.02671 0.86902 0.67536 0.0
C255 C 0.02629 0.90102 0.68887 0.0
C256 C 0.00805 0.90303 0.71075 0.0
C257 C 0.99145 0.87183 0.71938 0.0
C258 C 0.99171 0.83974 0.7057 0.0
H259 H 0.94707 0.83242 0.61595 0.0
H260 H 0.9533 0.85344 0.64646 0.0
H261 H 0.98796 0.85844 0.62494 0.0
H262 H 0.04046 0.86835 0.65834 0.0
H263 H 0.03931 0.92442 0.68161 0.0
H264 H 0.3585 0.07161 0.92634 0.0
H265 H 0.30015 0.06854 0.89925 0.0
H266 H 0.30744 0.95275 0.89862 0.0
H267 H 0.36474 0.95545 0.92672 0.0
H268 H 0.28998 0.04286 0.85267 0.0
H269 H 0.20095 0.96659 0.9118 0.0
H270 H 0.2446 0.9861 0.92421 0.0
H271 H 0.24353 0.94349 0.90816 0.0
C272 C 0.34728 0.04543 0.92095 0.0
C273 C 0.36638 0.01377 0.92877 0.0
C274 C 0.31401 0.04374 0.90531 0.0
C275 C 0.29909 0.01041 0.89719 0.0
C276 C 0.31791 0.97876 0.90509 0.0
H277 H 0.15873 0.96819 0.7614 0.0
H278 H 0.20851 0.97403 0.79534 0.0
C279 C 0.35104 0.98039 0.92085 0.0
C280 C 0.2654 0.00882 0.87897 0.0
H281 H 0.17995 0.96988 0.86786 0.0
C282 C 0.26578 0.0272 0.85613 0.0
C283 C 0.23357 0.98882 0.8836 0.0
C284 C 0.23041 0.97045 0.90839 0.0
C285 C 0.2358 0.02515 0.83746 0.0
C286 C 0.20494 0.00341 0.84148 0.0
C287 C 0.20389 0.98608 0.86466 0.0
C288 C 0.17395 -0.00219 0.82157 0.0
C289 C 0.23745 0.04646 0.81362 0.0
C290 C 0.13759 0.00774 0.82542 0.0
C291 C 0.10882 0.00408 0.80607 0.0
C292 C 0.11598 0.99039 0.78254 0.0
C293 C 0.15225 0.97927 0.77914 0.0
C294 C 0.18084 0.98275 0.79849 0.0
H295 H 0.25694 0.06949 0.8165 0.0
H296 H 0.24745 0.02878 0.79904 0.0
H297 H 0.20966 0.05693 0.80649 0.0
H298 H 0.13165 0.01914 0.84319 0.0
H299 H 0.08122 0.01282 0.80936 0.0
H300 H 0.12644 0.35619 0.42911 0.0
H301 H 0.13201 0.30985 0.39729 0.0
H302 H 0.01282 0.30242 0.38487 0.0
H303 H 0.00695 0.34993 0.41555 0.0
H304 H 0.10962 0.24169 0.39713 0.0
H305 H 0.03852 0.30932 0.31391 0.0
H306 H 0.05282 0.33317 0.34263 0.0
H307 H 0.00982 0.3085 0.33923 0.0
C308 C 0.10139 0.34515 0.4193 0.0
C309 C 0.06623 0.3569 0.42489 0.0
C310 C 0.10465 0.31855 0.40119 0.0
C311 C 0.07285 0.30323 0.38828 0.0
C312 C 0.03776 0.31456 0.39405 0.0
H313 H 0.00535 0.11311 0.31481 0.0
H314 H 0.01352 0.17293 0.33331 0.0
C315 C 0.03446 0.34128 0.41199 0.0
C316 C 0.07612 0.27369 0.37002 0.0
H317 H 0.04257 0.24433 0.31165 0.0
C318 C 0.09569 0.24258 0.37824 0.0
C319 C 0.05813 0.27495 0.3453 0.0
C320 C 0.039 0.30847 0.33467 0.0
C321 C 0.09576 0.21192 0.36298 0.0
C322 C 0.07584 0.2125 0.33891 0.0
C323 C 0.05774 0.24407 0.33018 0.0
C324 C 0.06983 0.17918 0.32406 0.0
C325 C 0.11537 0.17837 0.37315 0.0
C326 C 0.09846 0.16357 0.31199 0.0
C327 C 0.0938 0.12935 0.30117 0.0
C328 C 0.0606 0.11027 0.30264 0.0
C329 C 0.03136 0.127 0.31357 0.0
C330 C 0.03591 0.16121 0.32408 0.0
H331 H 0.12779 0.18174 0.39284 0.0
H332 H 0.09565 0.15546 0.37232 0.0
H333 H 0.13779 0.17133 0.36136 0.0
H334 H 0.12482 0.17723 0.31181 0.0
H335 H 0.11683 0.11709 0.29294 0.0
H336 H 0.6601 0.03384 0.89225 0.0
H337 H 0.71103 0.03935 0.86582 0.0
H338 H 0.78904 0.04898 0.9318 0.0
H339 H 0.73826 0.04294 0.95845 0.0
H340 H 0.76562 0.09835 0.86599 0.0
H341 H 0.82825 0.96424 0.88984 0.0
H342 H 0.78105 0.97507 0.89502 0.0
H343 H 0.81885 0.99292 0.91551 0.0
C344 C 0.68812 0.03685 0.90115 0.0
C345 C 0.6952 0.03773 0.92744 0.0
C346 C 0.71712 0.04026 0.88603 0.0
C347 C 0.75374 0.04428 0.89689 0.0
C348 C 0.76095 0.04557 0.92309 0.0
H349 H 0.95488 0.03584 0.81893 0.0
H350 H 0.91357 0.0441 0.85197 0.0
C351 C 0.73192 0.04237 0.93826 0.0
C352 C 0.78427 0.04683 0.88062 0.0
H353 H 0.85684 -0.00032 0.86105 0.0
C354 C 0.78577 0.07694 0.865 0.0
C355 C 0.81062 0.01897 0.87959 0.0
C356 C 0.80973 0.98579 0.89573 0.0
C357 C 0.81267 0.07968 0.84801 0.0
C358 C 0.83811 0.05112 0.84621 0.0
C359 C 0.83733 0.02155 0.86245 0.0
C360 C 0.86379 0.04992 0.82635 0.0
C361 C 0.81353 0.11313 0.83215 0.0
C362 C 0.84956 0.05065 0.80101 0.0
C363 C 0.87302 0.04609 0.78215 0.0
C364 C 0.91122 0.04027 0.78822 0.0
C365 C 0.92561 0.04036 0.81362 0.0
C366 C 0.90205 0.04501 0.83252 0.0
H367 H 0.80165 0.13658 0.84143 0.0
H368 H 0.84223 0.11982 0.82825 0.0
H369 H 0.79651 0.10866 0.814 0.0
H370 H 0.82005 0.05351 0.79578 0.0
H371 H 0.86095 0.04603 0.76281 0.0
H372 H 0.05789 0.63463 0.39642 0.0
H373 H 0.05919 0.68661 0.36858 0.0
H374 H 0.01575 0.75364 0.42444 0.0
H375 H 0.01554 0.70206 0.45278 0.0
H376 H 0.00174 0.73295 0.34908 0.0
H377 H 0.11084 0.80568 0.40959 0.0
H378 H 0.1007 0.75872 0.41397 0.0
H379 H 0.07129 0.79284 0.42516 0.0
C380 C 0.04895 0.66051 0.40289 0.0
C381 C 0.03702 0.66432 0.42694 0.0
C382 C 0.0494 0.69008 0.38687 0.0
C383 C 0.03807 0.724 0.39461 0.0
C384 C 0.02518 0.72776 0.4183 0.0
H385 H 0.0369 0.93724 0.33156 0.0
H386 H 0.02541 0.88347 0.35555 0.0
C387 C 0.02475 0.6982 0.43436 0.0
C388 C 0.0404 0.75556 0.37805 0.0
H389 H 0.08241 0.83717 0.37439 0.0
C390 C 0.0194 0.75575 0.35454 0.0
C391 C 0.06364 0.7851 0.38524 0.0
C392 C 0.08819 0.78559 0.40976 0.0
C393 C 0.02049 0.78515 0.33817 0.0
C394 C 0.04353 0.81476 0.34548 0.0
C395 C 0.06461 0.81446 0.36894 0.0
C396 C 0.04645 0.84653 0.3292 0.0
C397 C 0.99652 0.78463 0.31345 0.0
C398 C 0.06165 0.8435 0.30622 0.0
C399 C 0.06812 0.8743 0.29232 0.0
C400 C 0.05967 0.90858 0.30129 0.0
C401 C 0.04345 0.91131 0.32396 0.0
C402 C 0.03698 0.88059 0.33778 0.0
H403 H 0.97418 0.76415 0.31324 0.0
H404 H 0.9837 0.81139 0.30932 0.0
H405 H 0.01396 0.77802 0.29822 0.0
H406 H 0.06977 0.81748 0.2995 0.0
H407 H 0.08083 0.87133 0.27499 0.0
loop_
_geom_bond_atom_site_label_1
_geom_bond_atom_site_label_2
_geom_bond_distance
_geom_bond_site_symmetry_2
_ccdc_geom_bond_type
C0 C1 1.384 . S
C0 C2 1.384 . S
C0 H28 0.931 . S
C1 C0 1.384 . S
C1 C4 1.382 1_545 S
C2 C0 1.384 . S
C2 C3 1.381 . S
C2 H29 0.930 . S
C3 C2 1.381 . S
C3 C5 1.381 1_545 S
C3 C6 1.487 . S
C4 C1 1.382 1_565 S
C4 C5 1.387 . S
C4 H30 0.930 . S
C5 C3 1.381 1_565 S
C5 C4 1.387 . S
C5 H31 0.931 . S
C6 C3 1.487 . S
C6 C13 1.399 1_556 S
C6 N44 1.343 . S
C7 C8 1.384 1_565 S
C7 C9 1.384 . S
C7 H32 0.931 . S
C8 C7 1.384 1_545 S
C8 C11 1.382 . S
C9 C7 1.384 . S
C9 C10 1.381 1_565 S
C9 H33 0.930 . S
C10 C9 1.381 1_545 S
C10 C12 1.381 . S
C10 C13 1.487 . S
C11 C8 1.382 . S
C11 C12 1.387 . S
C11 H34 0.930 . S
C12 C10 1.381 . S
C12 C11 1.387 . S
C12 H35 0.931 . S
C13 C6 1.399 1_554 S
C13 C10 1.487 . S
C13 N45 1.343 . S
C14 C15 1.384 1_565 S
C14 C16 1.384 . S
C14 H36 0.931 . S
C15 C14 1.384 1_545 S
C15 C18 1.382 . S
C16 C14 1.384 . S
C16 C17 1.381 1_565 S
C16 H37 0.930 . S
C17 C16 1.381 1_545 S
C17 C19 1.381 . S
C17 C20 1.487 . S
C18 C15 1.382 . S
C18 C19 1.387 . S
C18 H38 0.930 . S
C19 C17 1.381 . S
C19 C18 1.387 . S
C19 H39 0.931 . S
C20 C17 1.487 . S
C20 C27 1.399 1_554 S
C20 N45 1.343 . S
C21 C22 1.384 . S
C21 C23 1.384 . S
C21 H40 0.931 . S
C22 C21 1.384 . S
C22 C25 1.382 1_545 S
C23 C21 1.384 . S
C23 C24 1.381 . S
C23 H41 0.930 . S
C24 C23 1.381 . S
C24 C26 1.381 1_545 S
C24 C27 1.487 . S
C25 C22 1.382 1_565 S
C25 C26 1.387 . S
C25 H42 0.930 . S
C26 C24 1.381 1_565 S
C26 C25 1.387 . S
C26 H43 0.931 . S
C27 C20 1.399 1_556 S
C27 C24 1.487 . S
C27 N44 1.343 . S
H28 C0 0.931 . S
H29 C2 0.930 . S
H30 C4 0.930 . S
H31 C5 0.931 . S
H32 C7 0.931 . S
H33 C9 0.930 . S
H34 C11 0.930 . S
H35 C12 0.931 . S
H36 C14 0.931 . S
H37 C16 0.930 . S
H38 C18 0.930 . S
H39 C19 0.931 . S
H40 C21 0.931 . S
H41 C23 0.930 . S
H42 C25 0.930 . S
H43 C26 0.931 . S
N44 C6 1.343 . S
N44 C27 1.343 . S
N45 C13 1.343 . S
N45 C20 1.343 . S
C46 C47 1.384 . S
C46 C48 1.384 . S
C46 H74 0.931 . S
C47 C46 1.384 . S
C47 C50 1.382 . S
C48 C46 1.384 . S
C48 C49 1.381 . S
C48 H75 0.930 . S
C49 C48 1.381 . S
C49 C51 1.381 . S
C49 C52 1.487 . S
C50 C47 1.382 . S
C50 C51 1.387 . S
C50 H76 0.930 1_455 S
C51 C49 1.381 . S
C51 C50 1.387 . S
C51 H77 0.931 1_455 S
C52 C49 1.487 . S
C52 C59 1.399 . S
C52 N90 1.343 . S
C53 C54 1.384 . S
C53 C55 1.384 . S
C53 H78 0.931 . S
C54 C53 1.384 . S
C54 C57 1.382 . S
C55 C53 1.384 . S
C55 C56 1.381 . S
C55 H79 0.930 . S
C56 C55 1.381 . S
C56 C58 1.381 . S
C56 C59 1.487 . S
C57 C54 1.382 . S
C57 C58 1.387 . S
C57 H80 0.930 . S
C58 C56 1.381 . S
C58 C57 1.387 . S
C58 H81 0.931 . S
C59 C52 1.399 . S
C59 C56 1.487 . S
C59 N91 1.343 . S
C60 C61 1.384 . S
C60 C62 1.384 . S
C60 H82 0.931 . S
C61 C60 1.384 . S
C61 C64 1.382 . S
C62 C60 1.384 . S
C62 C63 1.381 . S
C62 H83 0.930 . S
C63 C62 1.381 . S
C63 C65 1.381 . S
C63 C66 1.487 . S
C64 C61 1.382 . S
C64 C65 1.387 . S
C64 H84 0.930 . S
C65 C63 1.381 . S
C65 C64 1.387 . S
C65 H85 0.931 . S
C66 C63 1.487 . S
C66 C73 1.399 . S
C66 N91 1.343 . S
C67 C68 1.384 . S
C67 C69 1.384 . S
C67 H86 0.931 . S
C68 C67 1.384 . S
C68 C71 1.382 . S
C69 C67 1.384 . S
C69 C70 1.381 . S
C69 H87 0.930 . S
C70 C69 1.381 . S
C70 C72 1.381 . S
C70 C73 1.487 . S
C71 C68 1.382 . S
C71 C72 1.387 . S
C71 H88 0.930 1_455 S
C72 C70 1.381 . S
C72 C71 1.387 . S
C72 H89 0.931 1_455 S
C73 C66 1.399 . S
C73 C70 1.487 . S
C73 N90 1.343 . S
H74 C46 0.931 . S
H75 C48 0.930 . S
H76 C50 0.930 1_655 S
H77 C51 0.931 1_655 S
H78 C53 0.931 . S
H79 C55 0.930 . S
H80 C57 0.930 . S
H81 C58 0.931 . S
H82 C60 0.931 . S
H83 C62 0.930 . S
H84 C64 0.930 . S
H85 C65 0.931 . S
H86 C67 0.931 . S
H87 C69 0.930 . S
H88 C71 0.930 1_655 S
H89 C72 0.931 1_655 S
N90 C52 1.343 . S
N90 C73 1.343 . S
N91 C59 1.343 . S
N91 C66 1.343 . S
Mg92 O93 2.028 . S
Mg92 O99 1.986 . S
Mg92 O101 2.114 1_545 S
Mg92 O102 2.251 1_545 S
Mg92 O105 2.010 . S
O93 Mg92 2.028 . S
O93 C96 1.250 . S
O94 Mg95 2.028 . S
O94 C96 1.248 1_655 S
Mg95 O94 2.028 . S
Mg95 O100 2.032 1_655 S
Mg95 O102 2.079 1_645 S
C96 O93 1.250 . S
C96 O94 1.248 1_455 S
C97 O98 1.264 . S
C97 O105 1.249 . S
O98 C97 1.264 . S
O99 Mg92 1.986 . S
O99 C103 1.246 . S
O100 Mg95 2.032 1_455 S
O100 C103 1.259 . S
O101 Mg92 2.114 1_565 S
O101 C104 1.252 . S
O102 Mg92 2.251 1_565 S
O102 Mg95 2.079 1_465 S
O102 C104 1.273 . S
C103 O99 1.246 . S
C103 O100 1.259 . S
C104 O101 1.252 . S
C104 O102 1.273 . S
O105 Mg92 2.010 . S
O105 C97 1.249 . S
Mg106 O107 2.015 1_655 S
Mg106 O113 1.984 1_655 S
Mg106 O115 2.113 1_545 S
Mg106 O116 2.238 1_645 S
Mg106 O119 2.027 . S
O107 Mg106 2.015 1_455 S
O107 C110 1.250 . S
O108 Mg109 2.028 . S
O108 C110 1.248 . S
Mg109 O108 2.028 . S
Mg109 O114 2.032 . S
Mg109 O116 2.079 1_545 S
C110 O107 1.250 . S
C110 O108 1.248 . S
C111 O112 1.264 . S
C111 O119 1.249 . S
O112 C111 1.264 . S
O113 Mg106 1.984 1_455 S
O113 C117 1.246 . S
O114 Mg109 2.032 . S
O114 C117 1.259 . S
O115 Mg106 2.113 1_565 S
O115 C118 1.248 1_655 S
O116 Mg106 2.238 1_465 S
O116 Mg109 2.079 1_565 S
O116 C118 1.273 . S
C117 O113 1.246 . S
C117 O114 1.259 . S
C118 O115 1.248 1_455 S
C118 O116 1.273 . S
O119 Mg106 2.027 . S
O119 C111 1.249 . S
H120 C128 0.929 . S
H121 C130 0.930 . S
H122 C132 0.930 . S
H123 C135 0.929 . S
H124 C138 0.930 . S
H125 C140 0.960 . S
H126 C140 0.960 . S
H127 C140 0.956 1_545 S
C128 H120 0.929 . S
C128 C129 1.377 1_565 S
C128 C130 1.384 . S
C129 C128 1.377 1_545 S
C129 C135 1.390 . S
C130 H121 0.930 . S
C130 C128 1.384 . S
C130 C131 1.372 1_565 S
C131 C130 1.372 1_545 S
C131 C132 1.400 . S
C131 C136 1.490 . S
C132 H122 0.930 . S
C132 C131 1.400 . S
C132 C135 1.386 . S
H133 C149 0.930 . S
H134 C150 0.931 . S
C135 H123 0.929 . S
C135 C129 1.390 . S
C135 C132 1.386 . S
C136 C131 1.490 . S
C136 C138 1.395 . S
C136 C139 1.410 . S
H137 C143 0.930 1_565 S
C138 H124 0.930 . S
C138 C136 1.395 . S
C138 C141 1.403 . S
C139 C136 1.410 . S
C139 C140 1.514 1_545 S
C139 C143 1.402 . S
C140 H125 0.960 . S
C140 H126 0.960 . S
C140 H127 0.956 1_565 S
C140 C139 1.514 1_565 S
C141 C138 1.403 . S
C141 C142 1.392 . S
C141 C145 1.495 . S
C142 C141 1.392 . S
C142 C143 1.385 . S
C142 C144 1.478 . S
C143 H137 0.930 1_545 S
C143 C139 1.402 . S
C143 C142 1.385 . S
C144 C142 1.478 . S
C144 C146 1.381 1_545 S
C144 C150 1.383 . S
C145 C141 1.495 . S
C145 H151 0.959 . S
C145 H152 0.961 . S
C145 H153 0.960 . S
C146 C144 1.381 1_565 S
C146 C147 1.394 . S
C146 H154 0.930 . S
C147 C146 1.394 . S
C147 C148 1.383 1_565 S
C147 H155 0.929 . S
C148 C147 1.383 1_545 S
C148 C149 1.377 . S
C149 H133 0.930 . S
C149 C148 1.377 . S
C149 C150 1.379 . S
C150 H134 0.931 . S
C150 C144 1.383 . S
C150 C149 1.379 . S
H151 C145 0.959 . S
H152 C145 0.961 . S
H153 C145 0.960 . S
H154 C146 0.930 . S
H155 C147 0.929 . S
H156 C164 0.929 . S
H157 C166 0.930 . S
H158 C168 0.930 . S
H159 C171 0.929 . S
H160 C174 0.930 . S
H161 C176 0.960 . S
H162 C176 0.960 . S
H163 C176 0.960 . S
C164 H156 0.929 . S
C164 C165 1.377 . S
C164 C166 1.384 . S
C165 C164 1.377 . S
C165 C171 1.390 . S
C166 H157 0.930 . S
C166 C164 1.384 . S
C166 C167 1.372 . S
C167 C166 1.372 . S
C167 C168 1.400 . S
C167 C172 1.490 . S
C168 H158 0.930 . S
C168 C167 1.400 . S
C168 C171 1.386 . S
H169 C185 0.930 . S
H170 C186 0.931 . S
C171 H159 0.929 . S
C171 C165 1.390 . S
C171 C168 1.386 . S
C172 C167 1.490 . S
C172 C174 1.395 1_455 S
C172 C175 1.403 . S
H173 C179 0.930 . S
C174 H160 0.930 . S
C174 C172 1.395 1_655 S
C174 C177 1.403 . S
C175 C172 1.403 . S
C175 C176 1.524 . S
C175 C179 1.400 . S
C176 H161 0.960 . S
C176 H162 0.960 . S
C176 H163 0.960 . S
C176 C175 1.524 . S
C177 C174 1.403 . S
C177 C178 1.392 1_655 S
C177 C181 1.495 . S
C178 C177 1.392 1_455 S
C178 C179 1.385 . S
C178 C180 1.478 . S
C179 H173 0.930 . S
C179 C175 1.400 . S
C179 C178 1.385 . S
C180 C178 1.478 . S
C180 C182 1.381 . S
C180 C186 1.383 . S
C181 C177 1.495 . S
C181 H187 0.959 . S
C181 H188 0.961 . S
C181 H189 0.960 . S
C182 C180 1.381 . S
C182 C183 1.394 . S
C182 H190 0.930 . S
C183 C182 1.394 . S
C183 C184 1.383 . S
C183 H191 0.929 . S
C184 C183 1.383 . S
C184 C185 1.377 . S
C185 H169 0.930 . S
C185 C184 1.377 . S
C185 C186 1.379 . S
C186 H170 0.931 . S
C186 C180 1.383 . S
C186 C185 1.379 . S
H187 C181 0.959 . S
H188 C181 0.961 . S
H189 C181 0.960 . S
H190 C182 0.930 . S
H191 C183 0.929 . S
H192 C200 0.929 . S
H193 C202 0.930 . S
H194 C204 0.930 . S
H195 C207 0.929 . S
H196 C210 0.930 . S
H197 C212 0.960 . S
H198 C212 0.960 1_565 S
H199 C212 0.960 . S
C200 H192 0.929 . S
C200 C201 1.377 1_565 S
C200 C202 1.384 . S
C201 C200 1.377 1_545 S
C201 C207 1.390 . S
C202 H193 0.930 . S
C202 C200 1.384 . S
C202 C203 1.372 1_565 S
C203 C202 1.372 1_545 S
C203 C204 1.400 . S
C203 C208 1.490 . S
C204 H194 0.930 . S
C204 C203 1.400 . S
C204 C207 1.386 . S
H205 C221 0.930 . S
H206 C222 0.931 . S
C207 H195 0.929 . S
C207 C201 1.390 . S
C207 C204 1.386 . S
C208 C203 1.490 . S
C208 C210 1.395 . S
C208 C211 1.403 . S
H209 C215 0.930 . S
C210 H196 0.930 . S
C210 C208 1.395 . S
C210 C213 1.403 . S
C211 C208 1.403 . S
C211 C212 1.524 . S
C211 C215 1.400 . S
C212 H197 0.960 . S
C212 H198 0.960 1_545 S
C212 H199 0.960 . S
C212 C211 1.524 . S
C213 C210 1.403 . S
C213 C214 1.392 . S
C213 C217 1.495 . S
C214 C213 1.392 . S
C214 C215 1.385 . S
C214 C216 1.478 . S
C215 H209 0.930 . S
C215 C211 1.400 . S
C215 C214 1.385 . S
C216 C214 1.478 . S
C216 C218 1.381 1_545 S
C216 C222 1.383 . S
C217 C213 1.495 . S
C217 H223 0.956 1_545 S
C217 H224 0.961 . S
C217 H225 0.960 1_545 S
C218 C216 1.381 1_565 S
C218 C219 1.394 . S
C218 H226 0.930 . S
C219 C218 1.394 . S
C219 C220 1.383 1_565 S
C219 H227 0.929 . S
C220 C219 1.383 1_545 S
C220 C221 1.377 . S
C221 H205 0.930 . S
C221 C220 1.377 . S
C221 C222 1.379 . S
C222 H206 0.931 . S
C222 C216 1.383 . S
C222 C221 1.379 . S
H223 C217 0.956 1_565 S
H224 C217 0.961 . S
H225 C217 0.960 1_565 S
H226 C218 0.930 . S
H227 C219 0.929 . S
H228 C236 0.929 . S
H229 C238 0.930 . S
H230 C240 0.930 1_655 S
H231 C243 0.929 1_655 S
H232 C246 0.930 . S
H233 C248 0.960 . S
H234 C248 0.960 . S
H235 C248 0.960 . S
C236 H228 0.929 . S
C236 C237 1.377 . S
C236 C238 1.384 . S
C237 C236 1.377 . S
C237 C243 1.390 . S
C238 H229 0.930 . S
C238 C236 1.384 . S
C238 C239 1.372 . S
C239 C238 1.372 . S
C239 C240 1.400 . S
C239 C244 1.490 . S
C240 H230 0.930 1_455 S
C240 C239 1.400 . S
C240 C243 1.386 . S
H241 C257 0.930 . S
H242 C258 0.931 . S
C243 H231 0.929 1_455 S
C243 C237 1.390 . S
C243 C240 1.386 . S
C244 C239 1.490 . S
C244 C246 1.395 . S
C244 C247 1.403 . S
H245 C251 0.930 . S
C246 H232 0.930 . S
C246 C244 1.395 . S
C246 C249 1.403 . S
C247 C244 1.403 . S
C247 C248 1.524 . S
C247 C251 1.400 . S
C248 H233 0.960 . S
C248 H234 0.960 . S
C248 H235 0.960 . S
C248 C247 1.524 . S
C249 C246 1.403 . S
C249 C250 1.392 . S
C249 C253 1.495 . S
C250 C249 1.392 . S
C250 C251 1.385 . S
C250 C252 1.478 . S
C251 H245 0.930 . S
C251 C247 1.400 . S
C251 C250 1.385 . S
C252 C250 1.478 . S
C252 C254 1.381 . S
C252 C258 1.383 1_455 S
C253 C249 1.495 . S
C253 H259 0.959 . S
C253 H260 0.961 . S
C253 H261 0.960 . S
C254 C252 1.381 . S
C254 C255 1.394 . S
C254 H262 0.930 . S
C255 C254 1.394 . S
C255 C256 1.383 . S
C255 H263 0.929 . S
C256 C255 1.383 . S
C256 C257 1.377 1_455 S
C257 H241 0.930 . S
C257 C256 1.377 1_655 S
C257 C258 1.379 . S
C258 H242 0.931 . S
C258 C252 1.383 1_655 S
C258 C257 1.379 . S
H259 C253 0.959 . S
H260 C253 0.961 . S
H261 C253 0.960 . S
H262 C254 0.930 . S
H263 C255 0.929 . S
H264 C272 0.929 . S
H265 C274 0.930 . S
H266 C276 0.930 . S
H267 C279 0.929 . S
H268 C282 0.930 . S
H269 C284 0.960 . S
H270 C284 0.960 . S
H271 C284 0.960 . S
C272 H264 0.929 . S
C272 C273 1.377 . S
C272 C274 1.384 . S
C273 C272 1.377 . S
C273 C279 1.390 1_545 S
C274 H265 0.930 . S
C274 C272 1.384 . S
C274 C275 1.372 . S
C275 C274 1.372 . S
C275 C276 1.400 1_545 S
C275 C280 1.490 . S
C276 H266 0.930 . S
C276 C275 1.400 1_565 S
C276 C279 1.386 . S
H277 C293 0.930 . S
H278 C294 0.931 . S
C279 H267 0.929 . S
C279 C273 1.390 1_565 S
C279 C276 1.386 . S
C280 C275 1.490 . S
C280 C282 1.395 . S
C280 C283 1.403 1_545 S
H281 C287 0.930 . S
C282 H268 0.930 . S
C282 C280 1.395 . S
C282 C285 1.403 . S
C283 C280 1.403 1_565 S
C283 C284 1.524 . S
C283 C287 1.400 . S
C284 H269 0.960 . S
C284 H270 0.960 . S
C284 H271 0.960 . S
C284 C283 1.524 . S
C285 C282 1.403 . S
C285 C286 1.392 . S
C285 C289 1.495 . S
C286 C285 1.392 . S
C286 C287 1.385 1_545 S
C286 C288 1.478 . S
C287 H281 0.930 . S
C287 C283 1.400 . S
C287 C286 1.385 1_565 S
C288 C286 1.478 . S
C288 C290 1.381 . S
C288 C294 1.383 1_545 S
C289 C285 1.495 . S
C289 H295 0.959 . S
C289 H296 0.961 . S
C289 H297 0.960 . S
C290 C288 1.381 . S
C290 C291 1.394 . S
C290 H298 0.930 . S
C291 C290 1.394 . S
C291 C292 1.383 . S
C291 H299 0.929 . S
C292 C291 1.383 . S
C292 C293 1.377 1_545 S
C293 H277 0.930 . S
C293 C292 1.377 1_565 S
C293 C294 1.379 . S
C294 H278 0.931 . S
C294 C288 1.383 1_565 S
C294 C293 1.379 . S
H295 C289 0.959 . S
H296 C289 0.961 . S
H297 C289 0.960 . S
H298 C290 0.930 . S
H299 C291 0.929 . S
H300 C308 0.929 . S
H301 C310 0.930 . S
H302 C312 0.930 1_655 S
H303 C315 0.929 1_655 S
H304 C318 0.930 . S
H305 C320 0.960 . S
H306 C320 0.960 . S
H307 C320 0.960 . S
C308 H300 0.929 . S
C308 C309 1.377 . S
C308 C310 1.384 . S
C309 C308 1.377 . S
C309 C315 1.390 . S
C310 H301 0.930 . S
C310 C308 1.384 . S
C310 C311 1.372 . S
C311 C310 1.372 . S
C311 C312 1.400 . S
C311 C316 1.490 . S
C312 H302 0.930 1_455 S
C312 C311 1.400 . S
C312 C315 1.386 . S
H313 C329 0.930 . S
H314 C330 0.931 . S
C315 H303 0.929 1_455 S
C315 C309 1.390 . S
C315 C312 1.386 . S
C316 C311 1.490 . S
C316 C318 1.395 . S
C316 C319 1.403 . S
H317 C323 0.930 . S
C318 H304 0.930 . S
C318 C316 1.395 . S
C318 C321 1.403 . S
C319 C316 1.403 . S
C319 C320 1.524 . S
C319 C323 1.400 . S
C320 H305 0.960 . S
C320 H306 0.960 . S
C320 H307 0.960 . S
C320 C319 1.524 . S
C321 C318 1.403 . S
C321 C322 1.392 . S
C321 C325 1.495 . S
C322 C321 1.392 . S
C322 C323 1.385 . S
C322 C324 1.478 . S
C323 H317 0.930 . S
C323 C319 1.400 . S
C323 C322 1.385 . S
C324 C322 1.478 . S
C324 C326 1.381 . S
C324 C330 1.383 . S
C325 C321 1.495 . S
C325 H331 0.959 . S
C325 H332 0.961 . S
C325 H333 0.960 . S
C326 C324 1.381 . S
C326 C327 1.394 . S
C326 H334 0.930 . S
C327 C326 1.394 . S
C327 C328 1.383 . S
C327 H335 0.929 . S
C328 C327 1.383 . S
C328 C329 1.377 . S
C329 H313 0.930 . S
C329 C328 1.377 . S
C329 C330 1.379 . S
C330 H314 0.931 . S
C330 C324 1.383 . S
C330 C329 1.379 . S
H331 C325 0.959 . S
H332 C325 0.961 . S
H333 C325 0.960 . S
H334 C326 0.930 . S
H335 C327 0.929 . S
H336 C344 0.929 . S
H337 C346 0.930 . S
H338 C348 0.930 . S
H339 C351 0.929 . S
H340 C354 0.930 . S
H341 C356 0.960 . S
H342 C356 0.960 . S
H343 C356 0.960 . S
C344 H336 0.929 . S
C344 C345 1.377 . S
C344 C346 1.384 . S
C345 C344 1.377 . S
C345 C351 1.390 . S
C346 H337 0.930 . S
C346 C344 1.384 . S
C346 C347 1.372 . S
C347 C346 1.372 . S
C347 C348 1.400 . S
C347 C352 1.490 . S
C348 H338 0.930 . S
C348 C347 1.400 . S
C348 C351 1.386 . S
H349 C365 0.930 . S
H350 C366 0.931 . S
C351 H339 0.929 . S
C351 C345 1.390 . S
C351 C348 1.386 . S
C352 C347 1.490 . S
C352 C354 1.395 . S
C352 C355 1.403 1_545 S
H353 C359 0.930 . S
C354 H340 0.930 . S
C354 C352 1.395 . S
C354 C357 1.403 . S
C355 C352 1.403 1_565 S
C355 C356 1.524 . S
C355 C359 1.400 . S
C356 H341 0.960 . S
C356 H342 0.960 . S
C356 H343 0.960 . S
C356 C355 1.524 . S
C357 C354 1.403 . S
C357 C358 1.392 . S
C357 C361 1.495 . S
C358 C357 1.392 . S
C358 C359 1.385 1_545 S
C358 C360 1.478 . S
C359 H353 0.930 . S
C359 C355 1.400 . S
C359 C358 1.385 1_565 S
C360 C358 1.478 . S
C360 C362 1.381 . S
C360 C366 1.383 . S
C361 C357 1.495 . S
C361 H367 0.959 . S
C361 H368 0.961 . S
C361 H369 0.960 . S
C362 C360 1.381 . S
C362 C363 1.394 . S
C362 H370 0.930 . S
C363 C362 1.394 . S
C363 C364 1.383 . S
C363 H371 0.929 . S
C364 C363 1.383 . S
C364 C365 1.377 . S
C365 H349 0.930 . S
C365 C364 1.377 . S
C365 C366 1.379 . S
C366 H350 0.931 . S
C366 C360 1.383 . S
C366 C365 1.379 . S
H367 C361 0.959 . S
H368 C361 0.961 . S
H369 C361 0.960 . S
H370 C362 0.930 . S
H371 C363 0.929 . S
H372 C380 0.929 . S
H373 C382 0.930 . S
H374 C384 0.930 . S
H375 C387 0.929 . S
H376 C390 0.930 . S
H377 C392 0.960 . S
H378 C392 0.960 . S
H379 C392 0.960 . S
C380 H372 0.929 . S
C380 C381 1.377 . S
C380 C382 1.384 . S
C381 C380 1.377 . S
C381 C387 1.390 . S
C382 H373 0.930 . S
C382 C380 1.384 . S
C382 C383 1.372 . S
C383 C382 1.372 . S
C383 C384 1.400 . S
C383 C388 1.490 . S
C384 H374 0.930 . S
C384 C383 1.400 . S
C384 C387 1.386 . S
H385 C401 0.930 . S
H386 C402 0.931 . S
C387 H375 0.929 . S
C387 C381 1.390 . S
C387 C384 1.386 . S
C388 C383 1.490 . S
C388 C390 1.395 . S
C388 C391 1.403 . S
H389 C395 0.930 . S
C390 H376 0.930 . S
C390 C388 1.395 . S
C390 C393 1.403 . S
C391 C388 1.403 . S
C391 C392 1.524 . S
C391 C395 1.400 . S
C392 H377 0.960 . S
C392 H378 0.960 . S
C392 H379 0.960 . S
C392 C391 1.524 . S
C393 C390 1.403 . S
C393 C394 1.392 . S
C393 C397 1.495 . S
C394 C393 1.392 . S
C394 C395 1.385 . S
C394 C396 1.478 . S
C395 H389 0.930 . S
C395 C391 1.400 . S
C395 C394 1.385 . S
C396 C394 1.478 . S
C396 C398 1.381 . S
C396 C402 1.383 . S
C397 C393 1.495 . S
C397 H403 0.959 . S
C397 H404 0.961 1_455 S
C397 H405 0.960 . S
C398 C396 1.381 . S
C398 C399 1.394 . S
C398 H406 0.930 . S
C399 C398 1.394 . S
C399 C400 1.383 . S
C399 H407 0.929 . S
C400 C399 1.383 . S
C400 C401 1.377 . S
C401 H385 0.930 . S
C401 C400 1.377 . S
C401 C402 1.379 . S
C402 H386 0.931 . S
C402 C396 1.383 . S
C402 C401 1.379 . S
H403 C397 0.959 . S
H404 C397 0.961 1_655 S
H405 C397 0.960 . S
H406 C398 0.930 . S
H407 C399 0.929 . S
C148 C97 1.213 . S
C129 C15 1.504 . S
C184 C117 1.486 . S
C165 C68 1.497 . S
C220 C96 1.483 1_655 S
C201 C8 1.503 . S
C256 C118 1.504 . S
C237 C47 1.507 . S
C292 C110 1.448 . S
C273 C22 1.503 . S
C328 C103 1.464 . S
C309 C61 1.496 . S
C364 C111 1.248 . S
C345 C1 1.505 . S
C381 C54 1.506 . S
C400 C104 1.505 . S
