# Generated by pormake.
# Topology pyr, (3,6)-cn, num edge types: 1
# Building blocks:
#     Node 0, Type 0, BuildingBlock: BETDAH_clean_linker_0, # of connection points: 3
#     Node 1, Type 0, BuildingBlock: BETDAH_clean_linker_0, # of connection points: 3
#     Node 2, Type 0, BuildingBlock: BETDAH_clean_linker_0, # of connection points: 3
#     Node 3, Type 0, BuildingBlock: BETDAH_clean_linker_0, # of connection points: 3
#     Node 4, Type 0, BuildingBlock: BETDAH_clean_linker_0, # of connection points: 3
#     Node 5, Type 0, BuildingBlock: BETDAH_clean_linker_0, # of connection points: 3
#     Node 6, Type 0, BuildingBlock: BETDAH_clean_linker_0, # of connection points: 3
#     Node 7, Type 0, BuildingBlock: BETDAH_clean_linker_0, # of connection points: 3
#     Node 8, Type 1, BuildingBlock: LEVNOQ01_clean_sbu_1, # of connection points: 6
#     Node 9, Type 1, BuildingBlock: LEVNOQ01_clean_sbu_1, # of connection points: 6
#     Node 10, Type 1, BuildingBlock: LEVNOQ01_clean_sbu_1, # of connection points: 6
#     Node 11, Type 1, BuildingBlock: LEVNOQ01_clean_sbu_1, # of connection points: 6
#     Edge 12, Type (0, 1), BuildingBlock: KIFKEQ_clean_linker_1, # of connection points: 2
#     Edge 13, Type (0, 1), BuildingBlock: KIFKEQ_clean_linker_1, # of connection points: 2
#     Edge 14, Type (0, 1), BuildingBlock: KIFKEQ_clean_linker_1, # of connection points: 2
#     Edge 15, Type (0, 1), BuildingBlock: KIFKEQ_clean_linker_1, # of connection points: 2
#     Edge 16, Type (0, 1), BuildingBlock: KIFKEQ_clean_linker_1, # of connection points: 2
#     Edge 17, Type (0, 1), BuildingBlock: KIFKEQ_clean_linker_1, # of connection points: 2
#     Edge 18, Type (0, 1), BuildingBlock: KIFKEQ_clean_linker_1, # of connection points: 2
#     Edge 19, Type (0, 1), BuildingBlock: KIFKEQ_clean_linker_1, # of connection points: 2
#     Edge 20, Type (0, 1), BuildingBlock: KIFKEQ_clean_linker_1, # of connection points: 2
#     Edge 21, Type (0, 1), BuildingBlock: KIFKEQ_clean_linker_1, # of connection points: 2
#     Edge 22, Type (0, 1), BuildingBlock: KIFKEQ_clean_linker_1, # of connection points: 2
#     Edge 23, Type (0, 1), BuildingBlock: KIFKEQ_clean_linker_1, # of connection points: 2
#     Edge 24, Type (0, 1), BuildingBlock: KIFKEQ_clean_linker_1, # of connection points: 2
#     Edge 25, Type (0, 1), BuildingBlock: KIFKEQ_clean_linker_1, # of connection points: 2
#     Edge 26, Type (0, 1), BuildingBlock: KIFKEQ_clean_linker_1, # of connection points: 2
#     Edge 27, Type (0, 1), BuildingBlock: KIFKEQ_clean_linker_1, # of connection points: 2
#     Edge 28, Type (0, 1), BuildingBlock: KIFKEQ_clean_linker_1, # of connection points: 2
#     Edge 29, Type (0, 1), BuildingBlock: KIFKEQ_clean_linker_1, # of connection points: 2
#     Edge 30, Type (0, 1), BuildingBlock: KIFKEQ_clean_linker_1, # of connection points: 2
#     Edge 31, Type (0, 1), BuildingBlock: KIFKEQ_clean_linker_1, # of connection points: 2
#     Edge 32, Type (0, 1), BuildingBlock: KIFKEQ_clean_linker_1, # of connection points: 2
#     Edge 33, Type (0, 1), BuildingBlock: KIFKEQ_clean_linker_1, # of connection points: 2
#     Edge 34, Type (0, 1), BuildingBlock: KIFKEQ_clean_linker_1, # of connection points: 2
#     Edge 35, Type (0, 1), BuildingBlock: KIFKEQ_clean_linker_1, # of connection points: 2
# Relax obj value: 0.080
# Max RMSD: 0.172
# Mean RMSD: 0.135
data_MOF--net-pry--node1-LEVNOQ01_clean_sbu_1--node2-BETDAH_clean_linker_0--edge1-KIFKEQ_clean_linker_1
_symmetry_space_group_name_H-M    P1
_symmetry_Int_Tables_number       1
_symmetry_cell_setting            triclinic
loop_
_symmetry_equiv_pos_as_xyz
'x, y, z'
_cell_length_a     37.212873
_cell_length_b     36.585412
_cell_length_c     36.757104
_cell_angle_alpha  92.552926
_cell_angle_beta   90.955215
_cell_angle_gamma 97.419015
loop_
_atom_site_label
_atom_site_type_symbol
_atom_site_fract_x
_atom_site_fract_y
_atom_site_fract_z
_atom_type_partial_charge
H0 H 0.1768 0.10738 0.20603 0.0
H1 H 0.17159 0.15855 0.10311 0.0
H2 H 0.0918 0.17329 0.18358 0.0
C3 C 0.1647 0.12553 0.18828 0.0
C4 C 0.1335 0.1406 0.19957 0.0
C5 C 0.17906 0.13191 0.15357 0.0
C6 C 0.16164 0.154 0.13029 0.0
C7 C 0.13087 0.16982 0.1411 0.0
C8 C 0.11684 0.16314 0.17594 0.0
N9 N 0.11056 0.18523 0.11387 0.0
C10 C 0.10287 0.22159 0.11377 0.0
H11 H 0.42127 0.86823 0.71019 0.0
H12 H 0.36901 0.96227 0.68424 0.0
H13 H 0.37609 0.87672 0.60232 0.0
C14 C 0.40638 0.88235 0.69085 0.0
C15 C 0.4001 0.86758 0.65478 0.0
C16 C 0.39516 0.91641 0.7018 0.0
C17 C 0.37726 0.93573 0.67643 0.0
C18 C 0.37029 0.9211 0.64078 0.0
C19 C 0.38164 0.88732 0.6301 0.0
N20 N 0.35559 0.9422 0.61434 0.0
C21 C 0.31856 0.94286 0.60987 0.0
H22 H 0.67432 0.34214 0.95167 0.0
H23 H 0.65308 0.4446 0.90758 0.0
H24 H 0.57087 0.35118 0.90071 0.0
C25 C 0.6564 0.35811 0.93749 0.0
C26 C 0.62131 0.34182 0.92671 0.0
C27 C 0.66795 0.39539 0.93126 0.0
C28 C 0.64438 0.41604 0.91329 0.0
C29 C 0.60942 0.39994 0.90264 0.0
C30 C 0.59786 0.36326 0.90973 0.0
N31 N 0.5857 0.42017 0.88405 0.0
C32 C 0.59542 0.43539 0.85128 0.0
H33 H 0.83392 0.66364 0.48347 0.0
H34 H 0.91282 0.64479 0.40296 0.0
H35 H 0.8296 0.55731 0.42732 0.0
C36 C 0.84497 0.6452 0.46403 0.0
C37 C 0.82766 0.60899 0.45778 0.0
C38 C 0.87597 0.65828 0.44487 0.0
C39 C 0.8894 0.63484 0.41856 0.0
C40 C 0.87239 0.59847 0.41224 0.0
C41 C 0.84229 0.58548 0.43244 0.0
N42 N 0.88454 0.57461 0.38512 0.0
C43 C 0.89365 0.58635 0.35072 0.0
H44 H 0.91443 0.84543 0.8421 0.0
H45 H 0.86582 0.87438 0.94397 0.0
H46 H 0.86807 0.94656 0.85543 0.0
C47 C 0.89949 0.86319 0.85866 0.0
C48 C 0.8907 0.89592 0.84383 0.0
C49 C 0.8913 0.85482 0.89522 0.0
C50 C 0.87276 0.87966 0.91605 0.0
C51 C 0.86426 0.91252 0.90167 0.0
C52 C 0.87365 0.92058 0.8659 0.0
N53 N 0.85263 0.94057 0.92489 0.0
C54 C 0.81705 0.94114 0.93596 0.0
H55 H 0.67469 0.09353 0.37803 0.0
H56 H 0.67463 0.1631 0.47461 0.0
H57 H 0.59198 0.16584 0.39228 0.0
C58 C 0.66272 0.11462 0.39341 0.0
C59 C 0.63155 0.12831 0.37979 0.0
C60 C 0.67901 0.12788 0.42691 0.0
C61 C 0.66294 0.15367 0.44808 0.0
C62 C 0.6315 0.16705 0.4361 0.0
C63 C 0.61606 0.15501 0.40159 0.0
N64 N 0.61515 0.19001 0.46135 0.0
C65 C 0.59368 0.21733 0.45394 0.0
H66 H 0.32245 0.71978 0.13953 0.0
H67 H 0.34041 0.61036 0.1669 0.0
H68 H 0.41493 0.70349 0.20614 0.0
C69 C 0.33872 0.70159 0.15291 0.0
C70 C 0.37032 0.71644 0.17263 0.0
C71 C 0.32754 0.66342 0.15093 0.0
C72 C 0.34881 0.6399 0.16794 0.0
C73 C 0.38012 0.65442 0.18774 0.0
C74 C 0.39083 0.69257 0.19023 0.0
N75 N 0.3995 0.63057 0.207 0.0
C76 C 0.39919 0.6319 0.24467 0.0
H77 H 0.15065 0.3663 0.57705 0.0
H78 H 0.13172 0.46076 0.64456 0.0
H79 H 0.04484 0.37353 0.61994 0.0
C80 C 0.1326 0.38109 0.59321 0.0
C81 C 0.09645 0.36553 0.59684 0.0
C82 C 0.14556 0.41555 0.60996 0.0
C83 C 0.12191 0.43447 0.63079 0.0
C84 C 0.0855 0.41938 0.63404 0.0
C85 C 0.07273 0.38539 0.61646 0.0
N86 N 0.0616 0.43731 0.65596 0.0
C87 C 0.07225 0.45283 0.69018 0.0
O88 O 0.9678 0.02856 0.60856 0.0
Mg89 Mg 0.01475 0.04153 0.57951 0.0
O90 O 0.96888 0.98302 0.56836 0.0
Mg91 Mg -0.00693 0.01169 0.5129 0.0
O92 O 0.01209 0.07273 0.53512 0.0
O93 O 0.03466 0.09458 0.59033 0.0
O94 O 0.01917 0.03815 0.45783 0.0
O95 O 0.93633 0.03297 0.50386 0.0
Mg96 Mg 0.95804 0.98024 0.44568 0.0
O97 O 0.97483 0.95126 0.48822 0.0
O98 O -0.00289 0.00261 0.41063 0.0
O99 O 0.91165 0.00632 0.45272 0.0
O100 O 0.94731 0.92572 0.43629 0.0
C101 C 0.06669 -0.00869 0.55421 0.0
C102 C 0.95864 -0.00488 0.59935 0.0
C103 C 0.02551 0.10002 0.55724 0.0
C104 C 0.01875 0.02957 0.42352 0.0
C105 C 0.9103 0.0278 0.48035 0.0
C106 C 0.96206 0.92229 0.46774 0.0
O107 O 0.05572 0.00666 0.58271 0.0
O108 O 0.0498 -0.00768 0.52383 0.0
O109 O 0.43168 0.09095 0.07557 0.0
Mg110 Mg 0.48785 0.09652 0.07766 0.0
O111 O 0.43239 0.03139 0.06305 0.0
Mg112 Mg 0.49288 0.0206 0.04573 0.0
O113 O 0.51262 0.08105 0.0311 0.0
O114 O 0.51215 0.13983 0.05185 0.0
O115 O 0.55204 0.00725 0.02743 0.0
O116 O 0.4706 0.01241 0.98388 0.0
Mg117 Mg 0.49055 0.93751 0.01259 0.0
O118 O 0.47347 0.96123 0.05891 0.0
O119 O 0.547 0.94787 0.0094 0.0
O120 O 0.46163 0.9525 0.96774 0.0
O121 O 0.46597 0.90039 0.04734 0.0
C122 C 0.52193 0.05468 0.13184 0.0
C123 C 0.4151 0.05871 0.07123 0.0
C124 C 0.52135 0.1163 0.0277 0.0
C125 C 0.56612 0.9789 0.01528 0.0
C126 C 0.45954 0.98574 0.96083 0.0
C127 C 0.4615 0.92841 0.06857 0.0
O128 O 0.5132 0.08618 0.12622 0.0
O129 O 0.5166 0.02842 0.10725 0.0
O130 O 0.48416 0.60981 0.63268 0.0
Mg131 Mg 0.47301 0.55334 0.63953 0.0
O132 O 0.48323 0.60096 0.57263 0.0
Mg133 Mg 0.48979 0.53796 0.55719 0.0
O134 O 0.51023 0.52605 0.6137 0.0
O135 O 0.50552 0.5299 0.67422 0.0
O136 O 0.49714 0.47585 0.54018 0.0
O137 O 0.55231 0.55574 0.54926 0.0
Mg138 Mg 0.51718 0.54054 0.4878 0.0
O139 O 0.46635 0.55117 0.5005 0.0
O140 O 0.53023 0.48658 0.49161 0.0
O141 O 0.55872 0.58417 0.49833 0.0
O142 O 0.48682 0.54617 0.44335 0.0
C143 C 0.40795 0.51748 0.59626 0.0
C144 C 0.48381 0.62245 0.60122 0.0
C145 C 0.5219 0.51925 0.64573 0.0
C146 C 0.51675 0.46456 0.51481 0.0
C147 C 0.57203 0.57603 0.52815 0.0
C148 C 0.46206 0.55371 0.4656 0.0
O149 O 0.41974 0.52927 0.6277 0.0
O150 O 0.42868 0.51822 0.56884 0.0
O151 O -0.00763 0.46641 0.07828 0.0
Mg152 Mg 0.00671 0.52386 0.08385 0.0
O153 O 0.02235 0.48576 0.03113 0.0
Mg154 Mg -9e-05 0.54493 0.02098 0.0
O155 O 0.97084 0.56077 0.07663 0.0
O156 O 0.98459 0.53795 0.13038 0.0
O157 O 0.98012 0.60626 1.00851 0.0
O158 O 0.94381 0.51086 1.00641 0.0
Mg159 Mg 0.98693 0.56027 0.96018 0.0
O160 O 0.02811 0.5288 0.96539 0.0
O161 O 0.00558 0.61547 0.95628 0.0
O162 O 0.93002 0.54643 0.96384 0.0
O163 O -0.00171 0.53572 0.91288 0.0
C164 C 0.07454 0.57047 0.06618 0.0
C165 C 0.01199 0.45957 0.05205 0.0
C166 C 0.96667 0.55862 0.11163 0.0
C167 C 0.98995 0.62826 0.98307 0.0
C168 C 0.92035 0.52094 0.9849 0.0
C169 C 0.02434 0.52376 0.93022 0.0
O170 O 0.0617 0.54705 0.08844 0.0
O171 O 0.05589 0.57688 0.03838 0.0
H172 H 0.13494 0.17785 0.26645 0.0
H173 H 0.09354 0.07501 0.20999 0.0
H174 H 0.11105 0.15377 0.32394 0.0
H175 H 0.06855 0.05128 0.26639 0.0
H176 H 0.0591 -5e-05 0.37283 0.0
H177 H 0.08797 0.02909 0.32087 0.0
H178 H 0.05877 0.13419 0.36001 0.0
H179 H 0.03093 0.10462 0.41337 0.0
C180 C 0.1202 0.1503 0.26634 0.0
C181 C 0.11603 0.12823 0.23387 0.0
C182 C 0.10646 0.13646 0.29922 0.0
C183 C 0.08826 0.10021 0.30029 0.0
C184 C 0.08323 0.07886 0.26723 0.0
C185 C 0.09715 0.09255 0.23466 0.0
C186 C 0.05965 0.02949 0.37085 0.0
C187 C 0.04292 0.04998 0.39733 0.0
C188 C 0.07573 0.04621 0.34064 0.0
C189 C 0.07496 0.08398 0.33533 0.0
C190 C 0.05997 0.10507 0.36297 0.0
C191 C 0.04417 0.08822 0.39373 0.0
H192 H 0.37687 0.88412 0.76539 0.0
H193 H 0.43122 0.9841 0.72304 0.0
H194 H 0.38992 0.90956 0.82753 0.0
H195 H 0.44467 0.00969 0.78538 0.0
H196 H 0.50013 0.00968 0.90389 0.0
H197 H 0.48294 -0.0029 0.83945 0.0
H198 H 0.37337 0.95898 0.86989 0.0
H199 H 0.39095 0.97097 0.93413 0.0
C200 C 0.39158 0.91159 0.76947 0.0
C201 C 0.40294 0.93218 0.73949 0.0
C202 C 0.3988 0.92634 0.80502 0.0
C203 C 0.41804 0.96187 0.81146 0.0
C204 C 0.42973 0.98233 0.78137 0.0
C205 C 0.42192 0.96778 0.74574 0.0
C206 C 0.472 0.00038 0.89658 0.0
C207 C 0.44662 -0.00795 0.92384 0.0
C208 C 0.4622 -0.00722 0.85971 0.0
C209 C 0.42689 0.97647 0.84956 0.0
C210 C 0.40092 0.97094 0.87683 0.0
C211 C 0.41076 0.97842 0.91356 0.0
H212 H 0.58275 0.50056 0.82728 0.0
H213 H 0.62298 0.39878 0.79542 0.0
H214 H 0.58508 0.51881 0.76426 0.0
H215 H 0.62509 0.41681 0.7317 0.0
H216 H 0.58838 0.5546 0.6612 0.0
H217 H 0.62647 0.53236 0.70772 0.0
H218 H 0.56536 0.42392 0.69365 0.0
H219 H 0.52718 0.44647 0.64745 0.0
C220 C 0.59324 0.48276 0.8068 0.0
C221 C 0.60279 0.44852 0.81566 0.0
C222 C 0.59492 0.49323 0.77083 0.0
C223 C 0.60585 0.46939 0.74321 0.0
C224 C 0.61706 0.43577 0.75258 0.0
C225 C 0.6157 0.42547 0.78877 0.0
C226 C 0.58495 0.52537 0.6661 0.0
C227 C 0.55469 0.50224 0.65149 0.0
C228 C 0.60655 0.51272 0.69295 0.0
C229 C 0.598 0.47682 0.70495 0.0
C230 C 0.57237 0.45181 0.685 0.0
C231 C 0.55058 0.46462 0.65834 0.0
H232 H 0.9571 0.58741 0.31691 0.0
H233 H 0.84552 0.60467 0.30148 0.0
H234 H 0.96738 0.59546 0.252 0.0
H235 H 0.85557 0.61232 0.23607 0.0
H236 H 0.89717 0.53914 0.13021 0.0
H237 H 0.87382 0.55902 0.18856 0.0
H238 H 0.96422 0.64552 0.20122 0.0
H239 H 0.98704 0.62598 0.14254 0.0
C240 C 0.9351 0.59385 0.29964 0.0
C241 C 0.90068 0.59566 0.31371 0.0
C242 C 0.94094 0.59867 0.26266 0.0
C243 C 0.91232 0.60502 0.23925 0.0
C244 C 0.87805 0.60781 0.25369 0.0
C245 C 0.87234 0.60339 0.29086 0.0
C246 C 0.91048 0.56405 0.14423 0.0
C247 C 0.94368 0.58125 0.13204 0.0
C248 C 0.89735 0.57524 0.17778 0.0
C249 C 0.91769 0.60333 0.19952 0.0
C250 C 0.94821 0.62369 0.18493 0.0
C251 C 0.961 0.61282 0.15118 0.0
H252 H 0.18921 0.09938 0.0863 0.0
H253 H 0.24134 0.1236 0.19198 0.0
H254 H 0.24214 0.07277 0.06465 0.0
H255 H 0.29444 0.09707 0.17029 0.0
H256 H 0.37991 0.02992 0.12996 0.0
H257 H 0.31977 0.04192 0.14994 0.0
H258 H 0.30334 0.09432 0.04903 0.0
H259 H 0.36305 0.08201 0.02942 0.0
C260 C 0.21204 0.09923 0.10493 0.0
C261 C 0.21102 0.11412 0.14085 0.0
C262 C 0.24243 0.08379 0.0925 0.0
C263 C 0.27281 0.08273 0.11559 0.0
C264 C 0.27143 0.09678 0.15181 0.0
C265 C 0.24097 0.11219 0.16426 0.0
C266 C 0.36265 0.0425 0.11151 0.0
C267 C 0.37573 0.05427 0.07778 0.0
C268 C 0.32848 0.05006 0.12319 0.0
C269 C 0.30666 0.06953 0.10134 0.0
C270 C 0.31899 0.07899 0.06654 0.0
C271 C 0.35319 0.07173 0.0551 0.0
H272 H 0.29309 0.00329 0.58728 0.0
H273 H 0.26053 0.89006 0.61267 0.0
H274 H 0.23052 0.00944 0.56954 0.0
H275 H 0.19753 0.89606 0.59499 0.0
H276 H 0.08777 0.94978 0.60782 0.0
H277 H 0.1486 0.93381 0.61934 0.0
H278 H 0.18442 0.983 0.5194 0.0
H279 H 0.12315 -0.00166 0.50755 0.0
C280 C 0.27237 0.97977 0.58905 0.0
C281 C 0.28121 0.94631 0.60134 0.0
C282 C 0.23672 0.98314 0.5786 0.0
C283 C 0.20927 0.95308 0.58044 0.0
C284 C 0.21818 0.91963 0.59327 0.0
C285 C 0.25403 0.9162 0.60345 0.0
C286 C 0.10847 0.95627 0.58787 0.0
C287 C 0.10091 0.9752 0.55679 0.0
C288 C 0.14322 0.94711 0.59444 0.0
C289 C 0.1713 0.95752 0.57047 0.0
C290 C 0.16329 0.97492 0.53846 0.0
C291 C 0.12824 0.98336 0.53148 0.0
H292 H 0.68564 0.46197 0.96776 0.0
H293 H 0.73243 0.36828 0.92279 0.0
H294 H 0.746 0.49198 0.98638 0.0
H295 H 0.79287 0.39838 0.94111 0.0
H296 H 0.89454 0.45093 1.00361 0.0
H297 H 0.83241 0.41973 0.99511 0.0
H298 H 0.79925 0.51927 0.9539 0.0
H299 H 0.86095 0.55021 0.96237 0.0
C300 C 0.70889 0.44787 0.96181 0.0
C301 C 0.70445 0.41291 0.94367 0.0
C302 C 0.74339 0.46498 0.97252 0.0
C303 C 0.77417 0.44753 0.9652 0.0
C304 C 0.76962 0.41224 0.94768 0.0
C305 C 0.73508 0.39507 0.93706 0.0
C306 C 0.87379 0.46616 0.99318 0.0
C307 C 0.88255 0.50281 0.98329 0.0
C308 C 0.83836 0.44829 0.98811 0.0
C309 C 0.81103 0.467 0.97363 0.0
C310 C 0.81961 0.50416 0.96529 0.0
C311 C 0.85501 0.52179 0.96987 0.0
H312 H 0.80828 0.62498 0.52792 0.0
H313 H 0.76765 0.56676 0.42755 0.0
H314 H 0.74771 0.6141 0.55324 0.0
H315 H 0.70788 0.55451 0.4537 0.0
H316 H 0.60989 0.51877 0.52067 0.0
H317 H 0.67487 0.52162 0.50958 0.0
H318 H 0.68743 0.6399 0.52892 0.0
H319 H 0.622 0.63707 0.53868 0.0
C320 C 0.78665 0.60947 0.51143 0.0
C321 C 0.79278 0.59712 0.47552 0.0
C322 C 0.75214 0.6031 0.52606 0.0
C323 C 0.72336 0.58356 0.50535 0.0
C324 C 0.72984 0.5693 0.47034 0.0
C325 C 0.76415 0.5762 0.45545 0.0
C326 C 0.62686 0.54518 0.52372 0.0
C327 C 0.61144 0.57773 0.5309 0.0
C328 C 0.66382 0.5468 0.51716 0.0
C329 C 0.68592 0.58094 0.51846 0.0
C330 C 0.67086 0.61324 0.52813 0.0
C331 C 0.63364 0.6117 0.53373 0.0
H332 H 0.03945 0.24684 0.12881 0.0
H333 H 0.14179 0.27569 0.07761 0.0
H334 H 0.01893 0.30369 0.10914 0.0
H335 H 0.12119 0.33231 0.05659 0.0
H336 H 0.08321 0.44914 0.05793 0.0
H337 H 0.10685 0.39191 0.07228 0.0
H338 H -0.0012 0.33268 0.05911 0.0
H339 H 0.97535 0.39033 0.04702 0.0
C340 C 0.05768 0.26569 0.11361 0.0
C341 C 0.09237 0.2573 0.10531 0.0
C342 C 0.04577 0.2981 0.1017 0.0
C343 C 0.06812 0.32289 0.08075 0.0
C344 C 0.10319 0.3144 0.07288 0.0
C345 C 0.1151 0.28195 0.08496 0.0
C346 C 0.06479 0.42362 0.05717 0.0
C347 C 0.02747 0.4241 0.05103 0.0
C348 C 0.07828 0.3907 0.06558 0.0
C349 C 0.05477 0.35736 0.06772 0.0
C350 C 0.01775 0.35774 0.05904 0.0
C351 C 0.00426 0.39071 0.05141 0.0
H352 H 0.65899 0.28242 0.91808 0.0
H353 H 0.55533 0.31276 0.95063 0.0
H354 H 0.6378 0.2179 0.92996 0.0
H355 H 0.5342 0.24878 0.96169 0.0
H356 H 0.49188 0.13551 0.96541 0.0
H357 H 0.51918 0.18644 0.93006 0.0
H358 H 0.62102 0.18539 0.98792 0.0
H359 H 0.59354 0.13429 0.02289 0.0
C360 C 0.63172 0.27532 0.92765 0.0
C361 C 0.60878 0.30264 0.93336 0.0
C362 C 0.61955 0.23843 0.93407 0.0
C363 C 0.58417 0.22826 0.94599 0.0
C364 C 0.56124 0.25557 0.95138 0.0
C365 C 0.57342 0.29231 0.94525 0.0
C366 C 0.52067 0.14469 0.96879 0.0
C367 C 0.54085 0.1311 0.99645 0.0
C368 C 0.53616 0.17414 0.94902 0.0
C369 C 0.57194 0.19033 0.95691 0.0
C370 C 0.59342 0.1734 0.98122 0.0
C371 C 0.57783 0.14399 1.00106 0.0
H372 H 0.8431 0.72046 0.45206 0.0
H373 H 0.9484 0.68278 0.45452 0.0
H374 H 0.87097 0.78305 0.46799 0.0
H375 H 0.97654 0.74595 0.47033 0.0
H376 H 0.00176 0.87216 0.43945 0.0
H377 H 0.98492 0.80549 0.43943 0.0
H378 H 0.9035 0.8208 0.51916 0.0
H379 H 0.92054 0.88772 0.51886 0.0
C380 C 0.87222 0.72553 0.4564 0.0
C381 C 0.89355 0.69667 0.45236 0.0
C382 C 0.88817 0.76135 0.4658 0.0
C383 C 0.92588 0.76927 0.47125 0.0
C384 C 0.94738 0.74058 0.46654 0.0
C385 C 0.93134 0.70456 0.45721 0.0
C386 C 0.9816 0.86102 0.45835 0.0
C387 C 0.96266 0.88472 0.47945 0.0
C388 C 0.97178 0.8229 0.4582 0.0
C389 C 0.94244 0.808 0.47878 0.0
C390 C 0.92591 0.83163 0.50265 0.0
C391 C 0.93599 0.86981 0.50299 0.0
H392 H 0.40488 0.80613 0.69411 0.0
H393 H 0.4263 0.84859 0.58753 0.0
H394 H 0.4297 0.75009 0.67529 0.0
H395 H 0.44939 0.79135 0.5684 0.0
H396 H 0.44364 0.65628 0.55223 0.0
H397 H 0.42457 0.71798 0.56142 0.0
H398 H 0.49513 0.73857 0.65645 0.0
H399 H 0.51413 0.67767 0.64735 0.0
C400 C 0.41492 0.80375 0.66675 0.0
C401 C 0.41372 0.83235 0.64259 0.0
C402 C 0.42895 0.77145 0.6559 0.0
C403 C 0.44168 0.76654 0.62046 0.0
C404 C 0.43961 0.79441 0.59583 0.0
C405 C 0.42613 0.82711 0.60686 0.0
C406 C 0.45601 0.67459 0.57422 0.0
C407 C 0.4801 0.6621 0.5993 0.0
C408 C 0.44492 0.70972 0.57963 0.0
C409 C 0.45779 0.73257 0.61017 0.0
C410 C 0.48422 0.72119 0.63318 0.0
C411 C 0.49527 0.68643 0.62778 0.0
H412 H 0.93226 0.95821 0.8235 0.0
H413 H 0.87283 0.85665 0.77905 0.0
H414 H 0.94837 0.97642 0.76207 0.0
H415 H 0.88841 0.87525 0.71704 0.0
H416 H 0.89211 0.95659 0.6151 0.0
H417 H 0.87564 0.9285 0.67338 0.0
H418 H 0.98686 0.95342 0.71122 0.0
H419 H 0.00307 0.98071 0.65339 0.0
C420 C 0.92266 0.93976 0.80051 0.0
C421 C 0.90137 0.90596 0.80614 0.0
C422 C 0.93197 0.95011 0.76529 0.0
C423 C 0.91972 0.92728 0.73454 0.0
C424 C 0.89816 0.89351 0.74009 0.0
C425 C 0.88947 0.88276 0.77555 0.0
C426 C 0.9131 0.95478 0.63546 0.0
C427 C 0.94896 0.97029 0.62954 0.0
C428 C 0.90371 0.93896 0.66889 0.0
C429 C 0.92989 0.93909 0.69715 0.0
C430 C 0.96596 0.95319 0.69031 0.0
C431 C 0.97532 0.96848 0.65701 0.0
H432 H 0.66726 0.10538 0.31949 0.0
H433 H 0.55961 0.11844 0.35606 0.0
H434 H 0.64215 0.07756 0.26252 0.0
H435 H 0.53471 0.09428 0.29688 0.0
H436 H 0.49239 0.02997 0.19497 0.0
H437 H 0.51924 0.04379 0.25612 0.0
H438 H 0.61887 0.09153 0.20812 0.0
H439 H 0.59236 0.07587 0.14783 0.0
C440 C 0.63813 0.10236 0.31563 0.0
C441 C 0.61564 0.11393 0.34322 0.0
C442 C 0.62366 0.08688 0.28226 0.0
C443 C 0.5862 0.0835 0.27451 0.0
C444 C 0.56362 0.0956 0.30178 0.0
C445 C 0.57807 0.11032 0.33569 0.0
C446 C 0.5206 0.04173 0.1978 0.0
C447 C 0.54072 0.05088 0.16679 0.0
C448 C 0.53581 0.05055 0.23283 0.0
C449 C 0.57127 0.06937 0.23755 0.0
C450 C 0.59181 0.07657 0.20616 0.0
C451 C 0.57672 0.0674 0.17133 0.0
H452 H 0.34139 0.60455 0.28218 0.0
H453 H 0.45175 0.65722 0.29381 0.0
H454 H 0.34034 0.59391 0.34765 0.0
H455 H 0.45104 0.64669 0.35896 0.0
H456 H 0.45272 0.62532 0.47024 0.0
H457 H 0.42409 0.65539 0.42145 0.0
H458 H 0.37702 0.5486 0.37611 0.0
H459 H 0.40629 0.51892 0.42433 0.0
C460 C 0.36505 0.61462 0.2991 0.0
C461 C 0.3968 0.6312 0.28353 0.0
C462 C 0.36438 0.60875 0.33638 0.0
C463 C 0.39551 0.61955 0.35838 0.0
C464 C 0.42638 0.63868 0.34288 0.0
C465 C 0.42704 0.64434 0.30561 0.0
C466 C 0.43435 0.60857 0.4511 0.0
C467 C 0.43166 0.56998 0.45056 0.0
C468 C 0.41826 0.62572 0.42304 0.0
C469 C 0.39908 0.60426 0.39462 0.0
C470 C 0.39165 0.56586 0.39764 0.0
C471 C 0.40827 0.54877 0.42529 0.0
H472 H 0.10327 0.41589 0.74103 0.0
H473 H 0.05937 0.51707 0.72242 0.0
H474 H 0.10827 0.43218 0.80667 0.0
H475 H 0.06443 0.53358 0.78769 0.0
H476 H 0.08104 0.56396 0.90138 0.0
H477 H 0.10769 0.54737 0.84362 0.0
H478 H 0.05357 0.43605 0.84898 0.0
H479 H 0.02657 0.45304 0.90643 0.0
C480 C 0.09563 0.44205 0.75105 0.0
C481 C 0.08093 0.46536 0.72725 0.0
C482 C 0.09851 0.45132 0.78839 0.0
C483 C 0.08694 0.48416 0.80216 0.0
C484 C 0.07423 0.50843 0.77775 0.0
C485 C 0.07109 0.49898 0.74052 0.0
C486 C 0.07671 0.53542 0.89121 0.0
C487 C 0.05215 0.50958 0.90817 0.0
C488 C 0.0916 0.52606 0.85804 0.0
C489 C 0.08223 0.49063 0.84168 0.0
C490 C 0.06141 0.46351 0.86113 0.0
C491 C 0.04612 0.47307 0.8941 0.0
H492 H 0.80103 0.00229 0.97228 0.0
H493 H 0.75382 0.89515 0.92898 0.0
H494 H 0.74131 0.01556 0.99226 0.0
H495 H 0.69418 0.90769 0.94952 0.0
H496 H 0.58833 0.95279 0.95145 0.0
H497 H 0.64939 0.94529 0.93329 0.0
H498 H 0.69181 0.00039 0.03434 0.0
H499 H 0.62971 0.00876 0.05218 0.0
C500 C 0.77776 0.98149 0.96734 0.0
C501 C 0.78176 0.9478 0.94901 0.0
C502 C 0.7436 -0.01101 0.97895 0.0
C503 C 0.71267 0.96292 0.97231 0.0
C504 C 0.71715 0.92881 0.95452 0.0
C505 C 0.7513 0.9214 0.94292 0.0
C506 C 0.61073 0.96385 0.96963 0.0
C507 C 0.60421 0.9813 1.00327 0.0
C508 C 0.64581 0.95913 0.95939 0.0
C509 C 0.67568 0.97132 0.98265 0.0
C510 C 0.66947 -0.00944 0.0157 0.0
C511 C 0.63397 -0.00443 0.02592 0.0
H512 H 0.74114 0.16995 0.45159 0.0
H513 H 0.69341 0.0568 0.43153 0.0
H514 H 0.79776 0.14908 0.47176 0.0
H515 H 0.75004 0.03582 0.45146 0.0
H516 H 0.84697 0.00713 0.51386 0.0
H517 H 0.79014 0.03352 0.50584 0.0
H518 H 0.84597 0.11864 0.44196 0.0
H519 H 0.90254 0.09234 0.45048 0.0
C520 C 0.74274 0.1406 0.4518 0.0
C521 C 0.71298 0.11496 0.43991 0.0
C522 C 0.77515 0.12866 0.46318 0.0
C523 C 0.77836 0.0908 0.46335 0.0
C524 C 0.7483 0.06516 0.4521 0.0
C525 C 0.71603 0.07713 0.44031 0.0
C526 C 0.84711 0.03217 0.49917 0.0
C527 C 0.87896 0.04822 0.48329 0.0
C528 C 0.81462 0.047 0.49417 0.0
C529 C 0.8135 0.078 0.47302 0.0
C530 C 0.84597 0.09504 0.45874 0.0
C531 C 0.87836 0.08013 0.46368 0.0
H532 H 0.27494 0.61625 0.18024 0.0
H533 H 0.29983 0.67803 0.08442 0.0
H534 H 0.21388 0.59656 0.15625 0.0
H535 H 0.23802 0.65884 0.0605 0.0
H536 H 0.1317 0.58056 0.02034 0.0
H537 H 0.19484 0.60365 0.03807 0.0
H538 H 0.16088 0.62859 0.14728 0.0
H539 H 0.09863 0.60437 0.12987 0.0
C540 C 0.26743 0.62518 0.15377 0.0
C541 C 0.29197 0.6487 0.13418 0.0
C542 C 0.23235 0.61434 0.14024 0.0
C543 C 0.22101 0.62676 0.1068 0.0
C544 C 0.24601 0.649 0.08639 0.0
C545 C 0.28121 0.66008 0.10011 0.0
C546 C 0.13791 0.59171 0.04785 0.0
C547 C 0.11075 0.59047 0.07394 0.0
C548 C 0.17388 0.60482 0.05802 0.0
C549 C 0.18281 0.6171 0.09427 0.0
C550 C 0.15497 0.61824 0.11946 0.0
C551 C 0.11936 0.60471 0.10948 0.0
H552 H 0.20566 0.38014 0.61431 0.0
H553 H 0.17185 0.48653 0.59573 0.0
H554 H 0.26861 0.40566 0.60535 0.0
H555 H 0.23494 0.51211 0.58709 0.0
H556 H 0.35388 0.54828 0.62802 0.0
H557 H 0.28979 0.52426 0.628 0.0
H558 H 0.30988 0.43284 0.55603 0.0
H559 H 0.37462 0.4574 0.55584 0.0
C560 C 0.21167 0.40889 0.60797 0.0
C561 C 0.18386 0.43137 0.60565 0.0
C562 C 0.24765 0.42341 0.60269 0.0
C563 C 0.25656 0.46073 0.5952 0.0
C564 C 0.22879 0.48325 0.59298 0.0
C565 C 0.19277 0.4687 0.59814 0.0
C566 C 0.34451 0.52329 0.61182 0.0
C567 C 0.369 0.50451 0.59205 0.0
C568 C 0.30782 0.50968 0.61165 0.0
C569 C 0.29493 0.47666 0.59212 0.0
C570 C 0.31927 0.45828 0.57148 0.0
C571 C 0.3561 0.47237 0.57112 0.0
H572 H 0.91041 0.84582 0.96752 0.0
H573 H 0.9016 0.78755 0.86199 0.0
H574 H 0.93275 0.7929 0.99407 0.0
H575 H 0.92642 0.73615 0.88853 0.0
H576 H 0.01902 0.68162 0.93963 0.0
H577 H -0.00668 0.73591 0.92144 0.0
H578 H 0.90883 0.71539 0.99954 0.0
H579 H 0.93408 0.65939 0.01736 0.0
C580 C 0.9126 0.82182 0.94985 0.0
C581 C 0.9039 0.82162 0.91218 0.0
C582 C 0.92573 0.79149 0.96528 0.0
C583 C 0.9314 0.76042 0.94343 0.0
C584 C 0.92251 0.75985 0.90606 0.0
C585 C 0.90859 0.7897 0.89076 0.0
C586 C -0.00478 0.68871 0.9535 0.0
C587 C 0.97845 0.66568 0.97979 0.0
C588 C 0.98043 0.71985 0.94283 0.0
C589 C 0.94873 0.72955 0.95853 0.0
C590 C 0.93325 0.70839 0.98683 0.0
C591 C 0.94785 0.67652 0.99725 0.0
H592 H 0.32877 0.77248 0.18306 0.0
H593 H 0.43867 0.75123 0.16454 0.0
H594 H 0.34707 0.8382 0.17506 0.0
H595 H 0.4569 0.81639 0.15675 0.0
H596 H 0.49094 0.92563 0.13584 0.0
H597 H 0.46513 0.88133 0.1792 0.0
H598 H 0.36394 0.86686 0.1176 0.0
H599 H 0.38973 0.91136 0.07509 0.0
C600 C 0.35693 0.78196 0.17789 0.0
C601 C 0.38222 0.7567 0.17385 0.0
C602 C 0.36743 0.81956 0.17365 0.0
C603 C 0.4034 0.83256 0.16538 0.0
C604 C 0.42912 0.80753 0.16392 0.0
C605 C 0.41864 0.77003 0.16812 0.0
C606 C 0.46245 0.91484 0.13322 0.0
C607 C 0.44225 0.9214 0.10226 0.0
C608 C 0.44779 0.88912 0.15769 0.0
C609 C 0.41296 0.86972 0.15107 0.0
C610 C 0.39089 0.88117 0.12349 0.0
C611 C 0.40557 0.90686 0.09913 0.0
H612 H 0.03385 0.33903 0.55855 0.0
H613 H 0.13196 0.30599 0.60362 0.0
H614 H 0.01432 0.27514 0.53665 0.0
H615 H 0.11259 0.24274 0.58229 0.0
H616 H 0.08559 0.13525 0.52808 0.0
H617 H 0.10175 0.2022 0.52824 0.0
H618 H -0.00554 0.21671 0.56484 0.0
H619 H 0.97838 0.14979 0.56361 0.0
C620 C 0.05124 0.31814 0.56359 0.0
C621 C 0.08456 0.32744 0.58242 0.0
C622 C 0.04016 0.2817 0.551 0.0
C623 C 0.06219 0.25402 0.55717 0.0
C624 C 0.0955 0.26355 0.57599 0.0
C625 C 0.10655 0.29979 0.58841 0.0
C626 C 0.0651 0.15293 0.53444 0.0
C627 C 0.03076 0.13786 0.5455 0.0
C628 C 0.07439 0.19114 0.53502 0.0
C629 C 0.04959 0.21469 0.54726 0.0
C630 C 0.0141 0.19938 0.5551 0.0
C631 C 0.00482 0.16113 0.55435 0.0
H632 H 0.60305 0.27905 0.4153 0.0
H633 H 0.54407 0.22854 0.50388 0.0
H634 H 0.58095 0.33769 0.43151 0.0
H635 H 0.52265 0.2873 0.52105 0.0
H636 H 0.47253 0.39885 0.52416 0.0
H637 H 0.48652 0.3365 0.50682 0.0
H638 H 0.59534 0.38256 0.48069 0.0
H639 H 0.5811 0.44395 0.49691 0.0
C640 C 0.58462 0.28038 0.43769 0.0
C641 C 0.57482 0.24941 0.4581 0.0
C642 C 0.57235 0.31404 0.44741 0.0
C643 C 0.55047 0.31749 0.47809 0.0
C644 C 0.53922 0.28574 0.49724 0.0
C645 C 0.55141 0.25206 0.48737 0.0
C646 C 0.49953 0.39533 0.51527 0.0
C647 C 0.5256 0.42622 0.5115 0.0
C648 C 0.50754 0.35972 0.50513 0.0
C649 C 0.54178 0.35455 0.49126 0.0
C650 C 0.56829 0.38546 0.48984 0.0
C651 C 0.56026 0.42069 0.4996 0.0
loop_
_geom_bond_atom_site_label_1
_geom_bond_atom_site_label_2
_geom_bond_distance
_geom_bond_site_symmetry_2
_ccdc_geom_bond_type
H0 C3 0.929 . S
H1 C6 0.929 . S
H2 C8 0.930 . S
C3 H0 0.929 . S
C3 C4 1.398 . S
C3 C5 1.396 . S
C4 C3 1.398 . S
C4 C8 1.407 . S
C5 C3 1.396 . S
C5 C6 1.394 . S
C6 H1 0.929 . S
C6 C5 1.394 . S
C6 C7 1.382 . S
C7 C6 1.382 . S
C7 C8 1.392 . S
C7 N9 1.420 . S
C8 H2 0.930 . S
C8 C4 1.407 . S
C8 C7 1.392 . S
N9 C7 1.420 . S
N9 C10 1.244 . S
C10 N9 1.244 . S
H11 C14 0.929 . S
H12 C17 0.929 . S
H13 C19 0.930 . S
C14 H11 0.929 . S
C14 C15 1.398 . S
C14 C16 1.396 . S
C15 C14 1.398 . S
C15 C19 1.407 . S
C16 C14 1.396 . S
C16 C17 1.394 . S
C17 H12 0.929 . S
C17 C16 1.394 . S
C17 C18 1.382 . S
C18 C17 1.382 . S
C18 C19 1.392 . S
C18 N20 1.420 . S
C19 H13 0.930 . S
C19 C15 1.407 . S
C19 C18 1.392 . S
N20 C18 1.420 . S
N20 C21 1.244 . S
C21 N20 1.244 . S
H22 C25 0.929 . S
H23 C28 0.929 . S
H24 C30 0.930 . S
C25 H22 0.929 . S
C25 C26 1.398 . S
C25 C27 1.396 . S
C26 C25 1.398 . S
C26 C30 1.407 . S
C27 C25 1.396 . S
C27 C28 1.394 . S
C28 H23 0.929 . S
C28 C27 1.394 . S
C28 C29 1.382 . S
C29 C28 1.382 . S
C29 C30 1.392 . S
C29 N31 1.420 . S
C30 H24 0.930 . S
C30 C26 1.407 . S
C30 C29 1.392 . S
N31 C29 1.420 . S
N31 C32 1.244 . S
C32 N31 1.244 . S
H33 C36 0.929 . S
H34 C39 0.929 . S
H35 C41 0.930 . S
C36 H33 0.929 . S
C36 C37 1.398 . S
C36 C38 1.396 . S
C37 C36 1.398 . S
C37 C41 1.407 . S
C38 C36 1.396 . S
C38 C39 1.394 . S
C39 H34 0.929 . S
C39 C38 1.394 . S
C39 C40 1.382 . S
C40 C39 1.382 . S
C40 C41 1.392 . S
C40 N42 1.420 . S
C41 H35 0.930 . S
C41 C37 1.407 . S
C41 C40 1.392 . S
N42 C40 1.420 . S
N42 C43 1.244 . S
C43 N42 1.244 . S
H44 C47 0.929 . S
H45 C50 0.929 . S
H46 C52 0.930 . S
C47 H44 0.929 . S
C47 C48 1.398 . S
C47 C49 1.396 . S
C48 C47 1.398 . S
C48 C52 1.407 . S
C49 C47 1.396 . S
C49 C50 1.394 . S
C50 H45 0.929 . S
C50 C49 1.394 . S
C50 C51 1.382 . S
C51 C50 1.382 . S
C51 C52 1.392 . S
C51 N53 1.420 . S
C52 H46 0.930 . S
C52 C48 1.407 . S
C52 C51 1.392 . S
N53 C51 1.420 . S
N53 C54 1.244 . S
C54 N53 1.244 . S
H55 C58 0.929 . S
H56 C61 0.929 . S
H57 C63 0.930 . S
C58 H55 0.929 . S
C58 C59 1.398 . S
C58 C60 1.396 . S
C59 C58 1.398 . S
C59 C63 1.407 . S
C60 C58 1.396 . S
C60 C61 1.394 . S
C61 H56 0.929 . S
C61 C60 1.394 . S
C61 C62 1.382 . S
C62 C61 1.382 . S
C62 C63 1.392 . S
C62 N64 1.420 . S
C63 H57 0.930 . S
C63 C59 1.407 . S
C63 C62 1.392 . S
N64 C62 1.420 . S
N64 C65 1.244 . S
C65 N64 1.244 . S
H66 C69 0.929 . S
H67 C72 0.929 . S
H68 C74 0.930 . S
C69 H66 0.929 . S
C69 C70 1.398 . S
C69 C71 1.396 . S
C70 C69 1.398 . S
C70 C74 1.407 . S
C71 C69 1.396 . S
C71 C72 1.394 . S
C72 H67 0.929 . S
C72 C71 1.394 . S
C72 C73 1.382 . S
C73 C72 1.382 . S
C73 C74 1.392 . S
C73 N75 1.420 . S
C74 H68 0.930 . S
C74 C70 1.407 . S
C74 C73 1.392 . S
N75 C73 1.420 . S
N75 C76 1.244 . S
C76 N75 1.244 . S
H77 C80 0.929 . S
H78 C83 0.929 . S
H79 C85 0.930 . S
C80 H77 0.929 . S
C80 C81 1.398 . S
C80 C82 1.396 . S
C81 C80 1.398 . S
C81 C85 1.407 . S
C82 C80 1.396 . S
C82 C83 1.394 . S
C83 H78 0.929 . S
C83 C82 1.394 . S
C83 C84 1.382 . S
C84 C83 1.382 . S
C84 C85 1.392 . S
C84 N86 1.420 . S
C85 H79 0.930 . S
C85 C81 1.407 . S
C85 C84 1.392 . S
N86 C84 1.420 . S
N86 C87 1.244 . S
C87 N86 1.244 . S
O88 Mg89 1.990 . S
O88 C102 1.253 1_455 S
Mg89 O88 1.990 . S
Mg89 O92 2.180 . S
Mg89 O93 2.117 . S
Mg89 O107 2.030 . S
O90 Mg91 2.073 1_665 S
O90 C102 1.260 1_565 S
Mg91 O90 2.073 1_445 S
Mg91 O92 2.099 . S
Mg91 O94 2.079 . S
Mg91 O95 2.072 1_455 S
Mg91 O97 2.099 1_445 S
Mg91 O108 2.079 . S
O92 Mg89 2.180 . S
O92 Mg91 2.099 . S
O92 C103 1.279 . S
O93 Mg89 2.117 . S
O93 C103 1.250 . S
O94 Mg91 2.079 . S
O94 C104 1.264 . S
O95 Mg91 2.072 1_655 S
O95 C105 1.260 . S
Mg96 O97 2.180 . S
Mg96 O98 2.030 1_565 S
Mg96 O99 1.990 1_565 S
Mg96 O100 2.117 . S
O97 Mg91 2.099 1_665 S
O97 Mg96 2.180 . S
O97 C106 1.279 . S
O98 Mg96 2.030 1_545 S
O98 C104 1.248 1_655 S
O99 Mg96 1.990 1_545 S
O99 C105 1.253 . S
O100 Mg96 2.117 . S
O100 C106 1.250 . S
C101 O107 1.248 . S
C101 O108 1.264 . S
C102 O88 1.253 1_655 S
C102 O90 1.260 1_545 S
C103 O92 1.279 . S
C103 O93 1.250 . S
C104 O94 1.264 . S
C104 O98 1.248 1_455 S
C105 O95 1.260 . S
C105 O99 1.253 . S
C106 O97 1.279 . S
C106 O100 1.250 . S
O107 Mg89 2.030 . S
O107 C101 1.248 . S
O108 Mg91 2.079 . S
O108 C101 1.264 . S
O109 Mg110 1.990 . S
O109 C123 1.253 . S
Mg110 O109 1.990 . S
Mg110 O113 2.180 . S
Mg110 O114 2.117 . S
Mg110 O128 2.030 . S
O111 Mg112 2.072 . S
O111 C123 1.260 . S
Mg112 O111 2.072 . S
Mg112 O113 2.099 . S
Mg112 O115 2.079 . S
Mg112 O116 2.072 1_554 S
Mg112 O118 2.099 1_545 S
Mg112 O129 2.079 . S
O113 Mg110 2.180 . S
O113 Mg112 2.099 . S
O113 C124 1.279 . S
O114 Mg110 2.117 . S
O114 C124 1.250 . S
O115 Mg112 2.079 . S
O115 C125 1.264 . S
O116 Mg112 2.072 1_556 S
O116 C126 1.274 . S
Mg117 O118 2.180 . S
Mg117 O119 2.030 1_554 S
Mg117 O120 1.990 1_554 S
Mg117 O121 2.117 . S
O118 Mg112 2.099 1_565 S
O118 Mg117 2.180 . S
O118 C127 1.279 . S
O119 Mg117 2.030 1_556 S
O119 C125 1.248 1_566 S
O120 Mg117 1.990 1_556 S
O120 C126 1.233 1_565 S
O121 Mg117 2.117 . S
O121 C127 1.250 . S
C122 O128 1.248 . S
C122 O129 1.264 . S
C123 O109 1.253 . S
C123 O111 1.260 . S
C124 O113 1.279 . S
C124 O114 1.250 . S
C125 O115 1.264 . S
C125 O119 1.248 1_544 S
C126 O116 1.274 . S
C126 O120 1.233 1_545 S
C127 O118 1.279 . S
C127 O121 1.250 . S
O128 Mg110 2.030 . S
O128 C122 1.248 . S
O129 Mg112 2.079 . S
O129 C122 1.264 . S
O130 Mg131 1.990 . S
O130 C144 1.253 . S
Mg131 O130 1.990 . S
Mg131 O134 2.180 . S
Mg131 O135 2.117 . S
Mg131 O149 2.030 . S
O132 Mg133 2.072 . S
O132 C144 1.260 . S
Mg133 O132 2.072 . S
Mg133 O134 2.099 . S
Mg133 O136 2.079 . S
Mg133 O137 2.072 . S
Mg133 O139 2.099 . S
Mg133 O150 2.079 . S
O134 Mg131 2.180 . S
O134 Mg133 2.099 . S
O134 C145 1.279 . S
O135 Mg131 2.117 . S
O135 C145 1.250 . S
O136 Mg133 2.079 . S
O136 C146 1.264 . S
O137 Mg133 2.072 . S
O137 C147 1.260 . S
Mg138 O139 2.180 . S
Mg138 O140 2.030 . S
Mg138 O141 1.990 . S
Mg138 O142 2.117 . S
O139 Mg133 2.099 . S
O139 Mg138 2.180 . S
O139 C148 1.279 . S
O140 Mg138 2.030 . S
O140 C146 1.248 . S
O141 Mg138 1.990 . S
O141 C147 1.253 . S
O142 Mg138 2.117 . S
O142 C148 1.250 . S
C143 O149 1.248 . S
C143 O150 1.264 . S
C144 O130 1.253 . S
C144 O132 1.260 . S
C145 O134 1.279 . S
C145 O135 1.250 . S
C146 O136 1.264 . S
C146 O140 1.248 . S
C147 O137 1.260 . S
C147 O141 1.253 . S
C148 O139 1.279 . S
C148 O142 1.250 . S
O149 Mg131 2.030 . S
O149 C143 1.248 . S
O150 Mg133 2.079 . S
O150 C143 1.264 . S
O151 Mg152 1.990 . S
O151 C165 1.253 . S
Mg152 O151 1.990 . S
Mg152 O155 2.180 . S
Mg152 O156 2.117 1_455 S
Mg152 O170 2.030 . S
O153 Mg154 2.072 . S
O153 C165 1.260 . S
Mg154 O153 2.072 . S
Mg154 O155 2.099 . S
Mg154 O157 2.080 . S
Mg154 O158 2.072 1_455 S
Mg154 O160 2.099 1_554 S
Mg154 O171 2.079 . S
O155 Mg152 2.180 . S
O155 Mg154 2.099 . S
O155 C166 1.279 1_455 S
O156 Mg152 2.117 1_655 S
O156 C166 1.250 . S
O157 Mg154 2.080 . S
O157 C167 1.259 1_454 S
O158 Mg154 2.072 1_655 S
O158 C168 1.260 1_554 S
Mg159 O160 2.180 1_655 S
Mg159 O161 2.030 . S
Mg159 O162 1.990 . S
Mg159 O163 2.117 1_655 S
O160 Mg154 2.099 1_556 S
O160 Mg159 2.180 1_455 S
O160 C169 1.279 . S
O161 Mg159 2.030 . S
O161 C167 1.248 . S
O162 Mg159 1.990 . S
O162 C168 1.253 . S
O163 Mg159 2.117 1_455 S
O163 C169 1.250 . S
C164 O170 1.248 . S
C164 O171 1.264 . S
C165 O151 1.253 . S
C165 O153 1.260 . S
C166 O155 1.279 1_655 S
C166 O156 1.250 . S
C167 O157 1.259 1_656 S
C167 O161 1.248 . S
C168 O158 1.260 1_556 S
C168 O162 1.253 . S
C169 O160 1.279 . S
C169 O163 1.250 . S
O170 Mg152 2.030 . S
O170 C164 1.248 . S
O171 Mg154 2.079 . S
O171 C164 1.264 . S
H172 C180 0.950 . S
H173 C185 0.950 . S
H174 C182 0.950 . S
H175 C184 0.950 . S
H176 C186 0.950 . S
H177 C188 0.950 . S
H178 C190 0.950 . S
H179 C191 0.950 . S
C180 H172 0.950 . S
C180 C181 1.386 . S
C180 C182 1.391 . S
C181 C180 1.386 . S
C181 C185 1.393 . S
C182 H174 0.950 . S
C182 C180 1.391 . S
C182 C183 1.400 . S
C183 C182 1.400 . S
C183 C184 1.398 . S
C183 C189 1.491 . S
C184 H175 0.950 . S
C184 C183 1.398 . S
C184 C185 1.391 . S
C185 H173 0.950 . S
C185 C181 1.393 . S
C185 C184 1.391 . S
C186 H176 0.950 . S
C186 C187 1.386 . S
C186 C188 1.391 . S
C187 C186 1.386 . S
C187 C191 1.393 . S
C188 H177 0.950 . S
C188 C186 1.391 . S
C188 C189 1.400 . S
C189 C183 1.491 . S
C189 C188 1.400 . S
C189 C190 1.398 . S
C190 H178 0.950 . S
C190 C189 1.398 . S
C190 C191 1.391 . S
C191 H179 0.950 . S
C191 C187 1.393 . S
C191 C190 1.391 . S
H192 C200 0.950 . S
H193 C205 0.950 . S
H194 C202 0.950 . S
H195 C204 0.950 . S
H196 C206 0.950 . S
H197 C208 0.950 1_545 S
H198 C210 0.950 . S
H199 C211 0.950 . S
C200 H192 0.950 . S
C200 C201 1.386 . S
C200 C202 1.391 . S
C201 C200 1.386 . S
C201 C205 1.393 . S
C202 H194 0.950 . S
C202 C200 1.391 . S
C202 C203 1.400 . S
C203 C202 1.400 . S
C203 C204 1.398 . S
C203 C209 1.491 . S
C204 H195 0.950 . S
C204 C203 1.398 . S
C204 C205 1.391 . S
C205 H193 0.950 . S
C205 C201 1.393 . S
C205 C204 1.391 . S
C206 H196 0.950 . S
C206 C207 1.386 1_545 S
C206 C208 1.391 1_545 S
C207 C206 1.386 1_565 S
C207 C211 1.393 . S
C208 H197 0.950 1_565 S
C208 C206 1.391 1_565 S
C208 C209 1.400 . S
C209 C203 1.491 . S
C209 C208 1.400 . S
C209 C210 1.398 . S
C210 H198 0.950 . S
C210 C209 1.398 . S
C210 C211 1.391 . S
C211 H199 0.950 . S
C211 C207 1.393 . S
C211 C210 1.391 . S
H212 C220 0.950 . S
H213 C225 0.950 . S
H214 C222 0.950 . S
H215 C224 0.950 . S
H216 C226 0.950 . S
H217 C228 0.950 . S
H218 C230 0.950 . S
H219 C231 0.950 . S
C220 H212 0.950 . S
C220 C221 1.386 . S
C220 C222 1.391 . S
C221 C220 1.386 . S
C221 C225 1.393 . S
C222 H214 0.950 . S
C222 C220 1.391 . S
C222 C223 1.400 . S
C223 C222 1.400 . S
C223 C224 1.398 . S
C223 C229 1.491 . S
C224 H215 0.950 . S
C224 C223 1.398 . S
C224 C225 1.391 . S
C225 H213 0.950 . S
C225 C221 1.393 . S
C225 C224 1.391 . S
C226 H216 0.950 . S
C226 C227 1.386 . S
C226 C228 1.391 . S
C227 C226 1.386 . S
C227 C231 1.393 . S
C228 H217 0.950 . S
C228 C226 1.391 . S
C228 C229 1.400 . S
C229 C223 1.491 . S
C229 C228 1.400 . S
C229 C230 1.398 . S
C230 H218 0.950 . S
C230 C229 1.398 . S
C230 C231 1.391 . S
C231 H219 0.950 . S
C231 C227 1.393 . S
C231 C230 1.391 . S
H232 C240 0.950 . S
H233 C245 0.950 . S
H234 C242 0.950 . S
H235 C244 0.950 . S
H236 C246 0.950 . S
H237 C248 0.950 . S
H238 C250 0.950 . S
H239 C251 0.950 1_455 S
C240 H232 0.950 . S
C240 C241 1.386 . S
C240 C242 1.391 . S
C241 C240 1.386 . S
C241 C245 1.393 . S
C242 H234 0.950 . S
C242 C240 1.391 . S
C242 C243 1.400 . S
C243 C242 1.400 . S
C243 C244 1.398 . S
C243 C249 1.491 . S
C244 H235 0.950 . S
C244 C243 1.398 . S
C244 C245 1.391 . S
C245 H233 0.950 . S
C245 C241 1.393 . S
C245 C244 1.391 . S
C246 H236 0.950 . S
C246 C247 1.386 . S
C246 C248 1.391 . S
C247 C246 1.386 . S
C247 C251 1.393 . S
C248 H237 0.950 . S
C248 C246 1.391 . S
C248 C249 1.400 . S
C249 C243 1.491 . S
C249 C248 1.400 . S
C249 C250 1.398 . S
C250 H238 0.950 . S
C250 C249 1.398 . S
C250 C251 1.391 . S
C251 H239 0.950 1_655 S
C251 C247 1.393 . S
C251 C250 1.391 . S
H252 C260 0.950 . S
H253 C265 0.950 . S
H254 C262 0.950 . S
H255 C264 0.950 . S
H256 C266 0.950 . S
H257 C268 0.950 . S
H258 C270 0.950 . S
H259 C271 0.950 . S
C260 H252 0.950 . S
C260 C261 1.386 . S
C260 C262 1.391 . S
C261 C260 1.386 . S
C261 C265 1.393 . S
C262 H254 0.950 . S
C262 C260 1.391 . S
C262 C263 1.400 . S
C263 C262 1.400 . S
C263 C264 1.398 . S
C263 C269 1.491 . S
C264 H255 0.950 . S
C264 C263 1.398 . S
C264 C265 1.391 . S
C265 H253 0.950 . S
C265 C261 1.393 . S
C265 C264 1.391 . S
C266 H256 0.950 . S
C266 C267 1.386 . S
C266 C268 1.391 . S
C267 C266 1.386 . S
C267 C271 1.393 . S
C268 H257 0.950 . S
C268 C266 1.391 . S
C268 C269 1.400 . S
C269 C263 1.491 . S
C269 C268 1.400 . S
C269 C270 1.398 . S
C270 H258 0.950 . S
C270 C269 1.398 . S
C270 C271 1.391 . S
C271 H259 0.950 . S
C271 C267 1.393 . S
C271 C270 1.391 . S
H272 C280 0.950 1_545 S
H273 C285 0.950 . S
H274 C282 0.950 1_545 S
H275 C284 0.950 . S
H276 C286 0.950 . S
H277 C288 0.950 . S
H278 C290 0.950 . S
H279 C291 0.950 . S
C280 H272 0.950 1_565 S
C280 C281 1.386 . S
C280 C282 1.391 . S
C281 C280 1.386 . S
C281 C285 1.393 . S
C282 H274 0.950 1_565 S
C282 C280 1.391 . S
C282 C283 1.400 . S
C283 C282 1.400 . S
C283 C284 1.398 . S
C283 C289 1.491 . S
C284 H275 0.950 . S
C284 C283 1.398 . S
C284 C285 1.391 . S
C285 H273 0.950 . S
C285 C281 1.393 . S
C285 C284 1.391 . S
C286 H276 0.950 . S
C286 C287 1.386 . S
C286 C288 1.391 . S
C287 C286 1.386 . S
C287 C291 1.393 1_565 S
C288 H277 0.950 . S
C288 C286 1.391 . S
C288 C289 1.400 . S
C289 C283 1.491 . S
C289 C288 1.400 . S
C289 C290 1.398 1_565 S
C290 H278 0.950 . S
C290 C289 1.398 1_545 S
C290 C291 1.391 . S
C291 H279 0.950 . S
C291 C287 1.393 1_545 S
C291 C290 1.391 . S
H292 C300 0.950 . S
H293 C305 0.950 . S
H294 C302 0.950 . S
H295 C304 0.950 . S
H296 C306 0.950 . S
H297 C308 0.950 . S
H298 C310 0.950 . S
H299 C311 0.950 1_554 S
C300 H292 0.950 . S
C300 C301 1.386 . S
C300 C302 1.391 . S
C301 C300 1.386 . S
C301 C305 1.393 . S
C302 H294 0.950 . S
C302 C300 1.391 . S
C302 C303 1.400 . S
C303 C302 1.400 . S
C303 C304 1.398 . S
C303 C309 1.491 . S
C304 H295 0.950 . S
C304 C303 1.398 . S
C304 C305 1.391 . S
C305 H293 0.950 . S
C305 C301 1.393 . S
C305 C304 1.391 . S
C306 H296 0.950 . S
C306 C307 1.386 . S
C306 C308 1.391 . S
C307 C306 1.386 . S
C307 C311 1.393 . S
C308 H297 0.950 . S
C308 C306 1.391 . S
C308 C309 1.400 . S
C309 C303 1.491 . S
C309 C308 1.400 . S
C309 C310 1.398 . S
C310 H298 0.950 . S
C310 C309 1.398 . S
C310 C311 1.391 . S
C311 H299 0.950 1_556 S
C311 C307 1.393 . S
C311 C310 1.391 . S
H312 C320 0.950 . S
H313 C325 0.950 . S
H314 C322 0.950 . S
H315 C324 0.950 . S
H316 C326 0.950 . S
H317 C328 0.950 . S
H318 C330 0.950 . S
H319 C331 0.950 . S
C320 H312 0.950 . S
C320 C321 1.386 . S
C320 C322 1.391 . S
C321 C320 1.386 . S
C321 C325 1.393 . S
C322 H314 0.950 . S
C322 C320 1.391 . S
C322 C323 1.400 . S
C323 C322 1.400 . S
C323 C324 1.398 . S
C323 C329 1.491 . S
C324 H315 0.950 . S
C324 C323 1.398 . S
C324 C325 1.391 . S
C325 H313 0.950 . S
C325 C321 1.393 . S
C325 C324 1.391 . S
C326 H316 0.950 . S
C326 C327 1.386 . S
C326 C328 1.391 . S
C327 C326 1.386 . S
C327 C331 1.393 . S
C328 H317 0.950 . S
C328 C326 1.391 . S
C328 C329 1.400 . S
C329 C323 1.491 . S
C329 C328 1.400 . S
C329 C330 1.398 . S
C330 H318 0.950 . S
C330 C329 1.398 . S
C330 C331 1.391 . S
C331 H319 0.950 . S
C331 C327 1.393 . S
C331 C330 1.391 . S
H332 C340 0.950 . S
H333 C345 0.950 . S
H334 C342 0.950 . S
H335 C344 0.950 . S
H336 C346 0.950 . S
H337 C348 0.950 . S
H338 C350 0.950 . S
H339 C351 0.950 1_655 S
C340 H332 0.950 . S
C340 C341 1.386 . S
C340 C342 1.391 . S
C341 C340 1.386 . S
C341 C345 1.393 . S
C342 H334 0.950 . S
C342 C340 1.391 . S
C342 C343 1.400 . S
C343 C342 1.400 . S
C343 C344 1.398 . S
C343 C349 1.491 . S
C344 H335 0.950 . S
C344 C343 1.398 . S
C344 C345 1.391 . S
C345 H333 0.950 . S
C345 C341 1.393 . S
C345 C344 1.391 . S
C346 H336 0.950 . S
C346 C347 1.386 . S
C346 C348 1.391 . S
C347 C346 1.386 . S
C347 C351 1.393 . S
C348 H337 0.950 . S
C348 C346 1.391 . S
C348 C349 1.400 . S
C349 C343 1.491 . S
C349 C348 1.400 . S
C349 C350 1.398 . S
C350 H338 0.950 . S
C350 C349 1.398 . S
C350 C351 1.391 . S
C351 H339 0.950 1_455 S
C351 C347 1.393 . S
C351 C350 1.391 . S
H352 C360 0.950 . S
H353 C365 0.950 . S
H354 C362 0.950 . S
H355 C364 0.950 . S
H356 C366 0.950 . S
H357 C368 0.950 . S
H358 C370 0.950 . S
H359 C371 0.950 . S
C360 H352 0.950 . S
C360 C361 1.386 . S
C360 C362 1.391 . S
C361 C360 1.386 . S
C361 C365 1.393 . S
C362 H354 0.950 . S
C362 C360 1.391 . S
C362 C363 1.400 . S
C363 C362 1.400 . S
C363 C364 1.398 . S
C363 C369 1.491 . S
C364 H355 0.950 . S
C364 C363 1.398 . S
C364 C365 1.391 . S
C365 H353 0.950 . S
C365 C361 1.393 . S
C365 C364 1.391 . S
C366 H356 0.950 . S
C366 C367 1.386 . S
C366 C368 1.391 . S
C367 C366 1.386 . S
C367 C371 1.393 . S
C368 H357 0.950 . S
C368 C366 1.391 . S
C368 C369 1.400 . S
C369 C363 1.491 . S
C369 C368 1.400 . S
C369 C370 1.398 . S
C370 H358 0.950 . S
C370 C369 1.398 . S
C370 C371 1.391 . S
C371 H359 0.950 . S
C371 C367 1.393 . S
C371 C370 1.391 . S
H372 C380 0.950 . S
H373 C385 0.950 . S
H374 C382 0.950 . S
H375 C384 0.950 . S
H376 C386 0.950 1_455 S
H377 C388 0.950 . S
H378 C390 0.950 . S
H379 C391 0.950 . S
C380 H372 0.950 . S
C380 C381 1.386 . S
C380 C382 1.391 . S
C381 C380 1.386 . S
C381 C385 1.393 . S
C382 H374 0.950 . S
C382 C380 1.391 . S
C382 C383 1.400 . S
C383 C382 1.400 . S
C383 C384 1.398 . S
C383 C389 1.491 . S
C384 H375 0.950 . S
C384 C383 1.398 . S
C384 C385 1.391 . S
C385 H373 0.950 . S
C385 C381 1.393 . S
C385 C384 1.391 . S
C386 H376 0.950 1_655 S
C386 C387 1.386 . S
C386 C388 1.391 . S
C387 C386 1.386 . S
C387 C391 1.393 . S
C388 H377 0.950 . S
C388 C386 1.391 . S
C388 C389 1.400 . S
C389 C383 1.491 . S
C389 C388 1.400 . S
C389 C390 1.398 . S
C390 H378 0.950 . S
C390 C389 1.398 . S
C390 C391 1.391 . S
C391 H379 0.950 . S
C391 C387 1.393 . S
C391 C390 1.391 . S
H392 C400 0.950 . S
H393 C405 0.950 . S
H394 C402 0.950 . S
H395 C404 0.950 . S
H396 C406 0.950 . S
H397 C408 0.950 . S
H398 C410 0.950 . S
H399 C411 0.950 . S
C400 H392 0.950 . S
C400 C401 1.386 . S
C400 C402 1.391 . S
C401 C400 1.386 . S
C401 C405 1.393 . S
C402 H394 0.950 . S
C402 C400 1.391 . S
C402 C403 1.400 . S
C403 C402 1.400 . S
C403 C404 1.398 . S
C403 C409 1.491 . S
C404 H395 0.950 . S
C404 C403 1.398 . S
C404 C405 1.391 . S
C405 H393 0.950 . S
C405 C401 1.393 . S
C405 C404 1.391 . S
C406 H396 0.950 . S
C406 C407 1.386 . S
C406 C408 1.391 . S
C407 C406 1.386 . S
C407 C411 1.393 . S
C408 H397 0.950 . S
C408 C406 1.391 . S
C408 C409 1.400 . S
C409 C403 1.491 . S
C409 C408 1.400 . S
C409 C410 1.398 . S
C410 H398 0.950 . S
C410 C409 1.398 . S
C410 C411 1.391 . S
C411 H399 0.950 . S
C411 C407 1.393 . S
C411 C410 1.391 . S
H412 C420 0.950 . S
H413 C425 0.950 . S
H414 C422 0.950 . S
H415 C424 0.950 . S
H416 C426 0.950 . S
H417 C428 0.950 . S
H418 C430 0.950 1_545 S
H419 C431 0.943 1_445 S
C420 H412 0.950 . S
C420 C421 1.386 . S
C420 C422 1.391 . S
C421 C420 1.386 . S
C421 C425 1.393 . S
C422 H414 0.950 . S
C422 C420 1.391 . S
C422 C423 1.400 . S
C423 C422 1.400 . S
C423 C424 1.398 . S
C423 C429 1.491 . S
C424 H415 0.950 . S
C424 C423 1.398 . S
C424 C425 1.391 . S
C425 H413 0.950 . S
C425 C421 1.393 . S
C425 C424 1.391 . S
C426 H416 0.950 . S
C426 C427 1.386 . S
C426 C428 1.391 . S
C427 C426 1.386 . S
C427 C431 1.397 . S
C428 H417 0.950 . S
C428 C426 1.391 . S
C428 C429 1.400 . S
C429 C423 1.491 . S
C429 C428 1.400 . S
C429 C430 1.398 . S
C430 H418 0.950 1_565 S
C430 C429 1.398 . S
C430 C431 1.394 . S
C431 H419 0.943 1_665 S
C431 C427 1.397 . S
C431 C430 1.394 . S
H432 C440 0.950 . S
H433 C445 0.950 . S
H434 C442 0.950 . S
H435 C444 0.950 . S
H436 C446 0.950 . S
H437 C448 0.950 . S
H438 C450 0.950 . S
H439 C451 0.950 . S
C440 H432 0.950 . S
C440 C441 1.386 . S
C440 C442 1.391 . S
C441 C440 1.386 . S
C441 C445 1.393 . S
C442 H434 0.950 . S
C442 C440 1.391 . S
C442 C443 1.400 . S
C443 C442 1.400 . S
C443 C444 1.398 . S
C443 C449 1.491 . S
C444 H435 0.950 . S
C444 C443 1.398 . S
C444 C445 1.391 . S
C445 H433 0.950 . S
C445 C441 1.393 . S
C445 C444 1.391 . S
C446 H436 0.950 . S
C446 C447 1.386 . S
C446 C448 1.391 . S
C447 C446 1.386 . S
C447 C451 1.393 . S
C448 H437 0.950 . S
C448 C446 1.391 . S
C448 C449 1.400 . S
C449 C443 1.491 . S
C449 C448 1.400 . S
C449 C450 1.398 . S
C450 H438 0.950 . S
C450 C449 1.398 . S
C450 C451 1.391 . S
C451 H439 0.950 . S
C451 C447 1.393 . S
C451 C450 1.391 . S
H452 C460 0.950 . S
H453 C465 0.950 . S
H454 C462 0.950 . S
H455 C464 0.950 . S
H456 C466 0.950 . S
H457 C468 0.950 . S
H458 C470 0.950 . S
H459 C471 0.950 . S
C460 H452 0.950 . S
C460 C461 1.386 . S
C460 C462 1.391 . S
C461 C460 1.386 . S
C461 C465 1.393 . S
C462 H454 0.950 . S
C462 C460 1.391 . S
C462 C463 1.400 . S
C463 C462 1.400 . S
C463 C464 1.398 . S
C463 C469 1.491 . S
C464 H455 0.950 . S
C464 C463 1.398 . S
C464 C465 1.391 . S
C465 H453 0.950 . S
C465 C461 1.393 . S
C465 C464 1.391 . S
C466 H456 0.950 . S
C466 C467 1.386 . S
C466 C468 1.391 . S
C467 C466 1.386 . S
C467 C471 1.393 . S
C468 H457 0.950 . S
C468 C466 1.391 . S
C468 C469 1.400 . S
C469 C463 1.491 . S
C469 C468 1.400 . S
C469 C470 1.398 . S
C470 H458 0.950 . S
C470 C469 1.398 . S
C470 C471 1.391 . S
C471 H459 0.950 . S
C471 C467 1.393 . S
C471 C470 1.391 . S
H472 C480 0.950 . S
H473 C485 0.950 . S
H474 C482 0.950 . S
H475 C484 0.950 . S
H476 C486 0.950 . S
H477 C488 0.950 . S
H478 C490 0.950 . S
H479 C491 0.950 . S
C480 H472 0.950 . S
C480 C481 1.386 . S
C480 C482 1.391 . S
C481 C480 1.386 . S
C481 C485 1.393 . S
C482 H474 0.950 . S
C482 C480 1.391 . S
C482 C483 1.400 . S
C483 C482 1.400 . S
C483 C484 1.398 . S
C483 C489 1.491 . S
C484 H475 0.950 . S
C484 C483 1.398 . S
C484 C485 1.391 . S
C485 H473 0.950 . S
C485 C481 1.393 . S
C485 C484 1.391 . S
C486 H476 0.950 . S
C486 C487 1.386 . S
C486 C488 1.391 . S
C487 C486 1.386 . S
C487 C491 1.393 . S
C488 H477 0.950 . S
C488 C486 1.391 . S
C488 C489 1.400 . S
C489 C483 1.491 . S
C489 C488 1.400 . S
C489 C490 1.398 . S
C490 H478 0.950 . S
C490 C489 1.398 . S
C490 C491 1.391 . S
C491 H479 0.950 . S
C491 C487 1.393 . S
C491 C490 1.391 . S
H492 C500 0.950 . S
H493 C505 0.950 . S
H494 C502 0.950 1_545 S
H495 C504 0.950 . S
H496 C506 0.950 . S
H497 C508 0.950 . S
H498 C510 0.946 1_554 S
H499 C511 0.950 . S
C500 H492 0.950 . S
C500 C501 1.386 . S
C500 C502 1.391 . S
C501 C500 1.386 . S
C501 C505 1.393 . S
C502 H494 0.950 1_565 S
C502 C500 1.391 . S
C502 C503 1.400 . S
C503 C502 1.400 . S
C503 C504 1.398 . S
C503 C509 1.491 . S
C504 H495 0.950 . S
C504 C503 1.398 . S
C504 C505 1.391 . S
C505 H493 0.950 . S
C505 C501 1.393 . S
C505 C504 1.391 . S
C506 H496 0.950 . S
C506 C507 1.386 1_565 S
C506 C508 1.391 . S
C507 C506 1.386 1_545 S
C507 C511 1.392 1_556 S
C508 H497 0.950 . S
C508 C506 1.391 . S
C508 C509 1.400 . S
C509 C503 1.491 . S
C509 C508 1.400 . S
C509 C510 1.405 1_565 S
C510 H498 0.946 1_556 S
C510 C509 1.405 1_545 S
C510 C511 1.387 1_556 S
C511 H499 0.950 . S
C511 C507 1.392 1_554 S
C511 C510 1.387 1_554 S
H512 C520 0.950 . S
H513 C525 0.950 . S
H514 C522 0.950 . S
H515 C524 0.950 . S
H516 C526 0.950 . S
H517 C528 0.950 . S
H518 C530 0.950 . S
H519 C531 0.950 . S
C520 H512 0.950 . S
C520 C521 1.386 . S
C520 C522 1.391 . S
C521 C520 1.386 . S
C521 C525 1.393 . S
C522 H514 0.950 . S
C522 C520 1.391 . S
C522 C523 1.400 . S
C523 C522 1.400 . S
C523 C524 1.398 . S
C523 C529 1.491 . S
C524 H515 0.950 . S
C524 C523 1.398 . S
C524 C525 1.391 . S
C525 H513 0.950 . S
C525 C521 1.393 . S
C525 C524 1.391 . S
C526 H516 0.950 . S
C526 C527 1.386 . S
C526 C528 1.391 . S
C527 C526 1.386 . S
C527 C531 1.393 . S
C528 H517 0.950 . S
C528 C526 1.391 . S
C528 C529 1.400 . S
C529 C523 1.491 . S
C529 C528 1.400 . S
C529 C530 1.398 . S
C530 H518 0.950 . S
C530 C529 1.398 . S
C530 C531 1.391 . S
C531 H519 0.950 . S
C531 C527 1.393 . S
C531 C530 1.391 . S
H532 C540 0.950 . S
H533 C545 0.950 . S
H534 C542 0.950 . S
H535 C544 0.950 . S
H536 C546 0.950 . S
H537 C548 0.950 . S
H538 C550 0.950 . S
H539 C551 0.950 . S
C540 H532 0.950 . S
C540 C541 1.386 . S
C540 C542 1.391 . S
C541 C540 1.386 . S
C541 C545 1.393 . S
C542 H534 0.950 . S
C542 C540 1.391 . S
C542 C543 1.400 . S
C543 C542 1.400 . S
C543 C544 1.398 . S
C543 C549 1.491 . S
C544 H535 0.950 . S
C544 C543 1.398 . S
C544 C545 1.391 . S
C545 H533 0.950 . S
C545 C541 1.393 . S
C545 C544 1.391 . S
C546 H536 0.950 . S
C546 C547 1.386 . S
C546 C548 1.391 . S
C547 C546 1.386 . S
C547 C551 1.393 . S
C548 H537 0.950 . S
C548 C546 1.391 . S
C548 C549 1.400 . S
C549 C543 1.491 . S
C549 C548 1.400 . S
C549 C550 1.398 . S
C550 H538 0.950 . S
C550 C549 1.398 . S
C550 C551 1.391 . S
C551 H539 0.950 . S
C551 C547 1.393 . S
C551 C550 1.391 . S
H552 C560 0.950 . S
H553 C565 0.950 . S
H554 C562 0.950 . S
H555 C564 0.950 . S
H556 C566 0.950 . S
H557 C568 0.950 . S
H558 C570 0.950 . S
H559 C571 0.950 . S
C560 H552 0.950 . S
C560 C561 1.386 . S
C560 C562 1.391 . S
C561 C560 1.386 . S
C561 C565 1.393 . S
C562 H554 0.950 . S
C562 C560 1.391 . S
C562 C563 1.400 . S
C563 C562 1.400 . S
C563 C564 1.398 . S
C563 C569 1.491 . S
C564 H555 0.950 . S
C564 C563 1.398 . S
C564 C565 1.391 . S
C565 H553 0.950 . S
C565 C561 1.393 . S
C565 C564 1.391 . S
C566 H556 0.950 . S
C566 C567 1.386 . S
C566 C568 1.391 . S
C567 C566 1.386 . S
C567 C571 1.393 . S
C568 H557 0.950 . S
C568 C566 1.391 . S
C568 C569 1.400 . S
C569 C563 1.491 . S
C569 C568 1.400 . S
C569 C570 1.398 . S
C570 H558 0.950 . S
C570 C569 1.398 . S
C570 C571 1.391 . S
C571 H559 0.950 . S
C571 C567 1.393 . S
C571 C570 1.391 . S
H572 C580 0.950 . S
H573 C585 0.950 . S
H574 C582 0.950 . S
H575 C584 0.950 . S
H576 C586 0.941 1_455 S
H577 C588 0.950 . S
H578 C590 0.950 . S
H579 C591 0.950 1_554 S
C580 H572 0.950 . S
C580 C581 1.386 . S
C580 C582 1.391 . S
C581 C580 1.386 . S
C581 C585 1.393 . S
C582 H574 0.950 . S
C582 C580 1.391 . S
C582 C583 1.400 . S
C583 C582 1.400 . S
C583 C584 1.398 . S
C583 C589 1.491 . S
C584 H575 0.950 . S
C584 C583 1.398 . S
C584 C585 1.391 . S
C585 H573 0.950 . S
C585 C581 1.393 . S
C585 C584 1.391 . S
C586 H576 0.941 1_655 S
C586 C587 1.386 . S
C586 C588 1.391 . S
C587 C586 1.386 . S
C587 C591 1.393 . S
C588 H577 0.950 . S
C588 C586 1.391 . S
C588 C589 1.400 . S
C589 C583 1.491 . S
C589 C588 1.400 . S
C589 C590 1.398 . S
C590 H578 0.950 . S
C590 C589 1.398 . S
C590 C591 1.391 . S
C591 H579 0.950 1_556 S
C591 C587 1.393 . S
C591 C590 1.391 . S
H592 C600 0.950 . S
H593 C605 0.950 . S
H594 C602 0.950 . S
H595 C604 0.950 . S
H596 C606 0.950 . S
H597 C608 0.950 . S
H598 C610 0.950 . S
H599 C611 0.950 . S
C600 H592 0.950 . S
C600 C601 1.386 . S
C600 C602 1.391 . S
C601 C600 1.386 . S
C601 C605 1.393 . S
C602 H594 0.950 . S
C602 C600 1.391 . S
C602 C603 1.400 . S
C603 C602 1.400 . S
C603 C604 1.398 . S
C603 C609 1.491 . S
C604 H595 0.950 . S
C604 C603 1.398 . S
C604 C605 1.391 . S
C605 H593 0.950 . S
C605 C601 1.393 . S
C605 C604 1.391 . S
C606 H596 0.950 . S
C606 C607 1.386 . S
C606 C608 1.391 . S
C607 C606 1.386 . S
C607 C611 1.393 . S
C608 H597 0.950 . S
C608 C606 1.391 . S
C608 C609 1.400 . S
C609 C603 1.491 . S
C609 C608 1.400 . S
C609 C610 1.398 . S
C610 H598 0.950 . S
C610 C609 1.398 . S
C610 C611 1.391 . S
C611 H599 0.950 . S
C611 C607 1.393 . S
C611 C610 1.391 . S
H612 C620 0.950 . S
H613 C625 0.950 . S
H614 C622 0.950 . S
H615 C624 0.950 . S
H616 C626 0.950 . S
H617 C628 0.950 . S
H618 C630 0.950 . S
H619 C631 0.950 1_655 S
C620 H612 0.950 . S
C620 C621 1.386 . S
C620 C622 1.391 . S
C621 C620 1.386 . S
C621 C625 1.393 . S
C622 H614 0.950 . S
C622 C620 1.391 . S
C622 C623 1.400 . S
C623 C622 1.400 . S
C623 C624 1.398 . S
C623 C629 1.491 . S
C624 H615 0.950 . S
C624 C623 1.398 . S
C624 C625 1.391 . S
C625 H613 0.950 . S
C625 C621 1.393 . S
C625 C624 1.391 . S
C626 H616 0.950 . S
C626 C627 1.386 . S
C626 C628 1.391 . S
C627 C626 1.386 . S
C627 C631 1.393 . S
C628 H617 0.950 . S
C628 C626 1.391 . S
C628 C629 1.400 . S
C629 C623 1.491 . S
C629 C628 1.400 . S
C629 C630 1.398 . S
C630 H618 0.950 . S
C630 C629 1.398 . S
C630 C631 1.391 . S
C631 H619 0.950 1_455 S
C631 C627 1.393 . S
C631 C630 1.391 . S
H632 C640 0.950 . S
H633 C645 0.950 . S
H634 C642 0.950 . S
H635 C644 0.950 . S
H636 C646 0.950 . S
H637 C648 0.950 . S
H638 C650 0.950 . S
H639 C651 0.950 . S
C640 H632 0.950 . S
C640 C641 1.386 . S
C640 C642 1.391 . S
C641 C640 1.386 . S
C641 C645 1.393 . S
C642 H634 0.950 . S
C642 C640 1.391 . S
C642 C643 1.400 . S
C643 C642 1.400 . S
C643 C644 1.398 . S
C643 C649 1.491 . S
C644 H635 0.950 . S
C644 C643 1.398 . S
C644 C645 1.391 . S
C645 H633 0.950 . S
C645 C641 1.393 . S
C645 C644 1.391 . S
C646 H636 0.950 . S
C646 C647 1.386 . S
C646 C648 1.391 . S
C647 C646 1.386 . S
C647 C651 1.393 . S
C648 H637 0.950 . S
C648 C646 1.391 . S
C648 C649 1.400 . S
C649 C643 1.491 . S
C649 C648 1.400 . S
C649 C650 1.398 . S
C650 H638 0.950 . S
C650 C649 1.398 . S
C650 C651 1.391 . S
C651 H639 0.950 . S
C651 C647 1.393 . S
C651 C650 1.391 . S
C181 C4 1.759 . S
C187 C104 1.716 . S
C201 C16 1.758 . S
C207 C126 1.716 1_565 S
C227 C145 0.936 . S
C221 C32 1.072 . S
C241 C43 1.600 . S
C247 C166 1.308 . S
C267 C123 2.124 . S
C261 C5 2.197 . S
C287 C101 1.383 1_565 S
C281 C21 1.453 . S
C307 C168 1.154 . S
C301 C27 1.200 . S
C327 C147 1.275 . S
C321 C37 1.343 . S
C341 C10 1.704 . S
C347 C165 1.666 . S
C367 C124 1.401 1_556 S
C361 C26 1.667 . S
C381 C38 1.433 . S
C387 C106 1.236 . S
C401 C15 1.622 . S
C407 C144 1.584 . S
C427 C102 1.800 1_565 S
C421 C48 1.903 . S
C441 C59 1.440 . S
C447 C122 1.393 . S
C461 C76 1.375 . S
C467 C148 1.182 . S
C481 C87 1.349 . S
C487 C169 1.107 . S
C501 C54 1.549 . S
C507 C125 1.505 1_556 S
C527 C105 2.067 . S
C521 C60 2.113 . S
C547 C164 1.085 . S
C541 C71 1.150 . S
C567 C143 1.326 . S
C561 C82 1.369 . S
C581 C49 1.796 . S
C587 C167 1.743 . S
C607 C127 1.012 . S
C601 C70 1.217 . S
C627 C103 1.326 . S
C621 C81 1.537 . S
C641 C65 1.475 . S
C647 C146 1.436 . S
