# Generated by pormake.
# Topology pyr, (3,6)-cn, num edge types: 1
# Building blocks:
#     Node 0, Type 0, BuildingBlock: BELTOD_clean_linker_0, # of connection points: 3
#     Node 1, Type 0, BuildingBlock: BELTOD_clean_linker_0, # of connection points: 3
#     Node 2, Type 0, BuildingBlock: BELTOD_clean_linker_0, # of connection points: 3
#     Node 3, Type 0, BuildingBlock: BELTOD_clean_linker_0, # of connection points: 3
#     Node 4, Type 0, BuildingBlock: BELTOD_clean_linker_0, # of connection points: 3
#     Node 5, Type 0, BuildingBlock: BELTOD_clean_linker_0, # of connection points: 3
#     Node 6, Type 0, BuildingBlock: BELTOD_clean_linker_0, # of connection points: 3
#     Node 7, Type 0, BuildingBlock: BELTOD_clean_linker_0, # of connection points: 3
#     Node 8, Type 1, BuildingBlock: BETDIP_clean_sbu_0, # of connection points: 6
#     Node 9, Type 1, BuildingBlock: BETDIP_clean_sbu_0, # of connection points: 6
#     Node 10, Type 1, BuildingBlock: BETDIP_clean_sbu_0, # of connection points: 6
#     Node 11, Type 1, BuildingBlock: BETDIP_clean_sbu_0, # of connection points: 6
#     Edge 12, Type (0, 1), BuildingBlock: TEMPAE_clean_linker_10, # of connection points: 2
#     Edge 13, Type (0, 1), BuildingBlock: TEMPAE_clean_linker_10, # of connection points: 2
#     Edge 14, Type (0, 1), BuildingBlock: TEMPAE_clean_linker_10, # of connection points: 2
#     Edge 15, Type (0, 1), BuildingBlock: TEMPAE_clean_linker_10, # of connection points: 2
#     Edge 16, Type (0, 1), BuildingBlock: TEMPAE_clean_linker_10, # of connection points: 2
#     Edge 17, Type (0, 1), BuildingBlock: TEMPAE_clean_linker_10, # of connection points: 2
#     Edge 18, Type (0, 1), BuildingBlock: TEMPAE_clean_linker_10, # of connection points: 2
#     Edge 19, Type (0, 1), BuildingBlock: TEMPAE_clean_linker_10, # of connection points: 2
#     Edge 20, Type (0, 1), BuildingBlock: TEMPAE_clean_linker_10, # of connection points: 2
#     Edge 21, Type (0, 1), BuildingBlock: TEMPAE_clean_linker_10, # of connection points: 2
#     Edge 22, Type (0, 1), BuildingBlock: TEMPAE_clean_linker_10, # of connection points: 2
#     Edge 23, Type (0, 1), BuildingBlock: TEMPAE_clean_linker_10, # of connection points: 2
#     Edge 24, Type (0, 1), BuildingBlock: TEMPAE_clean_linker_10, # of connection points: 2
#     Edge 25, Type (0, 1), BuildingBlock: TEMPAE_clean_linker_10, # of connection points: 2
#     Edge 26, Type (0, 1), BuildingBlock: TEMPAE_clean_linker_10, # of connection points: 2
#     Edge 27, Type (0, 1), BuildingBlock: TEMPAE_clean_linker_10, # of connection points: 2
#     Edge 28, Type (0, 1), BuildingBlock: TEMPAE_clean_linker_10, # of connection points: 2
#     Edge 29, Type (0, 1), BuildingBlock: TEMPAE_clean_linker_10, # of connection points: 2
#     Edge 30, Type (0, 1), BuildingBlock: TEMPAE_clean_linker_10, # of connection points: 2
#     Edge 31, Type (0, 1), BuildingBlock: TEMPAE_clean_linker_10, # of connection points: 2
#     Edge 32, Type (0, 1), BuildingBlock: TEMPAE_clean_linker_10, # of connection points: 2
#     Edge 33, Type (0, 1), BuildingBlock: TEMPAE_clean_linker_10, # of connection points: 2
#     Edge 34, Type (0, 1), BuildingBlock: TEMPAE_clean_linker_10, # of connection points: 2
#     Edge 35, Type (0, 1), BuildingBlock: TEMPAE_clean_linker_10, # of connection points: 2
# Relax obj value: 0.128
# Max RMSD: 0.191
# Mean RMSD: 0.088
data_MOF--net-pyr--node1-BETDIP_clean_sbu_0--node2-BELTOD_clean_linker_0--edge1-TEMPAE_clean_linker_10
_symmetry_space_group_name_H-M    P1
_symmetry_Int_Tables_number       1
_symmetry_cell_setting            triclinic
loop_
_symmetry_equiv_pos_as_xyz
'x, y, z'
_cell_length_a     40.337466
_cell_length_b     46.166187
_cell_length_c     45.480905
_cell_angle_alpha  88.379199
_cell_angle_beta   93.270888
_cell_angle_gamma 102.73909
loop_
_atom_site_label
_atom_site_type_symbol
_atom_site_fract_x
_atom_site_fract_y
_atom_site_fract_z
_atom_type_partial_charge
P0 P 0.38685 0.28398 0.22987 0.0
H1 H 0.45354 0.26861 0.23091 0.0
H2 H 0.47434 0.23044 0.20563 0.0
H3 H 0.37634 0.20348 0.15927 0.0
H4 H 0.35558 0.24136 0.18482 0.0
H5 H 0.3383 0.31835 0.24515 0.0
H6 H 0.29988 0.34318 0.21569 0.0
H7 H 0.34185 0.32098 0.13621 0.0
H8 H 0.38065 0.29652 0.16585 0.0
H9 H 0.40088 0.26504 0.29035 0.0
H10 H 0.31597 0.25157 0.22646 0.0
O11 O 0.41855 0.30782 0.24724 0.0
H12 H 0.36626 0.23137 0.32492 0.0
H13 H 0.28094 0.21867 0.26105 0.0
C14 C 0.40338 0.2584 0.20899 0.0
C15 C 0.43672 0.2548 0.21496 0.0
C16 C 0.44848 0.23285 0.20074 0.0
C17 C 0.427 0.21422 0.18037 0.0
C18 C 0.39358 0.21789 0.17451 0.0
C19 C 0.38176 0.23956 0.189 0.0
C20 C 0.36151 0.30476 0.20767 0.0
C21 C 0.33942 0.31902 0.22139 0.0
C22 C 0.31762 0.33333 0.20455 0.0
C23 C 0.31767 0.33373 0.17364 0.0
C24 C 0.34093 0.32056 0.15998 0.0
C25 C 0.36301 0.30649 0.17691 0.0
C26 C 0.36067 0.26141 0.25623 0.0
C27 C 0.3746 0.25525 0.28399 0.0
C28 C 0.35479 0.23601 0.3037 0.0
C29 C 0.32078 0.22242 0.29578 0.0
C30 C 0.3071 0.22853 0.26775 0.0
C31 C 0.32697 0.24765 0.24809 0.0
P32 P 0.20234 0.77398 0.68497 0.0
H33 H 0.26928 0.78836 0.71498 0.0
H34 H 0.28805 0.79786 0.76629 0.0
H35 H 0.18356 0.77315 0.79118 0.0
H36 H 0.16491 0.76413 0.73932 0.0
H37 H 0.21101 0.75272 0.62716 0.0
H38 H 0.22644 0.70766 0.61193 0.0
H39 H 0.20729 0.66919 0.6988 0.0
H40 H 0.19275 0.71501 0.7141 0.0
H41 H 0.17867 0.82261 0.70897 0.0
H42 H 0.14241 0.75501 0.64413 0.0
O43 O 0.23181 0.7977 0.66674 0.0
H44 H 0.13323 0.84724 0.69332 0.0
H45 H 0.09609 0.77947 0.62843 0.0
C46 C 0.2157 0.77654 0.72336 0.0
C47 C 0.25043 0.78473 0.73149 0.0
C48 C 0.26114 0.7898 0.76094 0.0
C49 C 0.23726 0.78648 0.78284 0.0
C50 C 0.20251 0.77633 0.77476 0.0
C51 C 0.19183 0.77121 0.74519 0.0
C52 C 0.20169 0.73748 0.67191 0.0
C53 C 0.2092 0.73428 0.64269 0.0
C54 C 0.21779 0.70828 0.63395 0.0
C55 C 0.21876 0.68489 0.65432 0.0
C56 C 0.20754 0.68703 0.68277 0.0
C57 C 0.19908 0.71319 0.69152 0.0
C58 C 0.16354 0.78665 0.67814 0.0
C59 C 0.16007 0.81239 0.6921 0.0
C60 C 0.13393 0.82648 0.68311 0.0
C61 C 0.11088 0.81532 0.65964 0.0
C62 C 0.11353 0.78871 0.64649 0.0
C63 C 0.13983 0.77457 0.65558 0.0
P64 P 0.66237 0.33836 0.8205 0.0
H65 H 0.70478 0.32163 0.86927 0.0
H66 H 0.7509 0.34914 0.90119 0.0
H67 H 0.73688 0.43135 0.85992 0.0
H68 H 0.68954 0.40356 0.82892 0.0
H69 H 0.62509 0.27882 0.80261 0.0
H70 H 0.59747 0.23485 0.8302 0.0
H71 H 0.60805 0.28713 0.90883 0.0
H72 H 0.63647 0.33093 0.88103 0.0
H73 H 0.69432 0.37913 0.77519 0.0
H74 H 0.59193 0.34623 0.80173 0.0
O75 O 0.68595 0.32053 0.80177 0.0
H76 H 0.67338 0.40594 0.73376 0.0
H77 H 0.5704 0.37311 0.75975 0.0
C78 C 0.6932 0.36033 0.84672 0.0
C79 C 0.71112 0.34564 0.86743 0.0
C80 C 0.73801 0.3615 0.88547 0.0
C81 C 0.74834 0.39268 0.8831 0.0
C82 C 0.72976 0.40746 0.86273 0.0
C83 C 0.70257 0.39149 0.84477 0.0
C84 C 0.63318 0.30846 0.83953 0.0
C85 C 0.62085 0.28107 0.82565 0.0
C86 C 0.60496 0.25571 0.84165 0.0
C87 C 0.60068 0.25685 0.87217 0.0
C88 C 0.61144 0.28484 0.88564 0.0
C89 C 0.62737 0.31022 0.86957 0.0
C90 C 0.6449 0.36065 0.79197 0.0
C91 C 0.66719 0.37784 0.77227 0.0
C92 C 0.65506 0.39303 0.74821 0.0
C93 C 0.61999 0.39166 0.74281 0.0
C94 C 0.59758 0.37496 0.76305 0.0
C95 C 0.60986 0.3595 0.7872 0.0
P96 P 0.86475 0.69997 0.31313 0.0
H97 H 0.90564 0.75947 0.29772 0.0
H98 H 0.9289 0.80436 0.32602 0.0
H99 H 0.8999 0.75573 0.40635 0.0
H100 H 0.87735 0.71083 0.37788 0.0
H101 H 0.84752 0.63754 0.29258 0.0
H102 H 0.86857 0.61147 0.25424 0.0
H103 H 0.948 0.68915 0.2393 0.0
H104 H 0.9273 0.71462 0.2786 0.0
H105 H 0.79524 0.7053 0.3236 0.0
H106 H 0.8601 0.64657 0.35329 0.0
O107 O 0.84377 0.71689 0.28777 0.0
H108 H 0.75003 0.6778 0.35319 0.0
H109 H 0.81433 0.61841 0.38321 0.0
C110 C 0.88981 0.73114 0.3353 0.0
C111 C 0.90499 0.75813 0.32149 0.0
C112 C 0.91788 0.78419 0.33786 0.0
C113 C 0.91613 0.78441 0.36884 0.0
C114 C 0.90217 0.75695 0.38272 0.0
C115 C 0.88918 0.7309 0.36628 0.0
C116 C 0.88632 0.67802 0.28988 0.0
C117 C 0.87022 0.64878 0.2819 0.0
C118 C 0.88205 0.63392 0.25915 0.0
C119 C 0.91022 0.6478 0.24274 0.0
C120 C 0.92667 0.67701 0.2512 0.0
C121 C 0.91484 0.6918 0.27409 0.0
C122 C 0.83115 0.67776 0.33534 0.0
C123 C 0.79974 0.68615 0.33616 0.0
C124 C 0.77359 0.67021 0.35323 0.0
C125 C 0.77788 0.64536 0.37054 0.0
C126 C 0.80977 0.63733 0.37029 0.0
C127 C 0.83604 0.65333 0.35296 0.0
P128 P 0.70737 0.82503 0.84761 0.0
H129 H 0.6834 0.83028 0.90513 0.0
H130 H 0.63106 0.84063 0.92134 0.0
H131 H 0.58625 0.82806 0.83265 0.0
H132 H 0.63941 0.8181 0.81647 0.0
H133 H 0.7779 0.83099 0.86822 0.0
H134 H 0.80784 0.79857 0.89711 0.0
H135 H 0.71306 0.73418 0.90557 0.0
H136 H 0.68325 0.76678 0.87596 0.0
H137 H 0.69031 0.85586 0.79447 0.0
H138 H 0.73016 0.77813 0.81645 0.0
O139 O 0.72901 0.85992 0.85253 0.0
H140 H 0.70448 0.85298 0.74343 0.0
H141 H 0.74471 0.7753 0.76532 0.0
C142 C 0.66541 0.82363 0.85963 0.0
C143 C 0.66197 0.82881 0.88932 0.0
C144 C 0.63179 0.83456 0.8986 0.0
C145 C 0.60435 0.83534 0.87826 0.0
C146 C 0.60704 0.82799 0.84879 0.0
C147 C 0.63744 0.82224 0.83952 0.0
C148 C 0.72834 0.80148 0.87051 0.0
C149 C 0.76347 0.8101 0.87664 0.0
C150 C 0.78052 0.79159 0.89331 0.0
C151 C 0.76273 0.76398 0.904 0.0
C152 C 0.72742 0.75534 0.89767 0.0
C153 C 0.71036 0.77396 0.88092 0.0
C154 C 0.70922 0.81733 0.80927 0.0
C155 C 0.70106 0.83758 0.78809 0.0
C156 C 0.70908 0.83582 0.75887 0.0
C157 C 0.72583 0.81394 0.75039 0.0
C158 C 0.73197 0.79247 0.77129 0.0
C159 C 0.72361 0.7941 0.80054 0.0
P160 P 0.87509 0.29807 0.32011 0.0
H161 H 0.86725 0.35832 0.33135 0.0
H162 H 0.82284 0.37712 0.35413 0.0
H163 H 0.77157 0.28726 0.3755 0.0
H164 H 0.81591 0.26857 0.35264 0.0
H165 H 0.9289 0.27044 0.304 0.0
H166 H 0.95511 0.23229 0.32768 0.0
H167 H 0.89695 0.23404 0.40431 0.0
H168 H 0.87206 0.27304 0.38101 0.0
H169 H 0.86003 0.31089 0.25781 0.0
H170 H 0.83657 0.23677 0.31873 0.0
O171 O 0.90302 0.32629 0.30566 0.0
H172 H 0.82591 0.2806 0.21871 0.0
H173 H 0.8024 0.20665 0.27999 0.0
C174 C 0.84516 0.31204 0.3406 0.0
C175 C 0.84676 0.34266 0.3413 0.0
C176 C 0.82124 0.35339 0.35413 0.0
C177 C 0.79374 0.33364 0.36654 0.0
C178 C 0.79264 0.30301 0.36639 0.0
C179 C 0.81799 0.29232 0.35331 0.0
C180 C 0.89842 0.27448 0.34064 0.0
C181 C 0.9224 0.26306 0.32619 0.0
C182 C 0.93706 0.24101 0.33961 0.0
C183 C 0.92779 0.22979 0.36773 0.0
C184 C 0.90483 0.24228 0.3827 0.0
C185 C 0.89031 0.2645 0.36927 0.0
C186 C 0.85108 0.27595 0.29102 0.0
C187 C 0.84773 0.2881 0.26272 0.0
C188 C 0.82831 0.27081 0.24044 0.0
C189 C 0.81156 0.24133 0.2464 0.0
C190 C 0.8148 0.22939 0.27488 0.0
C191 C 0.83443 0.24655 0.29698 0.0
P192 P 0.39671 0.68504 0.19715 0.0
H193 H 0.37657 0.63217 0.15999 0.0
H194 H 0.32322 0.60742 0.1354 0.0
H195 H 0.27153 0.66711 0.17636 0.0
H196 H 0.32588 0.6927 0.20009 0.0
H197 H 0.37776 0.71244 0.1421 0.0
H198 H 0.39261 0.76221 0.12067 0.0
H199 H 0.44734 0.79416 0.20185 0.0
H200 H 0.43177 0.74383 0.22351 0.0
H201 H 0.35585 0.64506 0.24066 0.0
H202 H 0.45659 0.70058 0.23877 0.0
O203 O 0.42615 0.67271 0.17985 0.0
H204 H 0.37118 0.62324 0.28759 0.0
H205 H 0.47193 0.67958 0.28626 0.0
C206 C 0.35555 0.66457 0.18188 0.0
C207 C 0.35383 0.63998 0.1639 0.0
C208 C 0.32294 0.62556 0.14988 0.0
C209 C 0.29254 0.63505 0.15361 0.0
C210 C 0.29424 0.65929 0.17238 0.0
C211 C 0.32534 0.67385 0.18628 0.0
C212 C 0.40288 0.72403 0.18482 0.0
C213 C 0.39228 0.73015 0.15573 0.0
C214 C 0.40129 0.7588 0.14322 0.0
C215 C 0.42158 0.78257 0.15922 0.0
C216 C 0.4315 0.77666 0.18874 0.0
C217 C 0.42255 0.74772 0.20127 0.0
C218 C 0.40466 0.67524 0.23603 0.0
C219 C 0.38098 0.65343 0.25072 0.0
C220 C 0.38994 0.64077 0.27784 0.0
C221 C 0.42307 0.64923 0.2912 0.0
C222 C 0.44634 0.67188 0.27685 0.0
C223 C 0.43733 0.6845 0.24973 0.0
P224 P 0.16185 0.33882 0.72321 0.0
H225 H 0.12242 0.27897 0.73901 0.0
H226 H 0.09815 0.23422 0.71108 0.0
H227 H 0.12047 0.28383 0.63004 0.0
H228 H 0.14567 0.32788 0.65804 0.0
H229 H 0.23681 0.35465 0.73086 0.0
H230 H 0.28187 0.38262 0.70213 0.0
H231 H 0.20693 0.40344 0.63787 0.0
H232 H 0.16174 0.37774 0.66893 0.0
H233 H 0.10229 0.32206 0.76108 0.0
H234 H 0.17705 0.40157 0.74288 0.0
O235 O 0.18321 0.32111 0.74754 0.0
H236 H 0.08275 0.34676 0.80156 0.0
H237 H 0.1572 0.42678 0.78267 0.0
C238 C 0.13602 0.30767 0.70119 0.0
C239 C 0.12154 0.28055 0.7152 0.0
C240 C 0.10755 0.25459 0.69894 0.0
C241 C 0.1073 0.25457 0.66781 0.0
C242 C 0.12061 0.28212 0.65382 0.0
C243 C 0.13479 0.30799 0.67013 0.0
C244 C 0.19527 0.36269 0.70177 0.0
C245 C 0.22976 0.36524 0.71066 0.0
C246 C 0.25599 0.38119 0.69364 0.0
C247 C 0.24902 0.39488 0.66648 0.0
C248 C 0.21423 0.39341 0.6583 0.0
C249 C 0.18791 0.37812 0.67596 0.0
C250 C 0.14069 0.35986 0.74774 0.0
C251 C 0.11386 0.34519 0.765 0.0
C252 C 0.10271 0.35953 0.78857 0.0
C253 C 0.1182 0.38918 0.79624 0.0
C254 C 0.1446 0.40396 0.77837 0.0
C255 C 0.15572 0.38956 0.75488 0.0
Tb256 Tb 0.97024 1.01348 0.52696 0.0
Tb257 Tb 0.04469 0.02688 0.51277 0.0
C258 C 0.90957 0.9932 0.53949 0.0
C259 C 0.88836 0.96688 0.55294 0.0
C260 C 0.90021 0.94079 0.55882 0.0
C261 C 0.8811 0.91768 0.57547 0.0
C262 C 0.85015 0.92065 0.58647 0.0
C263 C 0.8377 0.94618 0.5791 0.0
C264 C 0.85668 0.9691 0.56251 0.0
C265 C 1.00798 0.06462 0.54812 0.0
C266 C 0.02104 0.97919 0.56112 0.0
C267 C 0.10537 0.05461 0.50981 0.0
C268 C 0.12754 0.06905 0.48637 0.0
C269 C 0.13499 0.10016 0.48358 0.0
C270 C 0.1553 0.11442 0.46138 0.0
C271 C 0.16897 0.09792 0.44163 0.0
C272 C 0.16211 0.06682 0.44468 0.0
C273 C 0.14149 0.05247 0.46682 0.0
C274 C 0.01117 0.98012 0.48044 0.0
C275 C 0.99146 0.05425 0.47287 0.0
O276 O 0.92117 0.9901 0.5137 0.0
O277 O 0.9325 1.00929 0.55736 0.0
O278 O 0.01679 0.03988 0.54729 0.0
O279 O 0.97702 0.06068 0.53724 0.0
O280 O 0.98927 0.9788 0.55183 0.0
O281 O 0.04692 0.99956 0.55194 0.0
O282 O 0.0803 0.06721 0.51522 0.0
O283 O 0.09613 0.02551 0.51014 0.0
O284 O 0.99965 0.99529 0.49854 0.0
O285 O 0.04326 0.99245 0.4794 0.0
O286 O 0.02357 0.05619 0.48209 0.0
O287 O 0.96614 0.03526 0.48468 0.0
H288 H 0.92464 0.93878 0.55145 0.0
H289 H 0.89126 0.89824 0.58097 0.0
H290 H 0.81374 0.94883 0.58704 0.0
H291 H 0.84719 0.98908 0.55809 0.0
H292 H 0.125 0.11355 0.49858 0.0
H293 H 0.16066 0.13845 0.45988 0.0
H294 H 0.17229 0.05358 0.42969 0.0
H295 H 0.13641 0.02847 0.46849 0.0
Tb296 Tb 0.54126 0.03111 0.02474 0.0
Tb297 Tb 0.46373 0.01561 1.01009 0.0
C298 C 0.60128 0.06099 0.02608 0.0
C299 C 0.6258 0.07705 0.04825 0.0
C300 C 0.64681 0.10418 0.04021 0.0
C301 C 0.66819 0.12141 0.06133 0.0
C302 C 0.669 0.11167 0.09085 0.0
C303 C 0.6485 0.08411 0.09877 0.0
C304 C 0.62683 0.06699 0.07764 0.0
C305 C 0.51175 0.9839 0.05736 0.0
C306 C 0.49052 0.05524 0.06417 0.0
C307 C 0.40293 0.99188 0.99605 0.0
C308 C 0.38625 0.96544 0.9792 0.0
C309 C 0.35434 0.94883 0.98681 0.0
C310 C 0.33747 0.92482 0.96959 0.0
C311 C 0.35239 0.91711 0.94456 0.0
C312 C 0.38496 0.93318 0.93777 0.0
C313 C 0.40157 0.95721 0.95476 0.0
C314 C 0.49845 0.06681 0.98818 0.0
C315 C 0.51321 0.98377 0.97688 0.0
O316 O 0.57461 0.07238 0.02012 0.0
O317 O 0.59351 0.03188 0.02829 0.0
O318 O 0.4984 0.9994 0.03887 0.0
O319 O 0.54406 0.9961 0.0587 0.0
O320 O 0.52176 0.05854 0.05496 0.0
O321 O 0.46406 0.03622 0.05224 0.0
O322 O 0.41783 0.98709 0.02151 0.0
O323 O 0.4215 1.01335 0.98083 0.0
O324 O 0.50775 0.04232 0.99015 0.0
O325 O 0.46824 0.06269 0.99806 0.0
O326 O 0.48201 0.98298 0.98502 0.0
O327 O 0.53986 1.00387 0.98669 0.0
H328 H 0.64612 0.11236 0.01765 0.0
H329 H 0.68394 0.14247 0.05465 0.0
H330 H 0.64846 0.07627 0.12145 0.0
H331 H 0.61041 0.04627 0.08436 0.0
H332 H 0.34213 0.95487 1.00561 0.0
H333 H 0.31229 0.91301 0.97525 0.0
H334 H 0.39741 0.92753 0.91894 0.0
H335 H 0.42608 0.9698 0.94832 0.0
Tb336 Tb 0.51661 0.54745 0.53364 0.0
Tb337 Tb 0.51419 0.48757 0.50521 0.0
C338 C 0.50015 0.59379 0.54928 0.0
C339 C 0.46999 0.59941 0.56288 0.0
C340 C 0.45413 0.62132 0.55052 0.0
C341 C 0.42411 0.62572 0.56159 0.0
C342 C 0.40941 0.60837 0.58541 0.0
C343 C 0.4254 0.5864 0.59781 0.0
C344 C 0.45542 0.58193 0.58661 0.0
C345 C 0.54768 0.51076 0.56508 0.0
C346 C 0.45186 0.49272 0.54315 0.0
C347 C 0.52956 0.43847 0.49869 0.0
C348 C 0.55131 0.42699 0.47923 0.0
C349 C 0.5733 0.44643 0.46104 0.0
C350 C 0.59774 0.43629 0.4461 0.0
C351 C 0.60014 0.40641 0.44876 0.0
C352 C 0.57686 0.38665 0.46575 0.0
C353 C 0.55275 0.39695 0.48106 0.0
C354 C 0.49189 0.52387 0.46535 0.0
C355 C 0.57574 0.54397 0.49243 0.0
O356 O 0.49458 0.58358 0.52251 0.0
O357 O 0.51995 0.58007 0.56553 0.0
O358 O 0.52022 0.50396 0.54932 0.0
O359 O 0.55829 0.53949 0.56376 0.0
O360 O 0.46687 0.52113 0.54727 0.0
O361 O 0.4659 0.47506 0.52756 0.0
O362 O 0.54609 0.45877 0.517 0.0
O363 O 0.50186 0.44518 0.48649 0.0
O364 O 0.50224 0.52861 0.49193 0.0
O365 O 0.49309 0.49651 0.46066 0.0
O366 O 0.56433 0.51457 0.49275 0.0
O367 O 0.55949 0.56175 0.50541 0.0
H368 H 0.4647 0.63473 0.53193 0.0
H369 H 0.41213 0.64246 0.55117 0.0
H370 H 0.41491 0.57286 0.61633 0.0
H371 H 0.46706 0.56468 0.59638 0.0
H372 H 0.57228 0.46963 0.45921 0.0
H373 H 0.61518 0.45188 0.4329 0.0
H374 H 0.57831 0.36355 0.46825 0.0
H375 H 0.53604 0.38168 0.49512 0.0
Tb376 Tb 0.0167 0.54321 1.00264 0.0
Tb377 Tb 0.01646 0.49131 0.04002 0.0
C378 C 1.00132 0.58523 0.97245 0.0
C379 C 0.97662 0.60422 0.9735 0.0
C380 C 0.94302 0.59258 0.98127 0.0
C381 C 0.91904 0.61034 0.97911 0.0
C382 C 0.92836 0.64007 0.96938 0.0
C383 C 0.96251 0.65199 0.96318 0.0
C384 C 0.98636 0.63415 0.96508 0.0
C385 C 0.07646 0.54376 0.03093 0.0
C386 C 0.98804 0.54206 0.06785 0.0
C387 C 0.03339 0.45002 0.07045 0.0
C388 C 0.06289 0.43606 0.07271 0.0
C389 C 0.09602 0.45301 0.06948 0.0
C390 C 0.12409 0.44019 0.07508 0.0
C391 C 0.11954 0.41011 0.08371 0.0
C392 C 0.0862 0.3929 0.08535 0.0
C393 C 0.05815 0.40582 0.08003 0.0
C394 C 0.95659 0.49019 1.01164 0.0
C395 C 0.04468 0.4928 0.97454 0.0
O396 O 0.98867 0.55718 0.96711 0.0
O397 O 0.0257 0.58904 0.99309 0.0
O398 O 0.04731 0.53516 0.04089 0.0
O399 O 0.07259 0.55323 1.00412 0.0
O400 O 0.98845 0.55342 0.04059 0.0
O401 O 1.00001 0.51786 0.07348 0.0
O402 O 0.03928 0.47762 0.07874 0.0
O403 O 0.01396 0.44549 0.0463 0.0
O404 O 0.98576 0.49923 1.00181 0.0
O405 O 0.96062 0.47995 0.03813 0.0
O406 O 0.04576 0.48221 1.00209 0.0
O407 O 0.03151 0.5163 0.96884 0.0
H408 H 0.93501 0.56953 0.98811 0.0
H409 H 0.89295 0.60043 0.98389 0.0
H410 H 0.97068 0.67498 0.95625 0.0
H411 H 0.01226 0.64357 0.95929 0.0
H412 H 0.10028 0.47641 0.06363 0.0
H413 H 0.14934 0.4542 0.07386 0.0
H414 H 0.08176 0.36954 0.09133 0.0
H415 H 0.03277 0.39236 0.08239 0.0
C416 C 0.27738 0.17594 0.30662 0.0
C417 C 0.29953 0.20206 0.31667 0.0
C418 C 0.25615 0.15715 0.3259 0.0
C419 C 0.25725 0.16459 0.35595 0.0
C420 C 0.28004 0.19057 0.36636 0.0
C421 C 0.30084 0.20903 0.34658 0.0
C422 C 0.23217 0.12962 0.31401 0.0
C423 C 0.28194 0.19922 0.39829 0.0
C424 C 0.18053 0.13629 0.40147 0.0
C425 C 0.19058 0.11342 0.41819 0.0
C426 C 0.20162 0.15258 0.38056 0.0
C427 C 0.23363 0.14593 0.37639 0.0
C428 C 0.24355 0.12233 0.39262 0.0
C429 C 0.22181 0.10627 0.41331 0.0
C430 C 0.18997 0.17735 0.36341 0.0
C431 C 0.27753 0.11467 0.3888 0.0
H432 H 0.27664 0.17015 0.28363 0.0
H433 H 0.31759 0.22933 0.35444 0.0
H434 H 0.23653 0.10968 0.32649 0.0
H435 H 0.20546 0.13105 0.31695 0.0
H436 H 0.23523 0.12648 0.29027 0.0
H437 H 0.30212 0.21938 0.40312 0.0
H438 H 0.25715 0.20354 0.40413 0.0
H439 H 0.28701 0.18073 0.41271 0.0
H440 H 0.15615 0.14155 0.4049 0.0
H441 H 0.22974 0.08873 0.42635 0.0
H442 H 0.19088 0.17408 0.33942 0.0
H443 H 0.20739 0.19891 0.36882 0.0
H444 H 0.16368 0.17872 0.36826 0.0
H445 H 0.28057 0.11074 0.36525 0.0
H446 H 0.28059 0.09464 0.40187 0.0
H447 H 0.29833 0.1336 0.39579 0.0
C448 C 0.27936 0.79227 0.82614 0.0
C449 C 0.2486 0.79699 0.81308 0.0
C450 C 0.29424 0.80769 0.85141 0.0
C451 C 0.27784 0.82816 0.8639 0.0
C452 C 0.24524 0.83083 0.85249 0.0
C453 C 0.23103 0.81526 0.82713 0.0
C454 C 0.32892 0.80406 0.86304 0.0
C455 C 0.22678 0.85224 0.86533 0.0
C456 C 0.31405 0.86694 0.9352 0.0
C457 C 0.33339 0.89378 0.92435 0.0
C458 C 0.29584 0.84512 0.91587 0.0
C459 C 0.29712 0.85037 0.8851 0.0
C460 C 0.31664 0.8774 0.8741 0.0
C461 C 0.33435 0.89876 0.89383 0.0
C462 C 0.27521 0.81657 0.92829 0.0
C463 C 0.31865 0.88393 0.84141 0.0
H464 H 0.2927 0.77769 0.81571 0.0
H465 H 0.20734 0.81916 0.81714 0.0
H466 H 0.34842 0.82377 0.85646 0.0
H467 H 0.33019 0.80263 0.88744 0.0
H468 H 0.33555 0.78395 0.85427 0.0
H469 H 0.19961 0.84799 0.85737 0.0
H470 H 0.22813 0.85082 0.88974 0.0
H471 H 0.23915 0.87528 0.85886 0.0
H472 H 0.3134 0.8629 0.95877 0.0
H473 H 0.34861 0.91969 0.88528 0.0
H474 H 0.28403 0.79734 0.91999 0.0
H475 H 0.24807 0.8139 0.92078 0.0
H476 H 0.27704 0.81584 0.95275 0.0
H477 H 0.32838 0.86646 0.83058 0.0
H478 H 0.3355 0.90582 0.83652 0.0
H479 H 0.29288 0.88373 0.83138 0.0
C480 C 0.62273 0.40782 0.68882 0.0
C481 C 0.6074 0.4073 0.71598 0.0
C482 C 0.61249 0.42325 0.66379 0.0
C483 C 0.58618 0.43902 0.66548 0.0
C484 C 0.57018 0.43824 0.69265 0.0
C485 C 0.58078 0.42239 0.71734 0.0
C486 C 0.63018 0.42291 0.63549 0.0
C487 C 0.54224 0.45474 0.69585 0.0
C488 C 0.5845 0.50392 0.61054 0.0
C489 C 0.55832 0.49172 0.58978 0.0
C490 C 0.5936 0.48719 0.63506 0.0
C491 C 0.5764 0.45714 0.63923 0.0
C492 C 0.55021 0.44454 0.61808 0.0
C493 C 0.54144 0.46191 0.59383 0.0
C494 C 0.62154 0.50188 0.65676 0.0
C495 C 0.53125 0.41267 0.62116 0.0
H496 H 0.64284 0.39591 0.687 0.0
H497 H 0.56874 0.42253 0.73801 0.0
H498 H 0.61122 0.41471 0.61729 0.0
H499 H 0.64339 0.44582 0.62941 0.0
H500 H 0.64915 0.4087 0.63723 0.0
H501 H 0.5315 0.45129 0.71796 0.0
H502 H 0.55228 0.47887 0.69219 0.0
H503 H 0.5214 0.44741 0.67891 0.0
H504 H 0.59773 0.52689 0.60786 0.0
H505 H 0.52109 0.45216 0.57813 0.0
H506 H 0.64237 0.48964 0.65805 0.0
H507 H 0.61156 0.50111 0.67907 0.0
H508 H 0.63232 0.52541 0.65069 0.0
H509 H 0.54943 0.39776 0.62198 0.0
H510 H 0.51209 0.40586 0.6027 0.0
H511 H 0.51809 0.40943 0.64215 0.0
C512 C 0.95577 0.63823 0.20871 0.0
C513 C 0.92154 0.63232 0.21669 0.0
C514 C 0.96639 0.62413 0.18453 0.0
C515 C 0.94257 0.60313 0.16724 0.0
C516 C 0.90804 0.59707 0.17507 0.0
C517 C 0.89807 0.61156 0.19925 0.0
C518 C 1.00345 0.63169 0.17755 0.0
C519 C 0.88133 0.57508 0.15777 0.0
C520 C 0.9644 0.58426 0.08858 0.0
C521 C 0.97525 0.55733 0.09295 0.0
C522 C 0.95382 0.59919 0.11218 0.0
C523 C 0.95374 0.58728 0.14144 0.0
C524 C 0.96441 0.56001 0.1459 0.0
C525 C 0.97494 0.54561 0.12196 0.0
C526 C 0.94291 0.62804 0.10577 0.0
C527 C 0.96485 0.54595 0.17623 0.0
H528 H 0.9747 0.65368 0.22168 0.0
H529 H 0.87145 0.6068 0.20413 0.0
H530 H 0.01402 0.61144 0.17956 0.0
H531 H 1.0061 0.6399 0.15445 0.0
H532 H 0.01888 0.64884 0.19237 0.0
H533 H 0.85562 0.57249 0.16642 0.0
H534 H 0.88028 0.58236 0.13434 0.0
H535 H 0.88816 0.55306 0.15838 0.0
H536 H 0.96445 0.59394 0.06659 0.0
H537 H 0.98319 0.525 0.12613 0.0
H538 H 0.95958 0.64608 0.11877 0.0
H539 H 0.91654 0.62619 0.11259 0.0
H540 H 0.94395 0.63443 0.08205 0.0
H541 H 0.98211 0.56136 0.19155 0.0
H542 H 0.97336 0.52465 0.17631 0.0
H543 H 0.93903 0.54175 0.1849 0.0
C544 C 0.45506 0.17094 0.18196 0.0
C545 C 0.43904 0.19062 0.16556 0.0
C546 C 0.46519 0.14767 0.16825 0.0
C547 C 0.45949 0.14434 0.13741 0.0
C548 C 0.44389 0.16453 0.12071 0.0
C549 C 0.43366 0.18732 0.13503 0.0
C550 C 0.48141 0.12636 0.18676 0.0
C551 C 0.4378 0.16195 0.08771 0.0
C552 C 0.50906 0.10175 0.09309 0.0
C553 C 0.4844 0.07584 0.08655 0.0
C554 C 0.50182 0.12375 0.11075 0.0
C555 C 0.46929 0.11958 0.12239 0.0
C556 C 0.44504 0.09269 0.11739 0.0
C557 C 0.45282 0.07119 0.09938 0.0
C558 C 0.52829 0.15219 0.11546 0.0
C559 C 0.41026 0.08724 0.12986 0.0
H560 H 0.45891 0.17333 0.20563 0.0
H561 H 0.42157 0.20274 0.12233 0.0
H562 H 0.46547 0.10354 0.18485 0.0
H563 H 0.50668 0.12587 0.17862 0.0
H564 H 0.48468 0.13239 0.21039 0.0
H565 H 0.42628 0.17998 0.07789 0.0
H566 H 0.46217 0.16267 0.07726 0.0
H567 H 0.42061 0.14029 0.08226 0.0
H568 H 0.53355 0.10557 0.08328 0.0
H569 H 0.43374 0.05111 0.09468 0.0
H570 H 0.53157 0.15781 0.13915 0.0
H571 H 0.51968 0.17073 0.10352 0.0
H572 H 0.55339 0.15075 0.10747 0.0
H573 H 0.41255 0.09206 0.15374 0.0
H574 H 0.39579 0.06402 0.12668 0.0
H575 H 0.39539 0.10243 0.1189 0.0
C576 C 0.0717 0.85004 0.66499 0.0
C577 C 0.08749 0.83367 0.64676 0.0
C578 C 0.05557 0.8721 0.65321 0.0
C579 C 0.05507 0.87778 0.62247 0.0
C580 C 0.06847 0.85969 0.60377 0.0
C581 C 0.08461 0.83792 0.61614 0.0
C582 C 0.04125 0.89071 0.67385 0.0
C583 C 0.0681 0.86483 0.57082 0.0
C584 C 1.00313 0.92869 0.5844 0.0
C585 C 0.02828 0.95463 0.5803 0.0
C586 C 0.01102 0.90374 0.59918 0.0
C587 C 0.04481 0.90486 0.61015 0.0
C588 C 0.06984 0.9315 0.60743 0.0
C589 C 0.06129 0.95602 0.59251 0.0
C590 C 0.9836 0.87578 0.60171 0.0
C591 C 0.10612 0.93373 0.61913 0.0
H592 H 0.07328 0.84649 0.68865 0.0
H593 H 0.09694 0.82561 0.60186 0.0
H594 H 0.05822 0.91314 0.67534 0.0
H595 H 0.01583 0.89359 0.66537 0.0
H596 H 0.03901 0.88074 0.69637 0.0
H597 H 0.07571 0.84669 0.55914 0.0
H598 H 0.0424 0.86672 0.56212 0.0
H599 H 0.08602 0.88605 0.56564 0.0
H600 H 0.97755 0.92737 0.57504 0.0
H601 H 0.08082 0.97604 0.58971 0.0
H602 H 0.98392 0.86632 0.62439 0.0
H603 H 0.98847 0.85887 0.58665 0.0
H604 H 0.95784 0.87979 0.5959 0.0
H605 H 0.10668 0.92678 0.64267 0.0
H606 H 0.1219 0.9566 0.61702 0.0
H607 H 0.11792 0.9185 0.60686 0.0
C608 C 0.80722 0.39668 0.90761 0.0
C609 C 0.77881 0.40929 0.90124 0.0
C610 C 0.83566 0.4114 0.92505 0.0
C611 C 0.83634 0.43981 0.93644 0.0
C612 C 0.80812 0.453 0.92972 0.0
C613 C 0.77981 0.43764 0.91237 0.0
C614 C 0.86497 0.39633 0.93151 0.0
C615 C 0.80767 0.48326 0.94117 0.0
C616 C 0.89556 0.46253 1.00477 0.0
C617 C 0.92483 0.47991 0.99266 0.0
C618 C 0.86644 0.45005 0.9869 0.0
C619 C 0.86619 0.45515 0.95598 0.0
C620 C 0.89526 0.47361 0.94375 0.0
C621 C 0.92417 0.48565 0.96216 0.0
C622 C 0.83629 0.43054 1.00105 0.0
C623 C 0.89621 0.47999 0.91106 0.0
H624 H 0.80745 0.37521 0.89873 0.0
H625 H 0.75814 0.4477 0.90799 0.0
H626 H 0.88881 0.41055 0.92366 0.0
H627 H 0.8688 0.39318 0.95564 0.0
H628 H 0.86076 0.37434 0.92091 0.0
H629 H 0.78466 0.49113 0.93297 0.0
H630 H 0.80846 0.48255 0.9656 0.0
H631 H 0.83059 0.49968 0.93451 0.0
H632 H 0.89571 0.45796 0.02828 0.0
H633 H 0.94659 0.49904 0.95254 0.0
H634 H 0.83237 0.40755 0.99287 0.0
H635 H 0.81282 0.43856 0.9949 0.0
H636 H 0.83969 0.4299 0.02546 0.0
H637 H 0.89533 0.45915 0.89919 0.0
H638 H 0.9195 0.49647 0.90521 0.0
H639 H 0.87357 0.48849 0.90311 0.0
C640 C 0.75535 0.61743 0.41719 0.0
C641 C 0.74916 0.6284 0.38867 0.0
C642 C 0.7284 0.6029 0.43471 0.0
C643 C 0.69404 0.59882 0.42365 0.0
C644 C 0.68768 0.60931 0.39469 0.0
C645 C 0.71503 0.62385 0.37774 0.0
C646 C 0.73673 0.59238 0.46539 0.0
C647 C 0.65177 0.60538 0.38157 0.0
C648 C 0.62307 0.54031 0.45882 0.0
C649 C 0.60712 0.55765 0.47597 0.0
C650 C 0.65138 0.55321 0.4421 0.0
C651 C 0.6647 0.58438 0.44245 0.0
C652 C 0.64913 0.60192 0.46016 0.0
C653 C 0.62071 0.58849 0.47646 0.0
C654 C 0.66666 0.53341 0.42357 0.0
C655 C 0.66227 0.63511 0.46164 0.0
H656 H 0.78134 0.62088 0.42623 0.0
H657 H 0.70957 0.63159 0.35566 0.0
H658 H 0.7253 0.60411 0.48174 0.0
H659 H 0.72552 0.5683 0.46798 0.0
H660 H 0.76459 0.59628 0.47058 0.0
H661 H 0.65093 0.61392 0.35852 0.0
H662 H 0.63888 0.58152 0.38192 0.0
H663 H 0.637 0.61722 0.395 0.0
H664 H 0.61314 0.51656 0.45803 0.0
H665 H 0.60898 0.60236 0.48952 0.0
H666 H 0.69425 0.53636 0.42947 0.0
H667 H 0.66409 0.53978 0.39998 0.0
H668 H 0.65428 0.50956 0.42631 0.0
H669 H 0.68977 0.64031 0.46844 0.0
H670 H 0.64849 0.64558 0.47732 0.0
H671 H 0.65958 0.64531 0.4395 0.0
C672 C 0.27267 0.33022 0.13292 0.0
C673 C 0.29219 0.34647 0.15592 0.0
C674 C 0.24574 0.34036 0.1182 0.0
C675 C 0.2384 0.36748 0.12659 0.0
C676 C 0.25909 0.38465 0.14883 0.0
C677 C 0.28565 0.37386 0.16333 0.0
C678 C 0.22412 0.32134 0.09475 0.0
C679 C 0.25232 0.41386 0.15816 0.0
C680 C 0.17985 0.40531 0.07834 0.0
C681 C 0.1494 0.39739 0.09304 0.0
C682 C 0.20893 0.39527 0.0886 0.0
C683 C 0.20743 0.37673 0.11402 0.0
C684 C 0.17652 0.36793 0.12842 0.0
C685 C 0.14799 0.37848 0.11787 0.0
C686 C 0.24148 0.40511 0.07271 0.0
C687 C 0.17382 0.34803 0.15553 0.0
H688 H 0.27747 0.3089 0.12732 0.0
H689 H 0.30098 0.38661 0.18087 0.0
H690 H 0.19831 0.31242 0.10275 0.0
H691 H 0.22109 0.3348 0.07459 0.0
H692 H 0.23511 0.30237 0.08882 0.0
H693 H 0.27246 0.42567 0.17397 0.0
H694 H 0.25054 0.42853 0.13866 0.0
H695 H 0.22756 0.40988 0.16872 0.0
H696 H 0.18105 0.41957 0.05892 0.0
H697 H 0.12483 0.37265 0.12972 0.0
H698 H 0.2512 0.38553 0.06661 0.0
H699 H 0.26128 0.41878 0.08753 0.0
H700 H 0.238 0.41836 0.05244 0.0
H701 H 0.18236 0.32741 0.15103 0.0
H702 H 0.14744 0.34184 0.16309 0.0
H703 H 0.19075 0.35947 0.17372 0.0
C704 C 0.59841 0.22479 0.91902 0.0
C705 C 0.58627 0.22893 0.88986 0.0
C706 C 0.58575 0.1986 0.93554 0.0
C707 C 0.5602 0.17546 0.92288 0.0
C708 C 0.5479 0.17939 0.89349 0.0
C709 C 0.56089 0.20585 0.87751 0.0
C710 C 0.59975 0.19571 0.96671 0.0
C711 C 0.52069 0.15562 0.87888 0.0
C712 C 0.54485 0.09607 0.95648 0.0
C713 C 0.51581 0.09473 0.97256 0.0
C714 C 0.55976 0.12211 0.94054 0.0
C715 C 0.54549 0.14768 0.9406 0.0
C716 C 0.51653 0.14649 0.9573 0.0
C717 C 0.50214 0.12022 0.97287 0.0
C718 C 0.59053 0.12209 0.92321 0.0
C719 C 0.50039 0.17296 0.95846 0.0
H720 H 0.61836 0.24189 0.92893 0.0
H721 H 0.5507 0.20854 0.85529 0.0
H722 H 0.57892 0.19283 0.98217 0.0
H723 H 0.61068 0.17567 0.969 0.0
H724 H 0.61976 0.2154 0.97341 0.0
H725 H 0.51449 0.16145 0.85566 0.0
H726 H 0.52908 0.13427 0.87931 0.0
H727 H 0.49714 0.152 0.89123 0.0
H728 H 0.55565 0.07658 0.95597 0.0
H729 H 0.47979 0.11959 0.98524 0.0
H730 H 0.61177 0.14065 0.93025 0.0
H731 H 0.58448 0.1257 0.89947 0.0
H732 H 0.59925 0.10092 0.92596 0.0
H733 H 0.51954 0.19263 0.96647 0.0
H734 H 0.47864 0.16891 0.97308 0.0
H735 H 0.49117 0.17853 0.93602 0.0
C736 C 0.9431 0.81323 0.41501 0.0
C737 C 0.92791 0.81311 0.38626 0.0
C738 C 0.95444 0.83985 0.43118 0.0
C739 C 0.95063 0.86764 0.41876 0.0
C740 C 0.93484 0.86764 0.39001 0.0
C741 C 0.92385 0.84074 0.37429 0.0
C742 C 0.97124 0.83826 0.46149 0.0
C743 C 0.92984 0.89629 0.37555 0.0
C744 C 0.96041 0.93649 0.46886 0.0
C745 C 0.99407 0.95182 0.4646 0.0
C746 C 0.9459 0.90931 0.45427 0.0
C747 C 0.96531 0.89677 0.43482 0.0
C748 C 0.99922 0.91235 0.43054 0.0
C749 C 0.01295 0.9393 0.44529 0.0
C750 C 0.90974 0.89388 0.45978 0.0
C751 C 0.02134 0.90043 0.41037 0.0
H752 H 0.94693 0.79248 0.4248 0.0
H753 H 0.91166 0.84144 0.35252 0.0
H754 H 0.99815 0.85063 0.4615 0.0
H755 H 0.95843 0.84898 0.47768 0.0
H756 H 0.97067 0.81503 0.46893 0.0
H757 H 0.91567 0.89268 0.35382 0.0
H758 H 0.91576 0.90777 0.39001 0.0
H759 H 0.95495 0.91136 0.37235 0.0
H760 H 0.94548 0.94558 0.4838 0.0
H761 H 0.03898 0.95062 0.44171 0.0
H762 H 0.90905 0.87121 0.46887 0.0
H763 H 0.89422 0.8914 0.43869 0.0
H764 H 0.89788 0.90618 0.47536 0.0
H765 H 0.02391 0.87796 0.41801 0.0
H766 H 0.04719 0.91495 0.40934 0.0
H767 H 0.00926 0.89821 0.38777 0.0
C768 C 0.26086 0.65369 0.66801 0.0
C769 C 0.237 0.66142 0.64727 0.0
C770 C 0.28514 0.63842 0.6596 0.0
C771 C 0.28581 0.63103 0.62969 0.0
C772 C 0.2595 0.63575 0.60941 0.0
C773 C 0.23524 0.65075 0.61851 0.0
C774 C 0.31233 0.63325 0.68209 0.0
C775 C 0.25906 0.62796 0.57737 0.0
C776 C 0.37365 0.64279 0.60011 0.0
C777 C 0.37777 0.61365 0.59737 0.0
C778 C 0.34376 0.64852 0.61044 0.0
C779 C 0.31733 0.62451 0.61866 0.0
C780 C 0.32142 0.59498 0.61646 0.0
C781 C 0.35161 0.58988 0.60572 0.0
C782 C 0.34053 0.6804 0.61251 0.0
C783 C 0.29392 0.56887 0.62527 0.0
H784 H 0.26262 0.66178 0.6903 0.0
H785 H 0.21632 0.65593 0.60253 0.0
H786 H 0.31856 0.61133 0.67907 0.0
H787 H 0.3359 0.65055 0.67923 0.0
H788 H 0.30445 0.6344 0.70496 0.0
H789 H 0.23395 0.62774 0.56588 0.0
H790 H 0.27866 0.6447 0.56624 0.0
H791 H 0.26532 0.60596 0.57498 0.0
H792 H 0.39401 0.66128 0.59432 0.0
H793 H 0.35451 0.56727 0.60344 0.0
H794 H 0.33707 0.68554 0.63566 0.0
H795 H 0.31777 0.68383 0.59916 0.0
H796 H 0.3632 0.69644 0.60469 0.0
H797 H 0.28742 0.57121 0.64833 0.0
H798 H 0.30163 0.54736 0.62333 0.0
H799 H 0.27046 0.56833 0.61114 0.0
C800 C 0.77615 0.81686 0.72017 0.0
C801 C 0.74148 0.81685 0.72143 0.0
C802 C 0.79394 0.82761 0.6951 0.0
C803 C 0.77654 0.8385 0.67078 0.0
C804 C 0.74081 0.8353 0.67069 0.0
C805 C 0.72368 0.82462 0.69612 0.0
C806 C 0.83199 0.8305 0.6961 0.0
C807 C 0.72119 0.84612 0.64499 0.0
C808 C 0.82318 0.90917 0.63431 0.0
C809 C 0.83225 0.89887 0.60792 0.0
C810 C 0.80542 0.88959 0.65492 0.0
C811 C 0.79627 0.85883 0.64896 0.0
C812 C 0.80577 0.84813 0.62252 0.0
C813 C 0.82393 0.86836 0.60228 0.0
C814 C 0.79631 0.90197 0.68306 0.0
C815 C 0.79623 0.81553 0.61541 0.0
H816 H 0.79011 0.81098 0.73968 0.0
H817 H 0.69675 0.82415 0.69688 0.0
H818 H 0.84047 0.82506 0.67456 0.0
H819 H 0.84484 0.85381 0.70104 0.0
H820 H 0.84046 0.81585 0.71341 0.0
H821 H 0.69339 0.83687 0.64579 0.0
H822 H 0.72567 0.8707 0.64546 0.0
H823 H 0.72995 0.84006 0.62378 0.0
H824 H 0.83018 0.93272 0.6389 0.0
H825 H 0.83096 0.86045 0.58182 0.0
H826 H 0.80695 0.89124 0.70242 0.0
H827 H 0.76825 0.89706 0.6845 0.0
H828 H 0.80602 0.92638 0.68452 0.0
H829 H 0.80484 0.80219 0.63378 0.0
H830 H 0.80738 0.81057 0.59485 0.0
H831 H 0.76813 0.80824 0.6128 0.0
C832 C 0.80345 0.22127 0.19538 0.0
C833 C 0.7906 0.22294 0.22311 0.0
C834 C 0.78422 0.20311 0.17348 0.0
C835 C 0.75126 0.18659 0.17944 0.0
C836 C 0.73802 0.1885 0.2073 0.0
C837 C 0.75795 0.20656 0.22887 0.0
C838 C 0.79926 0.20138 0.1441 0.0
C839 C 0.70279 0.17152 0.21431 0.0
C840 C 0.68918 0.16083 0.1148 0.0
C841 C 0.69033 0.13078 0.11343 0.0
C842 C 0.70888 0.17926 0.13621 0.0
C843 C 0.73049 0.16737 0.15649 0.0
C844 C 0.73192 0.13707 0.15508 0.0
C845 C 0.7116 0.11904 0.13365 0.0
C846 C 0.70632 0.21135 0.13731 0.0
C847 C 0.75494 0.12372 0.17618 0.0
H848 H 0.82884 0.23371 0.19103 0.0
H849 H 0.74787 0.20811 0.25022 0.0
H850 H 0.80031 0.17806 0.13981 0.0
H851 H 0.78283 0.20849 0.12618 0.0
H852 H 0.82532 0.21549 0.14307 0.0
H853 H 0.69614 0.17576 0.23692 0.0
H854 H 0.68363 0.17778 0.19834 0.0
H855 H 0.70097 0.14734 0.21215 0.0
H856 H 0.67238 0.1698 0.09938 0.0
H857 H 0.71265 0.09585 0.13243 0.0
H858 H 0.7317 0.22615 0.13464 0.0
H859 H 0.69778 0.216 0.15911 0.0
H860 H 0.68827 0.21711 0.11991 0.0
H861 H 0.78169 0.13613 0.17462 0.0
H862 H 0.75358 0.09993 0.17175 0.0
H863 H 0.74787 0.12564 0.19915 0.0
C864 C 0.41065 0.62302 0.34106 0.0
C865 C 0.43369 0.6336 0.31898 0.0
C866 C 0.41982 0.60714 0.36627 0.0
C867 C 0.45299 0.60135 0.37002 0.0
C868 C 0.47659 0.61248 0.34821 0.0
C869 C 0.46675 0.62827 0.32321 0.0
C870 C 0.39364 0.59598 0.38872 0.0
C871 C 0.51216 0.60698 0.35082 0.0
C872 C 0.48639 0.57532 0.44568 0.0
C873 C 0.48092 0.54444 0.44224 0.0
C874 C 0.47716 0.59407 0.42272 0.0
C875 C 0.46219 0.58186 0.3954 0.0
C876 C 0.45651 0.55067 0.39205 0.0
C877 C 0.46589 0.53258 0.41525 0.0
C878 C 0.48391 0.62706 0.42756 0.0
C879 C 0.44078 0.53626 0.36367 0.0
H880 H 0.38522 0.62717 0.33871 0.0
H881 H 0.48491 0.63567 0.30645 0.0
H882 H 0.38762 0.57134 0.38939 0.0
H883 H 0.40395 0.60359 0.411 0.0
H884 H 0.36966 0.60366 0.38373 0.0
H885 H 0.52832 0.61872 0.33328 0.0
H886 H 0.52454 0.61431 0.37258 0.0
H887 H 0.51103 0.58282 0.3494 0.0
H888 H 0.49855 0.58495 0.46602 0.0
H889 H 0.46158 0.50883 0.41208 0.0
H890 H 0.46014 0.63517 0.42322 0.0
H891 H 0.50254 0.63882 0.41183 0.0
H892 H 0.49405 0.63308 0.45033 0.0
H893 H 0.41555 0.54165 0.35865 0.0
H894 H 0.43745 0.51173 0.36458 0.0
H895 H 0.45704 0.54516 0.34518 0.0
C896 C 0.07405 0.39723 0.83241 0.0
C897 C 0.1077 0.40421 0.82295 0.0
C898 C 0.06416 0.41092 0.8572 0.0
C899 C 0.08818 0.43254 0.87363 0.0
C900 C 0.12215 0.43965 0.86434 0.0
C901 C 0.13138 0.42558 0.83954 0.0
C902 C 0.02764 0.40232 0.86569 0.0
C903 C 0.14902 0.46233 0.8807 0.0
C904 C 0.05574 0.48906 0.92008 0.0
C905 C 0.05714 0.47768 0.94916 0.0
C906 C 0.06574 0.47486 0.89577 0.0
C907 C 0.07766 0.44817 0.8999 0.0
C908 C 0.07937 0.43661 0.92921 0.0
C909 C 0.06922 0.45133 0.95322 0.0
C910 C 0.06332 0.48851 0.8654 0.0
C911 C 0.09172 0.40838 0.93526 0.0
H912 H 0.05497 0.38126 0.82012 0.0
H913 H 0.15762 0.43118 0.83345 0.0
H914 H 0.02652 0.3943 0.88891 0.0
H915 H 0.0161 0.42205 0.86411 0.0
H916 H 0.01207 0.3847 0.85145 0.0
H917 H 0.17432 0.46547 0.87113 0.0
H918 H 0.14142 0.48402 0.8803 0.0
H919 H 0.1514 0.45536 0.90413 0.0
H920 H 0.0465 0.50923 0.91613 0.0
H921 H 0.07048 0.44192 0.97525 0.0
H922 H 0.04586 0.47256 0.8507 0.0
H923 H 0.08866 0.49336 0.85578 0.0
H924 H 0.05396 0.50939 0.8656 0.0
H925 H 0.07505 0.38986 0.92287 0.0
H926 H 0.09205 0.40224 0.95905 0.0
H927 H 0.11778 0.41092 0.92746 0.0
C928 C 0.56454 0.84372 0.91584 0.0
C929 C 0.576 0.84846 0.88719 0.0
C930 C 0.5466 0.8629 0.9279 0.0
C931 C 0.5393 0.88691 0.91058 0.0
C932 C 0.54644 0.88914 0.88041 0.0
C933 C 0.56504 0.87004 0.86909 0.0
C934 C 0.53928 0.85955 0.96016 0.0
C935 C 0.53801 0.91381 0.86092 0.0
C936 C 0.4919 0.93782 0.94689 0.0
C937 C 0.51904 0.96024 0.95758 0.0
C938 C 0.49778 0.91419 0.93059 0.0
C939 C 0.53161 0.91274 0.9254 0.0
C940 C 0.55901 0.93559 0.93566 0.0
C941 C 0.55236 0.95912 0.95135 0.0
C942 C 0.46793 0.89067 0.91926 0.0
C943 C 0.59559 0.93476 0.93088 0.0
H944 H 0.572 0.82647 0.92967 0.0
H945 H 0.57353 0.87389 0.84685 0.0
H946 H 0.55817 0.87645 0.97279 0.0
H947 H 0.51366 0.86334 0.96392 0.0
H948 H 0.54092 0.83722 0.96905 0.0
H949 H 0.53762 0.90847 0.83722 0.0
H950 H 0.51298 0.91823 0.86584 0.0
H951 H 0.55758 0.9345 0.86502 0.0
H952 H 0.4661 0.93834 0.95169 0.0
H953 H 0.57355 0.97624 0.95948 0.0
H954 H 0.4705 0.8684 0.92755 0.0
H955 H 0.46751 0.8902 0.89487 0.0
H956 H 0.44322 0.89461 0.92589 0.0
H957 H 0.60159 0.91428 0.94111 0.0
H958 H 0.6139 0.95424 0.94039 0.0
H959 H 0.59953 0.93422 0.90699 0.0
C960 C 0.94223 0.18007 0.36292 0.0
C961 C 0.94043 0.20405 0.38065 0.0
C962 C 0.95219 0.15481 0.37502 0.0
C963 C 0.96024 0.15336 0.40562 0.0
C964 C 0.95916 0.17769 0.42355 0.0
C965 C 0.94937 0.20277 0.41084 0.0
C966 C 0.95317 0.12935 0.35519 0.0
C967 C 0.96758 0.17695 0.45632 0.0
C968 C 0.9494 0.07916 0.44591 0.0
C969 C 0.9833 0.07688 0.45157 0.0
C970 C 0.94149 0.10344 0.43002 0.0
C971 C 0.9681 0.12586 0.41929 0.0
C972 C 1.00223 0.12281 0.42336 0.0
C973 C 0.00944 0.09839 0.43953 0.0
C974 C 0.90476 0.10587 0.42611 0.0
C975 C 0.03124 0.14605 0.41184 0.0
H976 H 0.93487 0.18063 0.33966 0.0
H977 H 0.94852 0.22136 0.42459 0.0
H978 H 0.97815 0.12303 0.35814 0.0
H979 H 0.9334 0.10963 0.36123 0.0
H980 H 0.94871 0.13488 0.33157 0.0
H981 H 0.96655 0.19805 0.46701 0.0
H982 H 0.94937 0.15854 0.46682 0.0
H983 H 0.99341 0.17261 0.46066 0.0
H984 H 0.92897 0.06267 0.45503 0.0
H985 H 0.03572 0.09677 0.44363 0.0
H986 H 0.89802 0.1099 0.4026 0.0
H987 H 0.901 0.12509 0.43861 0.0
H988 H 0.88694 0.08557 0.43392 0.0
H989 H 0.02598 0.15113 0.38827 0.0
H990 H 0.05585 0.13893 0.41419 0.0
H991 H 0.03385 0.16694 0.4241 0.0
C992 C 0.23595 0.63665 0.12664 0.0
C993 C 0.25971 0.62017 0.13735 0.0
C994 C 0.20591 0.62324 0.1103 0.0
C995 C 0.19921 0.5925 0.104 0.0
C996 C 0.22279 0.57563 0.11498 0.0
C997 C 0.25243 0.58953 0.13155 0.0
C998 C 0.18152 0.64216 0.09934 0.0
C999 C 0.21694 0.54288 0.10885 0.0
C1000 C 0.10771 0.55312 0.08061 0.0
C1001 C 0.10836 0.55388 0.04974 0.0
C1002 C 0.13701 0.56528 0.0985 0.0
C1003 C 0.16803 0.57825 0.08536 0.0
C1004 C 0.16901 0.57816 0.05421 0.0
C1005 C 0.13925 0.56618 0.03686 0.0
C1006 C 0.13449 0.56496 0.13149 0.0
C1007 C 0.20145 0.59122 0.03912 0.0
H1008 H 0.24115 0.66032 0.1304 0.0
H1009 H 0.26993 0.5762 0.14004 0.0
H1010 H 0.17981 0.64262 0.0749 0.0
H1011 H 0.15563 0.63243 0.10677 0.0
H1012 H 0.18943 0.66536 0.10719 0.0
H1013 H 0.23737 0.53271 0.11919 0.0
H1014 H 0.19219 0.531 0.11716 0.0
H1015 H 0.21569 0.53942 0.08473 0.0
H1016 H 0.084 0.54372 0.09082 0.0
H1017 H 0.14007 0.5668 1.01307 0.0
H1018 H 0.13993 0.58809 0.13952 0.0
H1019 H 0.15381 0.5539 0.14237 0.0
H1020 H 0.10892 0.55333 0.1384 0.0
H1021 H 0.20945 0.6153 0.04367 0.0
H1022 H 0.19852 0.58826 1.01488 0.0
H1023 H 0.22221 0.58067 0.04798 0.0
C1024 C 0.30971 0.40199 0.64909 0.0
C1025 C 0.27783 0.41008 0.64708 0.0
C1026 C 0.33706 0.41619 0.63199 0.0
C1027 C 0.33277 0.43853 0.61097 0.0
C1028 C 0.30062 0.44643 0.60811 0.0
C1029 C 0.27401 0.43263 0.62634 0.0
C1030 C 0.37088 0.40735 0.63668 0.0
C1031 C 0.29422 0.46958 0.5857 0.0
C1032 C 0.41275 0.49317 0.58474 0.0
C1033 C 0.42005 0.47974 0.55918 0.0
C1034 C 0.38454 0.48029 0.6015 0.0
C1035 C 0.36202 0.45353 0.59231 0.0
C1036 C 0.36857 0.44043 0.56592 0.0
C1037 C 0.39761 0.45333 0.55006 0.0
C1038 C 0.37946 0.49501 0.62961 0.0
C1039 C 0.34489 0.41259 0.55445 0.0
H1040 H 0.31359 0.3842 0.66395 0.0
H1041 H 0.25026 0.43992 0.62433 0.0
H1042 H 0.37726 0.39763 0.61629 0.0
H1043 H 0.39134 0.42726 0.64163 0.0
H1044 H 0.37093 0.39092 0.65499 0.0
H1045 H 0.26695 0.47066 0.58348 0.0
H1046 H 0.30932 0.49174 0.59228 0.0
H1047 H 0.30249 0.4648 0.56383 0.0
H1048 H 0.42985 0.51337 0.59234 0.0
H1049 H 0.40266 0.44272 0.53035 0.0
H1050 H 0.37849 0.47899 0.64838 0.0
H1051 H 0.35483 0.50201 0.62794 0.0
H1052 H 0.40006 0.51483 0.63459 0.0
H1053 H 0.34574 0.39379 0.56998 0.0
H1054 H 0.35162 0.40655 0.53244 0.0
H1055 H 0.31829 0.4156 0.55289 0.0
C1056 C 0.77539 0.71367 0.9128 0.0
C1057 C 0.78171 0.74378 0.92003 0.0
C1058 C 0.79662 0.69538 0.92441 0.0
C1059 C 0.82488 0.7076 0.94352 0.0
C1060 C 0.83 0.73744 0.95245 0.0
C1061 C 0.80827 0.75515 0.94065 0.0
C1062 C 0.79017 0.66357 0.91459 0.0
C1063 C 0.8598 0.75125 0.97285 0.0
C1064 C 0.87573 0.65643 0.98277 0.0
C1065 C 0.90223 0.658 0.96367 0.0
C1066 C 0.85025 0.67246 0.97662 0.0
C1067 C 0.8515 0.69054 0.95088 0.0
C1068 C 0.87832 0.69239 0.93169 0.0
C1069 C 0.9032 0.67599 0.93824 0.0
C1070 C 0.82192 0.66993 0.99749 0.0
C1071 C 0.88059 0.71148 0.90402 0.0
H1072 H 0.75501 0.70476 0.89679 0.0
H1073 H 0.81281 0.77828 0.94676 0.0
H1074 H 0.8098 0.6612 0.89924 0.0
H1075 H 0.79212 0.64844 0.93369 0.0
H1076 H 0.76472 0.65634 0.90315 0.0
H1077 H 0.85774 0.77338 0.98056 0.0
H1078 H 0.86184 0.73661 0.99232 0.0
H1079 H 0.88372 0.75397 0.96115 0.0
H1080 H 0.87498 0.64273 1.00258 0.0
H1081 H 0.92313 0.67683 0.92302 0.0
H1082 H 0.79702 0.66128 0.98567 0.0
H1083 H 0.82137 0.69218 1.00576 0.0
H1084 H 0.82472 0.655 1.01663 0.0
H1085 H 0.85767 0.70384 0.88923 0.0
H1086 H 0.90348 0.71091 0.89176 0.0
H1087 H 0.88137 0.73486 0.90963 0.0
C1088 C 0.4344 0.83931 0.15956 0.0
C1089 C 0.43315 0.81279 0.14459 0.0
C1090 C 0.44499 0.86754 0.14576 0.0
C1091 C 0.45515 0.86973 0.11621 0.0
C1092 C 0.45395 0.84306 0.10102 0.0
C1093 C 0.44296 0.81519 0.11521 0.0
C1094 C 0.44546 0.89512 0.16293 0.0
C1095 C 0.46495 0.8439 0.06977 0.0
C1096 C 0.46112 0.94228 0.07009 0.0
C1097 C 0.49604 0.95531 0.07284 0.0
C1098 C 0.44732 0.91484 0.08434 0.0
C1099 C 0.46888 0.89972 0.10172 0.0
C1100 C 0.50413 0.91298 0.10459 0.0
C1101 C 0.51709 0.94039 0.09035 0.0
C1102 C 0.40962 0.90192 0.08063 0.0
C1103 C 0.52844 0.89793 0.12243 0.0
H1104 H 0.42665 0.83804 0.18207 0.0
H1105 H 0.44277 0.79513 0.10335 0.0
H1106 H 0.47189 0.90846 0.16558 0.0
H1107 H 0.43013 0.90917 0.15066 0.0
H1108 H 0.43531 0.88987 0.18511 0.0
H1109 H 0.46153 0.82135 0.06055 0.0
H1110 H 0.4502 0.85689 0.05543 0.0
H1111 H 0.49219 0.85523 0.06901 0.0
H1112 H 0.44456 0.95342 0.05672 0.0
H1113 H 0.54413 0.95006 0.09269 0.0
H1114 H 0.39846 0.89806 0.10252 0.0
H1115 H 0.40513 0.88007 0.0698 0.0
H1116 H 0.39604 0.91663 0.06723 0.0
H1117 H 0.52046 0.89416 0.14542 0.0
H1118 H 0.55504 0.91116 0.12285 0.0
H1119 H 0.52786 0.87586 0.11312 0.0
C1120 C 0.10776 0.22166 0.62318 0.0
C1121 C 0.09408 0.22612 0.65018 0.0
C1122 C 0.09572 0.19549 0.60651 0.0
C1123 C 0.06927 0.17238 0.61677 0.0
C1124 C 0.0556 0.17648 0.64411 0.0
C1125 C 0.0679 0.20298 0.66021 0.0
C1126 C 0.11124 0.19269 0.5776 0.0
C1127 C 0.0275 0.15284 0.6563 0.0
C1128 C 0.01268 0.11816 0.5616 0.0
C1129 C 0.02571 0.09226 0.56469 0.0
C1130 C 0.02682 0.14412 0.57785 0.0
C1131 C 0.05484 0.14473 0.59839 0.0
C1132 C 0.06848 0.11875 0.60137 0.0
C1133 C 0.05399 0.09305 0.58449 0.0
C1134 C 0.01137 0.17095 0.57317 0.0
C1135 C 0.09811 0.11789 0.62288 0.0
H1136 H 0.12837 0.23857 0.61499 0.0
H1137 H 0.05638 0.20568 0.68059 0.0
H1138 H 0.12174 0.1724 0.57795 0.0
H1139 H 0.09133 0.19033 0.55942 0.0
H1140 H 0.1319 0.21219 0.57267 0.0
H1141 H 0.02063 0.1584 0.67844 0.0
H1142 H 1.00449 0.14989 0.64117 0.0
H1143 H 0.03533 0.13124 0.65786 0.0
H1144 H 0.99099 0.11812 0.54638 0.0
H1145 H 0.06438 0.07335 0.58729 0.0
H1146 H 0.03121 0.19058 0.56701 0.0
H1147 H 1.00103 0.17621 0.59397 0.0
H1148 H 0.99055 0.16751 0.5557 0.0
H1149 H 0.11999 0.13624 0.61787 0.0
H1150 H 0.10637 0.0965 0.62239 0.0
H1151 H 0.09099 0.12128 0.64553 0.0
C1152 C 0.7509 0.36553 0.3624 0.0
C1153 C 0.76559 0.34482 0.37857 0.0
C1154 C 0.7236 0.37571 0.37304 0.0
C1155 C 0.71094 0.36515 0.40065 0.0
C1156 C 0.72584 0.34439 0.41717 0.0
C1157 C 0.75287 0.33433 0.40584 0.0
C1158 C 0.70811 0.39757 0.35462 0.0
C1159 C 0.71334 0.33293 0.44689 0.0
C1160 C 0.66189 0.412 0.44061 0.0
C1161 C 0.62822 0.39631 0.43546 0.0
C1162 C 0.68907 0.40205 0.42948 0.0
C1163 C 0.68232 0.37605 0.41239 0.0
C1164 C 0.64828 0.36038 0.40671 0.0
C1165 C 0.62161 0.37055 0.41858 0.0
C1166 C 0.72502 0.41909 0.43643 0.0
C1167 C 0.64005 0.33286 0.38814 0.0
H1168 H 0.76037 0.37336 0.34112 0.0
H1169 H 0.76435 0.31848 0.41846 0.0
H1170 H 0.68061 0.38819 0.34981 0.0
H1171 H 0.71019 0.4183 0.36701 0.0
H1172 H 0.72062 0.40328 0.33344 0.0
H1173 H 0.72788 0.31705 0.45706 0.0
H1174 H 0.71549 0.35176 0.46203 0.0
H1175 H 0.68605 0.32165 0.44469 0.0
H1176 H 0.66702 0.43171 0.454 0.0
H1177 H 0.59554 0.35851 0.4145 0.0
H1178 H 0.73784 0.42655 0.41574 0.0
H1179 H 0.73982 0.40441 0.44838 0.0
H1180 H 0.72592 0.43884 0.4501 0.0
H1181 H 0.65074 0.33796 0.36617 0.0
H1182 H 0.61221 0.32377 0.38507 0.0
H1183 H 0.65201 0.31544 0.39863 0.0
loop_
_geom_bond_atom_site_label_1
_geom_bond_atom_site_label_2
_geom_bond_distance
_geom_bond_site_symmetry_2
_ccdc_geom_bond_type
P0 O11 1.490 . S
P0 C14 1.812 . S
P0 C20 1.803 . S
P0 C26 1.819 . S
H1 C15 0.941 . S
H2 C16 0.939 . S
H3 C18 0.940 . S
H4 C19 0.940 . S
H5 C21 0.939 . S
H6 C22 0.942 . S
H7 C24 0.940 . S
H8 C25 0.939 . S
H9 C27 0.941 . S
H10 C31 0.939 . S
O11 P0 1.490 . S
H12 C28 0.939 . S
H13 C30 0.940 . S
C14 P0 1.812 . S
C14 C15 1.389 . S
C14 C19 1.391 . S
C15 H1 0.941 . S
C15 C14 1.389 . S
C15 C16 1.397 . S
C16 H2 0.939 . S
C16 C15 1.397 . S
C16 C17 1.378 . S
C17 C16 1.378 . S
C17 C18 1.378 . S
C18 H3 0.940 . S
C18 C17 1.378 . S
C18 C19 1.396 . S
C19 H4 0.940 . S
C19 C14 1.391 . S
C19 C18 1.396 . S
C20 P0 1.803 . S
C20 C21 1.378 . S
C20 C25 1.400 . S
C21 H5 0.939 . S
C21 C20 1.378 . S
C21 C22 1.361 . S
C22 H6 0.942 . S
C22 C21 1.361 . S
C22 C23 1.369 . S
C23 C22 1.369 . S
C23 C24 1.404 . S
C24 H7 0.940 . S
C24 C23 1.404 . S
C24 C25 1.389 . S
C25 H8 0.939 . S
C25 C20 1.400 . S
C25 C24 1.389 . S
C26 P0 1.819 . S
C26 C27 1.391 . S
C26 C31 1.391 . S
C27 H9 0.941 . S
C27 C26 1.391 . S
C27 C28 1.396 . S
C28 H12 0.939 . S
C28 C27 1.396 . S
C28 C29 1.397 . S
C29 C28 1.397 . S
C29 C30 1.385 . S
C30 H13 0.940 . S
C30 C29 1.385 . S
C30 C31 1.388 . S
C31 H10 0.939 . S
C31 C26 1.391 . S
C31 C30 1.388 . S
P32 O43 1.490 . S
P32 C46 1.812 . S
P32 C52 1.803 . S
P32 C58 1.819 . S
H33 C47 0.941 . S
H34 C48 0.939 . S
H35 C50 0.940 . S
H36 C51 0.940 . S
H37 C53 0.939 . S
H38 C54 0.942 . S
H39 C56 0.940 . S
H40 C57 0.939 . S
H41 C59 0.941 . S
H42 C63 0.939 . S
O43 P32 1.490 . S
H44 C60 0.939 . S
H45 C62 0.940 . S
C46 P32 1.812 . S
C46 C47 1.389 . S
C46 C51 1.391 . S
C47 H33 0.941 . S
C47 C46 1.389 . S
C47 C48 1.397 . S
C48 H34 0.939 . S
C48 C47 1.397 . S
C48 C49 1.378 . S
C49 C48 1.378 . S
C49 C50 1.378 . S
C50 H35 0.940 . S
C50 C49 1.378 . S
C50 C51 1.396 . S
C51 H36 0.940 . S
C51 C46 1.391 . S
C51 C50 1.396 . S
C52 P32 1.803 . S
C52 C53 1.378 . S
C52 C57 1.400 . S
C53 H37 0.939 . S
C53 C52 1.378 . S
C53 C54 1.361 . S
C54 H38 0.942 . S
C54 C53 1.361 . S
C54 C55 1.369 . S
C55 C54 1.369 . S
C55 C56 1.404 . S
C56 H39 0.940 . S
C56 C55 1.404 . S
C56 C57 1.389 . S
C57 H40 0.939 . S
C57 C52 1.400 . S
C57 C56 1.389 . S
C58 P32 1.819 . S
C58 C59 1.391 . S
C58 C63 1.391 . S
C59 H41 0.941 . S
C59 C58 1.391 . S
C59 C60 1.396 . S
C60 H44 0.939 . S
C60 C59 1.396 . S
C60 C61 1.397 . S
C61 C60 1.397 . S
C61 C62 1.385 . S
C62 H45 0.940 . S
C62 C61 1.385 . S
C62 C63 1.388 . S
C63 H42 0.939 . S
C63 C58 1.391 . S
C63 C62 1.388 . S
P64 O75 1.490 . S
P64 C78 1.812 . S
P64 C84 1.803 . S
P64 C90 1.819 . S
H65 C79 0.941 . S
H66 C80 0.939 . S
H67 C82 0.940 . S
H68 C83 0.940 . S
H69 C85 0.939 . S
H70 C86 0.942 . S
H71 C88 0.940 . S
H72 C89 0.939 . S
H73 C91 0.941 . S
H74 C95 0.939 . S
O75 P64 1.490 . S
H76 C92 0.939 . S
H77 C94 0.940 . S
C78 P64 1.812 . S
C78 C79 1.389 . S
C78 C83 1.391 . S
C79 H65 0.941 . S
C79 C78 1.389 . S
C79 C80 1.397 . S
C80 H66 0.939 . S
C80 C79 1.397 . S
C80 C81 1.378 . S
C81 C80 1.378 . S
C81 C82 1.378 . S
C82 H67 0.940 . S
C82 C81 1.378 . S
C82 C83 1.396 . S
C83 H68 0.940 . S
C83 C78 1.391 . S
C83 C82 1.396 . S
C84 P64 1.803 . S
C84 C85 1.378 . S
C84 C89 1.400 . S
C85 H69 0.939 . S
C85 C84 1.378 . S
C85 C86 1.361 . S
C86 H70 0.942 . S
C86 C85 1.361 . S
C86 C87 1.369 . S
C87 C86 1.369 . S
C87 C88 1.404 . S
C88 H71 0.940 . S
C88 C87 1.404 . S
C88 C89 1.389 . S
C89 H72 0.939 . S
C89 C84 1.400 . S
C89 C88 1.389 . S
C90 P64 1.819 . S
C90 C91 1.391 . S
C90 C95 1.391 . S
C91 H73 0.941 . S
C91 C90 1.391 . S
C91 C92 1.396 . S
C92 H76 0.939 . S
C92 C91 1.396 . S
C92 C93 1.397 . S
C93 C92 1.397 . S
C93 C94 1.385 . S
C94 H77 0.940 . S
C94 C93 1.385 . S
C94 C95 1.388 . S
C95 H74 0.939 . S
C95 C90 1.391 . S
C95 C94 1.388 . S
P96 O107 1.490 . S
P96 C110 1.812 . S
P96 C116 1.803 . S
P96 C122 1.819 . S
H97 C111 0.941 . S
H98 C112 0.939 . S
H99 C114 0.940 . S
H100 C115 0.940 . S
H101 C117 0.939 . S
H102 C118 0.942 . S
H103 C120 0.940 . S
H104 C121 0.939 . S
H105 C123 0.941 . S
H106 C127 0.939 . S
O107 P96 1.490 . S
H108 C124 0.939 . S
H109 C126 0.940 . S
C110 P96 1.812 . S
C110 C111 1.389 . S
C110 C115 1.391 . S
C111 H97 0.941 . S
C111 C110 1.389 . S
C111 C112 1.397 . S
C112 H98 0.939 . S
C112 C111 1.397 . S
C112 C113 1.378 . S
C113 C112 1.378 . S
C113 C114 1.378 . S
C114 H99 0.940 . S
C114 C113 1.378 . S
C114 C115 1.396 . S
C115 H100 0.940 . S
C115 C110 1.391 . S
C115 C114 1.396 . S
C116 P96 1.803 . S
C116 C117 1.378 . S
C116 C121 1.400 . S
C117 H101 0.939 . S
C117 C116 1.378 . S
C117 C118 1.361 . S
C118 H102 0.942 . S
C118 C117 1.361 . S
C118 C119 1.369 . S
C119 C118 1.369 . S
C119 C120 1.404 . S
C120 H103 0.940 . S
C120 C119 1.404 . S
C120 C121 1.389 . S
C121 H104 0.939 . S
C121 C116 1.400 . S
C121 C120 1.389 . S
C122 P96 1.819 . S
C122 C123 1.391 . S
C122 C127 1.391 . S
C123 H105 0.941 . S
C123 C122 1.391 . S
C123 C124 1.396 . S
C124 H108 0.939 . S
C124 C123 1.396 . S
C124 C125 1.397 . S
C125 C124 1.397 . S
C125 C126 1.385 . S
C126 H109 0.940 . S
C126 C125 1.385 . S
C126 C127 1.388 . S
C127 H106 0.939 . S
C127 C122 1.391 . S
C127 C126 1.388 . S
P128 O139 1.490 . S
P128 C142 1.812 . S
P128 C148 1.803 . S
P128 C154 1.819 . S
H129 C143 0.941 . S
H130 C144 0.939 . S
H131 C146 0.940 . S
H132 C147 0.940 . S
H133 C149 0.939 . S
H134 C150 0.942 . S
H135 C152 0.940 . S
H136 C153 0.939 . S
H137 C155 0.941 . S
H138 C159 0.939 . S
O139 P128 1.490 . S
H140 C156 0.939 . S
H141 C158 0.940 . S
C142 P128 1.812 . S
C142 C143 1.389 . S
C142 C147 1.391 . S
C143 H129 0.941 . S
C143 C142 1.389 . S
C143 C144 1.397 . S
C144 H130 0.939 . S
C144 C143 1.397 . S
C144 C145 1.378 . S
C145 C144 1.378 . S
C145 C146 1.378 . S
C146 H131 0.940 . S
C146 C145 1.378 . S
C146 C147 1.396 . S
C147 H132 0.940 . S
C147 C142 1.391 . S
C147 C146 1.396 . S
C148 P128 1.803 . S
C148 C149 1.378 . S
C148 C153 1.400 . S
C149 H133 0.939 . S
C149 C148 1.378 . S
C149 C150 1.361 . S
C150 H134 0.942 . S
C150 C149 1.361 . S
C150 C151 1.369 . S
C151 C150 1.369 . S
C151 C152 1.404 . S
C152 H135 0.940 . S
C152 C151 1.404 . S
C152 C153 1.389 . S
C153 H136 0.939 . S
C153 C148 1.400 . S
C153 C152 1.389 . S
C154 P128 1.819 . S
C154 C155 1.391 . S
C154 C159 1.391 . S
C155 H137 0.941 . S
C155 C154 1.391 . S
C155 C156 1.396 . S
C156 H140 0.939 . S
C156 C155 1.396 . S
C156 C157 1.397 . S
C157 C156 1.397 . S
C157 C158 1.385 . S
C158 H141 0.940 . S
C158 C157 1.385 . S
C158 C159 1.388 . S
C159 H138 0.939 . S
C159 C154 1.391 . S
C159 C158 1.388 . S
P160 O171 1.490 . S
P160 C174 1.812 . S
P160 C180 1.803 . S
P160 C186 1.819 . S
H161 C175 0.941 . S
H162 C176 0.939 . S
H163 C178 0.940 . S
H164 C179 0.940 . S
H165 C181 0.939 . S
H166 C182 0.942 . S
H167 C184 0.940 . S
H168 C185 0.939 . S
H169 C187 0.941 . S
H170 C191 0.939 . S
O171 P160 1.490 . S
H172 C188 0.939 . S
H173 C190 0.940 . S
C174 P160 1.812 . S
C174 C175 1.389 . S
C174 C179 1.391 . S
C175 H161 0.941 . S
C175 C174 1.389 . S
C175 C176 1.397 . S
C176 H162 0.939 . S
C176 C175 1.397 . S
C176 C177 1.378 . S
C177 C176 1.378 . S
C177 C178 1.378 . S
C178 H163 0.940 . S
C178 C177 1.378 . S
C178 C179 1.396 . S
C179 H164 0.940 . S
C179 C174 1.391 . S
C179 C178 1.396 . S
C180 P160 1.803 . S
C180 C181 1.378 . S
C180 C185 1.400 . S
C181 H165 0.939 . S
C181 C180 1.378 . S
C181 C182 1.361 . S
C182 H166 0.942 . S
C182 C181 1.361 . S
C182 C183 1.369 . S
C183 C182 1.369 . S
C183 C184 1.404 . S
C184 H167 0.940 . S
C184 C183 1.404 . S
C184 C185 1.389 . S
C185 H168 0.939 . S
C185 C180 1.400 . S
C185 C184 1.389 . S
C186 P160 1.819 . S
C186 C187 1.391 . S
C186 C191 1.391 . S
C187 H169 0.941 . S
C187 C186 1.391 . S
C187 C188 1.396 . S
C188 H172 0.939 . S
C188 C187 1.396 . S
C188 C189 1.397 . S
C189 C188 1.397 . S
C189 C190 1.385 . S
C190 H173 0.940 . S
C190 C189 1.385 . S
C190 C191 1.388 . S
C191 H170 0.939 . S
C191 C186 1.391 . S
C191 C190 1.388 . S
P192 O203 1.490 . S
P192 C206 1.812 . S
P192 C212 1.803 . S
P192 C218 1.819 . S
H193 C207 0.941 . S
H194 C208 0.939 . S
H195 C210 0.940 . S
H196 C211 0.940 . S
H197 C213 0.939 . S
H198 C214 0.942 . S
H199 C216 0.940 . S
H200 C217 0.939 . S
H201 C219 0.941 . S
H202 C223 0.939 . S
O203 P192 1.490 . S
H204 C220 0.939 . S
H205 C222 0.940 . S
C206 P192 1.812 . S
C206 C207 1.389 . S
C206 C211 1.391 . S
C207 H193 0.941 . S
C207 C206 1.389 . S
C207 C208 1.397 . S
C208 H194 0.939 . S
C208 C207 1.397 . S
C208 C209 1.378 . S
C209 C208 1.378 . S
C209 C210 1.378 . S
C210 H195 0.940 . S
C210 C209 1.378 . S
C210 C211 1.396 . S
C211 H196 0.940 . S
C211 C206 1.391 . S
C211 C210 1.396 . S
C212 P192 1.803 . S
C212 C213 1.378 . S
C212 C217 1.400 . S
C213 H197 0.939 . S
C213 C212 1.378 . S
C213 C214 1.361 . S
C214 H198 0.942 . S
C214 C213 1.361 . S
C214 C215 1.369 . S
C215 C214 1.369 . S
C215 C216 1.404 . S
C216 H199 0.940 . S
C216 C215 1.404 . S
C216 C217 1.389 . S
C217 H200 0.939 . S
C217 C212 1.400 . S
C217 C216 1.389 . S
C218 P192 1.819 . S
C218 C219 1.391 . S
C218 C223 1.391 . S
C219 H201 0.941 . S
C219 C218 1.391 . S
C219 C220 1.396 . S
C220 H204 0.939 . S
C220 C219 1.396 . S
C220 C221 1.397 . S
C221 C220 1.397 . S
C221 C222 1.385 . S
C222 H205 0.940 . S
C222 C221 1.385 . S
C222 C223 1.388 . S
C223 H202 0.939 . S
C223 C218 1.391 . S
C223 C222 1.388 . S
P224 O235 1.490 . S
P224 C238 1.812 . S
P224 C244 1.803 . S
P224 C250 1.819 . S
H225 C239 0.941 . S
H226 C240 0.939 . S
H227 C242 0.940 . S
H228 C243 0.940 . S
H229 C245 0.939 . S
H230 C246 0.942 . S
H231 C248 0.940 . S
H232 C249 0.939 . S
H233 C251 0.941 . S
H234 C255 0.939 . S
O235 P224 1.490 . S
H236 C252 0.939 . S
H237 C254 0.940 . S
C238 P224 1.812 . S
C238 C239 1.389 . S
C238 C243 1.391 . S
C239 H225 0.941 . S
C239 C238 1.389 . S
C239 C240 1.397 . S
C240 H226 0.939 . S
C240 C239 1.397 . S
C240 C241 1.378 . S
C241 C240 1.378 . S
C241 C242 1.378 . S
C242 H227 0.940 . S
C242 C241 1.378 . S
C242 C243 1.396 . S
C243 H228 0.940 . S
C243 C238 1.391 . S
C243 C242 1.396 . S
C244 P224 1.803 . S
C244 C245 1.378 . S
C244 C249 1.400 . S
C245 H229 0.939 . S
C245 C244 1.378 . S
C245 C246 1.361 . S
C246 H230 0.942 . S
C246 C245 1.361 . S
C246 C247 1.369 . S
C247 C246 1.369 . S
C247 C248 1.404 . S
C248 H231 0.940 . S
C248 C247 1.404 . S
C248 C249 1.389 . S
C249 H232 0.939 . S
C249 C244 1.400 . S
C249 C248 1.389 . S
C250 P224 1.819 . S
C250 C251 1.391 . S
C250 C255 1.391 . S
C251 H233 0.941 . S
C251 C250 1.391 . S
C251 C252 1.396 . S
C252 H236 0.939 . S
C252 C251 1.396 . S
C252 C253 1.397 . S
C253 C252 1.397 . S
C253 C254 1.385 . S
C254 H237 0.940 . S
C254 C253 1.385 . S
C254 C255 1.388 . S
C255 H234 0.939 . S
C255 C250 1.391 . S
C255 C254 1.388 . S
Tb256 C258 2.808 . S
Tb256 O276 2.483 . S
Tb256 O277 2.440 . S
Tb256 O278 2.659 1_665 S
Tb256 O279 2.408 1_665 S
Tb256 O280 2.377 1_655 S
Tb256 O284 2.324 . S
Tb256 O287 2.342 1_565 S
Tb257 C267 2.809 . S
Tb257 O278 2.325 . S
Tb257 O281 2.341 1_545 S
Tb257 O282 2.484 . S
Tb257 O283 2.440 . S
Tb257 O284 2.658 1_445 S
Tb257 O285 2.409 1_545 S
Tb257 O286 2.378 . S
C258 Tb256 2.808 . S
C258 C259 1.514 . S
C258 O276 1.248 . S
C258 O277 1.266 . S
C259 C258 1.514 . S
C259 C260 1.359 . S
C259 C264 1.348 . S
C260 C259 1.359 . S
C260 C261 1.380 . S
C260 H288 0.929 . S
C261 C260 1.380 . S
C261 C262 1.347 . S
C261 H289 0.931 . S
C262 C261 1.347 . S
C262 C263 1.369 . S
C263 C262 1.369 . S
C263 C264 1.408 . S
C263 H290 0.930 . S
C264 C259 1.348 . S
C264 C263 1.408 . S
C264 H291 0.930 . S
C265 O278 1.281 . S
C265 O279 1.256 . S
C266 O280 1.236 . S
C266 O281 1.266 . S
C267 Tb257 2.809 . S
C267 C268 1.514 . S
C267 O282 1.248 . S
C267 O283 1.266 . S
C268 C267 1.514 . S
C268 C269 1.359 . S
C268 C273 1.348 . S
C269 C268 1.359 . S
C269 C270 1.380 . S
C269 H292 0.929 . S
C270 C269 1.380 . S
C270 C271 1.347 . S
C270 H293 0.931 . S
C271 C270 1.347 . S
C271 C272 1.369 . S
C272 C271 1.369 . S
C272 C273 1.408 . S
C272 H294 0.930 . S
C273 C268 1.348 . S
C273 C272 1.408 . S
C273 H295 0.930 . S
C274 O284 1.281 . S
C274 O285 1.254 1_655 S
C275 O286 1.236 1_655 S
C275 O287 1.266 . S
O276 Tb256 2.483 . S
O276 C258 1.248 . S
O277 Tb256 2.440 . S
O277 C258 1.266 . S
O278 Tb256 2.659 1_445 S
O278 Tb257 2.325 . S
O278 C265 1.281 . S
O279 Tb256 2.408 1_445 S
O279 C265 1.256 . S
O280 Tb256 2.377 1_455 S
O280 C266 1.236 . S
O281 Tb257 2.341 1_565 S
O281 C266 1.266 . S
O282 Tb257 2.484 . S
O282 C267 1.248 . S
O283 Tb257 2.440 . S
O283 C267 1.266 . S
O284 Tb256 2.324 . S
O284 Tb257 2.658 1_665 S
O284 C274 1.281 . S
O285 Tb257 2.409 1_565 S
O285 C274 1.254 1_455 S
O286 Tb257 2.378 . S
O286 C275 1.236 1_455 S
O287 Tb256 2.342 1_545 S
O287 C275 1.266 . S
H288 C260 0.929 . S
H289 C261 0.931 . S
H290 C263 0.930 . S
H291 C264 0.930 . S
H292 C269 0.929 . S
H293 C270 0.931 . S
H294 C272 0.930 . S
H295 C273 0.930 . S
Tb296 C298 2.809 . S
Tb296 O316 2.484 . S
Tb296 O317 2.440 . S
Tb296 O318 2.658 1_545 S
Tb296 O319 2.409 1_545 S
Tb296 O320 2.378 . S
Tb296 O324 2.325 1_554 S
Tb296 O327 2.341 1_544 S
Tb297 C307 2.783 1_545 S
Tb297 O318 2.302 1_546 S
Tb297 O321 2.368 1_556 S
Tb297 O322 2.447 1_545 S
Tb297 O323 2.431 1_545 S
Tb297 O324 2.677 . S
Tb297 O325 2.436 . S
Tb297 O326 2.357 1_545 S
C298 Tb296 2.809 . S
C298 C299 1.514 . S
C298 O316 1.248 . S
C298 O317 1.266 . S
C299 C298 1.514 . S
C299 C300 1.359 . S
C299 C304 1.348 . S
C300 C299 1.359 . S
C300 C301 1.380 . S
C300 H328 0.929 . S
C301 C300 1.380 . S
C301 C302 1.347 . S
C301 H329 0.931 . S
C302 C301 1.347 . S
C302 C303 1.369 . S
C303 C302 1.369 . S
C303 C304 1.408 . S
C303 H330 0.930 . S
C304 C299 1.348 . S
C304 C303 1.408 . S
C304 H331 0.930 . S
C305 O318 1.281 . S
C305 O319 1.254 . S
C306 O320 1.236 . S
C306 O321 1.266 . S
C307 Tb297 2.783 1_565 S
C307 C308 1.514 . S
C307 O322 1.248 . S
C307 O323 1.266 . S
C308 C307 1.514 . S
C308 C309 1.359 . S
C308 C313 1.348 . S
C309 C308 1.359 . S
C309 C310 1.380 . S
C309 H332 0.929 . S
C310 C309 1.380 . S
C310 C311 1.347 . S
C310 H333 0.931 . S
C311 C310 1.347 . S
C311 C312 1.369 . S
C312 C311 1.369 . S
C312 C313 1.408 . S
C312 H334 0.930 . S
C313 C308 1.348 . S
C313 C312 1.408 . S
C313 H335 0.930 . S
C314 O324 1.281 . S
C314 O325 1.254 . S
C315 O326 1.236 . S
C315 O327 1.266 . S
O316 Tb296 2.484 . S
O316 C298 1.248 . S
O317 Tb296 2.440 . S
O317 C298 1.266 . S
O318 Tb296 2.658 1_565 S
O318 Tb297 2.302 1_564 S
O318 C305 1.281 . S
O319 Tb296 2.409 1_565 S
O319 C305 1.254 . S
O320 Tb296 2.378 . S
O320 C306 1.236 . S
O321 Tb297 2.368 1_554 S
O321 C306 1.266 . S
O322 Tb297 2.447 1_565 S
O322 C307 1.248 . S
O323 Tb297 2.431 1_565 S
O323 C307 1.266 . S
O324 Tb296 2.325 1_556 S
O324 Tb297 2.677 . S
O324 C314 1.281 . S
O325 Tb297 2.436 . S
O325 C314 1.254 . S
O326 Tb297 2.357 1_565 S
O326 C315 1.236 . S
O327 Tb296 2.341 1_566 S
O327 C315 1.266 . S
H328 C300 0.929 . S
H329 C301 0.931 . S
H330 C303 0.930 . S
H331 C304 0.930 . S
H332 C309 0.929 . S
H333 C310 0.931 . S
H334 C312 0.930 . S
H335 C313 0.930 . S
Tb336 C338 2.809 . S
Tb336 O356 2.484 . S
Tb336 O357 2.440 . S
Tb336 O358 2.658 . S
Tb336 O359 2.409 . S
Tb336 O360 2.378 . S
Tb336 O364 2.325 . S
Tb336 O367 2.341 . S
Tb337 C347 2.809 . S
Tb337 O358 2.325 . S
Tb337 O361 2.341 . S
Tb337 O362 2.484 . S
Tb337 O363 2.440 . S
Tb337 O364 2.658 . S
Tb337 O365 2.409 . S
Tb337 O366 2.378 . S
C338 Tb336 2.809 . S
C338 C339 1.514 . S
C338 O356 1.248 . S
C338 O357 1.266 . S
C339 C338 1.514 . S
C339 C340 1.359 . S
C339 C344 1.348 . S
C340 C339 1.359 . S
C340 C341 1.380 . S
C340 H368 0.929 . S
C341 C340 1.380 . S
C341 C342 1.347 . S
C341 H369 0.931 . S
C342 C341 1.347 . S
C342 C343 1.369 . S
C343 C342 1.369 . S
C343 C344 1.408 . S
C343 H370 0.930 . S
C344 C339 1.348 . S
C344 C343 1.408 . S
C344 H371 0.930 . S
C345 O358 1.281 . S
C345 O359 1.254 . S
C346 O360 1.236 . S
C346 O361 1.266 . S
C347 Tb337 2.809 . S
C347 C348 1.514 . S
C347 O362 1.248 . S
C347 O363 1.266 . S
C348 C347 1.514 . S
C348 C349 1.359 . S
C348 C353 1.348 . S
C349 C348 1.359 . S
C349 C350 1.380 . S
C349 H372 0.929 . S
C350 C349 1.380 . S
C350 C351 1.347 . S
C350 H373 0.931 . S
C351 C350 1.347 . S
C351 C352 1.369 . S
C352 C351 1.369 . S
C352 C353 1.408 . S
C352 H374 0.930 . S
C353 C348 1.348 . S
C353 C352 1.408 . S
C353 H375 0.930 . S
C354 O364 1.281 . S
C354 O365 1.254 . S
C355 O366 1.236 . S
C355 O367 1.266 . S
O356 Tb336 2.484 . S
O356 C338 1.248 . S
O357 Tb336 2.440 . S
O357 C338 1.266 . S
O358 Tb336 2.658 . S
O358 Tb337 2.325 . S
O358 C345 1.281 . S
O359 Tb336 2.409 . S
O359 C345 1.254 . S
O360 Tb336 2.378 . S
O360 C346 1.236 . S
O361 Tb337 2.341 . S
O361 C346 1.266 . S
O362 Tb337 2.484 . S
O362 C347 1.248 . S
O363 Tb337 2.440 . S
O363 C347 1.266 . S
O364 Tb336 2.325 . S
O364 Tb337 2.658 . S
O364 C354 1.281 . S
O365 Tb337 2.409 . S
O365 C354 1.254 . S
O366 Tb337 2.378 . S
O366 C355 1.236 . S
O367 Tb336 2.341 . S
O367 C355 1.266 . S
H368 C340 0.929 . S
H369 C341 0.931 . S
H370 C343 0.930 . S
H371 C344 0.930 . S
H372 C349 0.929 . S
H373 C350 0.931 . S
H374 C352 0.930 . S
H375 C353 0.930 . S
Tb376 C378 2.809 1_455 S
Tb376 O396 2.484 1_455 S
Tb376 O397 2.440 1_455 S
Tb376 O398 2.658 1_556 S
Tb376 O399 2.409 1_556 S
Tb376 O400 2.378 1_456 S
Tb376 O404 2.325 1_455 S
Tb376 O407 2.341 . S
Tb377 C387 2.809 . S
Tb377 O398 2.325 . S
Tb377 O401 2.341 1_455 S
Tb377 O402 2.484 . S
Tb377 O403 2.440 . S
Tb377 O404 2.658 1_454 S
Tb377 O405 2.409 1_455 S
Tb377 O406 2.378 1_554 S
C378 Tb376 2.809 1_655 S
C378 C379 1.514 . S
C378 O396 1.248 . S
C378 O397 1.266 . S
C379 C378 1.514 . S
C379 C380 1.359 . S
C379 C384 1.348 . S
C380 C379 1.359 . S
C380 C381 1.380 . S
C380 H408 0.929 . S
C381 C380 1.380 . S
C381 C382 1.347 . S
C381 H409 0.931 . S
C382 C381 1.347 . S
C382 C383 1.369 . S
C383 C382 1.369 . S
C383 C384 1.408 . S
C383 H410 0.930 . S
C384 C379 1.348 . S
C384 C383 1.408 . S
C384 H411 0.930 . S
C385 O398 1.281 . S
C385 O399 1.254 . S
C386 O400 1.236 . S
C386 O401 1.266 . S
C387 Tb377 2.809 . S
C387 C388 1.514 . S
C387 O402 1.248 . S
C387 O403 1.266 . S
C388 C387 1.514 . S
C388 C389 1.359 . S
C388 C393 1.348 . S
C389 C388 1.359 . S
C389 C390 1.380 . S
C389 H412 0.929 . S
C390 C389 1.380 . S
C390 C391 1.347 . S
C390 H413 0.931 . S
C391 C390 1.347 . S
C391 C392 1.369 . S
C392 C391 1.369 . S
C392 C393 1.408 . S
C392 H414 0.930 . S
C393 C388 1.348 . S
C393 C392 1.408 . S
C393 H415 0.930 . S
C394 O404 1.281 . S
C394 O405 1.254 1_556 S
C395 O406 1.236 . S
C395 O407 1.266 . S
O396 Tb376 2.484 1_655 S
O396 C378 1.248 . S
O397 Tb376 2.440 1_655 S
O397 C378 1.266 . S
O398 Tb376 2.658 1_554 S
O398 Tb377 2.325 . S
O398 C385 1.281 . S
O399 Tb376 2.409 1_554 S
O399 C385 1.254 . S
O400 Tb376 2.378 1_654 S
O400 C386 1.236 . S
O401 Tb377 2.341 1_655 S
O401 C386 1.266 . S
O402 Tb377 2.484 . S
O402 C387 1.248 . S
O403 Tb377 2.440 . S
O403 C387 1.266 . S
O404 Tb376 2.325 1_655 S
O404 Tb377 2.658 1_656 S
O404 C394 1.281 . S
O405 Tb377 2.409 1_655 S
O405 C394 1.254 1_554 S
O406 Tb377 2.378 1_556 S
O406 C395 1.236 . S
O407 Tb376 2.341 . S
O407 C395 1.266 . S
H408 C380 0.929 . S
H409 C381 0.931 . S
H410 C383 0.930 . S
H411 C384 0.930 . S
H412 C389 0.929 . S
H413 C390 0.931 . S
H414 C392 0.930 . S
H415 C393 0.930 . S
C416 C417 1.391 . S
C416 C418 1.394 . S
C416 H432 0.931 . S
C417 C416 1.391 . S
C417 C421 1.376 . S
C418 C416 1.394 . S
C418 C419 1.369 . S
C418 C422 1.531 . S
C419 C418 1.369 . S
C419 C420 1.410 . S
C419 C427 1.503 . S
C420 C419 1.410 . S
C420 C421 1.392 . S
C420 C423 1.511 . S
C421 C417 1.376 . S
C421 C420 1.392 . S
C421 H433 0.929 . S
C422 C418 1.531 . S
C422 H434 0.960 . S
C422 H435 0.962 . S
C422 H436 0.960 . S
C423 C420 1.511 . S
C423 H437 0.961 . S
C423 H438 0.961 . S
C423 H439 0.961 . S
C424 C425 1.370 . S
C424 C426 1.363 . S
C424 H440 0.931 . S
C425 C424 1.370 . S
C425 C429 1.408 . S
C426 C424 1.363 . S
C426 C427 1.370 . S
C426 C430 1.524 . S
C427 C419 1.503 . S
C427 C426 1.370 . S
C427 C428 1.403 . S
C428 C427 1.403 . S
C428 C429 1.404 . S
C428 C431 1.539 . S
C429 C425 1.408 . S
C429 C428 1.404 . S
C429 H441 0.930 . S
C430 C426 1.524 . S
C430 H442 0.956 . S
C430 H443 0.961 . S
C430 H444 0.961 . S
C431 C428 1.539 . S
C431 H445 0.958 . S
C431 H446 0.961 . S
C431 H447 0.960 . S
H432 C416 0.931 . S
H433 C421 0.929 . S
H434 C422 0.960 . S
H435 C422 0.962 . S
H436 C422 0.960 . S
H437 C423 0.961 . S
H438 C423 0.961 . S
H439 C423 0.961 . S
H440 C424 0.931 . S
H441 C429 0.930 . S
H442 C430 0.956 . S
H443 C430 0.961 . S
H444 C430 0.961 . S
H445 C431 0.958 . S
H446 C431 0.961 . S
H447 C431 0.960 . S
C448 C449 1.391 . S
C448 C450 1.394 . S
C448 H464 0.931 . S
C449 C448 1.391 . S
C449 C453 1.376 . S
C450 C448 1.394 . S
C450 C451 1.369 . S
C450 C454 1.531 . S
C451 C450 1.369 . S
C451 C452 1.410 . S
C451 C459 1.503 . S
C452 C451 1.410 . S
C452 C453 1.392 . S
C452 C455 1.511 . S
C453 C449 1.376 . S
C453 C452 1.392 . S
C453 H465 0.929 . S
C454 C450 1.531 . S
C454 H466 0.960 . S
C454 H467 0.962 . S
C454 H468 0.960 . S
C455 C452 1.511 . S
C455 H469 0.961 . S
C455 H470 0.961 . S
C455 H471 0.961 . S
C456 C457 1.370 . S
C456 C458 1.363 . S
C456 H472 0.931 . S
C457 C456 1.370 . S
C457 C461 1.408 . S
C458 C456 1.363 . S
C458 C459 1.370 . S
C458 C462 1.524 . S
C459 C451 1.503 . S
C459 C458 1.370 . S
C459 C460 1.403 . S
C460 C459 1.403 . S
C460 C461 1.404 . S
C460 C463 1.539 . S
C461 C457 1.408 . S
C461 C460 1.404 . S
C461 H473 0.930 . S
C462 C458 1.524 . S
C462 H474 0.956 . S
C462 H475 0.961 . S
C462 H476 0.961 . S
C463 C460 1.539 . S
C463 H477 0.958 . S
C463 H478 0.961 . S
C463 H479 0.960 . S
H464 C448 0.931 . S
H465 C453 0.929 . S
H466 C454 0.960 . S
H467 C454 0.962 . S
H468 C454 0.960 . S
H469 C455 0.961 . S
H470 C455 0.961 . S
H471 C455 0.961 . S
H472 C456 0.931 . S
H473 C461 0.930 . S
H474 C462 0.956 . S
H475 C462 0.961 . S
H476 C462 0.961 . S
H477 C463 0.958 . S
H478 C463 0.961 . S
H479 C463 0.960 . S
C480 C481 1.391 . S
C480 C482 1.394 . S
C480 H496 0.931 . S
C481 C480 1.391 . S
C481 C485 1.376 . S
C482 C480 1.394 . S
C482 C483 1.369 . S
C482 C486 1.531 . S
C483 C482 1.369 . S
C483 C484 1.410 . S
C483 C491 1.503 . S
C484 C483 1.410 . S
C484 C485 1.392 . S
C484 C487 1.511 . S
C485 C481 1.376 . S
C485 C484 1.392 . S
C485 H497 0.929 . S
C486 C482 1.531 . S
C486 H498 0.960 . S
C486 H499 0.962 . S
C486 H500 0.960 . S
C487 C484 1.511 . S
C487 H501 0.961 . S
C487 H502 0.961 . S
C487 H503 0.961 . S
C488 C489 1.370 . S
C488 C490 1.363 . S
C488 H504 0.931 . S
C489 C488 1.370 . S
C489 C493 1.408 . S
C490 C488 1.363 . S
C490 C491 1.370 . S
C490 C494 1.524 . S
C491 C483 1.503 . S
C491 C490 1.370 . S
C491 C492 1.403 . S
C492 C491 1.403 . S
C492 C493 1.404 . S
C492 C495 1.539 . S
C493 C489 1.408 . S
C493 C492 1.404 . S
C493 H505 0.930 . S
C494 C490 1.524 . S
C494 H506 0.956 . S
C494 H507 0.961 . S
C494 H508 0.961 . S
C495 C492 1.539 . S
C495 H509 0.958 . S
C495 H510 0.961 . S
C495 H511 0.960 . S
H496 C480 0.931 . S
H497 C485 0.929 . S
H498 C486 0.960 . S
H499 C486 0.962 . S
H500 C486 0.960 . S
H501 C487 0.961 . S
H502 C487 0.961 . S
H503 C487 0.961 . S
H504 C488 0.931 . S
H505 C493 0.930 . S
H506 C494 0.956 . S
H507 C494 0.961 . S
H508 C494 0.961 . S
H509 C495 0.958 . S
H510 C495 0.961 . S
H511 C495 0.960 . S
C512 C513 1.391 . S
C512 C514 1.394 . S
C512 H528 0.931 . S
C513 C512 1.391 . S
C513 C517 1.376 . S
C514 C512 1.394 . S
C514 C515 1.369 . S
C514 C518 1.531 . S
C515 C514 1.369 . S
C515 C516 1.410 . S
C515 C523 1.503 . S
C516 C515 1.410 . S
C516 C517 1.392 . S
C516 C519 1.511 . S
C517 C513 1.376 . S
C517 C516 1.392 . S
C517 H529 0.929 . S
C518 C514 1.531 . S
C518 H530 0.960 . S
C518 H531 0.962 . S
C518 H532 0.960 . S
C519 C516 1.511 . S
C519 H533 0.961 . S
C519 H534 0.961 . S
C519 H535 0.961 . S
C520 C521 1.370 . S
C520 C522 1.363 . S
C520 H536 0.931 . S
C521 C520 1.370 . S
C521 C525 1.408 . S
C522 C520 1.363 . S
C522 C523 1.370 . S
C522 C526 1.524 . S
C523 C515 1.503 . S
C523 C522 1.370 . S
C523 C524 1.403 . S
C524 C523 1.403 . S
C524 C525 1.404 . S
C524 C527 1.539 . S
C525 C521 1.408 . S
C525 C524 1.404 . S
C525 H537 0.930 . S
C526 C522 1.524 . S
C526 H538 0.956 . S
C526 H539 0.961 . S
C526 H540 0.961 . S
C527 C524 1.539 . S
C527 H541 0.958 . S
C527 H542 0.961 . S
C527 H543 0.960 . S
H528 C512 0.931 . S
H529 C517 0.929 . S
H530 C518 0.960 . S
H531 C518 0.962 . S
H532 C518 0.960 . S
H533 C519 0.961 . S
H534 C519 0.961 . S
H535 C519 0.961 . S
H536 C520 0.931 . S
H537 C525 0.930 . S
H538 C526 0.956 . S
H539 C526 0.961 . S
H540 C526 0.961 . S
H541 C527 0.958 . S
H542 C527 0.961 . S
H543 C527 0.960 . S
C544 C545 1.391 . S
C544 C546 1.394 . S
C544 H560 0.931 . S
C545 C544 1.391 . S
C545 C549 1.376 . S
C546 C544 1.394 . S
C546 C547 1.369 . S
C546 C550 1.531 . S
C547 C546 1.369 . S
C547 C548 1.410 . S
C547 C555 1.503 . S
C548 C547 1.410 . S
C548 C549 1.392 . S
C548 C551 1.511 . S
C549 C545 1.376 . S
C549 C548 1.392 . S
C549 H561 0.929 . S
C550 C546 1.531 . S
C550 H562 0.960 . S
C550 H563 0.962 . S
C550 H564 0.960 . S
C551 C548 1.511 . S
C551 H565 0.961 . S
C551 H566 0.961 . S
C551 H567 0.961 . S
C552 C553 1.370 . S
C552 C554 1.363 . S
C552 H568 0.931 . S
C553 C552 1.370 . S
C553 C557 1.408 . S
C554 C552 1.363 . S
C554 C555 1.370 . S
C554 C558 1.524 . S
C555 C547 1.503 . S
C555 C554 1.370 . S
C555 C556 1.403 . S
C556 C555 1.403 . S
C556 C557 1.404 . S
C556 C559 1.539 . S
C557 C553 1.408 . S
C557 C556 1.404 . S
C557 H569 0.930 . S
C558 C554 1.524 . S
C558 H570 0.956 . S
C558 H571 0.961 . S
C558 H572 0.961 . S
C559 C556 1.539 . S
C559 H573 0.958 . S
C559 H574 0.961 . S
C559 H575 0.960 . S
H560 C544 0.931 . S
H561 C549 0.929 . S
H562 C550 0.960 . S
H563 C550 0.962 . S
H564 C550 0.960 . S
H565 C551 0.961 . S
H566 C551 0.961 . S
H567 C551 0.961 . S
H568 C552 0.931 . S
H569 C557 0.930 . S
H570 C558 0.956 . S
H571 C558 0.961 . S
H572 C558 0.961 . S
H573 C559 0.958 . S
H574 C559 0.961 . S
H575 C559 0.960 . S
C576 C577 1.391 . S
C576 C578 1.394 . S
C576 H592 0.931 . S
C577 C576 1.391 . S
C577 C581 1.376 . S
C578 C576 1.394 . S
C578 C579 1.369 . S
C578 C582 1.531 . S
C579 C578 1.369 . S
C579 C580 1.410 . S
C579 C587 1.503 . S
C580 C579 1.410 . S
C580 C581 1.392 . S
C580 C583 1.511 . S
C581 C577 1.376 . S
C581 C580 1.392 . S
C581 H593 0.929 . S
C582 C578 1.531 . S
C582 H594 0.960 . S
C582 H595 0.942 1_455 S
C582 H596 0.960 . S
C583 C580 1.511 . S
C583 H597 0.961 . S
C583 H598 0.961 . S
C583 H599 0.961 . S
C584 C585 1.370 . S
C584 C586 1.363 . S
C584 H600 0.931 . S
C585 C584 1.370 . S
C585 C589 1.408 . S
C586 C584 1.363 . S
C586 C587 1.370 . S
C586 C590 1.524 . S
C587 C579 1.503 . S
C587 C586 1.370 . S
C587 C588 1.403 . S
C588 C587 1.403 . S
C588 C589 1.404 . S
C588 C591 1.539 . S
C589 C585 1.408 . S
C589 C588 1.404 . S
C589 H601 0.930 . S
C590 C586 1.524 . S
C590 H602 0.956 1_455 S
C590 H603 0.961 . S
C590 H604 0.961 1_455 S
C591 C588 1.539 . S
C591 H605 0.958 . S
C591 H606 0.961 . S
C591 H607 0.960 . S
H592 C576 0.931 . S
H593 C581 0.929 . S
H594 C582 0.960 . S
H595 C582 0.942 1_655 S
H596 C582 0.960 . S
H597 C583 0.961 . S
H598 C583 0.961 . S
H599 C583 0.961 . S
H600 C584 0.931 . S
H601 C589 0.930 . S
H602 C590 0.956 1_655 S
H603 C590 0.961 . S
H604 C590 0.961 1_655 S
H605 C591 0.958 . S
H606 C591 0.961 . S
H607 C591 0.960 . S
C608 C609 1.391 . S
C608 C610 1.394 . S
C608 H624 0.931 . S
C609 C608 1.391 . S
C609 C613 1.376 . S
C610 C608 1.394 . S
C610 C611 1.369 . S
C610 C614 1.531 . S
C611 C610 1.369 . S
C611 C612 1.410 . S
C611 C619 1.503 . S
C612 C611 1.410 . S
C612 C613 1.392 . S
C612 C615 1.511 . S
C613 C609 1.376 . S
C613 C612 1.392 . S
C613 H625 0.929 . S
C614 C610 1.531 . S
C614 H626 0.960 . S
C614 H627 0.962 . S
C614 H628 0.960 . S
C615 C612 1.511 . S
C615 H629 0.961 . S
C615 H630 0.961 . S
C615 H631 0.961 . S
C616 C617 1.370 . S
C616 C618 1.363 . S
C616 H632 0.931 . S
C617 C616 1.370 . S
C617 C621 1.408 . S
C618 C616 1.363 . S
C618 C619 1.370 . S
C618 C622 1.524 . S
C619 C611 1.503 . S
C619 C618 1.370 . S
C619 C620 1.403 . S
C620 C619 1.403 . S
C620 C621 1.404 . S
C620 C623 1.539 . S
C621 C617 1.408 . S
C621 C620 1.404 . S
C621 H633 0.930 . S
C622 C618 1.524 . S
C622 H634 0.956 . S
C622 H635 0.961 . S
C622 H636 0.961 . S
C623 C620 1.539 . S
C623 H637 0.958 . S
C623 H638 0.961 . S
C623 H639 0.960 . S
H624 C608 0.931 . S
H625 C613 0.929 . S
H626 C614 0.960 . S
H627 C614 0.962 . S
H628 C614 0.960 . S
H629 C615 0.961 . S
H630 C615 0.961 . S
H631 C615 0.961 . S
H632 C616 0.931 . S
H633 C621 0.930 . S
H634 C622 0.956 . S
H635 C622 0.961 . S
H636 C622 0.961 . S
H637 C623 0.958 . S
H638 C623 0.961 . S
H639 C623 0.960 . S
C640 C641 1.391 . S
C640 C642 1.394 . S
C640 H656 0.931 . S
C641 C640 1.391 . S
C641 C645 1.376 . S
C642 C640 1.394 . S
C642 C643 1.369 . S
C642 C646 1.531 . S
C643 C642 1.369 . S
C643 C644 1.410 . S
C643 C651 1.503 . S
C644 C643 1.410 . S
C644 C645 1.392 . S
C644 C647 1.511 . S
C645 C641 1.376 . S
C645 C644 1.392 . S
C645 H657 0.929 . S
C646 C642 1.531 . S
C646 H658 0.960 . S
C646 H659 0.962 . S
C646 H660 0.960 . S
C647 C644 1.511 . S
C647 H661 0.961 . S
C647 H662 0.961 . S
C647 H663 0.961 . S
C648 C649 1.370 . S
C648 C650 1.363 . S
C648 H664 0.931 . S
C649 C648 1.370 . S
C649 C653 1.408 . S
C650 C648 1.363 . S
C650 C651 1.370 . S
C650 C654 1.524 . S
C651 C643 1.503 . S
C651 C650 1.370 . S
C651 C652 1.403 . S
C652 C651 1.403 . S
C652 C653 1.404 . S
C652 C655 1.539 . S
C653 C649 1.408 . S
C653 C652 1.404 . S
C653 H665 0.930 . S
C654 C650 1.524 . S
C654 H666 0.956 . S
C654 H667 0.961 . S
C654 H668 0.961 . S
C655 C652 1.539 . S
C655 H669 0.958 . S
C655 H670 0.961 . S
C655 H671 0.960 . S
H656 C640 0.931 . S
H657 C645 0.929 . S
H658 C646 0.960 . S
H659 C646 0.962 . S
H660 C646 0.960 . S
H661 C647 0.961 . S
H662 C647 0.961 . S
H663 C647 0.961 . S
H664 C648 0.931 . S
H665 C653 0.930 . S
H666 C654 0.956 . S
H667 C654 0.961 . S
H668 C654 0.961 . S
H669 C655 0.958 . S
H670 C655 0.961 . S
H671 C655 0.960 . S
C672 C673 1.391 . S
C672 C674 1.394 . S
C672 H688 0.931 . S
C673 C672 1.391 . S
C673 C677 1.376 . S
C674 C672 1.394 . S
C674 C675 1.369 . S
C674 C678 1.531 . S
C675 C674 1.369 . S
C675 C676 1.410 . S
C675 C683 1.503 . S
C676 C675 1.410 . S
C676 C677 1.392 . S
C676 C679 1.511 . S
C677 C673 1.376 . S
C677 C676 1.392 . S
C677 H689 0.929 . S
C678 C674 1.531 . S
C678 H690 0.960 . S
C678 H691 0.962 . S
C678 H692 0.960 . S
C679 C676 1.511 . S
C679 H693 0.961 . S
C679 H694 0.961 . S
C679 H695 0.961 . S
C680 C681 1.370 . S
C680 C682 1.363 . S
C680 H696 0.931 . S
C681 C680 1.370 . S
C681 C685 1.408 . S
C682 C680 1.363 . S
C682 C683 1.370 . S
C682 C686 1.524 . S
C683 C675 1.503 . S
C683 C682 1.370 . S
C683 C684 1.403 . S
C684 C683 1.403 . S
C684 C685 1.404 . S
C684 C687 1.539 . S
C685 C681 1.408 . S
C685 C684 1.404 . S
C685 H697 0.930 . S
C686 C682 1.524 . S
C686 H698 0.956 . S
C686 H699 0.961 . S
C686 H700 0.961 . S
C687 C684 1.539 . S
C687 H701 0.958 . S
C687 H702 0.961 . S
C687 H703 0.960 . S
H688 C672 0.931 . S
H689 C677 0.929 . S
H690 C678 0.960 . S
H691 C678 0.962 . S
H692 C678 0.960 . S
H693 C679 0.961 . S
H694 C679 0.961 . S
H695 C679 0.961 . S
H696 C680 0.931 . S
H697 C685 0.930 . S
H698 C686 0.956 . S
H699 C686 0.961 . S
H700 C686 0.961 . S
H701 C687 0.958 . S
H702 C687 0.961 . S
H703 C687 0.960 . S
C704 C705 1.391 . S
C704 C706 1.394 . S
C704 H720 0.931 . S
C705 C704 1.391 . S
C705 C709 1.376 . S
C706 C704 1.394 . S
C706 C707 1.369 . S
C706 C710 1.531 . S
C707 C706 1.369 . S
C707 C708 1.410 . S
C707 C715 1.503 . S
C708 C707 1.410 . S
C708 C709 1.392 . S
C708 C711 1.511 . S
C709 C705 1.376 . S
C709 C708 1.392 . S
C709 H721 0.929 . S
C710 C706 1.531 . S
C710 H722 0.960 . S
C710 H723 0.962 . S
C710 H724 0.960 . S
C711 C708 1.511 . S
C711 H725 0.961 . S
C711 H726 0.961 . S
C711 H727 0.961 . S
C712 C713 1.370 . S
C712 C714 1.363 . S
C712 H728 0.931 . S
C713 C712 1.370 . S
C713 C717 1.408 . S
C714 C712 1.363 . S
C714 C715 1.370 . S
C714 C718 1.524 . S
C715 C707 1.503 . S
C715 C714 1.370 . S
C715 C716 1.403 . S
C716 C715 1.403 . S
C716 C717 1.404 . S
C716 C719 1.539 . S
C717 C713 1.408 . S
C717 C716 1.404 . S
C717 H729 0.930 . S
C718 C714 1.524 . S
C718 H730 0.956 . S
C718 H731 0.961 . S
C718 H732 0.961 . S
C719 C716 1.539 . S
C719 H733 0.958 . S
C719 H734 0.961 . S
C719 H735 0.960 . S
H720 C704 0.931 . S
H721 C709 0.929 . S
H722 C710 0.960 . S
H723 C710 0.962 . S
H724 C710 0.960 . S
H725 C711 0.961 . S
H726 C711 0.961 . S
H727 C711 0.961 . S
H728 C712 0.931 . S
H729 C717 0.930 . S
H730 C718 0.956 . S
H731 C718 0.961 . S
H732 C718 0.961 . S
H733 C719 0.958 . S
H734 C719 0.961 . S
H735 C719 0.960 . S
C736 C737 1.391 . S
C736 C738 1.394 . S
C736 H752 0.931 . S
C737 C736 1.391 . S
C737 C741 1.376 . S
C738 C736 1.394 . S
C738 C739 1.369 . S
C738 C742 1.531 . S
C739 C738 1.369 . S
C739 C740 1.410 . S
C739 C747 1.503 . S
C740 C739 1.410 . S
C740 C741 1.392 . S
C740 C743 1.511 . S
C741 C737 1.376 . S
C741 C740 1.392 . S
C741 H753 0.929 . S
C742 C738 1.531 . S
C742 H754 0.960 . S
C742 H755 0.962 . S
C742 H756 0.960 . S
C743 C740 1.511 . S
C743 H757 0.961 . S
C743 H758 0.961 . S
C743 H759 0.961 . S
C744 C745 1.370 . S
C744 C746 1.363 . S
C744 H760 0.931 . S
C745 C744 1.370 . S
C745 C749 1.408 . S
C746 C744 1.363 . S
C746 C747 1.370 . S
C746 C750 1.524 . S
C747 C739 1.503 . S
C747 C746 1.370 . S
C747 C748 1.403 . S
C748 C747 1.403 . S
C748 C749 1.404 . S
C748 C751 1.539 . S
C749 C745 1.408 . S
C749 C748 1.404 . S
C749 H761 0.952 . S
C750 C746 1.524 . S
C750 H762 0.956 . S
C750 H763 0.961 . S
C750 H764 0.961 . S
C751 C748 1.539 . S
C751 H765 0.958 1_655 S
C751 H766 0.961 1_655 S
C751 H767 0.960 . S
H752 C736 0.931 . S
H753 C741 0.929 . S
H754 C742 0.960 . S
H755 C742 0.962 . S
H756 C742 0.960 . S
H757 C743 0.961 . S
H758 C743 0.961 . S
H759 C743 0.961 . S
H760 C744 0.931 . S
H761 C749 0.952 . S
H762 C750 0.956 . S
H763 C750 0.961 . S
H764 C750 0.961 . S
H765 C751 0.958 1_455 S
H766 C751 0.961 1_455 S
H767 C751 0.960 . S
C768 C769 1.391 . S
C768 C770 1.394 . S
C768 H784 0.931 . S
C769 C768 1.391 . S
C769 C773 1.376 . S
C770 C768 1.394 . S
C770 C771 1.369 . S
C770 C774 1.531 . S
C771 C770 1.369 . S
C771 C772 1.410 . S
C771 C779 1.503 . S
C772 C771 1.410 . S
C772 C773 1.392 . S
C772 C775 1.511 . S
C773 C769 1.376 . S
C773 C772 1.392 . S
C773 H785 0.929 . S
C774 C770 1.531 . S
C774 H786 0.960 . S
C774 H787 0.962 . S
C774 H788 0.960 . S
C775 C772 1.511 . S
C775 H789 0.961 . S
C775 H790 0.961 . S
C775 H791 0.961 . S
C776 C777 1.370 . S
C776 C778 1.363 . S
C776 H792 0.931 . S
C777 C776 1.370 . S
C777 C781 1.408 . S
C778 C776 1.363 . S
C778 C779 1.370 . S
C778 C782 1.524 . S
C779 C771 1.503 . S
C779 C778 1.370 . S
C779 C780 1.403 . S
C780 C779 1.403 . S
C780 C781 1.404 . S
C780 C783 1.539 . S
C781 C777 1.408 . S
C781 C780 1.404 . S
C781 H793 0.930 . S
C782 C778 1.524 . S
C782 H794 0.956 . S
C782 H795 0.961 . S
C782 H796 0.961 . S
C783 C780 1.539 . S
C783 H797 0.958 . S
C783 H798 0.961 . S
C783 H799 0.960 . S
H784 C768 0.931 . S
H785 C773 0.929 . S
H786 C774 0.960 . S
H787 C774 0.962 . S
H788 C774 0.960 . S
H789 C775 0.961 . S
H790 C775 0.961 . S
H791 C775 0.961 . S
H792 C776 0.931 . S
H793 C781 0.930 . S
H794 C782 0.956 . S
H795 C782 0.961 . S
H796 C782 0.961 . S
H797 C783 0.958 . S
H798 C783 0.961 . S
H799 C783 0.960 . S
C800 C801 1.391 . S
C800 C802 1.394 . S
C800 H816 0.931 . S
C801 C800 1.391 . S
C801 C805 1.376 . S
C802 C800 1.394 . S
C802 C803 1.369 . S
C802 C806 1.531 . S
C803 C802 1.369 . S
C803 C804 1.410 . S
C803 C811 1.503 . S
C804 C803 1.410 . S
C804 C805 1.392 . S
C804 C807 1.511 . S
C805 C801 1.376 . S
C805 C804 1.392 . S
C805 H817 0.929 . S
C806 C802 1.531 . S
C806 H818 0.960 . S
C806 H819 0.962 . S
C806 H820 0.960 . S
C807 C804 1.511 . S
C807 H821 0.961 . S
C807 H822 0.961 . S
C807 H823 0.961 . S
C808 C809 1.370 . S
C808 C810 1.363 . S
C808 H824 0.931 . S
C809 C808 1.370 . S
C809 C813 1.408 . S
C810 C808 1.363 . S
C810 C811 1.370 . S
C810 C814 1.524 . S
C811 C803 1.503 . S
C811 C810 1.370 . S
C811 C812 1.403 . S
C812 C811 1.403 . S
C812 C813 1.404 . S
C812 C815 1.539 . S
C813 C809 1.408 . S
C813 C812 1.404 . S
C813 H825 0.930 . S
C814 C810 1.524 . S
C814 H826 0.956 . S
C814 H827 0.961 . S
C814 H828 0.961 . S
C815 C812 1.539 . S
C815 H829 0.958 . S
C815 H830 0.961 . S
C815 H831 0.960 . S
H816 C800 0.931 . S
H817 C805 0.929 . S
H818 C806 0.960 . S
H819 C806 0.962 . S
H820 C806 0.960 . S
H821 C807 0.961 . S
H822 C807 0.961 . S
H823 C807 0.961 . S
H824 C808 0.931 . S
H825 C813 0.930 . S
H826 C814 0.956 . S
H827 C814 0.961 . S
H828 C814 0.961 . S
H829 C815 0.958 . S
H830 C815 0.961 . S
H831 C815 0.960 . S
C832 C833 1.391 . S
C832 C834 1.394 . S
C832 H848 0.931 . S
C833 C832 1.391 . S
C833 C837 1.376 . S
C834 C832 1.394 . S
C834 C835 1.369 . S
C834 C838 1.531 . S
C835 C834 1.369 . S
C835 C836 1.410 . S
C835 C843 1.503 . S
C836 C835 1.410 . S
C836 C837 1.392 . S
C836 C839 1.511 . S
C837 C833 1.376 . S
C837 C836 1.392 . S
C837 H849 0.929 . S
C838 C834 1.531 . S
C838 H850 0.960 . S
C838 H851 0.962 . S
C838 H852 0.960 . S
C839 C836 1.511 . S
C839 H853 0.961 . S
C839 H854 0.961 . S
C839 H855 0.961 . S
C840 C841 1.370 . S
C840 C842 1.363 . S
C840 H856 0.931 . S
C841 C840 1.370 . S
C841 C845 1.408 . S
C842 C840 1.363 . S
C842 C843 1.370 . S
C842 C846 1.524 . S
C843 C835 1.503 . S
C843 C842 1.370 . S
C843 C844 1.403 . S
C844 C843 1.403 . S
C844 C845 1.404 . S
C844 C847 1.539 . S
C845 C841 1.408 . S
C845 C844 1.404 . S
C845 H857 0.930 . S
C846 C842 1.524 . S
C846 H858 0.956 . S
C846 H859 0.961 . S
C846 H860 0.961 . S
C847 C844 1.539 . S
C847 H861 0.958 . S
C847 H862 0.961 . S
C847 H863 0.960 . S
H848 C832 0.931 . S
H849 C837 0.929 . S
H850 C838 0.960 . S
H851 C838 0.962 . S
H852 C838 0.960 . S
H853 C839 0.961 . S
H854 C839 0.961 . S
H855 C839 0.961 . S
H856 C840 0.931 . S
H857 C845 0.930 . S
H858 C846 0.956 . S
H859 C846 0.961 . S
H860 C846 0.961 . S
H861 C847 0.958 . S
H862 C847 0.961 . S
H863 C847 0.960 . S
C864 C865 1.391 . S
C864 C866 1.394 . S
C864 H880 0.931 . S
C865 C864 1.391 . S
C865 C869 1.376 . S
C866 C864 1.394 . S
C866 C867 1.369 . S
C866 C870 1.531 . S
C867 C866 1.369 . S
C867 C868 1.410 . S
C867 C875 1.503 . S
C868 C867 1.410 . S
C868 C869 1.392 . S
C868 C871 1.511 . S
C869 C865 1.376 . S
C869 C868 1.392 . S
C869 H881 0.929 . S
C870 C866 1.531 . S
C870 H882 0.960 . S
C870 H883 0.962 . S
C870 H884 0.960 . S
C871 C868 1.511 . S
C871 H885 0.961 . S
C871 H886 0.961 . S
C871 H887 0.961 . S
C872 C873 1.370 . S
C872 C874 1.363 . S
C872 H888 0.931 . S
C873 C872 1.370 . S
C873 C877 1.408 . S
C874 C872 1.363 . S
C874 C875 1.370 . S
C874 C878 1.524 . S
C875 C867 1.503 . S
C875 C874 1.370 . S
C875 C876 1.403 . S
C876 C875 1.403 . S
C876 C877 1.404 . S
C876 C879 1.539 . S
C877 C873 1.408 . S
C877 C876 1.404 . S
C877 H889 0.930 . S
C878 C874 1.524 . S
C878 H890 0.956 . S
C878 H891 0.961 . S
C878 H892 0.961 . S
C879 C876 1.539 . S
C879 H893 0.958 . S
C879 H894 0.961 . S
C879 H895 0.960 . S
H880 C864 0.931 . S
H881 C869 0.929 . S
H882 C870 0.960 . S
H883 C870 0.962 . S
H884 C870 0.960 . S
H885 C871 0.961 . S
H886 C871 0.961 . S
H887 C871 0.961 . S
H888 C872 0.931 . S
H889 C877 0.930 . S
H890 C878 0.956 . S
H891 C878 0.961 . S
H892 C878 0.961 . S
H893 C879 0.958 . S
H894 C879 0.961 . S
H895 C879 0.960 . S
C896 C897 1.391 . S
C896 C898 1.394 . S
C896 H912 0.931 . S
C897 C896 1.391 . S
C897 C901 1.376 . S
C898 C896 1.394 . S
C898 C899 1.369 . S
C898 C902 1.531 . S
C899 C898 1.369 . S
C899 C900 1.410 . S
C899 C907 1.503 . S
C900 C899 1.410 . S
C900 C901 1.392 . S
C900 C903 1.511 . S
C901 C897 1.376 . S
C901 C900 1.392 . S
C901 H913 0.929 . S
C902 C898 1.531 . S
C902 H914 0.960 . S
C902 H915 0.962 . S
C902 H916 0.960 . S
C903 C900 1.511 . S
C903 H917 0.961 . S
C903 H918 0.961 . S
C903 H919 0.961 . S
C904 C905 1.370 . S
C904 C906 1.363 . S
C904 H920 0.931 . S
C905 C904 1.370 . S
C905 C909 1.408 . S
C906 C904 1.363 . S
C906 C907 1.370 . S
C906 C910 1.524 . S
C907 C899 1.503 . S
C907 C906 1.370 . S
C907 C908 1.403 . S
C908 C907 1.403 . S
C908 C909 1.404 . S
C908 C911 1.539 . S
C909 C905 1.408 . S
C909 C908 1.404 . S
C909 H921 0.930 . S
C910 C906 1.524 . S
C910 H922 0.956 . S
C910 H923 0.961 . S
C910 H924 0.961 . S
C911 C908 1.539 . S
C911 H925 0.958 . S
C911 H926 0.961 . S
C911 H927 0.960 . S
H912 C896 0.931 . S
H913 C901 0.929 . S
H914 C902 0.960 . S
H915 C902 0.962 . S
H916 C902 0.960 . S
H917 C903 0.961 . S
H918 C903 0.961 . S
H919 C903 0.961 . S
H920 C904 0.931 . S
H921 C909 0.930 . S
H922 C910 0.956 . S
H923 C910 0.961 . S
H924 C910 0.961 . S
H925 C911 0.958 . S
H926 C911 0.961 . S
H927 C911 0.960 . S
C928 C929 1.391 . S
C928 C930 1.394 . S
C928 H944 0.931 . S
C929 C928 1.391 . S
C929 C933 1.376 . S
C930 C928 1.394 . S
C930 C931 1.369 . S
C930 C934 1.531 . S
C931 C930 1.369 . S
C931 C932 1.410 . S
C931 C939 1.503 . S
C932 C931 1.410 . S
C932 C933 1.392 . S
C932 C935 1.511 . S
C933 C929 1.376 . S
C933 C932 1.392 . S
C933 H945 0.929 . S
C934 C930 1.531 . S
C934 H946 0.960 . S
C934 H947 0.962 . S
C934 H948 0.960 . S
C935 C932 1.511 . S
C935 H949 0.961 . S
C935 H950 0.961 . S
C935 H951 0.961 . S
C936 C937 1.370 . S
C936 C938 1.363 . S
C936 H952 0.931 . S
C937 C936 1.370 . S
C937 C941 1.408 . S
C938 C936 1.363 . S
C938 C939 1.370 . S
C938 C942 1.524 . S
C939 C931 1.503 . S
C939 C938 1.370 . S
C939 C940 1.403 . S
C940 C939 1.403 . S
C940 C941 1.404 . S
C940 C943 1.539 . S
C941 C937 1.408 . S
C941 C940 1.404 . S
C941 H953 0.930 . S
C942 C938 1.524 . S
C942 H954 0.956 . S
C942 H955 0.961 . S
C942 H956 0.961 . S
C943 C940 1.539 . S
C943 H957 0.958 . S
C943 H958 0.961 . S
C943 H959 0.960 . S
H944 C928 0.931 . S
H945 C933 0.929 . S
H946 C934 0.960 . S
H947 C934 0.962 . S
H948 C934 0.960 . S
H949 C935 0.961 . S
H950 C935 0.961 . S
H951 C935 0.961 . S
H952 C936 0.931 . S
H953 C941 0.930 . S
H954 C942 0.956 . S
H955 C942 0.961 . S
H956 C942 0.961 . S
H957 C943 0.958 . S
H958 C943 0.961 . S
H959 C943 0.960 . S
C960 C961 1.391 . S
C960 C962 1.394 . S
C960 H976 0.931 . S
C961 C960 1.391 . S
C961 C965 1.376 . S
C962 C960 1.394 . S
C962 C963 1.369 . S
C962 C966 1.531 . S
C963 C962 1.369 . S
C963 C964 1.410 . S
C963 C971 1.503 . S
C964 C963 1.410 . S
C964 C965 1.392 . S
C964 C967 1.511 1_655 S
C965 C961 1.376 . S
C965 C964 1.392 . S
C965 H977 0.929 . S
C966 C962 1.531 . S
C966 H978 0.960 . S
C966 H979 0.962 . S
C966 H980 0.960 . S
C967 C964 1.511 1_455 S
C967 H981 0.961 . S
C967 H982 0.961 . S
C967 H983 0.961 . S
C968 C969 1.370 . S
C968 C970 1.363 . S
C968 H984 0.931 . S
C969 C968 1.370 . S
C969 C973 1.408 . S
C970 C968 1.363 . S
C970 C971 1.370 . S
C970 C974 1.524 . S
C971 C963 1.503 . S
C971 C970 1.370 . S
C971 C972 1.403 . S
C972 C971 1.403 . S
C972 C973 1.404 . S
C972 C975 1.539 . S
C973 C969 1.408 . S
C973 C972 1.404 . S
C973 H985 0.930 . S
C974 C970 1.524 . S
C974 H986 0.956 . S
C974 H987 0.961 . S
C974 H988 0.961 . S
C975 C972 1.539 . S
C975 H989 0.958 . S
C975 H990 0.961 . S
C975 H991 0.960 . S
H976 C960 0.931 . S
H977 C965 0.929 . S
H978 C966 0.960 . S
H979 C966 0.962 . S
H980 C966 0.960 . S
H981 C967 0.961 . S
H982 C967 0.961 . S
H983 C967 0.961 . S
H984 C968 0.931 . S
H985 C973 0.930 . S
H986 C974 0.956 . S
H987 C974 0.961 . S
H988 C974 0.961 . S
H989 C975 0.958 . S
H990 C975 0.961 . S
H991 C975 0.960 . S
C992 C993 1.391 . S
C992 C994 1.394 . S
C992 H1008 0.931 . S
C993 C992 1.391 . S
C993 C997 1.376 . S
C994 C992 1.394 . S
C994 C995 1.369 . S
C994 C998 1.531 . S
C995 C994 1.369 . S
C995 C996 1.410 . S
C995 C1003 1.503 . S
C996 C995 1.410 . S
C996 C997 1.392 . S
C996 C999 1.511 . S
C997 C993 1.376 . S
C997 C996 1.392 . S
C997 H1009 0.929 . S
C998 C994 1.531 . S
C998 H1010 0.960 . S
C998 H1011 0.962 . S
C998 H1012 0.960 . S
C999 C996 1.511 . S
C999 H1013 0.961 . S
C999 H1014 0.961 . S
C999 H1015 0.961 . S
C1000 C1001 1.370 . S
C1000 C1002 1.363 . S
C1000 H1016 0.931 . S
C1001 C1000 1.370 . S
C1001 C1005 1.408 . S
C1002 C1000 1.363 . S
C1002 C1003 1.370 . S
C1002 C1006 1.524 . S
C1003 C995 1.503 . S
C1003 C1002 1.370 . S
C1003 C1004 1.403 . S
C1004 C1003 1.403 . S
C1004 C1005 1.404 . S
C1004 C1007 1.539 . S
C1005 C1001 1.408 . S
C1005 C1004 1.404 . S
C1005 H1017 0.930 . S
C1006 C1002 1.524 . S
C1006 H1018 0.956 . S
C1006 H1019 0.961 . S
C1006 H1020 0.961 . S
C1007 C1004 1.539 . S
C1007 H1021 0.958 . S
C1007 H1022 0.961 . S
C1007 H1023 0.960 . S
H1008 C992 0.931 . S
H1009 C997 0.929 . S
H1010 C998 0.960 . S
H1011 C998 0.962 . S
H1012 C998 0.960 . S
H1013 C999 0.961 . S
H1014 C999 0.961 . S
H1015 C999 0.961 . S
H1016 C1000 0.931 . S
H1017 C1005 0.930 . S
H1018 C1006 0.956 . S
H1019 C1006 0.961 . S
H1020 C1006 0.961 . S
H1021 C1007 0.958 . S
H1022 C1007 0.961 . S
H1023 C1007 0.960 . S
C1024 C1025 1.391 . S
C1024 C1026 1.394 . S
C1024 H1040 0.931 . S
C1025 C1024 1.391 . S
C1025 C1029 1.376 . S
C1026 C1024 1.394 . S
C1026 C1027 1.369 . S
C1026 C1030 1.531 . S
C1027 C1026 1.369 . S
C1027 C1028 1.410 . S
C1027 C1035 1.503 . S
C1028 C1027 1.410 . S
C1028 C1029 1.392 . S
C1028 C1031 1.511 . S
C1029 C1025 1.376 . S
C1029 C1028 1.392 . S
C1029 H1041 0.929 . S
C1030 C1026 1.531 . S
C1030 H1042 0.960 . S
C1030 H1043 0.962 . S
C1030 H1044 0.960 . S
C1031 C1028 1.511 . S
C1031 H1045 0.961 . S
C1031 H1046 0.961 . S
C1031 H1047 0.961 . S
C1032 C1033 1.370 . S
C1032 C1034 1.363 . S
C1032 H1048 0.931 . S
C1033 C1032 1.370 . S
C1033 C1037 1.408 . S
C1034 C1032 1.363 . S
C1034 C1035 1.370 . S
C1034 C1038 1.524 . S
C1035 C1027 1.503 . S
C1035 C1034 1.370 . S
C1035 C1036 1.403 . S
C1036 C1035 1.403 . S
C1036 C1037 1.404 . S
C1036 C1039 1.539 . S
C1037 C1033 1.408 . S
C1037 C1036 1.404 . S
C1037 H1049 0.930 . S
C1038 C1034 1.524 . S
C1038 H1050 0.956 . S
C1038 H1051 0.961 . S
C1038 H1052 0.961 . S
C1039 C1036 1.539 . S
C1039 H1053 0.958 . S
C1039 H1054 0.961 . S
C1039 H1055 0.960 . S
H1040 C1024 0.931 . S
H1041 C1029 0.929 . S
H1042 C1030 0.960 . S
H1043 C1030 0.962 . S
H1044 C1030 0.960 . S
H1045 C1031 0.961 . S
H1046 C1031 0.961 . S
H1047 C1031 0.961 . S
H1048 C1032 0.931 . S
H1049 C1037 0.930 . S
H1050 C1038 0.956 . S
H1051 C1038 0.961 . S
H1052 C1038 0.961 . S
H1053 C1039 0.958 . S
H1054 C1039 0.961 . S
H1055 C1039 0.960 . S
C1056 C1057 1.391 . S
C1056 C1058 1.394 . S
C1056 H1072 0.931 . S
C1057 C1056 1.391 . S
C1057 C1061 1.376 . S
C1058 C1056 1.394 . S
C1058 C1059 1.369 . S
C1058 C1062 1.531 . S
C1059 C1058 1.369 . S
C1059 C1060 1.410 . S
C1059 C1067 1.503 . S
C1060 C1059 1.410 . S
C1060 C1061 1.392 . S
C1060 C1063 1.511 . S
C1061 C1057 1.376 . S
C1061 C1060 1.392 . S
C1061 H1073 0.929 . S
C1062 C1058 1.531 . S
C1062 H1074 0.960 . S
C1062 H1075 0.962 . S
C1062 H1076 0.960 . S
C1063 C1060 1.511 . S
C1063 H1077 0.961 . S
C1063 H1078 0.961 . S
C1063 H1079 0.961 . S
C1064 C1065 1.370 . S
C1064 C1066 1.363 . S
C1064 H1080 0.931 . S
C1065 C1064 1.370 . S
C1065 C1069 1.408 . S
C1066 C1064 1.363 . S
C1066 C1067 1.370 . S
C1066 C1070 1.524 . S
C1067 C1059 1.503 . S
C1067 C1066 1.370 . S
C1067 C1068 1.403 . S
C1068 C1067 1.403 . S
C1068 C1069 1.404 . S
C1068 C1071 1.539 . S
C1069 C1065 1.408 . S
C1069 C1068 1.404 . S
C1069 H1081 0.930 . S
C1070 C1066 1.524 . S
C1070 H1082 0.956 . S
C1070 H1083 0.961 . S
C1070 H1084 0.961 . S
C1071 C1068 1.539 . S
C1071 H1085 0.958 . S
C1071 H1086 0.961 . S
C1071 H1087 0.960 . S
H1072 C1056 0.931 . S
H1073 C1061 0.929 . S
H1074 C1062 0.960 . S
H1075 C1062 0.962 . S
H1076 C1062 0.960 . S
H1077 C1063 0.961 . S
H1078 C1063 0.961 . S
H1079 C1063 0.961 . S
H1080 C1064 0.931 . S
H1081 C1069 0.930 . S
H1082 C1070 0.956 . S
H1083 C1070 0.961 . S
H1084 C1070 0.961 . S
H1085 C1071 0.958 . S
H1086 C1071 0.961 . S
H1087 C1071 0.960 . S
C1088 C1089 1.391 . S
C1088 C1090 1.394 . S
C1088 H1104 0.931 . S
C1089 C1088 1.391 . S
C1089 C1093 1.376 . S
C1090 C1088 1.394 . S
C1090 C1091 1.369 . S
C1090 C1094 1.531 . S
C1091 C1090 1.369 . S
C1091 C1092 1.410 . S
C1091 C1099 1.503 . S
C1092 C1091 1.410 . S
C1092 C1093 1.392 . S
C1092 C1095 1.511 . S
C1093 C1089 1.376 . S
C1093 C1092 1.392 . S
C1093 H1105 0.929 . S
C1094 C1090 1.531 . S
C1094 H1106 0.960 . S
C1094 H1107 0.962 . S
C1094 H1108 0.960 . S
C1095 C1092 1.511 . S
C1095 H1109 0.961 . S
C1095 H1110 0.961 . S
C1095 H1111 0.961 . S
C1096 C1097 1.370 . S
C1096 C1098 1.363 . S
C1096 H1112 0.931 . S
C1097 C1096 1.370 . S
C1097 C1101 1.408 . S
C1098 C1096 1.363 . S
C1098 C1099 1.370 . S
C1098 C1102 1.524 . S
C1099 C1091 1.503 . S
C1099 C1098 1.370 . S
C1099 C1100 1.403 . S
C1100 C1099 1.403 . S
C1100 C1101 1.404 . S
C1100 C1103 1.539 . S
C1101 C1097 1.408 . S
C1101 C1100 1.404 . S
C1101 H1113 0.930 . S
C1102 C1098 1.524 . S
C1102 H1114 0.956 . S
C1102 H1115 0.961 . S
C1102 H1116 0.961 . S
C1103 C1100 1.539 . S
C1103 H1117 0.958 . S
C1103 H1118 0.961 . S
C1103 H1119 0.960 . S
H1104 C1088 0.931 . S
H1105 C1093 0.929 . S
H1106 C1094 0.960 . S
H1107 C1094 0.962 . S
H1108 C1094 0.960 . S
H1109 C1095 0.961 . S
H1110 C1095 0.961 . S
H1111 C1095 0.961 . S
H1112 C1096 0.931 . S
H1113 C1101 0.930 . S
H1114 C1102 0.956 . S
H1115 C1102 0.961 . S
H1116 C1102 0.961 . S
H1117 C1103 0.958 . S
H1118 C1103 0.961 . S
H1119 C1103 0.960 . S
C1120 C1121 1.391 . S
C1120 C1122 1.394 . S
C1120 H1136 0.931 . S
C1121 C1120 1.391 . S
C1121 C1125 1.376 . S
C1122 C1120 1.394 . S
C1122 C1123 1.369 . S
C1122 C1126 1.531 . S
C1123 C1122 1.369 . S
C1123 C1124 1.410 . S
C1123 C1131 1.503 . S
C1124 C1123 1.410 . S
C1124 C1125 1.392 . S
C1124 C1127 1.511 . S
C1125 C1121 1.376 . S
C1125 C1124 1.392 . S
C1125 H1137 0.929 . S
C1126 C1122 1.531 . S
C1126 H1138 0.960 . S
C1126 H1139 0.962 . S
C1126 H1140 0.960 . S
C1127 C1124 1.511 . S
C1127 H1141 0.961 . S
C1127 H1142 0.961 . S
C1127 H1143 0.961 . S
C1128 C1129 1.370 . S
C1128 C1130 1.363 . S
C1128 H1144 0.931 . S
C1129 C1128 1.370 . S
C1129 C1133 1.408 . S
C1130 C1128 1.363 . S
C1130 C1131 1.370 . S
C1130 C1134 1.524 . S
C1131 C1123 1.503 . S
C1131 C1130 1.370 . S
C1131 C1132 1.403 . S
C1132 C1131 1.403 . S
C1132 C1133 1.404 . S
C1132 C1135 1.539 . S
C1133 C1129 1.408 . S
C1133 C1132 1.404 . S
C1133 H1145 0.930 . S
C1134 C1130 1.524 . S
C1134 H1146 0.956 . S
C1134 H1147 0.961 . S
C1134 H1148 0.961 . S
C1135 C1132 1.539 . S
C1135 H1149 0.958 . S
C1135 H1150 0.961 . S
C1135 H1151 0.960 . S
H1136 C1120 0.931 . S
H1137 C1125 0.929 . S
H1138 C1126 0.960 . S
H1139 C1126 0.962 . S
H1140 C1126 0.960 . S
H1141 C1127 0.961 . S
H1142 C1127 0.961 . S
H1143 C1127 0.961 . S
H1144 C1128 0.931 . S
H1145 C1133 0.930 . S
H1146 C1134 0.956 . S
H1147 C1134 0.961 . S
H1148 C1134 0.961 . S
H1149 C1135 0.958 . S
H1150 C1135 0.961 . S
H1151 C1135 0.960 . S
C1152 C1153 1.391 . S
C1152 C1154 1.394 . S
C1152 H1168 0.931 . S
C1153 C1152 1.391 . S
C1153 C1157 1.376 . S
C1154 C1152 1.394 . S
C1154 C1155 1.369 . S
C1154 C1158 1.531 . S
C1155 C1154 1.369 . S
C1155 C1156 1.410 . S
C1155 C1163 1.503 . S
C1156 C1155 1.410 . S
C1156 C1157 1.392 . S
C1156 C1159 1.511 . S
C1157 C1153 1.376 . S
C1157 C1156 1.392 . S
C1157 H1169 0.929 . S
C1158 C1154 1.531 . S
C1158 H1170 0.960 . S
C1158 H1171 0.962 . S
C1158 H1172 0.960 . S
C1159 C1156 1.511 . S
C1159 H1173 0.961 . S
C1159 H1174 0.961 . S
C1159 H1175 0.961 . S
C1160 C1161 1.370 . S
C1160 C1162 1.363 . S
C1160 H1176 0.931 . S
C1161 C1160 1.370 . S
C1161 C1165 1.408 . S
C1162 C1160 1.363 . S
C1162 C1163 1.370 . S
C1162 C1166 1.524 . S
C1163 C1155 1.503 . S
C1163 C1162 1.370 . S
C1163 C1164 1.403 . S
C1164 C1163 1.403 . S
C1164 C1165 1.404 . S
C1164 C1167 1.539 . S
C1165 C1161 1.408 . S
C1165 C1164 1.404 . S
C1165 H1177 0.930 . S
C1166 C1162 1.524 . S
C1166 H1178 0.956 . S
C1166 H1179 0.961 . S
C1166 H1180 0.961 . S
C1167 C1164 1.539 . S
C1167 H1181 0.958 . S
C1167 H1182 0.961 . S
C1167 H1183 0.960 . S
H1168 C1152 0.931 . S
H1169 C1157 0.929 . S
H1170 C1158 0.960 . S
H1171 C1158 0.962 . S
H1172 C1158 0.960 . S
H1173 C1159 0.961 . S
H1174 C1159 0.961 . S
H1175 C1159 0.961 . S
H1176 C1160 0.931 . S
H1177 C1165 0.930 . S
H1178 C1166 0.956 . S
H1179 C1166 0.961 . S
H1180 C1166 0.961 . S
H1181 C1167 0.958 . S
H1182 C1167 0.961 . S
H1183 C1167 0.960 . S
C417 C29 1.312 . S
C425 C271 1.280 . S
C449 C49 1.032 . S
C457 C311 1.190 . S
C489 C345 2.304 . S
C481 C93 2.311 . S
C513 C119 2.580 . S
C521 C386 2.545 . S
C553 C306 1.336 . S
C545 C17 1.328 . S
C585 C266 2.088 . S
C577 C61 1.805 . S
C617 C394 1.594 . S
C609 C81 1.590 . S
C649 C355 1.837 . S
C641 C125 1.907 . S
C673 C23 1.339 . S
C681 C391 1.315 . S
C713 C314 1.968 . S
C705 C87 2.015 . S
C737 C113 2.468 . S
C745 C274 2.376 . S
C769 C55 1.426 . S
C777 C342 1.554 . S
C809 C262 1.276 . S
C801 C157 1.226 . S
C833 C189 1.280 . S
C841 C302 1.239 . S
C865 C221 2.202 . S
C873 C354 2.262 . S
C897 C253 2.623 . S
C905 C395 2.617 . S
C929 C145 1.303 . S
C937 C315 1.442 . S
C969 C275 2.052 . S
C961 C183 2.015 . S
C1001 C385 1.618 . S
C993 C209 1.530 . S
C1033 C346 1.825 . S
C1025 C247 1.868 . S
C1057 C151 1.200 . S
C1065 C382 1.311 . S
C1097 C305 1.953 . S
C1089 C215 1.970 . S
C1129 C265 2.375 . S
C1121 C241 2.402 . S
C1153 C177 1.555 . S
C1161 C351 1.569 . S
