# Generated by pormake.
# Topology eea, (3,6)-cn, num edge types: 1
# Building blocks:
#     Node 0, Type 0, BuildingBlock: MIDCAF_clean_linker_0, # of connection points: 3
#     Node 1, Type 0, BuildingBlock: MIDCAF_clean_linker_0, # of connection points: 3
#     Node 2, Type 0, BuildingBlock: MIDCAF_clean_linker_0, # of connection points: 3
#     Node 3, Type 0, BuildingBlock: MIDCAF_clean_linker_0, # of connection points: 3
#     Node 4, Type 0, BuildingBlock: MIDCAF_clean_linker_0, # of connection points: 3
#     Node 5, Type 0, BuildingBlock: MIDCAF_clean_linker_0, # of connection points: 3
#     Node 6, Type 0, BuildingBlock: MIDCAF_clean_linker_0, # of connection points: 3
#     Node 7, Type 0, BuildingBlock: MIDCAF_clean_linker_0, # of connection points: 3
#     Node 8, Type 0, BuildingBlock: MIDCAF_clean_linker_0, # of connection points: 3
#     Node 9, Type 0, BuildingBlock: MIDCAF_clean_linker_0, # of connection points: 3
#     Node 10, Type 0, BuildingBlock: MIDCAF_clean_linker_0, # of connection points: 3
#     Node 11, Type 0, BuildingBlock: MIDCAF_clean_linker_0, # of connection points: 3
#     Node 12, Type 0, BuildingBlock: MIDCAF_clean_linker_0, # of connection points: 3
#     Node 13, Type 0, BuildingBlock: MIDCAF_clean_linker_0, # of connection points: 3
#     Node 14, Type 0, BuildingBlock: MIDCAF_clean_linker_0, # of connection points: 3
#     Node 15, Type 0, BuildingBlock: MIDCAF_clean_linker_0, # of connection points: 3
#     Node 16, Type 0, BuildingBlock: MIDCAF_clean_linker_0, # of connection points: 3
#     Node 17, Type 0, BuildingBlock: MIDCAF_clean_linker_0, # of connection points: 3
#     Node 18, Type 1, BuildingBlock: KUMBOL_clean_sbu_0, # of connection points: 6
#     Node 19, Type 1, BuildingBlock: KUMBOL_clean_sbu_0, # of connection points: 6
#     Node 20, Type 1, BuildingBlock: KUMBOL_clean_sbu_0, # of connection points: 6
#     Node 21, Type 1, BuildingBlock: KUMBOL_clean_sbu_0, # of connection points: 6
#     Node 22, Type 1, BuildingBlock: KUMBOL_clean_sbu_0, # of connection points: 6
#     Node 23, Type 1, BuildingBlock: KUMBOL_clean_sbu_0, # of connection points: 6
#     Node 24, Type 1, BuildingBlock: KUMBOL_clean_sbu_0, # of connection points: 6
#     Node 25, Type 1, BuildingBlock: KUMBOL_clean_sbu_0, # of connection points: 6
#     Node 26, Type 1, BuildingBlock: KUMBOL_clean_sbu_0, # of connection points: 6
#     Edge 27, Type (0, 1), None
#     Edge 28, Type (0, 1), None
#     Edge 29, Type (0, 1), None
#     Edge 30, Type (0, 1), None
#     Edge 31, Type (0, 1), None
#     Edge 32, Type (0, 1), None
#     Edge 33, Type (0, 1), None
#     Edge 34, Type (0, 1), None
#     Edge 35, Type (0, 1), None
#     Edge 36, Type (0, 1), None
#     Edge 37, Type (0, 1), None
#     Edge 38, Type (0, 1), None
#     Edge 39, Type (0, 1), None
#     Edge 40, Type (0, 1), None
#     Edge 41, Type (0, 1), None
#     Edge 42, Type (0, 1), None
#     Edge 43, Type (0, 1), None
#     Edge 44, Type (0, 1), None
#     Edge 45, Type (0, 1), None
#     Edge 46, Type (0, 1), None
#     Edge 47, Type (0, 1), None
#     Edge 48, Type (0, 1), None
#     Edge 49, Type (0, 1), None
#     Edge 50, Type (0, 1), None
#     Edge 51, Type (0, 1), None
#     Edge 52, Type (0, 1), None
#     Edge 53, Type (0, 1), None
#     Edge 54, Type (0, 1), None
#     Edge 55, Type (0, 1), None
#     Edge 56, Type (0, 1), None
#     Edge 57, Type (0, 1), None
#     Edge 58, Type (0, 1), None
#     Edge 59, Type (0, 1), None
#     Edge 60, Type (0, 1), None
#     Edge 61, Type (0, 1), None
#     Edge 62, Type (0, 1), None
#     Edge 63, Type (0, 1), None
#     Edge 64, Type (0, 1), None
#     Edge 65, Type (0, 1), None
#     Edge 66, Type (0, 1), None
#     Edge 67, Type (0, 1), None
#     Edge 68, Type (0, 1), None
#     Edge 69, Type (0, 1), None
#     Edge 70, Type (0, 1), None
#     Edge 71, Type (0, 1), None
#     Edge 72, Type (0, 1), None
#     Edge 73, Type (0, 1), None
#     Edge 74, Type (0, 1), None
#     Edge 75, Type (0, 1), None
#     Edge 76, Type (0, 1), None
#     Edge 77, Type (0, 1), None
#     Edge 78, Type (0, 1), None
#     Edge 79, Type (0, 1), None
#     Edge 80, Type (0, 1), None
# Relax obj value: 0.007
# Max RMSD: 0.109
# Mean RMSD: 0.092
data_MOF--net-eea--node1-KUMBOL_clean_sbu_0--node2-MIDCAF_clean_linker_0--edge1-none
_symmetry_space_group_name_H-M    P1
_symmetry_Int_Tables_number       1
_symmetry_cell_setting            triclinic
loop_
_symmetry_equiv_pos_as_xyz
'x, y, z'
_cell_length_a     32.895449
_cell_length_b     34.154617
_cell_length_c     53.463289
_cell_angle_alpha  89.400812
_cell_angle_beta   89.901803
_cell_angle_gamma 119.91976
loop_
_atom_site_label
_atom_site_type_symbol
_atom_site_fract_x
_atom_site_fract_y
_atom_site_fract_z
_atom_type_partial_charge
C0 C 0.24326 0.97173 0.40169 0.0
C1 C 0.20835 0.95463 0.38328 0.0
C2 C 0.18637 0.97942 0.37656 0.0
C3 C 0.19973 0.02089 0.38759 0.0
H4 H 0.18393 0.13113 0.38079 0.0
H5 H 0.15939 0.18063 0.36153 0.0
H6 H 0.26067 0.29159 0.40589 0.0
H7 H 0.28451 0.24187 0.42553 0.0
H8 H 0.35256 0.2211 0.46479 0.0
H9 H 0.39772 0.24106 0.50368 0.0
H10 H 0.33488 0.09978 0.52342 0.0
H11 H 0.29067 0.07958 0.48448 0.0
H12 H 0.28351 0.02534 0.42693 0.0
H13 H 0.26078 0.95342 0.40741 0.0
H14 H 0.15873 0.96688 0.36281 0.0
H15 H 0.18222 0.03921 0.38185 0.0
N16 N 0.23691 0.111 0.40663 0.0
N17 N 0.27801 0.16479 0.43739 0.0
N18 N 0.27607 0.09516 0.43817 0.0
C19 C 0.25096 0.15218 0.41653 0.0
C20 C 0.29041 0.1362 0.44837 0.0
C21 C 0.24953 0.08244 0.41722 0.0
C22 C 0.23636 0.18256 0.4047 0.0
C23 C 0.20114 0.16615 0.38639 0.0
C24 C 0.18712 0.19461 0.37522 0.0
C25 C 0.2084 0.24026 0.38186 0.0
C26 C 0.24356 0.25663 0.4002 0.0
C27 C 0.25726 0.22808 0.41154 0.0
C28 C 0.31813 0.1488 0.4716 0.0
C29 C 0.34856 0.19435 0.4774 0.0
C30 C 0.37454 0.20577 0.4995 0.0
C31 C 0.36962 0.17186 0.51636 0.0
C32 C 0.33914 0.12643 0.51064 0.0
C33 C 0.31402 0.11497 0.48835 0.0
C34 C 0.23486 0.03815 0.40587 0.0
C35 C 0.25625 0.01298 0.41294 0.0
C36 C 0.0162 0.27296 0.38315 0.0
C37 C 0.05235 0.26521 0.37539 0.0
C38 C 0.04545 0.22117 0.37721 0.0
C39 C 1.00331 0.18579 0.38707 0.0
H40 H 0.88311 0.03997 0.37946 0.0
H41 H 0.83008 0.96637 0.36168 0.0
H42 H 0.71564 0.95847 0.40552 0.0
H43 H 0.76892 0.03075 0.42406 0.0
H44 H 0.82371 0.0831 0.48337 0.0
H45 H 0.80183 0.10317 0.52299 0.0
H46 H 0.87809 0.24398 0.50125 0.0
H47 H 0.90075 0.22426 0.46182 0.0
H48 H 0.94851 0.24559 0.40038 0.0
H49 H 0.02073 0.30662 0.38216 0.0
H50 H 0.07319 0.21446 0.37201 0.0
H51 H 0.99913 0.15236 0.38895 0.0
N52 N 0.90085 0.1173 0.40112 0.0
N53 N 0.8503 0.09786 0.43591 0.0
N54 N 0.9148 0.17094 0.43204 0.0
C55 C 0.86183 0.08632 0.41383 0.0
C56 C 0.87678 0.13996 0.44524 0.0
C57 C 0.92726 0.15976 0.41014 0.0
C58 C 0.83027 0.04131 0.40314 0.0
C59 C 0.84662 0.02246 0.38527 0.0
C60 C 0.81605 0.98039 0.3749 0.0
C61 C 0.76821 0.95685 0.38162 0.0
C62 C 0.75209 0.97565 0.39967 0.0
C63 C 0.78278 0.01716 0.41041 0.0
C64 C 0.86387 0.15208 0.46939 0.0
C65 C 0.83589 0.11836 0.48704 0.0
C66 C 0.82358 0.1298 0.50977 0.0
C67 C 0.8382 0.17507 0.5151 0.0
C68 C 0.86614 0.20878 0.49751 0.0
C69 C 0.87924 0.19747 0.475 0.0
C70 C 0.96848 0.19448 0.39614 0.0
C71 C 0.97497 0.23813 0.39364 0.0
C72 C 0.7305 0.74082 0.38783 0.0
C73 C 0.73811 0.78343 0.38023 0.0
C74 C 0.78386 0.82081 0.38163 0.0
C75 C 0.82132 0.81529 0.38991 0.0
H76 H 0.99549 0.84438 0.38733 0.0
H77 H 0.07104 0.85485 0.37175 0.0
H78 H 0.01719 0.71136 0.37935 0.0
H79 H 0.94351 0.70147 0.39585 0.0
H80 H 0.90408 0.67952 0.46105 0.0
H81 H 0.88322 0.63756 0.5008 0.0
H82 H 0.79765 0.69563 0.52069 0.0
H83 H 0.81743 0.73686 0.48061 0.0
H84 H 0.76022 0.70233 0.40284 0.0
H85 H 0.69558 0.71156 0.38738 0.0
H86 H 0.79058 0.85435 0.37675 0.0
H87 H 0.85613 0.84454 0.39102 0.0
N88 N 0.89083 0.77672 0.39684 0.0
N89 N 0.91214 0.7442 0.42972 0.0
N90 N 0.84184 0.74556 0.43228 0.0
C91 C 0.9218 0.76551 0.40699 0.0
C92 C 0.87269 0.73486 0.44271 0.0
C93 C 0.85046 0.76633 0.40947 0.0
C94 C 0.9638 0.77209 0.39293 0.0
C95 C 0.99966 0.81511 0.38504 0.0
C96 C 0.04277 0.82106 0.37601 0.0
C97 C 0.04992 0.7838 0.37406 0.0
C98 C 0.01273 0.74067 0.38047 0.0
C99 C 0.97052 0.73496 0.38997 0.0
C100 C 0.86223 0.71139 0.46752 0.0
C101 C 0.88106 0.68363 0.47392 0.0
C102 C 0.86905 0.65951 0.49665 0.0
C103 C 0.83883 0.66337 0.51382 0.0
C104 C 0.8212 0.69222 0.50786 0.0
C105 C 0.83233 0.71557 0.48485 0.0
C106 C 0.81321 0.77262 0.39784 0.0
C107 C 0.76748 0.73553 0.39666 0.0
C108 C 0.99706 0.25347 0.65563 0.0
C109 C 0.96004 0.2105 0.66247 0.0
C110 C 0.96707 0.17316 0.66056 0.0
C111 C 0.00986 0.17887 0.65116 0.0
H112 H 0.15326 0.14957 0.6452 0.0
H113 H 0.21881 0.1403 0.66012 0.0
H114 H 0.31353 0.28296 0.64871 0.0
H115 H 0.24895 0.29158 0.63254 0.0
H116 H 0.19192 0.25692 0.5549 0.0
H117 H 0.21124 0.29793 0.51474 0.0
H118 H 0.12379 0.35409 0.5343 0.0
H119 H 0.10339 0.31238 0.57411 0.0
H120 H 0.06578 0.29227 0.63958 0.0
H121 H 0.99273 0.28285 0.65674 0.0
H122 H 0.93891 0.13949 0.66516 0.0
H123 H 0.01394 0.14953 0.64896 0.0
N124 N 0.11841 0.21704 0.63882 0.0
N125 N 0.16708 0.24779 0.60323 0.0
N126 N 0.09668 0.24898 0.60583 0.0
C127 C 0.15869 0.22732 0.62613 0.0
C128 C 0.13604 0.25823 0.59276 0.0
C129 C 0.08727 0.228 0.62865 0.0
C130 C 0.19608 0.22134 0.63786 0.0
C131 C 0.18803 0.1789 0.64623 0.0
C132 C 0.22548 0.1737 0.65489 0.0
C133 C 0.27115 0.2112 0.6563 0.0
C134 C 0.27869 0.2536 0.64825 0.0
C135 C 0.24174 0.25854 0.63901 0.0
C136 C 0.14623 0.28147 0.56785 0.0
C137 C 0.17649 0.27773 0.55057 0.0
C138 C 0.18735 0.30094 0.5275 0.0
C139 C 0.16907 0.32922 0.52142 0.0
C140 C 0.13845 0.33258 0.53852 0.0
C141 C 0.12672 0.3086 0.56131 0.0
C142 C 0.0455 0.22169 0.64286 0.0
C143 C 0.03892 0.25891 0.64575 0.0
C144 C 0.76734 0.73883 0.63415 0.0
C145 C 0.802 0.75495 0.65277 0.0
C146 C 0.82326 0.80057 0.65947 0.0
C147 C 0.80935 0.82911 0.6483 0.0
H148 H 0.82416 0.95361 0.65535 0.0
H149 H 0.84907 0.02637 0.67419 0.0
H150 H 0.74538 0.03984 0.63115 0.0
H151 H 0.72112 0.96743 0.61186 0.0
H152 H 0.65823 0.88981 0.57315 0.0
H153 H 0.61508 0.87411 0.53406 0.0
H154 H 0.66386 0.78271 0.51319 0.0
H155 H 0.70699 0.79808 0.55247 0.0
H156 H 0.7266 0.75378 0.60876 0.0
H157 H 0.75034 0.70394 0.62835 0.0
H158 H 0.85069 0.81437 0.67334 0.0
H159 H 0.82626 0.864 0.65411 0.0
N160 N 0.77106 0.88307 0.62961 0.0
N161 N 0.72804 0.89774 0.5999 0.0
N162 N 0.73059 0.83036 0.59826 0.0
C163 C 0.75604 0.91067 0.62029 0.0
C164 C 0.71529 0.85777 0.58871 0.0
C165 C 0.75839 0.84283 0.61885 0.0
C166 C 0.77056 0.95461 0.6321 0.0
C167 C 0.8065 0.97196 0.64995 0.0
C168 C 0.82071 0.01371 0.66086 0.0
C169 C 0.7989 0.03876 0.65441 0.0
C170 C 0.76291 0.02139 0.63659 0.0
C171 C 0.74898 0.97983 0.6255 0.0
C172 C 0.68626 0.84535 0.56587 0.0
C173 C 0.65952 0.86607 0.56035 0.0
C174 C 0.63454 0.8569 0.53804 0.0
C175 C 0.63627 0.82732 0.52061 0.0
C176 C 0.66222 0.80589 0.52628 0.0
C177 C 0.68666 0.81451 0.54881 0.0
C178 C 0.77424 0.81283 0.62992 0.0
C179 C 0.75374 0.76747 0.62281 0.0
C180 C 0.25824 0.01945 0.63735 0.0
C181 C 0.24206 0.03803 0.6555 0.0
C182 C 0.1943 0.01414 0.66239 0.0
C183 C 0.16386 0.97201 0.65202 0.0
H184 H 0.01089 0.84246 0.64718 0.0
H185 H 0.93615 0.78027 0.6634 0.0
H186 H 0.98839 0.68785 0.65372 0.0
H187 H 0.06136 0.749 0.63624 0.0
H188 H 0.11144 0.77092 0.57532 0.0
H189 H 0.13445 0.75147 0.5359 0.0
H190 H 0.20914 0.89223 0.514 0.0
H191 H 0.18697 0.91204 0.55362 0.0
H192 H 0.24161 0.96451 0.61289 0.0
H193 H 0.29462 0.0369 0.63138 0.0
H194 H 0.18022 0.02795 0.6757 0.0
H195 H 0.12743 0.95427 0.65793 0.0
N196 N 0.10952 0.87741 0.63575 0.0
N197 N 0.09601 0.82397 0.60476 0.0
N198 N 0.16066 0.897 0.60121 0.0
C199 C 0.08319 0.83502 0.6266 0.0
C200 C 0.1343 0.85499 0.59176 0.0
C201 C 0.14882 0.90843 0.62323 0.0
C202 C 0.04155 0.80026 0.64031 0.0
C203 C 0.00651 0.80896 0.64904 0.0
C204 C 0.96397 0.77351 0.65848 0.0
C205 C 0.95683 0.72938 0.66021 0.0
C206 C 0.99311 0.72158 0.65279 0.0
C207 C 0.03478 0.75649 0.64273 0.0
C208 C 0.14752 0.84305 0.56767 0.0
C209 C 0.13269 0.79775 0.56211 0.0
C210 C 0.14598 0.7866 0.53961 0.0
C211 C 0.17356 0.82038 0.52196 0.0
C212 C 0.18768 0.86556 0.52725 0.0
C213 C 0.17521 0.87684 0.54999 0.0
C214 C 0.18026 0.95342 0.63402 0.0
C215 C 0.22769 0.97787 0.62664 0.0
C216 C 0.91009 0.30514 0.73501 0.0
C217 C 0.87514 0.28802 0.71662 0.0
C218 C 0.85316 0.31281 0.7099 0.0
C219 C 0.86654 0.35429 0.72092 0.0
H220 H 0.85074 0.46453 0.7141 0.0
H221 H 0.82614 0.51399 0.69486 0.0
H222 H 0.9274 0.62498 0.73921 0.0
H223 H 0.9513 0.57529 0.75884 0.0
H224 H 0.01939 0.55454 0.79811 0.0
H225 H 0.06453 0.57449 0.837 0.0
H226 H 1.00173 0.43321 0.85672 0.0
H227 H 0.95755 0.41301 0.81777 0.0
H228 H 0.95039 0.35879 0.76022 0.0
H229 H 0.92761 0.28683 0.74073 0.0
H230 H 0.82549 0.30025 0.69617 0.0
H231 H 0.84903 0.37261 0.71519 0.0
N232 N 0.90375 0.44442 0.73993 0.0
N233 N 0.94486 0.49822 0.77069 0.0
N234 N 0.94294 0.4286 0.77146 0.0
C235 C 0.9178 0.4856 0.74983 0.0
C236 C 0.95727 0.46964 0.78167 0.0
C237 C 0.91638 0.41587 0.75052 0.0
C238 C 0.90317 0.51596 0.73801 0.0
C239 C 0.86794 0.49954 0.7197 0.0
C240 C 0.85388 0.52798 0.70855 0.0
C241 C 0.87514 0.57363 0.71518 0.0
C242 C 0.91031 0.59002 0.73352 0.0
C243 C 0.92405 0.56149 0.74485 0.0
C244 C 0.98499 0.48224 0.8049 0.0
C245 C 0.0154 0.52779 0.81071 0.0
C246 C 0.04136 0.5392 0.83281 0.0
C247 C 0.03645 0.50529 0.84967 0.0
C248 C 0.00599 0.45986 0.84394 0.0
C249 C 0.98088 0.4484 0.82165 0.0
C250 C 0.90171 0.37157 0.73918 0.0
C251 C 0.9231 0.34641 0.74624 0.0
C252 C 0.68287 0.60625 0.7165 0.0
C253 C 0.71902 0.59851 0.70874 0.0
C254 C 0.71214 0.55448 0.71055 0.0
C255 C 0.67001 0.51909 0.72041 0.0
H256 H 0.54979 0.37328 0.71278 0.0
H257 H 0.49676 0.29969 0.695 0.0
H258 H 0.38235 0.29174 0.73888 0.0
H259 H 0.43563 0.36401 0.75743 0.0
H260 H 0.49041 0.41637 0.81673 0.0
H261 H 0.46854 0.43645 0.85635 0.0
H262 H 0.54479 0.57726 0.8346 0.0
H263 H 0.56745 0.55753 0.79518 0.0
H264 H 0.61517 0.57886 0.73373 0.0
H265 H 0.68738 0.6399 0.7155 0.0
H266 H 0.73988 0.54777 0.70535 0.0
H267 H 0.66583 0.48567 0.7223 0.0
N268 N 0.56754 0.45058 0.73447 0.0
N269 N 0.51701 0.43114 0.76926 0.0
N270 N 0.5815 0.50422 0.76539 0.0
C271 C 0.52853 0.4196 0.74718 0.0
C272 C 0.54348 0.47323 0.7786 0.0
C273 C 0.59395 0.49305 0.74349 0.0
C274 C 0.49697 0.37459 0.73649 0.0
C275 C 0.5133 0.35576 0.7186 0.0
C276 C 0.48274 0.3137 0.70822 0.0
C277 C 0.4349 0.29014 0.71496 0.0
C278 C 0.41879 0.30893 0.73302 0.0
C279 C 0.44948 0.35043 0.74377 0.0
C280 C 0.53057 0.48535 0.80274 0.0
C281 C 0.5026 0.45163 0.8204 0.0
C282 C 0.49029 0.46308 0.84313 0.0
C283 C 0.5049 0.50835 0.84846 0.0
C284 C 0.53284 0.54206 0.83086 0.0
C285 C 0.54594 0.53074 0.80835 0.0
C286 C 0.63516 0.52776 0.72949 0.0
C287 C 0.64164 0.57141 0.72699 0.0
C288 C 0.39719 0.07413 0.72116 0.0
C289 C 0.4048 0.11674 0.71354 0.0
C290 C 0.45055 0.15412 0.71493 0.0
C291 C 0.48801 0.14861 0.72322 0.0
H292 H 0.66223 0.17777 0.72071 0.0
H293 H 0.73779 0.18823 0.70513 0.0
H294 H 0.6839 0.04474 0.71269 0.0
H295 H 0.61022 0.03484 0.72918 0.0
H296 H 0.5708 0.0129 0.79439 0.0
H297 H 0.54994 0.97095 0.83415 0.0
H298 H 0.46433 0.02897 0.85402 0.0
H299 H 0.48411 0.0702 0.81395 0.0
H300 H 0.42692 0.03566 0.73617 0.0
H301 H 0.36228 0.04487 0.7207 0.0
H302 H 0.45726 0.18766 0.71004 0.0
H303 H 0.52282 0.17786 0.72433 0.0
N304 N 0.55754 0.11008 0.73018 0.0
N305 N 0.57885 0.07757 0.76307 0.0
N306 N 0.50854 0.07891 0.76561 0.0
C307 C 0.58852 0.09888 0.74034 0.0
C308 C 0.5394 0.06822 0.77605 0.0
C309 C 0.51716 0.09967 0.7428 0.0
C310 C 0.63052 0.10547 0.72628 0.0
C311 C 0.6664 0.14849 0.71841 0.0
C312 C 0.7095 0.15444 0.70938 0.0
C313 C 0.71665 0.11718 0.70743 0.0
C314 C 0.67945 0.07405 0.71382 0.0
C315 C 0.63723 0.06834 0.72331 0.0
C316 C 0.52893 0.04475 0.80086 0.0
C317 C 0.54777 0.01701 0.80726 0.0
C318 C 0.53576 0.99288 0.83 0.0
C319 C 0.50553 0.99673 0.84716 0.0
C320 C 0.48789 0.02557 0.8412 0.0
C321 C 0.49902 0.04892 0.81819 0.0
C322 C 0.4799 0.10595 0.73117 0.0
C323 C 0.43418 0.06886 0.72998 0.0
C324 C 0.66375 0.5868 0.98899 0.0
C325 C 0.62673 0.54383 0.99583 0.0
C326 C 0.63376 0.50649 0.99391 0.0
C327 C 0.67656 0.5122 0.98451 0.0
H328 H 0.81996 0.4829 0.97851 0.0
H329 H 0.88552 0.47364 0.99342 0.0
H330 H 0.98023 0.6163 0.98201 0.0
H331 H 0.91563 0.62492 0.96586 0.0
H332 H 0.85857 0.59026 0.88823 0.0
H333 H 0.87789 0.63128 0.84807 0.0
H334 H 0.79044 0.68744 0.86765 0.0
H335 H 0.77006 0.64573 0.90746 0.0
H336 H 0.73246 0.62561 0.97293 0.0
H337 H 0.65942 0.61618 0.9901 0.0
H338 H 0.60561 0.47282 0.99852 0.0
H339 H 0.68064 0.48286 0.98231 0.0
N340 N 0.7851 0.55038 0.97215 0.0
N341 N 0.83376 0.58113 0.93656 0.0
N342 N 0.76336 0.58232 0.93917 0.0
C343 C 0.82537 0.56066 0.95946 0.0
C344 C 0.80271 0.59157 0.92609 0.0
C345 C 0.75396 0.56134 0.96199 0.0
C346 C 0.86278 0.55468 0.97118 0.0
C347 C 0.85473 0.51224 0.97954 0.0
C348 C 0.89218 0.50704 0.9882 0.0
C349 C 0.93785 0.54454 0.9896 0.0
C350 C 0.94538 0.58693 0.98156 0.0
C351 C 0.90843 0.59187 0.97233 0.0
C352 C 0.81289 0.61481 0.90119 0.0
C353 C 0.84314 0.61107 0.8839 0.0
C354 C 0.854 0.63428 0.86083 0.0
C355 C 0.83572 0.66257 0.85476 0.0
C356 C 0.8051 0.66592 0.87186 0.0
C357 C 0.79338 0.64195 0.89465 0.0
C358 C 0.7122 0.55502 0.97621 0.0
C359 C 0.70561 0.59224 0.97911 0.0
C360 C 0.43411 0.07219 0.96749 0.0
C361 C 0.46876 0.08829 0.9861 0.0
C362 C 0.49003 0.13391 0.99281 0.0
C363 C 0.47612 0.16245 0.98164 0.0
H364 H 0.49089 0.28694 0.9887 0.0
H365 H 0.51577 0.35969 1.00756 0.0
H366 H 0.41211 0.37317 0.96449 0.0
H367 H 0.38787 0.30077 0.94519 0.0
H368 H 0.325 0.22314 0.90648 0.0
H369 H 0.28183 0.20742 0.8674 0.0
H370 H 0.33065 0.11605 0.84652 0.0
H371 H 0.37379 0.13144 0.8858 0.0
H372 H 0.39338 0.08714 0.94209 0.0
H373 H 0.41711 0.03729 0.96169 0.0
H374 H 0.51744 0.14771 1.00668 0.0
H375 H 0.49303 0.19735 0.98745 0.0
N376 N 0.43782 0.21642 0.96295 0.0
N377 N 0.39481 0.23109 0.93323 0.0
N378 N 0.39737 0.16372 0.93159 0.0
C379 C 0.4228 0.24402 0.95363 0.0
C380 C 0.38207 0.19113 0.92203 0.0
C381 C 0.42516 0.17618 0.95218 0.0
C382 C 0.4373 0.28794 0.96544 0.0
C383 C 0.47323 0.30529 0.9833 0.0
C384 C 0.48743 0.34703 0.99421 0.0
C385 C 0.46562 0.37209 0.98776 0.0
C386 C 0.42964 0.35472 0.96994 0.0
C387 C 0.41573 0.31316 0.95884 0.0
C388 C 0.35305 0.1787 0.8992 0.0
C389 C 0.32629 0.19941 0.89368 0.0
C390 C 0.3013 0.19023 0.87138 0.0
C391 C 0.30304 0.16065 0.85394 0.0
C392 C 0.329 0.13923 0.85961 0.0
C393 C 0.35346 0.14787 0.88213 0.0
C394 C 0.44102 0.14618 0.96326 0.0
C395 C 0.42052 0.10083 0.95614 0.0
C396 C 0.92497 0.35277 0.97068 0.0
C397 C 0.90878 0.37136 0.98882 0.0
C398 C 0.86101 0.34747 0.9957 0.0
C399 C 0.83059 0.30533 0.98535 0.0
H400 H 0.67765 0.17577 0.98053 0.0
H401 H 0.60291 0.11359 0.99675 0.0
H402 H 0.65512 0.02114 0.98707 0.0
H403 H 0.7281 0.08229 0.96959 0.0
H404 H 0.77823 0.10421 0.90868 0.0
H405 H 0.80125 0.08477 0.86926 0.0
H406 H 0.8759 0.22554 0.84736 0.0
H407 H 0.85372 0.24533 0.88698 0.0
H408 H 0.90836 0.2978 0.94624 0.0
H409 H 0.96136 0.37021 0.96472 0.0
H410 H 0.84693 0.36129 1.009 0.0
H411 H 0.79415 0.28759 0.99125 0.0
N412 N 0.77627 0.21071 0.9691 0.0
N413 N 0.76277 0.15726 0.93812 0.0
N414 N 0.82742 0.23029 0.93456 0.0
C415 C 0.74995 0.16831 0.95995 0.0
C416 C 0.80106 0.18828 0.92512 0.0
C417 C 0.81557 0.24173 0.95658 0.0
C418 C 0.7083 0.13356 0.97366 0.0
C419 C 0.67327 0.14227 0.98239 0.0
C420 C 0.63072 0.10683 0.99182 0.0
C421 C 0.62356 0.06269 0.99356 0.0
C422 C 0.65985 0.05488 0.98615 0.0
C423 C 0.70152 0.08979 0.97609 0.0
C424 C 0.81429 0.17634 0.90102 0.0
C425 C 0.79948 0.13104 0.89547 0.0
C426 C 0.81277 0.1199 0.87296 0.0
C427 C 0.84034 0.15368 0.85532 0.0
C428 C 0.85445 0.19886 0.86061 0.0
C429 C 0.84197 0.21014 0.88335 0.0
C430 C 0.847 0.28672 0.96736 0.0
C431 C 0.89443 0.31117 0.95998 0.0
C432 C 0.57676 0.63845 0.06837 0.0
C433 C 0.54182 0.62133 0.04998 0.0
C434 C 0.51984 0.64612 0.04326 0.0
C435 C 0.53322 0.6876 0.05427 0.0
H436 H 0.51743 0.79784 0.04746 0.0
H437 H 0.49285 0.84732 0.02821 0.0
H438 H 0.59411 0.95829 0.07256 0.0
H439 H 0.61799 0.9086 0.0922 0.0
H440 H 0.68607 0.88784 0.13147 0.0
H441 H 0.7312 0.90779 0.17037 0.0
H442 H 0.66837 0.7665 0.19009 0.0
H443 H 0.62419 0.74631 0.15114 0.0
H444 H 0.61705 0.69209 0.09359 0.0
H445 H 0.59428 0.62013 0.07409 0.0
H446 H 0.49218 0.63357 0.02952 0.0
H447 H 0.51571 0.70592 0.04854 0.0
N448 N 0.57043 0.77773 0.07329 0.0
N449 N 0.61153 0.83152 0.10405 0.0
N450 N 0.6096 0.7619 0.10483 0.0
C451 C 0.58448 0.81891 0.08319 0.0
C452 C 0.62393 0.80294 0.11503 0.0
C453 C 0.58305 0.74917 0.08389 0.0
C454 C 0.56985 0.84927 0.07136 0.0
C455 C 0.53463 0.83286 0.05306 0.0
C456 C 0.52059 0.8613 0.0419 0.0
C457 C 0.54185 0.90695 0.04853 0.0
C458 C 0.57701 0.92333 0.06687 0.0
C459 C 0.59074 0.8948 0.07821 0.0
C460 C 0.65165 0.81553 0.13827 0.0
C461 C 0.68207 0.86108 0.14408 0.0
C462 C 0.70803 0.87249 0.16618 0.0
C463 C 0.7031 0.83858 0.18304 0.0
C464 C 0.67263 0.79315 0.17731 0.0
C465 C 0.64753 0.7817 0.15502 0.0
C466 C 0.56838 0.70488 0.07254 0.0
C467 C 0.58977 0.67971 0.07961 0.0
C468 C 0.34959 0.9396 0.04982 0.0
C469 C 0.38575 0.93185 0.04207 0.0
C470 C 0.37885 0.88782 0.04388 0.0
C471 C 0.33671 0.85243 0.05374 0.0
H472 H 0.21649 0.70662 0.0461 0.0
H473 H 0.16346 0.63302 0.02832 0.0
H474 H 0.04902 0.62511 0.07216 0.0
H475 H 0.1023 0.69739 0.09071 0.0
H476 H 0.15709 0.74973 0.15003 0.0
H477 H 0.13519 0.76979 0.18964 0.0
H478 H 0.21138 0.9106 0.16788 0.0
H479 H 0.23407 0.89088 0.12846 0.0
H480 H 0.28189 0.91222 0.06704 0.0
H481 H 0.35412 0.97326 0.04883 0.0
H482 H 0.40659 0.88111 0.03869 0.0
H483 H 0.33252 0.81901 0.05562 0.0
N484 N 0.23424 0.78394 0.06777 0.0
N485 N 0.18368 0.7645 0.10256 0.0
N486 N 0.24818 0.83758 0.0987 0.0
C487 C 0.19521 0.75296 0.08048 0.0
C488 C 0.21014 0.80659 0.1119 0.0
C489 C 0.26064 0.8264 0.07679 0.0
C490 C 0.16365 0.70795 0.06979 0.0
C491 C 0.18 0.6891 0.05191 0.0
C492 C 0.14943 0.64704 0.04153 0.0
C493 C 0.10159 0.62349 0.04826 0.0
C494 C 0.08547 0.64229 0.06631 0.0
C495 C 0.11616 0.6838 0.07706 0.0
C496 C 0.19723 0.8187 0.13604 0.0
C497 C 0.16926 0.78499 0.15369 0.0
C498 C 0.15693 0.79642 0.17642 0.0
C499 C 0.17152 0.84169 0.18175 0.0
C500 C 0.19946 0.8754 0.16415 0.0
C501 C 0.21257 0.86409 0.14164 0.0
C502 C 0.30187 0.86111 0.0628 0.0
C503 C 0.30835 0.90477 0.06031 0.0
C504 C 0.06389 0.40748 0.05446 0.0
C505 C 0.0715 0.45009 0.04685 0.0
C506 C 0.11725 0.48747 0.04825 0.0
C507 C 0.15471 0.48195 0.05654 0.0
H508 H 0.32891 0.51108 0.05403 0.0
H509 H 0.40448 0.52155 0.03847 0.0
H510 H 0.35059 0.37806 0.04605 0.0
H511 H 0.2769 0.36816 0.06253 0.0
H512 H 0.23744 0.3462 0.12772 0.0
H513 H 0.21656 0.30425 0.16747 0.0
H514 H 0.13096 0.3623 0.18733 0.0
H515 H 0.15076 0.40354 0.14726 0.0
H516 H 0.09361 0.36899 0.06947 0.0
H517 H 0.02897 0.37821 0.054 0.0
H518 H 0.12396 0.52101 0.04337 0.0
H519 H 0.18951 0.5112 0.05765 0.0
N520 N 0.22423 0.4434 0.0635 0.0
N521 N 0.24551 0.41089 0.09639 0.0
N522 N 0.17521 0.41224 0.09893 0.0
C523 C 0.25519 0.4322 0.07366 0.0
C524 C 0.20606 0.40155 0.10937 0.0
C525 C 0.18384 0.433 0.07611 0.0
C526 C 0.2972 0.43879 0.05961 0.0
C527 C 0.33308 0.48181 0.05174 0.0
C528 C 0.37619 0.48776 0.04272 0.0
C529 C 0.38334 0.4505 0.04077 0.0
C530 C 0.34614 0.40737 0.04717 0.0
C531 C 0.30392 0.40165 0.05665 0.0
C532 C 0.19557 0.37807 0.13418 0.0
C533 C 0.2144 0.35032 0.14059 0.0
C534 C 0.20238 0.32619 0.16332 0.0
C535 C 0.17216 0.33005 0.18048 0.0
C536 C 0.15452 0.3589 0.17452 0.0
C537 C 0.16566 0.38224 0.1515 0.0
C538 C 0.14659 0.43928 0.06448 0.0
C539 C 0.10087 0.4022 0.06329 0.0
C540 C 0.33034 0.92015 0.32228 0.0
C541 C 0.29333 0.87718 0.32913 0.0
C542 C 0.30037 0.83985 0.32722 0.0
C543 C 0.34317 0.84556 0.31784 0.0
H544 H 0.48658 0.81625 0.31187 0.0
H545 H 0.55214 0.80698 0.32678 0.0
H546 H 0.64685 0.94964 0.31538 0.0
H547 H 0.58226 0.95827 0.29923 0.0
H548 H 0.52525 0.9236 0.22159 0.0
H549 H 0.54458 0.96461 0.18143 0.0
H550 H 0.45713 0.02079 0.20098 0.0
H551 H 0.43673 0.97908 0.24079 0.0
H552 H 0.39907 0.95896 0.30624 0.0
H553 H 0.326 0.94952 0.32338 0.0
H554 H 0.27222 0.80617 0.33183 0.0
H555 H 0.34727 0.81622 0.31565 0.0
N556 N 0.45172 0.88373 0.3055 0.0
N557 N 0.50041 0.91448 0.26991 0.0
N558 N 0.43001 0.91568 0.27251 0.0
C559 C 0.49201 0.89401 0.29282 0.0
C560 C 0.46937 0.92493 0.25944 0.0
C561 C 0.42059 0.8947 0.29533 0.0
C562 C 0.5294 0.88803 0.30454 0.0
C563 C 0.52135 0.84558 0.3129 0.0
C564 C 0.5588 0.84038 0.32156 0.0
C565 C 0.60447 0.87788 0.32296 0.0
C566 C 0.61201 0.92028 0.31492 0.0
C567 C 0.57506 0.92522 0.30569 0.0
C568 C 0.47956 0.94816 0.23453 0.0
C569 C 0.50982 0.94442 0.21726 0.0
C570 C 0.52069 0.96763 0.19418 0.0
C571 C 0.50242 0.99591 0.1881 0.0
C572 C 0.47179 -0.00073 0.2052 0.0
C573 C 0.46006 0.9753 0.22799 0.0
C574 C 0.37882 0.88838 0.30953 0.0
C575 C 0.37222 0.9256 0.31241 0.0
C576 C 0.10073 0.40553 0.3008 0.0
C577 C 0.13538 0.42164 0.31942 0.0
C578 C 0.15666 0.46726 0.32612 0.0
C579 C 0.14275 0.4958 0.31494 0.0
H580 H 0.15754 0.6203 0.32198 0.0
H581 H 0.18242 0.69306 0.34084 0.0
H582 H 0.07875 0.70651 0.29777 0.0
H583 H 0.05452 0.63411 0.27847 0.0
H584 H 0.99163 0.55647 0.23978 0.0
H585 H 0.94846 0.54074 0.20069 0.0
H586 H 0.99727 0.44936 0.17982 0.0
H587 H 0.04041 0.46476 0.2191 0.0
H588 H 0.06001 0.42048 0.27539 0.0
H589 H 0.08372 0.37063 0.295 0.0
H590 H 0.18407 0.48106 0.33999 0.0
H591 H 0.15967 0.5307 0.32074 0.0
N592 N 0.10447 0.54977 0.29623 0.0
N593 N 0.06145 0.56442 0.26652 0.0
N594 N 0.06401 0.49705 0.26489 0.0
C595 C 0.08945 0.57737 0.28691 0.0
C596 C 0.0487 0.52446 0.25533 0.0
C597 C 0.09181 0.50952 0.28548 0.0
C598 C 0.10395 0.62129 0.29872 0.0
C599 C 0.13988 0.63865 0.31658 0.0
C600 C 0.15408 0.68039 0.32749 0.0
C601 C 0.13226 0.70543 0.32104 0.0
C602 C 0.09628 0.68807 0.30322 0.0
C603 C 0.08237 0.64651 0.29212 0.0
C604 C 0.01967 0.51202 0.2325 0.0
C605 C 0.99292 0.53273 0.22697 0.0
C606 C 0.96793 0.52354 0.20467 0.0
C607 C 0.96966 0.49396 0.18724 0.0
C608 C 0.99562 0.47254 0.19291 0.0
C609 C 0.02008 0.48118 0.21543 0.0
C610 C 0.10765 0.47953 0.29656 0.0
C611 C 0.08715 0.43417 0.28944 0.0
C612 C 0.59161 0.6861 0.30406 0.0
C613 C 0.57541 0.70469 0.32219 0.0
C614 C 0.52765 0.68079 0.32907 0.0
C615 C 0.49723 0.63866 0.31871 0.0
H616 H 0.34429 0.50911 0.31387 0.0
H617 H 0.26952 0.44693 0.33007 0.0
H618 H 0.32172 0.35447 0.32039 0.0
H619 H 0.39471 0.41562 0.30293 0.0
H620 H 0.44488 0.43755 0.24203 0.0
H621 H 0.46792 0.41812 0.20261 0.0
H622 H 0.54259 0.55889 0.18072 0.0
H623 H 0.52041 0.57868 0.22034 0.0
H624 H 0.57501 0.63114 0.27961 0.0
H625 H 0.628 0.70355 0.29809 0.0
H626 H 0.51355 0.69461 0.34237 0.0
H627 H 0.46079 0.62091 0.32461 0.0
N628 N 0.44291 0.54404 0.30245 0.0
N629 N 0.42942 0.4906 0.27147 0.0
N630 N 0.49407 0.56363 0.26792 0.0
C631 C 0.41659 0.50165 0.2933 0.0
C632 C 0.46772 0.52163 0.25847 0.0
C633 C 0.48221 0.57506 0.28994 0.0
C634 C 0.37493 0.46689 0.307 0.0
C635 C 0.33989 0.4756 0.31572 0.0
C636 C 0.29734 0.44016 0.32515 0.0
C637 C 0.29017 0.39602 0.32688 0.0
C638 C 0.32645 0.38821 0.31947 0.0
C639 C 0.36814 0.42312 0.30942 0.0
C640 C 0.48096 0.50969 0.23438 0.0
C641 C 0.46614 0.46439 0.22882 0.0
C642 C 0.47944 0.45325 0.20632 0.0
C643 C 0.50702 0.48704 0.18868 0.0
C644 C 0.52113 0.53221 0.19397 0.0
C645 C 0.50865 0.54349 0.21671 0.0
C646 C 0.51364 0.62006 0.30072 0.0
C647 C 0.56107 0.64451 0.29335 0.0
Gd648 Gd 0.52398 0.03167 0.04641 0.0
Gd649 Gd 0.48504 0.96284 0.98881 0.0
C650 C 0.34507 0.83104 0.98384 0.0
C651 C 0.3701 0.77558 0.97865 0.0
C652 C 0.42787 0.85539 0.98198 0.0
C653 C 0.39246 0.86559 0.98459 0.0
C654 C 0.41717 0.81039 0.97842 0.0
C655 C 0.33409 0.78588 0.9814 0.0
C656 C 0.31019 0.84304 0.98494 0.0
C657 C 0.32302 0.8886 0.98584 0.0
N658 N 0.40437 0.90957 0.98673 0.0
C659 C 0.37053 0.92163 0.98633 0.0
H660 H 0.37984 0.95667 0.98709 0.0
C661 C 0.50881 0.88208 0.97627 0.0
N662 N 0.47285 0.88985 0.98171 0.0
C663 C 0.50002 0.83802 0.97267 0.0
C664 C 0.45404 0.80192 0.97407 0.0
H665 H 0.54447 0.90974 0.97525 0.0
H666 H 0.2979 0.75883 0.98102 0.0
H667 H 0.62935 0.03822 0.04846 0.0
H668 H 0.27338 0.81752 0.98452 0.0
H669 H 0.29636 0.89833 0.98622 0.0
H670 H 0.36115 0.74074 0.97618 0.0
H671 H 0.46402 0.0845 0.05956 0.0
H672 H 0.7354 0.17745 0.05149 0.0
H673 H 0.71272 0.09673 0.04967 0.0
H674 H 0.64706 0.25374 0.05943 0.0
H675 H 0.52871 0.83193 0.96888 0.0
H676 H 0.44731 0.76783 0.97123 0.0
H677 H 0.71056 0.23592 0.05489 0.0
H678 H 0.47944 0.16217 0.06589 0.0
N679 N 0.60456 0.08511 0.0488 0.0
C680 C 0.69863 0.15185 0.05094 0.0
C681 C 0.68596 0.10634 0.04997 0.0
C682 C 0.66362 0.16369 0.05191 0.0
C683 C 0.61629 0.12904 0.051 0.0
C684 C 0.63851 0.0732 0.0493 0.0
N685 N 0.53581 0.10453 0.05353 0.0
C686 C 0.58074 0.13908 0.05345 0.0
C687 C 0.50826 0.15619 0.06229 0.0
C688 C 0.55422 0.19236 0.06112 0.0
C689 C 0.49967 0.11219 0.05872 0.0
C690 C 0.59124 0.18403 0.057 0.0
H691 H 0.56079 0.22641 0.06393 0.0
O692 O 0.48423 0.01492 0.08121 0.0
O693 O 0.46768 0.9705 0.028 0.0
O694 O 0.4617 0.01514 0.99049 0.0
O695 O 0.51359 0.073 1.01656 0.0
O696 O 0.44675 0.00742 0.04934 0.0
O697 O 0.55135 0.01801 0.08054 0.0
O698 O 0.52447 0.97924 0.95392 0.0
O699 O 0.54131 0.02381 1.00726 0.0
O700 O 0.54776 0.97968 0.04462 0.0
O701 O 0.49615 0.92176 0.01847 0.0
O702 O 0.56236 0.98739 0.9856 0.0
O703 O 0.45732 0.97615 0.95472 0.0
C704 C 0.43216 0.97143 0.03627 0.0
C705 C 0.63826 0.21893 0.05695 0.0
C706 C 0.67441 0.20879 0.05438 0.0
C707 C 0.51565 0.01147 0.09427 0.0
C708 C 0.52555 0.03235 0.11918 0.0
C709 C 0.54564 0.07925 0.1214 0.0
C710 C 0.51208 0.00491 0.14098 0.0
C711 C 0.51748 0.02421 0.16483 0.0
C712 C 0.55149 0.09853 0.14496 0.0
C713 C 0.53719 0.07127 0.16651 0.0
C714 C 0.48256 0.05753 0.99821 0.0
C715 C 0.57689 0.02314 0.99888 0.0
C716 C 0.49286 0.98246 0.94092 0.0
C717 C 0.48263 0.96116 0.91614 0.0
C718 C 0.46212 0.91419 0.91411 0.0
C719 C 0.49618 0.9883 0.89424 0.0
C720 C 0.49045 0.96865 0.87049 0.0
C721 C 0.45595 0.89455 0.89063 0.0
C722 C 0.47033 0.92153 0.86898 0.0
C723 C 0.52737 0.93741 0.03672 0.0
H724 H 0.55619 0.10086 0.10492 0.0
H725 H 0.49624 0.96859 0.13936 0.0
H726 H 0.5668 0.13475 0.14653 0.0
H727 H 0.54193 0.08702 0.18457 0.0
H728 H 0.45146 0.89279 0.93067 0.0
H729 H 0.51233 0.02468 0.89572 0.0
H730 H 0.44031 0.85827 0.88921 0.0
H731 H 0.46534 0.90553 0.85098 0.0
Gd732 Gd 0.96692 0.48415 0.04634 0.0
Gd733 Gd 0.04285 0.51131 0.99052 0.0
C734 C 0.17537 0.50028 0.99241 0.0
C735 C 0.2367 0.57885 0.98818 0.0
C736 C 0.15464 0.55865 0.98728 0.0
C737 C 0.14125 0.51363 0.99065 0.0
C738 C 0.20248 0.59162 0.98505 0.0
C739 C 0.22308 0.53325 0.9921 0.0
C740 C 0.16053 0.45416 0.99412 0.0
C741 C 0.11271 0.42264 0.99328 0.0
N742 N 0.0948 0.4827 0.99138 0.0
C743 C 0.08015 0.43755 0.99164 0.0
H744 H 0.04333 0.41274 0.99136 0.0
C745 C 0.13182 0.61263 0.97763 0.0
N746 N 0.12068 0.56986 0.9848 0.0
C747 C 0.1788 0.6465 0.97497 0.0
C748 C 0.21434 0.63614 0.97917 0.0
H749 H 0.10441 0.62082 0.97467 0.0
H750 H 0.24954 0.52356 0.99442 0.0
H751 H 0.96798 0.58358 0.04538 0.0
H752 H 0.18568 0.44256 0.99558 0.0
H753 H 0.10084 0.38686 0.99416 0.0
H754 H 0.27369 0.60379 0.98712 0.0
H755 H 0.90389 0.37512 0.06269 0.0
H756 H 0.82642 0.55573 0.04025 0.0
H757 H 0.91147 0.61053 0.04207 0.0
H758 H 0.73634 0.39457 0.04893 0.0
H759 H 0.18757 0.68061 0.96991 0.0
H760 H 0.25069 0.66247 0.97723 0.0
H761 H 0.76165 0.47501 0.04135 0.0
H762 H 0.82037 0.31611 0.06728 0.0
N763 N 0.9158 0.51382 0.04524 0.0
C764 C 0.85113 0.54364 0.04194 0.0
C765 C 0.89908 0.57465 0.043 0.0
C766 C 0.83561 0.4974 0.04377 0.0
C767 C 0.86921 0.48343 0.04583 0.0
C768 C 0.93109 0.5591 0.04494 0.0
N769 N 0.88865 0.42668 0.05235 0.0
C770 C 0.85516 0.43836 0.04949 0.0
C771 C 0.82966 0.35032 0.06213 0.0
C772 C 0.7946 0.36122 0.05762 0.0
C773 C 0.87685 0.38378 0.05962 0.0
C774 C 0.80715 0.40585 0.05155 0.0
H775 H 0.75809 0.33521 0.05942 0.0
O776 O 0.97047 0.4581 0.083 0.0
O777 O 0.03172 0.48932 0.03029 0.0
O778 O 0.98591 0.43699 0.99235 0.0
O779 O 0.92529 0.43135 0.0177 0.0
O780 O 0.99198 0.43404 0.05301 0.0
O781 O 0.98264 0.52641 0.07895 0.0
O782 O 0.03396 0.53549 0.95448 0.0
O783 O 0.97758 0.50545 1.00645 0.0
O784 O 0.0242 0.55835 0.04444 0.0
O785 O 0.08483 0.56359 0.01929 0.0
O786 O 0.01782 0.56151 0.98428 0.0
O787 O 0.03356 0.47191 0.95711 0.0
C788 C 0.03043 0.45508 0.04026 0.0
C789 C 0.77344 0.41917 0.04803 0.0
C790 C 0.78774 0.46489 0.04393 0.0
C791 C 0.97812 0.49465 0.09441 0.0
C792 C 0.95042 0.48816 0.11718 0.0
C793 C 0.90392 0.47906 0.11599 0.0
C794 C 0.97131 0.49187 0.14051 0.0
C795 C 0.94632 0.48734 0.16272 0.0
C796 C 0.87874 0.47411 0.13799 0.0
C797 C 0.89983 0.47849 0.16126 0.0
C798 C 0.94154 0.41552 1.00018 0.0
C799 C 0.97897 0.53991 0.99668 0.0
C800 C 0.03215 0.50183 0.94234 0.0
C801 C 0.05996 0.51384 0.91916 0.0
C802 C 0.10911 0.53909 0.91945 0.0
C803 C 0.0365 0.50242 0.89625 0.0
C804 C 0.06176 0.51708 0.87364 0.0
C805 C 0.13442 0.55361 0.89698 0.0
C806 C 0.11089 0.54307 0.87413 0.0
C807 C 0.06867 0.57951 0.0368 0.0
H808 H 0.88729 0.47613 0.09816 0.0
H809 H 0.00747 0.49946 0.14135 0.0
H810 H 0.84289 0.46719 0.13701 0.0
H811 H 0.87981 0.47481 0.17811 0.0
H812 H 0.12784 0.54807 0.93691 0.0
H813 H 0.99848 0.48312 0.896 0.0
H814 H 0.17233 0.57336 0.89729 0.0
H815 H 0.13096 0.55469 0.85687 0.0
Gd816 Gd 0.48877 0.5156 0.98965 0.0
Gd817 Gd 0.52153 0.47905 0.04744 0.0
C818 C 0.65378 0.46928 0.05821 0.0
C819 C 0.62189 0.38847 0.06417 0.0
C820 C 0.56986 0.41862 0.05636 0.0
C821 C 0.60799 0.46186 0.0547 0.0
C822 C 0.57633 0.38144 0.06133 0.0
C823 C 0.66045 0.43232 0.06285 0.0
C824 C 0.69129 0.51373 0.05785 0.0
C825 C 0.68246 0.54946 0.05486 0.0
N826 N 0.6001 0.4969 0.05114 0.0
C827 C 0.63632 0.5404 0.05198 0.0
H828 H 0.62984 0.5683 0.05004 0.0
C829 C 0.48748 0.37172 0.05858 0.0
N830 N 0.52626 0.41325 0.05459 0.0
C831 C 0.49214 0.33374 0.06306 0.0
C832 C 0.53677 0.33854 0.06426 0.0
H833 H 0.45276 0.36747 0.05783 0.0
H834 H 0.69507 0.4373 0.06624 0.0
H835 H 0.38003 0.42709 0.98664 0.0
H836 H 0.727 0.52088 0.06042 0.0
H837 H 0.71112 0.584 0.05497 0.0
H838 H 0.62759 0.3604 0.06814 0.0
H839 H 0.55862 0.62745 0.97984 0.0
H840 H 0.28412 0.47599 0.97619 0.0
H841 H 0.2991 0.41227 0.98154 0.0
H842 H 0.38493 0.63633 0.96899 0.0
H843 H 0.4613 0.30084 0.06572 0.0
H844 H 0.54029 0.30914 0.06802 0.0
H845 H 0.31692 0.55975 0.97059 0.0
H846 H 0.55091 0.6945 0.97212 0.0
N847 N 0.41049 0.49857 0.98566 0.0
C848 C 0.31969 0.48274 0.9788 0.0
C849 C 0.32801 0.44668 0.98174 0.0
C850 C 0.35753 0.52702 0.97855 0.0
C851 C 0.40311 0.53394 0.98213 0.0
C852 C 0.37396 0.45524 0.98471 0.0
N853 N 0.48495 0.58195 0.98259 0.0
C854 C 0.44154 0.57702 0.98065 0.0
C855 C 0.51984 0.66168 0.97454 0.0
C856 C 0.47542 0.6573 0.97314 0.0
C857 C 0.52402 0.62342 0.97892 0.0
C858 C 0.43557 0.61453 0.9758 0.0
H859 H 0.47228 0.68694 0.96948 0.0
O860 O 0.52787 0.53676 0.95468 0.0
O861 O 0.543 0.50465 1.00846 0.0
O862 O 0.5487 0.55474 0.04555 0.0
O863 O 0.49696 0.56407 0.01986 0.0
O864 O 0.56695 0.56243 0.98709 0.0
O865 O 0.4594 0.47653 0.9559 0.0
O866 O 0.48289 0.45756 0.08256 0.0
O867 O 0.46732 0.48964 0.02853 0.0
O868 O 0.46078 0.43981 0.9916 0.0
O869 O 0.51199 0.42979 0.0174 0.0
O870 O 0.44326 0.43235 0.05033 0.0
O871 O 0.55081 0.51846 0.08109 0.0
C872 C 0.57985 0.53912 1.0005 0.0
C873 C 0.39023 0.60799 0.97286 0.0
C874 C 0.35137 0.56432 0.97401 0.0
C875 C 0.49483 0.5043 0.94186 0.0
C876 C 0.48397 0.51762 0.91763 0.0
C877 C 0.46283 0.54449 0.91647 0.0
C878 C 0.49711 0.5052 0.89536 0.0
C879 C 0.49017 0.52043 0.87203 0.0
C880 C 0.45554 0.55939 0.89339 0.0
C881 C 0.4694 0.54776 0.87129 0.0
C882 C 0.52819 0.57777 0.03802 0.0
C883 C 0.43041 0.4554 0.03664 0.0
C884 C 0.51577 0.49038 0.09525 0.0
C885 C 0.52731 0.47759 0.11945 0.0
C886 C 0.5493 0.45146 0.12056 0.0
C887 C 0.51411 0.48983 0.14177 0.0
C888 C 0.52182 0.47515 0.16507 0.0
C889 C 0.55735 0.43711 0.14362 0.0
C890 C 0.54341 0.44854 0.16577 0.0
C891 C 0.48052 0.41621 0.99935 0.0
H892 H 0.45242 0.55431 0.93333 0.0
H893 H 0.5138 0.48471 0.8962 0.0
H894 H 0.43936 0.58028 0.89265 0.0
H895 H 0.46348 0.55973 0.85358 0.0
H896 H 0.55981 0.44181 0.10367 0.0
H897 H 0.4968 0.50977 0.14097 0.0
H898 H 0.57418 0.41679 0.14432 0.0
H899 H 0.54991 0.437 0.18347 0.0
Gd900 Gd 0.19059 0.36501 0.37973 0.0
Gd901 Gd 0.15164 0.29617 0.32212 0.0
C902 C 0.01166 0.16438 0.31717 0.0
C903 C 0.03669 0.10892 0.31197 0.0
C904 C 0.09447 0.18873 0.3153 0.0
C905 C 0.05906 0.19893 0.31791 0.0
C906 C 0.08376 0.14373 0.31174 0.0
C907 C 1.00068 0.11923 0.31472 0.0
C908 C 0.97679 0.17638 0.31827 0.0
C909 C 0.98962 0.22195 0.31917 0.0
N910 N 0.07097 0.24291 0.32005 0.0
C911 C 0.03713 0.25498 0.31965 0.0
H912 H 0.04644 0.29001 0.32042 0.0
C913 C 0.17541 0.21541 0.30959 0.0
N914 N 0.13944 0.22319 0.31503 0.0
C915 C 0.16661 0.17135 0.30599 0.0
C916 C 0.12063 0.13525 0.30739 0.0
H917 H 0.21106 0.24307 0.30857 0.0
H918 H 0.96449 0.09217 0.31435 0.0
H919 H 0.29595 0.37153 0.38179 0.0
H920 H 0.93997 0.15087 0.31785 0.0
H921 H 0.96296 0.23168 0.31955 0.0
H922 H 0.02774 0.07407 0.3095 0.0
H923 H 0.13066 0.41786 0.39287 0.0
H924 H 0.40202 0.51074 0.38482 0.0
H925 H 0.37933 0.43002 0.383 0.0
H926 H 0.31372 0.58707 0.39275 0.0
H927 H 0.1953 0.16526 0.3022 0.0
H928 H 0.1139 0.10116 0.30455 0.0
H929 H 0.3772 0.56923 0.38821 0.0
H930 H 0.1461 0.49554 0.3992 0.0
N931 N 0.27117 0.41843 0.38213 0.0
C932 C 0.36525 0.48515 0.38426 0.0
C933 C 0.35257 0.43964 0.38329 0.0
C934 C 0.33025 0.49701 0.38524 0.0
C935 C 0.28291 0.46236 0.38432 0.0
C936 C 0.30512 0.40651 0.38262 0.0
N937 N 0.20244 0.43788 0.38684 0.0
C938 C 0.24738 0.47242 0.38677 0.0
C939 C 0.17492 0.48955 0.3956 0.0
C940 C 0.22087 0.52572 0.39443 0.0
C941 C 0.16631 0.44555 0.39203 0.0
C942 C 0.25789 0.51737 0.39032 0.0
H943 H 0.22746 0.55977 0.39724 0.0
O944 O 0.15084 0.34828 0.41453 0.0
O945 O 0.13428 0.30385 0.36132 0.0
O946 O 0.12831 0.34848 0.32381 0.0
O947 O 0.18021 0.40634 0.34988 0.0
O948 O 0.11336 0.34077 0.38267 0.0
O949 O 0.21795 0.35132 0.41386 0.0
O950 O 0.19107 0.31258 0.28724 0.0
O951 O 0.20791 0.35715 0.34058 0.0
O952 O 0.21435 0.31301 0.37793 0.0
O953 O 0.16273 0.25509 0.35179 0.0
O954 O 0.22896 0.32072 0.31891 0.0
O955 O 0.12391 0.30948 0.28804 0.0
C956 C 0.09876 0.30478 0.36959 0.0
C957 C 0.30492 0.55227 0.39027 0.0
C958 C 0.34106 0.54211 0.3877 0.0
C959 C 0.18226 0.34481 0.42759 0.0
C960 C 0.19217 0.36568 0.4525 0.0
C961 C 0.21227 0.41258 0.45472 0.0
C962 C 0.17871 0.33823 0.4743 0.0
C963 C 0.18413 0.35752 0.49815 0.0
C964 C 0.21814 0.43185 0.47829 0.0
C965 C 0.20385 0.40459 0.49984 0.0
C966 C 0.14917 0.39087 0.33152 0.0
C967 C 0.2435 0.35647 0.3322 0.0
C968 C 0.15945 0.31579 0.27423 0.0
C969 C 0.14922 0.29449 0.24946 0.0
C970 C 0.12871 0.24751 0.24744 0.0
C971 C 0.16279 0.32163 0.22756 0.0
C972 C 0.15706 0.30198 0.20381 0.0
C973 C 0.12254 0.22787 0.22396 0.0
C974 C 0.13694 0.25485 0.2023 0.0
C975 C 0.19395 0.27073 0.37004 0.0
H976 H 0.22282 0.43419 0.43825 0.0
H977 H 0.16286 0.30191 0.47267 0.0
H978 H 0.23346 0.46807 0.47986 0.0
H979 H 0.2086 0.42033 0.5179 0.0
H980 H 0.11804 0.22612 0.264 0.0
H981 H 0.17894 0.358 0.22904 0.0
H982 H 0.10689 0.1916 0.22254 0.0
H983 H 0.13194 0.23884 0.1843 0.0
Gd984 Gd 0.63354 0.8175 0.37971 0.0
Gd985 Gd 0.70947 0.84464 0.32389 0.0
C986 C 0.842 0.83361 0.3258 0.0
C987 C 0.90332 0.91218 0.32156 0.0
C988 C 0.82127 0.89198 0.32065 0.0
C989 C 0.80787 0.84696 0.32403 0.0
C990 C 0.86911 0.92495 0.31843 0.0
C991 C 0.8897 0.86658 0.32549 0.0
C992 C 0.82716 0.78749 0.3275 0.0
C993 C 0.77933 0.75598 0.32667 0.0
N994 N 0.76143 0.81604 0.32476 0.0
C995 C 0.74677 0.77088 0.32502 0.0
H996 H 0.70995 0.74607 0.32474 0.0
C997 C 0.79845 0.94596 0.31099 0.0
N998 N 0.78731 0.90319 0.31817 0.0
C999 C 0.84543 0.97983 0.30834 0.0
C1000 C 0.88097 0.96947 0.31254 0.0
H1001 H 0.77104 0.95415 0.30803 0.0
H1002 H 0.91617 0.85689 0.32782 0.0
H1003 H 0.63463 0.91694 0.37874 0.0
H1004 H 0.85231 0.77589 0.32897 0.0
H1005 H 0.76747 0.72019 0.32755 0.0
H1006 H 0.94031 0.93712 0.32051 0.0
H1007 H 0.57048 0.70848 0.39606 0.0
H1008 H 0.49308 0.88914 0.3736 0.0
H1009 H 0.57814 0.94392 0.37543 0.0
H1010 H 0.40296 0.72797 0.38228 0.0
H1011 H 0.85421 0.01394 0.30327 0.0
H1012 H 0.91733 0.9958 0.31061 0.0
H1013 H 0.4283 0.80842 0.3747 0.0
H1014 H 0.48696 0.64948 0.40065 0.0
N1015 N 0.58244 0.84719 0.3786 0.0
C1016 C 0.51779 0.87703 0.3753 0.0
C1017 C 0.56574 0.90803 0.37636 0.0
C1018 C 0.50225 0.83079 0.37712 0.0
C1019 C 0.53584 0.81681 0.37919 0.0
C1020 C 0.59774 0.89248 0.3783 0.0
N1021 N 0.55526 0.76004 0.38572 0.0
C1022 C 0.52178 0.77174 0.38285 0.0
C1023 C 0.49626 0.68369 0.3955 0.0
C1024 C 0.46121 0.6946 0.39098 0.0
C1025 C 0.54344 0.71714 0.39299 0.0
C1026 C 0.47377 0.73924 0.3849 0.0
H1027 H 0.42469 0.66861 0.39278 0.0
O1028 O 0.63707 0.79145 0.41637 0.0
O1029 O 0.69834 0.82266 0.36366 0.0
O1030 O 0.65253 0.77032 0.32573 0.0
O1031 O 0.59191 0.76469 0.35107 0.0
O1032 O 0.6586 0.76739 0.38638 0.0
O1033 O 0.64927 0.85976 0.41231 0.0
O1034 O 0.7006 0.86882 0.28784 0.0
O1035 O 0.6442 0.83879 0.33981 0.0
O1036 O 0.69082 0.8917 0.3778 0.0
O1037 O 0.75145 0.89693 0.35265 0.0
O1038 O 0.68444 0.89484 0.31764 0.0
O1039 O 0.70018 0.80523 0.29048 0.0
C1040 C 0.69704 0.78842 0.37363 0.0
C1041 C 0.44007 0.75257 0.38138 0.0
C1042 C 0.45438 0.79829 0.37728 0.0
C1043 C 0.64473 0.828 0.42777 0.0
C1044 C 0.61704 0.82153 0.45054 0.0
C1045 C 0.57055 0.81245 0.44936 0.0
C1046 C 0.63792 0.82522 0.47388 0.0
C1047 C 0.61294 0.82071 0.49609 0.0
C1048 C 0.54536 0.80751 0.47136 0.0
C1049 C 0.56645 0.81188 0.49463 0.0
C1050 C 0.60817 0.74885 0.33355 0.0
C1051 C 0.64559 0.87324 0.33004 0.0
C1052 C 0.69878 0.83516 0.27571 0.0
C1053 C 0.72659 0.84715 0.25254 0.0
C1054 C 0.77575 0.87238 0.25282 0.0
C1055 C 0.70315 0.83572 0.22962 0.0
C1056 C 0.72841 0.85037 0.20701 0.0
C1057 C 0.80106 0.88688 0.23035 0.0
C1058 C 0.77754 0.87634 0.20751 0.0
C1059 C 0.73529 0.91286 0.37016 0.0
H1060 H 0.55392 0.80952 0.43152 0.0
H1061 H 0.67407 0.8328 0.47472 0.0
H1062 H 0.50952 0.80061 0.47037 0.0
H1063 H 0.54644 0.80821 0.51147 0.0
H1064 H 0.79448 0.88135 0.27028 0.0
H1065 H 0.66512 0.81644 0.22937 0.0
H1066 H 0.83897 0.90662 0.23066 0.0
H1067 H 0.79762 0.88795 0.19025 0.0
Gd1068 Gd 0.15535 0.84893 0.32294 0.0
Gd1069 Gd 0.18811 0.81238 0.38073 0.0
C1070 C 0.32039 0.80267 0.39153 0.0
C1071 C 0.28853 0.72187 0.39748 0.0
C1072 C 0.23648 0.75198 0.38966 0.0
C1073 C 0.27459 0.79523 0.38801 0.0
C1074 C 0.24297 0.71482 0.39463 0.0
C1075 C 0.32708 0.76572 0.39617 0.0
C1076 C 0.35789 0.84713 0.39116 0.0
C1077 C 0.34904 0.88284 0.38817 0.0
N1078 N 0.26669 0.83026 0.38444 0.0
C1079 C 0.30289 0.87376 0.38528 0.0
H1080 H 0.29641 0.90166 0.38334 0.0
C1081 C 0.1541 0.70505 0.39186 0.0
N1082 N 0.19287 0.7466 0.38788 0.0
C1083 C 0.15878 0.66709 0.39634 0.0
C1084 C 0.20341 0.67191 0.39755 0.0
H1085 H 0.11938 0.70079 0.3911 0.0
H1086 H 0.3617 0.77072 0.39957 0.0
H1087 H 0.04664 0.76036 0.31993 0.0
H1088 H 0.3936 0.85429 0.39374 0.0
H1089 H 0.37769 0.91739 0.38829 0.0
H1090 H 0.29424 0.6938 0.40145 0.0
H1091 H 0.22514 0.96078 0.31313 0.0
H1092 H 0.95065 0.80917 0.30946 0.0
H1093 H 0.96569 0.74549 0.31483 0.0
H1094 H 0.05137 0.96952 0.30225 0.0
H1095 H 0.12794 0.63417 0.39898 0.0
H1096 H 0.20695 0.64251 0.40131 0.0
H1097 H 0.9834 0.89292 0.30384 0.0
H1098 H 0.21737 0.0278 0.3054 0.0
N1099 N 0.07706 0.83184 0.31894 0.0
C1100 C 0.98623 0.81595 0.31207 0.0
C1101 C 0.99458 0.77991 0.31502 0.0
C1102 C 0.02405 0.86024 0.31182 0.0
C1103 C 0.06964 0.86719 0.31541 0.0
C1104 C 0.04055 0.7885 0.31799 0.0
N1105 N 0.15148 0.91524 0.31587 0.0
C1106 C 0.10805 0.91028 0.31393 0.0
C1107 C 0.18632 0.99497 0.30782 0.0
C1108 C 0.14188 0.99055 0.30642 0.0
C1109 C 0.19053 0.95672 0.3122 0.0
C1110 C 0.10205 0.94777 0.30907 0.0
H1111 H 0.13871 0.02018 0.30275 0.0
O1112 O 0.19446 0.87012 0.28796 0.0
O1113 O 0.20959 0.83799 0.34175 0.0
O1114 O 0.21526 0.88807 0.37884 0.0
O1115 O 0.16353 0.89739 0.35315 0.0
O1116 O 0.23353 0.89577 0.32038 0.0
O1117 O 0.12601 0.80986 0.28918 0.0
O1118 O 0.14945 0.79086 0.41584 0.0
O1119 O 0.13389 0.82296 0.36182 0.0
O1120 O 0.12739 0.77315 0.32487 0.0
O1121 O 0.17861 0.76314 0.35068 0.0
O1122 O 0.10985 0.76565 0.3836 0.0
O1123 O 0.21735 0.85178 0.41438 0.0
C1124 C 0.24644 0.87247 0.3338 0.0
C1125 C 0.0567 0.9412 0.30613 0.0
C1126 C 0.01786 0.89751 0.30727 0.0
C1127 C 0.16144 0.83766 0.27515 0.0
C1128 C 0.15057 0.85096 0.25091 0.0
C1129 C 0.1294 0.8778 0.24975 0.0
C1130 C 0.16373 0.83855 0.22864 0.0
C1131 C 0.15678 0.85376 0.20532 0.0
C1132 C 0.1221 0.89269 0.22667 0.0
C1133 C 0.13598 0.88107 0.20457 0.0
C1134 C 0.19474 0.91108 0.37131 0.0
C1135 C 0.09699 0.78871 0.36992 0.0
C1136 C 0.18231 0.82369 0.42854 0.0
C1137 C 0.19385 0.8109 0.45274 0.0
C1138 C 0.21583 0.78477 0.45385 0.0
C1139 C 0.18065 0.82316 0.47505 0.0
C1140 C 0.18836 0.80848 0.49836 0.0
C1141 C 0.22388 0.77042 0.47692 0.0
C1142 C 0.20994 0.78187 0.49906 0.0
C1143 C 0.14715 0.74956 0.33263 0.0
H1144 H 0.11898 0.88762 0.26661 0.0
H1145 H 0.18044 0.81808 0.22949 0.0
H1146 H 0.1059 0.91356 0.22592 0.0
H1147 H 0.13005 0.89303 0.18686 0.0
H1148 H 0.22634 0.77511 0.43696 0.0
H1149 H 0.16335 0.84311 0.47425 0.0
H1150 H 0.2407 0.7501 0.47762 0.0
H1151 H 0.21644 0.77033 0.51676 0.0
Gd1152 Gd 0.85725 0.69834 0.71307 0.0
Gd1153 Gd 0.81831 0.6295 0.65546 0.0
C1154 C 0.67835 0.49769 0.65051 0.0
C1155 C 0.7034 0.44224 0.64532 0.0
C1156 C 0.76116 0.52206 0.64865 0.0
C1157 C 0.72574 0.53225 0.65125 0.0
C1158 C 0.75046 0.47706 0.64508 0.0
C1159 C 0.66738 0.45254 0.64807 0.0
C1160 C 0.64347 0.50968 0.65162 0.0
C1161 C 0.65629 0.55524 0.65251 0.0
N1162 N 0.73764 0.57623 0.65339 0.0
C1163 C 0.7038 0.58828 0.653 0.0
H1164 H 0.7131 0.62331 0.65376 0.0
C1165 C 0.8421 0.54876 0.64292 0.0
N1166 N 0.80613 0.55653 0.64837 0.0
C1167 C 0.83332 0.5047 0.63932 0.0
C1168 C 0.78734 0.4686 0.64073 0.0
H1169 H 0.87775 0.57643 0.6419 0.0
H1170 H 0.63119 0.42548 0.64769 0.0
H1171 H 0.96262 0.7049 0.71512 0.0
H1172 H 0.60666 0.48416 0.6512 0.0
H1173 H 0.62962 0.56497 0.65289 0.0
H1174 H 0.69445 0.4074 0.64284 0.0
H1175 H 0.79728 0.75116 0.72622 0.0
H1176 H 0.06866 0.84413 0.71814 0.0
H1177 H 0.04599 0.76341 0.71632 0.0
H1178 H 0.98031 0.92041 0.72608 0.0
H1179 H 0.86201 0.49862 0.63553 0.0
H1180 H 0.78062 0.43451 0.63789 0.0
H1181 H 0.04381 0.90259 0.72154 0.0
H1182 H 0.81269 0.82883 0.73255 0.0
N1183 N 0.93782 0.75179 0.71546 0.0
C1184 C 0.03189 0.81853 0.71759 0.0
C1185 C 0.01923 0.77302 0.71662 0.0
C1186 C 0.99688 0.83037 0.71857 0.0
C1187 C 0.94955 0.79571 0.71765 0.0
C1188 C 0.97178 0.73988 0.71595 0.0
N1189 N 0.86907 0.7712 0.72018 0.0
C1190 C 0.914 0.80575 0.72011 0.0
C1191 C 0.84152 0.82285 0.72895 0.0
C1192 C 0.88747 0.85903 0.72777 0.0
C1193 C 0.83293 0.77885 0.72538 0.0
C1194 C 0.9245 0.8507 0.72366 0.0
H1195 H 0.89404 0.89307 0.73059 0.0
O1196 O 0.81749 0.68159 0.74787 0.0
O1197 O 0.80095 0.63717 0.69466 0.0
O1198 O 0.79496 0.6818 0.65715 0.0
O1199 O 0.84684 0.73966 0.68322 0.0
O1200 O 0.78002 0.67408 0.716 0.0
O1201 O 0.88462 0.68468 0.7472 0.0
O1202 O 0.85775 0.64592 0.62058 0.0
O1203 O 0.87457 0.69049 0.67392 0.0
O1204 O 0.88103 0.64636 0.71127 0.0
O1205 O 0.82943 0.58844 0.68512 0.0
O1206 O 0.89564 0.65407 0.65226 0.0
O1207 O 0.79057 0.64279 0.62137 0.0
C1208 C 0.76543 0.63809 0.70293 0.0
C1209 C 0.97152 0.88561 0.72361 0.0
C1210 C 0.00767 0.87546 0.72103 0.0
C1211 C 0.84892 0.67814 0.76093 0.0
C1212 C 0.85882 0.69902 0.78583 0.0
C1213 C 0.87889 0.74592 0.78806 0.0
C1214 C 0.84536 0.67158 0.80764 0.0
C1215 C 0.85077 0.69087 0.83149 0.0
C1216 C 0.88474 0.76519 0.81163 0.0
C1217 C 0.87046 0.73793 0.83317 0.0
C1218 C 0.81581 0.72419 0.66487 0.0
C1219 C 0.91016 0.68982 0.66554 0.0
C1220 C 0.82612 0.64912 0.60757 0.0
C1221 C 0.8159 0.62781 0.5828 0.0
C1222 C 0.79542 0.58084 0.58078 0.0
C1223 C 0.82946 0.65495 0.5609 0.0
C1224 C 0.82375 0.6353 0.53715 0.0
C1225 C 0.78927 0.5612 0.5573 0.0
C1226 C 0.80365 0.58817 0.53564 0.0
C1227 C 0.86065 0.60409 0.70338 0.0
H1228 H 0.88944 0.76752 0.77158 0.0
H1229 H 0.82954 0.63526 0.80601 0.0
H1230 H 0.90005 0.80141 0.81319 0.0
H1231 H 0.8752 0.75367 0.85123 0.0
H1232 H 0.78476 0.55945 0.59734 0.0
H1233 H 0.8456 0.69132 0.56237 0.0
H1234 H 0.77364 0.52492 0.55588 0.0
H1235 H 0.79867 0.57217 0.51764 0.0
Gd1236 Gd 0.30023 0.1508 0.71304 0.0
Gd1237 Gd 0.37613 0.17796 0.65721 0.0
C1238 C 0.50867 0.16694 0.65908 0.0
C1239 C 0.56998 0.24551 0.65484 0.0
C1240 C 0.48793 0.22531 0.65395 0.0
C1241 C 0.47454 0.18029 0.65732 0.0
C1242 C 0.53576 0.25828 0.65172 0.0
C1243 C 0.55637 0.19992 0.65876 0.0
C1244 C 0.49383 0.12082 0.66079 0.0
C1245 C 0.446 0.0893 0.65996 0.0
N1246 N 0.42809 0.14936 0.65806 0.0
C1247 C 0.41344 0.10421 0.65833 0.0
H1248 H 0.37662 0.07939 0.65805 0.0
C1249 C 0.46509 0.27928 0.64431 0.0
N1250 N 0.45397 0.23651 0.65148 0.0
C1251 C 0.51207 0.31316 0.64165 0.0
C1252 C 0.54761 0.3028 0.64583 0.0
H1253 H 0.43768 0.28747 0.64136 0.0
H1254 H 0.58283 0.19023 0.66108 0.0
H1255 H 0.3013 0.25024 0.71208 0.0
H1256 H 0.51898 0.10922 0.66225 0.0
H1257 H 0.43414 0.05352 0.66085 0.0
H1258 H 0.60697 0.27046 0.65378 0.0
H1259 H 0.23719 0.04177 0.72939 0.0
H1260 H 0.15974 0.22241 0.70695 0.0
H1261 H 0.2448 0.2772 0.70877 0.0
H1262 H 0.06965 0.06124 0.71562 0.0
H1263 H 0.52084 0.34726 0.63658 0.0
H1264 H 0.58397 0.32913 0.64389 0.0
H1265 H 0.09497 0.14168 0.70804 0.0
H1266 H 0.15367 0.98277 0.73398 0.0
N1267 N 0.24912 0.18048 0.71194 0.0
C1268 C 0.18445 0.21031 0.70865 0.0
C1269 C 0.2324 0.24131 0.70971 0.0
C1270 C 0.16892 0.16406 0.71047 0.0
C1271 C 0.20252 0.15009 0.71254 0.0
C1272 C 0.26441 0.22576 0.71164 0.0
N1273 N 0.22196 0.09334 0.71905 0.0
C1274 C 0.18847 0.10502 0.71619 0.0
C1275 C 0.16296 0.01698 0.72883 0.0
C1276 C 0.12791 0.02788 0.72432 0.0
C1277 C 0.21015 0.05043 0.72632 0.0
C1278 C 0.14046 0.07252 0.71825 0.0
H1279 H 0.09139 0.00188 0.72612 0.0
O1280 O 0.30378 0.12474 0.7497 0.0
O1281 O 0.36502 0.15597 0.69698 0.0
O1282 O 0.31919 0.10364 0.65905 0.0
O1283 O 0.25858 0.09801 0.6844 0.0
O1284 O 0.32528 0.10068 0.7197 0.0
O1285 O 0.31596 0.19305 0.74564 0.0
O1286 O 0.36723 0.20213 0.62117 0.0
O1287 O 0.31087 0.1721 0.67314 0.0
O1288 O 0.35751 0.225 0.71113 0.0
O1289 O 0.41812 0.23025 0.68598 0.0
O1290 O 0.35112 0.22817 0.65098 0.0
O1291 O 0.36682 0.13855 0.6238 0.0
C1292 C 0.36373 0.12173 0.70694 0.0
C1293 C 0.10675 0.08584 0.71473 0.0
C1294 C 0.12105 0.13156 0.71063 0.0
C1295 C 0.31144 0.1613 0.7611 0.0
C1296 C 0.28375 0.15481 0.78388 0.0
C1297 C 0.23726 0.14571 0.7827 0.0
C1298 C 0.30466 0.15853 0.80721 0.0
C1299 C 0.27969 0.15402 0.82942 0.0
C1300 C 0.21208 0.14076 0.80471 0.0
C1301 C 0.23319 0.14516 0.82797 0.0
C1302 C 0.27483 0.08217 0.66687 0.0
C1303 C 0.31227 0.20657 0.66338 0.0
C1304 C 0.3654 0.16847 0.60903 0.0
C1305 C 0.39319 0.18046 0.58585 0.0
C1306 C 0.44235 0.20571 0.58612 0.0
C1307 C 0.36972 0.16902 0.56294 0.0
C1308 C 0.39495 0.18366 0.54033 0.0
C1309 C 0.46764 0.22021 0.56365 0.0
C1310 C 0.44409 0.20965 0.54081 0.0
C1311 C 0.40197 0.24616 0.70349 0.0
H1312 H 0.22061 0.14276 0.76487 0.0
H1313 H 0.34082 0.16613 0.80805 0.0
H1314 H 0.17623 0.13384 0.80373 0.0
H1315 H 0.21318 0.14149 0.84482 0.0
H1316 H 0.46109 0.21471 0.60358 0.0
H1317 H 0.33169 0.14973 0.5627 0.0
H1318 H 0.50555 0.23997 0.56394 0.0
H1319 H 0.46414 0.22126 0.52354 0.0
Gd1320 Gd 0.82208 0.18229 0.6563 0.0
Gd1321 Gd 0.85483 0.14573 0.71409 0.0
C1322 C 0.98707 0.13594 0.72486 0.0
C1323 C 0.95517 0.05513 0.73082 0.0
C1324 C 0.90316 0.08529 0.723 0.0
C1325 C 0.94128 0.12852 0.72134 0.0
C1326 C 0.90962 0.04811 0.72797 0.0
C1327 C 0.99374 0.09897 0.7295 0.0
C1328 C 0.02459 0.18039 0.72449 0.0
C1329 C 0.01576 0.21612 0.7215 0.0
N1330 N 0.9334 0.16357 0.71778 0.0
C1331 C 0.96962 0.20706 0.71862 0.0
H1332 H 0.96315 0.23497 0.71668 0.0
C1333 C 0.82077 0.03839 0.72522 0.0
N1334 N 0.85955 0.07992 0.72123 0.0
C1335 C 0.82542 0.00041 0.72969 0.0
C1336 C 0.87005 0.00521 0.73089 0.0
H1337 H 0.78605 0.03414 0.72446 0.0
H1338 H 0.02836 0.10396 0.73289 0.0
H1339 H 0.71333 0.09378 0.65329 0.0
H1340 H 0.0603 0.18753 0.72707 0.0
H1341 H 0.04442 0.25066 0.72162 0.0
H1342 H 0.96087 0.02706 0.73479 0.0
H1343 H 0.89194 0.29414 0.64648 0.0
H1344 H 0.61743 0.14271 0.64286 0.0
H1345 H 0.6324 0.07898 0.6482 0.0
H1346 H 0.71826 0.30305 0.63566 0.0
H1347 H 0.79458 0.96751 0.73235 0.0
H1348 H 0.87357 0.9758 0.73466 0.0
H1349 H 0.65024 0.22647 0.63727 0.0
H1350 H 0.88423 0.36119 0.63877 0.0
N1351 N 0.7438 0.16527 0.65231 0.0
C1352 C 0.653 0.14945 0.64546 0.0
C1353 C 0.66132 0.11339 0.6484 0.0
C1354 C 0.69084 0.19373 0.64521 0.0
C1355 C 0.73642 0.20064 0.64879 0.0
C1356 C 0.70727 0.12194 0.65136 0.0
N1357 N 0.81827 0.24864 0.64924 0.0
C1358 C 0.77486 0.24372 0.64731 0.0
C1359 C 0.85317 0.32837 0.64119 0.0
C1360 C 0.80875 0.324 0.6398 0.0
C1361 C 0.85734 0.2901 0.64556 0.0
C1362 C 0.76889 0.28123 0.64246 0.0
H1363 H 0.80561 0.35365 0.63614 0.0
O1364 O 0.86117 0.20343 0.62132 0.0
O1365 O 0.8763 0.17133 0.67511 0.0
O1366 O 0.88201 0.22142 0.7122 0.0
O1367 O 0.83028 0.23076 0.68651 0.0
O1368 O 0.90025 0.22911 0.65373 0.0
O1369 O 0.79269 0.14323 0.62255 0.0
O1370 O 0.8162 0.12423 0.7492 0.0
O1371 O 0.80062 0.15633 0.69518 0.0
O1372 O 0.79408 0.1065 0.65824 0.0
O1373 O 0.84529 0.09647 0.68404 0.0
O1374 O 0.77657 0.09903 0.71698 0.0
O1375 O 0.88412 0.18513 0.74774 0.0
C1376 C 0.91316 0.2058 0.66715 0.0
C1377 C 0.72355 0.2747 0.63953 0.0
C1378 C 0.68469 0.23103 0.64068 0.0
C1379 C 0.82812 0.17099 0.60851 0.0
C1380 C 0.81727 0.18432 0.58428 0.0
C1381 C 0.79613 0.21119 0.58312 0.0
C1382 C 0.83041 0.17191 0.562 0.0
C1383 C 0.82347 0.18714 0.53868 0.0
C1384 C 0.78884 0.22611 0.56005 0.0
C1385 C 0.80271 0.21448 0.53794 0.0
C1386 C 0.8615 0.24445 0.70467 0.0
C1387 C 0.76372 0.12209 0.70329 0.0
C1388 C 0.84908 0.15705 0.7619 0.0
C1389 C 0.86063 0.14425 0.78609 0.0
C1390 C 0.88261 0.11813 0.7872 0.0
C1391 C 0.84742 0.15649 0.80841 0.0
C1392 C 0.85514 0.1418 0.83171 0.0
C1393 C 0.89067 0.10376 0.81025 0.0
C1394 C 0.87673 0.1152 0.8324 0.0
C1395 C 0.81382 0.0829 0.666 0.0
H1396 H 0.78572 0.22101 0.59999 0.0
H1397 H 0.84709 0.15141 0.56284 0.0
H1398 H 0.77267 0.247 0.5593 0.0
H1399 H 0.7968 0.22646 0.52023 0.0
H1400 H 0.89313 0.10848 0.7703 0.0
H1401 H 0.83012 0.17643 0.80762 0.0
H1402 H 0.90749 0.08345 0.81095 0.0
H1403 H 0.88323 0.10365 0.8501 0.0
loop_
_geom_bond_atom_site_label_1
_geom_bond_atom_site_label_2
_geom_bond_distance
_geom_bond_site_symmetry_2
_ccdc_geom_bond_type
C0 C1 1.384 . S
C0 H13 0.947 . S
C0 C35 1.382 1_565 S
C1 C0 1.384 . S
C1 C2 1.378 1_565 S
C2 C1 1.378 1_545 S
C2 C3 1.378 . S
C2 H14 0.952 . S
C3 C2 1.378 . S
C3 H15 0.950 . S
C3 C34 1.383 . S
H4 C23 0.947 . S
H5 C24 0.946 . S
H6 C26 0.953 . S
H7 C27 0.945 . S
H8 C29 0.952 . S
H9 C30 0.949 . S
H10 C32 0.950 . S
H11 C33 0.948 . S
H12 C35 0.951 . S
H13 C0 0.947 . S
H14 C2 0.952 . S
H15 C3 0.950 . S
N16 C19 1.382 . S
N16 C21 1.363 . S
N17 C19 1.371 . S
N17 C20 1.372 . S
N18 C20 1.361 . S
N18 C21 1.377 . S
C19 N16 1.382 . S
C19 N17 1.371 . S
C19 C22 1.480 . S
C20 N17 1.372 . S
C20 N18 1.361 . S
C20 C28 1.457 . S
C21 N16 1.363 . S
C21 N18 1.377 . S
C21 C34 1.479 . S
C22 C19 1.480 . S
C22 C23 1.383 . S
C22 C27 1.385 . S
C23 H4 0.947 . S
C23 C22 1.383 . S
C23 C24 1.388 . S
C24 H5 0.946 . S
C24 C23 1.388 . S
C24 C25 1.384 . S
C25 C24 1.384 . S
C25 C26 1.377 . S
C26 H6 0.953 . S
C26 C25 1.377 . S
C26 C27 1.369 . S
C27 H7 0.945 . S
C27 C22 1.385 . S
C27 C26 1.369 . S
C28 C20 1.457 . S
C28 C29 1.372 . S
C28 C33 1.364 . S
C29 H8 0.952 . S
C29 C28 1.372 . S
C29 C30 1.389 . S
C30 H9 0.949 . S
C30 C29 1.389 . S
C30 C31 1.387 . S
C31 C30 1.387 . S
C31 C32 1.372 . S
C32 H10 0.950 . S
C32 C31 1.372 . S
C32 C33 1.379 . S
C33 H11 0.948 . S
C33 C28 1.364 . S
C33 C32 1.379 . S
C34 C3 1.383 . S
C34 C21 1.479 . S
C34 C35 1.398 . S
C35 C0 1.382 1_545 S
C35 H12 0.951 . S
C35 C34 1.398 . S
C36 C37 1.384 . S
C36 H49 0.947 . S
C36 C71 1.382 1_455 S
C37 C36 1.384 . S
C37 C38 1.378 . S
C38 C37 1.378 . S
C38 C39 1.378 1_455 S
C38 H50 0.952 . S
C39 C38 1.378 1_655 S
C39 H51 0.950 . S
C39 C70 1.383 . S
H40 C59 0.947 . S
H41 C60 0.946 . S
H42 C62 0.953 . S
H43 C63 0.945 . S
H44 C65 0.952 . S
H45 C66 0.949 . S
H46 C68 0.950 . S
H47 C69 0.948 . S
H48 C71 0.951 . S
H49 C36 0.947 . S
H50 C38 0.952 . S
H51 C39 0.950 . S
N52 C55 1.382 . S
N52 C57 1.363 . S
N53 C55 1.371 . S
N53 C56 1.372 . S
N54 C56 1.361 . S
N54 C57 1.377 . S
C55 N52 1.382 . S
C55 N53 1.371 . S
C55 C58 1.480 . S
C56 N53 1.372 . S
C56 N54 1.361 . S
C56 C64 1.457 . S
C57 N52 1.363 . S
C57 N54 1.377 . S
C57 C70 1.479 . S
C58 C55 1.480 . S
C58 C59 1.383 . S
C58 C63 1.385 . S
C59 H40 0.947 . S
C59 C58 1.383 . S
C59 C60 1.388 1_545 S
C60 H41 0.946 . S
C60 C59 1.388 1_565 S
C60 C61 1.384 . S
C61 C60 1.384 . S
C61 C62 1.377 . S
C62 H42 0.953 . S
C62 C61 1.377 . S
C62 C63 1.369 1_565 S
C63 H43 0.945 . S
C63 C58 1.385 . S
C63 C62 1.369 1_545 S
C64 C56 1.457 . S
C64 C65 1.372 . S
C64 C69 1.364 . S
C65 H44 0.952 . S
C65 C64 1.372 . S
C65 C66 1.389 . S
C66 H45 0.949 . S
C66 C65 1.389 . S
C66 C67 1.387 . S
C67 C66 1.387 . S
C67 C68 1.372 . S
C68 H46 0.950 . S
C68 C67 1.372 . S
C68 C69 1.379 . S
C69 H47 0.948 . S
C69 C64 1.364 . S
C69 C68 1.379 . S
C70 C39 1.383 . S
C70 C57 1.479 . S
C70 C71 1.398 . S
C71 C36 1.382 1_655 S
C71 H48 0.951 . S
C71 C70 1.398 . S
C72 C73 1.384 . S
C72 H85 0.947 . S
C72 C107 1.382 . S
C73 C72 1.384 . S
C73 C74 1.378 . S
C74 C73 1.378 . S
C74 C75 1.378 . S
C74 H86 0.952 . S
C75 C74 1.378 . S
C75 H87 0.950 . S
C75 C106 1.383 . S
H76 C95 0.947 . S
H77 C96 0.946 . S
H78 C98 0.953 . S
H79 C99 0.945 . S
H80 C101 0.952 . S
H81 C102 0.949 . S
H82 C104 0.950 . S
H83 C105 0.948 . S
H84 C107 0.951 . S
H85 C72 0.947 . S
H86 C74 0.952 . S
H87 C75 0.950 . S
N88 C91 1.382 . S
N88 C93 1.363 . S
N89 C91 1.371 . S
N89 C92 1.372 . S
N90 C92 1.361 . S
N90 C93 1.377 . S
C91 N88 1.382 . S
C91 N89 1.371 . S
C91 C94 1.480 . S
C92 N89 1.372 . S
C92 N90 1.361 . S
C92 C100 1.457 . S
C93 N88 1.363 . S
C93 N90 1.377 . S
C93 C106 1.479 . S
C94 C91 1.480 . S
C94 C95 1.383 . S
C94 C99 1.385 . S
C95 H76 0.947 . S
C95 C94 1.383 . S
C95 C96 1.388 1_655 S
C96 H77 0.946 . S
C96 C95 1.388 1_455 S
C96 C97 1.384 . S
C97 C96 1.384 . S
C97 C98 1.377 . S
C98 H78 0.953 . S
C98 C97 1.377 . S
C98 C99 1.369 1_455 S
C99 H79 0.945 . S
C99 C94 1.385 . S
C99 C98 1.369 1_655 S
C100 C92 1.457 . S
C100 C101 1.372 . S
C100 C105 1.364 . S
C101 H80 0.952 . S
C101 C100 1.372 . S
C101 C102 1.389 . S
C102 H81 0.949 . S
C102 C101 1.389 . S
C102 C103 1.387 . S
C103 C102 1.387 . S
C103 C104 1.372 . S
C104 H82 0.950 . S
C104 C103 1.372 . S
C104 C105 1.379 . S
C105 H83 0.948 . S
C105 C100 1.364 . S
C105 C104 1.379 . S
C106 C75 1.383 . S
C106 C93 1.479 . S
C106 C107 1.398 . S
C107 C72 1.382 . S
C107 H84 0.951 . S
C107 C106 1.398 . S
C108 C109 1.384 . S
C108 H121 0.947 . S
C108 C143 1.382 1_655 S
C109 C108 1.384 . S
C109 C110 1.378 . S
C110 C109 1.378 . S
C110 C111 1.378 1_655 S
C110 H122 0.952 . S
C111 C110 1.378 1_455 S
C111 H123 0.950 . S
C111 C142 1.383 . S
H112 C131 0.947 . S
H113 C132 0.946 . S
H114 C134 0.953 . S
H115 C135 0.945 . S
H116 C137 0.952 . S
H117 C138 0.949 . S
H118 C140 0.950 . S
H119 C141 0.948 . S
H120 C143 0.951 . S
H121 C108 0.947 . S
H122 C110 0.952 . S
H123 C111 0.950 . S
N124 C127 1.382 . S
N124 C129 1.363 . S
N125 C127 1.371 . S
N125 C128 1.372 . S
N126 C128 1.361 . S
N126 C129 1.377 . S
C127 N124 1.382 . S
C127 N125 1.371 . S
C127 C130 1.480 . S
C128 N125 1.372 . S
C128 N126 1.361 . S
C128 C136 1.457 . S
C129 N124 1.363 . S
C129 N126 1.377 . S
C129 C142 1.479 . S
C130 C127 1.480 . S
C130 C131 1.383 . S
C130 C135 1.385 . S
C131 H112 0.947 . S
C131 C130 1.383 . S
C131 C132 1.388 . S
C132 H113 0.946 . S
C132 C131 1.388 . S
C132 C133 1.384 . S
C133 C132 1.384 . S
C133 C134 1.377 . S
C134 H114 0.953 . S
C134 C133 1.377 . S
C134 C135 1.369 . S
C135 H115 0.945 . S
C135 C130 1.385 . S
C135 C134 1.369 . S
C136 C128 1.457 . S
C136 C137 1.372 . S
C136 C141 1.364 . S
C137 H116 0.952 . S
C137 C136 1.372 . S
C137 C138 1.389 . S
C138 H117 0.949 . S
C138 C137 1.389 . S
C138 C139 1.387 . S
C139 C138 1.387 . S
C139 C140 1.372 . S
C140 H118 0.950 . S
C140 C139 1.372 . S
C140 C141 1.379 . S
C141 H119 0.948 . S
C141 C136 1.364 . S
C141 C140 1.379 . S
C142 C111 1.383 . S
C142 C129 1.479 . S
C142 C143 1.398 . S
C143 C108 1.382 1_455 S
C143 H120 0.951 . S
C143 C142 1.398 . S
C144 C145 1.384 . S
C144 H157 0.947 . S
C144 C179 1.382 . S
C145 C144 1.384 . S
C145 C146 1.378 . S
C146 C145 1.378 . S
C146 C147 1.378 . S
C146 H158 0.952 . S
C147 C146 1.378 . S
C147 H159 0.950 . S
C147 C178 1.383 . S
H148 C167 0.947 . S
H149 C168 0.946 1_545 S
H150 C170 0.953 . S
H151 C171 0.945 . S
H152 C173 0.952 . S
H153 C174 0.949 . S
H154 C176 0.950 . S
H155 C177 0.948 . S
H156 C179 0.951 . S
H157 C144 0.947 . S
H158 C146 0.952 . S
H159 C147 0.950 . S
N160 C163 1.382 . S
N160 C165 1.363 . S
N161 C163 1.371 . S
N161 C164 1.372 . S
N162 C164 1.361 . S
N162 C165 1.377 . S
C163 N160 1.382 . S
C163 N161 1.371 . S
C163 C166 1.480 . S
C164 N161 1.372 . S
C164 N162 1.361 . S
C164 C172 1.457 . S
C165 N160 1.363 . S
C165 N162 1.377 . S
C165 C178 1.479 . S
C166 C163 1.480 . S
C166 C167 1.383 . S
C166 C171 1.385 . S
C167 H148 0.947 . S
C167 C166 1.383 . S
C167 C168 1.388 . S
C168 H149 0.946 1_565 S
C168 C167 1.388 . S
C168 C169 1.384 1_565 S
C169 C168 1.384 1_545 S
C169 C170 1.377 . S
C170 H150 0.953 . S
C170 C169 1.377 . S
C170 C171 1.369 1_545 S
C171 H151 0.945 . S
C171 C166 1.385 . S
C171 C170 1.369 1_565 S
C172 C164 1.457 . S
C172 C173 1.372 . S
C172 C177 1.364 . S
C173 H152 0.952 . S
C173 C172 1.372 . S
C173 C174 1.389 . S
C174 H153 0.949 . S
C174 C173 1.389 . S
C174 C175 1.387 . S
C175 C174 1.387 . S
C175 C176 1.372 . S
C176 H154 0.950 . S
C176 C175 1.372 . S
C176 C177 1.379 . S
C177 H155 0.948 . S
C177 C172 1.364 . S
C177 C176 1.379 . S
C178 C147 1.383 . S
C178 C165 1.479 . S
C178 C179 1.398 . S
C179 C144 1.382 . S
C179 H156 0.951 . S
C179 C178 1.398 . S
C180 C181 1.384 . S
C180 H193 0.947 . S
C180 C215 1.382 1_545 S
C181 C180 1.384 . S
C181 C182 1.378 1_545 S
C182 C181 1.378 1_565 S
C182 C183 1.378 . S
C182 H194 0.952 1_565 S
C183 C182 1.378 . S
C183 H195 0.950 . S
C183 C214 1.383 . S
H184 C203 0.947 . S
H185 C204 0.946 . S
H186 C206 0.953 . S
H187 C207 0.945 . S
H188 C209 0.952 . S
H189 C210 0.949 . S
H190 C212 0.950 . S
H191 C213 0.948 . S
H192 C215 0.951 . S
H193 C180 0.947 . S
H194 C182 0.952 1_545 S
H195 C183 0.950 . S
N196 C199 1.382 . S
N196 C201 1.363 . S
N197 C199 1.371 . S
N197 C200 1.372 . S
N198 C200 1.361 . S
N198 C201 1.377 . S
C199 N196 1.382 . S
C199 N197 1.371 . S
C199 C202 1.480 . S
C200 N197 1.372 . S
C200 N198 1.361 . S
C200 C208 1.457 . S
C201 N196 1.363 . S
C201 N198 1.377 . S
C201 C214 1.479 . S
C202 C199 1.480 . S
C202 C203 1.383 . S
C202 C207 1.385 . S
C203 H184 0.947 . S
C203 C202 1.383 . S
C203 C204 1.388 1_455 S
C204 H185 0.946 . S
C204 C203 1.388 1_655 S
C204 C205 1.384 . S
C205 C204 1.384 . S
C205 C206 1.377 . S
C206 H186 0.953 . S
C206 C205 1.377 . S
C206 C207 1.369 1_655 S
C207 H187 0.945 . S
C207 C202 1.385 . S
C207 C206 1.369 1_455 S
C208 C200 1.457 . S
C208 C209 1.372 . S
C208 C213 1.364 . S
C209 H188 0.952 . S
C209 C208 1.372 . S
C209 C210 1.389 . S
C210 H189 0.949 . S
C210 C209 1.389 . S
C210 C211 1.387 . S
C211 C210 1.387 . S
C211 C212 1.372 . S
C212 H190 0.950 . S
C212 C211 1.372 . S
C212 C213 1.379 . S
C213 H191 0.948 . S
C213 C208 1.364 . S
C213 C212 1.379 . S
C214 C183 1.383 . S
C214 C201 1.479 . S
C214 C215 1.398 . S
C215 C180 1.382 1_565 S
C215 H192 0.951 . S
C215 C214 1.398 . S
C216 C217 1.384 . S
C216 H229 0.947 . S
C216 C251 1.382 . S
C217 C216 1.384 . S
C217 C218 1.378 . S
C218 C217 1.378 . S
C218 C219 1.378 . S
C218 H230 0.952 . S
C219 C218 1.378 . S
C219 H231 0.950 . S
C219 C250 1.383 . S
H220 C239 0.947 . S
H221 C240 0.946 . S
H222 C242 0.953 . S
H223 C243 0.945 . S
H224 C245 0.952 . S
H225 C246 0.949 . S
H226 C248 0.950 . S
H227 C249 0.948 . S
H228 C251 0.951 . S
H229 C216 0.947 . S
H230 C218 0.952 . S
H231 C219 0.950 . S
N232 C235 1.382 . S
N232 C237 1.363 . S
N233 C235 1.371 . S
N233 C236 1.372 . S
N234 C236 1.361 . S
N234 C237 1.377 . S
C235 N232 1.382 . S
C235 N233 1.371 . S
C235 C238 1.480 . S
C236 N233 1.372 . S
C236 N234 1.361 . S
C236 C244 1.457 . S
C237 N232 1.363 . S
C237 N234 1.377 . S
C237 C250 1.479 . S
C238 C235 1.480 . S
C238 C239 1.383 . S
C238 C243 1.385 . S
C239 H220 0.947 . S
C239 C238 1.383 . S
C239 C240 1.388 . S
C240 H221 0.946 . S
C240 C239 1.388 . S
C240 C241 1.384 . S
C241 C240 1.384 . S
C241 C242 1.377 . S
C242 H222 0.953 . S
C242 C241 1.377 . S
C242 C243 1.369 . S
C243 H223 0.945 . S
C243 C238 1.385 . S
C243 C242 1.369 . S
C244 C236 1.457 . S
C244 C245 1.372 . S
C244 C249 1.364 . S
C245 H224 0.952 . S
C245 C244 1.372 . S
C245 C246 1.389 . S
C246 H225 0.949 . S
C246 C245 1.389 . S
C246 C247 1.387 . S
C247 C246 1.387 . S
C247 C248 1.372 . S
C248 H226 0.950 . S
C248 C247 1.372 . S
C248 C249 1.379 . S
C249 H227 0.948 . S
C249 C244 1.364 . S
C249 C248 1.379 . S
C250 C219 1.383 . S
C250 C237 1.479 . S
C250 C251 1.398 . S
C251 C216 1.382 . S
C251 H228 0.951 . S
C251 C250 1.398 . S
C252 C253 1.384 . S
C252 H265 0.947 . S
C252 C287 1.382 . S
C253 C252 1.384 . S
C253 C254 1.378 . S
C254 C253 1.378 . S
C254 C255 1.378 . S
C254 H266 0.952 . S
C255 C254 1.378 . S
C255 H267 0.950 . S
C255 C286 1.383 . S
H256 C275 0.947 . S
H257 C276 0.946 . S
H258 C278 0.953 . S
H259 C279 0.945 . S
H260 C281 0.952 . S
H261 C282 0.949 . S
H262 C284 0.950 . S
H263 C285 0.948 . S
H264 C287 0.951 . S
H265 C252 0.947 . S
H266 C254 0.952 . S
H267 C255 0.950 . S
N268 C271 1.382 . S
N268 C273 1.363 . S
N269 C271 1.371 . S
N269 C272 1.372 . S
N270 C272 1.361 . S
N270 C273 1.377 . S
C271 N268 1.382 . S
C271 N269 1.371 . S
C271 C274 1.480 . S
C272 N269 1.372 . S
C272 N270 1.361 . S
C272 C280 1.457 . S
C273 N268 1.363 . S
C273 N270 1.377 . S
C273 C286 1.479 . S
C274 C271 1.480 . S
C274 C275 1.383 . S
C274 C279 1.385 . S
C275 H256 0.947 . S
C275 C274 1.383 . S
C275 C276 1.388 . S
C276 H257 0.946 . S
C276 C275 1.388 . S
C276 C277 1.384 . S
C277 C276 1.384 . S
C277 C278 1.377 . S
C278 H258 0.953 . S
C278 C277 1.377 . S
C278 C279 1.369 . S
C279 H259 0.945 . S
C279 C274 1.385 . S
C279 C278 1.369 . S
C280 C272 1.457 . S
C280 C281 1.372 . S
C280 C285 1.364 . S
C281 H260 0.952 . S
C281 C280 1.372 . S
C281 C282 1.389 . S
C282 H261 0.949 . S
C282 C281 1.389 . S
C282 C283 1.387 . S
C283 C282 1.387 . S
C283 C284 1.372 . S
C284 H262 0.950 . S
C284 C283 1.372 . S
C284 C285 1.379 . S
C285 H263 0.948 . S
C285 C280 1.364 . S
C285 C284 1.379 . S
C286 C255 1.383 . S
C286 C273 1.479 . S
C286 C287 1.398 . S
C287 C252 1.382 . S
C287 H264 0.951 . S
C287 C286 1.398 . S
C288 C289 1.384 . S
C288 H301 0.947 . S
C288 C323 1.382 . S
C289 C288 1.384 . S
C289 C290 1.378 . S
C290 C289 1.378 . S
C290 C291 1.378 . S
C290 H302 0.952 . S
C291 C290 1.378 . S
C291 H303 0.950 . S
C291 C322 1.383 . S
H292 C311 0.947 . S
H293 C312 0.946 . S
H294 C314 0.953 . S
H295 C315 0.945 . S
H296 C317 0.952 . S
H297 C318 0.949 . S
H298 C320 0.950 . S
H299 C321 0.948 . S
H300 C323 0.951 . S
H301 C288 0.947 . S
H302 C290 0.952 . S
H303 C291 0.950 . S
N304 C307 1.382 . S
N304 C309 1.363 . S
N305 C307 1.371 . S
N305 C308 1.372 . S
N306 C308 1.361 . S
N306 C309 1.377 . S
C307 N304 1.382 . S
C307 N305 1.371 . S
C307 C310 1.480 . S
C308 N305 1.372 . S
C308 N306 1.361 . S
C308 C316 1.457 . S
C309 N304 1.363 . S
C309 N306 1.377 . S
C309 C322 1.479 . S
C310 C307 1.480 . S
C310 C311 1.383 . S
C310 C315 1.385 . S
C311 H292 0.947 . S
C311 C310 1.383 . S
C311 C312 1.388 . S
C312 H293 0.946 . S
C312 C311 1.388 . S
C312 C313 1.384 . S
C313 C312 1.384 . S
C313 C314 1.377 . S
C314 H294 0.953 . S
C314 C313 1.377 . S
C314 C315 1.369 . S
C315 H295 0.945 . S
C315 C310 1.385 . S
C315 C314 1.369 . S
C316 C308 1.457 . S
C316 C317 1.372 . S
C316 C321 1.364 . S
C317 H296 0.952 . S
C317 C316 1.372 . S
C317 C318 1.389 . S
C318 H297 0.949 . S
C318 C317 1.389 . S
C318 C319 1.387 . S
C319 C318 1.387 . S
C319 C320 1.372 . S
C320 H298 0.950 . S
C320 C319 1.372 . S
C320 C321 1.379 . S
C321 H299 0.948 . S
C321 C316 1.364 . S
C321 C320 1.379 . S
C322 C291 1.383 . S
C322 C309 1.479 . S
C322 C323 1.398 . S
C323 C288 1.382 . S
C323 H300 0.951 . S
C323 C322 1.398 . S
C324 C325 1.384 . S
C324 H337 0.947 . S
C324 C359 1.382 . S
C325 C324 1.384 . S
C325 C326 1.378 . S
C326 C325 1.378 . S
C326 C327 1.378 . S
C326 H338 0.952 1_556 S
C327 C326 1.378 . S
C327 H339 0.950 . S
C327 C358 1.383 . S
H328 C347 0.947 . S
H329 C348 0.946 1_554 S
H330 C350 0.953 . S
H331 C351 0.945 . S
H332 C353 0.952 . S
H333 C354 0.949 . S
H334 C356 0.950 . S
H335 C357 0.948 . S
H336 C359 0.951 . S
H337 C324 0.947 . S
H338 C326 0.952 1_554 S
H339 C327 0.950 . S
N340 C343 1.382 . S
N340 C345 1.363 . S
N341 C343 1.371 . S
N341 C344 1.372 . S
N342 C344 1.361 . S
N342 C345 1.377 . S
C343 N340 1.382 . S
C343 N341 1.371 . S
C343 C346 1.480 . S
C344 N341 1.372 . S
C344 N342 1.361 . S
C344 C352 1.457 . S
C345 N340 1.363 . S
C345 N342 1.377 . S
C345 C358 1.479 . S
C346 C343 1.480 . S
C346 C347 1.383 . S
C346 C351 1.385 . S
C347 H328 0.947 . S
C347 C346 1.383 . S
C347 C348 1.388 . S
C348 H329 0.946 1_556 S
C348 C347 1.388 . S
C348 C349 1.384 . S
C349 C348 1.384 . S
C349 C350 1.377 . S
C350 H330 0.953 . S
C350 C349 1.377 . S
C350 C351 1.369 . S
C351 H331 0.945 . S
C351 C346 1.385 . S
C351 C350 1.369 . S
C352 C344 1.457 . S
C352 C353 1.372 . S
C352 C357 1.364 . S
C353 H332 0.952 . S
C353 C352 1.372 . S
C353 C354 1.389 . S
C354 H333 0.949 . S
C354 C353 1.389 . S
C354 C355 1.387 . S
C355 C354 1.387 . S
C355 C356 1.372 . S
C356 H334 0.950 . S
C356 C355 1.372 . S
C356 C357 1.379 . S
C357 H335 0.948 . S
C357 C352 1.364 . S
C357 C356 1.379 . S
C358 C327 1.383 . S
C358 C345 1.479 . S
C358 C359 1.398 . S
C359 C324 1.382 . S
C359 H336 0.951 . S
C359 C358 1.398 . S
C360 C361 1.384 . S
C360 H373 0.947 . S
C360 C395 1.382 . S
C361 C360 1.384 . S
C361 C362 1.378 . S
C362 C361 1.378 . S
C362 C363 1.378 . S
C362 H374 0.952 1_556 S
C363 C362 1.378 . S
C363 H375 0.950 . S
C363 C394 1.383 . S
H364 C383 0.947 . S
H365 C384 0.946 1_554 S
H366 C386 0.953 . S
H367 C387 0.945 . S
H368 C389 0.952 . S
H369 C390 0.949 . S
H370 C392 0.950 . S
H371 C393 0.948 . S
H372 C395 0.951 . S
H373 C360 0.947 . S
H374 C362 0.952 1_554 S
H375 C363 0.950 . S
N376 C379 1.382 . S
N376 C381 1.363 . S
N377 C379 1.371 . S
N377 C380 1.372 . S
N378 C380 1.361 . S
N378 C381 1.377 . S
C379 N376 1.382 . S
C379 N377 1.371 . S
C379 C382 1.480 . S
C380 N377 1.372 . S
C380 N378 1.361 . S
C380 C388 1.457 . S
C381 N376 1.363 . S
C381 N378 1.377 . S
C381 C394 1.479 . S
C382 C379 1.480 . S
C382 C383 1.383 . S
C382 C387 1.385 . S
C383 H364 0.947 . S
C383 C382 1.383 . S
C383 C384 1.388 . S
C384 H365 0.946 1_556 S
C384 C383 1.388 . S
C384 C385 1.384 . S
C385 C384 1.384 . S
C385 C386 1.377 . S
C386 H366 0.953 . S
C386 C385 1.377 . S
C386 C387 1.369 . S
C387 H367 0.945 . S
C387 C382 1.385 . S
C387 C386 1.369 . S
C388 C380 1.457 . S
C388 C389 1.372 . S
C388 C393 1.364 . S
C389 H368 0.952 . S
C389 C388 1.372 . S
C389 C390 1.389 . S
C390 H369 0.949 . S
C390 C389 1.389 . S
C390 C391 1.387 . S
C391 C390 1.387 . S
C391 C392 1.372 . S
C392 H370 0.950 . S
C392 C391 1.372 . S
C392 C393 1.379 . S
C393 H371 0.948 . S
C393 C388 1.364 . S
C393 C392 1.379 . S
C394 C363 1.383 . S
C394 C381 1.479 . S
C394 C395 1.398 . S
C395 C360 1.382 . S
C395 H372 0.951 . S
C395 C394 1.398 . S
C396 C397 1.384 . S
C396 H409 0.947 . S
C396 C431 1.382 . S
C397 C396 1.384 . S
C397 C398 1.378 . S
C398 C397 1.378 . S
C398 C399 1.378 . S
C398 H410 0.952 1_556 S
C399 C398 1.378 . S
C399 H411 0.950 . S
C399 C430 1.383 . S
H400 C419 0.947 . S
H401 C420 0.946 1_554 S
H402 C422 0.953 . S
H403 C423 0.945 . S
H404 C425 0.952 . S
H405 C426 0.949 . S
H406 C428 0.950 . S
H407 C429 0.948 . S
H408 C431 0.951 . S
H409 C396 0.947 . S
H410 C398 0.952 1_554 S
H411 C399 0.950 . S
N412 C415 1.382 . S
N412 C417 1.363 . S
N413 C415 1.371 . S
N413 C416 1.372 . S
N414 C416 1.361 . S
N414 C417 1.377 . S
C415 N412 1.382 . S
C415 N413 1.371 . S
C415 C418 1.480 . S
C416 N413 1.372 . S
C416 N414 1.361 . S
C416 C424 1.457 . S
C417 N412 1.363 . S
C417 N414 1.377 . S
C417 C430 1.479 . S
C418 C415 1.480 . S
C418 C419 1.383 . S
C418 C423 1.385 . S
C419 H400 0.947 . S
C419 C418 1.383 . S
C419 C420 1.388 . S
C420 H401 0.946 1_556 S
C420 C419 1.388 . S
C420 C421 1.384 . S
C421 C420 1.384 . S
C421 C422 1.377 . S
C422 H402 0.953 . S
C422 C421 1.377 . S
C422 C423 1.369 . S
C423 H403 0.945 . S
C423 C418 1.385 . S
C423 C422 1.369 . S
C424 C416 1.457 . S
C424 C425 1.372 . S
C424 C429 1.364 . S
C425 H404 0.952 . S
C425 C424 1.372 . S
C425 C426 1.389 . S
C426 H405 0.949 . S
C426 C425 1.389 . S
C426 C427 1.387 . S
C427 C426 1.387 . S
C427 C428 1.372 . S
C428 H406 0.950 . S
C428 C427 1.372 . S
C428 C429 1.379 . S
C429 H407 0.948 . S
C429 C424 1.364 . S
C429 C428 1.379 . S
C430 C399 1.383 . S
C430 C417 1.479 . S
C430 C431 1.398 . S
C431 C396 1.382 . S
C431 H408 0.951 . S
C431 C430 1.398 . S
C432 C433 1.384 . S
C432 H445 0.947 . S
C432 C467 1.382 . S
C433 C432 1.384 . S
C433 C434 1.378 . S
C434 C433 1.378 . S
C434 C435 1.378 . S
C434 H446 0.952 1_554 S
C435 C434 1.378 . S
C435 H447 0.950 . S
C435 C466 1.383 . S
H436 C455 0.947 . S
H437 C456 0.946 1_556 S
H438 C458 0.953 . S
H439 C459 0.945 . S
H440 C461 0.952 . S
H441 C462 0.949 . S
H442 C464 0.950 . S
H443 C465 0.948 . S
H444 C467 0.951 . S
H445 C432 0.947 . S
H446 C434 0.952 1_556 S
H447 C435 0.950 . S
N448 C451 1.382 . S
N448 C453 1.363 . S
N449 C451 1.371 . S
N449 C452 1.372 . S
N450 C452 1.361 . S
N450 C453 1.377 . S
C451 N448 1.382 . S
C451 N449 1.371 . S
C451 C454 1.480 . S
C452 N449 1.372 . S
C452 N450 1.361 . S
C452 C460 1.457 . S
C453 N448 1.363 . S
C453 N450 1.377 . S
C453 C466 1.479 . S
C454 C451 1.480 . S
C454 C455 1.383 . S
C454 C459 1.385 . S
C455 H436 0.947 . S
C455 C454 1.383 . S
C455 C456 1.388 . S
C456 H437 0.946 1_554 S
C456 C455 1.388 . S
C456 C457 1.384 . S
C457 C456 1.384 . S
C457 C458 1.377 . S
C458 H438 0.953 . S
C458 C457 1.377 . S
C458 C459 1.369 . S
C459 H439 0.945 . S
C459 C454 1.385 . S
C459 C458 1.369 . S
C460 C452 1.457 . S
C460 C461 1.372 . S
C460 C465 1.364 . S
C461 H440 0.952 . S
C461 C460 1.372 . S
C461 C462 1.389 . S
C462 H441 0.949 . S
C462 C461 1.389 . S
C462 C463 1.387 . S
C463 C462 1.387 . S
C463 C464 1.372 . S
C464 H442 0.950 . S
C464 C463 1.372 . S
C464 C465 1.379 . S
C465 H443 0.948 . S
C465 C460 1.364 . S
C465 C464 1.379 . S
C466 C435 1.383 . S
C466 C453 1.479 . S
C466 C467 1.398 . S
C467 C432 1.382 . S
C467 H444 0.951 . S
C467 C466 1.398 . S
C468 C469 1.384 . S
C468 H481 0.947 . S
C468 C503 1.382 . S
C469 C468 1.384 . S
C469 C470 1.378 . S
C470 C469 1.378 . S
C470 C471 1.378 . S
C470 H482 0.952 1_554 S
C471 C470 1.378 . S
C471 H483 0.950 . S
C471 C502 1.383 . S
H472 C491 0.947 . S
H473 C492 0.946 1_556 S
H474 C494 0.953 . S
H475 C495 0.945 . S
H476 C497 0.952 . S
H477 C498 0.949 . S
H478 C500 0.950 . S
H479 C501 0.948 . S
H480 C503 0.951 . S
H481 C468 0.947 . S
H482 C470 0.952 1_556 S
H483 C471 0.950 . S
N484 C487 1.382 . S
N484 C489 1.363 . S
N485 C487 1.371 . S
N485 C488 1.372 . S
N486 C488 1.361 . S
N486 C489 1.377 . S
C487 N484 1.382 . S
C487 N485 1.371 . S
C487 C490 1.480 . S
C488 N485 1.372 . S
C488 N486 1.361 . S
C488 C496 1.457 . S
C489 N484 1.363 . S
C489 N486 1.377 . S
C489 C502 1.479 . S
C490 C487 1.480 . S
C490 C491 1.383 . S
C490 C495 1.385 . S
C491 H472 0.947 . S
C491 C490 1.383 . S
C491 C492 1.388 . S
C492 H473 0.946 1_554 S
C492 C491 1.388 . S
C492 C493 1.384 . S
C493 C492 1.384 . S
C493 C494 1.377 . S
C494 H474 0.953 . S
C494 C493 1.377 . S
C494 C495 1.369 . S
C495 H475 0.945 . S
C495 C490 1.385 . S
C495 C494 1.369 . S
C496 C488 1.457 . S
C496 C497 1.372 . S
C496 C501 1.364 . S
C497 H476 0.952 . S
C497 C496 1.372 . S
C497 C498 1.389 . S
C498 H477 0.949 . S
C498 C497 1.389 . S
C498 C499 1.387 . S
C499 C498 1.387 . S
C499 C500 1.372 . S
C500 H478 0.950 . S
C500 C499 1.372 . S
C500 C501 1.379 . S
C501 H479 0.948 . S
C501 C496 1.364 . S
C501 C500 1.379 . S
C502 C471 1.383 . S
C502 C489 1.479 . S
C502 C503 1.398 . S
C503 C468 1.382 . S
C503 H480 0.951 . S
C503 C502 1.398 . S
C504 C505 1.384 . S
C504 H517 0.947 . S
C504 C539 1.382 . S
C505 C504 1.384 . S
C505 C506 1.378 . S
C506 C505 1.378 . S
C506 C507 1.378 . S
C506 H518 0.952 1_554 S
C507 C506 1.378 . S
C507 H519 0.950 . S
C507 C538 1.383 . S
H508 C527 0.947 . S
H509 C528 0.963 . S
H510 C530 0.953 . S
H511 C531 0.945 . S
H512 C533 0.952 . S
H513 C534 0.949 . S
H514 C536 0.950 . S
H515 C537 0.948 . S
H516 C539 0.951 . S
H517 C504 0.947 . S
H518 C506 0.952 1_556 S
H519 C507 0.950 . S
N520 C523 1.382 . S
N520 C525 1.363 . S
N521 C523 1.371 . S
N521 C524 1.372 . S
N522 C524 1.361 . S
N522 C525 1.377 . S
C523 N520 1.382 . S
C523 N521 1.371 . S
C523 C526 1.480 . S
C524 N521 1.372 . S
C524 N522 1.361 . S
C524 C532 1.457 . S
C525 N520 1.363 . S
C525 N522 1.377 . S
C525 C538 1.479 . S
C526 C523 1.480 . S
C526 C527 1.383 . S
C526 C531 1.385 . S
C527 H508 0.947 . S
C527 C526 1.383 . S
C527 C528 1.388 . S
C528 H509 0.963 . S
C528 C527 1.388 . S
C528 C529 1.384 . S
C529 C528 1.384 . S
C529 C530 1.377 . S
C530 H510 0.953 . S
C530 C529 1.377 . S
C530 C531 1.369 . S
C531 H511 0.945 . S
C531 C526 1.385 . S
C531 C530 1.369 . S
C532 C524 1.457 . S
C532 C533 1.372 . S
C532 C537 1.364 . S
C533 H512 0.952 . S
C533 C532 1.372 . S
C533 C534 1.389 . S
C534 H513 0.949 . S
C534 C533 1.389 . S
C534 C535 1.387 . S
C535 C534 1.387 . S
C535 C536 1.372 . S
C536 H514 0.950 . S
C536 C535 1.372 . S
C536 C537 1.379 . S
C537 H515 0.948 . S
C537 C532 1.364 . S
C537 C536 1.379 . S
C538 C507 1.383 . S
C538 C525 1.479 . S
C538 C539 1.398 . S
C539 C504 1.382 . S
C539 H516 0.951 . S
C539 C538 1.398 . S
C540 C541 1.384 . S
C540 H553 0.947 . S
C540 C575 1.382 . S
C541 C540 1.384 . S
C541 C542 1.378 . S
C542 C541 1.378 . S
C542 C543 1.378 . S
C542 H554 0.952 . S
C543 C542 1.378 . S
C543 H555 0.950 . S
C543 C574 1.383 . S
H544 C563 0.947 . S
H545 C564 0.946 . S
H546 C566 0.953 . S
H547 C567 0.945 . S
H548 C569 0.952 . S
H549 C570 0.949 . S
H550 C572 0.950 . S
H551 C573 0.948 . S
H552 C575 0.951 . S
H553 C540 0.947 . S
H554 C542 0.952 . S
H555 C543 0.950 . S
N556 C559 1.382 . S
N556 C561 1.363 . S
N557 C559 1.371 . S
N557 C560 1.372 . S
N558 C560 1.361 . S
N558 C561 1.377 . S
C559 N556 1.382 . S
C559 N557 1.371 . S
C559 C562 1.480 . S
C560 N557 1.372 . S
C560 N558 1.361 . S
C560 C568 1.457 . S
C561 N556 1.363 . S
C561 N558 1.377 . S
C561 C574 1.479 . S
C562 C559 1.480 . S
C562 C563 1.383 . S
C562 C567 1.385 . S
C563 H544 0.947 . S
C563 C562 1.383 . S
C563 C564 1.388 . S
C564 H545 0.946 . S
C564 C563 1.388 . S
C564 C565 1.384 . S
C565 C564 1.384 . S
C565 C566 1.377 . S
C566 H546 0.953 . S
C566 C565 1.377 . S
C566 C567 1.369 . S
C567 H547 0.945 . S
C567 C562 1.385 . S
C567 C566 1.369 . S
C568 C560 1.457 . S
C568 C569 1.372 . S
C568 C573 1.364 . S
C569 H548 0.952 . S
C569 C568 1.372 . S
C569 C570 1.389 . S
C570 H549 0.949 . S
C570 C569 1.389 . S
C570 C571 1.387 . S
C571 C570 1.387 . S
C571 C572 1.372 . S
C572 H550 0.950 . S
C572 C571 1.372 . S
C572 C573 1.379 . S
C573 H551 0.948 . S
C573 C568 1.364 . S
C573 C572 1.379 . S
C574 C543 1.383 . S
C574 C561 1.479 . S
C574 C575 1.398 . S
C575 C540 1.382 . S
C575 H552 0.951 . S
C575 C574 1.398 . S
C576 C577 1.384 . S
C576 H589 0.947 . S
C576 C611 1.382 . S
C577 C576 1.384 . S
C577 C578 1.378 . S
C578 C577 1.378 . S
C578 C579 1.378 . S
C578 H590 0.952 . S
C579 C578 1.378 . S
C579 H591 0.950 . S
C579 C610 1.383 . S
H580 C599 0.947 . S
H581 C600 0.946 . S
H582 C602 0.953 . S
H583 C603 0.945 . S
H584 C605 0.952 . S
H585 C606 0.949 . S
H586 C608 0.950 . S
H587 C609 0.948 . S
H588 C611 0.951 . S
H589 C576 0.947 . S
H590 C578 0.952 . S
H591 C579 0.950 . S
N592 C595 1.382 . S
N592 C597 1.363 . S
N593 C595 1.371 . S
N593 C596 1.372 . S
N594 C596 1.361 . S
N594 C597 1.377 . S
C595 N592 1.382 . S
C595 N593 1.371 . S
C595 C598 1.480 . S
C596 N593 1.372 . S
C596 N594 1.361 . S
C596 C604 1.457 . S
C597 N592 1.363 . S
C597 N594 1.377 . S
C597 C610 1.479 . S
C598 C595 1.480 . S
C598 C599 1.383 . S
C598 C603 1.385 . S
C599 H580 0.947 . S
C599 C598 1.383 . S
C599 C600 1.388 . S
C600 H581 0.946 . S
C600 C599 1.388 . S
C600 C601 1.384 . S
C601 C600 1.384 . S
C601 C602 1.377 . S
C602 H582 0.953 . S
C602 C601 1.377 . S
C602 C603 1.369 . S
C603 H583 0.945 . S
C603 C598 1.385 . S
C603 C602 1.369 . S
C604 C596 1.457 . S
C604 C605 1.372 . S
C604 C609 1.364 . S
C605 H584 0.952 . S
C605 C604 1.372 . S
C605 C606 1.389 . S
C606 H585 0.949 . S
C606 C605 1.389 . S
C606 C607 1.387 . S
C607 C606 1.387 . S
C607 C608 1.372 . S
C608 H586 0.950 . S
C608 C607 1.372 . S
C608 C609 1.379 . S
C609 H587 0.948 . S
C609 C604 1.364 . S
C609 C608 1.379 . S
C610 C579 1.383 . S
C610 C597 1.479 . S
C610 C611 1.398 . S
C611 C576 1.382 . S
C611 H588 0.951 . S
C611 C610 1.398 . S
C612 C613 1.384 . S
C612 H625 0.947 . S
C612 C647 1.382 . S
C613 C612 1.384 . S
C613 C614 1.378 . S
C614 C613 1.378 . S
C614 C615 1.378 . S
C614 H626 0.952 . S
C615 C614 1.378 . S
C615 H627 0.950 . S
C615 C646 1.383 . S
H616 C635 0.947 . S
H617 C636 0.946 . S
H618 C638 0.953 . S
H619 C639 0.945 . S
H620 C641 0.952 . S
H621 C642 0.949 . S
H622 C644 0.950 . S
H623 C645 0.948 . S
H624 C647 0.951 . S
H625 C612 0.947 . S
H626 C614 0.952 . S
H627 C615 0.950 . S
N628 C631 1.382 . S
N628 C633 1.363 . S
N629 C631 1.371 . S
N629 C632 1.372 . S
N630 C632 1.361 . S
N630 C633 1.377 . S
C631 N628 1.382 . S
C631 N629 1.371 . S
C631 C634 1.480 . S
C632 N629 1.372 . S
C632 N630 1.361 . S
C632 C640 1.457 . S
C633 N628 1.363 . S
C633 N630 1.377 . S
C633 C646 1.479 . S
C634 C631 1.480 . S
C634 C635 1.383 . S
C634 C639 1.385 . S
C635 H616 0.947 . S
C635 C634 1.383 . S
C635 C636 1.388 . S
C636 H617 0.946 . S
C636 C635 1.388 . S
C636 C637 1.384 . S
C637 C636 1.384 . S
C637 C638 1.377 . S
C638 H618 0.953 . S
C638 C637 1.377 . S
C638 C639 1.369 . S
C639 H619 0.945 . S
C639 C634 1.385 . S
C639 C638 1.369 . S
C640 C632 1.457 . S
C640 C641 1.372 . S
C640 C645 1.364 . S
C641 H620 0.952 . S
C641 C640 1.372 . S
C641 C642 1.389 . S
C642 H621 0.949 . S
C642 C641 1.389 . S
C642 C643 1.387 . S
C643 C642 1.387 . S
C643 C644 1.372 . S
C644 H622 0.950 . S
C644 C643 1.372 . S
C644 C645 1.379 . S
C645 H623 0.948 . S
C645 C640 1.364 . S
C645 C644 1.379 . S
C646 C615 1.383 . S
C646 C633 1.479 . S
C646 C647 1.398 . S
C647 C612 1.382 . S
C647 H624 0.951 . S
C647 C646 1.398 . S
Gd648 N679 2.661 . S
Gd648 N685 2.601 . S
Gd648 O692 2.545 . S
Gd648 O693 2.606 1_545 S
Gd648 O695 2.429 . S
Gd648 O696 2.545 1_545 S
Gd648 O697 2.412 . S
Gd648 O699 2.362 1_554 S
Gd648 O700 2.324 1_545 S
Gd648 C707 2.828 . S
Gd649 N658 2.661 . S
Gd649 N662 2.601 . S
Gd649 O693 2.362 1_556 S
Gd649 O694 2.324 1_565 S
Gd649 O698 2.545 . S
Gd649 O699 2.606 1_565 S
Gd649 O701 2.429 . S
Gd649 O702 2.545 1_565 S
Gd649 O703 2.412 . S
Gd649 C716 2.828 . S
C650 C653 1.417 . S
C650 C655 1.431 . S
C650 C656 1.412 . S
C651 C654 1.437 . S
C651 C655 1.317 . S
C651 H670 0.929 . S
C652 C653 1.426 . S
C652 C654 1.413 . S
C652 N662 1.359 . S
C653 C650 1.417 . S
C653 C652 1.426 . S
C653 N658 1.350 . S
C654 C651 1.437 . S
C654 C652 1.413 . S
C654 C664 1.391 . S
C655 C650 1.431 . S
C655 C651 1.317 . S
C655 H666 0.930 . S
C656 C650 1.412 . S
C656 C657 1.355 . S
C656 H668 0.930 . S
C657 C656 1.355 . S
C657 C659 1.402 . S
C657 H669 0.930 . S
N658 Gd649 2.661 . S
N658 C653 1.350 . S
N658 C659 1.307 . S
C659 C657 1.402 . S
C659 N658 1.307 . S
C659 H660 0.930 . S
H660 C659 0.930 . S
C661 N662 1.334 . S
C661 C663 1.394 . S
C661 H665 0.930 . S
N662 Gd649 2.601 . S
N662 C652 1.359 . S
N662 C661 1.334 . S
C663 C661 1.394 . S
C663 C664 1.359 . S
C663 H675 0.930 . S
C664 C654 1.391 . S
C664 C663 1.359 . S
C664 H676 0.929 . S
H665 C661 0.930 . S
H666 C655 0.930 . S
H667 C684 0.930 . S
H668 C656 0.930 . S
H669 C657 0.930 . S
H670 C651 0.929 . S
H671 C689 0.930 . S
H672 C680 0.930 . S
H673 C681 0.930 . S
H674 C705 0.929 . S
H675 C663 0.930 . S
H676 C664 0.929 . S
H677 C706 0.930 . S
H678 C687 0.930 . S
N679 Gd648 2.661 . S
N679 C683 1.350 . S
N679 C684 1.307 . S
C680 H672 0.930 . S
C680 C681 1.355 . S
C680 C682 1.412 . S
C681 H673 0.930 . S
C681 C680 1.355 . S
C681 C684 1.402 . S
C682 C680 1.412 . S
C682 C683 1.417 . S
C682 C706 1.431 . S
C683 N679 1.350 . S
C683 C682 1.417 . S
C683 C686 1.426 . S
C684 H667 0.930 . S
C684 N679 1.307 . S
C684 C681 1.402 . S
N685 Gd648 2.601 . S
N685 C686 1.359 . S
N685 C689 1.334 . S
C686 C683 1.426 . S
C686 N685 1.359 . S
C686 C690 1.413 . S
C687 H678 0.930 . S
C687 C688 1.359 . S
C687 C689 1.394 . S
C688 C687 1.359 . S
C688 C690 1.391 . S
C688 H691 0.929 . S
C689 H671 0.930 . S
C689 N685 1.334 . S
C689 C687 1.394 . S
C690 C686 1.413 . S
C690 C688 1.391 . S
C690 C705 1.437 . S
H691 C688 0.929 . S
O692 Gd648 2.545 . S
O692 C707 1.258 . S
O693 Gd648 2.606 1_565 S
O693 Gd649 2.362 1_554 S
O693 C704 1.284 . S
O694 Gd649 2.324 1_545 S
O694 C714 1.254 . S
O695 Gd648 2.429 . S
O695 C714 1.268 1_554 S
O696 Gd648 2.545 1_565 S
O696 C704 1.250 . S
O697 Gd648 2.412 . S
O697 C707 1.252 . S
O698 Gd649 2.545 . S
O698 C716 1.258 . S
O699 Gd648 2.362 1_556 S
O699 Gd649 2.606 1_545 S
O699 C715 1.284 . S
O700 Gd648 2.324 1_565 S
O700 C723 1.254 . S
O701 Gd649 2.429 . S
O701 C723 1.268 1_556 S
O702 Gd649 2.545 1_545 S
O702 C715 1.250 . S
O703 Gd649 2.412 . S
O703 C716 1.252 . S
C704 O693 1.284 . S
C704 O696 1.250 . S
C705 H674 0.929 . S
C705 C690 1.437 . S
C705 C706 1.317 . S
C706 H677 0.930 . S
C706 C682 1.431 . S
C706 C705 1.317 . S
C707 Gd648 2.828 . S
C707 O692 1.258 . S
C707 O697 1.252 . S
C707 C708 1.497 . S
C708 C707 1.497 . S
C708 C709 1.395 . S
C708 C710 1.380 1_545 S
C709 C708 1.395 . S
C709 C712 1.398 . S
C709 H724 0.930 . S
C710 C708 1.380 1_565 S
C710 C711 1.391 . S
C710 H725 0.930 . S
C711 C710 1.391 . S
C711 C713 1.387 1_565 S
C712 C709 1.398 . S
C712 C713 1.380 . S
C712 H726 0.930 . S
C713 C711 1.387 1_545 S
C713 C712 1.380 . S
C713 H727 0.930 . S
C714 O694 1.254 . S
C714 O695 1.268 1_556 S
C715 O699 1.284 . S
C715 O702 1.250 . S
C716 Gd649 2.828 . S
C716 O698 1.258 . S
C716 O703 1.252 . S
C716 C717 1.497 . S
C717 C716 1.497 . S
C717 C718 1.395 . S
C717 C719 1.380 1_565 S
C718 C717 1.395 . S
C718 C721 1.398 . S
C718 H728 0.930 . S
C719 C717 1.380 1_545 S
C719 C720 1.391 . S
C719 H729 0.930 . S
C720 C719 1.391 . S
C720 C722 1.387 1_545 S
C721 C718 1.398 . S
C721 C722 1.380 . S
C721 H730 0.930 . S
C722 C720 1.387 1_565 S
C722 C721 1.380 . S
C722 H731 0.930 . S
C723 O700 1.254 . S
C723 O701 1.268 1_554 S
H724 C709 0.930 . S
H725 C710 0.930 . S
H726 C712 0.930 . S
H727 C713 0.930 . S
H728 C718 0.930 . S
H729 C719 0.930 . S
H730 C721 0.930 . S
H731 C722 0.930 . S
Gd732 N763 2.661 . S
Gd732 N769 2.601 . S
Gd732 O776 2.545 . S
Gd732 O777 2.606 1_655 S
Gd732 O779 2.429 . S
Gd732 O780 2.545 1_655 S
Gd732 O781 2.412 . S
Gd732 O783 2.362 1_554 S
Gd732 O784 2.324 1_655 S
Gd732 C791 2.828 . S
Gd733 N742 2.661 . S
Gd733 N746 2.601 . S
Gd733 O777 2.362 1_556 S
Gd733 O778 2.324 1_455 S
Gd733 O782 2.545 . S
Gd733 O783 2.606 1_455 S
Gd733 O785 2.429 . S
Gd733 O786 2.545 1_455 S
Gd733 O787 2.412 . S
Gd733 C800 2.828 . S
C734 C737 1.417 . S
C734 C739 1.431 . S
C734 C740 1.412 . S
C735 C738 1.437 . S
C735 C739 1.317 . S
C735 H754 0.929 . S
C736 C737 1.426 . S
C736 C738 1.413 . S
C736 N746 1.359 . S
C737 C734 1.417 . S
C737 C736 1.426 . S
C737 N742 1.350 . S
C738 C735 1.437 . S
C738 C736 1.413 . S
C738 C748 1.391 . S
C739 C734 1.431 . S
C739 C735 1.317 . S
C739 H750 0.930 . S
C740 C734 1.412 . S
C740 C741 1.355 . S
C740 H752 0.930 . S
C741 C740 1.355 . S
C741 C743 1.402 . S
C741 H753 0.930 . S
N742 Gd733 2.661 . S
N742 C737 1.350 . S
N742 C743 1.307 . S
C743 C741 1.402 . S
C743 N742 1.307 . S
C743 H744 0.930 . S
H744 C743 0.930 . S
C745 N746 1.334 . S
C745 C747 1.394 . S
C745 H749 0.930 . S
N746 Gd733 2.601 . S
N746 C736 1.359 . S
N746 C745 1.334 . S
C747 C745 1.394 . S
C747 C748 1.359 . S
C747 H759 0.930 . S
C748 C738 1.391 . S
C748 C747 1.359 . S
C748 H760 0.929 . S
H749 C745 0.930 . S
H750 C739 0.930 . S
H751 C768 0.930 . S
H752 C740 0.930 . S
H753 C741 0.930 . S
H754 C735 0.929 . S
H755 C773 0.930 . S
H756 C764 0.930 . S
H757 C765 0.930 . S
H758 C789 0.929 . S
H759 C747 0.930 . S
H760 C748 0.929 . S
H761 C790 0.930 . S
H762 C771 0.930 . S
N763 Gd732 2.661 . S
N763 C767 1.350 . S
N763 C768 1.307 . S
C764 H756 0.930 . S
C764 C765 1.355 . S
C764 C766 1.412 . S
C765 H757 0.930 . S
C765 C764 1.355 . S
C765 C768 1.402 . S
C766 C764 1.412 . S
C766 C767 1.417 . S
C766 C790 1.431 . S
C767 N763 1.350 . S
C767 C766 1.417 . S
C767 C770 1.426 . S
C768 H751 0.930 . S
C768 N763 1.307 . S
C768 C765 1.402 . S
N769 Gd732 2.601 . S
N769 C770 1.359 . S
N769 C773 1.334 . S
C770 C767 1.426 . S
C770 N769 1.359 . S
C770 C774 1.413 . S
C771 H762 0.930 . S
C771 C772 1.359 . S
C771 C773 1.394 . S
C772 C771 1.359 . S
C772 C774 1.391 . S
C772 H775 0.929 . S
C773 H755 0.930 . S
C773 N769 1.334 . S
C773 C771 1.394 . S
C774 C770 1.413 . S
C774 C772 1.391 . S
C774 C789 1.437 . S
H775 C772 0.929 . S
O776 Gd732 2.545 . S
O776 C791 1.258 . S
O777 Gd732 2.606 1_455 S
O777 Gd733 2.362 1_554 S
O777 C788 1.284 . S
O778 Gd733 2.324 1_655 S
O778 C798 1.254 . S
O779 Gd732 2.429 . S
O779 C798 1.268 1_554 S
O780 Gd732 2.545 1_455 S
O780 C788 1.250 . S
O781 Gd732 2.412 . S
O781 C791 1.252 . S
O782 Gd733 2.545 . S
O782 C800 1.258 . S
O783 Gd732 2.362 1_556 S
O783 Gd733 2.606 1_655 S
O783 C799 1.284 . S
O784 Gd732 2.324 1_455 S
O784 C807 1.254 . S
O785 Gd733 2.429 . S
O785 C807 1.268 1_556 S
O786 Gd733 2.545 1_655 S
O786 C799 1.250 . S
O787 Gd733 2.412 . S
O787 C800 1.252 . S
C788 O777 1.284 . S
C788 O780 1.250 . S
C789 H758 0.929 . S
C789 C774 1.437 . S
C789 C790 1.317 . S
C790 H761 0.930 . S
C790 C766 1.431 . S
C790 C789 1.317 . S
C791 Gd732 2.828 . S
C791 O776 1.258 . S
C791 O781 1.252 . S
C791 C792 1.497 . S
C792 C791 1.497 . S
C792 C793 1.395 . S
C792 C794 1.380 1_655 S
C793 C792 1.395 . S
C793 C796 1.398 . S
C793 H808 0.930 . S
C794 C792 1.380 1_455 S
C794 C795 1.391 . S
C794 H809 0.930 . S
C795 C794 1.391 . S
C795 C797 1.387 1_455 S
C796 C793 1.398 . S
C796 C797 1.380 . S
C796 H810 0.930 . S
C797 C795 1.387 1_655 S
C797 C796 1.380 . S
C797 H811 0.930 . S
C798 O778 1.254 . S
C798 O779 1.268 1_556 S
C799 O783 1.284 . S
C799 O786 1.250 . S
C800 Gd733 2.828 . S
C800 O782 1.258 . S
C800 O787 1.252 . S
C800 C801 1.497 . S
C801 C800 1.497 . S
C801 C802 1.395 . S
C801 C803 1.380 1_455 S
C802 C801 1.395 . S
C802 C805 1.398 . S
C802 H812 0.930 . S
C803 C801 1.380 1_655 S
C803 C804 1.391 . S
C803 H813 0.930 . S
C804 C803 1.391 . S
C804 C806 1.387 1_655 S
C805 C802 1.398 . S
C805 C806 1.380 . S
C805 H814 0.930 . S
C806 C804 1.387 1_455 S
C806 C805 1.380 . S
C806 H815 0.930 . S
C807 O784 1.254 . S
C807 O785 1.268 1_554 S
H808 C793 0.930 . S
H809 C794 0.930 . S
H810 C796 0.930 . S
H811 C797 0.930 . S
H812 C802 0.930 . S
H813 C803 0.930 . S
H814 C805 0.930 . S
H815 C806 0.930 . S
Gd816 N847 2.661 . S
Gd816 N853 2.601 . S
Gd816 O860 2.545 . S
Gd816 O861 2.606 . S
Gd816 O863 2.429 . S
Gd816 O864 2.545 . S
Gd816 O865 2.412 . S
Gd816 O867 2.362 1_556 S
Gd816 O868 2.324 . S
Gd816 C875 2.828 . S
Gd817 N826 2.661 . S
Gd817 N830 2.601 . S
Gd817 O861 2.362 1_554 S
Gd817 O862 2.324 . S
Gd817 O866 2.545 . S
Gd817 O867 2.606 . S
Gd817 O869 2.429 . S
Gd817 O870 2.545 . S
Gd817 O871 2.412 . S
Gd817 C884 2.828 . S
C818 C821 1.417 . S
C818 C823 1.431 . S
C818 C824 1.412 . S
C819 C822 1.437 . S
C819 C823 1.317 . S
C819 H838 0.929 . S
C820 C821 1.426 . S
C820 C822 1.413 . S
C820 N830 1.359 . S
C821 C818 1.417 . S
C821 C820 1.426 . S
C821 N826 1.350 . S
C822 C819 1.437 . S
C822 C820 1.413 . S
C822 C832 1.391 . S
C823 C818 1.431 . S
C823 C819 1.317 . S
C823 H834 0.930 . S
C824 C818 1.412 . S
C824 C825 1.355 . S
C824 H836 0.930 . S
C825 C824 1.355 . S
C825 C827 1.402 . S
C825 H837 0.930 . S
N826 Gd817 2.661 . S
N826 C821 1.350 . S
N826 C827 1.307 . S
C827 C825 1.402 . S
C827 N826 1.307 . S
C827 H828 0.930 . S
H828 C827 0.930 . S
C829 N830 1.334 . S
C829 C831 1.394 . S
C829 H833 0.930 . S
N830 Gd817 2.601 . S
N830 C820 1.359 . S
N830 C829 1.334 . S
C831 C829 1.394 . S
C831 C832 1.359 . S
C831 H843 0.930 . S
C832 C822 1.391 . S
C832 C831 1.359 . S
C832 H844 0.929 . S
H833 C829 0.930 . S
H834 C823 0.930 . S
H835 C852 0.930 . S
H836 C824 0.930 . S
H837 C825 0.930 . S
H838 C819 0.929 . S
H839 C857 0.930 . S
H840 C848 0.930 . S
H841 C849 0.930 . S
H842 C873 0.929 . S
H843 C831 0.930 . S
H844 C832 0.929 . S
H845 C874 0.930 . S
H846 C855 0.930 . S
N847 Gd816 2.661 . S
N847 C851 1.350 . S
N847 C852 1.307 . S
C848 H840 0.930 . S
C848 C849 1.355 . S
C848 C850 1.412 . S
C849 H841 0.930 . S
C849 C848 1.355 . S
C849 C852 1.402 . S
C850 C848 1.412 . S
C850 C851 1.417 . S
C850 C874 1.431 . S
C851 N847 1.350 . S
C851 C850 1.417 . S
C851 C854 1.426 . S
C852 H835 0.930 . S
C852 N847 1.307 . S
C852 C849 1.402 . S
N853 Gd816 2.601 . S
N853 C854 1.359 . S
N853 C857 1.334 . S
C854 C851 1.426 . S
C854 N853 1.359 . S
C854 C858 1.413 . S
C855 H846 0.930 . S
C855 C856 1.359 . S
C855 C857 1.394 . S
C856 C855 1.359 . S
C856 C858 1.391 . S
C856 H859 0.929 . S
C857 H839 0.930 . S
C857 N853 1.334 . S
C857 C855 1.394 . S
C858 C854 1.413 . S
C858 C856 1.391 . S
C858 C873 1.437 . S
H859 C856 0.929 . S
O860 Gd816 2.545 . S
O860 C875 1.258 . S
O861 Gd816 2.606 . S
O861 Gd817 2.362 1_556 S
O861 C872 1.284 . S
O862 Gd817 2.324 . S
O862 C882 1.254 . S
O863 Gd816 2.429 . S
O863 C882 1.268 1_556 S
O864 Gd816 2.545 . S
O864 C872 1.250 . S
O865 Gd816 2.412 . S
O865 C875 1.252 . S
O866 Gd817 2.545 . S
O866 C884 1.258 . S
O867 Gd816 2.362 1_554 S
O867 Gd817 2.606 . S
O867 C883 1.284 . S
O868 Gd816 2.324 . S
O868 C891 1.254 . S
O869 Gd817 2.429 . S
O869 C891 1.268 1_554 S
O870 Gd817 2.545 . S
O870 C883 1.250 . S
O871 Gd817 2.412 . S
O871 C884 1.252 . S
C872 O861 1.284 . S
C872 O864 1.250 . S
C873 H842 0.929 . S
C873 C858 1.437 . S
C873 C874 1.317 . S
C874 H845 0.930 . S
C874 C850 1.431 . S
C874 C873 1.317 . S
C875 Gd816 2.828 . S
C875 O860 1.258 . S
C875 O865 1.252 . S
C875 C876 1.497 . S
C876 C875 1.497 . S
C876 C877 1.395 . S
C876 C878 1.380 . S
C877 C876 1.395 . S
C877 C880 1.398 . S
C877 H892 0.930 . S
C878 C876 1.380 . S
C878 C879 1.391 . S
C878 H893 0.930 . S
C879 C878 1.391 . S
C879 C881 1.387 . S
C880 C877 1.398 . S
C880 C881 1.380 . S
C880 H894 0.930 . S
C881 C879 1.387 . S
C881 C880 1.380 . S
C881 H895 0.930 . S
C882 O862 1.254 . S
C882 O863 1.268 1_554 S
C883 O867 1.284 . S
C883 O870 1.250 . S
C884 Gd817 2.828 . S
C884 O866 1.258 . S
C884 O871 1.252 . S
C884 C885 1.497 . S
C885 C884 1.497 . S
C885 C886 1.395 . S
C885 C887 1.380 . S
C886 C885 1.395 . S
C886 C889 1.398 . S
C886 H896 0.930 . S
C887 C885 1.380 . S
C887 C888 1.391 . S
C887 H897 0.930 . S
C888 C887 1.391 . S
C888 C890 1.387 . S
C889 C886 1.398 . S
C889 C890 1.380 . S
C889 H898 0.930 . S
C890 C888 1.387 . S
C890 C889 1.380 . S
C890 H899 0.930 . S
C891 O868 1.254 . S
C891 O869 1.268 1_556 S
H892 C877 0.930 . S
H893 C878 0.930 . S
H894 C880 0.930 . S
H895 C881 0.930 . S
H896 C886 0.930 . S
H897 C887 0.930 . S
H898 C889 0.930 . S
H899 C890 0.930 . S
Gd900 N931 2.661 . S
Gd900 N937 2.601 . S
Gd900 O944 2.545 . S
Gd900 O945 2.606 . S
Gd900 O947 2.429 . S
Gd900 O948 2.545 . S
Gd900 O949 2.412 . S
Gd900 O951 2.362 . S
Gd900 O952 2.324 . S
Gd900 C959 2.828 . S
Gd901 N910 2.661 . S
Gd901 N914 2.601 . S
Gd901 O945 2.362 . S
Gd901 O946 2.324 . S
Gd901 O950 2.545 . S
Gd901 O951 2.606 . S
Gd901 O953 2.429 . S
Gd901 O954 2.545 . S
Gd901 O955 2.412 . S
Gd901 C968 2.828 . S
C902 C905 1.417 1_655 S
C902 C907 1.431 . S
C902 C908 1.412 . S
C903 C906 1.437 1_655 S
C903 C907 1.317 . S
C903 H922 0.929 . S
C904 C905 1.426 . S
C904 C906 1.413 . S
C904 N914 1.359 . S
C905 C902 1.417 1_455 S
C905 C904 1.426 . S
C905 N910 1.350 . S
C906 C903 1.437 1_455 S
C906 C904 1.413 . S
C906 C916 1.391 . S
C907 C902 1.431 . S
C907 C903 1.317 . S
C907 H918 0.930 . S
C908 C902 1.412 . S
C908 C909 1.355 . S
C908 H920 0.930 . S
C909 C908 1.355 . S
C909 C911 1.402 1_655 S
C909 H921 0.930 . S
N910 Gd901 2.661 . S
N910 C905 1.350 . S
N910 C911 1.307 . S
C911 C909 1.402 1_455 S
C911 N910 1.307 . S
C911 H912 0.930 . S
H912 C911 0.930 . S
C913 N914 1.334 . S
C913 C915 1.394 . S
C913 H917 0.930 . S
N914 Gd901 2.601 . S
N914 C904 1.359 . S
N914 C913 1.334 . S
C915 C913 1.394 . S
C915 C916 1.359 . S
C915 H927 0.930 . S
C916 C906 1.391 . S
C916 C915 1.359 . S
C916 H928 0.929 . S
H917 C913 0.930 . S
H918 C907 0.930 . S
H919 C936 0.930 . S
H920 C908 0.930 . S
H921 C909 0.930 . S
H922 C903 0.929 . S
H923 C941 0.930 . S
H924 C932 0.930 . S
H925 C933 0.930 . S
H926 C957 0.929 . S
H927 C915 0.930 . S
H928 C916 0.929 . S
H929 C958 0.930 . S
H930 C939 0.930 . S
N931 Gd900 2.661 . S
N931 C935 1.350 . S
N931 C936 1.307 . S
C932 H924 0.930 . S
C932 C933 1.355 . S
C932 C934 1.412 . S
C933 H925 0.930 . S
C933 C932 1.355 . S
C933 C936 1.402 . S
C934 C932 1.412 . S
C934 C935 1.417 . S
C934 C958 1.431 . S
C935 N931 1.350 . S
C935 C934 1.417 . S
C935 C938 1.426 . S
C936 H919 0.930 . S
C936 N931 1.307 . S
C936 C933 1.402 . S
N937 Gd900 2.601 . S
N937 C938 1.359 . S
N937 C941 1.334 . S
C938 C935 1.426 . S
C938 N937 1.359 . S
C938 C942 1.413 . S
C939 H930 0.930 . S
C939 C940 1.359 . S
C939 C941 1.394 . S
C940 C939 1.359 . S
C940 C942 1.391 . S
C940 H943 0.929 . S
C941 H923 0.930 . S
C941 N937 1.334 . S
C941 C939 1.394 . S
C942 C938 1.413 . S
C942 C940 1.391 . S
C942 C957 1.437 . S
H943 C940 0.929 . S
O944 Gd900 2.545 . S
O944 C959 1.258 . S
O945 Gd900 2.606 . S
O945 Gd901 2.362 . S
O945 C956 1.284 . S
O946 Gd901 2.324 . S
O946 C966 1.254 . S
O947 Gd900 2.429 . S
O947 C966 1.268 . S
O948 Gd900 2.545 . S
O948 C956 1.250 . S
O949 Gd900 2.412 . S
O949 C959 1.252 . S
O950 Gd901 2.545 . S
O950 C968 1.258 . S
O951 Gd900 2.362 . S
O951 Gd901 2.606 . S
O951 C967 1.284 . S
O952 Gd900 2.324 . S
O952 C975 1.254 . S
O953 Gd901 2.429 . S
O953 C975 1.268 . S
O954 Gd901 2.545 . S
O954 C967 1.250 . S
O955 Gd901 2.412 . S
O955 C968 1.252 . S
C956 O945 1.284 . S
C956 O948 1.250 . S
C957 H926 0.929 . S
C957 C942 1.437 . S
C957 C958 1.317 . S
C958 H929 0.930 . S
C958 C934 1.431 . S
C958 C957 1.317 . S
C959 Gd900 2.828 . S
C959 O944 1.258 . S
C959 O949 1.252 . S
C959 C960 1.497 . S
C960 C959 1.497 . S
C960 C961 1.395 . S
C960 C962 1.380 . S
C961 C960 1.395 . S
C961 C964 1.398 . S
C961 H976 0.930 . S
C962 C960 1.380 . S
C962 C963 1.391 . S
C962 H977 0.930 . S
C963 C962 1.391 . S
C963 C965 1.387 . S
C964 C961 1.398 . S
C964 C965 1.380 . S
C964 H978 0.930 . S
C965 C963 1.387 . S
C965 C964 1.380 . S
C965 H979 0.930 . S
C966 O946 1.254 . S
C966 O947 1.268 . S
C967 O951 1.284 . S
C967 O954 1.250 . S
C968 Gd901 2.828 . S
C968 O950 1.258 . S
C968 O955 1.252 . S
C968 C969 1.497 . S
C969 C968 1.497 . S
C969 C970 1.395 . S
C969 C971 1.380 . S
C970 C969 1.395 . S
C970 C973 1.398 . S
C970 H980 0.930 . S
C971 C969 1.380 . S
C971 C972 1.391 . S
C971 H981 0.930 . S
C972 C971 1.391 . S
C972 C974 1.387 . S
C973 C970 1.398 . S
C973 C974 1.380 . S
C973 H982 0.930 . S
C974 C972 1.387 . S
C974 C973 1.380 . S
C974 H983 0.930 . S
C975 O952 1.254 . S
C975 O953 1.268 . S
H976 C961 0.930 . S
H977 C962 0.930 . S
H978 C964 0.930 . S
H979 C965 0.930 . S
H980 C970 0.930 . S
H981 C971 0.930 . S
H982 C973 0.930 . S
H983 C974 0.930 . S
Gd984 N1015 2.661 . S
Gd984 N1021 2.601 . S
Gd984 O1028 2.545 . S
Gd984 O1029 2.606 . S
Gd984 O1031 2.429 . S
Gd984 O1032 2.545 . S
Gd984 O1033 2.412 . S
Gd984 O1035 2.362 . S
Gd984 O1036 2.324 . S
Gd984 C1043 2.828 . S
Gd985 N994 2.661 . S
Gd985 N998 2.601 . S
Gd985 O1029 2.362 . S
Gd985 O1030 2.324 . S
Gd985 O1034 2.545 . S
Gd985 O1035 2.606 . S
Gd985 O1037 2.429 . S
Gd985 O1038 2.545 . S
Gd985 O1039 2.412 . S
Gd985 C1052 2.828 . S
C986 C989 1.417 . S
C986 C991 1.431 . S
C986 C992 1.412 . S
C987 C990 1.437 . S
C987 C991 1.317 . S
C987 H1006 0.929 . S
C988 C989 1.426 . S
C988 C990 1.413 . S
C988 N998 1.359 . S
C989 C986 1.417 . S
C989 C988 1.426 . S
C989 N994 1.350 . S
C990 C987 1.437 . S
C990 C988 1.413 . S
C990 C1000 1.391 . S
C991 C986 1.431 . S
C991 C987 1.317 . S
C991 H1002 0.930 . S
C992 C986 1.412 . S
C992 C993 1.355 . S
C992 H1004 0.930 . S
C993 C992 1.355 . S
C993 C995 1.402 . S
C993 H1005 0.930 . S
N994 Gd985 2.661 . S
N994 C989 1.350 . S
N994 C995 1.307 . S
C995 C993 1.402 . S
C995 N994 1.307 . S
C995 H996 0.930 . S
H996 C995 0.930 . S
C997 N998 1.334 . S
C997 C999 1.394 . S
C997 H1001 0.930 . S
N998 Gd985 2.601 . S
N998 C988 1.359 . S
N998 C997 1.334 . S
C999 C997 1.394 . S
C999 C1000 1.359 . S
C999 H1011 0.930 . S
C1000 C990 1.391 . S
C1000 C999 1.359 . S
C1000 H1012 0.929 . S
H1001 C997 0.930 . S
H1002 C991 0.930 . S
H1003 C1020 0.930 . S
H1004 C992 0.930 . S
H1005 C993 0.930 . S
H1006 C987 0.929 . S
H1007 C1025 0.930 . S
H1008 C1016 0.930 . S
H1009 C1017 0.930 . S
H1010 C1041 0.929 . S
H1011 C999 0.930 . S
H1012 C1000 0.929 . S
H1013 C1042 0.930 . S
H1014 C1023 0.930 . S
N1015 Gd984 2.661 . S
N1015 C1019 1.350 . S
N1015 C1020 1.307 . S
C1016 H1008 0.930 . S
C1016 C1017 1.355 . S
C1016 C1018 1.412 . S
C1017 H1009 0.930 . S
C1017 C1016 1.355 . S
C1017 C1020 1.402 . S
C1018 C1016 1.412 . S
C1018 C1019 1.417 . S
C1018 C1042 1.431 . S
C1019 N1015 1.350 . S
C1019 C1018 1.417 . S
C1019 C1022 1.426 . S
C1020 H1003 0.930 . S
C1020 N1015 1.307 . S
C1020 C1017 1.402 . S
N1021 Gd984 2.601 . S
N1021 C1022 1.359 . S
N1021 C1025 1.334 . S
C1022 C1019 1.426 . S
C1022 N1021 1.359 . S
C1022 C1026 1.413 . S
C1023 H1014 0.930 . S
C1023 C1024 1.359 . S
C1023 C1025 1.394 . S
C1024 C1023 1.359 . S
C1024 C1026 1.391 . S
C1024 H1027 0.929 . S
C1025 H1007 0.930 . S
C1025 N1021 1.334 . S
C1025 C1023 1.394 . S
C1026 C1022 1.413 . S
C1026 C1024 1.391 . S
C1026 C1041 1.437 . S
H1027 C1024 0.929 . S
O1028 Gd984 2.545 . S
O1028 C1043 1.258 . S
O1029 Gd984 2.606 . S
O1029 Gd985 2.362 . S
O1029 C1040 1.284 . S
O1030 Gd985 2.324 . S
O1030 C1050 1.254 . S
O1031 Gd984 2.429 . S
O1031 C1050 1.268 . S
O1032 Gd984 2.545 . S
O1032 C1040 1.250 . S
O1033 Gd984 2.412 . S
O1033 C1043 1.252 . S
O1034 Gd985 2.545 . S
O1034 C1052 1.258 . S
O1035 Gd984 2.362 . S
O1035 Gd985 2.606 . S
O1035 C1051 1.284 . S
O1036 Gd984 2.324 . S
O1036 C1059 1.254 . S
O1037 Gd985 2.429 . S
O1037 C1059 1.268 . S
O1038 Gd985 2.545 . S
O1038 C1051 1.250 . S
O1039 Gd985 2.412 . S
O1039 C1052 1.252 . S
C1040 O1029 1.284 . S
C1040 O1032 1.250 . S
C1041 H1010 0.929 . S
C1041 C1026 1.437 . S
C1041 C1042 1.317 . S
C1042 H1013 0.930 . S
C1042 C1018 1.431 . S
C1042 C1041 1.317 . S
C1043 Gd984 2.828 . S
C1043 O1028 1.258 . S
C1043 O1033 1.252 . S
C1043 C1044 1.497 . S
C1044 C1043 1.497 . S
C1044 C1045 1.395 . S
C1044 C1046 1.380 . S
C1045 C1044 1.395 . S
C1045 C1048 1.398 . S
C1045 H1060 0.930 . S
C1046 C1044 1.380 . S
C1046 C1047 1.391 . S
C1046 H1061 0.930 . S
C1047 C1046 1.391 . S
C1047 C1049 1.387 . S
C1048 C1045 1.398 . S
C1048 C1049 1.380 . S
C1048 H1062 0.930 . S
C1049 C1047 1.387 . S
C1049 C1048 1.380 . S
C1049 H1063 0.930 . S
C1050 O1030 1.254 . S
C1050 O1031 1.268 . S
C1051 O1035 1.284 . S
C1051 O1038 1.250 . S
C1052 Gd985 2.828 . S
C1052 O1034 1.258 . S
C1052 O1039 1.252 . S
C1052 C1053 1.497 . S
C1053 C1052 1.497 . S
C1053 C1054 1.395 . S
C1053 C1055 1.380 . S
C1054 C1053 1.395 . S
C1054 C1057 1.398 . S
C1054 H1064 0.930 . S
C1055 C1053 1.380 . S
C1055 C1056 1.391 . S
C1055 H1065 0.930 . S
C1056 C1055 1.391 . S
C1056 C1058 1.387 . S
C1057 C1054 1.398 . S
C1057 C1058 1.380 . S
C1057 H1066 0.930 . S
C1058 C1056 1.387 . S
C1058 C1057 1.380 . S
C1058 H1067 0.930 . S
C1059 O1036 1.254 . S
C1059 O1037 1.268 . S
H1060 C1045 0.930 . S
H1061 C1046 0.930 . S
H1062 C1048 0.930 . S
H1063 C1049 0.930 . S
H1064 C1054 0.930 . S
H1065 C1055 0.930 . S
H1066 C1057 0.930 . S
H1067 C1058 0.930 . S
Gd1068 N1099 2.661 . S
Gd1068 N1105 2.601 . S
Gd1068 O1112 2.545 . S
Gd1068 O1113 2.606 . S
Gd1068 O1115 2.429 . S
Gd1068 O1116 2.545 . S
Gd1068 O1117 2.412 . S
Gd1068 O1119 2.362 . S
Gd1068 O1120 2.324 . S
Gd1068 C1127 2.828 . S
Gd1069 N1078 2.661 . S
Gd1069 N1082 2.601 . S
Gd1069 O1113 2.362 . S
Gd1069 O1114 2.324 . S
Gd1069 O1118 2.545 . S
Gd1069 O1119 2.606 . S
Gd1069 O1121 2.429 . S
Gd1069 O1122 2.545 . S
Gd1069 O1123 2.412 . S
Gd1069 C1136 2.828 . S
C1070 C1073 1.417 . S
C1070 C1075 1.431 . S
C1070 C1076 1.412 . S
C1071 C1074 1.437 . S
C1071 C1075 1.317 . S
C1071 H1090 0.929 . S
C1072 C1073 1.426 . S
C1072 C1074 1.413 . S
C1072 N1082 1.359 . S
C1073 C1070 1.417 . S
C1073 C1072 1.426 . S
C1073 N1078 1.350 . S
C1074 C1071 1.437 . S
C1074 C1072 1.413 . S
C1074 C1084 1.391 . S
C1075 C1070 1.431 . S
C1075 C1071 1.317 . S
C1075 H1086 0.930 . S
C1076 C1070 1.412 . S
C1076 C1077 1.355 . S
C1076 H1088 0.930 . S
C1077 C1076 1.355 . S
C1077 C1079 1.402 . S
C1077 H1089 0.930 . S
N1078 Gd1069 2.661 . S
N1078 C1073 1.350 . S
N1078 C1079 1.307 . S
C1079 C1077 1.402 . S
C1079 N1078 1.307 . S
C1079 H1080 0.930 . S
H1080 C1079 0.930 . S
C1081 N1082 1.334 . S
C1081 C1083 1.394 . S
C1081 H1085 0.930 . S
N1082 Gd1069 2.601 . S
N1082 C1072 1.359 . S
N1082 C1081 1.334 . S
C1083 C1081 1.394 . S
C1083 C1084 1.359 . S
C1083 H1095 0.930 . S
C1084 C1074 1.391 . S
C1084 C1083 1.359 . S
C1084 H1096 0.929 . S
H1085 C1081 0.930 . S
H1086 C1075 0.930 . S
H1087 C1104 0.930 . S
H1088 C1076 0.930 . S
H1089 C1077 0.930 . S
H1090 C1071 0.929 . S
H1091 C1109 0.930 . S
H1092 C1100 0.930 . S
H1093 C1101 0.930 . S
H1094 C1125 0.929 . S
H1095 C1083 0.930 . S
H1096 C1084 0.929 . S
H1097 C1126 0.930 . S
H1098 C1107 0.930 . S
N1099 Gd1068 2.661 . S
N1099 C1103 1.350 . S
N1099 C1104 1.307 . S
C1100 H1092 0.930 . S
C1100 C1101 1.355 . S
C1100 C1102 1.412 . S
C1101 H1093 0.930 . S
C1101 C1100 1.355 . S
C1101 C1104 1.402 1_655 S
C1102 C1100 1.412 . S
C1102 C1103 1.417 1_655 S
C1102 C1126 1.431 . S
C1103 N1099 1.350 . S
C1103 C1102 1.417 1_455 S
C1103 C1106 1.426 . S
C1104 H1087 0.930 . S
C1104 N1099 1.307 . S
C1104 C1101 1.402 1_455 S
N1105 Gd1068 2.601 . S
N1105 C1106 1.359 . S
N1105 C1109 1.334 . S
C1106 C1103 1.426 . S
C1106 N1105 1.359 . S
C1106 C1110 1.413 . S
C1107 H1098 0.930 . S
C1107 C1108 1.359 . S
C1107 C1109 1.394 . S
C1108 C1107 1.359 . S
C1108 C1110 1.391 . S
C1108 H1111 0.929 . S
C1109 H1091 0.930 . S
C1109 N1105 1.334 . S
C1109 C1107 1.394 . S
C1110 C1106 1.413 . S
C1110 C1108 1.391 . S
C1110 C1125 1.437 1_455 S
H1111 C1108 0.929 . S
O1112 Gd1068 2.545 . S
O1112 C1127 1.258 . S
O1113 Gd1068 2.606 . S
O1113 Gd1069 2.362 . S
O1113 C1124 1.284 . S
O1114 Gd1069 2.324 . S
O1114 C1134 1.254 . S
O1115 Gd1068 2.429 . S
O1115 C1134 1.268 . S
O1116 Gd1068 2.545 . S
O1116 C1124 1.250 . S
O1117 Gd1068 2.412 . S
O1117 C1127 1.252 . S
O1118 Gd1069 2.545 . S
O1118 C1136 1.258 . S
O1119 Gd1068 2.362 . S
O1119 Gd1069 2.606 . S
O1119 C1135 1.284 . S
O1120 Gd1068 2.324 . S
O1120 C1143 1.254 . S
O1121 Gd1069 2.429 . S
O1121 C1143 1.268 . S
O1122 Gd1069 2.545 . S
O1122 C1135 1.250 . S
O1123 Gd1069 2.412 . S
O1123 C1136 1.252 . S
C1124 O1113 1.284 . S
C1124 O1116 1.250 . S
C1125 H1094 0.929 . S
C1125 C1110 1.437 1_655 S
C1125 C1126 1.317 . S
C1126 H1097 0.930 . S
C1126 C1102 1.431 . S
C1126 C1125 1.317 . S
C1127 Gd1068 2.828 . S
C1127 O1112 1.258 . S
C1127 O1117 1.252 . S
C1127 C1128 1.497 . S
C1128 C1127 1.497 . S
C1128 C1129 1.395 . S
C1128 C1130 1.380 . S
C1129 C1128 1.395 . S
C1129 C1132 1.398 . S
C1129 H1144 0.930 . S
C1130 C1128 1.380 . S
C1130 C1131 1.391 . S
C1130 H1145 0.930 . S
C1131 C1130 1.391 . S
C1131 C1133 1.387 . S
C1132 C1129 1.398 . S
C1132 C1133 1.380 . S
C1132 H1146 0.930 . S
C1133 C1131 1.387 . S
C1133 C1132 1.380 . S
C1133 H1147 0.930 . S
C1134 O1114 1.254 . S
C1134 O1115 1.268 . S
C1135 O1119 1.284 . S
C1135 O1122 1.250 . S
C1136 Gd1069 2.828 . S
C1136 O1118 1.258 . S
C1136 O1123 1.252 . S
C1136 C1137 1.497 . S
C1137 C1136 1.497 . S
C1137 C1138 1.395 . S
C1137 C1139 1.380 . S
C1138 C1137 1.395 . S
C1138 C1141 1.398 . S
C1138 H1148 0.930 . S
C1139 C1137 1.380 . S
C1139 C1140 1.391 . S
C1139 H1149 0.930 . S
C1140 C1139 1.391 . S
C1140 C1142 1.387 . S
C1141 C1138 1.398 . S
C1141 C1142 1.380 . S
C1141 H1150 0.930 . S
C1142 C1140 1.387 . S
C1142 C1141 1.380 . S
C1142 H1151 0.930 . S
C1143 O1120 1.254 . S
C1143 O1121 1.268 . S
H1144 C1129 0.930 . S
H1145 C1130 0.930 . S
H1146 C1132 0.930 . S
H1147 C1133 0.930 . S
H1148 C1138 0.930 . S
H1149 C1139 0.930 . S
H1150 C1141 0.930 . S
H1151 C1142 0.930 . S
Gd1152 N1183 2.661 . S
Gd1152 N1189 2.601 . S
Gd1152 O1196 2.545 . S
Gd1152 O1197 2.606 . S
Gd1152 O1199 2.429 . S
Gd1152 O1200 2.545 . S
Gd1152 O1201 2.412 . S
Gd1152 O1203 2.362 . S
Gd1152 O1204 2.324 . S
Gd1152 C1211 2.828 . S
Gd1153 N1162 2.661 . S
Gd1153 N1166 2.601 . S
Gd1153 O1197 2.362 . S
Gd1153 O1198 2.324 . S
Gd1153 O1202 2.545 . S
Gd1153 O1203 2.606 . S
Gd1153 O1205 2.429 . S
Gd1153 O1206 2.545 . S
Gd1153 O1207 2.412 . S
Gd1153 C1220 2.828 . S
C1154 C1157 1.417 . S
C1154 C1159 1.431 . S
C1154 C1160 1.412 . S
C1155 C1158 1.437 . S
C1155 C1159 1.317 . S
C1155 H1174 0.929 . S
C1156 C1157 1.426 . S
C1156 C1158 1.413 . S
C1156 N1166 1.359 . S
C1157 C1154 1.417 . S
C1157 C1156 1.426 . S
C1157 N1162 1.350 . S
C1158 C1155 1.437 . S
C1158 C1156 1.413 . S
C1158 C1168 1.391 . S
C1159 C1154 1.431 . S
C1159 C1155 1.317 . S
C1159 H1170 0.930 . S
C1160 C1154 1.412 . S
C1160 C1161 1.355 . S
C1160 H1172 0.930 . S
C1161 C1160 1.355 . S
C1161 C1163 1.402 . S
C1161 H1173 0.930 . S
N1162 Gd1153 2.661 . S
N1162 C1157 1.350 . S
N1162 C1163 1.307 . S
C1163 C1161 1.402 . S
C1163 N1162 1.307 . S
C1163 H1164 0.930 . S
H1164 C1163 0.930 . S
C1165 N1166 1.334 . S
C1165 C1167 1.394 . S
C1165 H1169 0.930 . S
N1166 Gd1153 2.601 . S
N1166 C1156 1.359 . S
N1166 C1165 1.334 . S
C1167 C1165 1.394 . S
C1167 C1168 1.359 . S
C1167 H1179 0.930 . S
C1168 C1158 1.391 . S
C1168 C1167 1.359 . S
C1168 H1180 0.929 . S
H1169 C1165 0.930 . S
H1170 C1159 0.930 . S
H1171 C1188 0.930 . S
H1172 C1160 0.930 . S
H1173 C1161 0.930 . S
H1174 C1155 0.929 . S
H1175 C1193 0.930 . S
H1176 C1184 0.930 . S
H1177 C1185 0.930 . S
H1178 C1209 0.929 . S
H1179 C1167 0.930 . S
H1180 C1168 0.929 . S
H1181 C1210 0.930 . S
H1182 C1191 0.930 . S
N1183 Gd1152 2.661 . S
N1183 C1187 1.350 . S
N1183 C1188 1.307 . S
C1184 H1176 0.930 . S
C1184 C1185 1.355 . S
C1184 C1186 1.412 . S
C1185 H1177 0.930 . S
C1185 C1184 1.355 . S
C1185 C1188 1.402 1_455 S
C1186 C1184 1.412 . S
C1186 C1187 1.417 1_455 S
C1186 C1210 1.431 . S
C1187 N1183 1.350 . S
C1187 C1186 1.417 1_655 S
C1187 C1190 1.426 . S
C1188 H1171 0.930 . S
C1188 N1183 1.307 . S
C1188 C1185 1.402 1_655 S
N1189 Gd1152 2.601 . S
N1189 C1190 1.359 . S
N1189 C1193 1.334 . S
C1190 C1187 1.426 . S
C1190 N1189 1.359 . S
C1190 C1194 1.413 . S
C1191 H1182 0.930 . S
C1191 C1192 1.359 . S
C1191 C1193 1.394 . S
C1192 C1191 1.359 . S
C1192 C1194 1.391 . S
C1192 H1195 0.929 . S
C1193 H1175 0.930 . S
C1193 N1189 1.334 . S
C1193 C1191 1.394 . S
C1194 C1190 1.413 . S
C1194 C1192 1.391 . S
C1194 C1209 1.437 1_655 S
H1195 C1192 0.929 . S
O1196 Gd1152 2.545 . S
O1196 C1211 1.258 . S
O1197 Gd1152 2.606 . S
O1197 Gd1153 2.362 . S
O1197 C1208 1.284 . S
O1198 Gd1153 2.324 . S
O1198 C1218 1.254 . S
O1199 Gd1152 2.429 . S
O1199 C1218 1.268 . S
O1200 Gd1152 2.545 . S
O1200 C1208 1.250 . S
O1201 Gd1152 2.412 . S
O1201 C1211 1.252 . S
O1202 Gd1153 2.545 . S
O1202 C1220 1.258 . S
O1203 Gd1152 2.362 . S
O1203 Gd1153 2.606 . S
O1203 C1219 1.284 . S
O1204 Gd1152 2.324 . S
O1204 C1227 1.254 . S
O1205 Gd1153 2.429 . S
O1205 C1227 1.268 . S
O1206 Gd1153 2.545 . S
O1206 C1219 1.250 . S
O1207 Gd1153 2.412 . S
O1207 C1220 1.252 . S
C1208 O1197 1.284 . S
C1208 O1200 1.250 . S
C1209 H1178 0.929 . S
C1209 C1194 1.437 1_455 S
C1209 C1210 1.317 . S
C1210 H1181 0.930 . S
C1210 C1186 1.431 . S
C1210 C1209 1.317 . S
C1211 Gd1152 2.828 . S
C1211 O1196 1.258 . S
C1211 O1201 1.252 . S
C1211 C1212 1.497 . S
C1212 C1211 1.497 . S
C1212 C1213 1.395 . S
C1212 C1214 1.380 . S
C1213 C1212 1.395 . S
C1213 C1216 1.398 . S
C1213 H1228 0.930 . S
C1214 C1212 1.380 . S
C1214 C1215 1.391 . S
C1214 H1229 0.930 . S
C1215 C1214 1.391 . S
C1215 C1217 1.387 . S
C1216 C1213 1.398 . S
C1216 C1217 1.380 . S
C1216 H1230 0.930 . S
C1217 C1215 1.387 . S
C1217 C1216 1.380 . S
C1217 H1231 0.930 . S
C1218 O1198 1.254 . S
C1218 O1199 1.268 . S
C1219 O1203 1.284 . S
C1219 O1206 1.250 . S
C1220 Gd1153 2.828 . S
C1220 O1202 1.258 . S
C1220 O1207 1.252 . S
C1220 C1221 1.497 . S
C1221 C1220 1.497 . S
C1221 C1222 1.395 . S
C1221 C1223 1.380 . S
C1222 C1221 1.395 . S
C1222 C1225 1.398 . S
C1222 H1232 0.930 . S
C1223 C1221 1.380 . S
C1223 C1224 1.391 . S
C1223 H1233 0.930 . S
C1224 C1223 1.391 . S
C1224 C1226 1.387 . S
C1225 C1222 1.398 . S
C1225 C1226 1.380 . S
C1225 H1234 0.930 . S
C1226 C1224 1.387 . S
C1226 C1225 1.380 . S
C1226 H1235 0.930 . S
C1227 O1204 1.254 . S
C1227 O1205 1.268 . S
H1228 C1213 0.930 . S
H1229 C1214 0.930 . S
H1230 C1216 0.930 . S
H1231 C1217 0.930 . S
H1232 C1222 0.930 . S
H1233 C1223 0.930 . S
H1234 C1225 0.930 . S
H1235 C1226 0.930 . S
Gd1236 N1267 2.661 . S
Gd1236 N1273 2.601 . S
Gd1236 O1280 2.545 . S
Gd1236 O1281 2.606 . S
Gd1236 O1283 2.429 . S
Gd1236 O1284 2.545 . S
Gd1236 O1285 2.412 . S
Gd1236 O1287 2.362 . S
Gd1236 O1288 2.324 . S
Gd1236 C1295 2.828 . S
Gd1237 N1246 2.661 . S
Gd1237 N1250 2.601 . S
Gd1237 O1281 2.362 . S
Gd1237 O1282 2.324 . S
Gd1237 O1286 2.545 . S
Gd1237 O1287 2.606 . S
Gd1237 O1289 2.429 . S
Gd1237 O1290 2.545 . S
Gd1237 O1291 2.412 . S
Gd1237 C1304 2.828 . S
C1238 C1241 1.417 . S
C1238 C1243 1.431 . S
C1238 C1244 1.412 . S
C1239 C1242 1.437 . S
C1239 C1243 1.317 . S
C1239 H1258 0.929 . S
C1240 C1241 1.426 . S
C1240 C1242 1.413 . S
C1240 N1250 1.359 . S
C1241 C1238 1.417 . S
C1241 C1240 1.426 . S
C1241 N1246 1.350 . S
C1242 C1239 1.437 . S
C1242 C1240 1.413 . S
C1242 C1252 1.391 . S
C1243 C1238 1.431 . S
C1243 C1239 1.317 . S
C1243 H1254 0.930 . S
C1244 C1238 1.412 . S
C1244 C1245 1.355 . S
C1244 H1256 0.930 . S
C1245 C1244 1.355 . S
C1245 C1247 1.402 . S
C1245 H1257 0.930 . S
N1246 Gd1237 2.661 . S
N1246 C1241 1.350 . S
N1246 C1247 1.307 . S
C1247 C1245 1.402 . S
C1247 N1246 1.307 . S
C1247 H1248 0.930 . S
H1248 C1247 0.930 . S
C1249 N1250 1.334 . S
C1249 C1251 1.394 . S
C1249 H1253 0.930 . S
N1250 Gd1237 2.601 . S
N1250 C1240 1.359 . S
N1250 C1249 1.334 . S
C1251 C1249 1.394 . S
C1251 C1252 1.359 . S
C1251 H1263 0.930 . S
C1252 C1242 1.391 . S
C1252 C1251 1.359 . S
C1252 H1264 0.929 . S
H1253 C1249 0.930 . S
H1254 C1243 0.930 . S
H1255 C1272 0.930 . S
H1256 C1244 0.930 . S
H1257 C1245 0.930 . S
H1258 C1239 0.929 . S
H1259 C1277 0.930 . S
H1260 C1268 0.930 . S
H1261 C1269 0.930 . S
H1262 C1293 0.929 . S
H1263 C1251 0.930 . S
H1264 C1252 0.929 . S
H1265 C1294 0.930 . S
H1266 C1275 0.930 . S
N1267 Gd1236 2.661 . S
N1267 C1271 1.350 . S
N1267 C1272 1.307 . S
C1268 H1260 0.930 . S
C1268 C1269 1.355 . S
C1268 C1270 1.412 . S
C1269 H1261 0.930 . S
C1269 C1268 1.355 . S
C1269 C1272 1.402 . S
C1270 C1268 1.412 . S
C1270 C1271 1.417 . S
C1270 C1294 1.431 . S
C1271 N1267 1.350 . S
C1271 C1270 1.417 . S
C1271 C1274 1.426 . S
C1272 H1255 0.930 . S
C1272 N1267 1.307 . S
C1272 C1269 1.402 . S
N1273 Gd1236 2.601 . S
N1273 C1274 1.359 . S
N1273 C1277 1.334 . S
C1274 C1271 1.426 . S
C1274 N1273 1.359 . S
C1274 C1278 1.413 . S
C1275 H1266 0.930 . S
C1275 C1276 1.359 . S
C1275 C1277 1.394 . S
C1276 C1275 1.359 . S
C1276 C1278 1.391 . S
C1276 H1279 0.929 . S
C1277 H1259 0.930 . S
C1277 N1273 1.334 . S
C1277 C1275 1.394 . S
C1278 C1274 1.413 . S
C1278 C1276 1.391 . S
C1278 C1293 1.437 . S
H1279 C1276 0.929 . S
O1280 Gd1236 2.545 . S
O1280 C1295 1.258 . S
O1281 Gd1236 2.606 . S
O1281 Gd1237 2.362 . S
O1281 C1292 1.284 . S
O1282 Gd1237 2.324 . S
O1282 C1302 1.254 . S
O1283 Gd1236 2.429 . S
O1283 C1302 1.268 . S
O1284 Gd1236 2.545 . S
O1284 C1292 1.250 . S
O1285 Gd1236 2.412 . S
O1285 C1295 1.252 . S
O1286 Gd1237 2.545 . S
O1286 C1304 1.258 . S
O1287 Gd1236 2.362 . S
O1287 Gd1237 2.606 . S
O1287 C1303 1.284 . S
O1288 Gd1236 2.324 . S
O1288 C1311 1.254 . S
O1289 Gd1237 2.429 . S
O1289 C1311 1.268 . S
O1290 Gd1237 2.545 . S
O1290 C1303 1.250 . S
O1291 Gd1237 2.412 . S
O1291 C1304 1.252 . S
C1292 O1281 1.284 . S
C1292 O1284 1.250 . S
C1293 H1262 0.929 . S
C1293 C1278 1.437 . S
C1293 C1294 1.317 . S
C1294 H1265 0.930 . S
C1294 C1270 1.431 . S
C1294 C1293 1.317 . S
C1295 Gd1236 2.828 . S
C1295 O1280 1.258 . S
C1295 O1285 1.252 . S
C1295 C1296 1.497 . S
C1296 C1295 1.497 . S
C1296 C1297 1.395 . S
C1296 C1298 1.380 . S
C1297 C1296 1.395 . S
C1297 C1300 1.398 . S
C1297 H1312 0.930 . S
C1298 C1296 1.380 . S
C1298 C1299 1.391 . S
C1298 H1313 0.930 . S
C1299 C1298 1.391 . S
C1299 C1301 1.387 . S
C1300 C1297 1.398 . S
C1300 C1301 1.380 . S
C1300 H1314 0.930 . S
C1301 C1299 1.387 . S
C1301 C1300 1.380 . S
C1301 H1315 0.930 . S
C1302 O1282 1.254 . S
C1302 O1283 1.268 . S
C1303 O1287 1.284 . S
C1303 O1290 1.250 . S
C1304 Gd1237 2.828 . S
C1304 O1286 1.258 . S
C1304 O1291 1.252 . S
C1304 C1305 1.497 . S
C1305 C1304 1.497 . S
C1305 C1306 1.395 . S
C1305 C1307 1.380 . S
C1306 C1305 1.395 . S
C1306 C1309 1.398 . S
C1306 H1316 0.930 . S
C1307 C1305 1.380 . S
C1307 C1308 1.391 . S
C1307 H1317 0.930 . S
C1308 C1307 1.391 . S
C1308 C1310 1.387 . S
C1309 C1306 1.398 . S
C1309 C1310 1.380 . S
C1309 H1318 0.930 . S
C1310 C1308 1.387 . S
C1310 C1309 1.380 . S
C1310 H1319 0.930 . S
C1311 O1288 1.254 . S
C1311 O1289 1.268 . S
H1312 C1297 0.930 . S
H1313 C1298 0.930 . S
H1314 C1300 0.930 . S
H1315 C1301 0.930 . S
H1316 C1306 0.930 . S
H1317 C1307 0.930 . S
H1318 C1309 0.930 . S
H1319 C1310 0.930 . S
Gd1320 N1351 2.661 . S
Gd1320 N1357 2.601 . S
Gd1320 O1364 2.545 . S
Gd1320 O1365 2.606 . S
Gd1320 O1367 2.429 . S
Gd1320 O1368 2.545 . S
Gd1320 O1369 2.412 . S
Gd1320 O1371 2.362 . S
Gd1320 O1372 2.324 . S
Gd1320 C1379 2.828 . S
Gd1321 N1330 2.661 . S
Gd1321 N1334 2.601 . S
Gd1321 O1365 2.362 . S
Gd1321 O1366 2.324 . S
Gd1321 O1370 2.545 . S
Gd1321 O1371 2.606 . S
Gd1321 O1373 2.429 . S
Gd1321 O1374 2.545 . S
Gd1321 O1375 2.412 . S
Gd1321 C1388 2.828 . S
C1322 C1325 1.417 1_455 S
C1322 C1327 1.431 . S
C1322 C1328 1.412 . S
C1323 C1326 1.437 1_455 S
C1323 C1327 1.317 . S
C1323 H1342 0.929 . S
C1324 C1325 1.426 . S
C1324 C1326 1.413 . S
C1324 N1334 1.359 . S
C1325 C1322 1.417 1_655 S
C1325 C1324 1.426 . S
C1325 N1330 1.350 . S
C1326 C1323 1.437 1_655 S
C1326 C1324 1.413 . S
C1326 C1336 1.391 . S
C1327 C1322 1.431 . S
C1327 C1323 1.317 . S
C1327 H1338 0.930 . S
C1328 C1322 1.412 . S
C1328 C1329 1.355 . S
C1328 H1340 0.930 . S
C1329 C1328 1.355 . S
C1329 C1331 1.402 1_455 S
C1329 H1341 0.930 . S
N1330 Gd1321 2.661 . S
N1330 C1325 1.350 . S
N1330 C1331 1.307 . S
C1331 C1329 1.402 1_655 S
C1331 N1330 1.307 . S
C1331 H1332 0.930 . S
H1332 C1331 0.930 . S
C1333 N1334 1.334 . S
C1333 C1335 1.394 . S
C1333 H1337 0.930 . S
N1334 Gd1321 2.601 . S
N1334 C1324 1.359 . S
N1334 C1333 1.334 . S
C1335 C1333 1.394 . S
C1335 C1336 1.359 . S
C1335 H1347 0.930 . S
C1336 C1326 1.391 . S
C1336 C1335 1.359 . S
C1336 H1348 0.929 . S
H1337 C1333 0.930 . S
H1338 C1327 0.930 . S
H1339 C1356 0.930 . S
H1340 C1328 0.930 . S
H1341 C1329 0.930 . S
H1342 C1323 0.929 . S
H1343 C1361 0.930 . S
H1344 C1352 0.930 . S
H1345 C1353 0.930 . S
H1346 C1377 0.929 . S
H1347 C1335 0.930 . S
H1348 C1336 0.929 . S
H1349 C1378 0.930 . S
H1350 C1359 0.930 . S
N1351 Gd1320 2.661 . S
N1351 C1355 1.350 . S
N1351 C1356 1.307 . S
C1352 H1344 0.930 . S
C1352 C1353 1.355 . S
C1352 C1354 1.412 . S
C1353 H1345 0.930 . S
C1353 C1352 1.355 . S
C1353 C1356 1.402 . S
C1354 C1352 1.412 . S
C1354 C1355 1.417 . S
C1354 C1378 1.431 . S
C1355 N1351 1.350 . S
C1355 C1354 1.417 . S
C1355 C1358 1.426 . S
C1356 H1339 0.930 . S
C1356 N1351 1.307 . S
C1356 C1353 1.402 . S
N1357 Gd1320 2.601 . S
N1357 C1358 1.359 . S
N1357 C1361 1.334 . S
C1358 C1355 1.426 . S
C1358 N1357 1.359 . S
C1358 C1362 1.413 . S
C1359 H1350 0.930 . S
C1359 C1360 1.359 . S
C1359 C1361 1.394 . S
C1360 C1359 1.359 . S
C1360 C1362 1.391 . S
C1360 H1363 0.929 . S
C1361 H1343 0.930 . S
C1361 N1357 1.334 . S
C1361 C1359 1.394 . S
C1362 C1358 1.413 . S
C1362 C1360 1.391 . S
C1362 C1377 1.437 . S
H1363 C1360 0.929 . S
O1364 Gd1320 2.545 . S
O1364 C1379 1.258 . S
O1365 Gd1320 2.606 . S
O1365 Gd1321 2.362 . S
O1365 C1376 1.284 . S
O1366 Gd1321 2.324 . S
O1366 C1386 1.254 . S
O1367 Gd1320 2.429 . S
O1367 C1386 1.268 . S
O1368 Gd1320 2.545 . S
O1368 C1376 1.250 . S
O1369 Gd1320 2.412 . S
O1369 C1379 1.252 . S
O1370 Gd1321 2.545 . S
O1370 C1388 1.258 . S
O1371 Gd1320 2.362 . S
O1371 Gd1321 2.606 . S
O1371 C1387 1.284 . S
O1372 Gd1320 2.324 . S
O1372 C1395 1.254 . S
O1373 Gd1321 2.429 . S
O1373 C1395 1.268 . S
O1374 Gd1321 2.545 . S
O1374 C1387 1.250 . S
O1375 Gd1321 2.412 . S
O1375 C1388 1.252 . S
C1376 O1365 1.284 . S
C1376 O1368 1.250 . S
C1377 H1346 0.929 . S
C1377 C1362 1.437 . S
C1377 C1378 1.317 . S
C1378 H1349 0.930 . S
C1378 C1354 1.431 . S
C1378 C1377 1.317 . S
C1379 Gd1320 2.828 . S
C1379 O1364 1.258 . S
C1379 O1369 1.252 . S
C1379 C1380 1.497 . S
C1380 C1379 1.497 . S
C1380 C1381 1.395 . S
C1380 C1382 1.380 . S
C1381 C1380 1.395 . S
C1381 C1384 1.398 . S
C1381 H1396 0.930 . S
C1382 C1380 1.380 . S
C1382 C1383 1.391 . S
C1382 H1397 0.930 . S
C1383 C1382 1.391 . S
C1383 C1385 1.387 . S
C1384 C1381 1.398 . S
C1384 C1385 1.380 . S
C1384 H1398 0.930 . S
C1385 C1383 1.387 . S
C1385 C1384 1.380 . S
C1385 H1399 0.930 . S
C1386 O1366 1.254 . S
C1386 O1367 1.268 . S
C1387 O1371 1.284 . S
C1387 O1374 1.250 . S
C1388 Gd1321 2.828 . S
C1388 O1370 1.258 . S
C1388 O1375 1.252 . S
C1388 C1389 1.497 . S
C1389 C1388 1.497 . S
C1389 C1390 1.395 . S
C1389 C1391 1.380 . S
C1390 C1389 1.395 . S
C1390 C1393 1.398 . S
C1390 H1400 0.930 . S
C1391 C1389 1.380 . S
C1391 C1392 1.391 . S
C1391 H1401 0.930 . S
C1392 C1391 1.391 . S
C1392 C1394 1.387 . S
C1393 C1390 1.398 . S
C1393 C1394 1.380 . S
C1393 H1402 0.930 . S
C1394 C1392 1.387 . S
C1394 C1393 1.380 . S
C1394 H1403 0.930 . S
C1395 O1372 1.254 . S
C1395 O1373 1.268 . S
H1396 C1381 0.930 . S
H1397 C1382 0.930 . S
H1398 C1384 0.930 . S
H1399 C1385 0.930 . S
H1400 C1390 0.930 . S
H1401 C1391 0.930 . S
H1402 C1393 0.930 . S
H1403 C1394 0.930 . S
C469 C704 1.617 . S
C505 C788 1.577 . S
C433 C882 1.610 . S
C397 C798 1.485 . S
C872 C325 1.476 . S
C361 C714 1.536 . S
C715 C421 1.601 . S
C799 C349 1.552 . S
C385 C891 1.614 . S
C493 C807 1.486 . S
C529 C883 1.456 . S
C723 C457 1.544 . S
C956 C37 1.617 . S
C73 C1040 1.578 . S
C1 C1134 1.609 . S
C613 C1050 1.486 . S
C541 C1124 1.476 . S
C577 C966 1.536 . S
C637 C967 1.601 . S
C565 C1051 1.552 . S
C1143 C601 1.614 . S
C61 C1059 1.486 . S
C1135 C97 1.456 . S
C25 C975 1.544 . S
C1208 C253 1.618 . S
C289 C1292 1.577 . S
C1386 C217 1.610 . S
C1302 C181 1.484 . S
C1376 C109 1.476 . S
C145 C1218 1.535 . S
C205 C1219 1.601 . S
C133 C1303 1.552 . S
C1395 C169 1.613 . S
C277 C1311 1.487 . S
C313 C1387 1.455 . S
C241 C1227 1.545 . S
C571 C711 1.525 . S
C795 C607 1.364 . S
C643 C888 1.417 . S
C247 C804 1.379 . S
C283 C879 1.407 . S
C720 C319 1.539 . S
C139 C963 1.524 . S
C175 C1047 1.364 . S
C211 C1140 1.417 . S
C463 C1056 1.379 . S
C1131 C499 1.407 . S
C535 C972 1.538 . S
C355 C1215 1.525 . S
C391 C1299 1.364 . S
C1392 C427 1.417 . S
C31 C1308 1.380 . S
C67 C1383 1.407 . S
C103 C1224 1.538 . S
