# Generated by pormake.
# Topology zzz, (3,6)-cn, num edge types: 1
# Building blocks:
#     Node 0, Type 0, BuildingBlock: PAMTOO_clean_linker_0, # of connection points: 3
#     Node 1, Type 0, BuildingBlock: PAMTOO_clean_linker_0, # of connection points: 3
#     Node 2, Type 0, BuildingBlock: PAMTOO_clean_linker_0, # of connection points: 3
#     Node 3, Type 0, BuildingBlock: PAMTOO_clean_linker_0, # of connection points: 3
#     Node 4, Type 0, BuildingBlock: PAMTOO_clean_linker_0, # of connection points: 3
#     Node 5, Type 0, BuildingBlock: PAMTOO_clean_linker_0, # of connection points: 3
#     Node 6, Type 0, BuildingBlock: PAMTOO_clean_linker_0, # of connection points: 3
#     Node 7, Type 0, BuildingBlock: PAMTOO_clean_linker_0, # of connection points: 3
#     Node 8, Type 1, BuildingBlock: PAMTOO_clean_sbu_0, # of connection points: 6
#     Node 9, Type 1, BuildingBlock: PAMTOO_clean_sbu_0, # of connection points: 6
#     Node 10, Type 1, BuildingBlock: PAMTOO_clean_sbu_0, # of connection points: 6
#     Node 11, Type 1, BuildingBlock: PAMTOO_clean_sbu_0, # of connection points: 6
#     Edge 12, Type (0, 1), BuildingBlock: UVAHIK_clean_linker_0, # of connection points: 2
#     Edge 13, Type (0, 1), BuildingBlock: UVAHIK_clean_linker_0, # of connection points: 2
#     Edge 14, Type (0, 1), BuildingBlock: UVAHIK_clean_linker_0, # of connection points: 2
#     Edge 15, Type (0, 1), BuildingBlock: UVAHIK_clean_linker_0, # of connection points: 2
#     Edge 16, Type (0, 1), BuildingBlock: UVAHIK_clean_linker_0, # of connection points: 2
#     Edge 17, Type (0, 1), BuildingBlock: UVAHIK_clean_linker_0, # of connection points: 2
#     Edge 18, Type (0, 1), BuildingBlock: UVAHIK_clean_linker_0, # of connection points: 2
#     Edge 19, Type (0, 1), BuildingBlock: UVAHIK_clean_linker_0, # of connection points: 2
#     Edge 20, Type (0, 1), BuildingBlock: UVAHIK_clean_linker_0, # of connection points: 2
#     Edge 21, Type (0, 1), BuildingBlock: UVAHIK_clean_linker_0, # of connection points: 2
#     Edge 22, Type (0, 1), BuildingBlock: UVAHIK_clean_linker_0, # of connection points: 2
#     Edge 23, Type (0, 1), BuildingBlock: UVAHIK_clean_linker_0, # of connection points: 2
#     Edge 24, Type (0, 1), BuildingBlock: UVAHIK_clean_linker_0, # of connection points: 2
#     Edge 25, Type (0, 1), BuildingBlock: UVAHIK_clean_linker_0, # of connection points: 2
#     Edge 26, Type (0, 1), BuildingBlock: UVAHIK_clean_linker_0, # of connection points: 2
#     Edge 27, Type (0, 1), BuildingBlock: UVAHIK_clean_linker_0, # of connection points: 2
#     Edge 28, Type (0, 1), BuildingBlock: UVAHIK_clean_linker_0, # of connection points: 2
#     Edge 29, Type (0, 1), BuildingBlock: UVAHIK_clean_linker_0, # of connection points: 2
#     Edge 30, Type (0, 1), BuildingBlock: UVAHIK_clean_linker_0, # of connection points: 2
#     Edge 31, Type (0, 1), BuildingBlock: UVAHIK_clean_linker_0, # of connection points: 2
#     Edge 32, Type (0, 1), BuildingBlock: UVAHIK_clean_linker_0, # of connection points: 2
#     Edge 33, Type (0, 1), BuildingBlock: UVAHIK_clean_linker_0, # of connection points: 2
#     Edge 34, Type (0, 1), BuildingBlock: UVAHIK_clean_linker_0, # of connection points: 2
#     Edge 35, Type (0, 1), BuildingBlock: UVAHIK_clean_linker_0, # of connection points: 2
# Relax obj value: 0.185
# Max RMSD: 0.230
# Mean RMSD: 0.118
data_MOF--net-zzz--node1-PAMTOO_clean_sbu_0--node2-PAMTOO_clean_linker_0--edge1-UVAHIK_clean_linker_0
_symmetry_space_group_name_H-M    P1
_symmetry_Int_Tables_number       1
_symmetry_cell_setting            triclinic
loop_
_symmetry_equiv_pos_as_xyz
'x, y, z'
_cell_length_a     72.356022
_cell_length_b     64.246338
_cell_length_c     20.208146
_cell_angle_alpha  91.022662
_cell_angle_beta   82.119646
_cell_angle_gamma 86.278992
loop_
_atom_site_label
_atom_site_type_symbol
_atom_site_fract_x
_atom_site_fract_y
_atom_site_fract_z
_atom_type_partial_charge
H0 H 0.8166 0.5368 0.41011 0.0
H1 H 0.76288 0.52886 0.34829 0.0
H2 H 0.77734 0.49969 0.52608 0.0
H3 H 0.74109 0.47701 0.4509 0.0
C4 C 0.74651 0.48837 0.41348 0.0
O5 O 0.75073 0.50606 0.44727 0.0
H6 H 0.75934 0.48046 0.38443 0.0
C7 C 0.80276 0.53099 0.4195 0.0
C8 C 0.79844 0.5185 0.47491 0.0
C9 C 0.79024 0.53448 0.37293 0.0
C10 C 0.77265 0.5263 0.38394 0.0
C11 C 0.76789 0.51384 0.43886 0.0
C12 C 0.78091 0.5096 0.4841 0.0
H13 H 0.98321 0.776 0.30853 0.0
H14 H 0.98661 0.71079 0.25507 0.0
H15 H 0.01142 0.73168 0.42444 0.0
H16 H 0.02769 0.67914 0.35489 0.0
C17 C 0.02073 0.68853 0.31861 0.0
O18 O 1.00461 0.69871 0.35236 0.0
H19 H 0.03078 0.70003 0.29823 0.0
C20 C 0.98749 0.76003 0.31894 0.0
C21 C 0.99783 0.75607 0.37177 0.0
C22 C 0.98347 0.74389 0.27678 0.0
C23 C 0.98932 0.7233 0.28838 0.0
C24 C 0.99919 0.71883 0.34196 0.0
C25 C 1.00344 0.73519 0.38397 0.0
H26 H 0.72079 0.01274 0.24271 0.0
H27 H 0.77692 0.00938 0.13835 0.0
H28 H 0.76495 0.97879 0.3259 0.0
H29 H 0.80831 0.99426 0.29197 0.0
C30 C 0.80586 0.99795 0.24022 0.0
O31 O 0.79154 0.98623 0.22419 0.0
H32 H 0.80172 0.01494 0.23984 0.0
C33 C 0.7355 0.00782 0.24038 0.0
C34 C 0.74118 0.99553 0.29134 0.0
C35 C 0.7482 0.01306 0.18529 0.0
C36 C 0.76701 0.00572 0.18106 0.0
C37 C 0.77326 0.99363 0.23169 0.0
C38 C 0.76029 0.9885 0.28734 0.0
H39 H 0.50999 0.68908 0.1933 0.0
H40 H 0.51999 0.74355 0.07697 0.0
H41 H 0.53798 0.73926 0.27123 0.0
H42 H 0.5291 0.78549 0.24045 0.0
C43 C 0.52511 0.78098 0.19124 0.0
O44 O 0.5358 0.76315 0.16694 0.0
H45 H 0.50995 0.77808 0.20007 0.0
C46 C 0.5151 0.70458 0.18867 0.0
C47 C 0.52385 0.71285 0.23997 0.0
C48 C 0.51371 0.71538 0.12987 0.0
C49 C 0.52094 0.73505 0.12236 0.0
C50 C 0.52938 0.74385 0.17384 0.0
C51 C 0.53119 0.73256 0.23211 0.0
H52 H 0.20449 0.50416 0.12454 0.0
H53 H 0.26135 0.50203 0.16286 0.0
H54 H 0.24916 0.48394 0.96816 0.0
H55 H 0.293 0.46338 0.01074 0.0
C56 C 0.28671 0.47122 0.05874 0.0
O57 O 0.2762 0.48898 0.04411 0.0
H58 H 0.27765 0.45997 0.08644 0.0
C59 C 0.21923 0.50068 0.10703 0.0
C60 C 0.22495 0.4939 0.04038 0.0
C61 C 0.23225 0.50372 0.15106 0.0
C62 C 0.25129 0.49962 0.12895 0.0
C63 C 0.25748 0.49215 0.06382 0.0
C64 C 0.2443 0.48913 0.01923 0.0
H65 H 0.04004 0.21871 0.16148 0.0
H66 H 0.04217 0.28411 0.20451 0.0
H67 H 0.04772 0.26169 0.0002 0.0
H68 H 0.02012 0.30403 0.08399 0.0
C69 C 0.03399 0.3107 0.08313 0.0
O70 O 0.04807 0.29491 0.08025 0.0
H71 H 0.03633 0.31983 0.03697 0.0
C72 C 0.04174 0.23442 0.14385 0.0
C73 C 0.04425 0.23791 0.07492 0.0
C74 C 0.0407 0.25098 0.19056 0.0
C75 C 0.04264 0.2713 0.16856 0.0
C76 C 0.04516 0.27523 0.10017 0.0
C77 C 0.04563 0.25859 0.05312 0.0
H78 H 0.31782 0.99368 0.22135 0.0
H79 H 0.26146 0.98961 0.31746 0.0
H80 H 0.27164 0.01007 0.11437 0.0
H81 H 0.23269 0.03072 0.19933 0.0
C82 C 0.23432 0.02025 0.24163 0.0
O83 O 0.24531 0.00256 0.21674 0.0
H84 H 0.24137 0.029 0.27797 0.0
C85 C 0.30288 0.99576 0.21985 0.0
C86 C 0.29644 0.00232 0.16091 0.0
C87 C 0.29041 0.99121 0.2762 0.0
C88 C 0.27113 0.99329 0.2741 0.0
C89 C 0.26418 0.00053 0.21665 0.0
C90 C 0.2769 0.00495 0.15944 0.0
H91 H 0.5302 0.31244 0.23953 0.0
H92 H 0.52422 0.25967 0.36667 0.0
H93 H 0.4969 0.26285 0.19014 0.0
H94 H 0.52912 0.22372 0.26022 0.0
C95 C 0.51381 0.22175 0.2656 0.0
O96 O 0.50378 0.23975 0.29213 0.0
H97 H 0.51003 0.21866 0.21498 0.0
C98 C 0.52472 0.29735 0.25028 0.0
C99 C 0.51318 0.28894 0.20791 0.0
C100 C 0.5287 0.28706 0.30767 0.0
C101 C 0.5212 0.26783 0.32252 0.0
C102 C 0.51003 0.25888 0.27946 0.0
C103 C 0.50569 0.26966 0.22283 0.0
Dy104 Dy 1.00831 0.00824 0.66783 0.0
Dy105 Dy 0.02902 0.98689 0.78392 0.0
C106 C 0.05334 0.00105 0.64844 0.0
O107 O 0.0138 0.9748 0.63334 0.0
O108 O 0.01502 0.96142 0.73672 0.0
O109 O 1.00708 0.01728 0.56586 0.0
O110 O 0.98408 0.02625 0.64319 0.0
O111 O 0.99948 0.99616 0.83025 0.0
O112 O 0.98543 0.99435 0.7364 0.0
O113 O 0.03638 0.02018 0.78901 0.0
O114 O 0.01137 0.03371 0.74211 0.0
O115 O 0.03251 0.98399 0.88802 0.0
O116 O 0.04793 0.96253 0.81344 0.0
C117 C 0.01369 0.95881 0.673 0.0
O118 O 0.03879 0.01314 0.63686 0.0
O119 O 0.05189 0.98761 0.69692 0.0
C120 C 0.99437 0.05186 0.57025 0.0
C121 C 0.99724 0.09517 0.56023 0.0
C122 C 1.01034 0.0829 0.59045 0.0
C123 C 1.00894 0.06148 0.59519 0.0
C124 C 0.98117 0.06393 0.54025 0.0
C125 C 0.98263 0.08549 0.53503 0.0
C126 C 0.99215 0.02974 0.58316 0.0
C127 C 0.98433 0.99459 0.80185 0.0
C128 C 0.02537 0.03622 0.77588 0.0
C129 C 0.03299 0.94823 0.90917 0.0
C130 C 0.01675 0.91124 0.95053 0.0
C131 C 1.00638 0.92681 0.92103 0.0
C132 C 0.01442 0.94513 0.90065 0.0
C133 C 0.0433 0.933 0.94014 0.0
C134 C 0.03515 0.91462 0.96126 0.0
C135 C 0.04189 0.96593 0.87671 0.0
H136 H 0.02154 0.08989 0.61144 0.0
H137 H 0.01906 0.05246 0.61975 0.0
H138 H 0.96967 0.05676 0.52174 0.0
H139 H 0.97244 0.09455 0.5109 0.0
H140 H 0.9921 0.92473 0.91307 0.0
H141 H 1.00629 0.9566 0.87608 0.0
H142 H 0.05774 0.93501 0.94601 0.0
H143 H 0.04343 0.90277 0.98377 0.0
Dy144 Dy 0.51136 0.9858 0.65863 0.0
Dy145 Dy 0.52416 0.01317 0.77946 0.0
C146 C 0.51249 0.03466 0.65124 0.0
O147 O 0.54287 0.9816 0.63862 0.0
O148 O 0.54973 0.00929 0.70234 0.0
O149 O 0.49872 0.98444 0.56828 0.0
O150 O 0.50817 0.95586 0.61191 0.0
O151 O 0.53345 0.97991 0.79504 0.0
O152 O 0.51009 0.96585 0.74832 0.0
O153 O 0.49447 0.00691 0.81832 0.0
O154 O 0.4845 0.99955 0.71798 0.0
O155 O 0.52963 0.0175 0.88113 0.0
O156 O 0.53406 0.04224 0.81051 0.0
C157 C 0.55492 0.99442 0.65666 0.0
O158 O 0.51793 0.01706 0.61838 0.0
O159 O 0.50925 0.03507 0.71668 0.0
C160 C 0.47977 0.95628 0.5673 0.0
C161 C 0.44352 0.94347 0.56023 0.0
C162 C 0.4464 0.95936 0.60571 0.0
C163 C 0.46432 0.96559 0.60935 0.0
C164 C 0.47718 0.93994 0.52342 0.0
C165 C 0.45919 0.93353 0.51997 0.0
C166 C 0.49834 0.96418 0.56852 0.0
C167 C 0.52298 0.96432 0.78796 0.0
C168 C 0.48089 0.00399 0.78261 0.0
C169 C 0.55651 0.03619 0.8812 0.0
C170 C 0.59445 0.03945 0.89369 0.0
C171 C 0.58864 0.02168 0.86303 0.0
C172 C 0.56985 0.0201 0.85663 0.0
C173 C 0.56218 0.05397 0.91184 0.0
C174 C 0.58106 0.05561 0.91806 0.0
C175 C 0.53715 0.03518 0.86827 0.0
H176 H 0.43475 0.96769 0.63662 0.0
H177 H 0.46603 0.97818 0.64367 0.0
H178 H 0.489 0.93244 0.49102 0.0
H179 H 0.45751 0.92105 0.48501 0.0
H180 H 0.59868 0.00913 0.84293 0.0
H181 H 0.56578 0.00645 0.83137 0.0
H182 H 0.55207 0.06667 0.93004 0.0
H183 H 0.58517 0.06941 0.94231 0.0
Dy184 Dy 0.54227 0.50155 0.74403 0.0
Dy185 Dy 0.50166 0.49391 0.67836 0.0
C186 C 0.51409 0.46654 0.79936 0.0
O187 O 0.55043 0.48327 0.64826 0.0
O188 O 0.52275 0.46774 0.64617 0.0
O189 O 0.57045 0.49122 0.75954 0.0
O190 O 0.55794 0.52067 0.80322 0.0
O191 O 0.51661 0.51665 0.61116 0.0
O192 O 0.53962 0.52716 0.67178 0.0
O193 O 0.49826 0.52463 0.73287 0.0
O194 O 0.51746 0.51618 0.8109 0.0
O195 O 0.47125 0.49599 0.68137 0.0
O196 O 0.48935 0.48038 0.59819 0.0
C197 C 0.54075 0.46849 0.62741 0.0
O198 O 0.53128 0.47251 0.78778 0.0
O199 O 0.50008 0.47569 0.77282 0.0
C200 C 0.58321 0.50421 0.8549 0.0
C201 C 0.6078 0.50209 0.95404 0.0
C202 C 0.59183 0.51618 0.96159 0.0
C203 C 0.57976 0.51731 0.91253 0.0
C204 C 0.59881 0.48969 0.84854 0.0
C205 C 0.61087 0.48861 0.89732 0.0
C206 C 0.57252 0.50736 0.79717 0.0
C207 C 0.52954 0.52936 0.62241 0.0
C208 C 0.50461 0.52869 0.78919 0.0
C209 C 0.45859 0.49191 0.57642 0.0
C210 C 0.43086 0.49449 0.48873 0.0
C211 C 0.44976 0.48921 0.4641 0.0
C212 C 0.46341 0.48795 0.50718 0.0
C213 C 0.43982 0.49804 0.60075 0.0
C214 C 0.42616 0.49947 0.55742 0.0
C215 C 0.47218 0.48615 0.62362 0.0
H216 H 0.58903 0.52695 0.00416 0.0
H217 H 0.56808 0.52892 0.9188 0.0
H218 H 0.60208 0.47954 0.80454 0.0
H219 H 0.6228 0.47732 0.89002 0.0
H220 H 0.45398 0.48556 0.41145 0.0
H221 H 0.47764 0.48298 0.48634 0.0
H222 H 0.43553 0.50085 0.65381 0.0
H223 H 0.41174 0.50347 0.57834 0.0
Dy224 Dy 0.0226 0.51383 0.66703 0.0
Dy225 Dy 1.01036 0.47933 0.77703 0.0
C226 C 0.02526 0.46485 0.62381 0.0
O227 O 0.99403 0.50638 0.64703 0.0
O228 O 0.98394 0.49649 0.75301 0.0
O229 O 0.03244 0.52401 0.56767 0.0
O230 O 0.02704 0.54634 0.65008 0.0
O231 O 0.01465 0.50849 0.83335 0.0
O232 O 1.00658 0.53129 0.75624 0.0
O233 O 0.04163 0.4747 0.76346 0.0
O234 O 0.04746 0.50692 0.72111 0.0
O235 O 1.01058 0.46616 0.87478 0.0
O236 O 0.99228 0.45478 0.80821 0.0
C237 C 0.98038 0.502 0.69338 0.0
O238 O 0.03136 0.48345 0.61153 0.0
O239 O 0.01571 0.46055 0.68147 0.0
C240 C 0.05401 0.54944 0.5751 0.0
C241 C 0.09052 0.56285 0.56233 0.0
C242 C 0.08694 0.54258 0.58306 0.0
C243 C 0.06888 0.53594 0.5892 0.0
C244 C 0.05741 0.56971 0.55434 0.0
C245 C 0.07563 0.57634 0.54739 0.0
C246 C 0.03491 0.54277 0.58881 0.0
C247 C 1.00928 0.52739 0.81775 0.0
C248 C 0.05306 0.4896 0.7487 0.0
C249 C 0.97887 0.46373 0.91677 0.0
C250 C 0.94353 0.48094 0.97394 0.0
C251 C 0.95854 0.49366 0.96147 0.0
C252 C 0.97604 0.48514 0.93344 0.0
C253 C 0.96411 0.45074 0.93252 0.0
C254 C 0.94651 0.45931 0.96171 0.0
C255 C 0.99547 0.45652 0.86991 0.0
H256 H 0.09819 0.53166 0.59323 0.0
H257 H 0.06651 0.52024 0.60541 0.0
H258 H 0.04601 0.5804 0.54416 0.0
H259 H 0.07808 0.59199 0.53085 0.0
H260 H 0.95656 0.51035 0.97148 0.0
H261 H 0.98706 0.49561 0.92106 0.0
H262 H 0.96591 0.43428 0.91881 0.0
H263 H 0.93504 0.44926 0.97136 0.0
C264 C 0.2137 0.00211 0.33287 0.0
C265 C 0.21524 0.01504 0.27718 0.0
C266 C 0.19619 0.99963 0.37097 0.0
C267 C 0.14838 0.02632 0.41068 0.0
H268 H 0.13507 0.97361 0.48741 0.0
C269 C 0.07375 0.01569 0.55049 0.0
C270 C 0.07188 0.00256 0.60576 0.0
C271 C 0.09108 0.01683 0.50998 0.0
C272 C 0.13857 0.98857 0.46724 0.0
H273 H 0.19945 0.03542 0.21802 0.0
H274 H 0.16906 0.03092 0.2833 0.0
H275 H 0.1652 0.97582 0.41793 0.0
H276 H 0.08716 0.98043 0.6614 0.0
H277 H 0.11724 0.98268 0.59204 0.0
H278 H 0.12193 0.03918 0.46039 0.0
C279 C 0.18133 0.02276 0.29819 0.0
C280 C 0.15595 0.98982 0.42705 0.0
C281 C 0.19878 0.02517 0.26011 0.0
C282 C 0.08793 0.99068 0.61929 0.0
C283 C 0.10526 0.99186 0.57894 0.0
C284 C 0.13106 0.0251 0.45103 0.0
C285 C 0.17974 0.0102 0.35491 0.0
C286 C 0.16114 0.00871 0.39791 0.0
C287 C 0.10718 0.00493 0.52341 0.0
C288 C 0.1258 0.0062 0.48004 0.0
H289 H 0.22612 0.9944 0.34814 0.0
H290 H 0.19568 0.98999 0.41451 0.0
H291 H 0.1519 0.04128 0.39046 0.0
H292 H 0.06177 0.02503 0.53802 0.0
H293 H 0.09174 0.02686 0.46736 0.0
C294 C 0.50906 0.18348 0.28073 0.0
C295 C 0.50991 0.20335 0.30977 0.0
C296 C 0.50751 0.16588 0.32034 0.0
C297 C 0.51638 0.14687 0.48635 0.0
H298 H 0.48839 0.10071 0.43876 0.0
C299 C 0.5076 0.07372 0.64874 0.0
C300 C 0.51043 0.05429 0.61437 0.0
C301 C 0.5063 0.09228 0.61382 0.0
C302 C 0.49636 0.11342 0.45246 0.0
H303 H 0.51025 0.22033 0.40306 0.0
H304 H 0.50691 0.18971 0.47284 0.0
H305 H 0.48779 0.13258 0.37509 0.0
H306 H 0.5138 0.03919 0.51619 0.0
H307 H 0.51142 0.07153 0.45542 0.0
H308 H 0.52486 0.12766 0.56393 0.0
C309 C 0.50754 0.18765 0.41927 0.0
C310 C 0.49606 0.13171 0.41587 0.0
C311 C 0.50922 0.20526 0.37946 0.0
C312 C 0.51164 0.05386 0.54429 0.0
C313 C 0.51016 0.07241 0.50944 0.0
C314 C 0.51656 0.12864 0.52324 0.0
C315 C 0.50686 0.16766 0.39017 0.0
C316 C 0.50624 0.14863 0.43178 0.0
C317 C 0.50761 0.09185 0.54372 0.0
C318 C 0.50671 0.1116 0.50631 0.0
H319 H 0.51005 0.18148 0.22699 0.0
H320 H 0.50744 0.15077 0.29579 0.0
H321 H 0.52465 0.15937 0.49955 0.0
H322 H 0.50662 0.07466 0.70269 0.0
H323 H 0.50415 0.10697 0.64178 0.0
C324 C 0.3029 0.49499 0.13432 0.0
C325 C 0.30225 0.47585 0.09982 0.0
C326 C 0.31667 0.4978 0.17597 0.0
C327 C 0.35139 0.46711 0.26512 0.0
H328 H 0.37136 0.52094 0.28745 0.0
C329 C 0.41662 0.47671 0.3974 0.0
C330 C 0.41608 0.49348 0.4436 0.0
C331 C 0.40263 0.47521 0.35624 0.0
C332 C 0.36582 0.50583 0.28221 0.0
H333 H 0.31585 0.44493 0.08146 0.0
H334 H 0.34018 0.44999 0.15117 0.0
H335 H 0.34769 0.51721 0.21344 0.0
H336 H 0.4003 0.52203 0.48161 0.0
H337 H 0.37593 0.51953 0.40911 0.0
H338 H 0.36983 0.45568 0.33274 0.0
C339 C 0.3298 0.46272 0.14807 0.0
C340 C 0.35215 0.50367 0.23977 0.0
C341 C 0.31595 0.45986 0.1072 0.0
C342 C 0.40115 0.50885 0.4469 0.0
C343 C 0.38725 0.5075 0.40497 0.0
C344 C 0.36518 0.46924 0.3068 0.0
C345 C 0.33028 0.48163 0.18408 0.0
C346 C 0.34474 0.48422 0.2302 0.0
C347 C 0.38771 0.49055 0.3594 0.0
C348 C 0.37266 0.48859 0.31583 0.0
H349 H 0.29275 0.5078 0.12976 0.0
H350 H 0.31634 0.51255 0.20295 0.0
H351 H 0.34582 0.45199 0.261 0.0
H352 H 0.42773 0.46443 0.39385 0.0
H353 H 0.40357 0.46204 0.32146 0.0
C354 C 0.05089 0.33183 0.16112 0.0
C355 C 0.03405 0.3253 0.14305 0.0
C356 C 0.05078 0.34624 0.21421 0.0
C357 C 0.01984 0.3708 0.36252 0.0
H358 H 0.05709 0.41179 0.3507 0.0
C359 C 0.02436 0.4276 0.58415 0.0
C360 C 0.02849 0.44829 0.56997 0.0
C361 C 0.02607 0.41227 0.53309 0.0
C362 C 0.04646 0.40059 0.35476 0.0
H363 H 1.0039 0.32943 0.16481 0.0
H364 H 1.0036 0.35478 0.25634 0.0
H365 H 0.05761 0.38619 0.26003 0.0
H366 H 0.03796 0.46889 0.49032 0.0
H367 H 0.04058 0.44233 0.40122 0.0
H368 H 1.00825 0.38565 0.45591 0.0
C369 C 0.01697 0.34831 0.23125 0.0
C370 C 0.04692 0.38565 0.30296 0.0
C371 C 0.01711 0.33381 0.17849 0.0
C372 C 0.03475 0.45312 0.50333 0.0
C373 C 0.03632 0.43779 0.45209 0.0
C374 C 0.01932 0.3858 0.41408 0.0
C375 C 0.03381 0.35478 0.25 0.0
C376 C 0.03359 0.37053 0.30592 0.0
C377 C 0.03181 0.41716 0.46606 0.0
C378 C 0.03261 0.40096 0.41109 0.0
H379 H 0.06418 0.32582 0.13402 0.0
H380 H 0.06405 0.3506 0.22732 0.0
H381 H 1.00946 0.35932 0.36739 0.0
H382 H 0.01963 0.42321 0.63486 0.0
H383 H 0.02286 0.39653 0.54639 0.0
C384 C 0.84108 0.9901 0.21567 0.0
C385 C 0.82387 0.99381 0.19142 0.0
C386 C 0.85805 0.98904 0.17231 0.0
C387 C 0.87922 0.98287 0.99264 0.0
H388 H 0.92055 0.00917 0.05525 0.0
C389 C 0.94891 0.99469 0.81707 0.0
C390 C 0.96579 0.99342 0.84471 0.0
C391 C 0.93155 0.99417 0.85794 0.0
C392 C 0.90933 0.00144 0.03694 0.0
H393 H 0.81119 0.99946 0.10196 0.0
H394 H 0.84078 0.99746 0.02589 0.0
H395 H 0.89084 0.00883 0.12768 0.0
H396 H 0.97737 0.99004 0.93765 0.0
H397 H 0.9474 0.98874 0.00821 0.0
H398 H 0.89778 0.97541 0.90186 0.0
C399 C 0.84116 0.99504 0.07858 0.0
C400 C 0.89215 0.00127 0.07879 0.0
C401 C 0.82413 0.99617 0.12219 0.0
C402 C 0.96475 0.99129 0.91433 0.0
C403 C 0.94743 0.99067 0.95509 0.0
C404 C 0.89647 0.98296 0.95076 0.0
C405 C 0.85844 0.9918 0.1031 0.0
C406 C 0.87679 0.99193 0.05756 0.0
C407 C 0.93047 0.99227 0.92783 0.0
C408 C 0.91187 0.9922 0.97222 0.0
H409 H 0.84147 0.98848 0.26873 0.0
H410 H 0.87094 0.9862 0.19332 0.0
H411 H 0.86787 0.97533 0.97446 0.0
H412 H 0.94907 0.9964 0.76378 0.0
H413 H 0.91893 0.99569 0.83467 0.0
C414 C 0.51757 0.80024 0.08918 0.0
C415 C 0.52794 0.79853 0.14289 0.0
C416 C 0.519 0.81741 0.04749 0.0
C417 C 0.53253 0.87212 0.04622 0.0
H418 H 0.52894 0.86722 0.85702 0.0
C419 C 0.53808 0.94318 0.87253 0.0
C420 C 0.52531 0.94492 0.826 0.0
C421 C 0.53988 0.92498 0.90907 0.0
C422 C 0.52981 0.8689 0.9099 0.0
H423 H 0.54879 0.81269 0.19281 0.0
H424 H 0.55153 0.84259 0.11961 0.0
H425 H 0.52978 0.8359 0.92325 0.0
H426 H 0.50454 0.92868 0.78118 0.0
H427 H 0.50759 0.89717 0.84489 0.0
H428 H 0.5324 0.90514 0.03294 0.0
C429 C 0.5419 0.83099 0.11058 0.0
C430 C 0.53029 0.85091 0.94794 0.0
C431 C 0.54044 0.8138 0.15226 0.0
C432 C 0.51454 0.92794 0.81649 0.0
C433 C 0.51638 0.90975 0.85277 0.0
C434 C 0.53208 0.89011 0.00814 0.0
C435 C 0.53096 0.83322 0.05829 0.0
C436 C 0.53148 0.85227 0.0168 0.0
C437 C 0.52902 0.90803 0.89974 0.0
C438 C 0.53052 0.88877 0.93959 0.0
H439 H 0.50795 0.78855 0.08068 0.0
H440 H 0.51026 0.81862 0.00814 0.0
H441 H 0.53315 0.87386 0.09924 0.0
H442 H 0.54664 0.95592 0.88107 0.0
H443 H 0.5499 0.92412 0.9443 0.0
C444 C 0.71283 0.4963 0.39351 0.0
C445 C 0.73189 0.49347 0.36767 0.0
C446 C 0.69915 0.49892 0.35068 0.0
C447 C 0.6925 0.5108 0.17361 0.0
H448 H 0.64633 0.48359 0.21874 0.0
C449 C 0.64099 0.49952 0.98122 0.0
C450 C 0.62162 0.50197 0.00333 0.0
C451 C 0.65402 0.49952 0.02668 0.0
C452 C 0.65902 0.49151 0.20558 0.0
H453 H 0.7516 0.49214 0.27672 0.0
H454 H 0.7279 0.49641 0.20189 0.0
H455 H 0.66961 0.48222 0.29531 0.0
H456 H 0.60096 0.50627 0.09172 0.0
H457 H 0.62366 0.50639 0.17096 0.0
H458 H 0.68199 0.5198 0.08337 0.0
C459 C 0.72336 0.49676 0.25524 0.0
C460 C 0.67244 0.49077 0.24976 0.0
C461 C 0.73701 0.49419 0.29813 0.0
C462 C 0.61571 0.50446 0.07257 0.0
C463 C 0.62877 0.50433 0.11818 0.0
C464 C 0.67911 0.51145 0.12933 0.0
C465 C 0.70415 0.49884 0.28067 0.0
C466 C 0.68947 0.50031 0.23442 0.0
C467 C 0.64815 0.50191 0.09593 0.0
C468 C 0.6622 0.50172 0.14437 0.0
H469 H 0.70848 0.49597 0.44693 0.0
H470 H 0.68461 0.50092 0.37261 0.0
H471 H 0.70519 0.5187 0.1602 0.0
H472 H 0.64617 0.49784 0.92839 0.0
H473 H 0.66875 0.49739 0.0074 0.0
C474 C 0.02894 0.67135 0.20369 0.0
C475 C 0.01648 0.67396 0.26345 0.0
C476 C 0.02626 0.65652 0.15483 0.0
C477 C 1.0023 0.60773 0.13306 0.0
H478 H 0.01689 0.61745 0.94496 0.0
C479 C 0.01162 0.54054 0.93405 0.0
C480 C 1.00738 0.54456 0.86938 0.0
C481 C 0.01105 0.55674 0.98174 0.0
C482 C 0.0125 0.61448 0.99714 0.0
H483 H 0.99158 0.66271 0.31932 0.0
H484 H 0.98648 0.63724 0.2334 0.0
H485 H 0.01842 0.64521 0.02712 0.0
H486 H 0.99872 0.56891 0.80506 0.0
H487 H 0.99733 0.59712 0.8886 0.0
H488 H 0.996 0.57716 0.103 0.0
C489 C 0.99847 0.64654 0.22422 0.0
C490 C 0.01364 0.63038 0.04458 0.0
C491 C 1.00124 0.66133 0.27328 0.0
C492 C 1.00214 0.56521 0.85422 0.0
C493 C 1.00149 0.58145 0.90213 0.0
C494 C 1.00107 0.59186 0.0856 0.0
C495 C 0.01104 0.64376 0.16443 0.0
C496 C 1.00877 0.62719 0.1134 0.0
C497 C 1.00612 0.57749 0.96648 0.0
C498 C 1.00637 0.59489 0.0169 0.0
H499 H 0.04105 0.68052 0.19529 0.0
H500 H 0.03649 0.65465 0.11038 0.0
H501 H 0.99859 0.60448 0.1854 0.0
H502 H 0.01576 0.52486 0.94768 0.0
H503 H 0.015 0.55299 0.03014 0.0
C504 C 0.01997 0.25495 0.29972 0.0
C505 C 0.03671 0.24675 0.26224 0.0
C506 C 0.01393 0.24695 0.36228 0.0
C507 C 0.02724 0.21013 0.49053 0.0
H508 H 0.98146 0.18488 0.46429 0.0
C509 C 0.01711 0.12519 0.53559 0.0
C510 C 0.99929 0.11787 0.55366 0.0
C511 C 0.01924 0.14637 0.52685 0.0
C512 C 0.99392 0.19215 0.47422 0.0
H513 H 0.06118 0.22556 0.26224 0.0
H514 H 0.05085 0.21173 0.37152 0.0
H515 H 0.99045 0.21535 0.40178 0.0
H516 H 0.96979 0.12715 0.57946 0.0
H517 H 0.97352 0.1644 0.56307 0.0
H518 H 0.03131 0.18601 0.55976 0.0
C519 C 0.04233 0.22427 0.35328 0.0
C520 C 0.99908 0.2097 0.43833 0.0
C521 C 0.0482 0.23202 0.29052 0.0
C522 C 0.98367 0.13232 0.56449 0.0
C523 C 0.98581 0.15362 0.55563 0.0
C524 C 0.02202 0.19266 0.52682 0.0
C525 C 0.02471 0.23089 0.38826 0.0
C526 C 0.01638 0.21798 0.44293 0.0
C527 C 1.00362 0.16083 0.53581 0.0
C528 C 1.00595 0.18268 0.51553 0.0
H529 H 1.01091 0.26631 0.27846 0.0
H530 H 1.00031 0.25231 0.38832 0.0
H531 H 0.04051 0.21643 0.4957 0.0
H532 H 0.0294 0.11445 0.52581 0.0
H533 H 0.03311 0.15125 0.50977 0.0
C534 C 0.29542 0.96331 0.35766 0.0
C535 C 0.29806 0.98368 0.33605 0.0
C536 C 0.30609 0.95462 0.40432 0.0
C537 C 0.33958 0.96676 0.52158 0.0
H538 H 0.36794 0.91695 0.44303 0.0
C539 C 0.40963 0.94022 0.60514 0.0
C540 C 0.42413 0.93894 0.55078 0.0
C541 C 0.39096 0.94002 0.59449 0.0
C542 C 0.35999 0.93067 0.46623 0.0
H543 H 0.31258 0.01152 0.34917 0.0
H544 H 0.33102 0.99657 0.43101 0.0
H545 H 0.33925 0.92909 0.40074 0.0
H546 H 0.43029 0.93496 0.44293 0.0
H547 H 0.39791 0.93423 0.42465 0.0
H548 H 0.36103 0.9692 0.58373 0.0
C549 C 0.32079 0.98723 0.4125 0.0
C550 C 0.34346 0.93752 0.44248 0.0
C551 C 0.31034 0.99579 0.36541 0.0
C552 C 0.41958 0.93575 0.4861 0.0
C553 C 0.40095 0.93535 0.47556 0.0
C554 C 0.35606 0.95985 0.54556 0.0
C555 C 0.31933 0.9663 0.43048 0.0
C556 C 0.33358 0.95619 0.46777 0.0
C557 C 0.38642 0.93825 0.52936 0.0
C558 C 0.36688 0.94229 0.51591 0.0
H559 H 0.28607 0.9537 0.33519 0.0
H560 H 0.30464 0.93848 0.41755 0.0
H561 H 0.33214 0.98109 0.54239 0.0
H562 H 0.41265 0.94221 0.65581 0.0
H563 H 0.38004 0.94204 0.63694 0.0
C564 C 0.55712 0.30494 0.32644 0.0
C565 C 0.53981 0.29765 0.35265 0.0
C566 C 0.5651 0.32023 0.36109 0.0
C567 C 0.56553 0.36508 0.40577 0.0
H568 H 0.5589 0.37578 0.59723 0.0
C569 C 0.54269 0.44443 0.52973 0.0
C570 C 0.55016 0.45076 0.58664 0.0
C571 C 0.5483 0.42504 0.49898 0.0
C572 C 0.56125 0.3729 0.54366 0.0
H573 H 0.51809 0.29906 0.43783 0.0
H574 H 0.53187 0.32598 0.4984 0.0
H575 H 0.55656 0.3404 0.5536 0.0
H576 H 0.56962 0.44229 0.65556 0.0
H577 H 0.57924 0.40782 0.60225 0.0
H578 H 0.5692 0.39773 0.39581 0.0
C579 C 0.53945 0.31978 0.45154 0.0
C580 C 0.55973 0.3527 0.5187 0.0
C581 C 0.53153 0.30434 0.41697 0.0
C582 C 0.56398 0.43781 0.6108 0.0
C583 C 0.56932 0.4181 0.58082 0.0
C584 C 0.56692 0.38523 0.43068 0.0
C585 C 0.55581 0.32867 0.42229 0.0
C586 C 0.56122 0.34872 0.44945 0.0
C587 C 0.56117 0.41137 0.52555 0.0
C588 C 0.56412 0.38949 0.49979 0.0
H589 H 0.56377 0.29991 0.27691 0.0
H590 H 0.57791 0.32643 0.33785 0.0
H591 H 0.56656 0.36271 0.35217 0.0
H592 H 0.5318 0.45409 0.51102 0.0
H593 H 0.54159 0.42018 0.45704 0.0
C594 C 0.21113 0.50325 0.25916 0.0
C595 C 0.22582 0.51213 0.21937 0.0
C596 C 0.20336 0.5127 0.32006 0.0
C597 C 0.19335 0.5644 0.39162 0.0
H598 H 0.16885 0.53299 0.5362 0.0
C599 C 0.11722 0.57679 0.48924 0.0
C600 C 0.11007 0.5688 0.55091 0.0
C601 C 0.1365 0.57689 0.47051 0.0
C602 C 0.17589 0.54234 0.49776 0.0
H603 H 0.24467 0.53712 0.21307 0.0
H604 H 0.2308 0.55394 0.31984 0.0
H605 H 0.19539 0.51676 0.46289 0.0
H606 H 0.11717 0.55748 0.64527 0.0
H607 H 0.15091 0.55787 0.61286 0.0
H608 H 0.17316 0.5896 0.4242 0.0
C609 C 0.2254 0.53962 0.30394 0.0
C610 C 0.19103 0.53289 0.45526 0.0
C611 C 0.23333 0.52999 0.24313 0.0
C612 C 0.1224 0.56332 0.59677 0.0
C613 C 0.14169 0.56354 0.57823 0.0
C614 C 0.17824 0.57391 0.43439 0.0
C615 C 0.21003 0.53133 0.34216 0.0
C616 C 0.19902 0.54333 0.39911 0.0
C617 C 0.14896 0.56907 0.51331 0.0
C618 C 0.16853 0.56246 0.48494 0.0
H619 H 0.20524 0.48938 0.24204 0.0
H620 H 0.19134 0.50608 0.34778 0.0
H621 H 0.19932 0.5729 0.34897 0.0
H622 H 0.10803 0.5811 0.45293 0.0
H623 H 0.14152 0.58114 0.41993 0.0
C624 C 0.98824 0.7492 0.15539 0.0
C625 C 0.97589 0.74967 0.21526 0.0
C626 C 0.98495 0.76304 0.10518 0.0
C627 C 0.96538 0.81621 0.11669 0.0
H628 H 0.99238 0.81753 0.93752 0.0
C629 C 1.00935 0.8833 0.03239 0.0
C630 C 1.00828 0.89148 0.9691 0.0
C631 C 1.00057 0.8652 0.05105 0.0
C632 C 0.98449 0.81741 0.9871 0.0
H633 H 0.94899 0.76189 0.26573 0.0
H634 H 0.94266 0.78531 0.17653 0.0
H635 H 0.9823 0.78432 0.98225 0.0
H636 H 0.99778 0.8869 0.87472 0.0
H637 H 0.98251 0.85498 0.90743 0.0
H638 H 0.96826 0.84904 0.12267 0.0
C639 C 0.95525 0.77497 0.16907 0.0
C640 C 0.97877 0.79842 0.01278 0.0
C641 C 0.95873 0.76143 0.21985 0.0
C642 C 0.99862 0.88099 0.92418 0.0
C643 C 0.98998 0.86273 0.94263 0.0
C644 C 0.97108 0.83507 0.09111 0.0
C645 C 0.96917 0.77736 0.11437 0.0
C646 C 0.96996 0.79746 0.07912 0.0
C647 C 0.99068 0.85485 0.00657 0.0
C648 C 0.98148 0.83568 0.02744 0.0
H649 H 1.00159 0.74025 0.15109 0.0
H650 H 0.99596 0.76427 0.06368 0.0
H651 H 0.95881 0.81622 0.16816 0.0
H652 H 0.01665 0.89113 0.06794 0.0
H653 H 1.00161 0.85922 0.10028 0.0
C654 C 0.74609 0.01781 0.06349 0.0
C655 C 0.74108 0.02473 0.13026 0.0
C656 C 0.73588 0.02538 0.01399 0.0
C657 C 0.69432 0.06141 0.98819 0.0
H658 H 0.68116 0.01269 0.89389 0.0
C659 C 0.62353 0.05917 0.88627 0.0
C660 C 0.61442 0.0408 0.90107 0.0
C661 C 0.6424 0.0602 0.8937 0.0
C662 C 0.68466 0.02649 0.91975 0.0
H663 H 0.7233 0.04704 0.1959 0.0
H664 H 0.70497 0.05939 0.11138 0.0
H665 H 0.70973 0.01112 0.94356 0.0
H666 H 0.61777 0.00926 0.93592 0.0
H667 H 0.65033 0.01114 0.95045 0.0
H668 H 0.66815 0.07598 0.96991 0.0
C669 C 0.71677 0.04833 0.09608 0.0
C670 C 0.70131 0.02575 0.94736 0.0
C671 C 0.72713 0.041 0.14513 0.0
C672 C 0.6245 0.02351 0.92312 0.0
C673 C 0.64324 0.02457 0.93094 0.0
C674 C 0.67747 0.06202 0.96151 0.0
C675 C 0.72032 0.03976 0.03063 0.0
C676 C 0.70588 0.04283 0.98513 0.0
C677 C 0.65245 0.04291 0.91641 0.0
C678 C 0.67201 0.04416 0.93015 0.0
H679 H 0.75691 0.00541 0.05029 0.0
H680 H 0.7394 0.01889 0.96369 0.0
H681 H 0.69765 0.07509 0.01511 0.0
H682 H 0.6161 0.07266 0.86847 0.0
H683 H 0.64909 0.07452 0.88176 0.0
C684 C 0.48822 0.69676 0.08935 0.0
C685 C 0.50594 0.70467 0.07575 0.0
C686 C 0.48315 0.68087 0.04887 0.0
C687 C 0.48651 0.63572 0.00378 0.0
H688 H 0.50157 0.62537 0.81391 0.0
C689 C 0.50476 0.55355 0.88606 0.0
C690 C 0.49912 0.5491 0.82382 0.0
C691 C 0.50172 0.57368 0.91444 0.0
C692 C 0.49704 0.62812 0.86686 0.0
H693 H 0.53156 0.70371 0.00637 0.0
H694 H 0.52278 0.67584 0.93539 0.0
H695 H 0.50243 0.66053 0.86148 0.0
H696 H 0.48534 0.56221 0.74352 0.0
H697 H 0.48012 0.59734 0.79321 0.0
H698 H 0.48163 0.60326 0.00964 0.0
C699 C 0.51271 0.68198 0.97686 0.0
C700 C 0.49765 0.6482 0.8941 0.0
C701 C 0.51774 0.69799 0.01729 0.0
C702 C 0.4898 0.56506 0.79171 0.0
C703 C 0.48693 0.58524 0.8198 0.0
C704 C 0.48601 0.61567 0.97669 0.0
C705 C 0.49578 0.67249 0.99443 0.0
C706 C 0.4927 0.65214 0.96309 0.0
C707 C 0.49313 0.58983 0.88094 0.0
C708 C 0.49163 0.61156 0.90822 0.0
H709 H 0.47892 0.70171 0.13432 0.0
H710 H 0.46985 0.67418 0.06284 0.0
H711 H 0.48286 0.6381 0.0573 0.0
H712 H 0.51201 0.54164 0.91201 0.0
H713 H 0.5068 0.5768 0.96138 0.0
C714 C 0.79653 0.53108 0.24929 0.0
C715 C 0.79722 0.54307 0.30756 0.0
C716 C 0.80931 0.5337 0.19232 0.0
C717 C 0.85753 0.5436 0.17858 0.0
H718 H 0.85855 0.522 0.99758 0.0
C719 C 0.91493 0.48513 0.0582 0.0
C720 C 0.92476 0.49071 0.99729 0.0
C721 C 0.89828 0.49631 0.08416 0.0
C722 C 0.85844 0.52831 0.04771 0.0
H723 H 0.80903 0.56979 0.3483 0.0
H724 H 0.83121 0.57462 0.24823 0.0
H725 H 0.82925 0.53814 0.05831 0.0
H726 H 0.92467 0.51132 0.9135 0.0
H727 H 0.8951 0.53063 0.95855 0.0
H728 H 0.88632 0.53267 0.16962 0.0
C729 C 0.82125 0.56278 0.2471 0.0
C730 C 0.84176 0.53756 0.08231 0.0
C731 C 0.80856 0.56005 0.30431 0.0
C732 C 0.91727 0.5069 0.96094 0.0
C733 C 0.90044 0.51786 0.9864 0.0
C734 C 0.87403 0.53421 0.14439 0.0
C735 C 0.82288 0.54837 0.19306 0.0
C736 C 0.84098 0.54455 0.1491 0.0
C737 C 0.89111 0.51299 0.04901 0.0
C738 C 0.87442 0.52576 0.07985 0.0
H739 H 0.78784 0.51794 0.25024 0.0
H740 H 0.81007 0.52241 0.15142 0.0
H741 H 0.85747 0.5485 0.23017 0.0
H742 H 0.92053 0.47273 0.08691 0.0
H743 H 0.89113 0.49218 0.13233 0.0
C744 C 0.05686 0.20169 0.0378 0.0
C745 C 0.04533 0.21953 0.02791 0.0
C746 C 0.05591 0.18307 0.00184 0.0
C747 C 0.0232 0.15478 0.91401 0.0
H748 H 0.06666 0.11653 0.8618 0.0
C749 C 0.01756 0.07503 0.78126 0.0
C750 C 0.02846 0.05769 0.79974 0.0
C751 C 0.02026 0.09527 0.80342 0.0
C752 C 0.05433 0.1269 0.87665 0.0
H753 H 0.02426 0.23199 0.97031 0.0
H754 H 0.02266 0.19939 0.90659 0.0
H755 H 0.07062 0.15119 0.90672 0.0
H756 H 0.05089 0.04827 0.85602 0.0
H757 H 0.05539 0.08348 0.89564 0.0
H758 H 1.00688 0.1304 0.88503 0.0
C759 C 0.03234 0.19979 0.94291 0.0
C760 C 0.05661 0.14687 0.9023 0.0
C761 C 0.0334 0.21856 0.97876 0.0
C762 C 0.04224 0.0612 0.8407 0.0
C763 C 0.0449 0.08147 0.86308 0.0
C764 C 0.02092 0.1348 0.88845 0.0
C765 C 0.04333 0.18166 0.95495 0.0
C766 C 0.04106 0.16103 0.92209 0.0
C767 C 0.0339 0.09882 0.84497 0.0
C768 C 0.03643 0.12045 0.87 0.0
H769 H 0.06624 0.20194 0.07522 0.0
H770 H 0.06448 0.1695 0.01314 0.0
H771 H 1.01086 0.16506 0.92962 0.0
H772 H 1.0069 0.07305 0.74936 0.0
H773 H 0.01171 0.10816 0.78733 0.0
C774 C 0.31952 0.9879 0.06476 0.0
C775 C 0.31092 0.00538 0.10242 0.0
C776 C 0.33666 0.98913 0.02329 0.0
C777 C 0.37866 0.02062 0.00525 0.0
H778 H 0.39352 0.9861 0.84525 0.0
C779 C 0.45665 0.00761 0.88608 0.0
C780 C 0.46095 0.0055 0.81607 0.0
C781 C 0.43802 0.00846 0.91759 0.0
C782 C 0.38965 0.99604 0.88944 0.0
H783 H 0.31351 0.03795 0.12528 0.0
H784 H 0.343 0.04046 0.05115 0.0
H785 H 0.36142 0.98685 0.90127 0.0
H786 H 0.44857 0.00306 0.72463 0.0
H787 H 0.41629 0.00471 0.7791 0.0
H788 H 0.40677 0.03006 0.99296 0.0
C789 C 0.33667 0.02564 0.05394 0.0
C790 C 0.37116 0.99628 0.92223 0.0
C791 C 0.31952 0.02436 0.09552 0.0
C792 C 0.44597 0.00446 0.77859 0.0
C793 C 0.42733 0.00533 0.81008 0.0
C794 C 0.39712 0.02039 0.97247 0.0
C795 C 0.34585 0.00787 0.01865 0.0
C796 C 0.36535 0.00848 0.98103 0.0
C797 C 0.423 0.00729 0.88021 0.0
C798 C 0.40302 0.00797 0.91423 0.0
H799 H 0.31355 0.9729 0.07073 0.0
H800 H 0.34322 0.97499 0.998 0.0
H801 H 0.37499 0.03002 0.05072 0.0
H802 H 0.46772 0.00835 0.91693 0.0
H803 H 0.43546 0.00964 0.97161 0.0
C804 C 0.49149 0.31101 0.14706 0.0
C805 C 0.5093 0.30115 0.14931 0.0
C806 C 0.48923 0.32753 0.10359 0.0
C807 C 0.51638 0.36954 0.03969 0.0
H808 H 0.48158 0.38058 0.91274 0.0
C809 C 0.52652 0.43603 0.85857 0.0
C810 C 0.511 0.44794 0.8412 0.0
C811 C 0.52422 0.4181 0.8957 0.0
C812 C 0.49117 0.37787 0.94884 0.0
H813 H 0.53832 0.29948 0.10474 0.0
H814 H 0.53441 0.32805 0.02882 0.0
H815 H 0.48091 0.34787 0.97426 0.0
H816 H 0.48073 0.45006 0.84931 0.0
H817 H 0.47665 0.41875 0.91624 0.0
H818 H 0.52649 0.39934 0.01641 0.0
C819 C 0.52222 0.32324 0.06069 0.0
C820 C 0.49084 0.35911 0.98367 0.0
C821 C 0.52444 0.3068 0.10366 0.0
C822 C 0.493 0.44132 0.86207 0.0
C823 C 0.49067 0.4233 0.90001 0.0
C824 C 0.51656 0.38825 0.00588 0.0
C825 C 0.50481 0.33439 0.06238 0.0
C826 C 0.5038 0.35459 0.0281 0.0
C827 C 0.5063 0.41153 0.91759 0.0
C828 C 0.50435 0.39248 0.95857 0.0
H829 H 0.47967 0.30711 0.18251 0.0
H830 H 0.47567 0.33592 0.10587 0.0
H831 H 0.52621 0.36669 0.07496 0.0
H832 H 0.54065 0.44032 0.84265 0.0
H833 H 0.53664 0.4092 0.90647 0.0
C834 C 0.19644 0.50961 0.99684 0.0
C835 C 0.21033 0.49311 0.9945 0.0
C836 C 0.18109 0.50827 0.96214 0.0
C837 C 0.15343 0.46989 0.88369 0.0
H838 H 0.12942 0.52051 0.82445 0.0
C839 C 0.07754 0.47305 0.81365 0.0
C840 C 0.07244 0.4877 0.76726 0.0
C841 C 0.09531 0.47259 0.83483 0.0
C842 C 0.13594 0.50606 0.83953 0.0
H843 H 0.2192 0.4625 0.95065 0.0
H844 H 0.19253 0.46031 0.88795 0.0
H845 H 0.15894 0.52185 0.86723 0.0
H846 H 0.08257 0.51282 0.7051 0.0
H847 H 0.11349 0.51145 0.73903 0.0
H848 H 0.13061 0.454 0.85382 0.0
C849 C 0.19335 0.47419 0.9183 0.0
C850 C 0.1529 0.5069 0.86541 0.0
C851 C 0.20882 0.47552 0.95352 0.0
C852 C 0.08585 0.50139 0.74112 0.0
C853 C 0.10366 0.50072 0.76138 0.0
C854 C 0.13649 0.46899 0.85705 0.0
C855 C 0.17907 0.49046 0.92286 0.0
C856 C 0.16182 0.48894 0.88916 0.0
C857 C 0.10864 0.4866 0.80965 0.0
C858 C 0.12729 0.48713 0.83523 0.0
H859 H 0.19717 0.52351 0.02725 0.0
H860 H 0.17045 0.52107 0.96826 0.0
H861 H 0.15966 0.45568 0.90167 0.0
H862 H 0.06759 0.46233 0.83532 0.0
H863 H 0.09831 0.46162 0.87259 0.0
C864 C 1.01055 0.79131 0.37447 0.0
C865 C 1.00323 0.77434 0.40988 0.0
C866 C 0.01246 0.81021 0.40723 0.0
C867 C 0.01476 0.83664 0.56905 0.0
H868 H 0.99456 0.88466 0.48229 0.0
C869 C 1.00907 0.92052 0.68884 0.0
C870 C 0.01198 0.93737 0.64584 0.0
C871 C 1.0079 0.90026 0.66321 0.0
C872 C 1.00056 0.87156 0.50691 0.0
H873 H 0.99337 0.76355 0.50848 0.0
H874 H 0.99703 0.79677 0.56657 0.0
H875 H 0.99379 0.84996 0.43347 0.0
H876 H 0.0162 0.94588 0.54184 0.0
H877 H 0.01466 0.91073 0.49721 0.0
H878 H 0.02191 0.85832 0.64184 0.0
C879 C 1.00112 0.79535 0.513 0.0
C880 C 1.00003 0.85156 0.47891 0.0
C881 C 0.99909 0.77631 0.47988 0.0
C882 C 0.01375 0.93339 0.57657 0.0
C883 C 0.01275 0.91313 0.55094 0.0
C884 C 0.01548 0.85676 0.59685 0.0
C885 C 1.00724 0.81274 0.4766 0.0
C886 C 1.00728 0.83384 0.50911 0.0
C887 C 1.00975 0.89621 0.59377 0.0
C888 C 1.00853 0.87457 0.56582 0.0
H889 H 0.01417 0.79021 0.32063 0.0
H890 H 0.01765 0.82307 0.37782 0.0
H891 H 0.02053 0.82334 0.59346 0.0
H892 H 1.00761 0.92296 0.74254 0.0
H893 H 1.00531 0.88784 0.69807 0.0
C894 C 0.72088 0.00324 0.40137 0.0
C895 C 0.72619 0.98988 0.34522 0.0
C896 C 0.70347 0.00197 0.4414 0.0
C897 C 0.66163 0.96943 0.47414 0.0
H898 H 0.63566 0.02257 0.53293 0.0
C899 C 0.58138 0.97786 0.57225 0.0
C900 C 0.57499 0.99252 0.62437 0.0
C901 C 0.60016 0.97659 0.54167 0.0
C902 C 0.64271 0.00751 0.51784 0.0
H903 H 0.71741 0.9646 0.28754 0.0
H904 H 0.68729 0.96212 0.3571 0.0
H905 H 0.66773 0.02151 0.4774 0.0
H906 H 0.58385 0.01709 0.68562 0.0
H907 H 0.61626 0.01478 0.63316 0.0
H908 H 0.6364 0.9555 0.51391 0.0
C909 C 0.6966 0.97337 0.3716 0.0
C910 C 0.66127 0.00689 0.48589 0.0
C911 C 0.71399 0.97466 0.33173 0.0
C912 C 0.58805 0.00569 0.64534 0.0
C913 C 0.60676 0.00444 0.61481 0.0
C914 C 0.64301 0.97006 0.50604 0.0
C915 C 0.69074 0.98744 0.42598 0.0
C916 C 0.6711 0.98785 0.46324 0.0
C917 C 0.61317 0.98997 0.56211 0.0
C918 C 0.63319 0.98913 0.52836 0.0
H919 H 0.72972 0.01551 0.412 0.0
H920 H 0.69977 0.01287 0.4833 0.0
H921 H 0.66864 0.9544 0.45846 0.0
H922 H 0.57184 0.96744 0.55451 0.0
H923 H 0.60438 0.96536 0.50095 0.0
C924 C 0.54312 0.69413 0.31807 0.0
C925 C 0.52555 0.6999 0.29931 0.0
C926 C 0.54505 0.67791 0.36285 0.0
C927 C 0.51726 0.64275 0.4794 0.0
H928 H 0.5596 0.60288 0.42785 0.0
C929 C 0.51645 0.55644 0.55061 0.0
C930 C 0.53145 0.54841 0.58213 0.0
C931 C 0.51711 0.57584 0.52039 0.0
C932 C 0.54779 0.61397 0.44314 0.0
H933 H 0.4961 0.69441 0.31632 0.0
H934 H 0.49937 0.6662 0.39269 0.0
H935 H 0.55821 0.63642 0.37296 0.0
H936 H 0.55921 0.55416 0.60415 0.0
H937 H 0.56055 0.58784 0.54917 0.0
H938 H 0.50646 0.61975 0.5471 0.0
C939 C 0.51173 0.67408 0.37406 0.0
C940 C 0.54703 0.6333 0.41211 0.0
C941 C 0.50982 0.69025 0.32983 0.0
C942 C 0.54743 0.55989 0.58026 0.0
C943 C 0.54822 0.57915 0.54884 0.0
C944 C 0.51789 0.62333 0.50946 0.0
C945 C 0.52944 0.66717 0.38966 0.0
C946 C 0.53155 0.64782 0.42887 0.0
C947 C 0.53288 0.58752 0.51992 0.0
C948 C 0.53299 0.6086 0.49084 0.0
H949 H 0.55549 0.70123 0.295 0.0
H950 H 0.55887 0.67333 0.37463 0.0
H951 H 0.50535 0.65364 0.49506 0.0
H952 H 0.50386 0.54814 0.55154 0.0
H953 H 0.50516 0.58184 0.49784 0.0
C954 C 0.82267 0.49439 0.51829 0.0
C955 C 0.81327 0.51424 0.51858 0.0
C956 C 0.83959 0.49163 0.54523 0.0
C957 C 0.87044 0.51676 0.65343 0.0
H958 H 0.9106 0.48494 0.54118 0.0
C959 C 0.9454 0.50144 0.7288 0.0
C960 C 0.96063 0.50327 0.67816 0.0
C961 C 0.92695 0.50205 0.71374 0.0
C962 C 0.89958 0.49393 0.57317 0.0
H963 H 0.81392 0.54657 0.5494 0.0
H964 H 0.84298 0.54174 0.59794 0.0
H965 H 0.87905 0.48675 0.51055 0.0
H966 H 0.96811 0.50717 0.57169 0.0
H967 H 0.93614 0.5081 0.54561 0.0
H968 H 0.89108 0.52419 0.71552 0.0
C969 C 0.83739 0.52823 0.57717 0.0
C970 C 0.88138 0.49476 0.55597 0.0
C971 C 0.82066 0.53101 0.54952 0.0
C972 C 0.95683 0.50575 0.61215 0.0
C973 C 0.93843 0.50612 0.59703 0.0
C974 C 0.88862 0.51574 0.67106 0.0
C975 C 0.84744 0.50863 0.57369 0.0
C976 C 0.86654 0.50639 0.59536 0.0
C977 C 0.92319 0.50423 0.64749 0.0
C978 C 0.90354 0.50453 0.6307 0.0
H979 H 0.81755 0.48126 0.49365 0.0
H980 H 0.8468 0.47626 0.54217 0.0
H981 H 0.85941 0.52578 0.6853 0.0
H982 H 0.94771 0.49948 0.78023 0.0
H983 H 0.91564 0.50042 0.75395 0.0
loop_
_geom_bond_atom_site_label_1
_geom_bond_atom_site_label_2
_geom_bond_distance
_geom_bond_site_symmetry_2
_ccdc_geom_bond_type
H0 C7 0.929 . S
H1 C10 0.930 . S
H2 C12 0.929 . S
H3 C4 0.969 . S
C4 H3 0.969 . S
C4 O5 1.550 . S
C4 H6 0.973 . S
O5 C4 1.550 . S
O5 C11 1.412 . S
H6 C4 0.973 . S
C7 H0 0.929 . S
C7 C8 1.400 . S
C7 C9 1.364 . S
C8 C7 1.400 . S
C8 C12 1.377 . S
C9 C7 1.364 . S
C9 C10 1.374 . S
C10 H1 0.930 . S
C10 C9 1.374 . S
C10 C11 1.383 . S
C11 O5 1.412 . S
C11 C10 1.383 . S
C11 C12 1.394 . S
C12 H2 0.929 . S
C12 C8 1.377 . S
C12 C11 1.394 . S
H13 C20 0.929 . S
H14 C23 0.930 . S
H15 C25 0.929 . S
H16 C17 0.969 1_455 S
C17 H16 0.969 1_655 S
C17 O18 1.550 . S
C17 H19 0.973 . S
O18 C17 1.550 . S
O18 C24 1.412 . S
H19 C17 0.973 . S
C20 H13 0.929 . S
C20 C21 1.400 . S
C20 C22 1.364 . S
C21 C20 1.400 . S
C21 C25 1.377 . S
C22 C20 1.364 . S
C22 C23 1.374 . S
C23 H14 0.930 . S
C23 C22 1.374 . S
C23 C24 1.383 . S
C24 O18 1.412 . S
C24 C23 1.383 . S
C24 C25 1.394 . S
C25 H15 0.929 . S
C25 C21 1.377 . S
C25 C24 1.394 . S
H26 C33 0.929 . S
H27 C36 0.930 . S
H28 C38 0.929 . S
H29 C30 0.969 . S
C30 H29 0.969 . S
C30 O31 1.550 1_545 S
C30 H32 0.973 1_545 S
O31 C30 1.550 1_565 S
O31 C37 1.412 . S
H32 C30 0.973 1_565 S
C33 H26 0.929 . S
C33 C34 1.400 . S
C33 C35 1.364 . S
C34 C33 1.400 . S
C34 C38 1.377 . S
C35 C33 1.364 . S
C35 C36 1.374 . S
C36 H27 0.930 . S
C36 C35 1.374 . S
C36 C37 1.383 . S
C37 O31 1.412 . S
C37 C36 1.383 . S
C37 C38 1.394 . S
C38 H28 0.929 . S
C38 C34 1.377 . S
C38 C37 1.394 . S
H39 C46 0.929 . S
H40 C49 0.930 . S
H41 C51 0.929 . S
H42 C43 0.969 . S
C43 H42 0.969 . S
C43 O44 1.550 . S
C43 H45 0.973 . S
O44 C43 1.550 . S
O44 C50 1.412 . S
H45 C43 0.973 . S
C46 H39 0.929 . S
C46 C47 1.400 . S
C46 C48 1.364 . S
C47 C46 1.400 . S
C47 C51 1.377 . S
C48 C46 1.364 . S
C48 C49 1.374 . S
C49 H40 0.930 . S
C49 C48 1.374 . S
C49 C50 1.383 . S
C50 O44 1.412 . S
C50 C49 1.383 . S
C50 C51 1.394 . S
C51 H41 0.929 . S
C51 C47 1.377 . S
C51 C50 1.394 . S
H52 C59 0.929 . S
H53 C62 0.930 . S
H54 C64 0.929 . S
H55 C56 0.969 . S
C56 H55 0.969 . S
C56 O57 1.550 1_554 S
C56 H58 0.973 . S
O57 C56 1.550 1_556 S
O57 C63 1.412 . S
H58 C56 0.973 . S
C59 H52 0.929 . S
C59 C60 1.400 . S
C59 C61 1.364 1_556 S
C60 C59 1.400 . S
C60 C64 1.377 . S
C61 C59 1.364 1_554 S
C61 C62 1.374 . S
C62 H53 0.930 . S
C62 C61 1.374 . S
C62 C63 1.383 1_554 S
C63 O57 1.412 . S
C63 C62 1.383 1_556 S
C63 C64 1.394 . S
C64 H54 0.929 . S
C64 C60 1.377 . S
C64 C63 1.394 . S
H65 C72 0.929 . S
H66 C75 0.930 . S
H67 C77 0.929 . S
H68 C69 0.969 . S
C69 H68 0.969 . S
C69 O70 1.550 . S
C69 H71 0.973 . S
O70 C69 1.550 . S
O70 C76 1.412 . S
H71 C69 0.973 . S
C72 H65 0.929 . S
C72 C73 1.400 . S
C72 C74 1.364 . S
C73 C72 1.400 . S
C73 C77 1.377 . S
C74 C72 1.364 . S
C74 C75 1.374 . S
C75 H66 0.930 . S
C75 C74 1.374 . S
C75 C76 1.383 . S
C76 O70 1.412 . S
C76 C75 1.383 . S
C76 C77 1.394 . S
C77 H67 0.929 . S
C77 C73 1.377 . S
C77 C76 1.394 . S
H78 C85 0.929 . S
H79 C88 0.930 . S
H80 C90 0.929 . S
H81 C82 0.969 . S
C82 H81 0.969 . S
C82 O83 1.555 . S
C82 H84 0.973 . S
O83 C82 1.555 . S
O83 C89 1.417 . S
H84 C82 0.973 . S
C85 H78 0.929 . S
C85 C86 1.400 . S
C85 C87 1.364 . S
C86 C85 1.400 . S
C86 C90 1.377 . S
C87 C85 1.364 . S
C87 C88 1.374 . S
C88 H79 0.930 . S
C88 C87 1.374 . S
C88 C89 1.383 . S
C89 O83 1.417 . S
C89 C88 1.383 . S
C89 C90 1.394 . S
C90 H80 0.929 . S
C90 C86 1.377 . S
C90 C89 1.394 . S
H91 C98 0.929 . S
H92 C101 0.930 . S
H93 C103 0.929 . S
H94 C95 0.969 . S
C95 H94 0.969 . S
C95 O96 1.550 . S
C95 H97 0.973 . S
O96 C95 1.550 . S
O96 C102 1.412 . S
H97 C95 0.973 . S
C98 H91 0.929 . S
C98 C99 1.400 . S
C98 C100 1.364 . S
C99 C98 1.400 . S
C99 C103 1.377 . S
C100 C98 1.364 . S
C100 C101 1.374 . S
C101 H92 0.930 . S
C101 C100 1.374 . S
C101 C102 1.383 . S
C102 O96 1.412 . S
C102 C101 1.383 . S
C102 C103 1.394 . S
C103 H93 0.929 . S
C103 C99 1.377 . S
C103 C102 1.394 . S
Dy104 O107 2.307 1_545 S
Dy104 O109 2.395 1_655 S
Dy104 O110 2.379 . S
Dy104 O112 2.339 . S
Dy104 O114 2.298 1_655 S
Dy104 O118 2.275 1_655 S
Dy104 C126 2.738 . S
Dy105 O108 2.298 . S
Dy105 O111 2.275 1_455 S
Dy105 O113 2.307 1_565 S
Dy105 O115 2.395 . S
Dy105 O116 2.379 . S
Dy105 O119 2.339 . S
Dy105 C135 2.738 . S
C106 O118 1.249 1_565 S
C106 O119 1.271 . S
O107 Dy104 2.307 1_565 S
O107 C117 1.266 1_655 S
O108 Dy105 2.298 . S
O108 C117 1.236 . S
O109 Dy104 2.395 1_455 S
O109 C126 1.255 1_455 S
O110 Dy104 2.379 . S
O110 C126 1.249 . S
O111 Dy105 2.275 1_655 S
O111 C127 1.254 1_565 S
O112 Dy104 2.339 . S
O112 C127 1.257 . S
O113 Dy105 2.307 1_545 S
O113 C128 1.266 . S
O114 Dy104 2.298 1_455 S
O114 C128 1.236 . S
O115 Dy105 2.395 . S
O115 C135 1.255 . S
O116 Dy105 2.379 . S
O116 C135 1.249 . S
C117 O107 1.266 1_455 S
C117 O108 1.236 . S
O118 Dy104 2.275 1_455 S
O118 C106 1.249 1_545 S
O119 Dy105 2.339 . S
O119 C106 1.271 . S
C120 C123 1.344 1_655 S
C120 C124 1.328 . S
C120 C126 1.516 . S
C121 C122 1.304 1_655 S
C121 C125 1.323 . S
C122 C121 1.304 1_455 S
C122 C123 1.371 . S
C122 H136 0.930 . S
C123 C120 1.344 1_455 S
C123 C122 1.371 . S
C123 H137 0.931 . S
C124 C120 1.328 . S
C124 C125 1.433 . S
C124 H138 0.931 . S
C125 C121 1.323 . S
C125 C124 1.433 . S
C125 H139 0.933 . S
C126 Dy104 2.738 . S
C126 O109 1.255 1_655 S
C126 O110 1.249 . S
C126 C120 1.516 . S
C127 O111 1.254 1_545 S
C127 O112 1.257 . S
C128 O113 1.266 . S
C128 O114 1.236 . S
C129 C132 1.364 . S
C129 C133 1.328 . S
C129 C135 1.516 . S
C130 C131 1.320 . S
C130 C134 1.323 . S
C131 C130 1.320 . S
C131 C132 1.371 . S
C131 H140 0.914 1_455 S
C132 C129 1.364 . S
C132 C131 1.371 . S
C132 H141 0.911 1_455 S
C133 C129 1.328 . S
C133 C134 1.433 . S
C133 H142 0.931 . S
C134 C130 1.323 . S
C134 C133 1.433 . S
C134 H143 0.933 . S
C135 Dy105 2.738 . S
C135 O115 1.255 . S
C135 O116 1.249 . S
C135 C129 1.516 . S
H136 C122 0.930 . S
H137 C123 0.931 . S
H138 C124 0.931 . S
H139 C125 0.933 . S
H140 C131 0.914 1_655 S
H141 C132 0.911 1_655 S
H142 C133 0.931 . S
H143 C134 0.933 . S
Dy144 O147 2.307 . S
Dy144 O149 2.395 1_565 S
Dy144 O150 2.379 . S
Dy144 O152 2.339 . S
Dy144 O154 2.298 . S
Dy144 O158 2.275 1_565 S
Dy144 C166 2.738 . S
Dy145 O148 2.298 . S
Dy145 O151 2.275 1_545 S
Dy145 O153 2.307 . S
Dy145 O155 2.395 1_545 S
Dy145 O156 2.379 . S
Dy145 O159 2.339 . S
Dy145 C175 2.738 . S
C146 O158 1.254 . S
C146 O159 1.257 . S
O147 Dy144 2.307 . S
O147 C157 1.266 . S
O148 Dy145 2.298 . S
O148 C157 1.236 1_545 S
O149 Dy144 2.395 1_545 S
O149 C166 1.255 1_545 S
O150 Dy144 2.379 . S
O150 C166 1.249 . S
O151 Dy145 2.275 1_565 S
O151 C167 1.254 . S
O152 Dy144 2.339 . S
O152 C167 1.257 . S
O153 Dy145 2.307 . S
O153 C168 1.266 . S
O154 Dy144 2.298 . S
O154 C168 1.236 1_565 S
O155 Dy145 2.395 1_565 S
O155 C175 1.255 1_565 S
O156 Dy145 2.379 . S
O156 C175 1.249 . S
C157 O147 1.266 . S
C157 O148 1.236 1_565 S
O158 Dy144 2.275 1_545 S
O158 C146 1.254 . S
O159 Dy145 2.339 . S
O159 C146 1.257 . S
C160 C163 1.344 1_565 S
C160 C164 1.328 . S
C160 C166 1.516 . S
C161 C162 1.304 1_565 S
C161 C165 1.323 . S
C162 C161 1.304 1_545 S
C162 C163 1.371 . S
C162 H176 0.930 . S
C163 C160 1.344 1_545 S
C163 C162 1.371 . S
C163 H177 0.931 . S
C164 C160 1.328 . S
C164 C165 1.433 . S
C164 H178 0.931 . S
C165 C161 1.323 . S
C165 C164 1.433 . S
C165 H179 0.933 . S
C166 Dy144 2.738 . S
C166 O149 1.255 1_565 S
C166 O150 1.249 . S
C166 C160 1.516 . S
C167 O151 1.254 . S
C167 O152 1.257 . S
C168 O153 1.266 . S
C168 O154 1.236 1_545 S
C169 C172 1.344 1_545 S
C169 C173 1.328 . S
C169 C175 1.516 . S
C170 C171 1.304 1_545 S
C170 C174 1.323 . S
C171 C170 1.304 1_565 S
C171 C172 1.371 . S
C171 H180 0.930 . S
C172 C169 1.344 1_565 S
C172 C171 1.371 . S
C172 H181 0.931 . S
C173 C169 1.328 . S
C173 C174 1.433 . S
C173 H182 0.931 . S
C174 C170 1.323 . S
C174 C173 1.433 . S
C174 H183 0.933 . S
C175 Dy145 2.738 . S
C175 O155 1.255 1_545 S
C175 O156 1.249 . S
C175 C169 1.516 . S
H176 C162 0.930 . S
H177 C163 0.931 . S
H178 C164 0.931 . S
H179 C165 0.933 . S
H180 C171 0.930 . S
H181 C172 0.931 . S
H182 C173 0.931 . S
H183 C174 0.933 . S
Dy184 O187 2.307 . S
Dy184 O189 2.395 . S
Dy184 O190 2.379 . S
Dy184 O192 2.339 . S
Dy184 O194 2.298 . S
Dy184 O198 2.275 . S
Dy184 C206 2.738 . S
Dy185 O188 2.298 . S
Dy185 O191 2.275 . S
Dy185 O193 2.307 . S
Dy185 O195 2.395 . S
Dy185 O196 2.379 . S
Dy185 O199 2.339 . S
Dy185 C215 2.738 . S
C186 O198 1.254 . S
C186 O199 1.257 . S
O187 Dy184 2.307 . S
O187 C197 1.266 . S
O188 Dy185 2.298 . S
O188 C197 1.236 . S
O189 Dy184 2.395 . S
O189 C206 1.255 . S
O190 Dy184 2.379 . S
O190 C206 1.249 . S
O191 Dy185 2.275 . S
O191 C207 1.254 . S
O192 Dy184 2.339 . S
O192 C207 1.257 . S
O193 Dy185 2.307 . S
O193 C208 1.266 . S
O194 Dy184 2.298 . S
O194 C208 1.236 . S
O195 Dy185 2.395 . S
O195 C215 1.255 . S
O196 Dy185 2.379 . S
O196 C215 1.249 . S
C197 O187 1.266 . S
C197 O188 1.236 . S
O198 Dy184 2.275 . S
O198 C186 1.254 . S
O199 Dy185 2.339 . S
O199 C186 1.257 . S
C200 C203 1.344 . S
C200 C204 1.328 . S
C200 C206 1.516 . S
C201 C202 1.304 . S
C201 C205 1.323 . S
C202 C201 1.304 . S
C202 C203 1.371 . S
C202 H216 0.930 . S
C203 C200 1.344 . S
C203 C202 1.371 . S
C203 H217 0.931 . S
C204 C200 1.328 . S
C204 C205 1.433 . S
C204 H218 0.931 . S
C205 C201 1.323 . S
C205 C204 1.433 . S
C205 H219 0.933 . S
C206 Dy184 2.738 . S
C206 O189 1.255 . S
C206 O190 1.249 . S
C206 C200 1.516 . S
C207 O191 1.254 . S
C207 O192 1.257 . S
C208 O193 1.266 . S
C208 O194 1.236 . S
C209 C212 1.344 . S
C209 C213 1.328 . S
C209 C215 1.516 . S
C210 C211 1.304 . S
C210 C214 1.323 . S
C211 C210 1.304 . S
C211 C212 1.371 . S
C211 H220 0.930 . S
C212 C209 1.344 . S
C212 C211 1.371 . S
C212 H221 0.931 . S
C213 C209 1.328 . S
C213 C214 1.433 . S
C213 H222 0.931 . S
C214 C210 1.323 . S
C214 C213 1.433 . S
C214 H223 0.933 . S
C215 Dy185 2.738 . S
C215 O195 1.255 . S
C215 O196 1.249 . S
C215 C209 1.516 . S
H216 C202 0.930 . S
H217 C203 0.931 . S
H218 C204 0.931 . S
H219 C205 0.933 . S
H220 C211 0.930 . S
H221 C212 0.931 . S
H222 C213 0.931 . S
H223 C214 0.933 . S
Dy224 O227 2.307 1_455 S
Dy224 O229 2.395 . S
Dy224 O230 2.379 . S
Dy224 O232 2.339 . S
Dy224 O234 2.298 . S
Dy224 O238 2.275 . S
Dy224 C246 2.738 . S
Dy225 O228 2.298 . S
Dy225 O231 2.275 1_655 S
Dy225 O233 2.307 1_655 S
Dy225 O235 2.395 . S
Dy225 O236 2.379 . S
Dy225 O239 2.339 . S
Dy225 C255 2.738 . S
C226 O238 1.254 . S
C226 O239 1.257 1_455 S
O227 Dy224 2.307 1_655 S
O227 C237 1.266 . S
O228 Dy225 2.298 . S
O228 C237 1.236 . S
O229 Dy224 2.395 . S
O229 C246 1.255 . S
O230 Dy224 2.379 . S
O230 C246 1.249 . S
O231 Dy225 2.275 1_455 S
O231 C247 1.254 . S
O232 Dy224 2.339 . S
O232 C247 1.257 . S
O233 Dy225 2.307 1_455 S
O233 C248 1.266 . S
O234 Dy224 2.298 . S
O234 C248 1.236 . S
O235 Dy225 2.395 . S
O235 C255 1.255 . S
O236 Dy225 2.379 . S
O236 C255 1.249 . S
C237 O227 1.266 . S
C237 O228 1.236 . S
O238 Dy224 2.275 . S
O238 C226 1.254 . S
O239 Dy225 2.339 . S
O239 C226 1.257 1_655 S
C240 C243 1.344 . S
C240 C244 1.328 . S
C240 C246 1.516 . S
C241 C242 1.304 . S
C241 C245 1.323 . S
C242 C241 1.304 . S
C242 C243 1.371 . S
C242 H256 0.930 . S
C243 C240 1.344 . S
C243 C242 1.371 . S
C243 H257 0.931 . S
C244 C240 1.328 . S
C244 C245 1.433 . S
C244 H258 0.931 . S
C245 C241 1.323 . S
C245 C244 1.433 . S
C245 H259 0.933 . S
C246 Dy224 2.738 . S
C246 O229 1.255 . S
C246 O230 1.249 . S
C246 C240 1.516 . S
C247 O231 1.254 . S
C247 O232 1.257 . S
C248 O233 1.266 . S
C248 O234 1.236 . S
C249 C252 1.344 . S
C249 C253 1.328 . S
C249 C255 1.516 . S
C250 C251 1.304 1_554 S
C250 C254 1.323 1_554 S
C251 C250 1.304 1_556 S
C251 C252 1.371 . S
C251 H260 0.930 1_556 S
C252 C249 1.344 . S
C252 C251 1.371 . S
C252 H261 0.931 . S
C253 C249 1.328 . S
C253 C254 1.433 . S
C253 H262 0.931 . S
C254 C250 1.323 1_556 S
C254 C253 1.433 . S
C254 H263 0.933 1_556 S
C255 Dy225 2.738 . S
C255 O235 1.255 . S
C255 O236 1.249 . S
C255 C249 1.516 . S
H256 C242 0.930 . S
H257 C243 0.931 . S
H258 C244 0.931 . S
H259 C245 0.933 . S
H260 C251 0.930 1_554 S
H261 C252 0.931 . S
H262 C253 0.931 . S
H263 C254 0.933 1_554 S
C264 C265 1.349 1_565 S
C264 C266 1.327 . S
C264 H289 0.950 . S
C265 C264 1.349 1_545 S
C265 C281 1.349 . S
C266 C264 1.327 . S
C266 C285 1.429 1_565 S
C266 H290 0.950 . S
C267 C284 1.574 . S
C267 C286 1.368 . S
C267 H291 0.949 . S
H268 C272 0.949 . S
C269 C270 1.349 . S
C269 C271 1.327 . S
C269 H292 0.950 . S
C270 C269 1.349 . S
C270 C282 1.349 1_545 S
C271 C269 1.327 . S
C271 C287 1.429 . S
C271 H293 0.950 . S
C272 H268 0.949 . S
C272 C280 1.574 . S
C272 C288 1.368 1_565 S
H273 C281 0.950 . S
H274 C279 0.950 . S
H275 C280 0.949 . S
H276 C282 0.950 . S
H277 C283 0.950 . S
H278 C284 0.949 . S
C279 H274 0.950 . S
C279 C281 1.327 . S
C279 C285 1.429 . S
C280 C272 1.574 . S
C280 H275 0.949 . S
C280 C286 1.368 1_565 S
C281 C265 1.349 . S
C281 H273 0.950 . S
C281 C279 1.327 . S
C282 C270 1.349 1_565 S
C282 H276 0.950 . S
C282 C283 1.327 . S
C283 H277 0.950 . S
C283 C282 1.327 . S
C283 C287 1.429 1_565 S
C284 C267 1.574 . S
C284 H278 0.949 . S
C284 C288 1.368 . S
C285 C266 1.429 1_545 S
C285 C279 1.429 . S
C285 C286 1.523 . S
C286 C267 1.368 . S
C286 C280 1.368 1_545 S
C286 C285 1.523 . S
C287 C271 1.429 . S
C287 C283 1.429 1_545 S
C287 C288 1.523 . S
C288 C272 1.368 1_545 S
C288 C284 1.368 . S
C288 C287 1.523 . S
H289 C264 0.950 . S
H290 C266 0.950 . S
H291 C267 0.949 . S
H292 C269 0.950 . S
H293 C271 0.950 . S
C294 C295 1.349 . S
C294 C296 1.327 . S
C294 H319 0.950 . S
C295 C294 1.349 . S
C295 C311 1.349 . S
C296 C294 1.327 . S
C296 C315 1.429 . S
C296 H320 0.950 . S
C297 C314 1.574 . S
C297 C316 1.368 . S
C297 H321 0.949 . S
H298 C302 0.949 . S
C299 C300 1.349 . S
C299 C301 1.327 . S
C299 H322 0.950 . S
C300 C299 1.349 . S
C300 C312 1.349 . S
C301 C299 1.327 . S
C301 C317 1.429 . S
C301 H323 0.950 . S
C302 H298 0.949 . S
C302 C310 1.574 . S
C302 C318 1.368 . S
H303 C311 0.950 . S
H304 C309 0.950 . S
H305 C310 0.949 . S
H306 C312 0.950 . S
H307 C313 0.950 . S
H308 C314 0.949 . S
C309 H304 0.950 . S
C309 C311 1.327 . S
C309 C315 1.429 . S
C310 C302 1.574 . S
C310 H305 0.949 . S
C310 C316 1.368 . S
C311 C295 1.349 . S
C311 H303 0.950 . S
C311 C309 1.327 . S
C312 C300 1.349 . S
C312 H306 0.950 . S
C312 C313 1.327 . S
C313 H307 0.950 . S
C313 C312 1.327 . S
C313 C317 1.429 . S
C314 C297 1.574 . S
C314 H308 0.949 . S
C314 C318 1.368 . S
C315 C296 1.429 . S
C315 C309 1.429 . S
C315 C316 1.523 . S
C316 C297 1.368 . S
C316 C310 1.368 . S
C316 C315 1.523 . S
C317 C301 1.429 . S
C317 C313 1.429 . S
C317 C318 1.523 . S
C318 C302 1.368 . S
C318 C314 1.368 . S
C318 C317 1.523 . S
H319 C294 0.950 . S
H320 C296 0.950 . S
H321 C297 0.949 . S
H322 C299 0.950 . S
H323 C301 0.950 . S
C324 C325 1.349 . S
C324 C326 1.327 . S
C324 H349 0.950 . S
C325 C324 1.349 . S
C325 C341 1.349 . S
C326 C324 1.327 . S
C326 C345 1.429 . S
C326 H350 0.950 . S
C327 C344 1.574 . S
C327 C346 1.368 . S
C327 H351 0.949 . S
H328 C332 0.949 . S
C329 C330 1.349 . S
C329 C331 1.327 . S
C329 H352 0.950 . S
C330 C329 1.349 . S
C330 C342 1.349 . S
C331 C329 1.327 . S
C331 C347 1.429 . S
C331 H353 0.950 . S
C332 H328 0.949 . S
C332 C340 1.574 . S
C332 C348 1.368 . S
H333 C341 0.950 . S
H334 C339 0.950 . S
H335 C340 0.949 . S
H336 C342 0.950 . S
H337 C343 0.950 . S
H338 C344 0.949 . S
C339 H334 0.950 . S
C339 C341 1.327 . S
C339 C345 1.429 . S
C340 C332 1.574 . S
C340 H335 0.949 . S
C340 C346 1.368 . S
C341 C325 1.349 . S
C341 H333 0.950 . S
C341 C339 1.327 . S
C342 C330 1.349 . S
C342 H336 0.950 . S
C342 C343 1.327 . S
C343 H337 0.950 . S
C343 C342 1.327 . S
C343 C347 1.429 . S
C344 C327 1.574 . S
C344 H338 0.949 . S
C344 C348 1.368 . S
C345 C326 1.429 . S
C345 C339 1.429 . S
C345 C346 1.523 . S
C346 C327 1.368 . S
C346 C340 1.368 . S
C346 C345 1.523 . S
C347 C331 1.429 . S
C347 C343 1.429 . S
C347 C348 1.523 . S
C348 C332 1.368 . S
C348 C344 1.368 . S
C348 C347 1.523 . S
H349 C324 0.950 . S
H350 C326 0.950 . S
H351 C327 0.949 . S
H352 C329 0.950 . S
H353 C331 0.950 . S
C354 C355 1.349 . S
C354 C356 1.327 . S
C354 H379 0.950 . S
C355 C354 1.349 . S
C355 C371 1.349 . S
C356 C354 1.327 . S
C356 C375 1.429 . S
C356 H380 0.950 . S
C357 C374 1.574 . S
C357 C376 1.368 . S
C357 H381 0.949 . S
H358 C362 0.949 . S
C359 C360 1.349 . S
C359 C361 1.327 . S
C359 H382 0.950 . S
C360 C359 1.349 . S
C360 C372 1.349 . S
C361 C359 1.327 . S
C361 C377 1.429 . S
C361 H383 0.950 . S
C362 H358 0.949 . S
C362 C370 1.574 . S
C362 C378 1.368 . S
H363 C371 0.950 . S
H364 C369 0.950 . S
H365 C370 0.949 . S
H366 C372 0.950 . S
H367 C373 0.950 . S
H368 C374 0.949 . S
C369 H364 0.950 . S
C369 C371 1.327 . S
C369 C375 1.429 . S
C370 C362 1.574 . S
C370 H365 0.949 . S
C370 C376 1.368 . S
C371 C355 1.349 . S
C371 H363 0.950 . S
C371 C369 1.327 . S
C372 C360 1.349 . S
C372 H366 0.950 . S
C372 C373 1.327 . S
C373 H367 0.950 . S
C373 C372 1.327 . S
C373 C377 1.429 . S
C374 C357 1.574 . S
C374 H368 0.949 . S
C374 C378 1.368 . S
C375 C356 1.429 . S
C375 C369 1.429 . S
C375 C376 1.523 . S
C376 C357 1.368 . S
C376 C370 1.368 . S
C376 C375 1.523 . S
C377 C361 1.429 . S
C377 C373 1.429 . S
C377 C378 1.523 . S
C378 C362 1.368 . S
C378 C374 1.368 . S
C378 C377 1.523 . S
H379 C354 0.950 . S
H380 C356 0.950 . S
H381 C357 0.949 . S
H382 C359 0.950 . S
H383 C361 0.950 . S
C384 C385 1.349 1_545 S
C384 C386 1.327 . S
C384 H409 0.950 . S
C385 C384 1.349 1_565 S
C385 C401 1.349 . S
C386 C384 1.327 . S
C386 C405 1.429 1_545 S
C386 H410 0.950 . S
C387 C404 1.574 . S
C387 C406 1.406 1_556 S
C387 H411 0.949 . S
H388 C392 0.949 . S
C389 C390 1.328 1_565 S
C389 C391 1.327 . S
C389 H412 0.950 . S
C390 C389 1.328 1_545 S
C390 C402 1.367 . S
C391 C389 1.327 . S
C391 C407 1.427 . S
C391 H413 0.950 . S
C392 H388 0.949 . S
C392 C400 1.574 . S
C392 C408 1.356 1_544 S
H393 C401 0.950 . S
H394 C399 0.950 . S
H395 C400 0.949 . S
H396 C402 0.950 . S
H397 C403 0.950 . S
H398 C404 0.949 . S
C399 H394 0.950 . S
C399 C401 1.327 . S
C399 C405 1.429 . S
C400 C392 1.574 . S
C400 H395 0.949 . S
C400 C406 1.329 1_545 S
C401 C385 1.349 . S
C401 H393 0.950 . S
C401 C399 1.327 . S
C402 C390 1.367 . S
C402 H396 0.950 . S
C402 C403 1.327 . S
C403 H397 0.950 . S
C403 C402 1.327 . S
C403 C407 1.431 1_545 S
C404 C387 1.574 . S
C404 H398 0.949 . S
C404 C408 1.381 . S
C405 C386 1.429 1_565 S
C405 C399 1.429 . S
C405 C406 1.529 . S
C406 C387 1.406 1_554 S
C406 C400 1.329 1_565 S
C406 C405 1.529 . S
C407 C391 1.427 . S
C407 C403 1.431 1_565 S
C407 C408 1.521 . S
C408 C392 1.356 1_566 S
C408 C404 1.381 . S
C408 C407 1.521 . S
H409 C384 0.950 . S
H410 C386 0.950 . S
H411 C387 0.949 . S
H412 C389 0.950 . S
H413 C391 0.950 . S
C414 C415 1.349 1_556 S
C414 C416 1.327 . S
C414 H439 0.950 . S
C415 C414 1.349 1_554 S
C415 C431 1.349 . S
C416 C414 1.327 . S
C416 C435 1.429 . S
C416 H440 0.950 . S
C417 C434 1.574 . S
C417 C436 1.368 . S
C417 H441 0.949 1_556 S
H418 C422 0.949 . S
C419 C420 1.349 . S
C419 C421 1.327 . S
C419 H442 0.950 . S
C420 C419 1.349 . S
C420 C432 1.349 . S
C421 C419 1.327 . S
C421 C437 1.429 . S
C421 H443 0.950 . S
C422 H418 0.949 . S
C422 C430 1.574 . S
C422 C438 1.368 . S
H423 C431 0.950 . S
H424 C429 0.950 . S
H425 C430 0.949 . S
H426 C432 0.950 . S
H427 C433 0.950 . S
H428 C434 0.949 . S
C429 H424 0.950 . S
C429 C431 1.327 . S
C429 C435 1.429 1_554 S
C430 C422 1.574 . S
C430 H425 0.949 . S
C430 C436 1.368 . S
C431 C415 1.349 . S
C431 H423 0.950 . S
C431 C429 1.327 . S
C432 C420 1.349 . S
C432 H426 0.950 . S
C432 C433 1.327 . S
C433 H427 0.950 . S
C433 C432 1.327 . S
C433 C437 1.429 . S
C434 C417 1.574 . S
C434 H428 0.949 . S
C434 C438 1.368 . S
C435 C416 1.429 . S
C435 C429 1.429 1_556 S
C435 C436 1.523 . S
C436 C417 1.368 . S
C436 C430 1.368 . S
C436 C435 1.523 . S
C437 C421 1.429 . S
C437 C433 1.429 . S
C437 C438 1.523 . S
C438 C422 1.368 . S
C438 C434 1.368 . S
C438 C437 1.523 . S
H439 C414 0.950 . S
H440 C416 0.950 . S
H441 C417 0.949 1_554 S
H442 C419 0.950 . S
H443 C421 0.950 . S
C444 C445 1.349 . S
C444 C446 1.327 . S
C444 H469 0.950 . S
C445 C444 1.349 . S
C445 C461 1.349 . S
C446 C444 1.327 . S
C446 C465 1.429 . S
C446 H470 0.950 . S
C447 C464 1.574 . S
C447 C466 1.368 . S
C447 H471 0.949 . S
H448 C452 0.949 . S
C449 C450 1.349 . S
C449 C451 1.327 1_556 S
C449 H472 0.950 . S
C450 C449 1.349 . S
C450 C462 1.349 1_556 S
C451 C449 1.327 1_554 S
C451 C467 1.429 . S
C451 H473 0.950 . S
C452 H448 0.949 . S
C452 C460 1.574 . S
C452 C468 1.368 . S
H453 C461 0.950 . S
H454 C459 0.950 . S
H455 C460 0.949 . S
H456 C462 0.950 . S
H457 C463 0.950 . S
H458 C464 0.949 . S
C459 H454 0.950 . S
C459 C461 1.327 . S
C459 C465 1.429 . S
C460 C452 1.574 . S
C460 H455 0.949 . S
C460 C466 1.368 . S
C461 C445 1.349 . S
C461 H453 0.950 . S
C461 C459 1.327 . S
C462 C450 1.349 1_554 S
C462 H456 0.950 . S
C462 C463 1.327 . S
C463 H457 0.950 . S
C463 C462 1.327 . S
C463 C467 1.429 . S
C464 C447 1.574 . S
C464 H458 0.949 . S
C464 C468 1.368 . S
C465 C446 1.429 . S
C465 C459 1.429 . S
C465 C466 1.523 . S
C466 C447 1.368 . S
C466 C460 1.368 . S
C466 C465 1.523 . S
C467 C451 1.429 . S
C467 C463 1.429 . S
C467 C468 1.523 . S
C468 C452 1.368 . S
C468 C464 1.368 . S
C468 C467 1.523 . S
H469 C444 0.950 . S
H470 C446 0.950 . S
H471 C447 0.949 . S
H472 C449 0.950 . S
H473 C451 0.950 . S
C474 C475 1.345 1_455 S
C474 C476 1.326 . S
C474 H499 0.955 . S
C475 C474 1.345 1_655 S
C475 C491 1.349 . S
C476 C474 1.326 . S
C476 C495 1.429 1_455 S
C476 H500 0.950 . S
C477 C494 1.574 . S
C477 C496 1.368 . S
C477 H501 0.949 . S
H478 C482 0.949 . S
C479 C480 1.349 1_655 S
C479 C481 1.327 . S
C479 H502 0.950 . S
C480 C479 1.349 1_455 S
C480 C492 1.349 . S
C481 C479 1.327 . S
C481 C497 1.417 1_655 S
C481 H503 0.950 . S
C482 H478 0.949 . S
C482 C490 1.574 1_556 S
C482 C498 1.351 1_456 S
H483 C491 0.950 . S
H484 C489 0.950 . S
H485 C490 0.949 . S
H486 C492 0.950 . S
H487 C493 0.950 . S
H488 C494 0.949 . S
C489 H484 0.950 . S
C489 C491 1.327 . S
C489 C495 1.429 . S
C490 C482 1.574 1_554 S
C490 H485 0.949 . S
C490 C496 1.368 1_455 S
C491 C475 1.349 . S
C491 H483 0.950 . S
C491 C489 1.327 . S
C492 C480 1.349 . S
C492 H486 0.950 . S
C492 C493 1.327 . S
C493 H487 0.950 . S
C493 C492 1.327 . S
C493 C497 1.438 . S
C494 C477 1.574 . S
C494 H488 0.949 . S
C494 C498 1.383 . S
C495 C476 1.429 1_655 S
C495 C489 1.429 . S
C495 C496 1.523 . S
C496 C477 1.368 . S
C496 C490 1.368 1_655 S
C496 C495 1.523 . S
C497 C481 1.417 1_455 S
C497 C493 1.438 . S
C497 C498 1.533 1_456 S
C498 C482 1.351 1_654 S
C498 C494 1.383 . S
C498 C497 1.533 1_654 S
H499 C474 0.955 . S
H500 C476 0.950 . S
H501 C477 0.949 . S
H502 C479 0.950 . S
H503 C481 0.950 . S
C504 C505 1.349 . S
C504 C506 1.327 . S
C504 H529 0.950 1_455 S
C505 C504 1.349 . S
C505 C521 1.349 . S
C506 C504 1.327 . S
C506 C525 1.429 . S
C506 H530 0.950 1_455 S
C507 C524 1.574 . S
C507 C526 1.368 . S
C507 H531 0.949 . S
H508 C512 0.949 . S
C509 C510 1.349 1_455 S
C509 C511 1.327 . S
C509 H532 0.950 . S
C510 C509 1.349 1_655 S
C510 C522 1.349 . S
C511 C509 1.327 . S
C511 C527 1.429 . S
C511 H533 0.950 . S
C512 H508 0.949 . S
C512 C520 1.574 . S
C512 C528 1.368 1_655 S
H513 C521 0.950 . S
H514 C519 0.950 . S
H515 C520 0.949 . S
H516 C522 0.950 . S
H517 C523 0.950 . S
H518 C524 0.949 . S
C519 H514 0.950 . S
C519 C521 1.327 . S
C519 C525 1.429 . S
C520 C512 1.574 . S
C520 H515 0.949 . S
C520 C526 1.368 1_655 S
C521 C505 1.349 . S
C521 H513 0.950 . S
C521 C519 1.327 . S
C522 C510 1.349 . S
C522 H516 0.950 . S
C522 C523 1.327 . S
C523 H517 0.950 . S
C523 C522 1.327 . S
C523 C527 1.429 1_655 S
C524 C507 1.574 . S
C524 H518 0.949 . S
C524 C528 1.368 . S
C525 C506 1.429 . S
C525 C519 1.429 . S
C525 C526 1.523 . S
C526 C507 1.368 . S
C526 C520 1.368 1_455 S
C526 C525 1.523 . S
C527 C511 1.429 . S
C527 C523 1.429 1_455 S
C527 C528 1.523 . S
C528 C512 1.368 1_455 S
C528 C524 1.368 . S
C528 C527 1.523 . S
H529 C504 0.950 1_655 S
H530 C506 0.950 1_655 S
H531 C507 0.949 . S
H532 C509 0.950 . S
H533 C511 0.950 . S
C534 C535 1.349 1_565 S
C534 C536 1.327 . S
C534 H559 0.950 . S
C535 C534 1.349 1_545 S
C535 C551 1.349 . S
C536 C534 1.327 . S
C536 C555 1.429 1_565 S
C536 H560 0.950 . S
C537 C554 1.574 . S
C537 C556 1.368 1_545 S
C537 H561 0.949 . S
H538 C542 0.949 . S
C539 C540 1.367 . S
C539 C541 1.325 1_565 S
C539 H562 0.935 1_565 S
C540 C539 1.367 . S
C540 C552 1.349 . S
C541 C539 1.325 1_545 S
C541 C557 1.429 1_545 S
C541 H563 0.950 . S
C542 H538 0.949 . S
C542 C550 1.574 . S
C542 C558 1.368 . S
H543 C551 0.950 . S
H544 C549 0.950 . S
H545 C550 0.949 . S
H546 C552 0.950 . S
H547 C553 0.950 . S
H548 C554 0.949 . S
C549 H544 0.950 . S
C549 C551 1.327 . S
C549 C555 1.429 . S
C550 C542 1.574 . S
C550 H545 0.949 . S
C550 C556 1.368 . S
C551 C535 1.349 . S
C551 H543 0.950 . S
C551 C549 1.327 . S
C552 C540 1.349 . S
C552 H546 0.950 . S
C552 C553 1.327 . S
C553 H547 0.950 . S
C553 C552 1.327 . S
C553 C557 1.429 . S
C554 C537 1.574 . S
C554 H548 0.949 . S
C554 C558 1.368 1_545 S
C555 C536 1.429 1_545 S
C555 C549 1.429 . S
C555 C556 1.523 1_545 S
C556 C537 1.368 1_565 S
C556 C550 1.368 . S
C556 C555 1.523 1_565 S
C557 C541 1.429 1_565 S
C557 C553 1.429 . S
C557 C558 1.523 . S
C558 C542 1.368 . S
C558 C554 1.368 1_565 S
C558 C557 1.523 . S
H559 C534 0.950 . S
H560 C536 0.950 . S
H561 C537 0.949 . S
H562 C539 0.935 1_545 S
H563 C541 0.950 . S
C564 C565 1.349 . S
C564 C566 1.327 . S
C564 H589 0.950 . S
C565 C564 1.349 . S
C565 C581 1.349 . S
C566 C564 1.327 . S
C566 C585 1.429 . S
C566 H590 0.950 . S
C567 C584 1.574 . S
C567 C586 1.368 . S
C567 H591 0.949 . S
H568 C572 0.949 . S
C569 C570 1.349 . S
C569 C571 1.327 . S
C569 H592 0.950 . S
C570 C569 1.349 . S
C570 C582 1.349 . S
C571 C569 1.327 . S
C571 C587 1.429 . S
C571 H593 0.950 . S
C572 H568 0.949 . S
C572 C580 1.574 . S
C572 C588 1.368 . S
H573 C581 0.950 . S
H574 C579 0.950 . S
H575 C580 0.949 . S
H576 C582 0.950 . S
H577 C583 0.950 . S
H578 C584 0.949 . S
C579 H574 0.950 . S
C579 C581 1.327 . S
C579 C585 1.429 . S
C580 C572 1.574 . S
C580 H575 0.949 . S
C580 C586 1.368 . S
C581 C565 1.349 . S
C581 H573 0.950 . S
C581 C579 1.327 . S
C582 C570 1.349 . S
C582 H576 0.950 . S
C582 C583 1.327 . S
C583 H577 0.950 . S
C583 C582 1.327 . S
C583 C587 1.429 . S
C584 C567 1.574 . S
C584 H578 0.949 . S
C584 C588 1.368 . S
C585 C566 1.429 . S
C585 C579 1.429 . S
C585 C586 1.523 . S
C586 C567 1.368 . S
C586 C580 1.368 . S
C586 C585 1.523 . S
C587 C571 1.429 . S
C587 C583 1.429 . S
C587 C588 1.523 . S
C588 C572 1.368 . S
C588 C584 1.368 . S
C588 C587 1.523 . S
H589 C564 0.950 . S
H590 C566 0.950 . S
H591 C567 0.949 . S
H592 C569 0.950 . S
H593 C571 0.950 . S
C594 C595 1.349 . S
C594 C596 1.327 . S
C594 H619 0.950 . S
C595 C594 1.349 . S
C595 C611 1.349 . S
C596 C594 1.327 . S
C596 C615 1.429 . S
C596 H620 0.950 . S
C597 C614 1.574 . S
C597 C616 1.368 . S
C597 H621 0.949 . S
H598 C602 0.949 . S
C599 C600 1.349 . S
C599 C601 1.327 . S
C599 H622 0.950 . S
C600 C599 1.349 . S
C600 C612 1.349 . S
C601 C599 1.327 . S
C601 C617 1.429 . S
C601 H623 0.950 . S
C602 H598 0.949 . S
C602 C610 1.574 . S
C602 C618 1.368 . S
H603 C611 0.950 . S
H604 C609 0.950 . S
H605 C610 0.949 . S
H606 C612 0.950 . S
H607 C613 0.950 . S
H608 C614 0.949 . S
C609 H604 0.950 . S
C609 C611 1.327 . S
C609 C615 1.429 . S
C610 C602 1.574 . S
C610 H605 0.949 . S
C610 C616 1.368 . S
C611 C595 1.349 . S
C611 H603 0.950 . S
C611 C609 1.327 . S
C612 C600 1.349 . S
C612 H606 0.950 . S
C612 C613 1.327 . S
C613 H607 0.950 . S
C613 C612 1.327 . S
C613 C617 1.429 . S
C614 C597 1.574 . S
C614 H608 0.949 . S
C614 C618 1.368 . S
C615 C596 1.429 . S
C615 C609 1.429 . S
C615 C616 1.523 . S
C616 C597 1.368 . S
C616 C610 1.368 . S
C616 C615 1.523 . S
C617 C601 1.429 . S
C617 C613 1.429 . S
C617 C618 1.523 . S
C618 C602 1.368 . S
C618 C614 1.368 . S
C618 C617 1.523 . S
H619 C594 0.950 . S
H620 C596 0.950 . S
H621 C597 0.949 . S
H622 C599 0.950 . S
H623 C601 0.950 . S
C624 C625 1.349 1_455 S
C624 C626 1.327 . S
C624 H649 0.950 . S
C625 C624 1.349 1_655 S
C625 C641 1.349 . S
C626 C624 1.327 . S
C626 C645 1.429 1_455 S
C626 H650 0.950 . S
C627 C644 1.574 . S
C627 C646 1.368 1_655 S
C627 H651 0.949 . S
H628 C632 0.949 . S
C629 C630 1.349 1_554 S
C629 C631 1.327 1_455 S
C629 H652 0.950 1_455 S
C630 C629 1.349 1_556 S
C630 C642 1.349 . S
C631 C629 1.327 1_655 S
C631 C647 1.429 1_655 S
C631 H653 0.950 . S
C632 H628 0.949 . S
C632 C640 1.574 . S
C632 C648 1.368 . S
H633 C641 0.950 . S
H634 C639 0.950 . S
H635 C640 0.949 . S
H636 C642 0.950 . S
H637 C643 0.950 . S
H638 C644 0.949 . S
C639 H634 0.950 . S
C639 C641 1.327 . S
C639 C645 1.429 . S
C640 C632 1.574 . S
C640 H635 0.949 . S
C640 C646 1.368 . S
C641 C625 1.349 . S
C641 H633 0.950 . S
C641 C639 1.327 . S
C642 C630 1.349 . S
C642 H636 0.950 . S
C642 C643 1.327 1_556 S
C643 H637 0.950 . S
C643 C642 1.327 1_554 S
C643 C647 1.429 . S
C644 C627 1.574 . S
C644 H638 0.949 . S
C644 C648 1.368 1_655 S
C645 C626 1.429 1_655 S
C645 C639 1.429 . S
C645 C646 1.523 1_655 S
C646 C627 1.368 1_455 S
C646 C640 1.368 . S
C646 C645 1.523 1_455 S
C647 C631 1.429 1_455 S
C647 C643 1.429 . S
C647 C648 1.523 . S
C648 C632 1.368 . S
C648 C644 1.368 1_455 S
C648 C647 1.523 . S
H649 C624 0.950 . S
H650 C626 0.950 . S
H651 C627 0.949 . S
H652 C629 0.950 1_655 S
H653 C631 0.950 . S
C654 C655 1.349 . S
C654 C656 1.327 . S
C654 H679 0.950 . S
C655 C654 1.349 . S
C655 C671 1.349 1_565 S
C656 C654 1.327 . S
C656 C675 1.429 1_565 S
C656 H680 0.950 . S
C657 C674 1.574 . S
C657 C676 1.368 . S
C657 H681 0.949 . S
H658 C662 0.949 . S
C659 C660 1.349 . S
C659 C661 1.327 . S
C659 H682 0.950 . S
C660 C659 1.349 . S
C660 C672 1.349 . S
C661 C659 1.327 . S
C661 C677 1.429 1_556 S
C661 H683 0.950 . S
C662 H658 0.949 . S
C662 C670 1.574 . S
C662 C678 1.368 1_565 S
H663 C671 0.950 . S
H664 C669 0.950 . S
H665 C670 0.949 . S
H666 C672 0.950 1_564 S
H667 C673 0.950 . S
H668 C674 0.949 . S
C669 H664 0.950 . S
C669 C671 1.327 . S
C669 C675 1.429 . S
C670 C662 1.574 . S
C670 H665 0.949 . S
C670 C676 1.368 1_565 S
C671 C655 1.349 1_545 S
C671 H663 0.950 . S
C671 C669 1.327 . S
C672 C660 1.349 . S
C672 H666 0.950 1_546 S
C672 C673 1.327 1_546 S
C673 H667 0.950 . S
C673 C672 1.327 1_564 S
C673 C677 1.429 1_565 S
C674 C657 1.574 . S
C674 H668 0.949 . S
C674 C678 1.368 . S
C675 C656 1.429 1_545 S
C675 C669 1.429 . S
C675 C676 1.523 . S
C676 C657 1.368 . S
C676 C670 1.368 1_545 S
C676 C675 1.523 . S
C677 C661 1.429 1_554 S
C677 C673 1.429 1_545 S
C677 C678 1.523 . S
C678 C662 1.368 1_545 S
C678 C674 1.368 . S
C678 C677 1.523 . S
H679 C654 0.950 . S
H680 C656 0.950 . S
H681 C657 0.949 . S
H682 C659 0.950 . S
H683 C661 0.950 . S
C684 C685 1.349 1_556 S
C684 C686 1.327 . S
C684 H709 0.950 . S
C685 C684 1.349 1_554 S
C685 C701 1.349 . S
C686 C684 1.327 . S
C686 C705 1.429 . S
C686 H710 0.950 . S
C687 C704 1.574 1_554 S
C687 C706 1.368 1_554 S
C687 H711 0.949 . S
H688 C692 0.949 . S
C689 C690 1.349 . S
C689 C691 1.327 . S
C689 H712 0.950 . S
C690 C689 1.349 . S
C690 C702 1.349 . S
C691 C689 1.327 . S
C691 C707 1.429 . S
C691 H713 0.950 . S
C692 H688 0.949 . S
C692 C700 1.574 . S
C692 C708 1.368 . S
H693 C701 0.950 . S
H694 C699 0.950 . S
H695 C700 0.949 . S
H696 C702 0.950 . S
H697 C703 0.950 . S
H698 C704 0.949 . S
C699 H694 0.950 . S
C699 C701 1.327 . S
C699 C705 1.429 1_554 S
C700 C692 1.574 . S
C700 H695 0.949 . S
C700 C706 1.368 . S
C701 C685 1.349 . S
C701 H693 0.950 . S
C701 C699 1.327 . S
C702 C690 1.349 . S
C702 H696 0.950 . S
C702 C703 1.327 . S
C703 H697 0.950 . S
C703 C702 1.327 . S
C703 C707 1.429 . S
C704 C687 1.574 1_556 S
C704 H698 0.949 . S
C704 C708 1.368 . S
C705 C686 1.429 . S
C705 C699 1.429 1_556 S
C705 C706 1.523 . S
C706 C687 1.368 1_556 S
C706 C700 1.368 . S
C706 C705 1.523 . S
C707 C691 1.429 . S
C707 C703 1.429 . S
C707 C708 1.523 . S
C708 C692 1.368 . S
C708 C704 1.368 . S
C708 C707 1.523 . S
H709 C684 0.950 . S
H710 C686 0.950 . S
H711 C687 0.949 . S
H712 C689 0.950 . S
H713 C691 0.950 . S
C714 C715 1.349 . S
C714 C716 1.327 . S
C714 H739 0.950 . S
C715 C714 1.349 . S
C715 C731 1.349 . S
C716 C714 1.327 . S
C716 C735 1.429 . S
C716 H740 0.950 . S
C717 C734 1.574 . S
C717 C736 1.368 . S
C717 H741 0.949 . S
H718 C722 0.949 . S
C719 C720 1.349 . S
C719 C721 1.327 . S
C719 H742 0.950 . S
C720 C719 1.349 . S
C720 C732 1.349 . S
C721 C719 1.327 . S
C721 C737 1.429 . S
C721 H743 0.950 . S
C722 H718 0.949 . S
C722 C730 1.574 . S
C722 C738 1.368 . S
H723 C731 0.950 . S
H724 C729 0.950 . S
H725 C730 0.949 . S
H726 C732 0.950 1_556 S
H727 C733 0.950 . S
H728 C734 0.949 . S
C729 H724 0.950 . S
C729 C731 1.327 . S
C729 C735 1.429 . S
C730 C722 1.574 . S
C730 H725 0.949 . S
C730 C736 1.368 . S
C731 C715 1.349 . S
C731 H723 0.950 . S
C731 C729 1.327 . S
C732 C720 1.349 . S
C732 H726 0.950 1_554 S
C732 C733 1.327 . S
C733 H727 0.950 . S
C733 C732 1.327 . S
C733 C737 1.429 . S
C734 C717 1.574 . S
C734 H728 0.949 . S
C734 C738 1.368 . S
C735 C716 1.429 . S
C735 C729 1.429 . S
C735 C736 1.523 . S
C736 C717 1.368 . S
C736 C730 1.368 . S
C736 C735 1.523 . S
C737 C721 1.429 . S
C737 C733 1.429 . S
C737 C738 1.523 . S
C738 C722 1.368 . S
C738 C734 1.368 . S
C738 C737 1.523 . S
H739 C714 0.950 . S
H740 C716 0.950 . S
H741 C717 0.949 . S
H742 C719 0.950 . S
H743 C721 0.950 . S
C744 C745 1.349 . S
C744 C746 1.327 . S
C744 H769 0.950 . S
C745 C744 1.349 . S
C745 C761 1.349 1_556 S
C746 C744 1.327 . S
C746 C765 1.429 . S
C746 H770 0.950 . S
C747 C764 1.574 . S
C747 C766 1.368 . S
C747 H771 0.949 1_455 S
H748 C752 0.949 . S
C749 C750 1.349 . S
C749 C751 1.327 . S
C749 H772 0.950 1_455 S
C750 C749 1.349 . S
C750 C762 1.349 . S
C751 C749 1.327 . S
C751 C767 1.429 . S
C751 H773 0.950 1_455 S
C752 H748 0.949 . S
C752 C760 1.574 . S
C752 C768 1.368 . S
H753 C761 0.950 . S
H754 C759 0.935 1_654 S
H755 C760 0.949 . S
H756 C762 0.950 . S
H757 C763 0.950 . S
H758 C764 0.949 1_655 S
C759 H754 0.935 1_456 S
C759 C761 1.327 1_556 S
C759 C765 1.429 . S
C760 C752 1.574 . S
C760 H755 0.949 . S
C760 C766 1.368 . S
C761 C745 1.349 1_554 S
C761 H753 0.950 . S
C761 C759 1.327 1_554 S
C762 C750 1.349 . S
C762 H756 0.950 . S
C762 C763 1.327 . S
C763 H757 0.950 . S
C763 C762 1.327 . S
C763 C767 1.429 . S
C764 C747 1.574 . S
C764 H758 0.949 1_455 S
C764 C768 1.368 . S
C765 C746 1.429 . S
C765 C759 1.429 . S
C765 C766 1.523 . S
C766 C747 1.368 . S
C766 C760 1.368 . S
C766 C765 1.523 . S
C767 C751 1.429 . S
C767 C763 1.429 . S
C767 C768 1.523 . S
C768 C752 1.368 . S
C768 C764 1.368 . S
C768 C767 1.523 . S
H769 C744 0.950 . S
H770 C746 0.950 . S
H771 C747 0.949 1_655 S
H772 C749 0.950 1_655 S
H773 C751 0.950 1_655 S
C774 C775 1.349 1_565 S
C774 C776 1.327 1_554 S
C774 H799 0.950 1_554 S
C775 C774 1.349 1_545 S
C775 C791 1.349 . S
C776 C774 1.327 1_556 S
C776 C795 1.429 1_566 S
C776 H800 0.950 . S
C777 C794 1.574 1_554 S
C777 C796 1.368 1_554 S
C777 H801 0.949 . S
H778 C782 0.949 . S
C779 C780 1.349 . S
C779 C781 1.327 . S
C779 H802 0.950 . S
C780 C779 1.349 . S
C780 C792 1.349 1_545 S
C781 C779 1.327 . S
C781 C797 1.429 . S
C781 H803 0.950 . S
C782 H778 0.949 . S
C782 C790 1.574 . S
C782 C798 1.368 1_565 S
H783 C791 0.950 . S
H784 C789 0.950 . S
H785 C790 0.949 . S
H786 C792 0.950 . S
H787 C793 0.950 . S
H788 C794 0.949 . S
C789 H784 0.950 . S
C789 C791 1.327 . S
C789 C795 1.429 . S
C790 C782 1.574 . S
C790 H785 0.949 . S
C790 C796 1.368 1_565 S
C791 C775 1.349 . S
C791 H783 0.950 . S
C791 C789 1.327 . S
C792 C780 1.349 1_565 S
C792 H786 0.950 . S
C792 C793 1.327 . S
C793 H787 0.950 . S
C793 C792 1.327 . S
C793 C797 1.429 1_565 S
C794 C777 1.574 1_556 S
C794 H788 0.949 . S
C794 C798 1.368 . S
C795 C776 1.429 1_544 S
C795 C789 1.429 . S
C795 C796 1.523 1_554 S
C796 C777 1.368 1_556 S
C796 C790 1.368 1_545 S
C796 C795 1.523 1_556 S
C797 C781 1.429 . S
C797 C793 1.429 1_545 S
C797 C798 1.523 . S
C798 C782 1.368 1_545 S
C798 C794 1.368 . S
C798 C797 1.523 . S
H799 C774 0.950 1_556 S
H800 C776 0.950 . S
H801 C777 0.949 . S
H802 C779 0.950 . S
H803 C781 0.950 . S
C804 C805 1.349 . S
C804 C806 1.327 . S
C804 H829 0.950 . S
C805 C804 1.349 . S
C805 C821 1.349 . S
C806 C804 1.327 . S
C806 C825 1.429 . S
C806 H830 0.950 . S
C807 C824 1.574 . S
C807 C826 1.368 . S
C807 H831 0.949 . S
H808 C812 0.949 . S
C809 C810 1.349 . S
C809 C811 1.327 . S
C809 H832 0.950 . S
C810 C809 1.349 . S
C810 C822 1.349 . S
C811 C809 1.327 . S
C811 C827 1.429 . S
C811 H833 0.950 1_556 S
C812 H808 0.949 . S
C812 C820 1.574 1_556 S
C812 C828 1.368 1_556 S
H813 C821 0.950 . S
H814 C819 0.950 . S
H815 C820 0.949 . S
H816 C822 0.950 . S
H817 C823 0.950 . S
H818 C824 0.949 . S
C819 H814 0.950 . S
C819 C821 1.327 . S
C819 C825 1.429 . S
C820 C812 1.574 1_554 S
C820 H815 0.949 . S
C820 C826 1.368 . S
C821 C805 1.349 . S
C821 H813 0.950 . S
C821 C819 1.327 . S
C822 C810 1.349 . S
C822 H816 0.950 . S
C822 C823 1.327 . S
C823 H817 0.950 . S
C823 C822 1.327 . S
C823 C827 1.429 . S
C824 C807 1.574 . S
C824 H818 0.949 . S
C824 C828 1.368 . S
C825 C806 1.429 . S
C825 C819 1.429 . S
C825 C826 1.523 . S
C826 C807 1.368 . S
C826 C820 1.368 . S
C826 C825 1.523 . S
C827 C811 1.429 . S
C827 C823 1.429 . S
C827 C828 1.523 1_556 S
C828 C812 1.368 1_554 S
C828 C824 1.368 . S
C828 C827 1.523 1_554 S
H829 C804 0.950 . S
H830 C806 0.950 . S
H831 C807 0.949 . S
H832 C809 0.950 . S
H833 C811 0.950 1_554 S
C834 C835 1.349 . S
C834 C836 1.327 . S
C834 H859 0.950 . S
C835 C834 1.349 . S
C835 C851 1.349 . S
C836 C834 1.327 . S
C836 C855 1.429 . S
C836 H860 0.950 . S
C837 C854 1.574 . S
C837 C856 1.368 . S
C837 H861 0.949 . S
H838 C842 0.949 . S
C839 C840 1.349 . S
C839 C841 1.327 . S
C839 H862 0.950 . S
C840 C839 1.349 . S
C840 C852 1.349 . S
C841 C839 1.327 . S
C841 C857 1.429 . S
C841 H863 0.950 . S
C842 H838 0.949 . S
C842 C850 1.574 . S
C842 C858 1.368 . S
H843 C851 0.950 . S
H844 C849 0.950 . S
H845 C850 0.949 . S
H846 C852 0.950 . S
H847 C853 0.950 . S
H848 C854 0.949 . S
C849 H844 0.950 . S
C849 C851 1.327 . S
C849 C855 1.429 . S
C850 C842 1.574 . S
C850 H845 0.949 . S
C850 C856 1.368 . S
C851 C835 1.349 . S
C851 H843 0.950 . S
C851 C849 1.327 . S
C852 C840 1.349 . S
C852 H846 0.950 . S
C852 C853 1.327 . S
C853 H847 0.950 . S
C853 C852 1.327 . S
C853 C857 1.429 . S
C854 C837 1.574 . S
C854 H848 0.949 . S
C854 C858 1.368 . S
C855 C836 1.429 . S
C855 C849 1.429 . S
C855 C856 1.523 . S
C856 C837 1.368 . S
C856 C850 1.368 . S
C856 C855 1.523 . S
C857 C841 1.429 . S
C857 C853 1.429 . S
C857 C858 1.523 . S
C858 C842 1.368 . S
C858 C854 1.368 . S
C858 C857 1.523 . S
H859 C834 0.950 . S
H860 C836 0.950 . S
H861 C837 0.949 . S
H862 C839 0.950 . S
H863 C841 0.950 . S
C864 C865 1.349 . S
C864 C866 1.327 . S
C864 H889 0.949 1_655 S
C865 C864 1.349 . S
C865 C881 1.349 . S
C866 C864 1.327 . S
C866 C885 1.429 . S
C866 H890 0.950 1_655 S
C867 C884 1.574 . S
C867 C886 1.368 . S
C867 H891 0.949 . S
H868 C872 0.959 . S
C869 C870 1.349 . S
C869 C871 1.327 . S
C869 H892 0.950 . S
C870 C869 1.349 . S
C870 C882 1.349 1_655 S
C871 C869 1.327 . S
C871 C887 1.429 . S
C871 H893 0.950 . S
C872 H868 0.959 . S
C872 C880 1.569 1_455 S
C872 C888 1.366 1_455 S
H873 C881 0.950 . S
H874 C879 0.950 . S
H875 C880 0.949 1_455 S
H876 C882 0.950 . S
H877 C883 0.950 . S
H878 C884 0.949 . S
C879 H874 0.950 . S
C879 C881 1.327 . S
C879 C885 1.429 . S
C880 C872 1.569 1_655 S
C880 H875 0.949 1_655 S
C880 C886 1.367 . S
C881 C865 1.349 . S
C881 H873 0.950 . S
C881 C879 1.327 . S
C882 C870 1.349 1_455 S
C882 H876 0.950 . S
C882 C883 1.327 . S
C883 H877 0.950 . S
C883 C882 1.327 . S
C883 C887 1.429 1_455 S
C884 C867 1.574 . S
C884 H878 0.949 . S
C884 C888 1.368 . S
C885 C866 1.429 . S
C885 C879 1.429 . S
C885 C886 1.523 . S
C886 C867 1.368 . S
C886 C880 1.367 . S
C886 C885 1.523 . S
C887 C871 1.429 . S
C887 C883 1.429 1_655 S
C887 C888 1.523 . S
C888 C872 1.366 1_655 S
C888 C884 1.368 . S
C888 C887 1.523 . S
H889 C864 0.949 1_455 S
H890 C866 0.950 1_455 S
H891 C867 0.949 . S
H892 C869 0.950 . S
H893 C871 0.950 . S
C894 C895 1.349 1_545 S
C894 C896 1.327 . S
C894 H919 0.950 . S
C895 C894 1.349 1_565 S
C895 C911 1.349 . S
C896 C894 1.327 . S
C896 C915 1.429 1_545 S
C896 H920 0.950 . S
C897 C914 1.574 . S
C897 C916 1.368 . S
C897 H921 0.949 . S
H898 C902 0.949 . S
C899 C900 1.349 . S
C899 C901 1.327 . S
C899 H922 0.950 . S
C900 C899 1.349 . S
C900 C912 1.349 1_565 S
C901 C899 1.327 . S
C901 C917 1.429 . S
C901 H923 0.950 . S
C902 H898 0.949 . S
C902 C910 1.574 . S
C902 C918 1.368 1_545 S
H903 C911 0.950 . S
H904 C909 0.950 . S
H905 C910 0.949 . S
H906 C912 0.950 . S
H907 C913 0.950 . S
H908 C914 0.949 . S
C909 H904 0.950 . S
C909 C911 1.327 . S
C909 C915 1.429 . S
C910 C902 1.574 . S
C910 H905 0.949 . S
C910 C916 1.368 1_545 S
C911 C895 1.349 . S
C911 H903 0.950 . S
C911 C909 1.327 . S
C912 C900 1.349 1_545 S
C912 H906 0.950 . S
C912 C913 1.327 . S
C913 H907 0.950 . S
C913 C912 1.327 . S
C913 C917 1.429 1_545 S
C914 C897 1.574 . S
C914 H908 0.949 . S
C914 C918 1.368 . S
C915 C896 1.429 1_565 S
C915 C909 1.429 . S
C915 C916 1.523 . S
C916 C897 1.368 . S
C916 C910 1.368 1_565 S
C916 C915 1.523 . S
C917 C901 1.429 . S
C917 C913 1.429 1_565 S
C917 C918 1.523 . S
C918 C902 1.368 1_565 S
C918 C914 1.368 . S
C918 C917 1.523 . S
H919 C894 0.950 . S
H920 C896 0.950 . S
H921 C897 0.949 . S
H922 C899 0.950 . S
H923 C901 0.950 . S
C924 C925 1.349 . S
C924 C926 1.327 . S
C924 H949 0.950 . S
C925 C924 1.349 . S
C925 C941 1.349 . S
C926 C924 1.327 . S
C926 C945 1.429 . S
C926 H950 0.950 . S
C927 C944 1.574 . S
C927 C946 1.368 . S
C927 H951 0.949 . S
H928 C932 0.949 . S
C929 C930 1.349 . S
C929 C931 1.327 . S
C929 H952 0.950 . S
C930 C929 1.349 . S
C930 C942 1.349 . S
C931 C929 1.327 . S
C931 C947 1.429 . S
C931 H953 0.950 . S
C932 H928 0.949 . S
C932 C940 1.574 . S
C932 C948 1.368 . S
H933 C941 0.950 . S
H934 C939 0.950 . S
H935 C940 0.949 . S
H936 C942 0.950 . S
H937 C943 0.950 . S
H938 C944 0.949 . S
C939 H934 0.950 . S
C939 C941 1.327 . S
C939 C945 1.429 . S
C940 C932 1.574 . S
C940 H935 0.949 . S
C940 C946 1.368 . S
C941 C925 1.349 . S
C941 H933 0.950 . S
C941 C939 1.327 . S
C942 C930 1.349 . S
C942 H936 0.950 . S
C942 C943 1.327 . S
C943 H937 0.950 . S
C943 C942 1.327 . S
C943 C947 1.429 . S
C944 C927 1.574 . S
C944 H938 0.949 . S
C944 C948 1.368 . S
C945 C926 1.429 . S
C945 C939 1.429 . S
C945 C946 1.523 . S
C946 C927 1.368 . S
C946 C940 1.368 . S
C946 C945 1.523 . S
C947 C931 1.429 . S
C947 C943 1.429 . S
C947 C948 1.523 . S
C948 C932 1.368 . S
C948 C944 1.368 . S
C948 C947 1.523 . S
H949 C924 0.950 . S
H950 C926 0.950 . S
H951 C927 0.949 . S
H952 C929 0.950 . S
H953 C931 0.950 . S
C954 C955 1.349 . S
C954 C956 1.327 . S
C954 H979 0.950 . S
C955 C954 1.349 . S
C955 C971 1.349 . S
C956 C954 1.327 . S
C956 C975 1.429 . S
C956 H980 0.950 . S
C957 C974 1.574 . S
C957 C976 1.368 . S
C957 H981 0.949 . S
H958 C962 0.949 . S
C959 C960 1.349 . S
C959 C961 1.327 . S
C959 H982 0.950 . S
C960 C959 1.349 . S
C960 C972 1.349 . S
C961 C959 1.327 . S
C961 C977 1.429 . S
C961 H983 0.950 . S
C962 H958 0.949 . S
C962 C970 1.574 . S
C962 C978 1.368 . S
H963 C971 0.950 . S
H964 C969 0.950 . S
H965 C970 0.949 . S
H966 C972 0.950 . S
H967 C973 0.950 . S
H968 C974 0.949 . S
C969 H964 0.950 . S
C969 C971 1.327 . S
C969 C975 1.429 . S
C970 C962 1.574 . S
C970 H965 0.949 . S
C970 C976 1.368 . S
C971 C955 1.349 . S
C971 H963 0.950 . S
C971 C969 1.327 . S
C972 C960 1.349 . S
C972 H966 0.950 . S
C972 C973 1.327 . S
C973 H967 0.950 . S
C973 C972 1.327 . S
C973 C977 1.429 . S
C974 C957 1.574 . S
C974 H968 0.949 . S
C974 C978 1.368 . S
C975 C956 1.429 . S
C975 C969 1.429 . S
C975 C976 1.523 . S
C976 C957 1.368 . S
C976 C970 1.368 . S
C976 C975 1.523 . S
C977 C961 1.429 . S
C977 C973 1.429 . S
C977 C978 1.523 . S
C978 C962 1.368 . S
C978 C974 1.368 . S
C978 C977 1.523 . S
H979 C954 0.950 . S
H980 C956 0.950 . S
H981 C957 0.949 . S
H982 C959 0.950 . S
H983 C961 0.950 . S
C265 C82 1.755 . S
C270 C106 1.899 1_545 S
C300 C146 2.060 . S
C295 C95 1.969 . S
C330 C210 1.833 . S
C325 C56 1.627 . S
C360 C226 1.455 . S
C355 C69 1.253 . S
C390 C127 1.909 . S
C385 C30 1.750 1_565 S
C415 C43 1.925 . S
C420 C167 2.060 . S
C445 C4 1.592 . S
C450 C201 1.834 . S
C475 C17 1.238 . S
C480 C247 1.455 . S
C510 C121 0.298 . S
C505 C74 0.306 . S
C540 C161 0.584 . S
C535 C87 0.596 . S
C570 C197 0.445 . S
C565 C100 0.455 . S
C595 C61 0.409 . S
C600 C241 0.460 . S
C625 C22 0.312 . S
C630 C130 0.298 . S
C660 C170 0.584 . S
C655 C35 0.596 . S
C690 C208 0.445 . S
C685 C48 0.460 . S
C715 C9 0.416 . S
C720 C250 0.460 . S
C745 C73 1.798 1_556 S
C750 C128 1.951 . S
C775 C86 1.774 . S
C780 C168 1.896 . S
C810 C186 1.489 . S
C805 C99 1.481 . S
C840 C248 2.298 . S
C835 C60 2.111 . S
C865 C21 1.797 . S
C870 C117 1.951 1_655 S
C900 C157 1.895 . S
C895 C34 1.774 . S
C930 C207 1.489 . S
C925 C47 1.478 . S
C955 C8 2.107 . S
C960 C237 2.298 . S
