# Generated by pormake.
# Topology sit, (3,6)-cn, num edge types: 1
# Building blocks:
#     Node 0, Type 0, BuildingBlock: PAMTOO_clean_linker_0, # of connection points: 3
#     Node 1, Type 0, BuildingBlock: PAMTOO_clean_linker_0, # of connection points: 3
#     Node 2, Type 0, BuildingBlock: PAMTOO_clean_linker_0, # of connection points: 3
#     Node 3, Type 0, BuildingBlock: PAMTOO_clean_linker_0, # of connection points: 3
#     Node 4, Type 1, BuildingBlock: MIDCAF_clean_sbu_0, # of connection points: 6
#     Node 5, Type 1, BuildingBlock: MIDCAF_clean_sbu_0, # of connection points: 6
#     Edge 6, Type (0, 1), BuildingBlock: EZIPEK_clean_linker_0, # of connection points: 2
#     Edge 7, Type (0, 1), BuildingBlock: EZIPEK_clean_linker_0, # of connection points: 2
#     Edge 8, Type (0, 1), BuildingBlock: EZIPEK_clean_linker_0, # of connection points: 2
#     Edge 9, Type (0, 1), BuildingBlock: EZIPEK_clean_linker_0, # of connection points: 2
#     Edge 10, Type (0, 1), BuildingBlock: EZIPEK_clean_linker_0, # of connection points: 2
#     Edge 11, Type (0, 1), BuildingBlock: EZIPEK_clean_linker_0, # of connection points: 2
#     Edge 12, Type (0, 1), BuildingBlock: EZIPEK_clean_linker_0, # of connection points: 2
#     Edge 13, Type (0, 1), BuildingBlock: EZIPEK_clean_linker_0, # of connection points: 2
#     Edge 14, Type (0, 1), BuildingBlock: EZIPEK_clean_linker_0, # of connection points: 2
#     Edge 15, Type (0, 1), BuildingBlock: EZIPEK_clean_linker_0, # of connection points: 2
#     Edge 16, Type (0, 1), BuildingBlock: EZIPEK_clean_linker_0, # of connection points: 2
#     Edge 17, Type (0, 1), BuildingBlock: EZIPEK_clean_linker_0, # of connection points: 2
# Relax obj value: 0.077
# Max RMSD: 0.180
# Mean RMSD: 0.113
data_MOF--net-sit--node1-MIDCAF_clean_sbu_0--node2-PAMTOO_clean_linker_0--edge1-EZIPEK_clean_linker_0
_symmetry_space_group_name_H-M    P1
_symmetry_Int_Tables_number       1
_symmetry_cell_setting            triclinic
loop_
_symmetry_equiv_pos_as_xyz
'x, y, z'
_cell_length_a     17.023745
_cell_length_b     20.668758
_cell_length_c     28.261879
_cell_angle_alpha  90.482987
_cell_angle_beta   89.130947
_cell_angle_gamma 87.170886
loop_
_atom_site_label
_atom_site_type_symbol
_atom_site_fract_x
_atom_site_fract_y
_atom_site_fract_z
_atom_type_partial_charge
H0 H -0.01893 0.53847 0.94888 0.0
H1 H 0.12439 0.40393 0.02948 0.0
H2 H 0.87261 0.39972 0.03824 0.0
H3 H -0.03408 0.39917 0.13003 0.0
C4 C 0.01232 0.36247 0.11816 0.0
O5 O 0.00567 0.34943 0.07051 0.0
H6 H 0.06902 0.38525 0.12484 0.0
C7 C -0.01406 0.50031 0.97479 0.0
C8 C 0.91803 0.47236 -0.00782 0.0
C9 C 0.06073 0.47551 -0.01253 0.0
C10 C 0.06701 0.42391 0.0195 0.0
C11 C -0.00077 0.39793 0.03883 0.0
C12 C 0.9248 0.42183 0.02487 0.0
H13 H -0.02466 0.74671 0.91657 0.0
H14 H 0.85571 0.83831 0.03719 0.0
H15 H 0.10409 0.854 0.01724 0.0
H16 H 0.90171 0.96901 0.05341 0.0
C17 C -0.03473 0.96163 0.0608 0.0
O18 O -0.02001 0.89574 0.06669 0.0
H19 H -0.00165 0.97951 0.02968 0.0
C20 C -0.02404 0.77507 0.94899 0.0
C21 C 0.04794 0.79542 0.96554 0.0
C22 C 0.90552 0.78972 0.97449 0.0
C23 C 0.90868 0.82694 0.01641 0.0
C24 C -0.02077 0.85338 0.03002 0.0
C25 C 0.04895 0.83625 0.0053 0.0
H26 H 0.54123 0.98498 0.43472 0.0
H27 H 0.65658 0.84303 0.52387 0.0
H28 H 0.40445 0.85646 0.51788 0.0
H29 H 0.56957 0.71721 0.52292 0.0
C30 C 0.52214 0.73376 0.54833 0.0
O31 O 0.52587 0.79902 0.55849 0.0
H32 H 0.4651 0.72674 0.53104 0.0
C33 C 0.53794 0.94658 0.46049 0.0
C34 C 0.46454 0.92434 0.47407 0.0
C35 C 0.60728 0.91653 0.47762 0.0
C36 C 0.60314 0.86622 0.51038 0.0
C37 C 0.52996 0.84513 0.52518 0.0
C38 C 0.46085 0.87383 0.50685 0.0
H39 H 0.50389 0.15879 0.46161 0.0
H40 H 0.381 0.30676 0.54584 0.0
H41 H 0.63344 0.29356 0.54302 0.0
H42 H 0.47017 0.43179 0.54255 0.0
C43 C 0.51386 0.41732 0.56984 0.0
O44 O 0.50855 0.3529 0.58156 0.0
H45 H 0.57321 0.42266 0.55416 0.0
C46 C 0.50505 0.19892 0.48654 0.0
C47 C 0.57734 0.2224 0.50014 0.0
C48 C 0.4343 0.23041 0.50183 0.0
C49 C 0.43561 0.28266 0.53371 0.0
C50 C 0.50742 0.30457 0.54917 0.0
C51 C 0.57809 0.27506 0.53195 0.0
Zn52 Zn 0.00304 0.22004 0.37363 0.0
Zn53 Zn 0.03991 0.95835 0.33924 0.0
Zn54 Zn 0.02131 1.08977 0.3559 0.0
C55 C 0.02419 1.02223 0.25217 0.0
C56 C 0.90203 0.98343 0.39293 0.0
O57 O 0.12314 0.12073 0.39545 0.0
O58 O 0.1023 0.22638 0.4082 0.0
C59 C 0.00612 0.19946 0.27499 0.0
O60 O 0.0198 1.07293 0.27906 0.0
O61 O 0.03414 0.9663 0.26938 0.0
O62 O -0.05637 0.93686 0.37513 0.0
O63 O 0.92242 1.04226 0.38871 0.0
O64 O -0.00087 0.24418 0.3057 0.0
O65 O 0.01441 0.13971 0.28734 0.0
O66 O 0.9129 0.10879 0.39766 0.0
O67 O 0.904 0.215 0.41036 0.0
C68 C 0.87721 0.15968 0.41573 0.0
O69 O 0.13316 1.05416 0.38627 0.0
O70 O 0.14372 0.9489 0.36962 0.0
C71 C 0.14402 0.17479 0.41303 0.0
C72 C 0.17086 0.99872 0.38816 0.0
Zn73 Zn 0.48644 0.74661 0.82958 0.0
Zn74 Zn 0.48785 0.48591 0.8575 0.0
Zn75 Zn 0.48994 0.61751 0.8477 0.0
C76 C 0.49472 0.51075 0.76137 0.0
C77 C 0.35118 0.54181 0.90019 0.0
O78 O 0.59135 0.65664 0.8843 0.0
O79 O 0.58219 0.7609 0.8663 0.0
C80 C 0.50241 0.68449 0.7433 0.0
O81 O 0.49638 0.56893 0.77794 0.0
O82 O 0.48921 0.46325 0.78879 0.0
O83 O 0.38693 0.48763 0.89298 0.0
O84 O 0.37998 0.59455 0.88527 0.0
O85 O 0.49759 0.74136 0.75995 0.0
O86 O 0.50019 0.63517 0.77079 0.0
O87 O 0.3791 0.66157 0.87673 0.0
O88 O 0.38112 0.76585 0.85892 0.0
C89 C 0.34684 0.71931 0.87745 0.0
O90 O 0.59307 0.5881 0.88986 0.0
O91 O 0.58715 0.48117 0.8931 0.0
C92 C 0.61716 0.71416 0.88709 0.0
C93 C 0.62111 0.53231 0.90333 0.0
C94 C -0.06681 0.28398 0.16593 0.0
C95 C 0.00683 0.30111 0.14703 0.0
C96 C 0.07519 0.22342 0.19903 0.0
C97 C 0.00364 0.21791 0.22463 0.0
N98 N 0.86286 0.23236 0.22977 0.0
N99 N 0.14189 0.26773 0.13062 0.0
C100 C -0.0683 0.24374 0.20647 0.0
C101 C 0.07613 0.26404 0.15859 0.0
N102 N 0.86551 0.30587 0.1447 0.0
N103 N 0.14261 0.19334 0.2154 0.0
H104 H 0.14242 0.29548 0.09996 0.0
H105 H 0.19337 0.23934 0.13503 0.0
H106 H 0.14257 0.16147 0.24383 0.0
H107 H 0.19857 0.20067 0.20184 0.0
H108 H 0.80963 0.29239 0.15468 0.0
H109 H 0.86596 0.33327 0.11389 0.0
H110 H 0.80875 0.25502 0.22198 0.0
H111 H 0.8605 0.20049 0.25818 0.0
C112 C -0.0675 1.03681 0.13121 0.0
C113 C -0.01097 0.99771 0.10519 0.0
C114 C 0.08035 1.00532 0.17109 0.0
C115 C 0.01641 1.02767 0.20042 0.0
N116 N 0.88097 1.06713 0.20893 0.0
N117 N 0.12388 0.95769 0.09584 0.0
C118 C -0.05735 1.04557 0.18054 0.0
C119 C 0.06583 0.98692 0.12354 0.0
N120 N 0.87098 1.06728 0.10861 0.0
N121 N 0.15459 1.00231 0.18898 0.0
H122 H 0.11739 0.95018 0.05965 0.0
H123 H 0.17796 0.94043 0.1085 0.0
H124 H 0.16607 1.01684 0.22357 0.0
H125 H 0.2052 0.99099 0.1689 0.0
H126 H 0.83138 1.1003 0.12544 0.0
H127 H 0.86617 1.06659 0.07186 0.0
H128 H 0.82361 1.07353 0.19687 0.0
H129 H 0.88601 1.07474 0.24523 0.0
C130 C 0.59561 0.7074 0.62389 0.0
C131 C 0.53032 0.69693 0.59451 0.0
C132 C 0.45568 0.65756 0.662 0.0
C133 C 0.51676 0.67575 0.69204 0.0
N134 N 0.65368 0.69524 0.70157 0.0
N135 N 0.419 0.63172 0.58175 0.0
C136 C 0.59 0.69296 0.67282 0.0
C137 C 0.46675 0.66207 0.61228 0.0
N138 N 0.66108 0.73399 0.60535 0.0
N139 N 0.38607 0.63902 0.68087 0.0
H140 H 0.4304 0.62984 0.54537 0.0
H141 H 0.37533 0.60144 0.59285 0.0
H142 H 0.37685 0.63371 0.71718 0.0
H143 H 0.33645 0.63207 0.66068 0.0
H144 H 0.70625 0.75099 0.62572 0.0
H145 H 0.66945 0.74048 0.56913 0.0
H146 H 0.71057 0.70222 0.68935 0.0
H147 H 0.65063 0.68408 0.7375 0.0
C148 C 0.42946 0.45148 0.64187 0.0
C149 C 0.49919 0.45846 0.61441 0.0
C150 C 0.56083 0.51084 0.68128 0.0
C151 C 0.49378 0.49938 0.70971 0.0
N152 N 0.3559 0.4787 0.71424 0.0
N153 N 0.61154 0.52322 0.6016 0.0
C154 C 0.42526 0.47592 0.68906 0.0
C155 C 0.55902 0.4971 0.63204 0.0
N156 N 0.3682 0.42005 0.6232 0.0
N157 N 0.62726 0.53244 0.7014 0.0
H158 H 0.60655 0.51962 0.56495 0.0
H159 H 0.65251 0.55597 0.6123 0.0
H160 H 0.63077 0.5436 0.73734 0.0
H161 H 0.68047 0.53501 0.68297 0.0
H162 H 0.32067 0.40502 0.64316 0.0
H163 H 0.36578 0.40751 0.5875 0.0
H164 H 0.30201 0.46828 0.69986 0.0
H165 H 0.3509 0.49731 0.74866 0.0
C166 C 0.14262 0.49858 0.91495 0.0
C167 C 0.13237 0.50136 0.96501 0.0
C168 C 0.26468 0.54178 0.9726 0.0
C169 C 0.27252 0.54183 0.92265 0.0
N170 N 0.21226 0.53782 0.84638 0.0
N171 N 0.1758 0.54083 0.04042 0.0
C172 C 0.20872 0.5267 0.89393 0.0
C173 C 0.19102 0.52788 -0.00641 0.0
N174 N 0.09298 0.46468 0.88767 0.0
N175 N 0.32832 0.55271 -0.00013 0.0
H176 H 0.12147 0.53345 0.05651 0.0
H177 H 0.2142 0.56454 0.06218 0.0
H178 H 0.38216 0.56547 -0.01454 0.0
H179 H 0.32889 0.5459 0.03634 0.0
H180 H 0.10253 0.45603 0.85162 0.0
H181 H 0.0472 0.43891 0.90171 0.0
H182 H 0.16444 0.53312 0.82424 0.0
H183 H 0.26055 0.55815 0.83009 0.0
C184 C 0.76097 0.81024 0.95511 0.0
C185 C 0.82896 0.76743 0.95622 0.0
C186 C 0.7593 0.68989 0.90838 0.0
C187 C 0.68837 0.72799 0.91434 0.0
N188 N 0.61912 0.81633 0.95653 0.0
N189 N 0.88089 0.65692 0.94559 0.0
C190 C 0.68824 0.78535 0.94227 0.0
C191 C 0.82439 0.70405 0.93668 0.0
N192 N 0.76595 0.87534 0.96223 0.0
N193 N 0.76711 0.64337 0.87384 0.0
H194 H 0.92501 0.66281 0.97026 0.0
H195 H 0.87801 0.61007 0.93225 0.0
H196 H 0.72283 0.63438 0.84996 0.0
H197 H 0.82071 0.61881 0.86582 0.0
H198 H 0.71792 0.90803 0.95819 0.0
H199 H 0.81924 0.89753 0.9656 0.0
H200 H 0.61714 0.85601 0.97965 0.0
H201 H 0.56442 0.79781 0.94978 0.0
C202 C 0.82568 0.46347 0.92518 0.0
C203 C 0.84123 0.48956 0.97041 0.0
C204 C 0.71224 0.54825 0.97164 0.0
C205 C 0.69926 0.52484 0.92523 0.0
N206 N 0.75184 0.47532 0.85316 0.0
N207 N 0.80629 0.5643 0.03403 0.0
C208 C 0.75857 0.48697 0.90061 0.0
C209 C 0.78644 0.53421 -0.00701 0.0
N210 N 0.87361 0.41449 0.90632 0.0
N211 N 0.65297 0.58182 -0.00422 0.0
H212 H 0.85954 0.55404 0.05086 0.0
H213 H 0.7728 0.60255 0.04951 0.0
H214 H 0.59869 0.59393 -0.01925 0.0
H215 H 0.65575 0.59431 0.03145 0.0
H216 H 0.86037 0.38911 0.87569 0.0
H217 H 0.9227 0.39473 0.92364 0.0
H218 H 0.79702 0.45371 0.83235 0.0
H219 H 0.70442 0.4936 0.83352 0.0
C220 C 0.17861 0.73372 0.96758 0.0
C221 C 0.12285 0.77236 0.94198 0.0
C222 C 0.20772 0.76209 0.87148 0.0
C223 C 0.26806 0.73236 0.89909 0.0
N224 N 0.31586 0.70049 0.97586 0.0
N225 N 0.09029 0.83284 0.87158 0.0
C226 C 0.25489 0.72067 0.94782 0.0
C227 C 0.1388 0.78903 0.89434 0.0
N228 N 0.15818 0.70815 0.01019 0.0
N229 N 0.21548 0.76326 0.82329 0.0
H230 H 0.04045 0.85537 0.88759 0.0
H231 H 0.1037 0.85153 0.83847 0.0
H232 H 0.2644 0.7424 0.80519 0.0
H233 H 0.17004 0.77882 0.80117 0.0
H234 H 0.19483 0.6756 0.02849 0.0
H235 H 0.10185 0.71441 0.02507 0.0
H236 H 0.31105 0.69827 0.0126 0.0
H237 H 0.37307 0.6913 0.96299 0.0
C238 C 0.73694 0.96931 0.48398 0.0
C239 C 0.68399 0.93354 0.45714 0.0
C240 C 0.76888 0.94037 0.38718 0.0
C241 C 0.82582 0.96979 0.41507 0.0
N242 N 0.87075 1.00282 0.49167 0.0
N243 N 0.65903 0.87096 0.38694 0.0
C244 C 0.81177 0.98193 0.46401 0.0
C245 C 0.7026 0.91506 0.40974 0.0
N246 N 0.71519 0.99215 0.52799 0.0
N247 N 0.77697 0.93816 0.33897 0.0
H248 H 0.61261 0.84837 0.40336 0.0
H249 H 0.67451 0.85136 0.35381 0.0
H250 H 0.82404 0.95767 0.32088 0.0
H251 H 0.733 0.923 0.31678 0.0
H252 H 0.74865 1.02327 0.54753 0.0
H253 H 0.66076 0.98373 0.5436 0.0
H254 H 0.86667 1.00582 0.52843 0.0
H255 H 0.92622 1.01265 0.47815 0.0
C256 C 0.34799 0.22763 0.43138 0.0
C257 C 0.35963 0.21329 0.47982 0.0
C258 C 0.22802 0.17103 0.48498 0.0
C259 C 0.2208 0.17919 0.43545 0.0
N260 N 0.27984 0.2019 0.35975 0.0
N261 N 0.3157 0.164 0.55193 0.0
C262 C 0.28313 0.20268 0.40805 0.0
C263 C 0.3011 0.18257 0.50649 0.0
N264 N 0.39545 0.26918 0.40862 0.0
N265 N 0.16442 0.15444 0.51149 0.0
H266 H 0.36886 0.17155 0.56849 0.0
H267 H 0.27753 0.13717 0.57206 0.0
H268 H 0.11084 0.14387 0.49648 0.0
H269 H 0.16333 0.15459 0.54833 0.0
H270 H 0.38551 0.28547 0.37435 0.0
H271 H 0.43847 0.29391 0.42613 0.0
H272 H 0.32726 0.21301 0.33804 0.0
H273 H 0.23254 0.18409 0.34146 0.0
C274 C 0.38181 0.94389 0.40214 0.0
C275 C 0.39168 0.95119 0.4517 0.0
C276 C 0.25619 0.996 0.45983 0.0
C277 C 0.24876 0.99225 0.41003 0.0
N278 N 0.31052 0.98015 0.33307 0.0
N279 N 0.34507 0.99833 0.52596 0.0
C280 C 0.31387 0.97225 0.38097 0.0
C281 C 0.33096 0.98194 0.48006 0.0
N282 N 0.43415 0.90599 0.37569 0.0
N283 N 0.19132 1.00954 0.48789 0.0
H284 H 0.39996 0.99049 0.54139 0.0
H285 H 0.30458 1.02475 0.54734 0.0
H286 H 0.13573 1.02059 0.47424 0.0
H287 H 0.19162 1.00567 0.52461 0.0
H288 H 0.42525 0.89421 0.34032 0.0
H289 H 0.4819 0.88031 0.39021 0.0
H290 H 0.35913 0.97189 0.31057 0.0
H291 H 0.26138 1.00144 0.31654 0.0
C292 C 0.66312 0.19469 0.42851 0.0
C293 C 0.65213 0.1948 0.47855 0.0
C294 C 0.79018 0.15869 0.48771 0.0
C295 C 0.79899 0.15624 0.43786 0.0
N296 N 0.73921 0.15153 0.36142 0.0
N297 N 0.69951 0.15967 0.55472 0.0
C298 C 0.73336 0.16637 0.40858 0.0
C299 C 0.71393 0.17106 0.50792 0.0
N300 N 0.61046 0.22704 0.40016 0.0
N301 N 0.85484 0.1514 0.51553 0.0
H302 H 0.6435 0.16584 0.57008 0.0
H303 H 0.74116 0.13824 0.57705 0.0
H304 H 0.91095 0.1398 0.50156 0.0
H305 H 0.85331 0.15991 0.55192 0.0
H306 H 0.61978 0.23309 0.36398 0.0
H307 H 0.56259 0.2549 0.41348 0.0
H308 H 0.6908 0.15296 0.33924 0.0
H309 H 0.79078 0.13136 0.34575 0.0
loop_
_geom_bond_atom_site_label_1
_geom_bond_atom_site_label_2
_geom_bond_distance
_geom_bond_site_symmetry_2
_ccdc_geom_bond_type
H0 C7 0.929 . S
H1 C10 0.930 . S
H2 C12 0.929 1_655 S
H3 C4 0.969 . S
C4 H3 0.969 . S
C4 O5 1.550 . S
C4 H6 0.973 . S
O5 C4 1.550 . S
O5 C11 1.412 . S
H6 C4 0.973 . S
C7 H0 0.929 . S
C7 C8 1.400 . S
C7 C9 1.364 . S
C8 C7 1.400 . S
C8 C12 1.377 1_556 S
C9 C7 1.364 . S
C9 C10 1.374 1_556 S
C10 H1 0.930 . S
C10 C9 1.374 1_554 S
C10 C11 1.383 . S
C11 O5 1.412 . S
C11 C10 1.383 . S
C11 C12 1.394 . S
C12 H2 0.929 1_455 S
C12 C8 1.377 1_554 S
C12 C11 1.394 . S
H13 C20 0.929 . S
H14 C23 0.930 . S
H15 C25 0.929 . S
H16 C17 0.969 . S
C17 H16 0.969 . S
C17 O18 1.550 1_655 S
C17 H19 0.973 . S
O18 C17 1.550 1_455 S
O18 C24 1.412 . S
H19 C17 0.973 . S
C20 H13 0.929 . S
C20 C21 1.400 . S
C20 C22 1.364 1_455 S
C21 C20 1.400 . S
C21 C25 1.377 1_556 S
C22 C20 1.364 1_655 S
C22 C23 1.374 1_556 S
C23 H14 0.930 . S
C23 C22 1.374 1_554 S
C23 C24 1.383 1_655 S
C24 O18 1.412 . S
C24 C23 1.383 1_455 S
C24 C25 1.394 . S
C25 H15 0.929 . S
C25 C21 1.377 1_554 S
C25 C24 1.394 . S
H26 C33 0.929 . S
H27 C36 0.930 . S
H28 C38 0.929 . S
H29 C30 0.969 . S
C30 H29 0.969 . S
C30 O31 1.550 . S
C30 H32 0.973 . S
O31 C30 1.550 . S
O31 C37 1.412 . S
H32 C30 0.973 . S
C33 H26 0.929 . S
C33 C34 1.400 . S
C33 C35 1.364 . S
C34 C33 1.400 . S
C34 C38 1.377 . S
C35 C33 1.364 . S
C35 C36 1.374 . S
C36 H27 0.930 . S
C36 C35 1.374 . S
C36 C37 1.383 . S
C37 O31 1.412 . S
C37 C36 1.383 . S
C37 C38 1.394 . S
C38 H28 0.929 . S
C38 C34 1.377 . S
C38 C37 1.394 . S
H39 C46 0.929 . S
H40 C49 0.930 . S
H41 C51 0.929 . S
H42 C43 0.969 . S
C43 H42 0.969 . S
C43 O44 1.550 . S
C43 H45 0.973 . S
O44 C43 1.550 . S
O44 C50 1.412 . S
H45 C43 0.973 . S
C46 H39 0.929 . S
C46 C47 1.400 . S
C46 C48 1.364 . S
C47 C46 1.400 . S
C47 C51 1.377 . S
C48 C46 1.364 . S
C48 C49 1.374 . S
C49 H40 0.930 . S
C49 C48 1.374 . S
C49 C50 1.383 . S
C50 O44 1.412 . S
C50 C49 1.383 . S
C50 C51 1.394 . S
C51 H41 0.929 . S
C51 C47 1.377 . S
C51 C50 1.394 . S
Zn52 O58 1.920 . S
Zn52 O64 1.898 . S
Zn52 O67 1.905 1_455 S
Zn53 O61 1.905 . S
Zn53 O62 1.898 1_455 S
Zn53 O70 1.920 . S
Zn54 O57 2.080 . S
Zn54 O60 2.114 1_545 S
Zn54 O63 2.120 1_545 S
Zn54 O65 2.120 . S
Zn54 O66 2.114 1_455 S
Zn54 O69 2.080 1_545 S
C55 O60 1.166 . S
C55 O61 1.182 . S
C56 O62 1.167 . S
C56 O63 1.299 1_655 S
O57 Zn54 2.080 . S
O57 C71 1.305 . S
O58 Zn52 1.920 . S
O58 C71 1.234 . S
C59 O64 1.167 . S
C59 O65 1.299 . S
O60 Zn54 2.114 1_565 S
O60 C55 1.166 . S
O61 Zn53 1.905 . S
O61 C55 1.182 . S
O62 Zn53 1.898 1_655 S
O62 C56 1.167 . S
O63 Zn54 2.120 1_565 S
O63 C56 1.299 1_455 S
O64 Zn52 1.898 . S
O64 C59 1.167 . S
O65 Zn54 2.120 . S
O65 C59 1.299 . S
O66 Zn54 2.114 1_655 S
O66 C68 1.166 . S
O67 Zn52 1.905 1_655 S
O67 C68 1.182 . S
C68 O66 1.166 . S
C68 O67 1.182 . S
O69 Zn54 2.080 1_565 S
O69 C72 1.305 . S
O70 Zn53 1.920 . S
O70 C72 1.234 . S
C71 O57 1.305 . S
C71 O58 1.234 . S
C72 O69 1.305 . S
C72 O70 1.234 . S
Zn73 O79 1.920 . S
Zn73 O85 1.898 . S
Zn73 O88 1.905 . S
Zn74 O82 1.905 . S
Zn74 O83 1.898 . S
Zn74 O91 1.920 . S
Zn75 O78 2.080 . S
Zn75 O81 2.114 . S
Zn75 O84 2.120 . S
Zn75 O86 2.120 . S
Zn75 O87 2.114 . S
Zn75 O90 2.080 . S
C76 O81 1.166 . S
C76 O82 1.182 . S
C77 O83 1.167 . S
C77 O84 1.299 . S
O78 Zn75 2.080 . S
O78 C92 1.305 . S
O79 Zn73 1.920 . S
O79 C92 1.234 . S
C80 O85 1.167 . S
C80 O86 1.299 . S
O81 Zn75 2.114 . S
O81 C76 1.166 . S
O82 Zn74 1.905 . S
O82 C76 1.182 . S
O83 Zn74 1.898 . S
O83 C77 1.167 . S
O84 Zn75 2.120 . S
O84 C77 1.299 . S
O85 Zn73 1.898 . S
O85 C80 1.167 . S
O86 Zn75 2.120 . S
O86 C80 1.299 . S
O87 Zn75 2.114 . S
O87 C89 1.166 . S
O88 Zn73 1.905 . S
O88 C89 1.182 . S
C89 O87 1.166 . S
C89 O88 1.182 . S
O90 Zn75 2.080 . S
O90 C93 1.305 . S
O91 Zn74 1.920 . S
O91 C93 1.234 . S
C92 O78 1.305 . S
C92 O79 1.234 . S
C93 O90 1.305 . S
C93 O91 1.234 . S
C94 C95 1.363 . S
C94 C100 1.379 . S
C94 N102 1.356 . S
C95 C94 1.363 . S
C95 C101 1.363 . S
C96 C97 1.363 . S
C96 C101 1.379 . S
C96 N103 1.356 . S
C97 C96 1.363 . S
C97 C100 1.363 . S
N98 C100 1.356 . S
N98 H110 0.984 . S
N98 H111 0.985 . S
N99 C101 1.356 . S
N99 H104 0.984 . S
N99 H105 0.985 . S
C100 C94 1.379 . S
C100 C97 1.363 . S
C100 N98 1.356 . S
C101 C95 1.363 . S
C101 C96 1.379 . S
C101 N99 1.356 . S
N102 C94 1.356 . S
N102 H108 0.984 . S
N102 H109 0.984 . S
N103 C96 1.356 . S
N103 H106 0.984 . S
N103 H107 0.985 . S
H104 N99 0.984 . S
H105 N99 0.985 . S
H106 N103 0.984 . S
H107 N103 0.985 . S
H108 N102 0.984 . S
H109 N102 0.984 . S
H110 N98 0.984 . S
H111 N98 0.985 . S
C112 C113 1.363 . S
C112 C118 1.379 . S
C112 N120 1.356 . S
C113 C112 1.363 . S
C113 C119 1.363 1_655 S
C114 C115 1.363 . S
C114 C119 1.379 . S
C114 N121 1.356 . S
C115 C114 1.363 . S
C115 C118 1.363 1_455 S
N116 C118 1.356 . S
N116 H128 0.984 . S
N116 H129 0.985 . S
N117 C119 1.356 . S
N117 H122 0.984 . S
N117 H123 0.985 . S
C118 C112 1.379 . S
C118 C115 1.363 1_655 S
C118 N116 1.356 . S
C119 C113 1.363 1_455 S
C119 C114 1.379 . S
C119 N117 1.356 . S
N120 C112 1.356 . S
N120 H126 0.984 . S
N120 H127 0.984 . S
N121 C114 1.356 . S
N121 H124 0.984 . S
N121 H125 0.985 . S
H122 N117 0.984 . S
H123 N117 0.985 . S
H124 N121 0.984 . S
H125 N121 0.985 . S
H126 N120 0.984 . S
H127 N120 0.984 . S
H128 N116 0.984 . S
H129 N116 0.985 . S
C130 C131 1.363 . S
C130 C136 1.379 . S
C130 N138 1.356 . S
C131 C130 1.363 . S
C131 C137 1.363 . S
C132 C133 1.363 . S
C132 C137 1.379 . S
C132 N139 1.356 . S
C133 C132 1.363 . S
C133 C136 1.363 . S
N134 C136 1.356 . S
N134 H146 0.984 . S
N134 H147 0.985 . S
N135 C137 1.356 . S
N135 H140 0.984 . S
N135 H141 0.985 . S
C136 C130 1.379 . S
C136 C133 1.363 . S
C136 N134 1.356 . S
C137 C131 1.363 . S
C137 C132 1.379 . S
C137 N135 1.356 . S
N138 C130 1.356 . S
N138 H144 0.984 . S
N138 H145 0.984 . S
N139 C132 1.356 . S
N139 H142 0.984 . S
N139 H143 0.985 . S
H140 N135 0.984 . S
H141 N135 0.985 . S
H142 N139 0.984 . S
H143 N139 0.985 . S
H144 N138 0.984 . S
H145 N138 0.984 . S
H146 N134 0.984 . S
H147 N134 0.985 . S
C148 C149 1.363 . S
C148 C154 1.379 . S
C148 N156 1.356 . S
C149 C148 1.363 . S
C149 C155 1.363 . S
C150 C151 1.363 . S
C150 C155 1.379 . S
C150 N157 1.356 . S
C151 C150 1.363 . S
C151 C154 1.363 . S
N152 C154 1.356 . S
N152 H164 0.984 . S
N152 H165 0.985 . S
N153 C155 1.356 . S
N153 H158 0.984 . S
N153 H159 0.985 . S
C154 C148 1.379 . S
C154 C151 1.363 . S
C154 N152 1.356 . S
C155 C149 1.363 . S
C155 C150 1.379 . S
C155 N153 1.356 . S
N156 C148 1.356 . S
N156 H162 0.984 . S
N156 H163 0.984 . S
N157 C150 1.356 . S
N157 H160 0.984 . S
N157 H161 0.985 . S
H158 N153 0.984 . S
H159 N153 0.985 . S
H160 N157 0.984 . S
H161 N157 0.985 . S
H162 N156 0.984 . S
H163 N156 0.984 . S
H164 N152 0.984 . S
H165 N152 0.985 . S
C166 C167 1.363 . S
C166 C172 1.379 . S
C166 N174 1.356 . S
C167 C166 1.363 . S
C167 C173 1.363 . S
C168 C169 1.363 . S
C168 C173 1.379 . S
C168 N175 1.356 . S
C169 C168 1.363 . S
C169 C172 1.363 . S
N170 C172 1.356 . S
N170 H182 0.984 . S
N170 H183 0.985 . S
N171 C173 1.356 1_554 S
N171 H176 0.984 . S
N171 H177 0.985 . S
C172 C166 1.379 . S
C172 C169 1.363 . S
C172 N170 1.356 . S
C173 C167 1.363 . S
C173 C168 1.379 . S
C173 N171 1.356 1_556 S
N174 C166 1.356 . S
N174 H180 0.984 . S
N174 H181 0.984 . S
N175 C168 1.356 . S
N175 H178 0.984 . S
N175 H179 0.985 1_556 S
H176 N171 0.984 . S
H177 N171 0.985 . S
H178 N175 0.984 . S
H179 N175 0.985 1_554 S
H180 N174 0.984 . S
H181 N174 0.984 . S
H182 N170 0.984 . S
H183 N170 0.985 . S
C184 C185 1.363 . S
C184 C190 1.379 . S
C184 N192 1.356 1_556 S
C185 C184 1.363 . S
C185 C191 1.363 . S
C186 C187 1.363 . S
C186 C191 1.379 . S
C186 N193 1.356 . S
C187 C186 1.363 . S
C187 C190 1.363 . S
N188 C190 1.356 . S
N188 H200 0.984 . S
N188 H201 0.985 . S
N189 C191 1.356 . S
N189 H194 0.984 1_655 S
N189 H195 0.985 1_655 S
C190 C184 1.379 . S
C190 C187 1.363 . S
C190 N188 1.356 . S
C191 C185 1.363 . S
C191 C186 1.379 . S
C191 N189 1.356 . S
N192 C184 1.356 1_554 S
N192 H198 0.984 . S
N192 H199 0.984 . S
N193 C186 1.356 . S
N193 H196 0.984 . S
N193 H197 0.985 . S
H194 N189 0.984 1_455 S
H195 N189 0.985 1_455 S
H196 N193 0.984 . S
H197 N193 0.985 . S
H198 N192 0.984 . S
H199 N192 0.984 . S
H200 N188 0.984 . S
H201 N188 0.985 . S
C202 C203 1.363 . S
C202 C208 1.379 . S
C202 N210 1.356 1_655 S
C203 C202 1.363 . S
C203 C209 1.363 . S
C204 C205 1.363 . S
C204 C209 1.379 . S
C204 N211 1.356 . S
C205 C204 1.363 . S
C205 C208 1.363 . S
N206 C208 1.356 . S
N206 H218 0.984 . S
N206 H219 0.985 . S
N207 C209 1.356 1_554 S
N207 H212 0.984 . S
N207 H213 0.985 . S
C208 C202 1.379 . S
C208 C205 1.363 . S
C208 N206 1.356 . S
C209 C203 1.363 . S
C209 C204 1.379 . S
C209 N207 1.356 1_556 S
N210 C202 1.356 1_455 S
N210 H216 0.984 . S
N210 H217 0.984 . S
N211 C204 1.356 . S
N211 H214 0.984 . S
N211 H215 0.985 . S
H212 N207 0.984 . S
H213 N207 0.985 . S
H214 N211 0.984 . S
H215 N211 0.985 . S
H216 N210 0.984 . S
H217 N210 0.984 . S
H218 N206 0.984 . S
H219 N206 0.985 . S
C220 C221 1.363 . S
C220 C226 1.379 . S
C220 N228 1.356 1_556 S
C221 C220 1.363 . S
C221 C227 1.363 . S
C222 C223 1.363 . S
C222 C227 1.379 . S
C222 N229 1.356 . S
C223 C222 1.363 . S
C223 C226 1.363 . S
N224 C226 1.356 . S
N224 H236 0.984 . S
N224 H237 0.985 . S
N225 C227 1.356 . S
N225 H230 0.984 . S
N225 H231 0.985 . S
C226 C220 1.379 . S
C226 C223 1.363 . S
C226 N224 1.356 . S
C227 C221 1.363 . S
C227 C222 1.379 . S
C227 N225 1.356 . S
N228 C220 1.356 1_554 S
N228 H234 0.984 . S
N228 H235 0.984 . S
N229 C222 1.356 . S
N229 H232 0.984 . S
N229 H233 0.985 . S
H230 N225 0.984 . S
H231 N225 0.985 . S
H232 N229 0.984 . S
H233 N229 0.985 . S
H234 N228 0.984 . S
H235 N228 0.984 . S
H236 N224 0.984 . S
H237 N224 0.985 . S
C238 C239 1.363 . S
C238 C244 1.379 . S
C238 N246 1.356 . S
C239 C238 1.363 . S
C239 C245 1.363 . S
C240 C241 1.363 . S
C240 C245 1.379 . S
C240 N247 1.356 . S
C241 C240 1.363 . S
C241 C244 1.363 . S
N242 C244 1.356 . S
N242 H254 0.984 . S
N242 H255 0.985 . S
N243 C245 1.356 . S
N243 H248 0.984 . S
N243 H249 0.985 . S
C244 C238 1.379 . S
C244 C241 1.363 . S
C244 N242 1.356 . S
C245 C239 1.363 . S
C245 C240 1.379 . S
C245 N243 1.356 . S
N246 C238 1.356 . S
N246 H252 0.984 . S
N246 H253 0.984 . S
N247 C240 1.356 . S
N247 H250 0.984 1_655 S
N247 H251 0.985 . S
H248 N243 0.984 . S
H249 N243 0.985 . S
H250 N247 0.984 1_455 S
H251 N247 0.985 . S
H252 N246 0.984 . S
H253 N246 0.984 . S
H254 N242 0.984 . S
H255 N242 0.985 . S
C256 C257 1.363 . S
C256 C262 1.379 . S
C256 N264 1.356 . S
C257 C256 1.363 . S
C257 C263 1.363 . S
C258 C259 1.363 . S
C258 C263 1.379 . S
C258 N265 1.356 . S
C259 C258 1.363 . S
C259 C262 1.363 . S
N260 C262 1.356 . S
N260 H272 0.984 . S
N260 H273 0.985 . S
N261 C263 1.356 . S
N261 H266 0.984 . S
N261 H267 0.985 . S
C262 C256 1.379 . S
C262 C259 1.363 . S
C262 N260 1.356 . S
C263 C257 1.363 . S
C263 C258 1.379 . S
C263 N261 1.356 . S
N264 C256 1.356 . S
N264 H270 0.984 . S
N264 H271 0.984 . S
N265 C258 1.356 . S
N265 H268 0.984 . S
N265 H269 0.985 . S
H266 N261 0.984 . S
H267 N261 0.985 . S
H268 N265 0.984 . S
H269 N265 0.985 . S
H270 N264 0.984 . S
H271 N264 0.984 . S
H272 N260 0.984 . S
H273 N260 0.985 . S
C274 C275 1.363 . S
C274 C280 1.379 . S
C274 N282 1.356 . S
C275 C274 1.363 . S
C275 C281 1.363 . S
C276 C277 1.363 . S
C276 C281 1.379 . S
C276 N283 1.356 . S
C277 C276 1.363 . S
C277 C280 1.363 . S
N278 C280 1.356 . S
N278 H290 0.984 . S
N278 H291 0.985 . S
N279 C281 1.356 . S
N279 H284 0.984 . S
N279 H285 0.985 . S
C280 C274 1.379 . S
C280 C277 1.363 . S
C280 N278 1.356 . S
C281 C275 1.363 . S
C281 C276 1.379 . S
C281 N279 1.356 . S
N282 C274 1.356 . S
N282 H288 0.984 . S
N282 H289 0.984 . S
N283 C276 1.356 . S
N283 H286 0.984 . S
N283 H287 0.985 . S
H284 N279 0.984 . S
H285 N279 0.985 . S
H286 N283 0.984 . S
H287 N283 0.985 . S
H288 N282 0.984 . S
H289 N282 0.984 . S
H290 N278 0.984 . S
H291 N278 0.985 . S
C292 C293 1.363 . S
C292 C298 1.379 . S
C292 N300 1.356 . S
C293 C292 1.363 . S
C293 C299 1.363 . S
C294 C295 1.363 . S
C294 C299 1.379 . S
C294 N301 1.356 . S
C295 C294 1.363 . S
C295 C298 1.363 . S
N296 C298 1.356 . S
N296 H308 0.984 . S
N296 H309 0.985 . S
N297 C299 1.356 . S
N297 H302 0.984 . S
N297 H303 0.985 . S
C298 C292 1.379 . S
C298 C295 1.363 . S
C298 N296 1.356 . S
C299 C293 1.363 . S
C299 C294 1.379 . S
C299 N297 1.356 . S
N300 C292 1.356 . S
N300 H306 0.984 . S
N300 H307 0.984 . S
N301 C294 1.356 . S
N301 H304 0.984 . S
N301 H305 0.981 1_545 S
H302 N297 0.984 . S
H303 N297 0.985 . S
H304 N301 0.984 . S
H305 N301 0.981 1_565 S
H306 N300 0.984 . S
H307 N300 0.984 . S
H308 N296 0.984 . S
H309 N296 0.985 . S
C97 C59 1.427 . S
C95 C4 1.478 . S
C115 C55 1.437 . S
C113 C17 1.484 . S
C133 C80 1.427 . S
C131 C30 1.478 . S
C149 C43 1.484 . S
C151 C76 1.437 . S
C167 C9 1.343 . S
C169 C77 1.189 . S
C187 C92 1.207 . S
C185 C22 1.358 . S
C203 C8 1.679 1_655 S
C205 C93 1.528 . S
C223 C89 1.548 . S
C221 C21 1.690 . S
C241 C56 1.189 . S
C239 C35 1.343 . S
C257 C48 1.358 . S
C259 C71 1.207 . S
C277 C72 1.528 . S
C275 C34 1.679 . S
C295 C68 1.548 . S
C293 C47 1.690 . S
