# Generated by pormake.
# Topology ptr, (4,4)-cn, num edge types: 1
# Building blocks:
#     Node 0, Type 0, BuildingBlock: GALJAG_clean_sbu_0, # of connection points: 4
#     Node 1, Type 0, BuildingBlock: GALJAG_clean_sbu_0, # of connection points: 4
#     Node 2, Type 0, BuildingBlock: GALJAG_clean_sbu_0, # of connection points: 4
#     Node 3, Type 0, BuildingBlock: GALJAG_clean_sbu_0, # of connection points: 4
#     Node 4, Type 0, BuildingBlock: GALJAG_clean_sbu_0, # of connection points: 4
#     Node 5, Type 0, BuildingBlock: GALJAG_clean_sbu_0, # of connection points: 4
#     Node 6, Type 0, BuildingBlock: GALJAG_clean_sbu_0, # of connection points: 4
#     Node 7, Type 0, BuildingBlock: GALJAG_clean_sbu_0, # of connection points: 4
#     Node 8, Type 0, BuildingBlock: GALJAG_clean_sbu_0, # of connection points: 4
#     Node 9, Type 0, BuildingBlock: GALJAG_clean_sbu_0, # of connection points: 4
#     Node 10, Type 0, BuildingBlock: GALJAG_clean_sbu_0, # of connection points: 4
#     Node 11, Type 0, BuildingBlock: GALJAG_clean_sbu_0, # of connection points: 4
#     Node 12, Type 0, BuildingBlock: GALJAG_clean_sbu_0, # of connection points: 4
#     Node 13, Type 0, BuildingBlock: GALJAG_clean_sbu_0, # of connection points: 4
#     Node 14, Type 0, BuildingBlock: GALJAG_clean_sbu_0, # of connection points: 4
#     Node 15, Type 0, BuildingBlock: GALJAG_clean_sbu_0, # of connection points: 4
#     Node 16, Type 0, BuildingBlock: GALJAG_clean_sbu_0, # of connection points: 4
#     Node 17, Type 0, BuildingBlock: GALJAG_clean_sbu_0, # of connection points: 4
#     Node 18, Type 1, BuildingBlock: NAHDIM_clean_linker_0, # of connection points: 4
#     Node 19, Type 1, BuildingBlock: NAHDIM_clean_linker_0, # of connection points: 4
#     Node 20, Type 1, BuildingBlock: NAHDIM_clean_linker_0, # of connection points: 4
#     Node 21, Type 1, BuildingBlock: NAHDIM_clean_linker_0, # of connection points: 4
#     Node 22, Type 1, BuildingBlock: NAHDIM_clean_linker_0, # of connection points: 4
#     Node 23, Type 1, BuildingBlock: NAHDIM_clean_linker_0, # of connection points: 4
#     Node 24, Type 1, BuildingBlock: NAHDIM_clean_linker_0, # of connection points: 4
#     Node 25, Type 1, BuildingBlock: NAHDIM_clean_linker_0, # of connection points: 4
#     Node 26, Type 1, BuildingBlock: NAHDIM_clean_linker_0, # of connection points: 4
#     Node 27, Type 1, BuildingBlock: NAHDIM_clean_linker_0, # of connection points: 4
#     Node 28, Type 1, BuildingBlock: NAHDIM_clean_linker_0, # of connection points: 4
#     Node 29, Type 1, BuildingBlock: NAHDIM_clean_linker_0, # of connection points: 4
#     Node 30, Type 1, BuildingBlock: NAHDIM_clean_linker_0, # of connection points: 4
#     Node 31, Type 1, BuildingBlock: NAHDIM_clean_linker_0, # of connection points: 4
#     Node 32, Type 1, BuildingBlock: NAHDIM_clean_linker_0, # of connection points: 4
#     Node 33, Type 1, BuildingBlock: NAHDIM_clean_linker_0, # of connection points: 4
#     Node 34, Type 1, BuildingBlock: NAHDIM_clean_linker_0, # of connection points: 4
#     Node 35, Type 1, BuildingBlock: NAHDIM_clean_linker_0, # of connection points: 4
#     Edge 36, Type (0, 1), BuildingBlock: ZUJKAS_clean_linker_0, # of connection points: 2
#     Edge 37, Type (0, 1), BuildingBlock: ZUJKAS_clean_linker_0, # of connection points: 2
#     Edge 38, Type (0, 1), BuildingBlock: ZUJKAS_clean_linker_0, # of connection points: 2
#     Edge 39, Type (0, 1), BuildingBlock: ZUJKAS_clean_linker_0, # of connection points: 2
#     Edge 40, Type (0, 1), BuildingBlock: ZUJKAS_clean_linker_0, # of connection points: 2
#     Edge 41, Type (0, 1), BuildingBlock: ZUJKAS_clean_linker_0, # of connection points: 2
#     Edge 42, Type (0, 1), BuildingBlock: ZUJKAS_clean_linker_0, # of connection points: 2
#     Edge 43, Type (0, 1), BuildingBlock: ZUJKAS_clean_linker_0, # of connection points: 2
#     Edge 44, Type (0, 1), BuildingBlock: ZUJKAS_clean_linker_0, # of connection points: 2
#     Edge 45, Type (0, 1), BuildingBlock: ZUJKAS_clean_linker_0, # of connection points: 2
#     Edge 46, Type (0, 1), BuildingBlock: ZUJKAS_clean_linker_0, # of connection points: 2
#     Edge 47, Type (0, 1), BuildingBlock: ZUJKAS_clean_linker_0, # of connection points: 2
#     Edge 48, Type (0, 1), BuildingBlock: ZUJKAS_clean_linker_0, # of connection points: 2
#     Edge 49, Type (0, 1), BuildingBlock: ZUJKAS_clean_linker_0, # of connection points: 2
#     Edge 50, Type (0, 1), BuildingBlock: ZUJKAS_clean_linker_0, # of connection points: 2
#     Edge 51, Type (0, 1), BuildingBlock: ZUJKAS_clean_linker_0, # of connection points: 2
#     Edge 52, Type (0, 1), BuildingBlock: ZUJKAS_clean_linker_0, # of connection points: 2
#     Edge 53, Type (0, 1), BuildingBlock: ZUJKAS_clean_linker_0, # of connection points: 2
#     Edge 54, Type (0, 1), BuildingBlock: ZUJKAS_clean_linker_0, # of connection points: 2
#     Edge 55, Type (0, 1), BuildingBlock: ZUJKAS_clean_linker_0, # of connection points: 2
#     Edge 56, Type (0, 1), BuildingBlock: ZUJKAS_clean_linker_0, # of connection points: 2
#     Edge 57, Type (0, 1), BuildingBlock: ZUJKAS_clean_linker_0, # of connection points: 2
#     Edge 58, Type (0, 1), BuildingBlock: ZUJKAS_clean_linker_0, # of connection points: 2
#     Edge 59, Type (0, 1), BuildingBlock: ZUJKAS_clean_linker_0, # of connection points: 2
#     Edge 60, Type (0, 1), BuildingBlock: ZUJKAS_clean_linker_0, # of connection points: 2
#     Edge 61, Type (0, 1), BuildingBlock: ZUJKAS_clean_linker_0, # of connection points: 2
#     Edge 62, Type (0, 1), BuildingBlock: ZUJKAS_clean_linker_0, # of connection points: 2
#     Edge 63, Type (0, 1), BuildingBlock: ZUJKAS_clean_linker_0, # of connection points: 2
#     Edge 64, Type (0, 1), BuildingBlock: ZUJKAS_clean_linker_0, # of connection points: 2
#     Edge 65, Type (0, 1), BuildingBlock: ZUJKAS_clean_linker_0, # of connection points: 2
#     Edge 66, Type (0, 1), BuildingBlock: ZUJKAS_clean_linker_0, # of connection points: 2
#     Edge 67, Type (0, 1), BuildingBlock: ZUJKAS_clean_linker_0, # of connection points: 2
#     Edge 68, Type (0, 1), BuildingBlock: ZUJKAS_clean_linker_0, # of connection points: 2
#     Edge 69, Type (0, 1), BuildingBlock: ZUJKAS_clean_linker_0, # of connection points: 2
#     Edge 70, Type (0, 1), BuildingBlock: ZUJKAS_clean_linker_0, # of connection points: 2
#     Edge 71, Type (0, 1), BuildingBlock: ZUJKAS_clean_linker_0, # of connection points: 2
#     Edge 72, Type (0, 1), BuildingBlock: ZUJKAS_clean_linker_0, # of connection points: 2
#     Edge 73, Type (0, 1), BuildingBlock: ZUJKAS_clean_linker_0, # of connection points: 2
#     Edge 74, Type (0, 1), BuildingBlock: ZUJKAS_clean_linker_0, # of connection points: 2
#     Edge 75, Type (0, 1), BuildingBlock: ZUJKAS_clean_linker_0, # of connection points: 2
#     Edge 76, Type (0, 1), BuildingBlock: ZUJKAS_clean_linker_0, # of connection points: 2
#     Edge 77, Type (0, 1), BuildingBlock: ZUJKAS_clean_linker_0, # of connection points: 2
#     Edge 78, Type (0, 1), BuildingBlock: ZUJKAS_clean_linker_0, # of connection points: 2
#     Edge 79, Type (0, 1), BuildingBlock: ZUJKAS_clean_linker_0, # of connection points: 2
#     Edge 80, Type (0, 1), BuildingBlock: ZUJKAS_clean_linker_0, # of connection points: 2
#     Edge 81, Type (0, 1), BuildingBlock: ZUJKAS_clean_linker_0, # of connection points: 2
#     Edge 82, Type (0, 1), BuildingBlock: ZUJKAS_clean_linker_0, # of connection points: 2
#     Edge 83, Type (0, 1), BuildingBlock: ZUJKAS_clean_linker_0, # of connection points: 2
#     Edge 84, Type (0, 1), BuildingBlock: ZUJKAS_clean_linker_0, # of connection points: 2
#     Edge 85, Type (0, 1), BuildingBlock: ZUJKAS_clean_linker_0, # of connection points: 2
#     Edge 86, Type (0, 1), BuildingBlock: ZUJKAS_clean_linker_0, # of connection points: 2
#     Edge 87, Type (0, 1), BuildingBlock: ZUJKAS_clean_linker_0, # of connection points: 2
#     Edge 88, Type (0, 1), BuildingBlock: ZUJKAS_clean_linker_0, # of connection points: 2
#     Edge 89, Type (0, 1), BuildingBlock: ZUJKAS_clean_linker_0, # of connection points: 2
#     Edge 90, Type (0, 1), BuildingBlock: ZUJKAS_clean_linker_0, # of connection points: 2
#     Edge 91, Type (0, 1), BuildingBlock: ZUJKAS_clean_linker_0, # of connection points: 2
#     Edge 92, Type (0, 1), BuildingBlock: ZUJKAS_clean_linker_0, # of connection points: 2
#     Edge 93, Type (0, 1), BuildingBlock: ZUJKAS_clean_linker_0, # of connection points: 2
#     Edge 94, Type (0, 1), BuildingBlock: ZUJKAS_clean_linker_0, # of connection points: 2
#     Edge 95, Type (0, 1), BuildingBlock: ZUJKAS_clean_linker_0, # of connection points: 2
#     Edge 96, Type (0, 1), BuildingBlock: ZUJKAS_clean_linker_0, # of connection points: 2
#     Edge 97, Type (0, 1), BuildingBlock: ZUJKAS_clean_linker_0, # of connection points: 2
#     Edge 98, Type (0, 1), BuildingBlock: ZUJKAS_clean_linker_0, # of connection points: 2
#     Edge 99, Type (0, 1), BuildingBlock: ZUJKAS_clean_linker_0, # of connection points: 2
#     Edge 100, Type (0, 1), BuildingBlock: ZUJKAS_clean_linker_0, # of connection points: 2
#     Edge 101, Type (0, 1), BuildingBlock: ZUJKAS_clean_linker_0, # of connection points: 2
#     Edge 102, Type (0, 1), BuildingBlock: ZUJKAS_clean_linker_0, # of connection points: 2
#     Edge 103, Type (0, 1), BuildingBlock: ZUJKAS_clean_linker_0, # of connection points: 2
#     Edge 104, Type (0, 1), BuildingBlock: ZUJKAS_clean_linker_0, # of connection points: 2
#     Edge 105, Type (0, 1), BuildingBlock: ZUJKAS_clean_linker_0, # of connection points: 2
#     Edge 106, Type (0, 1), BuildingBlock: ZUJKAS_clean_linker_0, # of connection points: 2
#     Edge 107, Type (0, 1), BuildingBlock: ZUJKAS_clean_linker_0, # of connection points: 2
# Relax obj value: 0.026
# Max RMSD: 0.103
# Mean RMSD: 0.052
data_MOF--net-ptr--node1-GALJAG_clean_sbu_0--node2-NAHDIM_clean_linker_0--edge1-ZUJKAS_clean_linker_0
_symmetry_space_group_name_H-M    P1
_symmetry_Int_Tables_number       1
_symmetry_cell_setting            triclinic
loop_
_symmetry_equiv_pos_as_xyz
'x, y, z'
_cell_length_a     112.72257
_cell_length_b     112.32052
_cell_length_c     102.51798
_cell_angle_alpha  90.723649
_cell_angle_beta   90.364946
_cell_angle_gamma 120.04343
loop_
_atom_site_label
_atom_site_type_symbol
_atom_site_fract_x
_atom_site_fract_y
_atom_site_fract_z
_atom_type_partial_charge
In0 In 0.99947 0.34887 0.00454 0.0
O1 O 0.98598 0.3506 0.02015 0.0
O2 O 0.00581 0.36789 0.0171 0.0
C3 C 0.9825 0.32383 0.99374 0.0
C4 C 0.01784 0.34439 0.0173 0.0
C5 C 0.00318 0.36561 0.98448 0.0
O6 O 0.97848 0.32923 0.00221 0.0
O7 O 0.99497 0.33101 0.99087 0.0
O8 O 0.01287 0.36436 0.98921 0.0
O9 O 0.99175 0.35841 0.98983 0.0
C10 C 0.9948 0.36281 0.02342 0.0
O11 O 0.0202 0.34979 0.00619 0.0
O12 O 0.00629 0.34124 0.02186 0.0
In13 In 0.6506 0.64861 0.01213 0.0
O14 O 0.65053 0.6323 0.02531 0.0
O15 O 0.63277 0.63435 0.02482 0.0
C16 C 0.67434 0.65671 0.99957 0.0
C17 C 0.65752 0.67061 0.02787 0.0
C18 C 0.63221 0.6394 0.99222 0.0
O19 O 0.66814 0.6454 0.00539 0.0
O20 O 0.66858 0.66386 0.00014 0.0
O21 O 0.63335 0.64855 0.00024 0.0
O22 O 0.64029 0.63491 0.99429 0.0
C23 C 0.63864 0.6283 0.02956 0.0
O24 O 0.65082 0.66859 0.01736 0.0
O25 O 0.66069 0.66158 0.03036 0.0
In26 In 0.3516 0.00233 0.00575 0.0
O27 O 0.35399 0.0235 0.00211 0.0
O28 O 0.33835 0.0062 0.99168 0.0
C29 C 0.36954 0.00731 0.0254 0.0
C30 C 0.36445 0.99787 0.98585 0.0
C31 C 0.32833 0.98516 0.01819 0.0
O32 O 0.36643 0.01616 0.02187 0.0
O33 O 0.36366 0.99612 0.01898 0.0
O34 O 0.33265 0.98115 0.00872 0.0
O35 O 0.33571 0.99772 0.02126 0.0
C36 C 0.34429 0.019 0.99382 0.0
O37 O 0.35312 0.98847 0.99003 0.0
O38 O 0.36915 0.00933 0.9917 0.0
In39 In 0.00397 0.65691 0.01436 0.0
O40 O 0.01776 0.65448 0.99953 0.0
O41 O 0.99615 0.6417 0.99737 0.0
C42 C 0.02234 0.67982 0.02747 0.0
C43 C 0.98795 0.6657 0.00344 0.0
C44 C 0.99764 0.63763 0.03261 0.0
O45 O 0.02538 0.67567 0.0172 0.0
O46 O 0.01017 0.67231 0.03116 0.0
O47 O 0.99023 0.64289 0.03038 0.0
O48 O 0.00814 0.64206 0.02563 0.0
C49 C 0.00784 0.64507 0.99304 0.0
O50 O 0.98301 0.65471 0.00982 0.0
O51 O 0.00084 0.6722 0.00276 0.0
In52 In 0.35648 0.35464 0.9985 0.0
O53 O 0.35496 0.37079 0.9864 0.0
O54 O 0.37201 0.3679 0.98336 0.0
C55 C 0.33268 0.34903 0.00993 0.0
C56 C 0.35215 0.33225 0.98447 0.0
C57 C 0.37433 0.36218 0.01895 0.0
O58 O 0.34309 0.36093 0.01024 0.0
O59 O 0.33425 0.3402 0.0037 0.0
O60 O 0.36384 0.3504 0.01786 0.0
O61 O 0.37598 0.37002 0.00961 0.0
C62 C 0.36586 0.37426 0.98024 0.0
O63 O 0.36005 0.33656 0.99434 0.0
O64 O 0.34677 0.3394 0.9816 0.0
In65 In 0.65266 0.0003 0.00925 0.0
O66 O 0.65178 0.01431 0.02513 0.0
O67 O 0.63508 0.99381 0.0233 0.0
C68 C 0.67624 0.0173 0.99714 0.0
C69 C 0.65911 0.9829 0.02101 0.0
C70 C 0.63505 0.99562 0.98935 0.0
O71 O 0.67166 0.02143 0.00629 0.0
O72 O 0.66897 0.0047 0.99422 0.0
O73 O 0.63795 0.98667 0.99303 0.0
O74 O 0.64093 0.0068 0.99579 0.0
C75 C 0.64027 0.00523 0.02929 0.0
O76 O 0.6496 0.97884 0.01255 0.0
O77 O 0.66531 0.99566 0.02344 0.0
In78 In 0.66624 0.68123 0.34003 0.0
O79 O 0.65026 0.68137 0.35359 0.0
O80 O 0.67066 0.69819 0.35492 0.0
C81 C 0.65046 0.65836 0.32545 0.0
C82 C 0.68159 0.67386 0.35443 0.0
C83 C 0.67434 0.70003 0.32103 0.0
O84 O 0.64545 0.66307 0.33363 0.0
O85 O 0.66335 0.6651 0.32477 0.0
O86 O 0.6824 0.69674 0.32636 0.0
O87 O 0.66232 0.69395 0.32539 0.0
C88 C 0.65859 0.69268 0.3591 0.0
O89 O 0.68682 0.6837 0.34657 0.0
O90 O 0.66869 0.66773 0.35491 0.0
In91 In 0.31439 0.98072 0.34735 0.0
O92 O 0.31369 0.96547 0.36221 0.0
O93 O 0.29687 0.96901 0.36151 0.0
C94 C 0.33673 0.98404 0.33461 0.0
C95 C 0.32375 0.00502 0.36018 0.0
C96 C 0.29524 0.97072 0.32802 0.0
O97 O 0.32972 0.97398 0.34187 0.0
O98 O 0.33257 0.99256 0.33387 0.0
O99 O 0.29762 0.9811 0.33489 0.0
O100 O 0.3024 0.96538 0.33098 0.0
C101 C 0.30226 0.96274 0.36679 0.0
O102 O 0.31648 0.00196 0.34992 0.0
O103 O 0.32635 0.99589 0.36386 0.0
In104 In 0.01809 0.33159 0.33817 0.0
O105 O 0.01964 0.35241 0.33571 0.0
O106 O 0.00929 0.33735 0.32075 0.0
C107 C 0.03642 0.33939 0.35813 0.0
C108 C 0.02925 0.32316 0.31956 0.0
C109 C 0.9939 0.31552 0.34991 0.0
O110 O 0.0357 0.34784 0.35067 0.0
O111 O 0.02796 0.32695 0.35548 0.0
O112 O 0.9998 0.31062 0.34313 0.0
O113 O 0.00012 0.32847 0.35063 0.0
C114 C 0.01343 0.34946 0.32484 0.0
O115 O 0.01736 0.31544 0.32384 0.0
O116 O 0.0355 0.335 0.32476 0.0
In117 In 0.66835 0.97771 0.34331 0.0
O118 O 0.6847 0.98038 0.32871 0.0
O119 O 0.66631 0.96101 0.32912 0.0
C120 C 0.68442 0.00172 0.35632 0.0
C121 C 0.65013 0.98096 0.32879 0.0
C122 C 0.66031 0.96001 0.36334 0.0
O123 O 0.68924 0.99495 0.35085 0.0
O124 O 0.6716 0.99635 0.35525 0.0
O125 O 0.65387 0.96593 0.3598 0.0
O126 O 0.67084 0.96299 0.35679 0.0
C127 C 0.67784 0.96833 0.32399 0.0
O128 O 0.64659 0.97086 0.33617 0.0
O129 O 0.66284 0.98939 0.32872 0.0
In130 In 0.02485 0.6923 0.33818 0.0
O131 O 0.02253 0.70669 0.32422 0.0
O132 O 0.04114 0.70618 0.32383 0.0
C133 C 0.00151 0.68554 0.3511 0.0
C134 C 0.02016 0.67035 0.32321 0.0
C135 C 0.04304 0.70161 0.35838 0.0
O136 O 0.00858 0.69708 0.34586 0.0
O137 O 0.00621 0.67752 0.34982 0.0
O138 O 0.03615 0.68907 0.35512 0.0
O139 O 0.04088 0.7095 0.35138 0.0
C140 C 0.03416 0.71113 0.31918 0.0
O141 O 0.03029 0.67628 0.33097 0.0
O142 O 0.01248 0.67551 0.323 0.0
In143 In 0.31189 0.33442 0.34459 0.0
O144 O 0.3099 0.31349 0.34846 0.0
O145 O 0.32447 0.33073 0.35975 0.0
C146 C 0.29306 0.32717 0.32518 0.0
C147 C 0.3012 0.34282 0.36368 0.0
C148 C 0.33566 0.34943 0.33194 0.0
O149 O 0.2941 0.31841 0.33194 0.0
O150 O 0.30137 0.33952 0.32834 0.0
O151 O 0.33209 0.35437 0.34125 0.0
O152 O 0.32721 0.33705 0.329 0.0
C153 C 0.31908 0.31802 0.35728 0.0
O154 O 0.31094 0.35117 0.3567 0.0
O155 O 0.2968 0.33031 0.36092 0.0
In156 In 0.33305 0.01772 0.67268 0.0
O157 O 0.35523 0.02412 0.67722 0.0
O158 O 0.3399 0.00645 0.68666 0.0
C159 C 0.33828 0.03524 0.65289 0.0
C160 C 0.32484 0.02853 0.69196 0.0
C161 C 0.31783 0.99337 0.65997 0.0
O162 O 0.3473 0.03321 0.65801 0.0
O163 O 0.32654 0.02846 0.65778 0.0
O164 O 0.31345 0.99687 0.66975 0.0
O165 O 0.32985 0.00208 0.65673 0.0
C166 C 0.35252 0.01458 0.68507 0.0
O167 O 0.31682 0.01709 0.68651 0.0
O168 O 0.33685 0.03446 0.68763 0.0
In169 In 0.98064 0.31326 0.67544 0.0
O170 O 0.97614 0.33032 0.68117 0.0
O171 O 0.99278 0.33003 0.6907 0.0
C172 C 0.96242 0.30196 0.65549 0.0
C173 C 0.96945 0.29366 0.69368 0.0
C174 C 0.00462 0.32152 0.66322 0.0
O175 O 0.96566 0.31352 0.66053 0.0
O176 O 0.96829 0.29606 0.66058 0.0
O177 O 0.00121 0.31411 0.67319 0.0
O178 O 0.996 0.32484 0.65949 0.0
C179 C 0.98567 0.33578 0.6896 0.0
O180 O 0.97963 0.29553 0.68706 0.0
O181 O 0.96486 0.30153 0.69095 0.0
In182 In 0.6842 0.6663 0.6703 0.0
O183 O 0.6867 0.68701 0.66459 0.0
O184 O 0.67092 0.66901 0.65514 0.0
C185 C 0.70284 0.6749 0.69002 0.0
C186 C 0.69533 0.65839 0.65119 0.0
C187 C 0.66117 0.65054 0.68382 0.0
O188 O 0.69997 0.68293 0.68409 0.0
O189 O 0.69641 0.66259 0.68592 0.0
O190 O 0.66664 0.64543 0.67668 0.0
O191 O 0.66728 0.6635 0.68407 0.0
C192 C 0.67696 0.68194 0.65635 0.0
O193 O 0.68397 0.65019 0.65622 0.0
O194 O 0.70106 0.67046 0.65588 0.0
In195 In 0.33451 0.3131 0.67532 0.0
O196 O 0.35056 0.31337 0.66164 0.0
O197 O 0.33039 0.29623 0.66028 0.0
C198 C 0.35065 0.33622 0.68931 0.0
C199 C 0.31989 0.32158 0.66129 0.0
C200 C 0.32573 0.29466 0.69471 0.0
O201 O 0.35544 0.3303 0.68234 0.0
O202 O 0.33774 0.33036 0.68935 0.0
O203 O 0.31775 0.29737 0.6884 0.0
O204 O 0.33804 0.30113 0.69115 0.0
C205 C 0.34245 0.30206 0.65605 0.0
O206 O 0.31422 0.31105 0.66832 0.0
O207 O 0.3328 0.32762 0.66128 0.0
In208 In 0.69021 0.02508 0.6672 0.0
O209 O 0.68983 0.04016 0.65277 0.0
O210 O 0.70685 0.03696 0.65221 0.0
C211 C 0.66808 0.02054 0.68112 0.0
C212 C 0.68146 0.00099 0.65407 0.0
C213 C 0.70943 0.0353 0.68648 0.0
O214 O 0.67361 0.03005 0.67297 0.0
O215 O 0.67369 0.01331 0.68225 0.0
O216 O 0.70524 0.02363 0.68122 0.0
O217 O 0.70408 0.04191 0.68187 0.0
C218 C 0.701 0.04304 0.64749 0.0
O219 O 0.69173 0.00609 0.66169 0.0
O220 O 0.67565 0.00805 0.65305 0.0
In221 In 0.97433 0.66876 0.67406 0.0
O222 O 0.96814 0.64697 0.6802 0.0
O223 O 0.98608 0.66351 0.68893 0.0
C224 C 0.95676 0.66109 0.6535 0.0
C225 C 0.96469 0.67817 0.69329 0.0
C226 C 0.99817 0.68426 0.66155 0.0
O227 O 0.96025 0.65315 0.65867 0.0
O228 O 0.96206 0.6729 0.65875 0.0
O229 O 0.99202 0.68944 0.66752 0.0
O230 O 0.9923 0.67133 0.66189 0.0
C231 C 0.97805 0.65068 0.68811 0.0
O232 O 0.97687 0.68485 0.68939 0.0
O233 O 0.95733 0.66687 0.68735 0.0
C234 C 0.21509 0.28614 0.0982 0.0
C235 C 0.21442 0.29765 0.09092 0.0
C236 C 0.20354 0.30628 0.10622 0.0
C237 C 0.20572 0.31767 0.11376 0.0
C238 C 0.19504 0.31759 0.12079 0.0
C239 C 0.18189 0.30567 0.12045 0.0
C240 C 0.1796 0.29406 0.1129 0.0
C241 C 0.19041 0.29452 0.10576 0.0
C242 C 0.19781 0.33024 0.12856 0.0
C243 C 0.16572 0.28115 0.11232 0.0
C244 C 0.11746 0.30781 0.07272 0.0
C245 C 0.10729 0.3068 0.08314 0.0
C246 C 0.12219 0.3125 0.10257 0.0
C247 C 0.12078 0.29944 0.10421 0.0
C248 C 0.12949 0.29762 0.11275 0.0
C249 C 0.13998 0.30911 0.11965 0.0
C250 C 0.14124 0.32221 0.11826 0.0
C251 C 0.13219 0.32368 0.10986 0.0
C252 C 0.12763 0.28343 0.11423 0.0
C253 C 0.15235 0.33468 0.12542 0.0
C254 C 0.11155 0.29795 0.2034 0.0
C255 C 0.10912 0.28595 0.19661 0.0
C256 C 0.11967 0.28557 0.18974 0.0
C257 C 0.13283 0.29745 0.1895 0.0
C258 C 0.13531 0.30951 0.19635 0.0
C259 C 0.12464 0.30956 0.20325 0.0
C260 C 0.11674 0.27249 0.18266 0.0
C261 C 0.14922 0.32237 0.19627 0.0
C262 C 0.21982 0.27962 0.19857 0.0
C263 C 0.21486 0.28848 0.20542 0.0
C264 C 0.19173 0.28449 0.20142 0.0
C265 C 0.17897 0.274 0.19693 0.0
C266 C 0.16962 0.27703 0.19087 0.0
C267 C 0.17308 0.29092 0.18952 0.0
C268 C 0.18565 0.30157 0.19475 0.0
C269 C 0.19486 0.29824 0.20068 0.0
C270 C 0.15621 0.26542 0.18559 0.0
C271 C 0.18946 0.31645 0.1938 0.0
C272 C 0.17052 0.30535 0.12796 0.0
C273 C 0.1611 0.30774 0.12128 0.0
C274 C 0.15006 0.30747 0.12768 0.0
C275 C 0.1485 0.30507 0.14124 0.0
C276 C 0.13769 0.30503 0.14806 0.0
C277 C 0.13627 0.30266 0.16141 0.0
C278 C 0.14543 0.29997 0.1684 0.0
C279 C 0.14396 0.29735 0.18193 0.0
C280 C 0.15315 0.29455 0.18855 0.0
C281 C 0.16388 0.29431 0.18201 0.0
C282 C 0.16559 0.29703 0.16851 0.0
C283 C 0.17628 0.29687 0.16164 0.0
C284 C 0.17792 0.2996 0.14837 0.0
C285 C 0.16892 0.30254 0.14144 0.0
C286 C 0.15795 0.30255 0.14813 0.0
C287 C 0.15634 0.29987 0.1617 0.0
C288 C 0.08016 0.28912 0.19869 0.0
C289 C 0.08791 0.28913 0.21103 0.0
O290 O 0.21441 0.30713 0.0997 0.0
O291 O 0.20071 0.28095 0.2064 0.0
O292 O 0.10169 0.2989 0.21014 0.0
O293 O 0.11432 0.31481 0.094 0.0
H294 H 0.20493 0.29307 0.08477 0.0
H295 H 0.20597 0.28044 0.10438 0.0
H296 H 0.22437 0.29043 0.1046 0.0
H297 H 0.21536 0.27871 0.09112 0.0
H298 H 0.21586 0.3267 0.11406 0.0
H299 H 0.18847 0.2856 0.09997 0.0
H300 H 0.19012 0.33329 0.126 0.0
H301 H 0.20822 0.33908 0.12686 0.0
H302 H 0.19682 0.32792 0.13912 0.0
H303 H 0.16605 0.27244 0.10744 0.0
H304 H 0.15845 0.28323 0.10683 0.0
H305 H 0.16166 0.27805 0.12231 0.0
H306 H 0.1008 0.29589 0.08599 0.0
H307 H 0.11191 0.30149 0.06396 0.0
H308 H 0.12411 0.30394 0.07654 0.0
H309 H 0.12407 0.31868 0.0698 0.0
H310 H 0.11296 0.2906 0.09886 0.0
H311 H 0.13315 0.33369 0.10862 0.0
H312 H 0.13646 0.28315 0.10985 0.0
H313 H 0.11807 0.27534 0.1094 0.0
H314 H 0.1274 0.28099 0.12473 0.0
H315 H 0.15209 0.34419 0.12315 0.0
H316 H 0.16255 0.33618 0.12279 0.0
H317 H 0.1512 0.33305 0.1361 0.0
H318 H 0.0867 0.27877 0.21228 0.0
H319 H 0.09907 0.27685 0.19655 0.0
H320 H 0.12643 0.31875 0.20852 0.0
H321 H 0.1178 0.27428 0.172 0.0
H322 H 0.10626 0.26384 0.18454 0.0
H323 H 0.12432 0.26945 0.18568 0.0
H324 H 0.14934 0.33107 0.20167 0.0
H325 H 0.15235 0.3255 0.18606 0.0
H326 H 0.15694 0.32025 0.20077 0.0
H327 H 0.2181 0.29759 0.19916 0.0
H328 H 0.23117 0.28538 0.19783 0.0
H329 H 0.21536 0.27686 0.18854 0.0
H330 H 0.21662 0.26996 0.20392 0.0
H331 H 0.17655 0.26341 0.19779 0.0
H332 H 0.20446 0.30638 0.20471 0.0
H333 H 0.15555 0.2665 0.1749 0.0
H334 H 0.14754 0.26596 0.19008 0.0
H335 H 0.155 0.25517 0.18751 0.0
H336 H 0.19913 0.32345 0.19919 0.0
H337 H 0.1811 0.3179 0.19773 0.0
H338 H 0.19073 0.31943 0.1834 0.0
H339 H 0.16227 0.30966 0.11089 0.0
H340 H 0.13027 0.30691 0.14316 0.0
H341 H 0.12782 0.30287 0.16616 0.0
H342 H 0.15191 0.29247 0.19891 0.0
H343 H 0.18353 0.29467 0.16644 0.0
H344 H 0.18633 0.29934 0.14361 0.0
H345 H 0.0691 0.28137 0.19942 0.0
H346 H 0.08423 0.28646 0.18998 0.0
H347 H 0.08129 0.29943 0.19726 0.0
C348 C 0.71764 0.90014 0.07073 0.0
C349 C 0.70583 0.89786 0.07957 0.0
C350 C 0.70774 0.89273 0.10208 0.0
C351 C 0.69415 0.88299 0.1049 0.0
C352 C 0.6912 0.87306 0.11443 0.0
C353 C 0.70211 0.8728 0.1211 0.0
C354 C 0.71583 0.88299 0.11858 0.0
C355 C 0.71844 0.89302 0.10926 0.0
C356 C 0.67646 0.86259 0.11707 0.0
C357 C 0.72778 0.88293 0.12526 0.0
C358 C 0.6935 0.77732 0.0871 0.0
C359 C 0.69818 0.79113 0.09309 0.0
C360 C 0.69002 0.80299 0.10737 0.0
C361 C 0.70315 0.8142 0.11022 0.0
C362 C 0.7048 0.82532 0.11796 0.0
C363 C 0.69311 0.82534 0.12283 0.0
C364 C 0.67989 0.81408 0.12004 0.0
C365 C 0.67854 0.80298 0.11242 0.0
C366 C 0.71907 0.83713 0.12082 0.0
C367 C 0.66721 0.81388 0.12498 0.0
C368 C 0.69971 0.80902 0.2073 0.0
C369 C 0.71159 0.81803 0.20048 0.0
C370 C 0.71231 0.82908 0.19359 0.0
C371 C 0.70082 0.83101 0.19327 0.0
C372 C 0.68892 0.82207 0.20023 0.0
C373 C 0.68858 0.81125 0.20724 0.0
C374 C 0.72529 0.83861 0.1865 0.0
C375 C 0.67649 0.82381 0.2001 0.0
C376 C 0.72549 0.93873 0.19994 0.0
C377 C 0.71572 0.92521 0.20654 0.0
C378 C 0.71778 0.90471 0.2031 0.0
C379 C 0.72757 0.90126 0.19934 0.0
C380 C 0.72368 0.88843 0.19352 0.0
C381 C 0.7096 0.87874 0.19167 0.0
C382 C 0.6996 0.88187 0.19612 0.0
C383 C 0.70379 0.89484 0.20182 0.0
C384 C 0.73462 0.88535 0.18907 0.0
C385 C 0.68451 0.8716 0.19463 0.0
C386 C 0.69926 0.86103 0.12953 0.0
C387 C 0.69646 0.84875 0.12327 0.0
C388 C 0.69479 0.83749 0.13033 0.0
C389 C 0.69581 0.83835 0.1441 0.0
C390 C 0.69434 0.82726 0.15149 0.0
C391 C 0.69581 0.82837 0.16501 0.0
C392 C 0.69898 0.84068 0.17163 0.0
C393 C 0.70114 0.84212 0.18531 0.0
C394 C 0.70426 0.8545 0.19159 0.0
C395 C 0.7054 0.8656 0.18455 0.0
C396 C 0.70332 0.86437 0.17085 0.0
C397 C 0.70446 0.87536 0.16345 0.0
C398 C 0.70285 0.8742 0.14994 0.0
C399 C 0.7002 0.86208 0.1433 0.0
C400 C 0.69861 0.85073 0.15059 0.0
C401 C 0.7002 0.85189 0.16438 0.0
C402 C 0.7057 0.78477 0.20144 0.0
C403 C 0.70733 0.79287 0.21411 0.0
O404 O 0.71076 0.90171 0.09225 0.0
O405 O 0.72222 0.91758 0.20798 0.0
O406 O 0.69845 0.79806 0.214 0.0
O407 O 0.68805 0.7921 0.09979 0.0
H408 H 0.69808 0.88667 0.07893 0.0
H409 H 0.72203 0.89375 0.07404 0.0
H410 H 0.72589 0.91111 0.07103 0.0
H411 H 0.71391 0.89709 0.0605 0.0
H412 H 0.68588 0.88307 0.09952 0.0
H413 H 0.72888 0.90072 0.10705 0.0
H414 H 0.67406 0.8525 0.11275 0.0
H415 H 0.66925 0.86557 0.11281 0.0
H416 H 0.67474 0.86125 0.12774 0.0
H417 H 0.73778 0.8907 0.12122 0.0
H418 H 0.72681 0.87262 0.12426 0.0
H419 H 0.72781 0.88519 0.13583 0.0
H420 H 0.70409 0.79998 0.08652 0.0
H421 H 0.70496 0.77024 0.0972 0.0
H422 H 0.69434 0.77905 0.07627 0.0
H423 H 0.68194 0.77171 0.08703 0.0
H424 H 0.71217 0.81438 0.10642 0.0
H425 H 0.66846 0.7943 0.1102 0.0
H426 H 0.72055 0.83936 0.13148 0.0
H427 H 0.72042 0.84651 0.11599 0.0
H428 H 0.72714 0.835 0.11732 0.0
H429 H 0.65765 0.80448 0.12175 0.0
H430 H 0.66694 0.82306 0.12147 0.0
H431 H 0.66753 0.81443 0.13581 0.0
H432 H 0.71808 0.80145 0.21516 0.0
H433 H 0.72035 0.81654 0.20042 0.0
H434 H 0.67948 0.8043 0.21256 0.0
H435 H 0.72339 0.83699 0.17582 0.0
H436 H 0.73386 0.83683 0.18908 0.0
H437 H 0.72847 0.8495 0.1888 0.0
H438 H 0.6678 0.81559 0.20551 0.0
H439 H 0.67312 0.82372 0.18987 0.0
H440 H 0.67919 0.83392 0.20457 0.0
H441 H 0.70658 0.9198 0.19996 0.0
H442 H 0.72053 0.94506 0.19868 0.0
H443 H 0.72822 0.93656 0.19015 0.0
H444 H 0.73508 0.9447 0.20582 0.0
H445 H 0.73833 0.90886 0.20061 0.0
H446 H 0.69615 0.89722 0.20529 0.0
H447 H 0.73354 0.88319 0.17839 0.0
H448 H 0.7333 0.876 0.19395 0.0
H449 H 0.74512 0.89399 0.19123 0.0
H450 H 0.67802 0.87525 0.19932 0.0
H451 H 0.6822 0.86167 0.19899 0.0
H452 H 0.68172 0.8696 0.1841 0.0
H453 H 0.69599 0.84809 0.11269 0.0
H454 H 0.6921 0.8176 0.14691 0.0
H455 H 0.69458 0.81948 0.17018 0.0
H456 H 0.7061 0.85561 0.20205 0.0
H457 H 0.70669 0.88502 0.16801 0.0
H458 H 0.70388 0.88299 0.14473 0.0
H459 H 0.71271 0.78049 0.20156 0.0
H460 H 0.70828 0.79157 0.19291 0.0
H461 H 0.69498 0.77617 0.2002 0.0
C462 C 0.19109 0.89986 0.07625 0.0
C463 C 0.20221 0.90743 0.08681 0.0
C464 C 0.19194 0.89089 0.10455 0.0
C465 C 0.18193 0.8943 0.10801 0.0
C466 C 0.17126 0.88595 0.11639 0.0
C467 C 0.17051 0.8739 0.12135 0.0
C468 C 0.18083 0.87071 0.11829 0.0
C469 C 0.1915 0.87935 0.11003 0.0
C470 C 0.16055 0.88979 0.11965 0.0
C471 C 0.18032 0.85792 0.12338 0.0
C472 C 0.08641 0.82296 0.06933 0.0
C473 C 0.09344 0.8173 0.07804 0.0
C474 C 0.10086 0.82436 0.10047 0.0
C475 C 0.1108 0.82041 0.1016 0.0
C476 C 0.12139 0.82669 0.11097 0.0
C477 C 0.12221 0.83737 0.11911 0.0
C478 C 0.11195 0.84112 0.11814 0.0
C479 C 0.10119 0.83426 0.10904 0.0
C480 C 0.1319 0.82215 0.11191 0.0
C481 C 0.1126 0.85274 0.12629 0.0
C482 C 0.09476 0.81725 0.20159 0.0
C483 C 0.10462 0.81332 0.19932 0.0
C484 C 0.11712 0.82239 0.19345 0.0
C485 C 0.1198 0.83562 0.18986 0.0
C486 C 0.11012 0.83978 0.19265 0.0
C487 C 0.09777 0.83055 0.1986 0.0
C488 C 0.1274 0.8178 0.19093 0.0
C489 C 0.11272 0.85389 0.18911 0.0
C490 C 0.21143 0.92737 0.20502 0.0
C491 C 0.20365 0.9188 0.21679 0.0
C492 C 0.18894 0.89555 0.20729 0.0
C493 C 0.18739 0.88245 0.20591 0.0
C494 C 0.17666 0.87212 0.19835 0.0
C495 C 0.16716 0.87497 0.19211 0.0
C496 C 0.16851 0.88814 0.1936 0.0
C497 C 0.17944 0.89833 0.20109 0.0
C498 C 0.17554 0.85821 0.19692 0.0
C499 C 0.15844 0.89148 0.18722 0.0
C500 C 0.15829 0.86405 0.12873 0.0
C501 C 0.14659 0.85499 0.1215 0.0
C502 C 0.13449 0.84558 0.1276 0.0
C503 C 0.1341 0.84491 0.14136 0.0
C504 C 0.12229 0.83522 0.14783 0.0
C505 C 0.12178 0.83511 0.16139 0.0
C506 C 0.13309 0.84465 0.169 0.0
C507 C 0.13249 0.84497 0.18277 0.0
C508 C 0.14384 0.85474 0.19002 0.0
C509 C 0.15588 0.86426 0.18388 0.0
C510 C 0.15675 0.86397 0.17013 0.0
C511 C 0.16877 0.87329 0.16365 0.0
C512 C 0.16936 0.87325 0.1501 0.0
C513 C 0.15795 0.86391 0.14251 0.0
C514 C 0.1458 0.85428 0.14884 0.0
C515 C 0.14525 0.85424 0.16267 0.0
C516 C 0.06103 0.79094 0.19824 0.0
C517 C 0.07468 0.79447 0.20472 0.0
O518 O 0.20197 0.8982 0.09583 0.0
O519 O 0.19973 0.90509 0.21461 0.0
O520 O 0.08236 0.80859 0.20678 0.0
O521 O 0.09105 0.81904 0.09098 0.0
H522 H 0.20045 0.91522 0.09185 0.0
H523 H 0.18074 0.89486 0.08059 0.0
H524 H 0.19252 0.89181 0.0713 0.0
H525 H 0.19152 0.90722 0.06887 0.0
H526 H 0.18223 0.90333 0.10409 0.0
H527 H 0.19933 0.87686 0.10742 0.0
H528 H 0.15067 0.88232 0.11486 0.0
H529 H 0.16346 0.90028 0.11635 0.0
H530 H 0.15888 0.88928 0.13034 0.0
H531 H 0.18915 0.85689 0.12012 0.0
H532 H 0.17068 0.84869 0.12 0.0
H533 H 0.18027 0.8581 0.13421 0.0
H534 H 0.10463 0.82344 0.07602 0.0
H535 H 0.08831 0.82184 0.05889 0.0
H536 H 0.09058 0.83406 0.0716 0.0
H537 H 0.07517 0.81744 0.07097 0.0
H538 H 0.11031 0.81248 0.09512 0.0
H539 H 0.09336 0.83712 0.1081 0.0
H540 H 0.1343 0.82135 0.12227 0.0
H541 H 0.14152 0.82991 0.10728 0.0
H542 H 0.12835 0.81207 0.10689 0.0
H543 H 0.10519 0.85582 0.1228 0.0
H544 H 0.12306 0.86188 0.12617 0.0
H545 H 0.11018 0.84947 0.13656 0.0
H546 H 0.07987 0.79085 0.19786 0.0
H547 H 0.10263 0.80325 0.20218 0.0
H548 H 0.09019 0.83356 0.20063 0.0
H549 H 0.12888 0.81748 0.18026 0.0
H550 H 0.12411 0.80746 0.19491 0.0
H551 H 0.13747 0.82532 0.19538 0.0
H552 H 0.10411 0.85551 0.19185 0.0
H553 H 0.11434 0.85534 0.17844 0.0
H554 H 0.12221 0.86187 0.19411 0.0
H555 H 0.19444 0.91979 0.21846 0.0
H556 H 0.21466 0.93837 0.2068 0.0
H557 H 0.20478 0.92377 0.19615 0.0
H558 H 0.22066 0.92647 0.20316 0.0
H559 H 0.19475 0.88038 0.21071 0.0
H560 H 0.18044 0.90839 0.20196 0.0
H561 H 0.17548 0.85562 0.18643 0.0
H562 H 0.1657 0.85023 0.20105 0.0
H563 H 0.18409 0.8578 0.20195 0.0
H564 H 0.16019 0.90177 0.19025 0.0
H565 H 0.1478 0.8836 0.18968 0.0
H566 H 0.15937 0.89127 0.17645 0.0
H567 H 0.14681 0.8555 0.11093 0.0
H568 H 0.11328 0.82768 0.14246 0.0
H569 H 0.11235 0.82753 0.16582 0.0
H570 H 0.1432 0.85511 0.20056 0.0
H571 H 0.17784 0.88077 0.16899 0.0
H572 H 0.17882 0.88073 0.14562 0.0
H573 H 0.05467 0.77966 0.19646 0.0
H574 H 0.06293 0.79614 0.1887 0.0
H575 H 0.05526 0.79442 0.20446 0.0
C576 C 0.2894 0.10195 0.93514 0.0
C577 C 0.29604 0.09744 0.92461 0.0
C578 C 0.30376 0.11662 0.90935 0.0
C579 C 0.2907 0.113 0.90437 0.0
C580 C 0.2889 0.12186 0.8961 0.0
C581 C 0.30039 0.13453 0.89266 0.0
C582 C 0.3136 0.13798 0.89726 0.0
C583 C 0.31511 0.12893 0.90552 0.0
C584 C 0.27467 0.11783 0.89128 0.0
C585 C 0.32607 0.15138 0.89369 0.0
C586 C 0.27083 0.18947 0.94274 0.0
C587 C 0.28339 0.19474 0.93405 0.0
C588 C 0.28295 0.18667 0.91192 0.0
C589 C 0.29665 0.19005 0.91066 0.0
C590 C 0.3003 0.18298 0.90162 0.0
C591 C 0.28995 0.17209 0.89396 0.0
C592 C 0.27613 0.16887 0.8951 0.0
C593 C 0.27288 0.17649 0.90385 0.0
C594 C 0.31517 0.18694 0.90052 0.0
C595 C 0.26467 0.15706 0.88747 0.0
C596 C 0.27929 0.18939 0.81219 0.0
C597 C 0.2932 0.19339 0.81373 0.0
C598 C 0.29708 0.18445 0.81926 0.0
C599 C 0.28685 0.17126 0.82324 0.0
C600 C 0.27286 0.16695 0.82102 0.0
C601 C 0.26927 0.17607 0.81542 0.0
C602 C 0.31209 0.18919 0.82116 0.0
C603 C 0.26169 0.15287 0.82495 0.0
C604 C 0.29212 0.08173 0.81271 0.0
C605 C 0.29064 0.08821 0.80018 0.0
C606 C 0.29784 0.11191 0.80756 0.0
C607 C 0.30887 0.12538 0.80805 0.0
C608 C 0.30818 0.13575 0.81523 0.0
C609 C 0.29604 0.13256 0.82192 0.0
C610 C 0.28467 0.11902 0.82118 0.0
C611 C 0.28574 0.1088 0.81415 0.0
C612 C 0.3205 0.15006 0.81582 0.0
C613 C 0.27141 0.1153 0.82791 0.0
C614 C 0.29841 0.14457 0.88507 0.0
C615 C 0.29595 0.15385 0.89206 0.0
C616 C 0.2934 0.16329 0.88571 0.0
C617 C 0.29339 0.16359 0.87192 0.0
C618 C 0.29113 0.17311 0.86518 0.0
C619 C 0.29036 0.17279 0.85162 0.0
C620 C 0.292 0.16306 0.84426 0.0
C621 C 0.29069 0.16231 0.8305 0.0
C622 C 0.29232 0.15247 0.8235 0.0
C623 C 0.29525 0.14328 0.82988 0.0
C624 C 0.29669 0.14394 0.84364 0.0
C625 C 0.29976 0.13495 0.85038 0.0
C626 C 0.30048 0.13524 0.86395 0.0
C627 C 0.29824 0.14456 0.87129 0.0
C628 C 0.2956 0.15403 0.86469 0.0
C629 C 0.29486 0.15374 0.85085 0.0
C630 C 0.27222 0.21637 0.81568 0.0
C631 C 0.28196 0.21222 0.80947 0.0
O632 O 0.30589 0.10875 0.918 0.0
O633 O 0.2994 0.10234 0.80067 0.0
O634 O 0.27513 0.19805 0.80769 0.0
O635 O 0.27913 0.19284 0.9211 0.0
H636 H 0.28801 0.09021 0.91759 0.0
H637 H 0.28395 0.10685 0.93069 0.0
H638 H 0.2973 0.10947 0.94207 0.0
H639 H 0.2818 0.0929 0.94065 0.0
H640 H 0.2818 0.10342 0.90701 0.0
H641 H 0.32516 0.1316 0.90929 0.0
H642 H 0.27182 0.12537 0.89502 0.0
H643 H 0.26685 0.1074 0.89444 0.0
H644 H 0.27449 0.11809 0.88046 0.0
H645 H 0.33572 0.15221 0.89747 0.0
H646 H 0.32515 0.16009 0.89774 0.0
H647 H 0.32666 0.15238 0.88292 0.0
H648 H 0.28829 0.18848 0.93628 0.0
H649 H 0.27396 0.19075 0.9532 0.0
H650 H 0.26375 0.17835 0.94066 0.0
H651 H 0.26525 0.19512 0.94089 0.0
H652 H 0.30445 0.19816 0.91677 0.0
H653 H 0.26235 0.17406 0.9049 0.0
H654 H 0.31799 0.18721 0.89012 0.0
H655 H 0.31683 0.17913 0.90542 0.0
H656 H 0.32211 0.19713 0.90517 0.0
H657 H 0.25442 0.15445 0.89116 0.0
H658 H 0.26572 0.14775 0.88792 0.0
H659 H 0.26517 0.15988 0.87708 0.0
H660 H 0.29068 0.21567 0.81651 0.0
H661 H 0.30103 0.20348 0.81068 0.0
H662 H 0.25858 0.17299 0.81395 0.0
H663 H 0.31452 0.1899 0.83175 0.0
H664 H 0.31881 0.19938 0.81678 0.0
H665 H 0.31445 0.18155 0.81673 0.0
H666 H 0.25131 0.15093 0.82221 0.0
H667 H 0.26215 0.15182 0.83567 0.0
H668 H 0.26331 0.14485 0.82024 0.0
H669 H 0.27986 0.08587 0.79905 0.0
H670 H 0.28519 0.07039 0.81231 0.0
H671 H 0.28936 0.08586 0.82132 0.0
H672 H 0.30286 0.084 0.81402 0.0
H673 H 0.31814 0.12772 0.80292 0.0
H674 H 0.27706 0.09846 0.81391 0.0
H675 H 0.32341 0.15345 0.82614 0.0
H676 H 0.31788 0.15734 0.81119 0.0
H677 H 0.32947 0.15066 0.81077 0.0
H678 H 0.26299 0.10491 0.82494 0.0
H679 H 0.26822 0.12296 0.82572 0.0
H680 H 0.27295 0.11546 0.83863 0.0
H681 H 0.29575 0.15353 0.90264 0.0
H682 H 0.28975 0.18079 0.87033 0.0
H683 H 0.28836 0.18023 0.84698 0.0
H684 H 0.29104 0.15179 0.81296 0.0
H685 H 0.3015 0.1275 0.84525 0.0
H686 H 0.30271 0.12797 0.86863 0.0
H687 H 0.27743 0.22772 0.81705 0.0
H688 H 0.26903 0.21157 0.82539 0.0
H689 H 0.26288 0.21289 0.80952 0.0
C690 C 0.81449 0.09185 0.94212 0.0
C691 C 0.80574 0.09628 0.93439 0.0
C692 C 0.81238 0.10277 0.91211 0.0
C693 C 0.80915 0.11312 0.91003 0.0
C694 C 0.81646 0.1235 0.90101 0.0
C695 C 0.8274 0.12363 0.89416 0.0
C696 C 0.83048 0.11298 0.89611 0.0
C697 C 0.82267 0.10249 0.90488 0.0
C698 C 0.81269 0.13449 0.89903 0.0
C699 C 0.8423 0.11291 0.88933 0.0
C700 C 0.91385 0.22139 0.92696 0.0
C701 C 0.90711 0.20933 0.91784 0.0
C702 C 0.88509 0.19481 0.90674 0.0
C703 C 0.88808 0.18453 0.90291 0.0
C704 C 0.87846 0.17283 0.89584 0.0
C705 C 0.86561 0.17139 0.89246 0.0
C706 C 0.86256 0.18169 0.89629 0.0
C707 C 0.87236 0.19328 0.90339 0.0
C708 C 0.882 0.16197 0.89198 0.0
C709 C 0.84894 0.18043 0.89286 0.0
C710 C 0.88909 0.18673 0.80851 0.0
C711 C 0.89119 0.17693 0.81494 0.0
C712 C 0.88053 0.16617 0.82174 0.0
C713 C 0.86756 0.16526 0.82226 0.0
C714 C 0.86536 0.17499 0.8157 0.0
C715 C 0.87617 0.18558 0.80887 0.0
C716 C 0.88319 0.15587 0.82855 0.0
C717 C 0.85167 0.17433 0.81609 0.0
C718 C 0.78314 0.05839 0.81153 0.0
C719 C 0.78743 0.07263 0.80621 0.0
C720 C 0.80999 0.09268 0.81108 0.0
C721 C 0.82313 0.0958 0.81501 0.0
C722 C 0.83209 0.10834 0.82132 0.0
C723 C 0.82783 0.11809 0.82351 0.0
C724 C 0.81476 0.11526 0.81901 0.0
C725 C 0.80596 0.10256 0.81281 0.0
C726 C 0.84603 0.11109 0.82582 0.0
C727 C 0.81008 0.12561 0.82087 0.0
C728 C 0.83632 0.13546 0.88582 0.0
C729 C 0.84592 0.14769 0.89211 0.0
C730 C 0.85533 0.15901 0.88504 0.0
C731 C 0.85531 0.15816 0.87127 0.0
C732 C 0.86482 0.16927 0.86388 0.0
C733 C 0.86511 0.16813 0.85038 0.0
C734 C 0.85586 0.15585 0.84374 0.0
C735 C 0.85648 0.15439 0.83009 0.0
C736 C 0.84702 0.14213 0.82375 0.0
C737 C 0.83698 0.13111 0.83074 0.0
C738 C 0.83632 0.1323 0.84444 0.0
C739 C 0.8265 0.12135 0.85182 0.0
C740 C 0.82628 0.12245 0.86535 0.0
C741 C 0.83595 0.13448 0.87203 0.0
C742 C 0.84564 0.14581 0.86476 0.0
C743 C 0.84586 0.1447 0.85096 0.0
C744 C 0.92085 0.20845 0.81325 0.0
C745 C 0.91278 0.20101 0.80081 0.0
O746 O 0.80588 0.09315 0.92129 0.0
O747 O 0.80161 0.0801 0.80555 0.0
O748 O 0.89915 0.19748 0.80197 0.0
O749 O 0.89413 0.20625 0.91368 0.0
H750 H 0.81039 0.10761 0.93594 0.0
H751 H 0.82519 0.0974 0.93858 0.0
H752 H 0.81043 0.08061 0.94089 0.0
H753 H 0.81462 0.09436 0.95266 0.0
H754 H 0.80096 0.11308 0.91556 0.0
H755 H 0.82499 0.09435 0.90657 0.0
H756 H 0.82058 0.14422 0.90378 0.0
H757 H 0.80258 0.13163 0.90327 0.0
H758 H 0.81241 0.13645 0.88847 0.0
H759 H 0.84457 0.10513 0.8934 0.0
H760 H 0.85168 0.12319 0.89018 0.0
H761 H 0.83979 0.11051 0.8788 0.0
H762 H 0.91365 0.20938 0.90969 0.0
H763 H 0.91557 0.21288 0.94446 0.0
H764 H 0.90794 0.22699 0.92609 0.0
H765 H 0.92304 0.22934 0.92158 0.0
H766 H 0.89788 0.18553 0.90544 0.0
H767 H 0.87012 0.20122 0.90639 0.0
H768 H 0.87423 0.15186 0.89584 0.0
H769 H 0.89229 0.16443 0.89565 0.0
H770 H 0.88178 0.16094 0.88118 0.0
H771 H 0.84826 0.1895 0.89627 0.0
H772 H 0.84055 0.17106 0.89733 0.0
H773 H 0.84727 0.17926 0.88212 0.0
H774 H 0.91349 0.19159 0.79909 0.0
H775 H 0.9011 0.1776 0.81481 0.0
H776 H 0.87463 0.19316 0.80388 0.0
H777 H 0.88256 0.15694 0.83926 0.0
H778 H 0.89344 0.15727 0.82629 0.0
H779 H 0.87523 0.14524 0.82565 0.0
H780 H 0.85167 0.18282 0.81065 0.0
H781 H 0.8489 0.17484 0.82638 0.0
H782 H 0.84362 0.16436 0.81184 0.0
H783 H 0.78359 0.07753 0.81322 0.0
H784 H 0.7718 0.05218 0.81223 0.0
H785 H 0.78764 0.05946 0.82144 0.0
H786 H 0.78678 0.05286 0.80512 0.0
H787 H 0.82623 0.08819 0.81341 0.0
H788 H 0.79601 0.10045 0.80926 0.0
H789 H 0.84731 0.11337 0.83647 0.0
H790 H 0.8541 0.12028 0.82084 0.0
H791 H 0.84761 0.10226 0.82375 0.0
H792 H 0.79991 0.12217 0.81623 0.0
H793 H 0.8177 0.13561 0.81668 0.0
H794 H 0.80944 0.12739 0.83145 0.0
H795 H 0.84627 0.14832 0.90269 0.0
H796 H 0.87226 0.17893 0.86847 0.0
H797 H 0.87276 0.17698 0.84522 0.0
H798 H 0.84767 0.14103 0.81329 0.0
H799 H 0.81893 0.11176 0.84722 0.0
H800 H 0.81853 0.11369 0.87053 0.0
H801 H 0.9318 0.21143 0.81224 0.0
H802 H 0.92018 0.21785 0.8152 0.0
H803 H 0.91672 0.20164 0.82177 0.0
C804 C 0.81058 0.71049 0.93886 0.0
C805 C 0.79934 0.70571 0.92827 0.0
C806 C 0.80931 0.69799 0.91112 0.0
C807 C 0.81963 0.71115 0.90745 0.0
C808 C 0.82994 0.71275 0.89885 0.0
C809 C 0.82988 0.70096 0.89374 0.0
C810 C 0.81921 0.6877 0.89698 0.0
C811 C 0.80903 0.68641 0.90562 0.0
C812 C 0.84113 0.72704 0.89549 0.0
C813 C 0.81876 0.67493 0.89157 0.0
C814 C 0.92883 0.72344 0.91254 0.0
C815 C 0.91738 0.71398 0.92173 0.0
C816 C 0.8965 0.70454 0.9079 0.0
C817 C 0.88655 0.69269 0.90138 0.0
C818 C 0.87597 0.69272 0.89413 0.0
C819 C 0.87542 0.70499 0.89333 0.0
C820 C 0.88543 0.71705 0.89991 0.0
C821 C 0.89586 0.71671 0.90717 0.0
C822 C 0.86539 0.67964 0.88732 0.0
C823 C 0.8851 0.73029 0.89924 0.0
C824 C 0.90526 0.72457 0.81251 0.0
C825 C 0.89511 0.7107 0.81365 0.0
C826 C 0.88244 0.70708 0.81929 0.0
C827 C 0.87993 0.71755 0.82385 0.0
C828 C 0.88989 0.73152 0.82207 0.0
C829 C 0.90239 0.73484 0.81629 0.0
C830 C 0.87186 0.69208 0.82067 0.0
C831 C 0.88748 0.74295 0.82666 0.0
C832 C 0.7865 0.71507 0.8136 0.0
C833 C 0.79418 0.71502 0.80135 0.0
C834 C 0.80996 0.70739 0.80939 0.0
C835 C 0.81205 0.69615 0.80991 0.0
C836 C 0.82317 0.69693 0.81689 0.0
C837 C 0.83252 0.70935 0.82341 0.0
C838 C 0.83063 0.72088 0.82275 0.0
C839 C 0.81931 0.71976 0.81583 0.0
C840 C 0.82485 0.68444 0.81741 0.0
C841 C 0.84053 0.73434 0.82946 0.0
C842 C 0.84152 0.70256 0.88578 0.0
C843 C 0.85256 0.70286 0.89236 0.0
C844 C 0.86426 0.70513 0.88571 0.0
C845 C 0.86514 0.70737 0.87213 0.0
C846 C 0.87698 0.71021 0.86524 0.0
C847 C 0.87776 0.71244 0.85188 0.0
C848 C 0.86665 0.71175 0.84486 0.0
C849 C 0.86733 0.71396 0.83126 0.0
C850 C 0.85608 0.7131 0.82457 0.0
C851 C 0.8441 0.71019 0.83113 0.0
C852 C 0.84328 0.70811 0.84476 0.0
C853 C 0.83144 0.7053 0.85169 0.0
C854 C 0.83084 0.70353 0.86513 0.0
C855 C 0.84196 0.70426 0.87212 0.0
C856 C 0.85389 0.70681 0.8653 0.0
C857 C 0.8546 0.70887 0.85162 0.0
C858 C 0.93906 0.73128 0.81569 0.0
C859 C 0.92506 0.72147 0.80946 0.0
O860 O 0.79961 0.69595 0.92005 0.0
O861 O 0.79878 0.70572 0.80263 0.0
O862 O 0.91791 0.72844 0.80784 0.0
O863 O 0.90646 0.70368 0.91465 0.0
H864 H 0.80091 0.7147 0.9225 0.0
H865 H 0.8209 0.71563 0.93447 0.0
H866 H 0.80939 0.70159 0.94452 0.0
H867 H 0.81004 0.718 0.94565 0.0
H868 H 0.81989 0.72026 0.91138 0.0
H869 H 0.80096 0.67629 0.90838 0.0
H870 H 0.8512 0.72859 0.89886 0.0
H871 H 0.83955 0.73517 0.9 0.0
H872 H 0.84159 0.72825 0.88474 0.0
H873 H 0.8093 0.66539 0.89434 0.0
H874 H 0.82778 0.67443 0.89527 0.0
H875 H 0.81937 0.67537 0.88077 0.0
H876 H 0.91387 0.72011 0.92744 0.0
H877 H 0.93244 0.71747 0.90673 0.0
H878 H 0.93762 0.73162 0.91823 0.0
H879 H 0.92513 0.72848 0.90569 0.0
H880 H 0.88711 0.68335 0.902 0.0
H881 H 0.90345 0.72599 0.91216 0.0
H882 H 0.86582 0.68122 0.87662 0.0
H883 H 0.85497 0.677 0.89051 0.0
H884 H 0.86696 0.67082 0.88931 0.0
H885 H 0.894 0.73897 0.90438 0.0
H886 H 0.87553 0.72886 0.90371 0.0
H887 H 0.88503 0.73307 0.88889 0.0
H888 H 0.91972 0.71285 0.81637 0.0
H889 H 0.89705 0.70269 0.81019 0.0
H890 H 0.91021 0.74551 0.81512 0.0
H891 H 0.87048 0.68947 0.83116 0.0
H892 H 0.87484 0.68521 0.81557 0.0
H893 H 0.86182 0.69007 0.81669 0.0
H894 H 0.89622 0.7533 0.82448 0.0
H895 H 0.88579 0.74225 0.83735 0.0
H896 H 0.87808 0.7418 0.82188 0.0
H897 H 0.80302 0.72552 0.79984 0.0
H898 H 0.78271 0.72244 0.81256 0.0
H899 H 0.79341 0.71828 0.82229 0.0
H900 H 0.77765 0.70464 0.8153 0.0
H901 H 0.80481 0.68667 0.80491 0.0
H902 H 0.81789 0.72858 0.81559 0.0
H903 H 0.82524 0.68173 0.82773 0.0
H904 H 0.83471 0.68679 0.8129 0.0
H905 H 0.81639 0.67538 0.81224 0.0
H906 H 0.8383 0.74266 0.82714 0.0
H907 H 0.85119 0.73761 0.82652 0.0
H908 H 0.83999 0.73296 0.84018 0.0
H909 H 0.85208 0.7014 0.90283 0.0
H910 H 0.88583 0.71082 0.87011 0.0
H911 H 0.88718 0.71467 0.84712 0.0
H912 H 0.85668 0.71479 0.81414 0.0
H913 H 0.82254 0.70455 0.84682 0.0
H914 H 0.82152 0.7015 0.86998 0.0
H915 H 0.945 0.72592 0.81709 0.0
H916 H 0.93765 0.73489 0.82539 0.0
H917 H 0.945 0.74039 0.80949 0.0
C918 C 0.85997 0.62869 0.39885 0.0
C919 C 0.86989 0.63929 0.40886 0.0
C920 C 0.86052 0.63441 0.43054 0.0
C921 C 0.86332 0.64737 0.43515 0.0
C922 C 0.85484 0.64859 0.44438 0.0
C923 C 0.84327 0.63658 0.44897 0.0
C924 C 0.84078 0.62346 0.44472 0.0
C925 C 0.84961 0.62256 0.43569 0.0
C926 C 0.85799 0.66272 0.44892 0.0
C927 C 0.82848 0.61044 0.4493 0.0
C928 C 0.75453 0.64258 0.41528 0.0
C929 C 0.763 0.63747 0.4216 0.0
C930 C 0.78406 0.64587 0.43456 0.0
C931 C 0.78149 0.63271 0.43803 0.0
C932 C 0.79092 0.63112 0.44572 0.0
C933 C 0.80315 0.6429 0.45006 0.0
C934 C 0.80572 0.65615 0.44671 0.0
C935 C 0.79611 0.65745 0.439 0.0
C936 C 0.78789 0.61683 0.4491 0.0
C937 C 0.81867 0.6689 0.4512 0.0
C938 C 0.778 0.63458 0.53439 0.0
C939 C 0.77538 0.62269 0.52726 0.0
C940 C 0.78583 0.62227 0.52025 0.0
C941 C 0.7991 0.63402 0.52017 0.0
C942 C 0.80179 0.64595 0.52737 0.0
C943 C 0.79121 0.64603 0.53445 0.0
C944 C 0.78265 0.60928 0.51282 0.0
C945 C 0.81581 0.65866 0.52747 0.0
C946 C 0.88193 0.60902 0.5287 0.0
C947 C 0.87798 0.61931 0.53408 0.0
C948 C 0.85559 0.6173 0.53031 0.0
C949 C 0.8423 0.60753 0.52635 0.0
C950 C 0.83355 0.61151 0.52054 0.0
C951 C 0.83817 0.62566 0.51893 0.0
C952 C 0.85135 0.63564 0.52361 0.0
C953 C 0.85995 0.63136 0.52925 0.0
C954 C 0.81949 0.60059 0.51584 0.0
C955 C 0.8564 0.6508 0.52243 0.0
C956 C 0.8331 0.6378 0.45718 0.0
C957 C 0.82357 0.64026 0.4508 0.0
C958 C 0.81345 0.64125 0.4577 0.0
C959 C 0.81283 0.6399 0.4714 0.0
C960 C 0.80288 0.64102 0.47865 0.0
C961 C 0.8021 0.63928 0.49209 0.0
C962 C 0.81115 0.63621 0.49878 0.0
C963 C 0.81009 0.63387 0.51236 0.0
C964 C 0.81923 0.6308 0.51869 0.0
C965 C 0.82943 0.62992 0.5118 0.0
C966 C 0.8307 0.63228 0.49822 0.0
C967 C 0.84087 0.63149 0.49099 0.0
C968 C 0.84185 0.63355 0.47758 0.0
C969 C 0.83255 0.63621 0.47086 0.0
C970 C 0.82233 0.63723 0.47798 0.0
C971 C 0.82145 0.63533 0.49169 0.0
C972 C 0.74702 0.62675 0.52938 0.0
C973 C 0.75432 0.62604 0.54176 0.0
O974 O 0.86801 0.63314 0.4209 0.0
O975 O 0.86384 0.61276 0.53509 0.0
O976 O 0.76822 0.63555 0.54127 0.0
O977 O 0.77524 0.6478 0.42697 0.0
H978 H 0.86745 0.64775 0.40932 0.0
H979 H 0.84924 0.62496 0.40186 0.0
H980 H 0.86157 0.61971 0.39811 0.0
H981 H 0.86143 0.6334 0.3891 0.0
H982 H 0.87205 0.65651 0.43138 0.0
H983 H 0.84767 0.6126 0.43213 0.0
H984 H 0.85024 0.66498 0.44475 0.0
H985 H 0.86831 0.67086 0.44587 0.0
H986 H 0.85739 0.6631 0.45971 0.0
H987 H 0.82769 0.60108 0.44464 0.0
H988 H 0.81895 0.61069 0.44709 0.0
H989 H 0.82913 0.60968 0.46003 0.0
H990 H 0.7643 0.6298 0.41568 0.0
H991 H 0.75409 0.63975 0.40463 0.0
H992 H 0.76149 0.65394 0.41379 0.0
H993 H 0.73701 0.63466 0.42686 0.0
H994 H 0.77218 0.62363 0.43473 0.0
H995 H 0.798 0.66755 0.43632 0.0
H996 H 0.79615 0.6151 0.44538 0.0
H997 H 0.77792 0.6087 0.44494 0.0
H998 H 0.78769 0.61579 0.45986 0.0
H999 H 0.8189 0.67849 0.44822 0.0
H1000 H 0.82769 0.6688 0.44705 0.0
H1001 H 0.81965 0.66899 0.46199 0.0
H1002 H 0.75277 0.6155 0.54266 0.0
H1003 H 0.76525 0.61371 0.52705 0.0
H1004 H 0.79316 0.65514 0.53997 0.0
H1005 H 0.78336 0.61123 0.50219 0.0
H1006 H 0.77223 0.60062 0.51488 0.0
H1007 H 0.79028 0.60616 0.51537 0.0
H1008 H 0.81609 0.66732 0.53311 0.0
H1009 H 0.819 0.66199 0.51732 0.0
H1010 H 0.8234 0.65627 0.53183 0.0
H1011 H 0.88171 0.62778 0.52693 0.0
H1012 H 0.89324 0.61403 0.52773 0.0
H1013 H 0.87715 0.60523 0.5189 0.0
H1014 H 0.87835 0.60007 0.53522 0.0
H1015 H 0.83895 0.59672 0.52744 0.0
H1016 H 0.87004 0.63898 0.53282 0.0
H1017 H 0.81831 0.60175 0.50525 0.0
H1018 H 0.81156 0.60188 0.52098 0.0
H1019 H 0.81757 0.59002 0.51752 0.0
H1020 H 0.86639 0.65726 0.52755 0.0
H1021 H 0.84874 0.65325 0.52651 0.0
H1022 H 0.85761 0.65356 0.51197 0.0
H1023 H 0.8239 0.64121 0.44027 0.0
H1024 H 0.79555 0.64322 0.474 0.0
H1025 H 0.79421 0.64023 0.49715 0.0
H1026 H 0.81822 0.62881 0.52907 0.0
H1027 H 0.84818 0.62926 0.49559 0.0
H1028 H 0.84988 0.63284 0.47252 0.0
H1029 H 0.73587 0.61921 0.5298 0.0
H1030 H 0.75115 0.62425 0.52063 0.0
H1031 H 0.7485 0.63724 0.5283 0.0
C1032 C 0.386 0.24246 0.40486 0.0
C1033 C 0.37353 0.23842 0.41342 0.0
C1034 C 0.37469 0.23155 0.43543 0.0
C1035 C 0.36109 0.22143 0.43767 0.0
C1036 C 0.35805 0.21089 0.44653 0.0
C1037 C 0.36888 0.21036 0.45306 0.0
C1038 C 0.38263 0.22079 0.45099 0.0
C1039 C 0.38531 0.23145 0.44239 0.0
C1040 C 0.34328 0.20014 0.44868 0.0
C1041 C 0.39452 0.22044 0.45747 0.0
C1042 C 0.35842 0.11502 0.41596 0.0
C1043 C 0.36348 0.12855 0.4227 0.0
C1044 C 0.35575 0.1403 0.43764 0.0
C1045 C 0.36897 0.15124 0.44066 0.0
C1046 C 0.37085 0.16232 0.44861 0.0
C1047 C 0.35928 0.16257 0.45353 0.0
C1048 C 0.34596 0.15154 0.45061 0.0
C1049 C 0.34438 0.14048 0.44277 0.0
C1050 C 0.38521 0.17386 0.45164 0.0
C1051 C 0.33341 0.15155 0.45562 0.0
C1052 C 0.36367 0.14356 0.53785 0.0
C1053 C 0.37599 0.15289 0.53181 0.0
C1054 C 0.3771 0.16418 0.52503 0.0
C1055 C 0.36563 0.16609 0.52412 0.0
C1056 C 0.35328 0.15682 0.53028 0.0
C1057 C 0.3525 0.14571 0.53712 0.0
C1058 C 0.3905 0.17399 0.51871 0.0
C1059 C 0.34086 0.15855 0.52948 0.0
C1060 C 0.39433 0.27522 0.53489 0.0
C1061 C 0.38356 0.26105 0.53966 0.0
C1062 C 0.38473 0.24013 0.53575 0.0
C1063 C 0.3942 0.23616 0.5322 0.0
C1064 C 0.38994 0.2234 0.52605 0.0
C1065 C 0.3758 0.21429 0.52367 0.0
C1066 C 0.36609 0.21793 0.52791 0.0
C1067 C 0.37066 0.23085 0.53391 0.0
C1068 C 0.40057 0.21978 0.52183 0.0
C1069 C 0.35093 0.20825 0.52589 0.0
C1070 C 0.36594 0.19831 0.46113 0.0
C1071 C 0.36311 0.18617 0.45456 0.0
C1072 C 0.36119 0.17464 0.46133 0.0
C1073 C 0.36203 0.17512 0.4751 0.0
C1074 C 0.3603 0.16375 0.48222 0.0
C1075 C 0.36152 0.16445 0.49576 0.0
C1076 C 0.36466 0.17659 0.50269 0.0
C1077 C 0.36648 0.17758 0.51641 0.0
C1078 C 0.36972 0.18984 0.52299 0.0
C1079 C 0.37129 0.20126 0.51623 0.0
C1080 C 0.36943 0.20045 0.50251 0.0
C1081 C 0.37089 0.21173 0.4954 0.0
C1082 C 0.36944 0.21096 0.48187 0.0
C1083 C 0.36672 0.19897 0.47492 0.0
C1084 C 0.36487 0.18736 0.48191 0.0
C1085 C 0.36622 0.1881 0.49573 0.0
C1086 C 0.37122 0.12007 0.53308 0.0
C1087 C 0.37123 0.12768 0.54561 0.0
O1088 O 0.3778 0.24131 0.42637 0.0
O1089 O 0.38957 0.25295 0.54093 0.0
O1090 O 0.362 0.13237 0.54439 0.0
O1091 O 0.35355 0.12948 0.42982 0.0
H1092 H 0.36646 0.22716 0.41185 0.0
H1093 H 0.39102 0.2365 0.40768 0.0
H1094 H 0.39358 0.2536 0.40607 0.0
H1095 H 0.38282 0.24015 0.39443 0.0
H1096 H 0.3529 0.22177 0.43241 0.0
H1097 H 0.39577 0.23941 0.4406 0.0
H1098 H 0.34112 0.19031 0.44391 0.0
H1099 H 0.33608 0.2032 0.44457 0.0
H1100 H 0.34131 0.19824 0.45927 0.0
H1101 H 0.40454 0.22826 0.45349 0.0
H1102 H 0.39346 0.21012 0.45618 0.0
H1103 H 0.39458 0.22247 0.46809 0.0
H1104 H 0.36957 0.13771 0.41652 0.0
H1105 H 0.36948 0.10694 0.42508 0.0
H1106 H 0.35925 0.11733 0.40524 0.0
H1107 H 0.34688 0.10971 0.41601 0.0
H1108 H 0.37789 0.15123 0.43684 0.0
H1109 H 0.33423 0.13199 0.44044 0.0
H1110 H 0.38679 0.18346 0.44711 0.0
H1111 H 0.39315 0.17161 0.44796 0.0
H1112 H 0.38667 0.17576 0.46234 0.0
H1113 H 0.32375 0.14236 0.45221 0.0
H1114 H 0.33341 0.16094 0.45236 0.0
H1115 H 0.33366 0.15182 0.46645 0.0
H1116 H 0.38171 0.13651 0.54754 0.0
H1117 H 0.38477 0.15145 0.53223 0.0
H1118 H 0.34305 0.1385 0.54182 0.0
H1119 H 0.3891 0.17323 0.50794 0.0
H1120 H 0.39879 0.17179 0.52126 0.0
H1121 H 0.39378 0.18474 0.52173 0.0
H1122 H 0.33189 0.15023 0.53451 0.0
H1123 H 0.33803 0.15862 0.51909 0.0
H1124 H 0.34331 0.16859 0.53396 0.0
H1125 H 0.37528 0.25666 0.53207 0.0
H1126 H 0.38976 0.28192 0.53373 0.0
H1127 H 0.39821 0.27414 0.52527 0.0
H1128 H 0.40312 0.28024 0.54188 0.0
H1129 H 0.40501 0.24331 0.53389 0.0
H1130 H 0.36324 0.23364 0.53716 0.0
H1131 H 0.39959 0.21758 0.51116 0.0
H1132 H 0.39881 0.21033 0.52681 0.0
H1133 H 0.41118 0.22816 0.5241 0.0
H1134 H 0.34465 0.21213 0.53066 0.0
H1135 H 0.34801 0.198 0.52984 0.0
H1136 H 0.34846 0.20686 0.51529 0.0
H1137 H 0.36275 0.18581 0.44397 0.0
H1138 H 0.35804 0.1542 0.47739 0.0
H1139 H 0.3601 0.15538 0.5007 0.0
H1140 H 0.37133 0.1906 0.53349 0.0
H1141 H 0.37322 0.22131 0.50019 0.0
H1142 H 0.37067 0.21995 0.4769 0.0
H1143 H 0.37852 0.1162 0.5341 0.0
H1144 H 0.37443 0.12709 0.52467 0.0
H1145 H 0.36081 0.11124 0.53095 0.0
C1146 C 0.85574 0.23194 0.40634 0.0
C1147 C 0.86676 0.23756 0.41718 0.0
C1148 C 0.8557 0.21937 0.43344 0.0
C1149 C 0.84587 0.22283 0.43746 0.0
C1150 C 0.83523 0.21424 0.44576 0.0
C1151 C 0.8344 0.20197 0.45017 0.0
C1152 C 0.84455 0.19871 0.44657 0.0
C1153 C 0.85511 0.20752 0.43829 0.0
C1154 C 0.82463 0.21808 0.44953 0.0
C1155 C 0.84399 0.18574 0.45117 0.0
C1156 C 0.75757 0.14693 0.39599 0.0
C1157 C 0.76125 0.13981 0.40658 0.0
C1158 C 0.7667 0.14899 0.42872 0.0
C1159 C 0.77635 0.14514 0.43218 0.0
C1160 C 0.78633 0.15251 0.44186 0.0
C1161 C 0.78674 0.16404 0.44806 0.0
C1162 C 0.77661 0.16755 0.44497 0.0
C1163 C 0.76653 0.15977 0.43548 0.0
C1164 C 0.79674 0.14825 0.44514 0.0
C1165 C 0.77681 0.1799 0.45122 0.0
C1166 C 0.75786 0.14838 0.5304 0.0
C1167 C 0.76715 0.14374 0.52804 0.0
C1168 C 0.77986 0.15238 0.5223 0.0
C1169 C 0.78327 0.16588 0.51883 0.0
C1170 C 0.77417 0.17074 0.52172 0.0
C1171 C 0.76162 0.16194 0.52761 0.0
C1172 C 0.78954 0.14705 0.51973 0.0
C1173 C 0.77756 0.18513 0.51832 0.0
C1174 C 0.87977 0.25302 0.53169 0.0
C1175 C 0.87141 0.24636 0.54391 0.0
C1176 C 0.85426 0.22317 0.53582 0.0
C1177 C 0.85121 0.2095 0.53502 0.0
C1178 C 0.84001 0.19965 0.52756 0.0
C1179 C 0.8315 0.20357 0.52093 0.0
C1180 C 0.83428 0.21731 0.52198 0.0
C1181 C 0.84573 0.22702 0.52926 0.0
C1182 C 0.83737 0.1851 0.52666 0.0
C1183 C 0.8252 0.22179 0.51531 0.0
C1184 C 0.82228 0.19203 0.4576 0.0
C1185 C 0.81071 0.18262 0.45043 0.0
C1186 C 0.79861 0.17331 0.45658 0.0
C1187 C 0.79797 0.17333 0.47035 0.0
C1188 C 0.78598 0.16413 0.47688 0.0
C1189 C 0.78533 0.16456 0.49042 0.0
C1190 C 0.79672 0.17407 0.49796 0.0
C1191 C 0.7961 0.17474 0.51171 0.0
C1192 C 0.8076 0.18433 0.5189 0.0
C1193 C 0.81982 0.19336 0.51272 0.0
C1194 C 0.82066 0.19284 0.49898 0.0
C1195 C 0.8328 0.20175 0.49244 0.0
C1196 C 0.83338 0.2015 0.47889 0.0
C1197 C 0.8219 0.1922 0.47137 0.0
C1198 C 0.80965 0.18287 0.47777 0.0
C1199 C 0.80903 0.18321 0.49158 0.0
C1200 C 0.72282 0.12232 0.52952 0.0
C1201 C 0.73735 0.12599 0.5336 0.0
O1202 O 0.86569 0.22693 0.42477 0.0
O1203 O 0.86549 0.23218 0.54299 0.0
O1204 O 0.74523 0.14012 0.53535 0.0
O1205 O 0.75773 0.14275 0.41865 0.0
H1206 H 0.86551 0.24502 0.42342 0.0
H1207 H 0.84533 0.22705 0.41054 0.0
H1208 H 0.85652 0.22413 0.40022 0.0
H1209 H 0.85692 0.24044 0.40004 0.0
H1210 H 0.84624 0.23207 0.43402 0.0
H1211 H 0.86279 0.20498 0.43527 0.0
H1212 H 0.81454 0.21044 0.44522 0.0
H1213 H 0.82729 0.22847 0.44615 0.0
H1214 H 0.82353 0.2178 0.4603 0.0
H1215 H 0.85294 0.18493 0.4479 0.0
H1216 H 0.83447 0.17664 0.44739 0.0
H1217 H 0.84365 0.18544 0.46199 0.0
H1218 H 0.77255 0.14414 0.40605 0.0
H1219 H 0.76023 0.14465 0.38621 0.0
H1220 H 0.74646 0.14351 0.39609 0.0
H1221 H 0.76344 0.15825 0.3977 0.0
H1222 H 0.77618 0.1365 0.42717 0.0
H1223 H 0.75891 0.16252 0.43281 0.0
H1224 H 0.79806 0.14823 0.45588 0.0
H1225 H 0.8068 0.1558 0.44106 0.0
H1226 H 0.79375 0.1379 0.44107 0.0
H1227 H 0.76865 0.18165 0.44721 0.0
H1228 H 0.78691 0.18926 0.4497 0.0
H1229 H 0.77539 0.17843 0.46189 0.0
H1230 H 0.74137 0.12242 0.52545 0.0
H1231 H 0.76453 0.13341 0.53068 0.0
H1232 H 0.75446 0.16548 0.52968 0.0
H1233 H 0.7907 0.14636 0.50905 0.0
H1234 H 0.78587 0.13673 0.52392 0.0
H1235 H 0.79984 0.15431 0.52391 0.0
H1236 H 0.76926 0.18726 0.52101 0.0
H1237 H 0.77936 0.18667 0.50768 0.0
H1238 H 0.78715 0.19273 0.52346 0.0
H1239 H 0.86331 0.24918 0.54496 0.0
H1240 H 0.8846 0.26439 0.53242 0.0
H1241 H 0.87303 0.24942 0.52287 0.0
H1242 H 0.88792 0.25029 0.53048 0.0
H1243 H 0.85781 0.2066 0.54013 0.0
H1244 H 0.84786 0.23753 0.52974 0.0
H1245 H 0.83673 0.18189 0.51627 0.0
H1246 H 0.82738 0.17803 0.53116 0.0
H1247 H 0.84549 0.18393 0.53167 0.0
H1248 H 0.82764 0.23227 0.51848 0.0
H1249 H 0.81426 0.21446 0.51735 0.0
H1250 H 0.82654 0.22177 0.50459 0.0
H1251 H 0.81106 0.18267 0.43985 0.0
H1252 H 0.77691 0.15659 0.47157 0.0
H1253 H 0.77575 0.15735 0.49489 0.0
H1254 H 0.80699 0.18488 0.52943 0.0
H1255 H 0.84198 0.20912 0.49772 0.0
H1256 H 0.84294 0.20869 0.47438 0.0
H1257 H 0.71629 0.11103 0.52797 0.0
H1258 H 0.72312 0.12745 0.52024 0.0
H1259 H 0.71813 0.12578 0.5371 0.0
C1260 C 0.02967 0.47495 0.2688 0.0
C1261 C 0.01787 0.46375 0.26061 0.0
C1262 C 0.0162 0.47167 0.23919 0.0
C1263 C 0.00208 0.46633 0.23758 0.0
C1264 C 0.99704 0.47271 0.22932 0.0
C1265 C 0.00637 0.48475 0.2227 0.0
C1266 C 0.02065 0.48995 0.2241 0.0
C1267 C 0.02537 0.48314 0.23217 0.0
C1268 C 0.98175 0.4667 0.22784 0.0
C1269 C 0.03093 0.50288 0.21736 0.0
C1270 C 0.97116 0.53046 0.2722 0.0
C1271 C 0.9824 0.54003 0.26295 0.0
C1272 C 0.98099 0.53103 0.2411 0.0
C1273 C 0.99479 0.53623 0.23803 0.0
C1274 C 0.99864 0.52925 0.22911 0.0
C1275 C 0.98846 0.51669 0.22333 0.0
C1276 C 0.97447 0.51163 0.22618 0.0
C1277 C 0.9709 0.51906 0.23486 0.0
C1278 C 0.01362 0.53511 0.22611 0.0
C1279 C 0.96333 0.49815 0.22046 0.0
C1280 C 0.96924 0.52531 0.14119 0.0
C1281 C 0.9834 0.53247 0.14387 0.0
C1282 C 0.98979 0.52574 0.14951 0.0
C1283 C 0.98181 0.51166 0.15263 0.0
C1284 C 0.96766 0.50433 0.14939 0.0
C1285 C 0.96161 0.51124 0.14354 0.0
C1286 C 0.00499 0.53373 0.15239 0.0
C1287 C 0.95886 0.48927 0.15242 0.0
C1288 C 0.01935 0.4382 0.14414 0.0
C1289 C 0.00844 0.44074 0.13796 0.0
C1290 C 0.00935 0.46292 0.14067 0.0
C1291 C 0.0188 0.47682 0.14296 0.0
C1292 C 0.01479 0.48564 0.14867 0.0
C1293 C 0.00092 0.48039 0.15206 0.0
C1294 C 0.99114 0.46653 0.14902 0.0
C1295 C 0.99543 0.45794 0.14324 0.0
C1296 C 0.02545 0.50044 0.15155 0.0
C1297 C 0.97621 0.46071 0.15221 0.0
C1298 C 0.00122 0.49235 0.21496 0.0
C1299 C 0.99741 0.50073 0.22176 0.0
C1300 C 0.99254 0.50831 0.21524 0.0
C1301 C 0.99151 0.50764 0.20147 0.0
C1302 C 0.9868 0.51523 0.19456 0.0
C1303 C 0.98553 0.51425 0.18103 0.0
C1304 C 0.98923 0.50587 0.17384 0.0
C1305 C 0.98797 0.50478 0.16006 0.0
C1306 C 0.99193 0.49651 0.15321 0.0
C1307 C 0.99691 0.48904 0.15979 0.0
C1308 C 0.99797 0.48977 0.17357 0.0
C1309 C 0.00261 0.4821 0.18051 0.0
C1310 C 0.00359 0.48285 0.19406 0.0
C1311 C 0.0001 0.49139 0.2012 0.0
C1312 C 0.9953 0.49912 0.19443 0.0
C1313 C 0.99421 0.49829 0.1806 0.0
C1314 C 0.95253 0.5445 0.14369 0.0
C1315 C 0.9656 0.54492 0.13904 0.0
O1316 O 0.0212 0.46594 0.24753 0.0
O1317 O 0.01407 0.45473 0.13598 0.0
O1318 O 0.96261 0.53158 0.13628 0.0
O1319 O 0.97724 0.53723 0.25027 0.0
H1320 H 0.00856 0.4645 0.26264 0.0
H1321 H 0.03142 0.48522 0.26601 0.0
H1322 H 0.03927 0.47466 0.26719 0.0
H1323 H 0.02718 0.47354 0.27934 0.0
H1324 H 0.99502 0.45719 0.2428 0.0
H1325 H 0.03627 0.48706 0.23343 0.0
H1326 H 0.97872 0.47366 0.23268 0.0
H1327 H 0.97591 0.45638 0.23224 0.0
H1328 H 0.97884 0.46586 0.21735 0.0
H1329 H 0.04165 0.50618 0.22033 0.0
H1330 H 0.02886 0.51137 0.2196 0.0
H1331 H 0.02991 0.50111 0.20664 0.0
H1332 H 0.99102 0.5379 0.26402 0.0
H1333 H 0.97509 0.53243 0.28243 0.0
H1334 H 0.96777 0.51958 0.26958 0.0
H1335 H 0.96216 0.53198 0.27153 0.0
H1336 H 0.00253 0.5457 0.24272 0.0
H1337 H 0.96026 0.51523 0.23727 0.0
H1338 H 0.01741 0.52876 0.23079 0.0
H1339 H 0.01997 0.54589 0.22975 0.0
H1340 H 0.01504 0.53479 0.21542 0.0
H1341 H 0.95312 0.49507 0.22459 0.0
H1342 H 0.96577 0.48987 0.22227 0.0
H1343 H 0.96272 0.49903 0.20974 0.0
H1344 H 0.97326 0.54955 0.14717 0.0
H1345 H 0.98944 0.54326 0.14155 0.0
H1346 H 0.95075 0.50579 0.14118 0.0
H1347 H 0.00675 0.53503 0.16311 0.0
H1348 H 0.01001 0.54407 0.14797 0.0
H1349 H 0.00993 0.52796 0.14869 0.0
H1350 H 0.9479 0.48522 0.1498 0.0
H1351 H 0.95965 0.48764 0.16298 0.0
H1352 H 0.9626 0.48325 0.14694 0.0
H1353 H -0.00011 0.4369 0.145 0.0
H1354 H 0.0151 0.42704 0.14581 0.0
H1355 H 0.02272 0.44373 0.1537 0.0
H1356 H 0.02843 0.44198 0.13777 0.0
H1357 H 0.02947 0.48063 0.14066 0.0
H1358 H 0.98791 0.44737 0.14084 0.0
H1359 H 0.0268 0.50219 0.16227 0.0
H1360 H 0.02196 0.50738 0.14767 0.0
H1361 H 0.03553 0.50324 0.14727 0.0
H1362 H 0.96983 0.44976 0.14907 0.0
H1363 H 0.97223 0.46681 0.14736 0.0
H1364 H 0.97511 0.46151 0.16289 0.0
H1365 H 0.99821 0.50133 0.23234 0.0
H1366 H 0.98393 0.52194 0.19957 0.0
H1367 H 0.98167 0.5202 0.17628 0.0
H1368 H 0.99096 0.49574 0.14266 0.0
H1369 H 0.00549 0.47538 0.17556 0.0
H1370 H 0.00715 0.47666 0.19886 0.0
H1371 H 0.94444 0.54007 0.13594 0.0
H1372 H 0.95462 0.55501 0.14634 0.0
H1373 H 0.94866 0.53801 0.15247 0.0
C1374 C 0.45879 0.40362 0.24954 0.0
C1375 C 0.45845 0.41547 0.25677 0.0
C1376 C 0.46742 0.43483 0.24155 0.0
C1377 C 0.46394 0.44329 0.23462 0.0
C1378 C 0.47382 0.4546 0.22774 0.0
C1379 C 0.48748 0.45726 0.22752 0.0
C1380 C 0.49109 0.44869 0.23446 0.0
C1381 C 0.48105 0.43763 0.24151 0.0
C1382 C 0.46963 0.46369 0.22073 0.0
C1383 C 0.50556 0.45119 0.2344 0.0
C1384 C 0.57625 0.55338 0.26359 0.0
C1385 C 0.5678 0.53971 0.25707 0.0
C1386 C 0.54641 0.52657 0.24459 0.0
C1387 C 0.54916 0.51619 0.24052 0.0
C1388 C 0.53972 0.50509 0.23268 0.0
C1389 C 0.5273 0.50435 0.22878 0.0
C1390 C 0.52452 0.51478 0.2328 0.0
C1391 C 0.53414 0.52578 0.24066 0.0
C1392 C 0.54301 0.49412 0.22856 0.0
C1393 C 0.5114 0.51431 0.22876 0.0
C1394 C 0.55325 0.52491 0.14534 0.0
C1395 C 0.55621 0.51611 0.15254 0.0
C1396 C 0.54579 0.5047 0.15888 0.0
C1397 C 0.53222 0.50231 0.15843 0.0
C1398 C 0.52919 0.51115 0.15123 0.0
C1399 C 0.53974 0.52224 0.14465 0.0
C1400 C 0.54934 0.49523 0.16611 0.0
C1401 C 0.51486 0.50898 0.15063 0.0
C1402 C 0.45344 0.39605 0.14424 0.0
C1403 C 0.4551 0.40897 0.13774 0.0
C1404 C 0.47676 0.43 0.14279 0.0
C1405 C 0.49014 0.43351 0.14625 0.0
C1406 C 0.49861 0.44553 0.15354 0.0
C1407 C 0.49364 0.45442 0.15717 0.0
C1408 C 0.48029 0.45122 0.15321 0.0
C1409 C 0.47196 0.43901 0.14607 0.0
C1410 C 0.51282 0.44866 0.15748 0.0
C1411 C 0.47484 0.46071 0.15652 0.0
C1412 C 0.49799 0.46903 0.22007 0.0
C1413 C 0.5071 0.481 0.22702 0.0
C1414 C 0.5172 0.49251 0.22065 0.0
C1415 C 0.51803 0.49229 0.2069 0.0
C1416 C 0.52774 0.50386 0.20014 0.0
C1417 C 0.52866 0.50345 0.18664 0.0
C1418 C 0.52005 0.49139 0.17938 0.0
C1419 C 0.52127 0.49071 0.16571 0.0
C1420 C 0.5124 0.47863 0.15876 0.0
C1421 C 0.50241 0.46703 0.16514 0.0
C1422 C 0.50121 0.46742 0.17885 0.0
C1423 C 0.49153 0.45584 0.18563 0.0
C1424 C 0.49046 0.45632 0.19912 0.0
C1425 C 0.49902 0.46841 0.20636 0.0
C1426 C 0.50898 0.48014 0.19975 0.0
C1427 C 0.51003 0.47967 0.18597 0.0
C1428 C 0.58245 0.55101 0.15213 0.0
C1429 C 0.57708 0.54192 0.13981 0.0
O1430 O 0.45725 0.42407 0.24795 0.0
O1431 O 0.46895 0.41808 0.13599 0.0
O1432 O 0.56294 0.53601 0.13888 0.0
O1433 O 0.55529 0.53744 0.25226 0.0
H1434 H 0.46802 0.42137 0.2627 0.0
H1435 H 0.46779 0.40761 0.24307 0.0
H1436 H 0.44938 0.39762 0.24345 0.0
H1437 H 0.45958 0.39664 0.25665 0.0
H1438 H 0.45341 0.44106 0.23471 0.0
H1439 H 0.48394 0.43119 0.24681 0.0
H1440 H 0.47689 0.47468 0.22316 0.0
H1441 H 0.4591 0.46129 0.22326 0.0
H1442 H 0.46998 0.46227 0.21004 0.0
H1443 H 0.50635 0.44268 0.23894 0.0
H1444 H 0.51239 0.46087 0.23989 0.0
H1445 H 0.50934 0.45245 0.22425 0.0
H1446 H 0.56692 0.53082 0.26262 0.0
H1447 H 0.57711 0.55103 0.27409 0.0
H1448 H 0.56917 0.55752 0.26566 0.0
H1449 H 0.59335 0.56339 0.25154 0.0
H1450 H 0.55862 0.51665 0.24342 0.0
H1451 H 0.53211 0.53383 0.24381 0.0
H1452 H 0.53481 0.48391 0.23181 0.0
H1453 H 0.55298 0.49602 0.23264 0.0
H1454 H 0.54336 0.49367 0.21775 0.0
H1455 H 0.51092 0.52341 0.2324 0.0
H1456 H 0.50251 0.50487 0.23257 0.0
H1457 H 0.51043 0.51378 0.21795 0.0
H1458 H 0.57995 0.53381 0.14016 0.0
H1459 H 0.56656 0.51795 0.15326 0.0
H1460 H 0.53753 0.52905 0.13907 0.0
H1461 H 0.54883 0.49672 0.17677 0.0
H1462 H 0.55979 0.49723 0.16384 0.0
H1463 H 0.54184 0.48432 0.16364 0.0
H1464 H 0.51441 0.51739 0.14547 0.0
H1465 H 0.51092 0.50831 0.16066 0.0
H1466 H 0.50796 0.49909 0.14548 0.0
H1467 H 0.45053 0.41345 0.14438 0.0
H1468 H 0.44242 0.3886 0.14586 0.0
H1469 H 0.45884 0.39884 0.15386 0.0
H1470 H 0.45784 0.39104 0.13809 0.0
H1471 H 0.49382 0.4266 0.14345 0.0
H1472 H 0.46183 0.43665 0.14289 0.0
H1473 H 0.51429 0.45043 0.1682 0.0
H1474 H 0.52054 0.45824 0.15274 0.0
H1475 H 0.51479 0.44023 0.15468 0.0
H1476 H 0.46471 0.45734 0.15182 0.0
H1477 H 0.48219 0.47132 0.1534 0.0
H1478 H 0.47376 0.46107 0.16725 0.0
H1479 H 0.50644 0.4813 0.23757 0.0
H1480 H 0.53472 0.51339 0.20522 0.0
H1481 H 0.53629 0.5127 0.18196 0.0
H1482 H 0.51344 0.47818 0.14828 0.0
H1483 H 0.48469 0.44624 0.1806 0.0
H1484 H 0.48285 0.44707 0.20381 0.0
H1485 H 0.59378 0.55584 0.15292 0.0
H1486 H 0.57793 0.54472 0.16093 0.0
H1487 H 0.5797 0.55922 0.15195 0.0
C1488 C 0.45462 0.98278 0.27285 0.0
C1489 C 0.45095 0.99209 0.26512 0.0
C1490 C 0.4577 0.99087 0.24302 0.0
C1491 C 0.46724 0.00464 0.2405 0.0
C1492 C 0.47784 0.008 0.23164 0.0
C1493 C 0.47891 0.99734 0.22524 0.0
C1494 C 0.46891 0.98343 0.22734 0.0
C1495 C 0.45828 0.98038 0.23611 0.0
C1496 C 0.48812 0.02293 0.22937 0.0
C1497 C 0.46975 0.97182 0.2207 0.0
C1498 C 0.55354 0.02016 0.27432 0.0
C1499 C 0.55378 0.00972 0.26475 0.0
C1500 C 0.54791 0.01328 0.24303 0.0
C1501 C 0.53843 -6e-05 0.23866 0.0
C1502 C 0.52806 0.99769 0.22966 0.0
C1503 C 0.52713 0.00903 0.22508 0.0
C1504 C 0.53707 0.02256 0.22908 0.0
C1505 C 0.5475 0.02452 0.23788 0.0
C1506 C 0.51783 0.98316 0.22539 0.0
C1507 C 0.53632 0.03488 0.22448 0.0
C1508 C 0.55412 0.02543 0.14321 0.0
C1509 C 0.54529 0.01129 0.14493 0.0
C1510 C 0.53241 0.00644 0.15063 0.0
C1511 C 0.52835 0.01596 0.15465 0.0
C1512 C 0.53694 0.03013 0.15227 0.0
C1513 C 0.54969 0.03466 0.14644 0.0
C1514 C 0.52328 0.99122 0.15265 0.0
C1515 C 0.53284 0.04053 0.15626 0.0
C1516 C 0.42014 0.98824 0.14884 0.0
C1517 C 0.43324 0.99786 0.14158 0.0
C1518 C 0.45335 0.99495 0.14378 0.0
C1519 C 0.45659 0.98463 0.14583 0.0
C1520 C 0.46927 0.98771 0.15128 0.0
C1521 C 0.47896 0.0015 0.15467 0.0
C1522 C 0.4761 0.01211 0.15184 0.0
C1523 C 0.46334 0.00874 0.14631 0.0
C1524 C 0.47213 0.97618 0.15388 0.0
C1525 C 0.48637 0.02696 0.15502 0.0
C1526 C 0.4911 0.00074 0.21727 0.0
C1527 C 0.503 0.00316 0.22387 0.0
C1528 C 0.51502 0.00662 0.21718 0.0
C1529 C 0.51527 0.00771 0.20346 0.0
C1530 C 0.52719 0.01121 0.19642 0.0
C1531 C 0.52737 0.01246 0.18292 0.0
C1532 C 0.51554 0.01002 0.17593 0.0
C1533 C 0.51561 0.01126 0.1622 0.0
C1534 C 0.5036 0.00844 0.15552 0.0
C1535 C 0.49149 0.00463 0.16224 0.0
C1536 C 0.49132 0.00371 0.17599 0.0
C1537 C 0.47941 0.0003 0.18308 0.0
C1538 C 0.47932 0.9994 0.1966 0.0
C1539 C 0.4911 0.00174 0.20355 0.0
C1540 C 0.50324 0.00524 0.19662 0.0
C1541 C 0.50336 0.0063 0.18283 0.0
C1542 C 0.58777 0.03696 0.14968 0.0
C1543 C 0.57599 0.02597 0.14132 0.0
O1544 O 0.44802 0.98747 0.25225 0.0
O1545 O 0.44055 0.99114 0.13931 0.0
O1546 O 0.5669 0.03051 0.13835 0.0
O1547 O 0.55727 0.01546 0.25249 0.0
H1548 H 0.45992 0.00271 0.26568 0.0
H1549 H 0.46389 0.98317 0.26871 0.0
H1550 H 0.44607 0.97195 0.27241 0.0
H1551 H 0.45687 0.98628 0.28322 0.0
H1552 H 0.46644 0.01274 0.24552 0.0
H1553 H 0.45072 0.96979 0.23804 0.0
H1554 H 0.49821 0.02539 0.2336 0.0
H1555 H 0.48498 0.02995 0.23388 0.0
H1556 H 0.4895 0.02489 0.21874 0.0
H1557 H 0.46124 0.96156 0.22349 0.0
H1558 H 0.47964 0.97247 0.22326 0.0
H1559 H 0.46943 0.97276 0.20995 0.0
H1560 H 0.5433 0.0005 0.26453 0.0
H1561 H 0.55079 0.01574 0.28422 0.0
H1562 H 0.54576 0.02284 0.27107 0.0
H1563 H 0.5637 0.02973 0.27484 0.0
H1564 H 0.53906 0.99131 0.24246 0.0
H1565 H 0.555 0.03478 0.24127 0.0
H1566 H 0.51644 0.98253 0.21461 0.0
H1567 H 0.50774 0.9801 0.22977 0.0
H1568 H 0.52103 0.9757 0.2284 0.0
H1569 H 0.54464 0.04468 0.22877 0.0
H1570 H 0.52629 0.03379 0.22713 0.0
H1571 H 0.53704 0.03544 0.21369 0.0
H1572 H 0.57099 0.01649 0.14723 0.0
H1573 H 0.54841 0.00403 0.14183 0.0
H1574 H 0.55648 0.04553 0.1448 0.0
H1575 H 0.52229 0.98913 0.16326 0.0
H1576 H 0.52736 0.98507 0.14794 0.0
H1577 H 0.51285 0.98776 0.14866 0.0
H1578 H 0.54063 0.05118 0.15362 0.0
H1579 H 0.53132 0.0402 0.16698 0.0
H1580 H 0.52294 0.0379 0.15149 0.0
H1581 H 0.43908 0.00708 0.14803 0.0
H1582 H 0.41405 0.99336 0.15073 0.0
H1583 H 0.42283 0.98552 0.15837 0.0
H1584 H 0.41376 0.97859 0.1431 0.0
H1585 H 0.44893 0.97405 0.14354 0.0
H1586 H 0.46124 0.0169 0.14404 0.0
H1587 H 0.47256 0.97495 0.16457 0.0
H1588 H 0.48225 0.97871 0.1499 0.0
H1589 H 0.46413 0.96623 0.14952 0.0
H1590 H 0.48273 0.03405 0.15196 0.0
H1591 H 0.49619 0.02991 0.15011 0.0
H1592 H 0.48849 0.02827 0.1657 0.0
H1593 H 0.50291 0.00239 0.23442 0.0
H1594 H 0.53655 0.0131 0.20128 0.0
H1595 H 0.53689 0.01531 0.17805 0.0
H1596 H 0.5037 0.0093 0.14498 0.0
H1597 H 0.47001 0.99835 0.17828 0.0
H1598 H 0.46989 0.9968 0.20155 0.0
H1599 H 0.59521 0.03356 0.15218 0.0
H1600 H 0.5837 0.03872 0.15889 0.0
H1601 H 0.5932 0.04685 0.14443 0.0
C1602 C 0.53342 0.98195 0.73861 0.0
C1603 C 0.54486 0.99336 0.74696 0.0
C1604 C 0.53667 0.99164 0.76895 0.0
C1605 C 0.54008 0.00513 0.7722 0.0
C1606 C 0.53224 0.00771 0.78116 0.0
C1607 C 0.52068 0.99651 0.78684 0.0
C1608 C 0.51751 0.98287 0.78386 0.0
C1609 C 0.52573 0.98063 0.77508 0.0
C1610 C 0.53613 0.02238 0.78435 0.0
C1611 C 0.50522 0.97068 0.78964 0.0
C1612 C 0.44401 0.01776 0.74988 0.0
C1613 C 0.45626 0.02074 0.75791 0.0
C1614 C 0.46323 0.00986 0.77438 0.0
C1615 C 0.4592 0.9975 0.78069 0.0
C1616 C 0.46873 0.99536 0.78763 0.0
C1617 C 0.48255 0.00611 0.78865 0.0
C1618 C 0.48664 0.01876 0.78249 0.0
C1619 C 0.47698 0.02045 0.77529 0.0
C1620 C 0.46401 0.98157 0.79374 0.0
C1621 C 0.50124 0.0305 0.78345 0.0
C1622 C 0.46509 0.01065 0.87132 0.0
C1623 C 0.46191 0.99717 0.86808 0.0
C1624 C 0.47158 0.99468 0.86196 0.0
C1625 C 0.48472 0.00587 0.85922 0.0
C1626 C 0.48821 0.01934 0.86323 0.0
C1627 C 0.47834 0.02154 0.86931 0.0
C1628 C 0.46766 0.98014 0.85812 0.0
C1629 C 0.50221 0.03145 0.86067 0.0
C1630 C 0.56261 0.97648 0.86208 0.0
C1631 C 0.56019 0.98546 0.8718 0.0
C1632 C 0.53817 0.98456 0.86865 0.0
C1633 C 0.52478 0.97494 0.86484 0.0
C1634 C 0.51611 0.9791 0.85918 0.0
C1635 C 0.52096 0.99327 0.85749 0.0
C1636 C 0.53426 0.00312 0.86197 0.0
C1637 C 0.54273 0.99866 0.86758 0.0
C1638 C 0.50188 0.96833 0.85473 0.0
C1639 C 0.53958 0.01832 0.8606 0.0
C1640 C 0.51143 0.99907 0.79517 0.0
C1641 C 0.50174 0.0014 0.78891 0.0
C1642 C 0.49275 0.00405 0.79601 0.0
C1643 C 0.49343 0.00446 0.8098 0.0
C1644 C 0.48481 0.00748 0.81725 0.0
C1645 C 0.48517 0.00732 0.8308 0.0
C1646 C 0.49423 0.00422 0.83744 0.0
C1647 C 0.49436 0.0036 0.85121 0.0
C1648 C 0.50336 0.00032 0.8575 0.0
C1649 C 0.51236 0.99769 0.85037 0.0
C1650 C 0.51255 0.99849 0.8366 0.0
C1651 C 0.52166 0.99616 0.82915 0.0
C1652 C 0.52149 0.99659 0.81559 0.0
C1653 C 0.51205 0.99912 0.80895 0.0
C1654 C 0.50295 0.00176 0.81628 0.0
C1655 C 0.5033 0.00157 0.83012 0.0
C1656 C 0.43865 0.01646 0.86582 0.0
C1657 C 0.44182 0.00687 0.87369 0.0
O1658 O 0.5437 0.98905 0.75974 0.0
O1659 O 0.54621 0.97981 0.87355 0.0
O1660 O 0.45576 0.01354 0.87655 0.0
O1661 O 0.4536 0.01111 0.76745 0.0
H1662 H 0.54365 0.0026 0.74642 0.0
H1663 H 0.52328 0.97968 0.74235 0.0
H1664 H 0.53403 0.97238 0.73893 0.0
H1665 H 0.53418 0.98523 0.72832 0.0
H1666 H 0.54881 0.01363 0.76765 0.0
H1667 H 0.52331 0.97024 0.77255 0.0
H1668 H 0.52841 0.02458 0.77997 0.0
H1669 H 0.54637 0.02988 0.78054 0.0
H1670 H 0.53616 0.02394 0.79507 0.0
H1671 H 0.50375 0.96073 0.78579 0.0
H1672 H 0.49582 0.9712 0.78752 0.0
H1673 H 0.50648 0.97094 0.80041 0.0
H1674 H 0.46237 0.03157 0.76158 0.0
H1675 H 0.44872 0.01357 0.73122 0.0
H1676 H 0.44224 0.02661 0.75196 0.0
H1677 H 0.43478 0.01008 0.75542 0.0
H1678 H 0.44858 0.98938 0.77992 0.0
H1679 H 0.48024 0.03011 0.77049 0.0
H1680 H 0.46388 0.98264 0.80451 0.0
H1681 H 0.47122 0.97782 0.79145 0.0
H1682 H 0.45356 0.97371 0.79035 0.0
H1683 H 0.50229 0.04028 0.7799 0.0
H1684 H 0.50786 0.02795 0.77748 0.0
H1685 H 0.50506 0.03209 0.7937 0.0
H1686 H 0.43858 0.99753 0.86749 0.0
H1687 H 0.45193 0.98858 0.87032 0.0
H1688 H 0.48078 0.03186 0.87214 0.0
H1689 H 0.46816 0.9793 0.84735 0.0
H1690 H 0.45717 0.97251 0.86128 0.0
H1691 H 0.47507 0.97751 0.8625 0.0
H1692 H 0.50366 0.04113 0.86522 0.0
H1693 H 0.50365 0.03291 0.84998 0.0
H1694 H 0.51026 0.02942 0.86447 0.0
H1695 H 0.56482 0.99589 0.86757 0.0
H1696 H 0.57377 0.98078 0.86059 0.0
H1697 H 0.55775 0.97619 0.85253 0.0
H1698 H 0.5581 0.96579 0.86562 0.0
H1699 H 0.52126 0.9641 0.86599 0.0
H1700 H 0.55282 0.00621 0.87119 0.0
H1701 H 0.50094 0.96878 0.84398 0.0
H1702 H 0.49418 0.97046 0.85922 0.0
H1703 H 0.49944 0.95777 0.85729 0.0
H1704 H 0.54999 0.0247 0.86496 0.0
H1705 H 0.53248 0.02112 0.86539 0.0
H1706 H 0.53993 0.02079 0.85011 0.0
H1707 H 0.50117 0.00111 0.77832 0.0
H1708 H 0.4776 0.0099 0.8127 0.0
H1709 H 0.47817 0.00957 0.836 0.0
H1710 H 0.50321 0.99959 0.86805 0.0
H1711 H 0.52903 0.99397 0.8337 0.0
H1712 H 0.52874 0.99472 0.81036 0.0
H1713 H 0.42751 0.01136 0.86347 0.0
H1714 H 0.44434 0.01902 0.85652 0.0
H1715 H 0.44177 0.02618 0.87135 0.0
C1716 C 0.01526 0.55357 0.74593 0.0
C1717 C 0.00389 0.55353 0.75404 0.0
C1718 C 0.00577 0.54692 0.77593 0.0
C1719 C 0.9924 0.5365 0.77855 0.0
C1720 C 0.99004 0.52585 0.78703 0.0
C1721 C 0.00133 0.52564 0.79289 0.0
C1722 C 0.01482 0.5365 0.79068 0.0
C1723 C 0.01685 0.54716 0.78235 0.0
C1724 C 0.97552 0.51461 0.7894 0.0
C1725 C 0.02711 0.53655 0.79668 0.0
C1726 C 0.00242 0.43569 0.75393 0.0
C1727 C 0.00605 0.44836 0.76168 0.0
C1728 C 0.9953 0.45888 0.77432 0.0
C1729 C 0.00766 0.46934 0.77987 0.0
C1730 C 0.00784 0.4795 0.78807 0.0
C1731 C 0.99542 0.47922 0.7908 0.0
C1732 C 0.98295 0.46866 0.78535 0.0
C1733 C 0.98306 0.45858 0.77719 0.0
C1734 C 0.02132 0.49061 0.79378 0.0
C1735 C 0.96954 0.46808 0.78813 0.0
C1736 C 0.98695 0.44985 0.87035 0.0
C1737 C 0.00052 0.46054 0.86886 0.0
C1738 C 0.00329 0.47338 0.86421 0.0
C1739 C 0.99227 0.47557 0.86119 0.0
C1740 C 0.97866 0.46514 0.8636 0.0
C1741 C 0.97619 0.45241 0.86821 0.0
C1742 C 0.01794 0.48444 0.86208 0.0
C1743 C 0.9667 0.46726 0.86077 0.0
C1744 C 0.01828 0.57961 0.86806 0.0
C1745 C 0.01 0.5704 0.8793 0.0
C1746 C 0.01086 0.54924 0.87669 0.0
C1747 C 0.02087 0.54592 0.87343 0.0
C1748 C 0.01738 0.53357 0.86681 0.0
C1749 C 0.00347 0.52422 0.86365 0.0
C1750 C 0.9932 0.52715 0.86763 0.0
C1751 C 0.997 0.53965 0.87414 0.0
C1752 C 0.02857 0.53066 0.86287 0.0
C1753 C 0.97825 0.5172 0.86474 0.0
C1754 C 0.99909 0.51341 0.80025 0.0
C1755 C 0.9975 0.50207 0.793 0.0
C1756 C 0.99564 0.49024 0.79911 0.0
C1757 C 0.99507 0.48949 0.81285 0.0
C1758 C 0.99292 0.47761 0.81927 0.0
C1759 C 0.99268 0.47708 0.83281 0.0
C1760 C 0.99476 0.48848 0.84046 0.0
C1761 C 0.99485 0.48814 0.85425 0.0
C1762 C 0.99747 0.49982 0.86157 0.0
C1763 C -0.00018 0.51185 0.85544 0.0
C1764 C 0.99927 0.51222 0.84167 0.0
C1765 C 0.00115 0.52402 0.8352 0.0
C1766 C 0.00082 0.52435 0.82164 0.0
C1767 C 0.99891 0.51302 0.81403 0.0
C1768 C 0.99688 0.50099 0.82034 0.0
C1769 C 0.9969 0.50054 0.83417 0.0
C1770 C 0.98233 0.41748 0.86298 0.0
C1771 C 0.99123 0.43048 0.8712 0.0
O1772 O 0.0082 0.55661 0.76697 0.0
O1773 O 0.01491 0.56167 0.88244 0.0
O1774 O 0.98378 0.43697 0.87385 0.0
O1775 O 0.99479 0.44899 0.76616 0.0
H1776 H 0.99473 0.54304 0.75312 0.0
H1777 H 0.01751 0.54561 0.74953 0.0
H1778 H 0.02481 0.56375 0.74666 0.0
H1779 H 0.01199 0.55119 0.73552 0.0
H1780 H 0.98384 0.53661 0.77381 0.0
H1781 H 0.02712 0.55538 0.78032 0.0
H1782 H 0.97373 0.50493 0.78459 0.0
H1783 H 0.96786 0.51719 0.78552 0.0
H1784 H 0.97386 0.51268 0.80001 0.0
H1785 H 0.03693 0.54554 0.79365 0.0
H1786 H 0.0271 0.52698 0.79381 0.0
H1787 H 0.02654 0.53676 0.80747 0.0
H1788 H 0.01391 0.45814 0.75721 0.0
H1789 H 0.00631 0.43947 0.74387 0.0
H1790 H 0.99126 0.43095 0.75106 0.0
H1791 H 0.00996 0.42552 0.76538 0.0
H1792 H 0.01723 0.46967 0.77784 0.0
H1793 H 0.97357 0.45046 0.77292 0.0
H1794 H 0.02086 0.49048 0.80459 0.0
H1795 H 0.02325 0.50085 0.79064 0.0
H1796 H 0.03008 0.48936 0.79076 0.0
H1797 H 0.96068 0.45902 0.78339 0.0
H1798 H 0.96993 0.47757 0.78458 0.0
H1799 H 0.96791 0.46769 0.79882 0.0
H1800 H 0.00039 0.43703 0.86526 0.0
H1801 H 0.00897 0.45892 0.87123 0.0
H1802 H 0.96577 0.44419 0.86971 0.0
H1803 H 0.01954 0.48677 0.85153 0.0
H1804 H 0.02539 0.48137 0.86548 0.0
H1805 H 0.02008 0.49403 0.86733 0.0
H1806 H 0.95687 0.45863 0.86426 0.0
H1807 H 0.9658 0.46819 0.85008 0.0
H1808 H 0.96845 0.47699 0.86546 0.0
H1809 H 0.99913 0.56448 0.87594 0.0
H1810 H 0.01464 0.58688 0.86565 0.0
H1811 H 0.01695 0.57318 0.85925 0.0
H1812 H 0.02937 0.58556 0.87065 0.0
H1813 H 0.03151 0.55328 0.8757 0.0
H1814 H 0.98913 0.54184 0.87727 0.0
H1815 H 0.02868 0.52978 0.85207 0.0
H1816 H 0.02651 0.52068 0.8669 0.0
H1817 H 0.03887 0.53884 0.86632 0.0
H1818 H 0.97144 0.52055 0.86924 0.0
H1819 H 0.97542 0.50686 0.8684 0.0
H1820 H 0.97643 0.5162 0.85403 0.0
H1821 H 0.99799 0.50257 0.78243 0.0
H1822 H 0.99138 0.46857 0.8139 0.0
H1823 H 0.99098 0.46764 0.83719 0.0
H1824 H 0.9978 0.49957 0.87214 0.0
H1825 H 0.00287 0.53313 0.84055 0.0
H1826 H 0.00227 0.53367 0.81719 0.0
H1827 H 0.98805 0.41204 0.86077 0.0
H1828 H 0.97946 0.4203 0.85361 0.0
H1829 H 0.97278 0.4104 0.86818 0.0
C1830 C 0.52434 0.56723 0.7425 0.0
C1831 C 0.53522 0.5738 0.75342 0.0
C1832 C 0.52472 0.55626 0.77036 0.0
C1833 C 0.51422 0.55904 0.77363 0.0
C1834 C 0.50373 0.55048 0.78209 0.0
C1835 C 0.5038 0.539 0.78752 0.0
C1836 C 0.5146 0.53646 0.78465 0.0
C1837 C 0.52493 0.54516 0.77611 0.0
C1838 C 0.49239 0.55351 0.78501 0.0
C1839 C 0.51506 0.52439 0.79039 0.0
C1840 C 0.41994 0.43604 0.76116 0.0
C1841 C 0.42975 0.44645 0.77071 0.0
C1842 C 0.44016 0.47083 0.77638 0.0
C1843 C 0.45071 0.47119 0.78409 0.0
C1844 C 0.46054 0.48339 0.79032 0.0
C1845 C 0.45972 0.49548 0.789 0.0
C1846 C 0.44917 0.49522 0.78125 0.0
C1847 C 0.43953 0.48287 0.77499 0.0
C1848 C 0.47179 0.48334 0.79837 0.0
C1849 C 0.44801 0.50793 0.77969 0.0
C1850 C 0.42921 0.48867 0.86968 0.0
C1851 C 0.43909 0.48476 0.86753 0.0
C1852 C 0.45159 0.49379 0.86166 0.0
C1853 C 0.45416 0.50691 0.85776 0.0
C1854 C 0.44446 0.51108 0.86047 0.0
C1855 C 0.43217 0.50193 0.86657 0.0
C1856 C 0.46193 0.48922 0.85939 0.0
C1857 C 0.44693 0.52505 0.85661 0.0
C1858 C 0.54563 0.5997 0.87091 0.0
C1859 C 0.53848 0.59024 0.88238 0.0
C1860 C 0.52387 0.56729 0.87225 0.0
C1861 C 0.52242 0.55429 0.87044 0.0
C1862 C 0.51131 0.5439 0.86331 0.0
C1863 C 0.50138 0.54664 0.85788 0.0
C1864 C 0.5027 0.55975 0.85972 0.0
C1865 C 0.51395 0.56998 0.86685 0.0
C1866 C 0.51022 0.53003 0.86152 0.0
C1867 C 0.49224 0.56296 0.85405 0.0
C1868 C 0.49213 0.52921 0.79553 0.0
C1869 C 0.48138 0.51778 0.78916 0.0
C1870 C 0.46987 0.50828 0.79596 0.0
C1871 C 0.46877 0.51042 0.8094 0.0
C1872 C 0.45697 0.50149 0.81634 0.0
C1873 C 0.45613 0.50344 0.82965 0.0
C1874 C 0.46718 0.51421 0.83659 0.0
C1875 C 0.46659 0.516 0.85021 0.0
C1876 C 0.47785 0.52667 0.85683 0.0
C1877 C 0.48969 0.5358 0.85017 0.0
C1878 C 0.49035 0.53437 0.83651 0.0
C1879 C 0.50199 0.54355 0.82946 0.0
C1880 C 0.50255 0.54199 0.81602 0.0
C1881 C 0.49159 0.53108 0.80915 0.0
C1882 C 0.4798 0.52169 0.81607 0.0
C1883 C 0.4791 0.52345 0.82973 0.0
C1884 C 0.39536 0.46328 0.86559 0.0
C1885 C 0.40886 0.46602 0.87185 0.0
O1886 O 0.53465 0.56379 0.76162 0.0
O1887 O 0.535 0.57684 0.87919 0.0
O1888 O 0.4168 0.47996 0.8748 0.0
O1889 O 0.43053 0.45915 0.77014 0.0
H1890 H 0.53344 0.58122 0.75915 0.0
H1891 H 0.51387 0.56202 0.74657 0.0
H1892 H 0.5257 0.5595 0.73686 0.0
H1893 H 0.52511 0.57525 0.73576 0.0
H1894 H 0.51397 0.56772 0.76949 0.0
H1895 H 0.53311 0.54314 0.77366 0.0
H1896 H 0.48239 0.54466 0.78177 0.0
H1897 H 0.49386 0.56291 0.78012 0.0
H1898 H 0.49187 0.55486 0.7957 0.0
H1899 H 0.52466 0.52441 0.78799 0.0
H1900 H 0.50622 0.51467 0.78659 0.0
H1901 H 0.51414 0.52453 0.80116 0.0
H1902 H 0.42893 0.44275 0.7809 0.0
H1903 H 0.43258 0.4324 0.74876 0.0
H1904 H 0.4131 0.44 0.75757 0.0
H1905 H 0.41184 0.42777 0.76732 0.0
H1906 H 0.45139 0.46199 0.7853 0.0
H1907 H 0.4314 0.48253 0.76902 0.0
H1908 H 0.47042 0.485 0.80882 0.0
H1909 H 0.48195 0.49187 0.79543 0.0
H1910 H 0.47181 0.47349 0.79734 0.0
H1911 H 0.43888 0.5059 0.77378 0.0
H1912 H 0.45733 0.51603 0.7749 0.0
H1913 H 0.44742 0.51202 0.78944 0.0
H1914 H 0.414 0.46276 0.86454 0.0
H1915 H 0.43705 0.47468 0.87046 0.0
H1916 H 0.42457 0.50491 0.86851 0.0
H1917 H 0.46253 0.48755 0.84877 0.0
H1918 H 0.4592 0.47951 0.86446 0.0
H1919 H 0.47226 0.49734 0.86279 0.0
H1920 H 0.43813 0.52652 0.85898 0.0
H1921 H 0.44882 0.52643 0.84597 0.0
H1922 H 0.45621 0.53318 0.86176 0.0
H1923 H 0.52911 0.59068 0.88484 0.0
H1924 H 0.54855 0.61047 0.87351 0.0
H1925 H 0.53868 0.59644 0.86225 0.0
H1926 H 0.555 0.59935 0.86823 0.0
H1927 H 0.53011 0.55231 0.87462 0.0
H1928 H 0.51491 0.58 0.86805 0.0
H1929 H 0.51006 0.52765 0.85095 0.0
H1930 H 0.50044 0.52193 0.86565 0.0
H1931 H 0.51885 0.52957 0.86629 0.0
H1932 H 0.49454 0.57355 0.85659 0.0
H1933 H 0.4819 0.55552 0.85767 0.0
H1934 H 0.49192 0.56179 0.84326 0.0
H1935 H 0.48208 0.51613 0.77881 0.0
H1936 H 0.44822 0.49293 0.81154 0.0
H1937 H 0.44675 0.49627 0.83444 0.0
H1938 H 0.4774 0.52789 0.8673 0.0
H1939 H 0.51079 0.55206 0.83426 0.0
H1940 H 0.51174 0.54936 0.81109 0.0
H1941 H 0.38883 0.45218 0.86303 0.0
H1942 H 0.39746 0.46926 0.8565 0.0
H1943 H 0.38968 0.46641 0.87233 0.0
C1944 C 0.62203 0.76556 0.60021 0.0
C1945 C 0.62888 0.76181 0.58927 0.0
C1946 C 0.63708 0.78193 0.57512 0.0
C1947 C 0.62413 0.77872 0.57013 0.0
C1948 C 0.62264 0.78793 0.56211 0.0
C1949 C 0.63432 0.80056 0.55892 0.0
C1950 C 0.6474 0.80368 0.56362 0.0
C1951 C 0.6486 0.79429 0.57164 0.0
C1952 C 0.60853 0.78428 0.55722 0.0
C1953 C 0.66006 0.81703 0.56032 0.0
C1954 C 0.60991 0.85632 0.60845 0.0
C1955 C 0.62206 0.86425 0.59943 0.0
C1956 C 0.62009 0.85524 0.57747 0.0
C1957 C 0.63359 0.85853 0.57497 0.0
C1958 C 0.63631 0.85063 0.56606 0.0
C1959 C 0.62526 0.83909 0.55972 0.0
C1960 C 0.61163 0.83599 0.56202 0.0
C1961 C 0.60926 0.84433 0.57069 0.0
C1962 C 0.65098 0.85442 0.56368 0.0
C1963 C 0.59953 0.82359 0.55572 0.0
C1964 C 0.60856 0.85066 0.47714 0.0
C1965 C 0.62264 0.85646 0.47976 0.0
C1966 C 0.62776 0.84865 0.48561 0.0
C1967 C 0.61855 0.83488 0.48906 0.0
C1968 C 0.60443 0.82891 0.48597 0.0
C1969 C 0.59966 0.83686 0.47988 0.0
C1970 C 0.64294 0.85516 0.4883 0.0
C1971 C 0.59431 0.81422 0.48935 0.0
C1972 C 0.62573 0.7466 0.47925 0.0
C1973 C 0.62449 0.75322 0.46672 0.0
C1974 C 0.63168 0.7769 0.47413 0.0
C1975 C 0.64265 0.79041 0.47458 0.0
C1976 C 0.64187 0.80079 0.48164 0.0
C1977 C 0.62969 0.79757 0.48828 0.0
C1978 C 0.6184 0.78398 0.48763 0.0
C1979 C 0.61955 0.77376 0.48069 0.0
C1980 C 0.65411 0.81514 0.48215 0.0
C1981 C 0.60513 0.78022 0.49437 0.0
C1982 C 0.63268 0.81076 0.55123 0.0
C1983 C 0.63055 0.82034 0.55809 0.0
C1984 C 0.62791 0.82965 0.55159 0.0
C1985 C 0.62732 0.82941 0.53779 0.0
C1986 C 0.62449 0.83846 0.53091 0.0
C1987 C 0.62323 0.83766 0.51737 0.0
C1988 C 0.62511 0.828 0.51016 0.0
C1989 C 0.62349 0.82685 0.49641 0.0
C1990 C 0.62543 0.81713 0.48956 0.0
C1991 C 0.62879 0.80832 0.49607 0.0
C1992 C 0.6304 0.80928 0.50981 0.0
C1993 C 0.63372 0.80055 0.51668 0.0
C1994 C 0.63459 0.80109 0.53024 0.0
C1995 C 0.63233 0.81048 0.53744 0.0
C1996 C 0.62947 0.81973 0.53071 0.0
C1997 C 0.62845 0.81909 0.51687 0.0
C1998 C 0.59614 0.87427 0.47621 0.0
C1999 C 0.60818 0.87197 0.47353 0.0
O2000 O 0.63893 0.7736 0.58341 0.0
O2001 O 0.63332 0.76734 0.46733 0.0
O2002 O 0.60315 0.85797 0.47192 0.0
O2003 O 0.6173 0.86226 0.58663 0.0
H2004 H 0.62101 0.75514 0.58186 0.0
H2005 H 0.6168 0.7709 0.59624 0.0
H2006 H 0.62977 0.77246 0.6076 0.0
H2007 H 0.61421 0.75611 0.60507 0.0
H2008 H 0.61508 0.76916 0.57255 0.0
H2009 H 0.65855 0.79666 0.57544 0.0
H2010 H 0.60598 0.7921 0.56077 0.0
H2011 H 0.60047 0.77399 0.56048 0.0
H2012 H 0.60838 0.78437 0.54639 0.0
H2013 H 0.66957 0.81762 0.56418 0.0
H2014 H 0.65926 0.82578 0.56446 0.0
H2015 H 0.66084 0.81821 0.54957 0.0
H2016 H 0.62902 0.85997 0.60083 0.0
H2017 H 0.61349 0.85773 0.61878 0.0
H2018 H 0.6047 0.84517 0.60592 0.0
H2019 H 0.60237 0.85988 0.60742 0.0
H2020 H 0.64196 0.8672 0.58008 0.0
H2021 H 0.59888 0.84198 0.57267 0.0
H2022 H 0.65276 0.85419 0.55306 0.0
H2023 H 0.65304 0.84678 0.56837 0.0
H2024 H 0.65837 0.86479 0.56773 0.0
H2025 H 0.58961 0.82175 0.55968 0.0
H2026 H 0.60035 0.81425 0.55721 0.0
H2027 H 0.59947 0.82512 0.54506 0.0
H2028 H 0.61515 0.87603 0.48223 0.0
H2029 H 0.62965 0.86703 0.47721 0.0
H2030 H 0.58885 0.83244 0.47759 0.0
H2031 H 0.6449 0.85655 0.49899 0.0
H2032 H 0.64889 0.86535 0.48366 0.0
H2033 H 0.64671 0.84831 0.48469 0.0
H2034 H 0.58356 0.81143 0.48711 0.0
H2035 H 0.5952 0.81255 0.49988 0.0
H2036 H 0.59668 0.80717 0.48374 0.0
H2037 H 0.61375 0.75096 0.46544 0.0
H2038 H 0.61874 0.73528 0.47874 0.0
H2039 H 0.62287 0.75069 0.48783 0.0
H2040 H 0.63642 0.74879 0.48072 0.0
H2041 H 0.65195 0.79277 0.46949 0.0
H2042 H 0.61091 0.7634 0.48049 0.0
H2043 H 0.65708 0.81856 0.49246 0.0
H2044 H 0.65137 0.82237 0.47756 0.0
H2045 H 0.66308 0.81582 0.47702 0.0
H2046 H 0.59681 0.7697 0.49163 0.0
H2047 H 0.60174 0.78767 0.49193 0.0
H2048 H 0.60676 0.78072 0.5051 0.0
H2049 H 0.63069 0.82036 0.56868 0.0
H2050 H 0.62299 0.84613 0.53594 0.0
H2051 H 0.62073 0.8447 0.51265 0.0
H2052 H 0.62393 0.81614 0.47905 0.0
H2053 H 0.63552 0.79308 0.51166 0.0
H2054 H 0.63699 0.794 0.53503 0.0
H2055 H 0.58878 0.87049 0.46783 0.0
H2056 H 0.59982 0.88537 0.47795 0.0
H2057 H 0.59068 0.8686 0.48505 0.0
C2058 C 0.14084 0.76197 0.61625 0.0
C2059 C 0.13188 0.76413 0.60638 0.0
C2060 C 0.14055 0.76934 0.58442 0.0
C2061 C 0.13705 0.77921 0.58087 0.0
C2062 C 0.14475 0.7892 0.57165 0.0
C2063 C 0.15626 0.78937 0.566 0.0
C2064 C 0.15947 0.77906 0.56922 0.0
C2065 C 0.15137 0.76899 0.57824 0.0
C2066 C 0.14083 0.79982 0.56823 0.0
C2067 C 0.17178 0.779 0.56358 0.0
C2068 C 0.24174 0.88384 0.60343 0.0
C2069 C 0.23322 0.87038 0.59659 0.0
C2070 C 0.21403 0.85897 0.58112 0.0
C2071 C 0.21609 0.84783 0.5784 0.0
C2072 C 0.2068 0.83676 0.57045 0.0
C2073 C 0.19513 0.83671 0.56523 0.0
C2074 C 0.19307 0.84794 0.56786 0.0
C2075 C 0.20265 0.859 0.57568 0.0
C2076 C 0.20938 0.825 0.56775 0.0
C2077 C 0.18067 0.84814 0.56253 0.0
C2078 C 0.21839 0.85455 0.48107 0.0
C2079 C 0.22147 0.84554 0.48774 0.0
C2080 C 0.21128 0.8343 0.49448 0.0
C2081 C 0.1978 0.83218 0.49479 0.0
C2082 C 0.19464 0.84114 0.48799 0.0
C2083 C 0.20498 0.85215 0.48114 0.0
C2084 C 0.21496 0.82478 0.50141 0.0
C2085 C 0.18039 0.83919 0.48812 0.0
C2086 C 0.11832 0.72293 0.48113 0.0
C2087 C 0.12181 0.73745 0.47739 0.0
C2088 C 0.14352 0.75835 0.4829 0.0
C2089 C 0.15691 0.76243 0.48687 0.0
C2090 C 0.16511 0.7751 0.4933 0.0
C2091 C 0.15985 0.78403 0.49554 0.0
C2092 C 0.14651 0.78023 0.49101 0.0
C2093 C 0.13844 0.76739 0.48475 0.0
C2094 C 0.17935 0.77885 0.49786 0.0
C2095 C 0.14077 0.78971 0.49289 0.0
C2096 C 0.16572 0.80109 0.55783 0.0
C2097 C 0.17511 0.81327 0.56432 0.0
C2098 C 0.18484 0.82461 0.55749 0.0
C2099 C 0.18519 0.82392 0.54374 0.0
C2100 C 0.19485 0.83515 0.53656 0.0
C2101 C 0.19532 0.83426 0.52305 0.0
C2102 C 0.18632 0.82202 0.51621 0.0
C2103 C 0.18714 0.82083 0.50253 0.0
C2104 C 0.17812 0.80848 0.49605 0.0
C2105 C 0.16827 0.79717 0.50287 0.0
C2106 C 0.16722 0.7982 0.51655 0.0
C2107 C 0.15742 0.78704 0.52373 0.0
C2108 C 0.15671 0.78805 0.53722 0.0
C2109 C 0.16594 0.80015 0.54407 0.0
C2110 C 0.17576 0.81161 0.53701 0.0
C2111 C 0.17636 0.81064 0.52323 0.0
C2112 C 0.24871 0.8789 0.48691 0.0
C2113 C 0.24197 0.87087 0.47424 0.0
O2114 O 0.13387 0.76031 0.59404 0.0
O2115 O 0.13595 0.74571 0.47721 0.0
O2116 O 0.22793 0.86567 0.47452 0.0
O2117 O 0.22271 0.86977 0.58897 0.0
H2118 H 0.13524 0.77531 0.60682 0.0
H2119 H 0.15181 0.76853 0.61375 0.0
H2120 H 0.13834 0.75107 0.61616 0.0
H2121 H 0.13933 0.7649 0.62624 0.0
H2122 H 0.1284 0.77918 0.58546 0.0
H2123 H 0.15386 0.7612 0.58099 0.0
H2124 H 0.14848 0.80992 0.57259 0.0
H2125 H 0.13054 0.79708 0.5719 0.0
H2126 H 0.14092 0.80101 0.55748 0.0
H2127 H 0.1734 0.77085 0.56779 0.0
H2128 H 0.18115 0.78913 0.56538 0.0
H2129 H 0.17041 0.77729 0.55286 0.0
H2130 H 0.22975 0.86117 0.60283 0.0
H2131 H 0.26108 0.89144 0.59509 0.0
H2132 H 0.2399 0.88154 0.61412 0.0
H2133 H 0.23579 0.88944 0.60295 0.0
H2134 H 0.2249 0.84769 0.58244 0.0
H2135 H 0.20116 0.86764 0.57779 0.0
H2136 H 0.20128 0.81555 0.57236 0.0
H2137 H 0.21951 0.82713 0.57157 0.0
H2138 H 0.20887 0.82291 0.55708 0.0
H2139 H 0.18038 0.85748 0.56573 0.0
H2140 H 0.17119 0.8389 0.56579 0.0
H2141 H 0.18067 0.84774 0.55171 0.0
H2142 H 0.24416 0.8623 0.47304 0.0
H2143 H 0.23177 0.84716 0.48782 0.0
H2144 H 0.20267 0.85911 0.47594 0.0
H2145 H 0.21454 0.82609 0.51212 0.0
H2146 H 0.22539 0.82683 0.49896 0.0
H2147 H 0.20744 0.8139 0.49884 0.0
H2148 H 0.17973 0.8474 0.4828 0.0
H2149 H 0.17716 0.83911 0.49834 0.0
H2150 H 0.17306 0.82909 0.48355 0.0
H2151 H 0.11735 0.74114 0.48501 0.0
H2152 H 0.10703 0.71607 0.48168 0.0
H2153 H 0.12288 0.72322 0.49085 0.0
H2154 H 0.12246 0.71856 0.47387 0.0
H2155 H 0.16079 0.75546 0.48519 0.0
H2156 H 0.12825 0.7645 0.48123 0.0
H2157 H 0.18052 0.78124 0.5085 0.0
H2158 H 0.18702 0.78823 0.49281 0.0
H2159 H 0.18167 0.77048 0.49592 0.0
H2160 H 0.13061 0.7857 0.48801 0.0
H2161 H 0.14797 0.80001 0.48897 0.0
H2162 H 0.13967 0.79109 0.50347 0.0
H2163 H 0.17504 0.81384 0.57489 0.0
H2164 H 0.20216 0.84475 0.54132 0.0
H2165 H 0.20297 0.84325 0.51805 0.0
H2166 H 0.17898 0.80756 0.4856 0.0
H2167 H 0.15019 0.77739 0.519 0.0
H2168 H 0.14895 0.77915 0.54224 0.0
H2169 H 0.24659 0.88748 0.4883 0.0
H2170 H 0.25998 0.88317 0.48667 0.0
H2171 H 0.24468 0.87204 0.49542 0.0
C2172 C 0.13816 0.35382 0.60638 0.0
C2173 C 0.13201 0.36115 0.59874 0.0
C2174 C 0.14121 0.3609 0.57734 0.0
C2175 C 0.15258 0.37425 0.57717 0.0
C2176 C 0.16365 0.37742 0.56895 0.0
C2177 C 0.1634 0.36697 0.56089 0.0
C2178 C 0.15177 0.35359 0.56081 0.0
C2179 C 0.14069 0.35081 0.56887 0.0
C2180 C 0.17573 0.39189 0.56907 0.0
C2181 C 0.15122 0.34212 0.55251 0.0
C2182 C 0.26264 0.38833 0.57767 0.0
C2183 C 0.25185 0.37868 0.58731 0.0
C2184 C 0.23025 0.36996 0.57469 0.0
C2185 C 0.22002 0.35845 0.56798 0.0
C2186 C 0.20945 0.35899 0.56125 0.0
C2187 C 0.20917 0.37143 0.5612 0.0
C2188 C 0.21934 0.38309 0.56815 0.0
C2189 C 0.22978 0.38224 0.57489 0.0
C2190 C 0.19867 0.34631 0.55406 0.0
C2191 C 0.21926 0.39649 0.56831 0.0
C2192 C 0.24028 0.39037 0.48102 0.0
C2193 C 0.22944 0.37679 0.48208 0.0
C2194 C 0.21696 0.37403 0.48758 0.0
C2195 C 0.21531 0.38508 0.49205 0.0
C2196 C 0.22595 0.39879 0.4903 0.0
C2197 C 0.23828 0.40125 0.48469 0.0
C2198 C 0.20565 0.3593 0.48895 0.0
C2199 C 0.22445 0.41081 0.49478 0.0
C2200 C 0.12415 0.38646 0.47912 0.0
C2201 C 0.13098 0.38413 0.46725 0.0
C2202 C 0.14593 0.37616 0.47672 0.0
C2203 C 0.14738 0.36463 0.4784 0.0
C2204 C 0.15849 0.36551 0.48546 0.0
C2205 C 0.16843 0.37831 0.49097 0.0
C2206 C 0.16717 0.39009 0.48918 0.0
C2207 C 0.15592 0.38892 0.48211 0.0
C2208 C 0.15953 0.35274 0.48718 0.0
C2209 C 0.17766 0.40389 0.49491 0.0
C2210 C 0.17569 0.36983 0.5533 0.0
C2211 C 0.18648 0.36972 0.55999 0.0
C2212 C 0.1984 0.37229 0.55359 0.0
C2213 C 0.19973 0.37512 0.54012 0.0
C2214 C 0.21168 0.37792 0.53343 0.0
C2215 C 0.21279 0.38041 0.52012 0.0
C2216 C 0.20195 0.3801 0.51296 0.0
C2217 C 0.20288 0.38231 0.49936 0.0
C2218 C 0.19187 0.38181 0.4925 0.0
C2219 C 0.17992 0.37923 0.4989 0.0
C2220 C 0.17887 0.37718 0.51253 0.0
C2221 C 0.16707 0.37477 0.51931 0.0
C2222 C 0.16608 0.37258 0.53269 0.0
C2223 C 0.17674 0.37247 0.53977 0.0
C2224 C 0.1888 0.37506 0.53316 0.0
C2225 C 0.18989 0.37749 0.51955 0.0
C2226 C 0.27261 0.39464 0.48618 0.0
C2227 C 0.25918 0.38575 0.47863 0.0
O2228 O 0.13066 0.35737 0.58564 0.0
O2229 O 0.13472 0.37439 0.46996 0.0
O2230 O 0.25277 0.39337 0.47653 0.0
O2231 O 0.24034 0.36868 0.58066 0.0
H2232 H 0.13887 0.37244 0.59993 0.0
H2233 H 0.14855 0.35689 0.60274 0.0
H2234 H 0.13159 0.34248 0.60524 0.0
H2235 H 0.13916 0.35666 0.61691 0.0
H2236 H 0.15284 0.38225 0.58335 0.0
H2237 H 0.13179 0.34057 0.56901 0.0
H2238 H 0.18464 0.39199 0.57386 0.0
H2239 H 0.17354 0.39923 0.57442 0.0
H2240 H 0.17867 0.39549 0.55894 0.0
H2241 H 0.14187 0.33207 0.55428 0.0
H2242 H 0.16038 0.34113 0.55451 0.0
H2243 H 0.15136 0.34456 0.54204 0.0
H2244 H 0.24894 0.38472 0.5939 0.0
H2245 H 0.26557 0.38243 0.57094 0.0
H2246 H 0.27194 0.3962 0.58303 0.0
H2247 H 0.25862 0.39377 0.57175 0.0
H2248 H 0.22044 0.34901 0.56795 0.0
H2249 H 0.23753 0.39123 0.58014 0.0
H2250 H 0.19931 0.34828 0.54344 0.0
H2251 H 0.18829 0.34387 0.55722 0.0
H2252 H 0.19987 0.33721 0.55572 0.0
H2253 H 0.22807 0.40473 0.57394 0.0
H2254 H 0.20961 0.39491 0.57269 0.0
H2255 H 0.21958 0.39998 0.55817 0.0
H2256 H 0.25288 0.37677 0.48489 0.0
H2257 H 0.2307 0.36834 0.47865 0.0
H2258 H 0.24663 0.4117 0.48358 0.0
H2259 H 0.20393 0.35677 0.49945 0.0
H2260 H 0.2081 0.35193 0.48405 0.0
H2261 H 0.19593 0.35794 0.48475 0.0
H2262 H 0.23356 0.42085 0.49245 0.0
H2263 H 0.2229 0.41036 0.50548 0.0
H2264 H 0.21525 0.41019 0.49007 0.0
H2265 H 0.1402 0.39401 0.46465 0.0
H2266 H 0.121 0.39415 0.47688 0.0
H2267 H 0.13139 0.39043 0.48757 0.0
H2268 H 0.11497 0.37669 0.48195 0.0
H2269 H 0.13965 0.35486 0.4742 0.0
H2270 H 0.15499 0.39797 0.48095 0.0
H2271 H 0.15947 0.35059 0.49773 0.0
H2272 H 0.16938 0.35442 0.4832 0.0
H2273 H 0.15098 0.34357 0.48221 0.0
H2274 H 0.17549 0.41219 0.4923 0.0
H2275 H 0.18803 0.40668 0.49143 0.0
H2276 H 0.17783 0.40327 0.50571 0.0
H2277 H 0.18554 0.3675 0.57033 0.0
H2278 H 0.22032 0.37821 0.53841 0.0
H2279 H 0.22224 0.38248 0.51552 0.0
H2280 H 0.19259 0.38336 0.48205 0.0
H2281 H 0.15846 0.37457 0.51434 0.0
H2282 H 0.15678 0.37082 0.5374 0.0
H2283 H 0.27801 0.38878 0.48785 0.0
H2284 H 0.27041 0.39768 0.49582 0.0
H2285 H 0.27946 0.40414 0.48079 0.0
H2286 H 0.0123 0.38912 0.03149 0.0
H2287 H 0.01003 0.40131 0.05033 0.0
H2288 H 0.97063 0.36617 0.05856 0.0
H2289 H 0.97288 0.35377 0.03972 0.0
H2290 H 0.98931 0.40786 0.05694 0.0
H2291 H 0.99335 0.37288 0.09247 0.0
H2292 H 0.99784 0.37324 0.07556 0.0
H2293 H 0.98016 0.36499 0.08011 0.0
C2294 C 0.0031 0.384 0.03725 0.0
C2295 C 0.99282 0.37044 0.03421 0.0
C2296 C 0.00181 0.391 0.04798 0.0
C2297 C 0.99025 0.38458 0.05591 0.0
C2298 C 0.97972 0.37122 0.05266 0.0
H2299 H 0.98481 0.41624 0.13297 0.0
H2300 H 0.97791 0.40239 0.11272 0.0
C2301 C 0.981 0.36418 0.04188 0.0
C2302 C 0.98968 0.3918 0.06786 0.0
H2303 H 0.99244 0.39185 0.10103 0.0
C2304 C 0.98983 0.4043 0.0666 0.0
C2305 C 0.9903 0.38707 0.08043 0.0
C2306 C 0.9905 0.37386 0.08232 0.0
C2307 C 0.99096 0.4124 0.07758 0.0
C2308 C 0.99224 0.408 0.09011 0.0
C2309 C 0.99147 0.3952 0.0914 0.0
C2310 C 0.99556 0.41696 0.10188 0.0
C2311 C 0.99091 0.42567 0.07566 0.0
C2312 C 0.00776 0.4297 0.10249 0.0
C2313 C 0.01168 0.43761 0.11399 0.0
C2314 C 0.00348 0.43291 0.12512 0.0
C2315 C 0.99121 0.4202 0.12447 0.0
C2316 C 0.98728 0.41228 0.11294 0.0
H2317 H 0.98543 0.42533 0.06649 0.0
H2318 H 0.98603 0.42794 0.08396 0.0
H2319 H 0.00164 0.43425 0.07494 0.0
H2320 H 0.01452 0.43333 0.09421 0.0
H2321 H 0.02133 0.44723 0.11431 0.0
H2322 H 0.6134 0.61852 0.04007 0.0
H2323 H 0.60367 0.6029 0.05835 0.0
H2324 H 0.63986 0.59913 0.06065 0.0
H2325 H 0.64978 0.61494 0.04243 0.0
H2326 H 0.59801 0.57582 0.06137 0.0
H2327 H 0.63678 0.61155 0.09771 0.0
H2328 H 0.63472 0.61704 0.08181 0.0
H2329 H 0.64362 0.60762 0.08358 0.0
C2330 C 0.61927 0.61432 0.04442 0.0
C2331 C 0.63239 0.61801 0.03989 0.0
C2332 C 0.61369 0.6054 0.05485 0.0
C2333 C 0.62114 0.60006 0.06097 0.0
C2334 C 0.63406 0.60336 0.05621 0.0
H2335 H 0.60091 0.54692 0.1283 0.0
H2336 H 0.61186 0.56067 0.10902 0.0
C2337 C 0.63967 0.61231 0.04576 0.0
C2338 C 0.61537 0.59119 0.07245 0.0
H2339 H 0.6202 0.58967 0.10518 0.0
C2340 C 0.60287 0.57882 0.07094 0.0
C2341 C 0.62174 0.59517 0.08492 0.0
C2342 C 0.6349 0.60861 0.08719 0.0
C2343 C 0.59655 0.57033 0.0816 0.0
C2344 C 0.60284 0.5744 0.09408 0.0
C2345 C 0.61544 0.58663 0.09556 0.0
C2346 C 0.5963 0.56623 0.10576 0.0
C2347 C 0.58324 0.55702 0.07946 0.0
C2348 C 0.58411 0.56511 0.11043 0.0
C2349 C 0.57789 0.55735 0.12145 0.0
C2350 C 0.58366 0.5504 0.12786 0.0
C2351 C 0.59609 0.55189 0.12335 0.0
C2352 C 0.60235 0.55975 0.11239 0.0
H2353 H 0.58133 0.55392 0.06898 0.0
H2354 H 0.58322 0.5486 0.08504 0.0
H2355 H 0.57465 0.55831 0.08297 0.0
H2356 H 0.57947 0.57031 0.10558 0.0
H2357 H 0.56855 0.55673 0.12491 0.0
H2358 H 0.38178 0.02944 0.0423 0.0
H2359 H 0.39628 0.03222 0.06138 0.0
H2360 H 0.39268 0.99288 0.05256 0.0
H2361 H 0.37837 0.9901 0.03353 0.0
H2362 H 0.38838 0.01455 0.08252 0.0
H2363 H 0.43383 0.01758 0.05903 0.0
H2364 H 0.42149 0.02032 0.05022 0.0
H2365 H 0.4181 0.00314 0.05318 0.0
C2366 C 0.38425 0.02149 0.04435 0.0
C2367 C 0.37896 0.00956 0.03643 0.0
C2368 C 0.39252 0.02309 0.05523 0.0
C2369 C 0.39574 0.01286 0.05825 0.0
C2370 C 0.3906 0.00105 0.05024 0.0
H2371 H 0.42377 0.98257 0.11887 0.0
H2372 H 0.4162 0.98844 0.09876 0.0
C2373 C 0.38233 0.99943 0.03942 0.0
C2374 C 0.40348 0.01385 0.07031 0.0
H2375 H 0.43052 0.01103 0.08158 0.0
C2376 C 0.39775 0.01407 0.08235 0.0
C2377 C 0.4157 0.01322 0.07003 0.0
C2378 C 0.42272 0.01369 0.05741 0.0
C2379 C 0.40344 0.01283 0.09412 0.0
C2380 C 0.4153 0.01155 0.09379 0.0
C2381 C 0.42139 0.01196 0.08178 0.0
C2382 C 0.42084 0.00862 0.10567 0.0
C2383 C 0.3963 0.01214 0.10673 0.0
C2384 C 0.42616 0.01813 0.11612 0.0
C2385 C 0.4305 0.0148 0.12762 0.0
C2386 C 0.42971 0.00196 0.12878 0.0
C2387 C 0.42464 0.99259 0.11818 0.0
C2388 C 0.42032 0.99593 0.10671 0.0
H2389 H 0.38594 0.01077 0.10505 0.0
H2390 H 0.39529 0.00352 0.11274 0.0
H2391 H 0.40249 0.02184 0.11241 0.0
H2392 H 0.42679 0.02804 0.11544 0.0
H2393 H 0.43426 0.02215 0.13568 0.0
H2394 H 0.38924 0.01653 0.97635 0.0
H2395 H 0.40113 0.01377 0.95778 0.0
H2396 H 0.36823 0.97201 0.95192 0.0
H2397 H 0.35613 0.97472 0.97056 0.0
H2398 H 0.40963 0.99375 0.95361 0.0
H2399 H 0.37207 0.99062 0.91614 0.0
H2400 H 0.37263 0.997 0.93252 0.0
H2401 H 0.36551 0.97891 0.9295 0.0
C2402 C 0.38452 0.00674 0.97114 0.0
C2403 C 0.37171 0.99586 0.97486 0.0
C2404 C 0.39135 0.00517 0.96056 0.0
C2405 C 0.3855 0.99274 0.95343 0.0
C2406 C 0.37282 0.98174 0.95722 0.0
H2407 H 0.41818 0.98284 0.87905 0.0
H2408 H 0.40427 0.97714 0.89877 0.0
C2409 C 0.36596 0.98329 0.96787 0.0
C2410 C 0.39272 0.99161 0.9419 0.0
H2411 H 0.39192 0.99112 0.90862 0.0
C2412 C 0.4057 0.993 0.94377 0.0
C2413 C 0.38751 0.99055 0.9291 0.0
C2414 C 0.3737 0.98926 0.92659 0.0
C2415 C 0.41382 0.9938 0.93313 0.0
C2416 C 0.40892 0.99348 0.92032 0.0
C2417 C 0.39566 0.99141 0.91846 0.0
C2418 C 0.41776 0.9964 0.9088 0.0
C2419 C 0.42764 0.99516 0.93571 0.0
C2420 C 0.42987 0.00915 0.90789 0.0
C2421 C 0.43781 0.0124 0.8967 0.0
C2422 C 0.43378 0.00295 0.88618 0.0
C2423 C 0.42163 0.9902 0.8871 0.0
C2424 C 0.41368 0.98696 0.89832 0.0
H2425 H 0.42797 0.99081 0.94529 0.0
H2426 H 0.43025 0.98989 0.92796 0.0
H2427 H 0.4356 0.00621 0.93592 0.0
H2428 H 0.433 0.01675 0.91571 0.0
H2429 H 0.44697 0.02241 0.89614 0.0
H2430 H 0.02579 0.38002 0.96932 0.0
H2431 H 0.02808 0.39463 0.95076 0.0
H2432 H 0.98676 0.38628 0.95649 0.0
H2433 H 0.98439 0.37175 0.97491 0.0
H2434 H 0.0108 0.3859 0.92785 0.0
H2435 H 0.00949 0.42866 0.954 0.0
H2436 H 0.01351 0.41687 0.96207 0.0
H2437 H 0.99597 0.41198 0.95859 0.0
C2438 C 0.01725 0.38141 0.96666 0.0
C2439 C 0.00491 0.37476 0.97355 0.0
C2440 C 0.01858 0.38974 0.95609 0.0
C2441 C 0.00766 0.39169 0.95242 0.0
C2442 C 0.99539 0.38513 0.95934 0.0
H2443 H 0.97587 0.41928 0.89305 0.0
H2444 H 0.98219 0.41154 0.91274 0.0
C2445 C 0.99403 0.37675 0.96981 0.0
C2446 C 0.00858 0.39983 0.94085 0.0
H2447 H 0.00402 0.4262 0.93108 0.0
C2448 C 0.00961 0.39489 0.92852 0.0
C2449 C 0.00704 0.41154 0.94181 0.0
C2450 C 0.00658 0.41767 0.95484 0.0
C2451 C 0.00823 0.40083 0.91706 0.0
C2452 C 0.00599 0.41214 0.91803 0.0
C2453 C 0.00566 0.41749 0.93038 0.0
C2454 C 0.00274 0.41773 0.90642 0.0
C2455 C 0.00837 0.39448 0.90404 0.0
C2456 C 0.01228 0.42397 0.89647 0.0
C2457 C 0.00868 0.42841 0.8852 0.0
C2458 C 0.99554 0.42679 0.88381 0.0
C2459 C 0.98612 0.42079 0.89394 0.0
C2460 C 0.98971 0.41636 0.90516 0.0
H2461 H 0.00773 0.38434 0.90509 0.0
H2462 H 0.99969 0.3931 0.89776 0.0
H2463 H 0.01803 0.40143 0.89898 0.0
H2464 H 0.02244 0.42526 0.89734 0.0
H2465 H 0.01609 0.43291 0.8775 0.0
H2466 H 0.62964 0.62151 0.97273 0.0
H2467 H 0.61348 0.61343 0.95428 0.0
H2468 H 0.59599 0.63751 0.96854 0.0
H2469 H 0.61235 0.64588 0.98689 0.0
H2470 H 0.58539 0.59889 0.95415 0.0
H2471 H 0.60412 0.64947 0.93088 0.0
H2472 H 0.61367 0.6468 0.94358 0.0
H2473 H 0.59944 0.64912 0.94763 0.0
C2474 C 0.62238 0.62512 0.97191 0.0
C2475 C 0.6223 0.63439 0.9812 0.0
C2476 C 0.61315 0.62049 0.96138 0.0
C2477 C 0.60369 0.62504 0.95993 0.0
C2478 C 0.60343 0.63412 0.96931 0.0
H2479 H 0.53881 0.60616 0.90306 0.0
H2480 H 0.55433 0.61433 0.9221 0.0
C2481 C 0.61272 0.63883 0.97982 0.0
C2482 C 0.59394 0.62006 0.94871 0.0
H2483 H 0.58369 0.63071 0.92205 0.0
C2484 C 0.58504 0.60584 0.94711 0.0
C2485 C 0.59353 0.62916 0.93953 0.0
C2486 C 0.60328 0.64448 0.94039 0.0
C2487 C 0.57562 0.60047 0.93665 0.0
C2488 C 0.5752 0.60957 0.9275 0.0
C2489 C 0.58403 0.62379 0.92913 0.0
C2490 C 0.56578 0.60452 0.91607 0.0
C2491 C 0.56605 0.58513 0.93556 0.0
C2492 C 0.56727 0.59651 0.90631 0.0
C2493 C 0.55845 0.59186 0.89546 0.0
C2494 C 0.54791 0.59505 0.89423 0.0
C2495 C 0.54665 0.60333 0.90389 0.0
C2496 C 0.55552 0.60802 0.91473 0.0
H2497 H 0.56545 0.57994 0.94489 0.0
H2498 H 0.55557 0.58275 0.93263 0.0
H2499 H 0.56984 0.58078 0.92798 0.0
H2500 H 0.57534 0.59398 0.90704 0.0
H2501 H 0.55987 0.58578 0.88801 0.0
H2502 H 0.98786 0.62667 0.97661 0.0
H2503 H 0.99053 0.61549 0.95715 0.0
H2504 H 0.03433 0.63721 0.96328 0.0
H2505 H 0.03177 0.64854 0.98285 0.0
H2506 H 0.00834 0.63003 0.93434 0.0
H2507 H 0.02132 0.59452 0.96008 0.0
H2508 H 0.01239 0.60214 0.96803 0.0
H2509 H 0.03034 0.61244 0.96488 0.0
C2510 C 0.99807 0.62907 0.97385 0.0
C2511 C 0.00962 0.63845 0.98127 0.0
C2512 C 0.99957 0.6227 0.96272 0.0
C2513 C 0.0126 0.62548 0.95888 0.0
C2514 C 0.02418 0.63487 0.9662 0.0
H2515 H 0.0323 0.58561 0.89552 0.0
H2516 H 0.03401 0.60002 0.91443 0.0
C2517 C 0.0227 0.64134 0.97732 0.0
C2518 C 0.01394 0.61853 0.94711 0.0
H2519 H 0.01968 0.59277 0.93719 0.0
C2520 C 0.01091 0.62195 0.93492 0.0
C2521 C 0.01737 0.60807 0.94796 0.0
C2522 C 0.02049 0.60395 0.96092 0.0
C2523 C 0.01108 0.61504 0.92349 0.0
C2524 C 0.01399 0.60419 0.92437 0.0
C2525 C 0.01739 0.60104 0.93655 0.0
C2526 C 0.01304 0.59564 0.91285 0.0
C2527 C 0.00819 0.61947 0.91058 0.0
C2528 C 0.00064 0.58827 0.90583 0.0
C2529 C 0.99967 0.58012 0.89503 0.0
C2530 C 0.01103 0.57902 0.89116 0.0
C2531 C 0.02339 0.58628 0.89831 0.0
C2532 C 0.02438 0.59449 0.90909 0.0
H2533 H 0.01043 0.6303 0.91108 0.0
H2534 H 0.01434 0.61849 0.90267 0.0
H2535 H 0.99717 0.61286 0.908 0.0
H2536 H 0.99167 0.58874 0.90876 0.0
H2537 H 0.99002 0.57464 0.88971 0.0
H2538 H 0.38931 0.38368 0.96629 0.0
H2539 H 0.39732 0.40044 0.94878 0.0
H2540 H 0.36193 0.40524 0.95343 0.0
H2541 H 0.35378 0.38839 0.97093 0.0
H2542 H 0.36697 0.40061 0.9274 0.0
H2543 H 0.41378 0.44251 0.95164 0.0
H2544 H 0.41246 0.4259 0.9519 0.0
H2545 H 0.40022 0.42867 0.96056 0.0
C2546 C 0.38328 0.38838 0.96365 0.0
C2547 C 0.37093 0.38475 0.96999 0.0
C2548 C 0.38791 0.39801 0.9537 0.0
C2549 C 0.38031 0.40421 0.94994 0.0
C2550 C 0.36798 0.40062 0.95626 0.0
H2551 H 0.40338 0.47178 0.8966 0.0
H2552 H 0.39674 0.45701 0.91574 0.0
C2553 C 0.36335 0.39101 0.96624 0.0
C2554 C 0.3849 0.41393 0.939 0.0
H2555 H 0.4111 0.44476 0.92891 0.0
C2556 C 0.37658 0.41029 0.92774 0.0
C2557 C 0.3974 0.4266 0.93954 0.0
C2558 C 0.40645 0.43125 0.95159 0.0
C2559 C 0.38057 0.41886 0.91688 0.0
C2560 C 0.39326 0.43132 0.91727 0.0
C2561 C 0.40144 0.43512 0.92862 0.0
C2562 C 0.39811 0.44056 0.90597 0.0
C2563 C 0.37113 0.41458 0.9051 0.0
C2564 C 0.40131 0.43628 0.89426 0.0
C2565 C 0.4052 0.44472 0.88338 0.0
C2566 C 0.40606 0.45763 0.88406 0.0
C2567 C 0.40304 0.46198 0.89588 0.0
C2568 C 0.39921 0.45355 0.90678 0.0
H2569 H 0.36057 0.40635 0.90741 0.0
H2570 H 0.37066 0.4235 0.90115 0.0
H2571 H 0.37513 0.41059 0.89736 0.0
H2572 H 0.40063 0.42632 0.8935 0.0
H2573 H 0.40729 0.44105 0.87435 0.0
H2574 H 0.62646 0.01293 0.98071 0.0
H2575 H 0.6124 0.01002 0.96135 0.0
H2576 H 0.60911 0.97073 0.95308 0.0
H2577 H 0.62323 0.97357 0.97244 0.0
H2578 H 0.61742 0.98906 0.93166 0.0
H2579 H 0.57079 0.9836 0.95531 0.0
H2580 H 0.58661 0.99819 0.9609 0.0
H2581 H 0.58338 0.98111 0.96395 0.0
C2582 C 0.62264 0.00361 0.97484 0.0
C2583 C 0.62593 0.99347 0.97808 0.0
C2584 C 0.61455 0.00193 0.96383 0.0
C2585 C 0.60961 0.99009 0.95589 0.0
C2586 C 0.61278 0.9799 0.95915 0.0
H2587 H 0.55156 0.96609 0.89103 0.0
H2588 H 0.56344 0.96702 0.91145 0.0
C2589 C 0.62082 0.98153 0.9702 0.0
C2590 C 0.60175 0.98873 0.94381 0.0
H2591 H 0.57241 0.98699 0.93238 0.0
C2592 C 0.60754 0.98852 0.9318 0.0
C2593 C 0.58884 0.98794 0.94407 0.0
C2594 C 0.58195 0.98759 0.95674 0.0
C2595 C 0.60087 0.98784 0.91998 0.0
C2596 C 0.58816 0.98751 0.92023 0.0
C2597 C 0.58222 0.98739 0.93225 0.0
C2598 C 0.58085 0.98719 0.90809 0.0
C2599 C 0.60741 0.98739 0.90733 0.0
C2600 C 0.58665 0.99831 0.89956 0.0
C2601 C 0.57987 0.99783 0.88794 0.0
C2602 C 0.56711 0.98628 0.88473 0.0
C2603 C 0.56129 0.9752 0.89335 0.0
C2604 C 0.56806 0.9757 0.90498 0.0
H2605 H 0.61538 0.98446 0.90885 0.0
H2606 H 0.5996 0.97999 0.90028 0.0
H2607 H 0.61238 0.99773 0.90293 0.0
H2608 H 0.59645 0.00733 0.90188 0.0
H2609 H 0.58464 0.00644 0.88141 0.0
H2610 H 0.6497 0.02852 0.04448 0.0
H2611 H 0.63838 0.03206 0.06326 0.0
H2612 H 0.6042 0.99087 0.05806 0.0
H2613 H 0.61536 0.98728 0.03926 0.0
H2614 H 0.59665 0.01116 0.06209 0.0
H2615 H 0.63424 0.01443 0.09935 0.0
H2616 H 0.64152 0.02593 0.08593 0.0
H2617 H 0.63326 0.00767 0.08306 0.0
C2618 C 0.63977 0.02023 0.04734 0.0
C2619 C 0.63344 0.00761 0.04045 0.0
C2620 C 0.63336 0.02225 0.0581 0.0
C2621 C 0.62055 0.01166 0.06213 0.0
C2622 C 0.61411 0.99914 0.05512 0.0
H2623 H 0.58076 0.00477 0.13602 0.0
H2624 H 0.591 0.001 0.11651 0.0
C2625 C 0.62052 0.99711 0.0444 0.0
C2626 C 0.61378 0.01359 0.07362 0.0
H2627 H 0.61709 0.01917 0.10659 0.0
C2628 C 0.6011 0.01292 0.07183 0.0
C2629 C 0.61954 0.01568 0.08631 0.0
C2630 C 0.63283 0.01586 0.08887 0.0
C2631 C 0.5941 0.01447 0.0824 0.0
C2632 C 0.60004 0.0169 0.09504 0.0
C2633 C 0.61263 0.0174 0.09686 0.0
C2634 C 0.59333 0.01891 0.10655 0.0
C2635 C 0.58031 0.01325 0.08 0.0
C2636 C 0.59134 0.03026 0.10741 0.0
C2637 C 0.58547 0.0324 0.11851 0.0
C2638 C 0.58145 0.0232 0.12892 0.0
C2639 C 0.58354 0.01188 0.12805 0.0
C2640 C 0.58942 0.00975 0.11695 0.0
H2641 H 0.57574 0.00812 0.07047 0.0
H2642 H 0.57307 0.00738 0.08786 0.0
H2643 H 0.58156 0.02369 0.07991 0.0
H2644 H 0.59457 0.03761 0.09961 0.0
H2645 H 0.58426 0.04138 0.11906 0.0
H2646 H 0.00983 0.62223 0.03647 0.0
H2647 H 0.00488 0.60529 0.05341 0.0
H2648 H 0.97394 0.61321 0.06891 0.0
H2649 H 0.97852 0.62981 0.05171 0.0
H2650 H 0.00736 0.6083 0.0791 0.0
H2651 H 0.95304 0.57203 0.06634 0.0
H2652 H 0.96422 0.5857 0.05573 0.0
H2653 H 0.95611 0.58913 0.06919 0.0
C2654 C 0.00188 0.62026 0.04343 0.0
C2655 C 0.99448 0.62726 0.04273 0.0
C2656 C 0.99908 0.6106 0.05311 0.0
C2657 C 0.98888 0.60779 0.06231 0.0
C2658 C 0.98159 0.61491 0.06171 0.0
H2659 H 0.98122 0.57285 0.13842 0.0
H2660 H 0.98768 0.58777 0.11949 0.0
C2661 C 0.98427 0.62446 0.05193 0.0
C2662 C 0.9862 0.59779 0.07279 0.0
H2663 H 0.96069 0.56951 0.08741 0.0
C2664 C 0.99717 0.59974 0.08084 0.0
C2665 C 0.97297 0.58645 0.0749 0.0
C2666 C 0.96095 0.5831 0.06599 0.0
C2667 C 0.99522 0.5909 0.09119 0.0
C2668 C 0.98183 0.58007 0.09381 0.0
C2669 C 0.97093 0.57789 0.08551 0.0
C2670 C 0.97876 0.57104 0.10525 0.0
C2671 C 0.00756 0.59318 0.09908 0.0
C2672 C 0.97129 0.55667 0.10361 0.0
C2673 C 0.96733 0.54815 0.11443 0.0
C2674 C 0.97097 0.55384 0.12713 0.0
C2675 C 0.97858 0.56821 0.12873 0.0
C2676 C 0.98234 0.57673 0.11792 0.0
H2677 H 0.01707 0.59843 0.09327 0.0
H2678 H 0.0089 0.5999 0.10765 0.0
H2679 H 0.00635 0.58334 0.10261 0.0
H2680 H 0.9683 0.55205 0.09394 0.0
H2681 H 0.96121 0.53713 0.11285 0.0
H2682 H 0.37107 0.34822 0.04149 0.0
H2683 H 0.38535 0.35654 0.06131 0.0
H2684 H 0.41263 0.39459 0.0424 0.0
H2685 H 0.39823 0.38647 0.02266 0.0
H2686 H 0.41224 0.3647 0.06601 0.0
H2687 H 0.40293 0.40807 0.07533 0.0
H2688 H 0.39306 0.39455 0.06351 0.0
H2689 H 0.4098 0.4084 0.05951 0.0
C2690 C 0.38014 0.35834 0.04154 0.0
C2691 C 0.38349 0.36674 0.03056 0.0
C2692 C 0.38828 0.36308 0.05287 0.0
C2693 C 0.3999 0.3763 0.05342 0.0
C2694 C 0.40352 0.3845 0.0423 0.0
H2695 H 0.46388 0.40534 0.11368 0.0
H2696 H 0.45081 0.39775 0.09312 0.0
C2697 C 0.39534 0.37981 0.031 0.0
C2698 C 0.40817 0.38148 0.06565 0.0
H2699 H 0.41987 0.40733 0.08862 0.0
C2700 C 0.4139 0.37401 0.07097 0.0
C2701 C 0.41014 0.39352 0.07221 0.0
C2702 C 0.40356 0.40154 0.06744 0.0
C2703 C 0.42168 0.37832 0.0826 0.0
C2704 C 0.42405 0.39061 0.08892 0.0
C2705 C 0.41819 0.398 0.08368 0.0
C2706 C 0.43223 0.39579 0.1012 0.0
C2707 C 0.42699 0.36946 0.08817 0.0
C2708 C 0.4263 0.39767 0.11246 0.0
C2709 C 0.43382 0.40226 0.12414 0.0
C2710 C 0.44748 0.40517 0.12477 0.0
C2711 C 0.45345 0.40338 0.11344 0.0
C2712 C 0.44594 0.39888 0.10174 0.0
H2713 H 0.42119 0.35874 0.08425 0.0
H2714 H 0.43788 0.37379 0.08548 0.0
H2715 H 0.42636 0.3692 0.09898 0.0
H2716 H 0.41574 0.39535 0.11227 0.0
H2717 H 0.42891 0.40333 0.13276 0.0
H2718 H 0.63333 0.68276 0.36997 0.0
H2719 H 0.62704 0.69316 0.38784 0.0
H2720 H 0.66869 0.72685 0.39033 0.0
H2721 H 0.675 0.71666 0.3724 0.0
H2722 H 0.63756 0.69937 0.41324 0.0
H2723 H 0.64663 0.74654 0.388 0.0
H2724 H 0.64536 0.73182 0.37939 0.0
H2725 H 0.66104 0.74386 0.38769 0.0
C2726 C 0.64111 0.69244 0.37427 0.0
C2727 C 0.65464 0.69894 0.36975 0.0
C2728 C 0.63751 0.69834 0.38448 0.0
C2729 C 0.64735 0.71088 0.39026 0.0
C2730 C 0.66087 0.71733 0.38581 0.0
H2731 H 0.64987 0.76096 0.4563 0.0
H2732 H 0.65511 0.7504 0.43779 0.0
C2733 C 0.66448 0.71145 0.37562 0.0
C2734 C 0.6436 0.71703 0.40122 0.0
H2735 H 0.64326 0.74606 0.41095 0.0
C2736 C 0.6387 0.70953 0.41271 0.0
C2737 C 0.64511 0.7303 0.40049 0.0
C2738 C 0.6497 0.73856 0.38819 0.0
C2739 C 0.63555 0.71507 0.42361 0.0
C2740 C 0.63724 0.72839 0.42293 0.0
C2741 C 0.64205 0.73586 0.41143 0.0
C2742 C 0.63402 0.73474 0.43406 0.0
C2743 C 0.63073 0.70679 0.43589 0.0
C2744 C 0.62042 0.72945 0.43799 0.0
C2745 C 0.61739 0.73554 0.44844 0.0
C2746 C 0.62789 0.7471 0.45507 0.0
C2747 C 0.64154 0.75226 0.45119 0.0
C2748 C 0.64455 0.74622 0.44068 0.0
H2749 H 0.63248 0.6979 0.43568 0.0
H2750 H 0.63607 0.71335 0.44459 0.0
H2751 H 0.61958 0.70281 0.43698 0.0
H2752 H 0.61216 0.72063 0.43294 0.0
H2753 H 0.60682 0.7312 0.45137 0.0
H2754 H 0.2785 0.95642 0.37919 0.0
H2755 H 0.26816 0.94083 0.39748 0.0
H2756 H 0.30118 0.93192 0.39721 0.0
H2757 H 0.31157 0.94744 0.37891 0.0
H2758 H 0.27378 0.90826 0.39822 0.0
H2759 H 0.28332 0.94842 0.4357 0.0
H2760 H 0.27509 0.94906 0.42086 0.0
H2761 H 0.29239 0.95234 0.42047 0.0
C2762 C 0.28356 0.95114 0.38303 0.0
C2763 C 0.29586 0.95317 0.37766 0.0
C2764 C 0.27768 0.94231 0.39351 0.0
C2765 C 0.28402 0.93539 0.39877 0.0
C2766 C 0.29619 0.93724 0.3933 0.0
H2767 H 0.26386 0.87509 0.45951 0.0
H2768 H 0.27414 0.89069 0.44124 0.0
C2769 C 0.3021 0.9461 0.38287 0.0
C2770 C 0.27784 0.92603 0.40985 0.0
H2771 H 0.26996 0.92525 0.44202 0.0
C2772 C 0.27296 0.91194 0.40782 0.0
C2773 C 0.27678 0.93091 0.42231 0.0
C2774 C 0.28226 0.94602 0.42507 0.0
C2775 C 0.2668 0.90253 0.4179 0.0
C2776 C 0.26581 0.90742 0.43042 0.0
C2777 C 0.27072 0.92153 0.43242 0.0
C2778 C 0.25971 0.89808 0.44156 0.0
C2779 C 0.26111 0.88742 0.41496 0.0
C2780 C 0.24853 0.89745 0.44813 0.0
C2781 C 0.24276 0.88868 0.45866 0.0
C2782 C 0.24797 0.88024 0.46271 0.0
C2783 C 0.2594 0.88118 0.45634 0.0
C2784 C 0.26524 0.89003 0.44588 0.0
H2785 H 0.25915 0.88506 0.40434 0.0
H2786 H 0.26866 0.88443 0.41815 0.0
H2787 H 0.25141 0.88103 0.42022 0.0
H2788 H 0.24424 0.90372 0.44507 0.0
H2789 H 0.2342 0.88848 0.46361 0.0
H2790 H 0.03877 0.3232 0.37644 0.0
H2791 H 0.05463 0.33067 0.39518 0.0
H2792 H 0.07218 0.37285 0.38342 0.0
H2793 H 0.05623 0.3655 0.36483 0.0
H2794 H 0.08299 0.34487 0.39584 0.0
H2795 H 0.06281 0.37472 0.4214 0.0
H2796 H 0.05366 0.36285 0.40811 0.0
H2797 H 0.0676 0.37982 0.40486 0.0
C2798 C 0.046 0.33406 0.37787 0.0
C2799 C 0.04621 0.34378 0.36923 0.0
C2800 C 0.05504 0.33831 0.38857 0.0
C2801 C 0.0644 0.35233 0.39081 0.0
C2802 C 0.06481 0.36201 0.38204 0.0
H2803 H 0.12956 0.3993 0.44716 0.0
H2804 H 0.11342 0.39136 0.42858 0.0
C2805 C 0.05576 0.35779 0.37138 0.0
C2806 C 0.07391 0.35681 0.4022 0.0
H2807 H 0.08377 0.3773 0.42962 0.0
C2808 C 0.08311 0.35189 0.40327 0.0
C2809 C 0.07402 0.36597 0.41188 0.0
C2810 C 0.06391 0.37105 0.41161 0.0
C2811 C 0.09264 0.3561 0.41364 0.0
C2812 C 0.09284 0.36536 0.42322 0.0
C2813 C 0.08361 0.37024 0.4222 0.0
C2814 C 0.10255 0.37009 0.43442 0.0
C2815 C 0.10261 0.35085 0.41413 0.0
C2816 C 0.10159 0.36078 0.44392 0.0
C2817 C 0.11076 0.36528 0.45451 0.0
C2818 C 0.12113 0.37916 0.45571 0.0
C2819 C 0.12185 0.38851 0.44632 0.0
C2820 C 0.11264 0.384 0.43576 0.0
H2821 H 0.10308 0.34621 0.40464 0.0
H2822 H 0.11306 0.35928 0.41683 0.0
H2823 H 0.09932 0.34284 0.42167 0.0
H2824 H 0.09367 0.35006 0.44319 0.0
H2825 H 0.10975 0.35792 0.46177 0.0
H2826 H 0.05295 0.33923 0.30669 0.0
H2827 H 0.0624 0.33255 0.28848 0.0
H2828 H 0.02878 0.29083 0.29047 0.0
H2829 H 0.01904 0.29755 0.30848 0.0
H2830 H 0.07113 0.31417 0.28692 0.0
H2831 H 0.02752 0.2989 0.25239 0.0
H2832 H 0.02928 0.30813 0.26747 0.0
H2833 H 0.02268 0.28986 0.26748 0.0
C2834 C 0.04756 0.32863 0.30324 0.0
C2835 C 0.03521 0.31892 0.30894 0.0
C2836 C 0.05297 0.32483 0.29284 0.0
C2837 C 0.04617 0.31125 0.28795 0.0
C2838 C 0.03401 0.30145 0.29385 0.0
H2839 H 0.0677 0.27095 0.22697 0.0
H2840 H 0.05753 0.27598 0.24585 0.0
C2841 C 0.02852 0.30527 0.3042 0.0
C2842 C 0.05194 0.30741 0.27678 0.0
H2843 H 0.04492 0.29423 0.24565 0.0
C2844 C 0.0654 0.30984 0.27789 0.0
C2845 C 0.04446 0.30179 0.26499 0.0
C2846 C 0.03024 0.29963 0.26292 0.0
C2847 C 0.07155 0.30673 0.26756 0.0
C2848 C 0.06406 0.30108 0.25583 0.0
C2849 C 0.05057 0.29852 0.25472 0.0
C2850 C 0.07019 0.29806 0.24447 0.0
C2851 C 0.086 0.30941 0.26924 0.0
C2852 C 0.08048 0.30884 0.23739 0.0
C2853 C 0.08624 0.30601 0.22661 0.0
C2854 C 0.08194 0.29233 0.22285 0.0
C2855 C 0.07141 0.28157 0.22984 0.0
C2856 C 0.06558 0.28442 0.24056 0.0
H2857 H 0.08948 0.31146 0.27961 0.0
H2858 H 0.08678 0.3005 0.26552 0.0
H2859 H 0.09305 0.31852 0.2635 0.0
H2860 H 0.08397 0.31944 0.24015 0.0
H2861 H 0.09406 0.31452 0.2212 0.0
H2862 H 0.65857 0.70839 0.30832 0.0
H2863 H 0.66514 0.72439 0.29025 0.0
H2864 H 0.70601 0.73032 0.29163 0.0
H2865 H 0.69945 0.71414 0.30963 0.0
H2866 H 0.68556 0.75188 0.28954 0.0
H2867 H 0.69479 0.7204 0.25318 0.0
H2868 H 0.68581 0.71342 0.26818 0.0
H2869 H 0.70419 0.72368 0.26827 0.0
C2870 C 0.66895 0.71308 0.30476 0.0
C2871 C 0.67848 0.70998 0.31034 0.0
C2872 C 0.67269 0.72222 0.29445 0.0
C2873 C 0.68599 0.72838 0.28948 0.0
C2874 C 0.69561 0.72547 0.29515 0.0
H2875 H 0.7254 0.78857 0.22841 0.0
H2876 H 0.72063 0.77313 0.24684 0.0
C2877 C 0.69187 0.7163 0.30548 0.0
C2878 C 0.68979 0.73802 0.2785 0.0
H2879 H 0.70032 0.7428 0.24687 0.0
C2880 C 0.68878 0.7499 0.2802 0.0
C2881 C 0.69397 0.73537 0.26634 0.0
C2882 C 0.69466 0.72247 0.26379 0.0
C2883 C 0.69189 0.75925 0.27007 0.0
C2884 C 0.696 0.75657 0.25792 0.0
C2885 C 0.69718 0.74479 0.25624 0.0
C2886 C 0.69886 0.76577 0.24676 0.0
C2887 C 0.69087 0.77199 0.27242 0.0
C2888 C 0.68813 0.76651 0.24053 0.0
C2889 C 0.69081 0.77525 0.23001 0.0
C2890 C 0.70431 0.78356 0.22567 0.0
C2891 C 0.71497 0.78253 0.23176 0.0
C2892 C 0.71226 0.7737 0.24222 0.0
H2893 H 0.6901 0.77387 0.28297 0.0
H2894 H 0.69992 0.78115 0.26842 0.0
H2895 H 0.6816 0.77078 0.26734 0.0
H2896 H 0.67768 0.76026 0.24378 0.0
H2897 H 0.68233 0.77551 0.22527 0.0
H2898 H 0.27791 0.97978 0.32022 0.0
H2899 H 0.26134 0.97085 0.30199 0.0
H2900 H 0.2735 0.94091 0.29295 0.0
H2901 H 0.28983 0.94957 0.31123 0.0
H2902 H 0.26611 0.96958 0.27582 0.0
H2903 H 0.23211 0.91718 0.2943 0.0
H2904 H 0.24466 0.931 0.30456 0.0
H2905 H 0.24976 0.92162 0.29382 0.0
C2906 C 0.27696 0.97122 0.3144 0.0
C2907 C 0.28509 0.96531 0.31719 0.0
C2908 C 0.26751 0.96615 0.30399 0.0
C2909 C 0.26602 0.95506 0.29626 0.0
C2910 C 0.27423 0.94924 0.29898 0.0
H2911 H 0.22344 0.91295 0.22527 0.0
H2912 H 0.23835 0.92214 0.24466 0.0
C2913 C 0.28362 0.95426 0.30939 0.0
C2914 C 0.25626 0.94986 0.28505 0.0
H2915 H 0.22925 0.92074 0.27185 0.0
C2916 C 0.25796 0.95894 0.27501 0.0
C2917 C 0.24563 0.93597 0.28403 0.0
C2918 C 0.24282 0.92591 0.29481 0.0
C2919 C 0.24956 0.95439 0.26377 0.0
C2920 C 0.23915 0.94045 0.26264 0.0
C2921 C 0.23732 0.93141 0.27275 0.0
C2922 C 0.23013 0.93498 0.25096 0.0
C2923 C 0.2521 0.96442 0.25302 0.0
C2924 C 0.22057 0.93914 0.24817 0.0
C2925 C 0.21197 0.93382 0.23719 0.0
C2926 C 0.2127 0.92416 0.22888 0.0
C2927 C 0.22244 0.92015 0.23164 0.0
C2928 C 0.23098 0.92542 0.24266 0.0
H2929 H 0.26209 0.97408 0.25432 0.0
H2930 H 0.2519 0.95973 0.24336 0.0
H2931 H 0.24385 0.96708 0.253 0.0
H2932 H 0.21972 0.94646 0.25452 0.0
H2933 H 0.20473 0.93726 0.23517 0.0
H2934 H 0.66486 0.94278 0.31255 0.0
H2935 H 0.67216 0.93487 0.29351 0.0
H2936 H 0.70885 0.97456 0.29143 0.0
H2937 H 0.70156 0.98261 0.31042 0.0
H2938 H 0.69456 0.96516 0.26772 0.0
H2939 H 0.70262 0.9251 0.29037 0.0
H2940 H 0.6862 0.92339 0.2936 0.0
H2941 H 0.7015 0.93816 0.29984 0.0
C2942 C 0.67455 0.94979 0.30812 0.0
C2943 C 0.68265 0.96331 0.31298 0.0
C2944 C 0.67874 0.94522 0.29729 0.0
C2945 C 0.69113 0.95408 0.29117 0.0
C2946 C 0.69929 0.96755 0.29607 0.0
H2947 H 0.73074 0.93336 0.22949 0.0
H2948 H 0.72478 0.94012 0.25018 0.0
C2949 C 0.69513 0.97212 0.30692 0.0
C2950 C 0.69514 0.94954 0.2792 0.0
H2951 H 0.70243 0.92546 0.26713 0.0
C2952 C 0.69635 0.95653 0.2676 0.0
C2953 C 0.69759 0.93835 0.27911 0.0
C2954 C 0.69705 0.93088 0.29141 0.0
C2955 C 0.69969 0.95247 0.25583 0.0
C2956 C 0.70165 0.94098 0.25564 0.0
C2957 C 0.70074 0.93416 0.26729 0.0
C2958 C 0.70484 0.93603 0.24343 0.0
C2959 C 0.70122 0.96062 0.24373 0.0
C2960 C 0.69547 0.9312 0.23291 0.0
C2961 C 0.69884 0.92733 0.22112 0.0
C2962 C 0.71158 0.92806 0.2197 0.0
C2963 C 0.7208 0.93256 0.23038 0.0
C2964 C 0.71742 0.93644 0.24216 0.0
H2965 H 0.70279 0.97098 0.24616 0.0
H2966 H 0.70999 0.96185 0.23784 0.0
H2967 H 0.69177 0.95506 0.23764 0.0
H2968 H 0.68561 0.93061 0.23377 0.0
H2969 H 0.69159 0.92399 0.21303 0.0
H2970 H 0.05885 0.72225 0.30706 0.0
H2971 H 0.0665 0.73769 0.28848 0.0
H2972 H 0.02824 0.73769 0.28826 0.0
H2973 H 0.02047 0.72215 0.30679 0.0
H2974 H 0.03565 0.7323 0.26378 0.0
H2975 H 0.07862 0.77886 0.28735 0.0
H2976 H 0.07928 0.76337 0.2896 0.0
H2977 H 0.06553 0.76493 0.29657 0.0
C2978 C 0.05212 0.72564 0.30313 0.0
C2979 C 0.03907 0.72101 0.30839 0.0
C2980 C 0.05653 0.73452 0.29256 0.0
C2981 C 0.048 0.73897 0.28711 0.0
C2982 C 0.035 0.73443 0.29239 0.0
H2983 H 0.06797 0.80122 0.22841 0.0
H2984 H 0.0618 0.78797 0.24854 0.0
C2985 C 0.03059 0.72557 0.30297 0.0
C2986 C 0.05234 0.74776 0.27545 0.0
H2987 H 0.07684 0.77892 0.2642 0.0
C2988 C 0.04462 0.74251 0.26388 0.0
C2989 C 0.06397 0.76112 0.27566 0.0
C2990 C 0.07228 0.76749 0.28798 0.0
C2991 C 0.04836 0.75018 0.25241 0.0
C2992 C 0.06025 0.76336 0.2525 0.0
C2993 C 0.06782 0.76873 0.26414 0.0
C2994 C 0.06483 0.77177 0.24061 0.0
C2995 C 0.03947 0.74417 0.24034 0.0
C2996 C 0.06885 0.76717 0.22962 0.0
C2997 C 0.07241 0.77473 0.21815 0.0
C2998 C 0.07217 0.7871 0.21754 0.0
C2999 C 0.06843 0.79183 0.22867 0.0
C3000 C 0.06487 0.78426 0.24014 0.0
H3001 H 0.02912 0.73556 0.24269 0.0
H3002 H 0.03832 0.75215 0.23513 0.0
H3003 H 0.04437 0.74013 0.23363 0.0
H3004 H 0.06904 0.75763 0.22985 0.0
H3005 H 0.07513 0.77079 0.20968 0.0
H3006 H 0.29122 0.34431 0.30774 0.0
H3007 H 0.27641 0.33791 0.2883 0.0
H3008 H 0.25848 0.29506 0.29775 0.0
H3009 H 0.27331 0.30137 0.31722 0.0
H3010 H 0.27616 0.31908 0.26774 0.0
H3011 H 0.22522 0.3014 0.28996 0.0
H3012 H 0.24113 0.31291 0.29841 0.0
H3013 H 0.23558 0.29494 0.29686 0.0
C3014 C 0.28402 0.33353 0.30577 0.0
C3015 C 0.28342 0.32333 0.31399 0.0
C3016 C 0.27558 0.3299 0.29466 0.0
C3017 C 0.2663 0.31604 0.29169 0.0
C3018 C 0.26547 0.30584 0.30001 0.0
H3019 H 0.21056 0.27263 0.22706 0.0
H3020 H 0.22287 0.27961 0.24808 0.0
C3021 C 0.27397 0.30945 0.31107 0.0
C3022 C 0.25816 0.31223 0.2794 0.0
H3023 H 0.22556 0.29811 0.26716 0.0
C3024 C 0.2651 0.31456 0.26758 0.0
C3025 C 0.24376 0.30623 0.2793 0.0
C3026 C 0.23592 0.30377 0.29178 0.0
C3027 C 0.25798 0.31084 0.25559 0.0
C3028 C 0.24356 0.305 0.25544 0.0
C3029 C 0.23662 0.30266 0.2673 0.0
C3030 C 0.23551 0.30101 0.24305 0.0
C3031 C 0.26596 0.31284 0.24325 0.0
C3032 C 0.23826 0.31079 0.2334 0.0
C3033 C 0.23135 0.30679 0.22136 0.0
C3034 C 0.22141 0.29299 0.21885 0.0
C3035 C 0.21823 0.28332 0.22874 0.0
C3036 C 0.22522 0.28731 0.24073 0.0
H3037 H 0.27607 0.31371 0.24528 0.0
H3038 H 0.26017 0.30418 0.23621 0.0
H3039 H 0.26786 0.32249 0.23859 0.0
H3040 H 0.2459 0.32149 0.2351 0.0
H3041 H 0.23395 0.31446 0.21395 0.0
H3042 H 0.28246 0.32661 0.38156 0.0
H3043 H 0.27418 0.33396 0.40029 0.0
H3044 H 0.29923 0.37628 0.38924 0.0
H3045 H 0.30764 0.36902 0.37049 0.0
H3046 H 0.29259 0.35381 0.42058 0.0
H3047 H 0.25942 0.37011 0.39515 0.0
H3048 H 0.26398 0.35826 0.38782 0.0
H3049 H 0.27632 0.37628 0.38879 0.0
C3050 C 0.28612 0.33747 0.38305 0.0
C3051 C 0.29569 0.34725 0.37457 0.0
C3052 C 0.28139 0.34165 0.39374 0.0
C3053 C 0.28601 0.35563 0.39604 0.0
C3054 C 0.29542 0.36542 0.38751 0.0
H3055 H 0.27157 0.40102 0.45695 0.0
H3056 H 0.2778 0.39353 0.43685 0.0
C3057 C 0.30024 0.36127 0.37685 0.0
C3058 C 0.28153 0.36 0.40779 0.0
H3059 H 0.26253 0.37425 0.41792 0.0
C3060 C 0.28598 0.35824 0.42003 0.0
C3061 C 0.27301 0.36585 0.40697 0.0
C3062 C 0.26779 0.36769 0.394 0.0
C3063 C 0.28227 0.36236 0.43155 0.0
C3064 C 0.27356 0.36804 0.43078 0.0
C3065 C 0.26915 0.36984 0.41849 0.0
C3066 C 0.26908 0.37234 0.44262 0.0
C3067 C 0.28802 0.36091 0.44439 0.0
C3068 C 0.26181 0.36283 0.45237 0.0
C3069 C 0.25835 0.36711 0.46387 0.0
C3070 C 0.2619 0.38092 0.46574 0.0
C3071 C 0.26872 0.39032 0.45575 0.0
C3072 C 0.27227 0.38605 0.44428 0.0
H3073 H 0.29736 0.3601 0.44301 0.0
H3074 H 0.29062 0.36979 0.45104 0.0
H3075 H 0.28025 0.3514 0.44917 0.0
H3076 H 0.25896 0.35213 0.45115 0.0
H3077 H 0.25306 0.35965 0.47138 0.0
H3078 H 0.66959 0.94258 0.36998 0.0
H3079 H 0.66156 0.92603 0.38773 0.0
H3080 H 0.63331 0.93944 0.39929 0.0
H3081 H 0.64092 0.95559 0.38132 0.0
H3082 H 0.66208 0.92927 0.41345 0.0
H3083 H 0.60806 0.89871 0.39687 0.0
H3084 H 0.62128 0.91132 0.38672 0.0
H3085 H 0.61323 0.91653 0.39888 0.0
C3086 C 0.66162 0.94193 0.37628 0.0
C3087 C 0.65578 0.95027 0.37421 0.0
C3088 C 0.65704 0.93249 0.38641 0.0
C3089 C 0.64661 0.93127 0.39467 0.0
C3090 C 0.64105 0.93987 0.39281 0.0
H3091 H 0.62756 0.89907 0.47212 0.0
H3092 H 0.63773 0.9127 0.4527 0.0
C3093 C 0.64549 0.94918 0.38259 0.0
C3094 C 0.64172 0.92125 0.40542 0.0
H3095 H 0.61271 0.89579 0.41909 0.0
C3096 C 0.6513 0.92183 0.41461 0.0
C3097 C 0.6277 0.91132 0.40678 0.0
C3098 C 0.61701 0.90932 0.3967 0.0
C3099 C 0.64718 0.91313 0.4254 0.0
C3100 C 0.63304 0.9039 0.42725 0.0
C3101 C 0.62353 0.90297 0.41779 0.0
C3102 C 0.62776 0.89544 0.43911 0.0
C3103 C 0.65804 0.91389 0.4346 0.0
C3104 C 0.6185 0.88124 0.43798 0.0
C3105 C 0.61243 0.87349 0.44906 0.0
C3106 C 0.6157 0.87977 0.46153 0.0
C3107 C 0.62512 0.89393 0.46266 0.0
C3108 C 0.63101 0.90171 0.45157 0.0
H3109 H 0.66793 0.9175 0.42954 0.0
H3110 H 0.65985 0.92138 0.4426 0.0
H3111 H 0.6549 0.90374 0.43893 0.0
H3112 H 0.61571 0.87619 0.42847 0.0
H3113 H 0.60499 0.86267 0.44782 0.0
H3114 H 0.06255 0.72809 0.36445 0.0
H3115 H 0.07815 0.73631 0.38339 0.0
H3116 H 0.06008 0.69471 0.39709 0.0
H3117 H 0.04491 0.68641 0.37793 0.0
H3118 H 0.07328 0.73578 0.40836 0.0
H3119 H 0.09962 0.70613 0.40001 0.0
H3120 H 0.08867 0.70728 0.38779 0.0
H3121 H 0.08143 0.69495 0.40065 0.0
C3122 C 0.06202 0.7207 0.37144 0.0
C3123 C 0.05261 0.7066 0.36967 0.0
C3124 C 0.07092 0.7254 0.38226 0.0
C3125 C 0.0705 0.71611 0.39155 0.0
C3126 C 0.06093 0.70204 0.38986 0.0
H3127 H 0.09587 0.73217 0.47219 0.0
H3128 H 0.08436 0.72848 0.451 0.0
C3129 C 0.05219 0.69731 0.37895 0.0
C3130 C 0.07963 0.72115 0.40328 0.0
H3131 H 0.1015 0.71535 0.42168 0.0
C3132 C 0.07958 0.73143 0.41119 0.0
C3133 C 0.0881 0.71571 0.40686 0.0
C3134 C 0.08959 0.70553 0.39829 0.0
C3135 C 0.08735 0.73604 0.42281 0.0
C3136 C 0.09503 0.72987 0.42686 0.0
C3137 C 0.09548 0.71997 0.4187 0.0
C3138 C 0.1023 0.73313 0.43969 0.0
C3139 C 0.08731 0.74754 0.43054 0.0
C3140 C 0.11613 0.73664 0.44046 0.0
C3141 C 0.12263 0.73848 0.45258 0.0
C3142 C 0.11548 0.73705 0.46419 0.0
C3143 C 0.1017 0.73368 0.4634 0.0
C3144 C 0.09515 0.73165 0.45129 0.0
H3145 H 0.0852 0.75419 0.42414 0.0
H3146 H 0.07907 0.74309 0.43788 0.0
H3147 H 0.09725 0.75405 0.43571 0.0
H3148 H 0.12182 0.73769 0.43166 0.0
H3149 H 0.13316 0.74073 0.45285 0.0
H3150 H 0.29969 0.01765 0.70333 0.0
H3151 H 0.29307 0.02768 0.72128 0.0
H3152 H 0.33403 0.06271 0.72288 0.0
H3153 H 0.34065 0.05288 0.7049 0.0
H3154 H 0.30416 0.03475 0.74651 0.0
H3155 H 0.31024 0.08058 0.7208 0.0
H3156 H 0.3095 0.06604 0.7123 0.0
H3157 H 0.32517 0.07877 0.72015 0.0
C3158 C 0.30724 0.02753 0.70746 0.0
C3159 C 0.32066 0.03452 0.70267 0.0
C3160 C 0.30346 0.03323 0.71771 0.0
C3161 C 0.313 0.04604 0.72326 0.0
C3162 C 0.32642 0.05296 0.71855 0.0
H3163 H 0.31583 0.09622 0.78915 0.0
H3164 H 0.32082 0.08562 0.77052 0.0
C3165 C 0.33021 0.04729 0.70832 0.0
C3166 C 0.3091 0.05201 0.73426 0.0
H3167 H 0.30774 0.08052 0.74389 0.0
C3168 C 0.30482 0.04469 0.74591 0.0
C3169 C 0.30998 0.065 0.73343 0.0
C3170 C 0.31384 0.07301 0.72096 0.0
C3171 C 0.30172 0.05019 0.75689 0.0
C3172 C 0.30284 0.06327 0.75611 0.0
C3173 C 0.30698 0.07052 0.74443 0.0
C3174 C 0.29976 0.06961 0.76734 0.0
C3175 C 0.2976 0.04217 0.76934 0.0
C3176 C 0.28626 0.06412 0.77163 0.0
C3177 C 0.28336 0.07024 0.78215 0.0
C3178 C 0.29389 0.08202 0.78849 0.0
C3179 C 0.30746 0.08736 0.78427 0.0
C3180 C 0.31033 0.08129 0.77368 0.0
H3181 H 0.29956 0.03341 0.76904 0.0
H3182 H 0.30324 0.04896 0.77782 0.0
H3183 H 0.28649 0.03802 0.7709 0.0
H3184 H 0.27797 0.05514 0.76681 0.0
H3185 H 0.27287 0.06577 0.78536 0.0
H3186 H 0.9768 0.27481 0.70074 0.0
H3187 H 0.96713 0.25804 0.71826 0.0
H3188 H 0.93951 0.27288 0.72774 0.0
H3189 H 0.94889 0.28941 0.71014 0.0
H3190 H 0.96649 0.26278 0.74461 0.0
H3191 H 0.91365 0.23168 0.72462 0.0
H3192 H 0.92775 0.24381 0.71492 0.0
H3193 H 0.91924 0.24969 0.72584 0.0
C3194 C 0.96858 0.2744 0.7065 0.0
C3195 C 0.96353 0.28334 0.70402 0.0
C3196 C 0.96309 0.26484 0.7165 0.0
C3197 C 0.95244 0.26406 0.72414 0.0
C3198 C 0.94748 0.27307 0.72175 0.0
H3199 H 0.90879 0.2221 0.79285 0.0
H3200 H 0.91892 0.23719 0.77419 0.0
C3201 C 0.95291 0.28256 0.71174 0.0
C3202 C 0.94681 0.25417 0.73494 0.0
H3203 H 0.91698 0.22822 0.74698 0.0
C3204 C 0.95569 0.25512 0.74507 0.0
C3205 C 0.93272 0.24418 0.73549 0.0
C3206 C 0.9228 0.24216 0.72457 0.0
C3207 C 0.95077 0.24663 0.75597 0.0
C3208 C 0.93665 0.23688 0.75665 0.0
C3209 C 0.9278 0.23578 0.74643 0.0
C3210 C 0.93076 0.22786 0.76799 0.0
C3211 C 0.96063 0.24839 0.76685 0.0
C3212 C 0.93408 0.21763 0.77061 0.0
C3213 C 0.92823 0.20895 0.78119 0.0
C3214 C 0.91888 0.21027 0.78923 0.0
C3215 C 0.91575 0.22067 0.78666 0.0
C3216 C 0.92155 0.22931 0.77606 0.0
H3217 H 0.97061 0.25807 0.76601 0.0
H3218 H 0.95618 0.24838 0.77649 0.0
H3219 H 0.96259 0.23964 0.76654 0.0
H3220 H 0.94109 0.2163 0.76441 0.0
H3221 H 0.93098 0.20116 0.78307 0.0
H3222 H 0.7183 0.70091 0.70021 0.0
H3223 H 0.73441 0.70826 0.71875 0.0
H3224 H 0.72546 0.66647 0.72346 0.0
H3225 H 0.70956 0.6591 0.70484 0.0
H3226 H 0.7293 0.69983 0.74428 0.0
H3227 H 0.76712 0.68764 0.72288 0.0
H3228 H 0.75411 0.68841 0.71316 0.0
H3229 H 0.74991 0.67334 0.72244 0.0
C3230 C 0.71985 0.69331 0.70515 0.0
C3231 C 0.71274 0.67944 0.70104 0.0
C3232 C 0.72903 0.69752 0.71573 0.0
C3233 C 0.73129 0.68795 0.72235 0.0
C3234 C 0.72411 0.67408 0.71831 0.0
H3235 H 0.77544 0.68904 0.79198 0.0
H3236 H 0.76019 0.68289 0.77287 0.0
C3237 C 0.71497 0.66987 0.70772 0.0
C3238 C 0.74081 0.69237 0.73373 0.0
H3239 H 0.76932 0.69271 0.74571 0.0
C3240 C 0.73811 0.69838 0.74456 0.0
C3241 C 0.75231 0.69047 0.73405 0.0
C3242 C 0.75614 0.68474 0.72247 0.0
C3243 C 0.74644 0.70226 0.75583 0.0
C3244 C 0.75778 0.70014 0.75621 0.0
C3245 C 0.76055 0.69424 0.74537 0.0
C3246 C 0.76688 0.70394 0.76781 0.0
C3247 C 0.74292 0.7083 0.76738 0.0
C3248 C 0.77568 0.71781 0.77122 0.0
C3249 C 0.78451 0.72135 0.78202 0.0
C3250 C 0.78476 0.71108 0.78953 0.0
C3251 C 0.77571 0.69718 0.78621 0.0
C3252 C 0.76696 0.69365 0.77535 0.0
H3253 H 0.73255 0.70708 0.76637 0.0
H3254 H 0.74341 0.70337 0.77653 0.0
H3255 H 0.75051 0.71945 0.76828 0.0
H3256 H 0.77577 0.72588 0.76547 0.0
H3257 H 0.79119 0.73212 0.78451 0.0
H3258 H 0.68537 0.63291 0.63984 0.0
H3259 H 0.69538 0.62648 0.62183 0.0
H3260 H 0.72861 0.6684 0.62008 0.0
H3261 H 0.71885 0.67482 0.63819 0.0
H3262 H 0.70055 0.6362 0.59681 0.0
H3263 H 0.74895 0.64717 0.6215 0.0
H3264 H 0.73458 0.64598 0.63029 0.0
H3265 H 0.74613 0.66153 0.62203 0.0
C3266 C 0.69487 0.64072 0.63568 0.0
C3267 C 0.70138 0.65435 0.64047 0.0
C3268 C 0.70056 0.63704 0.62539 0.0
C3269 C 0.71287 0.64691 0.61976 0.0
C3270 C 0.7193 0.66054 0.62448 0.0
H3271 H 0.76077 0.65118 0.5528 0.0
H3272 H 0.75032 0.65567 0.57173 0.0
C3273 C 0.71365 0.66421 0.63478 0.0
C3274 C 0.71876 0.64312 0.60866 0.0
H3275 H 0.74789 0.64388 0.59837 0.0
C3276 C 0.71085 0.63775 0.59719 0.0
C3277 C 0.73219 0.64513 0.60919 0.0
C3278 C 0.74091 0.65014 0.62146 0.0
C3279 C 0.71617 0.63471 0.5861 0.0
C3280 C 0.72969 0.63702 0.58656 0.0
C3281 C 0.73754 0.64221 0.59806 0.0
C3282 C 0.73593 0.63421 0.57515 0.0
C3283 C 0.70745 0.62937 0.57386 0.0
C3284 C 0.73131 0.62066 0.57089 0.0
C3285 C 0.73735 0.61806 0.56019 0.0
C3286 C 0.74819 0.62897 0.55363 0.0
C3287 C 0.75266 0.64256 0.55784 0.0
C3288 C 0.74667 0.64514 0.56859 0.0
H3289 H 0.69813 0.63035 0.57439 0.0
H3290 H 0.71344 0.635 0.56522 0.0
H3291 H 0.70417 0.61834 0.57237 0.0
H3292 H 0.72306 0.6121 0.57588 0.0
H3293 H 0.73355 0.60751 0.55701 0.0
H3294 H 0.32025 0.03976 0.63884 0.0
H3295 H 0.32536 0.05504 0.62027 0.0
H3296 H 0.36819 0.0675 0.62387 0.0
H3297 H 0.36314 0.05208 0.64221 0.0
H3298 H 0.34223 0.08306 0.61895 0.0
H3299 H 0.36035 0.05645 0.5856 0.0
H3300 H 0.35128 0.04879 0.60039 0.0
H3301 H 0.36929 0.06126 0.60102 0.0
C3302 C 0.33075 0.04573 0.63564 0.0
C3303 C 0.34129 0.04466 0.64191 0.0
C3304 C 0.33364 0.05445 0.62504 0.0
C3305 C 0.34711 0.0622 0.62054 0.0
C3306 C 0.35768 0.06135 0.62697 0.0
H3307 H 0.3883 0.12463 0.56264 0.0
H3308 H 0.38212 0.1087 0.58084 0.0
C3309 C 0.35479 0.0526 0.6375 0.0
C3310 C 0.35019 0.07144 0.60931 0.0
H3311 H 0.36457 0.07853 0.57914 0.0
C3312 C 0.34701 0.08201 0.6102 0.0
C3313 C 0.35642 0.07002 0.5979 0.0
C3314 C 0.35942 0.05843 0.59608 0.0
C3315 C 0.35019 0.09141 0.6001 0.0
C3316 C 0.35661 0.09012 0.58881 0.0
C3317 C 0.3597 0.0795 0.58786 0.0
C3318 C 0.36026 0.09974 0.57788 0.0
C3319 C 0.34696 0.10286 0.60166 0.0
C3320 C 0.34999 0.09977 0.57012 0.0
C3321 C 0.35348 0.10881 0.55973 0.0
C3322 C 0.36732 0.11809 0.55704 0.0
C3323 C 0.37757 0.11781 0.56469 0.0
C3324 C 0.37407 0.10871 0.57502 0.0
H3325 H 0.34438 0.10397 0.61188 0.0
H3326 H 0.35578 0.1128 0.59862 0.0
H3327 H 0.33806 0.10065 0.5953 0.0
H3328 H 0.33927 0.09271 0.57203 0.0
H3329 H 0.34536 0.10853 0.55378 0.0
H3330 H 0.95447 0.27757 0.64277 0.0
H3331 H 0.93891 0.26789 0.6239 0.0
H3332 H 0.93314 0.30306 0.62403 0.0
H3333 H 0.94863 0.31278 0.64296 0.0
H3334 H 0.90845 0.27683 0.62172 0.0
H3335 H 0.94786 0.2823 0.58619 0.0
H3336 H 0.94731 0.27357 0.60094 0.0
H3337 H 0.95223 0.29145 0.60168 0.0
C3338 C 0.94989 0.28325 0.63877 0.0
C3339 C 0.9528 0.29596 0.6443 0.0
C3340 C 0.94107 0.27774 0.62797 0.0
C3341 C 0.93505 0.28487 0.62248 0.0
C3342 C 0.93775 0.29745 0.6281 0.0
H3343 H 0.87729 0.26898 0.55895 0.0
H3344 H 0.89265 0.27833 0.57798 0.0
C3345 C 0.9466 0.30298 0.6389 0.0
C3346 C 0.92579 0.27912 0.61097 0.0
H3347 H 0.92477 0.27034 0.57883 0.0
C3348 C 0.912 0.27543 0.61232 0.0
C3349 C 0.93048 0.27728 0.59877 0.0
C3350 C 0.9453 0.28145 0.59671 0.0
C3351 C 0.90268 0.26973 0.60181 0.0
C3352 C 0.90738 0.268 0.58955 0.0
C3353 C 0.92119 0.27167 0.58823 0.0
C3354 C 0.89817 0.26243 0.57795 0.0
C3355 C 0.88783 0.26533 0.60404 0.0
C3356 C 0.8966 0.25072 0.5713 0.0
C3357 C 0.88798 0.24548 0.56032 0.0
C3358 C 0.88062 0.25176 0.5559 0.0
C3359 C 0.88252 0.26371 0.56238 0.0
C3360 C 0.89123 0.26901 0.57328 0.0
H3361 H 0.88522 0.26359 0.61454 0.0
H3362 H 0.88585 0.27356 0.60075 0.0
H3363 H 0.8809 0.25575 0.59846 0.0
H3364 H 0.90202 0.2456 0.57463 0.0
H3365 H 0.88705 0.23649 0.55532 0.0
H3366 H 0.36733 0.31369 0.64425 0.0
H3367 H 0.37366 0.30499 0.62507 0.0
H3368 H 0.33328 0.26911 0.62366 0.0
H3369 H 0.32686 0.2777 0.64288 0.0
H3370 H 0.35589 0.2639 0.61999 0.0
H3371 H 0.35815 0.30449 0.58789 0.0
H3372 H 0.36809 0.31064 0.60276 0.0
H3373 H 0.34974 0.30058 0.60346 0.0
C3374 C 0.35982 0.30391 0.63991 0.0
C3375 C 0.34657 0.29641 0.64501 0.0
C3376 C 0.36344 0.29899 0.62894 0.0
C3377 C 0.35387 0.28651 0.62289 0.0
C3378 C 0.34078 0.27879 0.62819 0.0
H3379 H 0.35953 0.26084 0.54405 0.0
H3380 H 0.35148 0.26561 0.56455 0.0
C3381 C 0.33713 0.28372 0.63914 0.0
C3382 C 0.3574 0.28172 0.61079 0.0
H3383 H 0.36581 0.29001 0.57897 0.0
C3384 C 0.35803 0.26956 0.611 0.0
C3385 C 0.35999 0.28906 0.59906 0.0
C3386 C 0.35886 0.30186 0.59817 0.0
C3387 C 0.36149 0.26469 0.59979 0.0
C3388 C 0.36447 0.27225 0.58816 0.0
C3389 C 0.36357 0.28427 0.58792 0.0
C3390 C 0.3687 0.26804 0.57612 0.0
C3391 C 0.36177 0.25142 0.60044 0.0
C3392 C 0.38101 0.26777 0.57587 0.0
C3393 C 0.3856 0.26502 0.5642 0.0
C3394 C 0.37793 0.26246 0.55258 0.0
C3395 C 0.36552 0.26257 0.5529 0.0
C3396 C 0.36095 0.26533 0.56457 0.0
H3397 H 0.35591 0.24516 0.60886 0.0
H3398 H 0.35748 0.24519 0.59133 0.0
H3399 H 0.37254 0.25381 0.60158 0.0
H3400 H 0.38731 0.27016 0.58461 0.0
H3401 H 0.39533 0.26528 0.56416 0.0
H3402 H 0.68945 0.0562 0.6352 0.0
H3403 H 0.69795 0.07087 0.61612 0.0
H3404 H 0.73339 0.06577 0.61546 0.0
H3405 H 0.72497 0.05108 0.63463 0.0
H3406 H 0.73885 0.0938 0.61198 0.0
H3407 H 0.69791 0.05559 0.57886 0.0
H3408 H 0.69184 0.05935 0.59365 0.0
H3409 H 0.70191 0.05105 0.59445 0.0
C3410 C 0.69908 0.05824 0.63103 0.0
C3411 C 0.70651 0.05243 0.63635 0.0
C3412 C 0.70389 0.06658 0.62011 0.0
C3413 C 0.71619 0.06924 0.6143 0.0
C3414 C 0.72384 0.06377 0.61979 0.0
H3415 H 0.7384 0.1023 0.53619 0.0
H3416 H 0.73511 0.08897 0.55594 0.0
C3417 C 0.71901 0.05538 0.63071 0.0
C3418 C 0.72089 0.07753 0.60236 0.0
H3419 H 0.71171 0.07809 0.5707 0.0
C3420 C 0.733 0.09035 0.60291 0.0
C3421 C 0.71331 0.07289 0.59053 0.0
C3422 C 0.70058 0.05892 0.58924 0.0
C3423 C 0.73749 0.09889 0.592 0.0
C3424 C 0.72958 0.09449 0.58033 0.0
C3425 C 0.71771 0.08147 0.57969 0.0
C3426 C 0.73312 0.10333 0.56874 0.0
C3427 C 0.75066 0.1125 0.59304 0.0
C3428 C 0.73317 0.11584 0.56941 0.0
C3429 C 0.73507 0.12346 0.55816 0.0
C3430 C 0.73699 0.11871 0.54604 0.0
C3431 C 0.73716 0.10629 0.54543 0.0
C3432 C 0.73524 0.09867 0.55668 0.0
H3433 H 0.75732 0.11266 0.60116 0.0
H3434 H 0.75646 0.11483 0.58381 0.0
H3435 H 0.74824 0.12079 0.59498 0.0
H3436 H 0.73121 0.11945 0.57854 0.0
H3437 H 0.73462 0.13286 0.55885 0.0
H3438 H 0.94792 0.67641 0.64055 0.0
H3439 H 0.93339 0.66978 0.62087 0.0
H3440 H 0.93025 0.6299 0.62077 0.0
H3441 H 0.94484 0.63647 0.64035 0.0
H3442 H 0.93763 0.64317 0.59671 0.0
H3443 H 0.89181 0.64276 0.61693 0.0
H3444 H 0.90783 0.65826 0.62014 0.0
H3445 H 0.90473 0.64239 0.62714 0.0
C3446 C 0.94404 0.66619 0.63639 0.0
C3447 C 0.9475 0.65695 0.64199 0.0
C3448 C 0.93568 0.6624 0.6252 0.0
C3449 C 0.93063 0.6493 0.61947 0.0
C3450 C 0.93401 0.64004 0.62509 0.0
H3451 H 0.87033 0.60694 0.55799 0.0
H3452 H 0.88291 0.61486 0.57882 0.0
C3453 C 0.94233 0.64381 0.63627 0.0
C3454 C 0.92239 0.64544 0.60723 0.0
H3455 H 0.89217 0.64001 0.59396 0.0
C3456 C 0.92769 0.64248 0.5961 0.0
C3457 C 0.90939 0.64444 0.60652 0.0
C3458 C 0.90301 0.64701 0.61833 0.0
C3459 C 0.92037 0.63862 0.58423 0.0
C3460 C 0.90749 0.6379 0.58344 0.0
C3461 C 0.90212 0.64073 0.59459 0.0
C3462 C 0.89932 0.63379 0.57116 0.0
C3463 C 0.92635 0.63509 0.57268 0.0
C3464 C 0.90424 0.64197 0.56008 0.0
C3465 C 0.89707 0.6375 0.54821 0.0
C3466 C 0.88478 0.62482 0.54726 0.0
C3467 C 0.87968 0.61683 0.55849 0.0
C3468 C 0.88685 0.62132 0.57036 0.0
H3469 H 0.93476 0.63321 0.57565 0.0
H3470 H 0.91833 0.62581 0.56739 0.0
H3471 H 0.93058 0.64377 0.56581 0.0
H3472 H 0.91379 0.65169 0.56055 0.0
H3473 H 0.90129 0.64379 0.53968 0.0
H3474 H 0.97899 0.70154 0.7082 0.0
H3475 H 0.97093 0.70855 0.72733 0.0
H3476 H 0.93103 0.67238 0.72262 0.0
H3477 H 0.93897 0.66535 0.7034 0.0
H3478 H 0.93039 0.69692 0.7281 0.0
H3479 H 0.96398 0.68935 0.76282 0.0
H3480 H 0.97282 0.70042 0.74948 0.0
H3481 H 0.96072 0.68255 0.74632 0.0
C3482 C 0.96848 0.69512 0.71119 0.0
C3483 C 0.95963 0.68285 0.70435 0.0
C3484 C 0.96392 0.6991 0.72216 0.0
C3485 C 0.95045 0.69087 0.72649 0.0
C3486 C 0.94147 0.67884 0.71946 0.0
H3487 H 0.92206 0.69619 0.80378 0.0
H3488 H 0.92699 0.68816 0.78328 0.0
C3489 C 0.94603 0.67483 0.7085 0.0
C3490 C 0.9458 0.69468 0.73849 0.0
H3491 H 0.95197 0.7 0.77129 0.0
C3492 C 0.93507 0.69756 0.73756 0.0
C3493 C 0.95179 0.69529 0.75083 0.0
C3494 C 0.96288 0.69162 0.7525 0.0
C3495 C 0.93034 0.70133 0.74864 0.0
C3496 C 0.93665 0.7024 0.7609 0.0
C3497 C 0.94721 0.69925 0.76185 0.0
C3498 C 0.9326 0.70687 0.7729 0.0
C3499 C 0.91853 0.70396 0.74714 0.0
C3500 C 0.93409 0.72004 0.77384 0.0
C3501 C 0.93122 0.7246 0.78551 0.0
C3502 C 0.92683 0.71609 0.79645 0.0
C3503 C 0.92525 0.70288 0.79545 0.0
C3504 C 0.9281 0.69831 0.78378 0.0
H3505 H 0.91251 0.69913 0.73805 0.0
H3506 H 0.91156 0.69998 0.75558 0.0
H3507 H 0.92258 0.71521 0.74666 0.0
H3508 H 0.93787 0.72694 0.76568 0.0
H3509 H 0.93276 0.73492 0.7861 0.0
H3510 H 0.2996 0.27838 0.70332 0.0
H3511 H 0.29235 0.26317 0.72217 0.0
H3512 H 0.33428 0.27413 0.72979 0.0
H3513 H 0.34163 0.28927 0.71096 0.0
H3514 H 0.30248 0.24041 0.72797 0.0
H3515 H 0.31482 0.28302 0.76371 0.0
H3516 H 0.30964 0.28354 0.74711 0.0
H3517 H 0.32629 0.28584 0.75042 0.0
C3518 C 0.30726 0.27748 0.70897 0.0
C3519 C 0.32118 0.28503 0.70569 0.0
C3520 C 0.3031 0.26879 0.71969 0.0
C3521 C 0.31281 0.2676 0.72731 0.0
C3522 C 0.32667 0.27495 0.72398 0.0
H3523 H 0.30783 0.23273 0.80341 0.0
H3524 H 0.31562 0.24528 0.78299 0.0
C3525 C 0.33083 0.28358 0.71323 0.0
C3526 C 0.30855 0.25902 0.73904 0.0
H3527 H 0.30655 0.26091 0.77209 0.0
C3528 C 0.30333 0.24482 0.73764 0.0
C3529 C 0.30983 0.26492 0.75157 0.0
C3530 C 0.31541 0.28017 0.75342 0.0
C3531 C 0.29939 0.23631 0.74856 0.0
C3532 C 0.30044 0.24217 0.76113 0.0
C3533 C 0.30575 0.25642 0.76247 0.0
C3534 C 0.29596 0.23376 0.77306 0.0
C3535 C 0.29445 0.2212 0.74655 0.0
C3536 C 0.28235 0.22307 0.77424 0.0
C3537 C 0.27794 0.2158 0.78584 0.0
C3538 C 0.28701 0.21922 0.79654 0.0
C3539 C 0.30065 0.22984 0.7953 0.0
C3540 C 0.30509 0.23702 0.78366 0.0
H3541 H 0.29816 0.21919 0.73722 0.0
H3542 H 0.29789 0.21714 0.75467 0.0
H3543 H 0.28308 0.21542 0.74615 0.0
H3544 H 0.27503 0.22059 0.76633 0.0
H3545 H 0.26734 0.20773 0.78658 0.0
H3546 H 0.71935 0.05979 0.69971 0.0
H3547 H 0.73427 0.06758 0.71912 0.0
H3548 H 0.73653 0.03037 0.71781 0.0
H3549 H 0.7215 0.02244 0.69848 0.0
H3550 H 0.72949 0.03614 0.74213 0.0
H3551 H 0.77559 0.08182 0.72308 0.0
H3552 H 0.75976 0.08162 0.72014 0.0
H3553 H 0.76256 0.06875 0.71253 0.0
C3554 C 0.72316 0.05334 0.70347 0.0
C3555 C 0.71926 0.0405 0.69758 0.0
C3556 C 0.73175 0.05784 0.71451 0.0
C3557 C 0.73663 0.04962 0.71981 0.0
C3558 C 0.73292 0.0369 0.71383 0.0
H3559 H 0.79582 0.06786 0.78248 0.0
H3560 H 0.78384 0.06299 0.76133 0.0
C3561 C 0.72435 0.03239 0.70279 0.0
C3562 C 0.74484 0.05383 0.73209 0.0
H3563 H 0.77478 0.07881 0.74607 0.0
C3564 C 0.73941 0.04544 0.74298 0.0
C3565 C 0.75782 0.06592 0.73313 0.0
C3566 C 0.76437 0.07501 0.72158 0.0
C3567 C 0.74652 0.04891 0.75497 0.0
C3568 C 0.75933 0.06119 0.75611 0.0
C3569 C 0.76488 0.06949 0.74517 0.0
C3570 C 0.76716 0.06538 0.76859 0.0
C3571 C 0.74037 0.03932 0.76627 0.0
C3572 C 0.76189 0.06864 0.77956 0.0
C3573 C 0.76873 0.07148 0.79161 0.0
C3574 C 0.78102 0.07123 0.79286 0.0
C3575 C 0.78647 0.06832 0.78175 0.0
C3576 C 0.77963 0.06551 0.7697 0.0
H3577 H 0.73209 0.02896 0.76302 0.0
H3578 H 0.74834 0.03818 0.77162 0.0
H3579 H 0.73591 0.04365 0.77317 0.0
H3580 H 0.75233 0.06871 0.77886 0.0
H3581 H 0.76424 0.07354 0.80003 0.0
H3582 H 0.01851 0.3405 0.04333 0.0
H3583 H 0.03448 0.33585 0.05536 0.0
H3584 H 0.05481 0.337 0.01945 0.0
H3585 H 0.03926 0.3424 0.00749 0.0
H3586 H 0.03806 0.31504 0.05425 0.0
H3587 H 0.08735 0.36071 0.04172 0.0
H3588 H 0.07109 0.35941 0.03799 0.0
H3589 H 0.07793 0.35149 0.02735 0.0
C3590 C 0.02649 0.33991 0.03803 0.0
C3591 C 0.02771 0.34187 0.0245 0.0
C3592 C 0.03561 0.33724 0.04491 0.0
C3593 C 0.04603 0.33629 0.03838 0.0
C3594 C 0.04716 0.33812 0.0248 0.0
H3595 H 0.08466 0.29185 0.06774 0.0
H3596 H 0.06991 0.2992 0.05728 0.0
C3597 C 0.0382 0.34108 0.01795 0.0
C3598 C 0.05517 0.33266 0.0457 0.0
H3599 H 0.08867 0.34186 0.05084 0.0
C3600 C 0.04914 0.321 0.05359 0.0
C3601 C 0.06964 0.34055 0.04507 0.0
C3602 C 0.07688 0.35381 0.03769 0.0
C3603 C 0.05712 0.31686 0.06064 0.0
C3604 C 0.07154 0.32424 0.05935 0.0
C3605 C 0.0776 0.33608 0.0517 0.0
C3606 C 0.08051 0.31978 0.06573 0.0
C3607 C 0.04996 0.30477 0.06958 0.0
C3608 C 0.09177 0.32906 0.07351 0.0
C3609 C 0.10042 0.32497 0.07924 0.0
C3610 C 0.09782 0.31141 0.07749 0.0
C3611 C 0.08667 0.30223 0.06954 0.0
C3612 C 0.07819 0.3064 0.06363 0.0
H3613 H 0.04 0.30343 0.07287 0.0
H3614 H 0.04781 0.29523 0.06423 0.0
H3615 H 0.05636 0.30599 0.07833 0.0
H3616 H 0.09388 0.3395 0.07513 0.0
H3617 H 0.10912 0.33242 0.08502 0.0
H3618 H 0.66895 0.67509 0.05216 0.0
H3619 H 0.67672 0.69546 0.0662 0.0
H3620 H 0.66374 0.71403 0.03699 0.0
H3621 H 0.65557 0.69347 0.02302 0.0
H3622 H 0.69646 0.72109 0.06126 0.0
H3623 H 0.64766 0.72058 0.06963 0.0
H3624 H 0.64823 0.706 0.06276 0.0
H3625 H 0.65134 0.72023 0.05267 0.0
C3626 C 0.66761 0.68346 0.04878 0.0
C3627 C 0.66165 0.68271 0.03651 0.0
C3628 C 0.67206 0.69508 0.05681 0.0
C3629 C 0.67067 0.7062 0.05272 0.0
C3630 C 0.66463 0.70545 0.04048 0.0
H3631 H 0.72567 0.79615 0.08431 0.0
H3632 H 0.71461 0.77041 0.07003 0.0
C3633 C 0.66006 0.69374 0.03248 0.0
C3634 C 0.67633 0.71887 0.06096 0.0
H3635 H 0.66818 0.74095 0.07627 0.0
C3636 C 0.69025 0.72541 0.06456 0.0
C3637 C 0.66818 0.72436 0.06545 0.0
C3638 C 0.653 0.71736 0.06255 0.0
C3639 C 0.6963 0.73738 0.07239 0.0
C3640 C 0.6883 0.74321 0.07637 0.0
C3641 C 0.67433 0.73655 0.07302 0.0
C3642 C 0.69414 0.75608 0.08414 0.0
C3643 C 0.71107 0.74329 0.07662 0.0
C3644 C 0.68577 0.75624 0.09905 0.0
C3645 C 0.69229 0.7717 0.10889 0.0
C3646 C 0.70596 0.78744 0.10104 0.0
C3647 C 0.71709 0.78689 0.08802 0.0
C3648 C 0.70975 0.77094 0.0789 0.0
H3649 H 0.7139 0.73514 0.0771 0.0
H3650 H 0.7178 0.75084 0.06934 0.0
H3651 H 0.71316 0.74849 0.08633 0.0
H3652 H 0.67674 0.74697 0.10211 0.0
H3653 H 0.68678 0.77222 0.11728 0.0
H3654 H 0.30985 0.95801 0.01294 0.0
H3655 H 0.28855 0.9432 0.02453 0.0
H3656 H 0.29685 0.97693 0.05071 0.0
H3657 H 0.31809 0.99172 0.03928 0.0
H3658 H 0.28864 0.95111 0.06311 0.0
H3659 H 0.25355 0.94686 0.02256 0.0
H3660 H 0.26653 0.94261 0.01862 0.0
H3661 H 0.27144 0.95998 0.02313 0.0
C3662 C 0.30712 0.96224 0.02117 0.0
C3663 C 0.31559 0.97603 0.02517 0.0
C3664 C 0.29495 0.9538 0.02774 0.0
C3665 C 0.2911 0.95904 0.03839 0.0
C3666 C 0.29965 0.97272 0.04251 0.0
H3667 H 0.21568 0.93382 0.07812 0.0
H3668 H 0.23739 0.94564 0.06645 0.0
C3669 C 0.31176 0.98115 0.03594 0.0
C3670 C 0.27811 0.95038 0.04526 0.0
H3671 H 0.24334 0.93495 0.0418 0.0
C3672 C 0.27873 0.94747 0.05844 0.0
C3673 C 0.26523 0.9458 0.03914 0.0
C3674 C 0.26405 0.94902 0.02511 0.0
C3675 C 0.26675 0.94013 0.0657 0.0
C3676 C 0.25389 0.9356 0.05959 0.0
C3677 C 0.25326 0.93841 0.0464 0.0
C3678 C 0.24098 0.92845 0.06691 0.0
C3679 C 0.26788 0.93758 0.07995 0.0
C3680 C 0.23583 0.91487 0.07092 0.0
C3681 C 0.22343 0.90809 0.07756 0.0
C3682 C 0.21609 0.91488 0.08044 0.0
C3683 C 0.22128 0.92846 0.0763 0.0
C3684 C 0.23361 0.93518 0.06959 0.0
H3685 H 0.27864 0.94333 0.08363 0.0
H3686 H 0.26158 0.94061 0.08589 0.0
H3687 H 0.26388 0.92644 0.08136 0.0
H3688 H 0.24131 0.90946 0.06875 0.0
H3689 H 0.21951 0.8975 0.08031 0.0
H3690 H 0.35676 0.04712 0.99491 0.0
H3691 H 0.34967 0.06166 0.98342 0.0
H3692 H 0.31555 0.0255 0.96594 0.0
H3693 H 0.32252 0.01095 0.97731 0.0
H3694 H 0.34542 0.06217 0.95494 0.0
H3695 H 0.29861 0.04718 0.98382 0.0
H3696 H 0.31245 0.04479 0.98956 0.0
H3697 H 0.30035 0.03309 0.97763 0.0
C3698 C 0.34773 0.04229 0.98865 0.0
C3699 C 0.34015 0.0279 0.98705 0.0
C3700 C 0.34373 0.05059 0.98209 0.0
C3701 C 0.33202 0.04461 0.97397 0.0
C3702 C 0.32451 0.03028 0.97231 0.0
H3703 H 0.2857 0.06965 0.92622 0.0
H3704 H 0.29533 0.05749 0.93792 0.0
C3705 C 0.32854 0.02199 0.97878 0.0
C3706 C 0.32762 0.05327 0.96709 0.0
H3707 H 0.30115 0.05968 0.96455 0.0
C3708 C 0.33581 0.06176 0.95709 0.0
C3709 C 0.31507 0.05264 0.96994 0.0
C3710 C 0.30613 0.04403 0.98089 0.0
C3711 C 0.33154 0.06933 0.94955 0.0
C3712 C 0.31887 0.06852 0.95227 0.0
C3713 C 0.31082 0.06022 0.96244 0.0
C3714 C 0.31359 0.07599 0.94457 0.0
C3715 C 0.34037 0.07774 0.93846 0.0
C3716 C 0.32066 0.09042 0.94445 0.0
C3717 C 0.3152 0.09738 0.93772 0.0
C3718 C 0.30259 0.09002 0.93096 0.0
C3719 C 0.29555 0.07557 0.93113 0.0
C3720 C 0.30101 0.06863 0.93785 0.0
H3721 H 0.34802 0.07469 0.93571 0.0
H3722 H 0.334 0.07664 0.92972 0.0
H3723 H 0.34602 0.08875 0.94146 0.0
H3724 H 0.33022 0.0963 0.94984 0.0
H3725 H 0.32069 0.10852 0.938 0.0
H3726 H 0.95517 0.30627 0.99792 0.0
H3727 H 0.94043 0.2837 0.98742 0.0
H3728 H 0.97465 0.28843 0.96488 0.0
H3729 H 0.9894 0.3108 0.97535 0.0
H3730 H 0.93462 0.27716 0.96023 0.0
H3731 H 0.96032 0.25089 0.98206 0.0
H3732 H 0.96267 0.267 0.98843 0.0
H3733 H 0.97184 0.26671 0.97425 0.0
C3734 C 0.95954 0.30245 0.99076 0.0
C3735 C 0.97346 0.31025 0.98752 0.0
C3736 C 0.95112 0.28959 0.98477 0.0
C3737 C 0.95652 0.28433 0.97554 0.0
C3738 C 0.97035 0.29219 0.97217 0.0
H3739 H 0.93156 0.20659 0.92504 0.0
H3740 H 0.94526 0.23222 0.93975 0.0
C3741 C 0.97875 0.305 0.97813 0.0
C3742 C 0.94774 0.27071 0.96919 0.0
H3743 H 0.94496 0.23931 0.96429 0.0
C3744 C 0.93675 0.2688 0.96121 0.0
C3745 C 0.9506 0.25988 0.97047 0.0
C3746 C 0.96192 0.26113 0.97936 0.0
C3747 C 0.92884 0.25649 0.95404 0.0
C3748 C 0.93188 0.24575 0.95516 0.0
C3749 C 0.9427 0.24759 0.96336 0.0
C3750 C 0.92432 0.23263 0.94777 0.0
C3751 C 0.91781 0.25545 0.94491 0.0
C3752 C 0.90583 0.22265 0.94859 0.0
C3753 C 0.89646 0.20621 0.94028 0.0
C3754 C 0.90693 0.20215 0.92902 0.0
C3755 C 0.9258 0.20994 0.93092 0.0
C3756 C 0.93419 0.22623 0.93953 0.0
H3757 H 0.91949 0.26576 0.94235 0.0
H3758 H 0.91737 0.24986 0.93575 0.0
H3759 H 0.90774 0.24981 0.94973 0.0
H3760 H 0.90031 0.22637 0.95434 0.0
H3761 H 0.88537 0.20056 0.93994 0.0
H3762 H 0.68781 0.64245 0.99531 0.0
H3763 H 0.70912 0.65014 0.98328 0.0
H3764 H 0.71108 0.68877 0.97572 0.0
H3765 H 0.6899 0.68122 0.98772 0.0
H3766 H 0.71428 0.65902 0.95654 0.0
H3767 H 0.74915 0.69981 0.99175 0.0
H3768 H 0.73228 0.68626 0.99609 0.0
H3769 H 0.73424 0.7007 0.98701 0.0
C3770 C 0.69283 0.65261 0.99113 0.0
C3771 C 0.68723 0.66127 0.99249 0.0
C3772 C 0.70496 0.65696 0.98426 0.0
C3773 C 0.71173 0.67007 0.97877 0.0
C3774 C 0.70612 0.6787 0.98007 0.0
H3775 H 0.78428 0.71819 0.93352 0.0
H3776 H 0.76269 0.70894 0.94533 0.0
C3777 C 0.69399 0.67434 0.98688 0.0
C3778 C 0.7245 0.6747 0.97141 0.0
H3779 H 0.75832 0.6994 0.97106 0.0
C3780 C 0.72395 0.66777 0.95974 0.0
C3781 C 0.73705 0.68614 0.97564 0.0
C3782 C 0.73831 0.69361 0.98836 0.0
C3783 C 0.73559 0.67224 0.95196 0.0
C3784 C 0.74811 0.68377 0.95613 0.0
C3785 C 0.74868 0.69059 0.96788 0.0
C3786 C 0.76076 0.68902 0.94842 0.0
C3787 C 0.73431 0.66483 0.93919 0.0
C3788 C 0.76683 0.6809 0.94632 0.0
C3789 C 0.77911 0.68614 0.93954 0.0
C3790 C 0.78551 0.69959 0.9347 0.0
C3791 C 0.77943 0.70771 0.9369 0.0
C3792 C 0.76716 0.70246 0.94368 0.0
H3793 H 0.72344 0.65838 0.93597 0.0
H3794 H 0.74006 0.67226 0.93142 0.0
H3795 H 0.7387 0.658 0.94038 0.0
H3796 H 0.76222 0.67061 0.95017 0.0
H3797 H 0.78375 0.67978 0.93828 0.0
H3798 H 0.9602 0.65131 0.99902 0.0
H3799 H 0.94668 0.65843 0.98578 0.0
H3800 H 0.98293 0.69767 0.97955 0.0
H3801 H 0.99651 0.69053 0.99243 0.0
H3802 H 0.94172 0.68015 0.98766 0.0
H3803 H 0.97001 0.68357 0.94256 0.0
H3804 H 0.97156 0.67555 0.95711 0.0
H3805 H 0.98107 0.69398 0.95571 0.0
C3806 C 0.96525 0.66148 0.99488 0.0
C3807 C 0.97943 0.67031 0.99661 0.0
C3808 C 0.95752 0.66553 0.98733 0.0
C3809 C 0.96388 0.67846 0.98145 0.0
C3810 C 0.9779 0.68751 0.98371 0.0
H3811 H 0.92794 0.723 0.94638 0.0
H3812 H 0.9382 0.71357 0.96116 0.0
C3813 C 0.98563 0.68344 0.99114 0.0
C3814 C 0.95598 0.68243 0.97268 0.0
H3815 H 0.95553 0.69335 0.94187 0.0
C3816 C 0.94466 0.68295 0.97762 0.0
C3817 C 0.95968 0.68582 0.95951 0.0
C3818 C 0.97115 0.68457 0.95335 0.0
C3819 C 0.93719 0.68718 0.96983 0.0
C3820 C 0.94135 0.69126 0.95687 0.0
C3821 C 0.95243 0.69036 0.95185 0.0
C3822 C 0.93445 0.69656 0.94829 0.0
C3823 C 0.92483 0.68709 0.97552 0.0
C3824 C 0.92927 0.69036 0.93602 0.0
C3825 C 0.92358 0.69583 0.92752 0.0
C3826 C 0.92281 0.70754 0.93119 0.0
C3827 C 0.92809 0.71378 0.94345 0.0
C3828 C 0.93387 0.70835 0.95192 0.0
H3829 H 0.92065 0.67995 0.98383 0.0
H3830 H 0.92785 0.69757 0.97921 0.0
H3831 H 0.91659 0.68404 0.96804 0.0
H3832 H 0.92978 0.68136 0.93295 0.0
H3833 H 0.91991 0.691 0.91801 0.0
H3834 H 0.35988 0.31338 0.99036 0.0
H3835 H 0.35154 0.2907 0.98003 0.0
H3836 H 0.32738 0.29898 0.95275 0.0
H3837 H 0.33577 0.32163 0.96288 0.0
H3838 H 0.32426 0.27046 0.97897 0.0
H3839 H 0.34486 0.28291 0.92899 0.0
H3840 H 0.3515 0.29532 0.94231 0.0
H3841 H 0.33603 0.29179 0.93382 0.0
C3842 C 0.35301 0.31046 0.982 0.0
C3843 C 0.34847 0.31927 0.97743 0.0
C3844 C 0.34824 0.29751 0.97612 0.0
C3845 C 0.33898 0.29323 0.96552 0.0
C3846 C 0.33476 0.30218 0.96072 0.0
H3847 H 0.2821 0.21749 0.92626 0.0
H3848 H 0.29682 0.24149 0.93348 0.0
C3849 C 0.3395 0.31509 0.96659 0.0
C3850 C 0.33263 0.27894 0.96029 0.0
H3851 H 0.32637 0.25993 0.93218 0.0
C3852 C 0.32489 0.26814 0.96878 0.0
C3853 C 0.33338 0.27596 0.94697 0.0
C3854 C 0.342 0.2871 0.93751 0.0
C3855 C 0.3175 0.25446 0.96424 0.0
C3856 C 0.31805 0.2515 0.95088 0.0
C3857 C 0.32597 0.26226 0.94241 0.0
C3858 C 0.31008 0.23729 0.94553 0.0
C3859 C 0.30874 0.24333 0.97368 0.0
C3860 C 0.3129 0.2271 0.94967 0.0
C3861 C 0.30454 0.21344 0.94556 0.0
C3862 C 0.29332 0.20976 0.93711 0.0
C3863 C 0.29078 0.22008 0.93264 0.0
C3864 C 0.29915 0.23375 0.93676 0.0
H3865 H 0.30715 0.24764 0.98289 0.0
H3866 H 0.29857 0.23609 0.96923 0.0
H3867 H 0.31386 0.23739 0.97616 0.0
H3868 H 0.32137 0.22967 0.95634 0.0
H3869 H 0.30665 0.20568 0.94923 0.0
H3870 H 0.68747 0.01036 0.9771 0.0
H3871 H 0.70899 0.02511 0.96605 0.0
H3872 H 0.71558 0.05949 0.9905 0.0
H3873 H 0.69407 0.04472 0.00174 0.0
H3874 H 0.71721 0.04959 0.95232 0.0
H3875 H 0.75109 0.05797 0.99526 0.0
H3876 H 0.7333 0.04463 0.99464 0.0
H3877 H 0.73785 0.06218 0.99788 0.0
C3878 C 0.6935 0.02106 0.98015 0.0
C3879 C 0.68913 0.02638 0.99035 0.0
C3880 C 0.70577 0.02948 0.9738 0.0
C3881 C 0.71394 0.04334 0.97756 0.0
C3882 C 0.70952 0.04875 0.9876 0.0
H3883 H 0.79447 0.1062 0.95191 0.0
H3884 H 0.77174 0.09403 0.96171 0.0
C3885 C 0.69722 0.04033 0.99397 0.0
C3886 C 0.72712 0.05202 0.97098 0.0
H3887 H 0.76176 0.0699 0.97613 0.0
C3888 C 0.72696 0.05406 0.95751 0.0
C3889 C 0.7398 0.05781 0.9778 0.0
C3890 C 0.74061 0.05548 0.99217 0.0
C3891 C 0.73917 0.06181 0.95068 0.0
C3892 C 0.75185 0.06747 0.95748 0.0
C3893 C 0.752 0.06557 0.97097 0.0
C3894 C 0.76513 0.0751 0.95076 0.0
C3895 C 0.73841 0.06398 0.93627 0.0
C3896 C 0.76892 0.06846 0.94138 0.0
C3897 C 0.78188 0.07539 0.93577 0.0
C3898 C 0.79124 0.08911 0.9394 0.0
C3899 C 0.78736 0.09573 0.94876 0.0
C3900 C 0.77443 0.08878 0.95439 0.0
H3901 H 0.72812 0.06213 0.93328 0.0
H3902 H 0.74623 0.07459 0.93357 0.0
H3903 H 0.74045 0.05668 0.93069 0.0
H3904 H 0.76202 0.05779 0.93869 0.0
H3905 H 0.78472 0.06994 0.92882 0.0
H3906 H 0.6469 0.95495 0.01804 0.0
H3907 H 0.65322 0.9396 0.02901 0.0
H3908 H 0.68606 0.97442 0.0495 0.0
H3909 H 0.6797 0.98976 0.03876 0.0
H3910 H 0.67803 0.94009 0.02808 0.0
H3911 H 0.66651 0.94786 0.07895 0.0
H3912 H 0.66039 0.95301 0.06501 0.0
H3913 H 0.67772 0.96361 0.07089 0.0
C3914 C 0.65541 0.95931 0.02495 0.0
C3915 C 0.66277 0.97354 0.02759 0.0
C3916 C 0.659 0.95054 0.0312 0.0
C3917 C 0.66995 0.95585 0.04024 0.0
C3918 C 0.67737 0.97007 0.0428 0.0
H3919 H 0.71552 0.92564 0.0827 0.0
H3920 H 0.70606 0.93918 0.07335 0.0
C3921 C 0.67378 0.97883 0.03659 0.0
C3922 C 0.67405 0.94665 0.04655 0.0
H3923 H 0.67953 0.93658 0.0762 0.0
C3924 C 0.67822 0.9392 0.0386 0.0
C3925 C 0.67433 0.94555 0.06027 0.0
C3926 C 0.66938 0.95283 0.06928 0.0
C3927 C 0.68305 0.93098 0.04401 0.0
C3928 C 0.68351 0.93004 0.05773 0.0
C3929 C 0.67919 0.93736 0.06569 0.0
C3930 C 0.68871 0.92171 0.06398 0.0
C3931 C 0.68802 0.9237 0.03501 0.0
C3932 C 0.68192 0.9074 0.06202 0.0
C3933 C 0.68728 0.89968 0.06735 0.0
C3934 C 0.69943 0.9061 0.07488 0.0
C3935 C 0.70605 0.92041 0.07707 0.0
C3936 C 0.70068 0.92814 0.07172 0.0
H3937 H 0.68991 0.92795 0.02502 0.0
H3938 H 0.69762 0.92449 0.03887 0.0
H3939 H 0.68013 0.91264 0.03428 0.0
H3940 H 0.67256 0.90224 0.05621 0.0
H3941 H 0.68204 0.88869 0.06543 0.0
H3942 H 0.04844 0.69881 0.02056 0.0
H3943 H 0.06323 0.72152 0.03068 0.0
H3944 H 0.03229 0.71329 0.05931 0.0
H3945 H 0.01759 0.6906 0.04941 0.0
H3946 H 0.05658 0.74186 0.0326 0.0
H3947 H 0.06679 0.72908 0.08187 0.0
H3948 H 0.06026 0.71668 0.06854 0.0
H3949 H 0.04888 0.72038 0.07769 0.0
C3950 C 0.04491 0.70176 0.02916 0.0
C3951 C 0.03187 0.69294 0.0342 0.0
C3952 C 0.05336 0.71472 0.03491 0.0
C3953 C 0.04894 0.71901 0.04586 0.0
C3954 C 0.03605 0.71008 0.05107 0.0
H3955 H 0.0694 0.79467 0.08572 0.0
H3956 H 0.0598 0.77071 0.07827 0.0
C3957 C 0.02761 0.69714 0.04534 0.0
C3958 C 0.05716 0.73326 0.05108 0.0
H3959 H 0.07114 0.75212 0.07911 0.0
C3960 C 0.05995 0.74413 0.04272 0.0
C3961 C 0.06147 0.73616 0.06431 0.0
C3962 C 0.05932 0.72496 0.0736 0.0
C3963 C 0.06651 0.75779 0.04733 0.0
C3964 C 0.07054 0.76066 0.06061 0.0
C3965 C 0.068 0.74984 0.06894 0.0
C3966 C 0.07698 0.77482 0.06606 0.0
C3967 C 0.06861 0.76901 0.03806 0.0
C3968 C 0.08993 0.78495 0.06187 0.0
C3969 C 0.09543 0.79858 0.06613 0.0
C3970 C 0.08813 0.8023 0.07475 0.0
C3971 C 0.07532 0.79205 0.07922 0.0
C3972 C 0.06983 0.7784 0.07497 0.0
H3973 H 0.06252 0.7648 0.02889 0.0
H3974 H 0.06576 0.77618 0.04272 0.0
H3975 H 0.0796 0.77501 0.03549 0.0
H3976 H 0.09563 0.78234 0.05507 0.0
H3977 H 0.10525 0.80631 0.06245 0.0
H3978 H 0.32736 0.36554 0.02585 0.0
H3979 H 0.30705 0.35846 0.03935 0.0
H3980 H 0.28917 0.31716 0.02363 0.0
H3981 H 0.30935 0.32408 0.0102 0.0
H3982 H 0.27744 0.34449 0.03208 0.0
H3983 H 0.29174 0.31396 0.06414 0.0
H3984 H 0.3038 0.327 0.05344 0.0
H3985 H 0.29137 0.31038 0.04696 0.0
C3986 C 0.31903 0.355 0.02518 0.0
C3987 C 0.31998 0.34533 0.01707 0.0
C3988 C 0.30745 0.35098 0.03287 0.0
C3989 C 0.29674 0.33726 0.03259 0.0
C3990 C 0.29743 0.32775 0.0241 0.0
H3991 H 0.21524 0.29578 0.0642 0.0
H3992 H 0.23532 0.30659 0.05015 0.0
C3993 C 0.30895 0.33174 0.01642 0.0
C3994 C 0.28509 0.33263 0.04156 0.0
H3995 H 0.26978 0.31144 0.06718 0.0
C3996 C 0.27577 0.33732 0.03981 0.0
C3997 C 0.28307 0.32341 0.0517 0.0
C3998 C 0.29307 0.31845 0.05429 0.0
C3999 C 0.26422 0.3327 0.04775 0.0
C4000 C 0.26198 0.32312 0.05761 0.0
C4001 C 0.2715 0.31873 0.05956 0.0
C4002 C 0.24974 0.31737 0.06595 0.0
C4003 C 0.25454 0.33811 0.04561 0.0
C4004 C 0.25126 0.31974 0.07949 0.0
C4005 C 0.23983 0.31361 0.08751 0.0
C4006 C 0.22668 0.30492 0.08215 0.0
C4007 C 0.22521 0.30257 0.06858 0.0
C4008 C 0.23665 0.30877 0.06055 0.0
H4009 H 0.25929 0.34763 0.03977 0.0
H4010 H 0.24527 0.33021 0.04027 0.0
H4011 H 0.25122 0.34031 0.05508 0.0
H4012 H 0.26131 0.32624 0.08384 0.0
H4013 H 0.24127 0.31549 0.09795 0.0
H4014 H 0.70952 0.68576 0.35566 0.0
H4015 H 0.72303 0.67931 0.36969 0.0
H4016 H 0.68578 0.64661 0.38568 0.0
H4017 H 0.67225 0.65307 0.37183 0.0
H4018 H 0.7056 0.66283 0.40459 0.0
H4019 H 0.72732 0.64512 0.36536 0.0
H4020 H 0.72998 0.66219 0.36362 0.0
H4021 H 0.71291 0.64767 0.36259 0.0
C4022 C 0.70423 0.67716 0.36213 0.0
C4023 C 0.68984 0.66989 0.36262 0.0
C4024 C 0.71195 0.67346 0.37009 0.0
C4025 C 0.70538 0.66239 0.37861 0.0
C4026 C 0.69103 0.65516 0.37914 0.0
H4027 H 0.7377 0.60996 0.41643 0.0
H4028 H 0.72388 0.62113 0.40136 0.0
C4029 C 0.68332 0.65885 0.37121 0.0
C4030 C 0.71339 0.6584 0.3872 0.0
H4031 H 0.7348 0.64512 0.38693 0.0
C4032 C 0.71207 0.65904 0.40075 0.0
C4033 C 0.72165 0.6533 0.38212 0.0
C4034 C 0.72301 0.65189 0.36763 0.0
C4035 C 0.7187 0.6546 0.4094 0.0
C4036 C 0.7271 0.64967 0.40432 0.0
C4037 C 0.72845 0.64905 0.39078 0.0
C4038 C 0.73391 0.64429 0.41275 0.0
C4039 C 0.7161 0.65469 0.42381 0.0
C4040 C 0.74444 0.65448 0.42645 0.0
C4041 C 0.7529 0.64807 0.43679 0.0
C4042 C 0.75223 0.63209 0.43053 0.0
C4043 C 0.73864 0.61975 0.41908 0.0
C4044 C 0.73066 0.62709 0.40935 0.0
H4045 H 0.70625 0.65441 0.42564 0.0
H4046 H 0.71583 0.64581 0.42872 0.0
H4047 H 0.72441 0.66432 0.42834 0.0
H4048 H 0.74592 0.66462 0.42837 0.0
H4049 H 0.76012 0.65452 0.44432 0.0
H4050 H 0.32108 0.02703 0.35334 0.0
H4051 H 0.32971 0.0489 0.36535 0.0
H4052 H 0.34594 0.03433 0.39547 0.0
H4053 H 0.33763 0.01263 0.38341 0.0
H4054 H 0.32389 0.05429 0.38993 0.0
H4055 H 0.37905 0.07094 0.38648 0.0
H4056 H 0.36605 0.05687 0.37678 0.0
H4057 H 0.36917 0.05424 0.39344 0.0
C4058 C 0.32655 0.02853 0.36249 0.0
C4059 C 0.32879 0.01818 0.36739 0.0
C4060 C 0.33144 0.041 0.36935 0.0
C4061 C 0.33867 0.04333 0.38119 0.0
C4062 C 0.34068 0.03289 0.3862 0.0
H4063 H 0.35182 0.10826 0.44607 0.0
H4064 H 0.34129 0.08376 0.42968 0.0
C4065 C 0.33586 0.02047 0.37933 0.0
C4066 C 0.34397 0.05658 0.38842 0.0
H4067 H 0.37315 0.08334 0.40161 0.0
C4068 C 0.33467 0.06071 0.39243 0.0
C4069 C 0.35807 0.06506 0.39144 0.0
C4070 C 0.36869 0.06164 0.3867 0.0
C4071 C 0.33906 0.07294 0.39968 0.0
C4072 C 0.35306 0.08105 0.40327 0.0
C4073 C 0.36239 0.07709 0.39896 0.0
C4074 C 0.35841 0.09365 0.41145 0.0
C4075 C 0.32866 0.07715 0.40306 0.0
C4076 C 0.37426 0.10859 0.40672 0.0
C4077 C 0.38194 0.12401 0.41667 0.0
C4078 C 0.37101 0.12413 0.43012 0.0
C4079 C 0.35709 0.1081 0.43735 0.0
C4080 C 0.3502 0.09316 0.4267 0.0
H4081 H 0.31996 0.07275 0.39594 0.0
H4082 H 0.3244 0.07315 0.4128 0.0
H4083 H 0.3333 0.08849 0.40327 0.0
H4084 H 0.3792 0.10828 0.39782 0.0
H4085 H 0.39073 0.13335 0.41335 0.0
H4086 H 0.97959 0.32404 0.36491 0.0
H4087 H 0.95847 0.30976 0.37675 0.0
H4088 H 0.95793 0.27319 0.36253 0.0
H4089 H 0.97901 0.28743 0.35048 0.0
H4090 H 0.93259 0.27182 0.36048 0.0
H4091 H 0.95491 0.28887 0.41019 0.0
H4092 H 0.95813 0.30283 0.39972 0.0
H4093 H 0.96533 0.2921 0.39593 0.0
C4094 C 0.97498 0.31296 0.3643 0.0
C4095 C 0.98098 0.30684 0.35681 0.0
C4096 C 0.96298 0.30482 0.37115 0.0
C4097 C 0.9568 0.29043 0.37072 0.0
C4098 C 0.96262 0.28428 0.36307 0.0
H4099 H 0.88108 0.22648 0.40543 0.0
H4100 H 0.90314 0.23866 0.39433 0.0
C4101 C 0.97464 0.29242 0.35619 0.0
C4102 C 0.94407 0.28185 0.37801 0.0
H4103 H 0.93048 0.2763 0.40851 0.0
C4104 C 0.93214 0.27267 0.37099 0.0
C4105 C 0.94355 0.28298 0.39173 0.0
C4106 C 0.95619 0.29212 0.39986 0.0
C4107 C 0.91958 0.26495 0.37729 0.0
C4108 C 0.91901 0.26634 0.39096 0.0
C4109 C 0.93098 0.27531 0.39801 0.0
C4110 C 0.90597 0.25892 0.39807 0.0
C4111 C 0.90691 0.2557 0.36923 0.0
C4112 C 0.90046 0.26633 0.40408 0.0
C4113 C 0.88794 0.25943 0.41047 0.0
C4114 C 0.8808 0.245 0.41112 0.0
C4115 C 0.88645 0.23761 0.40521 0.0
C4116 C 0.89896 0.24453 0.3988 0.0
H4117 H 0.90857 0.25783 0.35864 0.0
H4118 H 0.90405 0.24482 0.37071 0.0
H4119 H 0.89817 0.25695 0.37232 0.0
H4120 H 0.90572 0.27745 0.4036 0.0
H4121 H 0.88373 0.26536 0.41476 0.0
H4122 H 0.00285 0.34648 0.30014 0.0
H4123 H 0.00226 0.36427 0.28695 0.0
H4124 H 0.01983 0.39317 0.31921 0.0
H4125 H 0.02065 0.37559 0.33233 0.0
H4126 H 0.98985 0.38027 0.29077 0.0
H4127 H 0.04638 0.41266 0.28952 0.0
H4128 H 0.03786 0.39504 0.29476 0.0
H4129 H 0.04 0.40858 0.30581 0.0
C4130 C 0.00651 0.35661 0.30442 0.0
C4131 C 0.01192 0.3597 0.31721 0.0
C4132 C 0.00617 0.36674 0.29689 0.0
C4133 C 0.01126 0.38009 0.30203 0.0
C4134 C 0.01614 0.38301 0.31496 0.0
H4135 H 0.00073 0.44739 0.27949 0.0
H4136 H 0.99826 0.42601 0.28793 0.0
C4137 C 0.01653 0.37294 0.32247 0.0
C4138 C 0.01172 0.3911 0.29388 0.0
H4139 H 0.0336 0.42335 0.28303 0.0
C4140 C 0.99941 0.38964 0.28895 0.0
C4141 C 0.02424 0.40317 0.29126 0.0
C4142 C 0.03788 0.40493 0.29549 0.0
C4143 C 0.99924 0.40023 0.28195 0.0
C4144 C 0.01168 0.41269 0.2801 0.0
C4145 C 0.02404 0.41387 0.28456 0.0
C4146 C 0.01216 0.42489 0.27415 0.0
C4147 C 0.98574 0.39795 0.27661 0.0
C4148 C 0.02102 0.43155 0.26377 0.0
C4149 C 0.02261 0.44389 0.25908 0.0
C4150 C 0.01523 0.44971 0.26458 0.0
C4151 C 0.00627 0.44295 0.27487 0.0
C4152 C 0.00479 0.43069 0.27963 0.0
H4153 H 0.97837 0.38683 0.27491 0.0
H4154 H 0.98115 0.40187 0.28382 0.0
H4155 H 0.9871 0.40343 0.26732 0.0
H4156 H 0.02695 0.42736 0.2595 0.0
H4157 H 0.02983 0.44903 0.25136 0.0
H4158 H 0.6225 0.64215 0.32487 0.0
H4159 H 0.60861 0.62208 0.31061 0.0
H4160 H 0.64537 0.62689 0.29302 0.0
H4161 H 0.65928 0.64696 0.3071 0.0
H4162 H 0.6248 0.62312 0.27491 0.0
H4163 H 0.60476 0.58363 0.31347 0.0
H4164 H 0.60218 0.59803 0.31606 0.0
H4165 H 0.61926 0.60066 0.3162 0.0
C4166 C 0.62761 0.63888 0.31799 0.0
C4167 C 0.64197 0.64609 0.31712 0.0
C4168 C 0.61967 0.6274 0.3099 0.0
C4169 C 0.62599 0.62294 0.30086 0.0
C4170 C 0.64031 0.63016 0.29995 0.0
H4171 H 0.59358 0.53827 0.26075 0.0
H4172 H 0.60749 0.56334 0.27628 0.0
C4173 C 0.64824 0.6416 0.30802 0.0
C4174 C 0.61775 0.61087 0.29215 0.0
H4175 H 0.59667 0.57602 0.29196 0.0
C4176 C 0.61856 0.61283 0.27862 0.0
C4177 C 0.60979 0.59746 0.29705 0.0
C4178 C 0.60898 0.59472 0.31148 0.0
C4179 C 0.61171 0.60169 0.26982 0.0
C4180 C 0.60362 0.5883 0.27473 0.0
C4181 C 0.60277 0.58634 0.28825 0.0
C4182 C 0.59667 0.57603 0.2661 0.0
C4183 C 0.61376 0.60438 0.2554 0.0
C4184 C 0.58558 0.57541 0.25297 0.0
C4185 C 0.57702 0.56049 0.24236 0.0
C4186 C 0.57825 0.54536 0.24782 0.0
C4187 C 0.59234 0.54699 0.25859 0.0
C4188 C 0.60038 0.56234 0.26863 0.0
H4189 H 0.62343 0.6141 0.25347 0.0
H4190 H 0.61403 0.59585 0.25008 0.0
H4191 H 0.60519 0.60545 0.25139 0.0
H4192 H 0.58384 0.58394 0.25155 0.0
H4193 H 0.5695 0.55952 0.23518 0.0
H4194 H 0.35411 0.00535 0.31929 0.0
H4195 H 0.37354 0.0074 0.30688 0.0
H4196 H 0.36536 0.96794 0.32078 0.0
H4197 H 0.34612 0.96594 0.33339 0.0
H4198 H 0.39261 0.98761 0.32255 0.0
H4199 H 0.37167 0.9868 0.27315 0.0
H4200 H 0.37244 0.99986 0.284 0.0
H4201 H 0.36125 0.98202 0.28756 0.0
C4202 C 0.35646 0.99712 0.31969 0.0
C4203 C 0.34859 0.98547 0.32727 0.0
C4204 C 0.36749 0.99825 0.31253 0.0
C4205 C 0.37073 0.98771 0.31274 0.0
C4206 C 0.36298 0.97616 0.32044 0.0
H4207 H 0.42355 0.97262 0.2625 0.0
H4208 H 0.40413 0.97197 0.27382 0.0
C4209 C 0.352 0.97504 0.32763 0.0
C4210 C 0.38239 0.98879 0.30521 0.0
H4211 H 0.39465 0.99145 0.27435 0.0
C4212 C 0.39306 0.98845 0.31201 0.0
C4213 C 0.38286 0.98972 0.29145 0.0
C4214 C 0.37139 0.9895 0.28357 0.0
C4215 C 0.40424 0.98912 0.30544 0.0
C4216 C 0.40487 0.99039 0.29173 0.0
C4217 C 0.39417 0.99061 0.28489 0.0
C4218 C 0.41648 0.99123 0.28431 0.0
C4219 C 0.41517 0.98819 0.31321 0.0
C4220 C 0.42977 0.00239 0.28631 0.0
C4221 C 0.44083 0.0028 0.27984 0.0
C4222 C 0.43877 0.99214 0.27114 0.0
C4223 C 0.42539 0.98107 0.26899 0.0
C4224 C 0.41432 0.98068 0.27546 0.0
H4225 H 0.41159 0.98405 0.32309 0.0
H4226 H 0.4184 0.98154 0.30807 0.0
H4227 H 0.42427 0.99862 0.31438 0.0
H4228 H 0.4316 0.0107 0.293 0.0
H4229 H 0.45104 0.01136 0.28179 0.0
H4230 H 0.65544 0.00231 0.31287 0.0
H4231 H 0.63884 0.00616 0.30088 0.0
H4232 H 0.60585 0.968 0.31511 0.0
H4233 H 0.62236 0.96416 0.32728 0.0
H4234 H 0.61917 0.98983 0.28155 0.0
H4235 H 0.59494 0.99649 0.32598 0.0
H4236 H 0.61116 0.99691 0.32649 0.0
H4237 H 0.5954 0.98074 0.32522 0.0
C4238 C 0.64465 0.99473 0.31343 0.0
C4239 C 0.64018 0.98299 0.32109 0.0
C4240 C 0.6352 0.99693 0.30656 0.0
C4241 C 0.62112 0.98747 0.30727 0.0
C4242 C 0.61665 0.97555 0.31463 0.0
H4243 H 0.5484 0.98631 0.27749 0.0
H4244 H 0.56475 0.98033 0.28679 0.0
C4245 C 0.6261 0.97335 0.32153 0.0
C4246 C 0.61112 0.99018 0.30046 0.0
H4247 H 0.58453 0.99594 0.30572 0.0
C4248 C 0.6116 0.99119 0.28681 0.0
C4249 C 0.60129 0.99197 0.30738 0.0
C4250 C 0.60069 0.9916 0.32208 0.0
C4251 C 0.60234 0.99375 0.27987 0.0
C4252 C 0.59252 0.99554 0.2868 0.0
C4253 C 0.59204 0.9945 0.30044 0.0
C4254 C 0.58272 0.99868 0.28019 0.0
C4255 C 0.60299 0.99429 0.26518 0.0
C4256 C 0.58742 0.01098 0.27339 0.0
C4257 C 0.5781 0.01439 0.26803 0.0
C4258 C 0.56391 0.00554 0.26938 0.0
C4259 C 0.55926 0.9932 0.27613 0.0
C4260 C 0.56858 0.9898 0.28147 0.0
H4261 H 0.60861 0.98929 0.26122 0.0
H4262 H 0.59254 0.9892 0.26075 0.0
H4263 H 0.60845 0.00519 0.26217 0.0
H4264 H 0.5983 0.01813 0.27256 0.0
H4265 H 0.58195 0.02409 0.26311 0.0
H4266 H 0.03415 0.65629 0.32321 0.0
H4267 H 0.02848 0.63527 0.31083 0.0
H4268 H 0.99403 0.63577 0.29287 0.0
H4269 H 0.99949 0.65665 0.30536 0.0
H4270 H 0.98729 0.61071 0.30305 0.0
H4271 H 0.03339 0.62953 0.27235 0.0
H4272 H 0.03724 0.63297 0.28947 0.0
H4273 H 0.02917 0.64101 0.28097 0.0
C4274 C 0.02545 0.65199 0.31652 0.0
C4275 C 0.01726 0.6581 0.31525 0.0
C4276 C 0.02228 0.64004 0.30939 0.0
C4277 C 0.01096 0.63408 0.30078 0.0
C4278 C 0.00286 0.64026 0.2994 0.0
H4279 H 0.97069 0.55585 0.25718 0.0
H4280 H 0.97777 0.57916 0.26521 0.0
C4281 C 0.00599 0.65217 0.30655 0.0
C4282 C 0.00699 0.62091 0.29388 0.0
H4283 H 0.01858 0.60519 0.27296 0.0
C4284 C 0.99407 0.60953 0.29637 0.0
C4285 C 0.01588 0.6194 0.28519 0.0
C4286 C 0.02964 0.6314 0.28172 0.0
C4287 C 0.98993 0.59657 0.2907 0.0
C4288 C 0.99887 0.59503 0.28214 0.0
C4289 C 0.01174 0.60643 0.27952 0.0
C4290 C 0.99525 0.58149 0.27626 0.0
C4291 C 0.9762 0.58456 0.29429 0.0
C4292 C 0.00302 0.5753 0.27944 0.0
C4293 C 0.99909 0.56209 0.27476 0.0
C4294 C 0.98741 0.55488 0.2667 0.0
C4295 C 0.97983 0.56124 0.26325 0.0
C4296 C 0.98379 0.57449 0.26791 0.0
H4297 H 0.97203 0.58677 0.3032 0.0
H4298 H 0.96878 0.58227 0.28616 0.0
H4299 H 0.97698 0.57522 0.29594 0.0
H4300 H 0.01189 0.58054 0.28588 0.0
H4301 H 0.005 0.55736 0.2777 0.0
H4302 H 0.34483 0.3408 0.31144 0.0
H4303 H 0.36677 0.35347 0.30046 0.0
H4304 H 0.37831 0.38842 0.32611 0.0
H4305 H 0.35621 0.37582 0.3371 0.0
H4306 H 0.3837 0.39535 0.29991 0.0
H4307 H 0.40409 0.36172 0.31489 0.0
H4308 H 0.38746 0.3524 0.30724 0.0
H4309 H 0.38949 0.36126 0.32256 0.0
C4310 C 0.35203 0.35118 0.31477 0.0
C4311 C 0.34883 0.3573 0.32517 0.0
C4312 C 0.3646 0.35837 0.30854 0.0
C4313 C 0.37426 0.37178 0.31265 0.0
C4314 C 0.37102 0.37803 0.32288 0.0
H4315 H 0.45824 0.41276 0.28343 0.0
H4316 H 0.43845 0.40333 0.29793 0.0
C4317 C 0.35841 0.37083 0.32913 0.0
C4318 C 0.38758 0.37931 0.30599 0.0
H4319 H 0.41562 0.37706 0.29742 0.0
C4320 C 0.39076 0.39144 0.29947 0.0
C4321 C 0.39687 0.37431 0.30561 0.0
C4322 C 0.3944 0.36179 0.31306 0.0
C4323 C 0.40272 0.39839 0.29211 0.0
C4324 C 0.41159 0.39293 0.29111 0.0
C4325 C 0.40871 0.38114 0.29809 0.0
C4326 C 0.4236 0.39896 0.28245 0.0
C4327 C 0.40573 0.4115 0.28545 0.0
C4328 C 0.42175 0.39939 0.26896 0.0
C4329 C 0.43299 0.40476 0.2607 0.0
C4330 C 0.44632 0.40982 0.26578 0.0
C4331 C 0.44812 0.40913 0.27928 0.0
C4332 C 0.43684 0.40374 0.28755 0.0
H4333 H 0.40031 0.41635 0.29015 0.0
H4334 H 0.4169 0.41902 0.28557 0.0
H4335 H 0.40218 0.4091 0.27513 0.0
H4336 H 0.41158 0.39541 0.26479 0.0
H4337 H 0.43128 0.40492 0.25031 0.0
H4338 H 0.33896 0.32585 0.37607 0.0
H4339 H 0.34711 0.31169 0.38637 0.0
H4340 H 0.31739 0.27634 0.36399 0.0
H4341 H 0.30928 0.2905 0.3535 0.0
H4342 H 0.333 0.28776 0.40113 0.0
H4343 H 0.35381 0.27811 0.35576 0.0
H4344 H 0.34911 0.29126 0.35702 0.0
H4345 H 0.33611 0.27354 0.35461 0.0
C4346 C 0.33414 0.31506 0.37335 0.0
C4347 C 0.32354 0.30929 0.36392 0.0
C4348 C 0.33879 0.30698 0.37926 0.0
C4349 C 0.33298 0.29303 0.3758 0.0
C4350 C 0.32218 0.28716 0.36661 0.0
H4351 H 0.35083 0.22923 0.39767 0.0
H4352 H 0.34032 0.2422 0.38936 0.0
C4353 C 0.31751 0.29523 0.36069 0.0
C4354 C 0.33833 0.28467 0.38175 0.0
H4355 H 0.35393 0.26609 0.37449 0.0
C4356 C 0.33759 0.28302 0.39533 0.0
C4357 C 0.34436 0.27856 0.37414 0.0
C4358 C 0.34604 0.28053 0.35959 0.0
C4359 C 0.34254 0.27524 0.40149 0.0
C4360 C 0.34853 0.26911 0.39386 0.0
C4361 C 0.34926 0.27075 0.38029 0.0
C4362 C 0.35428 0.26107 0.39974 0.0
C4363 C 0.34112 0.27343 0.41606 0.0
C4364 C 0.36561 0.2674 0.40831 0.0
C4365 C 0.37161 0.26 0.41309 0.0
C4366 C 0.36634 0.24614 0.40939 0.0
C4367 C 0.35495 0.23983 0.40085 0.0
C4368 C 0.34898 0.24723 0.39607 0.0
H4369 H 0.33337 0.27584 0.41997 0.0
H4370 H 0.33817 0.26275 0.4187 0.0
H4371 H 0.35111 0.28051 0.42087 0.0
H4372 H 0.37006 0.27817 0.41101 0.0
H4373 H 0.38057 0.2652 0.41942 0.0
H4374 H 0.67599 0.018 0.36813 0.0
H4375 H 0.69023 0.04064 0.37842 0.0
H4376 H 0.72648 0.03824 0.37032 0.0
H4377 H 0.71228 0.0156 0.35983 0.0
H4378 H 0.70914 0.04896 0.39966 0.0
H4379 H 0.73416 0.07448 0.35353 0.0
H4380 H 0.71895 0.0577 0.35375 0.0
H4381 H 0.7354 0.05962 0.35757 0.0
C4382 C 0.68699 0.02227 0.36857 0.0
C4383 C 0.69304 0.01508 0.36309 0.0
C4384 C 0.6951 0.03518 0.37448 0.0
C4385 C 0.7094 0.04117 0.37498 0.0
C4386 C 0.71546 0.03388 0.36983 0.0
H4387 H 0.77224 0.12411 0.39837 0.0
H4388 H 0.76018 0.09967 0.39219 0.0
C4389 C 0.70735 0.02094 0.36389 0.0
C4390 C 0.71791 0.05519 0.38063 0.0
H4391 H 0.7414 0.08812 0.37273 0.0
C4392 C 0.71625 0.05753 0.3938 0.0
C4393 C 0.72715 0.06633 0.37296 0.0
C4394 C 0.72899 0.0645 0.35864 0.0
C4395 C 0.72362 0.07074 0.39953 0.0
C4396 C 0.73267 0.08192 0.39178 0.0
C4397 C 0.73448 0.07952 0.37867 0.0
C4398 C 0.74004 0.0963 0.39687 0.0
C4399 C 0.72173 0.07255 0.41383 0.0
C4400 C 0.73274 0.1025 0.40164 0.0
C4401 C 0.73962 0.11643 0.40529 0.0
C4402 C 0.75392 0.12444 0.40407 0.0
C4403 C 0.76123 0.11816 0.39948 0.0
C4404 C 0.75435 0.10422 0.39593 0.0
H4405 H 0.71797 0.06277 0.41914 0.0
H4406 H 0.73145 0.08053 0.41851 0.0
H4407 H 0.71398 0.07583 0.41488 0.0
H4408 H 0.72167 0.0967 0.40214 0.0
H4409 H 0.73375 0.12106 0.40867 0.0
H4410 H 0.98896 0.70078 0.3548 0.0
H4411 H 0.96737 0.69385 0.36602 0.0
H4412 H 0.96338 0.65443 0.37411 0.0
H4413 H 0.98496 0.6613 0.36305 0.0
H4414 H 0.94151 0.67114 0.35952 0.0
H4415 H 0.95743 0.66725 0.4099 0.0
H4416 H 0.96962 0.67625 0.39723 0.0
H4417 H 0.96098 0.65779 0.39781 0.0
C4418 C 0.98353 0.69068 0.35906 0.0
C4419 C 0.98866 0.6816 0.35808 0.0
C4420 C 0.97121 0.68674 0.36546 0.0
C4421 C 0.9639 0.67371 0.37107 0.0
C4422 C 0.96901 0.66464 0.3701 0.0
H4423 H 0.8853 0.62648 0.40827 0.0
H4424 H 0.90831 0.63524 0.39937 0.0
C4425 C 0.9813 0.66855 0.3637 0.0
C4426 C 0.95058 0.66932 0.37737 0.0
H4427 H 0.93357 0.65817 0.40607 0.0
C4428 C 0.93979 0.66842 0.36973 0.0
C4429 C 0.94837 0.66568 0.39066 0.0
C4430 C 0.95974 0.66689 0.39943 0.0
C4431 C 0.92672 0.66367 0.37493 0.0
C4432 C 0.9245 0.66002 0.38823 0.0
C4433 C 0.93531 0.66099 0.39589 0.0
C4434 C 0.91095 0.65506 0.39429 0.0
C4435 C 0.91533 0.66221 0.36604 0.0
C4436 C 0.90498 0.66342 0.39466 0.0
C4437 C 0.89187 0.65843 0.39966 0.0
C4438 C 0.88455 0.64504 0.40457 0.0
C4439 C 0.89074 0.63684 0.40459 0.0
C4440 C 0.90385 0.64183 0.39952 0.0
H4441 H 0.91774 0.6619 0.35559 0.0
H4442 H 0.90552 0.65273 0.36817 0.0
H4443 H 0.91385 0.67118 0.36758 0.0
H4444 H 0.91041 0.67377 0.39093 0.0
H4445 H 0.88735 0.66497 0.39952 0.0
H4446 H 0.34953 0.99409 0.70131 0.0
H4447 H 0.36777 0.99257 0.71309 0.0
H4448 H 0.39803 0.03069 0.69625 0.0
H4449 H 0.37999 0.03229 0.68447 0.0
H4450 H 0.39269 0.99362 0.70132 0.0
H4451 H 0.40429 0.03577 0.73704 0.0
H4452 H 0.38816 0.02664 0.7282 0.0
H4453 H 0.40313 0.03971 0.7203 0.0
C4454 C 0.36008 0.00213 0.70013 0.0
C4455 C 0.36335 0.01333 0.69201 0.0
C4456 C 0.37045 0.00124 0.70684 0.0
C4457 C 0.38418 0.0116 0.70563 0.0
C4458 C 0.38746 0.02269 0.69743 0.0
H4459 H 0.47068 0.0425 0.7377 0.0
H4460 H 0.44563 0.03787 0.72521 0.0
C4461 C 0.37715 0.02355 0.69067 0.0
C4462 C 0.39524 0.01094 0.71279 0.0
H4463 H 0.42057 0.0283 0.73553 0.0
C4464 C 0.3987 0.00104 0.70895 0.0
C4465 C 0.40303 0.02069 0.72266 0.0
C4466 C 0.39944 0.03125 0.72741 0.0
C4467 C 0.41023 0.00109 0.71429 0.0
C4468 C 0.41822 0.01108 0.72397 0.0
C4469 C 0.41447 0.02068 0.72808 0.0
C4470 C 0.43098 0.01248 0.72948 0.0
C4471 C 0.4141 0.99095 0.70893 0.0
C4472 C 0.43127 0.99766 0.73579 0.0
C4473 C 0.44664 0.99945 0.74317 0.0
C4474 C 0.4605 0.0176 0.74614 0.0
C4475 C 0.46194 0.03223 0.73663 0.0
C4476 C 0.44611 0.02935 0.72946 0.0
H4477 H 0.40983 0.98732 0.69893 0.0
H4478 H 0.42539 0.99548 0.7086 0.0
H4479 H 0.40979 0.98181 0.71525 0.0
H4480 H 0.42208 0.98767 0.7355 0.0
H4481 H 0.44659 0.99091 0.74798 0.0
H4482 H 0.0048 0.34829 0.70901 0.0
H4483 H 0.00796 0.36714 0.72353 0.0
H4484 H 0.97481 0.3686 0.70382 0.0
H4485 H 0.97162 0.34977 0.68916 0.0
H4486 H 0.99857 0.39464 0.70815 0.0
H4487 H 0.98198 0.36399 0.75324 0.0
H4488 H 0.99506 0.36267 0.74452 0.0
H4489 H 0.9784 0.35618 0.73712 0.0
C4490 C 0.99819 0.35264 0.70774 0.0
C4491 C 0.98793 0.34754 0.69798 0.0
C4492 C -4e-05 0.36334 0.7161 0.0
C4493 C 0.99146 0.36908 0.71487 0.0
C4494 C 0.9814 0.36422 0.70496 0.0
H4495 H 0.98768 0.42542 0.78123 0.0
H4496 H 0.98077 0.4031 0.7627 0.0
C4497 C 0.9796 0.35348 0.69661 0.0
C4498 C 0.99329 0.38033 0.72381 0.0
H4499 H 0.99304 0.38834 0.75598 0.0
C4500 C 0.9973 0.39327 0.71861 0.0
C4501 C 0.99133 0.37841 0.7374 0.0
C4502 C 0.98633 0.36453 0.74342 0.0
C4503 C -9e-05 0.40451 0.72671 0.0
C4504 C 0.99867 0.40275 0.74036 0.0
C4505 C 0.99412 0.38969 0.74552 0.0
C4506 C 0.00244 0.41434 0.74953 0.0
C4507 C 0.00368 0.41804 0.72053 0.0
C4508 C 0.01945 0.42919 0.74883 0.0
C4509 C 0.02487 0.44327 0.76031 0.0
C4510 C 0.01096 0.44242 0.77062 0.0
C4511 C 0.99503 0.42597 0.77418 0.0
C4512 C 0.9906 0.41246 0.76222 0.0
H4513 H 0.00029 0.41663 0.71014 0.0
H4514 H 0.99898 0.42331 0.7258 0.0
H4515 H 0.01497 0.42481 0.72083 0.0
H4516 H 0.02657 0.42956 0.74161 0.0
H4517 H 0.0346 0.45266 0.75932 0.0
H4518 H 0.64654 0.65945 0.69776 0.0
H4519 H 0.62559 0.64559 0.71002 0.0
H4520 H 0.62635 0.60879 0.69905 0.0
H4521 H 0.64735 0.62261 0.6867 0.0
H4522 H 0.60008 0.62277 0.69921 0.0
H4523 H 0.62244 0.60758 0.73987 0.0
H4524 H 0.63273 0.6222 0.72977 0.0
H4525 H 0.62669 0.60508 0.72355 0.0
C4526 C 0.64228 0.64841 0.69799 0.0
C4527 C 0.64858 0.6421 0.69129 0.0
C4528 C 0.63033 0.64052 0.70499 0.0
C4529 C 0.62453 0.62621 0.70554 0.0
C4530 C 0.63079 0.61985 0.69888 0.0
H4531 H 0.55097 0.56348 0.74335 0.0
H4532 H 0.57271 0.57596 0.73178 0.0
C4533 C 0.64272 0.62774 0.69179 0.0
C4534 C 0.61168 0.61795 0.71273 0.0
H4535 H 0.59845 0.59832 0.73973 0.0
C4536 C 0.5997 0.61742 0.70807 0.0
C4537 C 0.61126 0.61094 0.72423 0.0
C4538 C 0.62396 0.61149 0.72976 0.0
C4539 C 0.58725 0.61001 0.71459 0.0
C4540 C 0.58686 0.60322 0.72625 0.0
C4541 C 0.5988 0.60359 0.73082 0.0
C4542 C 0.57414 0.59582 0.73388 0.0
C4543 C 0.57457 0.60934 0.70883 0.0
C4544 C 0.56793 0.60293 0.73913 0.0
C4545 C 0.55556 0.59585 0.74575 0.0
C4546 C 0.54928 0.58156 0.74741 0.0
C4547 C 0.55569 0.57452 0.74238 0.0
C4548 C 0.56806 0.58161 0.73575 0.0
H4549 H 0.57576 0.61182 0.69829 0.0
H4550 H 0.56544 0.59898 0.71001 0.0
H4551 H 0.57264 0.61696 0.71395 0.0
H4552 H 0.57257 0.61393 0.73797 0.0
H4553 H 0.55079 0.60151 0.74939 0.0
H4554 H 0.68896 0.70996 0.65659 0.0
H4555 H 0.68149 0.72386 0.64457 0.0
H4556 H 0.64819 0.68699 0.62715 0.0
H4557 H 0.65553 0.67303 0.63914 0.0
H4558 H 0.67768 0.72473 0.61664 0.0
H4559 H 0.62965 0.70713 0.6443 0.0
H4560 H 0.64357 0.70494 0.65015 0.0
H4561 H 0.63206 0.69362 0.63766 0.0
C4562 C 0.68005 0.70482 0.65019 0.0
C4563 C 0.67277 0.69041 0.64886 0.0
C4564 C 0.67583 0.71277 0.64333 0.0
C4565 C 0.66421 0.70642 0.63512 0.0
C4566 C 0.65707 0.69205 0.63359 0.0
H4567 H 0.61841 0.73391 0.58879 0.0
H4568 H 0.62767 0.72077 0.5993 0.0
C4569 C 0.6613 0.68411 0.64041 0.0
C4570 C 0.65947 0.71479 0.62819 0.0
H4571 H 0.63266 0.7207 0.62579 0.0
C4572 C 0.66787 0.72392 0.61866 0.0
C4573 C 0.64667 0.71367 0.63088 0.0
C4574 C 0.63748 0.70441 0.64138 0.0
C4575 C 0.66365 0.73177 0.6115 0.0
C4576 C 0.65081 0.7306 0.61415 0.0
C4577 C 0.64247 0.72153 0.62375 0.0
C4578 C 0.64578 0.73868 0.60711 0.0
C4579 C 0.67281 0.74098 0.60096 0.0
C4580 C 0.65288 0.7531 0.60805 0.0
C4581 C 0.64765 0.76062 0.60201 0.0
C4582 C 0.63522 0.75385 0.59489 0.0
C4583 C 0.62813 0.7394 0.594 0.0
C4584 C 0.63337 0.7319 0.60003 0.0
H4585 H 0.68048 0.73807 0.5979 0.0
H4586 H 0.6667 0.7406 0.59226 0.0
H4587 H 0.67845 0.75175 0.60472 0.0
H4588 H 0.66229 0.75852 0.61375 0.0
H4589 H 0.65315 0.77172 0.60311 0.0
H4590 H 0.29251 0.97206 0.66607 0.0
H4591 H 0.27907 0.95019 0.65408 0.0
H4592 H 0.3109 0.96338 0.62544 0.0
H4593 H 0.32447 0.98505 0.6375 0.0
H4594 H 0.26874 0.94483 0.62917 0.0
H4595 H 0.30559 0.92629 0.63543 0.0
H4596 H 0.30695 0.94073 0.64464 0.0
H4597 H 0.31322 0.94295 0.62823 0.0
C4598 C 0.29665 0.97025 0.65725 0.0
C4599 C 0.30959 0.98021 0.65278 0.0
C4600 C 0.28897 0.95777 0.65041 0.0
C4601 C 0.2941 0.95506 0.639 0.0
C4602 C 0.30689 0.96511 0.63439 0.0
H4603 H 0.24304 0.89075 0.5732 0.0
H4604 H 0.25702 0.91516 0.58972 0.0
C4605 C 0.3146 0.97752 0.64126 0.0
C4606 C 0.28602 0.94181 0.63177 0.0
H4607 H 0.28782 0.9144 0.61952 0.0
C4608 C 0.27286 0.9381 0.62713 0.0
C4609 C 0.29129 0.93292 0.62933 0.0
C4610 C 0.30498 0.93584 0.63478 0.0
C4611 C 0.26496 0.92592 0.6198 0.0
C4612 C 0.27055 0.91743 0.61677 0.0
C4613 C 0.28355 0.92095 0.62173 0.0
C4614 C 0.26326 0.90486 0.60853 0.0
C4615 C 0.25061 0.9222 0.61573 0.0
C4616 C 0.26355 0.88965 0.61363 0.0
C4617 C 0.25578 0.87424 0.60365 0.0
C4618 C 0.24533 0.8745 0.58966 0.0
C4619 C 0.24811 0.89073 0.58219 0.0
C4620 C 0.25615 0.90562 0.59289 0.0
H4621 H 0.2463 0.92679 0.62254 0.0
H4622 H 0.25085 0.92636 0.60592 0.0
H4623 H 0.24364 0.9109 0.61539 0.0
H4624 H 0.26844 0.88977 0.62278 0.0
H4625 H 0.25485 0.86477 0.60715 0.0
H4626 H 0.01217 0.33404 0.6397 0.0
H4627 H 0.03328 0.34051 0.62789 0.0
H4628 H 0.04754 0.32562 0.65946 0.0
H4629 H 0.02624 0.3187 0.67112 0.0
H4630 H 0.05935 0.3583 0.63383 0.0
H4631 H 0.05271 0.30617 0.62876 0.0
H4632 H 0.03914 0.30903 0.6342 0.0
H4633 H 0.05232 0.3109 0.64546 0.0
C4634 C 0.01979 0.3321 0.6441 0.0
C4635 C 0.01753 0.32577 0.65628 0.0
C4636 C 0.03184 0.33581 0.63735 0.0
C4637 C 0.04188 0.33331 0.64267 0.0
C4638 C 0.03978 0.32729 0.65499 0.0
H4639 H 0.12698 0.37287 0.61984 0.0
H4640 H 0.10505 0.3663 0.63008 0.0
C4641 C 0.02765 0.32344 0.66168 0.0
C4642 C 0.05466 0.33728 0.63545 0.0
H4643 H 0.07482 0.32494 0.62383 0.0
C4644 C 0.06269 0.35098 0.63156 0.0
C4645 C 0.05889 0.32768 0.63226 0.0
C4646 C 0.05024 0.3126 0.63526 0.0
C4647 C 0.07497 0.35542 0.62483 0.0
C4648 C 0.07957 0.34599 0.62228 0.0
C4649 C 0.07139 0.33222 0.62591 0.0
C4650 C 0.09286 0.35016 0.61594 0.0
C4651 C 0.08272 0.37011 0.62035 0.0
C4652 C 0.09339 0.34295 0.60487 0.0
C4653 C 0.10595 0.34651 0.59917 0.0
C4654 C 0.11821 0.35752 0.60431 0.0
C4655 C 0.11765 0.3646 0.61548 0.0
C4656 C 0.10512 0.36091 0.62128 0.0
H4657 H 0.07584 0.37446 0.6192 0.0
H4658 H 0.09067 0.37651 0.62777 0.0
H4659 H 0.08784 0.37093 0.61091 0.0
H4660 H 0.08408 0.3345 0.60067 0.0
H4661 H 0.10604 0.34058 0.5908 0.0
H4662 H 0.29222 0.30873 0.65669 0.0
H4663 H 0.2797 0.31739 0.64396 0.0
H4664 H 0.31764 0.35485 0.63689 0.0
H4665 H 0.33019 0.34611 0.64919 0.0
H4666 H 0.27711 0.3399 0.64749 0.0
H4667 H 0.30234 0.3434 0.6004 0.0
H4668 H 0.30406 0.33448 0.61416 0.0
H4669 H 0.31446 0.35291 0.61322 0.0
C4670 C 0.29787 0.31878 0.65235 0.0
C4671 C 0.31218 0.32669 0.6538 0.0
C4672 C 0.29072 0.32371 0.64511 0.0
C4673 C 0.29778 0.33665 0.63926 0.0
C4674 C 0.31203 0.34468 0.64099 0.0
H4675 H 0.26435 0.38667 0.61142 0.0
H4676 H 0.27492 0.37606 0.62425 0.0
C4677 C 0.31918 0.3397 0.64809 0.0
C4678 C 0.29027 0.34189 0.63152 0.0
H4679 H 0.28952 0.35501 0.60188 0.0
C4680 C 0.27974 0.34311 0.63748 0.0
C4681 C 0.29357 0.34588 0.6184 0.0
C4682 C 0.30413 0.34397 0.61112 0.0
C4683 C 0.27264 0.34852 0.63078 0.0
C4684 C 0.27642 0.35314 0.61788 0.0
C4685 C 0.28674 0.35163 0.61183 0.0
C4686 C 0.26974 0.35942 0.61037 0.0
C4687 C 0.26104 0.34904 0.63752 0.0
C4688 C 0.26373 0.35386 0.59813 0.0
C4689 C 0.25789 0.36001 0.59073 0.0
C4690 C 0.25778 0.37175 0.59551 0.0
C4691 C 0.26399 0.37743 0.60768 0.0
C4692 C 0.26995 0.37134 0.61503 0.0
H4693 H 0.25687 0.34156 0.64557 0.0
H4694 H 0.2649 0.35948 0.6418 0.0
H4695 H 0.25258 0.34684 0.63055 0.0
H4696 H 0.26362 0.34478 0.59426 0.0
H4697 H 0.2535 0.3556 0.58124 0.0
H4698 H 0.69153 0.98342 0.65566 0.0
H4699 H 0.68253 0.96092 0.6448 0.0
H4700 H 0.65086 0.96584 0.62622 0.0
H4701 H 0.65984 0.98837 0.63696 0.0
H4702 H 0.65589 0.93835 0.64743 0.0
H4703 H 0.66671 0.95423 0.59579 0.0
H4704 H 0.67488 0.96612 0.60933 0.0
H4705 H 0.65762 0.96108 0.60451 0.0
C4706 C 0.68273 0.97976 0.64917 0.0
C4707 C 0.6764 0.98766 0.64714 0.0
C4708 C 0.6776 0.96692 0.64298 0.0
C4709 C 0.66615 0.96181 0.63458 0.0
C4710 C 0.65987 0.96972 0.63246 0.0
H4711 H 0.61452 0.88366 0.59457 0.0
H4712 H 0.62564 0.90755 0.6027 0.0
C4713 C 0.66497 0.98255 0.63867 0.0
C4714 C 0.66028 0.94786 0.62864 0.0
H4715 H 0.65266 0.93029 0.59951 0.0
C4716 C 0.65527 0.93659 0.63696 0.0
C4717 C 0.65941 0.94561 0.61497 0.0
C4718 C 0.66504 0.95739 0.6056 0.0
C4719 C 0.64918 0.92308 0.63198 0.0
C4720 C 0.64835 0.92081 0.61832 0.0
C4721 C 0.65335 0.93208 0.60998 0.0
C4722 C 0.64225 0.90677 0.61256 0.0
C4723 C 0.6434 0.91132 0.6414 0.0
C4724 C 0.64812 0.89857 0.61514 0.0
C4725 C 0.6418 0.88498 0.61053 0.0
C4726 C 0.6296 0.87939 0.6031 0.0
C4727 C 0.62398 0.88776 0.60017 0.0
C4728 C 0.6303 0.90137 0.60481 0.0
H4729 H 0.64174 0.91456 0.65119 0.0
H4730 H 0.63351 0.90266 0.63769 0.0
H4731 H 0.65071 0.90751 0.64258 0.0
H4732 H 0.65746 0.90262 0.62093 0.0
H4733 H 0.64631 0.87874 0.613 0.0
H4734 H 0.01351 0.67524 0.64895 0.0
H4735 H 0.03565 0.68914 0.63848 0.0
H4736 H 0.03456 0.72602 0.64836 0.0
H4737 H 0.0125 0.71219 0.65902 0.0
H4738 H 0.0429 0.70774 0.6178 0.0
H4739 H 0.07155 0.73363 0.66348 0.0
H4740 H 0.0547 0.71853 0.6635 0.0
H4741 H 0.05665 0.73513 0.66042 0.0
C4742 C 0.01799 0.68631 0.6489 0.0
C4743 C 0.01133 0.69265 0.65488 0.0
C4744 C 0.03061 0.69423 0.64289 0.0
C4745 C 0.03682 0.70861 0.64281 0.0
C4746 C 0.03006 0.71494 0.64853 0.0
H4747 H 0.11559 0.77353 0.61657 0.0
H4748 H 0.09205 0.76007 0.62425 0.0
C4749 C 0.01744 0.70704 0.65457 0.0
C4750 C 0.05042 0.71695 0.63681 0.0
H4751 H 0.08355 0.7414 0.64374 0.0
C4752 C 0.05181 0.7151 0.62345 0.0
C4753 C 0.062 0.72651 0.64423 0.0
C4754 C 0.06124 0.72852 0.65872 0.0
C4755 C 0.06446 0.72272 0.61726 0.0
C4756 C 0.07606 0.73226 0.6247 0.0
C4757 C 0.07464 0.73412 0.63805 0.0
C4758 C 0.08984 0.74034 0.61895 0.0
C4759 C 0.06524 0.72067 0.60279 0.0
C4760 C 0.09639 0.73372 0.61335 0.0
C4761 C 0.1098 0.7414 0.60886 0.0
C4762 C 0.11694 0.75583 0.60999 0.0
C4763 C 0.1103 0.76243 0.61547 0.0
C4764 C 0.09688 0.75476 0.61989 0.0
H4765 H 0.05499 0.71609 0.59796 0.0
H4766 H 0.07226 0.73055 0.59805 0.0
H4767 H 0.06923 0.71354 0.60115 0.0
H4768 H 0.09128 0.7226 0.61282 0.0
H4769 H 0.11475 0.73606 0.60482 0.0
H4770 H 0.99873 0.65635 0.70551 0.0
H4771 H 0.00264 0.63987 0.71751 0.0
H4772 H 0.96611 0.60632 0.69994 0.0
H4773 H 0.9622 0.6227 0.6878 0.0
H4774 H 0.98537 0.61938 0.73529 0.0
H4775 H 0.99616 0.59689 0.69152 0.0
H4776 H 0.99615 0.61295 0.69117 0.0
H4777 H 0.98024 0.59689 0.69074 0.0
C4778 C 0.99153 0.64546 0.7042 0.0
C4779 C 0.98021 0.6408 0.69565 0.0
C4780 C 0.99377 0.63608 0.71108 0.0
C4781 C 0.98477 0.62189 0.70946 0.0
C4782 C 0.97331 0.61722 0.70113 0.0
H4783 H 0.98201 0.5486 0.7385 0.0
H4784 H 0.97702 0.56534 0.72854 0.0
C4785 C 0.97106 0.62659 0.69425 0.0
C4786 C 0.9874 0.61197 0.71644 0.0
H4787 H 0.99413 0.58583 0.71157 0.0
C4788 C 0.98734 0.61207 0.73013 0.0
C4789 C 0.98998 0.60248 0.70965 0.0
C4790 C 0.99077 0.60233 0.69496 0.0
C4791 C 0.98951 0.6027 0.73723 0.0
C4792 C 0.99202 0.59316 0.73043 0.0
C4793 C 0.99214 0.59312 0.71674 0.0
C4794 C 0.99458 0.58312 0.73726 0.0
C4795 C 0.9888 0.60287 0.75192 0.0
C4796 C 0.00612 0.58759 0.74545 0.0
C4797 C 0.00896 0.57805 0.75119 0.0
C4798 C 0.00029 0.56387 0.74883 0.0
C4799 C 0.98873 0.55944 0.74065 0.0
C4800 C 0.9859 0.56898 0.73493 0.0
H4801 H 0.98345 0.60833 0.7554 0.0
H4802 H 0.98344 0.59225 0.75572 0.0
H4803 H 0.99936 0.60829 0.75608 0.0
H4804 H 0.01313 0.59847 0.74713 0.0
H4805 H 0.01808 0.58174 0.75725 0.0
H4806 H 0.34275 0.35226 0.70256 0.0
H4807 H 0.3574 0.37379 0.71459 0.0
H4808 H 0.39294 0.3706 0.705 0.0
H4809 H 0.37841 0.3493 0.69269 0.0
H4810 H 0.37329 0.37831 0.7356 0.0
H4811 H 0.40554 0.40979 0.69524 0.0
H4812 H 0.38995 0.39359 0.69247 0.0
H4813 H 0.40574 0.39397 0.69641 0.0
C4814 C 0.3537 0.35621 0.70296 0.0
C4815 C 0.35946 0.34914 0.69666 0.0
C4816 C 0.36205 0.36851 0.70981 0.0
C4817 C 0.37629 0.37395 0.71048 0.0
C4818 C 0.38202 0.36681 0.70431 0.0
H4819 H 0.43738 0.42463 0.77532 0.0
H4820 H 0.41568 0.40408 0.75889 0.0
C4821 C 0.3737 0.35457 0.69737 0.0
C4822 C 0.3851 0.38666 0.71823 0.0
H4823 H 0.41464 0.41766 0.71698 0.0
C4824 C 0.38225 0.38699 0.73149 0.0
C4825 C 0.39655 0.39816 0.7128 0.0
C4826 C 0.39954 0.39894 0.69841 0.0
C4827 C 0.39099 0.39816 0.73963 0.0
C4828 C 0.40307 0.40909 0.73443 0.0
C4829 C 0.40548 0.40917 0.72102 0.0
C4830 C 0.41384 0.41995 0.74278 0.0
C4831 C 0.38704 0.39813 0.75367 0.0
C4832 C 0.42194 0.4376 0.7376 0.0
C4833 C 0.43612 0.45102 0.74677 0.0
C4834 C 0.43944 0.44558 0.76285 0.0
C4835 C 0.43421 0.42745 0.76645 0.0
C4836 C 0.42014 0.41485 0.75663 0.0
H4837 H 0.37572 0.39241 0.7547 0.0
H4838 H 0.39117 0.39283 0.75965 0.0
H4839 H 0.39107 0.40872 0.75761 0.0
H4840 H 0.41835 0.44015 0.72884 0.0
H4841 H 0.4404 0.46173 0.74435 0.0
H4842 H 0.65372 0.03412 0.67953 0.0
H4843 H 0.63341 0.02971 0.69184 0.0
H4844 H 0.63459 0.99679 0.71191 0.0
H4845 H 0.65497 0.0012 0.69971 0.0
H4846 H 0.60808 0.00484 0.69223 0.0
H4847 H 0.63182 0.0202 0.74175 0.0
H4848 H 0.64182 0.02501 0.72706 0.0
H4849 H 0.63485 0.00792 0.73322 0.0
C4850 C 0.6497 0.026 0.68662 0.0
C4851 C 0.65594 0.01802 0.68868 0.0
C4852 C 0.63811 0.02349 0.69364 0.0
C4853 C 0.63262 0.01305 0.7029 0.0
C4854 C 0.63883 0.00507 0.70498 0.0
H4855 H 0.55948 0.9799 0.75052 0.0
H4856 H 0.58096 0.9847 0.74012 0.0
C4857 C 0.65041 0.00755 0.69794 0.0
C4858 C 0.62008 0.01018 0.70999 0.0
H4859 H 0.60762 0.00984 0.74036 0.0
C4860 C 0.60799 0.00598 0.70275 0.0
C4861 C 0.62 0.01161 0.72372 0.0
C4862 C 0.63283 0.01654 0.73192 0.0
C4863 C 0.59575 0.00305 0.70887 0.0
C4864 C 0.59568 0.00459 0.72258 0.0
C4865 C 0.60774 0.00868 0.72985 0.0
C4866 C 0.58319 0.00219 0.72946 0.0
C4867 C 0.58292 0.99812 0.70065 0.0
C4868 C 0.57754 0.01061 0.72708 0.0
C4869 C 0.56536 0.00794 0.73304 0.0
C4870 C 0.5587 0.9969 0.7416 0.0
C4871 C 0.56452 0.98861 0.74413 0.0
C4872 C 0.57673 0.99131 0.73818 0.0
H4873 H 0.58389 0.99432 0.69088 0.0
H4874 H 0.57389 0.98975 0.70556 0.0
H4875 H 0.58099 0.00678 0.69922 0.0
H4876 H 0.58246 0.01914 0.72048 0.0
H4877 H 0.56102 0.01438 0.73079 0.0
loop_
_geom_bond_atom_site_label_1
_geom_bond_atom_site_label_2
_geom_bond_distance
_geom_bond_site_symmetry_2
_ccdc_geom_bond_type
In0 O1 2.294 1_455 S
In0 O2 2.326 . S
In0 O6 2.265 1_455 S
In0 O7 2.326 1_454 S
In0 O8 2.266 1_554 S
In0 O9 2.326 1_454 S
In0 O11 2.294 . S
In0 O12 2.326 . S
O1 In0 2.294 1_655 S
O1 C10 1.222 1_655 S
O2 In0 2.326 . S
O2 C10 1.290 . S
C3 O6 1.257 1_556 S
C3 O7 1.260 . S
C4 O11 1.240 . S
C4 O12 1.252 . S
C5 O8 1.252 . S
C5 O9 1.260 1_455 S
O6 In0 2.265 1_655 S
O6 C3 1.257 1_554 S
O7 In0 2.326 1_656 S
O7 C3 1.260 . S
O8 In0 2.266 1_556 S
O8 C5 1.252 . S
O9 In0 2.326 1_656 S
O9 C5 1.260 1_655 S
C10 O1 1.222 1_455 S
C10 O2 1.290 . S
O11 In0 2.294 . S
O11 C4 1.240 . S
O12 In0 2.326 . S
O12 C4 1.252 . S
In13 O14 2.294 . S
In13 O15 2.326 . S
In13 O19 2.266 . S
In13 O20 2.326 1_554 S
In13 O21 2.266 1_554 S
In13 O22 2.326 1_554 S
In13 O24 2.294 . S
In13 O25 2.326 . S
O14 In13 2.294 . S
O14 C23 1.240 . S
O15 In13 2.326 . S
O15 C23 1.252 . S
C16 O19 1.252 1_556 S
C16 O20 1.260 . S
C17 O24 1.240 . S
C17 O25 1.252 . S
C18 O21 1.252 . S
C18 O22 1.260 . S
O19 In13 2.266 . S
O19 C16 1.252 1_554 S
O20 In13 2.326 1_556 S
O20 C16 1.260 . S
O21 In13 2.266 1_556 S
O21 C18 1.252 . S
O22 In13 2.326 1_556 S
O22 C18 1.260 . S
C23 O14 1.240 . S
C23 O15 1.252 . S
O24 In13 2.294 . S
O24 C17 1.240 . S
O25 In13 2.326 . S
O25 C17 1.252 . S
In26 O27 2.304 . S
In26 O28 2.326 1_554 S
In26 O32 2.266 . S
In26 O33 2.326 1_545 S
In26 O34 2.266 1_545 S
In26 O35 2.326 1_545 S
In26 O37 2.294 1_544 S
In26 O38 2.326 1_554 S
O27 In26 2.304 . S
O27 C36 1.208 1_554 S
O28 In26 2.326 1_556 S
O28 C36 1.252 . S
C29 O32 1.252 . S
C29 O33 1.260 1_545 S
C30 O37 1.243 . S
C30 O38 1.245 1_565 S
C31 O34 1.252 . S
C31 O35 1.260 . S
O32 In26 2.266 . S
O32 C29 1.252 . S
O33 In26 2.326 1_565 S
O33 C29 1.260 1_565 S
O34 In26 2.266 1_565 S
O34 C31 1.252 . S
O35 In26 2.326 1_565 S
O35 C31 1.260 . S
C36 O27 1.208 1_556 S
C36 O28 1.252 . S
O37 In26 2.294 1_566 S
O37 C30 1.243 . S
O38 In26 2.326 1_556 S
O38 C30 1.245 1_545 S
In39 O40 2.293 1_554 S
In39 O41 2.326 1_454 S
In39 O45 2.265 . S
In39 O46 2.326 . S
In39 O47 2.267 1_455 S
In39 O48 2.324 . S
In39 O50 2.296 1_455 S
In39 O51 2.327 1_454 S
O40 In39 2.293 1_556 S
O40 C49 1.240 . S
O41 In39 2.326 1_656 S
O41 C49 1.252 1_655 S
C42 O45 1.252 . S
C42 O46 1.260 . S
C43 O50 1.240 1_556 S
C43 O51 1.252 . S
C44 O47 1.252 . S
C44 O48 1.260 1_655 S
O45 In39 2.265 . S
O45 C42 1.252 . S
O46 In39 2.326 . S
O46 C42 1.260 . S
O47 In39 2.267 1_655 S
O47 C44 1.252 . S
O48 In39 2.324 . S
O48 C44 1.260 1_455 S
C49 O40 1.240 . S
C49 O41 1.252 1_455 S
O50 In39 2.296 1_655 S
O50 C43 1.240 1_554 S
O51 In39 2.327 1_656 S
O51 C43 1.252 . S
In52 O53 2.294 1_554 S
In52 O54 2.326 1_554 S
In52 O58 2.266 . S
In52 O59 2.326 . S
In52 O60 2.266 . S
In52 O61 2.326 . S
In52 O63 2.294 1_554 S
In52 O64 2.326 1_554 S
O53 In52 2.294 1_556 S
O53 C62 1.240 . S
O54 In52 2.326 1_556 S
O54 C62 1.252 . S
C55 O58 1.252 . S
C55 O59 1.260 . S
C56 O63 1.240 . S
C56 O64 1.252 . S
C57 O60 1.252 . S
C57 O61 1.260 . S
O58 In52 2.266 . S
O58 C55 1.252 . S
O59 In52 2.326 . S
O59 C55 1.260 . S
O60 In52 2.266 . S
O60 C57 1.252 . S
O61 In52 2.326 . S
O61 C57 1.260 . S
C62 O53 1.240 . S
C62 O54 1.252 . S
O63 In52 2.294 1_556 S
O63 C56 1.240 . S
O64 In52 2.326 1_556 S
O64 C56 1.252 . S
In65 O66 2.293 . S
In65 O67 2.326 1_545 S
In65 O71 2.265 . S
In65 O72 2.326 1_554 S
In65 O73 2.267 1_544 S
In65 O74 2.324 1_554 S
In65 O76 2.296 1_545 S
In65 O77 2.327 1_545 S
O66 In65 2.293 . S
O66 C75 1.240 . S
O67 In65 2.326 1_565 S
O67 C75 1.252 1_565 S
C68 O71 1.252 1_556 S
C68 O72 1.260 . S
C69 O76 1.240 . S
C69 O77 1.252 . S
C70 O73 1.252 . S
C70 O74 1.260 1_565 S
O71 In65 2.265 . S
O71 C68 1.252 1_554 S
O72 In65 2.326 1_556 S
O72 C68 1.260 . S
O73 In65 2.267 1_566 S
O73 C70 1.252 . S
O74 In65 2.324 1_556 S
O74 C70 1.260 1_545 S
C75 O66 1.240 . S
C75 O67 1.252 1_545 S
O76 In65 2.296 1_565 S
O76 C69 1.240 . S
O77 In65 2.327 1_565 S
O77 C69 1.252 . S
In78 O79 2.294 . S
In78 O80 2.326 . S
In78 O84 2.266 . S
In78 O85 2.326 . S
In78 O86 2.266 . S
In78 O87 2.326 . S
In78 O89 2.294 . S
In78 O90 2.326 . S
O79 In78 2.294 . S
O79 C88 1.240 . S
O80 In78 2.326 . S
O80 C88 1.252 . S
C81 O84 1.252 . S
C81 O85 1.260 . S
C82 O89 1.240 . S
C82 O90 1.252 . S
C83 O86 1.252 . S
C83 O87 1.260 . S
O84 In78 2.266 . S
O84 C81 1.252 . S
O85 In78 2.326 . S
O85 C81 1.260 . S
O86 In78 2.266 . S
O86 C83 1.252 . S
O87 In78 2.326 . S
O87 C83 1.260 . S
C88 O79 1.240 . S
C88 O80 1.252 . S
O89 In78 2.294 . S
O89 C82 1.240 . S
O90 In78 2.326 . S
O90 C82 1.252 . S
In91 O92 2.294 . S
In91 O93 2.326 . S
In91 O97 2.266 . S
In91 O98 2.326 . S
In91 O99 2.266 . S
In91 O100 2.326 . S
In91 O102 2.294 . S
In91 O103 2.326 . S
O92 In91 2.294 . S
O92 C101 1.240 . S
O93 In91 2.326 . S
O93 C101 1.252 . S
C94 O97 1.252 . S
C94 O98 1.260 . S
C95 O102 1.240 1_545 S
C95 O103 1.252 1_545 S
C96 O99 1.252 . S
C96 O100 1.260 . S
O97 In91 2.266 . S
O97 C94 1.252 . S
O98 In91 2.326 . S
O98 C94 1.260 . S
O99 In91 2.266 . S
O99 C96 1.252 . S
O100 In91 2.326 . S
O100 C96 1.260 . S
C101 O92 1.240 . S
C101 O93 1.252 . S
O102 In91 2.294 . S
O102 C95 1.240 1_565 S
O103 In91 2.326 . S
O103 C95 1.252 1_565 S
In104 O105 2.294 . S
In104 O106 2.326 . S
In104 O110 2.266 . S
In104 O111 2.326 . S
In104 O112 2.266 . S
In104 O113 2.326 . S
In104 O115 2.294 . S
In104 O116 2.326 . S
O105 In104 2.294 . S
O105 C114 1.240 . S
O106 In104 2.326 . S
O106 C114 1.252 . S
C107 O110 1.252 . S
C107 O111 1.260 . S
C108 O115 1.240 . S
C108 O116 1.252 . S
C109 O112 1.275 . S
C109 O113 1.263 . S
O110 In104 2.266 . S
O110 C107 1.252 . S
O111 In104 2.326 . S
O111 C107 1.260 . S
O112 In104 2.266 . S
O112 C109 1.275 . S
O113 In104 2.326 . S
O113 C109 1.263 . S
C114 O105 1.240 . S
C114 O106 1.252 . S
O115 In104 2.294 . S
O115 C108 1.240 . S
O116 In104 2.326 . S
O116 C108 1.252 . S
In117 O118 2.294 . S
In117 O119 2.326 . S
In117 O123 2.272 . S
In117 O124 2.326 . S
In117 O125 2.266 . S
In117 O126 2.326 . S
In117 O128 2.294 . S
In117 O129 2.326 . S
O118 In117 2.294 . S
O118 C127 1.240 . S
O119 In117 2.326 . S
O119 C127 1.252 . S
C120 O123 1.244 1_545 S
C120 O124 1.260 1_545 S
C121 O128 1.240 . S
C121 O129 1.252 . S
C122 O125 1.252 . S
C122 O126 1.260 . S
O123 In117 2.272 . S
O123 C120 1.244 1_565 S
O124 In117 2.326 . S
O124 C120 1.260 1_565 S
O125 In117 2.266 . S
O125 C122 1.252 . S
O126 In117 2.326 . S
O126 C122 1.260 . S
C127 O118 1.240 . S
C127 O119 1.252 . S
O128 In117 2.294 . S
O128 C121 1.240 . S
O129 In117 2.326 . S
O129 C121 1.252 . S
In130 O131 2.294 . S
In130 O132 2.326 . S
In130 O136 2.266 . S
In130 O137 2.326 . S
In130 O138 2.266 . S
In130 O139 2.326 . S
In130 O141 2.294 . S
In130 O142 2.326 . S
O131 In130 2.294 . S
O131 C140 1.240 . S
O132 In130 2.326 . S
O132 C140 1.252 . S
C133 O136 1.252 1_655 S
C133 O137 1.260 1_655 S
C134 O141 1.240 . S
C134 O142 1.252 . S
C135 O138 1.252 . S
C135 O139 1.260 . S
O136 In130 2.266 . S
O136 C133 1.252 1_455 S
O137 In130 2.326 . S
O137 C133 1.260 1_455 S
O138 In130 2.266 . S
O138 C135 1.252 . S
O139 In130 2.326 . S
O139 C135 1.260 . S
C140 O131 1.240 . S
C140 O132 1.252 . S
O141 In130 2.294 . S
O141 C134 1.240 . S
O142 In130 2.326 . S
O142 C134 1.252 . S
In143 O144 2.294 . S
In143 O145 2.326 . S
In143 O149 2.266 . S
In143 O150 2.326 . S
In143 O151 2.266 . S
In143 O152 2.326 . S
In143 O154 2.294 . S
In143 O155 2.326 . S
O144 In143 2.294 . S
O144 C153 1.240 . S
O145 In143 2.326 . S
O145 C153 1.252 . S
C146 O149 1.252 . S
C146 O150 1.260 . S
C147 O154 1.240 . S
C147 O155 1.252 . S
C148 O151 1.252 . S
C148 O152 1.260 . S
O149 In143 2.266 . S
O149 C146 1.252 . S
O150 In143 2.326 . S
O150 C146 1.260 . S
O151 In143 2.266 . S
O151 C148 1.252 . S
O152 In143 2.326 . S
O152 C148 1.260 . S
C153 O144 1.240 . S
C153 O145 1.252 . S
O154 In143 2.294 . S
O154 C147 1.240 . S
O155 In143 2.326 . S
O155 C147 1.252 . S
In156 O157 2.294 . S
In156 O158 2.326 . S
In156 O162 2.266 . S
In156 O163 2.326 . S
In156 O164 2.266 . S
In156 O165 2.326 . S
In156 O167 2.294 . S
In156 O168 2.326 . S
O157 In156 2.294 . S
O157 C166 1.240 . S
O158 In156 2.326 . S
O158 C166 1.252 . S
C159 O162 1.252 . S
C159 O163 1.260 . S
C160 O167 1.240 . S
C160 O168 1.252 . S
C161 O164 1.252 1_565 S
C161 O165 1.260 1_565 S
O162 In156 2.266 . S
O162 C159 1.252 . S
O163 In156 2.326 . S
O163 C159 1.260 . S
O164 In156 2.266 . S
O164 C161 1.252 1_545 S
O165 In156 2.326 . S
O165 C161 1.260 1_545 S
C166 O157 1.240 . S
C166 O158 1.252 . S
O167 In156 2.294 . S
O167 C160 1.240 . S
O168 In156 2.326 . S
O168 C160 1.252 . S
In169 O170 2.294 . S
In169 O171 2.326 . S
In169 O175 2.266 . S
In169 O176 2.326 . S
In169 O177 2.271 . S
In169 O178 2.326 . S
In169 O180 2.294 . S
In169 O181 2.326 . S
O170 In169 2.294 . S
O170 C179 1.240 . S
O171 In169 2.326 . S
O171 C179 1.252 . S
C172 O175 1.252 . S
C172 O176 1.260 . S
C173 O180 1.240 . S
C173 O181 1.252 . S
C174 O177 1.252 1_455 S
C174 O178 1.260 1_455 S
O175 In169 2.266 . S
O175 C172 1.252 . S
O176 In169 2.326 . S
O176 C172 1.260 . S
O177 In169 2.271 . S
O177 C174 1.252 1_655 S
O178 In169 2.326 . S
O178 C174 1.260 1_655 S
C179 O170 1.240 . S
C179 O171 1.252 . S
O180 In169 2.294 . S
O180 C173 1.240 . S
O181 In169 2.326 . S
O181 C173 1.252 . S
In182 O183 2.294 . S
In182 O184 2.326 . S
In182 O188 2.266 . S
In182 O189 2.326 . S
In182 O190 2.266 . S
In182 O191 2.326 . S
In182 O193 2.294 . S
In182 O194 2.326 . S
O183 In182 2.294 . S
O183 C192 1.240 . S
O184 In182 2.326 . S
O184 C192 1.252 . S
C185 O188 1.252 . S
C185 O189 1.260 . S
C186 O193 1.240 . S
C186 O194 1.252 . S
C187 O190 1.252 . S
C187 O191 1.260 . S
O188 In182 2.266 . S
O188 C185 1.252 . S
O189 In182 2.326 . S
O189 C185 1.260 . S
O190 In182 2.266 . S
O190 C187 1.252 . S
O191 In182 2.326 . S
O191 C187 1.260 . S
C192 O183 1.240 . S
C192 O184 1.252 . S
O193 In182 2.294 . S
O193 C186 1.240 . S
O194 In182 2.326 . S
O194 C186 1.252 . S
In195 O196 2.294 . S
In195 O197 2.326 . S
In195 O201 2.266 . S
In195 O202 2.326 . S
In195 O203 2.266 . S
In195 O204 2.326 . S
In195 O206 2.294 . S
In195 O207 2.326 . S
O196 In195 2.294 . S
O196 C205 1.240 . S
O197 In195 2.326 . S
O197 C205 1.252 . S
C198 O201 1.252 . S
C198 O202 1.260 . S
C199 O206 1.240 . S
C199 O207 1.252 . S
C200 O203 1.252 . S
C200 O204 1.260 . S
O201 In195 2.266 . S
O201 C198 1.252 . S
O202 In195 2.326 . S
O202 C198 1.260 . S
O203 In195 2.266 . S
O203 C200 1.252 . S
O204 In195 2.326 . S
O204 C200 1.260 . S
C205 O196 1.240 . S
C205 O197 1.252 . S
O206 In195 2.294 . S
O206 C199 1.240 . S
O207 In195 2.326 . S
O207 C199 1.252 . S
In208 O209 2.294 . S
In208 O210 2.326 . S
In208 O214 2.266 . S
In208 O215 2.326 . S
In208 O216 2.266 . S
In208 O217 2.326 . S
In208 O219 2.294 . S
In208 O220 2.326 . S
O209 In208 2.294 . S
O209 C218 1.240 . S
O210 In208 2.326 . S
O210 C218 1.252 . S
C211 O214 1.252 . S
C211 O215 1.260 . S
C212 O219 1.253 1_565 S
C212 O220 1.177 1_565 S
C213 O216 1.252 . S
C213 O217 1.260 . S
O214 In208 2.266 . S
O214 C211 1.252 . S
O215 In208 2.326 . S
O215 C211 1.260 . S
O216 In208 2.266 . S
O216 C213 1.252 . S
O217 In208 2.326 . S
O217 C213 1.260 . S
C218 O209 1.240 . S
C218 O210 1.252 . S
O219 In208 2.294 . S
O219 C212 1.253 1_545 S
O220 In208 2.326 . S
O220 C212 1.177 1_545 S
In221 O222 2.294 . S
In221 O223 2.326 . S
In221 O227 2.266 . S
In221 O228 2.326 . S
In221 O229 2.266 . S
In221 O230 2.326 . S
In221 O232 2.294 . S
In221 O233 2.326 . S
O222 In221 2.294 . S
O222 C231 1.240 . S
O223 In221 2.326 . S
O223 C231 1.252 . S
C224 O227 1.252 . S
C224 O228 1.260 . S
C225 O232 1.240 . S
C225 O233 1.252 . S
C226 O229 1.252 1_455 S
C226 O230 1.260 1_455 S
O227 In221 2.266 . S
O227 C224 1.252 . S
O228 In221 2.326 . S
O228 C224 1.260 . S
O229 In221 2.266 . S
O229 C226 1.252 1_655 S
O230 In221 2.326 . S
O230 C226 1.260 1_655 S
C231 O222 1.240 . S
C231 O223 1.252 . S
O232 In221 2.294 . S
O232 C225 1.240 . S
O233 In221 2.326 . S
O233 C225 1.252 . S
C234 C235 1.560 . S
C234 H295 0.959 . S
C234 H296 0.959 . S
C234 H297 0.960 . S
C235 C234 1.560 . S
C235 O290 1.426 . S
C235 H294 0.980 . S
C236 C237 1.407 . S
C236 C241 1.418 . S
C236 O290 1.334 . S
C237 C236 1.407 . S
C237 C238 1.360 . S
C237 H298 0.929 . S
C238 C237 1.360 . S
C238 C239 1.401 . S
C238 C242 1.527 . S
C239 C238 1.401 . S
C239 C240 1.405 . S
C239 C272 1.587 . S
C240 C239 1.405 . S
C240 C241 1.332 . S
C240 C243 1.496 . S
C241 C236 1.418 . S
C241 C240 1.332 . S
C241 H299 0.929 . S
C242 C238 1.527 . S
C242 H300 0.959 . S
C242 H301 0.961 . S
C242 H302 0.961 . S
C243 C240 1.496 . S
C243 H303 0.960 . S
C243 H304 0.960 . S
C243 H305 0.961 . S
C244 C245 1.517 . S
C244 H307 0.961 . S
C244 H308 0.960 . S
C244 H309 0.959 . S
C245 C244 1.517 . S
C245 O293 1.468 . S
C245 H306 0.980 . S
C246 C247 1.349 . S
C246 C251 1.367 . S
C246 O293 1.408 . S
C247 C246 1.349 . S
C247 C248 1.407 . S
C247 H310 0.930 . S
C248 C247 1.407 . S
C248 C249 1.449 . S
C248 C252 1.535 . S
C249 C248 1.449 . S
C249 C250 1.384 . S
C249 C274 1.553 . S
C250 C249 1.384 . S
C250 C251 1.364 . S
C250 C253 1.450 . S
C251 C246 1.367 . S
C251 C250 1.364 . S
C251 H311 0.931 . S
C252 C248 1.535 . S
C252 H312 0.959 . S
C252 H313 0.961 . S
C252 H314 0.959 . S
C253 C250 1.450 . S
C253 H315 0.960 . S
C253 H316 0.960 . S
C253 H317 0.960 . S
C254 C255 1.309 . S
C254 C259 1.304 . S
C254 O292 1.435 . S
C255 C254 1.309 . S
C255 C256 1.476 . S
C255 H319 0.930 . S
C256 C255 1.476 . S
C256 C257 1.400 . S
C256 C260 1.567 . S
C257 C256 1.400 . S
C257 C258 1.373 . S
C257 C279 1.432 . S
C258 C257 1.373 . S
C258 C259 1.339 . S
C258 C261 1.530 . S
C259 C254 1.304 . S
C259 C258 1.339 . S
C259 H320 0.930 . S
C260 C256 1.567 . S
C260 H321 0.961 . S
C260 H322 0.960 . S
C260 H323 0.958 . S
C261 C258 1.530 . S
C261 H324 0.961 . S
C261 H325 0.960 . S
C261 H326 0.960 . S
C262 C263 1.530 . S
C262 H328 0.961 . S
C262 H329 0.961 . S
C262 H330 0.959 . S
C263 C262 1.530 . S
C263 O291 1.412 . S
C263 H327 0.980 . S
C264 C265 1.288 . S
C264 C269 1.377 . S
C264 O291 1.393 . S
C265 C264 1.288 . S
C265 C266 1.369 . S
C265 H331 0.932 . S
C266 C265 1.369 . S
C266 C267 1.398 . S
C266 C270 1.527 . S
C267 C266 1.398 . S
C267 C268 1.380 . S
C267 C281 1.497 . S
C268 C267 1.380 . S
C268 C269 1.383 . S
C268 C271 1.603 . S
C269 C264 1.377 . S
C269 C268 1.383 . S
C269 H332 0.929 . S
C270 C266 1.527 . S
C270 H333 0.961 . S
C270 H334 0.959 . S
C270 H335 0.959 . S
C271 C268 1.603 . S
C271 H336 0.960 . S
C271 H337 0.962 . S
C271 H338 0.961 . S
C272 C239 1.587 . S
C272 C273 1.360 . S
C272 C285 1.412 . S
C273 C272 1.360 . S
C273 C274 1.365 . S
C273 H339 0.929 . S
C274 C249 1.553 . S
C274 C273 1.365 . S
C274 C275 1.404 . S
C275 C274 1.404 . S
C275 C276 1.395 . S
C275 C286 1.451 . S
C276 C275 1.395 . S
C276 C277 1.322 . S
C276 H340 0.930 . S
C277 C276 1.322 . S
C277 C278 1.459 . S
C277 H341 0.929 . S
C278 C277 1.459 . S
C278 C279 1.445 . S
C278 C287 1.395 . S
C279 C257 1.432 . S
C279 C278 1.445 . S
C279 C280 1.370 . S
C280 C279 1.370 . S
C280 C281 1.438 . S
C280 H342 0.930 . S
C281 C267 1.497 . S
C281 C280 1.438 . S
C281 C282 1.360 . S
C282 C281 1.360 . S
C282 C283 1.401 . S
C282 C287 1.446 . S
C283 C282 1.401 . S
C283 C284 1.347 . S
C283 H343 0.929 . S
C284 C283 1.347 . S
C284 C285 1.455 . S
C284 H344 0.930 . S
C285 C272 1.412 . S
C285 C284 1.455 . S
C285 C286 1.331 . S
C286 C275 1.451 . S
C286 C285 1.331 . S
C286 C287 1.497 . S
C287 C278 1.395 . S
C287 C282 1.446 . S
C287 C286 1.497 . S
C288 C289 1.582 . S
C288 H345 0.962 . S
C288 H346 0.959 . S
C288 H347 0.958 . S
C289 C288 1.582 . S
C289 O292 1.458 . S
C289 H318 0.980 . S
O290 C235 1.426 . S
O290 C236 1.334 . S
O291 C263 1.412 . S
O291 C264 1.393 . S
O292 C254 1.435 . S
O292 C289 1.458 . S
O293 C245 1.468 . S
O293 C246 1.408 . S
H294 C235 0.980 . S
H295 C234 0.959 . S
H296 C234 0.959 . S
H297 C234 0.960 . S
H298 C237 0.929 . S
H299 C241 0.929 . S
H300 C242 0.959 . S
H301 C242 0.961 . S
H302 C242 0.961 . S
H303 C243 0.960 . S
H304 C243 0.960 . S
H305 C243 0.961 . S
H306 C245 0.980 . S
H307 C244 0.961 . S
H308 C244 0.960 . S
H309 C244 0.959 . S
H310 C247 0.930 . S
H311 C251 0.931 . S
H312 C252 0.959 . S
H313 C252 0.961 . S
H314 C252 0.959 . S
H315 C253 0.960 . S
H316 C253 0.960 . S
H317 C253 0.960 . S
H318 C289 0.980 . S
H319 C255 0.930 . S
H320 C259 0.930 . S
H321 C260 0.961 . S
H322 C260 0.960 . S
H323 C260 0.958 . S
H324 C261 0.961 . S
H325 C261 0.960 . S
H326 C261 0.960 . S
H327 C263 0.980 . S
H328 C262 0.961 . S
H329 C262 0.961 . S
H330 C262 0.959 . S
H331 C265 0.932 . S
H332 C269 0.929 . S
H333 C270 0.961 . S
H334 C270 0.959 . S
H335 C270 0.959 . S
H336 C271 0.960 . S
H337 C271 0.962 . S
H338 C271 0.961 . S
H339 C273 0.929 . S
H340 C276 0.930 . S
H341 C277 0.929 . S
H342 C280 0.930 . S
H343 C283 0.929 . S
H344 C284 0.930 . S
H345 C288 0.962 . S
H346 C288 0.959 . S
H347 C288 0.958 . S
C348 C349 1.560 . S
C348 H409 0.959 . S
C348 H410 0.959 . S
C348 H411 0.960 . S
C349 C348 1.560 . S
C349 O404 1.426 . S
C349 H408 0.980 . S
C350 C351 1.407 . S
C350 C355 1.418 . S
C350 O404 1.334 . S
C351 C350 1.407 . S
C351 C352 1.360 . S
C351 H412 0.929 . S
C352 C351 1.360 . S
C352 C353 1.401 . S
C352 C356 1.527 . S
C353 C352 1.401 . S
C353 C354 1.405 . S
C353 C386 1.587 . S
C354 C353 1.405 . S
C354 C355 1.332 . S
C354 C357 1.496 . S
C355 C350 1.418 . S
C355 C354 1.332 . S
C355 H413 0.929 . S
C356 C352 1.527 . S
C356 H414 0.959 . S
C356 H415 0.961 . S
C356 H416 0.961 . S
C357 C354 1.496 . S
C357 H417 0.960 . S
C357 H418 0.960 . S
C357 H419 0.961 . S
C358 C359 1.517 . S
C358 H421 0.961 . S
C358 H422 0.960 . S
C358 H423 0.959 . S
C359 C358 1.517 . S
C359 O407 1.468 . S
C359 H420 0.980 . S
C360 C361 1.349 . S
C360 C365 1.367 . S
C360 O407 1.408 . S
C361 C360 1.349 . S
C361 C362 1.407 . S
C361 H424 0.930 . S
C362 C361 1.407 . S
C362 C363 1.449 . S
C362 C366 1.535 . S
C363 C362 1.449 . S
C363 C364 1.384 . S
C363 C388 1.553 . S
C364 C363 1.384 . S
C364 C365 1.364 . S
C364 C367 1.450 . S
C365 C360 1.367 . S
C365 C364 1.364 . S
C365 H425 0.931 . S
C366 C362 1.535 . S
C366 H426 0.959 . S
C366 H427 0.961 . S
C366 H428 0.959 . S
C367 C364 1.450 . S
C367 H429 0.960 . S
C367 H430 0.960 . S
C367 H431 0.960 . S
C368 C369 1.309 . S
C368 C373 1.304 . S
C368 O406 1.435 . S
C369 C368 1.309 . S
C369 C370 1.476 . S
C369 H433 0.930 . S
C370 C369 1.476 . S
C370 C371 1.400 . S
C370 C374 1.567 . S
C371 C370 1.400 . S
C371 C372 1.373 . S
C371 C393 1.432 . S
C372 C371 1.373 . S
C372 C373 1.339 . S
C372 C375 1.530 . S
C373 C368 1.304 . S
C373 C372 1.339 . S
C373 H434 0.930 . S
C374 C370 1.567 . S
C374 H435 0.961 . S
C374 H436 0.960 . S
C374 H437 0.958 . S
C375 C372 1.530 . S
C375 H438 0.961 . S
C375 H439 0.960 . S
C375 H440 0.960 . S
C376 C377 1.530 . S
C376 H442 0.961 . S
C376 H443 0.961 . S
C376 H444 0.959 . S
C377 C376 1.530 . S
C377 O405 1.412 . S
C377 H441 0.980 . S
C378 C379 1.288 . S
C378 C383 1.377 . S
C378 O405 1.393 . S
C379 C378 1.288 . S
C379 C380 1.369 . S
C379 H445 0.932 . S
C380 C379 1.369 . S
C380 C381 1.398 . S
C380 C384 1.527 . S
C381 C380 1.398 . S
C381 C382 1.380 . S
C381 C395 1.497 . S
C382 C381 1.380 . S
C382 C383 1.383 . S
C382 C385 1.603 . S
C383 C378 1.377 . S
C383 C382 1.383 . S
C383 H446 0.929 . S
C384 C380 1.527 . S
C384 H447 0.961 . S
C384 H448 0.959 . S
C384 H449 0.959 . S
C385 C382 1.603 . S
C385 H450 0.960 . S
C385 H451 0.962 . S
C385 H452 0.961 . S
C386 C353 1.587 . S
C386 C387 1.360 . S
C386 C399 1.412 . S
C387 C386 1.360 . S
C387 C388 1.365 . S
C387 H453 0.929 . S
C388 C363 1.553 . S
C388 C387 1.365 . S
C388 C389 1.404 . S
C389 C388 1.404 . S
C389 C390 1.395 . S
C389 C400 1.451 . S
C390 C389 1.395 . S
C390 C391 1.322 . S
C390 H454 0.930 . S
C391 C390 1.322 . S
C391 C392 1.459 . S
C391 H455 0.929 . S
C392 C391 1.459 . S
C392 C393 1.445 . S
C392 C401 1.395 . S
C393 C371 1.432 . S
C393 C392 1.445 . S
C393 C394 1.370 . S
C394 C393 1.370 . S
C394 C395 1.438 . S
C394 H456 0.930 . S
C395 C381 1.497 . S
C395 C394 1.438 . S
C395 C396 1.360 . S
C396 C395 1.360 . S
C396 C397 1.401 . S
C396 C401 1.446 . S
C397 C396 1.401 . S
C397 C398 1.347 . S
C397 H457 0.929 . S
C398 C397 1.347 . S
C398 C399 1.455 . S
C398 H458 0.930 . S
C399 C386 1.412 . S
C399 C398 1.455 . S
C399 C400 1.331 . S
C400 C389 1.451 . S
C400 C399 1.331 . S
C400 C401 1.497 . S
C401 C392 1.395 . S
C401 C396 1.446 . S
C401 C400 1.497 . S
C402 C403 1.582 . S
C402 H459 0.962 . S
C402 H460 0.959 . S
C402 H461 0.958 . S
C403 C402 1.582 . S
C403 O406 1.458 . S
C403 H432 0.980 . S
O404 C349 1.426 . S
O404 C350 1.334 . S
O405 C377 1.412 . S
O405 C378 1.393 . S
O406 C368 1.435 . S
O406 C403 1.458 . S
O407 C359 1.468 . S
O407 C360 1.408 . S
H408 C349 0.980 . S
H409 C348 0.959 . S
H410 C348 0.959 . S
H411 C348 0.960 . S
H412 C351 0.929 . S
H413 C355 0.929 . S
H414 C356 0.959 . S
H415 C356 0.961 . S
H416 C356 0.961 . S
H417 C357 0.960 . S
H418 C357 0.960 . S
H419 C357 0.961 . S
H420 C359 0.980 . S
H421 C358 0.961 . S
H422 C358 0.960 . S
H423 C358 0.959 . S
H424 C361 0.930 . S
H425 C365 0.931 . S
H426 C366 0.959 . S
H427 C366 0.961 . S
H428 C366 0.959 . S
H429 C367 0.960 . S
H430 C367 0.960 . S
H431 C367 0.960 . S
H432 C403 0.980 . S
H433 C369 0.930 . S
H434 C373 0.930 . S
H435 C374 0.961 . S
H436 C374 0.960 . S
H437 C374 0.958 . S
H438 C375 0.961 . S
H439 C375 0.960 . S
H440 C375 0.960 . S
H441 C377 0.980 . S
H442 C376 0.961 . S
H443 C376 0.961 . S
H444 C376 0.959 . S
H445 C379 0.932 . S
H446 C383 0.929 . S
H447 C384 0.961 . S
H448 C384 0.959 . S
H449 C384 0.959 . S
H450 C385 0.960 . S
H451 C385 0.962 . S
H452 C385 0.961 . S
H453 C387 0.929 . S
H454 C390 0.930 . S
H455 C391 0.929 . S
H456 C394 0.930 . S
H457 C397 0.929 . S
H458 C398 0.930 . S
H459 C402 0.962 . S
H460 C402 0.959 . S
H461 C402 0.958 . S
C462 C463 1.560 . S
C462 H523 0.959 . S
C462 H524 0.959 . S
C462 H525 0.960 . S
C463 C462 1.560 . S
C463 O518 1.426 . S
C463 H522 0.980 . S
C464 C465 1.407 . S
C464 C469 1.418 . S
C464 O518 1.334 . S
C465 C464 1.407 . S
C465 C466 1.360 . S
C465 H526 0.929 . S
C466 C465 1.360 . S
C466 C467 1.401 . S
C466 C470 1.527 . S
C467 C466 1.401 . S
C467 C468 1.405 . S
C467 C500 1.587 . S
C468 C467 1.405 . S
C468 C469 1.332 . S
C468 C471 1.496 . S
C469 C464 1.418 . S
C469 C468 1.332 . S
C469 H527 0.929 . S
C470 C466 1.527 . S
C470 H528 0.959 . S
C470 H529 0.961 . S
C470 H530 0.961 . S
C471 C468 1.496 . S
C471 H531 0.960 . S
C471 H532 0.960 . S
C471 H533 0.961 . S
C472 C473 1.517 . S
C472 H535 0.961 . S
C472 H536 0.960 . S
C472 H537 0.959 . S
C473 C472 1.517 . S
C473 O521 1.468 . S
C473 H534 0.980 . S
C474 C475 1.349 . S
C474 C479 1.367 . S
C474 O521 1.408 . S
C475 C474 1.349 . S
C475 C476 1.407 . S
C475 H538 0.930 . S
C476 C475 1.407 . S
C476 C477 1.449 . S
C476 C480 1.535 . S
C477 C476 1.449 . S
C477 C478 1.384 . S
C477 C502 1.553 . S
C478 C477 1.384 . S
C478 C479 1.364 . S
C478 C481 1.450 . S
C479 C474 1.367 . S
C479 C478 1.364 . S
C479 H539 0.931 . S
C480 C476 1.535 . S
C480 H540 0.959 . S
C480 H541 0.961 . S
C480 H542 0.959 . S
C481 C478 1.450 . S
C481 H543 0.960 . S
C481 H544 0.960 . S
C481 H545 0.960 . S
C482 C483 1.309 . S
C482 C487 1.304 . S
C482 O520 1.435 . S
C483 C482 1.309 . S
C483 C484 1.476 . S
C483 H547 0.930 . S
C484 C483 1.476 . S
C484 C485 1.400 . S
C484 C488 1.567 . S
C485 C484 1.400 . S
C485 C486 1.373 . S
C485 C507 1.432 . S
C486 C485 1.373 . S
C486 C487 1.339 . S
C486 C489 1.530 . S
C487 C482 1.304 . S
C487 C486 1.339 . S
C487 H548 0.930 . S
C488 C484 1.567 . S
C488 H549 0.961 . S
C488 H550 0.960 . S
C488 H551 0.958 . S
C489 C486 1.530 . S
C489 H552 0.961 . S
C489 H553 0.960 . S
C489 H554 0.960 . S
C490 C491 1.530 . S
C490 H556 0.961 . S
C490 H557 0.961 . S
C490 H558 0.959 . S
C491 C490 1.530 . S
C491 O519 1.412 . S
C491 H555 0.980 . S
C492 C493 1.288 . S
C492 C497 1.377 . S
C492 O519 1.393 . S
C493 C492 1.288 . S
C493 C494 1.369 . S
C493 H559 0.932 . S
C494 C493 1.369 . S
C494 C495 1.398 . S
C494 C498 1.527 . S
C495 C494 1.398 . S
C495 C496 1.380 . S
C495 C509 1.497 . S
C496 C495 1.380 . S
C496 C497 1.383 . S
C496 C499 1.603 . S
C497 C492 1.377 . S
C497 C496 1.383 . S
C497 H560 0.929 . S
C498 C494 1.527 . S
C498 H561 0.961 . S
C498 H562 0.959 . S
C498 H563 0.959 . S
C499 C496 1.603 . S
C499 H564 0.960 . S
C499 H565 0.962 . S
C499 H566 0.961 . S
C500 C467 1.587 . S
C500 C501 1.360 . S
C500 C513 1.412 . S
C501 C500 1.360 . S
C501 C502 1.365 . S
C501 H567 0.929 . S
C502 C477 1.553 . S
C502 C501 1.365 . S
C502 C503 1.404 . S
C503 C502 1.404 . S
C503 C504 1.395 . S
C503 C514 1.451 . S
C504 C503 1.395 . S
C504 C505 1.322 . S
C504 H568 0.930 . S
C505 C504 1.322 . S
C505 C506 1.459 . S
C505 H569 0.929 . S
C506 C505 1.459 . S
C506 C507 1.445 . S
C506 C515 1.395 . S
C507 C485 1.432 . S
C507 C506 1.445 . S
C507 C508 1.370 . S
C508 C507 1.370 . S
C508 C509 1.438 . S
C508 H570 0.930 . S
C509 C495 1.497 . S
C509 C508 1.438 . S
C509 C510 1.360 . S
C510 C509 1.360 . S
C510 C511 1.401 . S
C510 C515 1.446 . S
C511 C510 1.401 . S
C511 C512 1.347 . S
C511 H571 0.929 . S
C512 C511 1.347 . S
C512 C513 1.455 . S
C512 H572 0.930 . S
C513 C500 1.412 . S
C513 C512 1.455 . S
C513 C514 1.331 . S
C514 C503 1.451 . S
C514 C513 1.331 . S
C514 C515 1.497 . S
C515 C506 1.395 . S
C515 C510 1.446 . S
C515 C514 1.497 . S
C516 C517 1.582 . S
C516 H573 0.962 . S
C516 H574 0.959 . S
C516 H575 0.958 . S
C517 C516 1.582 . S
C517 O520 1.458 . S
C517 H546 0.980 . S
O518 C463 1.426 . S
O518 C464 1.334 . S
O519 C491 1.412 . S
O519 C492 1.393 . S
O520 C482 1.435 . S
O520 C517 1.458 . S
O521 C473 1.468 . S
O521 C474 1.408 . S
H522 C463 0.980 . S
H523 C462 0.959 . S
H524 C462 0.959 . S
H525 C462 0.960 . S
H526 C465 0.929 . S
H527 C469 0.929 . S
H528 C470 0.959 . S
H529 C470 0.961 . S
H530 C470 0.961 . S
H531 C471 0.960 . S
H532 C471 0.960 . S
H533 C471 0.961 . S
H534 C473 0.980 . S
H535 C472 0.961 . S
H536 C472 0.960 . S
H537 C472 0.959 . S
H538 C475 0.930 . S
H539 C479 0.931 . S
H540 C480 0.959 . S
H541 C480 0.961 . S
H542 C480 0.959 . S
H543 C481 0.960 . S
H544 C481 0.960 . S
H545 C481 0.960 . S
H546 C517 0.980 . S
H547 C483 0.930 . S
H548 C487 0.930 . S
H549 C488 0.961 . S
H550 C488 0.960 . S
H551 C488 0.958 . S
H552 C489 0.961 . S
H553 C489 0.960 . S
H554 C489 0.960 . S
H555 C491 0.980 . S
H556 C490 0.961 . S
H557 C490 0.961 . S
H558 C490 0.959 . S
H559 C493 0.932 . S
H560 C497 0.929 . S
H561 C498 0.961 . S
H562 C498 0.959 . S
H563 C498 0.959 . S
H564 C499 0.960 . S
H565 C499 0.962 . S
H566 C499 0.961 . S
H567 C501 0.929 . S
H568 C504 0.930 . S
H569 C505 0.929 . S
H570 C508 0.930 . S
H571 C511 0.929 . S
H572 C512 0.930 . S
H573 C516 0.962 . S
H574 C516 0.959 . S
H575 C516 0.958 . S
C576 C577 1.560 . S
C576 H637 0.959 . S
C576 H638 0.959 . S
C576 H639 0.960 . S
C577 C576 1.560 . S
C577 O632 1.426 . S
C577 H636 0.980 . S
C578 C579 1.407 . S
C578 C583 1.418 . S
C578 O632 1.334 . S
C579 C578 1.407 . S
C579 C580 1.360 . S
C579 H640 0.929 . S
C580 C579 1.360 . S
C580 C581 1.401 . S
C580 C584 1.527 . S
C581 C580 1.401 . S
C581 C582 1.405 . S
C581 C614 1.587 . S
C582 C581 1.405 . S
C582 C583 1.332 . S
C582 C585 1.496 . S
C583 C578 1.418 . S
C583 C582 1.332 . S
C583 H641 0.929 . S
C584 C580 1.527 . S
C584 H642 0.959 . S
C584 H643 0.961 . S
C584 H644 0.961 . S
C585 C582 1.496 . S
C585 H645 0.960 . S
C585 H646 0.960 . S
C585 H647 0.961 . S
C586 C587 1.517 . S
C586 H649 0.961 . S
C586 H650 0.960 . S
C586 H651 0.959 . S
C587 C586 1.517 . S
C587 O635 1.468 . S
C587 H648 0.980 . S
C588 C589 1.349 . S
C588 C593 1.367 . S
C588 O635 1.408 . S
C589 C588 1.349 . S
C589 C590 1.407 . S
C589 H652 0.930 . S
C590 C589 1.407 . S
C590 C591 1.449 . S
C590 C594 1.535 . S
C591 C590 1.449 . S
C591 C592 1.384 . S
C591 C616 1.553 . S
C592 C591 1.384 . S
C592 C593 1.364 . S
C592 C595 1.450 . S
C593 C588 1.367 . S
C593 C592 1.364 . S
C593 H653 0.931 . S
C594 C590 1.535 . S
C594 H654 0.959 . S
C594 H655 0.961 . S
C594 H656 0.959 . S
C595 C592 1.450 . S
C595 H657 0.960 . S
C595 H658 0.960 . S
C595 H659 0.960 . S
C596 C597 1.309 . S
C596 C601 1.304 . S
C596 O634 1.435 . S
C597 C596 1.309 . S
C597 C598 1.476 . S
C597 H661 0.930 . S
C598 C597 1.476 . S
C598 C599 1.400 . S
C598 C602 1.567 . S
C599 C598 1.400 . S
C599 C600 1.373 . S
C599 C621 1.432 . S
C600 C599 1.373 . S
C600 C601 1.339 . S
C600 C603 1.530 . S
C601 C596 1.304 . S
C601 C600 1.339 . S
C601 H662 0.930 . S
C602 C598 1.567 . S
C602 H663 0.961 . S
C602 H664 0.960 . S
C602 H665 0.958 . S
C603 C600 1.530 . S
C603 H666 0.961 . S
C603 H667 0.960 . S
C603 H668 0.960 . S
C604 C605 1.530 . S
C604 H670 0.961 . S
C604 H671 0.961 . S
C604 H672 0.959 . S
C605 C604 1.530 . S
C605 O633 1.412 . S
C605 H669 0.980 . S
C606 C607 1.288 . S
C606 C611 1.377 . S
C606 O633 1.393 . S
C607 C606 1.288 . S
C607 C608 1.369 . S
C607 H673 0.932 . S
C608 C607 1.369 . S
C608 C609 1.398 . S
C608 C612 1.527 . S
C609 C608 1.398 . S
C609 C610 1.380 . S
C609 C623 1.497 . S
C610 C609 1.380 . S
C610 C611 1.383 . S
C610 C613 1.603 . S
C611 C606 1.377 . S
C611 C610 1.383 . S
C611 H674 0.929 . S
C612 C608 1.527 . S
C612 H675 0.961 . S
C612 H676 0.959 . S
C612 H677 0.959 . S
C613 C610 1.603 . S
C613 H678 0.960 . S
C613 H679 0.962 . S
C613 H680 0.961 . S
C614 C581 1.587 . S
C614 C615 1.360 . S
C614 C627 1.412 . S
C615 C614 1.360 . S
C615 C616 1.365 . S
C615 H681 0.929 . S
C616 C591 1.553 . S
C616 C615 1.365 . S
C616 C617 1.404 . S
C617 C616 1.404 . S
C617 C618 1.395 . S
C617 C628 1.451 . S
C618 C617 1.395 . S
C618 C619 1.322 . S
C618 H682 0.930 . S
C619 C618 1.322 . S
C619 C620 1.459 . S
C619 H683 0.929 . S
C620 C619 1.459 . S
C620 C621 1.445 . S
C620 C629 1.395 . S
C621 C599 1.432 . S
C621 C620 1.445 . S
C621 C622 1.370 . S
C622 C621 1.370 . S
C622 C623 1.438 . S
C622 H684 0.930 . S
C623 C609 1.497 . S
C623 C622 1.438 . S
C623 C624 1.360 . S
C624 C623 1.360 . S
C624 C625 1.401 . S
C624 C629 1.446 . S
C625 C624 1.401 . S
C625 C626 1.347 . S
C625 H685 0.929 . S
C626 C625 1.347 . S
C626 C627 1.455 . S
C626 H686 0.930 . S
C627 C614 1.412 . S
C627 C626 1.455 . S
C627 C628 1.331 . S
C628 C617 1.451 . S
C628 C627 1.331 . S
C628 C629 1.497 . S
C629 C620 1.395 . S
C629 C624 1.446 . S
C629 C628 1.497 . S
C630 C631 1.582 . S
C630 H687 0.962 . S
C630 H688 0.959 . S
C630 H689 0.958 . S
C631 C630 1.582 . S
C631 O634 1.458 . S
C631 H660 0.980 . S
O632 C577 1.426 . S
O632 C578 1.334 . S
O633 C605 1.412 . S
O633 C606 1.393 . S
O634 C596 1.435 . S
O634 C631 1.458 . S
O635 C587 1.468 . S
O635 C588 1.408 . S
H636 C577 0.980 . S
H637 C576 0.959 . S
H638 C576 0.959 . S
H639 C576 0.960 . S
H640 C579 0.929 . S
H641 C583 0.929 . S
H642 C584 0.959 . S
H643 C584 0.961 . S
H644 C584 0.961 . S
H645 C585 0.960 . S
H646 C585 0.960 . S
H647 C585 0.961 . S
H648 C587 0.980 . S
H649 C586 0.961 . S
H650 C586 0.960 . S
H651 C586 0.959 . S
H652 C589 0.930 . S
H653 C593 0.931 . S
H654 C594 0.959 . S
H655 C594 0.961 . S
H656 C594 0.959 . S
H657 C595 0.960 . S
H658 C595 0.960 . S
H659 C595 0.960 . S
H660 C631 0.980 . S
H661 C597 0.930 . S
H662 C601 0.930 . S
H663 C602 0.961 . S
H664 C602 0.960 . S
H665 C602 0.958 . S
H666 C603 0.961 . S
H667 C603 0.960 . S
H668 C603 0.960 . S
H669 C605 0.980 . S
H670 C604 0.961 . S
H671 C604 0.961 . S
H672 C604 0.959 . S
H673 C607 0.932 . S
H674 C611 0.929 . S
H675 C612 0.961 . S
H676 C612 0.959 . S
H677 C612 0.959 . S
H678 C613 0.960 . S
H679 C613 0.962 . S
H680 C613 0.961 . S
H681 C615 0.929 . S
H682 C618 0.930 . S
H683 C619 0.929 . S
H684 C622 0.930 . S
H685 C625 0.929 . S
H686 C626 0.930 . S
H687 C630 0.962 . S
H688 C630 0.959 . S
H689 C630 0.958 . S
C690 C691 1.560 . S
C690 H751 0.959 . S
C690 H752 0.959 . S
C690 H753 0.960 . S
C691 C690 1.560 . S
C691 O746 1.426 . S
C691 H750 0.980 . S
C692 C693 1.407 . S
C692 C697 1.418 . S
C692 O746 1.334 . S
C693 C692 1.407 . S
C693 C694 1.360 . S
C693 H754 0.929 . S
C694 C693 1.360 . S
C694 C695 1.401 . S
C694 C698 1.527 . S
C695 C694 1.401 . S
C695 C696 1.405 . S
C695 C728 1.587 . S
C696 C695 1.405 . S
C696 C697 1.332 . S
C696 C699 1.496 . S
C697 C692 1.418 . S
C697 C696 1.332 . S
C697 H755 0.929 . S
C698 C694 1.527 . S
C698 H756 0.959 . S
C698 H757 0.961 . S
C698 H758 0.961 . S
C699 C696 1.496 . S
C699 H759 0.960 . S
C699 H760 0.960 . S
C699 H761 0.961 . S
C700 C701 1.517 . S
C700 H763 0.961 . S
C700 H764 0.960 . S
C700 H765 0.959 . S
C701 C700 1.517 . S
C701 O749 1.468 . S
C701 H762 0.980 . S
C702 C703 1.349 . S
C702 C707 1.367 . S
C702 O749 1.408 . S
C703 C702 1.349 . S
C703 C704 1.407 . S
C703 H766 0.930 . S
C704 C703 1.407 . S
C704 C705 1.449 . S
C704 C708 1.535 . S
C705 C704 1.449 . S
C705 C706 1.384 . S
C705 C730 1.553 . S
C706 C705 1.384 . S
C706 C707 1.364 . S
C706 C709 1.450 . S
C707 C702 1.367 . S
C707 C706 1.364 . S
C707 H767 0.931 . S
C708 C704 1.535 . S
C708 H768 0.959 . S
C708 H769 0.961 . S
C708 H770 0.959 . S
C709 C706 1.450 . S
C709 H771 0.960 . S
C709 H772 0.960 . S
C709 H773 0.960 . S
C710 C711 1.309 . S
C710 C715 1.304 . S
C710 O748 1.435 . S
C711 C710 1.309 . S
C711 C712 1.476 . S
C711 H775 0.930 . S
C712 C711 1.476 . S
C712 C713 1.400 . S
C712 C716 1.567 . S
C713 C712 1.400 . S
C713 C714 1.373 . S
C713 C735 1.432 . S
C714 C713 1.373 . S
C714 C715 1.339 . S
C714 C717 1.530 . S
C715 C710 1.304 . S
C715 C714 1.339 . S
C715 H776 0.930 . S
C716 C712 1.567 . S
C716 H777 0.961 . S
C716 H778 0.960 . S
C716 H779 0.958 . S
C717 C714 1.530 . S
C717 H780 0.961 . S
C717 H781 0.960 . S
C717 H782 0.960 . S
C718 C719 1.530 . S
C718 H784 0.961 . S
C718 H785 0.961 . S
C718 H786 0.959 . S
C719 C718 1.530 . S
C719 O747 1.412 . S
C719 H783 0.980 . S
C720 C721 1.288 . S
C720 C725 1.377 . S
C720 O747 1.393 . S
C721 C720 1.288 . S
C721 C722 1.369 . S
C721 H787 0.932 . S
C722 C721 1.369 . S
C722 C723 1.398 . S
C722 C726 1.527 . S
C723 C722 1.398 . S
C723 C724 1.380 . S
C723 C737 1.497 . S
C724 C723 1.380 . S
C724 C725 1.383 . S
C724 C727 1.603 . S
C725 C720 1.377 . S
C725 C724 1.383 . S
C725 H788 0.929 . S
C726 C722 1.527 . S
C726 H789 0.961 . S
C726 H790 0.959 . S
C726 H791 0.959 . S
C727 C724 1.603 . S
C727 H792 0.960 . S
C727 H793 0.962 . S
C727 H794 0.961 . S
C728 C695 1.587 . S
C728 C729 1.360 . S
C728 C741 1.412 . S
C729 C728 1.360 . S
C729 C730 1.365 . S
C729 H795 0.929 . S
C730 C705 1.553 . S
C730 C729 1.365 . S
C730 C731 1.404 . S
C731 C730 1.404 . S
C731 C732 1.395 . S
C731 C742 1.451 . S
C732 C731 1.395 . S
C732 C733 1.322 . S
C732 H796 0.930 . S
C733 C732 1.322 . S
C733 C734 1.459 . S
C733 H797 0.929 . S
C734 C733 1.459 . S
C734 C735 1.445 . S
C734 C743 1.395 . S
C735 C713 1.432 . S
C735 C734 1.445 . S
C735 C736 1.370 . S
C736 C735 1.370 . S
C736 C737 1.438 . S
C736 H798 0.930 . S
C737 C723 1.497 . S
C737 C736 1.438 . S
C737 C738 1.360 . S
C738 C737 1.360 . S
C738 C739 1.401 . S
C738 C743 1.446 . S
C739 C738 1.401 . S
C739 C740 1.347 . S
C739 H799 0.929 . S
C740 C739 1.347 . S
C740 C741 1.455 . S
C740 H800 0.930 . S
C741 C728 1.412 . S
C741 C740 1.455 . S
C741 C742 1.331 . S
C742 C731 1.451 . S
C742 C741 1.331 . S
C742 C743 1.497 . S
C743 C734 1.395 . S
C743 C738 1.446 . S
C743 C742 1.497 . S
C744 C745 1.582 . S
C744 H801 0.962 . S
C744 H802 0.959 . S
C744 H803 0.958 . S
C745 C744 1.582 . S
C745 O748 1.458 . S
C745 H774 0.980 . S
O746 C691 1.426 . S
O746 C692 1.334 . S
O747 C719 1.412 . S
O747 C720 1.393 . S
O748 C710 1.435 . S
O748 C745 1.458 . S
O749 C701 1.468 . S
O749 C702 1.408 . S
H750 C691 0.980 . S
H751 C690 0.959 . S
H752 C690 0.959 . S
H753 C690 0.960 . S
H754 C693 0.929 . S
H755 C697 0.929 . S
H756 C698 0.959 . S
H757 C698 0.961 . S
H758 C698 0.961 . S
H759 C699 0.960 . S
H760 C699 0.960 . S
H761 C699 0.961 . S
H762 C701 0.980 . S
H763 C700 0.961 . S
H764 C700 0.960 . S
H765 C700 0.959 . S
H766 C703 0.930 . S
H767 C707 0.931 . S
H768 C708 0.959 . S
H769 C708 0.961 . S
H770 C708 0.959 . S
H771 C709 0.960 . S
H772 C709 0.960 . S
H773 C709 0.960 . S
H774 C745 0.980 . S
H775 C711 0.930 . S
H776 C715 0.930 . S
H777 C716 0.961 . S
H778 C716 0.960 . S
H779 C716 0.958 . S
H780 C717 0.961 . S
H781 C717 0.960 . S
H782 C717 0.960 . S
H783 C719 0.980 . S
H784 C718 0.961 . S
H785 C718 0.961 . S
H786 C718 0.959 . S
H787 C721 0.932 . S
H788 C725 0.929 . S
H789 C726 0.961 . S
H790 C726 0.959 . S
H791 C726 0.959 . S
H792 C727 0.960 . S
H793 C727 0.962 . S
H794 C727 0.961 . S
H795 C729 0.929 . S
H796 C732 0.930 . S
H797 C733 0.929 . S
H798 C736 0.930 . S
H799 C739 0.929 . S
H800 C740 0.930 . S
H801 C744 0.962 . S
H802 C744 0.959 . S
H803 C744 0.958 . S
C804 C805 1.560 . S
C804 H865 0.959 . S
C804 H866 0.959 . S
C804 H867 0.960 . S
C805 C804 1.560 . S
C805 O860 1.426 . S
C805 H864 0.980 . S
C806 C807 1.407 . S
C806 C811 1.418 . S
C806 O860 1.334 . S
C807 C806 1.407 . S
C807 C808 1.360 . S
C807 H868 0.929 . S
C808 C807 1.360 . S
C808 C809 1.401 . S
C808 C812 1.527 . S
C809 C808 1.401 . S
C809 C810 1.405 . S
C809 C842 1.587 . S
C810 C809 1.405 . S
C810 C811 1.332 . S
C810 C813 1.496 . S
C811 C806 1.418 . S
C811 C810 1.332 . S
C811 H869 0.929 . S
C812 C808 1.527 . S
C812 H870 0.959 . S
C812 H871 0.961 . S
C812 H872 0.961 . S
C813 C810 1.496 . S
C813 H873 0.960 . S
C813 H874 0.960 . S
C813 H875 0.961 . S
C814 C815 1.517 . S
C814 H877 0.961 . S
C814 H878 0.960 . S
C814 H879 0.959 . S
C815 C814 1.517 . S
C815 O863 1.468 . S
C815 H876 0.980 . S
C816 C817 1.349 . S
C816 C821 1.367 . S
C816 O863 1.408 . S
C817 C816 1.349 . S
C817 C818 1.407 . S
C817 H880 0.930 . S
C818 C817 1.407 . S
C818 C819 1.449 . S
C818 C822 1.535 . S
C819 C818 1.449 . S
C819 C820 1.384 . S
C819 C844 1.553 . S
C820 C819 1.384 . S
C820 C821 1.364 . S
C820 C823 1.450 . S
C821 C816 1.367 . S
C821 C820 1.364 . S
C821 H881 0.931 . S
C822 C818 1.535 . S
C822 H882 0.959 . S
C822 H883 0.961 . S
C822 H884 0.959 . S
C823 C820 1.450 . S
C823 H885 0.960 . S
C823 H886 0.960 . S
C823 H887 0.960 . S
C824 C825 1.309 . S
C824 C829 1.304 . S
C824 O862 1.435 . S
C825 C824 1.309 . S
C825 C826 1.476 . S
C825 H889 0.930 . S
C826 C825 1.476 . S
C826 C827 1.400 . S
C826 C830 1.567 . S
C827 C826 1.400 . S
C827 C828 1.373 . S
C827 C849 1.432 . S
C828 C827 1.373 . S
C828 C829 1.339 . S
C828 C831 1.530 . S
C829 C824 1.304 . S
C829 C828 1.339 . S
C829 H890 0.930 . S
C830 C826 1.567 . S
C830 H891 0.961 . S
C830 H892 0.960 . S
C830 H893 0.958 . S
C831 C828 1.530 . S
C831 H894 0.961 . S
C831 H895 0.960 . S
C831 H896 0.960 . S
C832 C833 1.530 . S
C832 H898 0.961 . S
C832 H899 0.961 . S
C832 H900 0.959 . S
C833 C832 1.530 . S
C833 O861 1.412 . S
C833 H897 0.980 . S
C834 C835 1.288 . S
C834 C839 1.377 . S
C834 O861 1.393 . S
C835 C834 1.288 . S
C835 C836 1.369 . S
C835 H901 0.932 . S
C836 C835 1.369 . S
C836 C837 1.398 . S
C836 C840 1.527 . S
C837 C836 1.398 . S
C837 C838 1.380 . S
C837 C851 1.497 . S
C838 C837 1.380 . S
C838 C839 1.383 . S
C838 C841 1.603 . S
C839 C834 1.377 . S
C839 C838 1.383 . S
C839 H902 0.929 . S
C840 C836 1.527 . S
C840 H903 0.961 . S
C840 H904 0.959 . S
C840 H905 0.959 . S
C841 C838 1.603 . S
C841 H906 0.960 . S
C841 H907 0.962 . S
C841 H908 0.961 . S
C842 C809 1.587 . S
C842 C843 1.360 . S
C842 C855 1.412 . S
C843 C842 1.360 . S
C843 C844 1.365 . S
C843 H909 0.929 . S
C844 C819 1.553 . S
C844 C843 1.365 . S
C844 C845 1.404 . S
C845 C844 1.404 . S
C845 C846 1.395 . S
C845 C856 1.451 . S
C846 C845 1.395 . S
C846 C847 1.322 . S
C846 H910 0.930 . S
C847 C846 1.322 . S
C847 C848 1.459 . S
C847 H911 0.929 . S
C848 C847 1.459 . S
C848 C849 1.445 . S
C848 C857 1.395 . S
C849 C827 1.432 . S
C849 C848 1.445 . S
C849 C850 1.370 . S
C850 C849 1.370 . S
C850 C851 1.438 . S
C850 H912 0.930 . S
C851 C837 1.497 . S
C851 C850 1.438 . S
C851 C852 1.360 . S
C852 C851 1.360 . S
C852 C853 1.401 . S
C852 C857 1.446 . S
C853 C852 1.401 . S
C853 C854 1.347 . S
C853 H913 0.929 . S
C854 C853 1.347 . S
C854 C855 1.455 . S
C854 H914 0.930 . S
C855 C842 1.412 . S
C855 C854 1.455 . S
C855 C856 1.331 . S
C856 C845 1.451 . S
C856 C855 1.331 . S
C856 C857 1.497 . S
C857 C848 1.395 . S
C857 C852 1.446 . S
C857 C856 1.497 . S
C858 C859 1.582 . S
C858 H915 0.962 . S
C858 H916 0.959 . S
C858 H917 0.958 . S
C859 C858 1.582 . S
C859 O862 1.458 . S
C859 H888 0.980 . S
O860 C805 1.426 . S
O860 C806 1.334 . S
O861 C833 1.412 . S
O861 C834 1.393 . S
O862 C824 1.435 . S
O862 C859 1.458 . S
O863 C815 1.468 . S
O863 C816 1.408 . S
H864 C805 0.980 . S
H865 C804 0.959 . S
H866 C804 0.959 . S
H867 C804 0.960 . S
H868 C807 0.929 . S
H869 C811 0.929 . S
H870 C812 0.959 . S
H871 C812 0.961 . S
H872 C812 0.961 . S
H873 C813 0.960 . S
H874 C813 0.960 . S
H875 C813 0.961 . S
H876 C815 0.980 . S
H877 C814 0.961 . S
H878 C814 0.960 . S
H879 C814 0.959 . S
H880 C817 0.930 . S
H881 C821 0.931 . S
H882 C822 0.959 . S
H883 C822 0.961 . S
H884 C822 0.959 . S
H885 C823 0.960 . S
H886 C823 0.960 . S
H887 C823 0.960 . S
H888 C859 0.980 . S
H889 C825 0.930 . S
H890 C829 0.930 . S
H891 C830 0.961 . S
H892 C830 0.960 . S
H893 C830 0.958 . S
H894 C831 0.961 . S
H895 C831 0.960 . S
H896 C831 0.960 . S
H897 C833 0.980 . S
H898 C832 0.961 . S
H899 C832 0.961 . S
H900 C832 0.959 . S
H901 C835 0.932 . S
H902 C839 0.929 . S
H903 C840 0.961 . S
H904 C840 0.959 . S
H905 C840 0.959 . S
H906 C841 0.960 . S
H907 C841 0.962 . S
H908 C841 0.961 . S
H909 C843 0.929 . S
H910 C846 0.930 . S
H911 C847 0.929 . S
H912 C850 0.930 . S
H913 C853 0.929 . S
H914 C854 0.930 . S
H915 C858 0.962 . S
H916 C858 0.959 . S
H917 C858 0.958 . S
C918 C919 1.560 . S
C918 H979 0.959 . S
C918 H980 0.959 . S
C918 H981 0.960 . S
C919 C918 1.560 . S
C919 O974 1.426 . S
C919 H978 0.980 . S
C920 C921 1.407 . S
C920 C925 1.418 . S
C920 O974 1.334 . S
C921 C920 1.407 . S
C921 C922 1.360 . S
C921 H982 0.929 . S
C922 C921 1.360 . S
C922 C923 1.401 . S
C922 C926 1.527 . S
C923 C922 1.401 . S
C923 C924 1.405 . S
C923 C956 1.587 . S
C924 C923 1.405 . S
C924 C925 1.332 . S
C924 C927 1.496 . S
C925 C920 1.418 . S
C925 C924 1.332 . S
C925 H983 0.929 . S
C926 C922 1.527 . S
C926 H984 0.959 . S
C926 H985 0.961 . S
C926 H986 0.961 . S
C927 C924 1.496 . S
C927 H987 0.960 . S
C927 H988 0.960 . S
C927 H989 0.961 . S
C928 C929 1.517 . S
C928 H991 0.961 . S
C928 H992 0.960 . S
C928 H993 0.959 . S
C929 C928 1.517 . S
C929 O977 1.468 . S
C929 H990 0.980 . S
C930 C931 1.349 . S
C930 C935 1.367 . S
C930 O977 1.408 . S
C931 C930 1.349 . S
C931 C932 1.407 . S
C931 H994 0.930 . S
C932 C931 1.407 . S
C932 C933 1.449 . S
C932 C936 1.535 . S
C933 C932 1.449 . S
C933 C934 1.384 . S
C933 C958 1.553 . S
C934 C933 1.384 . S
C934 C935 1.364 . S
C934 C937 1.450 . S
C935 C930 1.367 . S
C935 C934 1.364 . S
C935 H995 0.931 . S
C936 C932 1.535 . S
C936 H996 0.959 . S
C936 H997 0.961 . S
C936 H998 0.959 . S
C937 C934 1.450 . S
C937 H999 0.960 . S
C937 H1000 0.960 . S
C937 H1001 0.960 . S
C938 C939 1.309 . S
C938 C943 1.304 . S
C938 O976 1.435 . S
C939 C938 1.309 . S
C939 C940 1.476 . S
C939 H1003 0.930 . S
C940 C939 1.476 . S
C940 C941 1.400 . S
C940 C944 1.567 . S
C941 C940 1.400 . S
C941 C942 1.373 . S
C941 C963 1.432 . S
C942 C941 1.373 . S
C942 C943 1.339 . S
C942 C945 1.530 . S
C943 C938 1.304 . S
C943 C942 1.339 . S
C943 H1004 0.930 . S
C944 C940 1.567 . S
C944 H1005 0.961 . S
C944 H1006 0.960 . S
C944 H1007 0.958 . S
C945 C942 1.530 . S
C945 H1008 0.961 . S
C945 H1009 0.960 . S
C945 H1010 0.960 . S
C946 C947 1.530 . S
C946 H1012 0.961 . S
C946 H1013 0.961 . S
C946 H1014 0.959 . S
C947 C946 1.530 . S
C947 O975 1.412 . S
C947 H1011 0.980 . S
C948 C949 1.288 . S
C948 C953 1.377 . S
C948 O975 1.393 . S
C949 C948 1.288 . S
C949 C950 1.369 . S
C949 H1015 0.932 . S
C950 C949 1.369 . S
C950 C951 1.398 . S
C950 C954 1.527 . S
C951 C950 1.398 . S
C951 C952 1.380 . S
C951 C965 1.497 . S
C952 C951 1.380 . S
C952 C953 1.383 . S
C952 C955 1.603 . S
C953 C948 1.377 . S
C953 C952 1.383 . S
C953 H1016 0.929 . S
C954 C950 1.527 . S
C954 H1017 0.961 . S
C954 H1018 0.959 . S
C954 H1019 0.959 . S
C955 C952 1.603 . S
C955 H1020 0.960 . S
C955 H1021 0.962 . S
C955 H1022 0.961 . S
C956 C923 1.587 . S
C956 C957 1.360 . S
C956 C969 1.412 . S
C957 C956 1.360 . S
C957 C958 1.365 . S
C957 H1023 0.929 . S
C958 C933 1.553 . S
C958 C957 1.365 . S
C958 C959 1.404 . S
C959 C958 1.404 . S
C959 C960 1.395 . S
C959 C970 1.451 . S
C960 C959 1.395 . S
C960 C961 1.322 . S
C960 H1024 0.930 . S
C961 C960 1.322 . S
C961 C962 1.459 . S
C961 H1025 0.929 . S
C962 C961 1.459 . S
C962 C963 1.445 . S
C962 C971 1.395 . S
C963 C941 1.432 . S
C963 C962 1.445 . S
C963 C964 1.370 . S
C964 C963 1.370 . S
C964 C965 1.438 . S
C964 H1026 0.930 . S
C965 C951 1.497 . S
C965 C964 1.438 . S
C965 C966 1.360 . S
C966 C965 1.360 . S
C966 C967 1.401 . S
C966 C971 1.446 . S
C967 C966 1.401 . S
C967 C968 1.347 . S
C967 H1027 0.929 . S
C968 C967 1.347 . S
C968 C969 1.455 . S
C968 H1028 0.930 . S
C969 C956 1.412 . S
C969 C968 1.455 . S
C969 C970 1.331 . S
C970 C959 1.451 . S
C970 C969 1.331 . S
C970 C971 1.497 . S
C971 C962 1.395 . S
C971 C966 1.446 . S
C971 C970 1.497 . S
C972 C973 1.582 . S
C972 H1029 0.962 . S
C972 H1030 0.959 . S
C972 H1031 0.958 . S
C973 C972 1.582 . S
C973 O976 1.458 . S
C973 H1002 0.980 . S
O974 C919 1.426 . S
O974 C920 1.334 . S
O975 C947 1.412 . S
O975 C948 1.393 . S
O976 C938 1.435 . S
O976 C973 1.458 . S
O977 C929 1.468 . S
O977 C930 1.408 . S
H978 C919 0.980 . S
H979 C918 0.959 . S
H980 C918 0.959 . S
H981 C918 0.960 . S
H982 C921 0.929 . S
H983 C925 0.929 . S
H984 C926 0.959 . S
H985 C926 0.961 . S
H986 C926 0.961 . S
H987 C927 0.960 . S
H988 C927 0.960 . S
H989 C927 0.961 . S
H990 C929 0.980 . S
H991 C928 0.961 . S
H992 C928 0.960 . S
H993 C928 0.959 . S
H994 C931 0.930 . S
H995 C935 0.931 . S
H996 C936 0.959 . S
H997 C936 0.961 . S
H998 C936 0.959 . S
H999 C937 0.960 . S
H1000 C937 0.960 . S
H1001 C937 0.960 . S
H1002 C973 0.980 . S
H1003 C939 0.930 . S
H1004 C943 0.930 . S
H1005 C944 0.961 . S
H1006 C944 0.960 . S
H1007 C944 0.958 . S
H1008 C945 0.961 . S
H1009 C945 0.960 . S
H1010 C945 0.960 . S
H1011 C947 0.980 . S
H1012 C946 0.961 . S
H1013 C946 0.961 . S
H1014 C946 0.959 . S
H1015 C949 0.932 . S
H1016 C953 0.929 . S
H1017 C954 0.961 . S
H1018 C954 0.959 . S
H1019 C954 0.959 . S
H1020 C955 0.960 . S
H1021 C955 0.962 . S
H1022 C955 0.961 . S
H1023 C957 0.929 . S
H1024 C960 0.930 . S
H1025 C961 0.929 . S
H1026 C964 0.930 . S
H1027 C967 0.929 . S
H1028 C968 0.930 . S
H1029 C972 0.962 . S
H1030 C972 0.959 . S
H1031 C972 0.958 . S
C1032 C1033 1.560 . S
C1032 H1093 0.959 . S
C1032 H1094 0.959 . S
C1032 H1095 0.960 . S
C1033 C1032 1.560 . S
C1033 O1088 1.426 . S
C1033 H1092 0.980 . S
C1034 C1035 1.407 . S
C1034 C1039 1.418 . S
C1034 O1088 1.334 . S
C1035 C1034 1.407 . S
C1035 C1036 1.360 . S
C1035 H1096 0.929 . S
C1036 C1035 1.360 . S
C1036 C1037 1.401 . S
C1036 C1040 1.527 . S
C1037 C1036 1.401 . S
C1037 C1038 1.405 . S
C1037 C1070 1.587 . S
C1038 C1037 1.405 . S
C1038 C1039 1.332 . S
C1038 C1041 1.496 . S
C1039 C1034 1.418 . S
C1039 C1038 1.332 . S
C1039 H1097 0.929 . S
C1040 C1036 1.527 . S
C1040 H1098 0.959 . S
C1040 H1099 0.961 . S
C1040 H1100 0.961 . S
C1041 C1038 1.496 . S
C1041 H1101 0.960 . S
C1041 H1102 0.960 . S
C1041 H1103 0.961 . S
C1042 C1043 1.517 . S
C1042 H1105 0.961 . S
C1042 H1106 0.960 . S
C1042 H1107 0.959 . S
C1043 C1042 1.517 . S
C1043 O1091 1.468 . S
C1043 H1104 0.980 . S
C1044 C1045 1.349 . S
C1044 C1049 1.367 . S
C1044 O1091 1.408 . S
C1045 C1044 1.349 . S
C1045 C1046 1.407 . S
C1045 H1108 0.930 . S
C1046 C1045 1.407 . S
C1046 C1047 1.449 . S
C1046 C1050 1.535 . S
C1047 C1046 1.449 . S
C1047 C1048 1.384 . S
C1047 C1072 1.553 . S
C1048 C1047 1.384 . S
C1048 C1049 1.364 . S
C1048 C1051 1.450 . S
C1049 C1044 1.367 . S
C1049 C1048 1.364 . S
C1049 H1109 0.931 . S
C1050 C1046 1.535 . S
C1050 H1110 0.959 . S
C1050 H1111 0.961 . S
C1050 H1112 0.959 . S
C1051 C1048 1.450 . S
C1051 H1113 0.960 . S
C1051 H1114 0.960 . S
C1051 H1115 0.960 . S
C1052 C1053 1.309 . S
C1052 C1057 1.304 . S
C1052 O1090 1.435 . S
C1053 C1052 1.309 . S
C1053 C1054 1.476 . S
C1053 H1117 0.930 . S
C1054 C1053 1.476 . S
C1054 C1055 1.400 . S
C1054 C1058 1.567 . S
C1055 C1054 1.400 . S
C1055 C1056 1.373 . S
C1055 C1077 1.432 . S
C1056 C1055 1.373 . S
C1056 C1057 1.339 . S
C1056 C1059 1.530 . S
C1057 C1052 1.304 . S
C1057 C1056 1.339 . S
C1057 H1118 0.930 . S
C1058 C1054 1.567 . S
C1058 H1119 0.961 . S
C1058 H1120 0.960 . S
C1058 H1121 0.958 . S
C1059 C1056 1.530 . S
C1059 H1122 0.961 . S
C1059 H1123 0.960 . S
C1059 H1124 0.960 . S
C1060 C1061 1.530 . S
C1060 H1126 0.961 . S
C1060 H1127 0.961 . S
C1060 H1128 0.959 . S
C1061 C1060 1.530 . S
C1061 O1089 1.412 . S
C1061 H1125 0.980 . S
C1062 C1063 1.288 . S
C1062 C1067 1.377 . S
C1062 O1089 1.393 . S
C1063 C1062 1.288 . S
C1063 C1064 1.369 . S
C1063 H1129 0.932 . S
C1064 C1063 1.369 . S
C1064 C1065 1.398 . S
C1064 C1068 1.527 . S
C1065 C1064 1.398 . S
C1065 C1066 1.380 . S
C1065 C1079 1.497 . S
C1066 C1065 1.380 . S
C1066 C1067 1.383 . S
C1066 C1069 1.603 . S
C1067 C1062 1.377 . S
C1067 C1066 1.383 . S
C1067 H1130 0.929 . S
C1068 C1064 1.527 . S
C1068 H1131 0.961 . S
C1068 H1132 0.959 . S
C1068 H1133 0.959 . S
C1069 C1066 1.603 . S
C1069 H1134 0.960 . S
C1069 H1135 0.962 . S
C1069 H1136 0.961 . S
C1070 C1037 1.587 . S
C1070 C1071 1.360 . S
C1070 C1083 1.412 . S
C1071 C1070 1.360 . S
C1071 C1072 1.365 . S
C1071 H1137 0.929 . S
C1072 C1047 1.553 . S
C1072 C1071 1.365 . S
C1072 C1073 1.404 . S
C1073 C1072 1.404 . S
C1073 C1074 1.395 . S
C1073 C1084 1.451 . S
C1074 C1073 1.395 . S
C1074 C1075 1.322 . S
C1074 H1138 0.930 . S
C1075 C1074 1.322 . S
C1075 C1076 1.459 . S
C1075 H1139 0.929 . S
C1076 C1075 1.459 . S
C1076 C1077 1.445 . S
C1076 C1085 1.395 . S
C1077 C1055 1.432 . S
C1077 C1076 1.445 . S
C1077 C1078 1.370 . S
C1078 C1077 1.370 . S
C1078 C1079 1.438 . S
C1078 H1140 0.930 . S
C1079 C1065 1.497 . S
C1079 C1078 1.438 . S
C1079 C1080 1.360 . S
C1080 C1079 1.360 . S
C1080 C1081 1.401 . S
C1080 C1085 1.446 . S
C1081 C1080 1.401 . S
C1081 C1082 1.347 . S
C1081 H1141 0.929 . S
C1082 C1081 1.347 . S
C1082 C1083 1.455 . S
C1082 H1142 0.930 . S
C1083 C1070 1.412 . S
C1083 C1082 1.455 . S
C1083 C1084 1.331 . S
C1084 C1073 1.451 . S
C1084 C1083 1.331 . S
C1084 C1085 1.497 . S
C1085 C1076 1.395 . S
C1085 C1080 1.446 . S
C1085 C1084 1.497 . S
C1086 C1087 1.582 . S
C1086 H1143 0.962 . S
C1086 H1144 0.959 . S
C1086 H1145 0.958 . S
C1087 C1086 1.582 . S
C1087 O1090 1.458 . S
C1087 H1116 0.980 . S
O1088 C1033 1.426 . S
O1088 C1034 1.334 . S
O1089 C1061 1.412 . S
O1089 C1062 1.393 . S
O1090 C1052 1.435 . S
O1090 C1087 1.458 . S
O1091 C1043 1.468 . S
O1091 C1044 1.408 . S
H1092 C1033 0.980 . S
H1093 C1032 0.959 . S
H1094 C1032 0.959 . S
H1095 C1032 0.960 . S
H1096 C1035 0.929 . S
H1097 C1039 0.929 . S
H1098 C1040 0.959 . S
H1099 C1040 0.961 . S
H1100 C1040 0.961 . S
H1101 C1041 0.960 . S
H1102 C1041 0.960 . S
H1103 C1041 0.961 . S
H1104 C1043 0.980 . S
H1105 C1042 0.961 . S
H1106 C1042 0.960 . S
H1107 C1042 0.959 . S
H1108 C1045 0.930 . S
H1109 C1049 0.931 . S
H1110 C1050 0.959 . S
H1111 C1050 0.961 . S
H1112 C1050 0.959 . S
H1113 C1051 0.960 . S
H1114 C1051 0.960 . S
H1115 C1051 0.960 . S
H1116 C1087 0.980 . S
H1117 C1053 0.930 . S
H1118 C1057 0.930 . S
H1119 C1058 0.961 . S
H1120 C1058 0.960 . S
H1121 C1058 0.958 . S
H1122 C1059 0.961 . S
H1123 C1059 0.960 . S
H1124 C1059 0.960 . S
H1125 C1061 0.980 . S
H1126 C1060 0.961 . S
H1127 C1060 0.961 . S
H1128 C1060 0.959 . S
H1129 C1063 0.932 . S
H1130 C1067 0.929 . S
H1131 C1068 0.961 . S
H1132 C1068 0.959 . S
H1133 C1068 0.959 . S
H1134 C1069 0.960 . S
H1135 C1069 0.962 . S
H1136 C1069 0.961 . S
H1137 C1071 0.929 . S
H1138 C1074 0.930 . S
H1139 C1075 0.929 . S
H1140 C1078 0.930 . S
H1141 C1081 0.929 . S
H1142 C1082 0.930 . S
H1143 C1086 0.962 . S
H1144 C1086 0.959 . S
H1145 C1086 0.958 . S
C1146 C1147 1.560 . S
C1146 H1207 0.959 . S
C1146 H1208 0.959 . S
C1146 H1209 0.960 . S
C1147 C1146 1.560 . S
C1147 O1202 1.426 . S
C1147 H1206 0.980 . S
C1148 C1149 1.407 . S
C1148 C1153 1.418 . S
C1148 O1202 1.334 . S
C1149 C1148 1.407 . S
C1149 C1150 1.360 . S
C1149 H1210 0.929 . S
C1150 C1149 1.360 . S
C1150 C1151 1.401 . S
C1150 C1154 1.527 . S
C1151 C1150 1.401 . S
C1151 C1152 1.405 . S
C1151 C1184 1.587 . S
C1152 C1151 1.405 . S
C1152 C1153 1.332 . S
C1152 C1155 1.496 . S
C1153 C1148 1.418 . S
C1153 C1152 1.332 . S
C1153 H1211 0.929 . S
C1154 C1150 1.527 . S
C1154 H1212 0.959 . S
C1154 H1213 0.961 . S
C1154 H1214 0.961 . S
C1155 C1152 1.496 . S
C1155 H1215 0.960 . S
C1155 H1216 0.960 . S
C1155 H1217 0.961 . S
C1156 C1157 1.517 . S
C1156 H1219 0.961 . S
C1156 H1220 0.960 . S
C1156 H1221 0.959 . S
C1157 C1156 1.517 . S
C1157 O1205 1.468 . S
C1157 H1218 0.980 . S
C1158 C1159 1.349 . S
C1158 C1163 1.367 . S
C1158 O1205 1.408 . S
C1159 C1158 1.349 . S
C1159 C1160 1.407 . S
C1159 H1222 0.930 . S
C1160 C1159 1.407 . S
C1160 C1161 1.449 . S
C1160 C1164 1.535 . S
C1161 C1160 1.449 . S
C1161 C1162 1.384 . S
C1161 C1186 1.553 . S
C1162 C1161 1.384 . S
C1162 C1163 1.364 . S
C1162 C1165 1.450 . S
C1163 C1158 1.367 . S
C1163 C1162 1.364 . S
C1163 H1223 0.931 . S
C1164 C1160 1.535 . S
C1164 H1224 0.959 . S
C1164 H1225 0.961 . S
C1164 H1226 0.959 . S
C1165 C1162 1.450 . S
C1165 H1227 0.960 . S
C1165 H1228 0.960 . S
C1165 H1229 0.960 . S
C1166 C1167 1.309 . S
C1166 C1171 1.304 . S
C1166 O1204 1.435 . S
C1167 C1166 1.309 . S
C1167 C1168 1.476 . S
C1167 H1231 0.930 . S
C1168 C1167 1.476 . S
C1168 C1169 1.400 . S
C1168 C1172 1.567 . S
C1169 C1168 1.400 . S
C1169 C1170 1.373 . S
C1169 C1191 1.432 . S
C1170 C1169 1.373 . S
C1170 C1171 1.339 . S
C1170 C1173 1.530 . S
C1171 C1166 1.304 . S
C1171 C1170 1.339 . S
C1171 H1232 0.930 . S
C1172 C1168 1.567 . S
C1172 H1233 0.961 . S
C1172 H1234 0.960 . S
C1172 H1235 0.958 . S
C1173 C1170 1.530 . S
C1173 H1236 0.961 . S
C1173 H1237 0.960 . S
C1173 H1238 0.960 . S
C1174 C1175 1.530 . S
C1174 H1240 0.961 . S
C1174 H1241 0.961 . S
C1174 H1242 0.959 . S
C1175 C1174 1.530 . S
C1175 O1203 1.412 . S
C1175 H1239 0.980 . S
C1176 C1177 1.288 . S
C1176 C1181 1.377 . S
C1176 O1203 1.393 . S
C1177 C1176 1.288 . S
C1177 C1178 1.369 . S
C1177 H1243 0.932 . S
C1178 C1177 1.369 . S
C1178 C1179 1.398 . S
C1178 C1182 1.527 . S
C1179 C1178 1.398 . S
C1179 C1180 1.380 . S
C1179 C1193 1.497 . S
C1180 C1179 1.380 . S
C1180 C1181 1.383 . S
C1180 C1183 1.603 . S
C1181 C1176 1.377 . S
C1181 C1180 1.383 . S
C1181 H1244 0.929 . S
C1182 C1178 1.527 . S
C1182 H1245 0.961 . S
C1182 H1246 0.959 . S
C1182 H1247 0.959 . S
C1183 C1180 1.603 . S
C1183 H1248 0.960 . S
C1183 H1249 0.962 . S
C1183 H1250 0.961 . S
C1184 C1151 1.587 . S
C1184 C1185 1.360 . S
C1184 C1197 1.412 . S
C1185 C1184 1.360 . S
C1185 C1186 1.365 . S
C1185 H1251 0.929 . S
C1186 C1161 1.553 . S
C1186 C1185 1.365 . S
C1186 C1187 1.404 . S
C1187 C1186 1.404 . S
C1187 C1188 1.395 . S
C1187 C1198 1.451 . S
C1188 C1187 1.395 . S
C1188 C1189 1.322 . S
C1188 H1252 0.930 . S
C1189 C1188 1.322 . S
C1189 C1190 1.459 . S
C1189 H1253 0.929 . S
C1190 C1189 1.459 . S
C1190 C1191 1.445 . S
C1190 C1199 1.395 . S
C1191 C1169 1.432 . S
C1191 C1190 1.445 . S
C1191 C1192 1.370 . S
C1192 C1191 1.370 . S
C1192 C1193 1.438 . S
C1192 H1254 0.930 . S
C1193 C1179 1.497 . S
C1193 C1192 1.438 . S
C1193 C1194 1.360 . S
C1194 C1193 1.360 . S
C1194 C1195 1.401 . S
C1194 C1199 1.446 . S
C1195 C1194 1.401 . S
C1195 C1196 1.347 . S
C1195 H1255 0.929 . S
C1196 C1195 1.347 . S
C1196 C1197 1.455 . S
C1196 H1256 0.930 . S
C1197 C1184 1.412 . S
C1197 C1196 1.455 . S
C1197 C1198 1.331 . S
C1198 C1187 1.451 . S
C1198 C1197 1.331 . S
C1198 C1199 1.497 . S
C1199 C1190 1.395 . S
C1199 C1194 1.446 . S
C1199 C1198 1.497 . S
C1200 C1201 1.582 . S
C1200 H1257 0.962 . S
C1200 H1258 0.959 . S
C1200 H1259 0.958 . S
C1201 C1200 1.582 . S
C1201 O1204 1.458 . S
C1201 H1230 0.980 . S
O1202 C1147 1.426 . S
O1202 C1148 1.334 . S
O1203 C1175 1.412 . S
O1203 C1176 1.393 . S
O1204 C1166 1.435 . S
O1204 C1201 1.458 . S
O1205 C1157 1.468 . S
O1205 C1158 1.408 . S
H1206 C1147 0.980 . S
H1207 C1146 0.959 . S
H1208 C1146 0.959 . S
H1209 C1146 0.960 . S
H1210 C1149 0.929 . S
H1211 C1153 0.929 . S
H1212 C1154 0.959 . S
H1213 C1154 0.961 . S
H1214 C1154 0.961 . S
H1215 C1155 0.960 . S
H1216 C1155 0.960 . S
H1217 C1155 0.961 . S
H1218 C1157 0.980 . S
H1219 C1156 0.961 . S
H1220 C1156 0.960 . S
H1221 C1156 0.959 . S
H1222 C1159 0.930 . S
H1223 C1163 0.931 . S
H1224 C1164 0.959 . S
H1225 C1164 0.961 . S
H1226 C1164 0.959 . S
H1227 C1165 0.960 . S
H1228 C1165 0.960 . S
H1229 C1165 0.960 . S
H1230 C1201 0.980 . S
H1231 C1167 0.930 . S
H1232 C1171 0.930 . S
H1233 C1172 0.961 . S
H1234 C1172 0.960 . S
H1235 C1172 0.958 . S
H1236 C1173 0.961 . S
H1237 C1173 0.960 . S
H1238 C1173 0.960 . S
H1239 C1175 0.980 . S
H1240 C1174 0.961 . S
H1241 C1174 0.961 . S
H1242 C1174 0.959 . S
H1243 C1177 0.932 . S
H1244 C1181 0.929 . S
H1245 C1182 0.961 . S
H1246 C1182 0.959 . S
H1247 C1182 0.959 . S
H1248 C1183 0.960 . S
H1249 C1183 0.962 . S
H1250 C1183 0.961 . S
H1251 C1185 0.929 . S
H1252 C1188 0.930 . S
H1253 C1189 0.929 . S
H1254 C1192 0.930 . S
H1255 C1195 0.929 . S
H1256 C1196 0.930 . S
H1257 C1200 0.962 . S
H1258 C1200 0.959 . S
H1259 C1200 0.958 . S
C1260 C1261 1.560 . S
C1260 H1321 0.959 . S
C1260 H1322 0.959 . S
C1260 H1323 0.960 . S
C1261 C1260 1.560 . S
C1261 O1316 1.426 . S
C1261 H1320 0.980 . S
C1262 C1263 1.407 1_455 S
C1262 C1267 1.418 . S
C1262 O1316 1.334 . S
C1263 C1262 1.407 1_655 S
C1263 C1264 1.360 . S
C1263 H1324 0.929 . S
C1264 C1263 1.360 . S
C1264 C1265 1.401 1_655 S
C1264 C1268 1.527 . S
C1265 C1264 1.401 1_455 S
C1265 C1266 1.405 . S
C1265 C1298 1.587 1_455 S
C1266 C1265 1.405 . S
C1266 C1267 1.332 . S
C1266 C1269 1.496 . S
C1267 C1262 1.418 . S
C1267 C1266 1.332 . S
C1267 H1325 0.929 . S
C1268 C1264 1.527 . S
C1268 H1326 0.959 . S
C1268 H1327 0.961 . S
C1268 H1328 0.961 . S
C1269 C1266 1.496 . S
C1269 H1329 0.960 . S
C1269 H1330 0.960 . S
C1269 H1331 0.961 . S
C1270 C1271 1.517 . S
C1270 H1333 0.956 . S
C1270 H1334 0.960 . S
C1270 H1335 0.959 . S
C1271 C1270 1.517 . S
C1271 O1319 1.468 . S
C1271 H1332 0.980 1_655 S
C1272 C1273 1.349 . S
C1272 C1277 1.367 . S
C1272 O1319 1.408 . S
C1273 C1272 1.349 . S
C1273 C1274 1.356 1_655 S
C1273 H1336 0.930 1_655 S
C1274 C1273 1.356 1_455 S
C1274 C1275 1.404 1_455 S
C1274 C1278 1.626 . S
C1275 C1274 1.404 1_655 S
C1275 C1276 1.384 . S
C1275 C1300 1.553 . S
C1276 C1275 1.384 . S
C1276 C1277 1.364 . S
C1276 C1279 1.450 . S
C1277 C1272 1.367 . S
C1277 C1276 1.364 . S
C1277 H1337 0.931 . S
C1278 C1274 1.626 . S
C1278 H1338 0.959 . S
C1278 H1339 0.961 . S
C1278 H1340 0.959 . S
C1279 C1276 1.450 . S
C1279 H1341 0.960 . S
C1279 H1342 0.960 . S
C1279 H1343 0.960 . S
C1280 C1281 1.309 . S
C1280 C1285 1.304 . S
C1280 O1318 1.435 . S
C1281 C1280 1.309 . S
C1281 C1282 1.463 1_655 S
C1281 H1345 0.930 1_655 S
C1282 C1281 1.463 1_455 S
C1282 C1283 1.392 1_455 S
C1282 C1286 1.588 . S
C1283 C1282 1.392 1_655 S
C1283 C1284 1.373 . S
C1283 C1305 1.432 . S
C1284 C1283 1.373 . S
C1284 C1285 1.339 . S
C1284 C1287 1.530 . S
C1285 C1280 1.304 . S
C1285 C1284 1.339 . S
C1285 H1346 0.930 . S
C1286 C1282 1.588 . S
C1286 H1347 0.961 . S
C1286 H1348 0.960 . S
C1286 H1349 0.958 . S
C1287 C1284 1.530 . S
C1287 H1350 0.961 . S
C1287 H1351 0.960 . S
C1287 H1352 0.960 . S
C1288 C1289 1.495 1_455 S
C1288 H1354 0.961 . S
C1288 H1355 0.961 . S
C1288 H1356 0.959 . S
C1289 C1288 1.495 1_655 S
C1289 O1317 1.404 1_655 S
C1289 H1353 0.991 . S
C1290 C1291 1.288 . S
C1290 C1295 1.377 1_455 S
C1290 O1317 1.393 . S
C1291 C1290 1.288 . S
C1291 C1292 1.369 . S
C1291 H1357 0.932 . S
C1292 C1291 1.369 . S
C1292 C1293 1.398 1_455 S
C1292 C1296 1.527 . S
C1293 C1292 1.398 1_655 S
C1293 C1294 1.380 . S
C1293 C1307 1.497 . S
C1294 C1293 1.380 . S
C1294 C1295 1.383 . S
C1294 C1297 1.603 . S
C1295 C1290 1.377 1_655 S
C1295 C1294 1.383 . S
C1295 H1358 0.929 . S
C1296 C1292 1.527 . S
C1296 H1359 0.961 . S
C1296 H1360 0.959 . S
C1296 H1361 0.959 . S
C1297 C1294 1.603 . S
C1297 H1362 0.960 . S
C1297 H1363 0.962 . S
C1297 H1364 0.961 . S
C1298 C1265 1.587 1_655 S
C1298 C1299 1.360 . S
C1298 C1311 1.412 . S
C1299 C1298 1.360 . S
C1299 C1300 1.365 . S
C1299 H1365 0.929 . S
C1300 C1275 1.553 . S
C1300 C1299 1.365 . S
C1300 C1301 1.404 . S
C1301 C1300 1.404 . S
C1301 C1302 1.395 . S
C1301 C1312 1.451 . S
C1302 C1301 1.395 . S
C1302 C1303 1.322 . S
C1302 H1366 0.930 . S
C1303 C1302 1.322 . S
C1303 C1304 1.459 . S
C1303 H1367 0.929 . S
C1304 C1303 1.459 . S
C1304 C1305 1.445 . S
C1304 C1313 1.395 . S
C1305 C1283 1.432 . S
C1305 C1304 1.445 . S
C1305 C1306 1.370 . S
C1306 C1305 1.370 . S
C1306 C1307 1.438 . S
C1306 H1368 0.930 . S
C1307 C1293 1.497 . S
C1307 C1306 1.438 . S
C1307 C1308 1.360 . S
C1308 C1307 1.360 . S
C1308 C1309 1.401 . S
C1308 C1313 1.446 . S
C1309 C1308 1.401 . S
C1309 C1310 1.347 . S
C1309 H1369 0.929 . S
C1310 C1309 1.347 . S
C1310 C1311 1.455 . S
C1310 H1370 0.930 . S
C1311 C1298 1.412 . S
C1311 C1310 1.455 . S
C1311 C1312 1.331 . S
C1312 C1301 1.451 . S
C1312 C1311 1.331 . S
C1312 C1313 1.497 . S
C1313 C1304 1.395 . S
C1313 C1308 1.446 . S
C1313 C1312 1.497 . S
C1314 C1315 1.582 . S
C1314 H1371 0.962 . S
C1314 H1372 0.959 . S
C1314 H1373 0.958 . S
C1315 C1314 1.582 . S
C1315 O1318 1.458 . S
C1315 H1344 0.980 . S
O1316 C1261 1.426 . S
O1316 C1262 1.334 . S
O1317 C1289 1.404 1_455 S
O1317 C1290 1.393 . S
O1318 C1280 1.435 . S
O1318 C1315 1.458 . S
O1319 C1271 1.468 . S
O1319 C1272 1.408 . S
H1320 C1261 0.980 . S
H1321 C1260 0.959 . S
H1322 C1260 0.959 . S
H1323 C1260 0.960 . S
H1324 C1263 0.929 . S
H1325 C1267 0.929 . S
H1326 C1268 0.959 . S
H1327 C1268 0.961 . S
H1328 C1268 0.961 . S
H1329 C1269 0.960 . S
H1330 C1269 0.960 . S
H1331 C1269 0.961 . S
H1332 C1271 0.980 1_455 S
H1333 C1270 0.956 . S
H1334 C1270 0.960 . S
H1335 C1270 0.959 . S
H1336 C1273 0.930 1_455 S
H1337 C1277 0.931 . S
H1338 C1278 0.959 . S
H1339 C1278 0.961 . S
H1340 C1278 0.959 . S
H1341 C1279 0.960 . S
H1342 C1279 0.960 . S
H1343 C1279 0.960 . S
H1344 C1315 0.980 . S
H1345 C1281 0.930 1_455 S
H1346 C1285 0.930 . S
H1347 C1286 0.961 . S
H1348 C1286 0.960 . S
H1349 C1286 0.958 . S
H1350 C1287 0.961 . S
H1351 C1287 0.960 . S
H1352 C1287 0.960 . S
H1353 C1289 0.991 . S
H1354 C1288 0.961 . S
H1355 C1288 0.961 . S
H1356 C1288 0.959 . S
H1357 C1291 0.932 . S
H1358 C1295 0.929 . S
H1359 C1296 0.961 . S
H1360 C1296 0.959 . S
H1361 C1296 0.959 . S
H1362 C1297 0.960 . S
H1363 C1297 0.962 . S
H1364 C1297 0.961 . S
H1365 C1299 0.929 . S
H1366 C1302 0.930 . S
H1367 C1303 0.929 . S
H1368 C1306 0.930 . S
H1369 C1309 0.929 . S
H1370 C1310 0.930 . S
H1371 C1314 0.962 . S
H1372 C1314 0.959 . S
H1373 C1314 0.958 . S
C1374 C1375 1.560 . S
C1374 H1435 0.959 . S
C1374 H1436 0.959 . S
C1374 H1437 0.960 . S
C1375 C1374 1.560 . S
C1375 O1430 1.426 . S
C1375 H1434 0.980 . S
C1376 C1377 1.407 . S
C1376 C1381 1.418 . S
C1376 O1430 1.334 . S
C1377 C1376 1.407 . S
C1377 C1378 1.360 . S
C1377 H1438 0.929 . S
C1378 C1377 1.360 . S
C1378 C1379 1.401 . S
C1378 C1382 1.527 . S
C1379 C1378 1.401 . S
C1379 C1380 1.405 . S
C1379 C1412 1.587 . S
C1380 C1379 1.405 . S
C1380 C1381 1.332 . S
C1380 C1383 1.496 . S
C1381 C1376 1.418 . S
C1381 C1380 1.332 . S
C1381 H1439 0.929 . S
C1382 C1378 1.527 . S
C1382 H1440 0.959 . S
C1382 H1441 0.961 . S
C1382 H1442 0.961 . S
C1383 C1380 1.496 . S
C1383 H1443 0.960 . S
C1383 H1444 0.960 . S
C1383 H1445 0.961 . S
C1384 C1385 1.517 . S
C1384 H1447 0.961 . S
C1384 H1448 0.960 . S
C1384 H1449 0.959 . S
C1385 C1384 1.517 . S
C1385 O1433 1.468 . S
C1385 H1446 0.980 . S
C1386 C1387 1.349 . S
C1386 C1391 1.367 . S
C1386 O1433 1.408 . S
C1387 C1386 1.349 . S
C1387 C1388 1.407 . S
C1387 H1450 0.930 . S
C1388 C1387 1.407 . S
C1388 C1389 1.449 . S
C1388 C1392 1.535 . S
C1389 C1388 1.449 . S
C1389 C1390 1.384 . S
C1389 C1414 1.553 . S
C1390 C1389 1.384 . S
C1390 C1391 1.364 . S
C1390 C1393 1.450 . S
C1391 C1386 1.367 . S
C1391 C1390 1.364 . S
C1391 H1451 0.931 . S
C1392 C1388 1.535 . S
C1392 H1452 0.959 . S
C1392 H1453 0.961 . S
C1392 H1454 0.959 . S
C1393 C1390 1.450 . S
C1393 H1455 0.960 . S
C1393 H1456 0.960 . S
C1393 H1457 0.960 . S
C1394 C1395 1.309 . S
C1394 C1399 1.304 . S
C1394 O1432 1.435 . S
C1395 C1394 1.309 . S
C1395 C1396 1.476 . S
C1395 H1459 0.930 . S
C1396 C1395 1.476 . S
C1396 C1397 1.400 . S
C1396 C1400 1.567 . S
C1397 C1396 1.400 . S
C1397 C1398 1.373 . S
C1397 C1419 1.432 . S
C1398 C1397 1.373 . S
C1398 C1399 1.339 . S
C1398 C1401 1.530 . S
C1399 C1394 1.304 . S
C1399 C1398 1.339 . S
C1399 H1460 0.930 . S
C1400 C1396 1.567 . S
C1400 H1461 0.961 . S
C1400 H1462 0.960 . S
C1400 H1463 0.958 . S
C1401 C1398 1.530 . S
C1401 H1464 0.961 . S
C1401 H1465 0.960 . S
C1401 H1466 0.960 . S
C1402 C1403 1.530 . S
C1402 H1468 0.961 . S
C1402 H1469 0.961 . S
C1402 H1470 0.959 . S
C1403 C1402 1.530 . S
C1403 O1431 1.412 . S
C1403 H1467 0.980 . S
C1404 C1405 1.288 . S
C1404 C1409 1.377 . S
C1404 O1431 1.393 . S
C1405 C1404 1.288 . S
C1405 C1406 1.369 . S
C1405 H1471 0.932 . S
C1406 C1405 1.369 . S
C1406 C1407 1.398 . S
C1406 C1410 1.527 . S
C1407 C1406 1.398 . S
C1407 C1408 1.380 . S
C1407 C1421 1.497 . S
C1408 C1407 1.380 . S
C1408 C1409 1.383 . S
C1408 C1411 1.603 . S
C1409 C1404 1.377 . S
C1409 C1408 1.383 . S
C1409 H1472 0.929 . S
C1410 C1406 1.527 . S
C1410 H1473 0.961 . S
C1410 H1474 0.959 . S
C1410 H1475 0.959 . S
C1411 C1408 1.603 . S
C1411 H1476 0.960 . S
C1411 H1477 0.962 . S
C1411 H1478 0.961 . S
C1412 C1379 1.587 . S
C1412 C1413 1.360 . S
C1412 C1425 1.412 . S
C1413 C1412 1.360 . S
C1413 C1414 1.365 . S
C1413 H1479 0.929 . S
C1414 C1389 1.553 . S
C1414 C1413 1.365 . S
C1414 C1415 1.404 . S
C1415 C1414 1.404 . S
C1415 C1416 1.395 . S
C1415 C1426 1.451 . S
C1416 C1415 1.395 . S
C1416 C1417 1.322 . S
C1416 H1480 0.930 . S
C1417 C1416 1.322 . S
C1417 C1418 1.459 . S
C1417 H1481 0.929 . S
C1418 C1417 1.459 . S
C1418 C1419 1.445 . S
C1418 C1427 1.395 . S
C1419 C1397 1.432 . S
C1419 C1418 1.445 . S
C1419 C1420 1.370 . S
C1420 C1419 1.370 . S
C1420 C1421 1.438 . S
C1420 H1482 0.930 . S
C1421 C1407 1.497 . S
C1421 C1420 1.438 . S
C1421 C1422 1.360 . S
C1422 C1421 1.360 . S
C1422 C1423 1.401 . S
C1422 C1427 1.446 . S
C1423 C1422 1.401 . S
C1423 C1424 1.347 . S
C1423 H1483 0.929 . S
C1424 C1423 1.347 . S
C1424 C1425 1.455 . S
C1424 H1484 0.930 . S
C1425 C1412 1.412 . S
C1425 C1424 1.455 . S
C1425 C1426 1.331 . S
C1426 C1415 1.451 . S
C1426 C1425 1.331 . S
C1426 C1427 1.497 . S
C1427 C1418 1.395 . S
C1427 C1422 1.446 . S
C1427 C1426 1.497 . S
C1428 C1429 1.582 . S
C1428 H1485 0.962 . S
C1428 H1486 0.959 . S
C1428 H1487 0.958 . S
C1429 C1428 1.582 . S
C1429 O1432 1.458 . S
C1429 H1458 0.980 . S
O1430 C1375 1.426 . S
O1430 C1376 1.334 . S
O1431 C1403 1.412 . S
O1431 C1404 1.393 . S
O1432 C1394 1.435 . S
O1432 C1429 1.458 . S
O1433 C1385 1.468 . S
O1433 C1386 1.408 . S
H1434 C1375 0.980 . S
H1435 C1374 0.959 . S
H1436 C1374 0.959 . S
H1437 C1374 0.960 . S
H1438 C1377 0.929 . S
H1439 C1381 0.929 . S
H1440 C1382 0.959 . S
H1441 C1382 0.961 . S
H1442 C1382 0.961 . S
H1443 C1383 0.960 . S
H1444 C1383 0.960 . S
H1445 C1383 0.961 . S
H1446 C1385 0.980 . S
H1447 C1384 0.961 . S
H1448 C1384 0.960 . S
H1449 C1384 0.959 . S
H1450 C1387 0.930 . S
H1451 C1391 0.931 . S
H1452 C1392 0.959 . S
H1453 C1392 0.961 . S
H1454 C1392 0.959 . S
H1455 C1393 0.960 . S
H1456 C1393 0.960 . S
H1457 C1393 0.960 . S
H1458 C1429 0.980 . S
H1459 C1395 0.930 . S
H1460 C1399 0.930 . S
H1461 C1400 0.961 . S
H1462 C1400 0.960 . S
H1463 C1400 0.958 . S
H1464 C1401 0.961 . S
H1465 C1401 0.960 . S
H1466 C1401 0.960 . S
H1467 C1403 0.980 . S
H1468 C1402 0.961 . S
H1469 C1402 0.961 . S
H1470 C1402 0.959 . S
H1471 C1405 0.932 . S
H1472 C1409 0.929 . S
H1473 C1410 0.961 . S
H1474 C1410 0.959 . S
H1475 C1410 0.959 . S
H1476 C1411 0.960 . S
H1477 C1411 0.962 . S
H1478 C1411 0.961 . S
H1479 C1413 0.929 . S
H1480 C1416 0.930 . S
H1481 C1417 0.929 . S
H1482 C1420 0.930 . S
H1483 C1423 0.929 . S
H1484 C1424 0.930 . S
H1485 C1428 0.962 . S
H1486 C1428 0.959 . S
H1487 C1428 0.958 . S
C1488 C1489 1.560 . S
C1488 H1549 0.959 . S
C1488 H1550 0.959 . S
C1488 H1551 0.960 . S
C1489 C1488 1.560 . S
C1489 O1544 1.426 . S
C1489 H1548 0.980 . S
C1490 C1491 1.407 1_565 S
C1490 C1495 1.418 . S
C1490 O1544 1.334 . S
C1491 C1490 1.407 1_545 S
C1491 C1492 1.360 . S
C1491 H1552 0.929 . S
C1492 C1491 1.360 . S
C1492 C1493 1.401 1_545 S
C1492 C1496 1.527 . S
C1493 C1492 1.401 1_565 S
C1493 C1494 1.405 . S
C1493 C1526 1.587 1_565 S
C1494 C1493 1.405 . S
C1494 C1495 1.332 . S
C1494 C1497 1.496 . S
C1495 C1490 1.418 . S
C1495 C1494 1.332 . S
C1495 H1553 0.929 . S
C1496 C1492 1.527 . S
C1496 H1554 0.959 . S
C1496 H1555 0.961 . S
C1496 H1556 0.961 . S
C1497 C1494 1.496 . S
C1497 H1557 0.960 . S
C1497 H1558 0.960 . S
C1497 H1559 0.961 . S
C1498 C1499 1.517 . S
C1498 H1561 0.910 1_545 S
C1498 H1562 0.960 . S
C1498 H1563 0.959 . S
C1499 C1498 1.517 . S
C1499 O1547 1.468 . S
C1499 H1560 0.980 1_545 S
C1500 C1501 1.402 . S
C1500 C1505 1.367 . S
C1500 O1547 1.408 . S
C1501 C1500 1.402 . S
C1501 C1502 1.438 1_545 S
C1501 H1564 0.848 1_545 S
C1502 C1501 1.438 1_565 S
C1502 C1503 1.449 1_565 S
C1502 C1506 1.535 . S
C1503 C1502 1.449 1_545 S
C1503 C1504 1.384 . S
C1503 C1528 1.553 . S
C1504 C1503 1.384 . S
C1504 C1505 1.364 . S
C1504 C1507 1.450 . S
C1505 C1500 1.367 . S
C1505 C1504 1.364 . S
C1505 H1565 0.931 . S
C1506 C1502 1.535 . S
C1506 H1566 0.959 . S
C1506 H1567 0.961 . S
C1506 H1568 0.959 . S
C1507 C1504 1.450 . S
C1507 H1569 0.960 . S
C1507 H1570 0.960 . S
C1507 H1571 0.960 . S
C1508 C1509 1.309 . S
C1508 C1513 1.304 . S
C1508 O1546 1.435 . S
C1509 C1508 1.309 . S
C1509 C1510 1.491 1_545 S
C1509 H1573 0.930 1_545 S
C1510 C1509 1.491 1_565 S
C1510 C1511 1.350 1_565 S
C1510 C1514 1.601 . S
C1511 C1510 1.350 1_545 S
C1511 C1512 1.373 . S
C1511 C1533 1.432 . S
C1512 C1511 1.373 . S
C1512 C1513 1.339 . S
C1512 C1515 1.530 . S
C1513 C1508 1.304 . S
C1513 C1512 1.339 . S
C1513 H1574 0.930 . S
C1514 C1510 1.601 . S
C1514 H1575 0.961 . S
C1514 H1576 0.960 . S
C1514 H1577 0.958 . S
C1515 C1512 1.530 . S
C1515 H1578 0.961 . S
C1515 H1579 0.960 . S
C1515 H1580 0.960 . S
C1516 C1517 1.530 1_565 S
C1516 H1582 0.961 . S
C1516 H1583 0.961 . S
C1516 H1584 0.959 . S
C1517 C1516 1.530 1_545 S
C1517 O1545 1.412 1_545 S
C1517 H1581 0.980 . S
C1518 C1519 1.288 . S
C1518 C1523 1.377 1_565 S
C1518 O1545 1.393 . S
C1519 C1518 1.288 . S
C1519 C1520 1.369 . S
C1519 H1585 0.932 . S
C1520 C1519 1.369 . S
C1520 C1521 1.398 1_565 S
C1520 C1524 1.527 . S
C1521 C1520 1.398 1_545 S
C1521 C1522 1.380 . S
C1521 C1535 1.497 . S
C1522 C1521 1.380 . S
C1522 C1523 1.383 . S
C1522 C1525 1.603 . S
C1523 C1518 1.377 1_545 S
C1523 C1522 1.383 . S
C1523 H1586 0.929 . S
C1524 C1520 1.527 . S
C1524 H1587 0.961 . S
C1524 H1588 0.959 . S
C1524 H1589 0.959 . S
C1525 C1522 1.603 . S
C1525 H1590 0.960 . S
C1525 H1591 0.962 . S
C1525 H1592 0.961 . S
C1526 C1493 1.587 1_545 S
C1526 C1527 1.360 . S
C1526 C1539 1.412 . S
C1527 C1526 1.360 . S
C1527 C1528 1.365 . S
C1527 H1593 0.929 . S
C1528 C1503 1.553 . S
C1528 C1527 1.365 . S
C1528 C1529 1.404 . S
C1529 C1528 1.404 . S
C1529 C1530 1.395 . S
C1529 C1540 1.451 . S
C1530 C1529 1.395 . S
C1530 C1531 1.322 . S
C1530 H1594 0.930 . S
C1531 C1530 1.322 . S
C1531 C1532 1.459 . S
C1531 H1595 0.929 . S
C1532 C1531 1.459 . S
C1532 C1533 1.445 . S
C1532 C1541 1.395 . S
C1533 C1511 1.432 . S
C1533 C1532 1.445 . S
C1533 C1534 1.370 . S
C1534 C1533 1.370 . S
C1534 C1535 1.438 . S
C1534 H1596 0.930 . S
C1535 C1521 1.497 . S
C1535 C1534 1.438 . S
C1535 C1536 1.360 . S
C1536 C1535 1.360 . S
C1536 C1537 1.401 . S
C1536 C1541 1.446 . S
C1537 C1536 1.401 . S
C1537 C1538 1.347 . S
C1537 H1597 0.929 . S
C1538 C1537 1.347 . S
C1538 C1539 1.455 . S
C1538 H1598 0.930 . S
C1539 C1526 1.412 . S
C1539 C1538 1.455 . S
C1539 C1540 1.331 . S
C1540 C1529 1.451 . S
C1540 C1539 1.331 . S
C1540 C1541 1.497 . S
C1541 C1532 1.395 . S
C1541 C1536 1.446 . S
C1541 C1540 1.497 . S
C1542 C1543 1.582 . S
C1542 H1599 0.962 . S
C1542 H1600 0.959 . S
C1542 H1601 0.958 . S
C1543 C1542 1.582 . S
C1543 O1546 1.458 . S
C1543 H1572 0.980 . S
O1544 C1489 1.426 . S
O1544 C1490 1.334 . S
O1545 C1517 1.412 1_565 S
O1545 C1518 1.393 . S
O1546 C1508 1.435 . S
O1546 C1543 1.458 . S
O1547 C1499 1.468 . S
O1547 C1500 1.408 . S
H1548 C1489 0.980 . S
H1549 C1488 0.959 . S
H1550 C1488 0.959 . S
H1551 C1488 0.960 . S
H1552 C1491 0.929 . S
H1553 C1495 0.929 . S
H1554 C1496 0.959 . S
H1555 C1496 0.961 . S
H1556 C1496 0.961 . S
H1557 C1497 0.960 . S
H1558 C1497 0.960 . S
H1559 C1497 0.961 . S
H1560 C1499 0.980 1_565 S
H1561 C1498 0.910 1_565 S
H1562 C1498 0.960 . S
H1563 C1498 0.959 . S
H1564 C1501 0.848 1_565 S
H1565 C1505 0.931 . S
H1566 C1506 0.959 . S
H1567 C1506 0.961 . S
H1568 C1506 0.959 . S
H1569 C1507 0.960 . S
H1570 C1507 0.960 . S
H1571 C1507 0.960 . S
H1572 C1543 0.980 . S
H1573 C1509 0.930 1_565 S
H1574 C1513 0.930 . S
H1575 C1514 0.961 . S
H1576 C1514 0.960 . S
H1577 C1514 0.958 . S
H1578 C1515 0.961 . S
H1579 C1515 0.960 . S
H1580 C1515 0.960 . S
H1581 C1517 0.980 . S
H1582 C1516 0.961 . S
H1583 C1516 0.961 . S
H1584 C1516 0.959 . S
H1585 C1519 0.932 . S
H1586 C1523 0.929 . S
H1587 C1524 0.961 . S
H1588 C1524 0.959 . S
H1589 C1524 0.959 . S
H1590 C1525 0.960 . S
H1591 C1525 0.962 . S
H1592 C1525 0.961 . S
H1593 C1527 0.929 . S
H1594 C1530 0.930 . S
H1595 C1531 0.929 . S
H1596 C1534 0.930 . S
H1597 C1537 0.929 . S
H1598 C1538 0.930 . S
H1599 C1542 0.962 . S
H1600 C1542 0.959 . S
H1601 C1542 0.958 . S
C1602 C1603 1.560 . S
C1602 H1663 0.959 . S
C1602 H1664 0.959 . S
C1602 H1665 0.960 . S
C1603 C1602 1.560 . S
C1603 O1658 1.426 . S
C1603 H1662 0.980 1_565 S
C1604 C1605 1.407 1_565 S
C1604 C1609 1.418 . S
C1604 O1658 1.334 . S
C1605 C1604 1.407 1_545 S
C1605 C1606 1.360 . S
C1605 H1666 0.929 . S
C1606 C1605 1.360 . S
C1606 C1607 1.401 . S
C1606 C1610 1.527 . S
C1607 C1606 1.401 . S
C1607 C1608 1.405 1_545 S
C1607 C1640 1.587 . S
C1608 C1607 1.405 1_565 S
C1608 C1609 1.332 . S
C1608 C1611 1.496 . S
C1609 C1604 1.418 . S
C1609 C1608 1.332 . S
C1609 H1667 0.929 . S
C1610 C1606 1.527 . S
C1610 H1668 0.959 . S
C1610 H1669 0.961 . S
C1610 H1670 0.961 . S
C1611 C1608 1.496 . S
C1611 H1671 0.960 . S
C1611 H1672 0.960 . S
C1611 H1673 0.961 . S
C1612 C1613 1.517 . S
C1612 H1675 0.961 . S
C1612 H1676 0.960 . S
C1612 H1677 0.959 . S
C1613 C1612 1.517 . S
C1613 O1661 1.468 . S
C1613 H1674 0.980 . S
C1614 C1615 1.349 . S
C1614 C1619 1.367 . S
C1614 O1661 1.408 . S
C1615 C1614 1.349 . S
C1615 C1616 1.407 . S
C1615 H1678 0.929 1_545 S
C1616 C1615 1.407 . S
C1616 C1617 1.449 . S
C1616 C1620 1.535 1_545 S
C1617 C1616 1.449 . S
C1617 C1618 1.384 . S
C1617 C1642 1.553 . S
C1618 C1617 1.384 . S
C1618 C1619 1.364 . S
C1618 C1621 1.450 . S
C1619 C1614 1.367 . S
C1619 C1618 1.364 . S
C1619 H1679 0.931 . S
C1620 C1616 1.535 1_565 S
C1620 H1680 0.959 . S
C1620 H1681 0.961 . S
C1620 H1682 0.959 . S
C1621 C1618 1.450 . S
C1621 H1683 0.960 . S
C1621 H1684 0.960 . S
C1621 H1685 0.960 . S
C1622 C1623 1.309 1_545 S
C1622 C1627 1.304 . S
C1622 O1660 1.435 . S
C1623 C1622 1.309 1_565 S
C1623 C1624 1.476 . S
C1623 H1687 0.930 . S
C1624 C1623 1.476 . S
C1624 C1625 1.400 1_565 S
C1624 C1628 1.567 . S
C1625 C1624 1.400 1_545 S
C1625 C1626 1.373 . S
C1625 C1647 1.432 . S
C1626 C1625 1.373 . S
C1626 C1627 1.339 . S
C1626 C1629 1.530 . S
C1627 C1622 1.304 . S
C1627 C1626 1.339 . S
C1627 H1688 0.930 . S
C1628 C1624 1.567 . S
C1628 H1689 0.961 . S
C1628 H1690 0.960 . S
C1628 H1691 0.958 . S
C1629 C1626 1.530 . S
C1629 H1692 0.961 . S
C1629 H1693 0.960 . S
C1629 H1694 0.960 . S
C1630 C1631 1.530 . S
C1630 H1696 0.961 . S
C1630 H1697 0.961 . S
C1630 H1698 0.959 . S
C1631 C1630 1.530 . S
C1631 O1659 1.412 . S
C1631 H1695 0.993 . S
C1632 C1633 1.288 . S
C1632 C1637 1.377 1_565 S
C1632 O1659 1.393 . S
C1633 C1632 1.288 . S
C1633 C1634 1.369 . S
C1633 H1699 0.932 . S
C1634 C1633 1.369 . S
C1634 C1635 1.398 . S
C1634 C1638 1.527 . S
C1635 C1634 1.398 . S
C1635 C1636 1.380 1_565 S
C1635 C1649 1.497 1_565 S
C1636 C1635 1.380 1_545 S
C1636 C1637 1.383 . S
C1636 C1639 1.603 . S
C1637 C1632 1.377 1_545 S
C1637 C1636 1.383 . S
C1637 H1700 0.929 . S
C1638 C1634 1.527 . S
C1638 H1701 0.961 . S
C1638 H1702 0.959 . S
C1638 H1703 0.959 . S
C1639 C1636 1.603 . S
C1639 H1704 0.960 . S
C1639 H1705 0.962 . S
C1639 H1706 0.961 . S
C1640 C1607 1.587 . S
C1640 C1641 1.360 . S
C1640 C1653 1.412 . S
C1641 C1640 1.360 . S
C1641 C1642 1.365 . S
C1641 H1707 0.929 . S
C1642 C1617 1.553 . S
C1642 C1641 1.365 . S
C1642 C1643 1.404 . S
C1643 C1642 1.404 . S
C1643 C1644 1.395 . S
C1643 C1654 1.451 . S
C1644 C1643 1.395 . S
C1644 C1645 1.322 . S
C1644 H1708 0.930 . S
C1645 C1644 1.322 . S
C1645 C1646 1.459 . S
C1645 H1709 0.929 . S
C1646 C1645 1.459 . S
C1646 C1647 1.445 . S
C1646 C1655 1.395 . S
C1647 C1625 1.432 . S
C1647 C1646 1.445 . S
C1647 C1648 1.370 . S
C1648 C1647 1.370 . S
C1648 C1649 1.438 . S
C1648 H1710 0.930 . S
C1649 C1635 1.497 1_545 S
C1649 C1648 1.438 . S
C1649 C1650 1.360 . S
C1650 C1649 1.360 . S
C1650 C1651 1.401 . S
C1650 C1655 1.446 . S
C1651 C1650 1.401 . S
C1651 C1652 1.347 . S
C1651 H1711 0.969 . S
C1652 C1651 1.347 . S
C1652 C1653 1.455 . S
C1652 H1712 0.930 . S
C1653 C1640 1.412 . S
C1653 C1652 1.455 . S
C1653 C1654 1.331 . S
C1654 C1643 1.451 . S
C1654 C1653 1.331 . S
C1654 C1655 1.497 . S
C1655 C1646 1.395 . S
C1655 C1650 1.446 . S
C1655 C1654 1.497 . S
C1656 C1657 1.623 . S
C1656 H1713 0.962 . S
C1656 H1714 0.959 . S
C1656 H1715 0.958 . S
C1657 C1656 1.623 . S
C1657 O1660 1.475 . S
C1657 H1686 0.980 1_545 S
O1658 C1603 1.426 . S
O1658 C1604 1.334 . S
O1659 C1631 1.412 . S
O1659 C1632 1.393 . S
O1660 C1622 1.435 . S
O1660 C1657 1.475 . S
O1661 C1613 1.468 . S
O1661 C1614 1.408 . S
H1662 C1603 0.980 1_545 S
H1663 C1602 0.959 . S
H1664 C1602 0.959 . S
H1665 C1602 0.960 . S
H1666 C1605 0.929 . S
H1667 C1609 0.929 . S
H1668 C1610 0.959 . S
H1669 C1610 0.961 . S
H1670 C1610 0.961 . S
H1671 C1611 0.960 . S
H1672 C1611 0.960 . S
H1673 C1611 0.961 . S
H1674 C1613 0.980 . S
H1675 C1612 0.961 . S
H1676 C1612 0.960 . S
H1677 C1612 0.959 . S
H1678 C1615 0.929 1_565 S
H1679 C1619 0.931 . S
H1680 C1620 0.959 . S
H1681 C1620 0.961 . S
H1682 C1620 0.959 . S
H1683 C1621 0.960 . S
H1684 C1621 0.960 . S
H1685 C1621 0.960 . S
H1686 C1657 0.980 1_565 S
H1687 C1623 0.930 . S
H1688 C1627 0.930 . S
H1689 C1628 0.961 . S
H1690 C1628 0.960 . S
H1691 C1628 0.958 . S
H1692 C1629 0.961 . S
H1693 C1629 0.960 . S
H1694 C1629 0.960 . S
H1695 C1631 0.993 . S
H1696 C1630 0.961 . S
H1697 C1630 0.961 . S
H1698 C1630 0.959 . S
H1699 C1633 0.932 . S
H1700 C1637 0.929 . S
H1701 C1638 0.961 . S
H1702 C1638 0.959 . S
H1703 C1638 0.959 . S
H1704 C1639 0.960 . S
H1705 C1639 0.962 . S
H1706 C1639 0.961 . S
H1707 C1641 0.929 . S
H1708 C1644 0.930 . S
H1709 C1645 0.929 . S
H1710 C1648 0.930 . S
H1711 C1651 0.969 . S
H1712 C1652 0.930 . S
H1713 C1656 0.962 . S
H1714 C1656 0.959 . S
H1715 C1656 0.958 . S
C1716 C1717 1.560 . S
C1716 H1777 0.959 . S
C1716 H1778 0.959 . S
C1716 H1779 0.960 . S
C1717 C1716 1.560 . S
C1717 O1772 1.426 . S
C1717 H1776 0.980 1_455 S
C1718 C1719 1.407 1_455 S
C1718 C1723 1.418 . S
C1718 O1772 1.334 . S
C1719 C1718 1.407 1_655 S
C1719 C1720 1.360 . S
C1719 H1780 0.929 . S
C1720 C1719 1.360 . S
C1720 C1721 1.401 . S
C1720 C1724 1.527 . S
C1721 C1720 1.401 . S
C1721 C1722 1.405 1_655 S
C1721 C1754 1.587 . S
C1722 C1721 1.405 1_455 S
C1722 C1723 1.332 . S
C1722 C1725 1.496 . S
C1723 C1718 1.418 . S
C1723 C1722 1.332 . S
C1723 H1781 0.929 . S
C1724 C1720 1.527 . S
C1724 H1782 0.959 . S
C1724 H1783 0.961 . S
C1724 H1784 0.961 . S
C1725 C1722 1.496 . S
C1725 H1785 0.960 . S
C1725 H1786 0.960 . S
C1725 H1787 0.961 . S
C1726 C1727 1.517 . S
C1726 H1789 0.961 . S
C1726 H1790 0.960 . S
C1726 H1791 0.959 . S
C1727 C1726 1.517 . S
C1727 O1775 1.468 . S
C1727 H1788 0.980 . S
C1728 C1729 1.349 . S
C1728 C1733 1.367 . S
C1728 O1775 1.408 . S
C1729 C1728 1.349 . S
C1729 C1730 1.407 . S
C1729 H1792 0.921 1_655 S
C1730 C1729 1.407 . S
C1730 C1731 1.449 . S
C1730 C1734 1.535 1_655 S
C1731 C1730 1.449 . S
C1731 C1732 1.384 . S
C1731 C1756 1.553 . S
C1732 C1731 1.384 . S
C1732 C1733 1.364 . S
C1732 C1735 1.450 . S
C1733 C1728 1.367 . S
C1733 C1732 1.364 . S
C1733 H1793 0.931 . S
C1734 C1730 1.535 1_455 S
C1734 H1794 0.959 . S
C1734 H1795 0.961 . S
C1734 H1796 0.959 . S
C1735 C1732 1.450 . S
C1735 H1797 0.960 . S
C1735 H1798 0.960 . S
C1735 H1799 0.960 . S
C1736 C1737 1.309 1_655 S
C1736 C1741 1.304 . S
C1736 O1774 1.435 . S
C1737 C1736 1.309 1_455 S
C1737 C1738 1.476 . S
C1737 H1801 0.930 . S
C1738 C1737 1.476 . S
C1738 C1739 1.400 1_455 S
C1738 C1742 1.567 . S
C1739 C1738 1.400 1_655 S
C1739 C1740 1.373 . S
C1739 C1761 1.432 . S
C1740 C1739 1.373 . S
C1740 C1741 1.339 . S
C1740 C1743 1.530 . S
C1741 C1736 1.304 . S
C1741 C1740 1.339 . S
C1741 H1802 0.930 . S
C1742 C1738 1.567 . S
C1742 H1803 0.961 . S
C1742 H1804 0.960 . S
C1742 H1805 0.958 . S
C1743 C1740 1.530 . S
C1743 H1806 0.961 . S
C1743 H1807 0.960 . S
C1743 H1808 0.960 . S
C1744 C1745 1.530 . S
C1744 H1810 0.961 . S
C1744 H1811 0.961 . S
C1744 H1812 0.959 . S
C1745 C1744 1.530 . S
C1745 O1773 1.412 . S
C1745 H1809 0.982 . S
C1746 C1747 1.288 . S
C1746 C1751 1.377 1_455 S
C1746 O1773 1.393 . S
C1747 C1746 1.288 . S
C1747 C1748 1.369 . S
C1747 H1813 0.932 . S
C1748 C1747 1.369 . S
C1748 C1749 1.398 . S
C1748 C1752 1.527 . S
C1749 C1748 1.398 . S
C1749 C1750 1.380 1_455 S
C1749 C1763 1.497 1_455 S
C1750 C1749 1.380 1_655 S
C1750 C1751 1.383 . S
C1750 C1753 1.603 . S
C1751 C1746 1.377 1_655 S
C1751 C1750 1.383 . S
C1751 H1814 0.929 . S
C1752 C1748 1.527 . S
C1752 H1815 0.961 . S
C1752 H1816 0.959 . S
C1752 H1817 0.959 . S
C1753 C1750 1.603 . S
C1753 H1818 0.960 . S
C1753 H1819 0.962 . S
C1753 H1820 0.961 . S
C1754 C1721 1.587 . S
C1754 C1755 1.360 . S
C1754 C1767 1.412 . S
C1755 C1754 1.360 . S
C1755 C1756 1.365 . S
C1755 H1821 0.929 . S
C1756 C1731 1.553 . S
C1756 C1755 1.365 . S
C1756 C1757 1.404 . S
C1757 C1756 1.404 . S
C1757 C1758 1.395 . S
C1757 C1768 1.451 . S
C1758 C1757 1.395 . S
C1758 C1759 1.322 . S
C1758 H1822 0.930 . S
C1759 C1758 1.322 . S
C1759 C1760 1.459 . S
C1759 H1823 0.929 . S
C1760 C1759 1.459 . S
C1760 C1761 1.445 . S
C1760 C1769 1.395 . S
C1761 C1739 1.432 . S
C1761 C1760 1.445 . S
C1761 C1762 1.370 . S
C1762 C1761 1.370 . S
C1762 C1763 1.438 . S
C1762 H1824 0.930 . S
C1763 C1749 1.497 1_655 S
C1763 C1762 1.438 . S
C1763 C1764 1.360 . S
C1764 C1763 1.360 . S
C1764 C1765 1.401 . S
C1764 C1769 1.446 . S
C1765 C1764 1.401 . S
C1765 C1766 1.347 . S
C1765 H1825 0.911 . S
C1766 C1765 1.347 . S
C1766 C1767 1.455 . S
C1766 H1826 0.930 . S
C1767 C1754 1.412 . S
C1767 C1766 1.455 . S
C1767 C1768 1.331 . S
C1768 C1757 1.451 . S
C1768 C1767 1.331 . S
C1768 C1769 1.497 . S
C1769 C1760 1.395 . S
C1769 C1764 1.446 . S
C1769 C1768 1.497 . S
C1770 C1771 1.581 1_655 S
C1770 H1827 0.997 . S
C1770 H1828 0.959 . S
C1770 H1829 0.958 . S
C1771 C1770 1.581 1_455 S
C1771 O1774 1.442 1_455 S
C1771 H1800 0.986 . S
O1772 C1717 1.426 . S
O1772 C1718 1.334 . S
O1773 C1745 1.412 . S
O1773 C1746 1.393 . S
O1774 C1736 1.435 . S
O1774 C1771 1.442 1_655 S
O1775 C1727 1.468 . S
O1775 C1728 1.408 . S
H1776 C1717 0.980 1_655 S
H1777 C1716 0.959 . S
H1778 C1716 0.959 . S
H1779 C1716 0.960 . S
H1780 C1719 0.929 . S
H1781 C1723 0.929 . S
H1782 C1724 0.959 . S
H1783 C1724 0.961 . S
H1784 C1724 0.961 . S
H1785 C1725 0.960 . S
H1786 C1725 0.960 . S
H1787 C1725 0.961 . S
H1788 C1727 0.980 . S
H1789 C1726 0.961 . S
H1790 C1726 0.960 . S
H1791 C1726 0.959 . S
H1792 C1729 0.921 1_455 S
H1793 C1733 0.931 . S
H1794 C1734 0.959 . S
H1795 C1734 0.961 . S
H1796 C1734 0.959 . S
H1797 C1735 0.960 . S
H1798 C1735 0.960 . S
H1799 C1735 0.960 . S
H1800 C1771 0.986 . S
H1801 C1737 0.930 . S
H1802 C1741 0.930 . S
H1803 C1742 0.961 . S
H1804 C1742 0.960 . S
H1805 C1742 0.958 . S
H1806 C1743 0.961 . S
H1807 C1743 0.960 . S
H1808 C1743 0.960 . S
H1809 C1745 0.982 . S
H1810 C1744 0.961 . S
H1811 C1744 0.961 . S
H1812 C1744 0.959 . S
H1813 C1747 0.932 . S
H1814 C1751 0.929 . S
H1815 C1752 0.961 . S
H1816 C1752 0.959 . S
H1817 C1752 0.959 . S
H1818 C1753 0.960 . S
H1819 C1753 0.962 . S
H1820 C1753 0.961 . S
H1821 C1755 0.929 . S
H1822 C1758 0.930 . S
H1823 C1759 0.929 . S
H1824 C1762 0.930 . S
H1825 C1765 0.911 . S
H1826 C1766 0.930 . S
H1827 C1770 0.997 . S
H1828 C1770 0.959 . S
H1829 C1770 0.958 . S
C1830 C1831 1.560 . S
C1830 H1891 0.959 . S
C1830 H1892 0.959 . S
C1830 H1893 0.960 . S
C1831 C1830 1.560 . S
C1831 O1886 1.426 . S
C1831 H1890 0.980 . S
C1832 C1833 1.407 . S
C1832 C1837 1.418 . S
C1832 O1886 1.334 . S
C1833 C1832 1.407 . S
C1833 C1834 1.360 . S
C1833 H1894 0.929 . S
C1834 C1833 1.360 . S
C1834 C1835 1.401 . S
C1834 C1838 1.527 . S
C1835 C1834 1.401 . S
C1835 C1836 1.405 . S
C1835 C1868 1.587 . S
C1836 C1835 1.405 . S
C1836 C1837 1.332 . S
C1836 C1839 1.496 . S
C1837 C1832 1.418 . S
C1837 C1836 1.332 . S
C1837 H1895 0.929 . S
C1838 C1834 1.527 . S
C1838 H1896 0.959 . S
C1838 H1897 0.961 . S
C1838 H1898 0.961 . S
C1839 C1836 1.496 . S
C1839 H1899 0.960 . S
C1839 H1900 0.960 . S
C1839 H1901 0.961 . S
C1840 C1841 1.517 . S
C1840 H1903 0.961 . S
C1840 H1904 0.960 . S
C1840 H1905 0.959 . S
C1841 C1840 1.517 . S
C1841 O1889 1.468 . S
C1841 H1902 0.980 . S
C1842 C1843 1.349 . S
C1842 C1847 1.367 . S
C1842 O1889 1.408 . S
C1843 C1842 1.349 . S
C1843 C1844 1.407 . S
C1843 H1906 0.930 . S
C1844 C1843 1.407 . S
C1844 C1845 1.449 . S
C1844 C1848 1.535 . S
C1845 C1844 1.449 . S
C1845 C1846 1.384 . S
C1845 C1870 1.553 . S
C1846 C1845 1.384 . S
C1846 C1847 1.364 . S
C1846 C1849 1.450 . S
C1847 C1842 1.367 . S
C1847 C1846 1.364 . S
C1847 H1907 0.931 . S
C1848 C1844 1.535 . S
C1848 H1908 0.959 . S
C1848 H1909 0.961 . S
C1848 H1910 0.959 . S
C1849 C1846 1.450 . S
C1849 H1911 0.960 . S
C1849 H1912 0.960 . S
C1849 H1913 0.960 . S
C1850 C1851 1.309 . S
C1850 C1855 1.304 . S
C1850 O1888 1.435 . S
C1851 C1850 1.309 . S
C1851 C1852 1.476 . S
C1851 H1915 0.930 . S
C1852 C1851 1.476 . S
C1852 C1853 1.400 . S
C1852 C1856 1.567 . S
C1853 C1852 1.400 . S
C1853 C1854 1.373 . S
C1853 C1875 1.432 . S
C1854 C1853 1.373 . S
C1854 C1855 1.339 . S
C1854 C1857 1.530 . S
C1855 C1850 1.304 . S
C1855 C1854 1.339 . S
C1855 H1916 0.930 . S
C1856 C1852 1.567 . S
C1856 H1917 0.961 . S
C1856 H1918 0.960 . S
C1856 H1919 0.958 . S
C1857 C1854 1.530 . S
C1857 H1920 0.961 . S
C1857 H1921 0.960 . S
C1857 H1922 0.960 . S
C1858 C1859 1.530 . S
C1858 H1924 0.961 . S
C1858 H1925 0.961 . S
C1858 H1926 0.959 . S
C1859 C1858 1.530 . S
C1859 O1887 1.412 . S
C1859 H1923 0.980 . S
C1860 C1861 1.288 . S
C1860 C1865 1.377 . S
C1860 O1887 1.393 . S
C1861 C1860 1.288 . S
C1861 C1862 1.369 . S
C1861 H1927 0.932 . S
C1862 C1861 1.369 . S
C1862 C1863 1.398 . S
C1862 C1866 1.527 . S
C1863 C1862 1.398 . S
C1863 C1864 1.380 . S
C1863 C1877 1.497 . S
C1864 C1863 1.380 . S
C1864 C1865 1.383 . S
C1864 C1867 1.603 . S
C1865 C1860 1.377 . S
C1865 C1864 1.383 . S
C1865 H1928 0.929 . S
C1866 C1862 1.527 . S
C1866 H1929 0.961 . S
C1866 H1930 0.959 . S
C1866 H1931 0.959 . S
C1867 C1864 1.603 . S
C1867 H1932 0.960 . S
C1867 H1933 0.962 . S
C1867 H1934 0.961 . S
C1868 C1835 1.587 . S
C1868 C1869 1.360 . S
C1868 C1881 1.412 . S
C1869 C1868 1.360 . S
C1869 C1870 1.365 . S
C1869 H1935 0.929 . S
C1870 C1845 1.553 . S
C1870 C1869 1.365 . S
C1870 C1871 1.404 . S
C1871 C1870 1.404 . S
C1871 C1872 1.395 . S
C1871 C1882 1.451 . S
C1872 C1871 1.395 . S
C1872 C1873 1.322 . S
C1872 H1936 0.930 . S
C1873 C1872 1.322 . S
C1873 C1874 1.459 . S
C1873 H1937 0.929 . S
C1874 C1873 1.459 . S
C1874 C1875 1.445 . S
C1874 C1883 1.395 . S
C1875 C1853 1.432 . S
C1875 C1874 1.445 . S
C1875 C1876 1.370 . S
C1876 C1875 1.370 . S
C1876 C1877 1.438 . S
C1876 H1938 0.930 . S
C1877 C1863 1.497 . S
C1877 C1876 1.438 . S
C1877 C1878 1.360 . S
C1878 C1877 1.360 . S
C1878 C1879 1.401 . S
C1878 C1883 1.446 . S
C1879 C1878 1.401 . S
C1879 C1880 1.347 . S
C1879 H1939 0.929 . S
C1880 C1879 1.347 . S
C1880 C1881 1.455 . S
C1880 H1940 0.930 . S
C1881 C1868 1.412 . S
C1881 C1880 1.455 . S
C1881 C1882 1.331 . S
C1882 C1871 1.451 . S
C1882 C1881 1.331 . S
C1882 C1883 1.497 . S
C1883 C1874 1.395 . S
C1883 C1878 1.446 . S
C1883 C1882 1.497 . S
C1884 C1885 1.582 . S
C1884 H1941 0.962 . S
C1884 H1942 0.959 . S
C1884 H1943 0.958 . S
C1885 C1884 1.582 . S
C1885 O1888 1.458 . S
C1885 H1914 0.980 . S
O1886 C1831 1.426 . S
O1886 C1832 1.334 . S
O1887 C1859 1.412 . S
O1887 C1860 1.393 . S
O1888 C1850 1.435 . S
O1888 C1885 1.458 . S
O1889 C1841 1.468 . S
O1889 C1842 1.408 . S
H1890 C1831 0.980 . S
H1891 C1830 0.959 . S
H1892 C1830 0.959 . S
H1893 C1830 0.960 . S
H1894 C1833 0.929 . S
H1895 C1837 0.929 . S
H1896 C1838 0.959 . S
H1897 C1838 0.961 . S
H1898 C1838 0.961 . S
H1899 C1839 0.960 . S
H1900 C1839 0.960 . S
H1901 C1839 0.961 . S
H1902 C1841 0.980 . S
H1903 C1840 0.961 . S
H1904 C1840 0.960 . S
H1905 C1840 0.959 . S
H1906 C1843 0.930 . S
H1907 C1847 0.931 . S
H1908 C1848 0.959 . S
H1909 C1848 0.961 . S
H1910 C1848 0.959 . S
H1911 C1849 0.960 . S
H1912 C1849 0.960 . S
H1913 C1849 0.960 . S
H1914 C1885 0.980 . S
H1915 C1851 0.930 . S
H1916 C1855 0.930 . S
H1917 C1856 0.961 . S
H1918 C1856 0.960 . S
H1919 C1856 0.958 . S
H1920 C1857 0.961 . S
H1921 C1857 0.960 . S
H1922 C1857 0.960 . S
H1923 C1859 0.980 . S
H1924 C1858 0.961 . S
H1925 C1858 0.961 . S
H1926 C1858 0.959 . S
H1927 C1861 0.932 . S
H1928 C1865 0.929 . S
H1929 C1866 0.961 . S
H1930 C1866 0.959 . S
H1931 C1866 0.959 . S
H1932 C1867 0.960 . S
H1933 C1867 0.962 . S
H1934 C1867 0.961 . S
H1935 C1869 0.929 . S
H1936 C1872 0.930 . S
H1937 C1873 0.929 . S
H1938 C1876 0.930 . S
H1939 C1879 0.929 . S
H1940 C1880 0.930 . S
H1941 C1884 0.962 . S
H1942 C1884 0.959 . S
H1943 C1884 0.958 . S
C1944 C1945 1.560 . S
C1944 H2005 0.959 . S
C1944 H2006 0.959 . S
C1944 H2007 0.960 . S
C1945 C1944 1.560 . S
C1945 O2000 1.426 . S
C1945 H2004 0.980 . S
C1946 C1947 1.407 . S
C1946 C1951 1.418 . S
C1946 O2000 1.334 . S
C1947 C1946 1.407 . S
C1947 C1948 1.360 . S
C1947 H2008 0.929 . S
C1948 C1947 1.360 . S
C1948 C1949 1.401 . S
C1948 C1952 1.527 . S
C1949 C1948 1.401 . S
C1949 C1950 1.405 . S
C1949 C1982 1.587 . S
C1950 C1949 1.405 . S
C1950 C1951 1.332 . S
C1950 C1953 1.496 . S
C1951 C1946 1.418 . S
C1951 C1950 1.332 . S
C1951 H2009 0.929 . S
C1952 C1948 1.527 . S
C1952 H2010 0.959 . S
C1952 H2011 0.961 . S
C1952 H2012 0.961 . S
C1953 C1950 1.496 . S
C1953 H2013 0.960 . S
C1953 H2014 0.960 . S
C1953 H2015 0.961 . S
C1954 C1955 1.517 . S
C1954 H2017 0.961 . S
C1954 H2018 0.960 . S
C1954 H2019 0.959 . S
C1955 C1954 1.517 . S
C1955 O2003 1.468 . S
C1955 H2016 0.980 . S
C1956 C1957 1.349 . S
C1956 C1961 1.367 . S
C1956 O2003 1.408 . S
C1957 C1956 1.349 . S
C1957 C1958 1.407 . S
C1957 H2020 0.930 . S
C1958 C1957 1.407 . S
C1958 C1959 1.449 . S
C1958 C1962 1.535 . S
C1959 C1958 1.449 . S
C1959 C1960 1.384 . S
C1959 C1984 1.553 . S
C1960 C1959 1.384 . S
C1960 C1961 1.364 . S
C1960 C1963 1.450 . S
C1961 C1956 1.367 . S
C1961 C1960 1.364 . S
C1961 H2021 0.931 . S
C1962 C1958 1.535 . S
C1962 H2022 0.959 . S
C1962 H2023 0.961 . S
C1962 H2024 0.959 . S
C1963 C1960 1.450 . S
C1963 H2025 0.960 . S
C1963 H2026 0.960 . S
C1963 H2027 0.960 . S
C1964 C1965 1.309 . S
C1964 C1969 1.304 . S
C1964 O2002 1.435 . S
C1965 C1964 1.309 . S
C1965 C1966 1.476 . S
C1965 H2029 0.930 . S
C1966 C1965 1.476 . S
C1966 C1967 1.400 . S
C1966 C1970 1.567 . S
C1967 C1966 1.400 . S
C1967 C1968 1.373 . S
C1967 C1989 1.432 . S
C1968 C1967 1.373 . S
C1968 C1969 1.339 . S
C1968 C1971 1.530 . S
C1969 C1964 1.304 . S
C1969 C1968 1.339 . S
C1969 H2030 0.930 . S
C1970 C1966 1.567 . S
C1970 H2031 0.961 . S
C1970 H2032 0.960 . S
C1970 H2033 0.958 . S
C1971 C1968 1.530 . S
C1971 H2034 0.961 . S
C1971 H2035 0.960 . S
C1971 H2036 0.960 . S
C1972 C1973 1.530 . S
C1972 H2038 0.961 . S
C1972 H2039 0.961 . S
C1972 H2040 0.959 . S
C1973 C1972 1.530 . S
C1973 O2001 1.412 . S
C1973 H2037 0.980 . S
C1974 C1975 1.288 . S
C1974 C1979 1.377 . S
C1974 O2001 1.393 . S
C1975 C1974 1.288 . S
C1975 C1976 1.369 . S
C1975 H2041 0.932 . S
C1976 C1975 1.369 . S
C1976 C1977 1.398 . S
C1976 C1980 1.527 . S
C1977 C1976 1.398 . S
C1977 C1978 1.380 . S
C1977 C1991 1.497 . S
C1978 C1977 1.380 . S
C1978 C1979 1.383 . S
C1978 C1981 1.603 . S
C1979 C1974 1.377 . S
C1979 C1978 1.383 . S
C1979 H2042 0.929 . S
C1980 C1976 1.527 . S
C1980 H2043 0.961 . S
C1980 H2044 0.959 . S
C1980 H2045 0.959 . S
C1981 C1978 1.603 . S
C1981 H2046 0.960 . S
C1981 H2047 0.962 . S
C1981 H2048 0.961 . S
C1982 C1949 1.587 . S
C1982 C1983 1.360 . S
C1982 C1995 1.412 . S
C1983 C1982 1.360 . S
C1983 C1984 1.365 . S
C1983 H2049 0.929 . S
C1984 C1959 1.553 . S
C1984 C1983 1.365 . S
C1984 C1985 1.404 . S
C1985 C1984 1.404 . S
C1985 C1986 1.395 . S
C1985 C1996 1.451 . S
C1986 C1985 1.395 . S
C1986 C1987 1.322 . S
C1986 H2050 0.930 . S
C1987 C1986 1.322 . S
C1987 C1988 1.459 . S
C1987 H2051 0.929 . S
C1988 C1987 1.459 . S
C1988 C1989 1.445 . S
C1988 C1997 1.395 . S
C1989 C1967 1.432 . S
C1989 C1988 1.445 . S
C1989 C1990 1.370 . S
C1990 C1989 1.370 . S
C1990 C1991 1.438 . S
C1990 H2052 0.930 . S
C1991 C1977 1.497 . S
C1991 C1990 1.438 . S
C1991 C1992 1.360 . S
C1992 C1991 1.360 . S
C1992 C1993 1.401 . S
C1992 C1997 1.446 . S
C1993 C1992 1.401 . S
C1993 C1994 1.347 . S
C1993 H2053 0.929 . S
C1994 C1993 1.347 . S
C1994 C1995 1.455 . S
C1994 H2054 0.930 . S
C1995 C1982 1.412 . S
C1995 C1994 1.455 . S
C1995 C1996 1.331 . S
C1996 C1985 1.451 . S
C1996 C1995 1.331 . S
C1996 C1997 1.497 . S
C1997 C1988 1.395 . S
C1997 C1992 1.446 . S
C1997 C1996 1.497 . S
C1998 C1999 1.582 . S
C1998 H2055 0.962 . S
C1998 H2056 0.959 . S
C1998 H2057 0.958 . S
C1999 C1998 1.582 . S
C1999 O2002 1.458 . S
C1999 H2028 0.980 . S
O2000 C1945 1.426 . S
O2000 C1946 1.334 . S
O2001 C1973 1.412 . S
O2001 C1974 1.393 . S
O2002 C1964 1.435 . S
O2002 C1999 1.458 . S
O2003 C1955 1.468 . S
O2003 C1956 1.408 . S
H2004 C1945 0.980 . S
H2005 C1944 0.959 . S
H2006 C1944 0.959 . S
H2007 C1944 0.960 . S
H2008 C1947 0.929 . S
H2009 C1951 0.929 . S
H2010 C1952 0.959 . S
H2011 C1952 0.961 . S
H2012 C1952 0.961 . S
H2013 C1953 0.960 . S
H2014 C1953 0.960 . S
H2015 C1953 0.961 . S
H2016 C1955 0.980 . S
H2017 C1954 0.961 . S
H2018 C1954 0.960 . S
H2019 C1954 0.959 . S
H2020 C1957 0.930 . S
H2021 C1961 0.931 . S
H2022 C1962 0.959 . S
H2023 C1962 0.961 . S
H2024 C1962 0.959 . S
H2025 C1963 0.960 . S
H2026 C1963 0.960 . S
H2027 C1963 0.960 . S
H2028 C1999 0.980 . S
H2029 C1965 0.930 . S
H2030 C1969 0.930 . S
H2031 C1970 0.961 . S
H2032 C1970 0.960 . S
H2033 C1970 0.958 . S
H2034 C1971 0.961 . S
H2035 C1971 0.960 . S
H2036 C1971 0.960 . S
H2037 C1973 0.980 . S
H2038 C1972 0.961 . S
H2039 C1972 0.961 . S
H2040 C1972 0.959 . S
H2041 C1975 0.932 . S
H2042 C1979 0.929 . S
H2043 C1980 0.961 . S
H2044 C1980 0.959 . S
H2045 C1980 0.959 . S
H2046 C1981 0.960 . S
H2047 C1981 0.962 . S
H2048 C1981 0.961 . S
H2049 C1983 0.929 . S
H2050 C1986 0.930 . S
H2051 C1987 0.929 . S
H2052 C1990 0.930 . S
H2053 C1993 0.929 . S
H2054 C1994 0.930 . S
H2055 C1998 0.962 . S
H2056 C1998 0.959 . S
H2057 C1998 0.958 . S
C2058 C2059 1.560 . S
C2058 H2119 0.959 . S
C2058 H2120 0.959 . S
C2058 H2121 0.960 . S
C2059 C2058 1.560 . S
C2059 O2114 1.426 . S
C2059 H2118 0.980 . S
C2060 C2061 1.407 . S
C2060 C2065 1.418 . S
C2060 O2114 1.334 . S
C2061 C2060 1.407 . S
C2061 C2062 1.360 . S
C2061 H2122 0.929 . S
C2062 C2061 1.360 . S
C2062 C2063 1.401 . S
C2062 C2066 1.527 . S
C2063 C2062 1.401 . S
C2063 C2064 1.405 . S
C2063 C2096 1.587 . S
C2064 C2063 1.405 . S
C2064 C2065 1.332 . S
C2064 C2067 1.496 . S
C2065 C2060 1.418 . S
C2065 C2064 1.332 . S
C2065 H2123 0.929 . S
C2066 C2062 1.527 . S
C2066 H2124 0.959 . S
C2066 H2125 0.961 . S
C2066 H2126 0.961 . S
C2067 C2064 1.496 . S
C2067 H2127 0.960 . S
C2067 H2128 0.960 . S
C2067 H2129 0.961 . S
C2068 C2069 1.517 . S
C2068 H2131 0.961 . S
C2068 H2132 0.960 . S
C2068 H2133 0.959 . S
C2069 C2068 1.517 . S
C2069 O2117 1.468 . S
C2069 H2130 0.980 . S
C2070 C2071 1.349 . S
C2070 C2075 1.367 . S
C2070 O2117 1.408 . S
C2071 C2070 1.349 . S
C2071 C2072 1.407 . S
C2071 H2134 0.930 . S
C2072 C2071 1.407 . S
C2072 C2073 1.449 . S
C2072 C2076 1.535 . S
C2073 C2072 1.449 . S
C2073 C2074 1.384 . S
C2073 C2098 1.553 . S
C2074 C2073 1.384 . S
C2074 C2075 1.364 . S
C2074 C2077 1.450 . S
C2075 C2070 1.367 . S
C2075 C2074 1.364 . S
C2075 H2135 0.931 . S
C2076 C2072 1.535 . S
C2076 H2136 0.959 . S
C2076 H2137 0.961 . S
C2076 H2138 0.959 . S
C2077 C2074 1.450 . S
C2077 H2139 0.960 . S
C2077 H2140 0.960 . S
C2077 H2141 0.960 . S
C2078 C2079 1.309 . S
C2078 C2083 1.304 . S
C2078 O2116 1.435 . S
C2079 C2078 1.309 . S
C2079 C2080 1.476 . S
C2079 H2143 0.930 . S
C2080 C2079 1.476 . S
C2080 C2081 1.400 . S
C2080 C2084 1.567 . S
C2081 C2080 1.400 . S
C2081 C2082 1.373 . S
C2081 C2103 1.432 . S
C2082 C2081 1.373 . S
C2082 C2083 1.339 . S
C2082 C2085 1.530 . S
C2083 C2078 1.304 . S
C2083 C2082 1.339 . S
C2083 H2144 0.930 . S
C2084 C2080 1.567 . S
C2084 H2145 0.961 . S
C2084 H2146 0.960 . S
C2084 H2147 0.958 . S
C2085 C2082 1.530 . S
C2085 H2148 0.961 . S
C2085 H2149 0.960 . S
C2085 H2150 0.960 . S
C2086 C2087 1.530 . S
C2086 H2152 0.961 . S
C2086 H2153 0.961 . S
C2086 H2154 0.959 . S
C2087 C2086 1.530 . S
C2087 O2115 1.412 . S
C2087 H2151 0.980 . S
C2088 C2089 1.288 . S
C2088 C2093 1.377 . S
C2088 O2115 1.393 . S
C2089 C2088 1.288 . S
C2089 C2090 1.369 . S
C2089 H2155 0.932 . S
C2090 C2089 1.369 . S
C2090 C2091 1.398 . S
C2090 C2094 1.527 . S
C2091 C2090 1.398 . S
C2091 C2092 1.380 . S
C2091 C2105 1.497 . S
C2092 C2091 1.380 . S
C2092 C2093 1.383 . S
C2092 C2095 1.603 . S
C2093 C2088 1.377 . S
C2093 C2092 1.383 . S
C2093 H2156 0.929 . S
C2094 C2090 1.527 . S
C2094 H2157 0.961 . S
C2094 H2158 0.959 . S
C2094 H2159 0.959 . S
C2095 C2092 1.603 . S
C2095 H2160 0.960 . S
C2095 H2161 0.962 . S
C2095 H2162 0.961 . S
C2096 C2063 1.587 . S
C2096 C2097 1.360 . S
C2096 C2109 1.412 . S
C2097 C2096 1.360 . S
C2097 C2098 1.365 . S
C2097 H2163 0.929 . S
C2098 C2073 1.553 . S
C2098 C2097 1.365 . S
C2098 C2099 1.404 . S
C2099 C2098 1.404 . S
C2099 C2100 1.395 . S
C2099 C2110 1.451 . S
C2100 C2099 1.395 . S
C2100 C2101 1.322 . S
C2100 H2164 0.930 . S
C2101 C2100 1.322 . S
C2101 C2102 1.459 . S
C2101 H2165 0.929 . S
C2102 C2101 1.459 . S
C2102 C2103 1.445 . S
C2102 C2111 1.395 . S
C2103 C2081 1.432 . S
C2103 C2102 1.445 . S
C2103 C2104 1.370 . S
C2104 C2103 1.370 . S
C2104 C2105 1.438 . S
C2104 H2166 0.930 . S
C2105 C2091 1.497 . S
C2105 C2104 1.438 . S
C2105 C2106 1.360 . S
C2106 C2105 1.360 . S
C2106 C2107 1.401 . S
C2106 C2111 1.446 . S
C2107 C2106 1.401 . S
C2107 C2108 1.347 . S
C2107 H2167 0.929 . S
C2108 C2107 1.347 . S
C2108 C2109 1.455 . S
C2108 H2168 0.930 . S
C2109 C2096 1.412 . S
C2109 C2108 1.455 . S
C2109 C2110 1.331 . S
C2110 C2099 1.451 . S
C2110 C2109 1.331 . S
C2110 C2111 1.497 . S
C2111 C2102 1.395 . S
C2111 C2106 1.446 . S
C2111 C2110 1.497 . S
C2112 C2113 1.582 . S
C2112 H2169 0.962 . S
C2112 H2170 0.959 . S
C2112 H2171 0.958 . S
C2113 C2112 1.582 . S
C2113 O2116 1.458 . S
C2113 H2142 0.980 . S
O2114 C2059 1.426 . S
O2114 C2060 1.334 . S
O2115 C2087 1.412 . S
O2115 C2088 1.393 . S
O2116 C2078 1.435 . S
O2116 C2113 1.458 . S
O2117 C2069 1.468 . S
O2117 C2070 1.408 . S
H2118 C2059 0.980 . S
H2119 C2058 0.959 . S
H2120 C2058 0.959 . S
H2121 C2058 0.960 . S
H2122 C2061 0.929 . S
H2123 C2065 0.929 . S
H2124 C2066 0.959 . S
H2125 C2066 0.961 . S
H2126 C2066 0.961 . S
H2127 C2067 0.960 . S
H2128 C2067 0.960 . S
H2129 C2067 0.961 . S
H2130 C2069 0.980 . S
H2131 C2068 0.961 . S
H2132 C2068 0.960 . S
H2133 C2068 0.959 . S
H2134 C2071 0.930 . S
H2135 C2075 0.931 . S
H2136 C2076 0.959 . S
H2137 C2076 0.961 . S
H2138 C2076 0.959 . S
H2139 C2077 0.960 . S
H2140 C2077 0.960 . S
H2141 C2077 0.960 . S
H2142 C2113 0.980 . S
H2143 C2079 0.930 . S
H2144 C2083 0.930 . S
H2145 C2084 0.961 . S
H2146 C2084 0.960 . S
H2147 C2084 0.958 . S
H2148 C2085 0.961 . S
H2149 C2085 0.960 . S
H2150 C2085 0.960 . S
H2151 C2087 0.980 . S
H2152 C2086 0.961 . S
H2153 C2086 0.961 . S
H2154 C2086 0.959 . S
H2155 C2089 0.932 . S
H2156 C2093 0.929 . S
H2157 C2094 0.961 . S
H2158 C2094 0.959 . S
H2159 C2094 0.959 . S
H2160 C2095 0.960 . S
H2161 C2095 0.962 . S
H2162 C2095 0.961 . S
H2163 C2097 0.929 . S
H2164 C2100 0.930 . S
H2165 C2101 0.929 . S
H2166 C2104 0.930 . S
H2167 C2107 0.929 . S
H2168 C2108 0.930 . S
H2169 C2112 0.962 . S
H2170 C2112 0.959 . S
H2171 C2112 0.958 . S
C2172 C2173 1.560 . S
C2172 H2233 0.959 . S
C2172 H2234 0.959 . S
C2172 H2235 0.960 . S
C2173 C2172 1.560 . S
C2173 O2228 1.426 . S
C2173 H2232 0.980 . S
C2174 C2175 1.407 . S
C2174 C2179 1.418 . S
C2174 O2228 1.334 . S
C2175 C2174 1.407 . S
C2175 C2176 1.360 . S
C2175 H2236 0.929 . S
C2176 C2175 1.360 . S
C2176 C2177 1.401 . S
C2176 C2180 1.527 . S
C2177 C2176 1.401 . S
C2177 C2178 1.405 . S
C2177 C2210 1.587 . S
C2178 C2177 1.405 . S
C2178 C2179 1.332 . S
C2178 C2181 1.496 . S
C2179 C2174 1.418 . S
C2179 C2178 1.332 . S
C2179 H2237 0.929 . S
C2180 C2176 1.527 . S
C2180 H2238 0.959 . S
C2180 H2239 0.961 . S
C2180 H2240 0.961 . S
C2181 C2178 1.496 . S
C2181 H2241 0.960 . S
C2181 H2242 0.960 . S
C2181 H2243 0.961 . S
C2182 C2183 1.517 . S
C2182 H2245 0.961 . S
C2182 H2246 0.960 . S
C2182 H2247 0.959 . S
C2183 C2182 1.517 . S
C2183 O2231 1.468 . S
C2183 H2244 0.980 . S
C2184 C2185 1.349 . S
C2184 C2189 1.367 . S
C2184 O2231 1.408 . S
C2185 C2184 1.349 . S
C2185 C2186 1.407 . S
C2185 H2248 0.930 . S
C2186 C2185 1.407 . S
C2186 C2187 1.449 . S
C2186 C2190 1.535 . S
C2187 C2186 1.449 . S
C2187 C2188 1.384 . S
C2187 C2212 1.553 . S
C2188 C2187 1.384 . S
C2188 C2189 1.364 . S
C2188 C2191 1.450 . S
C2189 C2184 1.367 . S
C2189 C2188 1.364 . S
C2189 H2249 0.931 . S
C2190 C2186 1.535 . S
C2190 H2250 0.959 . S
C2190 H2251 0.961 . S
C2190 H2252 0.959 . S
C2191 C2188 1.450 . S
C2191 H2253 0.960 . S
C2191 H2254 0.960 . S
C2191 H2255 0.960 . S
C2192 C2193 1.309 . S
C2192 C2197 1.304 . S
C2192 O2230 1.435 . S
C2193 C2192 1.309 . S
C2193 C2194 1.476 . S
C2193 H2257 0.930 . S
C2194 C2193 1.476 . S
C2194 C2195 1.400 . S
C2194 C2198 1.567 . S
C2195 C2194 1.400 . S
C2195 C2196 1.373 . S
C2195 C2217 1.432 . S
C2196 C2195 1.373 . S
C2196 C2197 1.339 . S
C2196 C2199 1.530 . S
C2197 C2192 1.304 . S
C2197 C2196 1.339 . S
C2197 H2258 0.930 . S
C2198 C2194 1.567 . S
C2198 H2259 0.961 . S
C2198 H2260 0.960 . S
C2198 H2261 0.958 . S
C2199 C2196 1.530 . S
C2199 H2262 0.961 . S
C2199 H2263 0.960 . S
C2199 H2264 0.960 . S
C2200 C2201 1.530 . S
C2200 H2266 0.961 . S
C2200 H2267 0.961 . S
C2200 H2268 0.959 . S
C2201 C2200 1.530 . S
C2201 O2229 1.412 . S
C2201 H2265 0.980 . S
C2202 C2203 1.288 . S
C2202 C2207 1.377 . S
C2202 O2229 1.393 . S
C2203 C2202 1.288 . S
C2203 C2204 1.369 . S
C2203 H2269 0.932 . S
C2204 C2203 1.369 . S
C2204 C2205 1.398 . S
C2204 C2208 1.527 . S
C2205 C2204 1.398 . S
C2205 C2206 1.380 . S
C2205 C2219 1.497 . S
C2206 C2205 1.380 . S
C2206 C2207 1.383 . S
C2206 C2209 1.603 . S
C2207 C2202 1.377 . S
C2207 C2206 1.383 . S
C2207 H2270 0.929 . S
C2208 C2204 1.527 . S
C2208 H2271 0.961 . S
C2208 H2272 0.959 . S
C2208 H2273 0.959 . S
C2209 C2206 1.603 . S
C2209 H2274 0.960 . S
C2209 H2275 0.962 . S
C2209 H2276 0.961 . S
C2210 C2177 1.587 . S
C2210 C2211 1.360 . S
C2210 C2223 1.412 . S
C2211 C2210 1.360 . S
C2211 C2212 1.365 . S
C2211 H2277 0.929 . S
C2212 C2187 1.553 . S
C2212 C2211 1.365 . S
C2212 C2213 1.404 . S
C2213 C2212 1.404 . S
C2213 C2214 1.395 . S
C2213 C2224 1.451 . S
C2214 C2213 1.395 . S
C2214 C2215 1.322 . S
C2214 H2278 0.930 . S
C2215 C2214 1.322 . S
C2215 C2216 1.459 . S
C2215 H2279 0.929 . S
C2216 C2215 1.459 . S
C2216 C2217 1.445 . S
C2216 C2225 1.395 . S
C2217 C2195 1.432 . S
C2217 C2216 1.445 . S
C2217 C2218 1.370 . S
C2218 C2217 1.370 . S
C2218 C2219 1.438 . S
C2218 H2280 0.930 . S
C2219 C2205 1.497 . S
C2219 C2218 1.438 . S
C2219 C2220 1.360 . S
C2220 C2219 1.360 . S
C2220 C2221 1.401 . S
C2220 C2225 1.446 . S
C2221 C2220 1.401 . S
C2221 C2222 1.347 . S
C2221 H2281 0.929 . S
C2222 C2221 1.347 . S
C2222 C2223 1.455 . S
C2222 H2282 0.930 . S
C2223 C2210 1.412 . S
C2223 C2222 1.455 . S
C2223 C2224 1.331 . S
C2224 C2213 1.451 . S
C2224 C2223 1.331 . S
C2224 C2225 1.497 . S
C2225 C2216 1.395 . S
C2225 C2220 1.446 . S
C2225 C2224 1.497 . S
C2226 C2227 1.582 . S
C2226 H2283 0.962 . S
C2226 H2284 0.959 . S
C2226 H2285 0.958 . S
C2227 C2226 1.582 . S
C2227 O2230 1.458 . S
C2227 H2256 0.980 . S
O2228 C2173 1.426 . S
O2228 C2174 1.334 . S
O2229 C2201 1.412 . S
O2229 C2202 1.393 . S
O2230 C2192 1.435 . S
O2230 C2227 1.458 . S
O2231 C2183 1.468 . S
O2231 C2184 1.408 . S
H2232 C2173 0.980 . S
H2233 C2172 0.959 . S
H2234 C2172 0.959 . S
H2235 C2172 0.960 . S
H2236 C2175 0.929 . S
H2237 C2179 0.929 . S
H2238 C2180 0.959 . S
H2239 C2180 0.961 . S
H2240 C2180 0.961 . S
H2241 C2181 0.960 . S
H2242 C2181 0.960 . S
H2243 C2181 0.961 . S
H2244 C2183 0.980 . S
H2245 C2182 0.961 . S
H2246 C2182 0.960 . S
H2247 C2182 0.959 . S
H2248 C2185 0.930 . S
H2249 C2189 0.931 . S
H2250 C2190 0.959 . S
H2251 C2190 0.961 . S
H2252 C2190 0.959 . S
H2253 C2191 0.960 . S
H2254 C2191 0.960 . S
H2255 C2191 0.960 . S
H2256 C2227 0.980 . S
H2257 C2193 0.930 . S
H2258 C2197 0.930 . S
H2259 C2198 0.961 . S
H2260 C2198 0.960 . S
H2261 C2198 0.958 . S
H2262 C2199 0.961 . S
H2263 C2199 0.960 . S
H2264 C2199 0.960 . S
H2265 C2201 0.980 . S
H2266 C2200 0.961 . S
H2267 C2200 0.961 . S
H2268 C2200 0.959 . S
H2269 C2203 0.932 . S
H2270 C2207 0.929 . S
H2271 C2208 0.961 . S
H2272 C2208 0.959 . S
H2273 C2208 0.959 . S
H2274 C2209 0.960 . S
H2275 C2209 0.962 . S
H2276 C2209 0.961 . S
H2277 C2211 0.929 . S
H2278 C2214 0.930 . S
H2279 C2215 0.929 . S
H2280 C2218 0.930 . S
H2281 C2221 0.929 . S
H2282 C2222 0.930 . S
H2283 C2226 0.962 . S
H2284 C2226 0.959 . S
H2285 C2226 0.958 . S
H2286 C2294 0.929 . S
H2287 C2296 0.930 . S
H2288 C2298 0.930 . S
H2289 C2301 0.929 . S
H2290 C2304 0.930 . S
H2291 C2306 0.960 . S
H2292 C2306 0.960 . S
H2293 C2306 0.960 1_655 S
C2294 H2286 0.929 . S
C2294 C2295 1.370 1_455 S
C2294 C2296 1.384 . S
C2295 C2294 1.370 1_655 S
C2295 C2301 1.413 . S
C2296 H2287 0.930 . S
C2296 C2294 1.384 . S
C2296 C2297 1.372 1_455 S
C2297 C2296 1.372 1_655 S
C2297 C2298 1.400 . S
C2297 C2302 1.490 . S
C2298 H2288 0.930 . S
C2298 C2297 1.400 . S
C2298 C2301 1.386 . S
H2299 C2315 0.930 . S
H2300 C2316 0.931 . S
C2301 H2289 0.929 . S
C2301 C2295 1.413 . S
C2301 C2298 1.386 . S
C2302 C2297 1.490 . S
C2302 C2304 1.395 . S
C2302 C2305 1.417 . S
H2303 C2309 0.930 . S
C2304 H2290 0.930 . S
C2304 C2302 1.395 . S
C2304 C2307 1.403 . S
C2305 C2302 1.417 . S
C2305 C2306 1.482 1_655 S
C2305 C2309 1.432 . S
C2306 H2291 0.960 . S
C2306 H2292 0.960 . S
C2306 H2293 0.960 1_455 S
C2306 C2305 1.482 1_455 S
C2307 C2304 1.403 . S
C2307 C2308 1.392 . S
C2307 C2311 1.495 . S
C2308 C2307 1.392 . S
C2308 C2309 1.385 . S
C2308 C2310 1.478 . S
C2309 H2303 0.930 . S
C2309 C2305 1.432 . S
C2309 C2308 1.385 . S
C2310 C2308 1.478 . S
C2310 C2312 1.381 1_655 S
C2310 C2316 1.383 . S
C2311 C2307 1.495 . S
C2311 H2317 0.959 . S
C2311 H2318 0.961 . S
C2311 H2319 0.943 1_655 S
C2312 C2310 1.381 1_455 S
C2312 C2313 1.394 . S
C2312 H2320 0.930 . S
C2313 C2312 1.394 . S
C2313 C2314 1.383 1_455 S
C2313 H2321 0.929 . S
C2314 C2313 1.383 1_655 S
C2314 C2315 1.377 . S
C2315 H2299 0.930 . S
C2315 C2314 1.377 . S
C2315 C2316 1.379 . S
C2316 H2300 0.931 . S
C2316 C2310 1.383 . S
C2316 C2315 1.379 . S
H2317 C2311 0.959 . S
H2318 C2311 0.961 . S
H2319 C2311 0.943 1_455 S
H2320 C2312 0.930 . S
H2321 C2313 0.929 . S
H2322 C2330 0.929 . S
H2323 C2332 0.930 . S
H2324 C2334 0.930 . S
H2325 C2337 0.929 . S
H2326 C2340 0.930 . S
H2327 C2342 0.960 . S
H2328 C2342 0.960 . S
H2329 C2342 0.960 . S
C2330 H2322 0.929 . S
C2330 C2331 1.377 . S
C2330 C2332 1.384 . S
C2331 C2330 1.377 . S
C2331 C2337 1.390 . S
C2332 H2323 0.930 . S
C2332 C2330 1.384 . S
C2332 C2333 1.372 . S
C2333 C2332 1.372 . S
C2333 C2334 1.400 . S
C2333 C2338 1.490 . S
C2334 H2324 0.930 . S
C2334 C2333 1.400 . S
C2334 C2337 1.386 . S
H2335 C2351 0.930 . S
H2336 C2352 0.931 . S
C2337 H2325 0.929 . S
C2337 C2331 1.390 . S
C2337 C2334 1.386 . S
C2338 C2333 1.490 . S
C2338 C2340 1.395 . S
C2338 C2341 1.403 . S
H2339 C2345 0.930 . S
C2340 H2326 0.930 . S
C2340 C2338 1.395 . S
C2340 C2343 1.403 . S
C2341 C2338 1.403 . S
C2341 C2342 1.524 . S
C2341 C2345 1.400 . S
C2342 H2327 0.960 . S
C2342 H2328 0.960 . S
C2342 H2329 0.960 . S
C2342 C2341 1.524 . S
C2343 C2340 1.403 . S
C2343 C2344 1.392 . S
C2343 C2347 1.495 . S
C2344 C2343 1.392 . S
C2344 C2345 1.385 . S
C2344 C2346 1.478 . S
C2345 H2339 0.930 . S
C2345 C2341 1.400 . S
C2345 C2344 1.385 . S
C2346 C2344 1.478 . S
C2346 C2348 1.381 . S
C2346 C2352 1.383 . S
C2347 C2343 1.495 . S
C2347 H2353 0.959 . S
C2347 H2354 0.961 . S
C2347 H2355 0.960 . S
C2348 C2346 1.381 . S
C2348 C2349 1.394 . S
C2348 H2356 0.930 . S
C2349 C2348 1.394 . S
C2349 C2350 1.383 . S
C2349 H2357 0.929 . S
C2350 C2349 1.383 . S
C2350 C2351 1.377 . S
C2351 H2335 0.930 . S
C2351 C2350 1.377 . S
C2351 C2352 1.379 . S
C2352 H2336 0.931 . S
C2352 C2346 1.383 . S
C2352 C2351 1.379 . S
H2353 C2347 0.959 . S
H2354 C2347 0.961 . S
H2355 C2347 0.960 . S
H2356 C2348 0.930 . S
H2357 C2349 0.929 . S
H2358 C2366 0.929 . S
H2359 C2368 0.930 . S
H2360 C2370 0.930 . S
H2361 C2373 0.929 . S
H2362 C2376 0.930 . S
H2363 C2378 0.967 . S
H2364 C2378 0.952 1_545 S
H2365 C2378 0.965 . S
C2366 H2358 0.929 . S
C2366 C2367 1.377 . S
C2366 C2368 1.384 . S
C2367 C2366 1.377 . S
C2367 C2373 1.390 1_545 S
C2368 H2359 0.930 . S
C2368 C2366 1.384 . S
C2368 C2369 1.372 . S
C2369 C2368 1.372 . S
C2369 C2370 1.400 1_545 S
C2369 C2374 1.490 . S
C2370 H2360 0.930 . S
C2370 C2369 1.400 1_565 S
C2370 C2373 1.386 . S
H2371 C2387 0.930 . S
H2372 C2388 0.931 . S
C2373 H2361 0.929 . S
C2373 C2367 1.390 1_565 S
C2373 C2370 1.386 . S
C2374 C2369 1.490 . S
C2374 C2376 1.395 . S
C2374 C2377 1.403 . S
H2375 C2381 0.930 . S
C2376 H2362 0.930 . S
C2376 C2374 1.395 . S
C2376 C2379 1.403 . S
C2377 C2374 1.403 . S
C2377 C2378 1.520 1_545 S
C2377 C2381 1.400 . S
C2378 H2363 0.967 . S
C2378 H2364 0.952 1_565 S
C2378 H2365 0.965 . S
C2378 C2377 1.520 1_565 S
C2379 C2376 1.403 . S
C2379 C2380 1.392 . S
C2379 C2383 1.495 . S
C2380 C2379 1.392 . S
C2380 C2381 1.385 . S
C2380 C2382 1.478 . S
C2381 H2375 0.930 . S
C2381 C2377 1.400 . S
C2381 C2380 1.385 . S
C2382 C2380 1.478 . S
C2382 C2384 1.381 . S
C2382 C2388 1.383 1_545 S
C2383 C2379 1.495 . S
C2383 H2389 0.959 . S
C2383 H2390 0.961 . S
C2383 H2391 0.960 . S
C2384 C2382 1.381 . S
C2384 C2385 1.394 . S
C2384 H2392 0.930 . S
C2385 C2384 1.394 . S
C2385 C2386 1.383 . S
C2385 H2393 0.929 . S
C2386 C2385 1.383 . S
C2386 C2387 1.377 1_545 S
C2387 H2371 0.930 . S
C2387 C2386 1.377 1_565 S
C2387 C2388 1.379 . S
C2388 H2372 0.931 . S
C2388 C2382 1.383 1_565 S
C2388 C2387 1.379 . S
H2389 C2383 0.959 . S
H2390 C2383 0.961 . S
H2391 C2383 0.960 . S
H2392 C2384 0.930 . S
H2393 C2385 0.929 . S
H2394 C2402 0.929 . S
H2395 C2404 0.930 . S
H2396 C2406 0.930 . S
H2397 C2409 0.929 . S
H2398 C2412 0.930 . S
H2399 C2414 0.960 . S
H2400 C2414 0.960 . S
H2401 C2414 0.960 . S
C2402 H2394 0.929 . S
C2402 C2403 1.377 1_545 S
C2402 C2404 1.384 . S
C2403 C2402 1.377 1_565 S
C2403 C2409 1.390 . S
C2404 H2395 0.930 . S
C2404 C2402 1.384 . S
C2404 C2405 1.372 1_545 S
C2405 C2404 1.372 1_565 S
C2405 C2406 1.400 . S
C2405 C2410 1.490 . S
C2406 H2396 0.930 . S
C2406 C2405 1.400 . S
C2406 C2409 1.386 . S
H2407 C2423 0.930 . S
H2408 C2424 0.931 . S
C2409 H2397 0.929 . S
C2409 C2403 1.390 . S
C2409 C2406 1.386 . S
C2410 C2405 1.490 . S
C2410 C2412 1.395 1_565 S
C2410 C2413 1.403 . S
H2411 C2417 0.930 . S
C2412 H2398 0.930 . S
C2412 C2410 1.395 1_545 S
C2412 C2415 1.403 . S
C2413 C2410 1.403 . S
C2413 C2414 1.524 . S
C2413 C2417 1.400 . S
C2414 H2399 0.960 . S
C2414 H2400 0.960 . S
C2414 H2401 0.960 . S
C2414 C2413 1.524 . S
C2415 C2412 1.403 . S
C2415 C2416 1.392 1_545 S
C2415 C2419 1.495 . S
C2416 C2415 1.392 1_565 S
C2416 C2417 1.385 . S
C2416 C2418 1.478 . S
C2417 H2411 0.930 . S
C2417 C2413 1.400 . S
C2417 C2416 1.385 . S
C2418 C2416 1.478 . S
C2418 C2420 1.381 1_565 S
C2418 C2424 1.383 . S
C2419 C2415 1.495 . S
C2419 H2425 0.959 . S
C2419 H2426 0.961 . S
C2419 H2427 0.960 . S
C2420 C2418 1.381 1_545 S
C2420 C2421 1.394 . S
C2420 H2428 0.930 . S
C2421 C2420 1.394 . S
C2421 C2422 1.383 1_545 S
C2421 H2429 0.929 . S
C2422 C2421 1.383 1_565 S
C2422 C2423 1.377 . S
C2423 H2407 0.930 . S
C2423 C2422 1.377 . S
C2423 C2424 1.379 . S
C2424 H2408 0.931 . S
C2424 C2418 1.383 . S
C2424 C2423 1.379 . S
H2425 C2419 0.959 . S
H2426 C2419 0.961 . S
H2427 C2419 0.960 . S
H2428 C2420 0.930 . S
H2429 C2421 0.929 . S
H2430 C2438 0.929 . S
H2431 C2440 0.930 . S
H2432 C2442 0.930 . S
H2433 C2445 0.929 . S
H2434 C2448 0.930 . S
H2435 C2450 0.960 . S
H2436 C2450 0.960 . S
H2437 C2450 0.960 . S
C2438 H2430 0.929 . S
C2438 C2439 1.377 . S
C2438 C2440 1.384 . S
C2439 C2438 1.377 . S
C2439 C2445 1.390 1_455 S
C2440 H2431 0.930 . S
C2440 C2438 1.384 . S
C2440 C2441 1.372 . S
C2441 C2440 1.372 . S
C2441 C2442 1.400 1_455 S
C2441 C2446 1.490 . S
C2442 H2432 0.930 . S
C2442 C2441 1.400 1_655 S
C2442 C2445 1.386 . S
H2443 C2459 0.930 . S
H2444 C2460 0.931 . S
C2445 H2433 0.929 . S
C2445 C2439 1.390 1_655 S
C2445 C2442 1.386 . S
C2446 C2441 1.490 . S
C2446 C2448 1.395 . S
C2446 C2449 1.403 . S
H2447 C2453 0.930 . S
C2448 H2434 0.930 . S
C2448 C2446 1.395 . S
C2448 C2451 1.403 . S
C2449 C2446 1.403 . S
C2449 C2450 1.524 . S
C2449 C2453 1.400 . S
C2450 H2435 0.960 . S
C2450 H2436 0.960 . S
C2450 H2437 0.960 . S
C2450 C2449 1.524 . S
C2451 C2448 1.403 . S
C2451 C2452 1.392 . S
C2451 C2455 1.495 . S
C2452 C2451 1.392 . S
C2452 C2453 1.385 . S
C2452 C2454 1.478 . S
C2453 H2447 0.930 . S
C2453 C2449 1.400 . S
C2453 C2452 1.385 . S
C2454 C2452 1.478 . S
C2454 C2456 1.381 . S
C2454 C2460 1.383 1_455 S
C2455 C2451 1.495 . S
C2455 H2461 0.959 . S
C2455 H2462 0.961 1_455 S
C2455 H2463 0.960 . S
C2456 C2454 1.381 . S
C2456 C2457 1.394 . S
C2456 H2464 0.930 . S
C2457 C2456 1.394 . S
C2457 C2458 1.383 . S
C2457 H2465 0.929 . S
C2458 C2457 1.383 . S
C2458 C2459 1.377 1_455 S
C2459 H2443 0.930 . S
C2459 C2458 1.377 1_655 S
C2459 C2460 1.379 . S
C2460 H2444 0.931 . S
C2460 C2454 1.383 1_655 S
C2460 C2459 1.379 . S
H2461 C2455 0.959 . S
H2462 C2455 0.961 1_655 S
H2463 C2455 0.960 . S
H2464 C2456 0.930 . S
H2465 C2457 0.929 . S
H2466 C2474 0.929 . S
H2467 C2476 0.930 . S
H2468 C2478 0.930 . S
H2469 C2481 0.929 . S
H2470 C2484 0.930 . S
H2471 C2486 0.960 . S
H2472 C2486 0.960 . S
H2473 C2486 0.960 . S
C2474 H2466 0.929 . S
C2474 C2475 1.377 . S
C2474 C2476 1.384 . S
C2475 C2474 1.377 . S
C2475 C2481 1.390 . S
C2476 H2467 0.930 . S
C2476 C2474 1.384 . S
C2476 C2477 1.372 . S
C2477 C2476 1.372 . S
C2477 C2478 1.400 . S
C2477 C2482 1.490 . S
C2478 H2468 0.930 . S
C2478 C2477 1.400 . S
C2478 C2481 1.386 . S
H2479 C2495 0.930 . S
H2480 C2496 0.931 . S
C2481 H2469 0.929 . S
C2481 C2475 1.390 . S
C2481 C2478 1.386 . S
C2482 C2477 1.490 . S
C2482 C2484 1.395 . S
C2482 C2485 1.403 . S
H2483 C2489 0.930 . S
C2484 H2470 0.930 . S
C2484 C2482 1.395 . S
C2484 C2487 1.403 . S
C2485 C2482 1.403 . S
C2485 C2486 1.524 . S
C2485 C2489 1.400 . S
C2486 H2471 0.960 . S
C2486 H2472 0.960 . S
C2486 H2473 0.960 . S
C2486 C2485 1.524 . S
C2487 C2484 1.403 . S
C2487 C2488 1.392 . S
C2487 C2491 1.495 . S
C2488 C2487 1.392 . S
C2488 C2489 1.385 . S
C2488 C2490 1.478 . S
C2489 H2483 0.930 . S
C2489 C2485 1.400 . S
C2489 C2488 1.385 . S
C2490 C2488 1.478 . S
C2490 C2492 1.381 . S
C2490 C2496 1.383 . S
C2491 C2487 1.495 . S
C2491 H2497 0.959 . S
C2491 H2498 0.961 . S
C2491 H2499 0.960 . S
C2492 C2490 1.381 . S
C2492 C2493 1.394 . S
C2492 H2500 0.930 . S
C2493 C2492 1.394 . S
C2493 C2494 1.383 . S
C2493 H2501 0.929 . S
C2494 C2493 1.383 . S
C2494 C2495 1.377 . S
C2495 H2479 0.930 . S
C2495 C2494 1.377 . S
C2495 C2496 1.379 . S
C2496 H2480 0.931 . S
C2496 C2490 1.383 . S
C2496 C2495 1.379 . S
H2497 C2491 0.959 . S
H2498 C2491 0.961 . S
H2499 C2491 0.960 . S
H2500 C2492 0.930 . S
H2501 C2493 0.929 . S
H2502 C2510 0.929 . S
H2503 C2512 0.930 . S
H2504 C2514 0.930 . S
H2505 C2517 0.929 . S
H2506 C2520 0.930 . S
H2507 C2522 0.960 . S
H2508 C2522 0.960 1_655 S
H2509 C2522 0.960 . S
C2510 H2502 0.929 . S
C2510 C2511 1.377 1_655 S
C2510 C2512 1.384 . S
C2511 C2510 1.377 1_455 S
C2511 C2517 1.390 . S
C2512 H2503 0.930 . S
C2512 C2510 1.384 . S
C2512 C2513 1.372 1_655 S
C2513 C2512 1.372 1_455 S
C2513 C2514 1.400 . S
C2513 C2518 1.490 . S
C2514 H2504 0.930 . S
C2514 C2513 1.400 . S
C2514 C2517 1.386 . S
H2515 C2531 0.930 . S
H2516 C2532 0.931 . S
C2517 H2505 0.929 . S
C2517 C2511 1.390 . S
C2517 C2514 1.386 . S
C2518 C2513 1.490 . S
C2518 C2520 1.395 1_455 S
C2518 C2521 1.403 . S
H2519 C2525 0.930 . S
C2520 H2506 0.930 . S
C2520 C2518 1.395 1_655 S
C2520 C2523 1.403 . S
C2521 C2518 1.403 . S
C2521 C2522 1.524 . S
C2521 C2525 1.400 . S
C2522 H2507 0.960 . S
C2522 H2508 0.960 1_455 S
C2522 H2509 0.960 . S
C2522 C2521 1.524 . S
C2523 C2520 1.403 . S
C2523 C2524 1.346 1_655 S
C2523 C2527 1.495 . S
C2524 C2523 1.346 1_455 S
C2524 C2525 1.410 . S
C2524 C2526 1.473 . S
C2525 H2519 0.930 . S
C2525 C2521 1.400 . S
C2525 C2524 1.410 . S
C2526 C2524 1.473 . S
C2526 C2528 1.330 1_455 S
C2526 C2532 1.469 . S
C2527 C2523 1.495 . S
C2527 H2533 0.959 . S
C2527 H2534 0.961 1_655 S
C2527 H2535 0.960 . S
C2528 C2526 1.330 1_655 S
C2528 C2529 1.394 . S
C2528 H2536 0.930 . S
C2529 C2528 1.394 . S
C2529 C2530 1.292 1_655 S
C2529 H2537 0.929 . S
C2530 C2529 1.292 1_455 S
C2530 C2531 1.435 . S
C2531 H2515 0.930 . S
C2531 C2530 1.435 . S
C2531 C2532 1.379 . S
C2532 H2516 0.931 . S
C2532 C2526 1.469 . S
C2532 C2531 1.379 . S
H2533 C2527 0.959 . S
H2534 C2527 0.961 1_455 S
H2535 C2527 0.960 . S
H2536 C2528 0.930 . S
H2537 C2529 0.929 . S
H2538 C2546 0.929 . S
H2539 C2548 0.930 . S
H2540 C2550 0.930 . S
H2541 C2553 0.929 . S
H2542 C2556 0.930 . S
H2543 C2558 0.960 . S
H2544 C2558 0.960 . S
H2545 C2558 0.960 . S
C2546 H2538 0.929 . S
C2546 C2547 1.377 . S
C2546 C2548 1.384 . S
C2547 C2546 1.377 . S
C2547 C2553 1.390 . S
C2548 H2539 0.930 . S
C2548 C2546 1.384 . S
C2548 C2549 1.372 . S
C2549 C2548 1.372 . S
C2549 C2550 1.400 . S
C2549 C2554 1.490 . S
C2550 H2540 0.930 . S
C2550 C2549 1.400 . S
C2550 C2553 1.386 . S
H2551 C2567 0.930 . S
H2552 C2568 0.931 . S
C2553 H2541 0.929 . S
C2553 C2547 1.390 . S
C2553 C2550 1.386 . S
C2554 C2549 1.490 . S
C2554 C2556 1.395 . S
C2554 C2557 1.403 . S
H2555 C2561 0.930 . S
C2556 H2542 0.930 . S
C2556 C2554 1.395 . S
C2556 C2559 1.403 . S
C2557 C2554 1.403 . S
C2557 C2558 1.524 . S
C2557 C2561 1.400 . S
C2558 H2543 0.960 . S
C2558 H2544 0.960 . S
C2558 H2545 0.960 . S
C2558 C2557 1.524 . S
C2559 C2556 1.403 . S
C2559 C2560 1.392 . S
C2559 C2563 1.495 . S
C2560 C2559 1.392 . S
C2560 C2561 1.385 . S
C2560 C2562 1.478 . S
C2561 H2555 0.930 . S
C2561 C2557 1.400 . S
C2561 C2560 1.385 . S
C2562 C2560 1.478 . S
C2562 C2564 1.381 . S
C2562 C2568 1.383 . S
C2563 C2559 1.495 . S
C2563 H2569 0.959 . S
C2563 H2570 0.961 . S
C2563 H2571 0.960 . S
C2564 C2562 1.381 . S
C2564 C2565 1.394 . S
C2564 H2572 0.930 . S
C2565 C2564 1.394 . S
C2565 C2566 1.383 . S
C2565 H2573 0.929 . S
C2566 C2565 1.383 . S
C2566 C2567 1.377 . S
C2567 H2551 0.930 . S
C2567 C2566 1.377 . S
C2567 C2568 1.379 . S
C2568 H2552 0.931 . S
C2568 C2562 1.383 . S
C2568 C2567 1.379 . S
H2569 C2563 0.959 . S
H2570 C2563 0.961 . S
H2571 C2563 0.960 . S
H2572 C2564 0.930 . S
H2573 C2565 0.929 . S
H2574 C2582 0.929 . S
H2575 C2584 0.930 . S
H2576 C2586 0.930 . S
H2577 C2589 0.929 . S
H2578 C2592 0.930 . S
H2579 C2594 0.960 . S
H2580 C2594 0.974 . S
H2581 C2594 0.960 . S
C2582 H2574 0.929 . S
C2582 C2583 1.377 1_545 S
C2582 C2584 1.384 . S
C2583 C2582 1.377 1_565 S
C2583 C2589 1.390 . S
C2584 H2575 0.930 . S
C2584 C2582 1.384 . S
C2584 C2585 1.372 1_545 S
C2585 C2584 1.372 1_565 S
C2585 C2586 1.400 . S
C2585 C2590 1.490 . S
C2586 H2576 0.930 . S
C2586 C2585 1.400 . S
C2586 C2589 1.386 . S
H2587 C2603 0.930 . S
H2588 C2604 0.931 . S
C2589 H2577 0.929 . S
C2589 C2583 1.390 . S
C2589 C2586 1.386 . S
C2590 C2585 1.490 . S
C2590 C2592 1.395 1_565 S
C2590 C2593 1.403 . S
H2591 C2597 0.930 . S
C2592 H2578 0.930 . S
C2592 C2590 1.395 1_545 S
C2592 C2595 1.403 . S
C2593 C2590 1.403 . S
C2593 C2594 1.524 . S
C2593 C2597 1.400 . S
C2594 H2579 0.960 . S
C2594 H2580 0.974 . S
C2594 H2581 0.960 . S
C2594 C2593 1.524 . S
C2595 C2592 1.403 . S
C2595 C2596 1.406 1_545 S
C2595 C2599 1.495 . S
C2596 C2595 1.406 1_565 S
C2596 C2597 1.389 . S
C2596 C2598 1.481 . S
C2597 H2591 0.930 . S
C2597 C2593 1.400 . S
C2597 C2596 1.389 . S
C2598 C2596 1.481 . S
C2598 C2600 1.330 1_565 S
C2598 C2604 1.414 . S
C2599 C2595 1.495 . S
C2599 H2605 0.959 . S
C2599 H2606 0.924 1_545 S
C2599 H2607 0.960 . S
C2600 C2598 1.330 1_545 S
C2600 C2601 1.394 . S
C2600 H2608 0.930 . S
C2601 C2600 1.394 . S
C2601 C2602 1.342 1_545 S
C2601 H2609 0.929 . S
C2602 C2601 1.342 1_565 S
C2602 C2603 1.449 . S
C2603 H2587 0.930 . S
C2603 C2602 1.449 . S
C2603 C2604 1.379 . S
C2604 H2588 0.931 . S
C2604 C2598 1.414 . S
C2604 C2603 1.379 . S
H2605 C2599 0.959 . S
H2606 C2599 0.924 1_565 S
H2607 C2599 0.960 . S
H2608 C2600 0.930 . S
H2609 C2601 0.929 . S
H2610 C2618 0.929 . S
H2611 C2620 0.930 . S
H2612 C2622 0.930 . S
H2613 C2625 0.929 . S
H2614 C2628 0.930 . S
H2615 C2630 0.960 . S
H2616 C2630 0.960 . S
H2617 C2630 0.960 . S
C2618 H2610 0.929 . S
C2618 C2619 1.377 . S
C2618 C2620 1.384 . S
C2619 C2618 1.377 . S
C2619 C2625 1.390 1_545 S
C2620 H2611 0.930 . S
C2620 C2618 1.384 . S
C2620 C2621 1.372 . S
C2621 C2620 1.372 . S
C2621 C2622 1.400 1_545 S
C2621 C2626 1.490 . S
C2622 H2612 0.930 . S
C2622 C2621 1.400 1_565 S
C2622 C2625 1.386 . S
H2623 C2639 0.930 . S
H2624 C2640 0.931 . S
C2625 H2613 0.929 . S
C2625 C2619 1.390 1_565 S
C2625 C2622 1.386 . S
C2626 C2621 1.490 . S
C2626 C2628 1.395 1_545 S
C2626 C2629 1.403 . S
H2627 C2633 0.930 . S
C2628 H2614 0.930 . S
C2628 C2626 1.395 1_565 S
C2628 C2631 1.403 . S
C2629 C2626 1.403 . S
C2629 C2630 1.524 . S
C2629 C2633 1.400 . S
C2630 H2615 0.960 . S
C2630 H2616 0.960 . S
C2630 H2617 0.960 . S
C2630 C2629 1.524 . S
C2631 C2628 1.403 . S
C2631 C2632 1.392 1_565 S
C2631 C2635 1.495 . S
C2632 C2631 1.392 1_545 S
C2632 C2633 1.385 . S
C2632 C2634 1.459 . S
C2633 H2627 0.930 . S
C2633 C2629 1.400 . S
C2633 C2632 1.385 . S
C2634 C2632 1.459 . S
C2634 C2636 1.452 . S
C2634 C2640 1.336 1_545 S
C2635 C2631 1.495 . S
C2635 H2641 0.959 . S
C2635 H2642 0.961 . S
C2635 H2643 0.897 1_565 S
C2636 C2634 1.452 . S
C2636 C2637 1.394 . S
C2636 H2644 0.930 . S
C2637 C2636 1.394 . S
C2637 C2638 1.422 . S
C2637 H2645 0.929 . S
C2638 C2637 1.422 . S
C2638 C2639 1.322 1_545 S
C2639 H2623 0.930 . S
C2639 C2638 1.322 1_565 S
C2639 C2640 1.379 . S
C2640 H2624 0.931 . S
C2640 C2634 1.336 1_565 S
C2640 C2639 1.379 . S
H2641 C2635 0.959 . S
H2642 C2635 0.961 . S
H2643 C2635 0.897 1_545 S
H2644 C2636 0.930 . S
H2645 C2637 0.929 . S
H2646 C2654 0.929 . S
H2647 C2656 0.930 . S
H2648 C2658 0.930 . S
H2649 C2661 0.929 . S
H2650 C2664 0.930 . S
H2651 C2666 0.960 . S
H2652 C2666 0.960 . S
H2653 C2666 0.960 . S
C2654 H2646 0.929 . S
C2654 C2655 1.377 1_455 S
C2654 C2656 1.384 . S
C2655 C2654 1.377 1_655 S
C2655 C2661 1.390 . S
C2656 H2647 0.930 . S
C2656 C2654 1.384 . S
C2656 C2657 1.372 1_455 S
C2657 C2656 1.372 1_655 S
C2657 C2658 1.400 . S
C2657 C2662 1.490 . S
C2658 H2648 0.930 . S
C2658 C2657 1.400 . S
C2658 C2661 1.386 . S
H2659 C2675 0.930 . S
H2660 C2676 0.931 . S
C2661 H2649 0.929 . S
C2661 C2655 1.390 . S
C2661 C2658 1.386 . S
C2662 C2657 1.490 . S
C2662 C2664 1.395 1_655 S
C2662 C2665 1.403 . S
H2663 C2669 0.930 . S
C2664 H2650 0.930 . S
C2664 C2662 1.395 1_455 S
C2664 C2667 1.403 . S
C2665 C2662 1.403 . S
C2665 C2666 1.524 . S
C2665 C2669 1.400 . S
C2666 H2651 0.960 . S
C2666 H2652 0.960 . S
C2666 H2653 0.960 . S
C2666 C2665 1.524 . S
C2667 C2664 1.403 . S
C2667 C2668 1.416 . S
C2667 C2671 1.495 . S
C2668 C2667 1.416 . S
C2668 C2669 1.337 1_455 S
C2668 C2670 1.477 . S
C2669 H2663 0.930 . S
C2669 C2665 1.400 . S
C2669 C2668 1.337 1_655 S
C2670 C2668 1.477 . S
C2670 C2672 1.460 . S
C2670 C2676 1.331 1_455 S
C2671 C2667 1.495 . S
C2671 H2677 0.959 . S
C2671 H2678 0.961 . S
C2671 H2679 0.960 . S
C2672 C2670 1.460 . S
C2672 C2673 1.394 . S
C2672 H2680 0.930 . S
C2673 C2672 1.394 . S
C2673 C2674 1.358 1_455 S
C2673 H2681 0.929 . S
C2674 C2673 1.358 1_655 S
C2674 C2675 1.414 . S
C2675 H2659 0.930 . S
C2675 C2674 1.414 . S
C2675 C2676 1.379 . S
C2676 H2660 0.931 . S
C2676 C2670 1.331 1_655 S
C2676 C2675 1.379 . S
H2677 C2671 0.959 . S
H2678 C2671 0.961 . S
H2679 C2671 0.960 . S
H2680 C2672 0.930 . S
H2681 C2673 0.929 . S
H2682 C2690 0.929 . S
H2683 C2692 0.930 . S
H2684 C2694 0.930 . S
H2685 C2697 0.929 . S
H2686 C2700 0.930 . S
H2687 C2702 0.960 . S
H2688 C2702 0.960 . S
H2689 C2702 0.960 . S
C2690 H2682 0.929 . S
C2690 C2691 1.377 . S
C2690 C2692 1.384 . S
C2691 C2690 1.377 . S
C2691 C2697 1.390 . S
C2692 H2683 0.930 . S
C2692 C2690 1.384 . S
C2692 C2693 1.372 . S
C2693 C2692 1.372 . S
C2693 C2694 1.400 . S
C2693 C2698 1.490 . S
C2694 H2684 0.930 . S
C2694 C2693 1.400 . S
C2694 C2697 1.386 . S
H2695 C2711 0.930 . S
H2696 C2712 0.931 . S
C2697 H2685 0.929 . S
C2697 C2691 1.390 . S
C2697 C2694 1.386 . S
C2698 C2693 1.490 . S
C2698 C2700 1.395 . S
C2698 C2701 1.403 . S
H2699 C2705 0.930 . S
C2700 H2686 0.930 . S
C2700 C2698 1.395 . S
C2700 C2703 1.403 . S
C2701 C2698 1.403 . S
C2701 C2702 1.524 . S
C2701 C2705 1.400 . S
C2702 H2687 0.960 . S
C2702 H2688 0.960 . S
C2702 H2689 0.960 . S
C2702 C2701 1.524 . S
C2703 C2700 1.403 . S
C2703 C2704 1.392 . S
C2703 C2707 1.495 . S
C2704 C2703 1.392 . S
C2704 C2705 1.385 . S
C2704 C2706 1.478 . S
C2705 H2699 0.930 . S
C2705 C2701 1.400 . S
C2705 C2704 1.385 . S
C2706 C2704 1.478 . S
C2706 C2708 1.381 . S
C2706 C2712 1.383 . S
C2707 C2703 1.495 . S
C2707 H2713 0.959 . S
C2707 H2714 0.961 . S
C2707 H2715 0.960 . S
C2708 C2706 1.381 . S
C2708 C2709 1.394 . S
C2708 H2716 0.930 . S
C2709 C2708 1.394 . S
C2709 C2710 1.383 . S
C2709 H2717 0.929 . S
C2710 C2709 1.383 . S
C2710 C2711 1.377 . S
C2711 H2695 0.930 . S
C2711 C2710 1.377 . S
C2711 C2712 1.379 . S
C2712 H2696 0.931 . S
C2712 C2706 1.383 . S
C2712 C2711 1.379 . S
H2713 C2707 0.959 . S
H2714 C2707 0.961 . S
H2715 C2707 0.960 . S
H2716 C2708 0.930 . S
H2717 C2709 0.929 . S
H2718 C2726 0.929 . S
H2719 C2728 0.930 . S
H2720 C2730 0.930 . S
H2721 C2733 0.929 . S
H2722 C2736 0.930 . S
H2723 C2738 0.960 . S
H2724 C2738 0.960 . S
H2725 C2738 0.960 . S
C2726 H2718 0.929 . S
C2726 C2727 1.377 . S
C2726 C2728 1.384 . S
C2727 C2726 1.377 . S
C2727 C2733 1.390 . S
C2728 H2719 0.930 . S
C2728 C2726 1.384 . S
C2728 C2729 1.372 . S
C2729 C2728 1.372 . S
C2729 C2730 1.400 . S
C2729 C2734 1.490 . S
C2730 H2720 0.930 . S
C2730 C2729 1.400 . S
C2730 C2733 1.386 . S
H2731 C2747 0.930 . S
H2732 C2748 0.931 . S
C2733 H2721 0.929 . S
C2733 C2727 1.390 . S
C2733 C2730 1.386 . S
C2734 C2729 1.490 . S
C2734 C2736 1.395 . S
C2734 C2737 1.403 . S
H2735 C2741 0.930 . S
C2736 H2722 0.930 . S
C2736 C2734 1.395 . S
C2736 C2739 1.403 . S
C2737 C2734 1.403 . S
C2737 C2738 1.524 . S
C2737 C2741 1.400 . S
C2738 H2723 0.960 . S
C2738 H2724 0.960 . S
C2738 H2725 0.960 . S
C2738 C2737 1.524 . S
C2739 C2736 1.403 . S
C2739 C2740 1.392 . S
C2739 C2743 1.495 . S
C2740 C2739 1.392 . S
C2740 C2741 1.385 . S
C2740 C2742 1.478 . S
C2741 H2735 0.930 . S
C2741 C2737 1.400 . S
C2741 C2740 1.385 . S
C2742 C2740 1.478 . S
C2742 C2744 1.381 . S
C2742 C2748 1.383 . S
C2743 C2739 1.495 . S
C2743 H2749 0.959 . S
C2743 H2750 0.961 . S
C2743 H2751 0.960 . S
C2744 C2742 1.381 . S
C2744 C2745 1.394 . S
C2744 H2752 0.930 . S
C2745 C2744 1.394 . S
C2745 C2746 1.383 . S
C2745 H2753 0.929 . S
C2746 C2745 1.383 . S
C2746 C2747 1.377 . S
C2747 H2731 0.930 . S
C2747 C2746 1.377 . S
C2747 C2748 1.379 . S
C2748 H2732 0.931 . S
C2748 C2742 1.383 . S
C2748 C2747 1.379 . S
H2749 C2743 0.959 . S
H2750 C2743 0.961 . S
H2751 C2743 0.960 . S
H2752 C2744 0.930 . S
H2753 C2745 0.929 . S
H2754 C2762 0.929 . S
H2755 C2764 0.930 . S
H2756 C2766 0.930 . S
H2757 C2769 0.929 . S
H2758 C2772 0.930 . S
H2759 C2774 0.960 . S
H2760 C2774 0.960 . S
H2761 C2774 0.960 . S
C2762 H2754 0.929 . S
C2762 C2763 1.377 . S
C2762 C2764 1.384 . S
C2763 C2762 1.377 . S
C2763 C2769 1.390 . S
C2764 H2755 0.930 . S
C2764 C2762 1.384 . S
C2764 C2765 1.372 . S
C2765 C2764 1.372 . S
C2765 C2766 1.400 . S
C2765 C2770 1.490 . S
C2766 H2756 0.930 . S
C2766 C2765 1.400 . S
C2766 C2769 1.386 . S
H2767 C2783 0.930 . S
H2768 C2784 0.931 . S
C2769 H2757 0.929 . S
C2769 C2763 1.390 . S
C2769 C2766 1.386 . S
C2770 C2765 1.490 . S
C2770 C2772 1.395 . S
C2770 C2773 1.403 . S
H2771 C2777 0.930 . S
C2772 H2758 0.930 . S
C2772 C2770 1.395 . S
C2772 C2775 1.403 . S
C2773 C2770 1.403 . S
C2773 C2774 1.524 . S
C2773 C2777 1.400 . S
C2774 H2759 0.960 . S
C2774 H2760 0.960 . S
C2774 H2761 0.960 . S
C2774 C2773 1.524 . S
C2775 C2772 1.403 . S
C2775 C2776 1.392 . S
C2775 C2779 1.495 . S
C2776 C2775 1.392 . S
C2776 C2777 1.385 . S
C2776 C2778 1.478 . S
C2777 H2771 0.930 . S
C2777 C2773 1.400 . S
C2777 C2776 1.385 . S
C2778 C2776 1.478 . S
C2778 C2780 1.381 . S
C2778 C2784 1.383 . S
C2779 C2775 1.495 . S
C2779 H2785 0.959 . S
C2779 H2786 0.961 . S
C2779 H2787 0.960 . S
C2780 C2778 1.381 . S
C2780 C2781 1.394 . S
C2780 H2788 0.930 . S
C2781 C2780 1.394 . S
C2781 C2782 1.383 . S
C2781 H2789 0.929 . S
C2782 C2781 1.383 . S
C2782 C2783 1.377 . S
C2783 H2767 0.930 . S
C2783 C2782 1.377 . S
C2783 C2784 1.379 . S
C2784 H2768 0.931 . S
C2784 C2778 1.383 . S
C2784 C2783 1.379 . S
H2785 C2779 0.959 . S
H2786 C2779 0.961 . S
H2787 C2779 0.960 . S
H2788 C2780 0.930 . S
H2789 C2781 0.929 . S
H2790 C2798 0.929 . S
H2791 C2800 0.930 . S
H2792 C2802 0.930 . S
H2793 C2805 0.929 . S
H2794 C2808 0.930 . S
H2795 C2810 0.960 . S
H2796 C2810 0.960 . S
H2797 C2810 0.960 . S
C2798 H2790 0.929 . S
C2798 C2799 1.377 . S
C2798 C2800 1.384 . S
C2799 C2798 1.377 . S
C2799 C2805 1.390 . S
C2800 H2791 0.930 . S
C2800 C2798 1.384 . S
C2800 C2801 1.372 . S
C2801 C2800 1.372 . S
C2801 C2802 1.400 . S
C2801 C2806 1.490 . S
C2802 H2792 0.930 . S
C2802 C2801 1.400 . S
C2802 C2805 1.386 . S
H2803 C2819 0.930 . S
H2804 C2820 0.931 . S
C2805 H2793 0.929 . S
C2805 C2799 1.390 . S
C2805 C2802 1.386 . S
C2806 C2801 1.490 . S
C2806 C2808 1.395 . S
C2806 C2809 1.403 . S
H2807 C2813 0.930 . S
C2808 H2794 0.930 . S
C2808 C2806 1.395 . S
C2808 C2811 1.403 . S
C2809 C2806 1.403 . S
C2809 C2810 1.524 . S
C2809 C2813 1.400 . S
C2810 H2795 0.960 . S
C2810 H2796 0.960 . S
C2810 H2797 0.960 . S
C2810 C2809 1.524 . S
C2811 C2808 1.403 . S
C2811 C2812 1.392 . S
C2811 C2815 1.495 . S
C2812 C2811 1.392 . S
C2812 C2813 1.385 . S
C2812 C2814 1.478 . S
C2813 H2807 0.930 . S
C2813 C2809 1.400 . S
C2813 C2812 1.385 . S
C2814 C2812 1.478 . S
C2814 C2816 1.381 . S
C2814 C2820 1.383 . S
C2815 C2811 1.495 . S
C2815 H2821 0.959 . S
C2815 H2822 0.961 . S
C2815 H2823 0.960 . S
C2816 C2814 1.381 . S
C2816 C2817 1.394 . S
C2816 H2824 0.930 . S
C2817 C2816 1.394 . S
C2817 C2818 1.383 . S
C2817 H2825 0.929 . S
C2818 C2817 1.383 . S
C2818 C2819 1.377 . S
C2819 H2803 0.930 . S
C2819 C2818 1.377 . S
C2819 C2820 1.379 . S
C2820 H2804 0.931 . S
C2820 C2814 1.383 . S
C2820 C2819 1.379 . S
H2821 C2815 0.959 . S
H2822 C2815 0.961 . S
H2823 C2815 0.960 . S
H2824 C2816 0.930 . S
H2825 C2817 0.929 . S
H2826 C2834 0.929 . S
H2827 C2836 0.930 . S
H2828 C2838 0.930 . S
H2829 C2841 0.929 . S
H2830 C2844 0.930 . S
H2831 C2846 0.960 . S
H2832 C2846 0.960 . S
H2833 C2846 0.960 . S
C2834 H2826 0.929 . S
C2834 C2835 1.377 . S
C2834 C2836 1.384 . S
C2835 C2834 1.377 . S
C2835 C2841 1.390 . S
C2836 H2827 0.930 . S
C2836 C2834 1.384 . S
C2836 C2837 1.372 . S
C2837 C2836 1.372 . S
C2837 C2838 1.400 . S
C2837 C2842 1.490 . S
C2838 H2828 0.930 . S
C2838 C2837 1.400 . S
C2838 C2841 1.386 . S
H2839 C2855 0.930 . S
H2840 C2856 0.931 . S
C2841 H2829 0.929 . S
C2841 C2835 1.390 . S
C2841 C2838 1.386 . S
C2842 C2837 1.490 . S
C2842 C2844 1.395 . S
C2842 C2845 1.403 . S
H2843 C2849 0.930 . S
C2844 H2830 0.930 . S
C2844 C2842 1.395 . S
C2844 C2847 1.403 . S
C2845 C2842 1.403 . S
C2845 C2846 1.524 . S
C2845 C2849 1.400 . S
C2846 H2831 0.960 . S
C2846 H2832 0.960 . S
C2846 H2833 0.960 . S
C2846 C2845 1.524 . S
C2847 C2844 1.403 . S
C2847 C2848 1.392 . S
C2847 C2851 1.495 . S
C2848 C2847 1.392 . S
C2848 C2849 1.385 . S
C2848 C2850 1.478 . S
C2849 H2843 0.930 . S
C2849 C2845 1.400 . S
C2849 C2848 1.385 . S
C2850 C2848 1.478 . S
C2850 C2852 1.381 . S
C2850 C2856 1.383 . S
C2851 C2847 1.495 . S
C2851 H2857 0.959 . S
C2851 H2858 0.961 . S
C2851 H2859 0.960 . S
C2852 C2850 1.381 . S
C2852 C2853 1.394 . S
C2852 H2860 0.930 . S
C2853 C2852 1.394 . S
C2853 C2854 1.383 . S
C2853 H2861 0.929 . S
C2854 C2853 1.383 . S
C2854 C2855 1.377 . S
C2855 H2839 0.930 . S
C2855 C2854 1.377 . S
C2855 C2856 1.379 . S
C2856 H2840 0.931 . S
C2856 C2850 1.383 . S
C2856 C2855 1.379 . S
H2857 C2851 0.959 . S
H2858 C2851 0.961 . S
H2859 C2851 0.960 . S
H2860 C2852 0.930 . S
H2861 C2853 0.929 . S
H2862 C2870 0.929 . S
H2863 C2872 0.930 . S
H2864 C2874 0.930 . S
H2865 C2877 0.929 . S
H2866 C2880 0.930 . S
H2867 C2882 0.960 . S
H2868 C2882 0.960 . S
H2869 C2882 0.960 . S
C2870 H2862 0.929 . S
C2870 C2871 1.377 . S
C2870 C2872 1.384 . S
C2871 C2870 1.377 . S
C2871 C2877 1.390 . S
C2872 H2863 0.930 . S
C2872 C2870 1.384 . S
C2872 C2873 1.372 . S
C2873 C2872 1.372 . S
C2873 C2874 1.400 . S
C2873 C2878 1.490 . S
C2874 H2864 0.930 . S
C2874 C2873 1.400 . S
C2874 C2877 1.386 . S
H2875 C2891 0.930 . S
H2876 C2892 0.931 . S
C2877 H2865 0.929 . S
C2877 C2871 1.390 . S
C2877 C2874 1.386 . S
C2878 C2873 1.490 . S
C2878 C2880 1.395 . S
C2878 C2881 1.403 . S
H2879 C2885 0.930 . S
C2880 H2866 0.930 . S
C2880 C2878 1.395 . S
C2880 C2883 1.403 . S
C2881 C2878 1.403 . S
C2881 C2882 1.524 . S
C2881 C2885 1.400 . S
C2882 H2867 0.960 . S
C2882 H2868 0.960 . S
C2882 H2869 0.960 . S
C2882 C2881 1.524 . S
C2883 C2880 1.403 . S
C2883 C2884 1.392 . S
C2883 C2887 1.495 . S
C2884 C2883 1.392 . S
C2884 C2885 1.385 . S
C2884 C2886 1.478 . S
C2885 H2879 0.930 . S
C2885 C2881 1.400 . S
C2885 C2884 1.385 . S
C2886 C2884 1.478 . S
C2886 C2888 1.381 . S
C2886 C2892 1.383 . S
C2887 C2883 1.495 . S
C2887 H2893 0.959 . S
C2887 H2894 0.961 . S
C2887 H2895 0.960 . S
C2888 C2886 1.381 . S
C2888 C2889 1.394 . S
C2888 H2896 0.930 . S
C2889 C2888 1.394 . S
C2889 C2890 1.383 . S
C2889 H2897 0.929 . S
C2890 C2889 1.383 . S
C2890 C2891 1.377 . S
C2891 H2875 0.930 . S
C2891 C2890 1.377 . S
C2891 C2892 1.379 . S
C2892 H2876 0.931 . S
C2892 C2886 1.383 . S
C2892 C2891 1.379 . S
H2893 C2887 0.959 . S
H2894 C2887 0.961 . S
H2895 C2887 0.960 . S
H2896 C2888 0.930 . S
H2897 C2889 0.929 . S
H2898 C2906 0.929 . S
H2899 C2908 0.930 . S
H2900 C2910 0.930 . S
H2901 C2913 0.929 . S
H2902 C2916 0.930 . S
H2903 C2918 0.960 . S
H2904 C2918 0.960 . S
H2905 C2918 0.960 . S
C2906 H2898 0.929 . S
C2906 C2907 1.377 . S
C2906 C2908 1.384 . S
C2907 C2906 1.377 . S
C2907 C2913 1.390 . S
C2908 H2899 0.930 . S
C2908 C2906 1.384 . S
C2908 C2909 1.372 . S
C2909 C2908 1.372 . S
C2909 C2910 1.400 . S
C2909 C2914 1.490 . S
C2910 H2900 0.930 . S
C2910 C2909 1.400 . S
C2910 C2913 1.386 . S
H2911 C2927 0.930 . S
H2912 C2928 0.931 . S
C2913 H2901 0.929 . S
C2913 C2907 1.390 . S
C2913 C2910 1.386 . S
C2914 C2909 1.490 . S
C2914 C2916 1.395 . S
C2914 C2917 1.403 . S
H2915 C2921 0.930 . S
C2916 H2902 0.930 . S
C2916 C2914 1.395 . S
C2916 C2919 1.403 . S
C2917 C2914 1.403 . S
C2917 C2918 1.524 . S
C2917 C2921 1.400 . S
C2918 H2903 0.960 . S
C2918 H2904 0.960 . S
C2918 H2905 0.960 . S
C2918 C2917 1.524 . S
C2919 C2916 1.403 . S
C2919 C2920 1.392 . S
C2919 C2923 1.495 . S
C2920 C2919 1.392 . S
C2920 C2921 1.385 . S
C2920 C2922 1.478 . S
C2921 H2915 0.930 . S
C2921 C2917 1.400 . S
C2921 C2920 1.385 . S
C2922 C2920 1.478 . S
C2922 C2924 1.381 . S
C2922 C2928 1.383 . S
C2923 C2919 1.495 . S
C2923 H2929 0.959 . S
C2923 H2930 0.961 . S
C2923 H2931 0.960 . S
C2924 C2922 1.381 . S
C2924 C2925 1.394 . S
C2924 H2932 0.930 . S
C2925 C2924 1.394 . S
C2925 C2926 1.383 . S
C2925 H2933 0.929 . S
C2926 C2925 1.383 . S
C2926 C2927 1.377 . S
C2927 H2911 0.930 . S
C2927 C2926 1.377 . S
C2927 C2928 1.379 . S
C2928 H2912 0.931 . S
C2928 C2922 1.383 . S
C2928 C2927 1.379 . S
H2929 C2923 0.959 . S
H2930 C2923 0.961 . S
H2931 C2923 0.960 . S
H2932 C2924 0.930 . S
H2933 C2925 0.929 . S
H2934 C2942 0.929 . S
H2935 C2944 0.930 . S
H2936 C2946 0.930 . S
H2937 C2949 0.929 . S
H2938 C2952 0.930 . S
H2939 C2954 0.960 . S
H2940 C2954 0.960 . S
H2941 C2954 0.960 . S
C2942 H2934 0.929 . S
C2942 C2943 1.377 . S
C2942 C2944 1.384 . S
C2943 C2942 1.377 . S
C2943 C2949 1.390 . S
C2944 H2935 0.930 . S
C2944 C2942 1.384 . S
C2944 C2945 1.372 . S
C2945 C2944 1.372 . S
C2945 C2946 1.400 . S
C2945 C2950 1.490 . S
C2946 H2936 0.930 . S
C2946 C2945 1.400 . S
C2946 C2949 1.386 . S
H2947 C2963 0.930 . S
H2948 C2964 0.931 . S
C2949 H2937 0.929 . S
C2949 C2943 1.390 . S
C2949 C2946 1.386 . S
C2950 C2945 1.490 . S
C2950 C2952 1.395 . S
C2950 C2953 1.403 . S
H2951 C2957 0.930 . S
C2952 H2938 0.930 . S
C2952 C2950 1.395 . S
C2952 C2955 1.403 . S
C2953 C2950 1.403 . S
C2953 C2954 1.524 . S
C2953 C2957 1.400 . S
C2954 H2939 0.960 . S
C2954 H2940 0.960 . S
C2954 H2941 0.960 . S
C2954 C2953 1.524 . S
C2955 C2952 1.403 . S
C2955 C2956 1.392 . S
C2955 C2959 1.495 . S
C2956 C2955 1.392 . S
C2956 C2957 1.385 . S
C2956 C2958 1.478 . S
C2957 H2951 0.930 . S
C2957 C2953 1.400 . S
C2957 C2956 1.385 . S
C2958 C2956 1.478 . S
C2958 C2960 1.381 . S
C2958 C2964 1.383 . S
C2959 C2955 1.495 . S
C2959 H2965 0.959 . S
C2959 H2966 0.961 . S
C2959 H2967 0.960 . S
C2960 C2958 1.381 . S
C2960 C2961 1.394 . S
C2960 H2968 0.930 . S
C2961 C2960 1.394 . S
C2961 C2962 1.383 . S
C2961 H2969 0.929 . S
C2962 C2961 1.383 . S
C2962 C2963 1.377 . S
C2963 H2947 0.930 . S
C2963 C2962 1.377 . S
C2963 C2964 1.379 . S
C2964 H2948 0.931 . S
C2964 C2958 1.383 . S
C2964 C2963 1.379 . S
H2965 C2959 0.959 . S
H2966 C2959 0.961 . S
H2967 C2959 0.960 . S
H2968 C2960 0.930 . S
H2969 C2961 0.929 . S
H2970 C2978 0.929 . S
H2971 C2980 0.930 . S
H2972 C2982 0.930 . S
H2973 C2985 0.929 . S
H2974 C2988 0.930 . S
H2975 C2990 0.960 . S
H2976 C2990 0.960 . S
H2977 C2990 0.960 . S
C2978 H2970 0.929 . S
C2978 C2979 1.377 . S
C2978 C2980 1.384 . S
C2979 C2978 1.377 . S
C2979 C2985 1.390 . S
C2980 H2971 0.930 . S
C2980 C2978 1.384 . S
C2980 C2981 1.372 . S
C2981 C2980 1.372 . S
C2981 C2982 1.400 . S
C2981 C2986 1.490 . S
C2982 H2972 0.930 . S
C2982 C2981 1.400 . S
C2982 C2985 1.386 . S
H2983 C2999 0.930 . S
H2984 C3000 0.931 . S
C2985 H2973 0.929 . S
C2985 C2979 1.390 . S
C2985 C2982 1.386 . S
C2986 C2981 1.490 . S
C2986 C2988 1.395 . S
C2986 C2989 1.403 . S
H2987 C2993 0.930 . S
C2988 H2974 0.930 . S
C2988 C2986 1.395 . S
C2988 C2991 1.403 . S
C2989 C2986 1.403 . S
C2989 C2990 1.524 . S
C2989 C2993 1.400 . S
C2990 H2975 0.960 . S
C2990 H2976 0.960 . S
C2990 H2977 0.960 . S
C2990 C2989 1.524 . S
C2991 C2988 1.403 . S
C2991 C2992 1.392 . S
C2991 C2995 1.495 . S
C2992 C2991 1.392 . S
C2992 C2993 1.385 . S
C2992 C2994 1.478 . S
C2993 H2987 0.930 . S
C2993 C2989 1.400 . S
C2993 C2992 1.385 . S
C2994 C2992 1.478 . S
C2994 C2996 1.381 . S
C2994 C3000 1.383 . S
C2995 C2991 1.495 . S
C2995 H3001 0.959 . S
C2995 H3002 0.961 . S
C2995 H3003 0.960 . S
C2996 C2994 1.381 . S
C2996 C2997 1.394 . S
C2996 H3004 0.930 . S
C2997 C2996 1.394 . S
C2997 C2998 1.383 . S
C2997 H3005 0.929 . S
C2998 C2997 1.383 . S
C2998 C2999 1.377 . S
C2999 H2983 0.930 . S
C2999 C2998 1.377 . S
C2999 C3000 1.379 . S
C3000 H2984 0.931 . S
C3000 C2994 1.383 . S
C3000 C2999 1.379 . S
H3001 C2995 0.959 . S
H3002 C2995 0.961 . S
H3003 C2995 0.960 . S
H3004 C2996 0.930 . S
H3005 C2997 0.929 . S
H3006 C3014 0.929 . S
H3007 C3016 0.930 . S
H3008 C3018 0.930 . S
H3009 C3021 0.929 . S
H3010 C3024 0.930 . S
H3011 C3026 0.960 . S
H3012 C3026 0.960 . S
H3013 C3026 0.960 . S
C3014 H3006 0.929 . S
C3014 C3015 1.377 . S
C3014 C3016 1.384 . S
C3015 C3014 1.377 . S
C3015 C3021 1.390 . S
C3016 H3007 0.930 . S
C3016 C3014 1.384 . S
C3016 C3017 1.372 . S
C3017 C3016 1.372 . S
C3017 C3018 1.400 . S
C3017 C3022 1.490 . S
C3018 H3008 0.930 . S
C3018 C3017 1.400 . S
C3018 C3021 1.386 . S
H3019 C3035 0.930 . S
H3020 C3036 0.931 . S
C3021 H3009 0.929 . S
C3021 C3015 1.390 . S
C3021 C3018 1.386 . S
C3022 C3017 1.490 . S
C3022 C3024 1.395 . S
C3022 C3025 1.403 . S
H3023 C3029 0.930 . S
C3024 H3010 0.930 . S
C3024 C3022 1.395 . S
C3024 C3027 1.403 . S
C3025 C3022 1.403 . S
C3025 C3026 1.524 . S
C3025 C3029 1.400 . S
C3026 H3011 0.960 . S
C3026 H3012 0.960 . S
C3026 H3013 0.960 . S
C3026 C3025 1.524 . S
C3027 C3024 1.403 . S
C3027 C3028 1.392 . S
C3027 C3031 1.495 . S
C3028 C3027 1.392 . S
C3028 C3029 1.385 . S
C3028 C3030 1.478 . S
C3029 H3023 0.930 . S
C3029 C3025 1.400 . S
C3029 C3028 1.385 . S
C3030 C3028 1.478 . S
C3030 C3032 1.381 . S
C3030 C3036 1.383 . S
C3031 C3027 1.495 . S
C3031 H3037 0.959 . S
C3031 H3038 0.961 . S
C3031 H3039 0.960 . S
C3032 C3030 1.381 . S
C3032 C3033 1.394 . S
C3032 H3040 0.930 . S
C3033 C3032 1.394 . S
C3033 C3034 1.383 . S
C3033 H3041 0.929 . S
C3034 C3033 1.383 . S
C3034 C3035 1.377 . S
C3035 H3019 0.930 . S
C3035 C3034 1.377 . S
C3035 C3036 1.379 . S
C3036 H3020 0.931 . S
C3036 C3030 1.383 . S
C3036 C3035 1.379 . S
H3037 C3031 0.959 . S
H3038 C3031 0.961 . S
H3039 C3031 0.960 . S
H3040 C3032 0.930 . S
H3041 C3033 0.929 . S
H3042 C3050 0.929 . S
H3043 C3052 0.930 . S
H3044 C3054 0.930 . S
H3045 C3057 0.929 . S
H3046 C3060 0.930 . S
H3047 C3062 0.960 . S
H3048 C3062 0.960 . S
H3049 C3062 0.960 . S
C3050 H3042 0.929 . S
C3050 C3051 1.377 . S
C3050 C3052 1.384 . S
C3051 C3050 1.377 . S
C3051 C3057 1.390 . S
C3052 H3043 0.930 . S
C3052 C3050 1.384 . S
C3052 C3053 1.372 . S
C3053 C3052 1.372 . S
C3053 C3054 1.400 . S
C3053 C3058 1.490 . S
C3054 H3044 0.930 . S
C3054 C3053 1.400 . S
C3054 C3057 1.386 . S
H3055 C3071 0.930 . S
H3056 C3072 0.931 . S
C3057 H3045 0.929 . S
C3057 C3051 1.390 . S
C3057 C3054 1.386 . S
C3058 C3053 1.490 . S
C3058 C3060 1.395 . S
C3058 C3061 1.403 . S
H3059 C3065 0.930 . S
C3060 H3046 0.930 . S
C3060 C3058 1.395 . S
C3060 C3063 1.403 . S
C3061 C3058 1.403 . S
C3061 C3062 1.524 . S
C3061 C3065 1.400 . S
C3062 H3047 0.960 . S
C3062 H3048 0.960 . S
C3062 H3049 0.960 . S
C3062 C3061 1.524 . S
C3063 C3060 1.403 . S
C3063 C3064 1.392 . S
C3063 C3067 1.495 . S
C3064 C3063 1.392 . S
C3064 C3065 1.385 . S
C3064 C3066 1.478 . S
C3065 H3059 0.930 . S
C3065 C3061 1.400 . S
C3065 C3064 1.385 . S
C3066 C3064 1.478 . S
C3066 C3068 1.381 . S
C3066 C3072 1.383 . S
C3067 C3063 1.495 . S
C3067 H3073 0.959 . S
C3067 H3074 0.961 . S
C3067 H3075 0.960 . S
C3068 C3066 1.381 . S
C3068 C3069 1.394 . S
C3068 H3076 0.930 . S
C3069 C3068 1.394 . S
C3069 C3070 1.383 . S
C3069 H3077 0.929 . S
C3070 C3069 1.383 . S
C3070 C3071 1.377 . S
C3071 H3055 0.930 . S
C3071 C3070 1.377 . S
C3071 C3072 1.379 . S
C3072 H3056 0.931 . S
C3072 C3066 1.383 . S
C3072 C3071 1.379 . S
H3073 C3067 0.959 . S
H3074 C3067 0.961 . S
H3075 C3067 0.960 . S
H3076 C3068 0.930 . S
H3077 C3069 0.929 . S
H3078 C3086 0.929 . S
H3079 C3088 0.930 . S
H3080 C3090 0.930 . S
H3081 C3093 0.929 . S
H3082 C3096 0.930 . S
H3083 C3098 0.960 . S
H3084 C3098 0.960 . S
H3085 C3098 0.960 . S
C3086 H3078 0.929 . S
C3086 C3087 1.377 . S
C3086 C3088 1.384 . S
C3087 C3086 1.377 . S
C3087 C3093 1.390 . S
C3088 H3079 0.930 . S
C3088 C3086 1.384 . S
C3088 C3089 1.372 . S
C3089 C3088 1.372 . S
C3089 C3090 1.400 . S
C3089 C3094 1.490 . S
C3090 H3080 0.930 . S
C3090 C3089 1.400 . S
C3090 C3093 1.386 . S
H3091 C3107 0.930 . S
H3092 C3108 0.931 . S
C3093 H3081 0.929 . S
C3093 C3087 1.390 . S
C3093 C3090 1.386 . S
C3094 C3089 1.490 . S
C3094 C3096 1.395 . S
C3094 C3097 1.403 . S
H3095 C3101 0.930 . S
C3096 H3082 0.930 . S
C3096 C3094 1.395 . S
C3096 C3099 1.403 . S
C3097 C3094 1.403 . S
C3097 C3098 1.524 . S
C3097 C3101 1.400 . S
C3098 H3083 0.960 . S
C3098 H3084 0.960 . S
C3098 H3085 0.960 . S
C3098 C3097 1.524 . S
C3099 C3096 1.403 . S
C3099 C3100 1.392 . S
C3099 C3103 1.495 . S
C3100 C3099 1.392 . S
C3100 C3101 1.385 . S
C3100 C3102 1.478 . S
C3101 H3095 0.930 . S
C3101 C3097 1.400 . S
C3101 C3100 1.385 . S
C3102 C3100 1.478 . S
C3102 C3104 1.381 . S
C3102 C3108 1.383 . S
C3103 C3099 1.495 . S
C3103 H3109 0.959 . S
C3103 H3110 0.961 . S
C3103 H3111 0.960 . S
C3104 C3102 1.381 . S
C3104 C3105 1.394 . S
C3104 H3112 0.930 . S
C3105 C3104 1.394 . S
C3105 C3106 1.383 . S
C3105 H3113 0.929 . S
C3106 C3105 1.383 . S
C3106 C3107 1.377 . S
C3107 H3091 0.930 . S
C3107 C3106 1.377 . S
C3107 C3108 1.379 . S
C3108 H3092 0.931 . S
C3108 C3102 1.383 . S
C3108 C3107 1.379 . S
H3109 C3103 0.959 . S
H3110 C3103 0.961 . S
H3111 C3103 0.960 . S
H3112 C3104 0.930 . S
H3113 C3105 0.929 . S
H3114 C3122 0.929 . S
H3115 C3124 0.930 . S
H3116 C3126 0.930 . S
H3117 C3129 0.929 . S
H3118 C3132 0.930 . S
H3119 C3134 0.960 . S
H3120 C3134 0.960 . S
H3121 C3134 0.960 . S
C3122 H3114 0.929 . S
C3122 C3123 1.377 . S
C3122 C3124 1.384 . S
C3123 C3122 1.377 . S
C3123 C3129 1.390 . S
C3124 H3115 0.930 . S
C3124 C3122 1.384 . S
C3124 C3125 1.372 . S
C3125 C3124 1.372 . S
C3125 C3126 1.400 . S
C3125 C3130 1.490 . S
C3126 H3116 0.930 . S
C3126 C3125 1.400 . S
C3126 C3129 1.386 . S
H3127 C3143 0.930 . S
H3128 C3144 0.931 . S
C3129 H3117 0.929 . S
C3129 C3123 1.390 . S
C3129 C3126 1.386 . S
C3130 C3125 1.490 . S
C3130 C3132 1.395 . S
C3130 C3133 1.403 . S
H3131 C3137 0.930 . S
C3132 H3118 0.930 . S
C3132 C3130 1.395 . S
C3132 C3135 1.403 . S
C3133 C3130 1.403 . S
C3133 C3134 1.524 . S
C3133 C3137 1.400 . S
C3134 H3119 0.960 . S
C3134 H3120 0.960 . S
C3134 H3121 0.960 . S
C3134 C3133 1.524 . S
C3135 C3132 1.403 . S
C3135 C3136 1.392 . S
C3135 C3139 1.495 . S
C3136 C3135 1.392 . S
C3136 C3137 1.385 . S
C3136 C3138 1.478 . S
C3137 H3131 0.930 . S
C3137 C3133 1.400 . S
C3137 C3136 1.385 . S
C3138 C3136 1.478 . S
C3138 C3140 1.381 . S
C3138 C3144 1.383 . S
C3139 C3135 1.495 . S
C3139 H3145 0.959 . S
C3139 H3146 0.961 . S
C3139 H3147 0.960 . S
C3140 C3138 1.381 . S
C3140 C3141 1.394 . S
C3140 H3148 0.930 . S
C3141 C3140 1.394 . S
C3141 C3142 1.383 . S
C3141 H3149 0.929 . S
C3142 C3141 1.383 . S
C3142 C3143 1.377 . S
C3143 H3127 0.930 . S
C3143 C3142 1.377 . S
C3143 C3144 1.379 . S
C3144 H3128 0.931 . S
C3144 C3138 1.383 . S
C3144 C3143 1.379 . S
H3145 C3139 0.959 . S
H3146 C3139 0.961 . S
H3147 C3139 0.960 . S
H3148 C3140 0.930 . S
H3149 C3141 0.929 . S
H3150 C3158 0.929 . S
H3151 C3160 0.930 . S
H3152 C3162 0.930 . S
H3153 C3165 0.929 . S
H3154 C3168 0.930 . S
H3155 C3170 0.960 . S
H3156 C3170 0.960 . S
H3157 C3170 0.960 . S
C3158 H3150 0.929 . S
C3158 C3159 1.377 . S
C3158 C3160 1.384 . S
C3159 C3158 1.377 . S
C3159 C3165 1.390 . S
C3160 H3151 0.930 . S
C3160 C3158 1.384 . S
C3160 C3161 1.372 . S
C3161 C3160 1.372 . S
C3161 C3162 1.400 . S
C3161 C3166 1.490 . S
C3162 H3152 0.930 . S
C3162 C3161 1.400 . S
C3162 C3165 1.386 . S
H3163 C3179 0.930 . S
H3164 C3180 0.931 . S
C3165 H3153 0.929 . S
C3165 C3159 1.390 . S
C3165 C3162 1.386 . S
C3166 C3161 1.490 . S
C3166 C3168 1.395 . S
C3166 C3169 1.403 . S
H3167 C3173 0.930 . S
C3168 H3154 0.930 . S
C3168 C3166 1.395 . S
C3168 C3171 1.403 . S
C3169 C3166 1.403 . S
C3169 C3170 1.524 . S
C3169 C3173 1.400 . S
C3170 H3155 0.960 . S
C3170 H3156 0.960 . S
C3170 H3157 0.960 . S
C3170 C3169 1.524 . S
C3171 C3168 1.403 . S
C3171 C3172 1.392 . S
C3171 C3175 1.495 . S
C3172 C3171 1.392 . S
C3172 C3173 1.385 . S
C3172 C3174 1.478 . S
C3173 H3167 0.930 . S
C3173 C3169 1.400 . S
C3173 C3172 1.385 . S
C3174 C3172 1.478 . S
C3174 C3176 1.381 . S
C3174 C3180 1.383 . S
C3175 C3171 1.495 . S
C3175 H3181 0.959 . S
C3175 H3182 0.961 . S
C3175 H3183 0.960 . S
C3176 C3174 1.381 . S
C3176 C3177 1.394 . S
C3176 H3184 0.930 . S
C3177 C3176 1.394 . S
C3177 C3178 1.383 . S
C3177 H3185 0.929 . S
C3178 C3177 1.383 . S
C3178 C3179 1.377 . S
C3179 H3163 0.930 . S
C3179 C3178 1.377 . S
C3179 C3180 1.379 . S
C3180 H3164 0.931 . S
C3180 C3174 1.383 . S
C3180 C3179 1.379 . S
H3181 C3175 0.959 . S
H3182 C3175 0.961 . S
H3183 C3175 0.960 . S
H3184 C3176 0.930 . S
H3185 C3177 0.929 . S
H3186 C3194 0.929 . S
H3187 C3196 0.930 . S
H3188 C3198 0.930 . S
H3189 C3201 0.929 . S
H3190 C3204 0.930 . S
H3191 C3206 0.960 . S
H3192 C3206 0.960 . S
H3193 C3206 0.960 . S
C3194 H3186 0.929 . S
C3194 C3195 1.377 . S
C3194 C3196 1.384 . S
C3195 C3194 1.377 . S
C3195 C3201 1.390 . S
C3196 H3187 0.930 . S
C3196 C3194 1.384 . S
C3196 C3197 1.372 . S
C3197 C3196 1.372 . S
C3197 C3198 1.400 . S
C3197 C3202 1.490 . S
C3198 H3188 0.930 . S
C3198 C3197 1.400 . S
C3198 C3201 1.386 . S
H3199 C3215 0.930 . S
H3200 C3216 0.931 . S
C3201 H3189 0.929 . S
C3201 C3195 1.390 . S
C3201 C3198 1.386 . S
C3202 C3197 1.490 . S
C3202 C3204 1.395 . S
C3202 C3205 1.403 . S
H3203 C3209 0.930 . S
C3204 H3190 0.930 . S
C3204 C3202 1.395 . S
C3204 C3207 1.403 . S
C3205 C3202 1.403 . S
C3205 C3206 1.524 . S
C3205 C3209 1.400 . S
C3206 H3191 0.960 . S
C3206 H3192 0.960 . S
C3206 H3193 0.960 . S
C3206 C3205 1.524 . S
C3207 C3204 1.403 . S
C3207 C3208 1.392 . S
C3207 C3211 1.495 . S
C3208 C3207 1.392 . S
C3208 C3209 1.385 . S
C3208 C3210 1.478 . S
C3209 H3203 0.930 . S
C3209 C3205 1.400 . S
C3209 C3208 1.385 . S
C3210 C3208 1.478 . S
C3210 C3212 1.381 . S
C3210 C3216 1.383 . S
C3211 C3207 1.495 . S
C3211 H3217 0.959 . S
C3211 H3218 0.961 . S
C3211 H3219 0.960 . S
C3212 C3210 1.381 . S
C3212 C3213 1.394 . S
C3212 H3220 0.930 . S
C3213 C3212 1.394 . S
C3213 C3214 1.383 . S
C3213 H3221 0.929 . S
C3214 C3213 1.383 . S
C3214 C3215 1.377 . S
C3215 H3199 0.930 . S
C3215 C3214 1.377 . S
C3215 C3216 1.379 . S
C3216 H3200 0.931 . S
C3216 C3210 1.383 . S
C3216 C3215 1.379 . S
H3217 C3211 0.959 . S
H3218 C3211 0.961 . S
H3219 C3211 0.960 . S
H3220 C3212 0.930 . S
H3221 C3213 0.929 . S
H3222 C3230 0.929 . S
H3223 C3232 0.930 . S
H3224 C3234 0.930 . S
H3225 C3237 0.929 . S
H3226 C3240 0.930 . S
H3227 C3242 0.960 . S
H3228 C3242 0.960 . S
H3229 C3242 0.960 . S
C3230 H3222 0.929 . S
C3230 C3231 1.377 . S
C3230 C3232 1.384 . S
C3231 C3230 1.377 . S
C3231 C3237 1.390 . S
C3232 H3223 0.930 . S
C3232 C3230 1.384 . S
C3232 C3233 1.372 . S
C3233 C3232 1.372 . S
C3233 C3234 1.400 . S
C3233 C3238 1.490 . S
C3234 H3224 0.930 . S
C3234 C3233 1.400 . S
C3234 C3237 1.386 . S
H3235 C3251 0.930 . S
H3236 C3252 0.931 . S
C3237 H3225 0.929 . S
C3237 C3231 1.390 . S
C3237 C3234 1.386 . S
C3238 C3233 1.490 . S
C3238 C3240 1.395 . S
C3238 C3241 1.403 . S
H3239 C3245 0.930 . S
C3240 H3226 0.930 . S
C3240 C3238 1.395 . S
C3240 C3243 1.403 . S
C3241 C3238 1.403 . S
C3241 C3242 1.524 . S
C3241 C3245 1.400 . S
C3242 H3227 0.960 . S
C3242 H3228 0.960 . S
C3242 H3229 0.960 . S
C3242 C3241 1.524 . S
C3243 C3240 1.403 . S
C3243 C3244 1.392 . S
C3243 C3247 1.495 . S
C3244 C3243 1.392 . S
C3244 C3245 1.385 . S
C3244 C3246 1.478 . S
C3245 H3239 0.930 . S
C3245 C3241 1.400 . S
C3245 C3244 1.385 . S
C3246 C3244 1.478 . S
C3246 C3248 1.381 . S
C3246 C3252 1.383 . S
C3247 C3243 1.495 . S
C3247 H3253 0.959 . S
C3247 H3254 0.961 . S
C3247 H3255 0.960 . S
C3248 C3246 1.381 . S
C3248 C3249 1.394 . S
C3248 H3256 0.930 . S
C3249 C3248 1.394 . S
C3249 C3250 1.383 . S
C3249 H3257 0.929 . S
C3250 C3249 1.383 . S
C3250 C3251 1.377 . S
C3251 H3235 0.930 . S
C3251 C3250 1.377 . S
C3251 C3252 1.379 . S
C3252 H3236 0.931 . S
C3252 C3246 1.383 . S
C3252 C3251 1.379 . S
H3253 C3247 0.959 . S
H3254 C3247 0.961 . S
H3255 C3247 0.960 . S
H3256 C3248 0.930 . S
H3257 C3249 0.929 . S
H3258 C3266 0.929 . S
H3259 C3268 0.930 . S
H3260 C3270 0.930 . S
H3261 C3273 0.929 . S
H3262 C3276 0.930 . S
H3263 C3278 0.960 . S
H3264 C3278 0.960 . S
H3265 C3278 0.960 . S
C3266 H3258 0.929 . S
C3266 C3267 1.377 . S
C3266 C3268 1.384 . S
C3267 C3266 1.377 . S
C3267 C3273 1.390 . S
C3268 H3259 0.930 . S
C3268 C3266 1.384 . S
C3268 C3269 1.372 . S
C3269 C3268 1.372 . S
C3269 C3270 1.400 . S
C3269 C3274 1.490 . S
C3270 H3260 0.930 . S
C3270 C3269 1.400 . S
C3270 C3273 1.386 . S
H3271 C3287 0.930 . S
H3272 C3288 0.931 . S
C3273 H3261 0.929 . S
C3273 C3267 1.390 . S
C3273 C3270 1.386 . S
C3274 C3269 1.490 . S
C3274 C3276 1.395 . S
C3274 C3277 1.403 . S
H3275 C3281 0.930 . S
C3276 H3262 0.930 . S
C3276 C3274 1.395 . S
C3276 C3279 1.403 . S
C3277 C3274 1.403 . S
C3277 C3278 1.524 . S
C3277 C3281 1.400 . S
C3278 H3263 0.960 . S
C3278 H3264 0.960 . S
C3278 H3265 0.960 . S
C3278 C3277 1.524 . S
C3279 C3276 1.403 . S
C3279 C3280 1.392 . S
C3279 C3283 1.495 . S
C3280 C3279 1.392 . S
C3280 C3281 1.385 . S
C3280 C3282 1.478 . S
C3281 H3275 0.930 . S
C3281 C3277 1.400 . S
C3281 C3280 1.385 . S
C3282 C3280 1.478 . S
C3282 C3284 1.381 . S
C3282 C3288 1.383 . S
C3283 C3279 1.495 . S
C3283 H3289 0.959 . S
C3283 H3290 0.961 . S
C3283 H3291 0.960 . S
C3284 C3282 1.381 . S
C3284 C3285 1.394 . S
C3284 H3292 0.930 . S
C3285 C3284 1.394 . S
C3285 C3286 1.383 . S
C3285 H3293 0.929 . S
C3286 C3285 1.383 . S
C3286 C3287 1.377 . S
C3287 H3271 0.930 . S
C3287 C3286 1.377 . S
C3287 C3288 1.379 . S
C3288 H3272 0.931 . S
C3288 C3282 1.383 . S
C3288 C3287 1.379 . S
H3289 C3283 0.959 . S
H3290 C3283 0.961 . S
H3291 C3283 0.960 . S
H3292 C3284 0.930 . S
H3293 C3285 0.929 . S
H3294 C3302 0.929 . S
H3295 C3304 0.930 . S
H3296 C3306 0.930 . S
H3297 C3309 0.929 . S
H3298 C3312 0.930 . S
H3299 C3314 0.960 . S
H3300 C3314 0.960 . S
H3301 C3314 0.960 . S
C3302 H3294 0.929 . S
C3302 C3303 1.377 . S
C3302 C3304 1.384 . S
C3303 C3302 1.377 . S
C3303 C3309 1.390 . S
C3304 H3295 0.930 . S
C3304 C3302 1.384 . S
C3304 C3305 1.372 . S
C3305 C3304 1.372 . S
C3305 C3306 1.400 . S
C3305 C3310 1.490 . S
C3306 H3296 0.930 . S
C3306 C3305 1.400 . S
C3306 C3309 1.386 . S
H3307 C3323 0.930 . S
H3308 C3324 0.931 . S
C3309 H3297 0.929 . S
C3309 C3303 1.390 . S
C3309 C3306 1.386 . S
C3310 C3305 1.490 . S
C3310 C3312 1.395 . S
C3310 C3313 1.403 . S
H3311 C3317 0.930 . S
C3312 H3298 0.930 . S
C3312 C3310 1.395 . S
C3312 C3315 1.403 . S
C3313 C3310 1.403 . S
C3313 C3314 1.524 . S
C3313 C3317 1.400 . S
C3314 H3299 0.960 . S
C3314 H3300 0.960 . S
C3314 H3301 0.960 . S
C3314 C3313 1.524 . S
C3315 C3312 1.403 . S
C3315 C3316 1.392 . S
C3315 C3319 1.495 . S
C3316 C3315 1.392 . S
C3316 C3317 1.385 . S
C3316 C3318 1.478 . S
C3317 H3311 0.930 . S
C3317 C3313 1.400 . S
C3317 C3316 1.385 . S
C3318 C3316 1.478 . S
C3318 C3320 1.381 . S
C3318 C3324 1.383 . S
C3319 C3315 1.495 . S
C3319 H3325 0.959 . S
C3319 H3326 0.961 . S
C3319 H3327 0.960 . S
C3320 C3318 1.381 . S
C3320 C3321 1.394 . S
C3320 H3328 0.930 . S
C3321 C3320 1.394 . S
C3321 C3322 1.383 . S
C3321 H3329 0.929 . S
C3322 C3321 1.383 . S
C3322 C3323 1.377 . S
C3323 H3307 0.930 . S
C3323 C3322 1.377 . S
C3323 C3324 1.379 . S
C3324 H3308 0.931 . S
C3324 C3318 1.383 . S
C3324 C3323 1.379 . S
H3325 C3319 0.959 . S
H3326 C3319 0.961 . S
H3327 C3319 0.960 . S
H3328 C3320 0.930 . S
H3329 C3321 0.929 . S
H3330 C3338 0.929 . S
H3331 C3340 0.930 . S
H3332 C3342 0.930 . S
H3333 C3345 0.929 . S
H3334 C3348 0.930 . S
H3335 C3350 0.960 . S
H3336 C3350 0.960 . S
H3337 C3350 0.960 . S
C3338 H3330 0.929 . S
C3338 C3339 1.377 . S
C3338 C3340 1.384 . S
C3339 C3338 1.377 . S
C3339 C3345 1.390 . S
C3340 H3331 0.930 . S
C3340 C3338 1.384 . S
C3340 C3341 1.372 . S
C3341 C3340 1.372 . S
C3341 C3342 1.400 . S
C3341 C3346 1.490 . S
C3342 H3332 0.930 . S
C3342 C3341 1.400 . S
C3342 C3345 1.386 . S
H3343 C3359 0.930 . S
H3344 C3360 0.931 . S
C3345 H3333 0.929 . S
C3345 C3339 1.390 . S
C3345 C3342 1.386 . S
C3346 C3341 1.490 . S
C3346 C3348 1.395 . S
C3346 C3349 1.403 . S
H3347 C3353 0.930 . S
C3348 H3334 0.930 . S
C3348 C3346 1.395 . S
C3348 C3351 1.403 . S
C3349 C3346 1.403 . S
C3349 C3350 1.524 . S
C3349 C3353 1.400 . S
C3350 H3335 0.960 . S
C3350 H3336 0.960 . S
C3350 H3337 0.960 . S
C3350 C3349 1.524 . S
C3351 C3348 1.403 . S
C3351 C3352 1.392 . S
C3351 C3355 1.495 . S
C3352 C3351 1.392 . S
C3352 C3353 1.385 . S
C3352 C3354 1.478 . S
C3353 H3347 0.930 . S
C3353 C3349 1.400 . S
C3353 C3352 1.385 . S
C3354 C3352 1.478 . S
C3354 C3356 1.381 . S
C3354 C3360 1.383 . S
C3355 C3351 1.495 . S
C3355 H3361 0.959 . S
C3355 H3362 0.961 . S
C3355 H3363 0.960 . S
C3356 C3354 1.381 . S
C3356 C3357 1.394 . S
C3356 H3364 0.930 . S
C3357 C3356 1.394 . S
C3357 C3358 1.383 . S
C3357 H3365 0.929 . S
C3358 C3357 1.383 . S
C3358 C3359 1.377 . S
C3359 H3343 0.930 . S
C3359 C3358 1.377 . S
C3359 C3360 1.379 . S
C3360 H3344 0.931 . S
C3360 C3354 1.383 . S
C3360 C3359 1.379 . S
H3361 C3355 0.959 . S
H3362 C3355 0.961 . S
H3363 C3355 0.960 . S
H3364 C3356 0.930 . S
H3365 C3357 0.929 . S
H3366 C3374 0.929 . S
H3367 C3376 0.930 . S
H3368 C3378 0.930 . S
H3369 C3381 0.929 . S
H3370 C3384 0.930 . S
H3371 C3386 0.960 . S
H3372 C3386 0.960 . S
H3373 C3386 0.960 . S
C3374 H3366 0.929 . S
C3374 C3375 1.377 . S
C3374 C3376 1.384 . S
C3375 C3374 1.377 . S
C3375 C3381 1.390 . S
C3376 H3367 0.930 . S
C3376 C3374 1.384 . S
C3376 C3377 1.372 . S
C3377 C3376 1.372 . S
C3377 C3378 1.400 . S
C3377 C3382 1.490 . S
C3378 H3368 0.930 . S
C3378 C3377 1.400 . S
C3378 C3381 1.386 . S
H3379 C3395 0.930 . S
H3380 C3396 0.931 . S
C3381 H3369 0.929 . S
C3381 C3375 1.390 . S
C3381 C3378 1.386 . S
C3382 C3377 1.490 . S
C3382 C3384 1.395 . S
C3382 C3385 1.403 . S
H3383 C3389 0.930 . S
C3384 H3370 0.930 . S
C3384 C3382 1.395 . S
C3384 C3387 1.403 . S
C3385 C3382 1.403 . S
C3385 C3386 1.524 . S
C3385 C3389 1.400 . S
C3386 H3371 0.960 . S
C3386 H3372 0.960 . S
C3386 H3373 0.960 . S
C3386 C3385 1.524 . S
C3387 C3384 1.403 . S
C3387 C3388 1.392 . S
C3387 C3391 1.495 . S
C3388 C3387 1.392 . S
C3388 C3389 1.385 . S
C3388 C3390 1.478 . S
C3389 H3383 0.930 . S
C3389 C3385 1.400 . S
C3389 C3388 1.385 . S
C3390 C3388 1.478 . S
C3390 C3392 1.381 . S
C3390 C3396 1.383 . S
C3391 C3387 1.495 . S
C3391 H3397 0.959 . S
C3391 H3398 0.961 . S
C3391 H3399 0.960 . S
C3392 C3390 1.381 . S
C3392 C3393 1.394 . S
C3392 H3400 0.930 . S
C3393 C3392 1.394 . S
C3393 C3394 1.383 . S
C3393 H3401 0.929 . S
C3394 C3393 1.383 . S
C3394 C3395 1.377 . S
C3395 H3379 0.930 . S
C3395 C3394 1.377 . S
C3395 C3396 1.379 . S
C3396 H3380 0.931 . S
C3396 C3390 1.383 . S
C3396 C3395 1.379 . S
H3397 C3391 0.959 . S
H3398 C3391 0.961 . S
H3399 C3391 0.960 . S
H3400 C3392 0.930 . S
H3401 C3393 0.929 . S
H3402 C3410 0.929 . S
H3403 C3412 0.930 . S
H3404 C3414 0.930 . S
H3405 C3417 0.929 . S
H3406 C3420 0.930 . S
H3407 C3422 0.960 . S
H3408 C3422 0.960 . S
H3409 C3422 0.960 . S
C3410 H3402 0.929 . S
C3410 C3411 1.377 . S
C3410 C3412 1.384 . S
C3411 C3410 1.377 . S
C3411 C3417 1.390 . S
C3412 H3403 0.930 . S
C3412 C3410 1.384 . S
C3412 C3413 1.372 . S
C3413 C3412 1.372 . S
C3413 C3414 1.400 . S
C3413 C3418 1.490 . S
C3414 H3404 0.930 . S
C3414 C3413 1.400 . S
C3414 C3417 1.386 . S
H3415 C3431 0.930 . S
H3416 C3432 0.931 . S
C3417 H3405 0.929 . S
C3417 C3411 1.390 . S
C3417 C3414 1.386 . S
C3418 C3413 1.490 . S
C3418 C3420 1.395 . S
C3418 C3421 1.403 . S
H3419 C3425 0.930 . S
C3420 H3406 0.930 . S
C3420 C3418 1.395 . S
C3420 C3423 1.403 . S
C3421 C3418 1.403 . S
C3421 C3422 1.524 . S
C3421 C3425 1.400 . S
C3422 H3407 0.960 . S
C3422 H3408 0.960 . S
C3422 H3409 0.960 . S
C3422 C3421 1.524 . S
C3423 C3420 1.403 . S
C3423 C3424 1.392 . S
C3423 C3427 1.495 . S
C3424 C3423 1.392 . S
C3424 C3425 1.385 . S
C3424 C3426 1.478 . S
C3425 H3419 0.930 . S
C3425 C3421 1.400 . S
C3425 C3424 1.385 . S
C3426 C3424 1.478 . S
C3426 C3428 1.381 . S
C3426 C3432 1.383 . S
C3427 C3423 1.495 . S
C3427 H3433 0.959 . S
C3427 H3434 0.961 . S
C3427 H3435 0.960 . S
C3428 C3426 1.381 . S
C3428 C3429 1.394 . S
C3428 H3436 0.930 . S
C3429 C3428 1.394 . S
C3429 C3430 1.383 . S
C3429 H3437 0.929 . S
C3430 C3429 1.383 . S
C3430 C3431 1.377 . S
C3431 H3415 0.930 . S
C3431 C3430 1.377 . S
C3431 C3432 1.379 . S
C3432 H3416 0.931 . S
C3432 C3426 1.383 . S
C3432 C3431 1.379 . S
H3433 C3427 0.959 . S
H3434 C3427 0.961 . S
H3435 C3427 0.960 . S
H3436 C3428 0.930 . S
H3437 C3429 0.929 . S
H3438 C3446 0.929 . S
H3439 C3448 0.930 . S
H3440 C3450 0.930 . S
H3441 C3453 0.929 . S
H3442 C3456 0.930 . S
H3443 C3458 0.960 . S
H3444 C3458 0.960 . S
H3445 C3458 0.960 . S
C3446 H3438 0.929 . S
C3446 C3447 1.377 . S
C3446 C3448 1.384 . S
C3447 C3446 1.377 . S
C3447 C3453 1.390 . S
C3448 H3439 0.930 . S
C3448 C3446 1.384 . S
C3448 C3449 1.372 . S
C3449 C3448 1.372 . S
C3449 C3450 1.400 . S
C3449 C3454 1.490 . S
C3450 H3440 0.930 . S
C3450 C3449 1.400 . S
C3450 C3453 1.386 . S
H3451 C3467 0.930 . S
H3452 C3468 0.931 . S
C3453 H3441 0.929 . S
C3453 C3447 1.390 . S
C3453 C3450 1.386 . S
C3454 C3449 1.490 . S
C3454 C3456 1.395 . S
C3454 C3457 1.403 . S
H3455 C3461 0.930 . S
C3456 H3442 0.930 . S
C3456 C3454 1.395 . S
C3456 C3459 1.403 . S
C3457 C3454 1.403 . S
C3457 C3458 1.524 . S
C3457 C3461 1.400 . S
C3458 H3443 0.960 . S
C3458 H3444 0.960 . S
C3458 H3445 0.960 . S
C3458 C3457 1.524 . S
C3459 C3456 1.403 . S
C3459 C3460 1.392 . S
C3459 C3463 1.495 . S
C3460 C3459 1.392 . S
C3460 C3461 1.385 . S
C3460 C3462 1.478 . S
C3461 H3455 0.930 . S
C3461 C3457 1.400 . S
C3461 C3460 1.385 . S
C3462 C3460 1.478 . S
C3462 C3464 1.381 . S
C3462 C3468 1.383 . S
C3463 C3459 1.495 . S
C3463 H3469 0.959 . S
C3463 H3470 0.961 . S
C3463 H3471 0.960 . S
C3464 C3462 1.381 . S
C3464 C3465 1.394 . S
C3464 H3472 0.930 . S
C3465 C3464 1.394 . S
C3465 C3466 1.383 . S
C3465 H3473 0.929 . S
C3466 C3465 1.383 . S
C3466 C3467 1.377 . S
C3467 H3451 0.930 . S
C3467 C3466 1.377 . S
C3467 C3468 1.379 . S
C3468 H3452 0.931 . S
C3468 C3462 1.383 . S
C3468 C3467 1.379 . S
H3469 C3463 0.959 . S
H3470 C3463 0.961 . S
H3471 C3463 0.960 . S
H3472 C3464 0.930 . S
H3473 C3465 0.929 . S
H3474 C3482 0.929 . S
H3475 C3484 0.930 . S
H3476 C3486 0.930 . S
H3477 C3489 0.929 . S
H3478 C3492 0.930 . S
H3479 C3494 0.960 . S
H3480 C3494 0.960 . S
H3481 C3494 0.960 . S
C3482 H3474 0.929 . S
C3482 C3483 1.377 . S
C3482 C3484 1.384 . S
C3483 C3482 1.377 . S
C3483 C3489 1.390 . S
C3484 H3475 0.930 . S
C3484 C3482 1.384 . S
C3484 C3485 1.372 . S
C3485 C3484 1.372 . S
C3485 C3486 1.400 . S
C3485 C3490 1.490 . S
C3486 H3476 0.930 . S
C3486 C3485 1.400 . S
C3486 C3489 1.386 . S
H3487 C3503 0.930 . S
H3488 C3504 0.931 . S
C3489 H3477 0.929 . S
C3489 C3483 1.390 . S
C3489 C3486 1.386 . S
C3490 C3485 1.490 . S
C3490 C3492 1.395 . S
C3490 C3493 1.403 . S
H3491 C3497 0.930 . S
C3492 H3478 0.930 . S
C3492 C3490 1.395 . S
C3492 C3495 1.403 . S
C3493 C3490 1.403 . S
C3493 C3494 1.524 . S
C3493 C3497 1.400 . S
C3494 H3479 0.960 . S
C3494 H3480 0.960 . S
C3494 H3481 0.960 . S
C3494 C3493 1.524 . S
C3495 C3492 1.403 . S
C3495 C3496 1.392 . S
C3495 C3499 1.495 . S
C3496 C3495 1.392 . S
C3496 C3497 1.385 . S
C3496 C3498 1.478 . S
C3497 H3491 0.930 . S
C3497 C3493 1.400 . S
C3497 C3496 1.385 . S
C3498 C3496 1.478 . S
C3498 C3500 1.381 . S
C3498 C3504 1.383 . S
C3499 C3495 1.495 . S
C3499 H3505 0.959 . S
C3499 H3506 0.961 . S
C3499 H3507 0.960 . S
C3500 C3498 1.381 . S
C3500 C3501 1.394 . S
C3500 H3508 0.930 . S
C3501 C3500 1.394 . S
C3501 C3502 1.383 . S
C3501 H3509 0.929 . S
C3502 C3501 1.383 . S
C3502 C3503 1.377 . S
C3503 H3487 0.930 . S
C3503 C3502 1.377 . S
C3503 C3504 1.379 . S
C3504 H3488 0.931 . S
C3504 C3498 1.383 . S
C3504 C3503 1.379 . S
H3505 C3499 0.959 . S
H3506 C3499 0.961 . S
H3507 C3499 0.960 . S
H3508 C3500 0.930 . S
H3509 C3501 0.929 . S
H3510 C3518 0.929 . S
H3511 C3520 0.930 . S
H3512 C3522 0.930 . S
H3513 C3525 0.929 . S
H3514 C3528 0.930 . S
H3515 C3530 0.960 . S
H3516 C3530 0.960 . S
H3517 C3530 0.960 . S
C3518 H3510 0.929 . S
C3518 C3519 1.377 . S
C3518 C3520 1.384 . S
C3519 C3518 1.377 . S
C3519 C3525 1.390 . S
C3520 H3511 0.930 . S
C3520 C3518 1.384 . S
C3520 C3521 1.372 . S
C3521 C3520 1.372 . S
C3521 C3522 1.400 . S
C3521 C3526 1.490 . S
C3522 H3512 0.930 . S
C3522 C3521 1.400 . S
C3522 C3525 1.386 . S
H3523 C3539 0.930 . S
H3524 C3540 0.931 . S
C3525 H3513 0.929 . S
C3525 C3519 1.390 . S
C3525 C3522 1.386 . S
C3526 C3521 1.490 . S
C3526 C3528 1.395 . S
C3526 C3529 1.403 . S
H3527 C3533 0.930 . S
C3528 H3514 0.930 . S
C3528 C3526 1.395 . S
C3528 C3531 1.403 . S
C3529 C3526 1.403 . S
C3529 C3530 1.524 . S
C3529 C3533 1.400 . S
C3530 H3515 0.960 . S
C3530 H3516 0.960 . S
C3530 H3517 0.960 . S
C3530 C3529 1.524 . S
C3531 C3528 1.403 . S
C3531 C3532 1.392 . S
C3531 C3535 1.495 . S
C3532 C3531 1.392 . S
C3532 C3533 1.385 . S
C3532 C3534 1.478 . S
C3533 H3527 0.930 . S
C3533 C3529 1.400 . S
C3533 C3532 1.385 . S
C3534 C3532 1.478 . S
C3534 C3536 1.381 . S
C3534 C3540 1.383 . S
C3535 C3531 1.495 . S
C3535 H3541 0.959 . S
C3535 H3542 0.961 . S
C3535 H3543 0.960 . S
C3536 C3534 1.381 . S
C3536 C3537 1.394 . S
C3536 H3544 0.930 . S
C3537 C3536 1.394 . S
C3537 C3538 1.383 . S
C3537 H3545 0.929 . S
C3538 C3537 1.383 . S
C3538 C3539 1.377 . S
C3539 H3523 0.930 . S
C3539 C3538 1.377 . S
C3539 C3540 1.379 . S
C3540 H3524 0.931 . S
C3540 C3534 1.383 . S
C3540 C3539 1.379 . S
H3541 C3535 0.959 . S
H3542 C3535 0.961 . S
H3543 C3535 0.960 . S
H3544 C3536 0.930 . S
H3545 C3537 0.929 . S
H3546 C3554 0.929 . S
H3547 C3556 0.930 . S
H3548 C3558 0.930 . S
H3549 C3561 0.929 . S
H3550 C3564 0.930 . S
H3551 C3566 0.960 . S
H3552 C3566 0.960 . S
H3553 C3566 0.960 . S
C3554 H3546 0.929 . S
C3554 C3555 1.377 . S
C3554 C3556 1.384 . S
C3555 C3554 1.377 . S
C3555 C3561 1.390 . S
C3556 H3547 0.930 . S
C3556 C3554 1.384 . S
C3556 C3557 1.372 . S
C3557 C3556 1.372 . S
C3557 C3558 1.400 . S
C3557 C3562 1.490 . S
C3558 H3548 0.930 . S
C3558 C3557 1.400 . S
C3558 C3561 1.386 . S
H3559 C3575 0.930 . S
H3560 C3576 0.931 . S
C3561 H3549 0.929 . S
C3561 C3555 1.390 . S
C3561 C3558 1.386 . S
C3562 C3557 1.490 . S
C3562 C3564 1.395 . S
C3562 C3565 1.403 . S
H3563 C3569 0.930 . S
C3564 H3550 0.930 . S
C3564 C3562 1.395 . S
C3564 C3567 1.403 . S
C3565 C3562 1.403 . S
C3565 C3566 1.524 . S
C3565 C3569 1.400 . S
C3566 H3551 0.960 . S
C3566 H3552 0.960 . S
C3566 H3553 0.960 . S
C3566 C3565 1.524 . S
C3567 C3564 1.403 . S
C3567 C3568 1.392 . S
C3567 C3571 1.495 . S
C3568 C3567 1.392 . S
C3568 C3569 1.385 . S
C3568 C3570 1.478 . S
C3569 H3563 0.930 . S
C3569 C3565 1.400 . S
C3569 C3568 1.385 . S
C3570 C3568 1.478 . S
C3570 C3572 1.381 . S
C3570 C3576 1.383 . S
C3571 C3567 1.495 . S
C3571 H3577 0.959 . S
C3571 H3578 0.961 . S
C3571 H3579 0.960 . S
C3572 C3570 1.381 . S
C3572 C3573 1.394 . S
C3572 H3580 0.930 . S
C3573 C3572 1.394 . S
C3573 C3574 1.383 . S
C3573 H3581 0.929 . S
C3574 C3573 1.383 . S
C3574 C3575 1.377 . S
C3575 H3559 0.930 . S
C3575 C3574 1.377 . S
C3575 C3576 1.379 . S
C3576 H3560 0.931 . S
C3576 C3570 1.383 . S
C3576 C3575 1.379 . S
H3577 C3571 0.959 . S
H3578 C3571 0.961 . S
H3579 C3571 0.960 . S
H3580 C3572 0.930 . S
H3581 C3573 0.929 . S
H3582 C3590 0.929 . S
H3583 C3592 0.930 . S
H3584 C3594 0.930 . S
H3585 C3597 0.929 . S
H3586 C3600 0.930 . S
H3587 C3602 0.960 . S
H3588 C3602 0.960 . S
H3589 C3602 0.960 . S
C3590 H3582 0.929 . S
C3590 C3591 1.377 . S
C3590 C3592 1.384 . S
C3591 C3590 1.377 . S
C3591 C3597 1.390 . S
C3592 H3583 0.930 . S
C3592 C3590 1.384 . S
C3592 C3593 1.372 . S
C3593 C3592 1.372 . S
C3593 C3594 1.400 . S
C3593 C3598 1.490 . S
C3594 H3584 0.930 . S
C3594 C3593 1.400 . S
C3594 C3597 1.386 . S
H3595 C3611 0.930 . S
H3596 C3612 0.931 . S
C3597 H3585 0.929 . S
C3597 C3591 1.390 . S
C3597 C3594 1.386 . S
C3598 C3593 1.490 . S
C3598 C3600 1.395 . S
C3598 C3601 1.403 . S
H3599 C3605 0.930 . S
C3600 H3586 0.930 . S
C3600 C3598 1.395 . S
C3600 C3603 1.403 . S
C3601 C3598 1.403 . S
C3601 C3602 1.524 . S
C3601 C3605 1.400 . S
C3602 H3587 0.960 . S
C3602 H3588 0.960 . S
C3602 H3589 0.960 . S
C3602 C3601 1.524 . S
C3603 C3600 1.403 . S
C3603 C3604 1.392 . S
C3603 C3607 1.495 . S
C3604 C3603 1.392 . S
C3604 C3605 1.385 . S
C3604 C3606 1.478 . S
C3605 H3599 0.930 . S
C3605 C3601 1.400 . S
C3605 C3604 1.385 . S
C3606 C3604 1.478 . S
C3606 C3608 1.381 . S
C3606 C3612 1.383 . S
C3607 C3603 1.495 . S
C3607 H3613 0.959 . S
C3607 H3614 0.961 . S
C3607 H3615 0.960 . S
C3608 C3606 1.381 . S
C3608 C3609 1.394 . S
C3608 H3616 0.930 . S
C3609 C3608 1.394 . S
C3609 C3610 1.383 . S
C3609 H3617 0.929 . S
C3610 C3609 1.383 . S
C3610 C3611 1.377 . S
C3611 H3595 0.930 . S
C3611 C3610 1.377 . S
C3611 C3612 1.379 . S
C3612 H3596 0.931 . S
C3612 C3606 1.383 . S
C3612 C3611 1.379 . S
H3613 C3607 0.959 . S
H3614 C3607 0.961 . S
H3615 C3607 0.960 . S
H3616 C3608 0.930 . S
H3617 C3609 0.929 . S
H3618 C3626 0.929 . S
H3619 C3628 0.930 . S
H3620 C3630 0.930 . S
H3621 C3633 0.929 . S
H3622 C3636 0.930 . S
H3623 C3638 0.960 . S
H3624 C3638 0.960 . S
H3625 C3638 0.960 . S
C3626 H3618 0.929 . S
C3626 C3627 1.377 . S
C3626 C3628 1.384 . S
C3627 C3626 1.377 . S
C3627 C3633 1.390 . S
C3628 H3619 0.930 . S
C3628 C3626 1.384 . S
C3628 C3629 1.372 . S
C3629 C3628 1.372 . S
C3629 C3630 1.400 . S
C3629 C3634 1.490 . S
C3630 H3620 0.930 . S
C3630 C3629 1.400 . S
C3630 C3633 1.386 . S
H3631 C3647 0.930 . S
H3632 C3648 0.931 . S
C3633 H3621 0.929 . S
C3633 C3627 1.390 . S
C3633 C3630 1.386 . S
C3634 C3629 1.490 . S
C3634 C3636 1.395 . S
C3634 C3637 1.403 . S
H3635 C3641 0.930 . S
C3636 H3622 0.930 . S
C3636 C3634 1.395 . S
C3636 C3639 1.403 . S
C3637 C3634 1.403 . S
C3637 C3638 1.524 . S
C3637 C3641 1.400 . S
C3638 H3623 0.960 . S
C3638 H3624 0.960 . S
C3638 H3625 0.960 . S
C3638 C3637 1.524 . S
C3639 C3636 1.403 . S
C3639 C3640 1.392 . S
C3639 C3643 1.495 . S
C3640 C3639 1.392 . S
C3640 C3641 1.385 . S
C3640 C3642 1.478 . S
C3641 H3635 0.930 . S
C3641 C3637 1.400 . S
C3641 C3640 1.385 . S
C3642 C3640 1.478 . S
C3642 C3644 1.381 . S
C3642 C3648 1.383 . S
C3643 C3639 1.495 . S
C3643 H3649 0.959 . S
C3643 H3650 0.961 . S
C3643 H3651 0.960 . S
C3644 C3642 1.381 . S
C3644 C3645 1.394 . S
C3644 H3652 0.930 . S
C3645 C3644 1.394 . S
C3645 C3646 1.383 . S
C3645 H3653 0.929 . S
C3646 C3645 1.383 . S
C3646 C3647 1.377 . S
C3647 H3631 0.930 . S
C3647 C3646 1.377 . S
C3647 C3648 1.379 . S
C3648 H3632 0.931 . S
C3648 C3642 1.383 . S
C3648 C3647 1.379 . S
H3649 C3643 0.959 . S
H3650 C3643 0.961 . S
H3651 C3643 0.960 . S
H3652 C3644 0.930 . S
H3653 C3645 0.929 . S
H3654 C3662 0.929 . S
H3655 C3664 0.930 . S
H3656 C3666 0.930 . S
H3657 C3669 0.929 . S
H3658 C3672 0.930 . S
H3659 C3674 0.960 . S
H3660 C3674 0.960 . S
H3661 C3674 0.960 . S
C3662 H3654 0.929 . S
C3662 C3663 1.377 . S
C3662 C3664 1.384 . S
C3663 C3662 1.377 . S
C3663 C3669 1.390 . S
C3664 H3655 0.930 . S
C3664 C3662 1.384 . S
C3664 C3665 1.372 . S
C3665 C3664 1.372 . S
C3665 C3666 1.400 . S
C3665 C3670 1.490 . S
C3666 H3656 0.930 . S
C3666 C3665 1.400 . S
C3666 C3669 1.386 . S
H3667 C3683 0.930 . S
H3668 C3684 0.931 . S
C3669 H3657 0.929 . S
C3669 C3663 1.390 . S
C3669 C3666 1.386 . S
C3670 C3665 1.490 . S
C3670 C3672 1.395 . S
C3670 C3673 1.403 . S
H3671 C3677 0.930 . S
C3672 H3658 0.930 . S
C3672 C3670 1.395 . S
C3672 C3675 1.403 . S
C3673 C3670 1.403 . S
C3673 C3674 1.524 . S
C3673 C3677 1.400 . S
C3674 H3659 0.960 . S
C3674 H3660 0.960 . S
C3674 H3661 0.960 . S
C3674 C3673 1.524 . S
C3675 C3672 1.403 . S
C3675 C3676 1.392 . S
C3675 C3679 1.495 . S
C3676 C3675 1.392 . S
C3676 C3677 1.385 . S
C3676 C3678 1.478 . S
C3677 H3671 0.930 . S
C3677 C3673 1.400 . S
C3677 C3676 1.385 . S
C3678 C3676 1.478 . S
C3678 C3680 1.381 . S
C3678 C3684 1.383 . S
C3679 C3675 1.495 . S
C3679 H3685 0.959 . S
C3679 H3686 0.961 . S
C3679 H3687 0.960 . S
C3680 C3678 1.381 . S
C3680 C3681 1.394 . S
C3680 H3688 0.930 . S
C3681 C3680 1.394 . S
C3681 C3682 1.383 . S
C3681 H3689 0.929 . S
C3682 C3681 1.383 . S
C3682 C3683 1.377 . S
C3683 H3667 0.930 . S
C3683 C3682 1.377 . S
C3683 C3684 1.379 . S
C3684 H3668 0.931 . S
C3684 C3678 1.383 . S
C3684 C3683 1.379 . S
H3685 C3679 0.959 . S
H3686 C3679 0.961 . S
H3687 C3679 0.960 . S
H3688 C3680 0.930 . S
H3689 C3681 0.929 . S
H3690 C3698 0.929 . S
H3691 C3700 0.930 . S
H3692 C3702 0.930 . S
H3693 C3705 0.929 . S
H3694 C3708 0.930 . S
H3695 C3710 0.960 . S
H3696 C3710 0.960 . S
H3697 C3710 0.960 . S
C3698 H3690 0.929 . S
C3698 C3699 1.377 . S
C3698 C3700 1.384 . S
C3699 C3698 1.377 . S
C3699 C3705 1.390 . S
C3700 H3691 0.930 . S
C3700 C3698 1.384 . S
C3700 C3701 1.372 . S
C3701 C3700 1.372 . S
C3701 C3702 1.400 . S
C3701 C3706 1.490 . S
C3702 H3692 0.930 . S
C3702 C3701 1.400 . S
C3702 C3705 1.386 . S
H3703 C3719 0.930 . S
H3704 C3720 0.931 . S
C3705 H3693 0.929 . S
C3705 C3699 1.390 . S
C3705 C3702 1.386 . S
C3706 C3701 1.490 . S
C3706 C3708 1.395 . S
C3706 C3709 1.403 . S
H3707 C3713 0.930 . S
C3708 H3694 0.930 . S
C3708 C3706 1.395 . S
C3708 C3711 1.403 . S
C3709 C3706 1.403 . S
C3709 C3710 1.524 . S
C3709 C3713 1.400 . S
C3710 H3695 0.960 . S
C3710 H3696 0.960 . S
C3710 H3697 0.960 . S
C3710 C3709 1.524 . S
C3711 C3708 1.403 . S
C3711 C3712 1.392 . S
C3711 C3715 1.495 . S
C3712 C3711 1.392 . S
C3712 C3713 1.385 . S
C3712 C3714 1.478 . S
C3713 H3707 0.930 . S
C3713 C3709 1.400 . S
C3713 C3712 1.385 . S
C3714 C3712 1.478 . S
C3714 C3716 1.381 . S
C3714 C3720 1.383 . S
C3715 C3711 1.495 . S
C3715 H3721 0.959 . S
C3715 H3722 0.961 . S
C3715 H3723 0.960 . S
C3716 C3714 1.381 . S
C3716 C3717 1.394 . S
C3716 H3724 0.930 . S
C3717 C3716 1.394 . S
C3717 C3718 1.383 . S
C3717 H3725 0.929 . S
C3718 C3717 1.383 . S
C3718 C3719 1.377 . S
C3719 H3703 0.930 . S
C3719 C3718 1.377 . S
C3719 C3720 1.379 . S
C3720 H3704 0.931 . S
C3720 C3714 1.383 . S
C3720 C3719 1.379 . S
H3721 C3715 0.959 . S
H3722 C3715 0.961 . S
H3723 C3715 0.960 . S
H3724 C3716 0.930 . S
H3725 C3717 0.929 . S
H3726 C3734 0.929 . S
H3727 C3736 0.930 . S
H3728 C3738 0.930 . S
H3729 C3741 0.929 . S
H3730 C3744 0.930 . S
H3731 C3746 0.960 . S
H3732 C3746 0.960 . S
H3733 C3746 0.960 . S
C3734 H3726 0.929 . S
C3734 C3735 1.377 . S
C3734 C3736 1.384 . S
C3735 C3734 1.377 . S
C3735 C3741 1.390 . S
C3736 H3727 0.930 . S
C3736 C3734 1.384 . S
C3736 C3737 1.372 . S
C3737 C3736 1.372 . S
C3737 C3738 1.400 . S
C3737 C3742 1.490 . S
C3738 H3728 0.930 . S
C3738 C3737 1.400 . S
C3738 C3741 1.386 . S
H3739 C3755 0.930 . S
H3740 C3756 0.931 . S
C3741 H3729 0.929 . S
C3741 C3735 1.390 . S
C3741 C3738 1.386 . S
C3742 C3737 1.490 . S
C3742 C3744 1.395 . S
C3742 C3745 1.403 . S
H3743 C3749 0.930 . S
C3744 H3730 0.930 . S
C3744 C3742 1.395 . S
C3744 C3747 1.403 . S
C3745 C3742 1.403 . S
C3745 C3746 1.524 . S
C3745 C3749 1.400 . S
C3746 H3731 0.960 . S
C3746 H3732 0.960 . S
C3746 H3733 0.960 . S
C3746 C3745 1.524 . S
C3747 C3744 1.403 . S
C3747 C3748 1.392 . S
C3747 C3751 1.495 . S
C3748 C3747 1.392 . S
C3748 C3749 1.385 . S
C3748 C3750 1.478 . S
C3749 H3743 0.930 . S
C3749 C3745 1.400 . S
C3749 C3748 1.385 . S
C3750 C3748 1.478 . S
C3750 C3752 1.381 . S
C3750 C3756 1.383 . S
C3751 C3747 1.495 . S
C3751 H3757 0.959 . S
C3751 H3758 0.961 . S
C3751 H3759 0.960 . S
C3752 C3750 1.381 . S
C3752 C3753 1.394 . S
C3752 H3760 0.930 . S
C3753 C3752 1.394 . S
C3753 C3754 1.383 . S
C3753 H3761 0.929 . S
C3754 C3753 1.383 . S
C3754 C3755 1.377 . S
C3755 H3739 0.930 . S
C3755 C3754 1.377 . S
C3755 C3756 1.379 . S
C3756 H3740 0.931 . S
C3756 C3750 1.383 . S
C3756 C3755 1.379 . S
H3757 C3751 0.959 . S
H3758 C3751 0.961 . S
H3759 C3751 0.960 . S
H3760 C3752 0.930 . S
H3761 C3753 0.929 . S
H3762 C3770 0.929 . S
H3763 C3772 0.930 . S
H3764 C3774 0.930 . S
H3765 C3777 0.929 . S
H3766 C3780 0.930 . S
H3767 C3782 0.960 . S
H3768 C3782 0.960 . S
H3769 C3782 0.960 . S
C3770 H3762 0.929 . S
C3770 C3771 1.377 . S
C3770 C3772 1.384 . S
C3771 C3770 1.377 . S
C3771 C3777 1.390 . S
C3772 H3763 0.930 . S
C3772 C3770 1.384 . S
C3772 C3773 1.372 . S
C3773 C3772 1.372 . S
C3773 C3774 1.400 . S
C3773 C3778 1.490 . S
C3774 H3764 0.930 . S
C3774 C3773 1.400 . S
C3774 C3777 1.386 . S
H3775 C3791 0.930 . S
H3776 C3792 0.931 . S
C3777 H3765 0.929 . S
C3777 C3771 1.390 . S
C3777 C3774 1.386 . S
C3778 C3773 1.490 . S
C3778 C3780 1.395 . S
C3778 C3781 1.403 . S
H3779 C3785 0.930 . S
C3780 H3766 0.930 . S
C3780 C3778 1.395 . S
C3780 C3783 1.403 . S
C3781 C3778 1.403 . S
C3781 C3782 1.524 . S
C3781 C3785 1.400 . S
C3782 H3767 0.960 . S
C3782 H3768 0.960 . S
C3782 H3769 0.960 . S
C3782 C3781 1.524 . S
C3783 C3780 1.403 . S
C3783 C3784 1.392 . S
C3783 C3787 1.495 . S
C3784 C3783 1.392 . S
C3784 C3785 1.385 . S
C3784 C3786 1.478 . S
C3785 H3779 0.930 . S
C3785 C3781 1.400 . S
C3785 C3784 1.385 . S
C3786 C3784 1.478 . S
C3786 C3788 1.381 . S
C3786 C3792 1.383 . S
C3787 C3783 1.495 . S
C3787 H3793 0.959 . S
C3787 H3794 0.961 . S
C3787 H3795 0.960 . S
C3788 C3786 1.381 . S
C3788 C3789 1.394 . S
C3788 H3796 0.930 . S
C3789 C3788 1.394 . S
C3789 C3790 1.383 . S
C3789 H3797 0.929 . S
C3790 C3789 1.383 . S
C3790 C3791 1.377 . S
C3791 H3775 0.930 . S
C3791 C3790 1.377 . S
C3791 C3792 1.379 . S
C3792 H3776 0.931 . S
C3792 C3786 1.383 . S
C3792 C3791 1.379 . S
H3793 C3787 0.959 . S
H3794 C3787 0.961 . S
H3795 C3787 0.960 . S
H3796 C3788 0.930 . S
H3797 C3789 0.929 . S
H3798 C3806 0.929 . S
H3799 C3808 0.930 . S
H3800 C3810 0.930 . S
H3801 C3813 0.929 . S
H3802 C3816 0.930 . S
H3803 C3818 0.960 . S
H3804 C3818 0.960 . S
H3805 C3818 0.960 . S
C3806 H3798 0.929 . S
C3806 C3807 1.377 . S
C3806 C3808 1.384 . S
C3807 C3806 1.377 . S
C3807 C3813 1.390 . S
C3808 H3799 0.930 . S
C3808 C3806 1.384 . S
C3808 C3809 1.372 . S
C3809 C3808 1.372 . S
C3809 C3810 1.400 . S
C3809 C3814 1.490 . S
C3810 H3800 0.930 . S
C3810 C3809 1.400 . S
C3810 C3813 1.386 . S
H3811 C3827 0.930 . S
H3812 C3828 0.931 . S
C3813 H3801 0.929 . S
C3813 C3807 1.390 . S
C3813 C3810 1.386 . S
C3814 C3809 1.490 . S
C3814 C3816 1.395 . S
C3814 C3817 1.403 . S
H3815 C3821 0.930 . S
C3816 H3802 0.930 . S
C3816 C3814 1.395 . S
C3816 C3819 1.403 . S
C3817 C3814 1.403 . S
C3817 C3818 1.524 . S
C3817 C3821 1.400 . S
C3818 H3803 0.960 . S
C3818 H3804 0.960 . S
C3818 H3805 0.960 . S
C3818 C3817 1.524 . S
C3819 C3816 1.403 . S
C3819 C3820 1.392 . S
C3819 C3823 1.495 . S
C3820 C3819 1.392 . S
C3820 C3821 1.385 . S
C3820 C3822 1.478 . S
C3821 H3815 0.930 . S
C3821 C3817 1.400 . S
C3821 C3820 1.385 . S
C3822 C3820 1.478 . S
C3822 C3824 1.381 . S
C3822 C3828 1.383 . S
C3823 C3819 1.495 . S
C3823 H3829 0.959 . S
C3823 H3830 0.961 . S
C3823 H3831 0.960 . S
C3824 C3822 1.381 . S
C3824 C3825 1.394 . S
C3824 H3832 0.930 . S
C3825 C3824 1.394 . S
C3825 C3826 1.383 . S
C3825 H3833 0.929 . S
C3826 C3825 1.383 . S
C3826 C3827 1.377 . S
C3827 H3811 0.930 . S
C3827 C3826 1.377 . S
C3827 C3828 1.379 . S
C3828 H3812 0.931 . S
C3828 C3822 1.383 . S
C3828 C3827 1.379 . S
H3829 C3823 0.959 . S
H3830 C3823 0.961 . S
H3831 C3823 0.960 . S
H3832 C3824 0.930 . S
H3833 C3825 0.929 . S
H3834 C3842 0.929 . S
H3835 C3844 0.930 . S
H3836 C3846 0.930 . S
H3837 C3849 0.929 . S
H3838 C3852 0.930 . S
H3839 C3854 0.960 . S
H3840 C3854 0.960 . S
H3841 C3854 0.960 . S
C3842 H3834 0.929 . S
C3842 C3843 1.377 . S
C3842 C3844 1.384 . S
C3843 C3842 1.377 . S
C3843 C3849 1.390 . S
C3844 H3835 0.930 . S
C3844 C3842 1.384 . S
C3844 C3845 1.372 . S
C3845 C3844 1.372 . S
C3845 C3846 1.400 . S
C3845 C3850 1.490 . S
C3846 H3836 0.930 . S
C3846 C3845 1.400 . S
C3846 C3849 1.386 . S
H3847 C3863 0.930 . S
H3848 C3864 0.931 . S
C3849 H3837 0.929 . S
C3849 C3843 1.390 . S
C3849 C3846 1.386 . S
C3850 C3845 1.490 . S
C3850 C3852 1.395 . S
C3850 C3853 1.403 . S
H3851 C3857 0.930 . S
C3852 H3838 0.930 . S
C3852 C3850 1.395 . S
C3852 C3855 1.403 . S
C3853 C3850 1.403 . S
C3853 C3854 1.524 . S
C3853 C3857 1.400 . S
C3854 H3839 0.960 . S
C3854 H3840 0.960 . S
C3854 H3841 0.960 . S
C3854 C3853 1.524 . S
C3855 C3852 1.403 . S
C3855 C3856 1.392 . S
C3855 C3859 1.495 . S
C3856 C3855 1.392 . S
C3856 C3857 1.385 . S
C3856 C3858 1.478 . S
C3857 H3851 0.930 . S
C3857 C3853 1.400 . S
C3857 C3856 1.385 . S
C3858 C3856 1.478 . S
C3858 C3860 1.381 . S
C3858 C3864 1.383 . S
C3859 C3855 1.495 . S
C3859 H3865 0.959 . S
C3859 H3866 0.961 . S
C3859 H3867 0.960 . S
C3860 C3858 1.381 . S
C3860 C3861 1.394 . S
C3860 H3868 0.930 . S
C3861 C3860 1.394 . S
C3861 C3862 1.383 . S
C3861 H3869 0.929 . S
C3862 C3861 1.383 . S
C3862 C3863 1.377 . S
C3863 H3847 0.930 . S
C3863 C3862 1.377 . S
C3863 C3864 1.379 . S
C3864 H3848 0.931 . S
C3864 C3858 1.383 . S
C3864 C3863 1.379 . S
H3865 C3859 0.959 . S
H3866 C3859 0.961 . S
H3867 C3859 0.960 . S
H3868 C3860 0.930 . S
H3869 C3861 0.929 . S
H3870 C3878 0.929 . S
H3871 C3880 0.930 . S
H3872 C3882 0.930 . S
H3873 C3885 0.929 . S
H3874 C3888 0.930 . S
H3875 C3890 0.960 . S
H3876 C3890 0.960 . S
H3877 C3890 0.960 . S
C3878 H3870 0.929 . S
C3878 C3879 1.377 . S
C3878 C3880 1.384 . S
C3879 C3878 1.377 . S
C3879 C3885 1.390 . S
C3880 H3871 0.930 . S
C3880 C3878 1.384 . S
C3880 C3881 1.372 . S
C3881 C3880 1.372 . S
C3881 C3882 1.400 . S
C3881 C3886 1.490 . S
C3882 H3872 0.930 . S
C3882 C3881 1.400 . S
C3882 C3885 1.386 . S
H3883 C3899 0.930 . S
H3884 C3900 0.931 . S
C3885 H3873 0.929 . S
C3885 C3879 1.390 . S
C3885 C3882 1.386 . S
C3886 C3881 1.490 . S
C3886 C3888 1.395 . S
C3886 C3889 1.403 . S
H3887 C3893 0.930 . S
C3888 H3874 0.930 . S
C3888 C3886 1.395 . S
C3888 C3891 1.403 . S
C3889 C3886 1.403 . S
C3889 C3890 1.524 . S
C3889 C3893 1.400 . S
C3890 H3875 0.960 . S
C3890 H3876 0.960 . S
C3890 H3877 0.960 . S
C3890 C3889 1.524 . S
C3891 C3888 1.403 . S
C3891 C3892 1.392 . S
C3891 C3895 1.495 . S
C3892 C3891 1.392 . S
C3892 C3893 1.385 . S
C3892 C3894 1.478 . S
C3893 H3887 0.930 . S
C3893 C3889 1.400 . S
C3893 C3892 1.385 . S
C3894 C3892 1.478 . S
C3894 C3896 1.381 . S
C3894 C3900 1.383 . S
C3895 C3891 1.495 . S
C3895 H3901 0.959 . S
C3895 H3902 0.961 . S
C3895 H3903 0.960 . S
C3896 C3894 1.381 . S
C3896 C3897 1.394 . S
C3896 H3904 0.930 . S
C3897 C3896 1.394 . S
C3897 C3898 1.383 . S
C3897 H3905 0.929 . S
C3898 C3897 1.383 . S
C3898 C3899 1.377 . S
C3899 H3883 0.930 . S
C3899 C3898 1.377 . S
C3899 C3900 1.379 . S
C3900 H3884 0.931 . S
C3900 C3894 1.383 . S
C3900 C3899 1.379 . S
H3901 C3895 0.959 . S
H3902 C3895 0.961 . S
H3903 C3895 0.960 . S
H3904 C3896 0.930 . S
H3905 C3897 0.929 . S
H3906 C3914 0.929 . S
H3907 C3916 0.930 . S
H3908 C3918 0.930 . S
H3909 C3921 0.929 . S
H3910 C3924 0.930 . S
H3911 C3926 0.960 . S
H3912 C3926 0.960 . S
H3913 C3926 0.960 . S
C3914 H3906 0.929 . S
C3914 C3915 1.377 . S
C3914 C3916 1.384 . S
C3915 C3914 1.377 . S
C3915 C3921 1.390 . S
C3916 H3907 0.930 . S
C3916 C3914 1.384 . S
C3916 C3917 1.372 . S
C3917 C3916 1.372 . S
C3917 C3918 1.400 . S
C3917 C3922 1.490 . S
C3918 H3908 0.930 . S
C3918 C3917 1.400 . S
C3918 C3921 1.386 . S
H3919 C3935 0.930 . S
H3920 C3936 0.931 . S
C3921 H3909 0.929 . S
C3921 C3915 1.390 . S
C3921 C3918 1.386 . S
C3922 C3917 1.490 . S
C3922 C3924 1.395 . S
C3922 C3925 1.403 . S
H3923 C3929 0.930 . S
C3924 H3910 0.930 . S
C3924 C3922 1.395 . S
C3924 C3927 1.403 . S
C3925 C3922 1.403 . S
C3925 C3926 1.524 . S
C3925 C3929 1.400 . S
C3926 H3911 0.960 . S
C3926 H3912 0.960 . S
C3926 H3913 0.960 . S
C3926 C3925 1.524 . S
C3927 C3924 1.403 . S
C3927 C3928 1.392 . S
C3927 C3931 1.495 . S
C3928 C3927 1.392 . S
C3928 C3929 1.385 . S
C3928 C3930 1.478 . S
C3929 H3923 0.930 . S
C3929 C3925 1.400 . S
C3929 C3928 1.385 . S
C3930 C3928 1.478 . S
C3930 C3932 1.381 . S
C3930 C3936 1.383 . S
C3931 C3927 1.495 . S
C3931 H3937 0.959 . S
C3931 H3938 0.961 . S
C3931 H3939 0.960 . S
C3932 C3930 1.381 . S
C3932 C3933 1.394 . S
C3932 H3940 0.930 . S
C3933 C3932 1.394 . S
C3933 C3934 1.383 . S
C3933 H3941 0.929 . S
C3934 C3933 1.383 . S
C3934 C3935 1.377 . S
C3935 H3919 0.930 . S
C3935 C3934 1.377 . S
C3935 C3936 1.379 . S
C3936 H3920 0.931 . S
C3936 C3930 1.383 . S
C3936 C3935 1.379 . S
H3937 C3931 0.959 . S
H3938 C3931 0.961 . S
H3939 C3931 0.960 . S
H3940 C3932 0.930 . S
H3941 C3933 0.929 . S
H3942 C3950 0.929 . S
H3943 C3952 0.930 . S
H3944 C3954 0.930 . S
H3945 C3957 0.929 . S
H3946 C3960 0.930 . S
H3947 C3962 0.960 . S
H3948 C3962 0.960 . S
H3949 C3962 0.960 . S
C3950 H3942 0.929 . S
C3950 C3951 1.377 . S
C3950 C3952 1.384 . S
C3951 C3950 1.377 . S
C3951 C3957 1.390 . S
C3952 H3943 0.930 . S
C3952 C3950 1.384 . S
C3952 C3953 1.372 . S
C3953 C3952 1.372 . S
C3953 C3954 1.400 . S
C3953 C3958 1.490 . S
C3954 H3944 0.930 . S
C3954 C3953 1.400 . S
C3954 C3957 1.386 . S
H3955 C3971 0.930 . S
H3956 C3972 0.931 . S
C3957 H3945 0.929 . S
C3957 C3951 1.390 . S
C3957 C3954 1.386 . S
C3958 C3953 1.490 . S
C3958 C3960 1.395 . S
C3958 C3961 1.403 . S
H3959 C3965 0.930 . S
C3960 H3946 0.930 . S
C3960 C3958 1.395 . S
C3960 C3963 1.403 . S
C3961 C3958 1.403 . S
C3961 C3962 1.524 . S
C3961 C3965 1.400 . S
C3962 H3947 0.960 . S
C3962 H3948 0.960 . S
C3962 H3949 0.960 . S
C3962 C3961 1.524 . S
C3963 C3960 1.403 . S
C3963 C3964 1.392 . S
C3963 C3967 1.495 . S
C3964 C3963 1.392 . S
C3964 C3965 1.385 . S
C3964 C3966 1.478 . S
C3965 H3959 0.930 . S
C3965 C3961 1.400 . S
C3965 C3964 1.385 . S
C3966 C3964 1.478 . S
C3966 C3968 1.381 . S
C3966 C3972 1.383 . S
C3967 C3963 1.495 . S
C3967 H3973 0.959 . S
C3967 H3974 0.961 . S
C3967 H3975 0.960 . S
C3968 C3966 1.381 . S
C3968 C3969 1.394 . S
C3968 H3976 0.930 . S
C3969 C3968 1.394 . S
C3969 C3970 1.383 . S
C3969 H3977 0.929 . S
C3970 C3969 1.383 . S
C3970 C3971 1.377 . S
C3971 H3955 0.930 . S
C3971 C3970 1.377 . S
C3971 C3972 1.379 . S
C3972 H3956 0.931 . S
C3972 C3966 1.383 . S
C3972 C3971 1.379 . S
H3973 C3967 0.959 . S
H3974 C3967 0.961 . S
H3975 C3967 0.960 . S
H3976 C3968 0.930 . S
H3977 C3969 0.929 . S
H3978 C3986 0.929 . S
H3979 C3988 0.930 . S
H3980 C3990 0.930 . S
H3981 C3993 0.929 . S
H3982 C3996 0.930 . S
H3983 C3998 0.960 . S
H3984 C3998 0.960 . S
H3985 C3998 0.960 . S
C3986 H3978 0.929 . S
C3986 C3987 1.377 . S
C3986 C3988 1.384 . S
C3987 C3986 1.377 . S
C3987 C3993 1.390 . S
C3988 H3979 0.930 . S
C3988 C3986 1.384 . S
C3988 C3989 1.372 . S
C3989 C3988 1.372 . S
C3989 C3990 1.400 . S
C3989 C3994 1.490 . S
C3990 H3980 0.930 . S
C3990 C3989 1.400 . S
C3990 C3993 1.386 . S
H3991 C4007 0.930 . S
H3992 C4008 0.931 . S
C3993 H3981 0.929 . S
C3993 C3987 1.390 . S
C3993 C3990 1.386 . S
C3994 C3989 1.490 . S
C3994 C3996 1.395 . S
C3994 C3997 1.403 . S
H3995 C4001 0.930 . S
C3996 H3982 0.930 . S
C3996 C3994 1.395 . S
C3996 C3999 1.403 . S
C3997 C3994 1.403 . S
C3997 C3998 1.524 . S
C3997 C4001 1.400 . S
C3998 H3983 0.960 . S
C3998 H3984 0.960 . S
C3998 H3985 0.960 . S
C3998 C3997 1.524 . S
C3999 C3996 1.403 . S
C3999 C4000 1.392 . S
C3999 C4003 1.495 . S
C4000 C3999 1.392 . S
C4000 C4001 1.385 . S
C4000 C4002 1.478 . S
C4001 H3995 0.930 . S
C4001 C3997 1.400 . S
C4001 C4000 1.385 . S
C4002 C4000 1.478 . S
C4002 C4004 1.381 . S
C4002 C4008 1.383 . S
C4003 C3999 1.495 . S
C4003 H4009 0.959 . S
C4003 H4010 0.961 . S
C4003 H4011 0.960 . S
C4004 C4002 1.381 . S
C4004 C4005 1.394 . S
C4004 H4012 0.930 . S
C4005 C4004 1.394 . S
C4005 C4006 1.383 . S
C4005 H4013 0.929 . S
C4006 C4005 1.383 . S
C4006 C4007 1.377 . S
C4007 H3991 0.930 . S
C4007 C4006 1.377 . S
C4007 C4008 1.379 . S
C4008 H3992 0.931 . S
C4008 C4002 1.383 . S
C4008 C4007 1.379 . S
H4009 C4003 0.959 . S
H4010 C4003 0.961 . S
H4011 C4003 0.960 . S
H4012 C4004 0.930 . S
H4013 C4005 0.929 . S
H4014 C4022 0.929 . S
H4015 C4024 0.930 . S
H4016 C4026 0.930 . S
H4017 C4029 0.929 . S
H4018 C4032 0.930 . S
H4019 C4034 0.960 . S
H4020 C4034 0.960 . S
H4021 C4034 0.960 . S
C4022 H4014 0.929 . S
C4022 C4023 1.377 . S
C4022 C4024 1.384 . S
C4023 C4022 1.377 . S
C4023 C4029 1.390 . S
C4024 H4015 0.930 . S
C4024 C4022 1.384 . S
C4024 C4025 1.372 . S
C4025 C4024 1.372 . S
C4025 C4026 1.400 . S
C4025 C4030 1.490 . S
C4026 H4016 0.930 . S
C4026 C4025 1.400 . S
C4026 C4029 1.386 . S
H4027 C4043 0.930 . S
H4028 C4044 0.931 . S
C4029 H4017 0.929 . S
C4029 C4023 1.390 . S
C4029 C4026 1.386 . S
C4030 C4025 1.490 . S
C4030 C4032 1.395 . S
C4030 C4033 1.403 . S
H4031 C4037 0.930 . S
C4032 H4018 0.930 . S
C4032 C4030 1.395 . S
C4032 C4035 1.403 . S
C4033 C4030 1.403 . S
C4033 C4034 1.524 . S
C4033 C4037 1.400 . S
C4034 H4019 0.960 . S
C4034 H4020 0.960 . S
C4034 H4021 0.960 . S
C4034 C4033 1.524 . S
C4035 C4032 1.403 . S
C4035 C4036 1.392 . S
C4035 C4039 1.495 . S
C4036 C4035 1.392 . S
C4036 C4037 1.385 . S
C4036 C4038 1.478 . S
C4037 H4031 0.930 . S
C4037 C4033 1.400 . S
C4037 C4036 1.385 . S
C4038 C4036 1.478 . S
C4038 C4040 1.381 . S
C4038 C4044 1.383 . S
C4039 C4035 1.495 . S
C4039 H4045 0.959 . S
C4039 H4046 0.961 . S
C4039 H4047 0.960 . S
C4040 C4038 1.381 . S
C4040 C4041 1.394 . S
C4040 H4048 0.930 . S
C4041 C4040 1.394 . S
C4041 C4042 1.383 . S
C4041 H4049 0.929 . S
C4042 C4041 1.383 . S
C4042 C4043 1.377 . S
C4043 H4027 0.930 . S
C4043 C4042 1.377 . S
C4043 C4044 1.379 . S
C4044 H4028 0.931 . S
C4044 C4038 1.383 . S
C4044 C4043 1.379 . S
H4045 C4039 0.959 . S
H4046 C4039 0.961 . S
H4047 C4039 0.960 . S
H4048 C4040 0.930 . S
H4049 C4041 0.929 . S
H4050 C4058 0.929 . S
H4051 C4060 0.930 . S
H4052 C4062 0.930 . S
H4053 C4065 0.929 . S
H4054 C4068 0.930 . S
H4055 C4070 0.960 . S
H4056 C4070 0.960 . S
H4057 C4070 0.960 . S
C4058 H4050 0.929 . S
C4058 C4059 1.377 . S
C4058 C4060 1.384 . S
C4059 C4058 1.377 . S
C4059 C4065 1.390 . S
C4060 H4051 0.930 . S
C4060 C4058 1.384 . S
C4060 C4061 1.372 . S
C4061 C4060 1.372 . S
C4061 C4062 1.400 . S
C4061 C4066 1.490 . S
C4062 H4052 0.930 . S
C4062 C4061 1.400 . S
C4062 C4065 1.386 . S
H4063 C4079 0.930 . S
H4064 C4080 0.931 . S
C4065 H4053 0.929 . S
C4065 C4059 1.390 . S
C4065 C4062 1.386 . S
C4066 C4061 1.490 . S
C4066 C4068 1.395 . S
C4066 C4069 1.403 . S
H4067 C4073 0.930 . S
C4068 H4054 0.930 . S
C4068 C4066 1.395 . S
C4068 C4071 1.403 . S
C4069 C4066 1.403 . S
C4069 C4070 1.524 . S
C4069 C4073 1.400 . S
C4070 H4055 0.960 . S
C4070 H4056 0.960 . S
C4070 H4057 0.960 . S
C4070 C4069 1.524 . S
C4071 C4068 1.403 . S
C4071 C4072 1.392 . S
C4071 C4075 1.495 . S
C4072 C4071 1.392 . S
C4072 C4073 1.385 . S
C4072 C4074 1.478 . S
C4073 H4067 0.930 . S
C4073 C4069 1.400 . S
C4073 C4072 1.385 . S
C4074 C4072 1.478 . S
C4074 C4076 1.381 . S
C4074 C4080 1.383 . S
C4075 C4071 1.495 . S
C4075 H4081 0.959 . S
C4075 H4082 0.961 . S
C4075 H4083 0.960 . S
C4076 C4074 1.381 . S
C4076 C4077 1.394 . S
C4076 H4084 0.930 . S
C4077 C4076 1.394 . S
C4077 C4078 1.383 . S
C4077 H4085 0.929 . S
C4078 C4077 1.383 . S
C4078 C4079 1.377 . S
C4079 H4063 0.930 . S
C4079 C4078 1.377 . S
C4079 C4080 1.379 . S
C4080 H4064 0.931 . S
C4080 C4074 1.383 . S
C4080 C4079 1.379 . S
H4081 C4075 0.959 . S
H4082 C4075 0.961 . S
H4083 C4075 0.960 . S
H4084 C4076 0.930 . S
H4085 C4077 0.929 . S
H4086 C4094 0.929 . S
H4087 C4096 0.930 . S
H4088 C4098 0.930 . S
H4089 C4101 0.929 . S
H4090 C4104 0.930 . S
H4091 C4106 0.960 . S
H4092 C4106 0.960 . S
H4093 C4106 0.960 . S
C4094 H4086 0.929 . S
C4094 C4095 1.377 . S
C4094 C4096 1.384 . S
C4095 C4094 1.377 . S
C4095 C4101 1.390 . S
C4096 H4087 0.930 . S
C4096 C4094 1.384 . S
C4096 C4097 1.372 . S
C4097 C4096 1.372 . S
C4097 C4098 1.400 . S
C4097 C4102 1.490 . S
C4098 H4088 0.930 . S
C4098 C4097 1.400 . S
C4098 C4101 1.386 . S
H4099 C4115 0.930 . S
H4100 C4116 0.931 . S
C4101 H4089 0.929 . S
C4101 C4095 1.390 . S
C4101 C4098 1.386 . S
C4102 C4097 1.490 . S
C4102 C4104 1.395 . S
C4102 C4105 1.403 . S
H4103 C4109 0.930 . S
C4104 H4090 0.930 . S
C4104 C4102 1.395 . S
C4104 C4107 1.403 . S
C4105 C4102 1.403 . S
C4105 C4106 1.524 . S
C4105 C4109 1.400 . S
C4106 H4091 0.960 . S
C4106 H4092 0.960 . S
C4106 H4093 0.960 . S
C4106 C4105 1.524 . S
C4107 C4104 1.403 . S
C4107 C4108 1.392 . S
C4107 C4111 1.495 . S
C4108 C4107 1.392 . S
C4108 C4109 1.385 . S
C4108 C4110 1.478 . S
C4109 H4103 0.930 . S
C4109 C4105 1.400 . S
C4109 C4108 1.385 . S
C4110 C4108 1.478 . S
C4110 C4112 1.381 . S
C4110 C4116 1.383 . S
C4111 C4107 1.495 . S
C4111 H4117 0.959 . S
C4111 H4118 0.961 . S
C4111 H4119 0.960 . S
C4112 C4110 1.381 . S
C4112 C4113 1.394 . S
C4112 H4120 0.930 . S
C4113 C4112 1.394 . S
C4113 C4114 1.383 . S
C4113 H4121 0.929 . S
C4114 C4113 1.383 . S
C4114 C4115 1.377 . S
C4115 H4099 0.930 . S
C4115 C4114 1.377 . S
C4115 C4116 1.379 . S
C4116 H4100 0.931 . S
C4116 C4110 1.383 . S
C4116 C4115 1.379 . S
H4117 C4111 0.959 . S
H4118 C4111 0.961 . S
H4119 C4111 0.960 . S
H4120 C4112 0.930 . S
H4121 C4113 0.929 . S
H4122 C4130 0.929 . S
H4123 C4132 0.930 . S
H4124 C4134 0.930 . S
H4125 C4137 0.929 . S
H4126 C4140 0.930 . S
H4127 C4142 0.960 . S
H4128 C4142 0.960 . S
H4129 C4142 0.960 . S
C4130 H4122 0.929 . S
C4130 C4131 1.377 . S
C4130 C4132 1.384 . S
C4131 C4130 1.377 . S
C4131 C4137 1.390 . S
C4132 H4123 0.930 . S
C4132 C4130 1.384 . S
C4132 C4133 1.372 . S
C4133 C4132 1.372 . S
C4133 C4134 1.400 . S
C4133 C4138 1.490 . S
C4134 H4124 0.930 . S
C4134 C4133 1.400 . S
C4134 C4137 1.386 . S
H4135 C4151 0.930 . S
H4136 C4152 0.931 . S
C4137 H4125 0.929 . S
C4137 C4131 1.390 . S
C4137 C4134 1.386 . S
C4138 C4133 1.490 . S
C4138 C4140 1.395 1_455 S
C4138 C4141 1.403 . S
H4139 C4145 0.930 . S
C4140 H4126 0.930 . S
C4140 C4138 1.395 1_655 S
C4140 C4143 1.403 . S
C4141 C4138 1.403 . S
C4141 C4142 1.524 . S
C4141 C4145 1.400 . S
C4142 H4127 0.960 . S
C4142 H4128 0.960 . S
C4142 H4129 0.960 . S
C4142 C4141 1.524 . S
C4143 C4140 1.403 . S
C4143 C4144 1.392 1_655 S
C4143 C4147 1.495 . S
C4144 C4143 1.392 1_455 S
C4144 C4145 1.385 . S
C4144 C4146 1.478 . S
C4145 H4139 0.930 . S
C4145 C4141 1.400 . S
C4145 C4144 1.385 . S
C4146 C4144 1.478 . S
C4146 C4148 1.381 . S
C4146 C4152 1.383 . S
C4147 C4143 1.495 . S
C4147 H4153 0.959 . S
C4147 H4154 0.961 . S
C4147 H4155 0.960 . S
C4148 C4146 1.381 . S
C4148 C4149 1.394 . S
C4148 H4156 0.930 1_455 S
C4149 C4148 1.394 . S
C4149 C4150 1.383 . S
C4149 H4157 0.929 1_455 S
C4150 C4149 1.383 . S
C4150 C4151 1.377 . S
C4151 H4135 0.930 . S
C4151 C4150 1.377 . S
C4151 C4152 1.379 . S
C4152 H4136 0.931 . S
C4152 C4146 1.383 . S
C4152 C4151 1.379 . S
H4153 C4147 0.959 . S
H4154 C4147 0.961 . S
H4155 C4147 0.960 . S
H4156 C4148 0.930 1_655 S
H4157 C4149 0.929 1_655 S
H4158 C4166 0.929 . S
H4159 C4168 0.930 . S
H4160 C4170 0.930 . S
H4161 C4173 0.929 . S
H4162 C4176 0.930 . S
H4163 C4178 0.960 . S
H4164 C4178 0.960 . S
H4165 C4178 0.960 . S
C4166 H4158 0.929 . S
C4166 C4167 1.377 . S
C4166 C4168 1.384 . S
C4167 C4166 1.377 . S
C4167 C4173 1.390 . S
C4168 H4159 0.930 . S
C4168 C4166 1.384 . S
C4168 C4169 1.372 . S
C4169 C4168 1.372 . S
C4169 C4170 1.400 . S
C4169 C4174 1.490 . S
C4170 H4160 0.930 . S
C4170 C4169 1.400 . S
C4170 C4173 1.386 . S
H4171 C4187 0.930 . S
H4172 C4188 0.931 . S
C4173 H4161 0.929 . S
C4173 C4167 1.390 . S
C4173 C4170 1.386 . S
C4174 C4169 1.490 . S
C4174 C4176 1.395 . S
C4174 C4177 1.403 . S
H4175 C4181 0.930 . S
C4176 H4162 0.930 . S
C4176 C4174 1.395 . S
C4176 C4179 1.403 . S
C4177 C4174 1.403 . S
C4177 C4178 1.524 . S
C4177 C4181 1.400 . S
C4178 H4163 0.960 . S
C4178 H4164 0.960 . S
C4178 H4165 0.960 . S
C4178 C4177 1.524 . S
C4179 C4176 1.403 . S
C4179 C4180 1.392 . S
C4179 C4183 1.495 . S
C4180 C4179 1.392 . S
C4180 C4181 1.385 . S
C4180 C4182 1.478 . S
C4181 H4175 0.930 . S
C4181 C4177 1.400 . S
C4181 C4180 1.385 . S
C4182 C4180 1.478 . S
C4182 C4184 1.381 . S
C4182 C4188 1.383 . S
C4183 C4179 1.495 . S
C4183 H4189 0.959 . S
C4183 H4190 0.961 . S
C4183 H4191 0.960 . S
C4184 C4182 1.381 . S
C4184 C4185 1.394 . S
C4184 H4192 0.930 . S
C4185 C4184 1.394 . S
C4185 C4186 1.383 . S
C4185 H4193 0.929 . S
C4186 C4185 1.383 . S
C4186 C4187 1.377 . S
C4187 H4171 0.930 . S
C4187 C4186 1.377 . S
C4187 C4188 1.379 . S
C4188 H4172 0.931 . S
C4188 C4182 1.383 . S
C4188 C4187 1.379 . S
H4189 C4183 0.959 . S
H4190 C4183 0.961 . S
H4191 C4183 0.960 . S
H4192 C4184 0.930 . S
H4193 C4185 0.929 . S
H4194 C4202 0.929 . S
H4195 C4204 0.930 1_545 S
H4196 C4206 0.930 . S
H4197 C4209 0.929 . S
H4198 C4212 0.930 . S
H4199 C4214 0.960 . S
H4200 C4214 0.960 . S
H4201 C4214 0.960 1_565 S
C4202 H4194 0.929 . S
C4202 C4203 1.377 . S
C4202 C4204 1.384 . S
C4203 C4202 1.377 . S
C4203 C4209 1.390 . S
C4204 H4195 0.930 1_565 S
C4204 C4202 1.384 . S
C4204 C4205 1.372 . S
C4205 C4204 1.372 . S
C4205 C4206 1.400 . S
C4205 C4210 1.490 . S
C4206 H4196 0.930 . S
C4206 C4205 1.400 . S
C4206 C4209 1.386 . S
H4207 C4223 0.930 . S
H4208 C4224 0.931 . S
C4209 H4197 0.929 . S
C4209 C4203 1.390 . S
C4209 C4206 1.386 . S
C4210 C4205 1.490 . S
C4210 C4212 1.395 . S
C4210 C4213 1.403 . S
H4211 C4217 0.930 . S
C4212 H4198 0.930 . S
C4212 C4210 1.395 . S
C4212 C4215 1.403 . S
C4213 C4210 1.403 . S
C4213 C4214 1.524 1_565 S
C4213 C4217 1.400 . S
C4214 H4199 0.960 . S
C4214 H4200 0.960 . S
C4214 H4201 0.960 1_545 S
C4214 C4213 1.524 1_545 S
C4215 C4212 1.403 . S
C4215 C4216 1.392 . S
C4215 C4219 1.495 . S
C4216 C4215 1.392 . S
C4216 C4217 1.385 . S
C4216 C4218 1.478 . S
C4217 H4211 0.930 . S
C4217 C4213 1.400 . S
C4217 C4216 1.385 . S
C4218 C4216 1.478 . S
C4218 C4220 1.397 . S
C4218 C4224 1.383 . S
C4219 C4215 1.495 . S
C4219 H4225 0.959 . S
C4219 H4226 0.961 . S
C4219 H4227 0.960 . S
C4220 C4218 1.397 . S
C4220 C4221 1.435 1_565 S
C4220 H4228 0.895 1_565 S
C4221 C4220 1.435 1_545 S
C4221 C4222 1.369 1_545 S
C4221 H4229 0.935 . S
C4222 C4221 1.369 1_565 S
C4222 C4223 1.377 . S
C4223 H4207 0.930 . S
C4223 C4222 1.377 . S
C4223 C4224 1.379 . S
C4224 H4208 0.931 . S
C4224 C4218 1.383 . S
C4224 C4223 1.379 . S
H4225 C4219 0.959 . S
H4226 C4219 0.961 . S
H4227 C4219 0.960 . S
H4228 C4220 0.895 1_545 S
H4229 C4221 0.935 . S
H4230 C4238 0.938 . S
H4231 C4240 0.930 . S
H4232 C4242 0.930 . S
H4233 C4245 0.929 . S
H4234 C4248 0.930 . S
H4235 C4250 0.960 . S
H4236 C4250 0.960 . S
H4237 C4250 0.960 . S
C4238 H4230 0.938 . S
C4238 C4239 1.357 1_545 S
C4238 C4240 1.396 . S
C4239 C4238 1.357 1_565 S
C4239 C4245 1.390 . S
C4240 H4231 0.930 . S
C4240 C4238 1.396 . S
C4240 C4241 1.372 1_545 S
C4241 C4240 1.372 1_565 S
C4241 C4242 1.400 . S
C4241 C4246 1.490 . S
C4242 H4232 0.930 . S
C4242 C4241 1.400 . S
C4242 C4245 1.386 . S
H4243 C4259 0.930 . S
H4244 C4260 0.931 . S
C4245 H4233 0.929 . S
C4245 C4239 1.390 . S
C4245 C4242 1.386 . S
C4246 C4241 1.490 . S
C4246 C4248 1.395 . S
C4246 C4249 1.403 . S
H4247 C4253 0.930 . S
C4248 H4234 0.930 . S
C4248 C4246 1.395 . S
C4248 C4251 1.403 . S
C4249 C4246 1.403 . S
C4249 C4250 1.524 . S
C4249 C4253 1.400 . S
C4250 H4235 0.960 . S
C4250 H4236 0.960 . S
C4250 H4237 0.960 . S
C4250 C4249 1.524 . S
C4251 C4248 1.403 . S
C4251 C4252 1.392 . S
C4251 C4255 1.495 . S
C4252 C4251 1.392 . S
C4252 C4253 1.385 . S
C4252 C4254 1.478 . S
C4253 H4247 0.930 . S
C4253 C4249 1.400 . S
C4253 C4252 1.385 . S
C4254 C4252 1.478 . S
C4254 C4256 1.381 1_565 S
C4254 C4260 1.383 . S
C4255 C4251 1.495 . S
C4255 H4261 0.959 . S
C4255 H4262 0.961 . S
C4255 H4263 0.960 1_565 S
C4256 C4254 1.381 1_545 S
C4256 C4257 1.394 . S
C4256 H4264 0.930 . S
C4257 C4256 1.394 . S
C4257 C4258 1.383 1_545 S
C4257 H4265 0.929 . S
C4258 C4257 1.383 1_565 S
C4258 C4259 1.377 . S
C4259 H4243 0.930 . S
C4259 C4258 1.377 . S
C4259 C4260 1.379 . S
C4260 H4244 0.931 . S
C4260 C4254 1.383 . S
C4260 C4259 1.379 . S
H4261 C4255 0.959 . S
H4262 C4255 0.961 . S
H4263 C4255 0.960 1_545 S
H4264 C4256 0.930 . S
H4265 C4257 0.929 . S
H4266 C4274 0.929 . S
H4267 C4276 0.930 . S
H4268 C4278 0.930 . S
H4269 C4281 0.929 . S
H4270 C4284 0.930 . S
H4271 C4286 0.960 . S
H4272 C4286 0.960 . S
H4273 C4286 0.960 . S
C4274 H4266 0.929 . S
C4274 C4275 1.377 . S
C4274 C4276 1.384 . S
C4275 C4274 1.377 . S
C4275 C4281 1.390 . S
C4276 H4267 0.930 . S
C4276 C4274 1.384 . S
C4276 C4277 1.372 . S
C4277 C4276 1.372 . S
C4277 C4278 1.400 . S
C4277 C4282 1.490 . S
C4278 H4268 0.930 . S
C4278 C4277 1.400 . S
C4278 C4281 1.386 . S
H4279 C4295 0.937 . S
H4280 C4296 0.913 1_655 S
C4281 H4269 0.929 . S
C4281 C4275 1.390 . S
C4281 C4278 1.386 . S
C4282 C4277 1.490 . S
C4282 C4284 1.395 1_455 S
C4282 C4285 1.403 . S
H4283 C4289 0.930 . S
C4284 H4270 0.930 . S
C4284 C4282 1.395 1_655 S
C4284 C4287 1.403 . S
C4285 C4282 1.403 . S
C4285 C4286 1.524 . S
C4285 C4289 1.400 . S
C4286 H4271 0.960 . S
C4286 H4272 0.960 . S
C4286 H4273 0.960 . S
C4286 C4285 1.524 . S
C4287 C4284 1.403 . S
C4287 C4288 1.392 1_655 S
C4287 C4291 1.495 . S
C4288 C4287 1.392 1_455 S
C4288 C4289 1.385 . S
C4288 C4290 1.478 . S
C4289 H4283 0.930 . S
C4289 C4285 1.400 . S
C4289 C4288 1.385 . S
C4290 C4288 1.478 . S
C4290 C4292 1.381 . S
C4290 C4296 1.384 . S
C4291 C4287 1.495 . S
C4291 H4297 0.959 . S
C4291 H4298 0.961 . S
C4291 H4299 0.960 . S
C4292 C4290 1.381 . S
C4292 C4293 1.394 . S
C4292 H4300 0.930 . S
C4293 C4292 1.394 . S
C4293 C4294 1.385 . S
C4293 H4301 0.929 . S
C4294 C4293 1.385 . S
C4294 C4295 1.352 1_455 S
C4295 H4279 0.937 . S
C4295 C4294 1.352 1_655 S
C4295 C4296 1.398 1_655 S
C4296 H4280 0.913 1_455 S
C4296 C4290 1.384 . S
C4296 C4295 1.398 1_455 S
H4297 C4291 0.959 . S
H4298 C4291 0.961 . S
H4299 C4291 0.960 . S
H4300 C4292 0.930 . S
H4301 C4293 0.929 . S
H4302 C4310 0.929 . S
H4303 C4312 0.930 . S
H4304 C4314 0.930 . S
H4305 C4317 0.929 . S
H4306 C4320 0.930 . S
H4307 C4322 0.960 . S
H4308 C4322 0.960 . S
H4309 C4322 0.960 . S
C4310 H4302 0.929 . S
C4310 C4311 1.377 . S
C4310 C4312 1.384 . S
C4311 C4310 1.377 . S
C4311 C4317 1.390 . S
C4312 H4303 0.930 . S
C4312 C4310 1.384 . S
C4312 C4313 1.372 . S
C4313 C4312 1.372 . S
C4313 C4314 1.400 . S
C4313 C4318 1.490 . S
C4314 H4304 0.930 . S
C4314 C4313 1.400 . S
C4314 C4317 1.386 . S
H4315 C4331 0.930 . S
H4316 C4332 0.931 . S
C4317 H4305 0.929 . S
C4317 C4311 1.390 . S
C4317 C4314 1.386 . S
C4318 C4313 1.490 . S
C4318 C4320 1.395 . S
C4318 C4321 1.403 . S
H4319 C4325 0.930 . S
C4320 H4306 0.930 . S
C4320 C4318 1.395 . S
C4320 C4323 1.403 . S
C4321 C4318 1.403 . S
C4321 C4322 1.524 . S
C4321 C4325 1.400 . S
C4322 H4307 0.960 . S
C4322 H4308 0.960 . S
C4322 H4309 0.960 . S
C4322 C4321 1.524 . S
C4323 C4320 1.403 . S
C4323 C4324 1.392 . S
C4323 C4327 1.495 . S
C4324 C4323 1.392 . S
C4324 C4325 1.385 . S
C4324 C4326 1.478 . S
C4325 H4319 0.930 . S
C4325 C4321 1.400 . S
C4325 C4324 1.385 . S
C4326 C4324 1.478 . S
C4326 C4328 1.381 . S
C4326 C4332 1.383 . S
C4327 C4323 1.495 . S
C4327 H4333 0.959 . S
C4327 H4334 0.961 . S
C4327 H4335 0.960 . S
C4328 C4326 1.381 . S
C4328 C4329 1.394 . S
C4328 H4336 0.930 . S
C4329 C4328 1.394 . S
C4329 C4330 1.383 . S
C4329 H4337 0.929 . S
C4330 C4329 1.383 . S
C4330 C4331 1.377 . S
C4331 H4315 0.930 . S
C4331 C4330 1.377 . S
C4331 C4332 1.379 . S
C4332 H4316 0.931 . S
C4332 C4326 1.383 . S
C4332 C4331 1.379 . S
H4333 C4327 0.959 . S
H4334 C4327 0.961 . S
H4335 C4327 0.960 . S
H4336 C4328 0.930 . S
H4337 C4329 0.929 . S
H4338 C4346 0.929 . S
H4339 C4348 0.930 . S
H4340 C4350 0.930 . S
H4341 C4353 0.929 . S
H4342 C4356 0.930 . S
H4343 C4358 0.960 . S
H4344 C4358 0.960 . S
H4345 C4358 0.960 . S
C4346 H4338 0.929 . S
C4346 C4347 1.377 . S
C4346 C4348 1.384 . S
C4347 C4346 1.377 . S
C4347 C4353 1.390 . S
C4348 H4339 0.930 . S
C4348 C4346 1.384 . S
C4348 C4349 1.372 . S
C4349 C4348 1.372 . S
C4349 C4350 1.400 . S
C4349 C4354 1.490 . S
C4350 H4340 0.930 . S
C4350 C4349 1.400 . S
C4350 C4353 1.386 . S
H4351 C4367 0.930 . S
H4352 C4368 0.931 . S
C4353 H4341 0.929 . S
C4353 C4347 1.390 . S
C4353 C4350 1.386 . S
C4354 C4349 1.490 . S
C4354 C4356 1.395 . S
C4354 C4357 1.403 . S
H4355 C4361 0.930 . S
C4356 H4342 0.930 . S
C4356 C4354 1.395 . S
C4356 C4359 1.403 . S
C4357 C4354 1.403 . S
C4357 C4358 1.524 . S
C4357 C4361 1.400 . S
C4358 H4343 0.960 . S
C4358 H4344 0.960 . S
C4358 H4345 0.960 . S
C4358 C4357 1.524 . S
C4359 C4356 1.403 . S
C4359 C4360 1.392 . S
C4359 C4363 1.495 . S
C4360 C4359 1.392 . S
C4360 C4361 1.385 . S
C4360 C4362 1.478 . S
C4361 H4355 0.930 . S
C4361 C4357 1.400 . S
C4361 C4360 1.385 . S
C4362 C4360 1.478 . S
C4362 C4364 1.381 . S
C4362 C4368 1.383 . S
C4363 C4359 1.495 . S
C4363 H4369 0.959 . S
C4363 H4370 0.961 . S
C4363 H4371 0.960 . S
C4364 C4362 1.381 . S
C4364 C4365 1.394 . S
C4364 H4372 0.930 . S
C4365 C4364 1.394 . S
C4365 C4366 1.383 . S
C4365 H4373 0.929 . S
C4366 C4365 1.383 . S
C4366 C4367 1.377 . S
C4367 H4351 0.930 . S
C4367 C4366 1.377 . S
C4367 C4368 1.379 . S
C4368 H4352 0.931 . S
C4368 C4362 1.383 . S
C4368 C4367 1.379 . S
H4369 C4363 0.959 . S
H4370 C4363 0.961 . S
H4371 C4363 0.960 . S
H4372 C4364 0.930 . S
H4373 C4365 0.929 . S
H4374 C4382 0.929 . S
H4375 C4384 0.930 . S
H4376 C4386 0.930 . S
H4377 C4389 0.929 . S
H4378 C4392 0.930 . S
H4379 C4394 0.960 . S
H4380 C4394 0.960 . S
H4381 C4394 0.960 . S
C4382 H4374 0.929 . S
C4382 C4383 1.377 . S
C4382 C4384 1.384 . S
C4383 C4382 1.377 . S
C4383 C4389 1.390 . S
C4384 H4375 0.930 . S
C4384 C4382 1.384 . S
C4384 C4385 1.372 . S
C4385 C4384 1.372 . S
C4385 C4386 1.400 . S
C4385 C4390 1.490 . S
C4386 H4376 0.930 . S
C4386 C4385 1.400 . S
C4386 C4389 1.386 . S
H4387 C4403 0.930 . S
H4388 C4404 0.931 . S
C4389 H4377 0.929 . S
C4389 C4383 1.390 . S
C4389 C4386 1.386 . S
C4390 C4385 1.490 . S
C4390 C4392 1.395 . S
C4390 C4393 1.403 . S
H4391 C4397 0.930 . S
C4392 H4378 0.930 . S
C4392 C4390 1.395 . S
C4392 C4395 1.403 . S
C4393 C4390 1.403 . S
C4393 C4394 1.524 . S
C4393 C4397 1.400 . S
C4394 H4379 0.960 . S
C4394 H4380 0.960 . S
C4394 H4381 0.960 . S
C4394 C4393 1.524 . S
C4395 C4392 1.403 . S
C4395 C4396 1.392 . S
C4395 C4399 1.495 . S
C4396 C4395 1.392 . S
C4396 C4397 1.385 . S
C4396 C4398 1.478 . S
C4397 H4391 0.930 . S
C4397 C4393 1.400 . S
C4397 C4396 1.385 . S
C4398 C4396 1.478 . S
C4398 C4400 1.381 . S
C4398 C4404 1.383 . S
C4399 C4395 1.495 . S
C4399 H4405 0.959 . S
C4399 H4406 0.961 . S
C4399 H4407 0.960 . S
C4400 C4398 1.381 . S
C4400 C4401 1.394 . S
C4400 H4408 0.930 . S
C4401 C4400 1.394 . S
C4401 C4402 1.383 . S
C4401 H4409 0.929 . S
C4402 C4401 1.383 . S
C4402 C4403 1.377 . S
C4403 H4387 0.930 . S
C4403 C4402 1.377 . S
C4403 C4404 1.379 . S
C4404 H4388 0.931 . S
C4404 C4398 1.383 . S
C4404 C4403 1.379 . S
H4405 C4399 0.959 . S
H4406 C4399 0.961 . S
H4407 C4399 0.960 . S
H4408 C4400 0.930 . S
H4409 C4401 0.929 . S
H4410 C4418 0.929 . S
H4411 C4420 0.930 . S
H4412 C4422 0.930 . S
H4413 C4425 0.929 . S
H4414 C4428 0.930 . S
H4415 C4430 0.960 . S
H4416 C4430 0.960 . S
H4417 C4430 0.960 . S
C4418 H4410 0.929 . S
C4418 C4419 1.377 . S
C4418 C4420 1.384 . S
C4419 C4418 1.377 . S
C4419 C4425 1.390 . S
C4420 H4411 0.930 . S
C4420 C4418 1.384 . S
C4420 C4421 1.372 . S
C4421 C4420 1.372 . S
C4421 C4422 1.400 . S
C4421 C4426 1.490 . S
C4422 H4412 0.930 . S
C4422 C4421 1.400 . S
C4422 C4425 1.386 . S
H4423 C4439 0.930 . S
H4424 C4440 0.931 . S
C4425 H4413 0.929 . S
C4425 C4419 1.390 . S
C4425 C4422 1.386 . S
C4426 C4421 1.490 . S
C4426 C4428 1.395 . S
C4426 C4429 1.403 . S
H4427 C4433 0.930 . S
C4428 H4414 0.930 . S
C4428 C4426 1.395 . S
C4428 C4431 1.403 . S
C4429 C4426 1.403 . S
C4429 C4430 1.524 . S
C4429 C4433 1.400 . S
C4430 H4415 0.960 . S
C4430 H4416 0.960 . S
C4430 H4417 0.960 . S
C4430 C4429 1.524 . S
C4431 C4428 1.403 . S
C4431 C4432 1.392 . S
C4431 C4435 1.495 . S
C4432 C4431 1.392 . S
C4432 C4433 1.385 . S
C4432 C4434 1.478 . S
C4433 H4427 0.930 . S
C4433 C4429 1.400 . S
C4433 C4432 1.385 . S
C4434 C4432 1.478 . S
C4434 C4436 1.381 . S
C4434 C4440 1.383 . S
C4435 C4431 1.495 . S
C4435 H4441 0.959 . S
C4435 H4442 0.961 . S
C4435 H4443 0.960 . S
C4436 C4434 1.381 . S
C4436 C4437 1.394 . S
C4436 H4444 0.930 . S
C4437 C4436 1.394 . S
C4437 C4438 1.383 . S
C4437 H4445 0.929 . S
C4438 C4437 1.383 . S
C4438 C4439 1.377 . S
C4439 H4423 0.930 . S
C4439 C4438 1.377 . S
C4439 C4440 1.379 . S
C4440 H4424 0.931 . S
C4440 C4434 1.383 . S
C4440 C4439 1.379 . S
H4441 C4435 0.959 . S
H4442 C4435 0.961 . S
H4443 C4435 0.960 . S
H4444 C4436 0.930 . S
H4445 C4437 0.929 . S
H4446 C4454 0.929 1_565 S
H4447 C4456 0.910 1_565 S
H4448 C4458 0.930 . S
H4449 C4461 0.929 . S
H4450 C4464 0.963 . S
H4451 C4466 0.960 . S
H4452 C4466 0.960 . S
H4453 C4466 0.960 . S
C4454 H4446 0.929 1_545 S
C4454 C4455 1.377 . S
C4454 C4456 1.395 . S
C4455 C4454 1.377 . S
C4455 C4461 1.390 . S
C4456 H4447 0.910 1_545 S
C4456 C4454 1.395 . S
C4456 C4457 1.380 . S
C4457 C4456 1.380 . S
C4457 C4458 1.400 . S
C4457 C4462 1.490 . S
C4458 H4448 0.930 . S
C4458 C4457 1.400 . S
C4458 C4461 1.386 . S
H4459 C4475 0.930 . S
H4460 C4476 0.931 . S
C4461 H4449 0.929 . S
C4461 C4455 1.390 . S
C4461 C4458 1.386 . S
C4462 C4457 1.490 . S
C4462 C4464 1.329 1_545 S
C4462 C4465 1.403 . S
H4463 C4469 0.930 . S
C4464 H4450 0.963 . S
C4464 C4462 1.329 1_565 S
C4464 C4467 1.441 . S
C4465 C4462 1.403 . S
C4465 C4466 1.524 . S
C4465 C4469 1.400 . S
C4466 H4451 0.960 . S
C4466 H4452 0.960 . S
C4466 H4453 0.960 . S
C4466 C4465 1.524 . S
C4467 C4464 1.441 . S
C4467 C4468 1.392 1_565 S
C4467 C4471 1.495 . S
C4468 C4467 1.392 1_545 S
C4468 C4469 1.385 . S
C4468 C4470 1.478 . S
C4469 H4463 0.930 . S
C4469 C4465 1.400 . S
C4469 C4468 1.385 . S
C4470 C4468 1.478 . S
C4470 C4472 1.381 1_545 S
C4470 C4476 1.383 . S
C4471 C4467 1.495 . S
C4471 H4477 0.959 . S
C4471 H4478 0.961 . S
C4471 H4479 0.960 . S
C4472 C4470 1.381 1_565 S
C4472 C4473 1.394 . S
C4472 H4480 0.930 . S
C4473 C4472 1.394 . S
C4473 C4474 1.383 1_565 S
C4473 H4481 0.929 . S
C4474 C4473 1.383 1_545 S
C4474 C4475 1.377 . S
C4475 H4459 0.930 . S
C4475 C4474 1.377 . S
C4475 C4476 1.379 . S
C4476 H4460 0.931 . S
C4476 C4470 1.383 . S
C4476 C4475 1.379 . S
H4477 C4471 0.959 . S
H4478 C4471 0.961 . S
H4479 C4471 0.960 . S
H4480 C4472 0.930 . S
H4481 C4473 0.929 . S
H4482 C4490 1.005 . S
H4483 C4492 0.930 . S
H4484 C4494 0.930 . S
H4485 C4497 0.929 . S
H4486 C4500 0.931 . S
H4487 C4502 0.960 . S
H4488 C4502 0.960 . S
H4489 C4502 0.960 . S
C4490 H4482 1.005 . S
C4490 C4491 1.334 1_455 S
C4490 C4492 1.358 . S
C4491 C4490 1.334 1_655 S
C4491 C4497 1.390 . S
C4492 H4483 0.930 . S
C4492 C4490 1.358 . S
C4492 C4493 1.372 1_455 S
C4493 C4492 1.372 1_655 S
C4493 C4494 1.400 . S
C4493 C4498 1.490 . S
C4494 H4484 0.930 . S
C4494 C4493 1.400 . S
C4494 C4497 1.386 . S
H4495 C4511 0.930 . S
H4496 C4512 0.931 . S
C4497 H4485 0.929 . S
C4497 C4491 1.390 . S
C4497 C4494 1.386 . S
C4498 C4493 1.490 . S
C4498 C4500 1.395 . S
C4498 C4501 1.403 . S
H4499 C4505 0.930 . S
C4500 H4486 0.931 . S
C4500 C4498 1.395 . S
C4500 C4503 1.403 . S
C4501 C4498 1.403 . S
C4501 C4502 1.524 . S
C4501 C4505 1.400 . S
C4502 H4487 0.960 . S
C4502 H4488 0.960 . S
C4502 H4489 0.960 . S
C4502 C4501 1.524 . S
C4503 C4500 1.403 . S
C4503 C4504 1.392 . S
C4503 C4507 1.495 1_655 S
C4504 C4503 1.392 . S
C4504 C4505 1.385 . S
C4504 C4506 1.478 . S
C4505 H4499 0.930 . S
C4505 C4501 1.400 . S
C4505 C4504 1.385 . S
C4506 C4504 1.478 . S
C4506 C4508 1.381 1_655 S
C4506 C4512 1.383 . S
C4507 C4503 1.495 1_455 S
C4507 H4513 0.959 . S
C4507 H4514 0.961 1_455 S
C4507 H4515 0.960 . S
C4508 C4506 1.381 1_455 S
C4508 C4509 1.394 . S
C4508 H4516 0.930 . S
C4509 C4508 1.394 . S
C4509 C4510 1.383 1_455 S
C4509 H4517 0.929 . S
C4510 C4509 1.383 1_655 S
C4510 C4511 1.377 . S
C4511 H4495 0.930 . S
C4511 C4510 1.377 . S
C4511 C4512 1.379 . S
C4512 H4496 0.931 . S
C4512 C4506 1.383 . S
C4512 C4511 1.379 . S
H4513 C4507 0.959 . S
H4514 C4507 0.961 1_655 S
H4515 C4507 0.960 . S
H4516 C4508 0.930 . S
H4517 C4509 0.929 . S
H4518 C4526 0.929 . S
H4519 C4528 0.930 . S
H4520 C4530 0.930 . S
H4521 C4533 0.929 . S
H4522 C4536 0.930 . S
H4523 C4538 0.960 . S
H4524 C4538 0.960 . S
H4525 C4538 0.960 . S
C4526 H4518 0.929 . S
C4526 C4527 1.377 . S
C4526 C4528 1.384 . S
C4527 C4526 1.377 . S
C4527 C4533 1.390 . S
C4528 H4519 0.930 . S
C4528 C4526 1.384 . S
C4528 C4529 1.372 . S
C4529 C4528 1.372 . S
C4529 C4530 1.400 . S
C4529 C4534 1.490 . S
C4530 H4520 0.930 . S
C4530 C4529 1.400 . S
C4530 C4533 1.386 . S
H4531 C4547 0.930 . S
H4532 C4548 0.931 . S
C4533 H4521 0.929 . S
C4533 C4527 1.390 . S
C4533 C4530 1.386 . S
C4534 C4529 1.490 . S
C4534 C4536 1.395 . S
C4534 C4537 1.403 . S
H4535 C4541 0.930 . S
C4536 H4522 0.930 . S
C4536 C4534 1.395 . S
C4536 C4539 1.403 . S
C4537 C4534 1.403 . S
C4537 C4538 1.524 . S
C4537 C4541 1.400 . S
C4538 H4523 0.960 . S
C4538 H4524 0.960 . S
C4538 H4525 0.960 . S
C4538 C4537 1.524 . S
C4539 C4536 1.403 . S
C4539 C4540 1.392 . S
C4539 C4543 1.495 . S
C4540 C4539 1.392 . S
C4540 C4541 1.385 . S
C4540 C4542 1.478 . S
C4541 H4535 0.930 . S
C4541 C4537 1.400 . S
C4541 C4540 1.385 . S
C4542 C4540 1.478 . S
C4542 C4544 1.381 . S
C4542 C4548 1.383 . S
C4543 C4539 1.495 . S
C4543 H4549 0.959 . S
C4543 H4550 0.961 . S
C4543 H4551 0.960 . S
C4544 C4542 1.381 . S
C4544 C4545 1.394 . S
C4544 H4552 0.930 . S
C4545 C4544 1.394 . S
C4545 C4546 1.383 . S
C4545 H4553 0.929 . S
C4546 C4545 1.383 . S
C4546 C4547 1.377 . S
C4547 H4531 0.930 . S
C4547 C4546 1.377 . S
C4547 C4548 1.379 . S
C4548 H4532 0.931 . S
C4548 C4542 1.383 . S
C4548 C4547 1.379 . S
H4549 C4543 0.959 . S
H4550 C4543 0.961 . S
H4551 C4543 0.960 . S
H4552 C4544 0.930 . S
H4553 C4545 0.929 . S
H4554 C4562 0.929 . S
H4555 C4564 0.930 . S
H4556 C4566 0.930 . S
H4557 C4569 0.929 . S
H4558 C4572 0.930 . S
H4559 C4574 0.960 . S
H4560 C4574 0.960 . S
H4561 C4574 0.960 . S
C4562 H4554 0.929 . S
C4562 C4563 1.377 . S
C4562 C4564 1.384 . S
C4563 C4562 1.377 . S
C4563 C4569 1.390 . S
C4564 H4555 0.930 . S
C4564 C4562 1.384 . S
C4564 C4565 1.372 . S
C4565 C4564 1.372 . S
C4565 C4566 1.400 . S
C4565 C4570 1.490 . S
C4566 H4556 0.930 . S
C4566 C4565 1.400 . S
C4566 C4569 1.386 . S
H4567 C4583 0.930 . S
H4568 C4584 0.931 . S
C4569 H4557 0.929 . S
C4569 C4563 1.390 . S
C4569 C4566 1.386 . S
C4570 C4565 1.490 . S
C4570 C4572 1.395 . S
C4570 C4573 1.403 . S
H4571 C4577 0.930 . S
C4572 H4558 0.930 . S
C4572 C4570 1.395 . S
C4572 C4575 1.403 . S
C4573 C4570 1.403 . S
C4573 C4574 1.524 . S
C4573 C4577 1.400 . S
C4574 H4559 0.960 . S
C4574 H4560 0.960 . S
C4574 H4561 0.960 . S
C4574 C4573 1.524 . S
C4575 C4572 1.403 . S
C4575 C4576 1.392 . S
C4575 C4579 1.495 . S
C4576 C4575 1.392 . S
C4576 C4577 1.385 . S
C4576 C4578 1.478 . S
C4577 H4571 0.930 . S
C4577 C4573 1.400 . S
C4577 C4576 1.385 . S
C4578 C4576 1.478 . S
C4578 C4580 1.381 . S
C4578 C4584 1.383 . S
C4579 C4575 1.495 . S
C4579 H4585 0.959 . S
C4579 H4586 0.961 . S
C4579 H4587 0.960 . S
C4580 C4578 1.381 . S
C4580 C4581 1.394 . S
C4580 H4588 0.930 . S
C4581 C4580 1.394 . S
C4581 C4582 1.383 . S
C4581 H4589 0.929 . S
C4582 C4581 1.383 . S
C4582 C4583 1.377 . S
C4583 H4567 0.930 . S
C4583 C4582 1.377 . S
C4583 C4584 1.379 . S
C4584 H4568 0.931 . S
C4584 C4578 1.383 . S
C4584 C4583 1.379 . S
H4585 C4579 0.959 . S
H4586 C4579 0.961 . S
H4587 C4579 0.960 . S
H4588 C4580 0.930 . S
H4589 C4581 0.929 . S
H4590 C4598 0.929 . S
H4591 C4600 0.930 . S
H4592 C4602 0.930 . S
H4593 C4605 0.929 . S
H4594 C4608 0.930 . S
H4595 C4610 0.960 . S
H4596 C4610 0.960 . S
H4597 C4610 0.960 . S
C4598 H4590 0.929 . S
C4598 C4599 1.377 . S
C4598 C4600 1.384 . S
C4599 C4598 1.377 . S
C4599 C4605 1.390 . S
C4600 H4591 0.930 . S
C4600 C4598 1.384 . S
C4600 C4601 1.372 . S
C4601 C4600 1.372 . S
C4601 C4602 1.400 . S
C4601 C4606 1.490 . S
C4602 H4592 0.930 . S
C4602 C4601 1.400 . S
C4602 C4605 1.386 . S
H4603 C4619 0.930 . S
H4604 C4620 0.931 . S
C4605 H4593 0.929 . S
C4605 C4599 1.390 . S
C4605 C4602 1.386 . S
C4606 C4601 1.490 . S
C4606 C4608 1.395 . S
C4606 C4609 1.403 . S
H4607 C4613 0.930 . S
C4608 H4594 0.930 . S
C4608 C4606 1.395 . S
C4608 C4611 1.403 . S
C4609 C4606 1.403 . S
C4609 C4610 1.524 . S
C4609 C4613 1.400 . S
C4610 H4595 0.960 . S
C4610 H4596 0.960 . S
C4610 H4597 0.960 . S
C4610 C4609 1.524 . S
C4611 C4608 1.403 . S
C4611 C4612 1.392 . S
C4611 C4615 1.495 . S
C4612 C4611 1.392 . S
C4612 C4613 1.385 . S
C4612 C4614 1.478 . S
C4613 H4607 0.930 . S
C4613 C4609 1.400 . S
C4613 C4612 1.385 . S
C4614 C4612 1.478 . S
C4614 C4616 1.381 . S
C4614 C4620 1.383 . S
C4615 C4611 1.495 . S
C4615 H4621 0.959 . S
C4615 H4622 0.961 . S
C4615 H4623 0.960 . S
C4616 C4614 1.381 . S
C4616 C4617 1.394 . S
C4616 H4624 0.930 . S
C4617 C4616 1.394 . S
C4617 C4618 1.383 . S
C4617 H4625 0.929 . S
C4618 C4617 1.383 . S
C4618 C4619 1.377 . S
C4619 H4603 0.930 . S
C4619 C4618 1.377 . S
C4619 C4620 1.379 . S
C4620 H4604 0.931 . S
C4620 C4614 1.383 . S
C4620 C4619 1.379 . S
H4621 C4615 0.959 . S
H4622 C4615 0.961 . S
H4623 C4615 0.960 . S
H4624 C4616 0.930 . S
H4625 C4617 0.929 . S
H4626 C4634 0.929 . S
H4627 C4636 0.930 . S
H4628 C4638 0.930 . S
H4629 C4641 0.929 . S
H4630 C4644 0.930 . S
H4631 C4646 0.960 . S
H4632 C4646 0.960 . S
H4633 C4646 0.960 . S
C4634 H4626 0.929 . S
C4634 C4635 1.377 . S
C4634 C4636 1.384 . S
C4635 C4634 1.377 . S
C4635 C4641 1.390 . S
C4636 H4627 0.930 . S
C4636 C4634 1.384 . S
C4636 C4637 1.372 . S
C4637 C4636 1.372 . S
C4637 C4638 1.400 . S
C4637 C4642 1.490 . S
C4638 H4628 0.930 . S
C4638 C4637 1.400 . S
C4638 C4641 1.386 . S
H4639 C4655 0.930 . S
H4640 C4656 0.931 . S
C4641 H4629 0.929 . S
C4641 C4635 1.390 . S
C4641 C4638 1.386 . S
C4642 C4637 1.490 . S
C4642 C4644 1.395 . S
C4642 C4645 1.403 . S
H4643 C4649 0.930 . S
C4644 H4630 0.930 . S
C4644 C4642 1.395 . S
C4644 C4647 1.403 . S
C4645 C4642 1.403 . S
C4645 C4646 1.524 . S
C4645 C4649 1.400 . S
C4646 H4631 0.960 . S
C4646 H4632 0.960 . S
C4646 H4633 0.960 . S
C4646 C4645 1.524 . S
C4647 C4644 1.403 . S
C4647 C4648 1.392 . S
C4647 C4651 1.495 . S
C4648 C4647 1.392 . S
C4648 C4649 1.385 . S
C4648 C4650 1.478 . S
C4649 H4643 0.930 . S
C4649 C4645 1.400 . S
C4649 C4648 1.385 . S
C4650 C4648 1.478 . S
C4650 C4652 1.381 . S
C4650 C4656 1.383 . S
C4651 C4647 1.495 . S
C4651 H4657 0.959 . S
C4651 H4658 0.961 . S
C4651 H4659 0.960 . S
C4652 C4650 1.381 . S
C4652 C4653 1.394 . S
C4652 H4660 0.930 . S
C4653 C4652 1.394 . S
C4653 C4654 1.383 . S
C4653 H4661 0.929 . S
C4654 C4653 1.383 . S
C4654 C4655 1.377 . S
C4655 H4639 0.930 . S
C4655 C4654 1.377 . S
C4655 C4656 1.379 . S
C4656 H4640 0.931 . S
C4656 C4650 1.383 . S
C4656 C4655 1.379 . S
H4657 C4651 0.959 . S
H4658 C4651 0.961 . S
H4659 C4651 0.960 . S
H4660 C4652 0.930 . S
H4661 C4653 0.929 . S
H4662 C4670 0.929 . S
H4663 C4672 0.930 . S
H4664 C4674 0.930 . S
H4665 C4677 0.929 . S
H4666 C4680 0.930 . S
H4667 C4682 0.960 . S
H4668 C4682 0.960 . S
H4669 C4682 0.960 . S
C4670 H4662 0.929 . S
C4670 C4671 1.377 . S
C4670 C4672 1.384 . S
C4671 C4670 1.377 . S
C4671 C4677 1.390 . S
C4672 H4663 0.930 . S
C4672 C4670 1.384 . S
C4672 C4673 1.372 . S
C4673 C4672 1.372 . S
C4673 C4674 1.400 . S
C4673 C4678 1.490 . S
C4674 H4664 0.930 . S
C4674 C4673 1.400 . S
C4674 C4677 1.386 . S
H4675 C4691 0.930 . S
H4676 C4692 0.931 . S
C4677 H4665 0.929 . S
C4677 C4671 1.390 . S
C4677 C4674 1.386 . S
C4678 C4673 1.490 . S
C4678 C4680 1.395 . S
C4678 C4681 1.403 . S
H4679 C4685 0.930 . S
C4680 H4666 0.930 . S
C4680 C4678 1.395 . S
C4680 C4683 1.403 . S
C4681 C4678 1.403 . S
C4681 C4682 1.524 . S
C4681 C4685 1.400 . S
C4682 H4667 0.960 . S
C4682 H4668 0.960 . S
C4682 H4669 0.960 . S
C4682 C4681 1.524 . S
C4683 C4680 1.403 . S
C4683 C4684 1.392 . S
C4683 C4687 1.495 . S
C4684 C4683 1.392 . S
C4684 C4685 1.385 . S
C4684 C4686 1.478 . S
C4685 H4679 0.930 . S
C4685 C4681 1.400 . S
C4685 C4684 1.385 . S
C4686 C4684 1.478 . S
C4686 C4688 1.381 . S
C4686 C4692 1.383 . S
C4687 C4683 1.495 . S
C4687 H4693 0.959 . S
C4687 H4694 0.961 . S
C4687 H4695 0.960 . S
C4688 C4686 1.381 . S
C4688 C4689 1.394 . S
C4688 H4696 0.930 . S
C4689 C4688 1.394 . S
C4689 C4690 1.383 . S
C4689 H4697 0.929 . S
C4690 C4689 1.383 . S
C4690 C4691 1.377 . S
C4691 H4675 0.930 . S
C4691 C4690 1.377 . S
C4691 C4692 1.379 . S
C4692 H4676 0.931 . S
C4692 C4686 1.383 . S
C4692 C4691 1.379 . S
H4693 C4687 0.959 . S
H4694 C4687 0.961 . S
H4695 C4687 0.960 . S
H4696 C4688 0.930 . S
H4697 C4689 0.929 . S
H4698 C4706 0.929 . S
H4699 C4708 0.930 . S
H4700 C4710 0.930 . S
H4701 C4713 0.929 . S
H4702 C4716 0.930 . S
H4703 C4718 0.960 . S
H4704 C4718 0.960 . S
H4705 C4718 0.960 . S
C4706 H4698 0.929 . S
C4706 C4707 1.377 . S
C4706 C4708 1.384 . S
C4707 C4706 1.377 . S
C4707 C4713 1.390 . S
C4708 H4699 0.930 . S
C4708 C4706 1.384 . S
C4708 C4709 1.372 . S
C4709 C4708 1.372 . S
C4709 C4710 1.400 . S
C4709 C4714 1.490 . S
C4710 H4700 0.930 . S
C4710 C4709 1.400 . S
C4710 C4713 1.386 . S
H4711 C4727 0.930 . S
H4712 C4728 0.931 . S
C4713 H4701 0.929 . S
C4713 C4707 1.390 . S
C4713 C4710 1.386 . S
C4714 C4709 1.490 . S
C4714 C4716 1.395 . S
C4714 C4717 1.403 . S
H4715 C4721 0.930 . S
C4716 H4702 0.930 . S
C4716 C4714 1.395 . S
C4716 C4719 1.403 . S
C4717 C4714 1.403 . S
C4717 C4718 1.524 . S
C4717 C4721 1.400 . S
C4718 H4703 0.960 . S
C4718 H4704 0.960 . S
C4718 H4705 0.960 . S
C4718 C4717 1.524 . S
C4719 C4716 1.403 . S
C4719 C4720 1.392 . S
C4719 C4723 1.495 . S
C4720 C4719 1.392 . S
C4720 C4721 1.385 . S
C4720 C4722 1.478 . S
C4721 H4715 0.930 . S
C4721 C4717 1.400 . S
C4721 C4720 1.385 . S
C4722 C4720 1.478 . S
C4722 C4724 1.381 . S
C4722 C4728 1.383 . S
C4723 C4719 1.495 . S
C4723 H4729 0.959 . S
C4723 H4730 0.961 . S
C4723 H4731 0.960 . S
C4724 C4722 1.381 . S
C4724 C4725 1.394 . S
C4724 H4732 0.930 . S
C4725 C4724 1.394 . S
C4725 C4726 1.383 . S
C4725 H4733 0.929 . S
C4726 C4725 1.383 . S
C4726 C4727 1.377 . S
C4727 H4711 0.930 . S
C4727 C4726 1.377 . S
C4727 C4728 1.379 . S
C4728 H4712 0.931 . S
C4728 C4722 1.383 . S
C4728 C4727 1.379 . S
H4729 C4723 0.959 . S
H4730 C4723 0.961 . S
H4731 C4723 0.960 . S
H4732 C4724 0.930 . S
H4733 C4725 0.929 . S
H4734 C4742 0.929 . S
H4735 C4744 0.930 . S
H4736 C4746 0.930 . S
H4737 C4749 0.929 . S
H4738 C4752 0.930 . S
H4739 C4754 0.960 . S
H4740 C4754 0.960 . S
H4741 C4754 0.960 . S
C4742 H4734 0.929 . S
C4742 C4743 1.377 . S
C4742 C4744 1.384 . S
C4743 C4742 1.377 . S
C4743 C4749 1.390 . S
C4744 H4735 0.930 . S
C4744 C4742 1.384 . S
C4744 C4745 1.372 . S
C4745 C4744 1.372 . S
C4745 C4746 1.400 . S
C4745 C4750 1.490 . S
C4746 H4736 0.930 . S
C4746 C4745 1.400 . S
C4746 C4749 1.386 . S
H4747 C4763 0.930 . S
H4748 C4764 0.931 . S
C4749 H4737 0.929 . S
C4749 C4743 1.390 . S
C4749 C4746 1.386 . S
C4750 C4745 1.490 . S
C4750 C4752 1.395 . S
C4750 C4753 1.403 . S
H4751 C4757 0.930 . S
C4752 H4738 0.930 . S
C4752 C4750 1.395 . S
C4752 C4755 1.403 . S
C4753 C4750 1.403 . S
C4753 C4754 1.524 . S
C4753 C4757 1.400 . S
C4754 H4739 0.960 . S
C4754 H4740 0.960 . S
C4754 H4741 0.960 . S
C4754 C4753 1.524 . S
C4755 C4752 1.403 . S
C4755 C4756 1.392 . S
C4755 C4759 1.495 . S
C4756 C4755 1.392 . S
C4756 C4757 1.385 . S
C4756 C4758 1.478 . S
C4757 H4751 0.930 . S
C4757 C4753 1.400 . S
C4757 C4756 1.385 . S
C4758 C4756 1.478 . S
C4758 C4760 1.381 . S
C4758 C4764 1.383 . S
C4759 C4755 1.495 . S
C4759 H4765 0.959 . S
C4759 H4766 0.961 . S
C4759 H4767 0.960 . S
C4760 C4758 1.381 . S
C4760 C4761 1.394 . S
C4760 H4768 0.930 . S
C4761 C4760 1.394 . S
C4761 C4762 1.383 . S
C4761 H4769 0.929 . S
C4762 C4761 1.383 . S
C4762 C4763 1.377 . S
C4763 H4747 0.930 . S
C4763 C4762 1.377 . S
C4763 C4764 1.379 . S
C4764 H4748 0.931 . S
C4764 C4758 1.383 . S
C4764 C4763 1.379 . S
H4765 C4759 0.959 . S
H4766 C4759 0.961 . S
H4767 C4759 0.960 . S
H4768 C4760 0.930 . S
H4769 C4761 0.929 . S
H4770 C4778 0.929 1_455 S
H4771 C4780 0.955 . S
H4772 C4782 0.930 . S
H4773 C4785 0.929 . S
H4774 C4788 0.930 . S
H4775 C4790 0.960 . S
H4776 C4790 0.960 . S
H4777 C4790 0.960 . S
C4778 H4770 0.929 1_655 S
C4778 C4779 1.377 . S
C4778 C4780 1.370 1_655 S
C4779 C4778 1.377 . S
C4779 C4785 1.390 . S
C4780 H4771 0.955 . S
C4780 C4778 1.370 1_455 S
C4780 C4781 1.362 1_455 S
C4781 C4780 1.362 1_655 S
C4781 C4782 1.400 . S
C4781 C4786 1.490 . S
C4782 H4772 0.930 . S
C4782 C4781 1.400 . S
C4782 C4785 1.386 . S
H4783 C4799 0.930 . S
H4784 C4800 0.931 . S
C4785 H4773 0.929 . S
C4785 C4779 1.390 . S
C4785 C4782 1.386 . S
C4786 C4781 1.490 . S
C4786 C4788 1.395 . S
C4786 C4789 1.403 . S
H4787 C4793 0.930 . S
C4788 H4774 0.930 . S
C4788 C4786 1.395 . S
C4788 C4791 1.403 . S
C4789 C4786 1.403 . S
C4789 C4790 1.524 . S
C4789 C4793 1.400 . S
C4790 H4775 0.960 . S
C4790 H4776 0.960 . S
C4790 H4777 0.960 . S
C4790 C4789 1.524 . S
C4791 C4788 1.403 . S
C4791 C4792 1.392 . S
C4791 C4795 1.495 1_655 S
C4792 C4791 1.392 . S
C4792 C4793 1.385 . S
C4792 C4794 1.478 . S
C4793 H4787 0.930 . S
C4793 C4789 1.400 . S
C4793 C4792 1.385 . S
C4794 C4792 1.478 . S
C4794 C4796 1.381 1_655 S
C4794 C4800 1.383 . S
C4795 C4791 1.495 1_455 S
C4795 H4801 0.959 . S
C4795 H4802 0.961 1_455 S
C4795 H4803 0.960 . S
C4796 C4794 1.381 1_455 S
C4796 C4797 1.394 . S
C4796 H4804 0.930 . S
C4797 C4796 1.394 . S
C4797 C4798 1.383 1_455 S
C4797 H4805 0.929 . S
C4798 C4797 1.383 1_655 S
C4798 C4799 1.377 . S
C4799 H4783 0.930 . S
C4799 C4798 1.377 . S
C4799 C4800 1.379 . S
C4800 H4784 0.931 . S
C4800 C4794 1.383 . S
C4800 C4799 1.379 . S
H4801 C4795 0.959 . S
H4802 C4795 0.961 1_655 S
H4803 C4795 0.960 . S
H4804 C4796 0.930 . S
H4805 C4797 0.929 . S
H4806 C4814 0.929 . S
H4807 C4816 0.930 . S
H4808 C4818 0.930 . S
H4809 C4821 0.929 . S
H4810 C4824 0.930 . S
H4811 C4826 0.960 . S
H4812 C4826 0.960 . S
H4813 C4826 0.960 . S
C4814 H4806 0.929 . S
C4814 C4815 1.377 . S
C4814 C4816 1.384 . S
C4815 C4814 1.377 . S
C4815 C4821 1.390 . S
C4816 H4807 0.930 . S
C4816 C4814 1.384 . S
C4816 C4817 1.372 . S
C4817 C4816 1.372 . S
C4817 C4818 1.400 . S
C4817 C4822 1.490 . S
C4818 H4808 0.930 . S
C4818 C4817 1.400 . S
C4818 C4821 1.386 . S
H4819 C4835 0.930 . S
H4820 C4836 0.931 . S
C4821 H4809 0.929 . S
C4821 C4815 1.390 . S
C4821 C4818 1.386 . S
C4822 C4817 1.490 . S
C4822 C4824 1.395 . S
C4822 C4825 1.403 . S
H4823 C4829 0.930 . S
C4824 H4810 0.930 . S
C4824 C4822 1.395 . S
C4824 C4827 1.403 . S
C4825 C4822 1.403 . S
C4825 C4826 1.524 . S
C4825 C4829 1.400 . S
C4826 H4811 0.960 . S
C4826 H4812 0.960 . S
C4826 H4813 0.960 . S
C4826 C4825 1.524 . S
C4827 C4824 1.403 . S
C4827 C4828 1.392 . S
C4827 C4831 1.495 . S
C4828 C4827 1.392 . S
C4828 C4829 1.385 . S
C4828 C4830 1.478 . S
C4829 H4823 0.930 . S
C4829 C4825 1.400 . S
C4829 C4828 1.385 . S
C4830 C4828 1.478 . S
C4830 C4832 1.381 . S
C4830 C4836 1.383 . S
C4831 C4827 1.495 . S
C4831 H4837 0.959 . S
C4831 H4838 0.961 . S
C4831 H4839 0.960 . S
C4832 C4830 1.381 . S
C4832 C4833 1.394 . S
C4832 H4840 0.930 . S
C4833 C4832 1.394 . S
C4833 C4834 1.383 . S
C4833 H4841 0.929 . S
C4834 C4833 1.383 . S
C4834 C4835 1.377 . S
C4835 H4819 0.930 . S
C4835 C4834 1.377 . S
C4835 C4836 1.379 . S
C4836 H4820 0.931 . S
C4836 C4830 1.383 . S
C4836 C4835 1.379 . S
H4837 C4831 0.959 . S
H4838 C4831 0.961 . S
H4839 C4831 0.960 . S
H4840 C4832 0.930 . S
H4841 C4833 0.929 . S
H4842 C4850 0.929 . S
H4843 C4852 0.930 . S
H4844 C4854 0.930 . S
H4845 C4857 0.929 . S
H4846 C4860 0.930 1_565 S
H4847 C4862 0.960 . S
H4848 C4862 0.960 . S
H4849 C4862 0.960 . S
C4850 H4842 0.929 . S
C4850 C4851 1.377 . S
C4850 C4852 1.384 . S
C4851 C4850 1.377 . S
C4851 C4857 1.390 . S
C4852 H4843 0.930 . S
C4852 C4850 1.384 . S
C4852 C4853 1.372 . S
C4853 C4852 1.372 . S
C4853 C4854 1.400 . S
C4853 C4858 1.490 . S
C4854 H4844 0.930 . S
C4854 C4853 1.400 . S
C4854 C4857 1.386 . S
H4855 C4871 0.930 . S
H4856 C4872 0.931 . S
C4857 H4845 0.929 . S
C4857 C4851 1.390 . S
C4857 C4854 1.386 . S
C4858 C4853 1.490 . S
C4858 C4860 1.395 . S
C4858 C4861 1.403 . S
H4859 C4865 0.930 . S
C4860 H4846 0.930 1_545 S
C4860 C4858 1.395 . S
C4860 C4863 1.414 1_545 S
C4861 C4858 1.403 . S
C4861 C4862 1.524 . S
C4861 C4865 1.400 . S
C4862 H4847 0.960 . S
C4862 H4848 0.960 . S
C4862 H4849 0.960 . S
C4862 C4861 1.524 . S
C4863 C4860 1.414 1_565 S
C4863 C4864 1.379 1_565 S
C4863 C4867 1.500 . S
C4864 C4863 1.379 1_545 S
C4864 C4865 1.385 . S
C4864 C4866 1.478 . S
C4865 H4859 0.930 . S
C4865 C4861 1.400 . S
C4865 C4864 1.385 . S
C4866 C4864 1.478 . S
C4866 C4868 1.381 . S
C4866 C4872 1.383 1_545 S
C4867 C4863 1.500 . S
C4867 H4873 0.959 . S
C4867 H4874 0.961 . S
C4867 H4875 0.960 . S
C4868 C4866 1.381 . S
C4868 C4869 1.394 . S
C4868 H4876 0.930 . S
C4869 C4868 1.394 . S
C4869 C4870 1.383 . S
C4869 H4877 0.929 . S
C4870 C4869 1.383 . S
C4870 C4871 1.377 1_545 S
C4871 H4855 0.930 . S
C4871 C4870 1.377 1_565 S
C4871 C4872 1.379 . S
C4872 H4856 0.931 . S
C4872 C4866 1.383 1_565 S
C4872 C4871 1.379 . S
H4873 C4867 0.959 . S
H4874 C4867 0.961 . S
H4875 C4867 0.960 . S
H4876 C4868 0.930 . S
H4877 C4869 0.929 . S
C2295 C10 1.353 1_655 S
C2314 C1289 1.200 . S
C2331 C23 1.686 . S
C2350 C1429 1.218 . S
C2386 C1517 1.177 . S
C2367 C29 1.452 . S
C2403 C30 1.545 . S
C2422 C1657 1.151 1_565 S
C2439 C5 1.493 . S
C2458 C1771 1.084 . S
C2475 C18 1.692 . S
C2494 C1859 1.298 . S
C2511 C49 1.356 . S
C2530 C1745 1.143 . S
C2566 C1885 1.282 . S
C2547 C62 1.616 . S
C2602 C1631 1.214 . S
C2583 C70 1.446 . S
C2619 C75 1.519 . S
C2638 C1543 1.245 . S
C2674 C1315 1.184 . S
C2655 C44 1.490 . S
C2691 C57 1.619 . S
C2710 C1403 1.402 . S
C2727 C88 1.710 . S
C2746 C1973 1.281 . S
C2763 C101 1.778 . S
C2782 C2113 1.295 . S
C2818 C2201 1.315 . S
C2799 C107 1.703 . S
C2835 C108 1.760 . S
C2854 C289 1.232 . S
C2871 C83 1.764 . S
C2890 C403 1.278 . S
C2907 C96 1.740 . S
C2926 C491 1.356 . S
C2943 C127 1.514 . S
C2962 C377 1.318 . S
C2979 C140 1.667 . S
C2998 C517 1.358 . S
C3034 C263 1.427 . S
C3015 C146 1.634 . S
C3070 C2227 1.486 . S
C3051 C147 1.810 . S
C3106 C1999 1.431 . S
C3087 C122 1.683 . S
C3142 C2087 1.575 . S
C3123 C135 1.711 . S
C3159 C160 1.592 . S
C3178 C605 1.184 . S
C3195 C173 1.738 . S
C3214 C745 1.212 . S
C3231 C185 1.705 . S
C3250 C833 1.316 . S
C3267 C186 1.876 . S
C3286 C973 1.291 . S
C3322 C1087 1.247 . S
C3303 C159 1.762 . S
C3358 C1175 1.448 . S
C3339 C172 1.786 . S
C3394 C1061 1.490 . S
C3375 C205 1.639 . S
C3430 C1201 1.469 . S
C3411 C218 1.705 . S
C3447 C224 1.624 . S
C3466 C947 1.413 . S
C3502 C859 1.429 . S
C3483 C225 1.685 . S
C3519 C200 1.693 . S
C3538 C631 1.423 . S
C3574 C719 1.461 . S
C3555 C213 1.667 . S
C3610 C245 1.061 . S
C3591 C4 1.730 . S
C3627 C17 1.526 . S
C3646 C359 0.939 . S
C3682 C463 1.231 . S
C3663 C31 1.597 . S
C3718 C577 1.150 . S
C3699 C36 1.526 . S
C3754 C701 0.934 . S
C3735 C3 1.670 . S
C3790 C805 1.171 . S
C3771 C16 1.537 . S
C3807 C43 1.804 . S
C3826 C815 1.279 . S
C3843 C56 1.594 . S
C3862 C587 1.064 . S
C3879 C68 1.660 . S
C3898 C691 1.448 . S
C3915 C69 1.606 . S
C3934 C349 1.336 . S
C3970 C473 1.182 . S
C3951 C42 1.731 . S
C3987 C55 1.605 . S
C4006 C235 1.347 . S
C4042 C929 1.038 . S
C4023 C82 1.688 . S
C4059 C95 1.682 . S
C4078 C1043 0.933 . S
C4095 C109 1.629 1_655 S
C4114 C1147 1.197 . S
C4150 C1261 1.075 . S
C4131 C114 1.286 . S
C4167 C81 1.633 . S
C4186 C1385 1.003 . S
C4203 C94 1.405 . S
C4222 C1489 1.048 . S
C4239 C121 1.525 . S
C4258 C1499 1.029 1_565 S
C4275 C134 1.414 . S
C4294 C1271 0.859 1_455 S
C4330 C1375 1.394 . S
C4311 C148 1.637 . S
C4347 C153 1.561 . S
C4366 C1033 1.377 . S
C4383 C120 1.782 . S
C4402 C1157 1.284 . S
C4438 C919 1.455 . S
C4419 C133 1.752 . S
C4474 C1613 0.945 . S
C4455 C166 1.514 . S
C4491 C179 1.397 . S
C4510 C1727 0.855 . S
C4527 C187 1.568 . S
C4546 C1831 1.149 . S
C4582 C1945 1.116 . S
C4563 C192 1.484 . S
C4618 C2069 0.971 . S
C4599 C161 1.722 . S
C4635 C174 1.687 . S
C4654 C2173 1.297 . S
C4671 C199 1.759 . S
C4690 C2183 1.241 . S
C4707 C212 1.812 . S
C4726 C1955 1.187 . S
C4762 C2059 1.460 . S
C4743 C226 1.718 . S
C4798 C1717 1.112 1_655 S
C4779 C231 1.292 . S
C4834 C1841 1.201 . S
C4815 C198 1.701 . S
C4851 C211 1.422 . S
C4870 C1603 1.082 1_545 S
