# Generated by pormake.
# Topology pth, (4,4)-cn, num edge types: 1
# Building blocks:
#     Node 0, Type 0, BuildingBlock: CEKHIL_clean_sbu_0, # of connection points: 4
#     Node 1, Type 0, BuildingBlock: CEKHIL_clean_sbu_0, # of connection points: 4
#     Node 2, Type 0, BuildingBlock: CEKHIL_clean_sbu_0, # of connection points: 4
#     Node 3, Type 1, BuildingBlock: MIFKUJ_clean_linker_1, # of connection points: 4
#     Node 4, Type 1, BuildingBlock: MIFKUJ_clean_linker_1, # of connection points: 4
#     Node 5, Type 1, BuildingBlock: MIFKUJ_clean_linker_1, # of connection points: 4
#     Edge 6, Type (0, 1), BuildingBlock: OJICUG_clean_linker_0, # of connection points: 2
#     Edge 7, Type (0, 1), BuildingBlock: OJICUG_clean_linker_0, # of connection points: 2
#     Edge 8, Type (0, 1), BuildingBlock: OJICUG_clean_linker_0, # of connection points: 2
#     Edge 9, Type (0, 1), BuildingBlock: OJICUG_clean_linker_0, # of connection points: 2
#     Edge 10, Type (0, 1), BuildingBlock: OJICUG_clean_linker_0, # of connection points: 2
#     Edge 11, Type (0, 1), BuildingBlock: OJICUG_clean_linker_0, # of connection points: 2
#     Edge 12, Type (0, 1), BuildingBlock: OJICUG_clean_linker_0, # of connection points: 2
#     Edge 13, Type (0, 1), BuildingBlock: OJICUG_clean_linker_0, # of connection points: 2
#     Edge 14, Type (0, 1), BuildingBlock: OJICUG_clean_linker_0, # of connection points: 2
#     Edge 15, Type (0, 1), BuildingBlock: OJICUG_clean_linker_0, # of connection points: 2
#     Edge 16, Type (0, 1), BuildingBlock: OJICUG_clean_linker_0, # of connection points: 2
#     Edge 17, Type (0, 1), BuildingBlock: OJICUG_clean_linker_0, # of connection points: 2
# Relax obj value: 0.014
# Max RMSD: 0.064
# Mean RMSD: 0.055
data_MOF--net-pth--node1-CEKHIL_clean_sbu_0--node2-MIFKUJ_clean_linker_1--edge1-OJICUG_clean_linker_0
_symmetry_space_group_name_H-M    P1
_symmetry_Int_Tables_number       1
_symmetry_cell_setting            triclinic
loop_
_symmetry_equiv_pos_as_xyz
'x, y, z'
_cell_length_a     22.625585
_cell_length_b     22.690174
_cell_length_c     49.442763
_cell_angle_alpha  90.763036
_cell_angle_beta   90.184857
_cell_angle_gamma 120.29671
loop_
_atom_site_label
_atom_site_type_symbol
_atom_site_fract_x
_atom_site_fract_y
_atom_site_fract_z
_atom_type_partial_charge
Co0 Co 0.02238 0.02397 0.06152 0.0
O1 O 0.97605 0.95044 0.08655 0.0
O2 O 0.06533 0.96868 0.06205 0.0
C3 C 0.02981 0.10621 0.08999 0.0
O4 O 0.08516 0.09519 0.03439 0.0
Co5 Co 0.95762 0.10759 0.04147 0.0
O6 O 0.05189 0.17258 0.02948 0.0
C7 C 0.90942 0.96911 0.01857 0.0
C8 C 0.0207 0.93281 0.0803 0.0
C9 C 0.09471 0.15258 0.02569 0.0
O10 O 0.95703 0.96577 0.03161 0.0
O11 O 0.89876 0.01925 0.0212 0.0
O12 O 0.07456 0.08651 0.09122 0.0
O13 O 0.97977 0.07271 0.07304 0.0
Co14 Co 0.01051 0.02669 0.37428 0.0
O15 O 0.96828 0.05558 0.34797 0.0
O16 O 0.05613 0.12577 0.37414 0.0
C17 C 0.01746 0.95102 0.34636 0.0
O18 O 0.06904 0.01467 0.40292 0.0
Co19 Co 0.93598 0.87664 0.39278 0.0
O20 O 0.02621 0.90234 0.40898 0.0
C21 C 0.89073 0.97028 0.41321 0.0
C22 C 0.01331 0.11776 0.35481 0.0
C23 C 0.07266 0.9644 0.413 0.0
O24 O 0.94327 0.02114 0.4025 0.0
O25 O 0.87613 0.90829 0.40977 0.0
O26 O 0.06424 0.01515 0.34609 0.0
O27 O 0.96598 0.93561 0.36186 0.0
Co28 Co 0.01027 0.02222 0.70905 0.0
O29 O 0.0802 0.06765 0.6825 0.0
O30 O 0.06353 0.97727 0.70533 0.0
C31 C 0.92501 0.01789 0.68356 0.0
O32 O 0.94174 0.96037 0.73728 0.0
Co33 Co 0.93731 0.09436 0.73353 0.0
O34 O 0.88079 0.00732 0.75246 0.0
C35 C 0.07912 0.13897 0.75013 0.0
C36 C 0.09778 0.02242 0.68705 0.0
C37 C 0.8942 0.95911 0.75201 0.0
O38 O 0.0747 0.08612 0.73814 0.0
O39 O 0.03224 0.15464 0.74843 0.0
O40 O 0.94257 0.97185 0.68063 0.0
O41 O 0.96251 0.06747 0.70019 0.0
H42 H 0.14993 0.49075 0.17365 0.0
H43 H 0.14675 0.39831 0.14629 0.0
H44 H 0.94604 0.25815 0.17708 0.0
H45 H 0.94947 0.35083 0.20436 0.0
H46 H 0.05494 0.53489 0.16836 0.0
H47 H 0.13682 0.44513 0.24044 0.0
H48 H 0.13091 0.35877 0.27152 0.0
H49 H 0.93338 0.32011 0.29864 0.0
H50 H 0.93937 0.40582 0.26757 0.0
H51 H 0.94685 0.57587 0.26886 0.0
H52 H 0.94315 0.66257 0.29669 0.0
H53 H 0.11511 0.81964 0.25318 0.0
H54 H 0.12233 0.73156 0.22699 0.0
H55 H 0.03486 0.54116 0.26793 0.0
H56 H 0.95298 0.63503 0.20231 0.0
H57 H 0.94863 0.71717 0.17264 0.0
H58 H 0.12189 0.73494 0.12867 0.0
H59 H 0.13038 0.65859 0.16034 0.0
C60 C 0.05019 0.42747 0.19116 0.0
C61 C 0.10564 0.43989 0.17473 0.0
C62 C 0.10385 0.38708 0.15919 0.0
C63 C 0.04604 0.32115 0.15949 0.0
C64 C 0.99099 0.30862 0.17629 0.0
C65 C 0.99314 0.3613 0.19205 0.0
C66 C 0.04963 0.4848 0.2056 0.0
C67 C 0.05184 0.53743 0.1902 0.0
C68 C 0.04244 0.4858 0.23392 0.0
C69 C 0.03826 0.43143 0.25154 0.0
C70 C 0.09207 0.41758 0.25294 0.0
C71 C 0.08898 0.36888 0.27089 0.0
C72 C 0.03175 0.33287 0.28755 0.0
C73 C 0.9779 0.34669 0.28594 0.0
C74 C 0.98131 0.39569 0.26824 0.0
C75 C 0.03474 0.64688 0.24569 0.0
C76 C 0.98407 0.62898 0.26535 0.0
C77 C 0.98145 0.679 0.28109 0.0
C78 C 0.02858 0.74866 0.27725 0.0
C79 C 0.07853 0.76665 0.25711 0.0
C80 C 0.08207 0.71627 0.24173 0.0
C81 C 0.03979 0.59222 0.23078 0.0
C82 C 0.0385 0.53979 0.24608 0.0
C83 C 0.046 0.59084 0.20223 0.0
C84 C 0.04304 0.64146 0.18414 0.0
C85 C 0.9913 0.65805 0.18678 0.0
C86 C 0.98795 0.70419 0.16925 0.0
C87 C 0.03475 0.7332 0.14791 0.0
C88 C 0.0857 0.71533 0.14505 0.0
C89 C 0.09015 0.67069 0.16305 0.0
H90 H 0.64941 0.11927 0.49724 0.0
H91 H 0.72933 0.10763 0.46749 0.0
H92 H 0.68826 0.92468 0.50914 0.0
H93 H 0.60619 0.93461 0.53769 0.0
H94 H 0.51629 0.03666 0.50075 0.0
H95 H 0.70286 0.12095 0.56788 0.0
H96 H 0.78992 0.11828 0.59677 0.0
H97 H 0.63707 0.92207 0.62676 0.0
H98 H 0.55048 0.92505 0.59797 0.0
H99 H 0.38835 0.93544 0.60547 0.0
H100 H 0.30448 0.93532 0.63599 0.0
H101 H 0.31043 0.10162 0.59184 0.0
H102 H 0.39938 0.10568 0.56307 0.0
H103 H 0.51092 0.02072 0.60063 0.0
H104 H 0.32429 0.931 0.53779 0.0
H105 H 0.23123 0.9196 0.509 0.0
H106 H 0.37265 0.10511 0.46831 0.0
H107 H 0.46512 0.11778 0.49806 0.0
C108 C 0.62217 0.02828 0.51995 0.0
C109 C 0.65796 0.07686 0.50003 0.0
C110 C 0.70405 0.07041 0.48315 0.0
C111 C 0.71507 0.01501 0.48579 0.0
C112 C 0.68034 0.96743 0.50622 0.0
C113 C 0.63406 0.97366 0.52292 0.0
C114 C 0.56873 0.03162 0.53627 0.0
C115 C 0.51567 0.03462 0.52266 0.0
C116 C 0.56639 0.02606 0.56474 0.0
C117 C 0.62034 0.02312 0.58075 0.0
C118 C 0.68836 0.07717 0.58051 0.0
C119 C 0.73782 0.0758 0.59714 0.0
C120 C 0.72011 0.02003 0.61405 0.0
C121 C 0.65225 0.96544 0.61381 0.0
C122 C 0.60275 0.96723 0.59747 0.0
C123 C 0.40047 0.02047 0.58179 0.0
C124 C 0.37192 0.97222 0.60242 0.0
C125 C 0.32302 0.97165 0.61975 0.0
C126 C 0.30025 0.01857 0.61664 0.0
C127 C 0.32747 0.06556 0.5954 0.0
C128 C 0.37762 0.06712 0.57846 0.0
C129 C 0.45718 0.02437 0.56517 0.0
C130 C 0.51128 0.02328 0.57872 0.0
C131 C 0.45934 0.03002 0.53659 0.0
C132 C 0.40174 0.02561 0.52032 0.0
C133 C 0.33508 0.97003 0.52308 0.0
C134 C 0.28201 0.96313 0.50631 0.0
C135 C 0.29447 0.01115 0.48612 0.0
C136 C 0.36101 0.06753 0.48377 0.0
C137 C 0.41407 0.07456 0.50064 0.0
H138 H 0.47653 0.36581 0.83433 0.0
H139 H 0.38182 0.28701 0.80452 0.0
H140 H 0.24853 0.34416 0.84494 0.0
H141 H 0.34374 0.42539 0.87315 0.0
H142 H 0.53251 0.50203 0.83589 0.0
H143 H 0.44407 0.33371 0.91479 0.0
H144 H 0.35639 0.25782 0.94644 0.0
H145 H 0.28628 0.40305 0.95394 0.0
H146 H 0.37719 0.47993 0.92418 0.0
H147 H 0.55658 0.65298 0.93233 0.0
H148 H 0.63839 0.75013 0.95999 0.0
H149 H 0.80356 0.72722 0.92824 0.0
H150 H 0.72074 0.62848 0.90095 0.0
H151 H 0.52553 0.52458 0.93556 0.0
H152 H 0.58784 0.68431 0.86323 0.0
H153 H 0.66426 0.77776 0.8344 0.0
H154 H 0.76897 0.66859 0.81296 0.0
H155 H 0.68881 0.57321 0.84086 0.0
C156 C 0.41714 0.40065 0.85645 0.0
C157 C 0.42663 0.36071 0.83691 0.0
C158 C 0.37232 0.31541 0.81997 0.0
C159 C 0.30751 0.30945 0.82217 0.0
C160 C 0.29788 0.34808 0.84233 0.0
C161 C 0.35215 0.39366 0.85898 0.0
C162 C 0.47622 0.4549 0.87211 0.0
C163 C 0.53202 0.50572 0.85778 0.0
C164 C 0.47441 0.46187 0.90054 0.0
C165 C 0.41682 0.41218 0.91715 0.0
C166 C 0.40941 0.34868 0.92328 0.0
C167 C 0.35891 0.30525 0.94133 0.0
C168 C 0.31412 0.32415 0.95323 0.0
C169 C 0.32074 0.38714 0.9461 0.0
C170 C 0.37219 0.43102 0.9287 0.0
C171 C 0.6325 0.63352 0.91451 0.0
C172 C 0.61044 0.66898 0.93122 0.0
C173 C 0.65737 0.72485 0.9469 0.0
C174 C 0.72755 0.7465 0.9463 0.0
C175 C 0.74977 0.71141 0.92932 0.0
C176 C 0.70263 0.65546 0.91351 0.0
C177 C 0.58127 0.57158 0.89935 0.0
C178 C 0.52731 0.51948 0.91376 0.0
C179 C 0.58365 0.56468 0.87098 0.0
C180 C 0.63311 0.62224 0.85433 0.0
C181 C 0.62748 0.68073 0.85237 0.0
C182 C 0.67182 0.73447 0.83597 0.0
C183 C 0.72383 0.73163 0.82141 0.0
C184 C 0.7293 0.67263 0.82352 0.0
C185 C 0.68391 0.61819 0.83964 0.0
C186 C 0.09398 0.20327 0.12293 0.0
C187 C 0.0348 0.1622 0.10729 0.0
H188 H 0.14391 0.28582 0.15176 0.0
C189 C 0.97959 0.17394 0.10884 0.0
H190 H 0.13734 0.19538 0.12215 0.0
C191 C 0.98311 0.22516 0.12596 0.0
C192 C 0.04223 0.26623 0.14164 0.0
H193 H 0.93328 0.14307 0.09704 0.0
H194 H 0.93983 0.23318 0.12669 0.0
C195 C 0.09782 0.25509 0.13982 0.0
C196 C 0.78304 0.92809 0.43973 0.0
C197 C 0.84537 0.98316 0.43096 0.0
H198 H 0.69301 0.89505 0.46319 0.0
C199 C 0.86406 0.04952 0.4399 0.0
H200 H 0.76642 0.8763 0.43309 0.0
C201 C 0.82191 0.0602 0.4576 0.0
C202 C 0.76008 0.0048 0.46667 0.0
H203 H 0.91176 0.09311 0.43361 0.0
H204 H 0.83841 0.11171 0.46458 0.0
C205 C 0.74098 0.93878 0.45722 0.0
C206 C 0.83855 0.83425 0.76295 0.0
C207 C 0.85429 0.90079 0.77007 0.0
H208 H 0.78335 0.72832 0.77297 0.0
C209 C 0.83004 0.91166 0.79464 0.0
H210 H 0.85649 0.8244 0.74408 0.0
C211 C 0.78996 0.85728 0.81155 0.0
C212 C 0.77131 0.78996 0.80407 0.0
H213 H 0.84239 0.96258 0.80094 0.0
H214 H 0.77352 0.86836 0.83052 0.0
C215 C 0.79691 0.77928 0.77964 0.0
C216 C 0.08627 0.88168 0.09996 0.0
C217 C 0.02345 0.87813 0.0951 0.0
H218 H 0.13996 0.84148 0.12126 0.0
C219 C 0.96398 0.82515 0.10656 0.0
H220 H 0.13307 0.92264 0.09165 0.0
C221 C 0.9673 0.77706 0.1229 0.0
C222 C 0.03059 0.78193 0.1289 0.0
H223 H 0.91476 0.82107 0.10299 0.0
H224 H 0.92 0.7363 0.13089 0.0
C225 C 0.08999 0.83472 0.11693 0.0
C226 C 0.17845 0.04431 0.44039 0.0
C227 C 0.13142 0.97803 0.43085 0.0
H228 H 0.2661 0.10682 0.46566 0.0
C229 C 0.13965 0.92352 0.4392 0.0
H230 H 0.17361 0.08746 0.43444 0.0
C231 C 0.19259 0.93461 0.45689 0.0
C232 C 0.23884 1.0005 0.46691 0.0
H233 H 0.10502 0.87181 0.43211 0.0
H234 H 0.19752 0.89133 0.46255 0.0
C235 C 0.23156 0.05541 0.45825 0.0
C236 C 0.18458 0.16099 0.77619 0.0
C237 C 0.13989 0.18315 0.7674 0.0
H238 H 0.27178 0.18268 0.8008 0.0
C239 C 0.15239 0.24778 0.77601 0.0
H240 H 0.17636 0.11143 0.76998 0.0
C241 C 0.2072 0.28868 0.79333 0.0
C242 C 0.25081 0.26597 0.80285 0.0
H243 H 0.1197 0.26703 0.76938 0.0
H244 H 0.21545 0.33846 0.79919 0.0
C245 C 0.23938 0.20192 0.7938 0.0
C246 C 0.86377 0.07548 0.66563 0.0
C247 C 0.87046 0.01728 0.66683 0.0
H248 H 0.81127 0.12211 0.64777 0.0
C249 C 0.82681 0.95968 0.65084 0.0
H250 H 0.89683 0.12071 0.67767 0.0
C251 C 0.77771 0.96042 0.63383 0.0
C252 C 0.77187 0.01907 0.63224 0.0
H253 H 0.83088 0.91414 0.65131 0.0
H254 H 0.74511 0.91552 0.62155 0.0
C255 C 0.81525 0.07652 0.64836 0.0
C256 C 0.87199 0.85508 0.99607 0.0
C257 C 0.86464 0.91272 0.99948 0.0
H258 H 0.8344 0.75731 0.97669 0.0
C259 C 0.81351 0.91608 0.98445 0.0
H260 H 0.91081 0.85072 1.00727 0.0
C261 C 0.77018 0.86284 0.96686 0.0
C262 C 0.77665 0.80472 0.96381 0.0
H263 H 0.80652 0.95977 0.9863 0.0
H264 H 0.73144 0.86724 0.95562 0.0
C265 C 0.82851 0.8017 0.9784 0.0
C266 C 0.0837 0.91107 0.31895 0.0
C267 C 0.02087 0.89959 0.32897 0.0
H268 H 0.13599 0.87185 0.29561 0.0
C269 C 0.96068 0.83921 0.32161 0.0
H270 H 0.13092 0.95726 0.32442 0.0
C271 C 0.96309 0.79128 0.30436 0.0
C272 C 0.02604 0.80167 0.29461 0.0
H273 H 0.9114 0.82957 0.32874 0.0
H274 H 0.91525 0.74633 0.29853 0.0
C275 C 0.08639 0.86232 0.3022 0.0
C276 C 0.15069 0.96005 0.66524 0.0
C277 C 0.15215 0.02147 0.67098 0.0
H278 H 0.19379 0.91008 0.64272 0.0
C279 C 0.20341 0.08197 0.65953 0.0
H280 H 0.11111 0.91254 0.67357 0.0
C281 C 0.252 0.08115 0.64243 0.0
C282 C 0.24955 0.01943 0.63575 0.0
H283 H 0.20597 0.13017 0.66379 0.0
H284 H 0.29153 0.1292 0.63453 0.0
C285 C 0.19836 0.95887 0.64758 0.0
C286 C 0.17746 0.16621 0.98935 0.0
C287 C 0.1551 0.19556 0.00902 0.0
H288 H 0.2428 0.18304 0.95563 0.0
C289 C 0.18762 0.26686 0.01128 0.0
H290 H 0.15269 0.11123 0.98705 0.0
C291 C 0.24065 0.30819 0.9939 0.0
C292 C 0.26115 0.27934 0.97315 0.0
H293 H 0.17178 0.29075 0.02648 0.0
H294 H 0.26512 0.36295 0.99675 0.0
C295 C 0.22937 0.20759 0.97139 0.0
C296 C 0.07741 0.23954 0.33955 0.0
C297 C 0.01719 0.17541 0.3397 0.0
H298 H 0.12962 0.3398 0.32261 0.0
C299 C 0.96151 0.16447 0.32335 0.0
H300 H 0.12127 0.24923 0.35181 0.0
C301 C 0.96616 0.21596 0.30682 0.0
C302 C 0.02687 0.2795 0.30601 0.0
H303 H 0.91441 0.11556 0.32299 0.0
H304 H 0.9227 0.20536 0.2941 0.0
C305 C 0.0824 0.29103 0.32266 0.0
loop_
_geom_bond_atom_site_label_1
_geom_bond_atom_site_label_2
_geom_bond_distance
_geom_bond_site_symmetry_2
_ccdc_geom_bond_type
Co0 O1 2.216 1_445 S
Co0 O2 2.091 1_545 S
Co0 O4 2.004 . S
Co0 O10 2.021 1_445 S
Co0 O12 2.137 . S
Co0 O13 2.244 1_455 S
O1 Co0 2.216 1_665 S
O1 C8 1.247 1_655 S
O2 Co0 2.091 1_565 S
O2 C8 1.261 . S
C3 O12 1.247 . S
C3 O13 1.272 1_455 S
O4 Co0 2.004 . S
O4 C9 1.259 . S
Co5 O6 2.061 1_655 S
Co5 O11 2.052 1_545 S
Co5 O13 2.135 . S
O6 Co5 2.061 1_455 S
O6 C9 1.235 . S
C7 O10 1.238 . S
C7 O11 1.241 . S
C8 O1 1.247 1_455 S
C8 O2 1.261 . S
C9 O4 1.259 . S
C9 O6 1.235 . S
O10 Co0 2.021 1_665 S
O10 C7 1.238 . S
O11 Co5 2.052 1_565 S
O11 C7 1.241 . S
O12 Co0 2.137 . S
O12 C3 1.247 . S
O13 Co0 2.244 1_655 S
O13 C3 1.272 1_655 S
O13 Co5 2.135 . S
Co14 O15 2.216 1_455 S
Co14 O16 2.091 . S
Co14 O18 2.004 . S
Co14 O24 2.021 1_455 S
Co14 O26 2.146 . S
Co14 O27 2.244 1_445 S
O15 Co14 2.216 1_655 S
O15 C22 1.247 1_655 S
O16 Co14 2.091 . S
O16 C22 1.261 . S
C17 O26 1.237 1_565 S
C17 O27 1.272 1_455 S
O18 Co14 2.004 . S
O18 C23 1.259 . S
Co19 O20 2.061 1_655 S
Co19 O25 2.052 . S
Co19 O27 2.135 . S
O20 Co19 2.061 1_455 S
O20 C23 1.235 1_565 S
C21 O24 1.238 . S
C21 O25 1.241 1_545 S
C22 O15 1.247 1_455 S
C22 O16 1.261 . S
C23 O18 1.259 . S
C23 O20 1.235 1_545 S
O24 Co14 2.021 1_655 S
O24 C21 1.238 . S
O25 Co19 2.052 . S
O25 C21 1.241 1_565 S
O26 Co14 2.146 . S
O26 C17 1.237 1_545 S
O27 Co14 2.244 1_665 S
O27 C17 1.272 1_655 S
O27 Co19 2.135 . S
Co28 O29 2.216 . S
Co28 O30 2.091 1_545 S
Co28 O32 2.004 1_445 S
Co28 O38 2.021 . S
Co28 O40 2.137 1_445 S
Co28 O41 2.244 1_455 S
O29 Co28 2.216 . S
O29 C36 1.247 . S
O30 Co28 2.091 1_565 S
O30 C36 1.261 1_565 S
C31 O40 1.247 1_545 S
C31 O41 1.272 . S
O32 Co28 2.004 1_665 S
O32 C37 1.259 . S
Co33 O34 2.061 1_545 S
Co33 O39 2.052 1_655 S
Co33 O41 2.135 . S
O34 Co33 2.061 1_565 S
O34 C37 1.235 . S
C35 O38 1.238 . S
C35 O39 1.241 . S
C36 O29 1.247 . S
C36 O30 1.261 1_545 S
C37 O32 1.259 . S
C37 O34 1.235 . S
O38 Co28 2.021 . S
O38 C35 1.238 . S
O39 Co33 2.052 1_455 S
O39 C35 1.241 . S
O40 Co28 2.137 1_665 S
O40 C31 1.247 1_565 S
O41 Co28 2.244 1_655 S
O41 C31 1.272 . S
O41 Co33 2.135 . S
H42 C61 0.949 . S
H43 C62 0.950 . S
H44 C64 0.950 . S
H45 C65 0.950 . S
H46 C67 0.950 . S
H47 C70 0.950 . S
H48 C71 0.950 . S
H49 C73 0.951 . S
H50 C74 0.949 . S
H51 C76 0.949 . S
H52 C77 0.950 . S
H53 C79 0.950 . S
H54 C80 0.950 . S
H55 C82 0.950 1_655 S
H56 C85 0.950 . S
H57 C86 0.950 . S
H58 C88 0.951 . S
H59 C89 0.949 . S
C60 C61 1.376 . S
C60 C65 1.386 1_455 S
C60 C66 1.483 . S
C61 H42 0.949 . S
C61 C60 1.376 . S
C61 C62 1.397 . S
C62 H43 0.950 . S
C62 C61 1.397 . S
C62 C63 1.391 . S
C63 C62 1.391 . S
C63 C64 1.405 1_455 S
C64 H44 0.950 . S
C64 C63 1.405 1_655 S
C64 C65 1.367 . S
C65 H45 0.950 . S
C65 C60 1.386 1_655 S
C65 C64 1.367 . S
C66 C60 1.483 . S
C66 C67 1.382 . S
C66 C68 1.403 . S
C67 H46 0.950 . S
C67 C66 1.382 . S
C67 C83 1.411 . S
C68 C66 1.403 . S
C68 C69 1.489 . S
C68 C82 1.411 . S
C69 C68 1.489 . S
C69 C70 1.383 . S
C69 C74 1.382 1_455 S
C70 H47 0.950 . S
C70 C69 1.383 . S
C70 C71 1.395 . S
C71 H48 0.950 . S
C71 C70 1.395 . S
C71 C72 1.288 . S
C72 C71 1.288 . S
C72 C73 1.392 1_455 S
C73 H49 0.951 . S
C73 C72 1.392 1_655 S
C73 C74 1.392 . S
C74 H50 0.949 . S
C74 C69 1.382 1_655 S
C74 C73 1.392 . S
C75 C76 1.376 1_455 S
C75 C80 1.386 . S
C75 C81 1.483 . S
C76 H51 0.949 . S
C76 C75 1.376 1_655 S
C76 C77 1.397 . S
C77 H52 0.950 . S
C77 C76 1.397 . S
C77 C78 1.391 1_655 S
C78 C77 1.391 1_455 S
C78 C79 1.405 . S
C79 H53 0.950 . S
C79 C78 1.405 . S
C79 C80 1.367 . S
C80 H54 0.950 . S
C80 C75 1.386 . S
C80 C79 1.367 . S
C81 C75 1.483 . S
C81 C82 1.382 . S
C81 C83 1.403 . S
C82 H55 0.950 1_455 S
C82 C68 1.411 . S
C82 C81 1.382 . S
C83 C67 1.411 . S
C83 C81 1.403 . S
C83 C84 1.489 . S
C84 C83 1.489 . S
C84 C85 1.383 1_455 S
C84 C89 1.382 . S
C85 H56 0.950 . S
C85 C84 1.383 1_655 S
C85 C86 1.395 . S
C86 H57 0.950 . S
C86 C85 1.395 . S
C86 C87 1.288 1_655 S
C87 C86 1.288 1_455 S
C87 C88 1.392 . S
C88 H58 0.951 . S
C88 C87 1.392 . S
C88 C89 1.392 . S
C89 H59 0.949 . S
C89 C84 1.382 . S
C89 C88 1.392 . S
H90 C109 0.949 . S
H91 C110 0.950 . S
H92 C112 0.950 . S
H93 C113 0.950 . S
H94 C115 0.950 . S
H95 C118 0.950 . S
H96 C119 0.950 . S
H97 C121 0.951 . S
H98 C122 0.949 . S
H99 C124 0.949 . S
H100 C125 0.950 . S
H101 C127 0.950 . S
H102 C128 0.950 . S
H103 C130 0.950 1_565 S
H104 C133 0.950 . S
H105 C134 0.950 . S
H106 C136 0.951 . S
H107 C137 0.949 . S
C108 C109 1.376 . S
C108 C113 1.386 1_545 S
C108 C114 1.483 . S
C109 H90 0.949 . S
C109 C108 1.376 . S
C109 C110 1.397 . S
C110 H91 0.950 . S
C110 C109 1.397 . S
C110 C111 1.391 . S
C111 C110 1.391 . S
C111 C112 1.405 1_545 S
C112 H92 0.950 . S
C112 C111 1.405 1_565 S
C112 C113 1.367 . S
C113 H93 0.950 . S
C113 C108 1.386 1_565 S
C113 C112 1.367 . S
C114 C108 1.483 . S
C114 C115 1.382 . S
C114 C116 1.403 . S
C115 H94 0.950 . S
C115 C114 1.382 . S
C115 C131 1.411 . S
C116 C114 1.403 . S
C116 C117 1.489 . S
C116 C130 1.411 . S
C117 C116 1.489 . S
C117 C118 1.383 . S
C117 C122 1.382 1_545 S
C118 H95 0.950 . S
C118 C117 1.383 . S
C118 C119 1.395 . S
C119 H96 0.950 . S
C119 C118 1.395 . S
C119 C120 1.288 . S
C120 C119 1.288 . S
C120 C121 1.392 1_545 S
C121 H97 0.951 . S
C121 C120 1.392 1_565 S
C121 C122 1.392 . S
C122 H98 0.949 . S
C122 C117 1.382 1_565 S
C122 C121 1.392 . S
C123 C124 1.376 1_545 S
C123 C128 1.386 . S
C123 C129 1.483 . S
C124 H99 0.949 . S
C124 C123 1.376 1_565 S
C124 C125 1.397 . S
C125 H100 0.950 . S
C125 C124 1.397 . S
C125 C126 1.391 1_565 S
C126 C125 1.391 1_545 S
C126 C127 1.405 . S
C127 H101 0.950 . S
C127 C126 1.405 . S
C127 C128 1.367 . S
C128 H102 0.950 . S
C128 C123 1.386 . S
C128 C127 1.367 . S
C129 C123 1.483 . S
C129 C130 1.382 . S
C129 C131 1.403 . S
C130 H103 0.950 1_545 S
C130 C116 1.411 . S
C130 C129 1.382 . S
C131 C115 1.411 . S
C131 C129 1.403 . S
C131 C132 1.489 . S
C132 C131 1.489 . S
C132 C133 1.383 1_545 S
C132 C137 1.382 . S
C133 H104 0.950 . S
C133 C132 1.383 1_565 S
C133 C134 1.395 . S
C134 H105 0.950 . S
C134 C133 1.395 . S
C134 C135 1.288 1_565 S
C135 C134 1.288 1_545 S
C135 C136 1.392 . S
C136 H106 0.951 . S
C136 C135 1.392 . S
C136 C137 1.392 . S
C137 H107 0.949 . S
C137 C132 1.382 . S
C137 C136 1.392 . S
H138 C157 0.949 . S
H139 C158 0.950 . S
H140 C160 0.950 . S
H141 C161 0.950 . S
H142 C163 0.950 . S
H143 C166 0.950 . S
H144 C167 0.950 . S
H145 C169 0.951 . S
H146 C170 0.949 . S
H147 C172 0.949 . S
H148 C173 0.950 . S
H149 C175 0.950 . S
H150 C176 0.950 . S
H151 C178 0.950 . S
H152 C181 0.950 . S
H153 C182 0.950 . S
H154 C184 0.951 . S
H155 C185 0.949 . S
C156 C157 1.376 . S
C156 C161 1.386 . S
C156 C162 1.483 . S
C157 H138 0.949 . S
C157 C156 1.376 . S
C157 C158 1.397 . S
C158 H139 0.950 . S
C158 C157 1.397 . S
C158 C159 1.391 . S
C159 C158 1.391 . S
C159 C160 1.405 . S
C160 H140 0.950 . S
C160 C159 1.405 . S
C160 C161 1.367 . S
C161 H141 0.950 . S
C161 C156 1.386 . S
C161 C160 1.367 . S
C162 C156 1.483 . S
C162 C163 1.382 . S
C162 C164 1.403 . S
C163 H142 0.950 . S
C163 C162 1.382 . S
C163 C179 1.411 . S
C164 C162 1.403 . S
C164 C165 1.489 . S
C164 C178 1.411 . S
C165 C164 1.489 . S
C165 C166 1.383 . S
C165 C170 1.382 . S
C166 H143 0.950 . S
C166 C165 1.383 . S
C166 C167 1.395 . S
C167 H144 0.950 . S
C167 C166 1.395 . S
C167 C168 1.288 . S
C168 C167 1.288 . S
C168 C169 1.392 . S
C169 H145 0.951 . S
C169 C168 1.392 . S
C169 C170 1.392 . S
C170 H146 0.949 . S
C170 C165 1.382 . S
C170 C169 1.392 . S
C171 C172 1.376 . S
C171 C176 1.386 . S
C171 C177 1.483 . S
C172 H147 0.949 . S
C172 C171 1.376 . S
C172 C173 1.397 . S
C173 H148 0.950 . S
C173 C172 1.397 . S
C173 C174 1.391 . S
C174 C173 1.391 . S
C174 C175 1.405 . S
C175 H149 0.950 . S
C175 C174 1.405 . S
C175 C176 1.367 . S
C176 H150 0.950 . S
C176 C171 1.386 . S
C176 C175 1.367 . S
C177 C171 1.483 . S
C177 C178 1.382 . S
C177 C179 1.403 . S
C178 H151 0.950 . S
C178 C164 1.411 . S
C178 C177 1.382 . S
C179 C163 1.411 . S
C179 C177 1.403 . S
C179 C180 1.489 . S
C180 C179 1.489 . S
C180 C181 1.383 . S
C180 C185 1.382 . S
C181 H152 0.950 . S
C181 C180 1.383 . S
C181 C182 1.395 . S
C182 H153 0.950 . S
C182 C181 1.395 . S
C182 C183 1.288 . S
C183 C182 1.288 . S
C183 C184 1.392 . S
C184 H154 0.951 . S
C184 C183 1.392 . S
C184 C185 1.392 . S
C185 H155 0.949 . S
C185 C180 1.382 . S
C185 C184 1.392 . S
C186 C187 1.387 . S
C186 H190 0.950 . S
C186 C195 1.390 . S
C187 C186 1.387 . S
C187 C189 1.387 . S
H188 C195 0.950 . S
C189 C187 1.387 . S
C189 C191 1.390 . S
C189 H193 0.950 . S
H190 C186 0.950 . S
C191 C189 1.390 . S
C191 C192 1.387 . S
C191 H194 0.950 . S
C192 C191 1.387 . S
C192 C195 1.387 . S
H193 C189 0.950 . S
H194 C191 0.950 . S
C195 C186 1.390 . S
C195 H188 0.950 . S
C195 C192 1.387 . S
C196 C197 1.387 1_565 S
C196 H200 0.950 . S
C196 C205 1.390 . S
C197 C196 1.387 1_545 S
C197 C199 1.387 . S
H198 C205 0.950 . S
C199 C197 1.387 . S
C199 C201 1.390 . S
C199 H203 0.950 . S
H200 C196 0.950 . S
C201 C199 1.390 . S
C201 C202 1.387 . S
C201 H204 0.950 . S
C202 C201 1.387 . S
C202 C205 1.387 1_545 S
H203 C199 0.950 . S
H204 C201 0.950 . S
C205 C196 1.390 . S
C205 H198 0.950 . S
C205 C202 1.387 1_565 S
C206 C207 1.387 . S
C206 H210 0.950 . S
C206 C215 1.390 . S
C207 C206 1.387 . S
C207 C209 1.387 . S
H208 C215 0.950 . S
C209 C207 1.387 . S
C209 C211 1.390 . S
C209 H213 0.950 . S
H210 C206 0.950 . S
C211 C209 1.390 . S
C211 C212 1.387 . S
C211 H214 0.950 . S
C212 C211 1.387 . S
C212 C215 1.387 . S
H213 C209 0.950 . S
H214 C211 0.950 . S
C215 C206 1.390 . S
C215 H208 0.950 . S
C215 C212 1.387 . S
C216 C217 1.387 . S
C216 H220 0.950 . S
C216 C225 1.390 . S
C217 C216 1.387 . S
C217 C219 1.387 1_455 S
H218 C225 0.950 . S
C219 C217 1.387 1_655 S
C219 C221 1.390 . S
C219 H223 0.950 . S
H220 C216 0.950 . S
C221 C219 1.390 . S
C221 C222 1.387 1_655 S
C221 H224 0.950 . S
C222 C221 1.387 1_455 S
C222 C225 1.387 . S
H223 C219 0.950 . S
H224 C221 0.950 . S
C225 C216 1.390 . S
C225 H218 0.950 . S
C225 C222 1.387 . S
C226 C227 1.387 . S
C226 H230 0.950 . S
C226 C235 1.390 . S
C227 C226 1.387 . S
C227 C229 1.387 1_545 S
H228 C235 0.950 . S
C229 C227 1.387 1_565 S
C229 C231 1.390 . S
C229 H233 0.950 . S
H230 C226 0.950 . S
C231 C229 1.390 . S
C231 C232 1.387 1_565 S
C231 H234 0.950 . S
C232 C231 1.387 1_545 S
C232 C235 1.387 . S
H233 C229 0.950 . S
H234 C231 0.950 . S
C235 C226 1.390 . S
C235 H228 0.950 . S
C235 C232 1.387 . S
C236 C237 1.387 . S
C236 H240 0.950 . S
C236 C245 1.390 . S
C237 C236 1.387 . S
C237 C239 1.387 . S
H238 C245 0.950 . S
C239 C237 1.387 . S
C239 C241 1.390 . S
C239 H243 0.950 . S
H240 C236 0.950 . S
C241 C239 1.390 . S
C241 C242 1.387 . S
C241 H244 0.950 . S
C242 C241 1.387 . S
C242 C245 1.387 . S
H243 C239 0.950 . S
H244 C241 0.950 . S
C245 C236 1.390 . S
C245 H238 0.950 . S
C245 C242 1.387 . S
C246 C247 1.387 . S
C246 H250 0.950 . S
C246 C255 1.390 . S
C247 C246 1.387 . S
C247 C249 1.387 1_545 S
H248 C255 0.950 . S
C249 C247 1.387 1_565 S
C249 C251 1.390 . S
C249 H253 0.950 . S
H250 C246 0.950 . S
C251 C249 1.390 . S
C251 C252 1.387 1_565 S
C251 H254 0.950 . S
C252 C251 1.387 1_545 S
C252 C255 1.387 . S
H253 C249 0.950 . S
H254 C251 0.950 . S
C255 C246 1.390 . S
C255 H248 0.950 . S
C255 C252 1.387 . S
C256 C257 1.387 . S
C256 H260 0.950 1_556 S
C256 C265 1.390 . S
C257 C256 1.387 . S
C257 C259 1.387 . S
H258 C265 0.950 . S
C259 C257 1.387 . S
C259 C261 1.390 . S
C259 H263 0.950 . S
H260 C256 0.950 1_554 S
C261 C259 1.390 . S
C261 C262 1.387 . S
C261 H264 0.950 . S
C262 C261 1.387 . S
C262 C265 1.387 . S
H263 C259 0.950 . S
H264 C261 0.950 . S
C265 C256 1.390 . S
C265 H258 0.950 . S
C265 C262 1.387 . S
C266 C267 1.387 . S
C266 H270 0.950 . S
C266 C275 1.390 . S
C267 C266 1.387 . S
C267 C269 1.387 1_455 S
H268 C275 0.950 . S
C269 C267 1.387 1_655 S
C269 C271 1.390 . S
C269 H273 0.950 . S
H270 C266 0.950 . S
C271 C269 1.390 . S
C271 C272 1.387 1_655 S
C271 H274 0.950 . S
C272 C271 1.387 1_455 S
C272 C275 1.387 . S
H273 C269 0.950 . S
H274 C271 0.950 . S
C275 C266 1.390 . S
C275 H268 0.950 . S
C275 C272 1.387 . S
C276 C277 1.387 1_565 S
C276 H280 0.950 . S
C276 C285 1.390 . S
C277 C276 1.387 1_545 S
C277 C279 1.387 . S
H278 C285 0.950 . S
C279 C277 1.387 . S
C279 C281 1.390 . S
C279 H283 0.950 . S
H280 C276 0.950 . S
C281 C279 1.390 . S
C281 C282 1.387 . S
C281 H284 0.950 . S
C282 C281 1.387 . S
C282 C285 1.387 1_545 S
H283 C279 0.950 . S
H284 C281 0.950 . S
C285 C276 1.390 . S
C285 H278 0.950 . S
C285 C282 1.387 1_565 S
C286 C287 1.387 . S
C286 H290 0.950 . S
C286 C295 1.390 . S
C287 C286 1.387 . S
C287 C289 1.387 . S
H288 C295 0.950 . S
C289 C287 1.387 . S
C289 C291 1.390 . S
C289 H293 0.950 1_556 S
H290 C286 0.950 . S
C291 C289 1.390 . S
C291 C292 1.387 . S
C291 H294 0.950 . S
C292 C291 1.387 . S
C292 C295 1.387 . S
H293 C289 0.950 1_554 S
H294 C291 0.950 . S
C295 C286 1.390 . S
C295 H288 0.950 . S
C295 C292 1.387 . S
C296 C297 1.387 . S
C296 H300 0.950 . S
C296 C305 1.390 . S
C297 C296 1.387 . S
C297 C299 1.387 1_455 S
H298 C305 0.950 . S
C299 C297 1.387 1_655 S
C299 C301 1.390 . S
C299 H303 0.950 . S
H300 C296 0.950 . S
C301 C299 1.390 . S
C301 C302 1.387 1_655 S
C301 H304 0.950 . S
C302 C301 1.387 1_455 S
C302 C305 1.387 . S
H303 C299 0.950 . S
H304 C301 0.950 . S
C305 C296 1.390 . S
C305 H298 0.950 . S
C305 C302 1.387 . S
C192 C63 1.510 . S
C187 C3 1.508 . S
C197 C21 1.522 . S
C202 C111 1.542 . S
C207 C37 1.499 . S
C212 C183 1.512 . S
C217 C8 1.517 . S
C222 C87 1.506 . S
C232 C135 1.519 . S
C227 C23 1.505 . S
C237 C35 1.499 . S
C242 C159 1.524 . S
C252 C120 1.502 . S
C247 C31 1.501 . S
C257 C7 1.501 1_556 S
C262 C174 1.527 . S
C272 C78 1.512 . S
C267 C17 1.508 . S
C282 C126 1.495 . S
C277 C36 1.495 . S
C292 C168 1.528 . S
C287 C9 1.501 1_556 S
C297 C22 1.517 . S
C302 C72 1.514 . S
