# Generated by pormake.
# Topology pth, (4,4)-cn, num edge types: 1
# Building blocks:
#     Node 0, Type 0, BuildingBlock: UXUYUI_clean_sbu_0, # of connection points: 4
#     Node 1, Type 0, BuildingBlock: UXUYUI_clean_sbu_0, # of connection points: 4
#     Node 2, Type 0, BuildingBlock: UXUYUI_clean_sbu_0, # of connection points: 4
#     Node 3, Type 1, BuildingBlock: AZAVOO_clean_linker_0, # of connection points: 4
#     Node 4, Type 1, BuildingBlock: AZAVOO_clean_linker_0, # of connection points: 4
#     Node 5, Type 1, BuildingBlock: AZAVOO_clean_linker_0, # of connection points: 4
#     Edge 6, Type (0, 1), BuildingBlock: KIFKEQ_clean_linker_1, # of connection points: 2
#     Edge 7, Type (0, 1), BuildingBlock: KIFKEQ_clean_linker_1, # of connection points: 2
#     Edge 8, Type (0, 1), BuildingBlock: KIFKEQ_clean_linker_1, # of connection points: 2
#     Edge 9, Type (0, 1), BuildingBlock: KIFKEQ_clean_linker_1, # of connection points: 2
#     Edge 10, Type (0, 1), BuildingBlock: KIFKEQ_clean_linker_1, # of connection points: 2
#     Edge 11, Type (0, 1), BuildingBlock: KIFKEQ_clean_linker_1, # of connection points: 2
#     Edge 12, Type (0, 1), BuildingBlock: KIFKEQ_clean_linker_1, # of connection points: 2
#     Edge 13, Type (0, 1), BuildingBlock: KIFKEQ_clean_linker_1, # of connection points: 2
#     Edge 14, Type (0, 1), BuildingBlock: KIFKEQ_clean_linker_1, # of connection points: 2
#     Edge 15, Type (0, 1), BuildingBlock: KIFKEQ_clean_linker_1, # of connection points: 2
#     Edge 16, Type (0, 1), BuildingBlock: KIFKEQ_clean_linker_1, # of connection points: 2
#     Edge 17, Type (0, 1), BuildingBlock: KIFKEQ_clean_linker_1, # of connection points: 2
# Relax obj value: 0.174
# Max RMSD: 0.231
# Mean RMSD: 0.228
data_MOF--net-pth--node1-UXUYUI_clean_sbu_0--node2-AZAVOO_clean_linker_0--edge1-KIFKEQ_clean_linker_1
_symmetry_space_group_name_H-M    P1
_symmetry_Int_Tables_number       1
_symmetry_cell_setting            triclinic
loop_
_symmetry_equiv_pos_as_xyz
'x, y, z'
_cell_length_a     31.76614
_cell_length_b     31.772484
_cell_length_c     85.779186
_cell_angle_alpha  91.358979
_cell_angle_beta   89.106325
_cell_angle_gamma 119.97564
loop_
_atom_site_label
_atom_site_type_symbol
_atom_site_fract_x
_atom_site_fract_y
_atom_site_fract_z
_atom_type_partial_charge
Li0 Li 0.10332 0.07329 0.05142 0.0
Li1 Li 0.04988 0.07724 0.07135 0.0
Li2 Li 0.06237 0.00804 0.06925 0.0
Li3 Li 0.01578 0.02174 0.04975 0.0
C4 C 0.13442 0.0709 0.08636 0.0
N5 N 0.17735 0.05396 0.11138 0.0
C6 C 0.12032 0.07488 0.10159 0.0
C7 C 0.17053 0.05855 0.08385 0.0
C8 C 0.14246 0.06616 0.11408 0.0
C9 C 0.19172 0.05002 0.09666 0.0
C10 C 0.05441 0.13606 0.05003 0.0
C11 C 0.01346 0.18186 0.05465 0.0
N12 N 0.0568 0.22386 0.05359 0.0
C13 C 0.09853 0.17965 0.04893 0.0
C14 C 0.01148 0.1371 0.05285 0.0
C15 C 0.09897 0.22368 0.05078 0.0
C16 C 0.15039 0.1148 0.02389 0.0
N17 N 0.15905 0.11048 0.03905 0.0
C18 C 0.24452 0.1613 0.03525 0.0
C19 C 0.20486 0.13304 0.04492 0.0
C20 C 0.23657 0.16583 0.01947 0.0
C21 C 0.18881 0.14201 0.0138 0.0
H22 H 0.11341 0.09736 0.0197 0.0
H23 H 0.21052 0.12965 0.05711 0.0
C24 C 0.00257 0.10141 0.09515 0.0
N25 N 0.04346 0.11841 0.08628 0.0
C26 C 0.00089 0.12898 0.1078 0.0
C27 C 0.08306 0.19132 0.10169 0.0
C28 C 0.08314 0.16256 0.08918 0.0
C29 C 0.0419 0.17414 0.11139 0.0
H30 H 0.97207 0.06559 0.09282 0.0
H31 H 0.11554 0.17453 0.08214 0.0
C32 C 0.09091 -0.00146 0.03412 0.0
N33 N 0.14394 0.99506 0.00877 0.0
C34 C 0.07261 0.99302 0.01903 0.0
C35 C 0.13606 0.002 0.03631 0.0
C36 C 0.09998 0.99136 0.00637 0.0
C37 C 0.16237 0.00029 0.02335 0.0
C38 C 0.95241 0.97461 0.07149 0.0
C39 C 0.93716 0.92523 0.0727 0.0
C40 C 0.91817 0.98906 0.06892 0.0
C41 C 0.88779 0.89105 0.07123 0.0
C42 C 0.86916 0.95376 0.06749 0.0
N43 N 0.85511 0.9059 0.06867 0.0
C44 C 0.04485 0.95509 0.09595 0.0
C45 C 0.08732 0.93572 0.07674 0.0
C46 C 0.04581 0.92228 0.10619 0.0
N47 N 0.06548 0.96121 0.08159 0.0
C48 C 0.08932 0.90252 0.08667 0.0
C49 C 0.06821 0.89545 0.10159 0.0
H50 H 0.02788 0.97607 0.09947 0.0
H51 H 0.10319 0.94118 0.06522 0.0
C52 C 0.94985 0.01632 0.02675 0.0
N53 N 0.96414 0.99041 0.03539 0.0
C54 C 0.91531 0.99321 0.01501 0.0
C55 C 0.91041 0.91726 0.02158 0.0
C56 C 0.94517 0.94183 0.03309 0.0
C57 C 0.89553 0.9431 0.01223 0.0
H58 H 0.96625 0.0551 0.02867 0.0
H59 H 0.95832 0.92252 0.03986 0.0
O60 O 0.11222 0.07793 0.07395 0.0
O61 O 0.0533 0.09257 0.04855 0.0
O62 O 0.06508 0.00114 0.04666 0.0
O63 O 0.00067 0.00861 0.07261 0.0
H64 H 0.0921 0.08389 0.10377 0.0
H65 H 0.1816 0.05491 0.07215 0.0
H66 H 0.13171 0.06884 0.12592 0.0
H67 H 0.21945 0.04009 0.09488 0.0
H68 H 0.98056 0.18322 0.05692 0.0
H69 H 0.13213 0.17954 0.04684 0.0
H70 H 0.97707 0.10368 0.05377 0.0
H71 H 0.13287 0.2577 0.05003 0.0
H72 H 0.28089 0.1794 0.04002 0.0
H73 H 0.18112 0.14553 0.0018 0.0
H74 H 0.96869 0.1141 0.1151 0.0
H75 H 0.11524 0.22615 0.10394 0.0
H76 H 0.03795 0.99065 0.01707 0.0
H77 H 0.15104 0.00681 0.04788 0.0
H78 H 0.08637 0.98735 0.99463 0.0
H79 H 0.19752 0.00332 0.02487 0.0
H80 H 0.96317 0.91333 0.07454 0.0
H81 H 0.92939 0.0271 0.06785 0.0
H82 H 0.87549 0.85269 0.07207 0.0
H83 H 0.84231 0.96441 0.06541 0.0
H84 H 0.02975 0.91844 0.11767 0.0
H85 H 0.10657 0.8822 0.08266 0.0
H86 H 0.90465 0.01435 0.00806 0.0
H87 H 0.89682 0.8788 0.01962 0.0
Li88 Li 0.02126 0.96925 0.3887 0.0
Li89 Li 0.09407 0.04287 0.39999 0.0
Li90 Li 0.01308 0.02096 0.40858 0.0
Li91 Li 0.04027 0.05491 0.38394 0.0
C92 C 0.0354 0.96434 0.42462 0.0
N93 N 0.01198 0.92988 0.45459 0.0
C94 C 0.06275 0.99332 0.43721 0.0
C95 C 0.99633 0.91776 0.42723 0.0
C96 C 0.05026 0.97526 0.45229 0.0
C97 C 0.98504 0.90101 0.44248 0.0
C98 C 0.12095 0.02829 0.37177 0.0
C99 C 0.20625 0.07859 0.36584 0.0
N100 N 0.20763 0.03858 0.36058 0.0
C101 C 0.12317 0.98772 0.36619 0.0
C102 C 0.16275 0.07416 0.37148 0.0
C103 C 0.16734 0.99366 0.36062 0.0
C104 C 0.9754 0.88975 0.36728 0.0
N105 N 0.00198 0.90661 0.38055 0.0
C106 C 0.01471 0.83871 0.38082 0.0
C107 C 0.02086 0.88178 0.38752 0.0
C108 C 0.98887 0.82115 0.36681 0.0
C109 C 0.96797 0.84648 0.36022 0.0
H110 H 0.96164 0.91086 0.36187 0.0
H111 H 0.04265 0.89668 0.39792 0.0
C112 C 0.18034 0.10269 0.41682 0.0
N113 N 0.15668 0.06213 0.40766 0.0
C114 C 0.22136 0.11131 0.42518 0.0
C115 C 0.21394 0.03743 0.41391 0.0
C116 C 0.17282 0.02995 0.40594 0.0
C117 C 0.23783 0.07766 0.42412 0.0
H118 H 0.16562 0.12671 0.4184 0.0
H119 H 0.15234 0.9972 0.39898 0.0
C120 C 0.92875 0.97479 0.39341 0.0
N121 N 0.83274 0.93192 0.40291 0.0
C122 C 0.90895 0.00358 0.39829 0.0
C123 C 0.89962 0.92418 0.39333 0.0
C124 C 0.86038 0.98122 0.40307 0.0
C125 C 0.85118 0.90321 0.39817 0.0
C126 C 0.07633 0.13164 0.40126 0.0
C127 C 0.03922 0.14277 0.40339 0.0
C128 C 0.1214 0.16679 0.39544 0.0
C129 C 0.04767 0.18878 0.39945 0.0
C130 C 0.12841 0.21239 0.39164 0.0
N131 N 0.09169 0.22232 0.39369 0.0
C132 C 0.00087 0.06129 0.4363 0.0
C133 C 0.9375 0.98029 0.43208 0.0
C134 C 0.9796 0.06447 0.45026 0.0
N135 N 0.97917 0.02006 0.42735 0.0
C136 C 0.91462 0.98202 0.44592 0.0
C137 C 0.93542 0.02479 0.45513 0.0
H138 H 0.03502 0.09175 0.43264 0.0
H139 H 0.92185 0.9472 0.42514 0.0
C140 C 0.07622 0.12206 0.35917 0.0
N141 N 0.03726 0.09579 0.36857 0.0
C142 C 0.07552 0.1544 0.34858 0.0
C143 C 0.99427 0.13139 0.35735 0.0
C144 C 0.99646 0.09932 0.36768 0.0
C145 C 0.03431 0.1597 0.3477 0.0
H146 H 0.10819 0.11859 0.36009 0.0
H147 H 0.96588 0.07781 0.37517 0.0
O148 O 0.04632 0.98181 0.40982 0.0
O149 O 0.07806 0.0231 0.37738 0.0
O150 O 0.97608 0.9959 0.3885 0.0
O151 O 0.06824 0.08628 0.4046 0.0
H152 H 0.09292 0.02958 0.43537 0.0
H153 H 0.97458 0.89507 0.41759 0.0
H154 H 0.07091 0.99737 0.46216 0.0
H155 H 0.95472 0.86514 0.4447 0.0
H156 H 0.23893 0.11382 0.36569 0.0
H157 H 0.09117 0.95203 0.36613 0.0
H158 H 0.16186 0.10591 0.37583 0.0
H159 H 0.16957 0.96255 0.35632 0.0
H160 H 0.03125 0.82012 0.38625 0.0
H161 H 0.9484 0.83441 0.34931 0.0
H162 H 0.23804 0.14233 0.43311 0.0
H163 H 0.22566 0.01085 0.41257 0.0
H164 H 0.93098 0.04273 0.39869 0.0
H165 H 0.91424 0.90125 0.38968 0.0
H166 H 0.84472 0.00307 0.40698 0.0
H167 H 0.8283 0.8641 0.3982 0.0
H168 H 0.0041 0.11598 0.40785 0.0
H169 H 0.15054 0.15885 0.39374 0.0
H170 H 0.01915 0.19775 0.40092 0.0
H171 H 0.163 0.23983 0.38702 0.0
H172 H -0.00227 0.0977 0.45719 0.0
H173 H 0.88056 0.95051 0.44916 0.0
H174 H 0.10731 0.17585 0.34143 0.0
H175 H 0.96155 0.1339 0.35688 0.0
Li176 Li 0.10772 0.05836 0.71839 0.0
Li177 Li 0.10933 0.11603 0.73608 0.0
Li178 Li 0.04514 0.03127 0.73835 0.0
Li179 Li 0.04749 0.08475 0.71598 0.0
C180 C 0.14279 0.03902 0.74441 0.0
N181 N 0.19989 -0.00123 0.75101 0.0
C182 C 0.19334 0.06676 0.74301 0.0
C183 C 0.1213 0.991 0.74934 0.0
C184 C 0.22156 0.04567 0.74634 0.0
C185 C 0.15081 0.97128 0.75259 0.0
C186 C 0.1548 0.1689 0.71092 0.0
C187 C 0.18372 0.25143 0.70322 0.0
N188 N 0.22997 0.26258 0.7065 0.0
C189 C 0.20264 0.18104 0.71408 0.0
C190 C 0.1452 0.20423 0.70536 0.0
C191 C 0.24013 0.22866 0.71183 0.0
C192 C 0.17064 0.07239 0.69365 0.0
N193 N 0.14868 0.04246 0.70584 0.0
C194 C 0.19352 0.00153 0.7006 0.0
C195 C 0.158 0.00615 0.70904 0.0
C196 C 0.21909 0.03424 0.68864 0.0
C197 C 0.20612 0.06902 0.6849 0.0
H198 H 0.16136 0.09973 0.69089 0.0
H199 H 0.13888 0.98147 0.71836 0.0
C200 C 0.1736 0.16026 0.76045 0.0
N201 N 0.15269 0.17115 0.7487 0.0
C202 C 0.2115 0.19707 0.76898 0.0
C203 C 0.20342 0.25623 0.75409 0.0
C204 C 0.16539 0.218 0.74581 0.0
C205 C 0.22801 0.24579 0.76548 0.0
H206 H 0.1618 0.12285 0.76297 0.0
H207 H 0.14734 0.22591 0.73674 0.0
C208 C 0.03631 0.984 0.70498 0.0
N209 N 0.04132 0.92055 0.68348 0.0
C210 C 0.04002 0.99391 0.68907 0.0
C211 C 0.03501 0.94182 0.70997 0.0
C212 C 0.04257 0.96139 0.67838 0.0
C213 C 0.03758 0.91017 0.69891 0.0
C214 C 0.04005 0.12939 0.74687 0.0
C215 C 0.0434 0.13158 0.76312 0.0
C216 C 0.04018 0.16737 0.73893 0.0
C217 C 0.04703 0.17198 0.77119 0.0
C218 C 0.04378 0.2071 0.74742 0.0
N219 N 0.04715 0.20858 0.76324 0.0
C220 C 0.01088 0.99165 0.76768 0.0
C221 C 0.96422 0.94126 0.74655 0.0
C222 C 0.97862 0.95839 0.77838 0.0
N223 N 0.00286 0.98271 0.75214 0.0
C224 C 0.93133 0.90665 0.75684 0.0
C225 C 0.93793 0.91524 0.77302 0.0
H226 H 0.042 0.02506 0.77173 0.0
H227 H 0.95864 0.93536 0.7341 0.0
C228 C 0.02237 0.11087 0.68777 0.0
N229 N 0.00701 0.09406 0.70237 0.0
C230 C 0.99057 0.11362 0.67733 0.0
C231 C 0.92811 0.0821 0.69726 0.0
C232 C 0.96113 0.08007 0.70731 0.0
C233 C 0.94251 0.09857 0.68198 0.0
H234 H 0.059 0.12119 0.68415 0.0
H235 H 0.94992 0.06624 0.71895 0.0
O236 O 0.1146 0.05921 0.7414 0.0
O237 O 0.11763 0.12244 0.713 0.0
O238 O 0.0352 0.01609 0.71563 0.0
O239 O 0.03763 0.09076 0.73872 0.0
H240 H 0.21057 0.10413 0.73937 0.0
H241 H 0.08227 0.96904 0.75054 0.0
H242 H 0.2607 0.06662 0.74523 0.0
H243 H 0.13467 0.93408 0.75634 0.0
H244 H 0.17683 0.27924 0.69901 0.0
H245 H 0.21066 0.15401 0.7183 0.0
H246 H 0.10837 0.19542 0.70286 0.0
H247 H 0.27729 0.23865 0.71432 0.0
H248 H 0.20202 0.97383 0.70377 0.0
H249 H 0.22369 0.09388 0.67541 0.0
H250 H 0.22836 0.18743 0.77805 0.0
H251 H 0.21472 0.29337 0.75116 0.0
H252 H 0.04143 0.02662 0.68506 0.0
H253 H 0.03276 0.93397 0.72226 0.0
H254 H 0.04569 0.96867 0.66604 0.0
H255 H 0.03689 0.87751 0.7026 0.0
H256 H 0.04365 0.10263 0.76942 0.0
H257 H 0.0381 0.16647 0.72634 0.0
H258 H 0.04987 0.17429 0.78376 0.0
H259 H 0.04414 0.23686 0.74144 0.0
H260 H 0.98493 0.96709 0.79071 0.0
H261 H 0.90105 0.87364 0.75213 0.0
H262 H 0.00336 0.12701 0.66572 0.0
H263 H 0.89128 0.06939 0.70127 0.0
H264 H 0.04402 0.48201 0.12894 0.0
H265 H 0.10725 0.83933 0.2611 0.0
H266 H 0.97437 0.42809 0.21213 0.0
H267 H 0.97233 0.36103 0.19706 0.0
H268 H 0.11886 0.40688 0.21175 0.0
H269 H 0.12068 0.47466 0.22666 0.0
H270 H 0.994 0.51649 0.19205 0.0
H271 H 0.00168 0.50015 0.16444 0.0
H272 H 0.14538 0.52275 0.17307 0.0
H273 H 0.13745 0.53968 0.20061 0.0
H274 H 0.99182 0.60063 0.21102 0.0
H275 H 0.99641 0.65394 0.19017 0.0
H276 H 0.14613 0.69373 0.18157 0.0
H277 H 0.14143 0.64099 0.20275 0.0
H278 H 0.9803 0.60064 0.24614 0.0
H279 H 0.98294 0.6753 0.25546 0.0
H280 H 0.13765 0.75555 0.24642 0.0
H281 H 0.13457 0.68042 0.23735 0.0
H282 H 0.96218 0.51092 0.26204 0.0
H283 H 0.9429 0.53699 0.28697 0.0
H284 H 0.09508 0.6413 0.29351 0.0
H285 H 0.11396 0.61538 0.26852 0.0
H286 H 0.97133 0.41908 0.24614 0.0
H287 H 0.96551 0.35859 0.26459 0.0
H288 H 0.10758 0.462 0.28249 0.0
H289 H 0.11316 0.52202 0.26397 0.0
O290 O 0.04189 0.48897 0.13988 0.0
O291 O 0.1154 0.50051 0.14497 0.0
O292 O 0.02564 0.76626 0.26203 0.0
O293 O 0.10514 0.80927 0.25745 0.0
C294 C 0.05243 0.50258 0.22609 0.0
C295 C 0.06001 0.53817 0.21512 0.0
C296 C 0.06173 0.5816 0.22008 0.0
C297 C 0.05594 0.58954 0.23601 0.0
C298 C 0.04885 0.55407 0.24702 0.0
C299 C 0.0476 0.51076 0.24209 0.0
C300 C 0.0477 0.45611 0.2204 0.0
C301 C 0.00543 0.42268 0.21248 0.0
C302 C 0.00435 0.38436 0.2039 0.0
C303 C 0.04563 0.37895 0.20311 0.0
C304 C 0.08675 0.41056 0.21201 0.0
C305 C 0.08773 0.44891 0.22063 0.0
C306 C 0.06519 0.52933 0.19829 0.0
C307 C 0.02721 0.51821 0.18792 0.0
C308 C 0.03165 0.50874 0.17217 0.0
C309 C 0.07413 0.51008 0.16654 0.0
C310 C 0.11218 0.52139 0.17701 0.0
C311 C 0.10775 0.53104 0.19274 0.0
C312 C 0.06632 0.61717 0.20838 0.0
C313 C 0.02578 0.62144 0.20478 0.0
C314 C 0.02834 0.65144 0.19277 0.0
C315 C 0.0715 0.67761 0.18414 0.0
C316 C 0.11251 0.67422 0.18807 0.0
C317 C 0.10988 0.64412 0.2001 0.0
C318 C 0.0573 0.63514 0.24118 0.0
C319 C 0.01473 0.63436 0.24624 0.0
C320 C 0.01634 0.67707 0.25152 0.0
C321 C 0.06056 0.72142 0.25171 0.0
C322 C 0.10304 0.72205 0.24645 0.0
C323 C 0.10139 0.67925 0.24123 0.0
C324 C 0.03939 0.56144 0.26352 0.0
C325 C 0.99146 0.53828 0.26911 0.0
C326 C 0.9805 0.55337 0.28326 0.0
C327 C 0.01749 0.59129 0.29207 0.0
C328 C 0.06597 0.6117 0.287 0.0
C329 C 0.07682 0.59702 0.27276 0.0
C330 C 0.04276 0.47478 0.25369 0.0
C331 C 0.00114 0.42855 0.25405 0.0
C332 C -0.00206 0.39411 0.26455 0.0
C333 C 0.03615 0.40557 0.27495 0.0
C334 C 0.07736 0.45229 0.27474 0.0
C335 C 0.08067 0.48654 0.26416 0.0
C336 C 0.07858 0.49961 0.14983 0.0
C337 C 0.06252 0.76687 0.25738 0.0
H338 H 0.64296 0.03066 0.46121 0.0
H339 H 0.3225 0.12776 0.58004 0.0
H340 H 0.62186 0.99637 0.55733 0.0
H341 H 0.68739 0.98473 0.54674 0.0
H342 H 0.76386 0.1344 0.53221 0.0
H343 H 0.69919 0.14601 0.54341 0.0
H344 H 0.5721 0.00136 0.52561 0.0
H345 H 0.59654 -0.00102 0.49855 0.0
H346 H 0.65516 0.15423 0.49588 0.0
H347 H 0.6309 0.15606 0.52301 0.0
H348 H 0.46817 0.00733 0.53103 0.0
H349 H 0.42192 0.01093 0.50905 0.0
H350 H 0.50843 0.16782 0.51029 0.0
H351 H 0.55358 0.16365 0.53256 0.0
H352 H 0.43791 0.00245 0.56834 0.0
H353 H 0.36349 0.00397 0.57508 0.0
H354 H 0.44026 0.15986 0.56953 0.0
H355 H 0.51451 0.15779 0.56299 0.0
H356 H 0.5034 0.98994 0.58912 0.0
H357 H 0.45665 0.97619 0.61329 0.0
H358 H 0.51119 0.13063 0.61809 0.0
H359 H 0.55852 0.14401 0.59405 0.0
H360 H 0.58837 -0.00069 0.58777 0.0
H361 H 0.64388 0.00289 0.60797 0.0
H362 H 0.73406 0.15747 0.60109 0.0
H363 H 0.67763 0.15358 0.5813 0.0
O364 O 0.63359 0.03243 0.47189 0.0
O365 O 0.66309 0.11225 0.4711 0.0
O366 O 0.31364 0.04596 0.5802 0.0
O367 O 0.35132 0.12606 0.57735 0.0
C368 C 0.61248 0.07623 0.55487 0.0
C369 C 0.58523 0.07998 0.54268 0.0
C370 C 0.54306 0.08254 0.54613 0.0
C371 C 0.52688 0.0792 0.56167 0.0
C372 C 0.55364 0.0745 0.57384 0.0
C373 C 0.59714 0.07437 0.57048 0.0
C374 C 0.65583 0.07195 0.55105 0.0
C375 C 0.65355 0.02696 0.55229 0.0
C376 C 0.69074 0.02028 0.54609 0.0
C377 C 0.73059 0.05846 0.53847 0.0
C378 C 0.73402 0.10434 0.53814 0.0
C379 C 0.69698 0.11104 0.54444 0.0
C380 C 0.59957 0.07882 0.52619 0.0
C381 C 0.59019 0.03477 0.51913 0.0
C382 C 0.60419 0.03354 0.50369 0.0
C383 C 0.62775 0.07641 0.49503 0.0
C384 C 0.63702 0.12054 0.50219 0.0
C385 C 0.62307 0.1217 0.51766 0.0
C386 C 0.51402 0.08521 0.5333 0.0
C387 C 0.4768 0.04239 0.52658 0.0
C388 C 0.45081 0.04458 0.51396 0.0
C389 C 0.4618 0.08968 0.50784 0.0
C390 C 0.49884 0.13258 0.5148 0.0
C391 C 0.52474 0.13031 0.52746 0.0
C392 C 0.48144 0.08 0.5652 0.0
C393 C 0.43848 0.03684 0.56858 0.0
C394 C 0.39608 0.03784 0.57242 0.0
C395 C 0.39593 0.08208 0.57285 0.0
C396 C 0.43909 0.1252 0.56931 0.0
C397 C 0.4815 0.12414 0.56552 0.0
C398 C 0.53452 0.06797 0.58996 0.0
C399 C 0.50656 0.0209 0.59572 0.0
C400 C 0.47952 0.01308 0.6094 0.0
C401 C 0.47998 0.05228 0.6175 0.0
C402 C 0.51052 0.09977 0.6122 0.0
C403 C 0.53752 0.10752 0.59849 0.0
C404 C 0.62883 0.07628 0.58325 0.0
C405 C 0.61971 0.03397 0.59085 0.0
C406 C 0.65171 0.03605 0.60224 0.0
C407 C 0.69339 0.0805 0.60615 0.0
C408 C 0.70195 0.12284 0.59856 0.0
C409 C 0.66994 0.12069 0.5872 0.0
C410 C 0.64261 0.07498 0.47863 0.0
C411 C 0.35107 0.0834 0.57702 0.0
H412 H 0.58461 0.64676 0.99534 0.0
H413 H 0.37388 0.23813 0.86925 0.0
H414 H 0.57996 0.66582 0.90909 0.0
H415 H 0.63086 0.74081 0.92389 0.0
H416 H 0.75162 0.71451 0.91955 0.0
H417 H 0.7006 0.64023 0.90435 0.0
H418 H 0.51745 0.57885 0.93168 0.0
H419 H 0.53242 0.60661 0.95895 0.0
H420 H 0.66854 0.60654 0.95724 0.0
H421 H 0.65282 0.57833 0.93002 0.0
H422 H 0.44657 0.47695 0.91568 0.0
H423 H 0.40059 0.41516 0.93512 0.0
H424 H 0.52959 0.40851 0.94598 0.0
H425 H 0.57542 0.47092 0.9266 0.0
H426 H 0.44261 0.47258 0.87975 0.0
H427 H 0.382 0.39088 0.87083 0.0
H428 H 0.47676 0.33716 0.88459 0.0
H429 H 0.53736 0.41924 0.89324 0.0
H430 H 0.50936 0.56562 0.86229 0.0
H431 H 0.4671 0.52685 0.83804 0.0
H432 H 0.53603 0.43891 0.83691 0.0
H433 H 0.57683 0.47691 0.86149 0.0
H434 H 0.60657 0.67185 0.87645 0.0
H435 H 0.66452 0.72869 0.85761 0.0
H436 H 0.71281 0.62603 0.8464 0.0
H437 H 0.65733 0.57129 0.86595 0.0
O438 O 0.57903 0.63503 0.98463 0.0
O439 O 0.64868 0.63443 0.98313 0.0
O440 O 0.35007 0.30035 0.86567 0.0
O441 O 0.39707 0.27073 0.87277 0.0
C442 C 0.60266 0.59722 0.90065 0.0
C443 C 0.57609 0.56246 0.91215 0.0
C444 C 0.54145 0.51462 0.9077 0.0
C445 C 0.53208 0.50182 0.89177 0.0
C446 C 0.55885 0.53654 0.88027 0.0
C447 C 0.5953 0.58386 0.88469 0.0
C448 C 0.63672 0.64778 0.90572 0.0
C449 C 0.61793 0.67731 0.91086 0.0
C450 C 0.64688 0.71978 0.91944 0.0
C451 C 0.69498 0.73311 0.92313 0.0
C452 C 0.71482 0.70544 0.91683 0.0
C453 C 0.68582 0.66302 0.90814 0.0
C454 C 0.58409 0.57669 0.92892 0.0
C455 C 0.55026 0.58448 0.93728 0.0
C456 C 0.55901 0.6005 0.95282 0.0
C457 C 0.60178 0.60898 0.96026 0.0
C458 C 0.6353 0.60047 0.95186 0.0
C459 C 0.62643 0.58435 0.93633 0.0
C460 C 0.51413 0.4781 0.91974 0.0
C461 C 0.46479 0.46208 0.92228 0.0
C462 C 0.43862 0.42668 0.93331 0.0
C463 C 0.46143 0.40673 0.942 0.0
C464 C 0.51115 0.42347 0.93956 0.0
C465 C 0.5373 0.4589 0.92849 0.0
C466 C 0.49437 0.45177 0.88708 0.0
C467 C 0.45017 0.44309 0.88082 0.0
C468 C 0.41563 0.39641 0.87575 0.0
C469 C 0.42459 0.35748 0.87697 0.0
C470 C 0.46872 0.36629 0.88346 0.0
C471 C 0.50332 0.41307 0.88846 0.0
C472 C 0.54564 0.52364 0.86367 0.0
C473 C 0.51657 0.53917 0.8565 0.0
C474 C 0.49245 0.51693 0.84263 0.0
C475 C 0.49744 0.47907 0.8357 0.0
C476 C 0.53054 0.46715 0.84216 0.0
C477 C 0.5543 0.48913 0.85609 0.0
C478 C 0.62808 0.61765 0.87269 0.0
C479 C 0.63005 0.66197 0.87002 0.0
C480 C 0.66281 0.69413 0.8591 0.0
C481 C 0.69367 0.68215 0.85052 0.0
C482 C 0.6905 0.63705 0.85301 0.0
C483 C 0.65835 0.60538 0.86405 0.0
C484 C 0.6114 0.62686 0.97669 0.0
C485 C 0.38822 0.3079 0.87145 0.0
H486 H 0.116 0.22128 0.1322 0.0
H487 H 0.96952 0.18924 0.12288 0.0
H488 H 0.11776 0.26702 0.15563 0.0
H489 H 0.97128 0.23499 0.14636 0.0
H490 H 0.97483 0.28525 0.19649 0.0
H491 H 0.97411 0.23303 0.175 0.0
H492 H 0.11927 0.34323 0.16195 0.0
H493 H 0.11994 0.39528 0.18331 0.0
C494 C 0.08432 0.22438 0.13508 0.0
C495 C 0.04274 0.20199 0.12562 0.0
C496 C 0.08529 0.25041 0.14853 0.0
C497 C 0.04467 0.25457 0.15285 0.0
C498 C 0.00288 0.23177 0.14348 0.0
C499 C 0.00192 0.20573 0.13001 0.0
C500 C 0.00671 0.29804 0.1891 0.0
C501 C 0.04744 0.34433 0.1916 0.0
C502 C 0.00623 0.26827 0.17677 0.0
C503 C 0.0465 0.28417 0.16672 0.0
C504 C 0.08791 0.32968 0.1696 0.0
C505 C 0.08836 0.35944 0.18189 0.0
H506 H 0.8846 0.95502 0.47698 0.0
H507 H 0.92938 0.10349 0.46559 0.0
H508 H 0.83944 0.96074 0.49948 0.0
H509 H 0.88544 0.10933 0.48819 0.0
H510 H 0.82927 0.11788 0.53571 0.0
H511 H 0.88366 0.1083 0.51738 0.0
H512 H 0.76512 0.96917 0.50228 0.0
H513 H 0.71065 0.97895 0.52031 0.0
C514 C 0.88498 0.98886 0.47928 0.0
C515 C 0.91053 0.02874 0.46943 0.0
C516 C 0.85937 0.99218 0.49221 0.0
C517 C 0.85917 0.03554 0.49562 0.0
C518 C 0.88571 0.07574 0.48603 0.0
C519 C 0.91092 0.07233 0.47306 0.0
C520 C 0.81496 0.08506 0.52858 0.0
C521 C 0.76554 0.04939 0.52939 0.0
C522 C 0.84609 0.07956 0.51812 0.0
C523 C 0.82848 0.03816 0.50834 0.0
C524 C 0.77983 0.00122 0.5098 0.0
C525 C 0.74864 0.00682 0.52018 0.0
H526 H 0.83885 0.86056 0.76996 0.0
H527 H 0.95552 0.89037 0.80163 0.0
H528 H 0.78035 0.80343 0.7883 0.0
H529 H 0.89671 0.83618 0.82046 0.0
H530 H 0.78605 0.69988 0.84457 0.0
H531 H 0.84369 0.75381 0.82547 0.0
H532 H 0.74199 0.79959 0.81241 0.0
H533 H 0.68276 0.74272 0.83071 0.0
C534 C 0.85214 0.85493 0.78081 0.0
C535 C 0.90208 0.88012 0.78425 0.0
C536 C 0.8184 0.8227 0.79147 0.0
C537 C 0.83364 0.81523 0.80594 0.0
C538 C 0.88358 0.84044 0.80937 0.0
C539 C 0.91736 0.87219 0.79863 0.0
C540 C 0.77555 0.72079 0.83746 0.0
C541 C 0.72949 0.71658 0.83915 0.0
C542 C 0.80904 0.75242 0.82665 0.0
C543 C 0.79769 0.78128 0.81738 0.0
C544 C 0.7518 0.77746 0.81917 0.0
C545 C 0.71804 0.74534 0.82987 0.0
H546 H 0.14476 0.88202 0.10801 0.0
H547 H 0.99405 0.82997 0.11961 0.0
H548 H 0.14704 0.82674 0.12692 0.0
H549 H 0.9967 0.77606 0.13876 0.0
H550 H 0.00335 0.65316 0.16156 0.0
H551 H 0.00377 0.70332 0.14045 0.0
H552 H 0.14392 0.81953 0.1556 0.0
H553 H 0.14353 0.76916 0.17675 0.0
C554 C 0.11208 0.8585 0.11451 0.0
C555 C 0.06928 0.86039 0.1124 0.0
C556 C 0.11352 0.82726 0.12543 0.0
C557 C 0.07209 0.79715 0.13434 0.0
C558 C 0.02908 0.79842 0.13196 0.0
C559 C 0.0277 0.82968 0.12112 0.0
C560 C 0.03416 0.68949 0.16041 0.0
C561 C 0.07316 0.70748 0.1709 0.0
C562 C 0.03444 0.71815 0.14831 0.0
C563 C 0.07371 0.76547 0.14643 0.0
C564 C 0.11338 0.78301 0.15665 0.0
C565 C 0.11312 0.75425 0.16877 0.0
H566 H 0.32127 0.16001 0.43363 0.0
H567 H 0.24026 0.00421 0.43914 0.0
H568 H 0.38014 0.16594 0.45288 0.0
H569 H 0.29918 0.01018 0.458 0.0
H570 H 0.43435 0.03157 0.48168 0.0
H571 H 0.38508 0.0313 0.46014 0.0
H572 H 0.37896 0.1525 0.48159 0.0
H573 H 0.4279 0.15254 0.50325 0.0
C574 C 0.31615 0.12707 0.43885 0.0
C575 C 0.27615 0.08163 0.43476 0.0
C576 C 0.34984 0.13048 0.44985 0.0
C577 C 0.34431 0.0885 0.45689 0.0
C578 C 0.30493 0.04309 0.45257 0.0
C579 C 0.2712 0.03969 0.44169 0.0
C580 C 0.42237 0.05807 0.48183 0.0
C581 C 0.43456 0.09172 0.49426 0.0
C582 C 0.39434 0.05802 0.46947 0.0
C583 C 0.37798 0.09171 0.46923 0.0
C584 C 0.39151 0.12645 0.48137 0.0
C585 C 0.41948 0.12642 0.49379 0.0
H586 H 0.31266 0.24709 0.77095 0.0
H587 H 0.24246 0.33274 0.77766 0.0
H588 H 0.38209 0.30683 0.786 0.0
H589 H 0.31242 0.39293 0.79279 0.0
H590 H 0.46474 0.50702 0.81059 0.0
H591 H 0.40236 0.45399 0.79179 0.0
H592 H 0.39092 0.32823 0.8141 0.0
H593 H 0.45196 0.38052 0.83291 0.0
C594 C 0.31211 0.27876 0.77565 0.0
C595 C 0.27173 0.2848 0.7734 0.0
C596 C 0.35193 0.31301 0.78422 0.0
C597 C 0.3524 0.3542 0.79072 0.0
C598 C 0.31313 0.36162 0.78783 0.0
C599 C 0.27309 0.32717 0.77922 0.0
C600 C 0.44903 0.46804 0.8114 0.0
C601 C 0.46373 0.44807 0.82317 0.0
C602 C 0.41334 0.43777 0.80066 0.0
C603 C 0.39199 0.38704 0.80144 0.0
C604 C 0.4074 0.36722 0.813 0.0
C605 C 0.44266 0.3973 0.82375 0.0
H606 H 0.87246 0.12338 0.68764 0.0
H607 H 0.93172 0.07204 0.65108 0.0
H608 H 0.81112 0.11784 0.66968 0.0
H609 H 0.87188 0.06871 0.63295 0.0
H610 H 0.72594 0.01619 0.60963 0.0
H611 H 0.78557 0.02095 0.62816 0.0
H612 H 0.80229 0.15593 0.64688 0.0
H613 H 0.74103 0.15 0.62881 0.0
C614 C 0.87252 0.11108 0.67576 0.0
C615 C 0.90696 0.09805 0.67082 0.0
C616 C 0.83767 0.1084 0.66542 0.0
C617 C 0.83649 0.09269 0.64989 0.0
C618 C 0.87134 0.08031 0.64489 0.0
C619 C 0.90612 0.0829 0.65524 0.0
C620 C 0.74179 0.0465 0.61786 0.0
C621 C 0.7287 0.0827 0.61775 0.0
C622 C 0.77648 0.04958 0.62834 0.0
C623 C 0.79894 0.08899 0.63894 0.0
C624 C 0.78543 0.1249 0.63895 0.0
C625 C 0.75068 0.12177 0.62849 0.0
H626 H 0.90237 0.97491 0.98245 0.0
H627 H 0.81295 0.85438 0.0123 0.0
H628 H 0.85112 0.92997 0.96022 0.0
H629 H 0.76281 0.80895 0.99007 0.0
H630 H 0.65962 0.74924 0.95036 0.0
H631 H 0.70483 0.80596 0.97139 0.0
H632 H 0.83737 0.85843 0.94456 0.0
H633 H 0.79162 0.80289 0.92315 0.0
C634 C 0.87136 0.93912 0.9843 0.0
C635 C 0.86174 0.91804 -0.0009 0.0
C636 C 0.84237 0.91322 0.97154 0.0
C637 C 0.80307 0.86586 0.97336 0.0
C638 C 0.7925 0.84555 0.98829 0.0
C639 C 0.8215 0.87136 0.001 0.0
C640 C 0.69817 0.77383 0.94873 0.0
C641 C 0.72205 0.77165 0.93505 0.0
C642 C 0.72418 0.80589 0.96089 0.0
C643 C 0.77471 0.83636 0.9597 0.0
C644 C 0.79837 0.83566 0.94578 0.0
C645 C 0.77229 0.80355 0.93358 0.0
H646 H 0.91103 0.74265 0.35314 0.0
H647 H 0.06501 0.80664 0.36112 0.0
H648 H 0.91179 0.67799 0.33733 0.0
H649 H 0.06643 0.74356 0.345 0.0
H650 H 0.0575 0.61396 0.3212 0.0
H651 H 0.04472 0.66148 0.3416 0.0
H652 H 0.93968 0.67022 0.31238 0.0
H653 H 0.95123 0.62131 0.29242 0.0
C654 C 0.94494 0.74268 0.35155 0.0
C655 C 0.98792 0.77954 0.35834 0.0
C656 C 0.9455 0.70581 0.34246 0.0
C657 C 0.98922 0.70552 0.33981 0.0
C658 C 0.03188 0.74184 0.347 0.0
C659 C 0.03116 0.77824 0.35621 0.0
C660 C 0.03105 0.62537 0.31935 0.0
C661 C 0.00529 0.61399 0.3053 0.0
C662 C 0.02391 0.65283 0.33096 0.0
C663 C 0.9915 0.6702 0.32861 0.0
C664 C 0.96432 0.65693 0.31476 0.0
C665 C 0.97099 0.62895 0.30327 0.0
H666 H 0.30596 0.11188 0.68041 0.0
H667 H 0.22504 0.95494 0.67824 0.0
H668 H 0.37088 0.11189 0.6651 0.0
H669 H 0.29136 0.95484 0.66344 0.0
H670 H 0.38394 0.98408 0.61812 0.0
H671 H 0.32328 0.97605 0.63726 0.0
H672 H 0.43527 0.09288 0.66485 0.0
H673 H 0.49608 0.10128 0.64547 0.0
C674 C 0.30217 0.07731 0.67672 0.0
C675 C 0.25998 0.03342 0.68032 0.0
C676 C 0.3398 0.07729 0.66815 0.0
C677 C 0.33636 0.03336 0.66303 0.0
C678 C 0.29489 0.98932 0.66708 0.0
C679 C 0.25708 0.98935 0.67566 0.0
C680 C 0.39582 0.00725 0.62846 0.0
C681 C 0.44475 0.04341 0.63028 0.0
C682 C 0.361 0.00262 0.63946 0.0
C683 C 0.37434 0.03402 0.65255 0.0
C684 C 0.42369 0.06868 0.65474 0.0
C685 C 0.45853 0.07345 0.64369 0.0
H686 H 0.25406 0.14434 0.99001 0.0
H687 H 0.30994 0.25832 0.02527 0.0
H688 H 0.31385 0.19979 0.97141 0.0
H689 H 0.3692 0.31421 0.00662 0.0
H690 H 0.48861 0.3976 0.97132 0.0
H691 H 0.44029 0.33557 0.99041 0.0
H692 H 0.32142 0.26845 0.95769 0.0
H693 H 0.37027 0.32893 0.93849 0.0
C694 C 0.27947 0.18121 0.99379 0.0
C695 C 0.27715 0.19726 0.009 0.0
C696 C 0.31356 0.21299 0.98315 0.0
C697 C 0.3458 0.2616 0.98747 0.0
C698 C 0.34517 0.2769 0.00295 0.0
C699 C 0.31122 0.24495 0.01363 0.0
C700 C 0.45243 0.36909 0.96815 0.0
C701 C 0.4331 0.3683 0.95345 0.0
C702 C 0.42463 0.33385 0.97912 0.0
C703 C 0.37702 0.29709 0.97558 0.0
C704 C 0.35819 0.29583 0.96074 0.0
C705 C 0.38592 0.33094 0.9498 0.0
H706 H 0.06476 0.17613 0.31734 0.0
H707 H 0.00175 0.22328 0.35389 0.0
H708 H 0.06412 0.23533 0.29983 0.0
H709 H 0.0001 0.28168 0.33628 0.0
H710 H 0.06043 0.41775 0.3058 0.0
H711 H 0.0594 0.35782 0.32334 0.0
H712 H 0.00448 0.24999 0.28611 0.0
H713 H 0.00655 0.31024 0.26848 0.0
C714 C 0.05081 0.19916 0.32162 0.0
C715 C 0.03329 0.19508 0.33697 0.0
C716 C 0.05 0.23269 0.31156 0.0
C717 C 0.03199 0.26307 0.31669 0.0
C718 C 0.01453 0.25901 0.33205 0.0
C719 C 0.01504 0.22527 0.34207 0.0
C720 C 0.04829 0.38128 0.30137 0.0
C721 C 0.03363 0.36868 0.28578 0.0
C722 C 0.0473 0.34688 0.31144 0.0
C723 C 0.0319 0.29924 0.30609 0.0
C724 C 0.01694 0.28655 0.29052 0.0
C725 C 0.01764 0.32088 0.28048 0.0
loop_
_geom_bond_atom_site_label_1
_geom_bond_atom_site_label_2
_geom_bond_distance
_geom_bond_site_symmetry_2
_ccdc_geom_bond_type
Li0 N17 1.990 . S
Li0 O60 1.956 . S
Li0 O61 1.970 . S
Li0 O62 1.961 . S
Li1 N25 1.990 . S
Li1 O60 1.970 . S
Li1 O61 1.956 . S
Li1 O63 1.961 . S
Li2 N47 1.990 1_545 S
Li2 O60 1.961 . S
Li2 O62 1.956 . S
Li2 O63 1.970 . S
Li3 N53 1.990 1_445 S
Li3 O61 1.961 . S
Li3 O62 1.970 . S
Li3 O63 1.956 . S
C4 C6 1.348 . S
C4 C7 1.356 . S
C4 O60 1.325 . S
N5 C8 1.314 . S
N5 C9 1.279 . S
C6 C4 1.348 . S
C6 C8 1.353 . S
C6 H64 0.929 . S
C7 C4 1.356 . S
C7 C9 1.358 . S
C7 H65 0.930 . S
C8 N5 1.314 . S
C8 C6 1.353 . S
C8 H66 0.930 . S
C9 N5 1.279 . S
C9 C7 1.358 . S
C9 H67 0.930 . S
C10 C13 1.348 . S
C10 C14 1.356 1_455 S
C10 O61 1.325 . S
C11 N12 1.279 1_655 S
C11 C14 1.358 . S
C11 H68 0.930 . S
N12 C11 1.279 1_455 S
N12 C15 1.314 . S
C13 C10 1.348 . S
C13 C15 1.353 . S
C13 H69 0.929 . S
C14 C10 1.356 1_655 S
C14 C11 1.358 . S
C14 H70 0.930 . S
C15 N12 1.314 . S
C15 C13 1.353 . S
C15 H71 0.930 . S
C16 N17 1.314 . S
C16 C21 1.353 . S
C16 H22 0.930 . S
N17 Li0 1.990 . S
N17 C16 1.314 . S
N17 C19 1.279 . S
C18 C19 1.358 . S
C18 C20 1.356 . S
C18 H72 0.930 . S
C19 N17 1.279 . S
C19 C18 1.358 . S
C19 H23 0.930 . S
C20 C18 1.356 . S
C20 C21 1.348 . S
C21 C16 1.353 . S
C21 C20 1.348 . S
C21 H73 0.929 . S
H22 C16 0.930 . S
H23 C19 0.930 . S
C24 N25 1.314 . S
C24 C26 1.353 . S
C24 H30 0.930 . S
N25 Li1 1.990 . S
N25 C24 1.314 . S
N25 C28 1.279 . S
C26 C24 1.353 . S
C26 C29 1.348 . S
C26 H74 0.929 1_455 S
C27 C28 1.358 . S
C27 C29 1.356 . S
C27 H75 0.930 . S
C28 N25 1.279 . S
C28 C27 1.358 . S
C28 H31 0.930 . S
C29 C26 1.348 . S
C29 C27 1.356 . S
H30 C24 0.930 . S
H31 C28 0.930 . S
C32 C34 1.348 . S
C32 C35 1.356 . S
C32 O62 1.325 1_565 S
N33 C36 1.314 . S
N33 C37 1.279 . S
C34 C32 1.348 . S
C34 C36 1.353 . S
C34 H76 0.929 . S
C35 C32 1.356 . S
C35 C37 1.358 . S
C35 H77 0.930 1_565 S
C36 N33 1.314 . S
C36 C34 1.353 . S
C36 H78 0.930 . S
C37 N33 1.279 . S
C37 C35 1.358 . S
C37 H79 0.930 . S
C38 C39 1.348 . S
C38 C40 1.356 . S
C38 O63 1.325 1_665 S
C39 C38 1.348 . S
C39 C41 1.353 . S
C39 H80 0.929 . S
C40 C38 1.356 . S
C40 C42 1.358 . S
C40 H81 0.930 1_565 S
C41 C39 1.353 . S
C41 N43 1.314 . S
C41 H82 0.930 . S
C42 C40 1.358 . S
C42 N43 1.279 . S
C42 H83 0.930 . S
N43 C41 1.314 . S
N43 C42 1.279 . S
C44 C46 1.353 . S
C44 N47 1.314 . S
C44 H50 0.930 1_565 S
C45 N47 1.279 . S
C45 C48 1.358 . S
C45 H51 0.930 . S
C46 C44 1.353 . S
C46 C49 1.348 . S
C46 H84 0.929 . S
N47 Li2 1.990 1_565 S
N47 C44 1.314 . S
N47 C45 1.279 . S
C48 C45 1.358 . S
C48 C49 1.356 . S
C48 H85 0.930 . S
C49 C46 1.348 . S
C49 C48 1.356 . S
H50 C44 0.930 1_545 S
H51 C45 0.930 . S
C52 N53 1.314 . S
C52 C54 1.353 . S
C52 H58 0.930 1_565 S
N53 Li3 1.990 1_665 S
N53 C52 1.314 . S
N53 C56 1.279 . S
C54 C52 1.353 . S
C54 C57 1.348 . S
C54 H86 0.929 . S
C55 C56 1.358 . S
C55 C57 1.356 . S
C55 H87 0.930 . S
C56 N53 1.279 . S
C56 C55 1.358 . S
C56 H59 0.930 . S
C57 C54 1.348 . S
C57 C55 1.356 . S
H58 C52 0.930 1_545 S
H59 C56 0.930 . S
O60 Li0 1.956 . S
O60 Li1 1.970 . S
O60 Li2 1.961 . S
O60 C4 1.325 . S
O61 Li0 1.970 . S
O61 Li1 1.956 . S
O61 Li3 1.961 . S
O61 C10 1.325 . S
O62 Li0 1.961 . S
O62 Li2 1.956 . S
O62 Li3 1.970 . S
O62 C32 1.325 1_545 S
O63 Li1 1.961 . S
O63 Li2 1.970 . S
O63 Li3 1.956 . S
O63 C38 1.325 1_445 S
H64 C6 0.929 . S
H65 C7 0.930 . S
H66 C8 0.930 . S
H67 C9 0.930 . S
H68 C11 0.930 . S
H69 C13 0.929 . S
H70 C14 0.930 . S
H71 C15 0.930 . S
H72 C18 0.930 . S
H73 C21 0.929 . S
H74 C26 0.929 1_655 S
H75 C27 0.930 . S
H76 C34 0.929 . S
H77 C35 0.930 1_545 S
H78 C36 0.930 . S
H79 C37 0.930 . S
H80 C39 0.929 . S
H81 C40 0.930 1_545 S
H82 C41 0.930 . S
H83 C42 0.930 . S
H84 C46 0.929 . S
H85 C48 0.930 . S
H86 C54 0.929 . S
H87 C55 0.930 . S
Li88 N105 1.990 . S
Li88 O148 1.956 . S
Li88 O149 1.970 1_565 S
Li88 O150 1.961 1_465 S
Li89 N113 1.990 . S
Li89 O148 1.970 1_545 S
Li89 O149 1.956 . S
Li89 O151 1.961 . S
Li90 N135 1.990 1_445 S
Li90 O148 1.961 1_545 S
Li90 O150 1.956 1_455 S
Li90 O151 1.970 . S
Li91 N141 1.990 . S
Li91 O149 1.961 . S
Li91 O150 1.970 1_455 S
Li91 O151 1.956 . S
C92 C94 1.348 . S
C92 C95 1.356 1_455 S
C92 O148 1.325 . S
N93 C96 1.314 . S
N93 C97 1.279 1_455 S
C94 C92 1.348 . S
C94 C96 1.353 . S
C94 H152 0.929 . S
C95 C92 1.356 1_655 S
C95 C97 1.358 . S
C95 H153 0.930 . S
C96 N93 1.314 . S
C96 C94 1.353 . S
C96 H154 0.930 . S
C97 N93 1.279 1_655 S
C97 C95 1.358 . S
C97 H155 0.930 . S
C98 C101 1.348 . S
C98 C102 1.356 . S
C98 O149 1.325 . S
C99 N100 1.279 . S
C99 C102 1.358 . S
C99 H156 0.930 . S
N100 C99 1.279 . S
N100 C103 1.314 . S
C101 C98 1.348 . S
C101 C103 1.353 . S
C101 H157 0.929 1_545 S
C102 C98 1.356 . S
C102 C99 1.358 . S
C102 H158 0.930 . S
C103 N100 1.314 . S
C103 C101 1.353 . S
C103 H159 0.930 1_545 S
C104 N105 1.314 . S
C104 C109 1.353 1_455 S
C104 H110 0.930 . S
N105 Li88 1.990 . S
N105 C104 1.314 . S
N105 C107 1.279 . S
C106 C107 1.358 . S
C106 C108 1.356 1_455 S
C106 H160 0.930 . S
C107 N105 1.279 . S
C107 C106 1.358 . S
C107 H111 0.930 . S
C108 C106 1.356 1_655 S
C108 C109 1.348 . S
C109 C104 1.353 1_655 S
C109 C108 1.348 . S
C109 H161 0.929 . S
H110 C104 0.930 . S
H111 C107 0.930 . S
C112 N113 1.314 . S
C112 C114 1.353 . S
C112 H118 0.930 . S
N113 Li89 1.990 . S
N113 C112 1.314 . S
N113 C116 1.279 . S
C114 C112 1.353 . S
C114 C117 1.348 . S
C114 H162 0.929 . S
C115 C116 1.358 . S
C115 C117 1.356 . S
C115 H163 0.930 . S
C116 N113 1.279 . S
C116 C115 1.358 . S
C116 H119 0.930 . S
C117 C114 1.348 . S
C117 C115 1.356 . S
H118 C112 0.930 . S
H119 C116 0.930 . S
C120 C122 1.348 1_565 S
C120 C123 1.356 . S
C120 O150 1.325 1_565 S
N121 C124 1.314 1_565 S
N121 C125 1.279 . S
C122 C120 1.348 1_545 S
C122 C124 1.353 . S
C122 H164 0.929 . S
C123 C120 1.356 . S
C123 C125 1.358 . S
C123 H165 0.930 . S
C124 N121 1.314 1_545 S
C124 C122 1.353 . S
C124 H166 0.930 . S
C125 N121 1.279 . S
C125 C123 1.358 . S
C125 H167 0.930 . S
C126 C127 1.348 . S
C126 C128 1.356 . S
C126 O151 1.325 . S
C127 C126 1.348 . S
C127 C129 1.353 . S
C127 H168 0.929 . S
C128 C126 1.356 . S
C128 C130 1.358 . S
C128 H169 0.930 . S
C129 C127 1.353 . S
C129 N131 1.314 . S
C129 H170 0.930 . S
C130 C128 1.358 . S
C130 N131 1.279 . S
C130 H171 0.930 . S
N131 C129 1.314 . S
N131 C130 1.279 . S
C132 C134 1.353 . S
C132 N135 1.314 . S
C132 H138 0.930 . S
C133 N135 1.279 . S
C133 C136 1.358 . S
C133 H139 0.930 . S
C134 C132 1.353 . S
C134 C137 1.348 . S
C134 H172 0.929 . S
N135 Li90 1.990 1_665 S
N135 C132 1.314 . S
N135 C133 1.279 . S
C136 C133 1.358 . S
C136 C137 1.356 . S
C136 H173 0.930 . S
C137 C134 1.348 . S
C137 C136 1.356 . S
H138 C132 0.930 . S
H139 C133 0.930 . S
C140 N141 1.314 . S
C140 C142 1.353 . S
C140 H146 0.930 . S
N141 Li91 1.990 . S
N141 C140 1.314 . S
N141 C144 1.279 . S
C142 C140 1.353 . S
C142 C145 1.348 . S
C142 H174 0.929 . S
C143 C144 1.358 . S
C143 C145 1.356 . S
C143 H175 0.930 . S
C144 N141 1.279 . S
C144 C143 1.358 . S
C144 H147 0.930 . S
C145 C142 1.348 . S
C145 C143 1.356 . S
H146 C140 0.930 . S
H147 C144 0.930 . S
O148 Li88 1.956 . S
O148 Li89 1.970 1_565 S
O148 Li90 1.961 1_565 S
O148 C92 1.325 . S
O149 Li88 1.970 1_545 S
O149 Li89 1.956 . S
O149 Li91 1.961 . S
O149 C98 1.325 . S
O150 Li88 1.961 1_645 S
O150 Li90 1.956 1_655 S
O150 Li91 1.970 1_655 S
O150 C120 1.325 1_545 S
O151 Li89 1.961 . S
O151 Li90 1.970 . S
O151 Li91 1.956 . S
O151 C126 1.325 . S
H152 C94 0.929 . S
H153 C95 0.930 . S
H154 C96 0.930 . S
H155 C97 0.930 . S
H156 C99 0.930 . S
H157 C101 0.929 1_565 S
H158 C102 0.930 . S
H159 C103 0.930 1_565 S
H160 C106 0.930 . S
H161 C109 0.929 . S
H162 C114 0.929 . S
H163 C115 0.930 . S
H164 C122 0.929 . S
H165 C123 0.930 . S
H166 C124 0.930 . S
H167 C125 0.930 . S
H168 C127 0.929 . S
H169 C128 0.930 . S
H170 C129 0.930 . S
H171 C130 0.930 . S
H172 C134 0.929 . S
H173 C136 0.930 . S
H174 C142 0.929 . S
H175 C143 0.930 . S
Li176 N193 1.990 . S
Li176 O236 1.956 . S
Li176 O237 1.970 . S
Li176 O238 1.961 . S
Li177 N201 1.990 . S
Li177 O236 1.970 . S
Li177 O237 1.956 . S
Li177 O239 1.961 . S
Li178 N223 1.990 1_545 S
Li178 O236 1.961 . S
Li178 O238 1.956 . S
Li178 O239 1.970 . S
Li179 N229 1.990 . S
Li179 O237 1.961 . S
Li179 O238 1.970 . S
Li179 O239 1.956 . S
C180 C182 1.348 . S
C180 C183 1.356 . S
C180 O236 1.325 . S
N181 C184 1.314 . S
N181 C185 1.279 . S
C182 C180 1.348 . S
C182 C184 1.353 . S
C182 H240 0.929 . S
C183 C180 1.356 . S
C183 C185 1.358 . S
C183 H241 0.930 1_545 S
C184 N181 1.314 . S
C184 C182 1.353 . S
C184 H242 0.930 . S
C185 N181 1.279 . S
C185 C183 1.358 . S
C185 H243 0.930 1_545 S
C186 C189 1.348 . S
C186 C190 1.356 . S
C186 O237 1.325 . S
C187 N188 1.279 . S
C187 C190 1.358 . S
C187 H244 0.930 . S
N188 C187 1.279 . S
N188 C191 1.314 . S
C189 C186 1.348 . S
C189 C191 1.353 . S
C189 H245 0.929 . S
C190 C186 1.356 . S
C190 C187 1.358 . S
C190 H246 0.930 . S
C191 N188 1.314 . S
C191 C189 1.353 . S
C191 H247 0.930 . S
C192 N193 1.314 . S
C192 C197 1.353 . S
C192 H198 0.930 . S
N193 Li176 1.990 . S
N193 C192 1.314 . S
N193 C195 1.279 . S
C194 C195 1.358 . S
C194 C196 1.356 . S
C194 H248 0.930 . S
C195 N193 1.279 . S
C195 C194 1.358 . S
C195 H199 0.930 . S
C196 C194 1.356 . S
C196 C197 1.348 . S
C197 C192 1.353 . S
C197 C196 1.348 . S
C197 H249 0.929 . S
H198 C192 0.930 . S
H199 C195 0.930 . S
C200 N201 1.314 . S
C200 C202 1.353 . S
C200 H206 0.930 . S
N201 Li177 1.990 . S
N201 C200 1.314 . S
N201 C204 1.279 . S
C202 C200 1.353 . S
C202 C205 1.348 . S
C202 H250 0.929 . S
C203 C204 1.358 . S
C203 C205 1.356 . S
C203 H251 0.930 . S
C204 N201 1.279 . S
C204 C203 1.358 . S
C204 H207 0.930 . S
C205 C202 1.348 . S
C205 C203 1.356 . S
H206 C200 0.930 . S
H207 C204 0.930 . S
C208 C210 1.348 . S
C208 C211 1.356 . S
C208 O238 1.325 1_565 S
N209 C212 1.314 . S
N209 C213 1.279 1_655 S
C210 C208 1.348 . S
C210 C212 1.353 1_455 S
C210 H252 0.929 1_465 S
C211 C208 1.356 . S
C211 C213 1.358 . S
C211 H253 0.930 . S
C212 N209 1.314 . S
C212 C210 1.353 1_655 S
C212 H254 0.930 . S
C213 N209 1.279 1_455 S
C213 C211 1.358 . S
C213 H255 0.930 . S
C214 C215 1.348 . S
C214 C216 1.356 . S
C214 O239 1.325 . S
C215 C214 1.348 . S
C215 C217 1.353 1_455 S
C215 H256 0.929 1_455 S
C216 C214 1.356 . S
C216 C218 1.358 . S
C216 H257 0.930 . S
C217 C215 1.353 1_655 S
C217 N219 1.314 . S
C217 H258 0.930 . S
C218 C216 1.358 . S
C218 N219 1.279 1_455 S
C218 H259 0.930 . S
N219 C217 1.314 . S
N219 C218 1.279 1_655 S
C220 C222 1.353 . S
C220 N223 1.314 . S
C220 H226 0.935 . S
C221 N223 1.279 1_655 S
C221 C224 1.358 . S
C221 H227 0.930 . S
C222 C220 1.353 . S
C222 C225 1.348 1_455 S
C222 H260 0.929 . S
N223 Li178 1.990 1_565 S
N223 C220 1.314 . S
N223 C221 1.279 1_455 S
C224 C221 1.358 . S
C224 C225 1.356 . S
C224 H261 0.930 . S
C225 C222 1.348 1_655 S
C225 C224 1.356 . S
H226 C220 0.935 . S
H227 C221 0.930 . S
C228 N229 1.314 . S
C228 C230 1.353 . S
C228 H234 0.930 . S
N229 Li179 1.990 . S
N229 C228 1.314 . S
N229 C232 1.279 1_455 S
C230 C228 1.353 . S
C230 C233 1.348 1_455 S
C230 H262 0.929 . S
C231 C232 1.358 . S
C231 C233 1.356 . S
C231 H263 0.930 . S
C232 N229 1.279 1_655 S
C232 C231 1.358 . S
C232 H235 0.930 . S
C233 C230 1.348 1_655 S
C233 C231 1.356 . S
H234 C228 0.930 . S
H235 C232 0.930 . S
O236 Li176 1.956 . S
O236 Li177 1.970 . S
O236 Li178 1.961 . S
O236 C180 1.325 . S
O237 Li176 1.970 . S
O237 Li177 1.956 . S
O237 Li179 1.961 . S
O237 C186 1.325 . S
O238 Li176 1.961 . S
O238 Li178 1.956 . S
O238 Li179 1.970 . S
O238 C208 1.325 1_545 S
O239 Li177 1.961 . S
O239 Li178 1.970 . S
O239 Li179 1.956 . S
O239 C214 1.325 . S
H240 C182 0.929 . S
H241 C183 0.930 1_565 S
H242 C184 0.930 . S
H243 C185 0.930 1_565 S
H244 C187 0.930 . S
H245 C189 0.929 . S
H246 C190 0.930 . S
H247 C191 0.930 . S
H248 C194 0.930 . S
H249 C197 0.929 . S
H250 C202 0.929 . S
H251 C203 0.930 . S
H252 C210 0.929 1_645 S
H253 C211 0.930 . S
H254 C212 0.930 . S
H255 C213 0.930 . S
H256 C215 0.929 1_655 S
H257 C216 0.930 . S
H258 C217 0.930 . S
H259 C218 0.930 . S
H260 C222 0.929 . S
H261 C224 0.930 . S
H262 C230 0.929 . S
H263 C231 0.930 . S
H264 O290 0.856 . S
H265 O293 0.854 . S
H266 C301 0.930 1_655 S
H267 C302 0.930 1_655 S
H268 C304 0.930 . S
H269 C305 0.930 . S
H270 C307 0.931 . S
H271 C308 0.930 . S
H272 C310 0.930 . S
H273 C311 0.929 . S
H274 C313 0.929 . S
H275 C314 0.931 . S
H276 C316 0.930 . S
H277 C317 0.929 . S
H278 C319 0.931 1_655 S
H279 C320 0.914 1_655 S
H280 C322 0.930 . S
H281 C323 0.932 . S
H282 C325 0.930 1_655 S
H283 C326 0.928 . S
H284 C328 0.931 . S
H285 C329 0.930 . S
H286 C331 0.929 1_655 S
H287 C332 0.931 1_655 S
H288 C334 0.930 . S
H289 C335 0.929 . S
O290 H264 0.856 . S
O290 C336 1.300 . S
O291 C336 1.209 . S
O292 C337 1.199 . S
O293 H265 0.854 . S
O293 C337 1.297 . S
C294 C295 1.404 . S
C294 C299 1.397 . S
C294 C300 1.492 . S
C295 C294 1.404 . S
C295 C296 1.396 . S
C295 C306 1.492 . S
C296 C295 1.396 . S
C296 C297 1.397 . S
C296 C312 1.509 . S
C297 C296 1.397 . S
C297 C298 1.412 . S
C297 C318 1.485 . S
C298 C297 1.412 . S
C298 C299 1.388 . S
C298 C324 1.490 . S
C299 C294 1.397 . S
C299 C298 1.388 . S
C299 C330 1.519 . S
C300 C294 1.492 . S
C300 C301 1.363 . S
C300 C305 1.390 . S
C301 H266 0.930 1_455 S
C301 C300 1.363 . S
C301 C302 1.372 . S
C302 H267 0.930 1_455 S
C302 C301 1.372 . S
C302 C303 1.383 . S
C303 C302 1.383 . S
C303 C304 1.395 . S
C304 H268 0.930 . S
C304 C303 1.395 . S
C304 C305 1.362 . S
C305 H269 0.930 . S
C305 C300 1.390 . S
C305 C304 1.362 . S
C306 C295 1.492 . S
C306 C307 1.377 . S
C306 C311 1.397 . S
C307 H270 0.931 . S
C307 C306 1.377 . S
C307 C308 1.376 . S
C308 H271 0.930 . S
C308 C307 1.376 . S
C308 C309 1.376 . S
C309 C308 1.376 . S
C309 C310 1.378 . S
C309 C336 1.486 . S
C310 H272 0.930 . S
C310 C309 1.378 . S
C310 C311 1.376 . S
C311 H273 0.929 . S
C311 C306 1.397 . S
C311 C310 1.376 . S
C312 C296 1.509 . S
C312 C313 1.391 . S
C312 C317 1.386 . S
C313 H274 0.929 . S
C313 C312 1.391 . S
C313 C314 1.375 . S
C314 H275 0.931 . S
C314 C313 1.375 . S
C314 C315 1.375 . S
C315 C314 1.375 . S
C315 C316 1.361 . S
C316 H276 0.930 . S
C316 C315 1.361 . S
C316 C317 1.399 . S
C317 H277 0.929 . S
C317 C312 1.386 . S
C317 C316 1.399 . S
C318 C297 1.485 . S
C318 C319 1.394 . S
C318 C323 1.360 . S
C319 H278 0.931 1_455 S
C319 C318 1.394 . S
C319 C320 1.372 . S
C320 H279 0.914 1_455 S
C320 C319 1.372 . S
C320 C321 1.397 . S
C321 C320 1.397 . S
C321 C322 1.390 . S
C321 C337 1.476 . S
C322 H280 0.930 . S
C322 C321 1.390 . S
C322 C323 1.366 . S
C323 H281 0.932 . S
C323 C318 1.360 . S
C323 C322 1.366 . S
C324 C298 1.490 . S
C324 C325 1.380 . S
C324 C329 1.386 . S
C325 H282 0.930 1_455 S
C325 C324 1.380 . S
C325 C326 1.381 1_455 S
C326 H283 0.928 . S
C326 C325 1.381 1_655 S
C326 C327 1.372 1_655 S
C327 C326 1.372 1_455 S
C327 C328 1.380 . S
C328 H284 0.931 . S
C328 C327 1.380 . S
C328 C329 1.387 . S
C329 H285 0.930 . S
C329 C324 1.386 . S
C329 C328 1.387 . S
C330 C299 1.519 . S
C330 C331 1.377 . S
C330 C335 1.361 . S
C331 H286 0.929 1_455 S
C331 C330 1.377 . S
C331 C332 1.386 . S
C332 H287 0.931 1_455 S
C332 C331 1.386 . S
C332 C333 1.363 . S
C333 C332 1.363 . S
C333 C334 1.385 . S
C334 H288 0.930 . S
C334 C333 1.385 . S
C334 C335 1.396 . S
C335 H289 0.929 . S
C335 C330 1.361 . S
C335 C334 1.396 . S
C336 O290 1.300 . S
C336 O291 1.209 . S
C336 C309 1.486 . S
C337 O292 1.199 . S
C337 O293 1.297 . S
C337 C321 1.476 . S
H338 O364 0.856 . S
H339 O367 0.854 . S
H340 C375 0.930 1_565 S
H341 C376 0.930 1_565 S
H342 C378 0.930 . S
H343 C379 0.930 . S
H344 C381 0.931 . S
H345 C382 0.932 . S
H346 C384 0.930 . S
H347 C385 0.929 . S
H348 C387 0.930 . S
H349 C388 0.931 . S
H350 C390 0.930 . S
H351 C391 0.929 . S
H352 C393 0.931 . S
H353 C394 0.930 . S
H354 C396 0.930 . S
H355 C397 0.932 . S
H356 C399 0.930 1_565 S
H357 C400 0.929 1_565 S
H358 C402 0.931 . S
H359 C403 0.930 . S
H360 C405 0.929 . S
H361 C406 0.931 . S
H362 C408 0.930 . S
H363 C409 0.929 . S
O364 H338 0.856 . S
O364 C410 1.300 . S
O365 C410 1.209 . S
O366 C411 1.199 . S
O367 H339 0.854 . S
O367 C411 1.297 . S
C368 C369 1.404 . S
C368 C373 1.397 . S
C368 C374 1.492 . S
C369 C368 1.404 . S
C369 C370 1.396 . S
C369 C380 1.492 . S
C370 C369 1.396 . S
C370 C371 1.397 . S
C370 C386 1.509 . S
C371 C370 1.397 . S
C371 C372 1.412 . S
C371 C392 1.485 . S
C372 C371 1.412 . S
C372 C373 1.388 . S
C372 C398 1.490 . S
C373 C368 1.397 . S
C373 C372 1.388 . S
C373 C404 1.519 . S
C374 C368 1.492 . S
C374 C375 1.363 . S
C374 C379 1.390 . S
C375 H340 0.930 1_545 S
C375 C374 1.363 . S
C375 C376 1.372 . S
C376 H341 0.930 1_545 S
C376 C375 1.372 . S
C376 C377 1.383 . S
C377 C376 1.383 . S
C377 C378 1.395 . S
C378 H342 0.930 . S
C378 C377 1.395 . S
C378 C379 1.362 . S
C379 H343 0.930 . S
C379 C374 1.390 . S
C379 C378 1.362 . S
C380 C369 1.492 . S
C380 C381 1.377 . S
C380 C385 1.397 . S
C381 H344 0.931 . S
C381 C380 1.377 . S
C381 C382 1.376 . S
C382 H345 0.932 . S
C382 C381 1.376 . S
C382 C383 1.376 . S
C383 C382 1.376 . S
C383 C384 1.378 . S
C383 C410 1.486 . S
C384 H346 0.930 . S
C384 C383 1.378 . S
C384 C385 1.376 . S
C385 H347 0.929 . S
C385 C380 1.397 . S
C385 C384 1.376 . S
C386 C370 1.509 . S
C386 C387 1.391 . S
C386 C391 1.386 . S
C387 H348 0.930 . S
C387 C386 1.391 . S
C387 C388 1.375 . S
C388 H349 0.931 . S
C388 C387 1.375 . S
C388 C389 1.375 . S
C389 C388 1.375 . S
C389 C390 1.361 . S
C390 H350 0.930 . S
C390 C389 1.361 . S
C390 C391 1.399 . S
C391 H351 0.929 . S
C391 C386 1.386 . S
C391 C390 1.399 . S
C392 C371 1.485 . S
C392 C393 1.394 . S
C392 C397 1.360 . S
C393 H352 0.931 . S
C393 C392 1.394 . S
C393 C394 1.372 . S
C394 H353 0.930 . S
C394 C393 1.372 . S
C394 C395 1.397 . S
C395 C394 1.397 . S
C395 C396 1.390 . S
C395 C411 1.476 . S
C396 H354 0.930 . S
C396 C395 1.390 . S
C396 C397 1.366 . S
C397 H355 0.932 . S
C397 C392 1.360 . S
C397 C396 1.366 . S
C398 C372 1.490 . S
C398 C399 1.380 . S
C398 C403 1.386 . S
C399 H356 0.930 1_545 S
C399 C398 1.380 . S
C399 C400 1.381 . S
C400 H357 0.929 1_545 S
C400 C399 1.381 . S
C400 C401 1.371 . S
C401 C400 1.371 . S
C401 C402 1.380 . S
C402 H358 0.931 . S
C402 C401 1.380 . S
C402 C403 1.387 . S
C403 H359 0.930 . S
C403 C398 1.386 . S
C403 C402 1.387 . S
C404 C373 1.519 . S
C404 C405 1.377 . S
C404 C409 1.361 . S
C405 H360 0.929 . S
C405 C404 1.377 . S
C405 C406 1.386 . S
C406 H361 0.931 . S
C406 C405 1.386 . S
C406 C407 1.363 . S
C407 C406 1.363 . S
C407 C408 1.385 . S
C408 H362 0.930 . S
C408 C407 1.385 . S
C408 C409 1.396 . S
C409 H363 0.929 . S
C409 C404 1.361 . S
C409 C408 1.396 . S
C410 O364 1.300 . S
C410 O365 1.209 . S
C410 C383 1.486 . S
C411 O366 1.199 . S
C411 O367 1.297 . S
C411 C395 1.476 . S
H412 O438 0.856 . S
H413 O441 0.854 . S
H414 C449 0.930 . S
H415 C450 0.930 . S
H416 C452 0.930 . S
H417 C453 0.930 . S
H418 C455 0.931 . S
H419 C456 0.930 . S
H420 C458 0.930 . S
H421 C459 0.929 . S
H422 C461 0.930 . S
H423 C462 0.931 . S
H424 C464 0.930 . S
H425 C465 0.929 . S
H426 C467 0.931 . S
H427 C468 0.930 . S
H428 C470 0.930 . S
H429 C471 0.932 . S
H430 C473 0.930 . S
H431 C474 0.929 . S
H432 C476 0.931 . S
H433 C477 0.930 . S
H434 C479 0.929 . S
H435 C480 0.931 . S
H436 C482 0.930 . S
H437 C483 0.929 . S
O438 H412 0.856 . S
O438 C484 1.300 1_554 S
O439 C484 1.209 . S
O440 C485 1.199 . S
O441 H413 0.854 . S
O441 C485 1.297 . S
C442 C443 1.404 . S
C442 C447 1.397 . S
C442 C448 1.492 . S
C443 C442 1.404 . S
C443 C444 1.396 . S
C443 C454 1.492 . S
C444 C443 1.396 . S
C444 C445 1.397 . S
C444 C460 1.509 . S
C445 C444 1.397 . S
C445 C446 1.412 . S
C445 C466 1.485 . S
C446 C445 1.412 . S
C446 C447 1.388 . S
C446 C472 1.490 . S
C447 C442 1.397 . S
C447 C446 1.388 . S
C447 C478 1.519 . S
C448 C442 1.492 . S
C448 C449 1.363 . S
C448 C453 1.390 . S
C449 H414 0.930 . S
C449 C448 1.363 . S
C449 C450 1.372 . S
C450 H415 0.930 . S
C450 C449 1.372 . S
C450 C451 1.383 . S
C451 C450 1.383 . S
C451 C452 1.395 . S
C452 H416 0.930 . S
C452 C451 1.395 . S
C452 C453 1.362 . S
C453 H417 0.930 . S
C453 C448 1.390 . S
C453 C452 1.362 . S
C454 C443 1.492 . S
C454 C455 1.377 . S
C454 C459 1.397 . S
C455 H418 0.931 . S
C455 C454 1.377 . S
C455 C456 1.376 . S
C456 H419 0.930 . S
C456 C455 1.376 . S
C456 C457 1.376 . S
C457 C456 1.376 . S
C457 C458 1.378 . S
C457 C484 1.486 . S
C458 H420 0.930 . S
C458 C457 1.378 . S
C458 C459 1.376 . S
C459 H421 0.929 . S
C459 C454 1.397 . S
C459 C458 1.376 . S
C460 C444 1.509 . S
C460 C461 1.391 . S
C460 C465 1.386 . S
C461 H422 0.930 . S
C461 C460 1.391 . S
C461 C462 1.375 . S
C462 H423 0.931 . S
C462 C461 1.375 . S
C462 C463 1.375 . S
C463 C462 1.375 . S
C463 C464 1.361 . S
C464 H424 0.930 . S
C464 C463 1.361 . S
C464 C465 1.399 . S
C465 H425 0.929 . S
C465 C460 1.386 . S
C465 C464 1.399 . S
C466 C445 1.485 . S
C466 C467 1.394 . S
C466 C471 1.360 . S
C467 H426 0.931 . S
C467 C466 1.394 . S
C467 C468 1.372 . S
C468 H427 0.930 . S
C468 C467 1.372 . S
C468 C469 1.397 . S
C469 C468 1.397 . S
C469 C470 1.390 . S
C469 C485 1.476 . S
C470 H428 0.930 . S
C470 C469 1.390 . S
C470 C471 1.366 . S
C471 H429 0.932 . S
C471 C466 1.360 . S
C471 C470 1.366 . S
C472 C446 1.490 . S
C472 C473 1.380 . S
C472 C477 1.386 . S
C473 H430 0.930 . S
C473 C472 1.380 . S
C473 C474 1.381 . S
C474 H431 0.929 . S
C474 C473 1.381 . S
C474 C475 1.371 . S
C475 C474 1.371 . S
C475 C476 1.380 . S
C476 H432 0.931 . S
C476 C475 1.380 . S
C476 C477 1.387 . S
C477 H433 0.930 . S
C477 C472 1.386 . S
C477 C476 1.387 . S
C478 C447 1.519 . S
C478 C479 1.377 . S
C478 C483 1.361 . S
C479 H434 0.929 . S
C479 C478 1.377 . S
C479 C480 1.386 . S
C480 H435 0.931 . S
C480 C479 1.386 . S
C480 C481 1.363 . S
C481 C480 1.363 . S
C481 C482 1.385 . S
C482 H436 0.930 . S
C482 C481 1.385 . S
C482 C483 1.396 . S
C483 H437 0.929 . S
C483 C478 1.361 . S
C483 C482 1.396 . S
C484 O438 1.300 1_556 S
C484 O439 1.209 . S
C484 C457 1.486 . S
C485 O440 1.199 . S
C485 O441 1.297 . S
C485 C469 1.476 . S
H486 C494 0.950 . S
H487 C499 0.950 . S
H488 C496 0.950 . S
H489 C498 0.950 . S
H490 C500 0.950 . S
H491 C502 0.950 . S
H492 C504 0.950 . S
H493 C505 0.950 . S
C494 H486 0.950 . S
C494 C495 1.386 . S
C494 C496 1.391 . S
C495 C494 1.386 . S
C495 C499 1.393 1_455 S
C496 H488 0.950 . S
C496 C494 1.391 . S
C496 C497 1.400 . S
C497 C496 1.400 . S
C497 C498 1.398 1_455 S
C497 C503 1.491 . S
C498 H489 0.950 . S
C498 C497 1.398 1_655 S
C498 C499 1.391 . S
C499 H487 0.950 . S
C499 C495 1.393 1_655 S
C499 C498 1.391 . S
C500 H490 0.950 . S
C500 C501 1.386 1_655 S
C500 C502 1.391 . S
C501 C500 1.386 1_455 S
C501 C505 1.393 . S
C502 H491 0.950 . S
C502 C500 1.391 . S
C502 C503 1.400 1_655 S
C503 C497 1.491 . S
C503 C502 1.400 1_455 S
C503 C504 1.398 . S
C504 H492 0.950 . S
C504 C503 1.398 . S
C504 C505 1.391 . S
C505 H493 0.950 . S
C505 C501 1.393 . S
C505 C504 1.391 . S
H506 C514 0.950 . S
H507 C519 0.950 1_545 S
H508 C516 0.950 . S
H509 C518 0.950 . S
H510 C520 0.950 . S
H511 C522 0.950 . S
H512 C524 0.950 1_565 S
H513 C525 0.950 . S
C514 H506 0.950 . S
C514 C515 1.386 . S
C514 C516 1.391 . S
C515 C514 1.386 . S
C515 C519 1.393 . S
C516 H508 0.950 . S
C516 C514 1.391 . S
C516 C517 1.400 . S
C517 C516 1.400 . S
C517 C518 1.398 1_565 S
C517 C523 1.491 1_565 S
C518 H509 0.950 . S
C518 C517 1.398 1_545 S
C518 C519 1.391 1_545 S
C519 H507 0.950 1_565 S
C519 C515 1.393 . S
C519 C518 1.391 1_565 S
C520 H510 0.950 . S
C520 C521 1.386 . S
C520 C522 1.391 . S
C521 C520 1.386 . S
C521 C525 1.393 . S
C522 H511 0.950 . S
C522 C520 1.391 . S
C522 C523 1.400 . S
C523 C517 1.491 1_545 S
C523 C522 1.400 . S
C523 C524 1.398 . S
C524 H512 0.950 1_545 S
C524 C523 1.398 . S
C524 C525 1.391 . S
C525 H513 0.950 . S
C525 C521 1.393 . S
C525 C524 1.391 . S
H526 C534 0.950 . S
H527 C539 0.950 . S
H528 C536 0.950 . S
H529 C538 0.950 . S
H530 C540 0.950 . S
H531 C542 0.950 . S
H532 C544 0.950 . S
H533 C545 0.950 . S
C534 H526 0.950 . S
C534 C535 1.386 . S
C534 C536 1.391 . S
C535 C534 1.386 . S
C535 C539 1.393 . S
C536 H528 0.950 . S
C536 C534 1.391 . S
C536 C537 1.400 . S
C537 C536 1.400 . S
C537 C538 1.398 . S
C537 C543 1.491 . S
C538 H529 0.950 . S
C538 C537 1.398 . S
C538 C539 1.391 . S
C539 H527 0.950 . S
C539 C535 1.393 . S
C539 C538 1.391 . S
C540 H530 0.950 . S
C540 C541 1.386 . S
C540 C542 1.391 . S
C541 C540 1.386 . S
C541 C545 1.393 . S
C542 H531 0.950 . S
C542 C540 1.391 . S
C542 C543 1.400 . S
C543 C537 1.491 . S
C543 C542 1.400 . S
C543 C544 1.398 . S
C544 H532 0.950 . S
C544 C543 1.398 . S
C544 C545 1.391 . S
C545 H533 0.950 . S
C545 C541 1.393 . S
C545 C544 1.391 . S
H546 C554 0.950 . S
H547 C559 0.950 . S
H548 C556 0.950 . S
H549 C558 0.950 . S
H550 C560 0.950 . S
H551 C562 0.950 . S
H552 C564 0.950 . S
H553 C565 0.950 . S
C554 H546 0.950 . S
C554 C555 1.386 . S
C554 C556 1.391 . S
C555 C554 1.386 . S
C555 C559 1.393 . S
C556 H548 0.950 . S
C556 C554 1.391 . S
C556 C557 1.400 . S
C557 C556 1.400 . S
C557 C558 1.398 . S
C557 C563 1.491 . S
C558 H549 0.950 . S
C558 C557 1.398 . S
C558 C559 1.391 . S
C559 H547 0.950 . S
C559 C555 1.393 . S
C559 C558 1.391 . S
C560 H550 0.950 . S
C560 C561 1.386 . S
C560 C562 1.391 . S
C561 C560 1.386 . S
C561 C565 1.393 . S
C562 H551 0.950 . S
C562 C560 1.391 . S
C562 C563 1.400 . S
C563 C557 1.491 . S
C563 C562 1.400 . S
C563 C564 1.398 . S
C564 H552 0.950 . S
C564 C563 1.398 . S
C564 C565 1.391 . S
C565 H553 0.950 . S
C565 C561 1.393 . S
C565 C564 1.391 . S
H566 C574 0.950 . S
H567 C579 0.950 . S
H568 C576 0.950 . S
H569 C578 0.950 . S
H570 C580 0.950 . S
H571 C582 0.950 . S
H572 C584 0.950 . S
H573 C585 0.950 . S
C574 H566 0.950 . S
C574 C575 1.386 . S
C574 C576 1.391 . S
C575 C574 1.386 . S
C575 C579 1.393 . S
C576 H568 0.950 . S
C576 C574 1.391 . S
C576 C577 1.400 . S
C577 C576 1.400 . S
C577 C578 1.398 . S
C577 C583 1.491 . S
C578 H569 0.950 . S
C578 C577 1.398 . S
C578 C579 1.391 . S
C579 H567 0.950 . S
C579 C575 1.393 . S
C579 C578 1.391 . S
C580 H570 0.950 . S
C580 C581 1.386 . S
C580 C582 1.391 . S
C581 C580 1.386 . S
C581 C585 1.393 . S
C582 H571 0.950 . S
C582 C580 1.391 . S
C582 C583 1.400 . S
C583 C577 1.491 . S
C583 C582 1.400 . S
C583 C584 1.398 . S
C584 H572 0.950 . S
C584 C583 1.398 . S
C584 C585 1.391 . S
C585 H573 0.950 . S
C585 C581 1.393 . S
C585 C584 1.391 . S
H586 C594 0.950 . S
H587 C599 0.950 . S
H588 C596 0.950 . S
H589 C598 0.950 . S
H590 C600 0.950 . S
H591 C602 0.950 . S
H592 C604 0.950 . S
H593 C605 0.950 . S
C594 H586 0.950 . S
C594 C595 1.386 . S
C594 C596 1.391 . S
C595 C594 1.386 . S
C595 C599 1.393 . S
C596 H588 0.950 . S
C596 C594 1.391 . S
C596 C597 1.400 . S
C597 C596 1.400 . S
C597 C598 1.398 . S
C597 C603 1.491 . S
C598 H589 0.950 . S
C598 C597 1.398 . S
C598 C599 1.391 . S
C599 H587 0.950 . S
C599 C595 1.393 . S
C599 C598 1.391 . S
C600 H590 0.950 . S
C600 C601 1.386 . S
C600 C602 1.391 . S
C601 C600 1.386 . S
C601 C605 1.393 . S
C602 H591 0.950 . S
C602 C600 1.391 . S
C602 C603 1.400 . S
C603 C597 1.491 . S
C603 C602 1.400 . S
C603 C604 1.398 . S
C604 H592 0.950 . S
C604 C603 1.398 . S
C604 C605 1.391 . S
C605 H593 0.950 . S
C605 C601 1.393 . S
C605 C604 1.391 . S
H606 C614 0.950 . S
H607 C619 0.950 . S
H608 C616 0.950 . S
H609 C618 0.950 . S
H610 C620 0.950 . S
H611 C622 0.950 . S
H612 C624 0.950 . S
H613 C625 0.950 . S
C614 H606 0.950 . S
C614 C615 1.386 . S
C614 C616 1.391 . S
C615 C614 1.386 . S
C615 C619 1.393 . S
C616 H608 0.950 . S
C616 C614 1.391 . S
C616 C617 1.400 . S
C617 C616 1.400 . S
C617 C618 1.398 . S
C617 C623 1.491 . S
C618 H609 0.950 . S
C618 C617 1.398 . S
C618 C619 1.391 . S
C619 H607 0.950 . S
C619 C615 1.393 . S
C619 C618 1.391 . S
C620 H610 0.950 . S
C620 C621 1.386 . S
C620 C622 1.391 . S
C621 C620 1.386 . S
C621 C625 1.393 . S
C622 H611 0.950 . S
C622 C620 1.391 . S
C622 C623 1.400 . S
C623 C617 1.491 . S
C623 C622 1.400 . S
C623 C624 1.398 . S
C624 H612 0.950 . S
C624 C623 1.398 . S
C624 C625 1.391 . S
C625 H613 0.950 . S
C625 C621 1.393 . S
C625 C624 1.391 . S
H626 C634 0.961 . S
H627 C639 0.950 . S
H628 C636 0.950 . S
H629 C638 0.950 . S
H630 C640 0.950 . S
H631 C642 0.950 . S
H632 C644 0.950 . S
H633 C645 0.950 . S
C634 H626 0.961 . S
C634 C635 1.405 . S
C634 C636 1.361 1_554 S
C635 C634 1.405 . S
C635 C639 1.393 . S
C636 H628 0.950 . S
C636 C634 1.361 1_556 S
C636 C637 1.400 . S
C637 C636 1.400 . S
C637 C638 1.398 . S
C637 C643 1.491 . S
C638 H629 0.950 . S
C638 C637 1.398 . S
C638 C639 1.391 1_556 S
C639 H627 0.950 . S
C639 C635 1.393 . S
C639 C638 1.391 1_554 S
C640 H630 0.950 . S
C640 C641 1.386 . S
C640 C642 1.391 . S
C641 C640 1.386 . S
C641 C645 1.393 . S
C642 H631 0.950 . S
C642 C640 1.391 . S
C642 C643 1.400 . S
C643 C637 1.491 . S
C643 C642 1.400 . S
C643 C644 1.398 . S
C644 H632 0.950 . S
C644 C643 1.398 . S
C644 C645 1.391 . S
C645 H633 0.950 . S
C645 C641 1.393 . S
C645 C644 1.391 . S
H646 C654 0.950 . S
H647 C659 0.950 . S
H648 C656 0.950 . S
H649 C658 0.950 . S
H650 C660 0.950 . S
H651 C662 0.950 . S
H652 C664 0.950 1_655 S
H653 C665 0.950 . S
C654 H646 0.950 . S
C654 C655 1.386 . S
C654 C656 1.391 . S
C655 C654 1.386 . S
C655 C659 1.393 1_655 S
C656 H648 0.950 . S
C656 C654 1.391 . S
C656 C657 1.400 1_655 S
C657 C656 1.400 1_455 S
C657 C658 1.398 . S
C657 C663 1.491 . S
C658 H649 0.950 . S
C658 C657 1.398 . S
C658 C659 1.391 . S
C659 H647 0.950 . S
C659 C655 1.393 1_455 S
C659 C658 1.391 . S
C660 H650 0.950 . S
C660 C661 1.386 . S
C660 C662 1.391 . S
C661 C660 1.386 . S
C661 C665 1.393 . S
C662 H651 0.950 . S
C662 C660 1.391 . S
C662 C663 1.400 . S
C663 C657 1.491 . S
C663 C662 1.400 . S
C663 C664 1.398 . S
C664 H652 0.950 1_455 S
C664 C663 1.398 . S
C664 C665 1.391 . S
C665 H653 0.950 . S
C665 C661 1.393 . S
C665 C664 1.391 . S
H666 C674 0.950 . S
H667 C679 0.950 . S
H668 C676 0.950 . S
H669 C678 0.950 . S
H670 C680 0.950 1_565 S
H671 C682 0.950 1_565 S
H672 C684 0.950 . S
H673 C685 0.950 . S
C674 H666 0.950 . S
C674 C675 1.386 . S
C674 C676 1.391 . S
C675 C674 1.386 . S
C675 C679 1.393 1_545 S
C676 H668 0.950 . S
C676 C674 1.391 . S
C676 C677 1.400 . S
C677 C676 1.400 . S
C677 C678 1.398 1_545 S
C677 C683 1.491 . S
C678 H669 0.950 . S
C678 C677 1.398 1_565 S
C678 C679 1.391 . S
C679 H667 0.950 . S
C679 C675 1.393 1_565 S
C679 C678 1.391 . S
C680 H670 0.950 1_545 S
C680 C681 1.386 . S
C680 C682 1.391 . S
C681 C680 1.386 . S
C681 C685 1.393 . S
C682 H671 0.950 1_545 S
C682 C680 1.391 . S
C682 C683 1.400 . S
C683 C677 1.491 . S
C683 C682 1.400 . S
C683 C684 1.398 . S
C684 H672 0.950 . S
C684 C683 1.398 . S
C684 C685 1.391 . S
C685 H673 0.950 . S
C685 C681 1.393 . S
C685 C684 1.391 . S
H686 C694 0.950 . S
H687 C699 0.950 . S
H688 C696 0.950 . S
H689 C698 0.950 . S
H690 C700 0.950 . S
H691 C702 1.016 . S
H692 C704 0.950 . S
H693 C705 0.950 . S
C694 H686 0.950 . S
C694 C695 1.386 . S
C694 C696 1.391 1_554 S
C695 C694 1.386 . S
C695 C699 1.393 . S
C696 H688 0.950 . S
C696 C694 1.391 1_556 S
C696 C697 1.400 . S
C697 C696 1.400 . S
C697 C698 1.398 1_556 S
C697 C703 1.491 . S
C698 H689 0.950 . S
C698 C697 1.398 1_554 S
C698 C699 1.391 . S
C699 H687 0.950 . S
C699 C695 1.393 . S
C699 C698 1.391 . S
C700 H690 0.950 . S
C700 C701 1.386 . S
C700 C702 1.391 . S
C701 C700 1.386 . S
C701 C705 1.393 . S
C702 H691 1.016 . S
C702 C700 1.391 . S
C702 C703 1.400 . S
C703 C697 1.491 . S
C703 C702 1.400 . S
C703 C704 1.398 . S
C704 H692 0.950 . S
C704 C703 1.398 . S
C704 C705 1.391 . S
C705 H693 0.950 . S
C705 C701 1.393 . S
C705 C704 1.391 . S
H706 C714 0.950 . S
H707 C719 0.950 . S
H708 C716 0.950 . S
H709 C718 0.950 . S
H710 C720 0.950 . S
H711 C722 0.950 . S
H712 C724 0.950 . S
H713 C725 0.950 . S
C714 H706 0.950 . S
C714 C715 1.386 . S
C714 C716 1.391 . S
C715 C714 1.386 . S
C715 C719 1.393 . S
C716 H708 0.950 . S
C716 C714 1.391 . S
C716 C717 1.400 . S
C717 C716 1.400 . S
C717 C718 1.398 . S
C717 C723 1.491 . S
C718 H709 0.950 . S
C718 C717 1.398 . S
C718 C719 1.391 . S
C719 H707 0.950 . S
C719 C715 1.393 . S
C719 C718 1.391 . S
C720 H710 0.950 . S
C720 C721 1.386 . S
C720 C722 1.391 . S
C721 C720 1.386 . S
C721 C725 1.393 . S
C722 H711 0.950 . S
C722 C720 1.391 . S
C722 C723 1.400 . S
C723 C717 1.491 . S
C723 C722 1.400 . S
C723 C724 1.398 . S
C724 H712 0.950 . S
C724 C723 1.398 . S
C724 C725 1.391 . S
C725 H713 0.950 . S
C725 C721 1.393 . S
C725 C724 1.391 . S
C501 C303 1.367 . S
C495 C29 1.413 . S
C515 C137 1.415 . S
C521 C377 1.357 . S
C535 C225 2.158 . S
C541 C481 2.177 . S
C555 C49 0.653 . S
C561 C315 0.655 . S
C581 C389 0.613 . S
C575 C117 0.599 . S
C595 C205 1.340 . S
C601 C475 1.270 . S
C621 C407 2.183 . S
C615 C233 2.164 . S
C635 C57 1.416 . S
C641 C451 1.372 . S
C661 C327 1.334 . S
C655 C108 1.376 . S
C681 C401 1.275 . S
C675 C196 1.353 . S
C701 C463 0.658 . S
C695 C20 0.645 . S
C715 C145 2.164 . S
C721 C333 2.185 . S
