# Generated by pormake.
# Topology zzz, (3,6)-cn, num edge types: 1
# Building blocks:
#     Node 0, Type 0, BuildingBlock: QEWDON_clean_linker_0, # of connection points: 3
#     Node 1, Type 0, BuildingBlock: QEWDON_clean_linker_0, # of connection points: 3
#     Node 2, Type 0, BuildingBlock: QEWDON_clean_linker_0, # of connection points: 3
#     Node 3, Type 0, BuildingBlock: QEWDON_clean_linker_0, # of connection points: 3
#     Node 4, Type 0, BuildingBlock: QEWDON_clean_linker_0, # of connection points: 3
#     Node 5, Type 0, BuildingBlock: QEWDON_clean_linker_0, # of connection points: 3
#     Node 6, Type 0, BuildingBlock: QEWDON_clean_linker_0, # of connection points: 3
#     Node 7, Type 0, BuildingBlock: QEWDON_clean_linker_0, # of connection points: 3
#     Node 8, Type 1, BuildingBlock: KUMBUR_clean_sbu_1, # of connection points: 6
#     Node 9, Type 1, BuildingBlock: KUMBUR_clean_sbu_1, # of connection points: 6
#     Node 10, Type 1, BuildingBlock: KUMBUR_clean_sbu_1, # of connection points: 6
#     Node 11, Type 1, BuildingBlock: KUMBUR_clean_sbu_1, # of connection points: 6
#     Edge 12, Type (0, 1), BuildingBlock: XUDNAN_clean_linker_2, # of connection points: 2
#     Edge 13, Type (0, 1), BuildingBlock: XUDNAN_clean_linker_2, # of connection points: 2
#     Edge 14, Type (0, 1), BuildingBlock: XUDNAN_clean_linker_2, # of connection points: 2
#     Edge 15, Type (0, 1), BuildingBlock: XUDNAN_clean_linker_2, # of connection points: 2
#     Edge 16, Type (0, 1), BuildingBlock: XUDNAN_clean_linker_2, # of connection points: 2
#     Edge 17, Type (0, 1), BuildingBlock: XUDNAN_clean_linker_2, # of connection points: 2
#     Edge 18, Type (0, 1), BuildingBlock: XUDNAN_clean_linker_2, # of connection points: 2
#     Edge 19, Type (0, 1), BuildingBlock: XUDNAN_clean_linker_2, # of connection points: 2
#     Edge 20, Type (0, 1), BuildingBlock: XUDNAN_clean_linker_2, # of connection points: 2
#     Edge 21, Type (0, 1), BuildingBlock: XUDNAN_clean_linker_2, # of connection points: 2
#     Edge 22, Type (0, 1), BuildingBlock: XUDNAN_clean_linker_2, # of connection points: 2
#     Edge 23, Type (0, 1), BuildingBlock: XUDNAN_clean_linker_2, # of connection points: 2
#     Edge 24, Type (0, 1), BuildingBlock: XUDNAN_clean_linker_2, # of connection points: 2
#     Edge 25, Type (0, 1), BuildingBlock: XUDNAN_clean_linker_2, # of connection points: 2
#     Edge 26, Type (0, 1), BuildingBlock: XUDNAN_clean_linker_2, # of connection points: 2
#     Edge 27, Type (0, 1), BuildingBlock: XUDNAN_clean_linker_2, # of connection points: 2
#     Edge 28, Type (0, 1), BuildingBlock: XUDNAN_clean_linker_2, # of connection points: 2
#     Edge 29, Type (0, 1), BuildingBlock: XUDNAN_clean_linker_2, # of connection points: 2
#     Edge 30, Type (0, 1), BuildingBlock: XUDNAN_clean_linker_2, # of connection points: 2
#     Edge 31, Type (0, 1), BuildingBlock: XUDNAN_clean_linker_2, # of connection points: 2
#     Edge 32, Type (0, 1), BuildingBlock: XUDNAN_clean_linker_2, # of connection points: 2
#     Edge 33, Type (0, 1), BuildingBlock: XUDNAN_clean_linker_2, # of connection points: 2
#     Edge 34, Type (0, 1), BuildingBlock: XUDNAN_clean_linker_2, # of connection points: 2
#     Edge 35, Type (0, 1), BuildingBlock: XUDNAN_clean_linker_2, # of connection points: 2
# Relax obj value: 0.115
# Max RMSD: 0.095
# Mean RMSD: 0.038
data_MOF--net-zzz--node1-KUMBUR_clean_sbu_1--node2-QEWDON_clean_linker_0--edge1-XUDNAN_clean_linker_2
_symmetry_space_group_name_H-M    P1
_symmetry_Int_Tables_number       1
_symmetry_cell_setting            triclinic
loop_
_symmetry_equiv_pos_as_xyz
'x, y, z'
_cell_length_a     53.378278
_cell_length_b     53.588267
_cell_length_c     15.412382
_cell_angle_alpha  90.125679
_cell_angle_beta   90.036726
_cell_angle_gamma 90.100755
loop_
_atom_site_label
_atom_site_type_symbol
_atom_site_fract_x
_atom_site_fract_y
_atom_site_fract_z
_atom_type_partial_charge
H0 H 0.7728 0.56649 0.12621 0.0
C1 C 0.78467 0.5638 0.18221 0.0
C2 C 0.80986 0.57122 0.17647 0.0
C3 C 0.7753 0.55142 0.25597 0.0
H4 H 0.84572 0.57137 0.24116 0.0
C5 C 0.82604 0.56663 0.24658 0.0
C6 C 0.81783 0.55485 0.32231 0.0
C7 C 0.79218 0.54765 0.32755 0.0
C8 C 0.74917 0.53986 0.25168 0.0
H9 H 0.78581 0.53852 0.38604 0.0
C10 C 0.72976 0.54879 0.19485 0.0
C11 C 0.70706 0.53514 0.18225 0.0
C12 C 0.74433 0.51778 0.29811 0.0
H13 H 0.75831 0.50965 0.34021 0.0
C14 C 0.72179 0.50488 0.28816 0.0
H15 H 0.73232 0.56589 0.15877 0.0
C16 C 0.70354 0.51323 0.23046 0.0
H17 H 0.68642 0.5025 0.22384 0.0
H18 H 0.71865 0.48785 0.32427 0.0
H19 H 0.06222 0.7758 0.17163 0.0
C20 C 0.05364 0.78978 0.21262 0.0
C21 C 0.0663 0.81244 0.22416 0.0
C22 C 0.03057 0.78518 0.25459 0.0
H23 H 0.0663 0.84848 0.28447 0.0
C24 C 0.05617 0.83102 0.27717 0.0
C25 C 0.03313 0.82797 0.31858 0.0
C26 C 1.02039 0.8048 0.30782 0.0
C27 C 1.018 0.75975 0.24502 0.0
H28 H 1.00244 0.8025 0.33929 0.0
C29 C 1.02244 0.74336 0.17282 0.0
C30 C 1.01188 0.71886 0.16892 0.0
C31 C 1.00234 0.75093 0.31172 0.0
H32 H 0.99884 0.76194 0.36929 0.0
C33 C 0.99155 0.72724 0.30753 0.0
H34 H 0.03384 0.74958 0.11913 0.0
C35 C 0.99633 0.71137 0.23775 0.0
H36 H 0.98832 0.69281 0.23952 0.0
H37 H 0.97978 0.72086 0.36023 0.0
H38 H 0.78641 0.99271 0.13992 0.0
C39 C 0.77355 0.99845 0.19016 0.0
C40 C 0.75155 0.98445 0.20135 0.0
C41 C 0.77795 1.02064 0.23704 0.0
H42 H 0.71754 0.98096 0.27456 0.0
C43 C 0.7342 0.99201 0.26475 0.0
C44 C 0.73675 1.01449 0.3108 0.0
C45 C 0.75921 0.02841 0.29817 0.0
C46 C 0.80045 0.03678 0.2131 0.0
H47 H 0.76163 0.04552 0.33434 0.0
C48 C 0.82231 0.02698 0.17081 0.0
C49 C 0.84161 0.04291 0.13903 0.0
C50 C 0.79934 0.06281 0.22561 0.0
H51 H 0.78316 0.07163 0.25434 0.0
C52 C 0.81873 0.07835 0.1981 0.0
H53 H 0.82426 1.00712 0.16065 0.0
C54 C 0.83949 0.06863 0.15507 0.0
H55 H 0.85403 0.08144 0.13452 0.0
H56 H 0.81741 0.09828 0.20876 0.0
H57 H 0.53543 0.78123 0.08275 0.0
C58 C 0.53396 0.76885 0.13797 0.0
C59 C 0.52914 0.74368 0.12227 0.0
C60 C 0.53859 0.77792 0.22168 0.0
H61 H 0.52513 0.70716 0.17776 0.0
C62 C 0.52866 0.72669 0.19157 0.0
C63 C 0.53333 0.73437 0.27751 0.0
C64 C 0.53861 0.76031 0.29195 0.0
C65 C 0.54587 0.80524 0.22994 0.0
H66 H 0.54251 0.76669 0.35725 0.0
C67 C 0.53664 0.82388 0.17122 0.0
C68 C 0.54738 0.84817 0.16764 0.0
C69 C 0.56472 0.81232 0.28867 0.0
H70 H 0.57257 0.79893 0.33355 0.0
C71 C 0.5748 0.83643 0.28709 0.0
H72 H 0.52168 0.81939 0.12637 0.0
C73 C 0.56658 0.85399 0.2265 0.0
H74 H 0.57506 0.87238 0.22633 0.0
H75 H 0.58958 0.84138 0.3321 0.0
H76 H 0.28695 0.5036 0.20525 0.0
C77 C 0.27362 0.50709 0.15423 0.0
C78 C 0.24824 0.50251 0.17142 0.0
C79 C 0.28165 0.51812 0.07637 0.0
H80 H 0.21075 0.50505 0.12003 0.0
C81 C 0.23048 0.507 0.10563 0.0
C82 C 0.23734 0.51608 0.02353 0.0
C83 C 0.26314 0.52203 1.00992 0.0
C84 C 0.3084 0.52827 0.07172 0.0
H85 H 0.26861 0.52973 0.94799 0.0
C86 C 0.32829 0.51965 0.12723 0.0
C87 C 0.35157 0.5326 0.13364 0.0
C88 C 0.31354 0.54906 0.0189 0.0
H89 H 0.29936 0.55691 0.977 0.0
C90 C 0.33674 0.56109 0.02206 0.0
H91 H 0.32573 0.50336 0.16745 0.0
C92 C 0.35536 0.55325 0.07934 0.0
H93 H 0.37295 0.56336 0.08069 0.0
H94 H 0.34011 0.57714 0.98111 0.0
H95 H 0.0665 0.28597 0.24161 0.0
C96 C 0.06048 0.27338 0.19072 0.0
C97 C 0.05726 0.24824 0.21187 0.0
C98 C 0.05476 0.28256 0.10779 0.0
H99 H 0.0488 0.21157 0.16241 0.0
C100 C 0.05168 0.23103 0.14596 0.0
C101 C 0.04766 0.23872 0.06005 0.0
C102 C 0.0487 0.26476 0.04128 0.0
C103 C 0.05452 0.31069 0.09488 0.0
H104 H 0.04381 0.27099 0.97673 0.0
C105 C 0.04976 0.32759 0.16518 0.0
C106 C 0.05132 0.35397 0.15527 0.0
C107 C 0.06 0.32102 0.01346 0.0
H108 H 0.06407 0.30918 0.95832 0.0
C109 C 0.06095 0.34689 1.00229 0.0
H110 H 0.04499 0.32028 0.22824 0.0
C111 C 0.05678 0.36315 0.07194 0.0
H112 H 0.05748 0.38301 0.05961 0.0
H113 H 0.06517 0.35446 0.93888 0.0
H114 H 0.27957 0.05549 0.23129 0.0
C115 C 0.2904 0.05415 0.17218 0.0
C116 C 0.31507 0.06324 0.1731 0.0
C117 C 0.2804 0.04215 0.09803 0.0
H118 H 0.34963 0.06595 0.10185 0.0
C119 C 0.33023 0.05992 0.09984 0.0
C120 C 0.32184 0.04737 0.02603 0.0
C121 C 0.29652 0.03919 0.02391 0.0
C122 C 0.2543 0.03067 0.10265 0.0
H123 H 0.28986 0.03 0.96578 0.0
C124 C 0.23535 0.03933 0.16141 0.0
C125 C 0.212 0.0266 0.17054 0.0
C126 C 0.24869 1.00946 0.05204 0.0
H127 H 0.26236 1.00144 1.00851 0.0
C128 C 0.22556 0.99748 0.05855 0.0
H129 H 0.23873 0.05565 0.2011 0.0
C130 C 0.2075 1.00582 0.11697 0.0
H131 H 0.18978 0.99595 0.1196 0.0
H132 H 0.22172 0.98127 0.01864 0.0
H133 H 0.51034 0.27998 0.22405 0.0
C134 C 0.51034 0.29119 0.166 0.0
C135 C 0.5061 0.31673 0.17629 0.0
C136 C 0.51552 0.28057 0.08427 0.0
H137 H 0.50522 0.35256 0.11466 0.0
C138 C 0.50781 0.33267 0.10493 0.0
C139 C 0.51383 0.32378 0.02221 0.0
C140 C 0.51695 0.29742 0.01134 0.0
C141 C 0.52117 0.25252 0.07952 0.0
H142 H 0.52094 0.2905 0.94696 0.0
C143 C 0.51504 0.23547 0.14853 0.0
C144 C 0.52329 0.21013 0.14894 0.0
C145 C 0.53445 0.24264 1.00849 0.0
H146 H 0.54012 0.25425 0.95478 0.0
C147 C 0.54159 0.21756 1.00633 0.0
H148 H 0.50369 0.24154 0.20239 0.0
C149 C 0.53642 0.20162 0.07564 0.0
H150 H 0.54349 0.18273 0.07237 0.0
H151 H 0.55198 0.21055 0.95113 0.0
Tb152 Tb 1.01048 0.04997 0.5837 0.0
C153 C 0.08607 0.06821 0.84208 0.0
N154 N 0.08616 0.05215 0.77351 0.0
C155 C 0.12596 0.06871 0.72833 0.0
C156 C 0.10511 0.08625 0.85295 0.0
C157 C 0.10684 0.05096 0.72126 0.0
C158 C 0.12483 0.0868 0.79339 0.0
C159 C 0.06631 0.08233 0.97517 0.0
C160 C 0.06742 0.06586 0.90395 0.0
C161 C 0.08477 0.10081 0.98475 0.0
C162 C 0.10428 0.10258 0.9243 0.0
Tb163 Tb 0.05358 0.02399 0.77004 0.0
N164 N 0.04988 0.04773 0.89273 0.0
C165 C 0.04662 0.07977 0.03435 0.0
C166 C 0.03137 0.04427 0.95285 0.0
C167 C 0.02914 0.06057 0.02334 0.0
H168 H 0.10931 0.03588 0.67577 0.0
H169 H 1.01394 0.05835 0.06908 0.0
H170 H 0.96604 1.00727 0.59823 0.0
H171 H 0.05683 0.09123 0.30858 0.0
H172 H 1.0179 0.02938 0.94513 0.0
H173 H 0.04486 0.09237 0.08907 0.0
H174 H 0.04241 0.08938 0.46112 0.0
H175 H 0.14189 0.06801 0.68497 0.0
H176 H 0.08429 0.11364 0.03917 0.0
H177 H 0.11874 0.11654 0.9336 0.0
H178 H 0.94574 0.97628 0.501 0.0
H179 H 0.13982 0.10036 0.79942 0.0
H180 H 0.04286 0.05904 0.20377 0.0
N181 N 0.98991 1.02143 0.49955 0.0
C182 C 0.99579 1.02138 0.41399 0.0
C183 C 0.95991 0.98877 0.47585 0.0
C184 C 0.98496 1.00407 0.3563 0.0
C185 C 0.97134 1.00631 0.53061 0.0
C186 C 0.96699 0.98741 0.38854 0.0
N187 N 1.02127 0.05614 0.44229 0.0
C188 C 0.03635 0.07524 0.41552 0.0
C189 C 1.01967 0.03967 0.29689 0.0
C190 C 1.01253 0.03907 0.38472 0.0
C191 C 0.03633 0.0583 0.27002 0.0
C192 C 0.04438 0.07643 0.32924 0.0
H193 H 0.95821 0.97376 0.34638 0.0
H194 H 0.98437 0.99088 0.22317 0.0
H195 H 1.01519 1.02175 0.17144 0.0
O196 O 0.99104 0.07883 0.51996 0.0
O197 O 1.02111 1.01016 0.56636 0.0
O198 O 0.03331 0.99434 0.70016 0.0
O199 O 0.97704 0.06276 0.63839 0.0
O200 O 0.05053 0.05901 0.58381 0.0
O201 O 0.06769 0.02314 0.63451 0.0
O202 O 0.05692 0.9997 0.87618 0.0
O203 O 0.03177 0.05914 0.78179 0.0
O204 O 0.03407 0.07783 0.65087 0.0
O205 O 0.08615 1.00202 0.78098 0.0
O206 O 1.0149 1.01186 0.79268 0.0
O207 O 0.99144 0.03825 0.70486 0.0
C208 C 0.02574 0.99135 0.61929 0.0
C209 C 0.97252 0.10584 0.62488 0.0
C210 C 0.98821 0.1483 0.6467 0.0
C211 C 0.97245 0.15065 0.71949 0.0
C212 C 0.95643 0.1089 0.69611 0.0
C213 C 0.95643 0.13119 0.74305 0.0
C214 C 0.98773 0.12582 0.5992 0.0
C215 C 0.06766 0.04158 0.57815 0.0
C216 C 0.97509 0.0811 0.58367 0.0
C217 C 0.99226 1.0042 0.26865 0.0
C218 C 1.00977 1.02183 0.23915 0.0
C219 C 0.03453 0.07956 0.73578 0.0
C220 C 0.09756 0.9881 0.92106 0.0
C221 C 0.12123 0.9569 1.00202 0.0
C222 C 0.12644 0.97517 0.06571 0.0
C223 C 0.10268 1.006 0.98498 0.0
C224 C 0.10817 0.96437 0.92711 0.0
C225 C 0.11769 0.99965 0.05598 0.0
C226 C 0.99372 0.02307 0.77199 0.0
C227 C 0.07885 0.99185 0.85282 0.0
H228 H 0.97259 0.16736 0.75904 0.0
H229 H 0.94432 0.09381 0.71676 0.0
H230 H 0.94436 0.13319 0.79903 0.0
H231 H 0.99914 0.1237 0.54171 0.0
H232 H 0.13621 0.97052 0.12493 0.0
H233 H 0.09466 0.02449 0.98112 0.0
H234 H 0.10472 0.95129 0.87479 0.0
H235 H 0.12152 1.0134 0.10587 0.0
Tb236 Tb 0.54125 0.05403 0.78553 0.0
C237 C 0.511 0.95527 0.64611 0.0
N238 N 0.52967 0.96937 0.61239 0.0
C239 C 0.55701 0.93391 0.61158 0.0
C240 C 0.51492 0.93008 0.66807 0.0
C241 C 0.55218 0.95889 0.59125 0.0
C242 C 0.53841 0.91954 0.65133 0.0
C243 C 0.46711 0.95138 0.68196 0.0
C244 C 0.48757 0.96588 0.65349 0.0
C245 C 0.47118 0.9268 0.71032 0.0
C246 C 0.49509 0.91614 0.7033 0.0
Tb247 Tb 0.52101 1.01058 0.59121 0.0
N248 N 0.48443 0.98952 0.62385 0.0
C249 C 0.44304 0.96151 0.67611 0.0
C250 C 0.46072 0.99796 0.60723 0.0
C251 C 0.43978 0.9846 0.63603 0.0
H252 H 0.5666 0.96999 0.56068 0.0
H253 H 0.42114 0.99203 0.62638 0.0
H254 H 0.5057 0.0396 0.95421 0.0
H255 H 0.58707 0.14117 0.70942 0.0
H256 H 0.45777 1.01529 0.57354 0.0
H257 H 0.42679 0.95104 0.69741 0.0
H258 H 0.58149 0.09546 0.70789 0.0
H259 H 0.57504 0.92577 0.59665 0.0
H260 H 0.45578 0.91552 0.734 0.0
H261 H 0.49781 0.89689 0.7223 0.0
H262 H 0.4775 0.06168 0.05517 0.0
H263 H 0.54212 0.90016 0.66636 0.0
H264 H 0.55855 0.1677 0.79637 0.0
N265 N 0.51798 0.07287 0.89199 0.0
C266 C 0.51792 0.0981 0.89379 0.0
C267 C 0.48873 0.07215 1.01003 0.0
C268 C 0.50279 0.11155 0.95226 0.0
C269 C 0.50463 0.05974 0.95223 0.0
C270 C 0.48738 0.09817 1.00889 0.0
N271 N 0.54947 0.09604 0.79022 0.0
C272 C 0.56881 0.10678 0.74559 0.0
C273 C 0.53709 0.13637 0.84488 0.0
C274 C 0.53453 0.11022 0.84101 0.0
C275 C 0.55591 0.14764 0.79534 0.0
C276 C 0.57207 0.13272 0.7464 0.0
H277 H 0.4749 0.10769 0.05321 0.0
H278 H 0.49261 0.14849 0.99791 0.0
H279 H 0.52282 0.17031 0.90356 0.0
O280 O 0.57253 0.03063 0.79821 0.0
O281 O 0.53239 0.07628 0.66955 0.0
O282 O 0.5167 0.05092 0.55807 0.0
O283 O 0.56413 0.05852 0.89542 0.0
O284 O 0.56505 0.0543 0.66741 0.0
O285 O 0.56141 1.01495 0.60939 0.0
O286 O 0.50812 0.99137 0.48104 0.0
O287 O 0.54124 0.99643 0.70713 0.0
O288 O 0.5232 1.01818 0.81547 0.0
O289 O 0.53753 1.01839 0.47004 0.0
O290 O 0.49175 0.03588 0.64455 0.0
O291 O 0.50241 0.04002 0.78816 0.0
C292 C 0.52302 0.07308 0.59066 0.0
C293 C 0.58325 1.0207 0.94205 0.0
C294 C 0.61108 0.98732 0.99192 0.0
C295 C 0.59954 0.98893 0.07436 0.0
C296 C 0.57184 1.02158 0.02389 0.0
C297 C 0.57974 1.00544 0.08917 0.0
C298 C 0.60169 1.00273 0.92537 0.0
C299 C 0.57403 0.03575 0.62027 0.0
C300 C 0.578 0.0394 0.87462 0.0
C301 C 0.50416 0.13775 0.95379 0.0
C302 C 0.52137 0.15017 0.90018 0.0
C303 C 0.53128 0.99684 0.78508 0.0
C304 C 0.50669 1.01806 0.3623 0.0
C305 C 0.46913 0.04162 0.32592 0.0
C306 C 0.47625 0.04099 0.23812 0.0
C307 C 0.51378 1.01781 0.2749 0.0
C308 C 0.48483 0.0306 0.38756 0.0
C309 C 0.49865 0.02947 0.21303 0.0
C310 C 0.48547 0.03995 0.7262 0.0
C311 C 0.52132 1.00486 0.42819 0.0
H312 H 0.60611 0.97827 0.1292 0.0
H313 H 0.55726 0.03501 0.03804 0.0
H314 H 0.57121 1.00644 0.15278 0.0
H315 H 0.60918 1.00167 0.86034 0.0
H316 H 0.46413 0.04874 0.1889 0.0
H317 H 0.53072 1.00837 0.25457 0.0
H318 H 0.47976 0.03127 0.45545 0.0
H319 H 0.50395 0.02901 0.14527 0.0
Tb320 Tb 0.55393 0.5206 0.58 0.0
C321 C 0.47226 0.49197 0.81267 0.0
N322 N 0.47242 0.50748 0.74266 0.0
C323 C 0.43728 0.48519 0.68276 0.0
C324 C 0.45559 0.47157 0.81763 0.0
C325 C 0.45395 0.50535 0.68148 0.0
C326 C 0.43845 0.46791 0.75018 0.0
C327 C 0.48875 0.48164 0.95509 0.0
C328 C 0.48845 0.49698 0.88098 0.0
C329 C 0.47262 0.46096 0.95923 0.0
C330 C 0.45615 0.45587 0.89053 0.0
Tb331 Tb 0.50174 0.53904 0.74806 0.0
N332 N 0.50447 0.51661 0.87336 0.0
C333 C 0.50528 0.48758 0.02266 0.0
C334 C 0.51994 0.52309 0.94036 0.0
C335 C 0.5208 0.5085 0.01548 0.0
H336 H 0.45109 0.5196 0.63352 0.0
H337 H 0.53341 0.51341 0.06783 0.0
H338 H 0.60231 0.55638 0.62959 0.0
H339 H 0.51416 0.50143 0.26312 0.0
H340 H 0.53166 0.53947 0.93609 0.0
H341 H 0.50606 0.47629 0.08082 0.0
H342 H 0.52715 0.49094 0.41259 0.0
H343 H 0.42313 0.48337 0.63283 0.0
H344 H 0.47257 0.4489 0.01555 0.0
H345 H 0.44362 0.44001 0.89509 0.0
H346 H 0.62348 0.59378 0.56903 0.0
H347 H 0.42534 0.45245 0.75144 0.0
H348 H 0.52621 0.5421 0.1993 0.0
N349 N 0.57632 0.55354 0.52543 0.0
C350 C 0.56974 0.56171 0.44558 0.0
C351 C 0.60824 0.58504 0.53391 0.0
C352 C 0.58102 0.58292 0.40853 0.0
C353 C 0.5964 0.56385 0.56773 0.0
C354 C 0.60014 0.59496 0.45481 0.0
N355 N 0.54458 0.52614 0.43565 0.0
C356 C 0.53202 0.50898 0.3861 0.0
C357 C 0.54655 0.55417 0.31355 0.0
C358 C 0.55289 0.54759 0.39923 0.0
C359 C 0.53163 0.53772 0.26527 0.0
C360 C 0.52483 0.51475 0.30108 0.0
H361 H 0.60932 0.61136 0.42874 0.0
H362 H 0.58159 0.6072 0.29617 0.0
H363 H 0.55129 0.58195 0.21269 0.0
O364 O 0.57572 0.4963 0.50287 0.0
O365 O 0.54904 0.56046 0.61507 0.0
O366 O 0.50735 0.56615 0.64057 0.0
O367 O 0.58605 0.50449 0.634 0.0
O368 O 0.51475 0.50881 0.55275 0.0
O369 O 0.4904 0.5398 0.61023 0.0
O370 O 0.49836 0.56991 0.83137 0.0
O371 O 0.5246 0.50466 0.76474 0.0
O372 O 0.52916 0.49048 0.62714 0.0
O373 O 0.46572 0.54985 0.78824 0.0
O374 O 0.53963 0.55313 0.78372 0.0
O375 O 0.56602 0.52473 0.71632 0.0
C376 C 0.52883 0.57431 0.60933 0.0
C377 C 0.59056 0.46326 0.59199 0.0
C378 C 0.57005 0.42251 0.59433 0.0
C379 C 0.58635 0.41502 0.66107 0.0
C380 C 0.60685 0.45535 0.65795 0.0
C381 C 0.60476 0.43131 0.69203 0.0
C382 C 0.5726 0.44659 0.55943 0.0
C383 C 0.49497 0.52348 0.54834 0.0
C384 C 0.58969 0.48985 0.56832 0.0
C385 C 0.57351 0.59069 0.32545 0.0
C386 C 0.55624 0.57632 0.27796 0.0
C387 C 0.52552 0.4859 0.70994 0.0
C388 C 0.46229 0.59321 0.79464 0.0
C389 C 0.4668 0.63564 0.73909 0.0
C390 C 0.44077 0.63904 0.75084 0.0
C391 C 0.43662 0.5971 0.80703 0.0
C392 C 0.4767 0.61172 0.75414 0.0
C393 C 0.4258 0.61968 0.78257 0.0
C394 C 0.5615 0.54151 0.77722 0.0
C395 C 0.47401 0.56999 0.82493 0.0
H396 H 0.58472 0.39671 0.69004 0.0
H397 H 0.62058 0.46807 0.68517 0.0
H398 H 0.6171 0.42547 0.74388 0.0
H399 H 0.56035 0.45261 0.50756 0.0
H400 H 0.43195 0.65695 0.74115 0.0
H401 H 0.42503 0.58277 0.83615 0.0
H402 H 0.49615 0.6079 0.73995 0.0
H403 H 0.40596 0.62269 0.79266 0.0
Tb404 Tb 0.037 0.55429 0.56471 0.0
C405 C 0.04813 0.49814 0.92058 0.0
N406 N 0.04259 0.49142 0.83787 0.0
C407 C 0.06711 0.4542 0.85334 0.0
C408 C 0.0646 0.48385 0.97164 0.0
C409 C 0.05072 0.46911 0.80517 0.0
C410 C 0.07436 0.46177 0.93653 0.0
C411 C 0.03943 0.5249 0.04361 0.0
C412 C 0.03549 0.51815 0.95618 0.0
C413 C 0.05743 0.51208 0.09282 0.0
C414 C 0.06995 0.49153 0.05689 0.0
Tb415 Tb 1.01455 0.51602 0.76656 0.0
N416 N 1.01748 0.52927 0.90766 0.0
C417 C 0.02426 0.54342 0.08009 0.0
C418 C 1.00117 0.54569 0.94537 0.0
C419 C 1.00468 0.55345 0.0313 0.0
H420 H 0.04489 0.46315 0.74124 0.0
H421 H 0.99201 0.56679 0.06038 0.0
H422 H 0.02525 0.61198 0.64675 0.0
H423 H 1.00654 0.51096 0.26786 0.0
H424 H 0.98529 0.55272 0.90938 0.0
H425 H 0.02674 0.54922 0.14693 0.0
H426 H 0.0308 0.51441 0.40355 0.0
H427 H 0.07403 0.43685 0.82651 0.0
H428 H 0.06101 0.51722 0.15973 0.0
H429 H 0.08322 0.48131 0.09627 0.0
H430 H 0.9946 0.64501 0.62407 0.0
H431 H 0.08693 0.45013 0.97391 0.0
H432 H 0.97591 0.54374 0.22955 0.0
N433 N 1.01017 0.58765 0.54977 0.0
C434 C 0.99481 0.58658 0.47918 0.0
C435 C 0.99407 0.62843 0.58388 0.0
C436 C 0.97798 0.60608 0.4599 0.0
C437 C 1.01098 0.60899 0.59869 0.0
C438 C 0.97723 0.62681 0.51495 0.0
N439 N 1.01319 0.54796 0.44404 0.0
C440 C 1.01698 0.52836 0.38888 0.0
C441 C 0.98267 0.56532 0.34629 0.0
C442 C 0.99687 0.5664 0.42332 0.0
C443 C 0.98622 0.5451 0.28996 0.0
C444 C 1.00343 0.52651 0.31147 0.0
H445 H 0.96453 0.64215 0.50255 0.0
H446 H 0.95019 0.61958 0.36876 0.0
H447 H 0.95469 0.58412 0.26841 0.0
O448 O 0.06497 0.54745 0.47271 0.0
O449 O 0.99966 0.53581 0.56682 0.0
O450 O 0.9881 0.5423 0.7061 0.0
O451 O 0.05476 0.58503 0.50576 0.0
O452 O 0.04824 0.51468 0.55705 0.0
O453 O 1.01885 0.49541 0.64397 0.0
O454 O 0.99013 0.4982 0.85383 0.0
O455 O 0.05606 0.51578 0.74576 0.0
O456 O 0.06461 0.55202 0.67113 0.0
O457 O 0.99025 0.48838 0.71871 0.0
O458 O 1.00894 0.55695 0.77457 0.0
O459 O 0.04085 0.57312 0.69201 0.0
C460 C 0.98198 0.5407 0.62364 0.0
C461 C 0.09776 0.57654 0.48955 0.0
C462 C 0.13991 0.56215 0.52596 0.0
C463 C 0.14803 0.5872 0.52746 0.0
C464 C 0.10629 0.6013 0.49062 0.0
C465 C 0.13122 0.60657 0.51091 0.0
C466 C 0.11449 0.55722 0.51016 0.0
C467 C 0.03528 0.4948 0.58022 0.0
C468 C 0.07138 0.57084 0.46901 0.0
C469 C 0.96318 0.60475 0.38458 0.0
C470 C 0.96575 0.58457 0.32738 0.0
C471 C 0.07183 0.53351 0.72167 0.0
C472 C 0.95208 0.48535 0.79161 0.0
C473 C 0.91264 0.50826 0.80074 0.0
C474 C 0.89983 0.48513 0.79777 0.0
C475 C 0.93899 0.46278 0.78735 0.0
C476 C 0.93899 0.50795 0.79568 0.0
C477 C 0.91292 0.46273 0.78974 0.0
C478 C 0.02584 0.57438 0.75996 0.0
C479 C 0.97945 0.48507 0.79322 0.0
H480 H 0.16753 0.59192 0.53753 0.0
H481 H 0.09367 0.61653 0.47596 0.0
H482 H 0.13773 0.62571 0.51137 0.0
H483 H 0.10781 0.53815 0.51247 0.0
H484 H 0.87973 0.4839 0.8049 0.0
H485 H 0.94895 0.4452 0.78332 0.0
H486 H 0.94965 0.52508 0.79684 0.0
H487 H 0.90282 0.4452 0.78782 0.0
H488 H 0.18146 0.99648 0.27186 0.0
H489 H 0.19648 0.07431 0.21473 0.0
H490 H 0.16144 0.08658 0.31112 0.0
H491 H 0.1144 1.00097 0.27538 0.0
H492 H 0.11045 0.97922 0.36333 0.0
H493 H 0.13706 0.97653 0.29212 0.0
H494 H 0.16716 0.97902 0.42345 0.0
H495 H 0.14069 0.98144 0.49544 0.0
H496 H 0.16487 1.00496 0.49771 0.0
H497 H 0.12283 0.09016 0.41082 0.0
H498 H 0.08698 0.08492 0.51071 0.0
H499 H 0.09731 1.00473 0.50443 0.0
C500 C 0.17745 1.01616 0.27924 0.0
C501 C 0.19198 0.03441 0.23465 0.0
C502 C 0.18605 0.05991 0.24818 0.0
C503 C 0.16595 0.06705 0.30251 0.0
C504 C 0.15184 0.04855 0.34397 0.0
C505 C 0.15754 0.0236 0.33347 0.0
C506 C 0.13966 1.0073 0.38565 0.0
C507 C 0.1245 0.98999 0.32552 0.0
C508 C 0.15395 0.99229 0.45466 0.0
C509 C 0.12294 0.02689 0.42736 0.0
C510 C 0.13014 0.05059 0.40196 0.0
C511 C 0.11719 0.07165 0.43096 0.0
C512 C 0.09665 0.06847 0.48743 0.0
C513 C 0.08905 0.04441 0.5154 0.0
C514 C 0.10257 0.0234 0.48467 0.0
H515 H 0.5176 0.15782 0.1545 0.0
H516 H 0.5222 0.22275 0.32322 0.0
H517 H 0.52034 0.19518 0.45069 0.0
H518 H 0.47577 0.12051 0.29487 0.0
H519 H 0.49144 0.09187 0.26608 0.0
H520 H 0.49068 0.11748 0.19069 0.0
H521 H 0.53919 0.11495 0.18226 0.0
H522 H 0.53947 0.09023 0.26123 0.0
H523 H 0.55727 0.11833 0.28052 0.0
H524 H 0.5201 0.16027 0.56214 0.0
H525 H 0.52127 0.12153 0.6471 0.0
H526 H 0.51823 0.07804 0.40934 0.0
C527 C 0.51825 0.16644 0.218 0.0
C528 C 0.51994 0.19297 0.22704 0.0
C529 C 0.52036 0.20286 0.31266 0.0
C530 C 0.51955 0.1872 0.38618 0.0
C531 C 0.51831 0.16135 0.37456 0.0
C532 C 0.51758 0.15101 0.29255 0.0
C533 C 0.51675 0.12253 0.29838 0.0
C534 C 0.49217 0.11249 0.26025 0.0
C535 C 0.53953 0.11083 0.2529 0.0
C536 C 0.5177 0.11841 0.39632 0.0
C537 C 0.51838 0.14117 0.43883 0.0
C538 C 0.51955 0.14243 0.52914 0.0
C539 C 0.52031 0.12011 0.57714 0.0
C540 C 0.52 0.09634 0.53598 0.0
C541 C 0.51834 0.09569 0.44368 0.0
H542 H 0.37928 0.56333 0.24219 0.0
H543 H 0.37099 0.48571 0.16792 0.0
H544 H 0.40719 0.47482 0.26168 0.0
H545 H 0.44647 0.56511 0.24968 0.0
H546 H 0.44793 0.58529 0.34326 0.0
H547 H 0.42143 0.58682 0.271 0.0
H548 H 0.39137 0.57874 0.39991 0.0
H549 H 0.41781 0.57741 0.47242 0.0
H550 H 0.39605 0.55169 0.46729 0.0
H551 H 0.44675 0.47302 0.36063 0.0
H552 H 0.48167 0.47981 0.46443 0.0
H553 H 0.46282 0.55831 0.47842 0.0
C554 C 0.38499 0.54398 0.24563 0.0
C555 C 0.37211 0.52539 0.19672 0.0
C556 C 0.38023 0.50031 0.20466 0.0
C557 C 0.40098 0.49399 0.25749 0.0
C558 C 0.41347 0.51286 0.30348 0.0
C559 C 0.40545 0.53733 0.2989 0.0
C560 C 0.42158 0.55412 0.35619 0.0
C561 C 0.43515 0.57401 0.30177 0.0
C562 C 0.40576 0.5662 0.42822 0.0
C563 C 0.44005 0.5354 0.39351 0.0
C564 C 0.43531 0.51171 0.36173 0.0
C565 C 0.4504 0.49153 0.38591 0.0
C566 C 0.47039 0.49558 0.44459 0.0
C567 C 0.4752 0.51959 0.47979 0.0
C568 C 0.45972 0.53969 0.4531 0.0
H569 H 0.07216 0.40148 0.18462 0.0
H570 H 1.02022 0.34818 0.29809 0.0
H571 H 1.01291 0.37711 0.41939 0.0
H572 H 0.09844 0.42616 0.38315 0.0
H573 H 0.09934 0.458 0.3458 0.0
H574 H 0.10177 0.43272 0.26903 0.0
H575 H 0.06336 0.44961 0.18327 0.0
H576 H 0.06209 0.47546 0.25843 0.0
H577 H 0.03477 0.45632 0.24057 0.0
H578 H 1.01007 0.41223 0.528 0.0
H579 H 1.01074 0.45094 0.61283 0.0
H580 H 0.0634 0.4834 0.42993 0.0
C581 C 0.0591 0.39575 0.23439 0.0
C582 C 0.04706 0.37193 0.23053 0.0
C583 C 0.03035 0.36567 0.2989 0.0
C584 C 0.02585 0.38221 0.36838 0.0
C585 C 0.03797 0.40533 0.36963 0.0
C586 C 0.05416 0.41221 0.30423 0.0
C587 C 0.06391 0.4387 0.31978 0.0
C588 C 0.09257 0.43889 0.33006 0.0
C589 C 0.05554 0.45608 0.24614 0.0
C590 C 0.05092 0.4455 0.40471 0.0
C591 C 0.03602 0.42589 0.43187 0.0
C592 C 1.02169 0.42765 0.50708 0.0
C593 C 1.02224 0.44997 0.55513 0.0
C594 C 0.03697 0.47077 0.52881 0.0
C595 C 0.05182 0.46815 0.45254 0.0
H596 H 0.86425 0.0643 0.99576 0.0
H597 H 0.87023 1.00041 0.16672 0.0
H598 H 0.90886 0.98734 0.08973 0.0
H599 H 0.88679 0.0342 0.80001 0.0
H600 H 0.90357 0.06144 0.76353 0.0
H601 H 0.87601 0.06491 0.82984 0.0
H602 H 0.90154 0.09107 0.9404 0.0
H603 H 0.92921 0.08756 0.87481 0.0
H604 H 0.92966 0.07816 0.98691 0.0
H605 H 0.94935 0.98296 0.99691 0.0
H606 H 0.98517 0.98658 0.89538 0.0
H607 H 0.9519 0.05315 0.7855 0.0
C608 C 0.87359 0.04751 0.01739 0.0
C609 C 0.86397 0.03349 0.08827 0.0
C610 C 0.87684 1.01143 0.11257 0.0
C611 C 0.89899 1.00395 0.06935 0.0
C612 C 0.90813 1.01853 1.00101 0.0
C613 C 0.89562 0.03978 0.97491 0.0
C614 C 0.90933 0.05254 0.9007 0.0
C615 C 0.89294 0.05331 0.81867 0.0
C616 C 0.91794 0.07889 0.92731 0.0
C617 C 0.93156 0.03521 0.88868 0.0
C618 C 0.93071 1.01575 0.94735 0.0
C619 C 0.94989 0.99802 0.95028 0.0
C620 C 0.97026 1.00023 0.89214 0.0
C621 C 0.97142 1.01993 0.83081 0.0
C622 C 0.95158 0.03752 0.82969 0.0
H623 H 0.57484 0.87215 0.03964 0.0
H624 H 0.50099 0.86989 0.15545 0.0
H625 H 0.48843 0.90642 0.06686 0.0
H626 H 0.58213 0.93735 0.0249 0.0
H627 H 0.59698 0.93714 0.91967 0.0
H628 H 0.59972 0.91048 0.98977 0.0
H629 H 0.58215 0.88268 0.86727 0.0
H630 H 0.57877 0.90937 0.79722 0.0
H631 H 0.55209 0.88977 0.82036 0.0
H632 H 0.48559 0.94649 0.97664 0.0
H633 H 0.49097 0.98336 0.88216 0.0
H634 H 0.5654 0.95813 0.81294 0.0
C635 C 0.55587 0.87908 0.04508 0.0
C636 C 0.53882 0.86793 0.10457 0.0
C637 C 0.51426 0.87777 0.10994 0.0
C638 C 0.50703 0.89866 0.06003 0.0
C639 C 0.52437 0.90942 1.00307 0.0
C640 C 0.54813 0.89959 0.9939 0.0
C641 C 0.56307 0.91448 0.92722 0.0
C642 C 0.58689 0.92552 0.96794 0.0
C643 C 0.5694 0.89811 0.84828 0.0
C644 C 0.54448 0.93491 0.903 0.0
C645 C 0.52225 0.93162 0.94772 0.0
C646 C 0.50279 0.9489 0.94048 0.0
C647 C 0.50606 0.96993 0.8868 0.0
C648 C 0.52845 0.97365 0.8391 0.0
C649 C 0.54786 0.95566 0.84712 0.0
H650 H 0.68419 0.50646 0.05603 0.0
H651 H 0.68285 0.58063 0.16797 0.0
H652 H 0.64543 0.59076 0.07864 0.0
H653 H 0.66524 0.525 0.83676 0.0
H654 H 0.64698 0.49709 0.81952 0.0
H655 H 0.67383 0.49639 0.89034 0.0
H656 H 0.6459 0.4794 0.01433 0.0
H657 H 0.61897 0.4803 0.94398 0.0
H658 H 0.6184 0.49659 0.04639 0.0
H659 H 0.6049 0.59112 0.98226 0.0
H660 H 0.56989 0.58345 0.87915 0.0
H661 H 0.59964 0.5098 0.82557 0.0
C662 C 0.67624 0.52498 0.06103 0.0
C663 C 0.68668 0.54278 0.11941 0.0
C664 C 0.67555 0.56676 0.12343 0.0
C665 C 0.65409 0.57258 0.07323 0.0
C666 C 0.64398 0.55439 0.01781 0.0
C667 C 0.65509 0.53119 1.01047 0.0
C668 C 0.64095 0.51487 0.94589 0.0
C669 C 0.65775 0.50793 0.86854 0.0
C670 C 0.63044 0.4914 0.99032 0.0
C671 C 0.61997 0.5323 0.91828 0.0
C672 C 0.62175 0.55495 0.96098 0.0
C673 C 0.60368 0.57352 0.94799 0.0
C674 C 0.5837 0.56896 0.88942 0.0
C675 C 0.58192 0.54613 0.84303 0.0
C676 C 0.60045 0.52764 0.85861 0.0
H677 H 0.98123 0.68179 0.09652 0.0
H678 H 0.0563 0.71273 0.07869 0.0
H679 H 0.06742 0.67988 0.97299 0.0
H680 H 0.99932 0.61716 0.08925 0.0
H681 H 0.97245 0.60777 0.02598 0.0
H682 H 0.97045 0.63444 0.09681 0.0
H683 H 0.95604 0.6612 0.96565 0.0
H684 H 0.95862 0.63441 0.89538 0.0
H685 H 0.97545 0.66265 0.87009 0.0
H686 H 0.07112 0.64218 0.8726 0.0
H687 H 0.06675 0.60418 0.78328 0.0
H688 H 0.98958 0.59649 0.86727 0.0
C689 C 1.00009 0.68179 0.07082 0.0
C690 C 1.01785 0.70027 0.09724 0.0
C691 C 0.04209 0.69937 0.05958 0.0
C692 C 0.0487 0.6805 0.99973 0.0
C693 C 0.03094 0.66238 0.9772 0.0
C694 C 1.00705 0.66296 0.01123 0.0
C695 C 0.99156 0.64105 0.97706 0.0
C696 C 0.98295 0.6241 0.05176 0.0
C697 C 0.96909 0.6504 0.92389 0.0
C698 C 1.01055 0.62783 0.91927 0.0
C699 C 0.03312 0.64057 0.92012 0.0
C700 C 0.0535 0.63217 0.87162 0.0
C701 C 0.0508 0.61046 0.8208 0.0
C702 C 0.0279 0.59694 0.81819 0.0
C703 C 1.00751 0.60592 0.86866 0.0
H704 H 0.07329 0.20491 0.29092 0.0
H705 H 0.03412 0.27442 0.34029 0.0
H706 H 1.021 0.25898 0.48222 0.0
H707 H 0.02928 0.16742 0.35657 0.0
H708 H 0.04787 0.14401 0.41022 0.0
H709 H 0.06159 0.16275 0.32655 0.0
H710 H 0.09665 0.17703 0.43192 0.0
H711 H 0.08309 0.15804 0.5163 0.0
H712 H 0.08846 0.19084 0.53482 0.0
H713 H 1.00119 0.23281 0.59062 0.0
H714 H 0.9791 0.19872 0.66304 0.0
H715 H 0.03341 0.14608 0.55953 0.0
C716 C 0.06284 0.2172 0.33332 0.0
C717 C 0.05495 0.24092 0.30445 0.0
C718 C 0.04097 0.2564 0.36125 0.0
C719 C 0.03333 0.24776 0.4424 0.0
C720 C 0.04008 0.22374 0.46684 0.0
C721 C 0.05509 0.20882 0.4151 0.0
C722 C 0.05639 0.18248 0.45047 0.0
C723 C 0.04828 0.16305 0.3819 0.0
C724 C 0.08272 0.17677 0.48548 0.0
C725 C 0.03762 0.18438 0.5238 0.0
C726 C 0.02896 0.20848 0.53366 0.0
C727 C 1.00852 0.21403 0.5864 0.0
C728 C 0.99605 0.19439 0.62773 0.0
C729 C 1.00418 0.16942 0.61685 0.0
C730 C 0.02614 0.16475 0.56789 0.0
H731 H 0.3464 0.10276 0.19217 0.0
H732 H 0.31331 0.0414 0.33299 0.0
H733 H 0.34929 0.04079 0.43143 0.0
H734 H 0.39532 0.07555 0.15487 0.0
H735 H 0.41845 0.10003 0.16161 0.0
H736 H 0.38659 0.10775 0.13931 0.0
H737 H 0.38512 0.13736 0.27202 0.0
H738 H 0.41756 0.13027 0.29382 0.0
H739 H 0.39434 0.12613 0.37746 0.0
H740 H 0.39253 0.03293 0.46611 0.0
H741 H 0.43611 1.02085 0.44012 0.0
H742 H 0.44539 0.08357 0.26652 0.0
C743 C 0.34621 0.09039 0.24762 0.0
C744 C 0.32749 0.07185 0.25408 0.0
C745 C 0.32741 0.05584 0.3267 0.0
C746 C 0.34806 0.05527 0.38279 0.0
C747 C 0.36854 0.0707 0.36489 0.0
C748 C 0.36756 0.08855 0.29984 0.0
C749 C 0.39366 0.09748 0.27555 0.0
C750 C 0.39877 0.095 0.17715 0.0
C751 C 0.39792 0.12441 0.30662 0.0
C752 C 0.40938 0.07947 0.32767 0.0
C753 C 0.39466 0.06525 0.38264 0.0
C754 C 0.40436 0.04465 0.42628 0.0
C755 C 0.42928 0.0379 0.41115 0.0
C756 C 0.44434 0.05158 0.35245 0.0
C757 C 0.43443 0.07308 0.31278 0.0
H758 H 0.53502 0.30796 0.31747 0.0
H759 H 0.4716 0.35122 0.22864 0.0
H760 H 0.47483 0.37792 0.35838 0.0
H761 H 0.52346 0.31981 0.56871 0.0
H762 H 0.55688 0.32122 0.58459 0.0
H763 H 0.54376 0.3 0.50557 0.0
H764 H 0.57238 0.31938 0.38796 0.0
H765 H 0.58513 0.34085 0.46527 0.0
H766 H 0.57075 0.35248 0.36751 0.0
H767 H 0.49337 0.40706 0.45948 0.0
H768 H 0.52303 0.43434 0.53441 0.0
H769 H 0.57403 0.37219 0.56759 0.0
C770 C 0.52089 0.32208 0.32842 0.0
C771 C 0.50308 0.32763 0.26373 0.0
C772 C 0.4854 0.34679 0.27784 0.0
C773 C 0.48698 0.36189 0.35169 0.0
C774 C 0.50606 0.35724 0.41129 0.0
C775 C 0.52232 0.33731 0.40192 0.0
C776 C 0.54397 0.33912 0.46528 0.0
C777 C 0.54188 0.31883 0.5352 0.0
C778 C 0.56952 0.33792 0.41864 0.0
C779 C 0.53907 0.36466 0.50348 0.0
C780 C 0.51663 0.37436 0.47387 0.0
C781 C 0.51034 0.39928 0.48661 0.0
C782 C 0.52752 0.41475 0.5289 0.0
C783 C 0.55066 0.4053 0.55955 0.0
C784 C 0.55607 0.37974 0.54855 0.0
H785 H 0.20633 0.47659 0.22409 0.0
H786 H 0.27031 0.51727 0.3261 0.0
H787 H 0.25044 0.51947 0.46685 0.0
H788 H 0.1678 0.51684 0.27567 0.0
H789 H 0.14122 0.49801 0.30691 0.0
H790 H 0.16425 0.48531 0.23605 0.0
H791 H 0.17066 0.44848 0.34207 0.0
H792 H 0.1476 0.46163 0.4144 0.0
H793 H 0.17854 0.45446 0.45394 0.0
H794 H 0.22037 0.53287 0.57254 0.0
H795 H 0.18487 0.55922 0.61492 0.0
H796 H 0.13716 0.51801 0.43732 0.0
C797 C 0.21642 0.48537 0.27683 0.0
C798 C 0.23978 0.49702 0.26208 0.0
C799 C 0.25264 0.50765 0.33387 0.0
C800 C 0.24134 0.50906 0.41546 0.0
C801 C 0.21687 0.50041 0.42479 0.0
C802 C 0.20453 0.48846 0.35709 0.0
C803 C 0.1765 0.48797 0.37248 0.0
C804 C 0.16164 0.49768 0.29322 0.0
C805 C 0.16783 0.46156 0.39724 0.0
C806 C 0.17486 0.50534 0.45003 0.0
C807 C 0.19831 0.51033 0.4842 0.0
C808 C 0.20191 0.5288 0.54715 0.0
C809 C 0.18166 0.54402 0.56987 0.0
C810 C 0.15833 0.54128 0.52737 0.0
C811 C 0.15457 0.5205 0.472 0.0
H812 H 0.06541 0.82518 0.05783 0.0
H813 H 0.11444 0.81897 0.27914 0.0
H814 H 0.14294 0.85021 0.21543 0.0
H815 H 0.11507 0.84958 0.88717 0.0
H816 H 0.09164 0.87074 0.84657 0.0
H817 H 0.08264 0.84016 0.88426 0.0
H818 H 0.05077 0.86065 0.98897 0.0
H819 H 0.05987 0.891 0.95356 0.0
H820 H 0.06169 0.88328 0.06723 0.0
H821 H 0.15773 0.89062 0.15539 0.0
H822 H 0.15734 0.93436 0.10685 0.0
H823 H 0.09432 0.91703 0.9383 0.0
C824 C 0.08324 0.82902 0.08875 0.0
C825 C 0.08822 0.81941 0.17164 0.0
C826 C 0.11085 0.82567 0.21404 0.0
C827 C 0.12702 0.84358 0.1784 0.0
C828 C 0.12013 0.85506 0.10073 0.0
C829 C 0.09885 0.84765 0.05551 0.0
C830 C 0.09162 0.86671 0.98778 0.0
C831 C 0.09549 0.85617 0.896 0.0
C832 C 0.06443 0.87595 1.00035 0.0
C833 C 0.11053 0.88695 1.00755 0.0
C834 C 0.12758 0.87956 0.06967 0.0
C835 C 0.14481 0.89637 0.10517 0.0
C836 C 0.14415 0.92141 0.07812 0.0
C837 C 0.12576 0.9297 0.01826 0.0
C838 C 0.10936 0.91177 0.98129 0.0
H839 H 0.72306 0.942 0.22303 0.0
H840 H 0.76048 0.98562 0.02562 0.0
H841 H 0.73038 0.97154 0.91878 0.0
H842 H 0.68386 0.89717 0.05185 0.0
H843 H 0.65745 0.89963 0.12414 0.0
H844 H 0.6887 0.8966 0.16756 0.0
H845 H 0.68173 0.93659 0.25859 0.0
H846 H 0.651 0.93986 0.215 0.0
H847 H 0.67313 0.96514 0.20412 0.0
H848 H 0.6895 0.97615 0.86454 0.0
H849 H 0.64795 0.99321 0.86522 0.0
H850 H 0.62907 0.9472 0.08817 0.0
C851 C 0.72536 0.94757 0.1561 0.0
C852 C 0.74335 0.96592 0.1343 0.0
C853 C 0.74679 0.9719 0.04573 0.0
C854 C 0.72941 0.96397 0.98373 0.0
C855 C 0.70857 0.95036 0.01117 0.0
C856 C 0.70691 0.94115 0.09509 0.0
C857 C 0.6801 0.93359 0.11599 0.0
C858 C 0.67737 0.90505 0.11475 0.0
C859 C 0.671 0.9445 0.20343 0.0
C860 C 0.66654 0.94503 0.03936 0.0
C861 C 0.68338 0.95298 0.97702 0.0
C862 C 0.67606 0.96905 0.91089 0.0
C863 C 0.65184 0.97881 0.9121 0.0
C864 C 0.63452 0.97221 0.97825 0.0
C865 C 0.6417 0.95351 0.03816 0.0
H866 H 0.54992 0.70334 0.04255 0.0
H867 H 0.49912 0.76495 0.99931 0.0
H868 H 0.48939 0.74863 0.85361 0.0
H869 H 0.56713 0.69307 0.79641 0.0
H870 H 0.56757 0.65983 0.81386 0.0
H871 H 0.57807 0.68075 0.89835 0.0
H872 H 0.54637 0.66113 1.00649 0.0
H873 H 0.53687 0.63988 0.9236 0.0
H874 H 0.51377 0.65925 0.97624 0.0
H875 H 0.47681 0.72105 0.734 0.0
H876 H 0.45758 0.68329 0.67307 0.0
H877 H 0.5159 0.6389 0.79417 0.0
C878 C 0.53728 0.71365 1.00106 0.0
C879 C 0.52521 0.73524 0.03181 0.0
C880 C 0.50876 0.74843 0.97643 0.0
C881 C 0.50336 0.73945 0.89312 0.0
C882 C 0.51484 0.71747 0.86549 0.0
C883 C 0.53168 0.70483 0.91787 0.0
C884 C 0.53737 0.6792 0.88205 0.0
C885 C 0.56413 0.67817 0.84549 0.0
C886 C 0.53328 0.6587 0.9511 0.0
C887 C 0.5183 0.67803 0.80936 0.0
C888 C 0.50679 0.70082 0.79665 0.0
C889 C 0.48586 0.70319 0.74301 0.0
C890 C 0.4748 0.68146 0.70955 0.0
C891 C 0.48406 0.65766 0.73336 0.0
C892 C 0.50766 0.6564 0.77522 0.0
H893 H 0.79859 0.55459 0.01327 0.0
H894 H 0.84657 0.60652 0.1509 0.0
H895 H 0.87557 0.60679 0.02764 0.0
H896 H 0.83444 0.51705 0.94762 0.0
H897 H 0.82522 0.51099 0.83694 0.0
H898 H 0.80296 0.52359 0.91117 0.0
H899 H 0.79514 0.56127 0.81077 0.0
H900 H 0.81718 0.54848 0.73391 0.0
H901 H 0.82112 0.5799 0.77354 0.0
H902 H 0.90582 0.58549 0.93883 0.0
H903 H 0.93041 0.55171 0.87898 0.0
H904 H 0.86298 0.51931 0.767 0.0
C905 C 0.81419 0.56746 0.01486 0.0
C906 C 0.82073 0.57986 0.0927 0.0
C907 C 0.84157 0.59621 0.09288 0.0
C908 C 0.85803 0.59675 0.02243 0.0
C909 C 0.85274 0.5818 0.95053 0.0
C910 C 0.83047 0.56861 0.94364 0.0
C911 C 0.83123 0.55075 0.86711 0.0
C912 C 0.82304 0.52405 0.89243 0.0
C913 C 0.81522 0.56071 0.79188 0.0
C914 C 0.85879 0.55218 0.84452 0.0
C915 C 0.87066 0.57095 0.89076 0.0
C916 C 0.89666 0.57165 0.89851 0.0
C917 C 0.91067 0.55201 0.86366 0.0
C918 C 0.89881 0.53204 0.81874 0.0
C919 C 0.87276 0.5336 0.80314 0.0
H920 H 0.0728 0.21656 0.91985 0.0
H921 H 1.00336 0.21431 0.06496 0.0
H922 H 0.99194 0.17475 0.99281 0.0
H923 H 0.04599 0.19004 0.7177 0.0
H924 H 0.07268 0.17097 0.68988 0.0
H925 H 0.07694 0.20003 0.74735 0.0
H926 H 0.09992 0.17927 0.87053 0.0
H927 H 0.09745 0.14927 0.81827 0.0
H928 H 0.08592 0.15355 0.92752 0.0
H929 H 0.99137 0.13202 0.92622 0.0
H930 H 0.99738 0.09249 0.84642 0.0
H931 H 0.06481 0.12227 0.72905 0.0
C932 C 0.05473 0.20826 0.93354 0.0
C933 C 0.03872 0.21899 0.9973 0.0
C934 C 1.01568 0.20687 0.01544 0.0
C935 C 1.00914 0.18419 0.97524 0.0
C936 C 0.0256 0.17364 0.91534 0.0
C937 C 0.04761 0.18556 0.89239 0.0
C938 C 0.06203 0.16963 0.82687 0.0
C939 C 0.06457 0.18345 0.74018 0.0
C940 C 0.08787 0.16247 0.86291 0.0
C941 C 0.04496 0.14673 0.81837 0.0
C942 C 0.02428 0.14944 0.87146 0.0
C943 C 1.0071 0.13002 0.88252 0.0
C944 C 1.01068 0.10754 0.83693 0.0
C945 C 0.03107 0.10441 0.77933 0.0
C946 C 0.04849 0.1244 0.77005 0.0
H947 H 0.36771 0.02536 0.04612 0.0
H948 H 0.3208 0.0598 0.8511 0.0
H949 H 0.35694 0.06015 0.74912 0.0
H950 H 0.42182 0.06048 1.00865 0.0
H951 H 0.4429 0.03484 0.02867 0.0
H952 H 0.41254 0.03517 0.07868 0.0
H953 H 0.40408 0.99139 0.011 0.0
H954 H 0.43442 0.99198 0.9598 0.0
H955 H 0.40666 0.98732 0.89517 0.0
H956 H 0.40077 0.05999 0.67269 0.0
H957 H 0.4456 0.05808 0.63051 0.0
H958 H 0.46346 0.02518 0.87951 0.0
C959 C 0.36479 0.03236 0.98102 0.0
C960 C 0.34113 0.0423 0.95654 0.0
C961 C 0.3384 0.05161 0.87109 0.0
C962 C 0.35901 0.0521 0.81305 0.0
C963 C 0.38233 0.04313 0.84098 0.0
C964 C 0.38512 0.03313 0.92298 0.0
C965 C 0.4122 0.02582 0.93997 0.0
C966 C 0.42297 0.03997 0.01861 0.0
C967 C 0.41446 0.99744 0.9522 0.0
C968 C 0.4246 0.03403 0.85607 0.0
C969 C 0.4071 0.04361 0.7989 0.0
C970 C 0.41443 0.05239 0.71726 0.0
C971 C 0.44002 0.05125 0.69372 0.0
C972 C 0.45827 0.04154 0.75144 0.0
C973 C 0.45019 0.03293 0.83382 0.0
H974 H 0.54222 0.36689 0.02601 0.0
H975 H 0.49079 0.32603 0.8608 0.0
H976 H 0.48875 0.36251 0.76157 0.0
H977 H 0.5132 0.42496 0.01183 0.0
H978 H 0.54146 0.44345 1.00933 0.0
H979 H 0.54137 0.41351 0.06209 0.0
H980 H 0.578 0.39879 0.96701 0.0
H981 H 0.57882 0.42859 0.91301 0.0
H982 H 0.57549 0.40029 0.85064 0.0
H983 H 0.48866 0.40634 0.68922 0.0
H984 H 0.49461 0.45017 0.64184 0.0
H985 H 0.54665 0.46236 0.85298 0.0
C986 C 0.53096 0.36532 0.96779 0.0
C987 C 0.51678 0.34321 0.95135 0.0
C988 C 0.50215 0.34232 0.87461 0.0
C989 C 0.50069 0.36318 0.81829 0.0
C990 C 0.51412 0.38496 0.83864 0.0
C991 C 0.52938 0.38592 0.91095 0.0
C992 C 0.54151 0.41162 0.91997 0.0
C993 C 0.53392 0.42413 1.00589 0.0
C994 C 0.57015 0.40971 0.91218 0.0
C995 C 0.53038 0.4253 0.84253 0.0
C996 C 0.51459 0.40961 0.79634 0.0
C997 C 0.50145 0.41842 0.72415 0.0
C998 C 0.50506 0.44337 0.69717 0.0
C999 C 0.52175 0.45956 0.74141 0.0
C1000 C 0.53415 0.45038 0.81638 0.0
H1001 H 0.19434 0.48806 0.991 0.0
H1002 H 0.23195 0.55574 0.90828 0.0
H1003 H 0.19495 0.5665 0.81852 0.0
H1004 H 0.16053 0.4746 0.78793 0.0
H1005 H 0.13296 0.46389 0.8443 0.0
H1006 H 0.16339 0.46047 0.89355 0.0
H1007 H 0.14827 0.48489 0.02961 0.0
H1008 H 0.118 0.48762 0.98017 0.0
H1009 H 0.13425 0.51523 0.01571 0.0
H1010 H 0.15124 0.57164 0.74682 0.0
H1011 H 0.10756 0.56979 0.69587 0.0
H1012 H 0.09785 0.4987 0.8253 0.0
C1013 C 0.19507 0.5051 0.95348 0.0
C1014 C 0.21653 0.52101 0.9578 0.0
C1015 C 0.21625 0.54293 0.90622 0.0
C1016 C 0.19507 0.54932 0.85529 0.0
C1017 C 0.17402 0.53363 0.85546 0.0
C1018 C 0.17408 0.51178 0.90261 0.0
C1019 C 0.14877 0.49863 0.89565 0.0
C1020 C 0.15159 0.47287 0.8528 0.0
C1021 C 0.13662 0.4965 0.98568 0.0
C1022 C 0.1342 0.51644 0.83735 0.0
C1023 C 0.14915 0.53654 0.81487 0.0
C1024 C 0.13964 0.55579 0.76367 0.0
C1025 C 0.11456 0.55449 0.73457 0.0
C1026 C 0.09869 0.53396 0.75521 0.0
C1027 C 0.10902 0.51469 0.80775 0.0
H1028 H 0.03104 0.87791 0.2751 0.0
H1029 H 1.01596 0.82729 0.48769 0.0
H1030 H 1.00996 0.86359 0.58579 0.0
H1031 H 0.067 0.92074 0.39222 0.0
H1032 H 0.05556 0.94822 0.33794 0.0
H1033 H 0.05554 0.91864 0.28238 0.0
H1034 H 1.00779 0.92243 0.25341 0.0
H1035 H 1.00821 0.95236 0.30666 0.0
H1036 H 0.98691 0.92844 0.34298 0.0
H1037 H 1.01117 0.90586 0.66495 0.0
H1038 H 1.01545 0.9495 0.71484 0.0
H1039 H 0.02882 0.97314 0.44994 0.0
C1040 C 0.02584 0.87441 0.34189 0.0
C1041 C 0.02382 0.84949 0.37327 0.0
C1042 C 1.0172 0.84597 0.46137 0.0
C1043 C 1.01399 0.86658 0.5178 0.0
C1044 C 1.01716 0.8908 0.48536 0.0
C1045 C 1.0225 0.89477 0.39885 0.0
C1046 C 0.02608 0.92252 0.38064 0.0
C1047 C 0.05262 0.92783 0.34627 0.0
C1048 C 1.00604 0.93198 0.31717 0.0
C1049 C 1.0224 0.93364 0.47069 0.0
C1050 C 1.01733 0.915 0.53024 0.0
C1051 C 1.01474 0.92052 0.61837 0.0
C1052 C 1.01734 0.94548 0.64626 0.0
C1053 C 1.02229 0.96504 0.58668 0.0
C1054 C 0.02463 0.95885 0.49734 0.0
H1055 H 0.6855 1.00593 0.28719 0.0
H1056 H 0.73718 0.04347 0.46228 0.0
H1057 H 0.7013 0.05509 0.55587 0.0
H1058 H 0.63244 0.04557 0.31028 0.0
H1059 H 0.61014 1.02027 0.30992 0.0
H1060 H 0.63942 1.01701 0.25312 0.0
H1061 H 0.64933 0.97706 0.34027 0.0
H1062 H 0.62001 0.98001 0.39679 0.0
H1063 H 0.64889 0.97804 0.45708 0.0
H1064 H 0.65823 0.06199 0.63304 0.0
H1065 H 0.61461 0.06094 0.6882 0.0
H1066 H 0.59289 1.01418 0.47105 0.0
C1067 C 0.6898 1.01614 0.3459 0.0
C1068 C 0.7149 0.02327 0.36684 0.0
C1069 C 0.71853 0.03776 0.44315 0.0
C1070 C 0.69812 0.04434 0.49737 0.0
C1071 C 0.67395 0.03618 0.47564 0.0
C1072 C 0.66988 1.02215 0.40181 0.0
C1073 C 0.64254 1.01423 0.39463 0.0
C1074 C 0.63043 0.02492 0.3121 0.0
C1075 C 0.64006 0.98564 0.39739 0.0
C1076 C 0.63162 0.02608 0.47581 0.0
C1077 C 0.6499 0.039 0.52129 0.0
C1078 C 0.64396 0.05181 0.59772 0.0
C1079 C 0.61902 0.0512 0.62852 0.0
C1080 C 0.60015 0.03747 0.58434 0.0
C1081 C 0.60678 0.02477 0.50685 0.0
H1082 H 0.50169 0.69326 0.30037 0.0
H1083 H 0.56683 0.72913 0.41392 0.0
H1084 H 0.57149 0.69349 0.51491 0.0
H1085 H 0.47754 0.66548 0.50333 0.0
H1086 H 0.46706 0.6374 0.44986 0.0
H1087 H 0.46786 0.66647 0.39127 0.0
H1088 H 0.49588 0.64595 0.27368 0.0
H1089 H 0.49518 0.61694 0.33247 0.0
H1090 H 0.52478 0.63119 0.30564 0.0
H1091 H 0.57158 0.65096 0.59459 0.0
H1092 H 0.56509 0.60828 0.65165 0.0
H1093 H 0.49887 0.60025 0.4916 0.0
C1094 C 0.51685 0.69387 0.34699 0.0
C1095 C 0.53394 0.71445 0.34818 0.0
C1096 C 0.55327 0.71411 0.41144 0.0
C1097 C 0.55617 0.69369 0.4689 0.0
C1098 C 0.53945 0.67353 0.46402 0.0
C1099 C 0.5199 0.67368 0.40534 0.0
C1100 C 0.50469 0.64955 0.41212 0.0
C1101 C 0.47768 0.65506 0.44085 0.0
C1102 C 0.50517 0.63506 0.32585 0.0
C1103 C 0.5189 0.63552 0.48262 0.0
C1104 C 0.53899 0.64965 0.51149 0.0
C1105 C 0.55568 0.64006 0.57289 0.0
C1106 C 0.55187 0.61566 0.605 0.0
C1107 C 0.53132 0.60081 0.57731 0.0
C1108 C 0.51449 0.61118 0.51566 0.0
H1109 H 0.86184 0.52859 0.30602 0.0
H1110 H 0.81916 0.57143 0.49262 0.0
H1111 H 0.85573 0.57124 0.5927 0.0
H1112 H 0.89757 0.49081 0.47101 0.0
H1113 H 0.92528 0.49066 0.40425 0.0
H1114 H 0.89472 0.49156 0.35447 0.0
H1115 H 0.90729 0.53152 0.27125 0.0
H1116 H 0.93764 0.53048 0.32115 0.0
H1117 H 0.91858 0.55819 0.33102 0.0
H1118 H 0.89975 0.5703 0.66527 0.0
H1119 H 0.94415 0.56547 0.70842 0.0
H1120 H 0.95835 0.5232 0.47361 0.0
C1121 C 0.85991 0.5373 0.36912 0.0
C1122 C 0.83731 0.5498 0.39152 0.0
C1123 C 0.8359 0.56133 0.47425 0.0
C1124 C 0.85678 0.5615 0.53121 0.0
C1125 C 0.87908 0.54984 0.50537 0.0
C1126 C 0.88048 0.53743 0.42687 0.0
C1127 C 0.90669 0.52697 0.41255 0.0
C1128 C 0.90602 0.4983 0.41045 0.0
C1129 C 0.91825 0.53747 0.32903 0.0
C1130 C 0.92037 0.53639 0.49308 0.0
C1131 C 0.90402 0.54925 0.54656 0.0
C1132 C 0.91245 0.55993 0.62413 0.0
C1133 C 0.93784 0.55706 0.6483 0.0
C1134 C 0.955 0.54373 0.59539 0.0
C1135 C 0.94593 0.53347 0.51612 0.0
loop_
_geom_bond_atom_site_label_1
_geom_bond_atom_site_label_2
_geom_bond_distance
_geom_bond_site_symmetry_2
_ccdc_geom_bond_type
H0 C1 0.949 . S
C1 H0 0.949 . S
C1 C2 1.395 . S
C1 C3 1.391 . S
C2 C1 1.395 . S
C2 C5 1.390 . S
C3 C1 1.391 . S
C3 C7 1.387 . S
C3 C8 1.491 . S
H4 C5 0.950 . S
C5 C2 1.390 . S
C5 H4 0.950 . S
C5 C6 1.378 . S
C6 C5 1.378 . S
C6 C7 1.409 . S
C7 C3 1.387 . S
C7 C6 1.409 . S
C7 H9 0.951 . S
C8 C3 1.491 . S
C8 C10 1.382 . S
C8 C12 1.404 . S
H9 C7 0.951 . S
C10 C8 1.382 . S
C10 C11 1.390 . S
C10 H15 0.949 . S
C11 C10 1.390 . S
C11 C16 1.399 . S
C12 C8 1.404 . S
C12 H13 0.950 . S
C12 C14 1.375 . S
H13 C12 0.950 . S
C14 C12 1.375 . S
C14 C16 1.382 . S
C14 H18 0.950 . S
H15 C10 0.949 . S
C16 C11 1.399 . S
C16 C14 1.382 . S
C16 H17 0.952 . S
H17 C16 0.952 . S
H18 C14 0.950 . S
H19 C20 0.949 . S
C20 H19 0.949 . S
C20 C21 1.395 . S
C20 C22 1.391 . S
C21 C20 1.395 . S
C21 C24 1.390 . S
C22 C20 1.391 . S
C22 C26 1.387 . S
C22 C27 1.491 . S
H23 C24 0.950 . S
C24 C21 1.390 . S
C24 H23 0.950 . S
C24 C25 1.378 . S
C25 C24 1.378 . S
C25 C26 1.409 . S
C26 C22 1.387 . S
C26 C25 1.409 . S
C26 H28 0.951 . S
C27 C22 1.491 . S
C27 C29 1.382 . S
C27 C31 1.404 . S
H28 C26 0.951 . S
C29 C27 1.382 . S
C29 C30 1.390 . S
C29 H34 0.949 . S
C30 C29 1.390 . S
C30 C35 1.399 . S
C31 C27 1.404 . S
C31 H32 0.950 . S
C31 C33 1.375 . S
H32 C31 0.950 . S
C33 C31 1.375 . S
C33 C35 1.382 . S
C33 H37 0.950 . S
H34 C29 0.949 . S
C35 C30 1.399 . S
C35 C33 1.382 . S
C35 H36 0.952 . S
H36 C35 0.952 . S
H37 C33 0.950 . S
H38 C39 0.949 . S
C39 H38 0.949 . S
C39 C40 1.395 . S
C39 C41 1.391 . S
C40 C39 1.395 . S
C40 C43 1.390 . S
C41 C39 1.391 . S
C41 C45 1.387 . S
C41 C46 1.491 . S
H42 C43 0.950 . S
C43 C40 1.390 . S
C43 H42 0.950 . S
C43 C44 1.378 . S
C44 C43 1.378 . S
C44 C45 1.409 . S
C45 C41 1.387 . S
C45 C44 1.409 . S
C45 H47 0.951 . S
C46 C41 1.491 . S
C46 C48 1.382 . S
C46 C50 1.404 . S
H47 C45 0.951 . S
C48 C46 1.382 . S
C48 C49 1.390 . S
C48 H53 0.949 . S
C49 C48 1.390 . S
C49 C54 1.399 . S
C50 C46 1.404 . S
C50 H51 0.950 . S
C50 C52 1.375 . S
H51 C50 0.950 . S
C52 C50 1.375 . S
C52 C54 1.382 . S
C52 H56 0.950 . S
H53 C48 0.949 . S
C54 C49 1.399 . S
C54 C52 1.382 . S
C54 H55 0.952 . S
H55 C54 0.952 . S
H56 C52 0.950 . S
H57 C58 0.949 . S
C58 H57 0.949 . S
C58 C59 1.395 . S
C58 C60 1.391 . S
C59 C58 1.395 . S
C59 C62 1.390 . S
C60 C58 1.391 . S
C60 C64 1.387 . S
C60 C65 1.491 . S
H61 C62 0.950 . S
C62 C59 1.390 . S
C62 H61 0.950 . S
C62 C63 1.378 . S
C63 C62 1.378 . S
C63 C64 1.409 . S
C64 C60 1.387 . S
C64 C63 1.409 . S
C64 H66 0.951 . S
C65 C60 1.491 . S
C65 C67 1.382 . S
C65 C69 1.404 . S
H66 C64 0.951 . S
C67 C65 1.382 . S
C67 C68 1.390 . S
C67 H72 0.949 . S
C68 C67 1.390 . S
C68 C73 1.399 . S
C69 C65 1.404 . S
C69 H70 0.950 . S
C69 C71 1.375 . S
H70 C69 0.950 . S
C71 C69 1.375 . S
C71 C73 1.382 . S
C71 H75 0.950 . S
H72 C67 0.949 . S
C73 C68 1.399 . S
C73 C71 1.382 . S
C73 H74 0.952 . S
H74 C73 0.952 . S
H75 C71 0.950 . S
H76 C77 0.949 . S
C77 H76 0.949 . S
C77 C78 1.395 . S
C77 C79 1.391 . S
C78 C77 1.395 . S
C78 C81 1.390 1_554 S
C79 C77 1.391 . S
C79 C83 1.387 1_554 S
C79 C84 1.491 . S
H80 C81 0.950 . S
C81 C78 1.390 1_556 S
C81 H80 0.950 . S
C81 C82 1.378 . S
C82 C81 1.378 . S
C82 C83 1.409 . S
C83 C79 1.387 1_556 S
C83 C82 1.409 . S
C83 H85 0.951 . S
C84 C79 1.491 . S
C84 C86 1.382 . S
C84 C88 1.404 1_554 S
H85 C83 0.951 . S
C86 C84 1.382 . S
C86 C87 1.390 . S
C86 H91 0.949 . S
C87 C86 1.390 . S
C87 C92 1.399 . S
C88 C84 1.404 1_556 S
C88 H89 0.950 . S
C88 C90 1.375 . S
H89 C88 0.950 . S
C90 C88 1.375 . S
C90 C92 1.382 1_556 S
C90 H94 0.950 . S
H91 C86 0.949 . S
C92 C87 1.399 . S
C92 C90 1.382 1_554 S
C92 H93 0.952 . S
H93 C92 0.952 . S
H94 C90 0.950 . S
H95 C96 0.949 . S
C96 H95 0.949 . S
C96 C97 1.395 . S
C96 C98 1.391 . S
C97 C96 1.395 . S
C97 C100 1.384 1_554 S
C98 C96 1.391 . S
C98 C102 1.387 1_554 S
C98 C103 1.491 . S
H99 C100 0.950 . S
C100 C97 1.384 1_556 S
C100 H99 0.950 . S
C100 C101 1.384 . S
C101 C100 1.384 . S
C101 C102 1.409 . S
C102 C98 1.387 1_556 S
C102 C101 1.409 . S
C102 H104 0.951 . S
C103 C98 1.491 . S
C103 C105 1.382 . S
C103 C107 1.404 1_554 S
H104 C102 0.951 . S
C105 C103 1.382 . S
C105 C106 1.390 . S
C105 H110 0.949 . S
C106 C105 1.390 . S
C106 C111 1.399 . S
C107 C103 1.404 1_556 S
C107 H108 0.949 1_455 S
C107 C109 1.375 . S
H108 C107 0.949 1_655 S
C109 C107 1.375 . S
C109 C111 1.382 1_556 S
C109 H113 0.950 1_455 S
H110 C105 0.949 . S
C111 C106 1.399 . S
C111 C109 1.382 1_554 S
C111 H112 0.952 . S
H112 C111 0.952 . S
H113 C109 0.950 1_655 S
H114 C115 0.949 . S
C115 H114 0.949 . S
C115 C116 1.395 . S
C115 C117 1.391 . S
C116 C115 1.395 . S
C116 C119 1.390 1_554 S
C117 C115 1.391 . S
C117 C121 1.387 1_554 S
C117 C122 1.491 . S
H118 C119 0.950 . S
C119 C116 1.390 1_556 S
C119 H118 0.950 . S
C119 C120 1.378 . S
C120 C119 1.378 . S
C120 C121 1.409 . S
C121 C117 1.387 1_556 S
C121 C120 1.409 . S
C121 H123 0.951 . S
C122 C117 1.491 . S
C122 C124 1.382 . S
C122 C126 1.404 1_554 S
H123 C121 0.951 . S
C124 C122 1.382 . S
C124 C125 1.390 . S
C124 H129 0.949 . S
C125 C124 1.390 . S
C125 C130 1.399 . S
C126 C122 1.404 1_556 S
C126 H127 0.950 . S
C126 C128 1.375 . S
H127 C126 0.950 . S
C128 C126 1.375 . S
C128 C130 1.382 1_556 S
C128 H132 0.950 1_545 S
H129 C124 0.949 . S
C130 C125 1.399 . S
C130 C128 1.382 1_554 S
C130 H131 0.952 . S
H131 C130 0.952 . S
H132 C128 0.950 1_565 S
H133 C134 0.949 . S
C134 H133 0.949 . S
C134 C135 1.395 . S
C134 C136 1.391 . S
C135 C134 1.395 . S
C135 C138 1.390 1_554 S
C136 C134 1.391 . S
C136 C140 1.387 1_554 S
C136 C141 1.491 . S
H137 C138 0.950 . S
C138 C135 1.390 1_556 S
C138 H137 0.950 . S
C138 C139 1.378 . S
C139 C138 1.378 . S
C139 C140 1.409 . S
C140 C136 1.387 1_556 S
C140 C139 1.409 . S
C140 H142 0.951 . S
C141 C136 1.491 . S
C141 C143 1.382 . S
C141 C145 1.404 1_554 S
H142 C140 0.951 . S
C143 C141 1.382 . S
C143 C144 1.390 . S
C143 H148 0.949 . S
C144 C143 1.390 . S
C144 C149 1.399 . S
C145 C141 1.404 1_556 S
C145 H146 0.950 . S
C145 C147 1.375 . S
H146 C145 0.950 . S
C147 C145 1.375 . S
C147 C149 1.382 1_556 S
C147 H151 0.950 . S
H148 C143 0.949 . S
C149 C144 1.399 . S
C149 C147 1.382 1_554 S
C149 H150 0.952 . S
H150 C149 0.952 . S
H151 C147 0.950 . S
Tb152 N181 2.617 . S
Tb152 N187 2.572 . S
Tb152 O196 2.465 1_655 S
Tb152 O197 2.387 1_545 S
Tb152 O199 2.428 . S
Tb152 O200 2.308 1_655 S
Tb152 O204 2.349 1_655 S
Tb152 O207 2.393 . S
Tb152 C216 2.802 . S
C153 N154 1.379 . S
C153 C156 1.416 . S
C153 C160 1.424 . S
N154 C153 1.379 . S
N154 C157 1.334 . S
N154 Tb163 2.617 1_545 S
C155 C157 1.390 . S
C155 C158 1.339 . S
C155 H175 0.930 . S
C156 C153 1.416 . S
C156 C158 1.416 . S
C156 C162 1.448 1_556 S
C157 N154 1.334 . S
C157 C155 1.390 . S
C157 H168 0.930 1_545 S
C158 C155 1.339 . S
C158 C156 1.416 . S
C158 H179 0.930 . S
C159 C160 1.413 1_554 S
C159 C161 1.427 . S
C159 C165 1.416 . S
C160 C153 1.424 . S
C160 C159 1.413 1_556 S
C160 N164 1.361 . S
C161 C159 1.427 . S
C161 C162 1.328 . S
C161 H176 0.929 . S
C162 C156 1.448 1_554 S
C162 C161 1.328 . S
C162 H177 0.930 . S
Tb163 N154 2.617 1_565 S
Tb163 N164 2.572 1_565 S
Tb163 O198 2.349 . S
Tb163 O201 2.398 . S
Tb163 O202 2.465 . S
Tb163 O203 2.387 1_565 S
Tb163 O205 2.428 . S
Tb163 O206 2.308 1_465 S
Tb163 C227 2.802 . S
N164 C160 1.361 . S
N164 Tb163 2.572 1_545 S
N164 C166 1.340 . S
C165 C159 1.416 . S
C165 C167 1.332 . S
C165 H173 0.931 . S
C166 N164 1.340 . S
C166 C167 1.407 1_556 S
C166 H172 0.930 1_455 S
C167 C165 1.332 . S
C167 C166 1.407 1_554 S
C167 H169 0.929 1_455 S
H168 C157 0.930 1_565 S
H169 C167 0.929 1_655 S
H170 C185 0.930 . S
H171 C192 0.929 . S
H172 C166 0.930 1_655 S
H173 C165 0.931 . S
H174 C188 0.930 . S
H175 C155 0.930 . S
H176 C161 0.929 . S
H177 C162 0.930 . S
H178 C183 0.930 . S
H179 C158 0.930 . S
H180 C191 0.931 . S
N181 Tb152 2.617 . S
N181 C182 1.379 . S
N181 C185 1.334 . S
C182 N181 1.379 . S
C182 C184 1.416 1_545 S
C182 C190 1.424 . S
C183 H178 0.930 . S
C183 C185 1.390 . S
C183 C186 1.339 1_545 S
C184 C182 1.416 1_565 S
C184 C186 1.416 . S
C184 C217 1.448 . S
C185 H170 0.930 . S
C185 N181 1.334 . S
C185 C183 1.390 . S
C186 C183 1.339 1_565 S
C186 C184 1.416 . S
C186 H193 0.930 . S
N187 Tb152 2.572 . S
N187 C188 1.340 1_655 S
N187 C190 1.361 . S
C188 H174 0.930 . S
C188 N187 1.340 1_455 S
C188 C192 1.407 1_545 S
C189 C190 1.413 1_565 S
C189 C191 1.416 . S
C189 C218 1.427 . S
C190 C182 1.424 . S
C190 N187 1.361 . S
C190 C189 1.413 1_545 S
C191 H180 0.931 . S
C191 C189 1.416 . S
C191 C192 1.332 1_655 S
C192 H171 0.929 . S
C192 C188 1.407 1_565 S
C192 C191 1.332 1_455 S
H193 C186 0.930 . S
H194 C217 0.930 . S
H195 C218 0.929 . S
O196 Tb152 2.465 1_455 S
O196 C216 1.264 1_455 S
O197 Tb152 2.387 1_565 S
O197 C208 1.264 . S
O198 Tb163 2.349 . S
O198 C208 1.243 1_455 S
O199 Tb152 2.428 . S
O199 C216 1.256 . S
O200 Tb152 2.308 1_455 S
O200 C215 1.266 . S
O201 Tb163 2.398 . S
O201 C215 1.224 1_565 S
O202 Tb163 2.465 . S
O202 C227 1.264 . S
O203 Tb163 2.387 1_545 S
O203 C219 1.264 . S
O204 Tb152 2.349 1_455 S
O204 C219 1.243 . S
O205 Tb163 2.428 . S
O205 C227 1.256 . S
O206 Tb163 2.308 1_645 S
O206 C226 1.266 . S
O207 Tb152 2.393 . S
O207 C226 1.248 . S
C208 O197 1.264 . S
C208 O198 1.243 1_655 S
C209 C212 1.399 . S
C209 C214 1.383 1_655 S
C209 C216 1.496 . S
C210 C211 1.399 . S
C210 C214 1.389 1_655 S
C211 C210 1.399 . S
C211 C213 1.380 . S
C211 H228 0.929 . S
C212 C209 1.399 . S
C212 C213 1.392 . S
C212 H229 0.929 . S
C213 C211 1.380 . S
C213 C212 1.392 . S
C213 H230 0.929 . S
C214 C209 1.383 1_455 S
C214 C210 1.389 1_455 S
C214 H231 0.931 . S
C215 O200 1.266 . S
C215 O201 1.224 1_545 S
C216 Tb152 2.802 . S
C216 O196 1.264 1_655 S
C216 O199 1.256 . S
C216 C209 1.496 . S
C217 C184 1.448 . S
C217 H194 0.930 . S
C217 C218 1.328 . S
C218 C189 1.427 . S
C218 H195 0.929 . S
C218 C217 1.328 . S
C219 O203 1.264 . S
C219 O204 1.243 . S
C220 C223 1.399 . S
C220 C224 1.383 . S
C220 C227 1.496 . S
C221 C222 1.399 . S
C221 C224 1.389 . S
C222 C221 1.399 . S
C222 C225 1.380 . S
C222 H232 0.929 1_556 S
C223 C220 1.399 . S
C223 C225 1.392 . S
C223 H233 0.929 . S
C224 C220 1.383 . S
C224 C221 1.389 . S
C224 H234 0.900 1_455 S
C225 C222 1.380 . S
C225 C223 1.392 . S
C225 H235 0.929 . S
C226 O206 1.266 . S
C226 O207 1.248 . S
C227 Tb163 2.802 . S
C227 O202 1.264 . S
C227 O205 1.256 . S
C227 C220 1.496 . S
H228 C211 0.929 . S
H229 C212 0.929 . S
H230 C213 0.929 . S
H231 C214 0.931 . S
H232 C222 0.929 1_554 S
H233 C223 0.929 . S
H234 C224 0.900 1_655 S
H235 C225 0.929 . S
Tb236 N265 2.617 . S
Tb236 N271 2.572 . S
Tb236 O280 2.465 . S
Tb236 O281 2.387 . S
Tb236 O283 2.428 . S
Tb236 O284 2.308 . S
Tb236 O288 2.349 1_545 S
Tb236 O291 2.393 . S
Tb236 C300 2.802 . S
C237 N238 1.379 . S
C237 C240 1.416 . S
C237 C244 1.424 . S
N238 C237 1.379 . S
N238 C241 1.334 . S
N238 Tb247 2.617 . S
C239 C241 1.390 . S
C239 C242 1.339 . S
C239 H259 0.930 . S
C240 C237 1.416 . S
C240 C242 1.416 . S
C240 C246 1.448 . S
C241 N238 1.334 . S
C241 C239 1.390 . S
C241 H252 0.930 . S
C242 C239 1.339 . S
C242 C240 1.416 . S
C242 H263 0.930 . S
C243 C244 1.413 . S
C243 C245 1.427 . S
C243 C249 1.416 . S
C244 C237 1.424 . S
C244 C243 1.413 . S
C244 N248 1.361 . S
C245 C243 1.427 . S
C245 C246 1.328 . S
C245 H260 0.929 . S
C246 C240 1.448 . S
C246 C245 1.328 . S
C246 H261 0.930 . S
Tb247 N238 2.617 . S
Tb247 N248 2.572 . S
Tb247 O282 2.349 1_565 S
Tb247 O285 2.393 . S
Tb247 O286 2.468 . S
Tb247 O287 2.387 . S
Tb247 O289 2.428 . S
Tb247 O290 2.308 1_565 S
Tb247 C311 2.802 . S
N248 C244 1.361 . S
N248 Tb247 2.572 . S
N248 C250 1.340 . S
C249 C243 1.416 . S
C249 C251 1.332 . S
C249 H257 0.931 . S
C250 N248 1.340 . S
C250 C251 1.407 . S
C250 H256 0.930 . S
C251 C249 1.332 . S
C251 C250 1.407 . S
C251 H253 0.929 . S
H252 C241 0.930 . S
H253 C251 0.929 . S
H254 C269 0.930 . S
H255 C276 0.929 . S
H256 C250 0.930 . S
H257 C249 0.931 . S
H258 C272 0.930 . S
H259 C239 0.930 . S
H260 C245 0.929 . S
H261 C246 0.930 . S
H262 C267 0.930 . S
H263 C242 0.930 . S
H264 C275 0.931 . S
N265 Tb236 2.617 . S
N265 C266 1.379 . S
N265 C269 1.334 . S
C266 N265 1.379 . S
C266 C268 1.416 . S
C266 C274 1.424 . S
C267 H262 0.930 . S
C267 C269 1.390 . S
C267 C270 1.339 . S
C268 C266 1.416 . S
C268 C270 1.416 . S
C268 C301 1.448 . S
C269 H254 0.930 . S
C269 N265 1.334 . S
C269 C267 1.390 . S
C270 C267 1.339 . S
C270 C268 1.416 . S
C270 H277 0.930 . S
N271 Tb236 2.572 . S
N271 C272 1.340 . S
N271 C274 1.361 . S
C272 H258 0.930 . S
C272 N271 1.340 . S
C272 C276 1.407 . S
C273 C274 1.413 . S
C273 C275 1.416 . S
C273 C302 1.427 . S
C274 C266 1.424 . S
C274 N271 1.361 . S
C274 C273 1.413 . S
C275 H264 0.931 . S
C275 C273 1.416 . S
C275 C276 1.332 . S
C276 H255 0.929 . S
C276 C272 1.407 . S
C276 C275 1.332 . S
H277 C270 0.930 . S
H278 C301 0.930 . S
H279 C302 0.929 . S
O280 Tb236 2.465 . S
O280 C300 1.264 . S
O281 Tb236 2.387 . S
O281 C292 1.264 . S
O282 Tb247 2.349 1_545 S
O282 C292 1.243 . S
O283 Tb236 2.428 . S
O283 C300 1.256 . S
O284 Tb236 2.308 . S
O284 C299 1.266 . S
O285 Tb247 2.393 . S
O285 C299 1.248 1_565 S
O286 Tb247 2.468 . S
O286 C311 1.265 . S
O287 Tb247 2.387 . S
O287 C303 1.264 . S
O288 Tb236 2.349 1_565 S
O288 C303 1.243 . S
O289 Tb247 2.428 . S
O289 C311 1.256 . S
O290 Tb247 2.308 1_545 S
O290 C310 1.266 . S
O291 Tb236 2.393 . S
O291 C310 1.248 . S
C292 O281 1.264 . S
C292 O282 1.243 . S
C293 C296 1.399 1_556 S
C293 C298 1.383 . S
C293 C300 1.496 . S
C294 C295 1.399 . S
C294 C298 1.389 1_554 S
C295 C294 1.399 . S
C295 C297 1.380 . S
C295 H312 0.929 . S
C296 C293 1.399 1_554 S
C296 C297 1.392 . S
C296 H313 0.929 . S
C297 C295 1.380 . S
C297 C296 1.392 . S
C297 H314 0.929 . S
C298 C293 1.383 . S
C298 C294 1.389 1_556 S
C298 H315 0.931 . S
C299 O284 1.266 . S
C299 O285 1.248 1_545 S
C300 Tb236 2.802 . S
C300 O280 1.264 . S
C300 O283 1.256 . S
C300 C293 1.496 . S
C301 C268 1.448 . S
C301 H278 0.930 . S
C301 C302 1.328 . S
C302 C273 1.427 . S
C302 H279 0.929 . S
C302 C301 1.328 . S
C303 O287 1.264 . S
C303 O288 1.243 . S
C304 C307 1.398 1_545 S
C304 C308 1.386 . S
C304 C311 1.495 1_545 S
C305 C306 1.399 . S
C305 C308 1.389 . S
C306 C305 1.399 . S
C306 C309 1.380 1_545 S
C306 H316 0.929 . S
C307 C304 1.398 1_565 S
C307 C309 1.392 . S
C307 H317 0.929 . S
C308 C304 1.386 . S
C308 C305 1.389 . S
C308 H318 0.931 . S
C309 C306 1.380 1_565 S
C309 C307 1.392 . S
C309 H319 0.929 . S
C310 O290 1.266 . S
C310 O291 1.248 . S
C311 Tb247 2.802 . S
C311 O286 1.265 . S
C311 O289 1.256 . S
C311 C304 1.495 1_565 S
H312 C295 0.929 . S
H313 C296 0.929 . S
H314 C297 0.929 . S
H315 C298 0.931 . S
H316 C306 0.929 . S
H317 C307 0.929 . S
H318 C308 0.931 . S
H319 C309 0.929 . S
Tb320 N349 2.617 . S
Tb320 N355 2.572 . S
Tb320 O364 2.465 . S
Tb320 O365 2.387 . S
Tb320 O367 2.428 . S
Tb320 O368 2.308 . S
Tb320 O372 2.349 . S
Tb320 O375 2.393 . S
Tb320 C384 2.802 . S
C321 N322 1.379 . S
C321 C324 1.416 . S
C321 C328 1.424 . S
N322 C321 1.379 . S
N322 C325 1.334 . S
N322 Tb331 2.617 . S
C323 C325 1.390 . S
C323 C326 1.339 . S
C323 H343 0.930 . S
C324 C321 1.416 . S
C324 C326 1.416 . S
C324 C330 1.448 1_556 S
C325 N322 1.334 . S
C325 C323 1.390 . S
C325 H336 0.930 . S
C326 C323 1.339 . S
C326 C324 1.416 . S
C326 H347 0.930 . S
C327 C328 1.413 1_554 S
C327 C329 1.427 . S
C327 C333 1.416 . S
C328 C321 1.424 . S
C328 C327 1.413 1_556 S
C328 N332 1.361 . S
C329 C327 1.427 . S
C329 C330 1.328 . S
C329 H344 0.929 . S
C330 C324 1.448 1_554 S
C330 C329 1.328 . S
C330 H345 0.930 . S
Tb331 N322 2.617 . S
Tb331 N332 2.572 . S
Tb331 O366 2.349 . S
Tb331 O369 2.393 . S
Tb331 O370 2.465 . S
Tb331 O371 2.387 . S
Tb331 O373 2.428 . S
Tb331 O374 2.308 . S
Tb331 C395 2.802 . S
N332 C328 1.361 . S
N332 Tb331 2.572 . S
N332 C334 1.340 . S
C333 C327 1.416 . S
C333 C335 1.332 . S
C333 H341 0.931 . S
C334 N332 1.340 . S
C334 C335 1.407 1_556 S
C334 H340 0.930 . S
C335 C333 1.332 . S
C335 C334 1.407 1_554 S
C335 H337 0.929 . S
H336 C325 0.930 . S
H337 C335 0.929 . S
H338 C353 0.930 . S
H339 C360 0.929 . S
H340 C334 0.930 . S
H341 C333 0.931 . S
H342 C356 0.930 . S
H343 C323 0.930 . S
H344 C329 0.929 . S
H345 C330 0.930 . S
H346 C351 0.930 . S
H347 C326 0.930 . S
H348 C359 0.931 . S
N349 Tb320 2.617 . S
N349 C350 1.379 . S
N349 C353 1.334 . S
C350 N349 1.379 . S
C350 C352 1.416 . S
C350 C358 1.424 . S
C351 H346 0.930 . S
C351 C353 1.390 . S
C351 C354 1.339 . S
C352 C350 1.416 . S
C352 C354 1.416 . S
C352 C385 1.448 . S
C353 H338 0.930 . S
C353 N349 1.334 . S
C353 C351 1.390 . S
C354 C351 1.339 . S
C354 C352 1.416 . S
C354 H361 0.930 . S
N355 Tb320 2.572 . S
N355 C356 1.340 . S
N355 C358 1.361 . S
C356 H342 0.930 . S
C356 N355 1.340 . S
C356 C360 1.407 . S
C357 C358 1.413 . S
C357 C359 1.416 . S
C357 C386 1.427 . S
C358 C350 1.424 . S
C358 N355 1.361 . S
C358 C357 1.413 . S
C359 H348 0.931 . S
C359 C357 1.416 . S
C359 C360 1.332 . S
C360 H339 0.929 . S
C360 C356 1.407 . S
C360 C359 1.332 . S
H361 C354 0.930 . S
H362 C385 0.930 . S
H363 C386 0.929 . S
O364 Tb320 2.465 . S
O364 C384 1.264 . S
O365 Tb320 2.387 . S
O365 C376 1.264 . S
O366 Tb331 2.349 . S
O366 C376 1.243 . S
O367 Tb320 2.428 . S
O367 C384 1.256 . S
O368 Tb320 2.308 . S
O368 C383 1.266 . S
O369 Tb331 2.393 . S
O369 C383 1.248 . S
O370 Tb331 2.465 . S
O370 C395 1.264 . S
O371 Tb331 2.387 . S
O371 C387 1.264 . S
O372 Tb320 2.349 . S
O372 C387 1.243 . S
O373 Tb331 2.428 . S
O373 C395 1.256 . S
O374 Tb331 2.308 . S
O374 C394 1.266 . S
O375 Tb320 2.393 . S
O375 C394 1.248 . S
C376 O365 1.264 . S
C376 O366 1.243 . S
C377 C380 1.399 . S
C377 C382 1.383 . S
C377 C384 1.496 . S
C378 C379 1.399 . S
C378 C382 1.389 . S
C379 C378 1.399 . S
C379 C381 1.380 . S
C379 H396 0.929 . S
C380 C377 1.399 . S
C380 C381 1.392 . S
C380 H397 0.929 . S
C381 C379 1.380 . S
C381 C380 1.392 . S
C381 H398 0.929 . S
C382 C377 1.383 . S
C382 C378 1.389 . S
C382 H399 0.931 . S
C383 O368 1.266 . S
C383 O369 1.248 . S
C384 Tb320 2.802 . S
C384 O364 1.264 . S
C384 O367 1.256 . S
C384 C377 1.496 . S
C385 C352 1.448 . S
C385 H362 0.930 . S
C385 C386 1.328 . S
C386 C357 1.427 . S
C386 H363 0.929 . S
C386 C385 1.328 . S
C387 O371 1.264 . S
C387 O372 1.243 . S
C388 C391 1.399 . S
C388 C392 1.383 . S
C388 C395 1.496 . S
C389 C390 1.399 . S
C389 C392 1.389 . S
C390 C389 1.399 . S
C390 C393 1.380 . S
C390 H400 0.929 1_556 S
C391 C388 1.399 . S
C391 C393 1.392 . S
C391 H401 0.929 . S
C392 C388 1.383 . S
C392 C389 1.389 . S
C392 H402 0.931 . S
C393 C390 1.380 . S
C393 C391 1.392 . S
C393 H403 0.929 . S
C394 O374 1.266 . S
C394 O375 1.248 . S
C395 Tb331 2.802 . S
C395 O370 1.264 . S
C395 O373 1.256 . S
C395 C388 1.496 . S
H396 C379 0.929 . S
H397 C380 0.929 . S
H398 C381 0.929 . S
H399 C382 0.931 . S
H400 C390 0.929 1_554 S
H401 C391 0.929 . S
H402 C392 0.931 . S
H403 C393 0.929 . S
Tb404 N433 2.617 . S
Tb404 N439 2.572 . S
Tb404 O448 2.465 . S
Tb404 O449 2.387 1_455 S
Tb404 O451 2.428 . S
Tb404 O452 2.308 . S
Tb404 O456 2.349 . S
Tb404 O459 2.393 . S
Tb404 C468 2.802 . S
C405 N406 1.379 . S
C405 C408 1.416 . S
C405 C412 1.424 . S
N406 C405 1.379 . S
N406 C409 1.334 1_455 S
N406 Tb415 2.617 1_455 S
C407 C409 1.390 1_455 S
C407 C410 1.339 . S
C407 H427 0.930 . S
C408 C405 1.416 . S
C408 C410 1.416 . S
C408 C414 1.448 1_556 S
C409 N406 1.334 1_655 S
C409 C407 1.390 1_655 S
C409 H420 0.930 . S
C410 C407 1.339 . S
C410 C408 1.416 . S
C410 H431 0.930 . S
C411 C412 1.413 1_554 S
C411 C413 1.427 . S
C411 C417 1.416 . S
C412 C405 1.424 . S
C412 C411 1.413 1_556 S
C412 N416 1.361 . S
C413 C411 1.427 . S
C413 C414 1.328 . S
C413 H428 0.929 . S
C414 C408 1.448 1_554 S
C414 C413 1.328 . S
C414 H429 0.930 . S
Tb415 N406 2.617 1_655 S
Tb415 N416 2.572 1_655 S
Tb415 O450 2.349 . S
Tb415 O453 2.393 . S
Tb415 O454 2.465 . S
Tb415 O455 2.387 1_655 S
Tb415 O457 2.428 . S
Tb415 O458 2.308 1_655 S
Tb415 C479 2.802 . S
N416 C412 1.361 . S
N416 Tb415 2.572 1_455 S
N416 C418 1.340 . S
C417 C411 1.416 . S
C417 C419 1.332 . S
C417 H425 0.931 . S
C418 N416 1.340 . S
C418 C419 1.407 1_556 S
C418 H424 0.930 . S
C419 C417 1.332 . S
C419 C418 1.407 1_554 S
C419 H421 0.929 . S
H420 C409 0.930 . S
H421 C419 0.929 . S
H422 C437 0.930 . S
H423 C444 0.929 . S
H424 C418 0.930 . S
H425 C417 0.931 . S
H426 C440 0.930 . S
H427 C407 0.930 . S
H428 C413 0.929 . S
H429 C414 0.930 . S
H430 C435 0.930 . S
H431 C410 0.930 . S
H432 C443 0.931 . S
N433 Tb404 2.617 . S
N433 C434 1.379 . S
N433 C437 1.334 . S
C434 N433 1.379 . S
C434 C436 1.416 1_455 S
C434 C442 1.424 1_455 S
C435 H430 0.930 . S
C435 C437 1.390 . S
C435 C438 1.339 1_455 S
C436 C434 1.416 1_655 S
C436 C438 1.416 . S
C436 C469 1.448 . S
C437 H422 0.930 . S
C437 N433 1.334 . S
C437 C435 1.390 . S
C438 C435 1.339 1_655 S
C438 C436 1.416 . S
C438 H445 0.930 . S
N439 Tb404 2.572 . S
N439 C440 1.340 . S
N439 C442 1.363 1_455 S
C440 H426 0.930 . S
C440 N439 1.340 . S
C440 C444 1.407 1_455 S
C441 C442 1.411 . S
C441 C443 1.416 . S
C441 C470 1.427 . S
C442 C434 1.424 1_655 S
C442 N439 1.363 1_655 S
C442 C441 1.411 . S
C443 H432 0.931 . S
C443 C441 1.416 . S
C443 C444 1.332 . S
C444 H423 0.929 . S
C444 C440 1.407 1_655 S
C444 C443 1.332 . S
H445 C438 0.930 . S
H446 C469 0.930 . S
H447 C470 0.929 . S
O448 Tb404 2.465 . S
O448 C468 1.264 . S
O449 Tb404 2.387 1_655 S
O449 C460 1.264 . S
O450 Tb415 2.349 . S
O450 C460 1.243 . S
O451 Tb404 2.428 . S
O451 C468 1.256 . S
O452 Tb404 2.308 . S
O452 C467 1.266 . S
O453 Tb415 2.393 . S
O453 C467 1.248 1_655 S
O454 Tb415 2.465 . S
O454 C479 1.264 . S
O455 Tb415 2.387 1_455 S
O455 C471 1.264 . S
O456 Tb404 2.349 . S
O456 C471 1.243 . S
O457 Tb415 2.428 . S
O457 C479 1.256 . S
O458 Tb415 2.308 1_455 S
O458 C478 1.266 . S
O459 Tb404 2.393 . S
O459 C478 1.248 . S
C460 O449 1.264 . S
C460 O450 1.243 . S
C461 C464 1.399 . S
C461 C466 1.383 . S
C461 C468 1.496 . S
C462 C463 1.399 . S
C462 C466 1.389 . S
C463 C462 1.399 . S
C463 C465 1.380 . S
C463 H480 0.929 . S
C464 C461 1.399 . S
C464 C465 1.392 . S
C464 H481 0.929 . S
C465 C463 1.380 . S
C465 C464 1.392 . S
C465 H482 0.929 . S
C466 C461 1.383 . S
C466 C462 1.389 . S
C466 H483 0.931 . S
C467 O452 1.266 . S
C467 O453 1.248 1_455 S
C468 Tb404 2.802 . S
C468 O448 1.264 . S
C468 O451 1.256 . S
C468 C461 1.496 . S
C469 C436 1.448 . S
C469 H446 0.930 . S
C469 C470 1.328 . S
C470 C441 1.427 . S
C470 H447 0.929 . S
C470 C469 1.328 . S
C471 O455 1.264 . S
C471 O456 1.243 . S
C472 C475 1.399 . S
C472 C476 1.383 . S
C472 C479 1.496 . S
C473 C474 1.399 . S
C473 C476 1.389 . S
C474 C473 1.399 . S
C474 C477 1.380 . S
C474 H484 0.929 1_556 S
C475 C472 1.399 . S
C475 C477 1.392 . S
C475 H485 0.929 . S
C476 C472 1.383 . S
C476 C473 1.389 . S
C476 H486 0.931 . S
C477 C474 1.380 . S
C477 C475 1.392 . S
C477 H487 0.929 . S
C478 O458 1.266 . S
C478 O459 1.248 . S
C479 Tb415 2.802 . S
C479 O454 1.264 . S
C479 O457 1.256 . S
C479 C472 1.496 . S
H480 C463 0.929 . S
H481 C464 0.929 . S
H482 C465 0.929 . S
H483 C466 0.931 . S
H484 C474 0.929 1_554 S
H485 C475 0.929 . S
H486 C476 0.931 . S
H487 C477 0.929 . S
H488 C500 0.930 . S
H489 C502 0.930 . S
H490 C503 0.930 . S
H491 C507 0.959 . S
H492 C507 0.959 . S
H493 C507 0.961 . S
H494 C508 0.970 . S
H495 C508 0.981 . S
H496 C508 0.934 1_545 S
H497 C511 0.929 . S
H498 C512 0.931 . S
H499 C514 0.930 1_565 S
C500 H488 0.930 . S
C500 C501 1.399 . S
C500 C505 1.399 . S
C501 C500 1.399 . S
C501 C502 1.376 . S
C502 H489 0.930 . S
C502 C501 1.376 . S
C502 C503 1.388 . S
C503 H490 0.930 . S
C503 C502 1.388 . S
C503 C504 1.390 . S
C504 C503 1.390 . S
C504 C505 1.394 . S
C504 C510 1.465 . S
C505 C500 1.399 . S
C505 C504 1.394 . S
C505 C506 1.516 . S
C506 C505 1.516 . S
C506 C507 1.502 1_545 S
C506 C508 1.557 1_545 S
C506 C509 1.526 . S
C507 H491 0.959 . S
C507 H492 0.959 . S
C507 H493 0.961 . S
C507 C506 1.502 1_565 S
C508 H494 0.970 . S
C508 H495 0.981 . S
C508 H496 0.934 1_565 S
C508 C506 1.557 1_565 S
C509 C506 1.526 . S
C509 C510 1.396 . S
C509 C514 1.390 . S
C510 C504 1.465 . S
C510 C509 1.396 . S
C510 C511 1.399 . S
C511 H497 0.929 . S
C511 C510 1.399 . S
C511 C512 1.385 . S
C512 H498 0.931 . S
C512 C511 1.385 . S
C512 C513 1.389 . S
C513 C512 1.389 . S
C513 C514 1.387 . S
C514 H499 0.930 1_545 S
C514 C509 1.390 . S
C514 C513 1.387 . S
H515 C527 0.930 . S
H516 C529 0.930 . S
H517 C530 0.930 . S
H518 C534 0.959 . S
H519 C534 0.959 . S
H520 C534 0.961 . S
H521 C535 0.960 . S
H522 C535 0.961 . S
H523 C535 0.959 . S
H524 C538 0.929 . S
H525 C539 0.931 . S
H526 C541 0.930 . S
C527 H515 0.930 . S
C527 C528 1.399 . S
C527 C532 1.399 . S
C528 C527 1.399 . S
C528 C529 1.376 . S
C529 H516 0.930 . S
C529 C528 1.376 . S
C529 C530 1.388 . S
C530 H517 0.930 . S
C530 C529 1.388 . S
C530 C531 1.390 . S
C531 C530 1.390 . S
C531 C532 1.394 . S
C531 C537 1.465 . S
C532 C527 1.399 . S
C532 C531 1.394 . S
C532 C533 1.516 . S
C533 C532 1.516 . S
C533 C534 1.502 . S
C533 C535 1.561 . S
C533 C536 1.526 . S
C534 H518 0.959 . S
C534 H519 0.959 . S
C534 H520 0.961 . S
C534 C533 1.502 . S
C535 H521 0.960 . S
C535 H522 0.961 . S
C535 H523 0.959 . S
C535 C533 1.561 . S
C536 C533 1.526 . S
C536 C537 1.396 . S
C536 C541 1.390 . S
C537 C531 1.465 . S
C537 C536 1.396 . S
C537 C538 1.399 . S
C538 H524 0.929 . S
C538 C537 1.399 . S
C538 C539 1.385 . S
C539 H525 0.931 . S
C539 C538 1.385 . S
C539 C540 1.389 . S
C540 C539 1.389 . S
C540 C541 1.387 . S
C541 H526 0.930 . S
C541 C536 1.390 . S
C541 C540 1.387 . S
H542 C554 0.930 . S
H543 C556 0.930 . S
H544 C557 0.930 . S
H545 C561 0.959 . S
H546 C561 0.959 . S
H547 C561 0.961 . S
H548 C562 0.960 . S
H549 C562 0.961 . S
H550 C562 0.959 . S
H551 C565 0.929 . S
H552 C566 0.931 . S
H553 C568 0.930 . S
C554 H542 0.930 . S
C554 C555 1.399 . S
C554 C559 1.399 . S
C555 C554 1.399 . S
C555 C556 1.376 . S
C556 H543 0.930 . S
C556 C555 1.376 . S
C556 C557 1.388 . S
C557 H544 0.930 . S
C557 C556 1.388 . S
C557 C558 1.390 . S
C558 C557 1.390 . S
C558 C559 1.394 . S
C558 C564 1.465 . S
C559 C554 1.399 . S
C559 C558 1.394 . S
C559 C560 1.516 . S
C560 C559 1.516 . S
C560 C561 1.502 . S
C560 C562 1.561 . S
C560 C563 1.526 . S
C561 H545 0.959 . S
C561 H546 0.959 . S
C561 H547 0.961 . S
C561 C560 1.502 . S
C562 H548 0.960 . S
C562 H549 0.961 . S
C562 H550 0.959 . S
C562 C560 1.561 . S
C563 C560 1.526 . S
C563 C564 1.396 . S
C563 C568 1.390 . S
C564 C558 1.465 . S
C564 C563 1.396 . S
C564 C565 1.399 . S
C565 H551 0.929 . S
C565 C564 1.399 . S
C565 C566 1.385 . S
C566 H552 0.931 . S
C566 C565 1.385 . S
C566 C567 1.389 . S
C567 C566 1.389 . S
C567 C568 1.387 . S
C568 H553 0.930 . S
C568 C563 1.390 . S
C568 C567 1.387 . S
H569 C581 0.930 . S
H570 C583 0.930 1_655 S
H571 C584 0.970 . S
H572 C588 0.959 . S
H573 C588 0.959 . S
H574 C588 0.961 . S
H575 C589 0.960 . S
H576 C589 0.961 . S
H577 C589 0.959 . S
H578 C592 0.929 . S
H579 C593 0.931 . S
H580 C595 0.930 . S
C581 H569 0.930 . S
C581 C582 1.399 . S
C581 C586 1.399 . S
C582 C581 1.399 . S
C582 C583 1.376 . S
C583 H570 0.930 1_455 S
C583 C582 1.376 . S
C583 C584 1.375 1_455 S
C584 H571 0.970 . S
C584 C583 1.375 1_655 S
C584 C585 1.364 1_655 S
C585 C584 1.364 1_455 S
C585 C586 1.394 . S
C585 C591 1.465 . S
C586 C581 1.399 . S
C586 C585 1.394 . S
C586 C587 1.516 . S
C587 C586 1.516 . S
C587 C588 1.502 . S
C587 C589 1.561 . S
C587 C590 1.526 . S
C588 H572 0.959 . S
C588 H573 0.959 . S
C588 H574 0.961 . S
C588 C587 1.502 . S
C589 H575 0.960 . S
C589 H576 0.961 . S
C589 H577 0.959 . S
C589 C587 1.561 . S
C590 C587 1.526 . S
C590 C591 1.396 . S
C590 C595 1.390 . S
C591 C585 1.465 . S
C591 C590 1.396 . S
C591 C592 1.399 1_455 S
C592 H578 0.929 . S
C592 C591 1.399 1_655 S
C592 C593 1.385 . S
C593 H579 0.931 . S
C593 C592 1.385 . S
C593 C594 1.389 1_655 S
C594 C593 1.389 1_455 S
C594 C595 1.387 . S
C595 H580 0.930 . S
C595 C590 1.390 . S
C595 C594 1.387 . S
H596 C608 0.930 . S
H597 C610 0.930 . S
H598 C611 0.930 . S
H599 C615 0.959 . S
H600 C615 0.959 . S
H601 C615 0.961 . S
H602 C616 0.960 . S
H603 C616 0.961 . S
H604 C616 0.959 . S
H605 C619 0.929 . S
H606 C620 0.931 . S
H607 C622 0.930 . S
C608 H596 0.930 . S
C608 C609 1.399 1_545 S
C608 C613 1.399 . S
C609 C608 1.399 1_565 S
C609 C610 1.376 . S
C610 H597 0.930 . S
C610 C609 1.376 . S
C610 C611 1.388 . S
C611 H598 0.930 . S
C611 C610 1.388 . S
C611 C612 1.390 . S
C612 C611 1.390 . S
C612 C613 1.394 1_565 S
C612 C618 1.465 1_554 S
C613 C608 1.399 . S
C613 C612 1.394 1_545 S
C613 C614 1.516 . S
C614 C613 1.516 . S
C614 C615 1.502 1_554 S
C614 C616 1.561 . S
C614 C617 1.526 1_554 S
C615 H599 0.959 . S
C615 H600 0.959 . S
C615 H601 0.961 . S
C615 C614 1.502 1_556 S
C616 H602 0.960 . S
C616 H603 0.961 . S
C616 H604 0.959 . S
C616 C614 1.561 . S
C617 C614 1.526 1_556 S
C617 C618 1.396 1_545 S
C617 C622 1.390 . S
C618 C612 1.465 1_556 S
C618 C617 1.396 1_565 S
C618 C619 1.399 . S
C619 H605 0.929 . S
C619 C618 1.399 . S
C619 C620 1.385 . S
C620 H606 0.931 . S
C620 C619 1.385 . S
C620 C621 1.389 . S
C621 C620 1.389 . S
C621 C622 1.387 1_565 S
C622 H607 0.930 . S
C622 C617 1.390 . S
C622 C621 1.387 1_545 S
H623 C635 0.930 . S
H624 C637 0.930 . S
H625 C638 0.930 . S
H626 C642 0.959 . S
H627 C642 0.959 . S
H628 C642 0.961 . S
H629 C643 0.960 . S
H630 C643 0.961 . S
H631 C643 0.959 . S
H632 C646 0.929 1_554 S
H633 C647 0.931 . S
H634 C649 0.930 . S
C635 H623 0.930 . S
C635 C636 1.399 . S
C635 C640 1.399 . S
C636 C635 1.399 . S
C636 C637 1.376 . S
C637 H624 0.930 . S
C637 C636 1.376 . S
C637 C638 1.388 . S
C638 H625 0.930 . S
C638 C637 1.388 . S
C638 C639 1.390 . S
C639 C638 1.390 . S
C639 C640 1.394 . S
C639 C645 1.465 1_554 S
C640 C635 1.399 . S
C640 C639 1.394 . S
C640 C641 1.516 1_554 S
C641 C640 1.516 1_556 S
C641 C642 1.502 . S
C641 C643 1.561 . S
C641 C644 1.526 . S
C642 H626 0.959 . S
C642 H627 0.959 . S
C642 H628 0.961 . S
C642 C641 1.502 . S
C643 H629 0.960 . S
C643 H630 0.961 . S
C643 H631 0.959 . S
C643 C641 1.561 . S
C644 C641 1.526 . S
C644 C645 1.396 . S
C644 C649 1.390 . S
C645 C639 1.465 1_556 S
C645 C644 1.396 . S
C645 C646 1.399 . S
C646 H632 0.929 1_556 S
C646 C645 1.399 . S
C646 C647 1.385 . S
C647 H633 0.931 . S
C647 C646 1.385 . S
C647 C648 1.389 . S
C648 C647 1.389 . S
C648 C649 1.387 . S
C649 H634 0.930 . S
C649 C644 1.390 . S
C649 C648 1.387 . S
H650 C662 0.930 . S
H651 C664 0.930 . S
H652 C665 0.930 . S
H653 C669 0.959 . S
H654 C669 0.959 . S
H655 C669 0.961 . S
H656 C670 0.960 . S
H657 C670 0.961 . S
H658 C670 0.959 . S
H659 C673 0.929 . S
H660 C674 0.931 . S
H661 C676 0.930 . S
C662 H650 0.930 . S
C662 C663 1.399 . S
C662 C667 1.399 . S
C663 C662 1.399 . S
C663 C664 1.376 . S
C664 H651 0.930 . S
C664 C663 1.376 . S
C664 C665 1.388 . S
C665 H652 0.930 . S
C665 C664 1.388 . S
C665 C666 1.390 . S
C666 C665 1.390 . S
C666 C667 1.394 . S
C666 C672 1.465 1_554 S
C667 C662 1.399 . S
C667 C666 1.394 . S
C667 C668 1.516 . S
C668 C667 1.516 . S
C668 C669 1.502 1_554 S
C668 C670 1.561 . S
C668 C671 1.526 1_554 S
C669 H653 0.959 . S
C669 H654 0.959 . S
C669 H655 0.961 . S
C669 C668 1.502 1_556 S
C670 H656 0.960 . S
C670 H657 0.961 . S
C670 H658 0.959 . S
C670 C668 1.561 . S
C671 C668 1.526 1_556 S
C671 C672 1.396 . S
C671 C676 1.390 . S
C672 C666 1.465 1_556 S
C672 C671 1.396 . S
C672 C673 1.399 . S
C673 H659 0.929 . S
C673 C672 1.399 . S
C673 C674 1.385 . S
C674 H660 0.931 . S
C674 C673 1.385 . S
C674 C675 1.389 . S
C675 C674 1.389 . S
C675 C676 1.387 . S
C676 H661 0.930 . S
C676 C671 1.390 . S
C676 C675 1.387 . S
H677 C689 0.930 . S
H678 C691 0.930 . S
H679 C692 0.930 . S
H680 C696 0.959 . S
H681 C696 0.959 . S
H682 C696 0.961 . S
H683 C697 0.960 . S
H684 C697 0.961 . S
H685 C697 0.959 . S
H686 C700 0.929 1_554 S
H687 C701 0.931 . S
H688 C703 0.930 . S
C689 H677 0.930 . S
C689 C690 1.399 . S
C689 C694 1.399 . S
C690 C689 1.399 . S
C690 C691 1.376 1_655 S
C691 H678 0.930 . S
C691 C690 1.376 1_455 S
C691 C692 1.388 . S
C692 H679 0.930 . S
C692 C691 1.388 . S
C692 C693 1.396 . S
C693 C692 1.396 . S
C693 C694 1.384 1_455 S
C693 C699 1.467 1_554 S
C694 C689 1.399 . S
C694 C693 1.384 1_655 S
C694 C695 1.516 1_554 S
C695 C694 1.516 1_556 S
C695 C696 1.502 . S
C695 C697 1.561 . S
C695 C698 1.526 . S
C696 H680 0.959 . S
C696 H681 0.959 . S
C696 H682 0.961 . S
C696 C695 1.502 . S
C697 H683 0.960 . S
C697 H684 0.961 . S
C697 H685 0.959 . S
C697 C695 1.561 . S
C698 C695 1.526 . S
C698 C699 1.396 1_655 S
C698 C703 1.390 . S
C699 C693 1.467 1_556 S
C699 C698 1.396 1_455 S
C699 C700 1.399 . S
C700 H686 0.929 1_556 S
C700 C699 1.399 . S
C700 C701 1.385 . S
C701 H687 0.931 . S
C701 C700 1.385 . S
C701 C702 1.413 . S
C702 C701 1.413 . S
C702 C703 1.365 1_455 S
C703 H688 0.930 . S
C703 C698 1.390 . S
C703 C702 1.365 1_655 S
H704 C716 0.930 . S
H705 C718 0.911 1_655 S
H706 C719 0.930 . S
H707 C723 0.959 . S
H708 C723 0.959 . S
H709 C723 0.961 . S
H710 C724 0.960 . S
H711 C724 0.961 . S
H712 C724 0.959 . S
H713 C727 0.929 . S
H714 C728 0.931 . S
H715 C730 0.930 . S
C716 H704 0.930 . S
C716 C717 1.399 . S
C716 C721 1.399 . S
C717 C716 1.399 . S
C717 C718 1.376 . S
C718 H705 0.911 1_455 S
C718 C717 1.376 . S
C718 C719 1.388 1_455 S
C719 H706 0.930 . S
C719 C718 1.388 1_655 S
C719 C720 1.390 1_655 S
C720 C719 1.390 1_455 S
C720 C721 1.394 . S
C720 C726 1.465 . S
C721 C716 1.399 . S
C721 C720 1.394 . S
C721 C722 1.516 . S
C722 C721 1.516 . S
C722 C723 1.502 . S
C722 C724 1.561 . S
C722 C725 1.526 . S
C723 H707 0.959 . S
C723 H708 0.959 . S
C723 H709 0.961 . S
C723 C722 1.502 . S
C724 H710 0.960 . S
C724 H711 0.961 . S
C724 H712 0.959 . S
C724 C722 1.561 . S
C725 C722 1.526 . S
C725 C726 1.396 . S
C725 C730 1.390 . S
C726 C720 1.465 . S
C726 C725 1.396 . S
C726 C727 1.399 1_455 S
C727 H713 0.929 . S
C727 C726 1.399 1_655 S
C727 C728 1.385 . S
C728 H714 0.931 . S
C728 C727 1.385 . S
C728 C729 1.389 1_655 S
C729 C728 1.389 1_455 S
C729 C730 1.387 . S
C730 H715 0.930 . S
C730 C725 1.390 . S
C730 C729 1.387 . S
H731 C743 0.930 . S
H732 C745 0.930 . S
H733 C746 0.930 1_565 S
H734 C750 0.959 . S
H735 C750 0.959 . S
H736 C750 0.961 . S
H737 C751 0.960 . S
H738 C751 0.961 . S
H739 C751 0.959 . S
H740 C754 0.929 . S
H741 C755 0.931 . S
H742 C757 0.930 . S
C743 H731 0.930 . S
C743 C744 1.399 . S
C743 C748 1.399 . S
C744 C743 1.399 . S
C744 C745 1.376 . S
C745 H732 0.930 . S
C745 C744 1.376 . S
C745 C746 1.388 . S
C746 H733 0.930 1_545 S
C746 C745 1.388 . S
C746 C747 1.390 . S
C747 C746 1.390 . S
C747 C748 1.394 . S
C747 C753 1.465 . S
C748 C743 1.399 . S
C748 C747 1.394 . S
C748 C749 1.516 . S
C749 C748 1.516 . S
C749 C750 1.502 . S
C749 C751 1.561 . S
C749 C752 1.526 . S
C750 H734 0.959 . S
C750 H735 0.959 . S
C750 H736 0.961 . S
C750 C749 1.502 . S
C751 H737 0.960 . S
C751 H738 0.961 . S
C751 H739 0.959 . S
C751 C749 1.561 . S
C752 C749 1.526 . S
C752 C753 1.396 . S
C752 C757 1.390 . S
C753 C747 1.465 . S
C753 C752 1.396 . S
C753 C754 1.399 1_545 S
C754 H740 0.929 . S
C754 C753 1.399 1_565 S
C754 C755 1.385 . S
C755 H741 0.931 . S
C755 C754 1.385 . S
C755 C756 1.389 1_565 S
C756 C755 1.389 1_545 S
C756 C757 1.387 . S
C757 H742 0.930 . S
C757 C752 1.390 . S
C757 C756 1.387 . S
H758 C770 0.930 . S
H759 C772 0.930 . S
H760 C773 0.930 . S
H761 C777 0.959 . S
H762 C777 0.959 . S
H763 C777 0.961 . S
H764 C778 0.960 . S
H765 C778 0.961 . S
H766 C778 0.959 . S
H767 C781 0.929 . S
H768 C782 0.931 . S
H769 C784 0.930 . S
C770 H758 0.930 . S
C770 C771 1.399 . S
C770 C775 1.399 . S
C771 C770 1.399 . S
C771 C772 1.376 . S
C772 H759 0.930 . S
C772 C771 1.376 . S
C772 C773 1.388 . S
C773 H760 0.930 . S
C773 C772 1.388 . S
C773 C774 1.390 . S
C774 C773 1.390 . S
C774 C775 1.394 . S
C774 C780 1.465 . S
C775 C770 1.399 . S
C775 C774 1.394 . S
C775 C776 1.516 . S
C776 C775 1.516 . S
C776 C777 1.502 . S
C776 C778 1.561 . S
C776 C779 1.526 . S
C777 H761 0.959 . S
C777 H762 0.959 . S
C777 H763 0.961 . S
C777 C776 1.502 . S
C778 H764 0.960 . S
C778 H765 0.961 . S
C778 H766 0.959 . S
C778 C776 1.561 . S
C779 C776 1.526 . S
C779 C780 1.396 . S
C779 C784 1.390 . S
C780 C774 1.465 . S
C780 C779 1.396 . S
C780 C781 1.399 . S
C781 H767 0.929 . S
C781 C780 1.399 . S
C781 C782 1.385 . S
C782 H768 0.931 . S
C782 C781 1.385 . S
C782 C783 1.389 . S
C783 C782 1.389 . S
C783 C784 1.387 . S
C784 H769 0.930 . S
C784 C779 1.390 . S
C784 C783 1.387 . S
H785 C797 0.930 . S
H786 C799 0.930 . S
H787 C800 0.930 . S
H788 C804 0.959 . S
H789 C804 0.959 . S
H790 C804 0.961 . S
H791 C805 0.960 . S
H792 C805 0.961 . S
H793 C805 0.959 . S
H794 C808 0.929 . S
H795 C809 0.931 . S
H796 C811 0.930 . S
C797 H785 0.930 . S
C797 C798 1.399 . S
C797 C802 1.399 . S
C798 C797 1.399 . S
C798 C799 1.376 . S
C799 H786 0.930 . S
C799 C798 1.376 . S
C799 C800 1.388 . S
C800 H787 0.930 . S
C800 C799 1.388 . S
C800 C801 1.390 . S
C801 C800 1.390 . S
C801 C802 1.394 . S
C801 C807 1.465 . S
C802 C797 1.399 . S
C802 C801 1.394 . S
C802 C803 1.516 . S
C803 C802 1.516 . S
C803 C804 1.502 . S
C803 C805 1.561 . S
C803 C806 1.526 . S
C804 H788 0.959 . S
C804 H789 0.959 . S
C804 H790 0.961 . S
C804 C803 1.502 . S
C805 H791 0.960 . S
C805 H792 0.961 . S
C805 H793 0.959 . S
C805 C803 1.561 . S
C806 C803 1.526 . S
C806 C807 1.396 . S
C806 C811 1.390 . S
C807 C801 1.465 . S
C807 C806 1.396 . S
C807 C808 1.399 . S
C808 H794 0.929 . S
C808 C807 1.399 . S
C808 C809 1.385 . S
C809 H795 0.931 . S
C809 C808 1.385 . S
C809 C810 1.389 . S
C810 C809 1.389 . S
C810 C811 1.387 . S
C811 H796 0.930 . S
C811 C806 1.390 . S
C811 C810 1.387 . S
H812 C824 0.930 . S
H813 C826 0.924 1_455 S
H814 C827 0.930 . S
H815 C831 0.959 . S
H816 C831 0.959 . S
H817 C831 0.961 . S
H818 C832 0.960 . S
H819 C832 0.961 . S
H820 C832 0.959 1_455 S
H821 C835 0.929 . S
H822 C836 0.931 . S
H823 C838 0.930 . S
C824 H812 0.930 . S
C824 C825 1.399 . S
C824 C829 1.399 . S
C825 C824 1.399 . S
C825 C826 1.376 . S
C826 H813 0.924 1_655 S
C826 C825 1.376 . S
C826 C827 1.388 1_655 S
C827 H814 0.930 . S
C827 C826 1.388 1_455 S
C827 C828 1.390 1_455 S
C828 C827 1.390 1_655 S
C828 C829 1.394 . S
C828 C834 1.465 1_655 S
C829 C824 1.399 . S
C829 C828 1.394 . S
C829 C830 1.516 . S
C830 C829 1.516 . S
C830 C831 1.502 . S
C830 C832 1.561 . S
C830 C833 1.526 . S
C831 H815 0.959 . S
C831 H816 0.959 . S
C831 H817 0.961 . S
C831 C830 1.502 . S
C832 H818 0.960 . S
C832 H819 0.961 . S
C832 H820 0.959 1_655 S
C832 C830 1.561 . S
C833 C830 1.526 . S
C833 C834 1.396 1_655 S
C833 C838 1.390 . S
C834 C828 1.465 1_455 S
C834 C833 1.396 1_455 S
C834 C835 1.399 1_554 S
C835 H821 0.929 . S
C835 C834 1.399 1_556 S
C835 C836 1.385 . S
C836 H822 0.931 . S
C836 C835 1.385 . S
C836 C837 1.389 . S
C837 C836 1.389 . S
C837 C838 1.387 1_456 S
C838 H823 0.930 . S
C838 C833 1.390 . S
C838 C837 1.387 1_654 S
H839 C851 0.930 . S
H840 C853 0.930 . S
H841 C854 0.930 . S
H842 C858 0.959 1_556 S
H843 C858 0.959 1_556 S
H844 C858 0.961 . S
H845 C859 0.960 . S
H846 C859 0.961 . S
H847 C859 0.959 . S
H848 C862 0.929 . S
H849 C863 0.931 . S
H850 C865 0.930 1_556 S
C851 H839 0.930 . S
C851 C852 1.399 . S
C851 C856 1.399 . S
C852 C851 1.399 . S
C852 C853 1.376 1_565 S
C853 H840 0.930 . S
C853 C852 1.376 1_545 S
C853 C854 1.388 . S
C854 H841 0.930 . S
C854 C853 1.388 . S
C854 C855 1.390 . S
C855 C854 1.390 . S
C855 C856 1.394 1_545 S
C855 C861 1.465 . S
C856 C851 1.399 . S
C856 C855 1.394 1_565 S
C856 C857 1.516 . S
C857 C856 1.516 . S
C857 C858 1.502 . S
C857 C859 1.561 . S
C857 C860 1.526 . S
C858 H842 0.959 1_554 S
C858 H843 0.959 1_554 S
C858 H844 0.961 . S
C858 C857 1.502 . S
C859 H845 0.960 . S
C859 H846 0.961 . S
C859 H847 0.959 . S
C859 C857 1.561 . S
C860 C857 1.526 . S
C860 C861 1.396 1_565 S
C860 C865 1.390 . S
C861 C855 1.465 . S
C861 C860 1.396 1_545 S
C861 C862 1.399 . S
C862 H848 0.929 . S
C862 C861 1.399 . S
C862 C863 1.385 . S
C863 H849 0.931 . S
C863 C862 1.385 . S
C863 C864 1.389 . S
C864 C863 1.389 . S
C864 C865 1.387 1_545 S
C865 H850 0.930 1_554 S
C865 C860 1.390 . S
C865 C864 1.387 1_565 S
H866 C878 0.930 . S
H867 C880 0.930 . S
H868 C881 0.930 . S
H869 C885 0.959 . S
H870 C885 0.959 . S
H871 C885 0.961 . S
H872 C886 0.960 . S
H873 C886 0.961 . S
H874 C886 0.959 . S
H875 C889 0.929 . S
H876 C890 0.931 . S
H877 C892 0.930 . S
C878 H866 0.930 . S
C878 C879 1.399 . S
C878 C883 1.399 . S
C879 C878 1.399 . S
C879 C880 1.376 . S
C880 H867 0.930 . S
C880 C879 1.376 . S
C880 C881 1.388 . S
C881 H868 0.930 . S
C881 C880 1.388 . S
C881 C882 1.390 . S
C882 C881 1.390 . S
C882 C883 1.394 . S
C882 C888 1.465 . S
C883 C878 1.399 . S
C883 C882 1.394 . S
C883 C884 1.516 . S
C884 C883 1.516 . S
C884 C885 1.502 . S
C884 C886 1.561 . S
C884 C887 1.526 . S
C885 H869 0.959 . S
C885 H870 0.959 . S
C885 H871 0.961 . S
C885 C884 1.502 . S
C886 H872 0.960 . S
C886 H873 0.961 . S
C886 H874 0.959 . S
C886 C884 1.561 . S
C887 C884 1.526 . S
C887 C888 1.396 . S
C887 C892 1.390 . S
C888 C882 1.465 . S
C888 C887 1.396 . S
C888 C889 1.399 1_554 S
C889 H875 0.929 . S
C889 C888 1.399 1_556 S
C889 C890 1.385 . S
C890 H876 0.931 . S
C890 C889 1.385 . S
C890 C891 1.389 . S
C891 C890 1.389 . S
C891 C892 1.387 1_556 S
C892 H877 0.930 . S
C892 C887 1.390 . S
C892 C891 1.387 1_554 S
H893 C905 0.930 . S
H894 C907 0.930 . S
H895 C908 0.930 . S
H896 C912 0.959 . S
H897 C912 0.959 . S
H898 C912 0.961 . S
H899 C913 0.960 . S
H900 C913 0.961 1_556 S
H901 C913 0.959 1_556 S
H902 C916 0.929 . S
H903 C917 0.931 . S
H904 C919 0.930 1_556 S
C905 H893 0.930 . S
C905 C906 1.399 . S
C905 C910 1.399 . S
C906 C905 1.399 . S
C906 C907 1.376 . S
C907 H894 0.930 . S
C907 C906 1.376 . S
C907 C908 1.388 . S
C908 H895 0.930 . S
C908 C907 1.388 . S
C908 C909 1.390 . S
C909 C908 1.390 . S
C909 C910 1.394 . S
C909 C915 1.465 . S
C910 C905 1.399 . S
C910 C909 1.394 . S
C910 C911 1.516 . S
C911 C910 1.516 . S
C911 C912 1.502 . S
C911 C913 1.561 . S
C911 C914 1.526 . S
C912 H896 0.959 . S
C912 H897 0.959 . S
C912 H898 0.961 . S
C912 C911 1.502 . S
C913 H899 0.960 . S
C913 H900 0.961 1_554 S
C913 H901 0.959 1_554 S
C913 C911 1.561 . S
C914 C911 1.526 . S
C914 C915 1.396 . S
C914 C919 1.390 . S
C915 C909 1.465 . S
C915 C914 1.396 . S
C915 C916 1.399 . S
C916 H902 0.929 . S
C916 C915 1.399 . S
C916 C917 1.385 . S
C917 H903 0.931 . S
C917 C916 1.385 . S
C917 C918 1.389 1_554 S
C918 C917 1.389 1_556 S
C918 C919 1.387 1_556 S
C919 H904 0.930 1_554 S
C919 C914 1.390 . S
C919 C918 1.387 1_554 S
H920 C932 0.930 . S
H921 C934 0.930 . S
H922 C935 0.930 . S
H923 C939 0.959 . S
H924 C939 0.959 . S
H925 C939 0.961 . S
H926 C940 0.960 . S
H927 C940 0.961 . S
H928 C940 0.959 . S
H929 C943 0.929 . S
H930 C944 0.931 . S
H931 C946 0.930 . S
C932 H920 0.930 . S
C932 C933 1.399 . S
C932 C937 1.399 . S
C933 C932 1.399 . S
C933 C934 1.376 . S
C934 H921 0.930 . S
C934 C933 1.376 . S
C934 C935 1.388 . S
C935 H922 0.930 . S
C935 C934 1.388 . S
C935 C936 1.390 . S
C936 C935 1.390 . S
C936 C937 1.394 . S
C936 C942 1.465 . S
C937 C932 1.399 . S
C937 C936 1.394 . S
C937 C938 1.516 . S
C938 C937 1.516 . S
C938 C939 1.502 . S
C938 C940 1.561 . S
C938 C941 1.526 . S
C939 H923 0.959 . S
C939 H924 0.959 . S
C939 H925 0.961 . S
C939 C938 1.502 . S
C940 H926 0.960 . S
C940 H927 0.961 . S
C940 H928 0.959 . S
C940 C938 1.561 . S
C941 C938 1.526 . S
C941 C942 1.396 . S
C941 C946 1.390 . S
C942 C936 1.465 . S
C942 C941 1.396 . S
C942 C943 1.399 . S
C943 H929 0.929 . S
C943 C942 1.399 . S
C943 C944 1.385 . S
C944 H930 0.931 . S
C944 C943 1.385 . S
C944 C945 1.389 . S
C945 C944 1.389 . S
C945 C946 1.387 . S
C946 H931 0.930 . S
C946 C941 1.390 . S
C946 C945 1.387 . S
H947 C959 0.930 . S
H948 C961 0.930 . S
H949 C962 0.930 . S
H950 C966 0.959 . S
H951 C966 0.959 1_554 S
H952 C966 0.961 1_554 S
H953 C967 0.960 . S
H954 C967 0.961 . S
H955 C967 0.959 . S
H956 C970 0.929 . S
H957 C971 0.931 . S
H958 C973 0.930 . S
C959 H947 0.930 . S
C959 C960 1.399 . S
C959 C964 1.399 . S
C960 C959 1.399 . S
C960 C961 1.376 . S
C961 H948 0.930 . S
C961 C960 1.376 . S
C961 C962 1.388 . S
C962 H949 0.930 . S
C962 C961 1.388 . S
C962 C963 1.390 . S
C963 C962 1.390 . S
C963 C964 1.394 . S
C963 C969 1.465 . S
C964 C959 1.399 . S
C964 C963 1.394 . S
C964 C965 1.516 . S
C965 C964 1.516 . S
C965 C966 1.502 . S
C965 C967 1.561 1_545 S
C965 C968 1.526 . S
C966 H950 0.959 . S
C966 H951 0.959 1_556 S
C966 H952 0.961 1_556 S
C966 C965 1.502 . S
C967 H953 0.960 . S
C967 H954 0.961 . S
C967 H955 0.959 . S
C967 C965 1.561 1_565 S
C968 C965 1.526 . S
C968 C969 1.396 . S
C968 C973 1.390 . S
C969 C963 1.465 . S
C969 C968 1.396 . S
C969 C970 1.399 . S
C970 H956 0.929 . S
C970 C969 1.399 . S
C970 C971 1.385 . S
C971 H957 0.931 . S
C971 C970 1.385 . S
C971 C972 1.389 . S
C972 C971 1.389 . S
C972 C973 1.387 . S
C973 H958 0.930 . S
C973 C968 1.390 . S
C973 C972 1.387 . S
H974 C986 0.930 . S
H975 C988 0.930 . S
H976 C989 0.930 . S
H977 C993 0.959 . S
H978 C993 0.959 1_554 S
H979 C993 0.961 1_554 S
H980 C994 0.960 1_554 S
H981 C994 0.961 . S
H982 C994 0.959 . S
H983 C997 0.929 . S
H984 C998 0.931 . S
H985 C1000 0.930 . S
C986 H974 0.930 . S
C986 C987 1.399 . S
C986 C991 1.399 . S
C987 C986 1.399 . S
C987 C988 1.376 . S
C988 H975 0.930 . S
C988 C987 1.376 . S
C988 C989 1.388 . S
C989 H976 0.930 . S
C989 C988 1.388 . S
C989 C990 1.390 . S
C990 C989 1.390 . S
C990 C991 1.394 . S
C990 C996 1.465 . S
C991 C986 1.399 . S
C991 C990 1.394 . S
C991 C992 1.516 . S
C992 C991 1.516 . S
C992 C993 1.502 . S
C992 C994 1.561 . S
C992 C995 1.526 . S
C993 H977 0.959 . S
C993 H978 0.959 1_556 S
C993 H979 0.961 1_556 S
C993 C992 1.502 . S
C994 H980 0.960 1_556 S
C994 H981 0.961 . S
C994 H982 0.959 . S
C994 C992 1.561 . S
C995 C992 1.526 . S
C995 C996 1.396 . S
C995 C1000 1.390 . S
C996 C990 1.465 . S
C996 C995 1.396 . S
C996 C997 1.399 . S
C997 H983 0.929 . S
C997 C996 1.399 . S
C997 C998 1.385 . S
C998 H984 0.931 . S
C998 C997 1.385 . S
C998 C999 1.389 . S
C999 C998 1.389 . S
C999 C1000 1.387 . S
C1000 H985 0.930 . S
C1000 C995 1.390 . S
C1000 C999 1.387 . S
H1001 C1013 0.930 . S
H1002 C1015 0.930 . S
H1003 C1016 0.930 . S
H1004 C1020 0.959 . S
H1005 C1020 0.959 . S
H1006 C1020 0.961 . S
H1007 C1021 0.960 . S
H1008 C1021 0.961 . S
H1009 C1021 0.959 . S
H1010 C1024 0.929 . S
H1011 C1025 0.931 . S
H1012 C1027 0.930 . S
C1013 H1001 0.930 . S
C1013 C1014 1.399 . S
C1013 C1018 1.399 . S
C1014 C1013 1.399 . S
C1014 C1015 1.376 . S
C1015 H1002 0.930 . S
C1015 C1014 1.376 . S
C1015 C1016 1.388 . S
C1016 H1003 0.930 . S
C1016 C1015 1.388 . S
C1016 C1017 1.390 . S
C1017 C1016 1.390 . S
C1017 C1018 1.394 . S
C1017 C1023 1.465 . S
C1018 C1013 1.399 . S
C1018 C1017 1.394 . S
C1018 C1019 1.516 . S
C1019 C1018 1.516 . S
C1019 C1020 1.502 . S
C1019 C1021 1.561 . S
C1019 C1022 1.526 . S
C1020 H1004 0.959 . S
C1020 H1005 0.959 . S
C1020 H1006 0.961 . S
C1020 C1019 1.502 . S
C1021 H1007 0.960 . S
C1021 H1008 0.961 . S
C1021 H1009 0.959 . S
C1021 C1019 1.561 . S
C1022 C1019 1.526 . S
C1022 C1023 1.396 . S
C1022 C1027 1.390 . S
C1023 C1017 1.465 . S
C1023 C1022 1.396 . S
C1023 C1024 1.399 . S
C1024 H1010 0.929 . S
C1024 C1023 1.399 . S
C1024 C1025 1.385 . S
C1025 H1011 0.931 . S
C1025 C1024 1.385 . S
C1025 C1026 1.389 . S
C1026 C1025 1.389 . S
C1026 C1027 1.387 . S
C1027 H1012 0.930 . S
C1027 C1022 1.390 . S
C1027 C1026 1.387 . S
H1028 C1040 0.930 . S
H1029 C1042 0.930 . S
H1030 C1043 0.930 . S
H1031 C1047 0.959 . S
H1032 C1047 0.959 . S
H1033 C1047 0.961 . S
H1034 C1048 0.960 . S
H1035 C1048 0.961 . S
H1036 C1048 0.959 . S
H1037 C1051 0.929 . S
H1038 C1052 0.931 . S
H1039 C1054 0.942 . S
C1040 H1028 0.930 . S
C1040 C1041 1.399 . S
C1040 C1045 1.399 . S
C1041 C1040 1.399 . S
C1041 C1042 1.376 . S
C1042 H1029 0.930 . S
C1042 C1041 1.376 . S
C1042 C1043 1.388 . S
C1043 H1030 0.930 . S
C1043 C1042 1.388 . S
C1043 C1044 1.390 . S
C1044 C1043 1.390 . S
C1044 C1045 1.394 . S
C1044 C1050 1.465 . S
C1045 C1040 1.399 . S
C1045 C1044 1.394 . S
C1045 C1046 1.516 . S
C1046 C1045 1.516 . S
C1046 C1047 1.502 1_655 S
C1046 C1048 1.561 . S
C1046 C1049 1.526 . S
C1047 H1031 0.959 . S
C1047 H1032 0.959 . S
C1047 H1033 0.961 . S
C1047 C1046 1.502 1_455 S
C1048 H1034 0.960 . S
C1048 H1035 0.961 . S
C1048 H1036 0.959 . S
C1048 C1046 1.561 . S
C1049 C1046 1.526 . S
C1049 C1050 1.396 . S
C1049 C1054 1.390 . S
C1050 C1044 1.465 . S
C1050 C1049 1.396 . S
C1050 C1051 1.399 . S
C1051 H1037 0.929 . S
C1051 C1050 1.399 . S
C1051 C1052 1.385 . S
C1052 H1038 0.931 . S
C1052 C1051 1.385 . S
C1052 C1053 1.389 . S
C1053 C1052 1.389 . S
C1053 C1054 1.387 . S
C1054 H1039 0.942 . S
C1054 C1049 1.390 . S
C1054 C1053 1.387 . S
H1055 C1067 0.930 . S
H1056 C1069 0.930 1_545 S
H1057 C1070 0.930 . S
H1058 C1074 0.959 . S
H1059 C1074 0.959 . S
H1060 C1074 0.961 . S
H1061 C1075 0.960 . S
H1062 C1075 0.961 . S
H1063 C1075 0.959 . S
H1064 C1078 0.929 . S
H1065 C1079 0.931 . S
H1066 C1081 0.930 . S
C1067 H1055 0.930 . S
C1067 C1068 1.399 . S
C1067 C1072 1.399 . S
C1068 C1067 1.399 . S
C1068 C1069 1.376 . S
C1069 H1056 0.930 1_565 S
C1069 C1068 1.376 . S
C1069 C1070 1.388 1_565 S
C1070 H1057 0.930 . S
C1070 C1069 1.388 1_545 S
C1070 C1071 1.390 1_545 S
C1071 C1070 1.390 1_565 S
C1071 C1072 1.394 . S
C1071 C1077 1.465 . S
C1072 C1067 1.399 . S
C1072 C1071 1.394 . S
C1072 C1073 1.516 . S
C1073 C1072 1.516 . S
C1073 C1074 1.502 . S
C1073 C1075 1.561 . S
C1073 C1076 1.526 . S
C1074 H1058 0.959 . S
C1074 H1059 0.959 . S
C1074 H1060 0.961 . S
C1074 C1073 1.502 . S
C1075 H1061 0.960 . S
C1075 H1062 0.961 . S
C1075 H1063 0.959 . S
C1075 C1073 1.561 . S
C1076 C1073 1.526 . S
C1076 C1077 1.396 . S
C1076 C1081 1.390 . S
C1077 C1071 1.465 . S
C1077 C1076 1.396 . S
C1077 C1078 1.399 1_565 S
C1078 H1064 0.929 . S
C1078 C1077 1.399 1_545 S
C1078 C1079 1.385 . S
C1079 H1065 0.931 . S
C1079 C1078 1.385 . S
C1079 C1080 1.389 1_545 S
C1080 C1079 1.389 1_565 S
C1080 C1081 1.387 . S
C1081 H1066 0.930 . S
C1081 C1076 1.390 . S
C1081 C1080 1.387 . S
H1082 C1094 0.930 . S
H1083 C1096 0.930 . S
H1084 C1097 0.930 . S
H1085 C1101 0.959 . S
H1086 C1101 0.959 . S
H1087 C1101 0.961 . S
H1088 C1102 0.960 . S
H1089 C1102 0.961 . S
H1090 C1102 0.959 . S
H1091 C1105 0.929 . S
H1092 C1106 0.931 . S
H1093 C1108 0.930 . S
C1094 H1082 0.930 . S
C1094 C1095 1.399 . S
C1094 C1099 1.399 . S
C1095 C1094 1.399 . S
C1095 C1096 1.376 . S
C1096 H1083 0.930 . S
C1096 C1095 1.376 . S
C1096 C1097 1.388 . S
C1097 H1084 0.930 . S
C1097 C1096 1.388 . S
C1097 C1098 1.390 . S
C1098 C1097 1.390 . S
C1098 C1099 1.394 . S
C1098 C1104 1.465 . S
C1099 C1094 1.399 . S
C1099 C1098 1.394 . S
C1099 C1100 1.516 . S
C1100 C1099 1.516 . S
C1100 C1101 1.502 . S
C1100 C1102 1.561 . S
C1100 C1103 1.526 . S
C1101 H1085 0.959 . S
C1101 H1086 0.959 . S
C1101 H1087 0.961 . S
C1101 C1100 1.502 . S
C1102 H1088 0.960 . S
C1102 H1089 0.961 . S
C1102 H1090 0.959 . S
C1102 C1100 1.561 . S
C1103 C1100 1.526 . S
C1103 C1104 1.396 . S
C1103 C1108 1.390 . S
C1104 C1098 1.465 . S
C1104 C1103 1.396 . S
C1104 C1105 1.399 . S
C1105 H1091 0.929 . S
C1105 C1104 1.399 . S
C1105 C1106 1.385 . S
C1106 H1092 0.931 . S
C1106 C1105 1.385 . S
C1106 C1107 1.389 . S
C1107 C1106 1.389 . S
C1107 C1108 1.387 . S
C1108 H1093 0.930 . S
C1108 C1103 1.390 . S
C1108 C1107 1.387 . S
H1109 C1121 0.930 . S
H1110 C1123 0.930 . S
H1111 C1124 0.930 . S
H1112 C1128 0.959 . S
H1113 C1128 0.959 . S
H1114 C1128 0.961 . S
H1115 C1129 0.960 . S
H1116 C1129 0.961 . S
H1117 C1129 0.959 . S
H1118 C1132 0.929 . S
H1119 C1133 0.931 . S
H1120 C1135 0.930 . S
C1121 H1109 0.930 . S
C1121 C1122 1.399 . S
C1121 C1126 1.399 . S
C1122 C1121 1.399 . S
C1122 C1123 1.376 . S
C1123 H1110 0.930 . S
C1123 C1122 1.376 . S
C1123 C1124 1.388 . S
C1124 H1111 0.930 . S
C1124 C1123 1.388 . S
C1124 C1125 1.390 . S
C1125 C1124 1.390 . S
C1125 C1126 1.394 . S
C1125 C1131 1.465 . S
C1126 C1121 1.399 . S
C1126 C1125 1.394 . S
C1126 C1127 1.516 . S
C1127 C1126 1.516 . S
C1127 C1128 1.502 . S
C1127 C1129 1.561 . S
C1127 C1130 1.526 . S
C1128 H1112 0.959 . S
C1128 H1113 0.959 . S
C1128 H1114 0.961 . S
C1128 C1127 1.502 . S
C1129 H1115 0.960 . S
C1129 H1116 0.961 . S
C1129 H1117 0.959 . S
C1129 C1127 1.561 . S
C1130 C1127 1.526 . S
C1130 C1131 1.396 . S
C1130 C1135 1.390 . S
C1131 C1125 1.465 . S
C1131 C1130 1.396 . S
C1131 C1132 1.399 . S
C1132 H1118 0.929 . S
C1132 C1131 1.399 . S
C1132 C1133 1.385 . S
C1133 H1119 0.931 . S
C1133 C1132 1.385 . S
C1133 C1134 1.389 . S
C1134 C1133 1.389 . S
C1134 C1135 1.387 . S
C1135 H1120 0.930 . S
C1135 C1130 1.390 . S
C1135 C1134 1.387 . S
C501 C125 1.982 . S
C513 C215 2.027 . S
C540 C292 2.041 . S
C528 C144 1.933 . S
C567 C383 2.025 . S
C555 C87 1.969 . S
C594 C467 1.985 . S
C582 C106 1.903 . S
C621 C226 2.026 1_565 S
C609 C49 1.994 . S
C636 C68 2.032 . S
C648 C303 2.028 . S
C663 C11 1.987 . S
C675 C394 2.020 . S
C690 C30 2.011 . S
C702 C478 1.986 . S
C729 C210 0.577 1_455 S
C717 C97 0.664 . S
C756 C305 0.676 . S
C744 C116 0.664 . S
C783 C378 0.759 . S
C771 C135 0.700 . S
C798 C78 0.675 . S
C810 C462 0.556 . S
C825 C21 0.682 . S
C837 C221 0.585 . S
C864 C294 0.603 . S
C852 C40 0.567 . S
C891 C389 0.615 . S
C879 C59 0.710 . S
C906 C2 0.693 . S
C918 C473 0.765 . S
C933 C101 1.896 . S
C945 C219 2.120 . S
C960 C120 1.984 . S
C972 C310 2.132 . S
C999 C387 2.107 . S
C987 C139 1.990 . S
C1026 C471 2.142 . S
C1014 C82 1.916 . S
C1041 C25 1.979 . S
C1053 C208 2.088 . S
C1080 C299 2.127 1_565 S
C1068 C44 1.985 . S
C1107 C376 2.109 . S
C1095 C63 1.981 . S
C1122 C6 1.947 . S
C1134 C460 2.125 . S
