# Generated by pormake.
# Topology zzz, (3,6)-cn, num edge types: 1
# Building blocks:
#     Node 0, Type 0, BuildingBlock: CUQRIR_clean_linker_1, # of connection points: 3
#     Node 1, Type 0, BuildingBlock: CUQRIR_clean_linker_1, # of connection points: 3
#     Node 2, Type 0, BuildingBlock: CUQRIR_clean_linker_1, # of connection points: 3
#     Node 3, Type 0, BuildingBlock: CUQRIR_clean_linker_1, # of connection points: 3
#     Node 4, Type 0, BuildingBlock: CUQRIR_clean_linker_1, # of connection points: 3
#     Node 5, Type 0, BuildingBlock: CUQRIR_clean_linker_1, # of connection points: 3
#     Node 6, Type 0, BuildingBlock: CUQRIR_clean_linker_1, # of connection points: 3
#     Node 7, Type 0, BuildingBlock: CUQRIR_clean_linker_1, # of connection points: 3
#     Node 8, Type 1, BuildingBlock: INOVEN_clean_sbu_0, # of connection points: 6
#     Node 9, Type 1, BuildingBlock: INOVEN_clean_sbu_0, # of connection points: 6
#     Node 10, Type 1, BuildingBlock: INOVEN_clean_sbu_0, # of connection points: 6
#     Node 11, Type 1, BuildingBlock: INOVEN_clean_sbu_0, # of connection points: 6
#     Edge 12, Type (0, 1), BuildingBlock: ZUJKAS_clean_linker_0, # of connection points: 2
#     Edge 13, Type (0, 1), BuildingBlock: ZUJKAS_clean_linker_0, # of connection points: 2
#     Edge 14, Type (0, 1), BuildingBlock: ZUJKAS_clean_linker_0, # of connection points: 2
#     Edge 15, Type (0, 1), BuildingBlock: ZUJKAS_clean_linker_0, # of connection points: 2
#     Edge 16, Type (0, 1), BuildingBlock: ZUJKAS_clean_linker_0, # of connection points: 2
#     Edge 17, Type (0, 1), BuildingBlock: ZUJKAS_clean_linker_0, # of connection points: 2
#     Edge 18, Type (0, 1), BuildingBlock: ZUJKAS_clean_linker_0, # of connection points: 2
#     Edge 19, Type (0, 1), BuildingBlock: ZUJKAS_clean_linker_0, # of connection points: 2
#     Edge 20, Type (0, 1), BuildingBlock: ZUJKAS_clean_linker_0, # of connection points: 2
#     Edge 21, Type (0, 1), BuildingBlock: ZUJKAS_clean_linker_0, # of connection points: 2
#     Edge 22, Type (0, 1), BuildingBlock: ZUJKAS_clean_linker_0, # of connection points: 2
#     Edge 23, Type (0, 1), BuildingBlock: ZUJKAS_clean_linker_0, # of connection points: 2
#     Edge 24, Type (0, 1), BuildingBlock: ZUJKAS_clean_linker_0, # of connection points: 2
#     Edge 25, Type (0, 1), BuildingBlock: ZUJKAS_clean_linker_0, # of connection points: 2
#     Edge 26, Type (0, 1), BuildingBlock: ZUJKAS_clean_linker_0, # of connection points: 2
#     Edge 27, Type (0, 1), BuildingBlock: ZUJKAS_clean_linker_0, # of connection points: 2
#     Edge 28, Type (0, 1), BuildingBlock: ZUJKAS_clean_linker_0, # of connection points: 2
#     Edge 29, Type (0, 1), BuildingBlock: ZUJKAS_clean_linker_0, # of connection points: 2
#     Edge 30, Type (0, 1), BuildingBlock: ZUJKAS_clean_linker_0, # of connection points: 2
#     Edge 31, Type (0, 1), BuildingBlock: ZUJKAS_clean_linker_0, # of connection points: 2
#     Edge 32, Type (0, 1), BuildingBlock: ZUJKAS_clean_linker_0, # of connection points: 2
#     Edge 33, Type (0, 1), BuildingBlock: ZUJKAS_clean_linker_0, # of connection points: 2
#     Edge 34, Type (0, 1), BuildingBlock: ZUJKAS_clean_linker_0, # of connection points: 2
#     Edge 35, Type (0, 1), BuildingBlock: ZUJKAS_clean_linker_0, # of connection points: 2
# Relax obj value: 0.236
# Max RMSD: 0.173
# Mean RMSD: 0.156
data_MOF--net-zzz--node1-INOVEN_clean_sbu_0--node2-CUQRIR_clean_linker_1--edge1-ZUJKAS_clean_linker_0
_symmetry_space_group_name_H-M    P1
_symmetry_Int_Tables_number       1
_symmetry_cell_setting            triclinic
loop_
_symmetry_equiv_pos_as_xyz
'x, y, z'
_cell_length_a     64.195717
_cell_length_b     64.176308
_cell_length_c     15.666107
_cell_angle_alpha  90.175095
_cell_angle_beta   89.800633
_cell_angle_gamma 90.030907
loop_
_atom_site_label
_atom_site_type_symbol
_atom_site_fract_x
_atom_site_fract_y
_atom_site_fract_z
_atom_type_partial_charge
C0 C 0.75911 0.52058 0.33957 0.0
N1 N 0.77727 0.51054 0.35555 0.0
N2 N 0.74724 0.50951 0.2834 0.0
C3 C 0.75311 0.54111 0.37841 0.0
C4 C 0.75917 0.49259 0.26507 0.0
N5 N 0.77719 0.49316 0.30942 0.0
C6 C 0.75374 0.47611 0.20019 0.0
H7 H 0.76025 0.54295 0.44242 0.0
H8 H 0.73592 0.54251 0.38361 0.0
H9 H 0.75899 0.55383 0.33702 0.0
H10 H 0.74546 0.48311 0.14525 0.0
H11 H 0.74328 0.46449 0.23036 0.0
H12 H 0.76773 0.46776 0.17662 0.0
C13 C 0.02892 0.7456 0.38207 0.0
N14 N 0.02745 0.76672 0.38176 0.0
N15 N 0.02999 0.738 0.30071 0.0
C16 C 0.02983 0.73248 0.46093 0.0
C17 C 0.02912 0.75533 0.25152 0.0
N18 N 0.02754 0.77256 0.30063 0.0
C19 C 0.02919 0.75541 0.15559 0.0
H20 H 0.03993 0.71869 0.45012 0.0
H21 H 1.0139 0.72686 0.4761 0.0
H22 H 0.03564 0.74167 0.51605 0.0
H23 H 0.02122 0.74136 0.13023 0.0
H24 H 0.04556 0.75525 0.13265 0.0
H25 H 0.0215 0.76961 0.13054 0.0
C26 C 0.80378 0.02228 0.3512 0.0
N27 N 0.78301 0.02634 0.35309 0.0
N28 N 0.81192 0.02642 0.27238 0.0
C29 C 0.81581 1.0132 0.424 0.0
C30 C 0.7952 0.03306 0.22706 0.0
N31 N 0.7779 0.03308 0.27601 0.0
C32 C 0.79566 0.03979 0.13525 0.0
H33 H 0.82385 0.026 0.45841 0.0
H34 H 0.82783 1.00221 0.39987 0.0
H35 H 0.80531 1.0051 0.46952 0.0
H36 H 0.79283 0.02603 0.09383 0.0
H37 H 0.811 0.04663 0.11836 0.0
H38 H 0.78319 0.05135 0.12277 0.0
C39 C 0.52777 0.79389 0.31806 0.0
N40 N 0.51707 0.77666 0.34241 0.0
N41 N 0.51484 0.80794 0.28079 0.0
C42 C 0.55091 0.7964 0.32525 0.0
C43 C 0.49598 0.79845 0.2826 0.0
N44 N 0.49731 0.77951 0.31999 0.0
C45 C 0.47665 0.80706 0.24178 0.0
H46 H 0.55675 0.7885 0.38335 0.0
H47 H 0.55527 0.81313 0.32675 0.0
H48 H 0.55841 0.78903 0.26883 0.0
H49 H 0.4784 0.80625 0.17135 0.0
H50 H 0.4746 0.82367 0.25954 0.0
H51 H 0.46256 0.79825 0.2612 0.0
C52 C 0.29735 0.53249 0.10376 0.0
N53 N 0.2785 0.54185 0.0948 0.0
N54 N 0.30968 0.54358 0.15801 0.0
C55 C 0.30388 0.51294 0.05832 0.0
C56 C 0.29748 0.55981 0.18231 0.0
N57 N 0.27873 0.5588 0.14371 0.0
C58 C 0.30324 0.57564 0.24933 0.0
H59 H 0.32102 0.51259 0.04914 0.0
H60 H 0.29598 0.51164 0.99563 0.0
H61 H 0.29931 0.49932 0.09764 0.0
H62 H 0.3115 0.58878 0.21814 0.0
H63 H 0.31378 0.56872 0.29754 0.0
H64 H 0.28923 0.58192 0.28201 0.0
C65 C 0.02312 0.2908 0.07137 0.0
N66 N 1.01471 0.27173 0.05621 0.0
N67 N 1.0118 0.30141 0.13121 0.0
C68 C 0.04248 0.29883 0.02888 0.0
C69 C 0.99637 0.28782 0.15222 0.0
N70 N 0.99811 0.26997 0.1065 0.0
C71 C 0.98002 0.2918 0.21952 0.0
H72 H 0.04228 0.3161 0.02571 0.0
H73 H 0.04405 0.29222 0.96364 0.0
H74 H 0.05621 0.29391 0.06657 0.0
H75 H 0.96793 0.30224 0.19294 0.0
H76 H 0.98705 0.29968 0.27563 0.0
H77 H 0.97218 0.27731 0.24043 0.0
C78 C 0.25871 0.02048 0.04325 0.0
N79 N 0.2779 1.01192 0.03224 0.0
N80 N 0.24819 1.01081 0.10789 0.0
C81 C 0.25003 0.03765 0.98928 0.0
C82 C 0.26193 0.99631 0.1361 0.0
N83 N 0.27972 0.99694 0.08996 0.0
C84 C 0.25878 0.98278 0.21338 0.0
H85 H 0.23283 0.03638 0.98483 0.0
H86 H 0.257 0.03726 0.92436 0.0
H87 H 0.25394 0.05284 0.01918 0.0
H88 H 0.25109 0.96807 0.19343 0.0
H89 H 0.24873 0.99067 0.26131 0.0
H90 H 0.27387 0.97874 0.24335 0.0
C91 C 0.51948 0.25232 0.05765 0.0
N92 N 0.50922 0.27045 0.04321 0.0
N93 N 0.50766 0.23921 0.10582 0.0
C94 C 0.54116 0.24771 0.02722 0.0
C95 C 0.49008 0.25031 0.12148 0.0
N96 N 0.49097 0.26918 0.0833 0.0
C97 C 0.47298 0.24342 0.1811 0.0
H98 H 0.54357 0.23066 0.02034 0.0
H99 H 0.5524 0.25378 0.07484 0.0
H100 H 0.54424 0.25558 0.96547 0.0
H101 H 0.47978 0.2387 0.24314 0.0
H102 H 0.46502 0.22962 0.15369 0.0
H103 H 0.46119 0.25578 0.19178 0.0
Gd104 Gd 0.04044 0.01752 0.78434 0.0
Gd105 Gd 0.0193 0.02481 0.60732 0.0
C106 C 0.02941 0.97718 0.67353 0.0
C107 C 0.04668 1.01705 0.94702 0.0
C108 C 0.03883 1.00747 0.0252 0.0
C109 C 0.04746 1.01323 0.10391 0.0
C110 C 0.02412 0.99142 0.02136 0.0
C111 C 0.02872 0.98507 0.17268 0.0
C112 C 0.01881 0.98053 0.09497 0.0
C113 C 0.0426 1.00192 0.1774 0.0
C114 C 0.07044 0.0222 0.66022 0.0
C115 C 0.03153 0.06527 0.71621 0.0
C116 C 1.00737 0.02446 0.44991 0.0
C117 C 0.99445 0.03772 0.39586 0.0
C118 C 0.99168 0.03282 0.30938 0.0
C119 C 0.9856 0.05588 0.42965 0.0
C120 C 0.97285 0.06534 0.28883 0.0
C121 C 0.97492 0.06958 0.37669 0.0
C122 C 0.9809 0.04653 0.25611 0.0
C123 C 0.99356 0.02708 0.74476 0.0
O124 O 0.03209 0.98418 0.75249 0.0
O125 O 0.02707 0.99015 0.60838 0.0
O126 O 0.05622 1.00452 0.89333 0.0
O127 O 0.03421 0.03032 0.90967 0.0
O128 O 0.07439 0.01845 0.73967 0.0
O129 O 0.05098 0.02309 0.65321 0.0
O130 O 0.02718 0.05844 0.63815 0.0
O131 O 0.03518 0.05229 0.77993 0.0
O132 O 0.99749 1.0146 0.5109 0.0
O133 O 0.02495 0.0328 0.47529 0.0
O134 O 0.99155 0.03829 0.67643 0.0
O135 O 1.00834 1.01421 0.73485 0.0
H136 H 0.05892 0.02561 0.10753 0.0
H137 H 0.01784 0.98639 0.96077 0.0
H138 H 1.00854 0.96718 0.0893 0.0
H139 H 0.05068 1.00538 0.23637 0.0
H140 H 0.99837 0.01873 0.28262 0.0
H141 H 0.98763 0.05985 0.49642 0.0
H142 H 0.96936 0.08408 0.40397 0.0
H143 H 0.97946 0.04275 0.18895 0.0
Gd144 Gd 0.53267 0.02958 0.76879 0.0
Gd145 Gd 0.52522 1.01147 0.58529 0.0
C146 C 0.57265 0.02191 0.64999 0.0
C147 C 0.53495 0.03181 0.9328 0.0
C148 C 0.54639 0.02173 1.00175 0.0
C149 C 0.53962 0.02411 0.08634 0.0
C150 C 0.56486 1.01097 0.98424 0.0
C151 C 0.57145 1.0078 0.13638 0.0
C152 C 0.57725 1.00397 0.05096 0.0
C153 C 0.55209 1.01719 0.15346 0.0
C154 C 0.52708 0.0614 0.65418 0.0
C155 C 0.48514 0.02202 0.69943 0.0
C156 C 0.52391 1.00115 0.42618 0.0
C157 C 0.51061 0.98706 0.3765 0.0
C158 C 0.50192 0.96928 0.4146 0.0
C159 C 0.5049 0.99242 0.29323 0.0
C160 C 0.48001 0.96382 0.29037 0.0
C161 C 0.48973 0.98086 0.25028 0.0
C162 C 0.48682 0.95769 0.37167 0.0
C163 C 0.52372 0.98348 0.71476 0.0
O164 O 0.56597 0.02281 0.73018 0.0
O165 O 0.55945 0.02059 0.58511 0.0
O166 O 0.54611 0.04348 0.88132 0.0
O167 O 0.52132 0.02013 0.89301 0.0
O168 O 0.53031 0.06426 0.735 0.0
O169 O 0.52673 0.04211 0.64171 0.0
O170 O 0.492 0.02013 0.61977 0.0
O171 O 0.49802 0.02344 0.76497 0.0
O172 O 0.53636 0.99227 0.48126 0.0
O173 O 0.51455 0.01772 0.45689 0.0
O174 O 0.51231 0.98245 0.64673 0.0
O175 O 0.5363 0.99858 0.7086 0.0
H176 H 0.52522 0.03224 0.1006 0.0
H177 H 0.57028 1.00901 0.91912 0.0
H178 H 0.5922 0.99713 0.03517 0.0
H179 H 0.54721 0.02027 0.21853 0.0
H180 H 0.5061 0.96486 0.47898 0.0
H181 H 0.51138 1.00616 0.26312 0.0
H182 H 0.48465 0.98614 0.18814 0.0
H183 H 0.47977 0.94451 0.40373 0.0
Gd184 Gd 0.52099 0.53149 0.80446 0.0
Gd185 Gd 0.53896 0.51846 0.61565 0.0
C186 C 0.53237 0.56786 0.66527 0.0
C187 C 0.51645 0.54098 0.96318 0.0
C188 C 0.50241 0.55483 0.01099 0.0
C189 C 0.49603 0.54957 0.09383 0.0
C190 C 0.4952 0.57332 0.97407 0.0
C191 C 0.47673 0.58216 0.10532 0.0
C192 C 0.48263 0.5869 0.02087 0.0
C193 C 0.48323 0.56309 0.14065 0.0
C194 C 0.49 0.52782 0.6853 0.0
C195 C 0.52735 0.48275 0.75353 0.0
C196 C 0.53888 0.50815 0.45668 0.0
C197 C 0.52348 0.49684 0.40579 0.0
C198 C 0.52826 0.49013 0.32302 0.0
C199 C 0.5043 0.49147 0.44251 0.0
C200 C 0.49532 0.47119 0.31669 0.0
C201 C 0.49011 0.47926 0.39759 0.0
C202 C 0.51436 0.47726 0.27892 0.0
C203 C 0.57021 0.52309 0.73276 0.0
O204 O 0.52714 0.56323 0.74546 0.0
O205 O 0.53679 0.5535 0.60655 0.0
O206 O 0.5076 0.52466 0.92826 0.0
O207 O 0.53007 0.55015 0.91298 0.0
O208 O 0.48675 0.53334 0.76403 0.0
O209 O 0.50919 0.52447 0.67774 0.0
O210 O 0.52839 0.48771 0.67142 0.0
O211 O 0.5273 0.49693 0.81533 0.0
O212 O 0.54807 0.49701 0.51559 0.0
O213 O 0.53297 0.52653 0.48409 0.0
O214 O 0.5734 0.51839 0.65293 0.0
O215 O 0.5509 0.52539 0.74259 0.0
H216 H 0.50121 0.53517 0.12276 0.0
H217 H 0.49972 0.57754 0.90967 0.0
H218 H 0.47837 0.60156 0.9918 0.0
H219 H 0.4788 0.55881 0.20501 0.0
H220 H 0.5431 0.49404 0.29412 0.0
H221 H 0.50066 0.49604 0.5074 0.0
H222 H 0.47549 0.47533 0.42824 0.0
H223 H 0.51917 0.47113 0.21753 0.0
Gd224 Gd 0.02258 0.51075 0.81091 0.0
Gd225 Gd 0.03491 0.53036 0.625 0.0
C226 C 0.98596 0.52168 0.67667 0.0
C227 C 1.01477 0.50554 0.9706 0.0
C228 C 1.00173 0.49158 0.0217 0.0
C229 C 1.00686 0.48767 0.10692 0.0
C230 C 0.98408 0.4822 0.98612 0.0
C231 C 0.9757 0.46633 0.12325 0.0
C232 C 0.97113 0.46981 0.03642 0.0
C233 C 0.99398 0.47515 0.15734 0.0
C234 C 0.02427 0.48067 0.68574 0.0
C235 C 0.07153 0.52018 0.7604 0.0
C236 C 0.04369 0.53655 0.46654 0.0
C237 C 0.05682 0.55166 0.42148 0.0
C238 C 0.05571 0.55348 0.33253 0.0
C239 C 0.07056 0.56437 0.46742 0.0
C240 C 0.08336 0.5795 0.33493 0.0
C241 C 0.08374 0.57814 0.42459 0.0
C242 C 0.06888 0.56732 0.28945 0.0
C243 C 0.03247 0.56018 0.75128 0.0
O244 O 0.99081 0.51863 0.75815 0.0
O245 O 1.00027 0.52389 0.61576 0.0
O246 O 0.03054 0.49664 0.93153 0.0
O247 O 1.00483 0.51912 0.9231 0.0
O248 O 0.0191 0.47711 0.76462 0.0
O249 O 0.02817 0.49986 0.68034 0.0
O250 O 0.06682 0.5233 0.67883 0.0
O251 O 0.05711 0.51739 0.82032 0.0
O252 O 0.02719 0.54443 0.50406 0.0
O253 O 0.05364 0.52297 0.51403 0.0
O254 O 0.03706 0.56426 0.67226 0.0
O255 O 0.02953 0.54089 0.75531 0.0
H256 H 0.02061 0.49466 0.13498 0.0
H257 H 0.98 0.48493 0.92002 0.0
H258 H 0.957 0.46386 0.00777 0.0
H259 H 0.99812 0.47289 0.22348 0.0
H260 H 0.04496 0.54392 0.29633 0.0
H261 H 0.07147 0.56325 0.53633 0.0
H262 H 0.09492 0.58695 0.46164 0.0
H263 H 0.06809 0.56813 0.22049 0.0
H264 H 0.21774 0.98266 0.13649 0.0
H265 H 0.1853 0.98803 0.21532 0.0
H266 H 0.19882 0.05375 0.23377 0.0
H267 H 0.23213 0.04797 0.1595 0.0
H268 H 0.18707 0.04135 0.38044 0.0
H269 H 0.12952 1.0088 0.15719 0.0
H270 H 0.149 0.98961 0.17902 0.0
H271 H 0.15617 1.01347 0.12576 0.0
C272 C 0.21368 0.99827 0.15678 0.0
C273 C 0.22754 1.01487 0.142 0.0
C274 C 0.19492 1.00142 0.20096 0.0
C275 C 0.18915 0.0214 0.22974 0.0
C276 C 0.20269 0.03818 0.21217 0.0
H277 H 0.06677 0.03555 0.49276 0.0
H278 H 0.09465 0.03755 0.38444 0.0
C279 C 0.22167 0.03494 0.16889 0.0
C280 C 0.17007 0.02432 0.28451 0.0
H281 H 0.11885 1.01004 0.30587 0.0
C282 C 0.17211 0.03474 0.36314 0.0
C283 C 0.15022 1.0162 0.26232 0.0
C284 C 0.14605 1.00662 0.17599 0.0
C285 C 0.15538 0.03637 0.42123 0.0
C286 C 0.13608 0.02661 0.40228 0.0
C287 C 0.13367 1.01715 0.32185 0.0
C288 C 0.11874 0.02525 0.46665 0.0
C289 C 0.15865 0.0487 0.50228 0.0
C290 C 0.12266 1.01719 0.54832 0.0
C291 C 0.10688 1.01629 0.61002 0.0
C292 C 0.08652 0.02293 0.59152 0.0
C293 C 0.08227 0.03033 0.50898 0.0
C294 C 0.09824 0.03149 0.44711 0.0
H295 H 0.17054 0.06109 0.493 0.0
H296 H 0.14398 0.05609 0.52474 0.0
H297 H 0.16445 0.03815 0.55289 0.0
H298 H 0.13801 1.01151 0.56466 0.0
H299 H 0.11067 1.01025 0.67257 0.0
H300 H 0.48711 0.20295 0.0859 0.0
H301 H 0.49187 0.17093 0.16907 0.0
H302 H 0.54465 0.19862 0.29556 0.0
H303 H 0.53967 0.23081 0.21255 0.0
H304 H 0.54922 0.15402 0.24787 0.0
H305 H 0.47658 0.17122 0.42875 0.0
H306 H 0.47411 0.17113 0.31448 0.0
H307 H 0.48986 0.19062 0.36549 0.0
C308 C 0.49988 0.20203 0.13065 0.0
C309 C 0.51296 0.21932 0.14315 0.0
C310 C 0.50258 0.18379 0.17827 0.0
C311 C 0.51843 0.18244 0.2396 0.0
C312 C 0.53228 0.19929 0.24877 0.0
H313 H 0.52504 0.103 0.68407 0.0
H314 H 0.52339 0.13136 0.58046 0.0
C315 C 0.52953 0.21761 0.20111 0.0
C316 C 0.5196 0.16405 0.29773 0.0
H317 H 0.49313 0.13921 0.45782 0.0
C318 C 0.53695 0.15073 0.29365 0.0
C319 C 0.50369 0.15985 0.35815 0.0
C320 C 0.48506 0.174 0.36789 0.0
C321 C 0.53869 0.13327 0.34781 0.0
C322 C 0.52262 0.12893 0.40743 0.0
C323 C 0.50537 0.14236 0.41172 0.0
C324 C 0.52383 0.11127 0.46937 0.0
C325 C 0.55796 0.1199 0.3423 0.0
C326 C 0.5244 0.09036 0.44189 0.0
C327 C 0.52525 0.07401 0.50147 0.0
C328 C 0.52553 0.07827 0.58958 0.0
C329 C 0.52483 0.09917 0.61668 0.0
C330 C 0.5239 0.11543 0.55743 0.0
H331 H 0.57071 0.12773 0.30651 0.0
H332 H 0.56368 0.11591 0.40705 0.0
H333 H 0.55413 0.10514 0.30873 0.0
H334 H 0.52403 0.08667 0.37442 0.0
H335 H 0.52585 0.05809 0.47862 0.0
H336 H 0.34309 0.56879 0.14797 0.0
H337 H 0.37666 0.56429 0.21996 0.0
H338 H 0.35649 0.50432 0.31252 0.0
H339 H 0.3229 0.5089 0.23967 0.0
H340 H 0.38111 0.56117 0.39082 0.0
H341 H 0.41595 0.49145 0.23738 0.0
H342 H 0.39457 0.50563 0.19052 0.0
H343 H 0.38983 0.48734 0.27513 0.0
C344 C 0.34607 0.55447 0.18216 0.0
C345 C 0.33049 0.53916 0.18806 0.0
C346 C 0.36522 0.5519 0.22344 0.0
C347 C 0.3693 0.53389 0.27142 0.0
C348 C 0.354 0.51817 0.27458 0.0
H349 H 0.44889 0.52111 0.70902 0.0
H350 H 0.42086 0.52243 0.60367 0.0
C351 C 0.3348 0.52075 0.233 0.0
C352 C 0.38858 0.53265 0.32467 0.0
H353 H 0.43146 0.50277 0.36839 0.0
C354 C 0.39217 0.54846 0.38517 0.0
C355 C 0.40322 0.5162 0.31727 0.0
C356 C 0.40086 0.49928 0.25103 0.0
C357 C 0.40951 0.54798 0.43976 0.0
C358 C 0.42367 0.53114 0.43472 0.0
C359 C 0.42052 0.51561 0.37265 0.0
C360 C 0.44113 0.52907 0.49667 0.0
C361 C 0.41253 0.56547 0.50308 0.0
C362 C 0.46197 0.53213 0.47154 0.0
C363 C 0.47808 0.53153 0.5322 0.0
C364 C 0.47365 0.52742 0.61845 0.0
C365 C 0.45282 0.52414 0.64289 0.0
C366 C 0.43678 0.52488 0.58275 0.0
H367 H 0.40299 0.57935 0.48689 0.0
H368 H 0.40782 0.56006 0.56755 0.0
H369 H 0.42916 0.57017 0.50594 0.0
H370 H 0.46569 0.53556 0.40557 0.0
H371 H 0.49386 0.53477 0.51205 0.0
H372 H 0.04779 0.31519 0.20306 0.0
H373 H 0.05299 0.34777 0.28279 0.0
H374 H 0.98929 0.36518 0.2331 0.0
H375 H 0.98473 0.33348 0.14799 0.0
H376 H 1.01147 0.3985 0.22889 0.0
H377 H 0.03468 0.35624 0.5211 0.0
H378 H 0.05216 0.35158 0.43373 0.0
H379 H 0.02551 0.34287 0.42726 0.0
C380 C 0.03508 0.32622 0.20764 0.0
C381 C 1.01574 0.3216 0.17014 0.0
C382 C 0.03792 0.34471 0.25469 0.0
C383 C 0.02133 0.35881 0.26715 0.0
C384 C 1.00233 0.35461 0.22597 0.0
H385 H 1.00674 0.44251 0.69512 0.0
H386 H 1.00656 0.41468 0.58931 0.0
C387 C 0.99964 0.33634 0.17779 0.0
C388 C 0.02337 0.37761 0.32433 0.0
H389 H 0.03652 0.39293 0.52671 0.0
C390 C 1.01697 0.39723 0.29404 0.0
C391 C 0.03024 0.37616 0.41015 0.0
C392 C 0.03583 0.35556 0.45035 0.0
C393 C 1.017 0.41515 0.34668 0.0
C394 C 0.02435 0.41378 0.43176 0.0
C395 C 0.03105 0.39423 0.46152 0.0
C396 C 0.02381 0.43181 0.49348 0.0
C397 C 1.00831 0.43514 0.31138 0.0
C398 C 0.03336 0.45116 0.47573 0.0
C399 C 0.03316 0.46745 0.53654 0.0
C400 C 0.02375 0.46457 0.61686 0.0
C401 C 1.01419 0.4453 0.63405 0.0
C402 C 1.01413 0.42926 0.57338 0.0
H403 H 0.99819 0.43224 0.25519 0.0
H404 H 0.9991 0.44368 0.36033 0.0
H405 H 0.02138 0.44525 0.29048 0.0
H406 H 0.04138 0.45356 0.41569 0.0
H407 H 0.04082 0.48202 0.52161 0.0
H408 H 0.82322 1.0043 0.13311 0.0
H409 H 0.85737 1.00353 0.06437 0.0
H410 H 0.88281 0.04 0.27111 0.0
H411 H 0.84798 0.04185 0.33717 0.0
H412 H 0.89653 0.05524 0.13035 0.0
H413 H 0.90811 0.97066 0.1019 0.0
H414 H 0.88397 0.97739 0.05237 0.0
H415 H 0.88733 0.98155 0.16555 0.0
C416 C 0.83614 1.01204 0.16412 0.0
C417 C 0.83289 0.02325 0.24021 0.0
C418 C 0.85581 1.01136 0.12535 0.0
C419 C 0.87302 0.02136 0.1628 0.0
C420 C 0.86993 0.03202 0.2407 0.0
H421 H 0.99219 1.00213 0.88672 0.0
H422 H 0.96575 1.00179 1.00069 0.0
C423 C 0.85008 0.03293 0.27903 0.0
C424 C 0.89364 0.02192 0.11702 0.0
H425 H 0.92722 0.99178 0.99978 0.0
C426 C 0.90337 0.04127 0.10303 0.0
C427 C 0.90319 1.00377 0.08282 0.0
C428 C 0.8952 0.98219 0.10241 0.0
C429 C 0.92146 0.04308 0.05222 0.0
C430 C 0.92976 0.02516 0.01101 0.0
C431 C 0.92076 1.00568 0.02921 0.0
C432 C 0.94694 0.02635 0.9458 0.0
C433 C 0.9315 0.06425 0.04396 0.0
C434 C 0.94544 0.04014 0.87643 0.0
C435 C 0.96083 0.04062 0.81282 0.0
C436 C 0.97796 0.02698 0.81545 0.0
C437 C 0.97944 1.01304 0.88406 0.0
C438 C 0.96418 1.01277 0.94875 0.0
H439 H 0.92869 0.07386 0.10198 0.0
H440 H 0.94856 0.06301 0.03337 0.0
H441 H 0.92449 0.07262 0.98927 0.0
H442 H 0.93206 0.05026 0.87008 0.0
H443 H 0.95905 0.05143 0.76039 0.0
H444 H 0.53664 0.81182 0.13417 0.0
H445 H 0.54065 0.84355 0.04799 0.0
H446 H 0.50783 0.87875 0.24115 0.0
H447 H 0.50352 0.84683 0.3258 0.0
H448 H 0.49208 0.88656 0.08938 0.0
H449 H 0.57767 0.89387 0.06311 0.0
H450 H 0.56859 0.86883 0.02818 0.0
H451 H 0.56533 0.87646 0.13812 0.0
C452 C 0.53078 0.82648 0.15873 0.0
C453 C 0.51994 0.82702 0.23668 0.0
C454 C 0.5331 0.84464 0.10971 0.0
C455 C 0.52481 0.86377 0.13821 0.0
C456 C 0.51446 0.86431 0.21755 0.0
H457 H 0.54666 0.98199 0.86292 0.0
H458 H 0.54668 0.95428 0.97126 0.0
C459 C 0.51206 0.84614 0.26614 0.0
C460 C 0.52537 0.88276 0.08267 0.0
H461 H 0.5576 0.91404 0.96449 0.0
C462 C 0.50646 0.89264 0.06281 0.0
C463 C 0.54409 0.89104 0.04853 0.0
C464 C 0.56508 0.88213 0.07126 0.0
C465 C 0.50567 0.91002 0.00824 0.0
C466 C 0.52427 0.91763 0.97038 0.0
C467 C 0.54327 0.90819 0.99242 0.0
C468 C 0.5242 0.93482 0.90574 0.0
C469 C 0.4848 0.92009 0.99242 0.0
C470 C 0.51184 0.93318 0.83215 0.0
C471 C 0.51157 0.94913 0.77142 0.0
C472 C 0.52403 0.967 0.78141 0.0
C473 C 0.53677 0.96853 0.85397 0.0
C474 C 0.53683 0.95262 0.91563 0.0
H475 H 0.47377 0.91703 0.04573 0.0
H476 H 0.48633 0.93719 0.984 0.0
H477 H 0.47787 0.91338 0.93367 0.0
H478 H 0.50248 0.91941 0.82099 0.0
H479 H 0.50175 0.94731 0.71581 0.0
H480 H 0.73621 0.54569 0.20621 0.0
H481 H 0.70375 0.55273 0.1291 0.0
H482 H 0.68174 0.49103 0.19096 0.0
H483 H 0.71327 0.48482 0.27362 0.0
H484 H 0.68994 0.53685 0.99367 0.0
H485 H 0.62943 0.52057 0.23376 0.0
H486 H 0.65653 0.52276 0.26216 0.0
H487 H 0.64608 0.49834 0.22398 0.0
C488 C 0.72408 0.53397 0.20574 0.0
C489 C 0.72728 0.51471 0.2461 0.0
C490 C 0.70559 0.53788 0.16079 0.0
C491 C 0.68991 0.52255 0.15456 0.0
C492 C 0.69307 0.50344 0.19634 0.0
H493 H 0.60896 0.50687 0.72163 0.0
H494 H 0.63696 0.50825 0.82608 0.0
C495 C 0.71132 0.49973 0.24256 0.0
C496 C 0.67123 0.52575 0.09861 0.0
H497 H 0.61863 0.51733 0.08603 0.0
C498 C 0.67433 0.53286 0.0147 0.0
C499 C 0.65059 0.52109 0.12543 0.0
C500 C 0.64546 0.51551 0.21659 0.0
C501 C 0.65777 0.53453 0.95643 0.0
C502 C 0.63749 0.52802 0.98091 0.0
C503 C 0.63416 0.52188 0.06598 0.0
C504 C 0.61984 0.52673 0.91853 0.0
C505 C 0.66231 0.54354 0.86943 0.0
C506 C 0.60024 0.53563 0.93669 0.0
C507 C 0.58386 0.53431 0.87737 0.0
C508 C 0.58681 0.52421 0.79854 0.0
C509 C 0.60626 0.51505 0.78125 0.0
C510 C 0.62241 0.51601 0.84083 0.0
H511 H 0.67556 0.55467 0.87202 0.0
H512 H 0.66679 0.53078 0.82509 0.0
H513 H 0.64857 0.55177 0.84303 0.0
H514 H 0.59766 0.54382 0.99633 0.0
H515 H 0.56909 0.54151 0.89247 0.0
H516 H 1.00221 0.70679 0.3243 0.0
H517 H 1.00221 0.67257 0.2523 0.0
H518 H 0.06093 0.68757 0.13288 0.0
H519 H 0.06085 0.72156 0.20507 0.0
H520 H 1.00152 0.667 0.07766 0.0
H521 H 0.07087 0.62751 0.2093 0.0
H522 H 0.0591 0.64992 0.26018 0.0
H523 H 0.07656 0.65324 0.17116 0.0
C524 C 1.01535 0.70243 0.28459 0.0
C525 C 0.03161 0.7167 0.27067 0.0
C526 C 1.01532 0.68297 0.24299 0.0
C527 C 0.0317 0.67725 0.18758 0.0
C528 C 0.04832 0.69128 0.17639 0.0
H529 H 0.0337 0.60215 0.73514 0.0
H530 H 0.03248 0.62873 0.84693 0.0
C531 C 0.04825 0.71075 0.21736 0.0
C532 C 0.0305 0.65774 0.13487 0.0
H533 H 0.05769 0.61393 0.07678 0.0
C534 C 1.01369 0.65528 0.07848 0.0
C535 C 0.04622 0.6422 0.13599 0.0
C536 C 0.0641 0.64319 0.19802 0.0
C537 C 1.01265 0.63841 0.02089 0.0
C538 C 0.02896 0.62354 0.01851 0.0
C539 C 0.04528 0.62539 0.07767 0.0
C540 C 0.02989 0.6069 0.95133 0.0
C541 C 0.99413 0.63676 0.96221 0.0
C542 C 0.02929 0.58558 0.97232 0.0
C543 C 0.02991 0.57021 0.90786 0.0
C544 C 0.03141 0.5759 0.82137 0.0
C545 C 0.03238 0.59721 0.801 0.0
C546 C 0.0316 0.61247 0.86498 0.0
H547 H 0.98052 0.64551 0.98762 0.0
H548 H 0.99828 0.64347 0.8992 0.0
H549 H 0.98953 0.62024 0.95237 0.0
H550 H 0.02815 0.58084 0.03847 0.0
H551 H 0.02944 0.55394 0.92568 0.0
H552 H 0.9963 0.24645 0.24781 0.0
H553 H 0.98374 0.21043 0.25607 0.0
H554 H 0.96389 0.21366 0.99356 0.0
H555 H 0.97517 0.25023 0.98775 0.0
H556 H 0.93778 0.18873 0.09046 0.0
H557 H 0.02046 0.1682 0.13582 0.0
H558 H 1.01111 0.18301 0.22541 0.0
H559 H 1.01221 0.19475 0.12141 0.0
C560 C 0.98839 0.23969 0.19341 0.0
C561 C 0.98658 0.25093 0.1173 0.0
C562 C 0.9815 0.21909 0.19759 0.0
C563 C 0.97336 0.20925 0.12472 0.0
C564 C 0.9702 0.22093 0.05036 0.0
H565 H 0.98845 0.07643 0.13277 0.0
H566 H 0.98363 0.10986 0.06288 0.0
C567 C 0.97667 0.24171 0.04694 0.0
C568 C 0.97023 0.18639 0.12385 0.0
H569 H 0.99565 0.1409 0.16326 0.0
C570 C 0.95044 0.1782 0.10547 0.0
C571 C 0.9869 0.17264 0.14119 0.0
C572 C 1.00889 0.18012 0.15615 0.0
C573 C 0.94666 0.15662 0.10869 0.0
C574 C 0.96307 0.14306 0.1314 0.0
C575 C 0.98302 0.15126 0.14569 0.0
C576 C 0.95992 0.12072 0.15087 0.0
C577 C 0.92516 0.14856 0.08878 0.0
C578 C 0.94701 0.11507 0.21941 0.0
C579 C 0.94947 0.09574 0.25877 0.0
C580 C 0.96519 0.08199 0.23125 0.0
C581 C 0.97626 0.08664 0.15606 0.0
C582 C 0.97356 0.10584 0.11599 0.0
H583 H 0.91689 0.15913 0.04422 0.0
H584 H 0.92576 0.13271 0.06031 0.0
H585 H 0.91592 0.14782 0.1487 0.0
H586 H 0.9365 0.1263 0.24804 0.0
H587 H 0.94032 0.09236 0.31528 0.0
H588 H 0.31439 1.01334 0.15479 0.0
H589 H 0.34863 0.99665 0.16224 0.0
H590 H 0.32217 0.93949 0.06497 0.0
H591 H 0.28762 0.95633 0.05996 0.0
H592 H 0.35046 0.93221 0.19111 0.0
H593 H 0.3848 0.98581 0.95536 0.0
H594 H 0.37234 1.00037 0.03883 0.0
H595 H 0.35702 0.98355 0.97133 0.0
C596 C 0.31596 0.99711 0.1367 0.0
C597 C 0.2987 0.98598 0.10702 0.0
C598 C 0.33545 0.98768 0.13961 0.0
C599 C 0.33804 0.96705 0.1114 0.0
C600 C 0.32053 0.95551 0.08584 0.0
H601 H 0.47226 0.95325 0.12349 0.0
H602 H 0.43825 0.94501 0.06101 0.0
C603 C 0.30089 0.96498 0.08366 0.0
C604 C 0.35917 0.95787 0.11 0.0
H605 H 0.40897 0.9711 0.05875 0.0
C606 C 0.36326 0.94034 0.16045 0.0
C607 C 0.37579 0.96783 0.06686 0.0
C608 C 0.37221 0.98527 0.0042 0.0
C609 C 0.3838 0.93409 0.17692 0.0
C610 C 0.40051 0.94613 0.14434 0.0
C611 C 0.39627 0.96206 0.08562 0.0
C612 C 0.4217 0.94536 0.18179 0.0
C613 C 0.38732 0.91517 0.23184 0.0
C614 C 0.42389 0.94762 0.27047 0.0
C615 C 0.44324 0.95204 0.306 0.0
C616 C 0.46082 0.9547 0.25355 0.0
C617 C 0.45893 0.9513 0.16527 0.0
C618 C 0.43954 0.94655 0.12967 0.0
H619 H 0.37556 0.90296 0.21733 0.0
H620 H 0.40312 0.90851 0.22239 0.0
H621 H 0.38532 0.91952 0.3 0.0
H622 H 0.41039 0.94762 0.31207 0.0
H623 H 0.44403 0.955 0.37402 0.0
H624 H 0.49054 0.28752 0.2361 0.0
H625 H 0.47938 0.32322 0.26554 0.0
H626 H 0.45563 0.32807 0.00886 0.0
H627 H 0.46518 0.29155 0.98272 0.0
H628 H 0.49947 0.35176 0.17506 0.0
H629 H 0.41425 0.36397 0.13868 0.0
H630 H 0.42553 0.3385 0.15452 0.0
H631 H 0.42664 0.3506 0.05134 0.0
C632 C 0.48192 0.29592 0.1879 0.0
C633 C 0.47898 0.28718 0.10691 0.0
C634 C 0.4757 0.31631 0.20423 0.0
C635 C 0.46689 0.3284 0.13905 0.0
C636 C 0.46218 0.31902 0.0604 0.0
H637 H 0.48842 0.46247 0.14618 0.0
H638 H 0.47663 0.42905 0.0879 0.0
C639 C 0.46787 0.29831 0.04507 0.0
C640 C 0.46651 0.3513 0.14913 0.0
H641 H 0.43522 0.39436 0.15431 0.0
C642 C 0.4854 0.36103 0.16999 0.0
C643 C 0.44818 0.36339 0.1418 0.0
C644 C 0.42744 0.35361 0.12103 0.0
C645 C 0.48634 0.38231 0.18782 0.0
C646 C 0.46803 0.39437 0.18175 0.0
C647 C 0.44922 0.38497 0.1576 0.0
C648 C 0.46828 0.41618 0.21071 0.0
C649 C 0.50661 0.39138 0.2198 0.0
C650 C 0.46661 0.42011 0.29827 0.0
C651 C 0.47387 0.43882 0.33203 0.0
C652 C 0.48276 0.45405 0.2785 0.0
C653 C 0.48218 0.45091 0.18947 0.0
C654 C 0.47512 0.43198 0.15579 0.0
H655 H 0.52009 0.38113 0.20486 0.0
H656 H 0.50955 0.40702 0.19249 0.0
H657 H 0.50564 0.39322 0.29019 0.0
H658 H 0.4616 0.40792 0.34145 0.0
H659 H 0.4742 0.44037 0.40081 0.0
H660 H 0.27237 0.59959 0.11063 0.0
H661 H 0.23978 0.61924 0.1361 0.0
H662 H 0.21204 0.56417 0.24595 0.0
H663 H 0.24438 0.54489 0.22083 0.0
H664 H 0.19883 0.60834 0.0713 0.0
H665 H 0.20027 0.61068 0.42329 0.0
H666 H 0.22349 0.60671 0.35963 0.0
H667 H 0.20654 0.58514 0.38412 0.0
C668 C 0.2593 0.592 0.14144 0.0
C669 C 0.26061 0.57093 0.16449 0.0
C670 C 0.2408 0.60309 0.15555 0.0
C671 C 0.22368 0.59321 0.19403 0.0
C672 C 0.22522 0.57219 0.21773 0.0
H673 H 0.10518 0.56762 0.19341 0.0
H674 H 0.13815 0.58173 0.145 0.0
C675 C 0.24355 0.56118 0.20326 0.0
C676 C 0.20356 0.60398 0.20627 0.0
H677 H 0.16585 0.60859 0.35802 0.0
C678 C 0.19172 0.60912 0.13415 0.0
C679 C 0.19451 0.60568 0.28828 0.0
C680 C 0.20697 0.60198 0.36827 0.0
C681 C 0.17033 0.6134 0.14167 0.0
C682 C 0.16067 0.61185 0.22262 0.0
C683 C 0.1731 0.60941 0.29548 0.0
C684 C 0.13802 0.608 0.23219 0.0
C685 C 0.15805 0.6186 0.06275 0.0
C686 C 0.12646 0.61845 0.29532 0.0
C687 C 0.10747 0.61028 0.32366 0.0
C688 C 0.09988 0.59142 0.2898 0.0
C689 C 0.11044 0.58224 0.22056 0.0
C690 C 0.12936 0.59041 0.19227 0.0
H691 H 0.16793 0.6269 0.01546 0.0
H692 H 0.15249 0.60403 0.0323 0.0
H693 H 0.1443 0.62839 0.0785 0.0
H694 H 0.13287 0.63202 0.32712 0.0
H695 H 0.09945 0.61795 0.37591 0.0
H696 H 0.05903 0.79585 0.24033 0.0
H697 H 0.05926 0.83417 0.23234 0.0
H698 H 0.99418 0.83516 0.30281 0.0
H699 H 0.99393 0.79699 0.30648 0.0
H700 H 1.00316 0.86377 0.18348 0.0
H701 H 0.05963 0.86846 0.44863 0.0
H702 H 0.07136 0.85841 0.35282 0.0
H703 H 0.05111 0.84395 0.40487 0.0
C704 C 0.0447 0.8044 0.25065 0.0
C705 C 0.02645 0.79383 0.27368 0.0
C706 C 0.04489 0.82616 0.24778 0.0
C707 C 0.02689 0.83747 0.26963 0.0
C708 C 1.00829 0.82675 0.28661 0.0
H709 H 0.9957 0.96891 0.26191 0.0
H710 H 0.99467 0.93298 0.31491 0.0
C711 C 1.00807 0.80505 0.28812 0.0
C712 C 0.02733 0.86044 0.27709 0.0
H713 H 0.05038 0.90084 0.38274 0.0
C714 C 1.01335 0.87192 0.22751 0.0
C715 C 0.04084 0.871 0.33396 0.0
C716 C 0.05647 0.85977 0.38857 0.0
C717 C 1.01284 0.89371 0.23125 0.0
C718 C 0.02601 0.90427 0.28972 0.0
C719 C 0.0399 0.89274 0.33973 0.0
C720 C 0.02746 0.92728 0.29146 0.0
C721 C 0.99905 0.90507 0.16877 0.0
C722 C 0.0467 0.93671 0.27369 0.0
C723 C 0.04745 0.95743 0.24801 0.0
C724 C 0.02892 0.96872 0.23806 0.0
C725 C 1.01013 0.96033 0.26847 0.0
C726 C 1.00951 0.93974 0.29708 0.0
H727 H 0.99424 0.89488 0.11485 0.0
H728 H 0.98469 0.91035 0.20193 0.0
H729 H 1.00711 0.9189 0.14186 0.0
H730 H 0.06085 0.92754 0.27064 0.0
H731 H 0.06213 0.96361 0.22492 0.0
H732 H 0.75637 1.00566 0.18339 0.0
H733 H 0.71824 1.00284 0.1831 0.0
H734 H 0.71394 0.06166 0.31628 0.0
H735 H 0.75205 0.06446 0.31481 0.0
H736 H 0.69689 1.00092 0.34058 0.0
H737 H 0.66776 0.06574 0.13851 0.0
H738 H 0.69426 0.05648 0.13228 0.0
H739 H 0.68624 0.07296 0.21923 0.0
C740 C 0.74711 0.01842 0.20824 0.0
C741 C 0.7568 0.03534 0.24837 0.0
C742 C 0.72547 1.01667 0.20957 0.0
C743 C 0.71336 0.03196 0.25038 0.0
C744 C 0.72301 0.04979 0.28393 0.0
H745 H 0.58002 0.03592 0.26219 0.0
H746 H 0.61392 0.04052 0.32793 0.0
C747 C 0.74466 0.05151 0.28242 0.0
C748 C 0.69096 0.02822 0.26461 0.0
H749 H 0.64282 0.04574 0.2111 0.0
C750 C 0.68501 1.01078 0.31286 0.0
C751 C 0.67561 0.04135 0.22979 0.0
C752 C 0.68119 0.06011 0.17651 0.0
C753 C 0.66398 1.00572 0.32501 0.0
C754 C 0.6486 0.01822 0.28627 0.0
C755 C 0.6546 0.03622 0.24143 0.0
C756 C 0.62662 1.0116 0.27912 0.0
C757 C 0.65855 0.98686 0.37781 0.0
C758 C 0.62193 0.99292 0.23651 0.0
C759 C 0.60237 0.99008 0.19979 0.0
C760 C 0.58749 1.0061 0.2037 0.0
C761 C 0.59116 0.02331 0.25738 0.0
C762 C 0.61065 0.02605 0.2947 0.0
H763 H 0.67001 0.9847 0.43005 0.0
H764 H 0.64271 0.98801 0.40598 0.0
H765 H 0.65923 0.97277 0.33668 0.0
H766 H 0.63399 0.98158 0.22306 0.0
H767 H 0.59976 0.97643 0.16034 0.0
H768 H 0.47955 0.76324 0.18025 0.0
H769 H 0.46302 0.72894 0.17146 0.0
H770 H 0.46627 0.7232 0.44514 0.0
H771 H 0.48221 0.75797 0.45401 0.0
H772 H 0.49326 0.69778 0.26785 0.0
H773 H 0.40837 0.69231 0.33925 0.0
H774 H 0.41905 0.71476 0.28501 0.0
H775 H 0.42477 0.71067 0.39544 0.0
C776 C 0.47558 0.75517 0.23868 0.0
C777 C 0.48207 0.76308 0.31775 0.0
C778 C 0.46621 0.7356 0.23371 0.0
C779 C 0.4633 0.7237 0.30774 0.0
C780 C 0.46802 0.73237 0.38759 0.0
H781 H 0.48311 0.59117 0.2746 0.0
H782 H 0.47402 0.62354 0.34673 0.0
C783 C 0.47721 0.75208 0.39257 0.0
C784 C 0.46081 0.70098 0.29898 0.0
H785 H 0.42557 0.66113 0.29765 0.0
C786 C 0.47856 0.68966 0.27567 0.0
C787 C 0.44154 0.69071 0.30886 0.0
C788 C 0.42222 0.7026 0.33355 0.0
C789 C 0.47756 0.66827 0.25983 0.0
C790 C 0.45821 0.65787 0.2681 0.0
C791 C 0.4404 0.66914 0.29272 0.0
C792 C 0.45632 0.63587 0.2414 0.0
C793 C 0.49711 0.65718 0.23057 0.0
C794 C 0.44756 0.6313 0.16174 0.0
C795 C 0.45229 0.61253 0.12076 0.0
C796 C 0.46616 0.59829 0.15836 0.0
C797 C 0.47255 0.60178 0.24308 0.0
C798 C 0.46746 0.62038 0.28454 0.0
H799 H 0.5099 0.66822 0.21497 0.0
H800 H 0.50265 0.64675 0.28201 0.0
H801 H 0.49391 0.64746 0.17333 0.0
H802 H 0.43872 0.643 0.12778 0.0
H803 H 0.44645 0.60998 0.05682 0.0
H804 H 0.7927 0.46614 0.42366 0.0
H805 H 0.82758 0.45023 0.4182 0.0
H806 H 0.83668 0.47536 0.16571 0.0
H807 H 0.80205 0.49143 0.17227 0.0
H808 H 0.85337 0.42426 0.30055 0.0
H809 H 0.87694 0.50661 0.3325 0.0
H810 H 0.85003 0.49865 0.33324 0.0
H811 H 0.86343 0.50247 0.23368 0.0
C812 C 0.80202 0.46761 0.36628 0.0
C813 C 0.795 0.47991 0.29839 0.0
C814 C 0.8218 0.45851 0.36297 0.0
C815 C 0.83473 0.46189 0.29202 0.0
C816 C 0.82692 0.47267 0.22113 0.0
H817 H 0.94895 0.4342 0.08295 0.0
H818 H 0.91595 0.42731 0.1535 0.0
C819 C 0.80722 0.48178 0.22464 0.0
C820 C 0.85729 0.45759 0.29716 0.0
H821 H 0.90384 0.48271 0.28771 0.0
C822 C 0.86452 0.43696 0.29891 0.0
C823 C 0.87177 0.47419 0.29777 0.0
C824 C 0.86513 0.49673 0.30005 0.0
C825 C 0.88599 0.43255 0.29496 0.0
C826 C 0.90035 0.44923 0.28858 0.0
C827 C 0.89299 0.4698 0.29292 0.0
C828 C 0.92253 0.44646 0.26432 0.0
C829 C 0.893 0.41015 0.29613 0.0
C830 C 0.93785 0.45852 0.30498 0.0
C831 C 0.95633 0.46345 0.26242 0.0
C832 C 0.96 0.45595 0.17916 0.0
C833 C 0.9462 0.44104 0.14522 0.0
C834 C 0.92744 0.43662 0.18672 0.0
H835 H 0.88239 0.40056 0.33613 0.0
H836 H 0.89246 0.40377 0.23025 0.0
H837 H 0.90912 0.40859 0.3207 0.0
H838 H 0.93449 0.46613 0.36533 0.0
H839 H 0.96656 0.47479 0.29165 0.0
H840 H 0.03677 0.23896 0.11197 0.0
H841 H 0.04205 0.20579 0.03593 0.0
H842 H 1.01368 0.23189 0.81155 0.0
H843 H 1.00899 0.26528 0.88748 0.0
H844 H 1.0044 0.1842 0.96666 0.0
H845 H 0.0659 0.19743 0.72146 0.0
H846 H 0.06431 0.21293 0.81783 0.0
H847 H 0.04581 0.21681 0.73397 0.0
C848 C 0.03255 0.23783 0.04526 0.0
C849 C 0.02291 0.25477 0.00493 0.0
C850 C 0.03525 0.21881 1.00218 0.0
C851 C 0.02816 0.21621 0.91804 0.0
C852 C 0.01952 0.2335 0.876 0.0
H853 H 0.02171 0.09914 0.613 0.0
H854 H 0.01993 0.13616 0.65522 0.0
C855 C 1.01698 0.25263 0.91904 0.0
C856 C 0.02778 0.19491 0.87857 0.0
H857 H 0.05029 0.16412 0.72479 0.0
C858 C 1.01451 0.17982 0.91405 0.0
C859 C 0.04052 0.18925 0.80829 0.0
C860 C 0.05507 0.20484 0.76792 0.0
C861 C 1.01396 0.15922 0.88283 0.0
C862 C 0.02733 0.15324 0.81468 0.0
C863 C 0.0401 0.16855 0.77709 0.0
C864 C 0.02916 0.13095 0.78619 0.0
C865 C 0.99897 0.14405 0.92343 0.0
C866 C 0.03543 0.11569 0.84462 0.0
C867 C 0.03652 0.09468 0.82075 0.0
C868 C 0.03146 0.08812 0.73727 0.0
C869 C 0.02571 0.10349 0.67774 0.0
C870 C 0.02467 0.1247 0.70188 0.0
H871 H 0.98532 0.15225 0.9516 0.0
H872 H 0.99325 0.13237 0.87662 0.0
H873 H 1.00702 0.1357 0.97571 0.0
H874 H 0.0394 0.12002 0.90944 0.0
H875 H 0.04119 0.08353 0.86877 0.0
H876 H 0.29805 0.04889 0.01481 0.0
H877 H 0.33102 0.05463 0.93763 0.0
H878 H 0.32906 0.99117 0.84612 0.0
H879 H 0.29571 0.98614 0.91815 0.0
H880 H 0.36618 0.03874 0.96604 0.0
H881 H 0.34926 1.0162 0.63465 0.0
H882 H 0.32878 0.02014 0.71203 0.0
H883 H 0.34191 0.99532 0.70395 0.0
C884 C 0.30426 0.03658 0.97475 0.0
C885 C 0.2942 1.01715 0.97154 0.0
C886 C 0.32328 0.0397 0.93157 0.0
C887 C 0.33273 0.02343 0.88449 0.0
C888 C 0.3221 1.0043 0.87897 0.0
H889 H 0.46625 1.00674 0.8415 0.0
H890 H 0.42952 1.00782 0.88083 0.0
C891 C 0.30302 1.00133 0.9208 0.0
C892 C 0.35446 0.02562 0.84894 0.0
H893 H 0.38543 1.0132 0.67744 0.0
C894 C 0.37022 0.03346 0.90229 0.0
C895 C 0.36009 0.0191 0.76523 0.0
C896 C 0.34403 1.01246 0.70054 0.0
C897 C 0.39126 0.0341 0.87626 0.0
C898 C 0.39712 0.02597 0.7952 0.0
C899 C 0.38125 0.01903 0.74025 0.0
C900 C 0.41953 0.02418 0.76741 0.0
C901 C 0.40688 0.04377 0.93632 0.0
C902 C 0.42636 0.03166 0.68743 0.0
C903 C 0.44751 0.03042 0.66329 0.0
C904 C 0.46235 0.02189 0.71908 0.0
C905 C 0.45536 1.01381 0.79758 0.0
C906 C 0.43427 1.01462 0.82068 0.0
H907 H 0.39943 0.05568 0.97799 0.0
H908 H 0.41329 0.0315 0.9785 0.0
H909 H 0.41991 0.05126 0.90117 0.0
H910 H 0.4154 0.03888 0.64425 0.0
H911 H 0.45235 0.03674 0.60234 0.0
H912 H 0.49572 0.28618 0.89493 0.0
H913 H 0.50091 0.32165 0.8432 0.0
H914 H 0.54564 0.33253 0.0437 0.0
H915 H 0.53846 0.29753 0.10038 0.0
H916 H 0.52502 0.3644 0.03753 0.0
H917 H 0.54099 0.34889 0.69862 0.0
H918 H 0.51611 0.33802 0.72418 0.0
H919 H 0.5393 0.32805 0.77495 0.0
C920 C 0.50693 0.2961 0.92677 0.0
C921 C 0.51673 0.28913 1.00128 0.0
C922 C 0.51011 0.31641 0.89667 0.0
C923 C 0.5241 0.33006 0.93766 0.0
C924 C 0.53477 0.32258 0.0101 0.0
H925 H 0.55038 0.45058 0.6879 0.0
H926 H 0.551 0.4142 0.735 0.0
C927 C 0.53098 0.30243 0.04193 0.0
C928 C 0.52637 0.3524 0.90887 0.0
H929 H 0.52856 0.3835 0.73167 0.0
C930 C 0.52614 0.36843 0.9705 0.0
C931 C 0.52833 0.35818 0.82166 0.0
C932 C 0.53145 0.34232 0.75143 0.0
C933 C 0.52738 0.38966 0.94777 0.0
C934 C 0.52734 0.39546 0.86031 0.0
C935 C 0.52808 0.37944 0.79877 0.0
C936 C 0.5269 0.41788 0.8313 0.0
C937 C 0.52953 0.40551 0.01849 0.0
C938 C 0.51301 0.43243 0.86791 0.0
C939 C 0.51328 0.45345 0.84316 0.0
C940 C 0.52669 0.46034 0.77798 0.0
C941 C 0.53984 0.44572 0.7382 0.0
C942 C 0.54014 0.42485 0.76521 0.0
H943 H 0.53729 0.39863 0.07504 0.0
H944 H 0.53876 0.41925 0.99797 0.0
H945 H 0.51381 0.41078 0.03866 0.0
H946 H 0.50186 0.4276 0.91583 0.0
H947 H 0.50274 0.46428 0.87415 0.0
H948 H 0.25679 0.50549 0.0991 0.0
H949 H 0.2227 0.49894 0.03183 0.0
H950 H 0.22579 0.55904 0.9103 0.0
H951 H 0.2598 0.56532 0.97621 0.0
H952 H 0.18899 0.55155 0.01262 0.0
H953 H 0.2038 0.48804 0.77785 0.0
H954 H 0.21404 0.48458 0.88374 0.0
H955 H 0.22429 0.50482 0.81701 0.0
C956 C 0.25048 0.51688 0.05545 0.0
C957 C 0.26097 0.53583 0.04212 0.0
C958 C 0.23096 0.51323 0.01747 0.0
C959 C 0.22164 0.52849 0.96566 0.0
C960 C 0.23261 0.54701 0.94968 0.0
H961 H 0.10691 0.52739 0.6634 0.0
H962 H 0.1432 0.52887 0.71241 0.0
C963 C 0.25207 0.55055 0.98698 0.0
C964 C 0.1998 0.52618 0.93415 0.0
H965 H 0.16878 0.49873 0.79636 0.0
C966 C 0.18457 0.53997 0.96543 0.0
C967 C 0.19403 0.5112 0.87211 0.0
C968 C 0.20985 0.49634 0.83495 0.0
C969 C 0.1638 0.53912 0.93696 0.0
C970 C 0.15792 0.52399 0.87547 0.0
C971 C 0.1732 0.5103 0.84352 0.0
C972 C 0.13594 0.52218 0.84448 0.0
C973 C 0.14842 0.55474 0.97201 0.0
C974 C 0.11974 0.51753 0.90173 0.0
C975 C 0.09902 0.51671 0.87404 0.0
C976 C 0.09385 0.52039 0.78795 0.0
C977 C 0.11019 0.52454 0.7301 0.0
C978 C 0.13099 0.52536 0.75805 0.0
H979 H 0.15641 0.56815 1.00248 0.0
H980 H 0.13807 0.56064 0.92087 0.0
H981 H 0.13857 0.54715 0.02128 0.0
H982 H 0.1231 0.51458 0.96831 0.0
H983 H 0.08702 0.51329 0.92072 0.0
H984 H 0.06097 0.78654 0.44342 0.0
H985 H 0.06061 0.81999 0.51797 0.0
H986 H 0.99379 0.81583 0.54341 0.0
H987 H 0.99448 0.78214 0.46858 0.0
H988 H 1.00175 0.85073 0.47648 0.0
H989 H 0.05683 0.84537 0.74398 0.0
H990 H 0.06952 0.83763 0.64708 0.0
H991 H 0.04794 0.82251 0.68766 0.0
C992 C 0.04639 0.79225 0.46941 0.0
C993 C 0.02783 0.78149 0.45193 0.0
C994 C 0.04609 0.81158 0.51167 0.0
C995 C 0.02714 0.82088 0.53681 0.0
C996 C 1.00869 0.8093 0.5248 0.0
H997 H 0.02751 0.94464 0.78873 0.0
H998 H 0.02571 0.90717 0.7584 0.0
C999 C 1.00906 0.78981 0.4833 0.0
C1000 C 0.0263 0.84342 0.565 0.0
H1001 H 0.05037 0.88005 0.69046 0.0
C1002 C 1.01218 0.85696 0.5245 0.0
C1003 C 0.03973 0.85198 0.62787 0.0
C1004 C 0.05417 0.83853 0.67968 0.0
C1005 C 1.01141 0.87848 0.5434 0.0
C1006 C 0.02578 0.88726 0.60218 0.0
C1007 C 0.03953 0.87367 0.64433 0.0
C1008 C 0.0268 0.91036 0.62086 0.0
C1009 C 0.9947 0.89141 0.50154 0.0
C1010 C 0.02835 0.92501 0.55441 0.0
C1011 C 0.02917 0.9465 0.57164 0.0
C1012 C 0.02885 0.95413 0.65614 0.0
C1013 C 0.02779 0.93948 0.72287 0.0
C1014 C 0.02677 0.91793 0.70546 0.0
H1015 H 0.9811 0.88168 0.48314 0.0
H1016 H 0.98918 0.90408 0.54439 0.0
H1017 H 1.00098 0.89849 0.44242 0.0
H1018 H 0.02908 0.91989 0.48871 0.0
H1019 H 0.0302 0.95713 0.51824 0.0
H1020 H 0.7694 0.05307 0.47355 0.0
H1021 H 0.73521 0.05145 0.54423 0.0
H1022 H 0.72581 0.98982 0.44115 0.0
H1023 H 0.76002 0.99159 0.37143 0.0
H1024 H 0.69922 0.04919 0.45715 0.0
H1025 H 0.70205 0.98211 0.67764 0.0
H1026 H 0.72529 0.99376 0.63334 0.0
H1027 H 0.71026 0.97555 0.5713 0.0
C1028 C 0.7605 0.03876 0.47028 0.0
C1029 C 0.76765 0.02223 0.419 0.0
C1030 C 0.74075 0.03795 0.50931 0.0
C1031 C 0.72771 0.02048 0.49867 0.0
C1032 C 0.73552 1.00335 0.45225 0.0
H1033 H 0.59192 0.02175 0.4931 0.0
H1034 H 0.62911 0.02184 0.46098 0.0
C1035 C 0.75524 1.00422 0.41305 0.0
C1036 C 0.70534 0.02114 0.52764 0.0
H1037 H 0.66814 0.99487 0.64233 0.0
C1038 C 0.69254 0.03738 0.49824 0.0
C1039 C 0.69637 1.00584 0.5816 0.0
C1040 C 0.70924 0.98844 0.61852 0.0
C1041 C 0.67117 0.03847 0.51919 0.0
C1042 C 0.66204 0.02282 0.57107 0.0
C1043 C 0.67494 1.00686 0.60234 0.0
C1044 C 0.63915 0.02259 0.59218 0.0
C1045 C 0.65866 0.05659 0.48595 0.0
C1046 C 0.63206 0.02248 0.67737 0.0
C1047 C 0.61059 0.02239 0.69651 0.0
C1048 C 0.5956 0.02221 0.63088 0.0
C1049 C 0.60281 0.02204 0.54575 0.0
C1050 C 0.6242 0.02219 0.52692 0.0
H1051 H 0.6688 0.07004 0.46948 0.0
H1052 H 0.65043 0.05176 0.427 0.0
H1053 H 0.64687 0.0618 0.53342 0.0
H1054 H 0.64316 0.02267 0.72926 0.0
H1055 H 0.60575 0.02241 0.76281 0.0
H1056 H 0.52686 0.76832 0.50587 0.0
H1057 H 0.53225 0.73358 0.56811 0.0
H1058 H 0.52934 0.70628 0.31659 0.0
H1059 H 0.52352 0.74101 0.25531 0.0
H1060 H 0.50235 0.68757 0.43006 0.0
H1061 H 0.58087 0.69282 0.5754 0.0
H1062 H 0.56327 0.71322 0.60673 0.0
H1063 H 0.57174 0.71135 0.49751 0.0
C1064 C 0.52816 0.75493 0.46402 0.0
C1065 C 0.52521 0.75731 0.37582 0.0
C1066 C 0.53114 0.73505 0.49946 0.0
C1067 C 0.53135 0.71717 0.44718 0.0
C1068 C 0.52926 0.71974 0.35846 0.0
H1069 H 0.53811 0.5832 0.50365 0.0
H1070 H 0.53784 0.61938 0.45648 0.0
C1071 C 0.52621 0.73957 0.32324 0.0
C1072 C 0.53194 0.69573 0.48484 0.0
H1073 H 0.56097 0.66259 0.60779 0.0
C1074 C 0.51527 0.6821 0.46821 0.0
C1075 C 0.5486 0.68858 0.53623 0.0
C1076 C 0.56724 0.70216 0.55462 0.0
C1077 C 0.51486 0.66167 0.50072 0.0
C1078 C 0.53159 0.65444 0.55113 0.0
C1079 C 0.54812 0.66811 0.56926 0.0
C1080 C 0.53248 0.63242 0.58198 0.0
C1081 C 0.4964 0.64792 0.48186 0.0
C1082 C 0.52988 0.62756 0.66885 0.0
C1083 C 0.52994 0.60669 0.69647 0.0
C1084 C 0.53285 0.59022 0.63783 0.0
C1085 C 0.53584 0.5953 0.5511 0.0
C1086 C 0.53563 0.61607 0.52369 0.0
H1087 H 0.48349 0.6566 0.45107 0.0
H1088 H 0.50134 0.63513 0.43859 0.0
H1089 H 0.49051 0.64071 0.54162 0.0
H1090 H 0.52746 0.6399 0.71514 0.0
H1091 H 0.52762 0.60349 0.76366 0.0
H1092 H 0.80844 0.53481 0.2978 0.0
H1093 H 0.84256 0.53986 0.3655 0.0
H1094 H 0.8209 0.50638 0.58712 0.0
H1095 H 0.78689 0.50133 0.51833 0.0
H1096 H 0.85978 0.55615 0.50172 0.0
H1097 H 0.86893 0.47065 0.52238 0.0
H1098 H 0.84642 0.48246 0.4749 0.0
H1099 H 0.84797 0.47968 0.58888 0.0
C1100 C 0.81087 0.52917 0.36206 0.0
C1101 C 0.7951 0.51784 0.4033 0.0
C1102 C 0.83039 0.53192 0.40074 0.0
C1103 C 0.83473 0.52289 0.48058 0.0
C1104 C 0.81835 0.5129 0.52439 0.0
H1105 H 0.95116 0.51223 0.77319 0.0
H1106 H 0.91451 0.51331 0.72921 0.0
C1107 C 0.7988 0.51028 0.48582 0.0
C1108 C 0.85658 0.52292 0.515 0.0
H1109 H 0.8956 0.49101 0.58676 0.0
C1110 C 0.86754 0.54187 0.52026 0.0
C1111 C 0.86703 0.5043 0.53893 0.0
C1112 C 0.85706 0.48311 0.53023 0.0
C1113 C 0.88832 0.54275 0.54929 0.0
C1114 C 0.89862 0.52419 0.57346 0.0
C1115 C 0.88769 0.50528 0.56894 0.0
C1116 C 0.92093 0.52394 0.60092 0.0
C1117 C 0.89907 0.56361 0.55462 0.0
C1118 C 0.93686 0.52929 0.54333 0.0
C1119 C 0.95783 0.52854 0.56802 0.0
C1120 C 0.9635 0.52247 0.65121 0.0
C1121 C 0.94748 0.51709 0.70883 0.0
C1122 C 0.92647 0.51767 0.68374 0.0
H1123 H 0.88778 0.57672 0.55308 0.0
H1124 H 0.90845 0.56482 0.61387 0.0
H1125 H 0.9098 0.5653 0.49937 0.0
H1126 H 0.93308 0.53382 0.47867 0.0
H1127 H 0.96962 0.53277 0.52157 0.0
loop_
_geom_bond_atom_site_label_1
_geom_bond_atom_site_label_2
_geom_bond_distance
_geom_bond_site_symmetry_2
_ccdc_geom_bond_type
C0 N1 1.317 . S
C0 N2 1.348 . S
C0 C3 1.485 . S
N1 C0 1.317 . S
N1 N5 1.370 . S
N2 C0 1.348 . S
N2 C4 1.346 . S
C3 C0 1.485 . S
C3 H7 0.960 . S
C3 H8 0.961 . S
C3 H9 0.960 . S
C4 N2 1.346 . S
C4 N5 1.307 . S
C4 C6 1.486 . S
N5 N1 1.370 . S
N5 C4 1.307 . S
C6 C4 1.486 . S
C6 H10 0.960 . S
C6 H11 0.960 . S
C6 H12 0.959 . S
H7 C3 0.960 . S
H8 C3 0.961 . S
H9 C3 0.960 . S
H10 C6 0.960 . S
H11 C6 0.960 . S
H12 C6 0.959 . S
C13 N14 1.317 . S
C13 N15 1.352 . S
C13 C16 1.485 . S
N14 C13 1.317 . S
N14 N18 1.372 . S
N15 C13 1.352 . S
N15 C17 1.345 . S
C16 C13 1.485 . S
C16 H20 0.960 1_655 S
C16 H21 0.961 . S
C16 H22 0.960 . S
C17 N15 1.345 . S
C17 N18 1.307 . S
C17 C19 1.486 1_655 S
N18 N14 1.372 . S
N18 C17 1.307 . S
C19 C17 1.486 1_455 S
C19 H23 0.940 1_455 S
C19 H24 0.976 . S
C19 H25 0.963 . S
H20 C16 0.960 1_455 S
H21 C16 0.961 . S
H22 C16 0.960 . S
H23 C19 0.940 1_655 S
H24 C19 0.976 . S
H25 C19 0.963 . S
C26 N27 1.317 . S
C26 N28 1.348 . S
C26 C29 1.485 . S
N27 C26 1.317 . S
N27 N31 1.370 . S
N28 C26 1.348 . S
N28 C30 1.349 . S
C29 C26 1.485 . S
C29 H33 0.960 1_565 S
C29 H34 0.961 . S
C29 H35 0.960 . S
C30 N28 1.349 . S
C30 N31 1.309 . S
C30 C32 1.485 . S
N31 N27 1.370 . S
N31 C30 1.309 . S
C32 C30 1.485 . S
C32 H36 0.971 . S
C32 H37 0.950 1_565 S
C32 H38 0.956 1_565 S
H33 C29 0.960 1_545 S
H34 C29 0.961 . S
H35 C29 0.960 . S
H36 C32 0.971 . S
H37 C32 0.950 1_545 S
H38 C32 0.956 1_545 S
C39 N40 1.317 . S
C39 N41 1.348 . S
C39 C42 1.485 . S
N40 C39 1.317 . S
N40 N44 1.370 . S
N41 C39 1.348 . S
N41 C43 1.346 . S
C42 C39 1.485 . S
C42 H46 0.960 . S
C42 H47 0.961 . S
C42 H48 0.960 . S
C43 N41 1.346 . S
C43 N44 1.307 . S
C43 C45 1.486 . S
N44 N40 1.370 . S
N44 C43 1.307 . S
C45 C43 1.486 . S
C45 H49 0.960 . S
C45 H50 0.960 . S
C45 H51 0.959 . S
H46 C42 0.960 . S
H47 C42 0.961 . S
H48 C42 0.960 . S
H49 C45 0.960 . S
H50 C45 0.960 . S
H51 C45 0.959 . S
C52 N53 1.317 . S
C52 N54 1.348 1_556 S
C52 C55 1.485 . S
N53 C52 1.317 . S
N53 N57 1.370 1_556 S
N54 C52 1.348 1_554 S
N54 C56 1.346 . S
C55 C52 1.485 . S
C55 H59 0.960 . S
C55 H60 0.961 . S
C55 H61 0.960 . S
C56 N54 1.346 . S
C56 N57 1.307 . S
C56 C58 1.486 . S
N57 N53 1.370 1_554 S
N57 C56 1.307 . S
C58 C56 1.486 . S
C58 H62 0.960 . S
C58 H63 0.960 . S
C58 H64 0.959 . S
H59 C55 0.960 . S
H60 C55 0.961 . S
H61 C55 0.960 . S
H62 C58 0.960 . S
H63 C58 0.960 . S
H64 C58 0.959 . S
C65 N66 1.317 . S
C65 N67 1.348 1_556 S
C65 C68 1.485 . S
N66 C65 1.317 . S
N66 N70 1.370 1_556 S
N67 C65 1.348 1_554 S
N67 C69 1.346 . S
C68 C65 1.485 . S
C68 H72 0.960 . S
C68 H73 0.961 1_455 S
C68 H74 0.974 . S
C69 N67 1.346 . S
C69 N70 1.307 . S
C69 C71 1.486 . S
N70 N66 1.370 1_554 S
N70 C69 1.307 . S
C71 C69 1.486 . S
C71 H75 0.960 1_455 S
C71 H76 0.960 . S
C71 H77 0.959 . S
H72 C68 0.960 . S
H73 C68 0.961 1_655 S
H74 C68 0.974 . S
H75 C71 0.960 1_655 S
H76 C71 0.960 . S
H77 C71 0.959 . S
C78 N79 1.317 . S
C78 N80 1.348 1_556 S
C78 C81 1.485 . S
N79 C78 1.317 . S
N79 N83 1.370 1_556 S
N80 C78 1.348 1_554 S
N80 C82 1.346 . S
C81 C78 1.485 . S
C81 H85 0.960 . S
C81 H86 0.961 1_545 S
C81 H87 0.956 1_545 S
C82 N80 1.346 . S
C82 N83 1.307 . S
C82 C84 1.486 . S
N83 N79 1.370 1_554 S
N83 C82 1.307 . S
C84 C82 1.486 . S
C84 H88 0.960 1_545 S
C84 H89 0.960 . S
C84 H90 0.959 . S
H85 C81 0.960 . S
H86 C81 0.961 1_565 S
H87 C81 0.956 1_565 S
H88 C84 0.960 1_565 S
H89 C84 0.960 . S
H90 C84 0.959 . S
C91 N92 1.317 . S
C91 N93 1.348 1_556 S
C91 C94 1.485 . S
N92 C91 1.317 . S
N92 N96 1.370 1_556 S
N93 C91 1.348 1_554 S
N93 C95 1.346 . S
C94 C91 1.485 . S
C94 H98 0.960 . S
C94 H99 0.961 . S
C94 H100 0.960 . S
C95 N93 1.346 . S
C95 N96 1.307 . S
C95 C97 1.486 . S
N96 N92 1.370 1_554 S
N96 C95 1.307 . S
C97 C95 1.486 . S
C97 H101 0.960 . S
C97 H102 0.960 . S
C97 H103 0.959 . S
H98 C94 0.960 . S
H99 C94 0.961 . S
H100 C94 0.960 . S
H101 C97 0.960 . S
H102 C97 0.960 . S
H103 C97 0.959 . S
Gd104 C107 2.818 . S
Gd104 O124 2.377 . S
Gd104 O126 2.448 . S
Gd104 O127 2.506 . S
Gd104 O128 2.435 . S
Gd104 O129 2.717 1_565 S
Gd104 O131 2.395 1_565 S
Gd104 O135 2.327 1_455 S
Gd105 C116 2.818 . S
Gd105 O125 2.395 1_545 S
Gd105 O129 2.327 1_655 S
Gd105 O130 2.377 . S
Gd105 O132 2.448 . S
Gd105 O133 2.506 1_655 S
Gd105 O134 2.435 . S
Gd105 O135 2.717 1_545 S
C106 O124 1.240 1_655 S
C106 O125 1.240 . S
C107 Gd104 2.818 . S
C107 C108 1.510 . S
C107 O126 1.249 . S
C107 O127 1.252 . S
C108 C107 1.510 . S
C108 C109 1.404 . S
C108 C110 1.352 . S
C109 C108 1.404 . S
C109 C113 1.389 . S
C109 H136 0.930 . S
C110 C108 1.352 . S
C110 C112 1.374 . S
C110 H137 0.931 1_455 S
C111 C112 1.359 1_554 S
C111 C113 1.364 1_554 S
C112 C110 1.374 . S
C112 C111 1.359 1_556 S
C112 H138 0.931 1_456 S
C113 C109 1.389 . S
C113 C111 1.364 1_556 S
C113 H139 0.931 . S
C114 O128 1.256 1_545 S
C114 O129 1.257 . S
C115 O130 1.240 1_455 S
C115 O131 1.240 . S
C116 Gd105 2.818 . S
C116 C117 1.510 . S
C116 O132 1.249 . S
C116 O133 1.252 1_655 S
C117 C116 1.510 . S
C117 C118 1.404 . S
C117 C119 1.352 1_655 S
C118 C117 1.404 . S
C118 C122 1.389 . S
C118 H140 0.930 . S
C119 C117 1.352 1_455 S
C119 C121 1.379 . S
C119 H141 0.931 . S
C120 C121 1.307 1_655 S
C120 C122 1.364 . S
C121 C119 1.379 . S
C121 C120 1.307 1_455 S
C121 H142 0.979 . S
C122 C118 1.389 . S
C122 C120 1.364 . S
C122 H143 0.931 . S
C123 O134 1.256 . S
C123 O135 1.257 1_545 S
O124 Gd104 2.377 . S
O124 C106 1.240 1_455 S
O125 Gd105 2.395 1_565 S
O125 C106 1.240 . S
O126 Gd104 2.448 . S
O126 C107 1.249 . S
O127 Gd104 2.506 . S
O127 C107 1.252 . S
O128 Gd104 2.435 . S
O128 C114 1.256 1_565 S
O129 Gd104 2.717 1_545 S
O129 Gd105 2.327 1_455 S
O129 C114 1.257 . S
O130 Gd105 2.377 . S
O130 C115 1.240 1_655 S
O131 Gd104 2.395 1_545 S
O131 C115 1.240 . S
O132 Gd105 2.448 . S
O132 C116 1.249 . S
O133 Gd105 2.506 1_455 S
O133 C116 1.252 1_455 S
O134 Gd105 2.435 . S
O134 C123 1.256 . S
O135 Gd104 2.327 1_655 S
O135 Gd105 2.717 1_565 S
O135 C123 1.257 1_565 S
H136 C109 0.930 . S
H137 C110 0.931 1_655 S
H138 C112 0.931 1_654 S
H139 C113 0.931 . S
H140 C118 0.930 . S
H141 C119 0.931 . S
H142 C121 0.979 . S
H143 C122 0.931 . S
Gd144 C147 2.818 . S
Gd144 O164 2.377 . S
Gd144 O166 2.448 . S
Gd144 O167 2.506 . S
Gd144 O168 2.435 . S
Gd144 O169 2.717 . S
Gd144 O171 2.395 . S
Gd144 O175 2.327 1_545 S
Gd145 C156 2.818 . S
Gd145 O165 2.395 . S
Gd145 O169 2.327 1_565 S
Gd145 O170 2.377 . S
Gd145 O172 2.448 . S
Gd145 O173 2.506 1_565 S
Gd145 O174 2.435 . S
Gd145 O175 2.717 . S
C146 O164 1.240 1_565 S
C146 O165 1.240 . S
C147 Gd144 2.818 . S
C147 C148 1.510 . S
C147 O166 1.249 . S
C147 O167 1.252 . S
C148 C147 1.510 . S
C148 C149 1.404 . S
C148 C150 1.352 . S
C149 C148 1.404 . S
C149 C153 1.389 . S
C149 H176 0.930 . S
C150 C148 1.352 . S
C150 C152 1.374 . S
C150 H177 0.931 1_545 S
C151 C152 1.359 1_554 S
C151 C153 1.364 1_554 S
C152 C150 1.374 . S
C152 C151 1.359 1_556 S
C152 H178 0.931 1_546 S
C153 C149 1.389 . S
C153 C151 1.364 1_556 S
C153 H179 0.931 . S
C154 O168 1.256 . S
C154 O169 1.257 . S
C155 O170 1.240 1_545 S
C155 O171 1.240 . S
C156 Gd145 2.818 . S
C156 C157 1.510 . S
C156 O172 1.249 . S
C156 O173 1.252 1_565 S
C157 C156 1.510 . S
C157 C158 1.404 . S
C157 C159 1.352 1_565 S
C158 C157 1.404 . S
C158 C162 1.389 . S
C158 H180 0.930 . S
C159 C157 1.352 1_545 S
C159 C161 1.374 . S
C159 H181 0.931 . S
C160 C161 1.356 1_565 S
C160 C162 1.364 . S
C161 C159 1.374 . S
C161 C160 1.356 1_545 S
C161 H182 0.933 . S
C162 C158 1.389 . S
C162 C160 1.364 . S
C162 H183 0.931 . S
C163 O174 1.256 . S
C163 O175 1.257 . S
O164 Gd144 2.377 . S
O164 C146 1.240 1_545 S
O165 Gd145 2.395 . S
O165 C146 1.240 . S
O166 Gd144 2.448 . S
O166 C147 1.249 . S
O167 Gd144 2.506 . S
O167 C147 1.252 . S
O168 Gd144 2.435 . S
O168 C154 1.256 . S
O169 Gd144 2.717 . S
O169 Gd145 2.327 1_545 S
O169 C154 1.257 . S
O170 Gd145 2.377 . S
O170 C155 1.240 1_565 S
O171 Gd144 2.395 . S
O171 C155 1.240 . S
O172 Gd145 2.448 . S
O172 C156 1.249 . S
O173 Gd145 2.506 1_545 S
O173 C156 1.252 1_545 S
O174 Gd145 2.435 . S
O174 C163 1.256 . S
O175 Gd144 2.327 1_565 S
O175 Gd145 2.717 . S
O175 C163 1.257 . S
H176 C149 0.930 . S
H177 C150 0.931 1_565 S
H178 C152 0.931 1_564 S
H179 C153 0.931 . S
H180 C158 0.930 . S
H181 C159 0.931 . S
H182 C161 0.933 . S
H183 C162 0.931 . S
Gd184 C187 2.818 . S
Gd184 O204 2.377 . S
Gd184 O206 2.448 . S
Gd184 O207 2.506 . S
Gd184 O208 2.435 . S
Gd184 O209 2.717 . S
Gd184 O211 2.395 . S
Gd184 O215 2.327 . S
Gd185 C196 2.818 . S
Gd185 O205 2.395 . S
Gd185 O209 2.327 . S
Gd185 O210 2.377 . S
Gd185 O212 2.448 . S
Gd185 O213 2.506 . S
Gd185 O214 2.435 . S
Gd185 O215 2.717 . S
C186 O204 1.240 . S
C186 O205 1.240 . S
C187 Gd184 2.818 . S
C187 C188 1.510 . S
C187 O206 1.249 . S
C187 O207 1.252 . S
C188 C187 1.510 . S
C188 C189 1.404 . S
C188 C190 1.352 . S
C189 C188 1.404 . S
C189 C193 1.389 . S
C189 H216 0.930 . S
C190 C188 1.352 . S
C190 C192 1.374 . S
C190 H217 0.931 . S
C191 C192 1.359 1_554 S
C191 C193 1.364 1_554 S
C192 C190 1.374 . S
C192 C191 1.359 1_556 S
C192 H218 0.931 1_556 S
C193 C189 1.389 . S
C193 C191 1.364 1_556 S
C193 H219 0.931 . S
C194 O208 1.256 . S
C194 O209 1.257 . S
C195 O210 1.240 . S
C195 O211 1.240 . S
C196 Gd185 2.818 . S
C196 C197 1.510 . S
C196 O212 1.249 . S
C196 O213 1.252 . S
C197 C196 1.510 . S
C197 C198 1.404 . S
C197 C199 1.352 . S
C198 C197 1.404 . S
C198 C202 1.389 . S
C198 H220 0.930 . S
C199 C197 1.352 . S
C199 C201 1.374 . S
C199 H221 0.931 . S
C200 C201 1.359 . S
C200 C202 1.364 . S
C201 C199 1.374 . S
C201 C200 1.359 . S
C201 H222 0.931 . S
C202 C198 1.389 . S
C202 C200 1.364 . S
C202 H223 0.931 . S
C203 O214 1.256 . S
C203 O215 1.257 . S
O204 Gd184 2.377 . S
O204 C186 1.240 . S
O205 Gd185 2.395 . S
O205 C186 1.240 . S
O206 Gd184 2.448 . S
O206 C187 1.249 . S
O207 Gd184 2.506 . S
O207 C187 1.252 . S
O208 Gd184 2.435 . S
O208 C194 1.256 . S
O209 Gd184 2.717 . S
O209 Gd185 2.327 . S
O209 C194 1.257 . S
O210 Gd185 2.377 . S
O210 C195 1.240 . S
O211 Gd184 2.395 . S
O211 C195 1.240 . S
O212 Gd185 2.448 . S
O212 C196 1.249 . S
O213 Gd185 2.506 . S
O213 C196 1.252 . S
O214 Gd185 2.435 . S
O214 C203 1.256 . S
O215 Gd184 2.327 . S
O215 Gd185 2.717 . S
O215 C203 1.257 . S
H216 C189 0.930 . S
H217 C190 0.931 . S
H218 C192 0.931 1_554 S
H219 C193 0.931 . S
H220 C198 0.930 . S
H221 C199 0.931 . S
H222 C201 0.931 . S
H223 C202 0.931 . S
Gd224 C227 2.818 . S
Gd224 O244 2.377 . S
Gd224 O246 2.448 . S
Gd224 O247 2.506 . S
Gd224 O248 2.435 . S
Gd224 O249 2.717 1_655 S
Gd224 O251 2.395 1_655 S
Gd224 O255 2.331 . S
Gd225 C236 2.818 . S
Gd225 O245 2.395 1_455 S
Gd225 O249 2.327 . S
Gd225 O250 2.377 . S
Gd225 O252 2.448 . S
Gd225 O253 2.506 . S
Gd225 O254 2.435 . S
Gd225 O255 2.710 1_455 S
C226 O244 1.240 . S
C226 O245 1.240 . S
C227 Gd224 2.818 . S
C227 C228 1.510 . S
C227 O246 1.249 . S
C227 O247 1.252 . S
C228 C227 1.510 . S
C228 C229 1.404 . S
C228 C230 1.352 . S
C229 C228 1.404 . S
C229 C233 1.389 . S
C229 H256 0.930 . S
C230 C228 1.352 . S
C230 C232 1.374 . S
C230 H257 0.931 . S
C231 C232 1.359 1_554 S
C231 C233 1.364 1_554 S
C232 C230 1.374 . S
C232 C231 1.359 1_556 S
C232 H258 0.931 1_556 S
C233 C229 1.389 . S
C233 C231 1.364 1_556 S
C233 H259 0.931 . S
C234 O248 1.256 1_455 S
C234 O249 1.257 . S
C235 O250 1.240 . S
C235 O251 1.240 . S
C236 Gd225 2.818 . S
C236 C237 1.510 . S
C236 O252 1.249 . S
C236 O253 1.252 . S
C237 C236 1.510 . S
C237 C238 1.404 . S
C237 C239 1.352 . S
C238 C237 1.404 . S
C238 C242 1.389 . S
C238 H260 0.930 . S
C239 C237 1.352 . S
C239 C241 1.374 . S
C239 H261 0.931 . S
C240 C241 1.359 . S
C240 C242 1.364 . S
C241 C239 1.374 . S
C241 C240 1.359 . S
C241 H262 0.931 . S
C242 C238 1.389 . S
C242 C240 1.364 . S
C242 H263 0.931 . S
C243 O254 1.256 . S
C243 O255 1.252 1_455 S
O244 Gd224 2.377 . S
O244 C226 1.240 . S
O245 Gd225 2.395 1_655 S
O245 C226 1.240 . S
O246 Gd224 2.448 . S
O246 C227 1.249 . S
O247 Gd224 2.506 . S
O247 C227 1.252 . S
O248 Gd224 2.435 . S
O248 C234 1.256 1_655 S
O249 Gd224 2.717 1_455 S
O249 Gd225 2.327 . S
O249 C234 1.257 . S
O250 Gd225 2.377 . S
O250 C235 1.240 . S
O251 Gd224 2.395 1_455 S
O251 C235 1.240 . S
O252 Gd225 2.448 . S
O252 C236 1.249 . S
O253 Gd225 2.506 . S
O253 C236 1.252 . S
O254 Gd225 2.435 . S
O254 C243 1.256 . S
O255 Gd224 2.331 . S
O255 Gd225 2.710 1_655 S
O255 C243 1.252 1_655 S
H256 C229 0.930 . S
H257 C230 0.931 . S
H258 C232 0.931 1_554 S
H259 C233 0.931 . S
H260 C238 0.930 . S
H261 C239 0.931 . S
H262 C241 0.931 . S
H263 C242 0.931 . S
H264 C272 0.929 . S
H265 C274 0.930 . S
H266 C276 0.930 . S
H267 C279 0.929 . S
H268 C282 0.930 . S
H269 C284 0.960 . S
H270 C284 0.960 1_565 S
H271 C284 0.960 . S
C272 H264 0.929 . S
C272 C273 1.377 1_565 S
C272 C274 1.384 . S
C273 C272 1.377 1_545 S
C273 C279 1.390 . S
C274 H265 0.930 . S
C274 C272 1.384 . S
C274 C275 1.372 1_565 S
C275 C274 1.372 1_545 S
C275 C276 1.400 . S
C275 C280 1.490 . S
C276 H266 0.930 . S
C276 C275 1.400 . S
C276 C279 1.386 . S
H277 C293 0.930 . S
H278 C294 0.931 . S
C279 H267 0.929 . S
C279 C273 1.390 . S
C279 C276 1.386 . S
C280 C275 1.490 . S
C280 C282 1.395 . S
C280 C283 1.403 . S
H281 C287 0.930 . S
C282 H268 0.930 . S
C282 C280 1.395 . S
C282 C285 1.403 . S
C283 C280 1.403 . S
C283 C284 1.524 . S
C283 C287 1.400 . S
C284 H269 0.960 . S
C284 H270 0.960 1_545 S
C284 H271 0.960 . S
C284 C283 1.524 . S
C285 C282 1.403 . S
C285 C286 1.392 . S
C285 C289 1.495 . S
C286 C285 1.392 . S
C286 C287 1.385 . S
C286 C288 1.478 . S
C287 H281 0.930 . S
C287 C283 1.400 . S
C287 C286 1.385 . S
C288 C286 1.478 . S
C288 C290 1.381 1_545 S
C288 C294 1.383 . S
C289 C285 1.495 . S
C289 H295 0.959 . S
C289 H296 0.961 . S
C289 H297 0.960 1_545 S
C290 C288 1.381 1_565 S
C290 C291 1.394 . S
C290 H298 0.930 . S
C291 C290 1.394 . S
C291 C292 1.383 1_565 S
C291 H299 0.929 . S
C292 C291 1.383 1_545 S
C292 C293 1.377 . S
C293 H277 0.930 . S
C293 C292 1.377 . S
C293 C294 1.379 . S
C294 H278 0.931 . S
C294 C288 1.383 . S
C294 C293 1.379 . S
H295 C289 0.959 . S
H296 C289 0.961 . S
H297 C289 0.960 1_565 S
H298 C290 0.930 . S
H299 C291 0.929 . S
H300 C308 0.929 . S
H301 C310 0.930 . S
H302 C312 0.930 . S
H303 C315 0.929 . S
H304 C318 0.930 . S
H305 C320 0.960 . S
H306 C320 0.960 . S
H307 C320 0.960 . S
C308 H300 0.929 . S
C308 C309 1.377 . S
C308 C310 1.384 . S
C309 C308 1.377 . S
C309 C315 1.390 . S
C310 H301 0.930 . S
C310 C308 1.384 . S
C310 C311 1.372 . S
C311 C310 1.372 . S
C311 C312 1.400 . S
C311 C316 1.490 . S
C312 H302 0.930 . S
C312 C311 1.400 . S
C312 C315 1.386 . S
H313 C329 0.930 . S
H314 C330 0.931 . S
C315 H303 0.929 . S
C315 C309 1.390 . S
C315 C312 1.386 . S
C316 C311 1.490 . S
C316 C318 1.395 . S
C316 C319 1.403 . S
H317 C323 0.930 . S
C318 H304 0.930 . S
C318 C316 1.395 . S
C318 C321 1.403 . S
C319 C316 1.403 . S
C319 C320 1.524 . S
C319 C323 1.400 . S
C320 H305 0.960 . S
C320 H306 0.960 . S
C320 H307 0.960 . S
C320 C319 1.524 . S
C321 C318 1.403 . S
C321 C322 1.392 . S
C321 C325 1.495 . S
C322 C321 1.392 . S
C322 C323 1.385 . S
C322 C324 1.478 . S
C323 H317 0.930 . S
C323 C319 1.400 . S
C323 C322 1.385 . S
C324 C322 1.478 . S
C324 C326 1.381 . S
C324 C330 1.383 . S
C325 C321 1.495 . S
C325 H331 0.959 . S
C325 H332 0.961 . S
C325 H333 0.960 . S
C326 C324 1.381 . S
C326 C327 1.394 . S
C326 H334 0.930 . S
C327 C326 1.394 . S
C327 C328 1.383 . S
C327 H335 0.929 . S
C328 C327 1.383 . S
C328 C329 1.377 . S
C329 H313 0.930 . S
C329 C328 1.377 . S
C329 C330 1.379 . S
C330 H314 0.931 . S
C330 C324 1.383 . S
C330 C329 1.379 . S
H331 C325 0.959 . S
H332 C325 0.961 . S
H333 C325 0.960 . S
H334 C326 0.930 . S
H335 C327 0.929 . S
H336 C344 0.929 . S
H337 C346 0.930 . S
H338 C348 0.930 . S
H339 C351 0.929 . S
H340 C354 0.930 . S
H341 C356 0.960 . S
H342 C356 0.960 . S
H343 C356 0.960 . S
C344 H336 0.929 . S
C344 C345 1.377 . S
C344 C346 1.384 . S
C345 C344 1.377 . S
C345 C351 1.390 . S
C346 H337 0.930 . S
C346 C344 1.384 . S
C346 C347 1.372 . S
C347 C346 1.372 . S
C347 C348 1.400 . S
C347 C352 1.490 . S
C348 H338 0.930 . S
C348 C347 1.400 . S
C348 C351 1.386 . S
H349 C365 0.930 . S
H350 C366 0.931 . S
C351 H339 0.929 . S
C351 C345 1.390 . S
C351 C348 1.386 . S
C352 C347 1.490 . S
C352 C354 1.395 . S
C352 C355 1.403 . S
H353 C359 0.930 . S
C354 H340 0.930 . S
C354 C352 1.395 . S
C354 C357 1.403 . S
C355 C352 1.403 . S
C355 C356 1.524 . S
C355 C359 1.400 . S
C356 H341 0.960 . S
C356 H342 0.960 . S
C356 H343 0.960 . S
C356 C355 1.524 . S
C357 C354 1.403 . S
C357 C358 1.392 . S
C357 C361 1.495 . S
C358 C357 1.392 . S
C358 C359 1.385 . S
C358 C360 1.478 . S
C359 H353 0.930 . S
C359 C355 1.400 . S
C359 C358 1.385 . S
C360 C358 1.478 . S
C360 C362 1.381 . S
C360 C366 1.383 . S
C361 C357 1.495 . S
C361 H367 0.959 . S
C361 H368 0.961 . S
C361 H369 0.960 . S
C362 C360 1.381 . S
C362 C363 1.394 . S
C362 H370 0.930 . S
C363 C362 1.394 . S
C363 C364 1.383 . S
C363 H371 0.929 . S
C364 C363 1.383 . S
C364 C365 1.377 . S
C365 H349 0.930 . S
C365 C364 1.377 . S
C365 C366 1.379 . S
C366 H350 0.931 . S
C366 C360 1.383 . S
C366 C365 1.379 . S
H367 C361 0.959 . S
H368 C361 0.961 . S
H369 C361 0.960 . S
H370 C362 0.930 . S
H371 C363 0.929 . S
H372 C380 0.929 . S
H373 C382 0.930 . S
H374 C384 0.930 . S
H375 C387 0.929 . S
H376 C390 0.930 . S
H377 C392 0.960 . S
H378 C392 0.960 . S
H379 C392 0.960 . S
C380 H372 0.929 . S
C380 C381 1.377 . S
C380 C382 1.384 . S
C381 C380 1.377 . S
C381 C387 1.390 . S
C382 H373 0.930 . S
C382 C380 1.384 . S
C382 C383 1.372 . S
C383 C382 1.372 . S
C383 C384 1.400 . S
C383 C388 1.490 . S
C384 H374 0.930 . S
C384 C383 1.400 . S
C384 C387 1.386 . S
H385 C401 0.922 1_655 S
H386 C402 0.932 1_655 S
C387 H375 0.929 . S
C387 C381 1.390 . S
C387 C384 1.386 . S
C388 C383 1.490 . S
C388 C390 1.395 1_455 S
C388 C391 1.403 . S
H389 C395 0.930 . S
C390 H376 0.930 . S
C390 C388 1.395 1_655 S
C390 C393 1.403 . S
C391 C388 1.403 . S
C391 C392 1.524 . S
C391 C395 1.400 . S
C392 H377 0.960 . S
C392 H378 0.960 . S
C392 H379 0.960 . S
C392 C391 1.524 . S
C393 C390 1.403 . S
C393 C394 1.392 1_655 S
C393 C397 1.495 . S
C394 C393 1.392 1_455 S
C394 C395 1.385 . S
C394 C396 1.478 . S
C395 H389 0.930 . S
C395 C391 1.400 . S
C395 C394 1.385 . S
C396 C394 1.478 . S
C396 C398 1.381 . S
C396 C402 1.382 . S
C397 C393 1.495 . S
C397 H403 0.959 . S
C397 H404 0.961 . S
C397 H405 0.960 . S
C398 C396 1.381 . S
C398 C399 1.394 . S
C398 H406 0.930 . S
C399 C398 1.394 . S
C399 C400 1.383 . S
C399 H407 0.929 . S
C400 C399 1.383 . S
C400 C401 1.388 . S
C401 H385 0.922 1_455 S
C401 C400 1.388 . S
C401 C402 1.378 . S
C402 H386 0.932 1_455 S
C402 C396 1.382 . S
C402 C401 1.378 . S
H403 C397 0.959 . S
H404 C397 0.961 . S
H405 C397 0.960 . S
H406 C398 0.930 . S
H407 C399 0.929 . S
H408 C416 0.929 . S
H409 C418 0.930 . S
H410 C420 0.930 . S
H411 C423 0.929 . S
H412 C426 0.930 . S
H413 C428 0.960 . S
H414 C428 0.960 . S
H415 C428 0.960 . S
C416 H408 0.929 . S
C416 C417 1.377 . S
C416 C418 1.384 . S
C417 C416 1.377 . S
C417 C423 1.390 1_565 S
C418 H409 0.930 . S
C418 C416 1.384 . S
C418 C419 1.372 . S
C419 C418 1.372 . S
C419 C420 1.400 1_565 S
C419 C424 1.491 . S
C420 H410 0.930 . S
C420 C419 1.400 1_545 S
C420 C423 1.386 . S
H421 C437 0.930 . S
H422 C438 0.931 1_554 S
C423 H411 0.929 . S
C423 C417 1.390 1_545 S
C423 C420 1.386 . S
C424 C419 1.491 . S
C424 C426 1.384 1_565 S
C424 C427 1.413 . S
H425 C431 0.930 . S
C426 H412 0.930 . S
C426 C424 1.384 1_545 S
C426 C429 1.403 1_554 S
C427 C424 1.413 . S
C427 C428 1.524 . S
C427 C431 1.400 . S
C428 H413 0.960 . S
C428 H414 0.960 . S
C428 H415 0.960 . S
C428 C427 1.524 . S
C429 C426 1.403 1_556 S
C429 C430 1.392 1_556 S
C429 C433 1.495 . S
C430 C429 1.392 1_554 S
C430 C431 1.385 1_545 S
C430 C432 1.478 1_554 S
C431 H425 0.930 . S
C431 C427 1.400 . S
C431 C430 1.385 1_565 S
C432 C430 1.478 1_556 S
C432 C434 1.381 1_545 S
C432 C438 1.383 . S
C433 C429 1.495 . S
C433 H439 0.959 . S
C433 H440 0.961 . S
C433 H441 0.960 . S
C434 C432 1.381 1_565 S
C434 C435 1.394 . S
C434 H442 0.930 . S
C435 C434 1.394 . S
C435 C436 1.383 1_565 S
C435 H443 0.929 . S
C436 C435 1.383 1_545 S
C436 C437 1.377 . S
C437 H421 0.930 . S
C437 C436 1.377 . S
C437 C438 1.379 . S
C438 H422 0.931 1_556 S
C438 C432 1.383 . S
C438 C437 1.379 . S
H439 C433 0.959 . S
H440 C433 0.961 . S
H441 C433 0.960 . S
H442 C434 0.930 . S
H443 C435 0.929 . S
H444 C452 0.929 . S
H445 C454 0.930 . S
H446 C456 0.930 . S
H447 C459 0.929 . S
H448 C462 0.930 . S
H449 C464 0.960 . S
H450 C464 0.960 . S
H451 C464 0.960 . S
C452 H444 0.929 . S
C452 C453 1.377 . S
C452 C454 1.384 . S
C453 C452 1.377 . S
C453 C459 1.390 . S
C454 H445 0.930 . S
C454 C452 1.384 . S
C454 C455 1.372 . S
C455 C454 1.372 . S
C455 C456 1.400 . S
C455 C460 1.490 . S
C456 H446 0.930 . S
C456 C455 1.400 . S
C456 C459 1.386 . S
H457 C473 0.930 . S
H458 C474 0.931 1_554 S
C459 H447 0.929 . S
C459 C453 1.390 . S
C459 C456 1.386 . S
C460 C455 1.490 . S
C460 C462 1.395 . S
C460 C463 1.403 . S
H461 C467 0.930 . S
C462 H448 0.930 . S
C462 C460 1.395 . S
C462 C465 1.403 . S
C463 C460 1.403 . S
C463 C464 1.524 . S
C463 C467 1.400 . S
C464 H449 0.960 . S
C464 H450 0.960 . S
C464 H451 0.960 . S
C464 C463 1.524 . S
C465 C462 1.403 . S
C465 C466 1.392 . S
C465 C469 1.495 1_554 S
C466 C465 1.392 . S
C466 C467 1.385 . S
C466 C468 1.478 1_554 S
C467 H461 0.930 . S
C467 C463 1.400 . S
C467 C466 1.385 . S
C468 C466 1.478 1_556 S
C468 C470 1.381 . S
C468 C474 1.383 . S
C469 C465 1.495 1_556 S
C469 H475 0.959 . S
C469 H476 0.961 . S
C469 H477 0.960 . S
C470 C468 1.381 . S
C470 C471 1.394 . S
C470 H478 0.930 . S
C471 C470 1.394 . S
C471 C472 1.383 . S
C471 H479 0.929 . S
C472 C471 1.383 . S
C472 C473 1.377 . S
C473 H457 0.930 . S
C473 C472 1.377 . S
C473 C474 1.379 . S
C474 H458 0.931 1_556 S
C474 C468 1.383 . S
C474 C473 1.379 . S
H475 C469 0.959 . S
H476 C469 0.961 . S
H477 C469 0.960 . S
H478 C470 0.930 . S
H479 C471 0.929 . S
H480 C488 0.929 . S
H481 C490 0.930 . S
H482 C492 0.930 . S
H483 C495 0.929 . S
H484 C498 0.930 . S
H485 C500 0.960 . S
H486 C500 0.960 . S
H487 C500 0.960 . S
C488 H480 0.929 . S
C488 C489 1.377 . S
C488 C490 1.384 . S
C489 C488 1.377 . S
C489 C495 1.390 . S
C490 H481 0.930 . S
C490 C488 1.384 . S
C490 C491 1.372 . S
C491 C490 1.372 . S
C491 C492 1.400 . S
C491 C496 1.490 . S
C492 H482 0.930 . S
C492 C491 1.400 . S
C492 C495 1.386 . S
H493 C509 0.930 . S
H494 C510 0.931 . S
C495 H483 0.929 . S
C495 C489 1.390 . S
C495 C492 1.386 . S
C496 C491 1.490 . S
C496 C498 1.395 . S
C496 C499 1.403 . S
H497 C503 0.930 . S
C498 H484 0.930 . S
C498 C496 1.395 . S
C498 C501 1.403 . S
C499 C496 1.403 . S
C499 C500 1.524 . S
C499 C503 1.400 . S
C500 H485 0.960 . S
C500 H486 0.960 . S
C500 H487 0.960 . S
C500 C499 1.524 . S
C501 C498 1.403 . S
C501 C502 1.392 . S
C501 C505 1.495 1_554 S
C502 C501 1.392 . S
C502 C503 1.385 . S
C502 C504 1.478 1_554 S
C503 H497 0.930 . S
C503 C499 1.400 . S
C503 C502 1.385 . S
C504 C502 1.478 1_556 S
C504 C506 1.381 . S
C504 C510 1.383 . S
C505 C501 1.495 1_556 S
C505 H511 0.959 . S
C505 H512 0.961 . S
C505 H513 0.960 . S
C506 C504 1.381 . S
C506 C507 1.394 . S
C506 H514 0.930 . S
C507 C506 1.394 . S
C507 C508 1.383 . S
C507 H515 0.929 . S
C508 C507 1.383 . S
C508 C509 1.377 . S
C509 H493 0.930 . S
C509 C508 1.377 . S
C509 C510 1.379 . S
C510 H494 0.931 . S
C510 C504 1.383 . S
C510 C509 1.379 . S
H511 C505 0.959 . S
H512 C505 0.961 . S
H513 C505 0.960 . S
H514 C506 0.930 . S
H515 C507 0.929 . S
H516 C524 0.929 . S
H517 C526 0.930 . S
H518 C528 0.930 . S
H519 C531 0.929 . S
H520 C534 0.930 . S
H521 C536 0.960 . S
H522 C536 0.982 . S
H523 C536 0.960 . S
C524 H516 0.929 . S
C524 C525 1.393 . S
C524 C526 1.384 . S
C525 C524 1.393 . S
C525 C531 1.374 1_655 S
C526 H517 0.930 . S
C526 C524 1.384 . S
C526 C527 1.408 . S
C527 C526 1.408 . S
C527 C528 1.364 1_655 S
C527 C532 1.490 . S
C528 H518 0.930 . S
C528 C527 1.364 1_455 S
C528 C531 1.386 . S
H529 C545 0.930 . S
H530 C546 0.931 . S
C531 H519 0.929 . S
C531 C525 1.374 1_455 S
C531 C528 1.386 . S
C532 C527 1.490 . S
C532 C534 1.407 . S
C532 C535 1.391 1_655 S
H533 C539 0.930 . S
C534 H520 0.930 . S
C534 C532 1.407 . S
C534 C537 1.403 1_554 S
C535 C532 1.391 1_455 S
C535 C536 1.524 . S
C535 C539 1.400 . S
C536 H521 0.960 . S
C536 H522 0.982 . S
C536 H523 0.960 . S
C536 C535 1.524 . S
C537 C534 1.403 1_556 S
C537 C538 1.406 1_556 S
C537 C541 1.495 . S
C538 C537 1.406 1_554 S
C538 C539 1.373 1_655 S
C538 C540 1.477 1_654 S
C539 H533 0.930 . S
C539 C535 1.400 . S
C539 C538 1.373 1_455 S
C540 C538 1.477 1_456 S
C540 C542 1.387 1_455 S
C540 C546 1.377 . S
C541 C537 1.495 . S
C541 H547 0.959 . S
C541 H548 0.961 . S
C541 H549 0.960 . S
C542 C540 1.387 1_655 S
C542 C543 1.394 . S
C542 H550 0.930 . S
C543 C542 1.394 . S
C543 C544 1.383 1_655 S
C543 H551 0.929 . S
C544 C543 1.383 1_455 S
C544 C545 1.377 . S
C545 H529 0.930 . S
C545 C544 1.377 . S
C545 C546 1.379 . S
C546 H530 0.931 . S
C546 C540 1.377 . S
C546 C545 1.379 . S
H547 C541 0.959 . S
H548 C541 0.961 . S
H549 C541 0.960 . S
H550 C542 0.930 . S
H551 C543 0.929 . S
H552 C560 0.929 . S
H553 C562 0.930 . S
H554 C564 0.930 . S
H555 C567 0.929 1_556 S
H556 C570 0.930 . S
H557 C572 0.960 . S
H558 C572 0.960 . S
H559 C572 0.960 . S
C560 H552 0.929 . S
C560 C561 1.377 . S
C560 C562 1.384 . S
C561 C560 1.377 . S
C561 C567 1.390 . S
C562 H553 0.930 . S
C562 C560 1.384 . S
C562 C563 1.372 . S
C563 C562 1.372 . S
C563 C564 1.400 . S
C563 C568 1.490 1_455 S
C564 H554 0.930 . S
C564 C563 1.400 . S
C564 C567 1.386 . S
H565 C581 0.930 . S
H566 C582 0.931 . S
C567 H555 0.929 1_554 S
C567 C561 1.390 . S
C567 C564 1.386 . S
C568 C563 1.490 1_655 S
C568 C570 1.395 . S
C568 C571 1.403 1_655 S
H569 C575 0.930 . S
C570 H556 0.930 . S
C570 C568 1.395 . S
C570 C573 1.403 . S
C571 C568 1.403 1_455 S
C571 C572 1.524 . S
C571 C575 1.400 . S
C572 H557 0.960 . S
C572 H558 0.960 . S
C572 H559 0.960 . S
C572 C571 1.524 . S
C573 C570 1.403 . S
C573 C574 1.392 . S
C573 C577 1.495 . S
C574 C573 1.392 . S
C574 C575 1.385 1_655 S
C574 C576 1.478 . S
C575 H569 0.930 . S
C575 C571 1.400 . S
C575 C574 1.385 1_455 S
C576 C574 1.478 . S
C576 C578 1.381 . S
C576 C582 1.383 . S
C577 C573 1.495 . S
C577 H583 0.959 . S
C577 H584 0.961 . S
C577 H585 0.960 . S
C578 C576 1.381 . S
C578 C579 1.394 . S
C578 H586 0.930 . S
C579 C578 1.394 . S
C579 C580 1.383 . S
C579 H587 0.929 . S
C580 C579 1.383 . S
C580 C581 1.377 . S
C581 H565 0.930 . S
C581 C580 1.377 . S
C581 C582 1.379 . S
C582 H566 0.931 . S
C582 C576 1.383 . S
C582 C581 1.379 . S
H583 C577 0.959 . S
H584 C577 0.961 . S
H585 C577 0.960 . S
H586 C578 0.930 . S
H587 C579 0.929 . S
H588 C596 0.929 . S
H589 C598 0.930 . S
H590 C600 0.930 . S
H591 C603 0.929 . S
H592 C606 0.930 . S
H593 C608 0.961 1_565 S
H594 C608 0.957 . S
H595 C608 0.962 1_565 S
C596 H588 0.929 . S
C596 C597 1.377 . S
C596 C598 1.384 . S
C597 C596 1.377 . S
C597 C603 1.390 1_545 S
C598 H589 0.930 . S
C598 C596 1.384 . S
C598 C599 1.372 . S
C599 C598 1.372 . S
C599 C600 1.400 1_545 S
C599 C604 1.490 1_545 S
C600 H590 0.930 . S
C600 C599 1.400 1_565 S
C600 C603 1.386 . S
H601 C617 0.930 . S
H602 C618 0.931 . S
C603 H591 0.929 . S
C603 C597 1.390 1_565 S
C603 C600 1.386 . S
C604 C599 1.490 1_565 S
C604 C606 1.395 . S
C604 C607 1.403 . S
H605 C611 0.930 . S
C606 H592 0.930 . S
C606 C604 1.395 . S
C606 C609 1.403 . S
C607 C604 1.403 . S
C607 C608 1.524 1_565 S
C607 C611 1.400 . S
C608 H593 0.961 1_545 S
C608 H594 0.957 . S
C608 H595 0.962 1_545 S
C608 C607 1.524 1_545 S
C609 C606 1.403 . S
C609 C610 1.392 . S
C609 C613 1.495 . S
C610 C609 1.392 . S
C610 C611 1.385 . S
C610 C612 1.478 . S
C611 H605 0.930 . S
C611 C607 1.400 . S
C611 C610 1.385 . S
C612 C610 1.478 . S
C612 C614 1.388 . S
C612 C618 1.383 . S
C613 C609 1.495 . S
C613 H619 0.959 . S
C613 H620 0.961 . S
C613 H621 0.964 . S
C614 C612 1.388 . S
C614 C615 1.396 . S
C614 H622 0.921 1_565 S
C615 C614 1.396 . S
C615 C616 1.383 . S
C615 H623 0.929 1_565 S
C616 C615 1.383 . S
C616 C617 1.377 . S
C617 H601 0.930 . S
C617 C616 1.377 . S
C617 C618 1.379 . S
C618 H602 0.931 . S
C618 C612 1.383 . S
C618 C617 1.379 . S
H619 C613 0.959 . S
H620 C613 0.961 . S
H621 C613 0.964 . S
H622 C614 0.921 1_545 S
H623 C615 0.929 1_545 S
H624 C632 0.929 . S
H625 C634 0.930 . S
H626 C636 0.930 . S
H627 C639 0.929 1_556 S
H628 C642 0.930 . S
H629 C644 0.960 . S
H630 C644 0.960 . S
H631 C644 0.960 . S
C632 H624 0.929 . S
C632 C633 1.377 . S
C632 C634 1.384 . S
C633 C632 1.377 . S
C633 C639 1.390 . S
C634 H625 0.930 . S
C634 C632 1.384 . S
C634 C635 1.372 . S
C635 C634 1.372 . S
C635 C636 1.400 . S
C635 C640 1.490 . S
C636 H626 0.930 . S
C636 C635 1.400 . S
C636 C639 1.386 . S
H637 C653 0.930 . S
H638 C654 0.931 . S
C639 H627 0.929 1_554 S
C639 C633 1.390 . S
C639 C636 1.386 . S
C640 C635 1.490 . S
C640 C642 1.395 . S
C640 C643 1.403 . S
H641 C647 0.930 . S
C642 H628 0.930 . S
C642 C640 1.395 . S
C642 C645 1.403 . S
C643 C640 1.403 . S
C643 C644 1.524 . S
C643 C647 1.400 . S
C644 H629 0.960 . S
C644 H630 0.960 . S
C644 H631 0.960 . S
C644 C643 1.524 . S
C645 C642 1.403 . S
C645 C646 1.392 . S
C645 C649 1.495 . S
C646 C645 1.392 . S
C646 C647 1.385 . S
C646 C648 1.478 . S
C647 H641 0.930 . S
C647 C643 1.400 . S
C647 C646 1.385 . S
C648 C646 1.478 . S
C648 C650 1.381 . S
C648 C654 1.383 . S
C649 C645 1.495 . S
C649 H655 0.959 . S
C649 H656 0.961 . S
C649 H657 0.960 . S
C650 C648 1.381 . S
C650 C651 1.394 . S
C650 H658 0.930 . S
C651 C650 1.394 . S
C651 C652 1.383 . S
C651 H659 0.929 . S
C652 C651 1.383 . S
C652 C653 1.377 . S
C653 H637 0.930 . S
C653 C652 1.377 . S
C653 C654 1.379 . S
C654 H638 0.931 . S
C654 C648 1.383 . S
C654 C653 1.379 . S
H655 C649 0.959 . S
H656 C649 0.961 . S
H657 C649 0.960 . S
H658 C650 0.930 . S
H659 C651 0.929 . S
H660 C668 0.929 . S
H661 C670 0.930 . S
H662 C672 0.930 . S
H663 C675 0.929 1_556 S
H664 C678 0.930 . S
H665 C680 0.960 . S
H666 C680 0.960 . S
H667 C680 0.960 . S
C668 H660 0.929 . S
C668 C669 1.377 . S
C668 C670 1.384 . S
C669 C668 1.377 . S
C669 C675 1.390 . S
C670 H661 0.930 . S
C670 C668 1.384 . S
C670 C671 1.372 . S
C671 C670 1.372 . S
C671 C672 1.400 . S
C671 C676 1.490 . S
C672 H662 0.930 . S
C672 C671 1.400 . S
C672 C675 1.386 . S
H673 C689 0.930 . S
H674 C690 0.931 . S
C675 H663 0.929 1_554 S
C675 C669 1.390 . S
C675 C672 1.386 . S
C676 C671 1.490 . S
C676 C678 1.395 . S
C676 C679 1.403 . S
H677 C683 0.930 . S
C678 H664 0.930 . S
C678 C676 1.395 . S
C678 C681 1.403 . S
C679 C676 1.403 . S
C679 C680 1.524 . S
C679 C683 1.400 . S
C680 H665 0.960 . S
C680 H666 0.960 . S
C680 H667 0.960 . S
C680 C679 1.524 . S
C681 C678 1.403 . S
C681 C682 1.392 . S
C681 C685 1.495 . S
C682 C681 1.392 . S
C682 C683 1.385 . S
C682 C684 1.478 . S
C683 H677 0.930 . S
C683 C679 1.400 . S
C683 C682 1.385 . S
C684 C682 1.478 . S
C684 C686 1.381 . S
C684 C690 1.383 . S
C685 C681 1.495 . S
C685 H691 0.959 . S
C685 H692 0.961 . S
C685 H693 0.960 . S
C686 C684 1.381 . S
C686 C687 1.394 . S
C686 H694 0.930 . S
C687 C686 1.394 . S
C687 C688 1.383 . S
C687 H695 0.929 . S
C688 C687 1.383 . S
C688 C689 1.377 . S
C689 H673 0.930 . S
C689 C688 1.377 . S
C689 C690 1.379 . S
C690 H674 0.931 . S
C690 C684 1.383 . S
C690 C689 1.379 . S
H691 C685 0.959 . S
H692 C685 0.961 . S
H693 C685 0.960 . S
H694 C686 0.930 . S
H695 C687 0.929 . S
H696 C704 0.929 . S
H697 C706 0.930 . S
H698 C708 0.930 . S
H699 C711 0.929 . S
H700 C714 0.930 . S
H701 C716 0.960 . S
H702 C716 0.960 . S
H703 C716 0.960 . S
C704 H696 0.929 . S
C704 C705 1.377 1_455 S
C704 C706 1.384 . S
C705 C704 1.377 1_655 S
C705 C711 1.390 . S
C706 H697 0.930 . S
C706 C704 1.384 . S
C706 C707 1.372 . S
C707 C706 1.372 . S
C707 C708 1.400 . S
C707 C712 1.490 . S
C708 H698 0.930 . S
C708 C707 1.400 . S
C708 C711 1.386 1_455 S
H709 C725 0.930 . S
H710 C726 0.931 . S
C711 H699 0.929 . S
C711 C705 1.390 . S
C711 C708 1.386 1_655 S
C712 C707 1.490 . S
C712 C714 1.395 1_455 S
C712 C715 1.403 . S
H713 C719 0.930 . S
C714 H700 0.930 . S
C714 C712 1.395 1_655 S
C714 C717 1.403 . S
C715 C712 1.403 . S
C715 C716 1.524 . S
C715 C719 1.400 . S
C716 H701 0.960 . S
C716 H702 0.960 . S
C716 H703 0.960 . S
C716 C715 1.524 . S
C717 C714 1.403 . S
C717 C718 1.392 1_655 S
C717 C721 1.495 . S
C718 C717 1.392 1_455 S
C718 C719 1.385 . S
C718 C720 1.478 . S
C719 H713 0.930 . S
C719 C715 1.400 . S
C719 C718 1.385 . S
C720 C718 1.478 . S
C720 C722 1.381 . S
C720 C726 1.383 . S
C721 C717 1.495 . S
C721 H727 0.959 . S
C721 H728 0.961 . S
C721 H729 0.960 1_554 S
C722 C720 1.381 . S
C722 C723 1.394 1_554 S
C722 H730 0.930 1_554 S
C723 C722 1.394 1_556 S
C723 C724 1.383 1_556 S
C723 H731 0.929 . S
C724 C723 1.383 1_554 S
C724 C725 1.377 . S
C725 H709 0.930 . S
C725 C724 1.377 . S
C725 C726 1.379 . S
C726 H710 0.931 . S
C726 C720 1.383 . S
C726 C725 1.379 . S
H727 C721 0.959 . S
H728 C721 0.961 . S
H729 C721 0.960 1_556 S
H730 C722 0.930 1_556 S
H731 C723 0.929 . S
H732 C740 0.929 . S
H733 C742 0.930 . S
H734 C744 0.930 . S
H735 C747 0.929 . S
H736 C750 0.921 1_565 S
H737 C752 0.960 . S
H738 C752 0.960 . S
H739 C752 0.960 . S
C740 H732 0.929 . S
C740 C741 1.377 . S
C740 C742 1.384 . S
C741 C740 1.377 . S
C741 C747 1.390 1_565 S
C742 H733 0.930 . S
C742 C740 1.384 . S
C742 C743 1.372 1_565 S
C743 C742 1.372 1_545 S
C743 C744 1.400 . S
C743 C748 1.490 . S
C744 H734 0.930 . S
C744 C743 1.400 . S
C744 C747 1.386 . S
H745 C761 0.930 . S
H746 C762 0.931 . S
C747 H735 0.929 . S
C747 C741 1.390 1_545 S
C747 C744 1.386 . S
C748 C743 1.490 . S
C748 C750 1.395 . S
C748 C751 1.403 . S
H749 C755 0.930 . S
C750 H736 0.921 1_545 S
C750 C748 1.395 . S
C750 C753 1.403 . S
C751 C748 1.403 . S
C751 C752 1.524 . S
C751 C755 1.400 . S
C752 H737 0.960 . S
C752 H738 0.960 . S
C752 H739 0.960 . S
C752 C751 1.524 . S
C753 C750 1.403 . S
C753 C754 1.392 . S
C753 C757 1.495 . S
C754 C753 1.392 . S
C754 C755 1.385 . S
C754 C756 1.478 . S
C755 H749 0.930 . S
C755 C751 1.400 . S
C755 C754 1.385 . S
C756 C754 1.478 . S
C756 C758 1.381 . S
C756 C762 1.383 . S
C757 C753 1.495 . S
C757 H763 0.946 1_545 S
C757 H764 0.961 . S
C757 H765 0.960 1_545 S
C758 C756 1.381 . S
C758 C759 1.394 . S
C758 H766 0.930 1_545 S
C759 C758 1.394 . S
C759 C760 1.383 . S
C759 H767 0.929 1_545 S
C760 C759 1.383 . S
C760 C761 1.377 . S
C761 H745 0.930 . S
C761 C760 1.377 . S
C761 C762 1.379 . S
C762 H746 0.931 . S
C762 C756 1.383 . S
C762 C761 1.379 . S
H763 C757 0.946 1_565 S
H764 C757 0.961 . S
H765 C757 0.960 1_565 S
H766 C758 0.930 1_565 S
H767 C759 0.929 1_565 S
H768 C776 0.929 . S
H769 C778 0.930 . S
H770 C780 0.930 . S
H771 C783 0.929 . S
H772 C786 0.930 . S
H773 C788 0.960 . S
H774 C788 0.960 . S
H775 C788 0.960 . S
C776 H768 0.929 . S
C776 C777 1.377 . S
C776 C778 1.384 . S
C777 C776 1.377 . S
C777 C783 1.390 . S
C778 H769 0.930 . S
C778 C776 1.384 . S
C778 C779 1.372 . S
C779 C778 1.372 . S
C779 C780 1.400 . S
C779 C784 1.490 . S
C780 H770 0.930 . S
C780 C779 1.400 . S
C780 C783 1.386 . S
H781 C797 0.930 . S
H782 C798 0.931 . S
C783 H771 0.929 . S
C783 C777 1.390 . S
C783 C780 1.386 . S
C784 C779 1.490 . S
C784 C786 1.395 . S
C784 C787 1.403 . S
H785 C791 0.930 . S
C786 H772 0.930 . S
C786 C784 1.395 . S
C786 C789 1.403 . S
C787 C784 1.403 . S
C787 C788 1.524 . S
C787 C791 1.400 . S
C788 H773 0.960 . S
C788 H774 0.960 . S
C788 H775 0.960 . S
C788 C787 1.524 . S
C789 C786 1.403 . S
C789 C790 1.392 . S
C789 C793 1.495 . S
C790 C789 1.392 . S
C790 C791 1.385 . S
C790 C792 1.478 . S
C791 H785 0.930 . S
C791 C787 1.400 . S
C791 C790 1.385 . S
C792 C790 1.478 . S
C792 C794 1.381 . S
C792 C798 1.383 . S
C793 C789 1.495 . S
C793 H799 0.959 . S
C793 H800 0.961 . S
C793 H801 0.960 1_554 S
C794 C792 1.381 . S
C794 C795 1.394 1_554 S
C794 H802 0.930 1_554 S
C795 C794 1.394 1_556 S
C795 C796 1.383 1_556 S
C795 H803 0.929 . S
C796 C795 1.383 1_554 S
C796 C797 1.377 . S
C797 H781 0.930 . S
C797 C796 1.377 . S
C797 C798 1.379 . S
C798 H782 0.931 . S
C798 C792 1.383 . S
C798 C797 1.379 . S
H799 C793 0.959 . S
H800 C793 0.961 . S
H801 C793 0.960 1_556 S
H802 C794 0.930 1_556 S
H803 C795 0.929 . S
H804 C812 0.929 . S
H805 C814 0.930 . S
H806 C816 0.930 . S
H807 C819 0.929 . S
H808 C822 0.930 . S
H809 C824 0.960 . S
H810 C824 0.960 . S
H811 C824 0.960 . S
C812 H804 0.929 . S
C812 C813 1.377 . S
C812 C814 1.384 . S
C813 C812 1.377 . S
C813 C819 1.390 . S
C814 H805 0.930 . S
C814 C812 1.384 . S
C814 C815 1.372 . S
C815 C814 1.372 . S
C815 C816 1.400 . S
C815 C820 1.490 . S
C816 H806 0.930 . S
C816 C815 1.400 . S
C816 C819 1.386 . S
H817 C833 0.930 . S
H818 C834 0.931 . S
C819 H807 0.929 . S
C819 C813 1.390 . S
C819 C816 1.386 . S
C820 C815 1.490 . S
C820 C822 1.395 . S
C820 C823 1.403 . S
H821 C827 0.930 . S
C822 H808 0.930 . S
C822 C820 1.395 . S
C822 C825 1.403 . S
C823 C820 1.403 . S
C823 C824 1.524 . S
C823 C827 1.400 . S
C824 H809 0.960 . S
C824 H810 0.960 . S
C824 H811 0.960 . S
C824 C823 1.524 . S
C825 C822 1.403 . S
C825 C826 1.392 . S
C825 C829 1.495 . S
C826 C825 1.392 . S
C826 C827 1.385 . S
C826 C828 1.478 . S
C827 H821 0.930 . S
C827 C823 1.400 . S
C827 C826 1.385 . S
C828 C826 1.478 . S
C828 C830 1.381 . S
C828 C834 1.383 . S
C829 C825 1.495 . S
C829 H835 0.959 . S
C829 H836 0.961 . S
C829 H837 0.960 . S
C830 C828 1.381 . S
C830 C831 1.394 . S
C830 H838 0.930 . S
C831 C830 1.394 . S
C831 C832 1.383 . S
C831 H839 0.929 . S
C832 C831 1.383 . S
C832 C833 1.377 1_554 S
C833 H817 0.930 . S
C833 C832 1.377 1_556 S
C833 C834 1.379 1_556 S
C834 H818 0.931 . S
C834 C828 1.383 . S
C834 C833 1.379 1_554 S
H835 C829 0.959 . S
H836 C829 0.961 . S
H837 C829 0.960 . S
H838 C830 0.930 . S
H839 C831 0.929 . S
H840 C848 0.929 1_554 S
H841 C850 0.930 1_554 S
H842 C852 0.930 1_655 S
H843 C855 0.929 1_655 S
H844 C858 0.930 1_655 S
H845 C860 0.960 . S
H846 C860 0.960 . S
H847 C860 0.960 . S
C848 H840 0.929 1_556 S
C848 C849 1.377 . S
C848 C850 1.384 . S
C849 C848 1.377 . S
C849 C855 1.390 . S
C850 H841 0.930 1_556 S
C850 C848 1.384 . S
C850 C851 1.372 . S
C851 C850 1.372 . S
C851 C852 1.400 . S
C851 C856 1.490 . S
C852 H842 0.930 1_455 S
C852 C851 1.400 . S
C852 C855 1.386 . S
H853 C869 0.930 1_655 S
H854 C870 0.904 1_655 S
C855 H843 0.929 1_455 S
C855 C849 1.390 . S
C855 C852 1.386 . S
C856 C851 1.490 . S
C856 C858 1.395 . S
C856 C859 1.403 . S
H857 C863 0.930 . S
C858 H844 0.930 1_455 S
C858 C856 1.395 . S
C858 C861 1.403 . S
C859 C856 1.403 . S
C859 C860 1.524 . S
C859 C863 1.400 . S
C860 H845 0.960 . S
C860 H846 0.960 . S
C860 H847 0.960 . S
C860 C859 1.524 . S
C861 C858 1.403 . S
C861 C862 1.392 . S
C861 C865 1.495 1_455 S
C862 C861 1.392 . S
C862 C863 1.385 . S
C862 C864 1.478 . S
C863 H857 0.930 . S
C863 C859 1.400 . S
C863 C862 1.385 . S
C864 C862 1.478 . S
C864 C866 1.381 . S
C864 C870 1.408 . S
C865 C861 1.495 1_655 S
C865 H871 0.959 1_556 S
C865 H872 0.961 . S
C865 H873 0.958 1_656 S
C866 C864 1.381 . S
C866 C867 1.394 . S
C866 H874 0.930 . S
C867 C866 1.394 . S
C867 C868 1.383 . S
C867 H875 0.929 . S
C868 C867 1.383 . S
C868 C869 1.377 . S
C869 H853 0.930 1_455 S
C869 C868 1.377 . S
C869 C870 1.384 . S
C870 H854 0.904 1_455 S
C870 C864 1.408 . S
C870 C869 1.384 . S
H871 C865 0.959 1_554 S
H872 C865 0.961 . S
H873 C865 0.958 1_454 S
H874 C866 0.930 . S
H875 C867 0.929 . S
H876 C884 0.929 . S
H877 C886 0.930 . S
H878 C888 0.930 1_565 S
H879 C891 0.912 1_564 S
H880 C894 0.930 . S
H881 C896 0.960 . S
H882 C896 0.960 . S
H883 C896 0.960 . S
C884 H876 0.929 . S
C884 C885 1.377 . S
C884 C886 1.384 . S
C885 C884 1.377 . S
C885 C891 1.407 . S
C886 H877 0.930 . S
C886 C884 1.384 . S
C886 C887 1.372 . S
C887 C886 1.372 . S
C887 C888 1.400 . S
C887 C892 1.490 . S
C888 H878 0.930 1_545 S
C888 C887 1.400 . S
C888 C891 1.388 . S
H889 C905 0.930 . S
H890 C906 0.931 . S
C891 H879 0.912 1_546 S
C891 C885 1.407 . S
C891 C888 1.388 . S
C892 C887 1.490 . S
C892 C894 1.395 . S
C892 C895 1.403 1_545 S
H893 C899 0.930 . S
C894 H880 0.930 . S
C894 C892 1.395 . S
C894 C897 1.403 . S
C895 C892 1.403 1_565 S
C895 C896 1.524 . S
C895 C899 1.400 . S
C896 H881 0.960 . S
C896 H882 0.960 . S
C896 H883 0.960 . S
C896 C895 1.524 . S
C897 C894 1.403 . S
C897 C898 1.392 . S
C897 C901 1.495 . S
C898 C897 1.392 . S
C898 C899 1.385 1_545 S
C898 C900 1.478 . S
C899 H893 0.930 . S
C899 C895 1.400 . S
C899 C898 1.385 1_565 S
C900 C898 1.478 . S
C900 C902 1.381 . S
C900 C906 1.383 . S
C901 C897 1.495 . S
C901 H907 0.959 . S
C901 H908 0.961 . S
C901 H909 0.960 . S
C902 C900 1.381 . S
C902 C903 1.394 . S
C902 H910 0.930 . S
C903 C902 1.394 . S
C903 C904 1.383 . S
C903 H911 0.929 . S
C904 C903 1.383 . S
C904 C905 1.377 . S
C905 H889 0.930 . S
C905 C904 1.377 . S
C905 C906 1.379 . S
C906 H890 0.931 . S
C906 C900 1.383 . S
C906 C905 1.379 . S
H907 C901 0.959 . S
H908 C901 0.961 . S
H909 C901 0.960 . S
H910 C902 0.930 . S
H911 C903 0.929 . S
H912 C920 0.929 . S
H913 C922 0.930 . S
H914 C924 0.930 . S
H915 C927 0.929 . S
H916 C930 0.930 . S
H917 C932 0.960 . S
H918 C932 0.960 . S
H919 C932 0.960 . S
C920 H912 0.929 . S
C920 C921 1.377 . S
C920 C922 1.384 . S
C921 C920 1.377 . S
C921 C927 1.390 . S
C922 H913 0.930 . S
C922 C920 1.384 . S
C922 C923 1.372 . S
C923 C922 1.372 . S
C923 C924 1.400 . S
C923 C928 1.490 . S
C924 H914 0.930 . S
C924 C923 1.400 . S
C924 C927 1.386 . S
H925 C941 0.930 . S
H926 C942 0.931 . S
C927 H915 0.929 . S
C927 C921 1.390 . S
C927 C924 1.386 . S
C928 C923 1.490 . S
C928 C930 1.395 . S
C928 C931 1.403 . S
H929 C935 0.930 . S
C930 H916 0.930 . S
C930 C928 1.395 . S
C930 C933 1.403 . S
C931 C928 1.403 . S
C931 C932 1.524 . S
C931 C935 1.400 . S
C932 H917 0.960 . S
C932 H918 0.960 . S
C932 H919 0.960 . S
C932 C931 1.524 . S
C933 C930 1.403 . S
C933 C934 1.392 . S
C933 C937 1.495 . S
C934 C933 1.392 . S
C934 C935 1.385 . S
C934 C936 1.478 . S
C935 H929 0.930 . S
C935 C931 1.400 . S
C935 C934 1.385 . S
C936 C934 1.478 . S
C936 C938 1.381 . S
C936 C942 1.383 . S
C937 C933 1.495 . S
C937 H943 0.959 1_556 S
C937 H944 0.962 1_556 S
C937 H945 0.960 . S
C938 C936 1.381 . S
C938 C939 1.394 . S
C938 H946 0.930 . S
C939 C938 1.394 . S
C939 C940 1.383 . S
C939 H947 0.929 . S
C940 C939 1.383 . S
C940 C941 1.377 . S
C941 H925 0.930 . S
C941 C940 1.377 . S
C941 C942 1.379 . S
C942 H926 0.931 . S
C942 C936 1.383 . S
C942 C941 1.379 . S
H943 C937 0.959 1_554 S
H944 C937 0.962 1_554 S
H945 C937 0.960 . S
H946 C938 0.930 . S
H947 C939 0.929 . S
H948 C956 0.929 1_554 S
H949 C958 0.930 . S
H950 C960 0.930 . S
H951 C963 0.929 . S
H952 C966 0.930 . S
H953 C968 0.960 . S
H954 C968 0.960 . S
H955 C968 0.960 . S
C956 H948 0.929 1_556 S
C956 C957 1.377 . S
C956 C958 1.384 . S
C957 C956 1.377 . S
C957 C963 1.390 . S
C958 H949 0.930 . S
C958 C956 1.384 . S
C958 C959 1.372 . S
C959 C958 1.372 . S
C959 C960 1.400 . S
C959 C964 1.490 . S
C960 H950 0.930 . S
C960 C959 1.400 . S
C960 C963 1.386 . S
H961 C977 0.930 . S
H962 C978 0.931 . S
C963 H951 0.929 . S
C963 C957 1.390 . S
C963 C960 1.386 . S
C964 C959 1.490 . S
C964 C966 1.395 . S
C964 C967 1.403 . S
H965 C971 0.930 . S
C966 H952 0.930 . S
C966 C964 1.395 . S
C966 C969 1.403 . S
C967 C964 1.403 . S
C967 C968 1.524 . S
C967 C971 1.400 . S
C968 H953 0.960 . S
C968 H954 0.960 . S
C968 H955 0.960 . S
C968 C967 1.524 . S
C969 C966 1.403 . S
C969 C970 1.392 . S
C969 C973 1.495 1_556 S
C970 C969 1.392 . S
C970 C971 1.385 . S
C970 C972 1.478 . S
C971 H965 0.930 . S
C971 C967 1.400 . S
C971 C970 1.385 . S
C972 C970 1.478 . S
C972 C974 1.381 . S
C972 C978 1.383 . S
C973 C969 1.495 1_554 S
C973 H979 0.959 . S
C973 H980 0.961 1_554 S
C973 H981 0.960 . S
C974 C972 1.381 . S
C974 C975 1.394 . S
C974 H982 0.930 . S
C975 C974 1.394 . S
C975 C976 1.383 . S
C975 H983 0.929 . S
C976 C975 1.383 . S
C976 C977 1.377 . S
C977 H961 0.930 . S
C977 C976 1.377 . S
C977 C978 1.379 . S
C978 H962 0.931 . S
C978 C972 1.383 . S
C978 C977 1.379 . S
H979 C973 0.959 . S
H980 C973 0.961 1_556 S
H981 C973 0.960 . S
H982 C974 0.930 . S
H983 C975 0.929 . S
H984 C992 0.929 . S
H985 C994 0.930 . S
H986 C996 0.930 . S
H987 C999 0.929 . S
H988 C1002 0.930 . S
H989 C1004 0.960 . S
H990 C1004 0.960 . S
H991 C1004 0.960 . S
C992 H984 0.929 . S
C992 C993 1.372 1_455 S
C992 C994 1.384 . S
C993 C992 1.372 1_655 S
C993 C999 1.397 . S
C994 H985 0.930 . S
C994 C992 1.384 . S
C994 C995 1.372 1_455 S
C995 C994 1.372 1_655 S
C995 C996 1.400 . S
C995 C1000 1.490 . S
C996 H986 0.930 . S
C996 C995 1.400 . S
C996 C999 1.386 . S
H997 C1013 0.930 . S
H998 C1014 0.931 . S
C999 H987 0.929 . S
C999 C993 1.397 . S
C999 C996 1.386 . S
C1000 C995 1.490 . S
C1000 C1002 1.395 . S
C1000 C1003 1.403 1_655 S
H1001 C1007 0.930 . S
C1002 H988 0.930 . S
C1002 C1000 1.395 . S
C1002 C1005 1.403 . S
C1003 C1000 1.403 1_455 S
C1003 C1004 1.524 . S
C1003 C1007 1.400 . S
C1004 H989 0.960 . S
C1004 H990 0.960 . S
C1004 H991 0.960 . S
C1004 C1003 1.524 . S
C1005 C1002 1.403 . S
C1005 C1006 1.392 . S
C1005 C1009 1.495 . S
C1006 C1005 1.392 . S
C1006 C1007 1.385 1_655 S
C1006 C1008 1.478 . S
C1007 H1001 0.930 . S
C1007 C1003 1.400 . S
C1007 C1006 1.385 1_455 S
C1008 C1006 1.478 . S
C1008 C1010 1.381 . S
C1008 C1014 1.383 . S
C1009 C1005 1.495 . S
C1009 H1015 0.959 . S
C1009 H1016 0.961 . S
C1009 H1017 0.960 . S
C1010 C1008 1.381 . S
C1010 C1011 1.397 . S
C1010 H1018 0.930 1_655 S
C1011 C1010 1.397 . S
C1011 C1012 1.401 . S
C1011 H1019 0.913 1_655 S
C1012 C1011 1.401 . S
C1012 C1013 1.377 . S
C1013 H997 0.930 . S
C1013 C1012 1.377 . S
C1013 C1014 1.379 . S
C1014 H998 0.931 . S
C1014 C1008 1.383 . S
C1014 C1013 1.379 . S
H1015 C1009 0.959 . S
H1016 C1009 0.961 . S
H1017 C1009 0.960 . S
H1018 C1010 0.930 1_455 S
H1019 C1011 0.913 1_455 S
H1020 C1028 0.929 . S
H1021 C1030 0.930 . S
H1022 C1032 0.930 . S
H1023 C1035 0.929 . S
H1024 C1038 0.930 . S
H1025 C1040 0.960 . S
H1026 C1040 0.959 1_545 S
H1027 C1040 0.960 . S
C1028 H1020 0.929 . S
C1028 C1029 1.377 1_545 S
C1028 C1030 1.384 . S
C1029 C1028 1.377 1_565 S
C1029 C1035 1.390 . S
C1030 H1021 0.930 . S
C1030 C1028 1.384 . S
C1030 C1031 1.372 1_545 S
C1031 C1030 1.372 1_565 S
C1031 C1032 1.400 . S
C1031 C1036 1.490 . S
C1032 H1022 0.930 . S
C1032 C1031 1.400 . S
C1032 C1035 1.386 . S
H1033 C1049 0.930 . S
H1034 C1050 0.931 . S
C1035 H1023 0.929 . S
C1035 C1029 1.390 . S
C1035 C1032 1.386 . S
C1036 C1031 1.490 . S
C1036 C1038 1.395 1_565 S
C1036 C1039 1.403 . S
H1037 C1043 0.930 . S
C1038 H1024 0.930 . S
C1038 C1036 1.395 1_545 S
C1038 C1041 1.403 . S
C1039 C1036 1.403 . S
C1039 C1040 1.524 . S
C1039 C1043 1.400 . S
C1040 H1025 0.960 . S
C1040 H1026 0.959 1_565 S
C1040 H1027 0.960 . S
C1040 C1039 1.524 . S
C1041 C1038 1.403 . S
C1041 C1042 1.392 1_545 S
C1041 C1045 1.495 . S
C1042 C1041 1.392 1_565 S
C1042 C1043 1.385 . S
C1042 C1044 1.478 . S
C1043 H1037 0.930 . S
C1043 C1039 1.400 . S
C1043 C1042 1.385 . S
C1044 C1042 1.478 . S
C1044 C1046 1.381 1_565 S
C1044 C1050 1.383 . S
C1045 C1041 1.495 . S
C1045 H1051 0.959 . S
C1045 H1052 0.961 1_545 S
C1045 H1053 0.960 . S
C1046 C1044 1.381 1_545 S
C1046 C1047 1.394 . S
C1046 H1054 0.930 . S
C1047 C1046 1.394 . S
C1047 C1048 1.383 1_545 S
C1047 H1055 0.929 . S
C1048 C1047 1.383 1_565 S
C1048 C1049 1.377 . S
C1049 H1033 0.930 . S
C1049 C1048 1.377 . S
C1049 C1050 1.379 . S
C1050 H1034 0.931 . S
C1050 C1044 1.383 . S
C1050 C1049 1.379 . S
H1051 C1045 0.959 . S
H1052 C1045 0.961 1_565 S
H1053 C1045 0.960 . S
H1054 C1046 0.930 . S
H1055 C1047 0.929 . S
H1056 C1064 0.929 . S
H1057 C1066 0.930 . S
H1058 C1068 0.930 . S
H1059 C1071 0.929 . S
H1060 C1074 0.930 . S
H1061 C1076 0.960 . S
H1062 C1076 0.960 . S
H1063 C1076 0.960 . S
C1064 H1056 0.929 . S
C1064 C1065 1.377 . S
C1064 C1066 1.384 . S
C1065 C1064 1.377 . S
C1065 C1071 1.390 . S
C1066 H1057 0.930 . S
C1066 C1064 1.384 . S
C1066 C1067 1.372 . S
C1067 C1066 1.372 . S
C1067 C1068 1.400 . S
C1067 C1072 1.490 . S
C1068 H1058 0.930 . S
C1068 C1067 1.400 . S
C1068 C1071 1.386 . S
H1069 C1085 0.930 . S
H1070 C1086 0.931 . S
C1071 H1059 0.929 . S
C1071 C1065 1.390 . S
C1071 C1068 1.386 . S
C1072 C1067 1.490 . S
C1072 C1074 1.395 . S
C1072 C1075 1.403 . S
H1073 C1079 0.930 . S
C1074 H1060 0.930 . S
C1074 C1072 1.395 . S
C1074 C1077 1.403 . S
C1075 C1072 1.403 . S
C1075 C1076 1.524 . S
C1075 C1079 1.400 . S
C1076 H1061 0.960 . S
C1076 H1062 0.960 . S
C1076 H1063 0.960 . S
C1076 C1075 1.524 . S
C1077 C1074 1.403 . S
C1077 C1078 1.392 . S
C1077 C1081 1.495 . S
C1078 C1077 1.392 . S
C1078 C1079 1.385 . S
C1078 C1080 1.478 . S
C1079 H1073 0.930 . S
C1079 C1075 1.400 . S
C1079 C1078 1.385 . S
C1080 C1078 1.478 . S
C1080 C1082 1.381 . S
C1080 C1086 1.383 . S
C1081 C1077 1.495 . S
C1081 H1087 0.959 . S
C1081 H1088 0.961 . S
C1081 H1089 0.960 . S
C1082 C1080 1.381 . S
C1082 C1083 1.394 . S
C1082 H1090 0.930 . S
C1083 C1082 1.394 . S
C1083 C1084 1.383 . S
C1083 H1091 0.929 . S
C1084 C1083 1.383 . S
C1084 C1085 1.377 . S
C1085 H1069 0.930 . S
C1085 C1084 1.377 . S
C1085 C1086 1.379 . S
C1086 H1070 0.931 . S
C1086 C1080 1.383 . S
C1086 C1085 1.379 . S
H1087 C1081 0.959 . S
H1088 C1081 0.961 . S
H1089 C1081 0.960 . S
H1090 C1082 0.930 . S
H1091 C1083 0.929 . S
H1092 C1100 0.929 . S
H1093 C1102 0.930 . S
H1094 C1104 0.930 . S
H1095 C1107 0.929 . S
H1096 C1110 0.930 . S
H1097 C1112 0.960 . S
H1098 C1112 0.960 . S
H1099 C1112 0.960 . S
C1100 H1092 0.929 . S
C1100 C1101 1.377 . S
C1100 C1102 1.384 . S
C1101 C1100 1.377 . S
C1101 C1107 1.390 . S
C1102 H1093 0.930 . S
C1102 C1100 1.384 . S
C1102 C1103 1.372 . S
C1103 C1102 1.372 . S
C1103 C1104 1.400 . S
C1103 C1108 1.490 . S
C1104 H1094 0.930 . S
C1104 C1103 1.400 . S
C1104 C1107 1.386 . S
H1105 C1121 0.930 . S
H1106 C1122 0.931 . S
C1107 H1095 0.929 . S
C1107 C1101 1.390 . S
C1107 C1104 1.386 . S
C1108 C1103 1.490 . S
C1108 C1110 1.395 . S
C1108 C1111 1.403 . S
H1109 C1115 0.930 . S
C1110 H1096 0.930 . S
C1110 C1108 1.395 . S
C1110 C1113 1.403 . S
C1111 C1108 1.403 . S
C1111 C1112 1.524 . S
C1111 C1115 1.400 . S
C1112 H1097 0.960 . S
C1112 H1098 0.960 . S
C1112 H1099 0.960 . S
C1112 C1111 1.524 . S
C1113 C1110 1.403 . S
C1113 C1114 1.392 . S
C1113 C1117 1.495 . S
C1114 C1113 1.392 . S
C1114 C1115 1.385 . S
C1114 C1116 1.478 . S
C1115 H1109 0.930 . S
C1115 C1111 1.400 . S
C1115 C1114 1.385 . S
C1116 C1114 1.478 . S
C1116 C1118 1.381 . S
C1116 C1122 1.383 . S
C1117 C1113 1.495 . S
C1117 H1123 0.959 . S
C1117 H1124 0.961 . S
C1117 H1125 0.960 . S
C1118 C1116 1.381 . S
C1118 C1119 1.394 . S
C1118 H1126 0.930 . S
C1119 C1118 1.394 . S
C1119 C1120 1.383 . S
C1119 H1127 0.929 . S
C1120 C1119 1.383 . S
C1120 C1121 1.377 . S
C1121 H1105 0.930 . S
C1121 C1120 1.377 . S
C1121 C1122 1.379 . S
C1122 H1106 0.931 . S
C1122 C1116 1.383 . S
C1122 C1121 1.379 . S
H1123 C1117 0.959 . S
H1124 C1117 0.961 . S
H1125 C1117 0.960 . S
H1126 C1118 0.930 . S
H1127 C1119 0.929 . S
C273 N80 1.800 . S
C292 C114 1.828 . S
C328 C154 1.840 . S
C309 N93 1.798 . S
C364 C194 1.827 . S
C345 N54 1.802 . S
C400 C234 1.830 . S
C381 N67 1.801 . S
C436 C123 1.823 . S
C417 N28 1.799 . S
C453 N41 1.796 . S
C472 C163 1.823 . S
C489 N2 1.803 . S
C508 C203 1.834 . S
C525 N15 1.801 . S
C544 C243 1.830 . S
C580 C120 0.399 . S
C561 N70 0.267 . S
C616 C160 0.340 . S
C597 N83 0.272 . S
C652 C200 0.402 . S
C633 N96 0.260 . S
C669 N57 0.267 . S
C688 C240 0.400 . S
C705 N18 0.249 . S
C724 C111 0.251 . S
C760 C151 0.315 . S
C741 N31 0.256 . S
C796 C191 0.248 . S
C777 N44 0.240 . S
C813 N5 0.253 . S
C832 C231 0.394 . S
C849 N66 1.968 . S
C868 C115 2.026 . S
C885 N79 1.973 . S
C904 C155 2.046 . S
C940 C195 2.040 . S
C921 N92 1.973 . S
C976 C235 2.029 . S
C957 N53 1.970 . S
C993 N14 1.967 . S
C1012 C106 2.043 . S
C1048 C146 2.031 . S
C1029 N27 1.970 . S
C1084 C186 2.030 . S
C1065 N40 1.970 . S
C1101 N1 1.961 . S
C1120 C226 2.042 . S
