# Generated by pormake.
# Topology tbo, (3,4)-cn, num edge types: 1
# Building blocks:
#     Node 0, Type 0, BuildingBlock: CUQRIR_clean_linker_1, # of connection points: 3
#     Node 1, Type 0, BuildingBlock: CUQRIR_clean_linker_1, # of connection points: 3
#     Node 2, Type 0, BuildingBlock: CUQRIR_clean_linker_1, # of connection points: 3
#     Node 3, Type 0, BuildingBlock: CUQRIR_clean_linker_1, # of connection points: 3
#     Node 4, Type 0, BuildingBlock: CUQRIR_clean_linker_1, # of connection points: 3
#     Node 5, Type 0, BuildingBlock: CUQRIR_clean_linker_1, # of connection points: 3
#     Node 6, Type 0, BuildingBlock: CUQRIR_clean_linker_1, # of connection points: 3
#     Node 7, Type 0, BuildingBlock: CUQRIR_clean_linker_1, # of connection points: 3
#     Node 8, Type 0, BuildingBlock: CUQRIR_clean_linker_1, # of connection points: 3
#     Node 9, Type 0, BuildingBlock: CUQRIR_clean_linker_1, # of connection points: 3
#     Node 10, Type 0, BuildingBlock: CUQRIR_clean_linker_1, # of connection points: 3
#     Node 11, Type 0, BuildingBlock: CUQRIR_clean_linker_1, # of connection points: 3
#     Node 12, Type 0, BuildingBlock: CUQRIR_clean_linker_1, # of connection points: 3
#     Node 13, Type 0, BuildingBlock: CUQRIR_clean_linker_1, # of connection points: 3
#     Node 14, Type 0, BuildingBlock: CUQRIR_clean_linker_1, # of connection points: 3
#     Node 15, Type 0, BuildingBlock: CUQRIR_clean_linker_1, # of connection points: 3
#     Node 16, Type 0, BuildingBlock: CUQRIR_clean_linker_1, # of connection points: 3
#     Node 17, Type 0, BuildingBlock: CUQRIR_clean_linker_1, # of connection points: 3
#     Node 18, Type 0, BuildingBlock: CUQRIR_clean_linker_1, # of connection points: 3
#     Node 19, Type 0, BuildingBlock: CUQRIR_clean_linker_1, # of connection points: 3
#     Node 20, Type 0, BuildingBlock: CUQRIR_clean_linker_1, # of connection points: 3
#     Node 21, Type 0, BuildingBlock: CUQRIR_clean_linker_1, # of connection points: 3
#     Node 22, Type 0, BuildingBlock: CUQRIR_clean_linker_1, # of connection points: 3
#     Node 23, Type 0, BuildingBlock: CUQRIR_clean_linker_1, # of connection points: 3
#     Node 24, Type 0, BuildingBlock: CUQRIR_clean_linker_1, # of connection points: 3
#     Node 25, Type 0, BuildingBlock: CUQRIR_clean_linker_1, # of connection points: 3
#     Node 26, Type 0, BuildingBlock: CUQRIR_clean_linker_1, # of connection points: 3
#     Node 27, Type 0, BuildingBlock: CUQRIR_clean_linker_1, # of connection points: 3
#     Node 28, Type 0, BuildingBlock: CUQRIR_clean_linker_1, # of connection points: 3
#     Node 29, Type 0, BuildingBlock: CUQRIR_clean_linker_1, # of connection points: 3
#     Node 30, Type 0, BuildingBlock: CUQRIR_clean_linker_1, # of connection points: 3
#     Node 31, Type 0, BuildingBlock: CUQRIR_clean_linker_1, # of connection points: 3
#     Node 32, Type 1, BuildingBlock: ESEHIV_clean_sbu_0, # of connection points: 4
#     Node 33, Type 1, BuildingBlock: ESEHIV_clean_sbu_0, # of connection points: 4
#     Node 34, Type 1, BuildingBlock: ESEHIV_clean_sbu_0, # of connection points: 4
#     Node 35, Type 1, BuildingBlock: ESEHIV_clean_sbu_0, # of connection points: 4
#     Node 36, Type 1, BuildingBlock: ESEHIV_clean_sbu_0, # of connection points: 4
#     Node 37, Type 1, BuildingBlock: ESEHIV_clean_sbu_0, # of connection points: 4
#     Node 38, Type 1, BuildingBlock: ESEHIV_clean_sbu_0, # of connection points: 4
#     Node 39, Type 1, BuildingBlock: ESEHIV_clean_sbu_0, # of connection points: 4
#     Node 40, Type 1, BuildingBlock: ESEHIV_clean_sbu_0, # of connection points: 4
#     Node 41, Type 1, BuildingBlock: ESEHIV_clean_sbu_0, # of connection points: 4
#     Node 42, Type 1, BuildingBlock: ESEHIV_clean_sbu_0, # of connection points: 4
#     Node 43, Type 1, BuildingBlock: ESEHIV_clean_sbu_0, # of connection points: 4
#     Node 44, Type 1, BuildingBlock: ESEHIV_clean_sbu_0, # of connection points: 4
#     Node 45, Type 1, BuildingBlock: ESEHIV_clean_sbu_0, # of connection points: 4
#     Node 46, Type 1, BuildingBlock: ESEHIV_clean_sbu_0, # of connection points: 4
#     Node 47, Type 1, BuildingBlock: ESEHIV_clean_sbu_0, # of connection points: 4
#     Node 48, Type 1, BuildingBlock: ESEHIV_clean_sbu_0, # of connection points: 4
#     Node 49, Type 1, BuildingBlock: ESEHIV_clean_sbu_0, # of connection points: 4
#     Node 50, Type 1, BuildingBlock: ESEHIV_clean_sbu_0, # of connection points: 4
#     Node 51, Type 1, BuildingBlock: ESEHIV_clean_sbu_0, # of connection points: 4
#     Node 52, Type 1, BuildingBlock: ESEHIV_clean_sbu_0, # of connection points: 4
#     Node 53, Type 1, BuildingBlock: ESEHIV_clean_sbu_0, # of connection points: 4
#     Node 54, Type 1, BuildingBlock: ESEHIV_clean_sbu_0, # of connection points: 4
#     Node 55, Type 1, BuildingBlock: ESEHIV_clean_sbu_0, # of connection points: 4
#     Edge 56, Type (0, 1), BuildingBlock: AJUNOK_clean_linker_0, # of connection points: 2
#     Edge 57, Type (0, 1), BuildingBlock: AJUNOK_clean_linker_0, # of connection points: 2
#     Edge 58, Type (0, 1), BuildingBlock: AJUNOK_clean_linker_0, # of connection points: 2
#     Edge 59, Type (0, 1), BuildingBlock: AJUNOK_clean_linker_0, # of connection points: 2
#     Edge 60, Type (0, 1), BuildingBlock: AJUNOK_clean_linker_0, # of connection points: 2
#     Edge 61, Type (0, 1), BuildingBlock: AJUNOK_clean_linker_0, # of connection points: 2
#     Edge 62, Type (0, 1), BuildingBlock: AJUNOK_clean_linker_0, # of connection points: 2
#     Edge 63, Type (0, 1), BuildingBlock: AJUNOK_clean_linker_0, # of connection points: 2
#     Edge 64, Type (0, 1), BuildingBlock: AJUNOK_clean_linker_0, # of connection points: 2
#     Edge 65, Type (0, 1), BuildingBlock: AJUNOK_clean_linker_0, # of connection points: 2
#     Edge 66, Type (0, 1), BuildingBlock: AJUNOK_clean_linker_0, # of connection points: 2
#     Edge 67, Type (0, 1), BuildingBlock: AJUNOK_clean_linker_0, # of connection points: 2
#     Edge 68, Type (0, 1), BuildingBlock: AJUNOK_clean_linker_0, # of connection points: 2
#     Edge 69, Type (0, 1), BuildingBlock: AJUNOK_clean_linker_0, # of connection points: 2
#     Edge 70, Type (0, 1), BuildingBlock: AJUNOK_clean_linker_0, # of connection points: 2
#     Edge 71, Type (0, 1), BuildingBlock: AJUNOK_clean_linker_0, # of connection points: 2
#     Edge 72, Type (0, 1), BuildingBlock: AJUNOK_clean_linker_0, # of connection points: 2
#     Edge 73, Type (0, 1), BuildingBlock: AJUNOK_clean_linker_0, # of connection points: 2
#     Edge 74, Type (0, 1), BuildingBlock: AJUNOK_clean_linker_0, # of connection points: 2
#     Edge 75, Type (0, 1), BuildingBlock: AJUNOK_clean_linker_0, # of connection points: 2
#     Edge 76, Type (0, 1), BuildingBlock: AJUNOK_clean_linker_0, # of connection points: 2
#     Edge 77, Type (0, 1), BuildingBlock: AJUNOK_clean_linker_0, # of connection points: 2
#     Edge 78, Type (0, 1), BuildingBlock: AJUNOK_clean_linker_0, # of connection points: 2
#     Edge 79, Type (0, 1), BuildingBlock: AJUNOK_clean_linker_0, # of connection points: 2
#     Edge 80, Type (0, 1), BuildingBlock: AJUNOK_clean_linker_0, # of connection points: 2
#     Edge 81, Type (0, 1), BuildingBlock: AJUNOK_clean_linker_0, # of connection points: 2
#     Edge 82, Type (0, 1), BuildingBlock: AJUNOK_clean_linker_0, # of connection points: 2
#     Edge 83, Type (0, 1), BuildingBlock: AJUNOK_clean_linker_0, # of connection points: 2
#     Edge 84, Type (0, 1), BuildingBlock: AJUNOK_clean_linker_0, # of connection points: 2
#     Edge 85, Type (0, 1), BuildingBlock: AJUNOK_clean_linker_0, # of connection points: 2
#     Edge 86, Type (0, 1), BuildingBlock: AJUNOK_clean_linker_0, # of connection points: 2
#     Edge 87, Type (0, 1), BuildingBlock: AJUNOK_clean_linker_0, # of connection points: 2
#     Edge 88, Type (0, 1), BuildingBlock: AJUNOK_clean_linker_0, # of connection points: 2
#     Edge 89, Type (0, 1), BuildingBlock: AJUNOK_clean_linker_0, # of connection points: 2
#     Edge 90, Type (0, 1), BuildingBlock: AJUNOK_clean_linker_0, # of connection points: 2
#     Edge 91, Type (0, 1), BuildingBlock: AJUNOK_clean_linker_0, # of connection points: 2
#     Edge 92, Type (0, 1), BuildingBlock: AJUNOK_clean_linker_0, # of connection points: 2
#     Edge 93, Type (0, 1), BuildingBlock: AJUNOK_clean_linker_0, # of connection points: 2
#     Edge 94, Type (0, 1), BuildingBlock: AJUNOK_clean_linker_0, # of connection points: 2
#     Edge 95, Type (0, 1), BuildingBlock: AJUNOK_clean_linker_0, # of connection points: 2
#     Edge 96, Type (0, 1), BuildingBlock: AJUNOK_clean_linker_0, # of connection points: 2
#     Edge 97, Type (0, 1), BuildingBlock: AJUNOK_clean_linker_0, # of connection points: 2
#     Edge 98, Type (0, 1), BuildingBlock: AJUNOK_clean_linker_0, # of connection points: 2
#     Edge 99, Type (0, 1), BuildingBlock: AJUNOK_clean_linker_0, # of connection points: 2
#     Edge 100, Type (0, 1), BuildingBlock: AJUNOK_clean_linker_0, # of connection points: 2
#     Edge 101, Type (0, 1), BuildingBlock: AJUNOK_clean_linker_0, # of connection points: 2
#     Edge 102, Type (0, 1), BuildingBlock: AJUNOK_clean_linker_0, # of connection points: 2
#     Edge 103, Type (0, 1), BuildingBlock: AJUNOK_clean_linker_0, # of connection points: 2
#     Edge 104, Type (0, 1), BuildingBlock: AJUNOK_clean_linker_0, # of connection points: 2
#     Edge 105, Type (0, 1), BuildingBlock: AJUNOK_clean_linker_0, # of connection points: 2
#     Edge 106, Type (0, 1), BuildingBlock: AJUNOK_clean_linker_0, # of connection points: 2
#     Edge 107, Type (0, 1), BuildingBlock: AJUNOK_clean_linker_0, # of connection points: 2
#     Edge 108, Type (0, 1), BuildingBlock: AJUNOK_clean_linker_0, # of connection points: 2
#     Edge 109, Type (0, 1), BuildingBlock: AJUNOK_clean_linker_0, # of connection points: 2
#     Edge 110, Type (0, 1), BuildingBlock: AJUNOK_clean_linker_0, # of connection points: 2
#     Edge 111, Type (0, 1), BuildingBlock: AJUNOK_clean_linker_0, # of connection points: 2
#     Edge 112, Type (0, 1), BuildingBlock: AJUNOK_clean_linker_0, # of connection points: 2
#     Edge 113, Type (0, 1), BuildingBlock: AJUNOK_clean_linker_0, # of connection points: 2
#     Edge 114, Type (0, 1), BuildingBlock: AJUNOK_clean_linker_0, # of connection points: 2
#     Edge 115, Type (0, 1), BuildingBlock: AJUNOK_clean_linker_0, # of connection points: 2
#     Edge 116, Type (0, 1), BuildingBlock: AJUNOK_clean_linker_0, # of connection points: 2
#     Edge 117, Type (0, 1), BuildingBlock: AJUNOK_clean_linker_0, # of connection points: 2
#     Edge 118, Type (0, 1), BuildingBlock: AJUNOK_clean_linker_0, # of connection points: 2
#     Edge 119, Type (0, 1), BuildingBlock: AJUNOK_clean_linker_0, # of connection points: 2
#     Edge 120, Type (0, 1), BuildingBlock: AJUNOK_clean_linker_0, # of connection points: 2
#     Edge 121, Type (0, 1), BuildingBlock: AJUNOK_clean_linker_0, # of connection points: 2
#     Edge 122, Type (0, 1), BuildingBlock: AJUNOK_clean_linker_0, # of connection points: 2
#     Edge 123, Type (0, 1), BuildingBlock: AJUNOK_clean_linker_0, # of connection points: 2
#     Edge 124, Type (0, 1), BuildingBlock: AJUNOK_clean_linker_0, # of connection points: 2
#     Edge 125, Type (0, 1), BuildingBlock: AJUNOK_clean_linker_0, # of connection points: 2
#     Edge 126, Type (0, 1), BuildingBlock: AJUNOK_clean_linker_0, # of connection points: 2
#     Edge 127, Type (0, 1), BuildingBlock: AJUNOK_clean_linker_0, # of connection points: 2
#     Edge 128, Type (0, 1), BuildingBlock: AJUNOK_clean_linker_0, # of connection points: 2
#     Edge 129, Type (0, 1), BuildingBlock: AJUNOK_clean_linker_0, # of connection points: 2
#     Edge 130, Type (0, 1), BuildingBlock: AJUNOK_clean_linker_0, # of connection points: 2
#     Edge 131, Type (0, 1), BuildingBlock: AJUNOK_clean_linker_0, # of connection points: 2
#     Edge 132, Type (0, 1), BuildingBlock: AJUNOK_clean_linker_0, # of connection points: 2
#     Edge 133, Type (0, 1), BuildingBlock: AJUNOK_clean_linker_0, # of connection points: 2
#     Edge 134, Type (0, 1), BuildingBlock: AJUNOK_clean_linker_0, # of connection points: 2
#     Edge 135, Type (0, 1), BuildingBlock: AJUNOK_clean_linker_0, # of connection points: 2
#     Edge 136, Type (0, 1), BuildingBlock: AJUNOK_clean_linker_0, # of connection points: 2
#     Edge 137, Type (0, 1), BuildingBlock: AJUNOK_clean_linker_0, # of connection points: 2
#     Edge 138, Type (0, 1), BuildingBlock: AJUNOK_clean_linker_0, # of connection points: 2
#     Edge 139, Type (0, 1), BuildingBlock: AJUNOK_clean_linker_0, # of connection points: 2
#     Edge 140, Type (0, 1), BuildingBlock: AJUNOK_clean_linker_0, # of connection points: 2
#     Edge 141, Type (0, 1), BuildingBlock: AJUNOK_clean_linker_0, # of connection points: 2
#     Edge 142, Type (0, 1), BuildingBlock: AJUNOK_clean_linker_0, # of connection points: 2
#     Edge 143, Type (0, 1), BuildingBlock: AJUNOK_clean_linker_0, # of connection points: 2
#     Edge 144, Type (0, 1), BuildingBlock: AJUNOK_clean_linker_0, # of connection points: 2
#     Edge 145, Type (0, 1), BuildingBlock: AJUNOK_clean_linker_0, # of connection points: 2
#     Edge 146, Type (0, 1), BuildingBlock: AJUNOK_clean_linker_0, # of connection points: 2
#     Edge 147, Type (0, 1), BuildingBlock: AJUNOK_clean_linker_0, # of connection points: 2
#     Edge 148, Type (0, 1), BuildingBlock: AJUNOK_clean_linker_0, # of connection points: 2
#     Edge 149, Type (0, 1), BuildingBlock: AJUNOK_clean_linker_0, # of connection points: 2
#     Edge 150, Type (0, 1), BuildingBlock: AJUNOK_clean_linker_0, # of connection points: 2
#     Edge 151, Type (0, 1), BuildingBlock: AJUNOK_clean_linker_0, # of connection points: 2
# Relax obj value: 0.019
# Max RMSD: 0.190
# Mean RMSD: 0.115
data_MOF--net-tbo--node1-ESEHIV_clean_sbu_0--node2-CUQRIR_clean_linker_1--edge1-AJUNOK_clean_linker_0
_symmetry_space_group_name_H-M    P1
_symmetry_Int_Tables_number       1
_symmetry_cell_setting            triclinic
loop_
_symmetry_equiv_pos_as_xyz
'x, y, z'
_cell_length_a     48.024153
_cell_length_b     48.454142
_cell_length_c     46.615167
_cell_angle_alpha  87.203244
_cell_angle_beta   96.485134
_cell_angle_gamma 95.812136
loop_
_atom_site_label
_atom_site_type_symbol
_atom_site_fract_x
_atom_site_fract_y
_atom_site_fract_z
_atom_type_partial_charge
C0 C 0.1962 0.16789 0.24704 0.0
N1 N 0.21474 0.16753 0.22709 0.0
N2 N 0.18057 0.18965 0.24185 0.0
C3 C 0.1931 0.14685 0.27168 0.0
C4 C 0.18986 0.2024 0.21769 0.0
N5 N 0.21043 0.18881 0.20833 0.0
C6 C 0.17859 0.22797 0.20307 0.0
H7 H 0.20071 0.12684 0.26709 0.0
H8 H 0.17086 0.14288 0.27616 0.0
H9 H 0.20543 0.15517 0.29149 0.0
H10 H 0.17008 0.24061 0.21861 0.0
H11 H 0.16114 0.22159 0.18632 0.0
H12 H 0.19521 0.24083 0.19241 0.0
C13 C 0.88424 0.19477 0.16805 0.0
N14 N 0.90152 0.18639 0.19119 0.0
N15 N 0.89425 0.21996 0.1576 0.0
C16 C 0.8569 0.17916 0.15656 0.0
C17 C 0.91841 0.2264 0.17481 0.0
N18 N 0.92287 0.20604 0.19519 0.0
C19 C 0.93643 0.2537 0.17335 0.0
H20 H 0.8574 0.1565 0.16097 0.0
H21 H 0.8523 0.18319 0.13299 0.0
H22 H 0.83957 0.18632 0.16726 0.0
H23 H 0.93014 0.26647 0.15376 0.0
H24 H 0.95878 0.25008 0.1731 0.0
H25 H 0.9349 0.26543 0.19289 0.0
C26 C 0.90279 0.87569 0.21192 0.0
N27 N 0.91023 0.85352 0.19888 0.0
N28 N 0.87934 0.88527 0.19765 0.0
C29 C 0.91794 0.88773 0.23923 0.0
C30 C 0.87242 0.86786 0.17556 0.0
N31 N 0.89095 0.84832 0.17638 0.0
C32 C 0.84903 0.87128 0.15174 0.0
H33 H 0.90351 0.89843 0.25091 0.0
H34 H 0.9354 0.90312 0.23367 0.0
H35 H 0.92697 0.87123 0.25366 0.0
H36 H 0.8389 0.89061 0.15354 0.0
H37 H 0.83294 0.85323 0.15263 0.0
H38 H 0.85738 0.87151 0.13046 0.0
C39 C 0.20472 0.84576 0.16109 0.0
N40 N 0.22723 0.86477 0.15872 0.0
N41 N 0.18954 0.85227 0.18216 0.0
C42 C 0.19637 0.82176 0.1416 0.0
C43 C 0.20358 0.87622 0.19237 0.0
N44 N 0.22632 0.88398 0.17794 0.0
C45 C 0.19677 0.89063 0.21821 0.0
H46 H 0.1731 0.81795 0.13779 0.0
H47 H 0.2045 0.80273 0.15214 0.0
H48 H 0.2051 0.82571 0.12057 0.0
H49 H 0.21636 0.89945 0.23084 0.0
H50 H 0.18457 0.87622 0.23245 0.0
H51 H 0.1841 0.90802 0.21068 0.0
C52 C 0.18083 0.85769 0.87499 0.0
N53 N 0.20729 0.86831 0.88444 0.0
N54 N 0.16919 0.87436 0.85379 0.0
C55 C 0.16575 0.83172 0.88697 0.0
C56 C 0.18934 0.89548 0.85058 0.0
N57 N 0.21244 0.892 0.86944 0.0
C58 C 0.1869 0.9187 0.82812 0.0
H59 H 0.16787 0.81422 0.87313 0.0
H60 H 0.14297 0.83407 0.8866 0.0
H61 H 0.17465 0.82663 0.90939 0.0
H62 H 0.18028 0.93695 0.83812 0.0
H63 H 0.17096 0.91267 0.80982 0.0
H64 H 0.20753 0.92485 0.8199 0.0
C65 C 0.22314 0.15877 0.85678 0.0
N66 N 0.2195 0.17633 0.87769 0.0
N67 N 0.24522 0.14383 0.86505 0.0
C68 C 0.20691 0.15807 0.82722 0.0
C69 C 0.2551 0.15306 0.89156 0.0
N70 N 0.23987 0.17308 0.8992 0.0
C71 C 0.27867 0.14113 0.91078 0.0
H72 H 0.18883 0.1419 0.82736 0.0
H73 H 0.22035 0.15271 0.81085 0.0
H74 H 0.19867 0.17834 0.82096 0.0
H75 H 0.29895 0.15303 0.90686 0.0
H76 H 0.27992 0.1191 0.90598 0.0
H77 H 0.27564 0.14244 0.9339 0.0
C78 C 0.8866 0.19864 0.8531 0.0
N79 N 0.90438 0.19227 0.83426 0.0
N80 N 0.89826 0.2203 0.86921 0.0
C81 C 0.8585 0.18299 0.85666 0.0
C82 C 0.92375 0.22679 0.85943 0.0
N83 N 0.92739 0.20988 0.83817 0.0
C84 C 0.94568 0.24879 0.87148 0.0
H85 H 0.8487 0.17447 0.83583 0.0
H86 H 0.84414 0.19649 0.86496 0.0
H87 H 0.86161 0.16542 0.87248 0.0
H88 H 0.96172 0.23873 0.88631 0.0
H89 H 0.93628 0.26402 0.88356 0.0
H90 H 0.95652 0.25979 0.85381 0.0
C91 C 0.8523 0.89875 0.85667 0.0
N92 N 0.86822 0.87765 0.86522 0.0
N93 N 0.85594 0.90763 0.82931 0.0
C94 C 0.83245 0.91015 0.87482 0.0
C95 C 0.87466 0.89106 0.82134 0.0
N96 N 0.88202 0.87245 0.8431 0.0
C97 C 0.88669 0.89421 0.79284 0.0
H98 H 0.82088 0.89302 0.88663 0.0
H99 H 0.8171 0.92242 0.86153 0.0
H100 H 0.84484 0.92378 0.89107 0.0
H101 H 0.9082 0.88737 0.79473 0.0
H102 H 0.88731 0.91611 0.78458 0.0
H103 H 0.87292 0.88131 0.77689 0.0
C104 C 0.1994 0.69319 0.7113 0.0
N105 N 0.21736 0.69228 0.69092 0.0
N106 N 0.18028 0.71178 0.7034 0.0
C107 C 0.20249 0.67792 0.74021 0.0
C108 C 0.18778 0.72255 0.67754 0.0
N109 N 0.21041 0.7109 0.67004 0.0
C110 C 0.17144 0.74259 0.65848 0.0
H111 H 0.19185 0.65659 0.73819 0.0
H112 H 0.19305 0.68861 0.7567 0.0
H113 H 0.22507 0.67617 0.74756 0.0
H114 H 0.17909 0.76409 0.66461 0.0
H115 H 0.14869 0.73912 0.6613 0.0
H116 H 0.17424 0.7405 0.63541 0.0
C117 C 0.8739 0.67846 0.64335 0.0
N118 N 0.89348 0.68212 0.66645 0.0
N119 N 0.87328 0.70197 0.62656 0.0
C120 C 0.85452 0.65245 0.63801 0.0
C121 C 0.89314 0.72006 0.64017 0.0
N122 N 0.90518 0.70815 0.66474 0.0
C123 C 0.90207 0.74851 0.62797 0.0
H124 H 0.86636 0.63671 0.6295 0.0
H125 H 0.83621 0.65635 0.62212 0.0
H126 H 0.847 0.64383 0.65858 0.0
H127 H 0.88761 0.76333 0.63369 0.0
H128 H 0.90058 0.74837 0.60404 0.0
H129 H 0.92392 0.7558 0.63654 0.0
C130 C 0.9099 0.3892 0.71604 0.0
N131 N 0.91681 0.3659 0.70458 0.0
N132 N 0.88466 0.39631 0.70363 0.0
C133 C 0.92714 0.40431 0.74055 0.0
C134 C 0.87608 0.3763 0.68445 0.0
N135 N 0.89544 0.35755 0.68508 0.0
C136 C 0.84888 0.37539 0.66496 0.0
H137 H 0.93659 0.38934 0.75664 0.0
H138 H 0.91437 0.4175 0.75153 0.0
H139 H 0.94446 0.41791 0.73185 0.0
H140 H 0.85091 0.36571 0.6443 0.0
H141 H 0.84222 0.39659 0.66045 0.0
H142 H 0.83226 0.36283 0.6759 0.0
C143 C 0.21056 0.37171 0.68907 0.0
N144 N 0.22869 0.39483 0.68673 0.0
N145 N 0.19542 0.37316 0.7116 0.0
C146 C 0.20983 0.34654 0.67126 0.0
C147 C 0.2051 0.39794 0.72306 0.0
N148 N 0.22544 0.41112 0.70807 0.0
C149 C 0.1945 0.40929 0.74879 0.0
H150 H 0.21379 0.35277 0.64875 0.0
H151 H 0.18935 0.33371 0.67115 0.0
H152 H 0.22674 0.33375 0.68068 0.0
H153 H 0.20867 0.40438 0.76846 0.0
H154 H 0.17292 0.39985 0.75169 0.0
H155 H 0.19455 0.43219 0.74636 0.0
C156 C 0.1801 0.36806 0.39822 0.0
N157 N 0.20766 0.37764 0.40222 0.0
N158 N 0.16763 0.37889 0.37329 0.0
C159 C 0.16603 0.34595 0.41705 0.0
C160 C 0.18865 0.39499 0.36197 0.0
N161 N 0.21303 0.39437 0.37962 0.0
C162 C 0.18516 0.4114 0.33383 0.0
H163 H 0.14817 0.3339 0.40465 0.0
H164 H 0.15776 0.35604 0.43476 0.0
H165 H 0.18123 0.33146 0.42681 0.0
H166 H 0.19937 0.43096 0.33471 0.0
H167 H 0.16303 0.41627 0.32854 0.0
H168 H 0.19067 0.39889 0.31635 0.0
C169 C 0.22449 0.64125 0.32311 0.0
N170 N 0.22212 0.65953 0.34382 0.0
N171 N 0.24673 0.62628 0.33061 0.0
C172 C 0.20508 0.63768 0.29565 0.0
C173 C 0.25804 0.63626 0.35641 0.0
N174 N 0.24327 0.65644 0.3645 0.0
C175 C 0.28345 0.62594 0.37393 0.0
H176 H 0.18874 0.62027 0.29894 0.0
H177 H 0.21687 0.63231 0.27788 0.0
H178 H 0.1946 0.65678 0.28934 0.0
H179 H 0.29549 0.64281 0.38671 0.0
H180 H 0.29741 0.61754 0.35978 0.0
H181 H 0.27639 0.60903 0.38915 0.0
C182 C 0.89428 0.69513 0.36246 0.0
N183 N 0.9069 0.68333 0.34222 0.0
N184 N 0.90879 0.71945 0.37039 0.0
C185 C 0.86761 0.683 0.37425 0.0
C186 C 0.93059 0.72222 0.35411 0.0
N187 N 0.92929 0.70048 0.33662 0.0
C188 C 0.95351 0.74584 0.35563 0.0
H189 H 0.85231 0.67425 0.35659 0.0
H190 H 0.85782 0.69864 0.38536 0.0
H191 H 0.87258 0.66583 0.39003 0.0
H192 H 0.97439 0.73753 0.3585 0.0
H193 H 0.95194 0.7597 0.3735 0.0
H194 H 0.95202 0.75816 0.33491 0.0
C195 C 0.8686 0.3848 0.38373 0.0
N196 N 0.87796 0.36112 0.39681 0.0
N197 N 0.88461 0.3946 0.36241 0.0
C198 C 0.84365 0.39821 0.39132 0.0
C199 C 0.90362 0.37578 0.3626 0.0
N200 N 0.89957 0.35549 0.38316 0.0
C201 C 0.92624 0.37698 0.34252 0.0
H202 H 0.8324 0.40777 0.37187 0.0
H203 H 0.85115 0.415 0.40648 0.0
H204 H 0.82873 0.38298 0.40174 0.0
H205 H 0.94692 0.38296 0.35488 0.0
H206 H 0.92268 0.39211 0.32418 0.0
H207 H 0.92719 0.35626 0.3338 0.0
C208 C 0.7038 0.18564 0.71576 0.0
N209 N 0.72073 0.18411 0.69461 0.0
N210 N 0.68839 0.20759 0.71089 0.0
C211 C 0.70453 0.16742 0.74297 0.0
C212 C 0.69724 0.22005 0.68634 0.0
N213 N 0.7172 0.206 0.67638 0.0
C214 C 0.68492 0.2448 0.67109 0.0
H215 H 0.68941 0.14873 0.73947 0.0
H216 H 0.69852 0.1786 0.76122 0.0
H217 H 0.72582 0.16052 0.74895 0.0
H218 H 0.69765 0.26395 0.67874 0.0
H219 H 0.66296 0.24579 0.67594 0.0
H220 H 0.68526 0.24408 0.64738 0.0
C221 C 0.36662 0.18616 0.68539 0.0
N222 N 0.38854 0.18389 0.70614 0.0
N223 N 0.37053 0.20995 0.66944 0.0
C224 C 0.341 0.16567 0.68093 0.0
C225 C 0.39554 0.22218 0.68115 0.0
N226 N 0.40666 0.20626 0.70332 0.0
C227 C 0.40783 0.25089 0.67277 0.0
H228 H 0.34565 0.1446 0.68927 0.0
H229 H 0.33313 0.16498 0.65763 0.0
H230 H 0.32411 0.1725 0.69252 0.0
H231 H 0.39333 0.26172 0.65687 0.0
H232 H 0.42766 0.24935 0.6631 0.0
H233 H 0.41309 0.26341 0.6923 0.0
C234 C 0.40744 0.88238 0.7248 0.0
N235 N 0.41407 0.86003 0.71158 0.0
N236 N 0.38191 0.88979 0.71365 0.0
C237 C 0.42548 0.89621 0.74959 0.0
C238 C 0.37307 0.87101 0.69317 0.0
N239 N 0.39253 0.85263 0.69196 0.0
C240 C 0.34541 0.8707 0.67449 0.0
H241 H 0.425 0.88218 0.76911 0.0
H242 H 0.4181 0.9163 0.75429 0.0
H243 H 0.44765 0.89986 0.7447 0.0
H244 H 0.34755 0.86392 0.65252 0.0
H245 H 0.33742 0.89147 0.67289 0.0
H246 H 0.3297 0.85582 0.68425 0.0
C247 C 0.71265 0.84121 0.66271 0.0
N248 N 0.73114 0.86193 0.65351 0.0
N249 N 0.69863 0.84998 0.68374 0.0
C250 C 0.70912 0.81217 0.652 0.0
C251 C 0.70933 0.87686 0.68688 0.0
N252 N 0.72901 0.88409 0.66851 0.0
C253 C 0.70145 0.89578 0.70865 0.0
H254 H 0.68797 0.80174 0.65494 0.0
H255 H 0.72504 0.79998 0.66451 0.0
H256 H 0.71251 0.81231 0.62884 0.0
H257 H 0.68231 0.88708 0.71847 0.0
H258 H 0.69769 0.91635 0.6983 0.0
H259 H 0.71924 0.89904 0.7259 0.0
C260 C 0.67919 0.8467 0.35446 0.0
N261 N 0.70637 0.85731 0.35969 0.0
N262 N 0.66582 0.86091 0.33224 0.0
C263 C 0.66567 0.82224 0.37061 0.0
C264 C 0.68568 0.88056 0.32407 0.0
N265 N 0.71043 0.87828 0.34066 0.0
C266 C 0.68065 0.90235 0.30053 0.0
H267 H 0.64836 0.81105 0.35661 0.0
H268 H 0.65658 0.8298 0.38927 0.0
H269 H 0.68138 0.80767 0.37883 0.0
H270 H 0.69405 0.92191 0.30552 0.0
H271 H 0.65817 0.90647 0.29739 0.0
H272 H 0.68621 0.89479 0.28002 0.0
C273 C 0.70643 0.15153 0.32282 0.0
N274 N 0.70107 0.16856 0.34354 0.0
N275 N 0.73031 0.13926 0.33094 0.0
C276 C 0.69009 0.14879 0.29342 0.0
C277 C 0.73957 0.14951 0.35716 0.0
N278 N 0.72213 0.16751 0.36479 0.0
C279 C 0.76584 0.142 0.37547 0.0
H280 H 0.67429 0.13046 0.29391 0.0
H281 H 0.70429 0.14538 0.27699 0.0
H282 H 0.67907 0.16751 0.28686 0.0
H283 H 0.78246 0.15957 0.37445 0.0
H284 H 0.77362 0.12308 0.36803 0.0
H285 H 0.76183 0.13846 0.39838 0.0
C286 C 0.37698 0.18381 0.41337 0.0
N287 N 0.39505 0.17719 0.39487 0.0
N288 N 0.38955 0.20363 0.4315 0.0
C289 C 0.34744 0.17058 0.41431 0.0
C290 C 0.41571 0.20892 0.42327 0.0
N291 N 0.4192 0.19271 0.40138 0.0
C292 C 0.43681 0.23223 0.43451 0.0
H293 H 0.33318 0.18107 0.39785 0.0
H294 H 0.34027 0.17265 0.43585 0.0
H295 H 0.3461 0.14831 0.40923 0.0
H296 H 0.45078 0.22397 0.45282 0.0
H297 H 0.42627 0.2493 0.44234 0.0
H298 H 0.45013 0.24107 0.41773 0.0
C299 C 0.34726 0.87633 0.38592 0.0
N300 N 0.36274 0.85455 0.39304 0.0
N301 N 0.35671 0.89156 0.36325 0.0
C302 C 0.32413 0.88412 0.40235 0.0
C303 C 0.37875 0.87837 0.35688 0.0
N304 N 0.38263 0.85597 0.37506 0.0
C305 C 0.39621 0.88699 0.33259 0.0
H306 H 0.3036 0.87462 0.39223 0.0
H307 H 0.32342 0.90697 0.40148 0.0
H308 H 0.32705 0.87666 0.42527 0.0
H309 H 0.41655 0.89779 0.34165 0.0
H310 H 0.38542 0.90116 0.31661 0.0
H311 H 0.40092 0.86847 0.32159 0.0
C312 C 0.70041 0.68726 0.22878 0.0
N313 N 0.71787 0.68987 0.2075 0.0
N314 N 0.68171 0.70673 0.22523 0.0
C315 C 0.70047 0.66472 0.2521 0.0
C316 C 0.68857 0.72144 0.2011 0.0
N317 N 0.71019 0.71105 0.19005 0.0
C318 C 0.67596 0.74766 0.19006 0.0
H319 H 0.70762 0.64556 0.24447 0.0
H320 H 0.67918 0.65994 0.25925 0.0
H321 H 0.71516 0.67189 0.27095 0.0
H322 H 0.66857 0.75828 0.20796 0.0
H323 H 0.65757 0.74245 0.17398 0.0
H324 H 0.69147 0.76207 0.17945 0.0
C325 C 0.37735 0.66179 0.15223 0.0
N326 N 0.3963 0.65937 0.17594 0.0
N327 N 0.38405 0.68532 0.13652 0.0
C328 C 0.35081 0.64285 0.14591 0.0
C329 C 0.40755 0.69712 0.15167 0.0
N330 N 0.41473 0.68175 0.17583 0.0
C331 C 0.42265 0.72464 0.14344 0.0
H332 H 0.35423 0.62802 0.12956 0.0
H333 H 0.3332 0.65488 0.13675 0.0
H334 H 0.34494 0.63095 0.16563 0.0
H335 H 0.41229 0.7417 0.15153 0.0
H336 H 0.42156 0.72736 0.11957 0.0
H337 H 0.445 0.7262 0.1529 0.0
C338 C 0.42474 0.35045 0.22304 0.0
N339 N 0.42716 0.32831 0.20696 0.0
N340 N 0.40136 0.36329 0.21318 0.0
C341 C 0.44474 0.35906 0.24895 0.0
C342 C 0.38951 0.34777 0.19072 0.0
N343 N 0.40503 0.32657 0.18702 0.0
C344 C 0.36204 0.3524 0.17307 0.0
H345 H 0.43807 0.34705 0.2683 0.0
H346 H 0.44464 0.38151 0.25257 0.0
H347 H 0.46649 0.3546 0.2464 0.0
H348 H 0.36648 0.36376 0.15259 0.0
H349 H 0.34895 0.36464 0.18478 0.0
H350 H 0.34999 0.33228 0.16745 0.0
C351 C 0.70644 0.37162 0.17525 0.0
N352 N 0.72746 0.39038 0.16754 0.0
N353 N 0.69031 0.38308 0.19249 0.0
C354 C 0.70241 0.3418 0.16678 0.0
C355 C 0.70191 0.40949 0.19469 0.0
N356 N 0.72454 0.41413 0.17964 0.0
C357 C 0.69215 0.43037 0.2133 0.0
H358 H 0.7029 0.34066 0.14312 0.0
H359 H 0.68232 0.33111 0.17292 0.0
H360 H 0.72006 0.33075 0.17767 0.0
H361 H 0.70269 0.42817 0.23561 0.0
H362 H 0.66907 0.42666 0.21419 0.0
H363 H 0.69753 0.45185 0.20491 0.0
C364 C 0.69318 0.3777 0.87562 0.0
N365 N 0.71885 0.39136 0.88261 0.0
N366 N 0.67954 0.39017 0.85234 0.0
C367 C 0.68118 0.35239 0.89168 0.0
C368 C 0.6978 0.41193 0.84533 0.0
N369 N 0.72177 0.41269 0.86381 0.0
C370 C 0.69274 0.43152 0.81972 0.0
H371 H 0.68739 0.33362 0.88229 0.0
H372 H 0.65784 0.35115 0.88958 0.0
H373 H 0.68945 0.35253 0.91488 0.0
H374 H 0.68571 0.45083 0.82714 0.0
H375 H 0.67618 0.42232 0.80346 0.0
H376 H 0.7125 0.43712 0.80962 0.0
C377 C 0.73028 0.66577 0.84939 0.0
N378 N 0.72828 0.68339 0.87067 0.0
N379 N 0.75262 0.65086 0.856 0.0
C380 C 0.71161 0.66462 0.82124 0.0
C381 C 0.76424 0.66008 0.88203 0.0
N382 N 0.74973 0.68013 0.89098 0.0
C383 C 0.78915 0.64834 0.89908 0.0
H384 H 0.68963 0.66756 0.82471 0.0
H385 H 0.71204 0.64465 0.81072 0.0
H386 H 0.71919 0.6817 0.80648 0.0
H387 H 0.80881 0.65805 0.89092 0.0
H388 H 0.78818 0.62567 0.89602 0.0
H389 H 0.78993 0.65214 0.92244 0.0
C390 C 0.39619 0.70448 0.86246 0.0
N391 N 0.41075 0.69218 0.84413 0.0
N392 N 0.41039 0.72866 0.87153 0.0
C393 C 0.36782 0.69318 0.87107 0.0
C394 C 0.43407 0.73063 0.85798 0.0
N395 N 0.4342 0.7087 0.84102 0.0
C396 C 0.45715 0.75401 0.8613 0.0
H397 H 0.35132 0.69919 0.85395 0.0
H398 H 0.36385 0.7016 0.89177 0.0
H399 H 0.36592 0.67024 0.8732 0.0
H400 H 0.47373 0.7479 0.87828 0.0
H401 H 0.44903 0.77316 0.86779 0.0
H402 H 0.46685 0.75832 0.84084 0.0
C403 C 0.37867 0.38712 0.87682 0.0
N404 N 0.38891 0.3639 0.88994 0.0
N405 N 0.39133 0.39485 0.85267 0.0
C406 C 0.35676 0.4027 0.88786 0.0
C407 C 0.40928 0.37528 0.85125 0.0
N408 N 0.40776 0.35639 0.87363 0.0
C409 C 0.42897 0.37486 0.82834 0.0
H410 H 0.34306 0.38891 0.90123 0.0
H411 H 0.34348 0.41216 0.86979 0.0
H412 H 0.36749 0.41975 0.90129 0.0
H413 H 0.42498 0.39067 0.81075 0.0
H414 H 0.42661 0.35412 0.81883 0.0
H415 H 0.45102 0.37866 0.83841 0.0
Cu416 Cu 0.30986 0.25878 0.04695 0.0
N417 N 0.31573 0.29088 0.02249 0.0
N418 N 0.33514 0.31838 0.98818 0.0
C419 C 0.33259 0.29266 1.00087 0.0
C420 C 0.3189 0.33329 1.00211 0.0
C421 C 0.3069 0.31632 0.0231 0.0
O422 O 0.29881 0.22962 1.01898 0.0
C423 C 0.35114 0.27971 0.08695 0.0
O424 O 0.33555 0.30038 0.08085 0.0
H425 H 0.34347 0.27557 0.99512 0.0
H426 H 0.29328 0.32233 0.03818 0.0
N427 N 0.28153 0.25745 0.0725 0.0
N428 N 0.25611 0.2411 0.10855 0.0
C429 C 0.27959 0.2393 0.09548 0.0
C430 C 0.25864 0.27154 0.07142 0.0
C431 C 0.2429 0.26139 0.09344 0.0
C432 C 0.2738 0.2293 1.00601 0.0
O433 O 0.25673 0.24619 1.01411 0.0
H434 H 0.29465 0.22435 0.10186 0.0
H435 H 0.2533 0.28748 0.05526 0.0
O436 O 0.34452 0.25719 0.07353 0.0
H437 H 0.31587 0.35495 0.99744 0.0
H438 H 0.22309 0.26823 0.09785 0.0
Cu439 Cu 0.81468 0.31039 1.01682 0.0
N440 N 0.78658 0.32421 0.03907 0.0
N441 N 0.76661 0.34714 0.07082 0.0
C442 C 0.79092 0.33914 0.06329 0.0
C443 C 0.74636 0.33696 0.05056 0.0
C444 C 0.75867 0.32282 0.03113 0.0
O445 O 0.82903 0.28696 0.0515 0.0
C446 C 0.79567 0.3568 0.97859 0.0
O447 O 0.80525 0.37259 1.00036 0.0
H448 H 0.81141 0.34482 0.07467 0.0
H449 H 0.74812 0.31274 1.01214 0.0
N450 N 0.84328 0.29728 0.99504 0.0
N451 N 0.86556 0.27541 0.96447 0.0
C452 C 0.84025 0.28061 0.97219 0.0
C453 C 0.87119 0.30301 1.00158 0.0
C454 C 0.88494 0.28962 0.98283 0.0
C455 C 0.84687 0.29602 0.07185 0.0
O456 O 0.85673 0.32231 0.07171 0.0
H457 H 0.82012 0.27214 0.9618 0.0
H458 H 0.88087 0.31596 1.01893 0.0
O459 O 0.79863 0.331 0.98077 0.0
H460 H 0.72415 0.33946 0.04995 0.0
H461 H 0.90752 0.29057 0.98249 0.0
Cu462 Cu 0.81644 0.77556 0.03518 0.0
N463 N 0.82263 0.80717 1.01092 0.0
N464 N 0.83766 0.83305 0.97346 0.0
C465 C 0.83305 0.80717 0.98518 0.0
C466 C 0.82983 0.85001 0.99263 0.0
C467 C 0.82047 0.834 1.01565 0.0
O468 O 0.80809 0.7449 1.00826 0.0
C469 C 0.86809 0.79335 0.06996 0.0
O470 O 0.87358 0.8103 0.04804 0.0
H471 H 0.83817 0.78859 0.97578 0.0
H472 H 0.81332 0.84142 0.03481 0.0
N473 N 0.78563 0.77616 0.05653 0.0
N474 N 0.75724 0.76322 0.09073 0.0
C475 C 0.78139 0.75936 0.07992 0.0
C476 C 0.76362 0.79158 0.05272 0.0
C477 C 0.74594 0.78348 0.0737 0.0
C478 C 0.78334 0.74206 0.99458 0.0
O479 O 0.76427 0.75746 1.00132 0.0
H480 H 0.79549 0.74416 0.08851 0.0
H481 H 0.76045 0.80728 0.03567 0.0
O482 O 0.84779 0.77422 0.06628 0.0
H483 H 0.83087 0.87241 0.9902 0.0
H484 H 0.7264 0.79192 0.07634 0.0
Cu485 Cu 0.32107 0.8018 1.01457 0.0
N486 N 0.32101 0.82903 0.04203 0.0
N487 N 0.30527 0.85018 0.07784 0.0
C488 C 0.30342 0.82686 0.06277 0.0
C489 C 0.32473 0.8679 0.06608 0.0
C490 C 0.33463 0.8547 0.04411 0.0
O491 O 0.32085 0.76602 0.03566 0.0
C492 C 0.28803 0.83067 0.97483 0.0
O493 O 0.30829 0.84987 0.98295 0.0
H494 H 0.28864 0.80885 0.06592 0.0
H495 H 0.34987 0.86355 0.03001 0.0
N496 N 0.3525 0.80479 0.99391 0.0
N497 N 0.37903 0.79362 0.96046 0.0
C498 C 0.35304 0.79154 0.96925 0.0
C499 C 0.37913 0.81566 1.00114 0.0
C500 C 0.39559 0.80871 0.98055 0.0
C501 C 0.3398 0.76545 0.05708 0.0
O502 O 0.35687 0.78791 0.06272 0.0
H503 H 0.33499 0.7791 0.95902 0.0
H504 H 0.38631 0.82668 0.02064 0.0
O505 O 0.28877 0.80622 0.98613 0.0
H506 H 0.33106 0.88894 0.07265 0.0
H507 H 0.41811 0.81362 0.98082 0.0
Cu508 Cu 0.03994 0.26621 0.32771 0.0
N509 N 0.0649 0.23869 0.33057 0.0
N510 N 0.09767 0.21585 0.31372 0.0
C511 C 0.0875 0.24061 0.31552 0.0
C512 C 0.08078 0.19755 0.32826 0.0
C513 C 0.06059 0.21169 0.33865 0.0
O514 O 0.06343 0.3007 0.32293 0.0
C515 C 0.99555 0.23718 0.29625 0.0
O516 O 0.99269 0.22485 0.32161 0.0
H517 H 0.09459 0.25931 0.30368 0.0
H518 H 0.04272 0.20256 0.34917 0.0
N519 N 1.01863 0.26834 0.35899 0.0
N520 N 0.98493 0.28287 0.3827 0.0
C521 C 0.99356 0.27908 0.35669 0.0
C522 C 0.02602 0.26482 0.38755 0.0
C523 C 1.00526 0.27376 0.40224 0.0
C524 C 0.06096 0.32317 0.335 0.0
O525 O 0.03842 0.32539 0.3479 0.0
H526 H 0.98287 0.28595 0.33628 0.0
H527 H 0.04573 0.25764 0.39704 0.0
O528 O 1.01444 0.2573 0.29388 0.0
H529 H 0.08199 0.17533 0.32989 0.0
H530 H 1.00559 0.27432 0.42546 0.0
Cu531 Cu 0.82347 0.02064 0.27048 0.0
N532 N 0.85516 0.04664 0.27125 0.0
N533 N 0.88012 0.08579 0.25835 0.0
C534 C 0.85564 0.06964 0.25391 0.0
C535 C 0.89584 0.07248 0.27945 0.0
C536 C 0.88024 0.0483 0.28755 0.0
O537 O 0.7916 0.04306 0.26968 0.0
C538 C 0.84785 0.98521 0.23898 0.0
O539 O 0.86877 0.99355 0.25816 0.0
H540 H 0.83821 0.07445 0.23826 0.0
H541 H 0.88665 0.03316 0.30418 0.0
N542 N 0.82158 0.99663 0.30271 0.0
N543 N 0.80259 0.95975 0.32681 0.0
C544 C 0.80353 0.97362 0.30115 0.0
C545 C 0.83259 0.99775 0.33055 0.0
C546 C 0.82067 0.97496 0.34559 0.0
C547 C 0.79487 0.05981 0.2904 0.0
O548 O 0.81726 0.05917 0.30932 0.0
H549 H 0.78997 0.96818 0.28169 0.0
H550 H 0.84723 1.0144 0.33946 0.0
O551 O 0.82438 0.99552 0.23884 0.0
H552 H 0.91675 0.07997 0.28876 0.0
H553 H 0.82439 0.97038 0.36859 0.0
Cu554 Cu 0.06766 0.75527 0.27073 0.0
N555 N 0.04348 0.78324 0.2728 0.0
N556 N 1.00738 0.80797 0.25692 0.0
C557 C 1.0205 0.78525 0.25347 0.0
C558 C 1.02264 0.8209 0.27936 0.0
C559 C 0.04475 0.80546 0.28935 0.0
O560 O 0.03951 0.7227 0.26786 0.0
C561 C 0.10118 0.79193 0.23971 0.0
O562 O 0.0976 0.80644 0.2618 0.0
H563 H 1.01418 0.77083 0.23637 0.0
H564 H 0.06103 0.81068 0.3067 0.0
N565 N 0.09573 0.75012 0.30205 0.0
N566 N 0.13328 0.73177 0.32614 0.0
C567 C 0.11152 0.72832 0.3051 0.0
C568 C 0.10828 0.76817 0.32172 0.0
C569 C 0.13142 0.75695 0.33652 0.0
C570 C 0.03373 0.7087 0.2908 0.0
O571 O 0.05221 0.71038 0.31378 0.0
H572 H 0.10798 0.7109 0.29102 0.0
H573 H 0.10206 0.78866 0.32415 0.0
O574 O 0.08929 0.76708 0.238 0.0
H575 H 1.01833 0.84033 0.28767 0.0
H576 H 0.14618 0.76685 0.35308 0.0
Cu577 Cu 0.31701 0.03734 0.26994 0.0
N578 N 0.34816 0.06326 0.27935 0.0
N579 N 0.37284 0.09683 0.3058 0.0
C580 C 0.34732 0.08317 0.29844 0.0
C581 C 0.39058 0.08517 0.29055 0.0
C582 C 0.37533 0.06442 0.27431 0.0
O583 O 0.28561 0.06093 0.26383 0.0
C584 C 0.30696 0.98543 0.30263 0.0
O585 O 0.28538 0.97943 0.28333 0.0
H586 H 0.32854 0.08639 0.30818 0.0
H587 H 0.3838 0.05051 0.26089 0.0
N588 N 0.31766 1.01627 0.23703 0.0
N589 N 0.30255 0.97999 0.2091 0.0
C590 C 0.29517 0.99991 0.22532 0.0
C591 C 0.34004 1.00689 0.22701 0.0
C592 C 0.3308 0.98474 0.20966 0.0
C593 C 0.2814 0.07415 0.23947 0.0
O594 O 0.29506 0.06829 0.21803 0.0
H595 H 0.27409 1.0007 0.23117 0.0
H596 H 0.36174 1.01385 0.23385 0.0
O597 O 0.31934 1.01002 0.30263 0.0
H598 H 0.41305 0.09081 0.2915 0.0
H599 H 0.3441 0.97216 0.19966 0.0
Cu600 Cu 0.03107 0.78955 0.7799 0.0
N601 N 0.05718 0.76252 0.78255 0.0
N602 N 0.09136 0.73961 0.76804 0.0
C603 C 0.07558 0.76126 0.7628 0.0
C604 C 0.08269 0.72683 0.79237 0.0
C605 C 0.06169 0.741 0.80129 0.0
O606 O 0.05585 0.82379 0.77737 0.0
C607 C 0.99474 0.75543 0.7453 0.0
O608 O 1.00317 0.73793 0.76608 0.0
H609 H 0.07697 0.77578 0.7445 0.0
H610 H 0.05035 0.7358 0.8199 0.0
N611 N 1.00811 0.79125 0.81021 0.0
N612 N 0.97308 0.80594 0.83223 0.0
C613 C 0.98318 0.80251 0.80678 0.0
C614 C 1.01396 0.78726 0.83896 0.0
C615 C 0.99251 0.7964 0.85254 0.0
C616 C 0.05931 0.84159 0.797 0.0
O617 O 0.03913 0.84313 0.81346 0.0
H618 H 0.97367 0.80989 0.78603 0.0
H619 H 0.0332 0.77979 0.84939 0.0
O620 O 1.00482 0.78081 0.74604 0.0
H621 H 0.09115 0.70873 0.80319 0.0
H622 H 0.99176 0.79684 0.87564 0.0
Cu623 Cu 0.33051 0.02206 0.79821 0.0
N624 N 0.36241 0.04704 0.79462 0.0
N625 N 0.38495 0.08677 0.77951 0.0
C626 C 0.36018 0.07107 0.77933 0.0
C627 C 0.40396 0.07178 0.79507 0.0
C628 C 0.38987 0.04721 0.80467 0.0
O629 O 0.29999 0.04586 0.79953 0.0
C630 C 0.3479 0.98044 0.76917 0.0
O631 O 0.36854 0.98479 0.78987 0.0
H632 H 0.34055 0.07686 0.76802 0.0
H633 H 0.39899 0.03083 0.81799 0.0
N634 N 0.33029 1.00043 0.83244 0.0
N635 N 0.30953 0.9681 0.86086 0.0
C636 C 0.3058 0.9881 0.84015 0.0
C637 C 0.35053 0.98814 0.8493 0.0
C638 C 0.33767 0.96792 0.86681 0.0
C639 C 0.30569 0.06263 0.82019 0.0
O640 O 0.32936 0.06118 0.8371 0.0
H641 H 0.28554 0.99188 0.82871 0.0
H642 H 0.37284 0.99196 0.84745 0.0
O643 O 0.32744 0.99559 0.7672 0.0
H644 H 0.42621 0.07828 0.79949 0.0
H645 H 0.34811 0.95324 0.88148 0.0
Cu646 Cu 0.07191 0.27043 0.78958 0.0
N647 N 0.04822 0.29923 0.78784 0.0
N648 N 1.0134 0.32391 0.76783 0.0
C649 C 1.02484 0.29955 0.76875 0.0
C650 C 0.03037 0.33976 0.78694 0.0
C651 C 0.0518 0.32446 0.79933 0.0
O652 O 0.04447 0.2381 0.78258 0.0
C653 C 0.11604 0.30127 0.76898 0.0
O654 O 0.11507 0.31161 0.7943 0.0
H655 H 1.01741 0.28287 0.75438 0.0
H656 H 0.06938 0.33173 0.81455 0.0
N657 N 0.09536 0.26462 0.82444 0.0
N658 N 0.13074 0.24726 0.85305 0.0
C659 C 0.11419 0.24549 0.82768 0.0
C660 C 0.10038 0.27918 0.84873 0.0
C661 C 0.12234 0.26857 0.86637 0.0
C662 C 0.0382 0.22093 0.80307 0.0
O663 O 0.05683 0.21816 0.8256 0.0
H664 H 0.11614 0.23086 0.81135 0.0
H665 H 0.08949 0.29679 0.85293 0.0
O666 O 0.09775 0.28147 0.7606 0.0
H667 H 0.02783 0.36109 0.79111 0.0
H668 H 0.13142 0.27589 0.88727 0.0
Cu669 Cu 0.81871 0.04719 0.72813 0.0
N670 N 0.85285 0.06919 0.73452 0.0
N671 N 0.88124 0.10339 0.75583 0.0
C672 C 0.8584 0.08514 0.75767 0.0
C673 C 0.89081 0.09857 0.73056 0.0
C674 C 0.87324 0.07725 0.71743 0.0
O675 O 0.78977 0.07397 0.72344 0.0
C676 C 0.80401 0.99829 0.7648 0.0
O677 O 0.78023 0.99435 0.74794 0.0
H678 H 0.84457 0.08481 0.77453 0.0
H679 H 0.87416 0.06953 0.69621 0.0
N680 N 0.81458 0.02643 0.69457 0.0
N681 N 0.79627 0.98902 0.66978 0.0
C682 C 0.81098 0.99842 0.69439 0.0
C683 C 0.80291 0.03499 0.66846 0.0
C684 C 0.7916 1.01206 0.65321 0.0
C685 C 0.7949 0.09638 0.70825 0.0
O686 O 0.81864 0.10033 0.69652 0.0
H687 H 0.81588 0.98521 0.71322 0.0
H688 H 0.79962 0.05631 0.6623 0.0
O689 O 0.8199 0.02071 0.7616 0.0
H690 H 0.9085 0.11027 0.72173 0.0
H691 H 0.77841 1.01244 0.63279 0.0
Cu692 Cu 0.31233 0.75378 0.5348 0.0
N693 N 0.34333 0.7564 0.56358 0.0
N694 N 0.3695 0.77363 0.60284 0.0
C695 C 0.34442 0.7727 0.58644 0.0
C696 C 0.38491 0.75705 0.58995 0.0
C697 C 0.36863 0.74625 0.56584 0.0
O698 O 0.27981 0.75273 0.55723 0.0
C699 C 0.34128 0.78629 0.49483 0.0
O700 O 0.36075 0.77027 0.50525 0.0
H701 H 0.32741 0.78461 0.59034 0.0
H702 H 0.37509 0.73267 0.55061 0.0
N703 N 0.30723 0.72233 0.51196 0.0
N704 N 0.28911 0.69619 0.47467 0.0
C705 C 0.29107 0.72137 0.48627 0.0
C706 C 0.31626 0.69691 0.51657 0.0
C707 C 0.305 0.6807 0.49363 0.0
C708 C 0.27497 0.73023 0.57219 0.0
O709 O 0.29012 0.70961 0.56951 0.0
H710 H 0.28042 0.73872 0.47653 0.0
H711 H 0.32971 0.69051 0.5354 0.0
O712 O 0.31792 0.78424 0.50596 0.0
H713 H 0.40644 0.75323 0.59726 0.0
H714 H 0.30846 0.65929 0.49095 0.0
Cu715 Cu 0.81359 0.80146 0.50133 0.0
N716 N 0.84764 0.80034 0.48567 0.0
N717 N 0.87753 0.78623 0.45726 0.0
C718 C 0.85035 0.78755 0.46127 0.0
C719 C 0.89262 0.79915 0.47984 0.0
C720 C 0.87407 0.80781 0.49738 0.0
O721 O 0.78387 0.80668 0.47036 0.0
C722 C 0.81789 0.74546 0.52227 0.0
O723 O 0.82776 0.74141 0.49785 0.0
H724 H 0.83264 0.77783 0.44767 0.0
H725 H 0.87944 0.8178 0.51779 0.0
N726 N 0.81422 0.83028 0.52651 0.0
N727 N 0.80017 0.85227 0.56258 0.0
C728 C 0.80148 0.8276 0.55091 0.0
C729 C 0.82153 0.85765 0.52265 0.0
C730 C 0.81285 0.87133 0.54496 0.0
C731 C 0.78949 0.82381 0.44974 0.0
O732 O 0.81486 0.83681 0.44991 0.0
H733 H 0.79149 0.80811 0.55882 0.0
H734 H 0.83104 0.8671 0.50415 0.0
O735 O 0.80733 0.76806 0.52523 0.0
H736 H 0.91536 0.80166 0.48374 0.0
H737 H 0.81481 0.89355 0.54746 0.0
Cu738 Cu 0.80766 0.26126 0.53305 0.0
N739 N 0.79738 0.23073 0.50883 0.0
N740 N 0.77338 0.20672 0.47231 0.0
C741 C 0.77903 0.23165 0.48455 0.0
C742 C 0.78905 0.18943 0.48929 0.0
C743 C 0.8039 0.20428 0.51169 0.0
O744 O 0.81516 0.29325 0.50544 0.0
C745 C 0.77687 0.23618 0.57562 0.0
O746 O 0.79384 0.21757 0.57131 0.0
H747 H 0.76963 0.25023 0.47628 0.0
H748 H 0.8182 0.19626 0.52896 0.0
N749 N 0.84087 0.26153 0.55897 0.0
N750 N 0.86973 0.27807 0.59706 0.0
C751 C 0.84298 0.27434 0.58434 0.0
C752 C 0.86745 0.25701 0.55536 0.0
C753 C 0.88529 0.26728 0.57878 0.0
C754 C 0.8317 0.28851 0.48674 0.0
O755 O 0.84137 0.26405 0.48773 0.0
H756 H 0.82541 0.28297 0.59209 0.0
H757 H 0.87373 0.2486 0.53628 0.0
O758 O 0.77818 0.25898 0.56024 0.0
H759 H 0.78997 0.16768 0.48554 0.0
H760 H 0.90802 0.26787 0.5815 0.0
Cu761 Cu 0.30691 0.32007 0.54863 0.0
N762 N 0.31259 0.35204 0.57061 0.0
N763 N 0.30254 0.38045 0.60367 0.0
C764 C 0.30164 0.35398 0.59574 0.0
C765 C 0.31402 0.39603 0.58247 0.0
C766 C 0.32043 0.3784 0.56215 0.0
O767 O 0.29865 0.28815 0.57404 0.0
C768 C 0.28572 0.34049 0.49528 0.0
O769 O 0.31253 0.34858 0.49428 0.0
H770 H 0.29083 0.33656 0.6067 0.0
H771 H 0.32807 0.38452 0.54161 0.0
N772 N 0.33789 0.3102 0.5319 0.0
N773 N 0.36029 0.28257 0.50717 0.0
C774 C 0.33524 0.29073 0.51184 0.0
C775 C 0.36564 0.31449 0.54043 0.0
C776 C 0.37954 0.2974 0.52516 0.0
C777 C 0.31708 0.28666 0.5958 0.0
O778 O 0.33736 0.30684 0.5997 0.0
H779 H 0.3151 0.28138 0.5023 0.0
H780 H 0.3749 0.32781 0.55764 0.0
O781 O 0.27779 0.32686 0.51749 0.0
H782 H 0.31607 0.41849 0.58095 0.0
H783 H 0.40195 0.29541 0.5277 0.0
Cu784 Cu 0.83865 0.53658 0.77969 0.0
N785 N 0.87135 0.55966 0.77384 0.0
N786 N 0.89568 0.59541 0.75295 0.0
C787 C 0.87048 0.58498 0.76076 0.0
C788 C 0.91324 0.57573 0.76107 0.0
C789 C 0.89819 0.5537 0.77421 0.0
O790 O 0.80864 0.56105 0.78056 0.0
C791 C 0.85018 0.48816 0.75618 0.0
O792 O 0.8679 0.48887 0.77972 0.0
H793 H 0.85113 0.5945 0.75463 0.0
H794 H 0.90579 0.53401 0.78148 0.0
N795 N 0.83829 0.51794 0.81554 0.0
N796 N 0.81711 0.48917 0.84689 0.0
C797 C 0.8137 0.50606 0.82334 0.0
C798 C 0.85829 0.50875 0.83531 0.0
C799 C 0.84515 0.49055 0.85462 0.0
C800 C 0.81489 0.579 0.80007 0.0
O801 O 0.83967 0.5796 0.8153 0.0
H802 H 0.79372 0.50794 0.81041 0.0
H803 H 0.88071 0.51325 0.83448 0.0
O804 O 0.83412 0.50771 0.75064 0.0
H805 H 0.93488 0.57656 0.75635 0.0
H806 H 0.8554 0.47825 0.87193 0.0
Cu807 Cu 0.32963 0.55362 0.75619 0.0
N808 N 0.35709 0.52845 0.75735 0.0
N809 N 0.3776 0.49112 0.77655 0.0
C810 C 0.35454 0.5051 0.77422 0.0
C811 C 0.39556 0.50621 0.76017 0.0
C812 C 0.38283 0.52928 0.7483 0.0
O813 O 0.2956 0.52774 0.75633 0.0
C814 C 0.36402 0.5947 0.78289 0.0
O815 O 0.37581 0.59141 0.7594 0.0
H816 H 0.33655 0.49927 0.78602 0.0
H817 H 0.39215 0.5459 0.73507 0.0
N818 N 0.32231 0.57831 0.72424 0.0
N819 N 0.29995 0.61304 0.70143 0.0
C820 C 0.29951 0.5927 0.72225 0.0
C821 C 0.3378 0.58977 0.70358 0.0
C822 C 0.32403 0.61127 0.68947 0.0
C823 C 0.28966 0.516 0.73208 0.0
O824 O 0.30468 0.52424 0.71083 0.0
H825 H 0.28363 0.58936 0.73713 0.0
H826 H 0.35825 0.58393 0.69999 0.0
O827 O 0.34204 0.57873 0.78789 0.0
H828 H 0.41652 0.50123 0.75734 0.0
H829 H 0.33145 0.62485 0.67223 0.0
Cu830 Cu 0.34068 0.50342 0.28237 0.0
N831 N 0.33643 0.48566 0.3184 0.0
N832 N 0.31263 0.45846 0.34925 0.0
C833 C 0.3134 0.46819 0.32179 0.0
C834 C 0.33633 0.47025 0.36397 0.0
C835 C 0.35111 0.48707 0.34477 0.0
O836 O 0.34586 0.47365 0.25632 0.0
C837 C 0.30662 0.54146 0.29559 0.0
O838 O 0.32675 0.54242 0.31714 0.0
H839 H 0.29697 0.46337 0.30439 0.0
H840 H 0.37085 0.49953 0.34984 0.0
N841 N 0.3709 0.53075 0.28041 0.0
N842 N 0.39167 0.56915 0.26016 0.0
C843 C 0.37392 0.54598 0.25583 0.0
C844 C 0.38749 0.54474 0.30121 0.0
C845 C 0.40028 0.56853 0.28874 0.0
C846 C 0.36385 0.45689 0.26658 0.0
O847 O 0.37713 0.4611 0.29243 0.0
H848 H 0.36106 0.54153 0.23567 0.0
H849 H 0.38835 0.53948 0.32405 0.0
O850 O 0.30743 0.52462 0.27539 0.0
H851 H 0.34259 0.46692 0.38682 0.0
H852 H 0.41351 0.58488 0.30004 0.0
Cu853 Cu 0.82846 0.54746 0.25065 0.0
N854 N 0.85691 0.52299 0.25552 0.0
N855 N 0.87629 0.48724 0.28007 0.0
C856 C 0.85295 0.50054 0.27348 0.0
C857 C 0.89599 0.50177 0.26531 0.0
C858 C 0.88397 0.52384 0.25013 0.0
O859 O 0.79553 0.52071 0.24309 0.0
C860 C 0.85934 0.58621 0.28137 0.0
O861 O 0.87302 0.58277 0.25917 0.0
H862 H 0.8336 0.49515 0.2832 0.0
H863 H 0.89465 0.54001 0.23743 0.0
N864 N 0.82303 0.57581 0.22174 0.0
N865 N 0.8012 0.61296 0.20394 0.0
C866 C 0.80568 0.59495 0.22653 0.0
C867 C 0.83018 0.58209 0.19488 0.0
C868 C 0.81654 0.60497 0.18376 0.0
C869 C 0.79475 0.51086 0.21795 0.0
O870 O 0.81343 0.52119 0.20086 0.0
H871 H 0.79565 0.59502 0.24618 0.0
H872 H 0.84366 0.57057 0.18387 0.0
O873 O 0.83677 0.57036 0.28456 0.0
H874 H 0.91765 0.49721 0.26594 0.0
H875 H 0.81775 0.61483 0.16254 0.0
Cu876 Cu 0.54792 0.28042 0.80393 0.0
N877 N 0.53055 0.28164 0.83821 0.0
N878 N 0.49835 0.29276 0.86604 0.0
C879 C 0.50462 0.28998 0.83885 0.0
C880 C 0.52126 0.28569 0.88332 0.0
C881 C 0.54105 0.27878 0.8661 0.0
O882 O 0.51799 0.26983 0.77379 0.0
C883 C 0.57144 0.33645 0.81299 0.0
O884 O 0.552 0.33767 0.83042 0.0
H885 H 0.49123 0.29553 0.8196 0.0
H886 H 0.56203 0.27326 0.87336 0.0
N887 N 0.57404 0.25419 0.80356 0.0
N888 N 0.60666 0.23257 0.78493 0.0
C889 C 0.59332 0.25583 0.78441 0.0
C890 C 0.5754 0.22906 0.81696 0.0
C891 C 0.59555 0.21568 0.80552 0.0
C892 C 0.50227 0.24804 0.78001 0.0
O893 O 0.50743 0.23501 0.80512 0.0
H894 H 0.59633 0.27316 0.76915 0.0
H895 H 0.56189 0.2206 0.83295 0.0
O896 O 0.5702 0.31555 0.79718 0.0
H897 H 0.52383 0.28614 0.90667 0.0
H898 H 0.60113 0.19491 0.81144 0.0
Cu899 Cu 0.5744 0.76722 0.78225 0.0
N900 N 0.59818 0.7621 0.81689 0.0
N901 N 0.63472 0.74765 0.84613 0.0
C902 C 0.6233 0.75147 0.81856 0.0
C903 C 0.61593 0.75592 0.86257 0.0
C904 C 0.59354 0.76508 0.84448 0.0
O905 O 0.59947 0.77641 0.75159 0.0
C906 C 0.54123 0.71721 0.79781 0.0
O907 O 0.5625 0.71271 0.81718 0.0
H908 H 0.63245 0.7455 0.79988 0.0
H909 H 0.57471 0.77235 0.85098 0.0
N910 N 0.55215 0.79697 0.78187 0.0
N911 N 0.51585 0.82136 0.76606 0.0
C912 C 0.52572 0.79621 0.76826 0.0
C913 C 0.55915 0.82367 0.78868 0.0
C914 C 0.53681 0.8388 0.77875 0.0
C915 C 0.61946 0.79542 0.75798 0.0
O916 O 0.62098 0.8068 0.78317 0.0
H917 H 0.51466 0.77796 0.7583 0.0
H918 H 0.57948 0.83187 0.79877 0.0
O919 O 0.54516 0.73558 0.77767 0.0
H920 H 0.61801 0.7549 0.88596 0.0
H921 H 0.53633 0.861 0.77992 0.0
Cu922 Cu 0.52473 0.76896 0.30086 0.0
N923 N 0.50452 0.77355 0.33286 0.0
N924 N 0.47271 0.79053 0.35764 0.0
C925 C 0.47977 0.78512 0.33128 0.0
C926 C 0.49364 0.78168 0.37656 0.0
C927 C 0.51313 0.77126 0.36132 0.0
O928 O 0.49801 0.75325 0.27018 0.0
C929 C 0.54987 0.82404 0.30656 0.0
O930 O 0.53551 0.82459 0.32882 0.0
H931 H 0.46816 0.79121 0.31108 0.0
H932 H 0.53297 0.76411 0.37035 0.0
N933 N 0.55528 0.74671 0.30613 0.0
N934 N 0.59335 0.72859 0.29339 0.0
C935 C 0.57133 0.74348 0.28469 0.0
C936 C 0.56775 0.73354 0.32948 0.0
C937 C 0.59123 0.72245 0.3217 0.0
C938 C 0.4944 0.72709 0.26705 0.0
O939 O 0.50946 0.71065 0.28425 0.0
H940 H 0.56738 0.75286 0.26326 0.0
H941 H 0.56069 0.73245 0.35075 0.0
O942 O 0.54359 0.80439 0.28911 0.0
H943 H 0.49526 0.78346 0.39976 0.0
H944 H 0.60567 0.71083 0.33584 0.0
Cu945 Cu 0.56398 0.26377 0.29054 0.0
N946 N 0.54239 0.26401 0.32098 0.0
N947 N 0.50823 0.24786 0.34749 0.0
C948 C 0.5298 0.24139 0.33385 0.0
C949 C 0.50747 0.27551 0.34351 0.0
C950 C 0.52866 0.28547 0.32715 0.0
O951 O 0.53742 0.26484 0.25506 0.0
C952 C 0.61011 0.23905 0.31867 0.0
O953 O 0.61155 0.26193 0.33294 0.0
H954 H 0.53399 0.22037 0.33019 0.0
H955 H 0.53184 0.30626 0.3178 0.0
N956 N 0.58612 0.29721 0.28793 0.0
N957 N 0.61461 0.33024 0.26859 0.0
C958 C 0.599 0.30582 0.26456 0.0
C959 C 0.59372 0.31686 0.30751 0.0
C960 C 0.61162 0.33727 0.29565 0.0
C961 C 0.51118 0.25679 0.25443 0.0
O962 O 0.50288 0.23886 0.27449 0.0
H963 H 0.59777 0.29382 0.24538 0.0
H964 H 0.58733 0.31603 0.32907 0.0
O965 O 0.59003 0.23453 0.29836 0.0
H966 H 0.49132 0.28722 0.34997 0.0
H967 H 0.62192 0.3556 0.30614 0.0
C968 C 0.25194 0.20852 0.18386 0.0
C969 C 0.22397 0.19619 0.18231 0.0
C970 C 0.26293 0.22205 0.15933 0.0
C971 C 0.24614 0.22415 0.13258 0.0
H972 H 0.26482 0.20901 0.20449 0.0
H973 H 0.28413 0.23222 0.16163 0.0
S974 S 0.1728 0.19253 0.11654 0.0
N975 N 0.1809 0.1846 0.15115 0.0
N976 N 0.20105 0.21051 0.10565 0.0
C977 C 0.2187 0.21068 0.13056 0.0
C978 C 0.20779 0.19657 0.15523 0.0
C979 C 0.87608 0.23168 0.10746 0.0
C980 C 0.88017 0.23808 0.13673 0.0
C981 C 0.86466 0.2504 0.08659 0.0
C982 C 0.85777 0.27638 0.09437 0.0
H983 H 0.88234 0.21237 0.10069 0.0
H984 H 0.86202 0.24489 0.06413 0.0
S985 S 0.8631 0.30207 0.16849 0.0
N986 N 0.87473 0.27103 0.17279 0.0
N987 N 0.85478 0.30704 0.13337 0.0
C988 C 0.86145 0.28283 0.12362 0.0
C989 C 0.87224 0.26342 0.14489 0.0
C990 C 0.8695 0.80744 0.14971 0.0
C991 C 0.89145 0.82884 0.15398 0.0
C992 C 0.86374 0.79395 0.12331 0.0
C993 C 0.87945 0.80176 0.09988 0.0
H994 H 0.85539 0.80259 0.1662 0.0
H995 H 0.8454 0.77896 0.12055 0.0
S996 S 0.94147 0.8544 0.10169 0.0
N997 N 0.93064 0.8553 0.134 0.0
N998 N 0.92012 0.83031 0.08432 0.0
C999 C 0.90292 0.82164 0.10486 0.0
C1000 C 0.90883 0.8351 0.13189 0.0
C1001 C 0.25545 0.88359 0.11946 0.0
C1002 C 0.24946 0.86291 0.1407 0.0
C1003 C 0.2747 0.87992 0.09957 0.0
C1004 C 0.28821 0.85535 0.10023 0.0
H1005 H 0.24442 0.90212 0.11759 0.0
H1006 H 0.2781 0.89578 0.08281 0.0
S1007 S 0.28235 0.7971 0.15438 0.0
N1008 N 0.26086 0.81889 0.16342 0.0
N1009 N 0.29613 0.81149 0.12568 0.0
C1010 C 0.28329 0.8353 0.12231 0.0
C1011 C 0.26417 0.83924 0.14265 0.0
C1012 C 0.23642 0.87425 0.93102 0.0
C1013 C 0.22595 0.85753 0.90775 0.0
C1014 C 0.25586 0.86489 0.95308 0.0
C1015 C 0.2652 0.83829 0.95288 0.0
H1016 H 0.22974 0.89485 0.93189 0.0
H1017 H 0.26388 0.87871 0.97034 0.0
S1018 S 0.24498 0.78705 0.89597 0.0
N1019 N 0.22697 0.81365 0.88506 0.0
N1020 N 0.26295 0.79558 0.92715 0.0
C1021 C 0.25452 0.82115 0.92997 0.0
C1022 C 0.23501 0.8309 0.90722 0.0
C1023 C 0.27448 0.20164 0.93131 0.0
C1024 C 0.24679 0.18918 0.92481 0.0
C1025 C 0.28348 0.21346 0.95811 0.0
C1026 C 0.26489 0.2139 0.97923 0.0
H1027 H 0.28948 0.20173 0.91562 0.0
H1028 H 0.30493 0.22289 0.96202 0.0
S1029 S 0.19004 0.18464 0.97281 0.0
N1030 N 0.20102 0.1778 0.94182 0.0
N1031 N 0.21723 0.20148 0.99158 0.0
C1032 C 0.2369 0.20223 0.9727 0.0
C1033 C 0.22797 0.1896 0.94563 0.0
C1034 C 0.86541 0.24828 0.88986 0.0
C1035 C 0.88794 0.23153 0.89368 0.0
C1036 C 0.85719 0.26163 0.91334 0.0
C1037 C 0.87148 0.25886 0.94129 0.0
H1038 H 0.85474 0.25172 0.86844 0.0
H1039 H 0.84042 0.27513 0.90943 0.0
S1040 S 0.92983 0.21484 0.96276 0.0
N1041 N 0.92277 0.21113 0.92758 0.0
N1042 N 0.90767 0.23614 0.97159 0.0
C1043 C 0.89327 0.24121 0.94538 0.0
C1044 C 0.90142 0.22759 0.92161 0.0
C1045 C 0.87676 0.87562 0.91819 0.0
C1046 C 0.86712 0.86219 0.89237 0.0
C1047 C 0.86795 0.86538 0.94477 0.0
C1048 C 0.84916 0.84124 0.94656 0.0
H1049 H 0.88968 0.89525 0.91742 0.0
H1050 H 0.8751 0.87697 0.96393 0.0
S1051 S 0.8181 0.79834 0.885 0.0
N1052 N 0.83836 0.8234 0.87018 0.0
N1053 N 0.82183 0.80382 0.92001 0.0
C1054 C 0.8405 0.82684 0.92104 0.0
C1055 C 0.84949 0.83739 0.89399 0.0
C1056 C 0.13365 0.18078 0.2595 0.0
C1057 C 0.15936 0.19737 0.25882 0.0
C1058 C 0.11372 0.1867 0.2777 0.0
C1059 C 0.11863 0.20971 0.29558 0.0
H1060 H 0.12916 0.1629 0.24608 0.0
H1061 H 0.09419 0.1734 0.27755 0.0
S1062 S 0.18293 0.25927 0.30194 0.0
N1063 N 0.18896 0.23725 0.27788 0.0
N1064 N 0.15127 0.249 0.31143 0.0
C1065 C 0.14415 0.22663 0.29475 0.0
C1066 C 0.16457 0.22031 0.27655 0.0
C1067 C 0.87159 0.15554 0.22146 0.0
C1068 C 0.89718 0.16183 0.20957 0.0
C1069 C 0.86645 0.13092 0.23787 0.0
C1070 C 0.88696 0.11202 0.24362 0.0
H1071 H 0.85534 0.16964 0.21778 0.0
H1072 H 0.84617 0.12651 0.24597 0.0
S1073 S 0.95776 0.1194 0.21811 0.0
N1074 N 0.94337 0.14753 0.20486 0.0
N1075 N 0.93408 0.1016 0.23661 0.0
C1076 C 0.91303 0.11857 0.23275 0.0
C1077 C 0.91807 0.14344 0.21557 0.0
C1078 C 0.96166 0.85563 0.21134 0.0
C1079 C 0.93537 0.83972 0.20751 0.0
C1080 C 0.9852 0.84499 0.22703 0.0
C1081 C 0.98359 0.81772 0.23887 0.0
H1082 H 0.96354 0.87706 0.20347 0.0
H1083 H 1.00469 0.85832 0.23046 0.0
S1084 S 0.9204 0.76675 0.23307 0.0
N1085 N 0.90953 0.79495 0.21574 0.0
N1086 N 0.95412 0.77441 0.24412 0.0
C1087 C 0.95798 0.80097 0.23359 0.0
C1088 C 0.93381 0.81205 0.21808 0.0
C1089 C 0.23766 0.93482 0.18027 0.0
C1090 C 0.24648 0.90793 0.18335 0.0
C1091 C 0.2563 0.95828 0.1879 0.0
C1092 C 0.28453 0.95578 0.1989 0.0
H1093 H 0.21602 0.93761 0.17231 0.0
H1094 H 0.24849 0.97855 0.18553 0.0
S1095 S 0.31732 0.88943 0.21268 0.0
N1096 N 0.28473 0.87989 0.19898 0.0
N1097 N 0.31988 0.92365 0.21338 0.0
C1098 C 0.29358 0.92885 0.20187 0.0
C1099 C 0.27453 0.90503 0.1941 0.0
C1100 C 0.11875 0.88082 0.84377 0.0
C1101 C 0.14252 0.86917 0.83674 0.0
C1102 C 0.09201 0.87328 0.82926 0.0
C1103 C 0.08824 0.85389 0.80716 0.0
H1104 H 0.12077 0.89496 0.86134 0.0
H1105 H 0.07403 0.88181 0.83628 0.0
S1106 S 0.14543 0.82 0.77946 0.0
N1107 N 0.16167 0.83935 0.8056 0.0
N1108 N 0.11177 0.82507 0.77774 0.0
C1109 C 0.11249 0.84348 0.79894 0.0
C1110 C 0.13954 0.85108 0.81396 0.0
C1111 C 0.28672 0.13059 0.84466 0.0
C1112 C 0.25812 0.12511 0.84857 0.0
C1113 C 0.30134 0.11065 0.83368 0.0
C1114 C 0.28783 0.08467 0.82538 0.0
H1115 H 0.29817 0.14997 0.85156 0.0
H1116 H 0.3238 0.11519 0.8329 0.0
S1117 S 0.21259 0.06082 0.82949 0.0
N1118 N 0.21636 0.09238 0.84226 0.0
N1119 N 0.24376 0.05508 0.82042 0.0
C1120 C 0.25878 0.07955 0.82738 0.0
C1121 C 0.24392 0.09978 0.83921 0.0
C1122 C 0.96039 0.22738 0.80329 0.0
C1123 C 0.9531 0.20839 0.82545 0.0
C1124 C 0.98723 0.22926 0.79377 0.0
C1125 C 1.00807 0.21277 0.80686 0.0
H1126 H 0.94555 0.24167 0.79429 0.0
H1127 H 0.99221 0.24512 0.77755 0.0
S1128 S 0.99784 0.15762 0.86392 0.0
N1129 N 0.96727 0.17096 0.85836 0.0
N1130 N 1.01819 0.17475 0.84137 0.0
C1131 C 1.00024 0.19243 0.8279 0.0
C1132 C 0.97268 0.19026 0.8371 0.0
C1133 C 0.85237 0.9577 0.8184 0.0
C1134 C 0.84288 0.92989 0.81291 0.0
C1135 C 0.83922 0.97964 0.80335 0.0
C1136 C 0.81569 0.97462 0.78256 0.0
H1137 H 0.87021 0.96243 0.83436 0.0
H1138 H 0.84769 1.00073 0.80796 0.0
S1139 S 0.78232 0.90482 0.76142 0.0
N1140 N 0.80855 0.8982 0.78608 0.0
N1141 N 0.78341 0.939 0.7579 0.0
C1142 C 0.80576 0.94663 0.77739 0.0
C1143 C 0.81946 0.9244 0.79251 0.0
C1144 C 0.23237 0.12745 0.20618 0.0
C1145 C 0.23522 0.14756 0.22731 0.0
C1146 C 0.24739 0.10371 0.21023 0.0
C1147 C 0.26496 0.0988 0.236 0.0
H1148 H 0.21755 0.12951 0.18707 0.0
H1149 H 0.24455 0.08864 0.19348 0.0
S1150 S 0.28165 0.14686 0.29641 0.0
N1151 N 0.25918 0.16254 0.2733 0.0
N1152 N 0.28597 0.11745 0.28173 0.0
C1153 C 0.26866 0.11933 0.25672 0.0
C1154 C 0.25424 0.14383 0.2521 0.0
C1155 C 0.23798 0.93819 0.87714 0.0
C1156 C 0.23836 0.90996 0.87184 0.0
C1157 C 0.26206 0.95685 0.87551 0.0
C1158 C 0.28745 0.94786 0.86888 0.0
H1159 H 0.21858 0.94598 0.88149 0.0
H1160 H 0.2606 0.97871 0.87821 0.0
S1161 S 0.29951 0.87577 0.8542 0.0
N1162 N 0.26617 0.87368 0.86046 0.0
N1163 N 0.31174 0.90868 0.85795 0.0
C1164 C 0.28848 0.91941 0.86501 0.0
C1165 C 0.26383 0.90046 0.86636 0.0
C1166 C 0.20274 0.22342 0.87619 0.0
C1167 C 0.19706 0.19433 0.87661 0.0
C1168 C 0.1808 0.24088 0.8698 0.0
C1169 C 0.15265 0.2297 0.86327 0.0
H1170 H 0.22431 0.23262 0.87949 0.0
H1171 H 0.18597 0.26315 0.86856 0.0
S1172 S 0.12658 0.15516 0.86519 0.0
N1173 N 0.16102 0.15543 0.87312 0.0
N1174 N 0.12022 0.18802 0.86019 0.0
C1175 C 0.14673 0.20078 0.86504 0.0
C1176 C 0.16882 0.18317 0.87198 0.0
C1177 C 0.89618 0.14232 0.82451 0.0
C1178 C 0.90019 0.17002 0.81433 0.0
C1179 C 0.89101 0.12055 0.80523 0.0
C1180 C 0.89003 0.12573 0.77516 0.0
H1181 H 0.89677 0.13757 0.84749 0.0
H1182 H 0.88737 0.09948 0.81382 0.0
S1183 S 0.89823 0.19494 0.73785 0.0
N1184 N 0.90211 0.20166 0.77255 0.0
N1185 N 0.89298 0.16078 0.73625 0.0
C1186 C 0.89449 0.15338 0.76481 0.0
C1187 C 0.89944 0.17552 0.78445 0.0
C1188 C 0.92772 0.85501 0.86226 0.0
C1189 C 0.90286 0.85269 0.84305 0.0
C1190 C 0.95021 0.83905 0.85926 0.0
C1191 C 0.94881 0.82029 0.83675 0.0
H1192 H 0.93024 0.87017 0.87891 0.0
H1193 H 0.9693 0.84229 0.87391 0.0
S1194 S 0.88663 0.80376 0.78344 0.0
N1195 N 0.87699 0.82806 0.80285 0.0
N1196 N 0.91908 0.79848 0.79686 0.0
C1197 C 0.92346 0.81689 0.81834 0.0
C1198 C 0.90056 0.83292 0.8216 0.0
C1199 C 0.84232 0.91171 0.21314 0.0
C1200 C 0.86835 0.91121 0.20208 0.0
C1201 C 0.83405 0.93663 0.22254 0.0
C1202 C 0.85173 0.96162 0.22125 0.0
H1203 H 0.82916 0.8925 0.21607 0.0
H1204 H 0.81486 0.93588 0.23284 0.0
S1205 S 0.92025 0.97146 0.19077 0.0
N1206 N 0.9101 0.93805 0.18759 0.0
N1207 N 0.89511 0.98454 0.20568 0.0
C1208 C 0.87686 0.96148 0.20849 0.0
C1209 C 0.88504 0.93635 0.19878 0.0
C1210 C 0.16741 0.80801 0.20233 0.0
C1211 C 0.16565 0.83596 0.1929 0.0
C1212 C 0.14523 0.79263 0.21522 0.0
C1213 C 0.12064 0.80479 0.21922 0.0
H1214 H 0.1866 0.79843 0.20096 0.0
H1215 H 0.14813 0.7718 0.22377 0.0
S1216 S 0.10438 0.87608 0.19529 0.0
N1217 N 0.13619 0.874 0.18578 0.0
N1218 N 0.09506 0.84568 0.21082 0.0
C1219 C 0.11817 0.83222 0.20861 0.0
C1220 C 0.14051 0.84767 0.19525 0.0
C1221 C 0.93051 0.21351 0.24722 0.0
C1222 C 0.94154 0.20951 0.22128 0.0
C1223 C 0.94829 0.22185 0.2718 0.0
C1224 C 0.97747 0.22707 0.27076 0.0
H1225 H 0.90795 0.21125 0.24807 0.0
H1226 H 0.93909 0.22532 0.29134 0.0
S1227 S 1.01674 0.21561 0.20911 0.0
N1228 N 0.98332 0.20788 0.19692 0.0
N1229 N 1.01688 0.22493 0.24276 0.0
C1230 C 0.98881 0.22195 0.24531 0.0
C1231 C 0.97077 0.21278 0.2206 0.0
C1232 C 0.22678 0.69559 0.62543 0.0
C1233 C 0.22426 0.71688 0.64406 0.0
C1234 C 0.24203 0.7006 0.60137 0.0
C1235 C 0.2551 0.72719 0.59473 0.0
H1236 H 0.21735 0.67478 0.62986 0.0
H1237 H 0.24414 0.68328 0.58819 0.0
S1238 S 0.25524 0.78986 0.63731 0.0
N1239 N 0.23639 0.76542 0.65467 0.0
N1240 N 0.26454 0.77503 0.60913 0.0
C1241 C 0.25207 0.74885 0.6128 0.0
C1242 C 0.23679 0.74364 0.63753 0.0
C1243 C 0.83568 0.72754 0.60151 0.0
C1244 C 0.85488 0.7077 0.60101 0.0
C1245 C 0.82157 0.73771 0.57588 0.0
C1246 C 0.82662 0.72875 0.54875 0.0
H1247 H 0.83273 0.73623 0.6218 0.0
H1248 H 0.8081 0.7541 0.57737 0.0
S1249 S 0.87261 0.67406 0.53687 0.0
N1250 N 0.87626 0.67717 0.57226 0.0
N1251 N 0.85 0.6962 0.52365 0.0
C1252 C 0.84422 0.70717 0.54833 0.0
C1253 C 0.85839 0.69673 0.5746 0.0
C1254 C 0.9098 0.33368 0.64405 0.0
C1255 C 0.89316 0.33378 0.667 0.0
C1256 C 0.90311 0.31433 0.622 0.0
C1257 C 0.87938 0.29458 0.62207 0.0
H1258 H 0.92699 0.34972 0.64223 0.0
H1259 H 0.91555 0.31594 0.60391 0.0
S1260 S 0.83163 0.28395 0.67971 0.0
N1261 N 0.85393 0.31074 0.6901 0.0
N1262 N 0.84133 0.27455 0.64901 0.0
C1263 C 0.86381 0.29344 0.64599 0.0
C1264 C 0.87071 0.31296 0.66835 0.0
C1265 C 0.24606 0.40846 0.63983 0.0
C1266 C 0.25107 0.39782 0.66835 0.0
C1267 C 0.26442 0.40479 0.61916 0.0
C1268 C 0.28781 0.38952 0.62618 0.0
H1269 H 0.22685 0.41799 0.63301 0.0
H1270 H 0.25915 0.41203 0.59706 0.0
S1271 S 0.31024 0.35792 0.69788 0.0
N1272 N 0.28159 0.37256 0.70276 0.0
N1273 N 0.31548 0.3646 0.66369 0.0
C1274 C 0.2935 0.37963 0.65481 0.0
C1275 C 0.27525 0.38401 0.67595 0.0
C1276 C 0.22313 0.37139 0.45412 0.0
C1277 C 0.22788 0.3689 0.42518 0.0
C1278 C 0.24142 0.36122 0.47687 0.0
C1279 C 0.26531 0.34877 0.4713 0.0
H1280 H 0.20505 0.38119 0.45907 0.0
H1281 H 0.23726 0.36375 0.49891 0.0
S1282 S 0.28601 0.33554 0.39939 0.0
N1283 N 0.25688 0.35118 0.39223 0.0
N1284 N 0.29236 0.33366 0.43497 0.0
C1285 C 0.27028 0.34614 0.44249 0.0
C1286 C 0.25128 0.35584 0.41939 0.0
C1287 C 0.26415 0.69531 0.39488 0.0
C1288 C 0.24837 0.66929 0.39218 0.0
C1289 C 0.27629 0.70464 0.4221 0.0
C1290 C 0.27381 0.68786 0.44742 0.0
H1291 H 0.26859 0.7077 0.37569 0.0
H1292 H 0.28908 0.72438 0.42317 0.0
S1293 S 0.23298 0.61895 0.45198 0.0
N1294 N 0.22935 0.62788 0.41719 0.0
N1295 N 0.25267 0.6449 0.46812 0.0
C1296 C 0.25714 0.66234 0.44505 0.0
C1297 C 0.24432 0.65321 0.41751 0.0
C1298 C 0.88078 0.7549 0.38559 0.0
C1299 C 0.90267 0.73771 0.39176 0.0
C1300 C 0.87325 0.77134 0.40691 0.0
C1301 C 0.88746 0.77121 0.43507 0.0
H1302 H 0.86915 0.75515 0.36429 0.0
H1303 H 0.85596 0.78403 0.40147 0.0
S1304 S 0.94605 0.72897 0.46172 0.0
N1305 N 0.93839 0.72117 0.42744 0.0
N1306 N 0.92434 0.75188 0.46778 0.0
C1307 C 0.90974 0.7543 0.44123 0.0
C1308 C 0.91729 0.73756 0.41949 0.0
C1309 C 0.85657 0.3158 0.41494 0.0
C1310 C 0.86568 0.34386 0.4195 0.0
C1311 C 0.84448 0.29869 0.43644 0.0
C1312 C 0.84053 0.30886 0.46345 0.0
H1313 H 0.85879 0.30701 0.39452 0.0
H1314 H 0.8384 0.27706 0.43193 0.0
S1315 S 0.86171 0.38073 0.48668 0.0
N1316 N 0.87073 0.38096 0.45347 0.0
N1317 N 0.8473 0.34899 0.49354 0.0
C1318 C 0.84916 0.33703 0.46817 0.0
C1319 C 0.86191 0.35443 0.44634 0.0
C1320 C 0.15353 0.74619 0.72391 0.0
C1321 C 0.15724 0.71844 0.71888 0.0
C1322 C 0.13167 0.75291 0.73936 0.0
C1323 C 0.1131 0.7322 0.75129 0.0
H1324 H 0.16784 0.76284 0.7161 0.0
H1325 H 0.12954 0.7745 0.74236 0.0
S1326 S 0.11144 0.65657 0.7411 0.0
N1327 N 0.13831 0.6703 0.72426 0.0
N1328 N 0.09851 0.6828 0.75467 0.0
C1329 C 0.11619 0.7044 0.74585 0.0
C1330 C 0.13793 0.69759 0.7294 0.0
C1331 C 0.90974 0.63755 0.68567 0.0
C1332 C 0.89842 0.66242 0.69012 0.0
C1333 C 0.9108 0.6163 0.70725 0.0
C1334 C 0.90003 0.61916 0.73367 0.0
H1335 H 0.91685 0.63424 0.66498 0.0
H1336 H 0.91843 0.5969 0.7026 0.0
S1337 S 0.86977 0.681 0.7562 0.0
N1338 N 0.87783 0.68944 0.72315 0.0
N1339 N 0.87922 0.64933 0.7636 0.0
C1340 C 0.88973 0.64442 0.73869 0.0
C1341 C 0.88908 0.66613 0.71692 0.0
C1342 C 0.96836 0.3671 0.71565 0.0
C1343 C 0.94163 0.35196 0.71444 0.0
C1344 C 0.99183 0.35759 0.73264 0.0
C1345 C 0.98968 0.33218 0.74852 0.0
H1346 H 0.97067 0.3873 0.70473 0.0
H1347 H 1.01168 0.37046 0.73391 0.0
S1348 S 0.92504 0.28365 0.75087 0.0
N1349 N 0.91475 0.30983 0.72962 0.0
N1350 N 0.95908 0.29119 0.76038 0.0
C1351 C 0.96355 0.31595 0.74593 0.0
C1352 C 0.9395 0.32597 0.7291 0.0
C1353 C 0.25686 0.44195 0.74127 0.0
C1354 C 0.24086 0.43767 0.71433 0.0
C1355 C 0.27114 0.46807 0.74803 0.0
C1356 C 0.26988 0.49067 0.72796 0.0
H1357 H 0.25868 0.42482 0.75696 0.0
H1358 H 0.28426 0.4702 0.76844 0.0
S1359 S 0.22844 0.49078 0.6558 0.0
N1360 N 0.22252 0.45867 0.66884 0.0
N1361 N 0.25004 0.50737 0.68079 0.0
C1362 C 0.25325 0.48673 0.70136 0.0
C1363 C 0.23858 0.46032 0.6947 0.0
C1364 C 0.13656 0.35394 0.33565 0.0
C1365 C 0.13991 0.37062 0.35976 0.0
C1366 C 0.1102 0.34039 0.32617 0.0
C1367 C 0.08635 0.34312 0.34053 0.0
H1368 H 0.15478 0.34991 0.32536 0.0
H1369 H 0.10893 0.32638 0.30855 0.0
S1370 S 0.08419 0.38807 0.40244 0.0
N1371 N 0.11748 0.39177 0.39588 0.0
N1372 N 0.06763 0.36668 0.37819 0.0
C1373 C 0.0892 0.36177 0.36321 0.0
C1374 C 0.11612 0.37537 0.37287 0.0
C1375 C 0.27146 0.60765 0.29299 0.0
C1376 C 0.25529 0.60313 0.31644 0.0
C1377 C 0.28556 0.58619 0.28344 0.0
C1378 C 0.28376 0.55952 0.29697 0.0
H1379 H 0.27485 0.62837 0.28344 0.0
H1380 H 0.29982 0.59113 0.26709 0.0
S1381 S 0.24245 0.53683 0.3579 0.0
N1382 N 0.23679 0.56977 0.35157 0.0
N1383 N 0.26326 0.52962 0.33393 0.0
C1384 C 0.26619 0.55446 0.31919 0.0
C1385 C 0.25195 0.57621 0.32885 0.0
C1386 C 0.95622 0.71337 0.29512 0.0
C1387 C 0.95093 0.69539 0.31892 0.0
C1388 C 0.98214 0.71513 0.28339 0.0
C1389 C 1.00396 0.69938 0.29555 0.0
H1390 H 0.94102 0.72772 0.2871 0.0
H1391 H 0.98601 0.73082 0.26661 0.0
S1392 S 0.99888 0.6464 0.35546 0.0
N1393 N 0.96805 0.65926 0.35189 0.0
N1394 N 1.01692 0.66266 0.33046 0.0
C1395 C 0.99782 0.67953 0.31765 0.0
C1396 C 0.97129 0.67753 0.32921 0.0
C1397 C 0.85883 0.41994 0.32185 0.0
C1398 C 0.88202 0.41878 0.34302 0.0
C1399 C 0.8573 0.44221 0.30129 0.0
C1400 C 0.87913 0.46396 0.30067 0.0
H1401 H 0.842 0.40325 0.3209 0.0
H1402 H 0.83909 0.44225 0.28539 0.0
S1403 S 0.94414 0.47083 0.35199 0.0
N1404 N 0.92699 0.44148 0.36256 0.0
N1405 N 0.92439 0.48303 0.32381 0.0
C1406 C 0.90246 0.46296 0.32176 0.0
C1407 C 0.90381 0.44048 0.34291 0.0
C1408 C 0.23059 0.64415 0.69386 0.0
C1409 C 0.23842 0.67282 0.69085 0.0
C1410 C 0.25071 0.62482 0.69637 0.0
C1411 C 0.27956 0.63326 0.6956 0.0
H1412 H 0.20866 0.63669 0.69472 0.0
H1413 H 0.2437 0.60301 0.69928 0.0
S1414 S 0.31104 0.70607 0.68776 0.0
N1415 N 0.27696 0.70881 0.68716 0.0
N1416 N 0.31484 0.67249 0.69118 0.0
C1417 C 0.28762 0.66187 0.6917 0.0
C1418 C 0.26706 0.68163 0.68949 0.0
C1419 C 0.2517 0.40362 0.34904 0.0
C1420 C 0.23996 0.40846 0.37434 0.0
C1421 C 0.2763 0.41912 0.34184 0.0
C1422 C 0.29004 0.44014 0.35961 0.0
H1423 H 0.24141 0.38804 0.3345 0.0
H1424 H 0.28429 0.4151 0.32179 0.0
S1425 S 0.26787 0.46022 0.42873 0.0
N1426 N 0.24403 0.43485 0.41771 0.0
N1427 N 0.29033 0.46438 0.40412 0.0
C1428 C 0.27906 0.44444 0.38559 0.0
C1429 C 0.25396 0.42851 0.39295 0.0
C1430 C 0.20586 0.70674 0.34146 0.0
C1431 C 0.19994 0.67773 0.34388 0.0
C1432 C 0.18402 0.72441 0.33671 0.0
C1433 C 0.15546 0.71365 0.33363 0.0
H1434 H 0.22746 0.71571 0.34191 0.0
H1435 H 0.18949 0.74655 0.33413 0.0
S1436 S 0.12895 0.63939 0.34113 0.0
N1437 N 0.16357 0.63931 0.34537 0.0
N1438 N 0.12268 0.67224 0.33561 0.0
C1439 C 0.14938 0.68476 0.33704 0.0
C1440 C 0.17155 0.6669 0.34238 0.0
C1441 C 0.89074 0.63315 0.34195 0.0
C1442 C 0.89572 0.65882 0.32692 0.0
C1443 C 0.87722 0.60968 0.32765 0.0
C1444 C 0.86821 0.61136 0.29795 0.0
H1445 H 0.89753 0.63127 0.36485 0.0
H1446 H 0.8747 0.59002 0.33961 0.0
S1447 S 0.87426 0.67436 0.24961 0.0
N1448 N 0.88905 0.68487 0.28144 0.0
N1449 N 0.86411 0.641 0.25435 0.0
C1450 C 0.8726 0.6371 0.28296 0.0
C1451 C 0.88628 0.66078 0.29748 0.0
C1452 C 0.91404 0.31087 0.37019 0.0
C1453 C 0.91695 0.33283 0.38925 0.0
C1454 C 0.93573 0.29357 0.36934 0.0
C1455 C 0.96115 0.29752 0.3876 0.0
H1456 H 0.89572 0.30844 0.35438 0.0
H1457 H 0.93317 0.27779 0.35333 0.0
S1458 S 0.97841 0.35161 0.44225 0.0
N1459 N 0.94641 0.35699 0.42748 0.0
N1460 N 0.9872 0.32454 0.42627 0.0
C1461 C 0.96355 0.31844 0.40797 0.0
C1462 C 0.94144 0.33607 0.40867 0.0
C1463 C 0.85423 0.41479 0.73568 0.0
C1464 C 0.86958 0.41851 0.71165 0.0
C1465 C 0.84512 0.4376 0.74827 0.0
C1466 C 0.85065 0.46485 0.73698 0.0
H1467 H 0.85111 0.39437 0.74599 0.0
H1468 H 0.83541 0.4341 0.76819 0.0
S1469 S 0.88867 0.48516 0.6732 0.0
N1470 N 0.88878 0.45103 0.67617 0.0
N1471 N 0.87129 0.49394 0.6995 0.0
C1472 C 0.86439 0.46855 0.71182 0.0
C1473 C 0.87395 0.44534 0.69922 0.0
C1474 C 0.14989 0.34402 0.70987 0.0
C1475 C 0.17699 0.35151 0.72373 0.0
C1476 C 0.13054 0.3254 0.72345 0.0
C1477 C 0.13788 0.31399 0.75128 0.0
H1478 H 0.1433 0.35363 0.68908 0.0
H1479 H 0.10927 0.32144 0.71304 0.0
S1480 S 0.20742 0.32462 0.79477 0.0
N1481 N 0.21104 0.34413 0.7651 0.0
N1482 N 0.17483 0.30962 0.79093 0.0
C1483 C 0.16548 0.32016 0.76442 0.0
C1484 C 0.18503 0.33884 0.75058 0.0
C1485 C 0.95231 0.70758 0.69164 0.0
C1486 C 0.92749 0.72058 0.6847 0.0
C1487 C 0.9744 0.71956 0.71066 0.0
C1488 C 0.97264 0.74526 0.7228 0.0
H1489 H 0.95462 0.68805 0.68223 0.0
H1490 H 0.993 0.70861 0.716 0.0
S1491 S 0.91135 0.78668 0.71294 0.0
N1492 N 0.9016 0.75951 0.69282 0.0
N1493 N 0.94379 0.78279 0.7275 0.0
C1494 C 0.94801 0.75855 0.71594 0.0
C1495 C 0.92523 0.74599 0.69715 0.0
C1496 C 0.74497 0.24056 0.64671 0.0
C1497 C 0.73157 0.2135 0.65081 0.0
C1498 C 0.75806 0.24866 0.62149 0.0
C1499 C 0.75844 0.22993 0.59942 0.0
H1500 H 0.74569 0.25545 0.6634 0.0
H1501 H 0.76897 0.26927 0.61986 0.0
S1502 S 0.72486 0.15738 0.59858 0.0
N1503 N 0.71804 0.16882 0.6296 0.0
N1504 N 0.74339 0.18336 0.58306 0.0
C1505 C 0.74475 0.203 0.60315 0.0
C1506 C 0.73119 0.19495 0.62856 0.0
C1507 C 0.33365 0.24165 0.66104 0.0
C1508 C 0.34996 0.22296 0.65015 0.0
C1509 C 0.31946 0.26049 0.64248 0.0
C1510 C 0.32082 0.26072 0.61253 0.0
H1511 H 0.33399 0.24327 0.68417 0.0
H1512 H 0.30947 0.2765 0.65177 0.0
S1513 S 0.35879 0.21414 0.57352 0.0
N1514 N 0.3652 0.20435 0.60791 0.0
N1515 N 0.33798 0.2394 0.57271 0.0
C1516 C 0.33507 0.24049 0.60129 0.0
C1517 C 0.34984 0.22163 0.62024 0.0
C1518 C 0.366 0.8103 0.67155 0.0
C1519 C 0.39003 0.82963 0.67278 0.0
C1520 C 0.35994 0.7914 0.64922 0.0
C1521 C 0.37801 0.79062 0.62758 0.0
H1522 H 0.35115 0.81066 0.68732 0.0
H1523 H 0.34061 0.7777 0.64841 0.0
S1524 S 0.44416 0.83607 0.62156 0.0
N1525 N 0.43217 0.84645 0.65069 0.0
N1526 N 0.42148 0.81019 0.60942 0.0
C1527 C 0.40286 0.80882 0.62942 0.0
C1528 C 0.40874 0.82845 0.65189 0.0
C1529 C 0.76937 0.84119 0.63338 0.0
C1530 C 0.74952 0.86079 0.63124 0.0
C1531 C 0.78645 0.83907 0.6112 0.0
C1532 C 0.78457 0.85677 0.58633 0.0
H1533 H 0.77146 0.82729 0.65223 0.0
H1534 H 0.8011 0.82332 0.61332 0.0
S1535 S 0.73528 0.91102 0.57019 0.0
N1536 N 0.72836 0.89763 0.60217 0.0
N1537 N 0.76096 0.89427 0.56082 0.0
C1538 C 0.76515 0.8768 0.58425 0.0
C1539 C 0.74751 0.87866 0.60664 0.0
C1540 C 0.72163 0.84651 0.41098 0.0
C1541 C 0.72707 0.84805 0.38189 0.0
C1542 C 0.74153 0.83751 0.4329 0.0
C1543 C 0.76769 0.83041 0.42638 0.0
H1544 H 0.70201 0.85265 0.41677 0.0
H1545 H 0.73683 0.83701 0.45512 0.0
S1546 S 0.79112 0.82872 0.3535 0.0
N1547 N 0.7593 0.83938 0.34759 0.0
N1548 N 0.79755 0.82427 0.38891 0.0
C1549 C 0.77323 0.83157 0.39741 0.0
C1550 C 0.75269 0.83998 0.37509 0.0
C1551 C 0.74577 0.20643 0.39322 0.0
C1552 C 0.72686 0.18221 0.39145 0.0
C1553 C 0.75955 0.21547 0.41997 0.0
C1554 C 0.75559 0.20007 0.44585 0.0
H1555 H 0.75161 0.21717 0.37355 0.0
H1556 H 0.77494 0.23342 0.42018 0.0
S1557 S 0.70676 0.13646 0.45319 0.0
N1558 N 0.7034 0.14438 0.41816 0.0
N1559 N 0.72972 0.16073 0.46822 0.0
C1560 C 0.73561 0.17674 0.44454 0.0
C1561 C 0.72111 0.16803 0.41744 0.0
C1562 C 0.3907 0.22127 0.48029 0.0
C1563 C 0.3777 0.21943 0.45175 0.0
C1564 C 0.3846 0.24162 0.49846 0.0
C1565 C 0.36504 0.26071 0.48884 0.0
H1566 H 0.40679 0.20774 0.488 0.0
H1567 H 0.3956 0.24277 0.52003 0.0
S1568 S 0.32502 0.26433 0.41612 0.0
N1569 N 0.34433 0.23817 0.41483 0.0
N1570 N 0.33222 0.276 0.44912 0.0
C1571 C 0.35103 0.25831 0.46075 0.0
C1572 C 0.35748 0.23775 0.44218 0.0
C1573 C 0.37891 0.83355 0.44069 0.0
C1574 C 0.35858 0.83457 0.41662 0.0
C1575 C 0.37294 0.81815 0.46605 0.0
C1576 C 0.34616 0.80391 0.46856 0.0
H1577 H 0.39914 0.8455 0.4403 0.0
H1578 H 0.38927 0.81783 0.48408 0.0
S1579 S 0.28664 0.79795 0.41054 0.0
N1580 N 0.31153 0.81815 0.39595 0.0
N1581 N 0.29993 0.7902 0.44388 0.0
C1582 C 0.32591 0.80428 0.44438 0.0
C1583 C 0.33224 0.81933 0.41836 0.0
C1584 C 0.66843 0.24051 0.74045 0.0
C1585 C 0.6666 0.21461 0.72762 0.0
C1586 C 0.64863 0.24638 0.75895 0.0
C1587 C 0.62658 0.22641 0.76557 0.0
H1588 H 0.68564 0.25602 0.73668 0.0
H1589 H 0.65094 0.26643 0.7687 0.0
S1590 S 0.61078 0.15676 0.73464 0.0
N1591 N 0.63953 0.16997 0.72061 0.0
N1592 N 0.60293 0.18061 0.75575 0.0
C1593 C 0.62416 0.20079 0.75214 0.0
C1594 C 0.64399 0.19502 0.73307 0.0
C1595 C 0.41158 0.1437 0.72892 0.0
C1596 C 0.39079 0.16223 0.7283 0.0
C1597 C 0.41079 0.11966 0.74719 0.0
C1598 C 0.38916 0.11365 0.76522 0.0
H1599 H 0.42751 0.14709 0.71411 0.0
H1600 H 0.42609 0.10493 0.74598 0.0
S1601 S 0.33289 0.15834 0.77483 0.0
N1602 N 0.35028 0.17485 0.74951 0.0
N1603 N 0.34888 0.13008 0.78392 0.0
C1604 C 0.36963 0.13321 0.76617 0.0
C1605 C 0.3704 0.15741 0.74766 0.0
C1606 C 0.46518 0.85794 0.71348 0.0
C1607 C 0.43877 0.84574 0.72026 0.0
C1608 C 0.49033 0.84953 0.72812 0.0
C1609 C 0.48993 0.82857 0.75006 0.0
H1610 H 0.46627 0.87524 0.69791 0.0
H1611 H 0.51023 0.85991 0.72278 0.0
S1612 S 0.42629 0.79116 0.77694 0.0
N1613 N 0.41376 0.8123 0.7508 0.0
N1614 N 0.46097 0.79612 0.77812 0.0
C1615 C 0.4637 0.8157 0.75652 0.0
C1616 C 0.43813 0.8244 0.74168 0.0
C1617 C 0.73492 0.93451 0.65718 0.0
C1618 C 0.74661 0.91002 0.66738 0.0
C1619 C 0.75154 0.96005 0.6568 0.0
C1620 C 0.78045 0.96208 0.66695 0.0
H1621 H 0.7127 0.93383 0.64963 0.0
H1622 H 0.74142 0.9785 0.64953 0.0
S1623 S 0.82108 0.90353 0.69501 0.0
N1624 N 0.78868 0.88895 0.68701 0.0
N1625 N 0.82004 0.93699 0.68669 0.0
C1626 C 0.7924 0.93754 0.67677 0.0
C1627 C 0.77547 0.9115 0.67684 0.0
C1628 C 0.62779 0.83788 0.29958 0.0
C1629 C 0.63664 0.85674 0.32136 0.0
C1630 C 0.59912 0.82933 0.29276 0.0
C1631 C 0.57844 0.8392 0.30784 0.0
H1632 H 0.64327 0.82854 0.28901 0.0
H1633 H 0.59343 0.81338 0.27708 0.0
S1634 S 0.59155 0.89217 0.36401 0.0
N1635 N 0.62322 0.88733 0.35577 0.0
N1636 N 0.56917 0.87167 0.34314 0.0
C1637 C 0.5872 0.85986 0.32809 0.0
C1638 C 0.61639 0.86845 0.33491 0.0
C1639 C 0.73205 0.09375 0.30947 0.0
C1640 C 0.74409 0.12098 0.31484 0.0
C1641 C 0.74769 0.07415 0.29874 0.0
C1642 C 0.77576 0.08136 0.29323 0.0
H1643 H 0.71111 0.08721 0.31525 0.0
H1644 H 0.73851 0.05287 0.29678 0.0
S1645 S 0.81526 0.15095 0.30019 0.0
N1646 N 0.78425 0.15488 0.31075 0.0
N1647 N 0.81386 0.11817 0.29146 0.0
C1648 C 0.78716 0.10901 0.29673 0.0
C1649 C 0.77125 0.12884 0.30727 0.0
C1650 C 0.43601 0.2154 0.35794 0.0
C1651 C 0.44119 0.19863 0.38297 0.0
C1652 C 0.45826 0.2305 0.34543 0.0
C1653 C 0.48627 0.22883 0.3574 0.0
H1654 H 0.41458 0.21884 0.34972 0.0
H1655 H 0.45358 0.24464 0.32721 0.0
S1656 S 0.5108 0.18512 0.42055 0.0
N1657 N 0.47611 0.17929 0.41777 0.0
N1658 N 0.51818 0.20702 0.39353 0.0
C1659 C 0.49181 0.21018 0.38073 0.0
C1660 C 0.46914 0.19514 0.3937 0.0
C1661 C 0.31681 0.91292 0.33566 0.0
C1662 C 0.34472 0.91542 0.34875 0.0
C1663 C 0.30455 0.93584 0.32171 0.0
C1664 C 0.3196 0.96239 0.32057 0.0
H1665 H 0.30452 0.89291 0.3359 0.0
H1666 H 0.28317 0.93258 0.31141 0.0
S1667 S 0.39324 0.97986 0.35311 0.0
N1668 N 0.38683 0.94633 0.36082 0.0
N1669 N 0.36413 0.98958 0.33479 0.0
C1670 C 0.34746 0.96519 0.3343 0.0
C1671 C 0.35994 0.94169 0.34828 0.0
C1672 C 0.7683 0.16813 0.69617 0.0
C1673 C 0.73894 0.16228 0.69313 0.0
C1674 C 0.78612 0.14659 0.70095 0.0
C1675 C 0.77522 0.11845 0.70349 0.0
H1676 H 0.77746 0.1895 0.69602 0.0
H1677 H 0.80867 0.15211 0.70353 0.0
S1678 S 0.69973 0.09226 0.69366 0.0
N1679 N 0.69977 0.12635 0.68995 0.0
N1680 N 0.73311 0.08607 0.70009 0.0
C1681 C 0.7459 0.11237 0.69947 0.0
C1682 C 0.72785 0.13422 0.69393 0.0
C1683 C 0.74554 0.91506 0.3608 0.0
C1684 C 0.73601 0.89622 0.33905 0.0
C1685 C 0.76856 0.93494 0.35761 0.0
C1686 C 0.78274 0.93632 0.33264 0.0
H1687 H 0.73433 0.91516 0.37968 0.0
H1688 H 0.7743 0.95019 0.37399 0.0
S1689 S 0.76841 0.88814 0.27206 0.0
N1690 N 0.74381 0.87813 0.29344 0.0
N1691 N 0.78776 0.91446 0.28785 0.0
C1692 C 0.77446 0.91613 0.31184 0.0
C1693 C 0.75084 0.89638 0.31489 0.0
C1694 C 0.6827 0.21466 0.34153 0.0
C1695 C 0.67775 0.18561 0.34153 0.0
C1696 C 0.6606 0.23159 0.33424 0.0
C1697 C 0.63277 0.22018 0.32594 0.0
H1698 H 0.70395 0.22436 0.34603 0.0
H1699 H 0.66553 0.25391 0.33428 0.0
S1700 S 0.60834 0.14519 0.32529 0.0
N1701 N 0.64254 0.1461 0.33524 0.0
N1702 N 0.60134 0.17788 0.32022 0.0
C1703 C 0.62744 0.19116 0.3266 0.0
C1704 C 0.64981 0.17393 0.33477 0.0
C1705 C 0.36655 0.15795 0.35119 0.0
C1706 C 0.38992 0.15721 0.37224 0.0
C1707 C 0.36136 0.13841 0.32936 0.0
C1708 C 0.37949 0.1176 0.3275 0.0
H1709 H 0.35231 0.17385 0.35151 0.0
H1710 H 0.34314 0.13965 0.31362 0.0
S1711 S 0.44299 0.10619 0.37811 0.0
N1712 N 0.4308 0.1335 0.39039 0.0
N1713 N 0.42143 0.0972 0.3492 0.0
C1714 C 0.40305 0.11684 0.3483 0.0
C1715 C 0.40816 0.13654 0.37067 0.0
C1716 C 0.39974 0.81461 0.35589 0.0
C1717 C 0.40422 0.83722 0.37428 0.0
C1718 C 0.42207 0.79926 0.3507 0.0
C1719 C 0.44968 0.80575 0.36397 0.0
H1720 H 0.37901 0.80948 0.34464 0.0
H1721 H 0.41781 0.78233 0.33602 0.0
S1722 S 0.47259 0.86416 0.41254 0.0
N1723 N 0.43844 0.86616 0.40449 0.0
N1724 N 0.48009 0.83705 0.3957 0.0
C1725 C 0.45425 0.82819 0.38262 0.0
C1726 C 0.43164 0.844 0.38747 0.0
C1727 C 0.35724 0.90745 0.75135 0.0
C1728 C 0.36685 0.91094 0.72394 0.0
C1729 C 0.34828 0.92981 0.76475 0.0
C1730 C 0.34835 0.95636 0.75107 0.0
H1731 H 0.35842 0.88774 0.76319 0.0
H1732 H 0.34298 0.92675 0.78675 0.0
S1733 S 0.37034 0.97579 0.67859 0.0
N1734 N 0.37488 0.94241 0.68304 0.0
N1735 N 0.35772 0.98451 0.7081 0.0
C1736 C 0.35636 0.95969 0.72296 0.0
C1737 C 0.36569 0.93692 0.7094 0.0
C1738 C 0.65282 0.82267 0.69011 0.0
C1739 C 0.67987 0.83362 0.70159 0.0
C1740 C 0.63365 0.80872 0.70807 0.0
C1741 C 0.64082 0.80573 0.73814 0.0
H1742 H 0.64622 0.82567 0.66728 0.0
H1743 H 0.61271 0.80148 0.69858 0.0
S1744 S 0.71002 0.82894 0.77806 0.0
N1745 N 0.71352 0.83871 0.74414 0.0
N1746 N 0.67772 0.81355 0.77803 0.0
C1747 C 0.66824 0.81584 0.7495 0.0
C1748 C 0.68768 0.82954 0.73122 0.0
C1749 C 0.45731 0.22134 0.71316 0.0
C1750 C 0.43081 0.21475 0.72323 0.0
C1751 C 0.48039 0.23289 0.73139 0.0
C1752 C 0.47769 0.23772 0.76036 0.0
H1753 H 0.46 0.21781 0.69092 0.0
H1754 H 0.50052 0.23761 0.72295 0.0
S1755 S 0.41244 0.2259 0.79656 0.0
N1756 N 0.40283 0.2158 0.76326 0.0
N1757 N 0.44648 0.23588 0.79808 0.0
C1758 C 0.45137 0.23112 0.77067 0.0
C1759 C 0.42782 0.22 0.75196 0.0
C1760 C 0.75134 0.7315 0.16573 0.0
C1761 C 0.7227 0.7215 0.16435 0.0
C1762 C 0.76274 0.74458 0.14139 0.0
C1763 C 0.74575 0.74842 0.11507 0.0
H1764 H 0.76471 0.72993 0.18594 0.0
H1765 H 0.78474 0.75256 0.14338 0.0
S1766 S 0.67056 0.72251 0.09943 0.0
N1767 N 0.67854 0.71354 0.13379 0.0
N1768 N 0.69963 0.73881 0.08851 0.0
C1769 C 0.71742 0.73753 0.11324 0.0
C1770 C 0.706 0.72389 0.13776 0.0
C1771 C 0.36509 0.6973 0.08644 0.0
C1772 C 0.36569 0.70032 0.11634 0.0
C1773 C 0.35368 0.71718 0.0666 0.0
C1774 C 0.34313 0.74071 0.07635 0.0
H1775 H 0.37523 0.68066 0.07855 0.0
H1776 H 0.35532 0.71537 0.04379 0.0
S1777 S 0.33878 0.75668 0.1525 0.0
N1778 N 0.35286 0.72689 0.15454 0.0
N1779 N 0.33282 0.76491 0.11768 0.0
C1780 C 0.34224 0.74287 0.10612 0.0
C1781 C 0.3531 0.72243 0.12603 0.0
C1782 C 0.40744 0.31718 0.13624 0.0
C1783 C 0.39976 0.30784 0.16349 0.0
C1784 C 0.39414 0.30497 0.1109 0.0
C1785 C 0.3729 0.28279 0.11197 0.0
H1786 H 0.42172 0.33581 0.13442 0.0
H1787 H 0.39852 0.31472 0.09026 0.0
S1788 S 0.34739 0.249 0.17835 0.0
N1789 N 0.37144 0.27382 0.19032 0.0
N1790 N 0.34671 0.25047 0.14278 0.0
C1791 C 0.36704 0.27158 0.13925 0.0
C1792 C 0.38042 0.28423 0.16504 0.0
C1793 C 0.73443 0.39502 0.11618 0.0
C1794 C 0.74426 0.38663 0.14448 0.0
C1795 C 0.7431 0.38319 0.09209 0.0
C1796 C 0.76222 0.36273 0.09539 0.0
H1797 H 0.71805 0.40901 0.11276 0.0
H1798 H 0.73373 0.38905 0.07073 0.0
S1799 S 0.79587 0.33545 0.16507 0.0
N1800 N 0.7754 0.35814 0.17449 0.0
N1801 N 0.79219 0.33616 0.12936 0.0
C1802 C 0.77381 0.35574 0.12357 0.0
C1803 C 0.76471 0.36764 0.14806 0.0
C1804 C 0.74973 0.35794 0.90695 0.0
C1805 C 0.73949 0.38408 0.90583 0.0
C1806 C 0.76878 0.34986 0.93001 0.0
C1807 C 0.77821 0.3676 0.95296 0.0
H1808 H 0.74273 0.34362 0.8899 0.0
H1809 H 0.77568 0.32926 0.93004 0.0
S1810 S 0.75792 0.43886 0.95919 0.0
N1811 N 0.74026 0.42803 0.92868 0.0
N1812 N 0.77632 0.41316 0.97225 0.0
C1813 C 0.76865 0.39424 0.95154 0.0
C1814 C 0.7492 0.40239 0.92792 0.0
C1815 C 0.73988 0.69722 0.93775 0.0
C1816 C 0.75795 0.69668 0.91617 0.0
C1817 C 0.74864 0.71127 0.96343 0.0
C1818 C 0.77612 0.72458 0.96894 0.0
H1819 H 0.71904 0.6863 0.93503 0.0
H1820 H 0.73377 0.71161 0.97922 0.0
S1821 S 0.83124 0.72996 0.91881 0.0
N1822 N 0.80407 0.71195 0.90129 0.0
N1823 N 0.8211 0.73673 0.95022 0.0
C1824 C 0.79446 0.72399 0.9476 0.0
C1825 C 0.78523 0.71049 0.92108 0.0
C1826 C 0.42062 0.75048 0.91889 0.0
C1827 C 0.40322 0.74671 0.89276 0.0
C1828 C 0.41305 0.76653 0.9406 0.0
C1829 C 0.3877 0.77923 0.937 0.0
H1830 H 0.43985 0.74034 0.92279 0.0
H1831 H 0.42666 0.76821 0.96072 0.0
S1832 S 0.33645 0.77804 0.87113 0.0
N1833 N 0.36084 0.75867 0.86348 0.0
N1834 N 0.34636 0.78861 0.90422 0.0
C1835 C 0.37062 0.77631 0.91051 0.0
C1836 C 0.37845 0.76013 0.8884 0.0
C1837 C 0.36489 0.32381 0.91582 0.0
C1838 C 0.38039 0.3501 0.91637 0.0
C1839 C 0.35108 0.31293 0.93979 0.0
C1840 C 0.35192 0.32819 0.96497 0.0
H1841 H 0.36226 0.31228 0.89622 0.0
H1842 H 0.33852 0.2931 0.93809 0.0
S1843 S 0.39296 0.39622 0.97856 0.0
N1844 N 0.39835 0.38951 0.94532 0.0
N1845 N 0.37211 0.36962 0.98982 0.0
C1846 C 0.36864 0.35377 0.96621 0.0
C1847 C 0.38296 0.36454 0.9421 0.0
C1848 C 0.66504 0.7165 0.27208 0.0
C1849 C 0.65923 0.71078 0.24256 0.0
C1850 C 0.64345 0.7219 0.28866 0.0
C1851 C 0.61519 0.72191 0.27635 0.0
H1852 H 0.68652 0.71734 0.28221 0.0
H1853 H 0.64903 0.72676 0.31113 0.0
S1854 S 0.5887 0.70498 0.20068 0.0
N1855 N 0.62303 0.70329 0.20236 0.0
N1856 N 0.58262 0.71345 0.23315 0.0
C1857 C 0.60914 0.71543 0.24701 0.0
C1858 C 0.63108 0.70986 0.23026 0.0
C1859 C 0.39436 0.6416 0.22655 0.0
C1860 C 0.39674 0.63691 0.19744 0.0
C1861 C 0.39382 0.61952 0.24729 0.0
C1862 C 0.39541 0.59202 0.2395 0.0
H1863 H 0.39219 0.66232 0.23313 0.0
H1864 H 0.39109 0.62381 0.26932 0.0
S1865 S 0.40425 0.5695 0.16647 0.0
N1866 N 0.40256 0.60336 0.16224 0.0
N1867 N 0.40118 0.56181 0.20097 0.0
C1868 C 0.39853 0.58734 0.21057 0.0
C1869 C 0.39926 0.60978 0.18961 0.0
C1870 C 0.44013 0.28307 0.22804 0.0
C1871 C 0.44747 0.30812 0.21313 0.0
C1872 C 0.4607 0.2656 0.23942 0.0
C1873 C 0.4896 0.27258 0.23658 0.0
H1874 H 0.41852 0.27775 0.23235 0.0
H1875 H 0.45395 0.24719 0.2519 0.0
S1876 S 0.51902 0.33512 0.19661 0.0
N1877 N 0.48486 0.3382 0.19393 0.0
N1878 N 0.52376 0.30577 0.21528 0.0
C1879 C 0.49686 0.29694 0.22007 0.0
C1880 C 0.47577 0.31462 0.20844 0.0
C1881 C 0.74858 0.46019 0.16922 0.0
C1882 C 0.74654 0.4359 0.18675 0.0
C1883 C 0.76387 0.4846 0.17977 0.0
C1884 C 0.77655 0.48578 0.20857 0.0
H1885 H 0.73738 0.46055 0.14772 0.0
H1886 H 0.76526 0.5029 0.1655 0.0
S1887 S 0.77806 0.42714 0.26254 0.0
N1888 N 0.75969 0.41388 0.23347 0.0
N1889 N 0.78714 0.46003 0.25381 0.0
C1890 C 0.77505 0.46144 0.22606 0.0
C1891 C 0.76045 0.43643 0.21497 0.0
C1892 C 0.6499 0.35822 0.81973 0.0
C1893 C 0.65251 0.38085 0.83777 0.0
C1894 C 0.62332 0.34538 0.80967 0.0
C1895 C 0.59842 0.35446 0.81784 0.0
H1896 H 0.66861 0.34964 0.81456 0.0
H1897 H 0.62249 0.32711 0.79699 0.0
S1898 S 0.59464 0.41501 0.86265 0.0
N1899 N 0.62871 0.4134 0.86156 0.0
N1900 N 0.57851 0.38936 0.84309 0.0
C1901 C 0.60095 0.37825 0.83454 0.0
C1902 C 0.62807 0.39139 0.84448 0.0
C1903 C 0.79094 0.64349 0.82731 0.0
C1904 C 0.76513 0.63386 0.83739 0.0
C1905 C 0.80577 0.62602 0.81285 0.0
C1906 C 0.7952 0.59833 0.80767 0.0
H1907 H 0.80025 0.66434 0.83184 0.0
H1908 H 0.82638 0.63384 0.8069 0.0
S1909 S 0.72802 0.56345 0.82912 0.0
N1910 N 0.72913 0.59531 0.84067 0.0
N1911 N 0.75688 0.56237 0.81309 0.0
C1912 C 0.7687 0.58885 0.81637 0.0
C1913 C 0.75369 0.60666 0.83139 0.0
C1914 C 0.48162 0.69344 0.84318 0.0
C1915 C 0.4579 0.70273 0.82661 0.0
C1916 C 0.50804 0.69579 0.83255 0.0
C1917 C 0.51195 0.70791 0.80492 0.0
H1918 H 0.48011 0.68627 0.86538 0.0
H1919 H 0.52588 0.68992 0.84707 0.0
S1920 S 0.45496 0.73064 0.75106 0.0
N1921 N 0.43897 0.72122 0.78008 0.0
N1922 N 0.48832 0.72511 0.75958 0.0
C1923 C 0.48768 0.71482 0.78714 0.0
C1924 C 0.46077 0.71246 0.79813 0.0
C1925 C 0.36284 0.42211 0.81603 0.0
C1926 C 0.3881 0.41925 0.83384 0.0
C1927 C 0.35976 0.44542 0.7971 0.0
C1928 C 0.38198 0.46655 0.79487 0.0
H1929 H 0.34544 0.40612 0.81671 0.0
H1930 H 0.33985 0.4469 0.78394 0.0
S1931 S 0.45218 0.46896 0.83754 0.0
N1932 N 0.43545 0.43957 0.84861 0.0
N1933 N 0.42995 0.48311 0.81282 0.0
C1934 C 0.40742 0.46375 0.81249 0.0
C1935 C 0.41038 0.44019 0.832 0.0
C1936 C 0.76164 0.6697 0.22769 0.0
C1937 C 0.74062 0.67295 0.20452 0.0
C1938 C 0.78204 0.65096 0.22677 0.0
C1939 C 0.78255 0.63487 0.20248 0.0
H1940 H 0.76183 0.68128 0.247 0.0
H1941 H 0.79727 0.64858 0.24549 0.0
S1942 S 0.73249 0.63601 0.13584 0.0
N1943 N 0.72173 0.65871 0.15645 0.0
N1944 N 0.76046 0.62403 0.15436 0.0
C1945 C 0.76232 0.63872 0.17868 0.0
C1946 C 0.74129 0.65762 0.17978 0.0
C1947 C 0.74547 0.46024 0.86388 0.0
C1948 C 0.74679 0.43156 0.86232 0.0
C1949 C 0.76923 0.47899 0.86072 0.0
C1950 C 0.79516 0.46964 0.85629 0.0
H1951 H 0.72577 0.46815 0.86696 0.0
H1952 H 0.7672 0.50105 0.86073 0.0
S1953 S 0.80925 0.39658 0.84992 0.0
N1954 N 0.77574 0.39466 0.85553 0.0
N1955 N 0.82066 0.42991 0.85034 0.0
C1956 C 0.79692 0.44096 0.85555 0.0
C1957 C 0.77263 0.4219 0.85836 0.0
C1958 C 0.68281 0.69662 0.88283 0.0
C1959 C 0.70771 0.70329 0.86968 0.0
C1960 C 0.65951 0.71219 0.87632 0.0
C1961 C 0.66 0.7344 0.85567 0.0
H1962 H 0.68081 0.6783 0.89697 0.0
H1963 H 0.64039 0.70579 0.88614 0.0
S1964 S 0.72068 0.76074 0.81618 0.0
N1965 N 0.73198 0.7343 0.83637 0.0
N1966 N 0.68808 0.76304 0.82333 0.0
C1967 C 0.68511 0.74172 0.84308 0.0
C1968 C 0.70895 0.72628 0.85024 0.0
C1969 C 0.39041 0.66898 0.79974 0.0
C1970 C 0.40113 0.66719 0.82894 0.0
C1971 C 0.37772 0.64538 0.78539 0.0
C1972 C 0.37454 0.61927 0.79995 0.0
H1973 H 0.39128 0.68889 0.78816 0.0
H1974 H 0.37013 0.6476 0.76267 0.0
S1975 S 0.39972 0.60361 0.87645 0.0
N1976 N 0.40859 0.63727 0.87182 0.0
N1977 N 0.38382 0.59293 0.84505 0.0
C1978 C 0.38509 0.6172 0.8292 0.0
C1979 C 0.39862 0.64117 0.84364 0.0
C1980 C 0.42405 0.31233 0.86171 0.0
C1981 C 0.4267 0.33503 0.87985 0.0
C1982 C 0.44716 0.29745 0.85864 0.0
C1983 C 0.47378 0.3045 0.87386 0.0
H1984 H 0.40464 0.30776 0.84783 0.0
H1985 H 0.44461 0.28127 0.84308 0.0
S1986 S 0.49098 0.36093 0.92583 0.0
N1987 N 0.45732 0.36272 0.9145 0.0
N1988 N 0.50071 0.33462 0.90935 0.0
C1989 C 0.47608 0.32577 0.89379 0.0
C1990 C 0.45253 0.34101 0.89668 0.0
C1991 C 0.38568 0.38537 0.25464 0.0
C1992 C 0.39037 0.38645 0.22538 0.0
C1993 C 0.37609 0.40792 0.26724 0.0
C1994 C 0.37019 0.43241 0.25105 0.0
H1995 H 0.38975 0.36698 0.26798 0.0
H1996 H 0.37355 0.40624 0.29009 0.0
S1997 S 0.379 0.44585 0.17349 0.0
N1998 N 0.38868 0.41422 0.18052 0.0
N1999 N 0.36965 0.45621 0.20398 0.0
C2000 C 0.37401 0.43352 0.22154 0.0
C2001 C 0.38433 0.41067 0.20879 0.0
C2002 C 0.6793 0.36666 0.24085 0.0
C2003 C 0.67113 0.36911 0.21103 0.0
C2004 C 0.66051 0.35442 0.25967 0.0
C2005 C 0.63308 0.34405 0.24915 0.0
H2006 H 0.70038 0.37433 0.24954 0.0
H2007 H 0.6676 0.35254 0.28251 0.0
S2008 S 0.60134 0.34699 0.1729 0.0
N2009 N 0.63391 0.36146 0.17184 0.0
N2010 N 0.59838 0.33796 0.20715 0.0
C2011 C 0.62467 0.34657 0.21932 0.0
C2012 C 0.64378 0.35925 0.20024 0.0
C2013 C 0.45819 0.67913 0.20919 0.0
C2014 C 0.43346 0.69165 0.20021 0.0
C2015 C 0.47775 0.69055 0.23121 0.0
C2016 C 0.47323 0.71501 0.24449 0.0
H2017 H 0.46263 0.66087 0.19868 0.0
H2018 H 0.49685 0.68058 0.23734 0.0
S2019 S 0.40976 0.75335 0.23066 0.0
N2020 N 0.40396 0.72777 0.20794 0.0
N2021 N 0.44101 0.74989 0.24853 0.0
C2022 C 0.44805 0.72709 0.23619 0.0
C2023 C 0.42805 0.71519 0.21425 0.0
loop_
_geom_bond_atom_site_label_1
_geom_bond_atom_site_label_2
_geom_bond_distance
_geom_bond_site_symmetry_2
_ccdc_geom_bond_type
C0 N1 1.317 . S
C0 N2 1.348 . S
C0 C3 1.485 . S
N1 C0 1.317 . S
N1 N5 1.370 . S
N2 C0 1.348 . S
N2 C4 1.346 . S
C3 C0 1.485 . S
C3 H7 0.960 . S
C3 H8 0.961 . S
C3 H9 0.960 . S
C4 N2 1.346 . S
C4 N5 1.307 . S
C4 C6 1.486 . S
N5 N1 1.370 . S
N5 C4 1.307 . S
C6 C4 1.486 . S
C6 H10 0.960 . S
C6 H11 0.960 . S
C6 H12 0.959 . S
H7 C3 0.960 . S
H8 C3 0.961 . S
H9 C3 0.960 . S
H10 C6 0.960 . S
H11 C6 0.960 . S
H12 C6 0.959 . S
C13 N14 1.317 . S
C13 N15 1.348 . S
C13 C16 1.485 . S
N14 C13 1.317 . S
N14 N18 1.370 . S
N15 C13 1.348 . S
N15 C17 1.346 . S
C16 C13 1.485 . S
C16 H20 0.960 . S
C16 H21 0.961 . S
C16 H22 0.960 . S
C17 N15 1.346 . S
C17 N18 1.307 . S
C17 C19 1.486 . S
N18 N14 1.370 . S
N18 C17 1.307 . S
C19 C17 1.486 . S
C19 H23 0.960 . S
C19 H24 0.960 . S
C19 H25 0.959 . S
H20 C16 0.960 . S
H21 C16 0.961 . S
H22 C16 0.960 . S
H23 C19 0.960 . S
H24 C19 0.960 . S
H25 C19 0.959 . S
C26 N27 1.317 . S
C26 N28 1.348 . S
C26 C29 1.485 . S
N27 C26 1.317 . S
N27 N31 1.370 . S
N28 C26 1.348 . S
N28 C30 1.346 . S
C29 C26 1.485 . S
C29 H33 0.960 . S
C29 H34 0.961 . S
C29 H35 0.960 . S
C30 N28 1.346 . S
C30 N31 1.307 . S
C30 C32 1.486 . S
N31 N27 1.370 . S
N31 C30 1.307 . S
C32 C30 1.486 . S
C32 H36 0.960 . S
C32 H37 0.960 . S
C32 H38 0.959 . S
H33 C29 0.960 . S
H34 C29 0.961 . S
H35 C29 0.960 . S
H36 C32 0.960 . S
H37 C32 0.960 . S
H38 C32 0.959 . S
C39 N40 1.317 . S
C39 N41 1.348 . S
C39 C42 1.485 . S
N40 C39 1.317 . S
N40 N44 1.370 . S
N41 C39 1.348 . S
N41 C43 1.346 . S
C42 C39 1.485 . S
C42 H46 0.960 . S
C42 H47 0.961 . S
C42 H48 0.960 . S
C43 N41 1.346 . S
C43 N44 1.307 . S
C43 C45 1.486 . S
N44 N40 1.370 . S
N44 C43 1.307 . S
C45 C43 1.486 . S
C45 H49 0.960 . S
C45 H50 0.960 . S
C45 H51 0.959 . S
H46 C42 0.960 . S
H47 C42 0.961 . S
H48 C42 0.960 . S
H49 C45 0.960 . S
H50 C45 0.960 . S
H51 C45 0.959 . S
C52 N53 1.317 . S
C52 N54 1.348 . S
C52 C55 1.485 . S
N53 C52 1.317 . S
N53 N57 1.370 . S
N54 C52 1.348 . S
N54 C56 1.346 . S
C55 C52 1.485 . S
C55 H59 0.960 . S
C55 H60 0.961 . S
C55 H61 0.960 . S
C56 N54 1.346 . S
C56 N57 1.307 . S
C56 C58 1.486 . S
N57 N53 1.370 . S
N57 C56 1.307 . S
C58 C56 1.486 . S
C58 H62 0.960 . S
C58 H63 0.960 . S
C58 H64 0.959 . S
H59 C55 0.960 . S
H60 C55 0.961 . S
H61 C55 0.960 . S
H62 C58 0.960 . S
H63 C58 0.960 . S
H64 C58 0.959 . S
C65 N66 1.317 . S
C65 N67 1.348 . S
C65 C68 1.485 . S
N66 C65 1.317 . S
N66 N70 1.370 . S
N67 C65 1.348 . S
N67 C69 1.346 . S
C68 C65 1.485 . S
C68 H72 0.960 . S
C68 H73 0.961 . S
C68 H74 0.960 . S
C69 N67 1.346 . S
C69 N70 1.307 . S
C69 C71 1.486 . S
N70 N66 1.370 . S
N70 C69 1.307 . S
C71 C69 1.486 . S
C71 H75 0.960 . S
C71 H76 0.960 . S
C71 H77 0.959 . S
H72 C68 0.960 . S
H73 C68 0.961 . S
H74 C68 0.960 . S
H75 C71 0.960 . S
H76 C71 0.960 . S
H77 C71 0.959 . S
C78 N79 1.317 . S
C78 N80 1.348 . S
C78 C81 1.485 . S
N79 C78 1.317 . S
N79 N83 1.370 . S
N80 C78 1.348 . S
N80 C82 1.346 . S
C81 C78 1.485 . S
C81 H85 0.960 . S
C81 H86 0.961 . S
C81 H87 0.960 . S
C82 N80 1.346 . S
C82 N83 1.307 . S
C82 C84 1.486 . S
N83 N79 1.370 . S
N83 C82 1.307 . S
C84 C82 1.486 . S
C84 H88 0.960 . S
C84 H89 0.960 . S
C84 H90 0.959 . S
H85 C81 0.960 . S
H86 C81 0.961 . S
H87 C81 0.960 . S
H88 C84 0.960 . S
H89 C84 0.960 . S
H90 C84 0.959 . S
C91 N92 1.317 . S
C91 N93 1.348 . S
C91 C94 1.485 . S
N92 C91 1.317 . S
N92 N96 1.370 . S
N93 C91 1.348 . S
N93 C95 1.346 . S
C94 C91 1.485 . S
C94 H98 0.960 . S
C94 H99 0.961 . S
C94 H100 0.960 . S
C95 N93 1.346 . S
C95 N96 1.307 . S
C95 C97 1.486 . S
N96 N92 1.370 . S
N96 C95 1.307 . S
C97 C95 1.486 . S
C97 H101 0.960 . S
C97 H102 0.960 . S
C97 H103 0.959 . S
H98 C94 0.960 . S
H99 C94 0.961 . S
H100 C94 0.960 . S
H101 C97 0.960 . S
H102 C97 0.960 . S
H103 C97 0.959 . S
C104 N105 1.317 . S
C104 N106 1.348 . S
C104 C107 1.485 . S
N105 C104 1.317 . S
N105 N109 1.370 . S
N106 C104 1.348 . S
N106 C108 1.346 . S
C107 C104 1.485 . S
C107 H111 0.960 . S
C107 H112 0.961 . S
C107 H113 0.960 . S
C108 N106 1.346 . S
C108 N109 1.307 . S
C108 C110 1.486 . S
N109 N105 1.370 . S
N109 C108 1.307 . S
C110 C108 1.486 . S
C110 H114 0.960 . S
C110 H115 0.960 . S
C110 H116 0.959 . S
H111 C107 0.960 . S
H112 C107 0.961 . S
H113 C107 0.960 . S
H114 C110 0.960 . S
H115 C110 0.960 . S
H116 C110 0.959 . S
C117 N118 1.317 . S
C117 N119 1.348 . S
C117 C120 1.485 . S
N118 C117 1.317 . S
N118 N122 1.370 . S
N119 C117 1.348 . S
N119 C121 1.346 . S
C120 C117 1.485 . S
C120 H124 0.960 . S
C120 H125 0.961 . S
C120 H126 0.960 . S
C121 N119 1.346 . S
C121 N122 1.307 . S
C121 C123 1.486 . S
N122 N118 1.370 . S
N122 C121 1.307 . S
C123 C121 1.486 . S
C123 H127 0.960 . S
C123 H128 0.960 . S
C123 H129 0.959 . S
H124 C120 0.960 . S
H125 C120 0.961 . S
H126 C120 0.960 . S
H127 C123 0.960 . S
H128 C123 0.960 . S
H129 C123 0.959 . S
C130 N131 1.317 . S
C130 N132 1.348 . S
C130 C133 1.485 . S
N131 C130 1.317 . S
N131 N135 1.370 . S
N132 C130 1.348 . S
N132 C134 1.346 . S
C133 C130 1.485 . S
C133 H137 0.960 . S
C133 H138 0.961 . S
C133 H139 0.960 . S
C134 N132 1.346 . S
C134 N135 1.307 . S
C134 C136 1.486 . S
N135 N131 1.370 . S
N135 C134 1.307 . S
C136 C134 1.486 . S
C136 H140 0.960 . S
C136 H141 0.960 . S
C136 H142 0.959 . S
H137 C133 0.960 . S
H138 C133 0.961 . S
H139 C133 0.960 . S
H140 C136 0.960 . S
H141 C136 0.960 . S
H142 C136 0.959 . S
C143 N144 1.317 . S
C143 N145 1.348 . S
C143 C146 1.485 . S
N144 C143 1.317 . S
N144 N148 1.370 . S
N145 C143 1.348 . S
N145 C147 1.346 . S
C146 C143 1.485 . S
C146 H150 0.960 . S
C146 H151 0.961 . S
C146 H152 0.960 . S
C147 N145 1.346 . S
C147 N148 1.307 . S
C147 C149 1.486 . S
N148 N144 1.370 . S
N148 C147 1.307 . S
C149 C147 1.486 . S
C149 H153 0.960 . S
C149 H154 0.960 . S
C149 H155 0.959 . S
H150 C146 0.960 . S
H151 C146 0.961 . S
H152 C146 0.960 . S
H153 C149 0.960 . S
H154 C149 0.960 . S
H155 C149 0.959 . S
C156 N157 1.317 . S
C156 N158 1.348 . S
C156 C159 1.485 . S
N157 C156 1.317 . S
N157 N161 1.370 . S
N158 C156 1.348 . S
N158 C160 1.346 . S
C159 C156 1.485 . S
C159 H163 0.960 . S
C159 H164 0.961 . S
C159 H165 0.960 . S
C160 N158 1.346 . S
C160 N161 1.307 . S
C160 C162 1.486 . S
N161 N157 1.370 . S
N161 C160 1.307 . S
C162 C160 1.486 . S
C162 H166 0.960 . S
C162 H167 0.960 . S
C162 H168 0.959 . S
H163 C159 0.960 . S
H164 C159 0.961 . S
H165 C159 0.960 . S
H166 C162 0.960 . S
H167 C162 0.960 . S
H168 C162 0.959 . S
C169 N170 1.317 . S
C169 N171 1.348 . S
C169 C172 1.485 . S
N170 C169 1.317 . S
N170 N174 1.370 . S
N171 C169 1.348 . S
N171 C173 1.346 . S
C172 C169 1.485 . S
C172 H176 0.960 . S
C172 H177 0.961 . S
C172 H178 0.960 . S
C173 N171 1.346 . S
C173 N174 1.307 . S
C173 C175 1.486 . S
N174 N170 1.370 . S
N174 C173 1.307 . S
C175 C173 1.486 . S
C175 H179 0.960 . S
C175 H180 0.960 . S
C175 H181 0.959 . S
H176 C172 0.960 . S
H177 C172 0.961 . S
H178 C172 0.960 . S
H179 C175 0.960 . S
H180 C175 0.960 . S
H181 C175 0.959 . S
C182 N183 1.317 . S
C182 N184 1.348 . S
C182 C185 1.485 . S
N183 C182 1.317 . S
N183 N187 1.370 . S
N184 C182 1.348 . S
N184 C186 1.346 . S
C185 C182 1.485 . S
C185 H189 0.960 . S
C185 H190 0.961 . S
C185 H191 0.960 . S
C186 N184 1.346 . S
C186 N187 1.307 . S
C186 C188 1.486 . S
N187 N183 1.370 . S
N187 C186 1.307 . S
C188 C186 1.486 . S
C188 H192 0.960 . S
C188 H193 0.960 . S
C188 H194 0.959 . S
H189 C185 0.960 . S
H190 C185 0.961 . S
H191 C185 0.960 . S
H192 C188 0.960 . S
H193 C188 0.960 . S
H194 C188 0.959 . S
C195 N196 1.317 . S
C195 N197 1.348 . S
C195 C198 1.485 . S
N196 C195 1.317 . S
N196 N200 1.370 . S
N197 C195 1.348 . S
N197 C199 1.346 . S
C198 C195 1.485 . S
C198 H202 0.960 . S
C198 H203 0.961 . S
C198 H204 0.960 . S
C199 N197 1.346 . S
C199 N200 1.307 . S
C199 C201 1.486 . S
N200 N196 1.370 . S
N200 C199 1.307 . S
C201 C199 1.486 . S
C201 H205 0.960 . S
C201 H206 0.960 . S
C201 H207 0.959 . S
H202 C198 0.960 . S
H203 C198 0.961 . S
H204 C198 0.960 . S
H205 C201 0.960 . S
H206 C201 0.960 . S
H207 C201 0.959 . S
C208 N209 1.317 . S
C208 N210 1.348 . S
C208 C211 1.485 . S
N209 C208 1.317 . S
N209 N213 1.370 . S
N210 C208 1.348 . S
N210 C212 1.346 . S
C211 C208 1.485 . S
C211 H215 0.960 . S
C211 H216 0.961 . S
C211 H217 0.960 . S
C212 N210 1.346 . S
C212 N213 1.307 . S
C212 C214 1.486 . S
N213 N209 1.370 . S
N213 C212 1.307 . S
C214 C212 1.486 . S
C214 H218 0.960 . S
C214 H219 0.960 . S
C214 H220 0.959 . S
H215 C211 0.960 . S
H216 C211 0.961 . S
H217 C211 0.960 . S
H218 C214 0.960 . S
H219 C214 0.960 . S
H220 C214 0.959 . S
C221 N222 1.317 . S
C221 N223 1.348 . S
C221 C224 1.485 . S
N222 C221 1.317 . S
N222 N226 1.370 . S
N223 C221 1.348 . S
N223 C225 1.346 . S
C224 C221 1.485 . S
C224 H228 0.960 . S
C224 H229 0.961 . S
C224 H230 0.960 . S
C225 N223 1.346 . S
C225 N226 1.307 . S
C225 C227 1.486 . S
N226 N222 1.370 . S
N226 C225 1.307 . S
C227 C225 1.486 . S
C227 H231 0.960 . S
C227 H232 0.960 . S
C227 H233 0.959 . S
H228 C224 0.960 . S
H229 C224 0.961 . S
H230 C224 0.960 . S
H231 C227 0.960 . S
H232 C227 0.960 . S
H233 C227 0.959 . S
C234 N235 1.317 . S
C234 N236 1.348 . S
C234 C237 1.485 . S
N235 C234 1.317 . S
N235 N239 1.370 . S
N236 C234 1.348 . S
N236 C238 1.346 . S
C237 C234 1.485 . S
C237 H241 0.960 . S
C237 H242 0.961 . S
C237 H243 0.960 . S
C238 N236 1.346 . S
C238 N239 1.307 . S
C238 C240 1.486 . S
N239 N235 1.370 . S
N239 C238 1.307 . S
C240 C238 1.486 . S
C240 H244 0.960 . S
C240 H245 0.960 . S
C240 H246 0.959 . S
H241 C237 0.960 . S
H242 C237 0.961 . S
H243 C237 0.960 . S
H244 C240 0.960 . S
H245 C240 0.960 . S
H246 C240 0.959 . S
C247 N248 1.317 . S
C247 N249 1.348 . S
C247 C250 1.485 . S
N248 C247 1.317 . S
N248 N252 1.370 . S
N249 C247 1.348 . S
N249 C251 1.346 . S
C250 C247 1.485 . S
C250 H254 0.960 . S
C250 H255 0.961 . S
C250 H256 0.960 . S
C251 N249 1.346 . S
C251 N252 1.307 . S
C251 C253 1.486 . S
N252 N248 1.370 . S
N252 C251 1.307 . S
C253 C251 1.486 . S
C253 H257 0.960 . S
C253 H258 0.960 . S
C253 H259 0.959 . S
H254 C250 0.960 . S
H255 C250 0.961 . S
H256 C250 0.960 . S
H257 C253 0.960 . S
H258 C253 0.960 . S
H259 C253 0.959 . S
C260 N261 1.317 . S
C260 N262 1.348 . S
C260 C263 1.485 . S
N261 C260 1.317 . S
N261 N265 1.370 . S
N262 C260 1.348 . S
N262 C264 1.346 . S
C263 C260 1.485 . S
C263 H267 0.960 . S
C263 H268 0.961 . S
C263 H269 0.960 . S
C264 N262 1.346 . S
C264 N265 1.307 . S
C264 C266 1.486 . S
N265 N261 1.370 . S
N265 C264 1.307 . S
C266 C264 1.486 . S
C266 H270 0.960 . S
C266 H271 0.960 . S
C266 H272 0.959 . S
H267 C263 0.960 . S
H268 C263 0.961 . S
H269 C263 0.960 . S
H270 C266 0.960 . S
H271 C266 0.960 . S
H272 C266 0.959 . S
C273 N274 1.317 . S
C273 N275 1.348 . S
C273 C276 1.485 . S
N274 C273 1.317 . S
N274 N278 1.370 . S
N275 C273 1.348 . S
N275 C277 1.346 . S
C276 C273 1.485 . S
C276 H280 0.960 . S
C276 H281 0.961 . S
C276 H282 0.960 . S
C277 N275 1.346 . S
C277 N278 1.307 . S
C277 C279 1.486 . S
N278 N274 1.370 . S
N278 C277 1.307 . S
C279 C277 1.486 . S
C279 H283 0.960 . S
C279 H284 0.960 . S
C279 H285 0.959 . S
H280 C276 0.960 . S
H281 C276 0.961 . S
H282 C276 0.960 . S
H283 C279 0.960 . S
H284 C279 0.960 . S
H285 C279 0.959 . S
C286 N287 1.317 . S
C286 N288 1.348 . S
C286 C289 1.485 . S
N287 C286 1.317 . S
N287 N291 1.370 . S
N288 C286 1.348 . S
N288 C290 1.346 . S
C289 C286 1.485 . S
C289 H293 0.960 . S
C289 H294 0.961 . S
C289 H295 0.960 . S
C290 N288 1.346 . S
C290 N291 1.307 . S
C290 C292 1.486 . S
N291 N287 1.370 . S
N291 C290 1.307 . S
C292 C290 1.486 . S
C292 H296 0.960 . S
C292 H297 0.960 . S
C292 H298 0.959 . S
H293 C289 0.960 . S
H294 C289 0.961 . S
H295 C289 0.960 . S
H296 C292 0.960 . S
H297 C292 0.960 . S
H298 C292 0.959 . S
C299 N300 1.317 . S
C299 N301 1.348 . S
C299 C302 1.485 . S
N300 C299 1.317 . S
N300 N304 1.370 . S
N301 C299 1.348 . S
N301 C303 1.346 . S
C302 C299 1.485 . S
C302 H306 0.960 . S
C302 H307 0.961 . S
C302 H308 0.960 . S
C303 N301 1.346 . S
C303 N304 1.307 . S
C303 C305 1.486 . S
N304 N300 1.370 . S
N304 C303 1.307 . S
C305 C303 1.486 . S
C305 H309 0.960 . S
C305 H310 0.960 . S
C305 H311 0.959 . S
H306 C302 0.960 . S
H307 C302 0.961 . S
H308 C302 0.960 . S
H309 C305 0.960 . S
H310 C305 0.960 . S
H311 C305 0.959 . S
C312 N313 1.317 . S
C312 N314 1.348 . S
C312 C315 1.485 . S
N313 C312 1.317 . S
N313 N317 1.370 . S
N314 C312 1.348 . S
N314 C316 1.346 . S
C315 C312 1.485 . S
C315 H319 0.960 . S
C315 H320 0.961 . S
C315 H321 0.960 . S
C316 N314 1.346 . S
C316 N317 1.307 . S
C316 C318 1.486 . S
N317 N313 1.370 . S
N317 C316 1.307 . S
C318 C316 1.486 . S
C318 H322 0.960 . S
C318 H323 0.960 . S
C318 H324 0.959 . S
H319 C315 0.960 . S
H320 C315 0.961 . S
H321 C315 0.960 . S
H322 C318 0.960 . S
H323 C318 0.960 . S
H324 C318 0.959 . S
C325 N326 1.317 . S
C325 N327 1.348 . S
C325 C328 1.485 . S
N326 C325 1.317 . S
N326 N330 1.370 . S
N327 C325 1.348 . S
N327 C329 1.346 . S
C328 C325 1.485 . S
C328 H332 0.960 . S
C328 H333 0.961 . S
C328 H334 0.960 . S
C329 N327 1.346 . S
C329 N330 1.307 . S
C329 C331 1.486 . S
N330 N326 1.370 . S
N330 C329 1.307 . S
C331 C329 1.486 . S
C331 H335 0.960 . S
C331 H336 0.960 . S
C331 H337 0.959 . S
H332 C328 0.960 . S
H333 C328 0.961 . S
H334 C328 0.960 . S
H335 C331 0.960 . S
H336 C331 0.960 . S
H337 C331 0.959 . S
C338 N339 1.317 . S
C338 N340 1.348 . S
C338 C341 1.485 . S
N339 C338 1.317 . S
N339 N343 1.370 . S
N340 C338 1.348 . S
N340 C342 1.346 . S
C341 C338 1.485 . S
C341 H345 0.960 . S
C341 H346 0.961 . S
C341 H347 0.960 . S
C342 N340 1.346 . S
C342 N343 1.307 . S
C342 C344 1.486 . S
N343 N339 1.370 . S
N343 C342 1.307 . S
C344 C342 1.486 . S
C344 H348 0.960 . S
C344 H349 0.960 . S
C344 H350 0.959 . S
H345 C341 0.960 . S
H346 C341 0.961 . S
H347 C341 0.960 . S
H348 C344 0.960 . S
H349 C344 0.960 . S
H350 C344 0.959 . S
C351 N352 1.317 . S
C351 N353 1.348 . S
C351 C354 1.485 . S
N352 C351 1.317 . S
N352 N356 1.370 . S
N353 C351 1.348 . S
N353 C355 1.346 . S
C354 C351 1.485 . S
C354 H358 0.960 . S
C354 H359 0.961 . S
C354 H360 0.960 . S
C355 N353 1.346 . S
C355 N356 1.307 . S
C355 C357 1.486 . S
N356 N352 1.370 . S
N356 C355 1.307 . S
C357 C355 1.486 . S
C357 H361 0.960 . S
C357 H362 0.960 . S
C357 H363 0.959 . S
H358 C354 0.960 . S
H359 C354 0.961 . S
H360 C354 0.960 . S
H361 C357 0.960 . S
H362 C357 0.960 . S
H363 C357 0.959 . S
C364 N365 1.317 . S
C364 N366 1.348 . S
C364 C367 1.485 . S
N365 C364 1.317 . S
N365 N369 1.370 . S
N366 C364 1.348 . S
N366 C368 1.346 . S
C367 C364 1.485 . S
C367 H371 0.960 . S
C367 H372 0.961 . S
C367 H373 0.960 . S
C368 N366 1.346 . S
C368 N369 1.307 . S
C368 C370 1.486 . S
N369 N365 1.370 . S
N369 C368 1.307 . S
C370 C368 1.486 . S
C370 H374 0.960 . S
C370 H375 0.960 . S
C370 H376 0.959 . S
H371 C367 0.960 . S
H372 C367 0.961 . S
H373 C367 0.960 . S
H374 C370 0.960 . S
H375 C370 0.960 . S
H376 C370 0.959 . S
C377 N378 1.317 . S
C377 N379 1.348 . S
C377 C380 1.485 . S
N378 C377 1.317 . S
N378 N382 1.370 . S
N379 C377 1.348 . S
N379 C381 1.346 . S
C380 C377 1.485 . S
C380 H384 0.960 . S
C380 H385 0.961 . S
C380 H386 0.960 . S
C381 N379 1.346 . S
C381 N382 1.307 . S
C381 C383 1.486 . S
N382 N378 1.370 . S
N382 C381 1.307 . S
C383 C381 1.486 . S
C383 H387 0.960 . S
C383 H388 0.960 . S
C383 H389 0.959 . S
H384 C380 0.960 . S
H385 C380 0.961 . S
H386 C380 0.960 . S
H387 C383 0.960 . S
H388 C383 0.960 . S
H389 C383 0.959 . S
C390 N391 1.317 . S
C390 N392 1.348 . S
C390 C393 1.485 . S
N391 C390 1.317 . S
N391 N395 1.370 . S
N392 C390 1.348 . S
N392 C394 1.346 . S
C393 C390 1.485 . S
C393 H397 0.960 . S
C393 H398 0.961 . S
C393 H399 0.960 . S
C394 N392 1.346 . S
C394 N395 1.307 . S
C394 C396 1.486 . S
N395 N391 1.370 . S
N395 C394 1.307 . S
C396 C394 1.486 . S
C396 H400 0.960 . S
C396 H401 0.960 . S
C396 H402 0.959 . S
H397 C393 0.960 . S
H398 C393 0.961 . S
H399 C393 0.960 . S
H400 C396 0.960 . S
H401 C396 0.960 . S
H402 C396 0.959 . S
C403 N404 1.317 . S
C403 N405 1.348 . S
C403 C406 1.485 . S
N404 C403 1.317 . S
N404 N408 1.370 . S
N405 C403 1.348 . S
N405 C407 1.346 . S
C406 C403 1.485 . S
C406 H410 0.960 . S
C406 H411 0.961 . S
C406 H412 0.960 . S
C407 N405 1.346 . S
C407 N408 1.307 . S
C407 C409 1.486 . S
N408 N404 1.370 . S
N408 C407 1.307 . S
C409 C407 1.486 . S
C409 H413 0.960 . S
C409 H414 0.960 . S
C409 H415 0.959 . S
H410 C406 0.960 . S
H411 C406 0.961 . S
H412 C406 0.960 . S
H413 C409 0.960 . S
H414 C409 0.960 . S
H415 C409 0.959 . S
Cu416 N417 1.999 . S
Cu416 O422 1.974 1_554 S
Cu416 N427 1.985 . S
Cu416 O436 1.959 . S
N417 Cu416 1.999 . S
N417 C419 1.263 1_554 S
N417 C421 1.389 . S
N418 C419 1.358 . S
N418 C420 1.400 . S
C419 N417 1.263 1_556 S
C419 N418 1.358 . S
C419 H425 0.930 . S
C420 N418 1.400 . S
C420 C421 1.351 1_556 S
C420 H437 0.930 . S
C421 N417 1.389 . S
C421 C420 1.351 1_554 S
C421 H426 0.930 . S
O422 Cu416 1.974 1_556 S
O422 C432 1.282 . S
C423 O424 1.261 . S
C423 O436 1.251 . S
O424 C423 1.261 . S
H425 C419 0.930 . S
H426 C421 0.930 . S
N427 Cu416 1.985 . S
N427 C429 1.335 . S
N427 C430 1.390 . S
N428 C429 1.345 . S
N428 C431 1.336 . S
C429 N427 1.335 . S
C429 N428 1.345 . S
C429 H434 0.930 . S
C430 N427 1.390 . S
C430 C431 1.346 . S
C430 H435 0.930 . S
C431 N428 1.336 . S
C431 C430 1.346 . S
C431 H438 0.929 . S
C432 O422 1.282 . S
C432 O433 1.216 . S
O433 C432 1.216 . S
H434 C429 0.930 . S
H435 C430 0.930 . S
O436 Cu416 1.959 . S
O436 C423 1.251 . S
H437 C420 0.930 . S
H438 C431 0.929 . S
Cu439 N440 1.999 . S
Cu439 O445 1.974 . S
Cu439 N450 1.985 1_554 S
Cu439 O459 1.959 1_554 S
N440 Cu439 1.999 . S
N440 C442 1.263 . S
N440 C444 1.389 . S
N441 C442 1.358 . S
N441 C443 1.400 . S
C442 N440 1.263 . S
C442 N441 1.358 . S
C442 H448 0.930 . S
C443 N441 1.400 . S
C443 C444 1.351 . S
C443 H460 0.930 . S
C444 N440 1.389 . S
C444 C443 1.351 . S
C444 H449 0.930 . S
O445 Cu439 1.974 . S
O445 C455 1.282 . S
C446 O447 1.261 . S
C446 O459 1.251 . S
O447 C446 1.261 . S
H448 C442 0.930 . S
H449 C444 0.930 . S
N450 Cu439 1.985 1_556 S
N450 C452 1.335 . S
N450 C453 1.390 1_556 S
N451 C452 1.345 . S
N451 C454 1.336 . S
C452 N450 1.335 . S
C452 N451 1.345 . S
C452 H457 0.930 . S
C453 N450 1.390 1_554 S
C453 C454 1.346 1_554 S
C453 H458 0.930 . S
C454 N451 1.336 . S
C454 C453 1.346 1_556 S
C454 H461 0.929 . S
C455 O445 1.282 . S
C455 O456 1.216 . S
O456 C455 1.216 . S
H457 C452 0.930 . S
H458 C453 0.930 . S
O459 Cu439 1.959 1_556 S
O459 C446 1.251 . S
H460 C443 0.930 . S
H461 C454 0.929 . S
Cu462 N463 1.999 1_554 S
Cu462 O468 1.974 1_554 S
Cu462 N473 1.985 . S
Cu462 O482 1.959 . S
N463 Cu462 1.999 1_556 S
N463 C465 1.263 . S
N463 C467 1.389 . S
N464 C465 1.358 . S
N464 C466 1.400 . S
C465 N463 1.263 . S
C465 N464 1.358 . S
C465 H471 0.930 . S
C466 N464 1.400 . S
C466 C467 1.351 . S
C466 H483 0.930 . S
C467 N463 1.389 . S
C467 C466 1.351 . S
C467 H472 0.930 1_556 S
O468 Cu462 1.974 1_556 S
O468 C478 1.282 . S
C469 O470 1.261 . S
C469 O482 1.251 . S
O470 C469 1.261 . S
H471 C465 0.930 . S
H472 C467 0.930 1_554 S
N473 Cu462 1.985 . S
N473 C475 1.335 . S
N473 C476 1.390 . S
N474 C475 1.345 . S
N474 C477 1.336 . S
C475 N473 1.335 . S
C475 N474 1.345 . S
C475 H480 0.930 . S
C476 N473 1.390 . S
C476 C477 1.346 . S
C476 H481 0.930 1_554 S
C477 N474 1.336 . S
C477 C476 1.346 . S
C477 H484 0.929 . S
C478 O468 1.282 . S
C478 O479 1.216 . S
O479 C478 1.216 . S
H480 C475 0.930 . S
H481 C476 0.930 1_556 S
O482 Cu462 1.959 . S
O482 C469 1.251 . S
H483 C466 0.930 . S
H484 C477 0.929 . S
Cu485 N486 1.999 . S
Cu485 O491 1.974 . S
Cu485 N496 1.985 1_554 S
Cu485 O505 1.959 1_554 S
N486 Cu485 1.999 . S
N486 C488 1.263 . S
N486 C490 1.389 . S
N487 C488 1.358 . S
N487 C489 1.400 . S
C488 N486 1.263 . S
C488 N487 1.358 . S
C488 H494 0.930 . S
C489 N487 1.400 . S
C489 C490 1.351 . S
C489 H506 0.930 . S
C490 N486 1.389 . S
C490 C489 1.351 . S
C490 H495 0.907 1_554 S
O491 Cu485 1.974 . S
O491 C501 1.282 . S
C492 O493 1.261 . S
C492 O505 1.251 . S
O493 C492 1.261 . S
H494 C488 0.930 . S
H495 C490 0.907 1_556 S
N496 Cu485 1.985 1_556 S
N496 C498 1.335 . S
N496 C499 1.390 . S
N497 C498 1.345 . S
N497 C500 1.336 . S
C498 N496 1.335 . S
C498 N497 1.345 . S
C498 H503 0.930 . S
C499 N496 1.390 . S
C499 C500 1.346 . S
C499 H504 0.930 1_556 S
C500 N497 1.336 . S
C500 C499 1.346 . S
C500 H507 0.929 . S
C501 O491 1.282 . S
C501 O502 1.216 . S
O502 C501 1.216 . S
H503 C498 0.930 . S
H504 C499 0.930 1_554 S
O505 Cu485 1.959 1_556 S
O505 C492 1.251 . S
H506 C489 0.930 . S
H507 C500 0.929 . S
Cu508 N509 1.999 . S
Cu508 O514 1.974 . S
Cu508 N519 1.985 1_455 S
Cu508 O528 1.959 1_455 S
N509 Cu508 1.999 . S
N509 C511 1.263 . S
N509 C513 1.389 . S
N510 C511 1.358 . S
N510 C512 1.400 . S
C511 N509 1.263 . S
C511 N510 1.358 . S
C511 H517 0.930 . S
C512 N510 1.400 . S
C512 C513 1.351 . S
C512 H529 0.930 . S
C513 N509 1.389 . S
C513 C512 1.351 . S
C513 H518 0.930 . S
O514 Cu508 1.974 . S
O514 C524 1.282 . S
C515 O516 1.261 . S
C515 O528 1.251 . S
O516 C515 1.261 . S
H517 C511 0.930 . S
H518 C513 0.930 . S
N519 Cu508 1.985 1_655 S
N519 C521 1.335 . S
N519 C522 1.390 1_655 S
N520 C521 1.345 . S
N520 C523 1.336 . S
C521 N519 1.335 . S
C521 N520 1.345 . S
C521 H526 0.930 . S
C522 N519 1.390 1_455 S
C522 C523 1.346 1_455 S
C522 H527 0.930 . S
C523 N520 1.336 . S
C523 C522 1.346 1_655 S
C523 H530 0.929 . S
C524 O514 1.282 . S
C524 O525 1.216 . S
O525 C524 1.216 . S
H526 C521 0.930 . S
H527 C522 0.930 . S
O528 Cu508 1.959 1_655 S
O528 C515 1.251 . S
H529 C512 0.930 . S
H530 C523 0.929 . S
Cu531 N532 2.009 . S
Cu531 O537 1.985 . S
Cu531 N542 1.976 1_545 S
Cu531 O551 1.948 1_545 S
N532 Cu531 2.009 . S
N532 C534 1.263 . S
N532 C536 1.389 . S
N533 C534 1.358 . S
N533 C535 1.400 . S
C534 N532 1.263 . S
C534 N533 1.358 . S
C534 H540 0.930 . S
C535 N533 1.400 . S
C535 C536 1.351 . S
C535 H552 0.930 . S
C536 N532 1.389 . S
C536 C535 1.351 . S
C536 H541 0.930 . S
O537 Cu531 1.985 . S
O537 C547 1.282 . S
C538 O539 1.261 . S
C538 O551 1.251 . S
O539 C538 1.261 . S
H540 C534 0.930 . S
H541 C536 0.930 . S
N542 Cu531 1.976 1_565 S
N542 C544 1.335 . S
N542 C545 1.390 . S
N543 C544 1.345 . S
N543 C546 1.336 . S
C544 N542 1.335 . S
C544 N543 1.345 . S
C544 H549 0.930 . S
C545 N542 1.390 . S
C545 C546 1.346 . S
C545 H550 0.930 . S
C546 N543 1.336 . S
C546 C545 1.346 . S
C546 H553 0.929 . S
C547 O537 1.282 . S
C547 O548 1.216 . S
O548 C547 1.216 . S
H549 C544 0.930 . S
H550 C545 0.930 . S
O551 Cu531 1.948 1_565 S
O551 C538 1.251 . S
H552 C535 0.930 . S
H553 C546 0.929 . S
Cu554 N555 1.999 1_455 S
Cu554 O560 1.974 1_455 S
Cu554 N565 1.985 . S
Cu554 O574 1.959 . S
N555 Cu554 1.999 1_655 S
N555 C557 1.263 . S
N555 C559 1.389 . S
N556 C557 1.358 . S
N556 C558 1.400 . S
C557 N555 1.263 . S
C557 N556 1.358 . S
C557 H563 0.930 . S
C558 N556 1.400 . S
C558 C559 1.351 . S
C558 H575 0.930 . S
C559 N555 1.389 . S
C559 C558 1.351 . S
C559 H564 0.897 1_655 S
O560 Cu554 1.974 1_655 S
O560 C570 1.282 . S
C561 O562 1.261 . S
C561 O574 1.251 . S
O562 C561 1.261 . S
H563 C557 0.930 . S
H564 C559 0.897 1_455 S
N565 Cu554 1.985 . S
N565 C567 1.335 . S
N565 C568 1.390 . S
N566 C567 1.345 . S
N566 C569 1.336 . S
C567 N565 1.335 . S
C567 N566 1.345 . S
C567 H572 0.930 . S
C568 N565 1.390 . S
C568 C569 1.346 . S
C568 H573 0.930 . S
C569 N566 1.336 . S
C569 C568 1.346 . S
C569 H576 0.929 . S
C570 O560 1.282 . S
C570 O571 1.216 . S
O571 C570 1.216 . S
H572 C567 0.930 . S
H573 C568 0.930 . S
O574 Cu554 1.959 . S
O574 C561 1.251 . S
H575 C558 0.930 . S
H576 C569 0.929 . S
Cu577 N578 1.999 . S
Cu577 O583 1.974 . S
Cu577 N588 1.985 1_545 S
Cu577 O597 1.959 1_545 S
N578 Cu577 1.999 . S
N578 C580 1.263 . S
N578 C582 1.389 . S
N579 C580 1.358 . S
N579 C581 1.400 . S
C580 N578 1.263 . S
C580 N579 1.358 . S
C580 H586 0.930 . S
C581 N579 1.400 . S
C581 C582 1.351 . S
C581 H598 0.930 . S
C582 N578 1.389 . S
C582 C581 1.351 . S
C582 H587 0.930 . S
O583 Cu577 1.974 . S
O583 C593 1.282 . S
C584 O585 1.261 . S
C584 O597 1.251 . S
O585 C584 1.261 . S
H586 C580 0.930 . S
H587 C582 0.930 . S
N588 Cu577 1.985 1_565 S
N588 C590 1.335 . S
N588 C591 1.390 . S
N589 C590 1.345 . S
N589 C592 1.336 . S
C590 N588 1.335 . S
C590 N589 1.345 . S
C590 H595 0.930 . S
C591 N588 1.390 . S
C591 C592 1.346 . S
C591 H596 0.930 1_565 S
C592 N589 1.336 . S
C592 C591 1.346 . S
C592 H599 0.929 . S
C593 O583 1.282 . S
C593 O594 1.216 . S
O594 C593 1.216 . S
H595 C590 0.930 . S
H596 C591 0.930 1_545 S
O597 Cu577 1.959 1_565 S
O597 C584 1.251 . S
H598 C581 0.930 . S
H599 C592 0.929 . S
Cu600 N601 1.999 . S
Cu600 O606 1.974 . S
Cu600 N611 1.985 1_455 S
Cu600 O620 1.959 1_455 S
N601 Cu600 1.999 . S
N601 C603 1.263 . S
N601 C605 1.389 . S
N602 C603 1.358 . S
N602 C604 1.400 . S
C603 N601 1.263 . S
C603 N602 1.358 . S
C603 H609 0.930 . S
C604 N602 1.400 . S
C604 C605 1.351 . S
C604 H621 0.930 . S
C605 N601 1.389 . S
C605 C604 1.351 . S
C605 H610 0.930 . S
O606 Cu600 1.974 . S
O606 C616 1.282 . S
C607 O608 1.261 . S
C607 O620 1.251 . S
O608 C607 1.261 . S
H609 C603 0.930 . S
H610 C605 0.930 . S
N611 Cu600 1.985 1_655 S
N611 C613 1.335 . S
N611 C614 1.390 1_655 S
N612 C613 1.345 . S
N612 C615 1.336 . S
C613 N611 1.335 . S
C613 N612 1.345 . S
C613 H618 0.930 . S
C614 N611 1.390 1_455 S
C614 C615 1.346 1_455 S
C614 H619 0.930 . S
C615 N612 1.336 . S
C615 C614 1.346 1_655 S
C615 H622 0.929 . S
C616 O606 1.282 . S
C616 O617 1.216 . S
O617 C616 1.216 . S
H618 C613 0.930 . S
H619 C614 0.930 . S
O620 Cu600 1.959 1_655 S
O620 C607 1.251 . S
H621 C604 0.930 . S
H622 C615 0.929 . S
Cu623 N624 1.999 . S
Cu623 O629 1.974 . S
Cu623 N634 1.985 1_545 S
Cu623 O643 1.959 1_545 S
N624 Cu623 1.999 . S
N624 C626 1.263 . S
N624 C628 1.389 . S
N625 C626 1.358 . S
N625 C627 1.400 . S
C626 N624 1.263 . S
C626 N625 1.358 . S
C626 H632 0.930 . S
C627 N625 1.400 . S
C627 C628 1.351 . S
C627 H644 0.930 . S
C628 N624 1.389 . S
C628 C627 1.351 . S
C628 H633 0.930 . S
O629 Cu623 1.974 . S
O629 C639 1.282 . S
C630 O631 1.261 . S
C630 O643 1.251 . S
O631 C630 1.261 . S
H632 C626 0.930 . S
H633 C628 0.930 . S
N634 Cu623 1.985 1_565 S
N634 C636 1.335 . S
N634 C637 1.390 . S
N635 C636 1.345 . S
N635 C638 1.336 . S
C636 N634 1.335 . S
C636 N635 1.345 . S
C636 H641 0.930 . S
C637 N634 1.390 . S
C637 C638 1.346 . S
C637 H642 0.930 . S
C638 N635 1.336 . S
C638 C637 1.346 . S
C638 H645 0.929 . S
C639 O629 1.282 . S
C639 O640 1.216 . S
O640 C639 1.216 . S
H641 C636 0.930 . S
H642 C637 0.930 . S
O643 Cu623 1.959 1_565 S
O643 C630 1.251 . S
H644 C627 0.930 . S
H645 C638 0.929 . S
Cu646 N647 1.999 . S
Cu646 O652 1.974 . S
Cu646 N657 1.985 . S
Cu646 O666 1.959 . S
N647 Cu646 1.999 . S
N647 C649 1.263 . S
N647 C651 1.389 . S
N648 C649 1.358 1_655 S
N648 C650 1.400 1_655 S
C649 N647 1.263 . S
C649 N648 1.358 1_455 S
C649 H655 0.930 1_455 S
C650 N648 1.400 1_455 S
C650 C651 1.351 . S
C650 H667 0.930 1_455 S
C651 N647 1.389 . S
C651 C650 1.351 . S
C651 H656 0.930 . S
O652 Cu646 1.974 . S
O652 C662 1.282 . S
C653 O654 1.261 . S
C653 O666 1.251 . S
O654 C653 1.261 . S
H655 C649 0.930 1_655 S
H656 C651 0.930 . S
N657 Cu646 1.985 . S
N657 C659 1.335 . S
N657 C660 1.390 . S
N658 C659 1.345 . S
N658 C661 1.336 . S
C659 N657 1.335 . S
C659 N658 1.345 . S
C659 H664 0.930 . S
C660 N657 1.390 . S
C660 C661 1.346 . S
C660 H665 0.930 . S
C661 N658 1.336 . S
C661 C660 1.346 . S
C661 H668 0.929 . S
C662 O652 1.282 . S
C662 O663 1.216 . S
O663 C662 1.216 . S
H664 C659 0.930 . S
H665 C660 0.930 . S
O666 Cu646 1.959 . S
O666 C653 1.251 . S
H667 C650 0.930 1_655 S
H668 C661 0.929 . S
Cu669 N670 1.999 . S
Cu669 O675 1.974 . S
Cu669 N680 1.985 . S
Cu669 O689 1.959 . S
N670 Cu669 1.999 . S
N670 C672 1.263 . S
N670 C674 1.389 . S
N671 C672 1.358 . S
N671 C673 1.400 . S
C672 N670 1.263 . S
C672 N671 1.358 . S
C672 H678 0.930 . S
C673 N671 1.400 . S
C673 C674 1.351 . S
C673 H690 0.930 . S
C674 N670 1.389 . S
C674 C673 1.351 . S
C674 H679 0.930 . S
O675 Cu669 1.974 . S
O675 C685 1.282 . S
C676 O677 1.261 . S
C676 O689 1.251 . S
O677 C676 1.261 . S
H678 C672 0.930 . S
H679 C674 0.930 . S
N680 Cu669 1.985 . S
N680 C682 1.335 1_545 S
N680 C683 1.390 . S
N681 C682 1.345 . S
N681 C684 1.336 . S
C682 N680 1.335 1_565 S
C682 N681 1.345 . S
C682 H687 0.930 . S
C683 N680 1.390 . S
C683 C684 1.346 1_545 S
C683 H688 0.930 . S
C684 N681 1.336 . S
C684 C683 1.346 1_565 S
C684 H691 0.929 . S
C685 O675 1.282 . S
C685 O686 1.216 . S
O686 C685 1.216 . S
H687 C682 0.930 . S
H688 C683 0.930 . S
O689 Cu669 1.959 . S
O689 C676 1.251 . S
H690 C673 0.930 . S
H691 C684 0.929 . S
Cu692 N693 1.999 . S
Cu692 O698 1.974 . S
Cu692 N703 1.985 . S
Cu692 O712 1.959 . S
N693 Cu692 1.999 . S
N693 C695 1.263 . S
N693 C697 1.389 . S
N694 C695 1.358 . S
N694 C696 1.400 . S
C695 N693 1.263 . S
C695 N694 1.358 . S
C695 H701 0.930 . S
C696 N694 1.400 . S
C696 C697 1.351 . S
C696 H713 0.930 . S
C697 N693 1.389 . S
C697 C696 1.351 . S
C697 H702 0.930 . S
O698 Cu692 1.974 . S
O698 C708 1.282 . S
C699 O700 1.261 . S
C699 O712 1.251 . S
O700 C699 1.261 . S
H701 C695 0.930 . S
H702 C697 0.930 . S
N703 Cu692 1.985 . S
N703 C705 1.335 . S
N703 C706 1.390 . S
N704 C705 1.345 . S
N704 C707 1.336 . S
C705 N703 1.335 . S
C705 N704 1.345 . S
C705 H710 0.930 . S
C706 N703 1.390 . S
C706 C707 1.346 . S
C706 H711 0.930 . S
C707 N704 1.336 . S
C707 C706 1.346 . S
C707 H714 0.929 . S
C708 O698 1.282 . S
C708 O709 1.216 . S
O709 C708 1.216 . S
H710 C705 0.930 . S
H711 C706 0.930 . S
O712 Cu692 1.959 . S
O712 C699 1.251 . S
H713 C696 0.930 . S
H714 C707 0.929 . S
Cu715 N716 1.999 . S
Cu715 O721 1.974 . S
Cu715 N726 1.985 . S
Cu715 O735 1.959 . S
N716 Cu715 1.999 . S
N716 C718 1.263 . S
N716 C720 1.389 . S
N717 C718 1.358 . S
N717 C719 1.400 . S
C718 N716 1.263 . S
C718 N717 1.358 . S
C718 H724 0.930 . S
C719 N717 1.400 . S
C719 C720 1.351 . S
C719 H736 0.930 . S
C720 N716 1.389 . S
C720 C719 1.351 . S
C720 H725 0.930 . S
O721 Cu715 1.974 . S
O721 C731 1.282 . S
C722 O723 1.261 . S
C722 O735 1.251 . S
O723 C722 1.261 . S
H724 C718 0.930 . S
H725 C720 0.930 . S
N726 Cu715 1.985 . S
N726 C728 1.335 . S
N726 C729 1.390 . S
N727 C728 1.345 . S
N727 C730 1.336 . S
C728 N726 1.335 . S
C728 N727 1.345 . S
C728 H733 0.930 . S
C729 N726 1.390 . S
C729 C730 1.346 . S
C729 H734 0.930 . S
C730 N727 1.336 . S
C730 C729 1.346 . S
C730 H737 0.929 . S
C731 O721 1.282 . S
C731 O732 1.216 . S
O732 C731 1.216 . S
H733 C728 0.930 . S
H734 C729 0.930 . S
O735 Cu715 1.959 . S
O735 C722 1.251 . S
H736 C719 0.930 . S
H737 C730 0.929 . S
Cu738 N739 1.999 . S
Cu738 O744 1.974 . S
Cu738 N749 1.985 . S
Cu738 O758 1.959 . S
N739 Cu738 1.999 . S
N739 C741 1.263 . S
N739 C743 1.389 . S
N740 C741 1.358 . S
N740 C742 1.400 . S
C741 N739 1.263 . S
C741 N740 1.358 . S
C741 H747 0.930 . S
C742 N740 1.400 . S
C742 C743 1.351 . S
C742 H759 0.930 . S
C743 N739 1.389 . S
C743 C742 1.351 . S
C743 H748 0.930 . S
O744 Cu738 1.974 . S
O744 C754 1.282 . S
C745 O746 1.261 . S
C745 O758 1.251 . S
O746 C745 1.261 . S
H747 C741 0.930 . S
H748 C743 0.930 . S
N749 Cu738 1.985 . S
N749 C751 1.335 . S
N749 C752 1.390 . S
N750 C751 1.345 . S
N750 C753 1.336 . S
C751 N749 1.335 . S
C751 N750 1.345 . S
C751 H756 0.930 . S
C752 N749 1.390 . S
C752 C753 1.346 . S
C752 H757 0.930 . S
C753 N750 1.336 . S
C753 C752 1.346 . S
C753 H760 0.929 . S
C754 O744 1.282 . S
C754 O755 1.216 . S
O755 C754 1.216 . S
H756 C751 0.930 . S
H757 C752 0.930 . S
O758 Cu738 1.959 . S
O758 C745 1.251 . S
H759 C742 0.930 . S
H760 C753 0.929 . S
Cu761 N762 1.999 . S
Cu761 O767 1.974 . S
Cu761 N772 1.985 . S
Cu761 O781 1.959 . S
N762 Cu761 1.999 . S
N762 C764 1.263 . S
N762 C766 1.389 . S
N763 C764 1.358 . S
N763 C765 1.400 . S
C764 N762 1.263 . S
C764 N763 1.358 . S
C764 H770 0.930 . S
C765 N763 1.400 . S
C765 C766 1.351 . S
C765 H782 0.930 . S
C766 N762 1.389 . S
C766 C765 1.351 . S
C766 H771 0.930 . S
O767 Cu761 1.974 . S
O767 C777 1.282 . S
C768 O769 1.261 . S
C768 O781 1.251 . S
O769 C768 1.261 . S
H770 C764 0.930 . S
H771 C766 0.930 . S
N772 Cu761 1.985 . S
N772 C774 1.335 . S
N772 C775 1.390 . S
N773 C774 1.345 . S
N773 C776 1.336 . S
C774 N772 1.335 . S
C774 N773 1.345 . S
C774 H779 0.930 . S
C775 N772 1.390 . S
C775 C776 1.346 . S
C775 H780 0.930 . S
C776 N773 1.336 . S
C776 C775 1.346 . S
C776 H783 0.929 . S
C777 O767 1.282 . S
C777 O778 1.216 . S
O778 C777 1.216 . S
H779 C774 0.930 . S
H780 C775 0.930 . S
O781 Cu761 1.959 . S
O781 C768 1.251 . S
H782 C765 0.930 . S
H783 C776 0.929 . S
Cu784 N785 1.999 . S
Cu784 O790 1.974 . S
Cu784 N795 1.985 . S
Cu784 O804 1.959 . S
N785 Cu784 1.999 . S
N785 C787 1.263 . S
N785 C789 1.389 . S
N786 C787 1.358 . S
N786 C788 1.400 . S
C787 N785 1.263 . S
C787 N786 1.358 . S
C787 H793 0.930 . S
C788 N786 1.400 . S
C788 C789 1.351 . S
C788 H805 0.930 . S
C789 N785 1.389 . S
C789 C788 1.351 . S
C789 H794 0.930 . S
O790 Cu784 1.974 . S
O790 C800 1.282 . S
C791 O792 1.261 . S
C791 O804 1.251 . S
O792 C791 1.261 . S
H793 C787 0.930 . S
H794 C789 0.930 . S
N795 Cu784 1.985 . S
N795 C797 1.335 . S
N795 C798 1.390 . S
N796 C797 1.345 . S
N796 C799 1.336 . S
C797 N795 1.335 . S
C797 N796 1.345 . S
C797 H802 0.930 . S
C798 N795 1.390 . S
C798 C799 1.346 . S
C798 H803 0.930 . S
C799 N796 1.336 . S
C799 C798 1.346 . S
C799 H806 0.929 . S
C800 O790 1.282 . S
C800 O801 1.216 . S
O801 C800 1.216 . S
H802 C797 0.930 . S
H803 C798 0.930 . S
O804 Cu784 1.959 . S
O804 C791 1.251 . S
H805 C788 0.930 . S
H806 C799 0.929 . S
Cu807 N808 1.999 . S
Cu807 O813 1.974 . S
Cu807 N818 1.985 . S
Cu807 O827 1.959 . S
N808 Cu807 1.999 . S
N808 C810 1.263 . S
N808 C812 1.389 . S
N809 C810 1.358 . S
N809 C811 1.400 . S
C810 N808 1.263 . S
C810 N809 1.358 . S
C810 H816 0.930 . S
C811 N809 1.400 . S
C811 C812 1.351 . S
C811 H828 0.930 . S
C812 N808 1.389 . S
C812 C811 1.351 . S
C812 H817 0.930 . S
O813 Cu807 1.974 . S
O813 C823 1.282 . S
C814 O815 1.261 . S
C814 O827 1.251 . S
O815 C814 1.261 . S
H816 C810 0.930 . S
H817 C812 0.930 . S
N818 Cu807 1.985 . S
N818 C820 1.335 . S
N818 C821 1.390 . S
N819 C820 1.345 . S
N819 C822 1.336 . S
C820 N818 1.335 . S
C820 N819 1.345 . S
C820 H825 0.930 . S
C821 N818 1.390 . S
C821 C822 1.346 . S
C821 H826 0.930 . S
C822 N819 1.336 . S
C822 C821 1.346 . S
C822 H829 0.929 . S
C823 O813 1.282 . S
C823 O824 1.216 . S
O824 C823 1.216 . S
H825 C820 0.930 . S
H826 C821 0.930 . S
O827 Cu807 1.959 . S
O827 C814 1.251 . S
H828 C811 0.930 . S
H829 C822 0.929 . S
Cu830 N831 1.999 . S
Cu830 O836 1.974 . S
Cu830 N841 1.985 . S
Cu830 O850 1.959 . S
N831 Cu830 1.999 . S
N831 C833 1.263 . S
N831 C835 1.389 . S
N832 C833 1.358 . S
N832 C834 1.400 . S
C833 N831 1.263 . S
C833 N832 1.358 . S
C833 H839 0.930 . S
C834 N832 1.400 . S
C834 C835 1.351 . S
C834 H851 0.930 . S
C835 N831 1.389 . S
C835 C834 1.351 . S
C835 H840 0.930 . S
O836 Cu830 1.974 . S
O836 C846 1.282 . S
C837 O838 1.261 . S
C837 O850 1.251 . S
O838 C837 1.261 . S
H839 C833 0.930 . S
H840 C835 0.930 . S
N841 Cu830 1.985 . S
N841 C843 1.335 . S
N841 C844 1.390 . S
N842 C843 1.345 . S
N842 C845 1.336 . S
C843 N841 1.335 . S
C843 N842 1.345 . S
C843 H848 0.930 . S
C844 N841 1.390 . S
C844 C845 1.346 . S
C844 H849 0.930 . S
C845 N842 1.336 . S
C845 C844 1.346 . S
C845 H852 0.929 . S
C846 O836 1.282 . S
C846 O847 1.216 . S
O847 C846 1.216 . S
H848 C843 0.930 . S
H849 C844 0.930 . S
O850 Cu830 1.959 . S
O850 C837 1.251 . S
H851 C834 0.930 . S
H852 C845 0.929 . S
Cu853 N854 1.999 . S
Cu853 O859 1.974 . S
Cu853 N864 1.985 . S
Cu853 O873 1.959 . S
N854 Cu853 1.999 . S
N854 C856 1.263 . S
N854 C858 1.389 . S
N855 C856 1.358 . S
N855 C857 1.400 . S
C856 N854 1.263 . S
C856 N855 1.358 . S
C856 H862 0.930 . S
C857 N855 1.400 . S
C857 C858 1.351 . S
C857 H874 0.930 . S
C858 N854 1.389 . S
C858 C857 1.351 . S
C858 H863 0.930 . S
O859 Cu853 1.974 . S
O859 C869 1.282 . S
C860 O861 1.261 . S
C860 O873 1.251 . S
O861 C860 1.261 . S
H862 C856 0.930 . S
H863 C858 0.930 . S
N864 Cu853 1.985 . S
N864 C866 1.335 . S
N864 C867 1.390 . S
N865 C866 1.345 . S
N865 C868 1.336 . S
C866 N864 1.335 . S
C866 N865 1.345 . S
C866 H871 0.930 . S
C867 N864 1.390 . S
C867 C868 1.346 . S
C867 H872 0.930 . S
C868 N865 1.336 . S
C868 C867 1.346 . S
C868 H875 0.929 . S
C869 O859 1.282 . S
C869 O870 1.216 . S
O870 C869 1.216 . S
H871 C866 0.930 . S
H872 C867 0.930 . S
O873 Cu853 1.959 . S
O873 C860 1.251 . S
H874 C857 0.930 . S
H875 C868 0.929 . S
Cu876 N877 1.999 . S
Cu876 O882 1.974 . S
Cu876 N887 1.985 . S
Cu876 O896 1.959 . S
N877 Cu876 1.999 . S
N877 C879 1.263 . S
N877 C881 1.389 . S
N878 C879 1.358 . S
N878 C880 1.400 . S
C879 N877 1.263 . S
C879 N878 1.358 . S
C879 H885 0.930 . S
C880 N878 1.400 . S
C880 C881 1.351 . S
C880 H897 0.930 . S
C881 N877 1.389 . S
C881 C880 1.351 . S
C881 H886 0.930 . S
O882 Cu876 1.974 . S
O882 C892 1.282 . S
C883 O884 1.261 . S
C883 O896 1.251 . S
O884 C883 1.261 . S
H885 C879 0.930 . S
H886 C881 0.930 . S
N887 Cu876 1.985 . S
N887 C889 1.335 . S
N887 C890 1.390 . S
N888 C889 1.345 . S
N888 C891 1.336 . S
C889 N887 1.335 . S
C889 N888 1.345 . S
C889 H894 0.930 . S
C890 N887 1.390 . S
C890 C891 1.346 . S
C890 H895 0.930 . S
C891 N888 1.336 . S
C891 C890 1.346 . S
C891 H898 0.929 . S
C892 O882 1.282 . S
C892 O893 1.216 . S
O893 C892 1.216 . S
H894 C889 0.930 . S
H895 C890 0.930 . S
O896 Cu876 1.959 . S
O896 C883 1.251 . S
H897 C880 0.930 . S
H898 C891 0.929 . S
Cu899 N900 1.999 . S
Cu899 O905 1.974 . S
Cu899 N910 1.985 . S
Cu899 O919 1.959 . S
N900 Cu899 1.999 . S
N900 C902 1.263 . S
N900 C904 1.389 . S
N901 C902 1.358 . S
N901 C903 1.400 . S
C902 N900 1.263 . S
C902 N901 1.358 . S
C902 H908 0.930 . S
C903 N901 1.400 . S
C903 C904 1.351 . S
C903 H920 0.930 . S
C904 N900 1.389 . S
C904 C903 1.351 . S
C904 H909 0.930 . S
O905 Cu899 1.974 . S
O905 C915 1.282 . S
C906 O907 1.261 . S
C906 O919 1.251 . S
O907 C906 1.261 . S
H908 C902 0.930 . S
H909 C904 0.930 . S
N910 Cu899 1.985 . S
N910 C912 1.335 . S
N910 C913 1.390 . S
N911 C912 1.345 . S
N911 C914 1.336 . S
C912 N910 1.335 . S
C912 N911 1.345 . S
C912 H917 0.930 . S
C913 N910 1.390 . S
C913 C914 1.346 . S
C913 H918 0.930 . S
C914 N911 1.336 . S
C914 C913 1.346 . S
C914 H921 0.929 . S
C915 O905 1.282 . S
C915 O916 1.216 . S
O916 C915 1.216 . S
H917 C912 0.930 . S
H918 C913 0.930 . S
O919 Cu899 1.959 . S
O919 C906 1.251 . S
H920 C903 0.930 . S
H921 C914 0.929 . S
Cu922 N923 1.999 . S
Cu922 O928 1.974 . S
Cu922 N933 1.985 . S
Cu922 O942 1.959 . S
N923 Cu922 1.999 . S
N923 C925 1.263 . S
N923 C927 1.389 . S
N924 C925 1.358 . S
N924 C926 1.400 . S
C925 N923 1.263 . S
C925 N924 1.358 . S
C925 H931 0.930 . S
C926 N924 1.400 . S
C926 C927 1.351 . S
C926 H943 0.930 . S
C927 N923 1.389 . S
C927 C926 1.351 . S
C927 H932 0.930 . S
O928 Cu922 1.974 . S
O928 C938 1.282 . S
C929 O930 1.261 . S
C929 O942 1.251 . S
O930 C929 1.261 . S
H931 C925 0.930 . S
H932 C927 0.930 . S
N933 Cu922 1.985 . S
N933 C935 1.335 . S
N933 C936 1.390 . S
N934 C935 1.345 . S
N934 C937 1.336 . S
C935 N933 1.335 . S
C935 N934 1.345 . S
C935 H940 0.930 . S
C936 N933 1.390 . S
C936 C937 1.346 . S
C936 H941 0.930 . S
C937 N934 1.336 . S
C937 C936 1.346 . S
C937 H944 0.929 . S
C938 O928 1.282 . S
C938 O939 1.216 . S
O939 C938 1.216 . S
H940 C935 0.930 . S
H941 C936 0.930 . S
O942 Cu922 1.959 . S
O942 C929 1.251 . S
H943 C926 0.930 . S
H944 C937 0.929 . S
Cu945 N946 1.999 . S
Cu945 O951 1.974 . S
Cu945 N956 1.985 . S
Cu945 O965 1.959 . S
N946 Cu945 1.999 . S
N946 C948 1.263 . S
N946 C950 1.389 . S
N947 C948 1.358 . S
N947 C949 1.400 . S
C948 N946 1.263 . S
C948 N947 1.358 . S
C948 H954 0.930 . S
C949 N947 1.400 . S
C949 C950 1.351 . S
C949 H966 0.930 . S
C950 N946 1.389 . S
C950 C949 1.351 . S
C950 H955 0.930 . S
O951 Cu945 1.974 . S
O951 C961 1.282 . S
C952 O953 1.261 . S
C952 O965 1.251 . S
O953 C952 1.261 . S
H954 C948 0.930 . S
H955 C950 0.930 . S
N956 Cu945 1.985 . S
N956 C958 1.335 . S
N956 C959 1.390 . S
N957 C958 1.345 . S
N957 C960 1.336 . S
C958 N956 1.335 . S
C958 N957 1.345 . S
C958 H963 0.930 . S
C959 N956 1.390 . S
C959 C960 1.346 . S
C959 H964 0.930 . S
C960 N957 1.336 . S
C960 C959 1.346 . S
C960 H967 0.929 . S
C961 O951 1.282 . S
C961 O962 1.216 . S
O962 C961 1.216 . S
H963 C958 0.930 . S
H964 C959 0.930 . S
O965 Cu945 1.959 . S
O965 C952 1.251 . S
H966 C949 0.930 . S
H967 C960 0.929 . S
C968 C969 1.369 . S
C968 C970 1.419 . S
C968 H972 0.930 . S
C969 C968 1.369 . S
C969 C978 1.429 . S
C970 C968 1.419 . S
C970 C971 1.363 . S
C970 H973 0.929 . S
C971 C970 1.363 . S
C971 C977 1.428 . S
H972 C968 0.930 . S
H973 C970 0.929 . S
S974 N975 1.613 . S
S974 N976 1.610 . S
N975 S974 1.613 . S
N975 C978 1.350 . S
N976 S974 1.610 . S
N976 C977 1.351 . S
C977 C971 1.428 . S
C977 N976 1.351 . S
C977 C978 1.434 . S
C978 C969 1.429 . S
C978 N975 1.350 . S
C978 C977 1.434 . S
C979 C980 1.369 . S
C979 C981 1.419 . S
C979 H983 0.930 . S
C980 C979 1.369 . S
C980 C989 1.429 . S
C981 C979 1.419 . S
C981 C982 1.363 . S
C981 H984 0.929 . S
C982 C981 1.363 . S
C982 C988 1.428 . S
H983 C979 0.930 . S
H984 C981 0.929 . S
S985 N986 1.613 . S
S985 N987 1.610 . S
N986 S985 1.613 . S
N986 C989 1.350 . S
N987 S985 1.610 . S
N987 C988 1.351 . S
C988 C982 1.428 . S
C988 N987 1.351 . S
C988 C989 1.434 . S
C989 C980 1.429 . S
C989 N986 1.350 . S
C989 C988 1.434 . S
C990 C991 1.369 . S
C990 C992 1.419 . S
C990 H994 0.930 . S
C991 C990 1.369 . S
C991 C1000 1.429 . S
C992 C990 1.419 . S
C992 C993 1.363 . S
C992 H995 0.929 . S
C993 C992 1.363 . S
C993 C999 1.428 . S
H994 C990 0.930 . S
H995 C992 0.929 . S
S996 N997 1.613 . S
S996 N998 1.610 . S
N997 S996 1.613 . S
N997 C1000 1.350 . S
N998 S996 1.610 . S
N998 C999 1.351 . S
C999 C993 1.428 . S
C999 N998 1.351 . S
C999 C1000 1.434 . S
C1000 C991 1.429 . S
C1000 N997 1.350 . S
C1000 C999 1.434 . S
C1001 C1002 1.369 . S
C1001 C1003 1.419 . S
C1001 H1005 0.930 . S
C1002 C1001 1.369 . S
C1002 C1011 1.429 . S
C1003 C1001 1.419 . S
C1003 C1004 1.363 . S
C1003 H1006 0.929 . S
C1004 C1003 1.363 . S
C1004 C1010 1.428 . S
H1005 C1001 0.930 . S
H1006 C1003 0.929 . S
S1007 N1008 1.613 . S
S1007 N1009 1.610 . S
N1008 S1007 1.613 . S
N1008 C1011 1.350 . S
N1009 S1007 1.610 . S
N1009 C1010 1.351 . S
C1010 C1004 1.428 . S
C1010 N1009 1.351 . S
C1010 C1011 1.434 . S
C1011 C1002 1.429 . S
C1011 N1008 1.350 . S
C1011 C1010 1.434 . S
C1012 C1013 1.369 . S
C1012 C1014 1.419 . S
C1012 H1016 0.930 . S
C1013 C1012 1.369 . S
C1013 C1022 1.429 . S
C1014 C1012 1.419 . S
C1014 C1015 1.363 . S
C1014 H1017 0.929 . S
C1015 C1014 1.363 . S
C1015 C1021 1.428 . S
H1016 C1012 0.930 . S
H1017 C1014 0.929 . S
S1018 N1019 1.613 . S
S1018 N1020 1.610 . S
N1019 S1018 1.613 . S
N1019 C1022 1.350 . S
N1020 S1018 1.610 . S
N1020 C1021 1.351 . S
C1021 C1015 1.428 . S
C1021 N1020 1.351 . S
C1021 C1022 1.434 . S
C1022 C1013 1.429 . S
C1022 N1019 1.350 . S
C1022 C1021 1.434 . S
C1023 C1024 1.369 . S
C1023 C1025 1.419 . S
C1023 H1027 0.930 . S
C1024 C1023 1.369 . S
C1024 C1033 1.429 . S
C1025 C1023 1.419 . S
C1025 C1026 1.363 . S
C1025 H1028 0.929 . S
C1026 C1025 1.363 . S
C1026 C1032 1.428 . S
H1027 C1023 0.930 . S
H1028 C1025 0.929 . S
S1029 N1030 1.613 . S
S1029 N1031 1.610 . S
N1030 S1029 1.613 . S
N1030 C1033 1.350 . S
N1031 S1029 1.610 . S
N1031 C1032 1.351 . S
C1032 C1026 1.428 . S
C1032 N1031 1.351 . S
C1032 C1033 1.434 . S
C1033 C1024 1.429 . S
C1033 N1030 1.350 . S
C1033 C1032 1.434 . S
C1034 C1035 1.369 . S
C1034 C1036 1.419 . S
C1034 H1038 0.930 . S
C1035 C1034 1.369 . S
C1035 C1044 1.429 . S
C1036 C1034 1.419 . S
C1036 C1037 1.363 . S
C1036 H1039 0.929 . S
C1037 C1036 1.363 . S
C1037 C1043 1.428 . S
H1038 C1034 0.930 . S
H1039 C1036 0.929 . S
S1040 N1041 1.613 . S
S1040 N1042 1.610 . S
N1041 S1040 1.613 . S
N1041 C1044 1.350 . S
N1042 S1040 1.610 . S
N1042 C1043 1.351 . S
C1043 C1037 1.428 . S
C1043 N1042 1.351 . S
C1043 C1044 1.434 . S
C1044 C1035 1.429 . S
C1044 N1041 1.350 . S
C1044 C1043 1.434 . S
C1045 C1046 1.369 . S
C1045 C1047 1.419 . S
C1045 H1049 0.930 . S
C1046 C1045 1.369 . S
C1046 C1055 1.429 . S
C1047 C1045 1.419 . S
C1047 C1048 1.363 . S
C1047 H1050 0.929 . S
C1048 C1047 1.363 . S
C1048 C1054 1.428 . S
H1049 C1045 0.930 . S
H1050 C1047 0.929 . S
S1051 N1052 1.613 . S
S1051 N1053 1.610 . S
N1052 S1051 1.613 . S
N1052 C1055 1.350 . S
N1053 S1051 1.610 . S
N1053 C1054 1.351 . S
C1054 C1048 1.428 . S
C1054 N1053 1.351 . S
C1054 C1055 1.434 . S
C1055 C1046 1.429 . S
C1055 N1052 1.350 . S
C1055 C1054 1.434 . S
C1056 C1057 1.369 . S
C1056 C1058 1.419 . S
C1056 H1060 0.930 . S
C1057 C1056 1.369 . S
C1057 C1066 1.429 . S
C1058 C1056 1.419 . S
C1058 C1059 1.363 . S
C1058 H1061 0.929 . S
C1059 C1058 1.363 . S
C1059 C1065 1.428 . S
H1060 C1056 0.930 . S
H1061 C1058 0.929 . S
S1062 N1063 1.613 . S
S1062 N1064 1.610 . S
N1063 S1062 1.613 . S
N1063 C1066 1.350 . S
N1064 S1062 1.610 . S
N1064 C1065 1.351 . S
C1065 C1059 1.428 . S
C1065 N1064 1.351 . S
C1065 C1066 1.434 . S
C1066 C1057 1.429 . S
C1066 N1063 1.350 . S
C1066 C1065 1.434 . S
C1067 C1068 1.369 . S
C1067 C1069 1.419 . S
C1067 H1071 0.930 . S
C1068 C1067 1.369 . S
C1068 C1077 1.429 . S
C1069 C1067 1.419 . S
C1069 C1070 1.363 . S
C1069 H1072 0.929 . S
C1070 C1069 1.363 . S
C1070 C1076 1.428 . S
H1071 C1067 0.930 . S
H1072 C1069 0.929 . S
S1073 N1074 1.613 . S
S1073 N1075 1.610 . S
N1074 S1073 1.613 . S
N1074 C1077 1.350 . S
N1075 S1073 1.610 . S
N1075 C1076 1.351 . S
C1076 C1070 1.428 . S
C1076 N1075 1.351 . S
C1076 C1077 1.434 . S
C1077 C1068 1.429 . S
C1077 N1074 1.350 . S
C1077 C1076 1.434 . S
C1078 C1079 1.369 . S
C1078 C1080 1.419 . S
C1078 H1082 0.930 . S
C1079 C1078 1.369 . S
C1079 C1088 1.429 . S
C1080 C1078 1.419 . S
C1080 C1081 1.363 . S
C1080 H1083 0.929 . S
C1081 C1080 1.363 . S
C1081 C1087 1.428 . S
H1082 C1078 0.930 . S
H1083 C1080 0.929 . S
S1084 N1085 1.613 . S
S1084 N1086 1.610 . S
N1085 S1084 1.613 . S
N1085 C1088 1.350 . S
N1086 S1084 1.610 . S
N1086 C1087 1.351 . S
C1087 C1081 1.428 . S
C1087 N1086 1.351 . S
C1087 C1088 1.434 . S
C1088 C1079 1.429 . S
C1088 N1085 1.350 . S
C1088 C1087 1.434 . S
C1089 C1090 1.369 . S
C1089 C1091 1.419 . S
C1089 H1093 0.930 . S
C1090 C1089 1.369 . S
C1090 C1099 1.429 . S
C1091 C1089 1.419 . S
C1091 C1092 1.363 . S
C1091 H1094 0.929 . S
C1092 C1091 1.363 . S
C1092 C1098 1.428 . S
H1093 C1089 0.930 . S
H1094 C1091 0.929 . S
S1095 N1096 1.613 . S
S1095 N1097 1.610 . S
N1096 S1095 1.613 . S
N1096 C1099 1.350 . S
N1097 S1095 1.610 . S
N1097 C1098 1.351 . S
C1098 C1092 1.428 . S
C1098 N1097 1.351 . S
C1098 C1099 1.434 . S
C1099 C1090 1.429 . S
C1099 N1096 1.350 . S
C1099 C1098 1.434 . S
C1100 C1101 1.369 . S
C1100 C1102 1.419 . S
C1100 H1104 0.930 . S
C1101 C1100 1.369 . S
C1101 C1110 1.429 . S
C1102 C1100 1.419 . S
C1102 C1103 1.363 . S
C1102 H1105 0.929 . S
C1103 C1102 1.363 . S
C1103 C1109 1.428 . S
H1104 C1100 0.930 . S
H1105 C1102 0.929 . S
S1106 N1107 1.613 . S
S1106 N1108 1.610 . S
N1107 S1106 1.613 . S
N1107 C1110 1.350 . S
N1108 S1106 1.610 . S
N1108 C1109 1.351 . S
C1109 C1103 1.428 . S
C1109 N1108 1.351 . S
C1109 C1110 1.434 . S
C1110 C1101 1.429 . S
C1110 N1107 1.350 . S
C1110 C1109 1.434 . S
C1111 C1112 1.369 . S
C1111 C1113 1.419 . S
C1111 H1115 0.930 . S
C1112 C1111 1.369 . S
C1112 C1121 1.429 . S
C1113 C1111 1.419 . S
C1113 C1114 1.363 . S
C1113 H1116 0.929 . S
C1114 C1113 1.363 . S
C1114 C1120 1.428 . S
H1115 C1111 0.930 . S
H1116 C1113 0.929 . S
S1117 N1118 1.613 . S
S1117 N1119 1.610 . S
N1118 S1117 1.613 . S
N1118 C1121 1.350 . S
N1119 S1117 1.610 . S
N1119 C1120 1.351 . S
C1120 C1114 1.428 . S
C1120 N1119 1.351 . S
C1120 C1121 1.434 . S
C1121 C1112 1.429 . S
C1121 N1118 1.350 . S
C1121 C1120 1.434 . S
C1122 C1123 1.369 . S
C1122 C1124 1.419 . S
C1122 H1126 0.930 . S
C1123 C1122 1.369 . S
C1123 C1132 1.429 . S
C1124 C1122 1.419 . S
C1124 C1125 1.363 . S
C1124 H1127 0.929 . S
C1125 C1124 1.363 . S
C1125 C1131 1.428 . S
H1126 C1122 0.930 . S
H1127 C1124 0.929 . S
S1128 N1129 1.613 . S
S1128 N1130 1.625 . S
N1129 S1128 1.613 . S
N1129 C1132 1.350 . S
N1130 S1128 1.625 . S
N1130 C1131 1.363 . S
C1131 C1125 1.428 . S
C1131 N1130 1.363 . S
C1131 C1132 1.434 . S
C1132 C1123 1.429 . S
C1132 N1129 1.350 . S
C1132 C1131 1.434 . S
C1133 C1134 1.369 . S
C1133 C1135 1.419 . S
C1133 H1137 0.930 . S
C1134 C1133 1.369 . S
C1134 C1143 1.429 . S
C1135 C1133 1.419 . S
C1135 C1136 1.363 . S
C1135 H1138 0.929 . S
C1136 C1135 1.363 . S
C1136 C1142 1.428 . S
H1137 C1133 0.930 . S
H1138 C1135 0.929 . S
S1139 N1140 1.613 . S
S1139 N1141 1.610 . S
N1140 S1139 1.613 . S
N1140 C1143 1.350 . S
N1141 S1139 1.610 . S
N1141 C1142 1.351 . S
C1142 C1136 1.428 . S
C1142 N1141 1.351 . S
C1142 C1143 1.434 . S
C1143 C1134 1.429 . S
C1143 N1140 1.350 . S
C1143 C1142 1.434 . S
C1144 C1145 1.369 . S
C1144 C1146 1.419 . S
C1144 H1148 0.930 . S
C1145 C1144 1.369 . S
C1145 C1154 1.429 . S
C1146 C1144 1.419 . S
C1146 C1147 1.363 . S
C1146 H1149 0.929 . S
C1147 C1146 1.363 . S
C1147 C1153 1.428 . S
H1148 C1144 0.930 . S
H1149 C1146 0.929 . S
S1150 N1151 1.613 . S
S1150 N1152 1.610 . S
N1151 S1150 1.613 . S
N1151 C1154 1.350 . S
N1152 S1150 1.610 . S
N1152 C1153 1.351 . S
C1153 C1147 1.428 . S
C1153 N1152 1.351 . S
C1153 C1154 1.434 . S
C1154 C1145 1.429 . S
C1154 N1151 1.350 . S
C1154 C1153 1.434 . S
C1155 C1156 1.369 . S
C1155 C1157 1.419 . S
C1155 H1159 0.930 . S
C1156 C1155 1.369 . S
C1156 C1165 1.429 . S
C1157 C1155 1.419 . S
C1157 C1158 1.363 . S
C1157 H1160 0.929 . S
C1158 C1157 1.363 . S
C1158 C1164 1.428 . S
H1159 C1155 0.930 . S
H1160 C1157 0.929 . S
S1161 N1162 1.613 . S
S1161 N1163 1.610 . S
N1162 S1161 1.613 . S
N1162 C1165 1.350 . S
N1163 S1161 1.610 . S
N1163 C1164 1.351 . S
C1164 C1158 1.428 . S
C1164 N1163 1.351 . S
C1164 C1165 1.434 . S
C1165 C1156 1.429 . S
C1165 N1162 1.350 . S
C1165 C1164 1.434 . S
C1166 C1167 1.369 . S
C1166 C1168 1.419 . S
C1166 H1170 0.930 . S
C1167 C1166 1.369 . S
C1167 C1176 1.429 . S
C1168 C1166 1.419 . S
C1168 C1169 1.363 . S
C1168 H1171 0.929 . S
C1169 C1168 1.363 . S
C1169 C1175 1.428 . S
H1170 C1166 0.930 . S
H1171 C1168 0.929 . S
S1172 N1173 1.613 . S
S1172 N1174 1.610 . S
N1173 S1172 1.613 . S
N1173 C1176 1.350 . S
N1174 S1172 1.610 . S
N1174 C1175 1.351 . S
C1175 C1169 1.428 . S
C1175 N1174 1.351 . S
C1175 C1176 1.434 . S
C1176 C1167 1.429 . S
C1176 N1173 1.350 . S
C1176 C1175 1.434 . S
C1177 C1178 1.369 . S
C1177 C1179 1.419 . S
C1177 H1181 0.930 . S
C1178 C1177 1.369 . S
C1178 C1187 1.429 . S
C1179 C1177 1.419 . S
C1179 C1180 1.363 . S
C1179 H1182 0.929 . S
C1180 C1179 1.363 . S
C1180 C1186 1.428 . S
H1181 C1177 0.930 . S
H1182 C1179 0.929 . S
S1183 N1184 1.613 . S
S1183 N1185 1.610 . S
N1184 S1183 1.613 . S
N1184 C1187 1.350 . S
N1185 S1183 1.610 . S
N1185 C1186 1.351 . S
C1186 C1180 1.428 . S
C1186 N1185 1.351 . S
C1186 C1187 1.434 . S
C1187 C1178 1.429 . S
C1187 N1184 1.350 . S
C1187 C1186 1.434 . S
C1188 C1189 1.369 . S
C1188 C1190 1.419 . S
C1188 H1192 0.930 . S
C1189 C1188 1.369 . S
C1189 C1198 1.429 . S
C1190 C1188 1.419 . S
C1190 C1191 1.363 . S
C1190 H1193 0.929 . S
C1191 C1190 1.363 . S
C1191 C1197 1.428 . S
H1192 C1188 0.930 . S
H1193 C1190 0.929 . S
S1194 N1195 1.613 . S
S1194 N1196 1.610 . S
N1195 S1194 1.613 . S
N1195 C1198 1.350 . S
N1196 S1194 1.610 . S
N1196 C1197 1.351 . S
C1197 C1191 1.428 . S
C1197 N1196 1.351 . S
C1197 C1198 1.434 . S
C1198 C1189 1.429 . S
C1198 N1195 1.350 . S
C1198 C1197 1.434 . S
C1199 C1200 1.369 . S
C1199 C1201 1.419 . S
C1199 H1203 0.930 . S
C1200 C1199 1.369 . S
C1200 C1209 1.429 . S
C1201 C1199 1.419 . S
C1201 C1202 1.363 . S
C1201 H1204 0.929 . S
C1202 C1201 1.363 . S
C1202 C1208 1.428 . S
H1203 C1199 0.930 . S
H1204 C1201 0.929 . S
S1205 N1206 1.613 . S
S1205 N1207 1.610 . S
N1206 S1205 1.613 . S
N1206 C1209 1.350 . S
N1207 S1205 1.610 . S
N1207 C1208 1.351 . S
C1208 C1202 1.428 . S
C1208 N1207 1.351 . S
C1208 C1209 1.434 . S
C1209 C1200 1.429 . S
C1209 N1206 1.350 . S
C1209 C1208 1.434 . S
C1210 C1211 1.369 . S
C1210 C1212 1.419 . S
C1210 H1214 0.930 . S
C1211 C1210 1.369 . S
C1211 C1220 1.429 . S
C1212 C1210 1.419 . S
C1212 C1213 1.363 . S
C1212 H1215 0.929 . S
C1213 C1212 1.363 . S
C1213 C1219 1.428 . S
H1214 C1210 0.930 . S
H1215 C1212 0.929 . S
S1216 N1217 1.613 . S
S1216 N1218 1.610 . S
N1217 S1216 1.613 . S
N1217 C1220 1.350 . S
N1218 S1216 1.610 . S
N1218 C1219 1.351 . S
C1219 C1213 1.428 . S
C1219 N1218 1.351 . S
C1219 C1220 1.434 . S
C1220 C1211 1.429 . S
C1220 N1217 1.350 . S
C1220 C1219 1.434 . S
C1221 C1222 1.369 . S
C1221 C1223 1.419 . S
C1221 H1225 0.930 . S
C1222 C1221 1.369 . S
C1222 C1231 1.429 . S
C1223 C1221 1.419 . S
C1223 C1224 1.363 . S
C1223 H1226 0.929 . S
C1224 C1223 1.363 . S
C1224 C1230 1.428 . S
H1225 C1221 0.930 . S
H1226 C1223 0.929 . S
S1227 N1228 1.613 . S
S1227 N1229 1.610 . S
N1228 S1227 1.613 . S
N1228 C1231 1.350 . S
N1229 S1227 1.610 . S
N1229 C1230 1.351 . S
C1230 C1224 1.428 . S
C1230 N1229 1.351 . S
C1230 C1231 1.434 . S
C1231 C1222 1.429 . S
C1231 N1228 1.350 . S
C1231 C1230 1.434 . S
C1232 C1233 1.369 . S
C1232 C1234 1.419 . S
C1232 H1236 0.930 . S
C1233 C1232 1.369 . S
C1233 C1242 1.429 . S
C1234 C1232 1.419 . S
C1234 C1235 1.363 . S
C1234 H1237 0.929 . S
C1235 C1234 1.363 . S
C1235 C1241 1.428 . S
H1236 C1232 0.930 . S
H1237 C1234 0.929 . S
S1238 N1239 1.613 . S
S1238 N1240 1.610 . S
N1239 S1238 1.613 . S
N1239 C1242 1.350 . S
N1240 S1238 1.610 . S
N1240 C1241 1.351 . S
C1241 C1235 1.428 . S
C1241 N1240 1.351 . S
C1241 C1242 1.434 . S
C1242 C1233 1.429 . S
C1242 N1239 1.350 . S
C1242 C1241 1.434 . S
C1243 C1244 1.369 . S
C1243 C1245 1.419 . S
C1243 H1247 0.930 . S
C1244 C1243 1.369 . S
C1244 C1253 1.429 . S
C1245 C1243 1.419 . S
C1245 C1246 1.363 . S
C1245 H1248 0.929 . S
C1246 C1245 1.363 . S
C1246 C1252 1.428 . S
H1247 C1243 0.930 . S
H1248 C1245 0.929 . S
S1249 N1250 1.613 . S
S1249 N1251 1.610 . S
N1250 S1249 1.613 . S
N1250 C1253 1.350 . S
N1251 S1249 1.610 . S
N1251 C1252 1.351 . S
C1252 C1246 1.428 . S
C1252 N1251 1.351 . S
C1252 C1253 1.434 . S
C1253 C1244 1.429 . S
C1253 N1250 1.350 . S
C1253 C1252 1.434 . S
C1254 C1255 1.369 . S
C1254 C1256 1.419 . S
C1254 H1258 0.930 . S
C1255 C1254 1.369 . S
C1255 C1264 1.429 . S
C1256 C1254 1.419 . S
C1256 C1257 1.363 . S
C1256 H1259 0.929 . S
C1257 C1256 1.363 . S
C1257 C1263 1.428 . S
H1258 C1254 0.930 . S
H1259 C1256 0.929 . S
S1260 N1261 1.613 . S
S1260 N1262 1.610 . S
N1261 S1260 1.613 . S
N1261 C1264 1.350 . S
N1262 S1260 1.610 . S
N1262 C1263 1.351 . S
C1263 C1257 1.428 . S
C1263 N1262 1.351 . S
C1263 C1264 1.434 . S
C1264 C1255 1.429 . S
C1264 N1261 1.350 . S
C1264 C1263 1.434 . S
C1265 C1266 1.369 . S
C1265 C1267 1.419 . S
C1265 H1269 0.930 . S
C1266 C1265 1.369 . S
C1266 C1275 1.429 . S
C1267 C1265 1.419 . S
C1267 C1268 1.363 . S
C1267 H1270 0.929 . S
C1268 C1267 1.363 . S
C1268 C1274 1.428 . S
H1269 C1265 0.930 . S
H1270 C1267 0.929 . S
S1271 N1272 1.613 . S
S1271 N1273 1.610 . S
N1272 S1271 1.613 . S
N1272 C1275 1.350 . S
N1273 S1271 1.610 . S
N1273 C1274 1.351 . S
C1274 C1268 1.428 . S
C1274 N1273 1.351 . S
C1274 C1275 1.434 . S
C1275 C1266 1.429 . S
C1275 N1272 1.350 . S
C1275 C1274 1.434 . S
C1276 C1277 1.369 . S
C1276 C1278 1.419 . S
C1276 H1280 0.930 . S
C1277 C1276 1.369 . S
C1277 C1286 1.429 . S
C1278 C1276 1.419 . S
C1278 C1279 1.363 . S
C1278 H1281 0.929 . S
C1279 C1278 1.363 . S
C1279 C1285 1.428 . S
H1280 C1276 0.930 . S
H1281 C1278 0.929 . S
S1282 N1283 1.613 . S
S1282 N1284 1.610 . S
N1283 S1282 1.613 . S
N1283 C1286 1.350 . S
N1284 S1282 1.610 . S
N1284 C1285 1.351 . S
C1285 C1279 1.428 . S
C1285 N1284 1.351 . S
C1285 C1286 1.434 . S
C1286 C1277 1.429 . S
C1286 N1283 1.350 . S
C1286 C1285 1.434 . S
C1287 C1288 1.369 . S
C1287 C1289 1.419 . S
C1287 H1291 0.930 . S
C1288 C1287 1.369 . S
C1288 C1297 1.429 . S
C1289 C1287 1.419 . S
C1289 C1290 1.363 . S
C1289 H1292 0.929 . S
C1290 C1289 1.363 . S
C1290 C1296 1.428 . S
H1291 C1287 0.930 . S
H1292 C1289 0.929 . S
S1293 N1294 1.613 . S
S1293 N1295 1.610 . S
N1294 S1293 1.613 . S
N1294 C1297 1.350 . S
N1295 S1293 1.610 . S
N1295 C1296 1.351 . S
C1296 C1290 1.428 . S
C1296 N1295 1.351 . S
C1296 C1297 1.434 . S
C1297 C1288 1.429 . S
C1297 N1294 1.350 . S
C1297 C1296 1.434 . S
C1298 C1299 1.369 . S
C1298 C1300 1.419 . S
C1298 H1302 0.930 . S
C1299 C1298 1.369 . S
C1299 C1308 1.429 . S
C1300 C1298 1.419 . S
C1300 C1301 1.363 . S
C1300 H1303 0.929 . S
C1301 C1300 1.363 . S
C1301 C1307 1.428 . S
H1302 C1298 0.930 . S
H1303 C1300 0.929 . S
S1304 N1305 1.613 . S
S1304 N1306 1.610 . S
N1305 S1304 1.613 . S
N1305 C1308 1.350 . S
N1306 S1304 1.610 . S
N1306 C1307 1.351 . S
C1307 C1301 1.428 . S
C1307 N1306 1.351 . S
C1307 C1308 1.434 . S
C1308 C1299 1.429 . S
C1308 N1305 1.350 . S
C1308 C1307 1.434 . S
C1309 C1310 1.369 . S
C1309 C1311 1.419 . S
C1309 H1313 0.930 . S
C1310 C1309 1.369 . S
C1310 C1319 1.429 . S
C1311 C1309 1.419 . S
C1311 C1312 1.363 . S
C1311 H1314 0.929 . S
C1312 C1311 1.363 . S
C1312 C1318 1.428 . S
H1313 C1309 0.930 . S
H1314 C1311 0.929 . S
S1315 N1316 1.613 . S
S1315 N1317 1.610 . S
N1316 S1315 1.613 . S
N1316 C1319 1.350 . S
N1317 S1315 1.610 . S
N1317 C1318 1.351 . S
C1318 C1312 1.428 . S
C1318 N1317 1.351 . S
C1318 C1319 1.434 . S
C1319 C1310 1.429 . S
C1319 N1316 1.350 . S
C1319 C1318 1.434 . S
C1320 C1321 1.369 . S
C1320 C1322 1.419 . S
C1320 H1324 0.930 . S
C1321 C1320 1.369 . S
C1321 C1330 1.429 . S
C1322 C1320 1.419 . S
C1322 C1323 1.363 . S
C1322 H1325 0.929 . S
C1323 C1322 1.363 . S
C1323 C1329 1.428 . S
H1324 C1320 0.930 . S
H1325 C1322 0.929 . S
S1326 N1327 1.613 . S
S1326 N1328 1.610 . S
N1327 S1326 1.613 . S
N1327 C1330 1.350 . S
N1328 S1326 1.610 . S
N1328 C1329 1.351 . S
C1329 C1323 1.428 . S
C1329 N1328 1.351 . S
C1329 C1330 1.434 . S
C1330 C1321 1.429 . S
C1330 N1327 1.350 . S
C1330 C1329 1.434 . S
C1331 C1332 1.369 . S
C1331 C1333 1.419 . S
C1331 H1335 0.930 . S
C1332 C1331 1.369 . S
C1332 C1341 1.429 . S
C1333 C1331 1.419 . S
C1333 C1334 1.363 . S
C1333 H1336 0.929 . S
C1334 C1333 1.363 . S
C1334 C1340 1.428 . S
H1335 C1331 0.930 . S
H1336 C1333 0.929 . S
S1337 N1338 1.613 . S
S1337 N1339 1.610 . S
N1338 S1337 1.613 . S
N1338 C1341 1.350 . S
N1339 S1337 1.610 . S
N1339 C1340 1.351 . S
C1340 C1334 1.428 . S
C1340 N1339 1.351 . S
C1340 C1341 1.434 . S
C1341 C1332 1.429 . S
C1341 N1338 1.350 . S
C1341 C1340 1.434 . S
C1342 C1343 1.369 . S
C1342 C1344 1.419 . S
C1342 H1346 0.930 . S
C1343 C1342 1.369 . S
C1343 C1352 1.429 . S
C1344 C1342 1.419 . S
C1344 C1345 1.363 . S
C1344 H1347 0.929 . S
C1345 C1344 1.363 . S
C1345 C1351 1.428 . S
H1346 C1342 0.930 . S
H1347 C1344 0.929 . S
S1348 N1349 1.613 . S
S1348 N1350 1.610 . S
N1349 S1348 1.613 . S
N1349 C1352 1.350 . S
N1350 S1348 1.610 . S
N1350 C1351 1.351 . S
C1351 C1345 1.428 . S
C1351 N1350 1.351 . S
C1351 C1352 1.434 . S
C1352 C1343 1.429 . S
C1352 N1349 1.350 . S
C1352 C1351 1.434 . S
C1353 C1354 1.369 . S
C1353 C1355 1.419 . S
C1353 H1357 0.930 . S
C1354 C1353 1.369 . S
C1354 C1363 1.429 . S
C1355 C1353 1.419 . S
C1355 C1356 1.363 . S
C1355 H1358 0.929 . S
C1356 C1355 1.363 . S
C1356 C1362 1.428 . S
H1357 C1353 0.930 . S
H1358 C1355 0.929 . S
S1359 N1360 1.613 . S
S1359 N1361 1.610 . S
N1360 S1359 1.613 . S
N1360 C1363 1.350 . S
N1361 S1359 1.610 . S
N1361 C1362 1.351 . S
C1362 C1356 1.428 . S
C1362 N1361 1.351 . S
C1362 C1363 1.434 . S
C1363 C1354 1.429 . S
C1363 N1360 1.350 . S
C1363 C1362 1.434 . S
C1364 C1365 1.369 . S
C1364 C1366 1.419 . S
C1364 H1368 0.930 . S
C1365 C1364 1.369 . S
C1365 C1374 1.429 . S
C1366 C1364 1.419 . S
C1366 C1367 1.363 . S
C1366 H1369 0.929 . S
C1367 C1366 1.363 . S
C1367 C1373 1.428 . S
H1368 C1364 0.930 . S
H1369 C1366 0.929 . S
S1370 N1371 1.613 . S
S1370 N1372 1.610 . S
N1371 S1370 1.613 . S
N1371 C1374 1.350 . S
N1372 S1370 1.610 . S
N1372 C1373 1.351 . S
C1373 C1367 1.428 . S
C1373 N1372 1.351 . S
C1373 C1374 1.434 . S
C1374 C1365 1.429 . S
C1374 N1371 1.350 . S
C1374 C1373 1.434 . S
C1375 C1376 1.369 . S
C1375 C1377 1.419 . S
C1375 H1379 0.930 . S
C1376 C1375 1.369 . S
C1376 C1385 1.429 . S
C1377 C1375 1.419 . S
C1377 C1378 1.363 . S
C1377 H1380 0.929 . S
C1378 C1377 1.363 . S
C1378 C1384 1.428 . S
H1379 C1375 0.930 . S
H1380 C1377 0.929 . S
S1381 N1382 1.613 . S
S1381 N1383 1.610 . S
N1382 S1381 1.613 . S
N1382 C1385 1.350 . S
N1383 S1381 1.610 . S
N1383 C1384 1.351 . S
C1384 C1378 1.428 . S
C1384 N1383 1.351 . S
C1384 C1385 1.434 . S
C1385 C1376 1.429 . S
C1385 N1382 1.350 . S
C1385 C1384 1.434 . S
C1386 C1387 1.369 . S
C1386 C1388 1.419 . S
C1386 H1390 0.930 . S
C1387 C1386 1.369 . S
C1387 C1396 1.429 . S
C1388 C1386 1.419 . S
C1388 C1389 1.363 . S
C1388 H1391 0.929 . S
C1389 C1388 1.363 . S
C1389 C1395 1.428 . S
H1390 C1386 0.930 . S
H1391 C1388 0.929 . S
S1392 N1393 1.613 . S
S1392 N1394 1.610 . S
N1393 S1392 1.613 . S
N1393 C1396 1.350 . S
N1394 S1392 1.610 . S
N1394 C1395 1.351 . S
C1395 C1389 1.428 . S
C1395 N1394 1.351 . S
C1395 C1396 1.434 . S
C1396 C1387 1.429 . S
C1396 N1393 1.350 . S
C1396 C1395 1.434 . S
C1397 C1398 1.369 . S
C1397 C1399 1.419 . S
C1397 H1401 0.930 . S
C1398 C1397 1.369 . S
C1398 C1407 1.429 . S
C1399 C1397 1.419 . S
C1399 C1400 1.363 . S
C1399 H1402 0.929 . S
C1400 C1399 1.363 . S
C1400 C1406 1.428 . S
H1401 C1397 0.930 . S
H1402 C1399 0.929 . S
S1403 N1404 1.613 . S
S1403 N1405 1.610 . S
N1404 S1403 1.613 . S
N1404 C1407 1.350 . S
N1405 S1403 1.610 . S
N1405 C1406 1.351 . S
C1406 C1400 1.428 . S
C1406 N1405 1.351 . S
C1406 C1407 1.434 . S
C1407 C1398 1.429 . S
C1407 N1404 1.350 . S
C1407 C1406 1.434 . S
C1408 C1409 1.369 . S
C1408 C1410 1.419 . S
C1408 H1412 0.930 . S
C1409 C1408 1.369 . S
C1409 C1418 1.429 . S
C1410 C1408 1.419 . S
C1410 C1411 1.363 . S
C1410 H1413 0.929 . S
C1411 C1410 1.363 . S
C1411 C1417 1.428 . S
H1412 C1408 0.930 . S
H1413 C1410 0.929 . S
S1414 N1415 1.613 . S
S1414 N1416 1.610 . S
N1415 S1414 1.613 . S
N1415 C1418 1.350 . S
N1416 S1414 1.610 . S
N1416 C1417 1.351 . S
C1417 C1411 1.428 . S
C1417 N1416 1.351 . S
C1417 C1418 1.434 . S
C1418 C1409 1.429 . S
C1418 N1415 1.350 . S
C1418 C1417 1.434 . S
C1419 C1420 1.369 . S
C1419 C1421 1.419 . S
C1419 H1423 0.930 . S
C1420 C1419 1.369 . S
C1420 C1429 1.429 . S
C1421 C1419 1.419 . S
C1421 C1422 1.363 . S
C1421 H1424 0.929 . S
C1422 C1421 1.363 . S
C1422 C1428 1.428 . S
H1423 C1419 0.930 . S
H1424 C1421 0.929 . S
S1425 N1426 1.613 . S
S1425 N1427 1.610 . S
N1426 S1425 1.613 . S
N1426 C1429 1.350 . S
N1427 S1425 1.610 . S
N1427 C1428 1.351 . S
C1428 C1422 1.428 . S
C1428 N1427 1.351 . S
C1428 C1429 1.434 . S
C1429 C1420 1.429 . S
C1429 N1426 1.350 . S
C1429 C1428 1.434 . S
C1430 C1431 1.369 . S
C1430 C1432 1.419 . S
C1430 H1434 0.930 . S
C1431 C1430 1.369 . S
C1431 C1440 1.429 . S
C1432 C1430 1.419 . S
C1432 C1433 1.363 . S
C1432 H1435 0.929 . S
C1433 C1432 1.363 . S
C1433 C1439 1.428 . S
H1434 C1430 0.930 . S
H1435 C1432 0.929 . S
S1436 N1437 1.613 . S
S1436 N1438 1.610 . S
N1437 S1436 1.613 . S
N1437 C1440 1.350 . S
N1438 S1436 1.610 . S
N1438 C1439 1.351 . S
C1439 C1433 1.428 . S
C1439 N1438 1.351 . S
C1439 C1440 1.434 . S
C1440 C1431 1.429 . S
C1440 N1437 1.350 . S
C1440 C1439 1.434 . S
C1441 C1442 1.369 . S
C1441 C1443 1.419 . S
C1441 H1445 0.930 . S
C1442 C1441 1.369 . S
C1442 C1451 1.429 . S
C1443 C1441 1.419 . S
C1443 C1444 1.363 . S
C1443 H1446 0.929 . S
C1444 C1443 1.363 . S
C1444 C1450 1.428 . S
H1445 C1441 0.930 . S
H1446 C1443 0.929 . S
S1447 N1448 1.613 . S
S1447 N1449 1.610 . S
N1448 S1447 1.613 . S
N1448 C1451 1.350 . S
N1449 S1447 1.610 . S
N1449 C1450 1.351 . S
C1450 C1444 1.428 . S
C1450 N1449 1.351 . S
C1450 C1451 1.434 . S
C1451 C1442 1.429 . S
C1451 N1448 1.350 . S
C1451 C1450 1.434 . S
C1452 C1453 1.369 . S
C1452 C1454 1.419 . S
C1452 H1456 0.930 . S
C1453 C1452 1.369 . S
C1453 C1462 1.429 . S
C1454 C1452 1.419 . S
C1454 C1455 1.363 . S
C1454 H1457 0.929 . S
C1455 C1454 1.363 . S
C1455 C1461 1.428 . S
H1456 C1452 0.930 . S
H1457 C1454 0.929 . S
S1458 N1459 1.613 . S
S1458 N1460 1.610 . S
N1459 S1458 1.613 . S
N1459 C1462 1.350 . S
N1460 S1458 1.610 . S
N1460 C1461 1.351 . S
C1461 C1455 1.428 . S
C1461 N1460 1.351 . S
C1461 C1462 1.434 . S
C1462 C1453 1.429 . S
C1462 N1459 1.350 . S
C1462 C1461 1.434 . S
C1463 C1464 1.369 . S
C1463 C1465 1.419 . S
C1463 H1467 0.930 . S
C1464 C1463 1.369 . S
C1464 C1473 1.429 . S
C1465 C1463 1.419 . S
C1465 C1466 1.363 . S
C1465 H1468 0.929 . S
C1466 C1465 1.363 . S
C1466 C1472 1.428 . S
H1467 C1463 0.930 . S
H1468 C1465 0.929 . S
S1469 N1470 1.613 . S
S1469 N1471 1.610 . S
N1470 S1469 1.613 . S
N1470 C1473 1.350 . S
N1471 S1469 1.610 . S
N1471 C1472 1.351 . S
C1472 C1466 1.428 . S
C1472 N1471 1.351 . S
C1472 C1473 1.434 . S
C1473 C1464 1.429 . S
C1473 N1470 1.350 . S
C1473 C1472 1.434 . S
C1474 C1475 1.369 . S
C1474 C1476 1.419 . S
C1474 H1478 0.930 . S
C1475 C1474 1.369 . S
C1475 C1484 1.429 . S
C1476 C1474 1.419 . S
C1476 C1477 1.363 . S
C1476 H1479 0.929 . S
C1477 C1476 1.363 . S
C1477 C1483 1.428 . S
H1478 C1474 0.930 . S
H1479 C1476 0.929 . S
S1480 N1481 1.613 . S
S1480 N1482 1.610 . S
N1481 S1480 1.613 . S
N1481 C1484 1.350 . S
N1482 S1480 1.610 . S
N1482 C1483 1.351 . S
C1483 C1477 1.428 . S
C1483 N1482 1.351 . S
C1483 C1484 1.434 . S
C1484 C1475 1.429 . S
C1484 N1481 1.350 . S
C1484 C1483 1.434 . S
C1485 C1486 1.369 . S
C1485 C1487 1.419 . S
C1485 H1489 0.930 . S
C1486 C1485 1.369 . S
C1486 C1495 1.429 . S
C1487 C1485 1.419 . S
C1487 C1488 1.363 . S
C1487 H1490 0.929 . S
C1488 C1487 1.363 . S
C1488 C1494 1.428 . S
H1489 C1485 0.930 . S
H1490 C1487 0.929 . S
S1491 N1492 1.613 . S
S1491 N1493 1.610 . S
N1492 S1491 1.613 . S
N1492 C1495 1.350 . S
N1493 S1491 1.610 . S
N1493 C1494 1.351 . S
C1494 C1488 1.428 . S
C1494 N1493 1.351 . S
C1494 C1495 1.434 . S
C1495 C1486 1.429 . S
C1495 N1492 1.350 . S
C1495 C1494 1.434 . S
C1496 C1497 1.369 . S
C1496 C1498 1.419 . S
C1496 H1500 0.930 . S
C1497 C1496 1.369 . S
C1497 C1506 1.429 . S
C1498 C1496 1.419 . S
C1498 C1499 1.363 . S
C1498 H1501 0.929 . S
C1499 C1498 1.363 . S
C1499 C1505 1.428 . S
H1500 C1496 0.930 . S
H1501 C1498 0.929 . S
S1502 N1503 1.613 . S
S1502 N1504 1.610 . S
N1503 S1502 1.613 . S
N1503 C1506 1.350 . S
N1504 S1502 1.610 . S
N1504 C1505 1.351 . S
C1505 C1499 1.428 . S
C1505 N1504 1.351 . S
C1505 C1506 1.434 . S
C1506 C1497 1.429 . S
C1506 N1503 1.350 . S
C1506 C1505 1.434 . S
C1507 C1508 1.369 . S
C1507 C1509 1.419 . S
C1507 H1511 0.930 . S
C1508 C1507 1.369 . S
C1508 C1517 1.429 . S
C1509 C1507 1.419 . S
C1509 C1510 1.363 . S
C1509 H1512 0.929 . S
C1510 C1509 1.363 . S
C1510 C1516 1.428 . S
H1511 C1507 0.930 . S
H1512 C1509 0.929 . S
S1513 N1514 1.613 . S
S1513 N1515 1.610 . S
N1514 S1513 1.613 . S
N1514 C1517 1.350 . S
N1515 S1513 1.610 . S
N1515 C1516 1.351 . S
C1516 C1510 1.428 . S
C1516 N1515 1.351 . S
C1516 C1517 1.434 . S
C1517 C1508 1.429 . S
C1517 N1514 1.350 . S
C1517 C1516 1.434 . S
C1518 C1519 1.369 . S
C1518 C1520 1.419 . S
C1518 H1522 0.930 . S
C1519 C1518 1.369 . S
C1519 C1528 1.429 . S
C1520 C1518 1.419 . S
C1520 C1521 1.363 . S
C1520 H1523 0.929 . S
C1521 C1520 1.363 . S
C1521 C1527 1.428 . S
H1522 C1518 0.930 . S
H1523 C1520 0.929 . S
S1524 N1525 1.613 . S
S1524 N1526 1.610 . S
N1525 S1524 1.613 . S
N1525 C1528 1.350 . S
N1526 S1524 1.610 . S
N1526 C1527 1.351 . S
C1527 C1521 1.428 . S
C1527 N1526 1.351 . S
C1527 C1528 1.434 . S
C1528 C1519 1.429 . S
C1528 N1525 1.350 . S
C1528 C1527 1.434 . S
C1529 C1530 1.369 . S
C1529 C1531 1.419 . S
C1529 H1533 0.930 . S
C1530 C1529 1.369 . S
C1530 C1539 1.429 . S
C1531 C1529 1.419 . S
C1531 C1532 1.363 . S
C1531 H1534 0.929 . S
C1532 C1531 1.363 . S
C1532 C1538 1.428 . S
H1533 C1529 0.930 . S
H1534 C1531 0.929 . S
S1535 N1536 1.613 . S
S1535 N1537 1.610 . S
N1536 S1535 1.613 . S
N1536 C1539 1.350 . S
N1537 S1535 1.610 . S
N1537 C1538 1.351 . S
C1538 C1532 1.428 . S
C1538 N1537 1.351 . S
C1538 C1539 1.434 . S
C1539 C1530 1.429 . S
C1539 N1536 1.350 . S
C1539 C1538 1.434 . S
C1540 C1541 1.369 . S
C1540 C1542 1.419 . S
C1540 H1544 0.930 . S
C1541 C1540 1.369 . S
C1541 C1550 1.429 . S
C1542 C1540 1.419 . S
C1542 C1543 1.363 . S
C1542 H1545 0.929 . S
C1543 C1542 1.363 . S
C1543 C1549 1.428 . S
H1544 C1540 0.930 . S
H1545 C1542 0.929 . S
S1546 N1547 1.613 . S
S1546 N1548 1.610 . S
N1547 S1546 1.613 . S
N1547 C1550 1.350 . S
N1548 S1546 1.610 . S
N1548 C1549 1.351 . S
C1549 C1543 1.428 . S
C1549 N1548 1.351 . S
C1549 C1550 1.434 . S
C1550 C1541 1.429 . S
C1550 N1547 1.350 . S
C1550 C1549 1.434 . S
C1551 C1552 1.369 . S
C1551 C1553 1.419 . S
C1551 H1555 0.930 . S
C1552 C1551 1.369 . S
C1552 C1561 1.429 . S
C1553 C1551 1.419 . S
C1553 C1554 1.363 . S
C1553 H1556 0.929 . S
C1554 C1553 1.363 . S
C1554 C1560 1.428 . S
H1555 C1551 0.930 . S
H1556 C1553 0.929 . S
S1557 N1558 1.613 . S
S1557 N1559 1.610 . S
N1558 S1557 1.613 . S
N1558 C1561 1.350 . S
N1559 S1557 1.610 . S
N1559 C1560 1.351 . S
C1560 C1554 1.428 . S
C1560 N1559 1.351 . S
C1560 C1561 1.434 . S
C1561 C1552 1.429 . S
C1561 N1558 1.350 . S
C1561 C1560 1.434 . S
C1562 C1563 1.369 . S
C1562 C1564 1.419 . S
C1562 H1566 0.930 . S
C1563 C1562 1.369 . S
C1563 C1572 1.429 . S
C1564 C1562 1.419 . S
C1564 C1565 1.363 . S
C1564 H1567 0.929 . S
C1565 C1564 1.363 . S
C1565 C1571 1.428 . S
H1566 C1562 0.930 . S
H1567 C1564 0.929 . S
S1568 N1569 1.613 . S
S1568 N1570 1.610 . S
N1569 S1568 1.613 . S
N1569 C1572 1.350 . S
N1570 S1568 1.610 . S
N1570 C1571 1.351 . S
C1571 C1565 1.428 . S
C1571 N1570 1.351 . S
C1571 C1572 1.434 . S
C1572 C1563 1.429 . S
C1572 N1569 1.350 . S
C1572 C1571 1.434 . S
C1573 C1574 1.369 . S
C1573 C1575 1.419 . S
C1573 H1577 0.930 . S
C1574 C1573 1.369 . S
C1574 C1583 1.429 . S
C1575 C1573 1.419 . S
C1575 C1576 1.363 . S
C1575 H1578 0.929 . S
C1576 C1575 1.363 . S
C1576 C1582 1.428 . S
H1577 C1573 0.930 . S
H1578 C1575 0.929 . S
S1579 N1580 1.613 . S
S1579 N1581 1.610 . S
N1580 S1579 1.613 . S
N1580 C1583 1.350 . S
N1581 S1579 1.610 . S
N1581 C1582 1.351 . S
C1582 C1576 1.428 . S
C1582 N1581 1.351 . S
C1582 C1583 1.434 . S
C1583 C1574 1.429 . S
C1583 N1580 1.350 . S
C1583 C1582 1.434 . S
C1584 C1585 1.369 . S
C1584 C1586 1.419 . S
C1584 H1588 0.930 . S
C1585 C1584 1.369 . S
C1585 C1594 1.429 . S
C1586 C1584 1.419 . S
C1586 C1587 1.363 . S
C1586 H1589 0.929 . S
C1587 C1586 1.363 . S
C1587 C1593 1.428 . S
H1588 C1584 0.930 . S
H1589 C1586 0.929 . S
S1590 N1591 1.613 . S
S1590 N1592 1.610 . S
N1591 S1590 1.613 . S
N1591 C1594 1.350 . S
N1592 S1590 1.610 . S
N1592 C1593 1.351 . S
C1593 C1587 1.428 . S
C1593 N1592 1.351 . S
C1593 C1594 1.434 . S
C1594 C1585 1.429 . S
C1594 N1591 1.350 . S
C1594 C1593 1.434 . S
C1595 C1596 1.369 . S
C1595 C1597 1.419 . S
C1595 H1599 0.930 . S
C1596 C1595 1.369 . S
C1596 C1605 1.429 . S
C1597 C1595 1.419 . S
C1597 C1598 1.363 . S
C1597 H1600 0.929 . S
C1598 C1597 1.363 . S
C1598 C1604 1.428 . S
H1599 C1595 0.930 . S
H1600 C1597 0.929 . S
S1601 N1602 1.613 . S
S1601 N1603 1.610 . S
N1602 S1601 1.613 . S
N1602 C1605 1.350 . S
N1603 S1601 1.610 . S
N1603 C1604 1.351 . S
C1604 C1598 1.428 . S
C1604 N1603 1.351 . S
C1604 C1605 1.434 . S
C1605 C1596 1.429 . S
C1605 N1602 1.350 . S
C1605 C1604 1.434 . S
C1606 C1607 1.369 . S
C1606 C1608 1.419 . S
C1606 H1610 0.930 . S
C1607 C1606 1.369 . S
C1607 C1616 1.429 . S
C1608 C1606 1.419 . S
C1608 C1609 1.363 . S
C1608 H1611 0.929 . S
C1609 C1608 1.363 . S
C1609 C1615 1.428 . S
H1610 C1606 0.930 . S
H1611 C1608 0.929 . S
S1612 N1613 1.613 . S
S1612 N1614 1.610 . S
N1613 S1612 1.613 . S
N1613 C1616 1.350 . S
N1614 S1612 1.610 . S
N1614 C1615 1.351 . S
C1615 C1609 1.428 . S
C1615 N1614 1.351 . S
C1615 C1616 1.434 . S
C1616 C1607 1.429 . S
C1616 N1613 1.350 . S
C1616 C1615 1.434 . S
C1617 C1618 1.369 . S
C1617 C1619 1.419 . S
C1617 H1621 0.930 . S
C1618 C1617 1.369 . S
C1618 C1627 1.429 . S
C1619 C1617 1.419 . S
C1619 C1620 1.363 . S
C1619 H1622 0.929 . S
C1620 C1619 1.363 . S
C1620 C1626 1.428 . S
H1621 C1617 0.930 . S
H1622 C1619 0.929 . S
S1623 N1624 1.613 . S
S1623 N1625 1.610 . S
N1624 S1623 1.613 . S
N1624 C1627 1.350 . S
N1625 S1623 1.610 . S
N1625 C1626 1.351 . S
C1626 C1620 1.428 . S
C1626 N1625 1.351 . S
C1626 C1627 1.434 . S
C1627 C1618 1.429 . S
C1627 N1624 1.350 . S
C1627 C1626 1.434 . S
C1628 C1629 1.369 . S
C1628 C1630 1.419 . S
C1628 H1632 0.930 . S
C1629 C1628 1.369 . S
C1629 C1638 1.429 . S
C1630 C1628 1.419 . S
C1630 C1631 1.363 . S
C1630 H1633 0.929 . S
C1631 C1630 1.363 . S
C1631 C1637 1.428 . S
H1632 C1628 0.930 . S
H1633 C1630 0.929 . S
S1634 N1635 1.613 . S
S1634 N1636 1.610 . S
N1635 S1634 1.613 . S
N1635 C1638 1.350 . S
N1636 S1634 1.610 . S
N1636 C1637 1.351 . S
C1637 C1631 1.428 . S
C1637 N1636 1.351 . S
C1637 C1638 1.434 . S
C1638 C1629 1.429 . S
C1638 N1635 1.350 . S
C1638 C1637 1.434 . S
C1639 C1640 1.369 . S
C1639 C1641 1.419 . S
C1639 H1643 0.930 . S
C1640 C1639 1.369 . S
C1640 C1649 1.429 . S
C1641 C1639 1.419 . S
C1641 C1642 1.363 . S
C1641 H1644 0.929 . S
C1642 C1641 1.363 . S
C1642 C1648 1.428 . S
H1643 C1639 0.930 . S
H1644 C1641 0.929 . S
S1645 N1646 1.613 . S
S1645 N1647 1.610 . S
N1646 S1645 1.613 . S
N1646 C1649 1.350 . S
N1647 S1645 1.610 . S
N1647 C1648 1.351 . S
C1648 C1642 1.428 . S
C1648 N1647 1.351 . S
C1648 C1649 1.434 . S
C1649 C1640 1.429 . S
C1649 N1646 1.350 . S
C1649 C1648 1.434 . S
C1650 C1651 1.369 . S
C1650 C1652 1.419 . S
C1650 H1654 0.930 . S
C1651 C1650 1.369 . S
C1651 C1660 1.429 . S
C1652 C1650 1.419 . S
C1652 C1653 1.363 . S
C1652 H1655 0.929 . S
C1653 C1652 1.363 . S
C1653 C1659 1.428 . S
H1654 C1650 0.930 . S
H1655 C1652 0.929 . S
S1656 N1657 1.613 . S
S1656 N1658 1.610 . S
N1657 S1656 1.613 . S
N1657 C1660 1.350 . S
N1658 S1656 1.610 . S
N1658 C1659 1.351 . S
C1659 C1653 1.428 . S
C1659 N1658 1.351 . S
C1659 C1660 1.434 . S
C1660 C1651 1.429 . S
C1660 N1657 1.350 . S
C1660 C1659 1.434 . S
C1661 C1662 1.369 . S
C1661 C1663 1.419 . S
C1661 H1665 0.930 . S
C1662 C1661 1.369 . S
C1662 C1671 1.429 . S
C1663 C1661 1.419 . S
C1663 C1664 1.363 . S
C1663 H1666 0.929 . S
C1664 C1663 1.363 . S
C1664 C1670 1.428 . S
H1665 C1661 0.930 . S
H1666 C1663 0.929 . S
S1667 N1668 1.613 . S
S1667 N1669 1.610 . S
N1668 S1667 1.613 . S
N1668 C1671 1.350 . S
N1669 S1667 1.610 . S
N1669 C1670 1.351 . S
C1670 C1664 1.428 . S
C1670 N1669 1.351 . S
C1670 C1671 1.434 . S
C1671 C1662 1.429 . S
C1671 N1668 1.350 . S
C1671 C1670 1.434 . S
C1672 C1673 1.369 . S
C1672 C1674 1.419 . S
C1672 H1676 0.930 . S
C1673 C1672 1.369 . S
C1673 C1682 1.429 . S
C1674 C1672 1.419 . S
C1674 C1675 1.363 . S
C1674 H1677 0.929 . S
C1675 C1674 1.363 . S
C1675 C1681 1.428 . S
H1676 C1672 0.930 . S
H1677 C1674 0.929 . S
S1678 N1679 1.613 . S
S1678 N1680 1.610 . S
N1679 S1678 1.613 . S
N1679 C1682 1.350 . S
N1680 S1678 1.610 . S
N1680 C1681 1.351 . S
C1681 C1675 1.428 . S
C1681 N1680 1.351 . S
C1681 C1682 1.434 . S
C1682 C1673 1.429 . S
C1682 N1679 1.350 . S
C1682 C1681 1.434 . S
C1683 C1684 1.369 . S
C1683 C1685 1.419 . S
C1683 H1687 0.930 . S
C1684 C1683 1.369 . S
C1684 C1693 1.429 . S
C1685 C1683 1.419 . S
C1685 C1686 1.363 . S
C1685 H1688 0.929 . S
C1686 C1685 1.363 . S
C1686 C1692 1.428 . S
H1687 C1683 0.930 . S
H1688 C1685 0.929 . S
S1689 N1690 1.613 . S
S1689 N1691 1.610 . S
N1690 S1689 1.613 . S
N1690 C1693 1.350 . S
N1691 S1689 1.610 . S
N1691 C1692 1.351 . S
C1692 C1686 1.428 . S
C1692 N1691 1.351 . S
C1692 C1693 1.434 . S
C1693 C1684 1.429 . S
C1693 N1690 1.350 . S
C1693 C1692 1.434 . S
C1694 C1695 1.369 . S
C1694 C1696 1.419 . S
C1694 H1698 0.930 . S
C1695 C1694 1.369 . S
C1695 C1704 1.429 . S
C1696 C1694 1.419 . S
C1696 C1697 1.363 . S
C1696 H1699 0.929 . S
C1697 C1696 1.363 . S
C1697 C1703 1.428 . S
H1698 C1694 0.930 . S
H1699 C1696 0.929 . S
S1700 N1701 1.613 . S
S1700 N1702 1.610 . S
N1701 S1700 1.613 . S
N1701 C1704 1.350 . S
N1702 S1700 1.610 . S
N1702 C1703 1.351 . S
C1703 C1697 1.428 . S
C1703 N1702 1.351 . S
C1703 C1704 1.434 . S
C1704 C1695 1.429 . S
C1704 N1701 1.350 . S
C1704 C1703 1.434 . S
C1705 C1706 1.369 . S
C1705 C1707 1.419 . S
C1705 H1709 0.930 . S
C1706 C1705 1.369 . S
C1706 C1715 1.429 . S
C1707 C1705 1.419 . S
C1707 C1708 1.363 . S
C1707 H1710 0.929 . S
C1708 C1707 1.363 . S
C1708 C1714 1.428 . S
H1709 C1705 0.930 . S
H1710 C1707 0.929 . S
S1711 N1712 1.613 . S
S1711 N1713 1.610 . S
N1712 S1711 1.613 . S
N1712 C1715 1.350 . S
N1713 S1711 1.610 . S
N1713 C1714 1.351 . S
C1714 C1708 1.428 . S
C1714 N1713 1.351 . S
C1714 C1715 1.434 . S
C1715 C1706 1.429 . S
C1715 N1712 1.350 . S
C1715 C1714 1.434 . S
C1716 C1717 1.369 . S
C1716 C1718 1.419 . S
C1716 H1720 0.930 . S
C1717 C1716 1.369 . S
C1717 C1726 1.429 . S
C1718 C1716 1.419 . S
C1718 C1719 1.363 . S
C1718 H1721 0.929 . S
C1719 C1718 1.363 . S
C1719 C1725 1.428 . S
H1720 C1716 0.930 . S
H1721 C1718 0.929 . S
S1722 N1723 1.613 . S
S1722 N1724 1.610 . S
N1723 S1722 1.613 . S
N1723 C1726 1.350 . S
N1724 S1722 1.610 . S
N1724 C1725 1.351 . S
C1725 C1719 1.428 . S
C1725 N1724 1.351 . S
C1725 C1726 1.434 . S
C1726 C1717 1.429 . S
C1726 N1723 1.350 . S
C1726 C1725 1.434 . S
C1727 C1728 1.369 . S
C1727 C1729 1.419 . S
C1727 H1731 0.930 . S
C1728 C1727 1.369 . S
C1728 C1737 1.429 . S
C1729 C1727 1.419 . S
C1729 C1730 1.363 . S
C1729 H1732 0.929 . S
C1730 C1729 1.363 . S
C1730 C1736 1.428 . S
H1731 C1727 0.930 . S
H1732 C1729 0.929 . S
S1733 N1734 1.613 . S
S1733 N1735 1.610 . S
N1734 S1733 1.613 . S
N1734 C1737 1.350 . S
N1735 S1733 1.610 . S
N1735 C1736 1.351 . S
C1736 C1730 1.428 . S
C1736 N1735 1.351 . S
C1736 C1737 1.434 . S
C1737 C1728 1.429 . S
C1737 N1734 1.350 . S
C1737 C1736 1.434 . S
C1738 C1739 1.369 . S
C1738 C1740 1.419 . S
C1738 H1742 0.930 . S
C1739 C1738 1.369 . S
C1739 C1748 1.429 . S
C1740 C1738 1.419 . S
C1740 C1741 1.363 . S
C1740 H1743 0.929 . S
C1741 C1740 1.363 . S
C1741 C1747 1.428 . S
H1742 C1738 0.930 . S
H1743 C1740 0.929 . S
S1744 N1745 1.613 . S
S1744 N1746 1.610 . S
N1745 S1744 1.613 . S
N1745 C1748 1.350 . S
N1746 S1744 1.610 . S
N1746 C1747 1.351 . S
C1747 C1741 1.428 . S
C1747 N1746 1.351 . S
C1747 C1748 1.434 . S
C1748 C1739 1.429 . S
C1748 N1745 1.350 . S
C1748 C1747 1.434 . S
C1749 C1750 1.369 . S
C1749 C1751 1.419 . S
C1749 H1753 0.930 . S
C1750 C1749 1.369 . S
C1750 C1759 1.429 . S
C1751 C1749 1.419 . S
C1751 C1752 1.363 . S
C1751 H1754 0.929 . S
C1752 C1751 1.363 . S
C1752 C1758 1.428 . S
H1753 C1749 0.930 . S
H1754 C1751 0.929 . S
S1755 N1756 1.613 . S
S1755 N1757 1.610 . S
N1756 S1755 1.613 . S
N1756 C1759 1.350 . S
N1757 S1755 1.610 . S
N1757 C1758 1.351 . S
C1758 C1752 1.428 . S
C1758 N1757 1.351 . S
C1758 C1759 1.434 . S
C1759 C1750 1.429 . S
C1759 N1756 1.350 . S
C1759 C1758 1.434 . S
C1760 C1761 1.369 . S
C1760 C1762 1.419 . S
C1760 H1764 0.930 . S
C1761 C1760 1.369 . S
C1761 C1770 1.429 . S
C1762 C1760 1.419 . S
C1762 C1763 1.363 . S
C1762 H1765 0.929 . S
C1763 C1762 1.363 . S
C1763 C1769 1.428 . S
H1764 C1760 0.930 . S
H1765 C1762 0.929 . S
S1766 N1767 1.613 . S
S1766 N1768 1.610 . S
N1767 S1766 1.613 . S
N1767 C1770 1.350 . S
N1768 S1766 1.610 . S
N1768 C1769 1.351 . S
C1769 C1763 1.428 . S
C1769 N1768 1.351 . S
C1769 C1770 1.434 . S
C1770 C1761 1.429 . S
C1770 N1767 1.350 . S
C1770 C1769 1.434 . S
C1771 C1772 1.369 . S
C1771 C1773 1.419 . S
C1771 H1775 0.930 . S
C1772 C1771 1.369 . S
C1772 C1781 1.429 . S
C1773 C1771 1.419 . S
C1773 C1774 1.363 . S
C1773 H1776 0.929 . S
C1774 C1773 1.363 . S
C1774 C1780 1.428 . S
H1775 C1771 0.930 . S
H1776 C1773 0.929 . S
S1777 N1778 1.613 . S
S1777 N1779 1.610 . S
N1778 S1777 1.613 . S
N1778 C1781 1.350 . S
N1779 S1777 1.610 . S
N1779 C1780 1.351 . S
C1780 C1774 1.428 . S
C1780 N1779 1.351 . S
C1780 C1781 1.434 . S
C1781 C1772 1.429 . S
C1781 N1778 1.350 . S
C1781 C1780 1.434 . S
C1782 C1783 1.369 . S
C1782 C1784 1.419 . S
C1782 H1786 0.930 . S
C1783 C1782 1.369 . S
C1783 C1792 1.429 . S
C1784 C1782 1.419 . S
C1784 C1785 1.363 . S
C1784 H1787 0.929 . S
C1785 C1784 1.363 . S
C1785 C1791 1.428 . S
H1786 C1782 0.930 . S
H1787 C1784 0.929 . S
S1788 N1789 1.613 . S
S1788 N1790 1.610 . S
N1789 S1788 1.613 . S
N1789 C1792 1.350 . S
N1790 S1788 1.610 . S
N1790 C1791 1.351 . S
C1791 C1785 1.428 . S
C1791 N1790 1.351 . S
C1791 C1792 1.434 . S
C1792 C1783 1.429 . S
C1792 N1789 1.350 . S
C1792 C1791 1.434 . S
C1793 C1794 1.369 . S
C1793 C1795 1.419 . S
C1793 H1797 0.930 . S
C1794 C1793 1.369 . S
C1794 C1803 1.429 . S
C1795 C1793 1.419 . S
C1795 C1796 1.363 . S
C1795 H1798 0.929 . S
C1796 C1795 1.363 . S
C1796 C1802 1.428 . S
H1797 C1793 0.930 . S
H1798 C1795 0.929 . S
S1799 N1800 1.613 . S
S1799 N1801 1.610 . S
N1800 S1799 1.613 . S
N1800 C1803 1.350 . S
N1801 S1799 1.610 . S
N1801 C1802 1.351 . S
C1802 C1796 1.428 . S
C1802 N1801 1.351 . S
C1802 C1803 1.434 . S
C1803 C1794 1.429 . S
C1803 N1800 1.350 . S
C1803 C1802 1.434 . S
C1804 C1805 1.369 . S
C1804 C1806 1.419 . S
C1804 H1808 0.930 . S
C1805 C1804 1.369 . S
C1805 C1814 1.429 . S
C1806 C1804 1.419 . S
C1806 C1807 1.363 . S
C1806 H1809 0.929 . S
C1807 C1806 1.363 . S
C1807 C1813 1.428 . S
H1808 C1804 0.930 . S
H1809 C1806 0.929 . S
S1810 N1811 1.613 . S
S1810 N1812 1.610 . S
N1811 S1810 1.613 . S
N1811 C1814 1.350 . S
N1812 S1810 1.610 . S
N1812 C1813 1.351 . S
C1813 C1807 1.428 . S
C1813 N1812 1.351 . S
C1813 C1814 1.434 . S
C1814 C1805 1.429 . S
C1814 N1811 1.350 . S
C1814 C1813 1.434 . S
C1815 C1816 1.369 . S
C1815 C1817 1.419 . S
C1815 H1819 0.930 . S
C1816 C1815 1.369 . S
C1816 C1825 1.429 . S
C1817 C1815 1.419 . S
C1817 C1818 1.363 . S
C1817 H1820 0.929 . S
C1818 C1817 1.363 . S
C1818 C1824 1.428 . S
H1819 C1815 0.930 . S
H1820 C1817 0.929 . S
S1821 N1822 1.613 . S
S1821 N1823 1.610 . S
N1822 S1821 1.613 . S
N1822 C1825 1.350 . S
N1823 S1821 1.610 . S
N1823 C1824 1.351 . S
C1824 C1818 1.428 . S
C1824 N1823 1.351 . S
C1824 C1825 1.434 . S
C1825 C1816 1.429 . S
C1825 N1822 1.350 . S
C1825 C1824 1.434 . S
C1826 C1827 1.369 . S
C1826 C1828 1.419 . S
C1826 H1830 0.930 . S
C1827 C1826 1.369 . S
C1827 C1836 1.429 . S
C1828 C1826 1.419 . S
C1828 C1829 1.363 . S
C1828 H1831 0.929 . S
C1829 C1828 1.363 . S
C1829 C1835 1.428 . S
H1830 C1826 0.930 . S
H1831 C1828 0.929 . S
S1832 N1833 1.613 . S
S1832 N1834 1.610 . S
N1833 S1832 1.613 . S
N1833 C1836 1.350 . S
N1834 S1832 1.610 . S
N1834 C1835 1.351 . S
C1835 C1829 1.428 . S
C1835 N1834 1.351 . S
C1835 C1836 1.434 . S
C1836 C1827 1.429 . S
C1836 N1833 1.350 . S
C1836 C1835 1.434 . S
C1837 C1838 1.369 . S
C1837 C1839 1.419 . S
C1837 H1841 0.930 . S
C1838 C1837 1.369 . S
C1838 C1847 1.429 . S
C1839 C1837 1.419 . S
C1839 C1840 1.363 . S
C1839 H1842 0.929 . S
C1840 C1839 1.363 . S
C1840 C1846 1.428 . S
H1841 C1837 0.930 . S
H1842 C1839 0.929 . S
S1843 N1844 1.613 . S
S1843 N1845 1.610 . S
N1844 S1843 1.613 . S
N1844 C1847 1.350 . S
N1845 S1843 1.610 . S
N1845 C1846 1.351 . S
C1846 C1840 1.428 . S
C1846 N1845 1.351 . S
C1846 C1847 1.434 . S
C1847 C1838 1.429 . S
C1847 N1844 1.350 . S
C1847 C1846 1.434 . S
C1848 C1849 1.369 . S
C1848 C1850 1.419 . S
C1848 H1852 0.930 . S
C1849 C1848 1.369 . S
C1849 C1858 1.429 . S
C1850 C1848 1.419 . S
C1850 C1851 1.363 . S
C1850 H1853 0.929 . S
C1851 C1850 1.363 . S
C1851 C1857 1.428 . S
H1852 C1848 0.930 . S
H1853 C1850 0.929 . S
S1854 N1855 1.613 . S
S1854 N1856 1.610 . S
N1855 S1854 1.613 . S
N1855 C1858 1.350 . S
N1856 S1854 1.610 . S
N1856 C1857 1.351 . S
C1857 C1851 1.428 . S
C1857 N1856 1.351 . S
C1857 C1858 1.434 . S
C1858 C1849 1.429 . S
C1858 N1855 1.350 . S
C1858 C1857 1.434 . S
C1859 C1860 1.369 . S
C1859 C1861 1.419 . S
C1859 H1863 0.930 . S
C1860 C1859 1.369 . S
C1860 C1869 1.429 . S
C1861 C1859 1.419 . S
C1861 C1862 1.363 . S
C1861 H1864 0.929 . S
C1862 C1861 1.363 . S
C1862 C1868 1.428 . S
H1863 C1859 0.930 . S
H1864 C1861 0.929 . S
S1865 N1866 1.613 . S
S1865 N1867 1.610 . S
N1866 S1865 1.613 . S
N1866 C1869 1.350 . S
N1867 S1865 1.610 . S
N1867 C1868 1.351 . S
C1868 C1862 1.428 . S
C1868 N1867 1.351 . S
C1868 C1869 1.434 . S
C1869 C1860 1.429 . S
C1869 N1866 1.350 . S
C1869 C1868 1.434 . S
C1870 C1871 1.369 . S
C1870 C1872 1.419 . S
C1870 H1874 0.930 . S
C1871 C1870 1.369 . S
C1871 C1880 1.429 . S
C1872 C1870 1.419 . S
C1872 C1873 1.363 . S
C1872 H1875 0.929 . S
C1873 C1872 1.363 . S
C1873 C1879 1.428 . S
H1874 C1870 0.930 . S
H1875 C1872 0.929 . S
S1876 N1877 1.613 . S
S1876 N1878 1.610 . S
N1877 S1876 1.613 . S
N1877 C1880 1.350 . S
N1878 S1876 1.610 . S
N1878 C1879 1.351 . S
C1879 C1873 1.428 . S
C1879 N1878 1.351 . S
C1879 C1880 1.434 . S
C1880 C1871 1.429 . S
C1880 N1877 1.350 . S
C1880 C1879 1.434 . S
C1881 C1882 1.369 . S
C1881 C1883 1.419 . S
C1881 H1885 0.930 . S
C1882 C1881 1.369 . S
C1882 C1891 1.429 . S
C1883 C1881 1.419 . S
C1883 C1884 1.363 . S
C1883 H1886 0.929 . S
C1884 C1883 1.363 . S
C1884 C1890 1.428 . S
H1885 C1881 0.930 . S
H1886 C1883 0.929 . S
S1887 N1888 1.613 . S
S1887 N1889 1.610 . S
N1888 S1887 1.613 . S
N1888 C1891 1.350 . S
N1889 S1887 1.610 . S
N1889 C1890 1.351 . S
C1890 C1884 1.428 . S
C1890 N1889 1.351 . S
C1890 C1891 1.434 . S
C1891 C1882 1.429 . S
C1891 N1888 1.350 . S
C1891 C1890 1.434 . S
C1892 C1893 1.369 . S
C1892 C1894 1.419 . S
C1892 H1896 0.930 . S
C1893 C1892 1.369 . S
C1893 C1902 1.429 . S
C1894 C1892 1.419 . S
C1894 C1895 1.363 . S
C1894 H1897 0.929 . S
C1895 C1894 1.363 . S
C1895 C1901 1.428 . S
H1896 C1892 0.930 . S
H1897 C1894 0.929 . S
S1898 N1899 1.613 . S
S1898 N1900 1.610 . S
N1899 S1898 1.613 . S
N1899 C1902 1.350 . S
N1900 S1898 1.610 . S
N1900 C1901 1.351 . S
C1901 C1895 1.428 . S
C1901 N1900 1.351 . S
C1901 C1902 1.434 . S
C1902 C1893 1.429 . S
C1902 N1899 1.350 . S
C1902 C1901 1.434 . S
C1903 C1904 1.369 . S
C1903 C1905 1.419 . S
C1903 H1907 0.930 . S
C1904 C1903 1.369 . S
C1904 C1913 1.429 . S
C1905 C1903 1.419 . S
C1905 C1906 1.363 . S
C1905 H1908 0.929 . S
C1906 C1905 1.363 . S
C1906 C1912 1.428 . S
H1907 C1903 0.930 . S
H1908 C1905 0.929 . S
S1909 N1910 1.613 . S
S1909 N1911 1.610 . S
N1910 S1909 1.613 . S
N1910 C1913 1.350 . S
N1911 S1909 1.610 . S
N1911 C1912 1.351 . S
C1912 C1906 1.428 . S
C1912 N1911 1.351 . S
C1912 C1913 1.434 . S
C1913 C1904 1.429 . S
C1913 N1910 1.350 . S
C1913 C1912 1.434 . S
C1914 C1915 1.369 . S
C1914 C1916 1.419 . S
C1914 H1918 0.930 . S
C1915 C1914 1.369 . S
C1915 C1924 1.429 . S
C1916 C1914 1.419 . S
C1916 C1917 1.363 . S
C1916 H1919 0.929 . S
C1917 C1916 1.363 . S
C1917 C1923 1.428 . S
H1918 C1914 0.930 . S
H1919 C1916 0.929 . S
S1920 N1921 1.613 . S
S1920 N1922 1.610 . S
N1921 S1920 1.613 . S
N1921 C1924 1.350 . S
N1922 S1920 1.610 . S
N1922 C1923 1.351 . S
C1923 C1917 1.428 . S
C1923 N1922 1.351 . S
C1923 C1924 1.434 . S
C1924 C1915 1.429 . S
C1924 N1921 1.350 . S
C1924 C1923 1.434 . S
C1925 C1926 1.369 . S
C1925 C1927 1.419 . S
C1925 H1929 0.930 . S
C1926 C1925 1.369 . S
C1926 C1935 1.429 . S
C1927 C1925 1.419 . S
C1927 C1928 1.363 . S
C1927 H1930 0.929 . S
C1928 C1927 1.363 . S
C1928 C1934 1.428 . S
H1929 C1925 0.930 . S
H1930 C1927 0.929 . S
S1931 N1932 1.613 . S
S1931 N1933 1.610 . S
N1932 S1931 1.613 . S
N1932 C1935 1.350 . S
N1933 S1931 1.610 . S
N1933 C1934 1.351 . S
C1934 C1928 1.428 . S
C1934 N1933 1.351 . S
C1934 C1935 1.434 . S
C1935 C1926 1.429 . S
C1935 N1932 1.350 . S
C1935 C1934 1.434 . S
C1936 C1937 1.369 . S
C1936 C1938 1.419 . S
C1936 H1940 0.930 . S
C1937 C1936 1.369 . S
C1937 C1946 1.429 . S
C1938 C1936 1.419 . S
C1938 C1939 1.363 . S
C1938 H1941 0.929 . S
C1939 C1938 1.363 . S
C1939 C1945 1.428 . S
H1940 C1936 0.930 . S
H1941 C1938 0.929 . S
S1942 N1943 1.613 . S
S1942 N1944 1.610 . S
N1943 S1942 1.613 . S
N1943 C1946 1.350 . S
N1944 S1942 1.610 . S
N1944 C1945 1.351 . S
C1945 C1939 1.428 . S
C1945 N1944 1.351 . S
C1945 C1946 1.434 . S
C1946 C1937 1.429 . S
C1946 N1943 1.350 . S
C1946 C1945 1.434 . S
C1947 C1948 1.369 . S
C1947 C1949 1.419 . S
C1947 H1951 0.930 . S
C1948 C1947 1.369 . S
C1948 C1957 1.429 . S
C1949 C1947 1.419 . S
C1949 C1950 1.363 . S
C1949 H1952 0.929 . S
C1950 C1949 1.363 . S
C1950 C1956 1.428 . S
H1951 C1947 0.930 . S
H1952 C1949 0.929 . S
S1953 N1954 1.613 . S
S1953 N1955 1.610 . S
N1954 S1953 1.613 . S
N1954 C1957 1.350 . S
N1955 S1953 1.610 . S
N1955 C1956 1.351 . S
C1956 C1950 1.428 . S
C1956 N1955 1.351 . S
C1956 C1957 1.434 . S
C1957 C1948 1.429 . S
C1957 N1954 1.350 . S
C1957 C1956 1.434 . S
C1958 C1959 1.369 . S
C1958 C1960 1.419 . S
C1958 H1962 0.930 . S
C1959 C1958 1.369 . S
C1959 C1968 1.429 . S
C1960 C1958 1.419 . S
C1960 C1961 1.363 . S
C1960 H1963 0.929 . S
C1961 C1960 1.363 . S
C1961 C1967 1.428 . S
H1962 C1958 0.930 . S
H1963 C1960 0.929 . S
S1964 N1965 1.613 . S
S1964 N1966 1.610 . S
N1965 S1964 1.613 . S
N1965 C1968 1.350 . S
N1966 S1964 1.610 . S
N1966 C1967 1.351 . S
C1967 C1961 1.428 . S
C1967 N1966 1.351 . S
C1967 C1968 1.434 . S
C1968 C1959 1.429 . S
C1968 N1965 1.350 . S
C1968 C1967 1.434 . S
C1969 C1970 1.369 . S
C1969 C1971 1.419 . S
C1969 H1973 0.930 . S
C1970 C1969 1.369 . S
C1970 C1979 1.429 . S
C1971 C1969 1.419 . S
C1971 C1972 1.363 . S
C1971 H1974 0.929 . S
C1972 C1971 1.363 . S
C1972 C1978 1.428 . S
H1973 C1969 0.930 . S
H1974 C1971 0.929 . S
S1975 N1976 1.613 . S
S1975 N1977 1.610 . S
N1976 S1975 1.613 . S
N1976 C1979 1.350 . S
N1977 S1975 1.610 . S
N1977 C1978 1.351 . S
C1978 C1972 1.428 . S
C1978 N1977 1.351 . S
C1978 C1979 1.434 . S
C1979 C1970 1.429 . S
C1979 N1976 1.350 . S
C1979 C1978 1.434 . S
C1980 C1981 1.369 . S
C1980 C1982 1.419 . S
C1980 H1984 0.930 . S
C1981 C1980 1.369 . S
C1981 C1990 1.429 . S
C1982 C1980 1.419 . S
C1982 C1983 1.363 . S
C1982 H1985 0.929 . S
C1983 C1982 1.363 . S
C1983 C1989 1.428 . S
H1984 C1980 0.930 . S
H1985 C1982 0.929 . S
S1986 N1987 1.613 . S
S1986 N1988 1.610 . S
N1987 S1986 1.613 . S
N1987 C1990 1.350 . S
N1988 S1986 1.610 . S
N1988 C1989 1.351 . S
C1989 C1983 1.428 . S
C1989 N1988 1.351 . S
C1989 C1990 1.434 . S
C1990 C1981 1.429 . S
C1990 N1987 1.350 . S
C1990 C1989 1.434 . S
C1991 C1992 1.369 . S
C1991 C1993 1.419 . S
C1991 H1995 0.930 . S
C1992 C1991 1.369 . S
C1992 C2001 1.429 . S
C1993 C1991 1.419 . S
C1993 C1994 1.363 . S
C1993 H1996 0.929 . S
C1994 C1993 1.363 . S
C1994 C2000 1.428 . S
H1995 C1991 0.930 . S
H1996 C1993 0.929 . S
S1997 N1998 1.613 . S
S1997 N1999 1.610 . S
N1998 S1997 1.613 . S
N1998 C2001 1.350 . S
N1999 S1997 1.610 . S
N1999 C2000 1.351 . S
C2000 C1994 1.428 . S
C2000 N1999 1.351 . S
C2000 C2001 1.434 . S
C2001 C1992 1.429 . S
C2001 N1998 1.350 . S
C2001 C2000 1.434 . S
C2002 C2003 1.369 . S
C2002 C2004 1.419 . S
C2002 H2006 0.930 . S
C2003 C2002 1.369 . S
C2003 C2012 1.429 . S
C2004 C2002 1.419 . S
C2004 C2005 1.363 . S
C2004 H2007 0.929 . S
C2005 C2004 1.363 . S
C2005 C2011 1.428 . S
H2006 C2002 0.930 . S
H2007 C2004 0.929 . S
S2008 N2009 1.613 . S
S2008 N2010 1.610 . S
N2009 S2008 1.613 . S
N2009 C2012 1.350 . S
N2010 S2008 1.610 . S
N2010 C2011 1.351 . S
C2011 C2005 1.428 . S
C2011 N2010 1.351 . S
C2011 C2012 1.434 . S
C2012 C2003 1.429 . S
C2012 N2009 1.350 . S
C2012 C2011 1.434 . S
C2013 C2014 1.369 . S
C2013 C2015 1.419 . S
C2013 H2017 0.930 . S
C2014 C2013 1.369 . S
C2014 C2023 1.429 . S
C2015 C2013 1.419 . S
C2015 C2016 1.363 . S
C2015 H2018 0.929 . S
C2016 C2015 1.363 . S
C2016 C2022 1.428 . S
H2017 C2013 0.930 . S
H2018 C2015 0.929 . S
S2019 N2020 1.613 . S
S2019 N2021 1.610 . S
N2020 S2019 1.613 . S
N2020 C2023 1.350 . S
N2021 S2019 1.610 . S
N2021 C2022 1.351 . S
C2022 C2016 1.428 . S
C2022 N2021 1.351 . S
C2022 C2023 1.434 . S
C2023 C2014 1.429 . S
C2023 N2020 1.350 . S
C2023 C2022 1.434 . S
C971 N428 1.613 . S
C969 N5 1.678 . S
C982 C455 1.724 . S
C980 N15 1.749 . S
C991 N31 1.661 . S
C993 C469 1.678 . S
C1004 N487 1.471 . S
C1002 N40 1.541 . S
C1013 N53 1.573 . S
C1015 C492 1.522 . S
C1024 N70 1.599 . S
C1026 C432 1.607 . S
C1035 N80 1.491 . S
C1037 N451 1.451 . S
C1048 N464 1.656 . S
C1046 N92 1.688 . S
C1059 N510 1.574 . S
C1057 N2 1.685 . S
C1068 N14 1.474 . S
C1070 N533 1.463 . S
C1079 N27 1.704 . S
C1081 N556 1.683 . S
C1092 N589 1.599 . S
C1090 N44 1.691 . S
C1101 N54 1.443 . S
C1103 C616 1.460 . S
C1114 C639 1.489 . S
C1112 N67 1.485 . S
C1123 N83 1.347 . S
C1125 C662 1.345 1_655 S
C1136 C676 1.533 1_565 S
C1134 N93 1.560 . S
C1145 N1 1.612 . S
C1147 C593 1.559 . S
C1156 N57 1.479 . S
C1158 N635 1.444 . S
C1169 N658 1.671 . S
C1167 N66 1.698 . S
C1178 N79 1.819 . S
C1180 N671 1.785 . S
C1191 N612 1.671 . S
C1189 N96 1.722 . S
C1202 C538 1.617 . S
C1200 N28 1.620 . S
C1211 N41 1.452 . S
C1213 C561 1.444 . S
C1224 C515 1.589 . S
C1222 N18 1.670 . S
C1235 C708 1.696 . S
C1233 N109 1.693 . S
C1244 N119 1.596 . S
C1246 C722 1.559 . S
C1255 N135 1.590 . S
C1257 N750 1.549 . S
C1268 N763 1.454 . S
C1266 N144 1.515 . S
C1277 N157 1.639 . S
C1279 C768 1.578 . S
C1288 N174 1.608 . S
C1290 N704 1.558 . S
C1299 N184 1.587 . S
C1301 N717 1.482 . S
C1310 N196 1.688 . S
C1312 C754 1.684 . S
C1323 N602 1.551 . S
C1321 N106 1.671 . S
C1332 N118 1.481 . S
C1334 N786 1.419 . S
C1345 N648 1.607 . S
C1343 N131 1.623 . S
C1354 N148 1.786 . S
C1356 C823 1.769 . S
C1365 N158 1.614 . S
C1367 C524 1.602 . S
C1378 C837 1.523 . S
C1376 N171 1.525 . S
C1387 N187 1.431 . S
C1389 C570 1.412 . S
C1400 N855 1.505 . S
C1398 N197 1.642 . S
C1409 N105 1.634 . S
C1411 N819 1.590 . S
C1422 N832 1.435 . S
C1420 N161 1.499 . S
C1431 N170 1.731 . S
C1433 N566 1.699 . S
C1444 C860 1.698 . S
C1442 N183 1.730 . S
C1453 N200 1.726 . S
C1455 N520 1.673 . S
C1464 N132 1.550 . S
C1466 C791 1.540 . S
C1475 N145 1.479 . S
C1477 C653 1.477 . S
C1486 N122 1.459 . S
C1488 C607 1.417 . S
C1497 N213 1.721 . S
C1499 C745 1.719 . S
C1510 C777 1.601 . S
C1508 N223 1.620 . S
C1519 N239 1.613 . S
C1521 N694 1.607 . S
C1530 N248 1.530 . S
C1532 N727 1.505 . S
C1541 N261 1.632 . S
C1543 C731 1.609 . S
C1552 N278 1.619 . S
C1554 N740 1.592 . S
C1565 N773 1.435 . S
C1563 N288 1.470 . S
C1574 N300 1.732 . S
C1576 C699 1.729 . S
C1587 N888 1.703 . S
C1585 N210 1.730 . S
C1596 N222 1.483 . S
C1598 N625 1.424 . S
C1609 N911 1.552 . S
C1607 N235 1.637 . S
C1618 N252 1.771 . S
C1620 N681 1.673 . S
C1629 N262 1.536 . S
C1631 C929 1.510 . S
C1640 N275 1.534 . S
C1642 C547 1.544 . S
C1653 N947 1.289 . S
C1651 N291 1.352 . S
C1662 N301 1.585 . S
C1664 C584 1.563 . S
C1675 C685 1.594 . S
C1673 N209 1.654 . S
C1686 N543 1.430 . S
C1684 N265 1.469 . S
C1695 N274 1.785 . S
C1697 C952 1.820 . S
C1706 N287 1.729 . S
C1708 N579 1.701 . S
C1719 N924 1.632 . S
C1717 N304 1.769 . S
C1730 C630 1.558 . S
C1728 N236 1.569 . S
C1741 C915 1.452 . S
C1739 N249 1.469 . S
C1752 C892 1.534 . S
C1750 N226 1.557 . S
C1761 N317 1.627 . S
C1763 N474 1.563 . S
C1772 N327 1.591 . S
C1774 C501 1.599 . S
C1785 C423 1.677 . S
C1783 N343 1.653 . S
C1796 N441 1.415 . S
C1794 N352 1.481 . S
C1807 C446 1.641 . S
C1805 N365 1.723 . S
C1818 C478 1.620 . S
C1816 N382 1.611 . S
C1829 N497 1.540 . S
C1827 N392 1.580 . S
C1838 N404 1.694 . S
C1840 N418 1.662 . S
C1849 N314 1.636 . S
C1851 N934 1.610 . S
C1862 N842 1.457 . S
C1860 N326 1.460 . S
C1873 C961 1.743 . S
C1871 N339 1.742 . S
C1884 C869 1.604 . S
C1882 N356 1.614 . S
C1893 N366 1.550 . S
C1895 C883 1.526 . S
C1906 C800 1.500 . S
C1904 N379 1.495 . S
C1917 C906 1.489 . S
C1915 N395 1.479 . S
C1926 N405 1.580 . S
C1928 N809 1.464 . S
C1939 N865 1.589 . S
C1937 N313 1.650 . S
C1950 N796 1.437 . S
C1948 N369 1.467 . S
C1961 N901 1.763 . S
C1959 N378 1.722 . S
C1970 N391 1.844 . S
C1972 C814 1.790 . S
C1981 N408 1.732 . S
C1983 N878 1.600 . S
C1992 N340 1.655 . S
C1994 C846 1.654 . S
C2003 N353 1.437 . S
C2005 N957 1.393 . S
C2016 C938 1.532 . S
C2014 N330 1.564 . S
