# Generated by pormake.
# Topology pts, (4,4)-cn, num edge types: 1
# Building blocks:
#     Node 0, Type 0, BuildingBlock: NAHDIM_clean_linker_0, # of connection points: 4
#     Node 1, Type 0, BuildingBlock: NAHDIM_clean_linker_0, # of connection points: 4
#     Node 2, Type 1, BuildingBlock: QUQFOY_clean_sbu_1, # of connection points: 4
#     Node 3, Type 1, BuildingBlock: QUQFOY_clean_sbu_1, # of connection points: 4
#     Edge 4, Type (0, 1), BuildingBlock: TEMPAE_clean_linker_10, # of connection points: 2
#     Edge 5, Type (0, 1), BuildingBlock: TEMPAE_clean_linker_10, # of connection points: 2
#     Edge 6, Type (0, 1), BuildingBlock: TEMPAE_clean_linker_10, # of connection points: 2
#     Edge 7, Type (0, 1), BuildingBlock: TEMPAE_clean_linker_10, # of connection points: 2
#     Edge 8, Type (0, 1), BuildingBlock: TEMPAE_clean_linker_10, # of connection points: 2
#     Edge 9, Type (0, 1), BuildingBlock: TEMPAE_clean_linker_10, # of connection points: 2
#     Edge 10, Type (0, 1), BuildingBlock: TEMPAE_clean_linker_10, # of connection points: 2
#     Edge 11, Type (0, 1), BuildingBlock: TEMPAE_clean_linker_10, # of connection points: 2
# Relax obj value: 0.113
# Max RMSD: 0.244
# Mean RMSD: 0.150
data_MOF--net-pts--node1-QUQFOY_clean_sbu_1--node2-NAHDIM_clean_linker_0--edge1-TEMPAE_clean_linker_10
_symmetry_space_group_name_H-M    P1
_symmetry_Int_Tables_number       1
_symmetry_cell_setting            triclinic
loop_
_symmetry_equiv_pos_as_xyz
'x, y, z'
_cell_length_a     30.29032
_cell_length_b     33.816773
_cell_length_c     55.973535
_cell_angle_alpha  90.279849
_cell_angle_beta   89.210298
_cell_angle_gamma 89.953343
loop_
_atom_site_label
_atom_site_type_symbol
_atom_site_fract_x
_atom_site_fract_y
_atom_site_fract_z
_atom_type_partial_charge
C0 C 0.71429 0.14919 0.11585 0.0
C1 C 0.70727 0.10793 0.12648 0.0
C2 C 0.67249 0.06634 0.09569 0.0
C3 C 0.67838 0.03171 0.08235 0.0
C4 C 0.64412 0.01593 0.06871 0.0
C5 C 0.60329 0.03623 0.06771 0.0
C6 C 0.59714 0.07157 0.081 0.0
C7 C 0.63165 0.08608 0.09508 0.0
C8 C 0.65163 0.97742 0.05549 0.0
C9 C 0.55416 0.09411 0.08024 0.0
C10 C 0.30098 0.8558 0.09321 0.0
C11 C 0.31977 0.89764 0.09501 0.0
C12 C 0.39682 0.91716 0.08912 0.0
C13 C 0.38927 0.95578 0.08103 0.0
C14 C 0.42301 0.97715 0.06949 0.0
C15 C 0.46486 0.95931 0.06576 0.0
C16 C 0.47287 0.92087 0.07459 0.0
C17 C 0.43879 0.9005 0.08645 0.0
C18 C 0.41382 0.01863 0.06105 0.0
C19 C 0.51713 0.901 0.07105 0.0
C20 C 0.40904 0.91581 0.91214 0.0
C21 C 0.39877 0.95412 0.92026 0.0
C22 C 0.43038 0.97701 0.93214 0.0
C23 C 0.4728 0.96098 0.9362 0.0
C24 C 0.48368 0.923 0.92717 0.0
C25 C 0.45171 0.90111 0.91496 0.0
C26 C 0.41823 0.018 0.94075 0.0
C27 C 0.52867 0.9051 0.931 0.0
C28 C 0.76556 0.15284 0.91375 0.0
C29 C 0.74929 0.11056 0.90981 0.0
C30 C 0.67267 0.08929 0.91491 0.0
C31 C 0.6305 0.10553 0.91758 0.0
C32 C 0.59664 0.08478 0.92939 0.0
C33 C 0.60512 0.04643 0.93822 0.0
C34 C 0.64719 0.02899 0.93447 0.0
C35 C 0.68065 0.05069 0.92293 0.0
C36 C 0.55212 0.10415 0.9329 0.0
C37 C 0.65688 0.98761 0.94292 0.0
C38 C 0.56696 0.01994 0.05308 0.0
C39 C 0.53303 0.99953 0.06485 0.0
C40 C 0.49987 0.98044 0.05209 0.0
C41 C 0.50086 0.98097 0.02682 0.0
C42 C 0.46942 0.96026 0.01339 0.0
C43 C 0.47082 0.96076 0.98855 0.0
C44 C 0.50348 0.98229 0.97612 0.0
C45 C 0.50511 0.98307 0.95085 0.0
C46 C 0.53839 0.00429 0.93908 0.0
C47 C 0.57034 0.02498 0.95187 0.0
C48 C 0.56907 0.02483 0.97716 0.0
C49 C 0.60041 0.04566 0.99061 0.0
C50 C 0.59957 0.04443 0.01546 0.0
C51 C 0.56723 0.02249 0.02785 0.0
C52 C 0.53445 0.00239 0.01467 0.0
C53 C 0.53558 0.00328 0.9893 0.0
C54 C 0.31876 0.84883 0.9096 0.0
C55 C 0.33381 0.89173 0.90689 0.0
O56 O 0.7073 0.07961 0.10851 0.0
O57 O 0.70472 0.11166 0.90454 0.0
O58 O 0.37866 0.89217 0.90165 0.0
O59 O 0.36455 0.8951 0.09955 0.0
H60 H 0.67517 0.10741 0.13641 0.0
H61 H 0.68704 0.15678 0.10366 0.0
H62 H 0.74584 0.15052 0.10552 0.0
H63 H 0.71499 0.17175 0.13034 0.0
H64 H 0.70997 0.01669 0.08296 0.0
H65 H 0.62657 0.113 0.10525 0.0
H66 H 0.62341 0.95702 0.05852 0.0
H67 H 0.68245 0.96244 0.06107 0.0
H68 H 0.65411 0.9832 0.03602 0.0
H69 H 0.55632 0.12334 0.08929 0.0
H70 H 0.5278 0.07659 0.08919 0.0
H71 H 0.54423 0.09869 0.06143 0.0
H72 H 0.31437 0.91182 0.07735 0.0
H73 H 0.26518 0.85687 0.08915 0.0
H74 H 0.3056 0.83955 0.11021 0.0
H75 H 0.31816 0.83932 0.07859 0.0
H76 H 0.3572 0.96934 0.08379 0.0
H77 H 0.44437 0.87088 0.09308 0.0
H78 H 0.44009 0.03902 0.06721 0.0
H79 H 0.38132 0.02982 0.06759 0.0
H80 H 0.41412 0.01914 0.04122 0.0
H81 H 0.51716 0.87009 0.07769 0.0
H82 H 0.54279 0.91795 0.08068 0.0
H83 H 0.52644 0.90082 0.05179 0.0
H84 H 0.3271 0.90646 0.92444 0.0
H85 H 0.36616 0.96617 0.91733 0.0
H86 H 0.45941 0.87173 0.90828 0.0
H87 H 0.41632 0.01831 0.96057 0.0
H88 H 0.38595 0.02794 0.93374 0.0
H89 H 0.4441 0.03948 0.93523 0.0
H90 H 0.53129 0.87456 0.92371 0.0
H91 H 0.53592 0.90444 0.95039 0.0
H92 H 0.55427 0.9237 0.9222 0.0
H93 H 0.75465 0.09458 0.9269 0.0
H94 H 0.80115 0.15284 0.91832 0.0
H95 H 0.74677 0.16674 0.92877 0.0
H96 H 0.76081 0.17092 0.89745 0.0
H97 H 0.62457 0.13512 0.91099 0.0
H98 H 0.71287 0.03744 0.92009 0.0
H99 H 0.54326 0.10498 0.95222 0.0
H100 H 0.52653 0.08642 0.92372 0.0
H101 H 0.55139 0.13478 0.92582 0.0
H102 H 0.6897 0.97687 0.93658 0.0
H103 H 0.6311 0.9669 0.93655 0.0
H104 H 0.65611 0.98701 0.96275 0.0
H105 H 0.53282 0.99793 0.08421 0.0
H106 H 0.44351 0.94316 0.02194 0.0
H107 H 0.4459 0.94403 0.97922 0.0
H108 H 0.53961 0.00452 0.91969 0.0
H109 H 0.62616 0.06295 0.98207 0.0
H110 H 0.62465 0.06087 0.02487 0.0
H111 H 0.325 0.8319 0.89282 0.0
H112 H 0.28294 0.84762 0.91411 0.0
H113 H 0.33719 0.83451 0.92425 0.0
C114 C 0.0126 0.36342 0.65122 0.0
C115 C 0.01499 0.33297 0.63079 0.0
C116 C 0.04335 0.37685 0.59926 0.0
C117 C 0.00312 0.39557 0.59411 0.0
C118 C 0.00206 0.4297 0.57997 0.0
C119 C 0.04202 0.44574 0.57096 0.0
C120 C 0.08251 0.42663 0.57575 0.0
C121 C 0.08252 0.39208 0.58958 0.0
C122 C 0.95821 0.4489 0.57486 0.0
C123 C 0.1258 0.44303 0.56656 0.0
C124 C 0.05777 0.75265 0.63572 0.0
C125 C 0.06993 0.71916 0.61964 0.0
C126 C 0.0365 0.66189 0.60004 0.0
C127 C 0.07595 0.64825 0.58928 0.0
C128 C 0.07676 0.61319 0.57576 0.0
C129 C 0.03717 0.5918 0.57242 0.0
C130 C 0.99731 0.60574 0.58291 0.0
C131 C 0.9976 0.64054 0.59669 0.0
C132 C 0.12001 0.59902 0.56503 0.0
C133 C 0.95442 0.58388 0.57955 0.0
C134 C 0.04578 0.67078 0.42185 0.0
C135 C 0.08465 0.65463 0.43127 0.0
C136 C 0.0846 0.61697 0.4417 0.0
C137 C 0.04477 0.59522 0.44317 0.0
C138 C 0.00588 0.61088 0.43319 0.0
C139 C 0.00703 0.64837 0.4225 0.0
C140 C 0.12696 0.60082 0.4517 0.0
C141 C 0.96289 0.58845 0.4344 0.0
C142 C 0.05923 0.2875 0.43894 0.0
C143 C 0.04456 0.30374 0.4148 0.0
C144 C 0.06179 0.3742 0.41904 0.0
C145 C 0.09871 0.39802 0.42285 0.0
C146 C 0.09465 0.43497 0.43423 0.0
C147 C 0.05236 0.44872 0.44142 0.0
C148 C 0.01456 0.42584 0.43628 0.0
C149 C 0.01964 0.38872 0.42525 0.0
C150 C 0.13563 0.45878 0.43923 0.0
C151 C 0.96884 0.44028 0.44295 0.0
C152 C 0.04135 0.48303 0.55704 0.0
C153 C 0.03936 0.51876 0.5697 0.0
C154 C 0.03755 0.55498 0.55782 0.0
C155 C 0.03746 0.55578 0.53256 0.0
C156 C 0.03452 0.59161 0.52005 0.0
C157 C 0.03588 0.59221 0.49521 0.0
C158 C 0.04029 0.557 0.48189 0.0
C159 C 0.04333 0.55747 0.45664 0.0
C160 C 0.04694 0.52186 0.44392 0.0
C161 C 0.04793 0.48557 0.45581 0.0
C162 C 0.04551 0.48459 0.48107 0.0
C163 C 0.04683 0.44864 0.49361 0.0
C164 C 0.04485 0.44799 0.51845 0.0
C165 C 0.04221 0.48329 0.53176 0.0
C166 C 0.04043 0.51983 0.5195 0.0
C167 C 0.0419 0.52046 0.49413 0.0
C168 C 0.07866 0.75577 0.43745 0.0
C169 C 0.07635 0.73662 0.4126 0.0
O170 O 0.04595 0.34465 0.61371 0.0
O171 O 0.06821 0.3377 0.40927 0.0
O172 O 0.04387 0.70771 0.41227 0.0
O173 O 0.03456 0.69513 0.6138 0.0
H174 H 0.98206 0.33023 0.62242 0.0
H175 H 0.00198 0.39268 0.64448 0.0
H176 H 0.04544 0.3668 0.65959 0.0
H177 H 0.98823 0.35403 0.66508 0.0
H178 H 0.97235 0.38393 0.60108 0.0
H179 H 0.11337 0.37738 0.5935 0.0
H180 H 0.95648 0.47812 0.58393 0.0
H181 H 0.92984 0.43071 0.58113 0.0
H182 H 0.95502 0.45403 0.55537 0.0
H183 H 0.15461 0.42614 0.57314 0.0
H184 H 0.12919 0.47444 0.57213 0.0
H185 H 0.1264 0.44219 0.54673 0.0
H186 H 0.09961 0.70227 0.62534 0.0
H187 H 0.076 0.74679 0.65273 0.0
H188 H 0.02425 0.74551 0.64352 0.0
H189 H 0.06969 0.80262 0.61472 0.0
H190 H 0.10629 0.66468 0.59137 0.0
H191 H 0.9673 0.6513 0.60495 0.0
H192 H 0.11887 0.60136 0.54528 0.0
H193 H 0.12546 0.56743 0.56946 0.0
H194 H 0.14855 0.61653 0.57144 0.0
H195 H 0.92568 0.60045 0.58704 0.0
H196 H 0.95623 0.55476 0.58854 0.0
H197 H 0.94893 0.57826 0.56025 0.0
H198 H 0.10891 0.72318 0.40804 0.0
H199 H 0.11515 0.67117 0.43087 0.0
H200 H 0.97727 0.66083 0.41507 0.0
H201 H 0.12472 0.6008 0.47151 0.0
H202 H 0.15616 0.61865 0.44624 0.0
H203 H 0.13214 0.56979 0.44571 0.0
H204 H 0.93537 0.60495 0.4261 0.0
H205 H 0.954 0.58231 0.45334 0.0
H206 H 0.96674 0.55953 0.42512 0.0
H207 H 0.00874 0.31037 0.4162 0.0
H208 H 0.04132 0.25967 0.44313 0.0
H209 H 0.05168 0.30933 0.45332 0.0
H210 H 0.09533 0.28159 0.43878 0.0
H211 H 0.13101 0.38691 0.41762 0.0
H212 H 0.99049 0.37156 0.42141 0.0
H213 H 0.13836 0.464 0.45875 0.0
H214 H 0.13321 0.48811 0.43052 0.0
H215 H 0.16616 0.4438 0.43268 0.0
H216 H 0.9426 0.42125 0.43536 0.0
H217 H 0.96412 0.47104 0.43658 0.0
H218 H 0.96496 0.44063 0.4627 0.0
H219 H 0.03932 0.51837 0.58908 0.0
H220 H 0.03134 0.61966 0.52932 0.0
H221 H 0.03365 0.62073 0.48661 0.0
H222 H 0.04943 0.52242 0.42457 0.0
H223 H 0.04949 0.42051 0.48439 0.0
H224 H 0.04589 0.41944 0.5271 0.0
H225 H 0.10401 0.7795 0.43753 0.0
H226 H 0.08791 0.73348 0.45098 0.0
H227 H 0.04619 0.76865 0.44273 0.0
O228 O 0.97199 0.00585 0.2383 0.0
Cd229 Cd 0.03006 0.98442 0.25206 0.0
Cd230 Cd 0.05677 0.06037 0.24909 0.0
O231 O 0.9963 0.06662 0.23296 0.0
O232 O 0.0169 0.93008 0.26365 0.0
O233 O 0.0392 0.97829 0.28741 0.0
C234 C 0.02796 0.9417 0.28469 0.0
C235 C 0.06927 0.10287 0.28115 0.0
C236 C 0.96603 0.04088 0.23087 0.0
C237 C 0.11133 0.00194 0.22189 0.0
O238 O 0.10861 0.03772 0.22884 0.0
O239 O 0.08265 0.97685 0.22872 0.0
O240 O 0.0729 0.1148 0.25936 0.0
O241 O 0.0601 0.06604 0.28476 0.0
O242 O 0.00354 0.05068 0.78196 0.0
Cd243 Cd 0.06024 0.04542 0.7613 0.0
Cd244 Cd 0.03195 0.97027 0.75918 0.0
O245 O 0.97572 0.99131 0.77618 0.0
O246 O 0.0758 0.10127 0.75411 0.0
O247 O 0.0579 0.05804 0.72614 0.0
C248 C 0.06837 0.09383 0.73193 0.0
C249 C 0.02762 0.93061 0.72511 0.0
C250 C 0.97266 0.02577 0.7852 0.0
C251 C 0.11736 0.9859 0.78467 0.0
O252 O 0.08672 0.9615 0.78001 0.0
O253 O 0.11495 0.02137 0.77739 0.0
O254 O 0.01777 0.91712 0.74603 0.0
O255 O 0.03858 0.96744 0.72341 0.0
C256 C 0.25813 0.94255 0.10895 0.0
C257 C 0.29571 0.92046 0.11457 0.0
C258 C 0.23137 0.95934 0.12696 0.0
C259 C 0.24242 0.95382 0.15121 0.0
C260 C 0.2814 0.933 0.15699 0.0
C261 C 0.30735 0.9162 0.1386 0.0
C262 C 0.18991 0.98106 0.12005 0.0
C263 C 0.29446 0.92672 0.18262 0.0
C264 C 0.18009 0.01568 0.19763 0.0
C265 C 0.14671 0.98939 0.20489 0.0
C266 C 0.21224 0.00431 0.18057 0.0
C267 C 0.21066 0.96592 0.17041 0.0
C268 C 0.17753 0.93909 0.17797 0.0
C269 C 0.14615 0.95107 0.19515 0.0
C270 C 0.24738 0.03354 0.1731 0.0
C271 C 0.17453 0.89792 0.16748 0.0
H272 H 0.24876 0.94541 0.09041 0.0
H273 H 0.336 0.89863 0.14306 0.0
H274 H 0.16055 0.96375 0.12578 0.0
H275 H 0.18803 0.01014 0.12925 0.0
H276 H 0.18815 0.98591 0.10047 0.0
H277 H 0.32832 0.91436 0.18403 0.0
H278 H 0.29281 0.95499 0.19274 0.0
H279 H 0.27099 0.90593 0.19131 0.0
H280 H 0.1809 0.04529 0.20511 0.0
H281 H 0.12056 0.93049 0.20059 0.0
H282 H 0.24369 0.04089 0.15394 0.0
H283 H 0.28063 0.02029 0.17515 0.0
H284 H 0.24566 0.06136 0.18371 0.0
H285 H 0.16905 0.89971 0.14796 0.0
H286 H 0.14731 0.88039 0.17566 0.0
H287 H 0.20602 0.88184 0.17007 0.0
C288 C 0.9933 0.27014 0.65169 0.0
C289 C 0.02672 0.29285 0.64094 0.0
C290 C 0.00315 0.23554 0.66423 0.0
C291 C 0.04759 0.22294 0.66587 0.0
C292 C 0.08139 0.24471 0.65417 0.0
C293 C 0.07068 0.27981 0.6422 0.0
C294 C 0.96618 0.21368 0.67683 0.0
C295 C 0.12905 0.23185 0.65515 0.0
C296 C 0.07246 0.16557 0.72206 0.0
C297 C 0.06854 0.12627 0.71422 0.0
C298 C 0.06733 0.19722 0.70627 0.0
C299 C 0.05872 0.18949 0.68191 0.0
C300 C 0.05713 0.14991 0.67357 0.0
C301 C 0.06171 0.11869 0.68988 0.0
C302 C 0.06887 0.23897 0.71598 0.0
C303 C 0.04897 0.14055 0.64761 0.0
H304 H 0.95943 0.28047 0.65108 0.0
H305 H 0.09686 0.29746 0.6343 0.0
H306 H 0.9667 0.18196 0.67173 0.0
H307 H 0.97085 0.21538 0.69644 0.0
H308 H 0.9332 0.22605 0.67267 0.0
H309 H 0.15029 0.24853 0.64239 0.0
H310 H 0.14171 0.23669 0.67344 0.0
H311 H 0.13208 0.19979 0.65112 0.0
H312 H 0.07782 0.17176 0.74081 0.0
H313 H 0.05893 0.0884 0.68365 0.0
H314 H 0.03604 0.25313 0.7141 0.0
H315 H 0.09298 0.25689 0.70562 0.0
H316 H 0.07807 0.23998 0.73512 0.0
H317 H 0.01462 0.1487 0.64308 0.0
H318 H 0.05389 0.10868 0.64347 0.0
H319 H 0.07132 0.15821 0.63597 0.0
C320 C 0.78644 0.08925 0.13468 0.0
C321 C 0.7441 0.0984 0.14356 0.0
C322 C 0.82098 0.08019 0.15012 0.0
C323 C 0.81313 0.08048 0.17511 0.0
C324 C 0.77062 0.09012 0.18425 0.0
C325 C 0.7366 0.0991 0.16834 0.0
C326 C 0.86589 0.0702 0.13967 0.0
C327 C 0.76112 0.09088 0.21079 0.0
C328 C 0.89491 0.02183 0.2116 0.0
C329 C 0.92462 0.05138 0.21859 0.0
C330 C 0.85764 0.03105 0.19807 0.0
C331 C 0.84971 0.0708 0.19154 0.0
C332 C 0.87854 0.10096 0.19938 0.0
C333 C 0.91573 0.09087 0.21273 0.0
C334 C 0.82769 0.99807 0.18997 0.0
C335 C 0.87096 0.14373 0.19297 0.0
H336 H 0.79243 0.08908 0.11553 0.0
H337 H 0.70404 0.10654 0.17527 0.0
H338 H 0.89089 0.09127 0.14646 0.0
H339 H 0.87596 0.04018 0.14537 0.0
H340 H 0.86646 0.07119 0.11984 0.0
H341 H 0.72633 0.09905 0.21501 0.0
H342 H 0.76792 0.0614 0.21855 0.0
H343 H 0.78324 0.11235 0.21968 0.0
H344 H 0.90147 0.99124 0.21605 0.0
H345 H 0.93829 0.11396 0.21822 0.0
H346 H 0.82954 0.9953 0.17022 0.0
H347 H 0.79289 0.00488 0.19487 0.0
H348 H 0.8367 0.96915 0.19788 0.0
H349 H 0.87483 0.14753 0.17338 0.0
H350 H 0.89441 0.16392 0.20203 0.0
H351 H 0.83678 0.15274 0.19788 0.0
C352 C 0.0212 0.7725 0.60174 0.0
C353 C 0.07717 0.74966 0.60312 0.0
C354 C 0.00857 0.80672 0.62572 0.0
C355 C 0.05115 0.82257 0.64597 0.0
C356 C 0.10812 0.8075 0.64219 0.0
C357 C 0.12405 0.77338 0.6188 0.0
C358 C 0.96269 0.82194 0.62887 0.0
C359 C 0.14211 0.82265 0.6589 0.0
C360 C 0.04067 0.91786 0.68135 0.0
C361 C 0.02899 0.90376 0.70411 0.0
C362 C 0.04613 0.89173 0.66192 0.0
C363 C 0.04011 0.85067 0.66539 0.0
C364 C 0.02668 0.83648 0.68804 0.0
C365 C 0.02116 0.86317 0.70711 0.0
C366 C 0.05937 0.9079 0.63779 0.0
C367 C 0.01973 0.79295 0.69244 0.0
H368 H 0.99553 0.7604 0.59062 0.0
H369 H 0.15715 0.76138 0.61775 0.0
H370 H 0.94955 0.81263 0.64656 0.0
H371 H 0.96315 0.85474 0.62868 0.0
H372 H 0.94117 0.81054 0.61451 0.0
H373 H 0.17471 0.809 0.65489 0.0
H374 H 0.14445 0.85525 0.65725 0.0
H375 H 0.13172 0.816 0.67753 0.0
H376 H 0.04649 0.94919 0.67882 0.0
H377 H 0.01195 0.85197 0.72459 0.0
H378 H 0.03649 0.89685 0.62395 0.0
H379 H 0.09298 0.89728 0.63288 0.0
H380 H 0.05933 0.94075 0.63752 0.0
H381 H 0.99665 0.78063 0.67912 0.0
H382 H 0.00623 0.78699 0.71062 0.0
H383 H 0.05172 0.7772 0.69037 0.0
C384 C 0.31872 0.90531 0.86323 0.0
C385 C 0.30793 0.91171 0.8874 0.0
C386 C 0.29162 0.91978 0.84508 0.0
C387 C 0.25249 0.94056 0.8513 0.0
C388 C 0.24216 0.94809 0.87565 0.0
C389 C 0.26996 0.93348 0.8934 0.0
C390 C 0.30384 0.91131 0.81933 0.0
C391 C 0.20063 0.96996 0.88303 0.0
C392 C 0.18851 0.99976 0.80567 0.0
C393 C 0.15437 0.97341 0.8 0.0
C394 C 0.22159 0.98909 0.8218 0.0
C395 C 0.22028 0.95134 0.8326 0.0
C396 C 0.18668 0.92425 0.82641 0.0
C397 C 0.15429 0.93554 0.81015 0.0
C398 C 0.25718 0.01859 0.82779 0.0
C399 C 0.18404 0.88371 0.83758 0.0
H400 H 0.34771 0.88798 0.85854 0.0
H401 H 0.26128 0.93801 0.91206 0.0
H402 H 0.27992 0.89006 0.81168 0.0
H403 H 0.3021 0.93877 0.80861 0.0
H404 H 0.33754 0.89859 0.8174 0.0
H405 H 0.19907 0.97591 0.90256 0.0
H406 H 0.1985 0.99851 0.87344 0.0
H407 H 0.1713 0.95223 0.87808 0.0
H408 H 0.18898 0.02902 0.79787 0.0
H409 H 0.12815 0.91491 0.80589 0.0
H410 H 0.29027 0.00489 0.8255 0.0
H411 H 0.25377 0.02771 0.8468 0.0
H412 H 0.2556 0.04545 0.81649 0.0
H413 H 0.21565 0.86764 0.8348 0.0
H414 H 0.15693 0.86556 0.83011 0.0
H415 H 0.17855 0.88668 0.85715 0.0
C416 C 0.01535 0.25351 0.38545 0.0
C417 C 0.05165 0.27307 0.39531 0.0
C418 C 0.02105 0.22494 0.36743 0.0
C419 C 0.06418 0.21528 0.35925 0.0
C420 C 0.10109 0.23431 0.36945 0.0
C421 C 0.09438 0.26308 0.38733 0.0
C422 C 0.98081 0.2055 0.35691 0.0
C423 C 0.14757 0.22452 0.36134 0.0
C424 C 0.07372 0.11826 0.32494 0.0
C425 C 0.07255 0.13136 0.30122 0.0
C426 C 0.07295 0.14535 0.34407 0.0
C427 C 0.07022 0.18638 0.33933 0.0
C428 C 0.07028 0.19976 0.31542 0.0
C429 C 0.07178 0.17212 0.29667 0.0
C430 C 0.07372 0.13002 0.36935 0.0
C431 C 0.06689 0.24323 0.30961 0.0
H432 H 0.98231 0.26081 0.39174 0.0
H433 H 0.12252 0.27788 0.39511 0.0
H434 H 0.97942 0.21175 0.33749 0.0
H435 H 0.98292 0.17294 0.35894 0.0
H436 H 0.94961 0.21595 0.3655 0.0
H437 H 0.17276 0.24067 0.37182 0.0
H438 H 0.15363 0.19229 0.36301 0.0
H439 H 0.15202 0.23213 0.3422 0.0
H440 H 0.07455 0.08682 0.32857 0.0
H441 H 0.07075 0.1825 0.2784 0.0
H442 H 0.04167 0.13641 0.3784 0.0
H443 H 0.09973 0.14531 0.37965 0.0
H444 H 0.07977 0.09764 0.36999 0.0
H445 H 0.03479 0.25498 0.3163 0.0
H446 H 0.06945 0.24889 0.2901 0.0
H447 H 0.09328 0.26002 0.3187 0.0
C448 C 0.81326 0.06898 0.89511 0.0
C449 C 0.77562 0.09117 0.88975 0.0
C450 C 0.84187 0.05535 0.87695 0.0
C451 C 0.83271 0.06429 0.85283 0.0
C452 C 0.79378 0.0853 0.84722 0.0
C453 C 0.76588 0.09882 0.86577 0.0
C454 C 0.88316 0.03322 0.8837 0.0
C455 C 0.78274 0.09521 0.82172 0.0
C456 C 0.93325 0.07357 0.8122 0.0
C457 C 0.93448 0.0365 0.80083 0.0
C458 C 0.89967 0.08322 0.82869 0.0
C459 C 0.86619 0.05526 0.83388 0.0
C460 C 0.86622 0.01833 0.82186 0.0
C461 C 0.90047 0.00931 0.80551 0.0
C462 C 0.9009 0.12294 0.84115 0.0
C463 C 0.83079 0.98795 0.82677 0.0
H464 H 0.82115 0.06349 0.91363 0.0
H465 H 0.73717 0.11649 0.86157 0.0
H466 H 0.8862 0.00547 0.87315 0.0
H467 H 0.9126 0.05155 0.87947 0.0
H468 H 0.88358 0.02577 0.903 0.0
H469 H 0.74884 0.10739 0.82014 0.0
H470 H 0.80652 0.11743 0.81477 0.0
H471 H 0.78575 0.06855 0.81018 0.0
H472 H 0.95923 0.09487 0.80869 0.0
H473 H 0.90102 0.98065 0.79676 0.0
H474 H 0.90515 0.11865 0.86063 0.0
H475 H 0.86922 0.1388 0.83872 0.0
H476 H 0.92819 0.14195 0.83439 0.0
H477 H 0.83337 0.97735 0.84542 0.0
H478 H 0.83342 0.96208 0.81452 0.0
H479 H 0.7976 0.00141 0.82493 0.0
C480 C 0.10047 0.78247 0.3794 0.0
C481 C 0.06643 0.76785 0.3941 0.0
C482 C 0.09233 0.81189 0.36244 0.0
C483 C 0.04916 0.82746 0.3603 0.0
C484 C 0.01479 0.81344 0.37542 0.0
C485 C 0.02384 0.78382 0.39217 0.0
C486 C 0.12987 0.82599 0.34662 0.0
C487 C 0.96844 0.82954 0.37377 0.0
C488 C 0.04067 0.92565 0.3278 0.0
C489 C 0.02981 0.91318 0.30467 0.0
C490 C 0.04561 0.89819 0.34635 0.0
C491 C 0.03993 0.85734 0.34158 0.0
C492 C 0.02782 0.84474 0.31843 0.0
C493 C 0.02274 0.87279 0.30031 0.0
C494 C 0.05808 0.91276 0.37088 0.0
C495 C 0.02167 0.80145 0.31259 0.0
H496 H 0.13357 0.77071 0.38112 0.0
H497 H 0.99764 0.77306 0.4038 0.0
H498 H 0.12217 0.82004 0.32762 0.0
H499 H 0.13406 0.85842 0.34862 0.0
H500 H 0.16164 0.81134 0.35084 0.0
H501 H 0.9458 0.81649 0.38738 0.0
H502 H 0.96868 0.86213 0.37615 0.0
H503 H 0.9551 0.82333 0.35578 0.0
H504 H 0.04602 0.95681 0.33133 0.0
H505 H 0.01432 0.86286 0.28251 0.0
H506 H 0.09151 0.90182 0.37532 0.0
H507 H 0.03482 0.90094 0.38456 0.0
H508 H 0.05809 0.94556 0.37212 0.0
H509 H 0.05336 0.78549 0.31484 0.0
H510 H 0.01029 0.79666 0.29401 0.0
H511 H 0.99729 0.78803 0.32509 0.0
loop_
_geom_bond_atom_site_label_1
_geom_bond_atom_site_label_2
_geom_bond_distance
_geom_bond_site_symmetry_2
_ccdc_geom_bond_type
C0 C1 1.560 . S
C0 H61 0.959 . S
C0 H62 0.959 . S
C0 H63 0.960 . S
C1 C0 1.560 . S
C1 O56 1.426 . S
C1 H60 0.980 . S
C2 C3 1.407 1_545 S
C2 C7 1.418 . S
C2 O56 1.334 . S
C3 C2 1.407 1_565 S
C3 C4 1.360 . S
C3 H64 0.929 . S
C4 C3 1.360 . S
C4 C5 1.401 1_565 S
C4 C8 1.527 . S
C5 C4 1.401 1_545 S
C5 C6 1.405 . S
C5 C38 1.587 1_545 S
C6 C5 1.405 . S
C6 C7 1.332 . S
C6 C9 1.496 . S
C7 C2 1.418 . S
C7 C6 1.332 . S
C7 H65 0.929 . S
C8 C4 1.527 . S
C8 H66 0.959 . S
C8 H67 0.961 . S
C8 H68 0.961 . S
C9 C6 1.496 . S
C9 H69 0.960 . S
C9 H70 0.960 . S
C9 H71 0.961 . S
C10 C11 1.517 . S
C10 H73 0.961 1_565 S
C10 H74 0.960 . S
C10 H75 0.959 . S
C11 C10 1.517 . S
C11 O59 1.468 . S
C11 H72 0.980 1_565 S
C12 C13 1.349 1_565 S
C12 C17 1.367 . S
C12 O59 1.408 . S
C13 C12 1.349 1_545 S
C13 C14 1.407 . S
C13 H76 0.930 . S
C14 C13 1.407 . S
C14 C15 1.449 1_545 S
C14 C18 1.535 . S
C15 C14 1.449 1_565 S
C15 C16 1.384 . S
C15 C40 1.553 . S
C16 C15 1.384 . S
C16 C17 1.364 . S
C16 C19 1.450 . S
C17 C12 1.367 . S
C17 C16 1.364 . S
C17 H77 0.931 . S
C18 C14 1.535 . S
C18 H78 0.959 . S
C18 H79 0.961 . S
C18 H80 0.959 . S
C19 C16 1.450 . S
C19 H81 0.960 . S
C19 H82 0.960 . S
C19 H83 0.960 . S
C20 C21 1.309 1_565 S
C20 C25 1.304 . S
C20 O58 1.435 . S
C21 C20 1.309 1_545 S
C21 C22 1.476 . S
C21 H85 0.930 . S
C22 C21 1.476 . S
C22 C23 1.400 1_545 S
C22 C26 1.567 . S
C23 C22 1.400 1_565 S
C23 C24 1.373 . S
C23 C45 1.432 . S
C24 C23 1.373 . S
C24 C25 1.339 . S
C24 C27 1.530 . S
C25 C20 1.304 . S
C25 C24 1.339 . S
C25 H86 0.930 . S
C26 C22 1.567 . S
C26 H87 0.961 . S
C26 H88 0.960 . S
C26 H89 0.958 . S
C27 C24 1.530 . S
C27 H90 0.961 . S
C27 H91 0.960 . S
C27 H92 0.960 . S
C28 C29 1.530 . S
C28 H94 0.961 . S
C28 H95 0.961 . S
C28 H96 0.959 . S
C29 C28 1.530 . S
C29 O57 1.412 . S
C29 H93 0.980 . S
C30 C31 1.288 . S
C30 C35 1.377 1_545 S
C30 O57 1.393 . S
C31 C30 1.288 . S
C31 C32 1.369 . S
C31 H97 0.932 . S
C32 C31 1.369 . S
C32 C33 1.398 . S
C32 C36 1.527 . S
C33 C32 1.398 . S
C33 C34 1.380 1_545 S
C33 C47 1.497 . S
C34 C33 1.380 1_565 S
C34 C35 1.383 . S
C34 C37 1.603 . S
C35 C30 1.377 1_565 S
C35 C34 1.383 . S
C35 H98 0.929 . S
C36 C32 1.527 . S
C36 H99 0.961 . S
C36 H100 0.959 . S
C36 H101 0.959 . S
C37 C34 1.603 . S
C37 H102 0.960 . S
C37 H103 0.962 . S
C37 H104 0.961 . S
C38 C5 1.587 1_565 S
C38 C39 1.360 . S
C38 C51 1.412 . S
C39 C38 1.360 . S
C39 C40 1.365 . S
C39 H105 0.929 . S
C40 C15 1.553 . S
C40 C39 1.365 . S
C40 C41 1.404 . S
C41 C40 1.404 . S
C41 C42 1.395 . S
C41 C52 1.451 . S
C42 C41 1.395 . S
C42 C43 1.331 . S
C42 H106 0.930 . S
C43 C42 1.331 . S
C43 C44 1.453 1_554 S
C43 H107 0.925 1_554 S
C44 C43 1.453 1_556 S
C44 C45 1.445 . S
C44 C53 1.395 . S
C45 C23 1.432 . S
C45 C44 1.445 . S
C45 C46 1.370 . S
C46 C45 1.370 . S
C46 C47 1.438 1_565 S
C46 H108 0.930 . S
C47 C33 1.497 . S
C47 C46 1.438 1_545 S
C47 C48 1.358 1_545 S
C48 C47 1.358 1_565 S
C48 C49 1.399 1_565 S
C48 C53 1.449 . S
C49 C48 1.399 1_545 S
C49 C50 1.347 1_556 S
C49 H109 0.929 . S
C50 C49 1.347 1_554 S
C50 C51 1.455 1_545 S
C50 H110 0.930 . S
C51 C38 1.412 . S
C51 C50 1.455 1_565 S
C51 C52 1.331 . S
C52 C41 1.451 . S
C52 C51 1.331 . S
C52 C53 1.497 1_554 S
C53 C44 1.395 . S
C53 C48 1.449 . S
C53 C52 1.497 1_556 S
C54 C55 1.582 1_565 S
C54 H111 0.962 . S
C54 H112 0.959 . S
C54 H113 0.958 . S
C55 C54 1.582 1_545 S
C55 O58 1.458 1_545 S
C55 H84 0.980 . S
O56 C1 1.426 . S
O56 C2 1.334 . S
O57 C29 1.412 . S
O57 C30 1.393 . S
O58 C20 1.435 . S
O58 C55 1.458 1_565 S
O59 C11 1.468 . S
O59 C12 1.408 . S
H60 C1 0.980 . S
H61 C0 0.959 . S
H62 C0 0.959 . S
H63 C0 0.960 . S
H64 C3 0.929 . S
H65 C7 0.929 . S
H66 C8 0.959 . S
H67 C8 0.961 . S
H68 C8 0.961 . S
H69 C9 0.960 . S
H70 C9 0.960 . S
H71 C9 0.961 . S
H72 C11 0.980 1_545 S
H73 C10 0.961 1_545 S
H74 C10 0.960 . S
H75 C10 0.959 . S
H76 C13 0.930 . S
H77 C17 0.931 . S
H78 C18 0.959 . S
H79 C18 0.961 . S
H80 C18 0.959 . S
H81 C19 0.960 . S
H82 C19 0.960 . S
H83 C19 0.960 . S
H84 C55 0.980 . S
H85 C21 0.930 . S
H86 C25 0.930 . S
H87 C26 0.961 . S
H88 C26 0.960 . S
H89 C26 0.958 . S
H90 C27 0.961 . S
H91 C27 0.960 . S
H92 C27 0.960 . S
H93 C29 0.980 . S
H94 C28 0.961 . S
H95 C28 0.961 . S
H96 C28 0.959 . S
H97 C31 0.932 . S
H98 C35 0.929 . S
H99 C36 0.961 . S
H100 C36 0.959 . S
H101 C36 0.959 . S
H102 C37 0.960 . S
H103 C37 0.962 . S
H104 C37 0.961 . S
H105 C39 0.929 . S
H106 C42 0.930 . S
H107 C43 0.925 1_556 S
H108 C46 0.930 . S
H109 C49 0.929 . S
H110 C50 0.930 . S
H111 C54 0.962 . S
H112 C54 0.959 . S
H113 C54 0.958 . S
C114 C115 1.560 . S
C114 H175 0.959 . S
C114 H176 0.959 . S
C114 H177 0.960 . S
C115 C114 1.560 . S
C115 O170 1.426 . S
C115 H174 0.980 . S
C116 C117 1.407 . S
C116 C121 1.418 . S
C116 O170 1.334 . S
C117 C116 1.407 . S
C117 C118 1.360 . S
C117 H178 0.929 . S
C118 C117 1.360 . S
C118 C119 1.401 . S
C118 C122 1.527 1_455 S
C119 C118 1.401 . S
C119 C120 1.405 . S
C119 C152 1.587 . S
C120 C119 1.405 . S
C120 C121 1.332 . S
C120 C123 1.496 . S
C121 C116 1.418 . S
C121 C120 1.332 . S
C121 H179 0.929 . S
C122 C118 1.527 1_655 S
C122 H180 0.959 . S
C122 H181 0.961 . S
C122 H182 0.961 . S
C123 C120 1.496 . S
C123 H183 0.960 . S
C123 H184 0.960 . S
C123 H185 0.961 . S
C124 C125 1.517 . S
C124 H187 0.961 . S
C124 H188 0.960 1_455 S
C124 H189 0.959 . S
C125 C124 1.517 . S
C125 O173 1.468 1_455 S
C125 H186 0.980 . S
C126 C127 1.349 1_655 S
C126 C131 1.367 . S
C126 O173 1.408 . S
C127 C126 1.349 1_455 S
C127 C128 1.407 . S
C127 H190 0.930 . S
C128 C127 1.407 . S
C128 C129 1.449 . S
C128 C132 1.535 . S
C129 C128 1.449 . S
C129 C130 1.384 1_455 S
C129 C154 1.553 . S
C130 C129 1.384 1_655 S
C130 C131 1.364 . S
C130 C133 1.450 . S
C131 C126 1.367 . S
C131 C130 1.364 . S
C131 H191 0.931 . S
C132 C128 1.535 . S
C132 H192 0.959 . S
C132 H193 0.961 . S
C132 H194 0.959 . S
C133 C130 1.450 . S
C133 H195 0.960 . S
C133 H196 0.960 . S
C133 H197 0.960 . S
C134 C135 1.309 . S
C134 C139 1.304 1_455 S
C134 O172 1.435 . S
C135 C134 1.309 . S
C135 C136 1.476 . S
C135 H199 0.930 . S
C136 C135 1.476 . S
C136 C137 1.400 . S
C136 C140 1.567 . S
C137 C136 1.400 . S
C137 C138 1.373 1_455 S
C137 C159 1.432 . S
C138 C137 1.373 1_655 S
C138 C139 1.339 . S
C138 C141 1.530 . S
C139 C134 1.304 1_655 S
C139 C138 1.339 . S
C139 H200 0.930 . S
C140 C136 1.567 . S
C140 H201 0.961 . S
C140 H202 0.960 . S
C140 H203 0.958 . S
C141 C138 1.530 . S
C141 H204 0.961 . S
C141 H205 0.960 . S
C141 H206 0.960 . S
C142 C143 1.530 . S
C142 H208 0.961 . S
C142 H209 0.961 . S
C142 H210 0.959 . S
C143 C142 1.530 . S
C143 O171 1.412 . S
C143 H207 0.980 . S
C144 C145 1.288 . S
C144 C149 1.377 . S
C144 O171 1.393 . S
C145 C144 1.288 . S
C145 C146 1.369 . S
C145 H211 0.932 . S
C146 C145 1.369 . S
C146 C147 1.398 . S
C146 C150 1.527 . S
C147 C146 1.398 . S
C147 C148 1.380 . S
C147 C161 1.497 . S
C148 C147 1.380 . S
C148 C149 1.383 . S
C148 C151 1.603 1_455 S
C149 C144 1.377 . S
C149 C148 1.383 . S
C149 H212 0.929 . S
C150 C146 1.527 . S
C150 H213 0.961 . S
C150 H214 0.959 . S
C150 H215 0.959 . S
C151 C148 1.603 1_655 S
C151 H216 0.960 . S
C151 H217 0.962 . S
C151 H218 0.961 . S
C152 C119 1.587 . S
C152 C153 1.360 . S
C152 C165 1.412 . S
C153 C152 1.360 . S
C153 C154 1.365 . S
C153 H219 0.929 . S
C154 C129 1.553 . S
C154 C153 1.365 . S
C154 C155 1.404 . S
C155 C154 1.404 . S
C155 C156 1.395 . S
C155 C166 1.451 . S
C156 C155 1.395 . S
C156 C157 1.322 . S
C156 H220 0.930 . S
C157 C156 1.322 . S
C157 C158 1.459 . S
C157 H221 0.929 . S
C158 C157 1.459 . S
C158 C159 1.445 . S
C158 C167 1.395 . S
C159 C137 1.432 . S
C159 C158 1.445 . S
C159 C160 1.370 . S
C160 C159 1.370 . S
C160 C161 1.438 . S
C160 H222 0.930 . S
C161 C147 1.497 . S
C161 C160 1.438 . S
C161 C162 1.360 . S
C162 C161 1.360 . S
C162 C163 1.401 . S
C162 C167 1.446 . S
C163 C162 1.401 . S
C163 C164 1.347 . S
C163 H223 0.929 . S
C164 C163 1.347 . S
C164 C165 1.455 . S
C164 H224 0.930 . S
C165 C152 1.412 . S
C165 C164 1.455 . S
C165 C166 1.331 . S
C166 C155 1.451 . S
C166 C165 1.331 . S
C166 C167 1.497 . S
C167 C158 1.395 . S
C167 C162 1.446 . S
C167 C166 1.497 . S
C168 C169 1.582 . S
C168 H225 0.962 . S
C168 H226 0.959 . S
C168 H227 0.958 1_455 S
C169 C168 1.582 . S
C169 O172 1.458 . S
C169 H198 0.980 . S
O170 C115 1.426 . S
O170 C116 1.334 . S
O171 C143 1.412 . S
O171 C144 1.393 . S
O172 C134 1.435 . S
O172 C169 1.458 . S
O173 C125 1.468 1_655 S
O173 C126 1.408 . S
H174 C115 0.980 . S
H175 C114 0.959 . S
H176 C114 0.959 . S
H177 C114 0.960 . S
H178 C117 0.929 . S
H179 C121 0.929 . S
H180 C122 0.959 . S
H181 C122 0.961 . S
H182 C122 0.961 . S
H183 C123 0.960 . S
H184 C123 0.960 . S
H185 C123 0.961 . S
H186 C125 0.980 . S
H187 C124 0.961 . S
H188 C124 0.960 1_655 S
H189 C124 0.959 . S
H190 C127 0.930 . S
H191 C131 0.931 . S
H192 C132 0.959 . S
H193 C132 0.961 . S
H194 C132 0.959 . S
H195 C133 0.960 . S
H196 C133 0.960 . S
H197 C133 0.960 . S
H198 C169 0.980 . S
H199 C135 0.930 . S
H200 C139 0.930 . S
H201 C140 0.961 . S
H202 C140 0.960 . S
H203 C140 0.958 . S
H204 C141 0.961 . S
H205 C141 0.960 . S
H206 C141 0.960 . S
H207 C143 0.980 . S
H208 C142 0.961 . S
H209 C142 0.961 . S
H210 C142 0.959 . S
H211 C145 0.932 . S
H212 C149 0.929 . S
H213 C150 0.961 . S
H214 C150 0.959 . S
H215 C150 0.959 . S
H216 C151 0.960 . S
H217 C151 0.962 . S
H218 C151 0.961 . S
H219 C153 0.929 . S
H220 C156 0.930 . S
H221 C157 0.929 . S
H222 C160 0.930 . S
H223 C163 0.929 . S
H224 C164 0.930 . S
H225 C168 0.962 . S
H226 C168 0.959 . S
H227 C168 0.958 1_655 S
O228 Cd229 2.223 . S
O228 C236 1.315 1_455 S
Cd229 O228 2.223 . S
Cd229 O232 2.297 . S
Cd229 O233 2.439 . S
Cd229 O239 2.240 1_565 S
Cd230 O231 2.240 1_455 S
Cd230 O238 2.223 . S
Cd230 O240 2.297 . S
Cd230 O241 2.439 . S
O231 Cd230 2.240 1_655 S
O231 C236 1.279 1_545 S
O232 Cd229 2.297 . S
O232 C234 1.247 . S
O233 Cd229 2.439 . S
O233 C234 1.208 . S
C234 O232 1.247 . S
C234 O233 1.208 . S
C235 O240 1.247 . S
C235 O241 1.208 . S
C236 O228 1.315 1_655 S
C236 O231 1.279 1_565 S
C237 O238 1.315 . S
C237 O239 1.279 . S
O238 Cd230 2.223 . S
O238 C237 1.315 . S
O239 Cd229 2.240 1_545 S
O239 C237 1.279 . S
O240 Cd230 2.297 . S
O240 C235 1.247 . S
O241 Cd230 2.439 . S
O241 C235 1.208 . S
O242 Cd243 2.223 . S
O242 C250 1.315 1_455 S
Cd243 O242 2.223 . S
Cd243 O246 2.297 . S
Cd243 O247 2.439 . S
Cd243 O253 2.240 . S
Cd244 O245 2.240 1_465 S
Cd244 O252 2.223 . S
Cd244 O254 2.297 . S
Cd244 O255 2.439 . S
O245 Cd244 2.240 1_645 S
O245 C250 1.279 . S
O246 Cd243 2.297 . S
O246 C248 1.247 . S
O247 Cd243 2.439 . S
O247 C248 1.208 . S
C248 O246 1.247 . S
C248 O247 1.208 . S
C249 O254 1.247 . S
C249 O255 1.208 . S
C250 O242 1.315 1_655 S
C250 O245 1.279 . S
C251 O252 1.315 . S
C251 O253 1.279 1_565 S
O252 Cd244 2.223 . S
O252 C251 1.315 . S
O253 Cd243 2.240 . S
O253 C251 1.279 1_545 S
O254 Cd244 2.297 . S
O254 C249 1.247 . S
O255 Cd244 2.439 . S
O255 C249 1.208 . S
C256 C257 1.391 . S
C256 C258 1.394 . S
C256 H272 0.931 . S
C257 C256 1.391 . S
C257 C261 1.376 1_545 S
C258 C256 1.394 . S
C258 C259 1.369 . S
C258 C262 1.531 . S
C259 C258 1.369 . S
C259 C260 1.410 1_545 S
C259 C267 1.503 . S
C260 C259 1.410 1_565 S
C260 C261 1.392 . S
C260 C263 1.511 . S
C261 C257 1.376 1_565 S
C261 C260 1.392 . S
C261 H273 0.929 . S
C262 C258 1.531 . S
C262 H274 0.960 . S
C262 H275 0.962 . S
C262 H276 0.960 . S
C263 C260 1.511 . S
C263 H277 0.961 . S
C263 H278 0.961 1_565 S
C263 H279 0.961 . S
C264 C265 1.370 . S
C264 C266 1.363 . S
C264 H280 0.931 . S
C265 C264 1.370 . S
C265 C269 1.414 . S
C266 C264 1.363 . S
C266 C267 1.370 . S
C266 C270 1.524 . S
C267 C259 1.503 . S
C267 C266 1.370 . S
C267 C268 1.403 1_545 S
C268 C267 1.403 1_565 S
C268 C269 1.403 1_565 S
C268 C271 1.539 . S
C269 C265 1.414 . S
C269 C268 1.403 1_545 S
C269 H281 0.925 1_545 S
C270 C266 1.524 . S
C270 H282 0.956 . S
C270 H283 0.961 . S
C270 H284 0.961 . S
C271 C268 1.539 . S
C271 H285 0.958 . S
C271 H286 0.961 . S
C271 H287 0.960 . S
H272 C256 0.931 . S
H273 C261 0.929 . S
H274 C262 0.960 . S
H275 C262 0.962 . S
H276 C262 0.960 . S
H277 C263 0.961 . S
H278 C263 0.961 1_545 S
H279 C263 0.961 . S
H280 C264 0.931 . S
H281 C269 0.925 1_565 S
H282 C270 0.956 . S
H283 C270 0.961 . S
H284 C270 0.961 . S
H285 C271 0.958 . S
H286 C271 0.961 . S
H287 C271 0.960 . S
C288 C289 1.391 . S
C288 C290 1.394 . S
C288 H304 0.931 1_455 S
C289 C288 1.391 . S
C289 C293 1.376 . S
C290 C288 1.394 . S
C290 C291 1.369 . S
C290 C294 1.531 1_455 S
C291 C290 1.369 . S
C291 C292 1.410 . S
C291 C299 1.503 . S
C292 C291 1.410 . S
C292 C293 1.392 . S
C292 C295 1.511 . S
C293 C289 1.376 . S
C293 C292 1.392 . S
C293 H305 0.929 . S
C294 C290 1.531 1_655 S
C294 H306 0.960 . S
C294 H307 0.962 . S
C294 H308 0.960 . S
C295 C292 1.511 . S
C295 H309 0.961 . S
C295 H310 0.961 . S
C295 H311 0.961 . S
C296 C297 1.370 . S
C296 C298 1.363 . S
C296 H312 0.931 1_455 S
C297 C296 1.370 . S
C297 C301 1.408 . S
C298 C296 1.363 . S
C298 C299 1.370 . S
C298 C302 1.524 . S
C299 C291 1.503 . S
C299 C298 1.370 . S
C299 C300 1.403 . S
C300 C299 1.403 . S
C300 C301 1.404 . S
C300 C303 1.539 . S
C301 C297 1.408 . S
C301 C300 1.404 . S
C301 H313 0.930 . S
C302 C298 1.524 . S
C302 H314 0.956 1_455 S
C302 H315 0.961 . S
C302 H316 0.957 1_455 S
C303 C300 1.539 . S
C303 H317 0.958 . S
C303 H318 0.961 . S
C303 H319 0.960 . S
H304 C288 0.931 1_655 S
H305 C293 0.929 . S
H306 C294 0.960 . S
H307 C294 0.962 . S
H308 C294 0.960 . S
H309 C295 0.961 . S
H310 C295 0.961 . S
H311 C295 0.961 . S
H312 C296 0.931 1_655 S
H313 C301 0.930 . S
H314 C302 0.956 1_655 S
H315 C302 0.961 . S
H316 C302 0.957 1_655 S
H317 C303 0.958 . S
H318 C303 0.961 . S
H319 C303 0.960 . S
C320 C321 1.391 . S
C320 C322 1.394 . S
C320 H336 0.931 . S
C321 C320 1.391 . S
C321 C325 1.376 . S
C322 C320 1.394 . S
C322 C323 1.369 . S
C322 C326 1.531 . S
C323 C322 1.369 . S
C323 C324 1.410 . S
C323 C331 1.503 . S
C324 C323 1.410 . S
C324 C325 1.392 . S
C324 C327 1.511 . S
C325 C321 1.376 . S
C325 C324 1.392 . S
C325 H337 0.929 . S
C326 C322 1.531 . S
C326 H338 0.960 . S
C326 H339 0.962 . S
C326 H340 0.960 . S
C327 C324 1.511 . S
C327 H341 0.961 1_545 S
C327 H342 0.961 1_545 S
C327 H343 0.961 . S
C328 C329 1.370 1_565 S
C328 C330 1.363 . S
C328 H344 0.931 . S
C329 C328 1.370 1_545 S
C329 C333 1.408 . S
C330 C328 1.363 . S
C330 C331 1.370 1_565 S
C330 C334 1.524 . S
C331 C323 1.503 . S
C331 C330 1.370 1_545 S
C331 C332 1.403 . S
C332 C331 1.403 . S
C332 C333 1.404 . S
C332 C335 1.539 . S
C333 C329 1.408 . S
C333 C332 1.404 . S
C333 H345 0.930 . S
C334 C330 1.524 . S
C334 H346 0.956 . S
C334 H347 0.961 . S
C334 H348 0.961 . S
C335 C332 1.539 . S
C335 H349 0.958 . S
C335 H350 0.961 . S
C335 H351 0.960 . S
H336 C320 0.931 . S
H337 C325 0.929 . S
H338 C326 0.960 . S
H339 C326 0.962 . S
H340 C326 0.960 . S
H341 C327 0.961 1_565 S
H342 C327 0.961 1_565 S
H343 C327 0.961 . S
H344 C328 0.931 . S
H345 C333 0.930 . S
H346 C334 0.956 . S
H347 C334 0.961 . S
H348 C334 0.961 . S
H349 C335 0.958 . S
H350 C335 0.961 . S
H351 C335 0.960 . S
C352 C353 1.391 . S
C352 C354 1.394 . S
C352 H368 0.931 1_455 S
C353 C352 1.391 . S
C353 C357 1.376 . S
C354 C352 1.394 . S
C354 C355 1.369 . S
C354 C358 1.531 1_455 S
C355 C354 1.369 . S
C355 C356 1.410 . S
C355 C363 1.503 . S
C356 C355 1.410 . S
C356 C357 1.392 . S
C356 C359 1.511 . S
C357 C353 1.376 . S
C357 C356 1.392 . S
C357 H369 0.929 . S
C358 C354 1.531 1_655 S
C358 H370 0.960 . S
C358 H371 0.962 . S
C358 H372 0.960 . S
C359 C356 1.511 . S
C359 H373 0.961 . S
C359 H374 0.961 . S
C359 H375 0.961 . S
C360 C361 1.370 . S
C360 C362 1.363 . S
C360 H376 0.931 . S
C361 C360 1.370 . S
C361 C365 1.408 . S
C362 C360 1.363 . S
C362 C363 1.370 . S
C362 C366 1.524 . S
C363 C355 1.503 . S
C363 C362 1.370 . S
C363 C364 1.403 . S
C364 C363 1.403 . S
C364 C365 1.404 . S
C364 C367 1.539 . S
C365 C361 1.408 . S
C365 C364 1.404 . S
C365 H377 0.930 . S
C366 C362 1.524 . S
C366 H378 0.956 . S
C366 H379 0.961 . S
C366 H380 0.961 . S
C367 C364 1.539 . S
C367 H381 0.958 . S
C367 H382 0.961 . S
C367 H383 0.960 . S
H368 C352 0.931 1_655 S
H369 C357 0.929 . S
H370 C358 0.960 . S
H371 C358 0.962 . S
H372 C358 0.960 . S
H373 C359 0.961 . S
H374 C359 0.961 . S
H375 C359 0.961 . S
H376 C360 0.931 . S
H377 C365 0.930 . S
H378 C366 0.956 . S
H379 C366 0.961 . S
H380 C366 0.961 . S
H381 C367 0.958 . S
H382 C367 0.961 . S
H383 C367 0.960 . S
C384 C385 1.391 . S
C384 C386 1.394 . S
C384 H400 0.931 . S
C385 C384 1.391 . S
C385 C389 1.376 . S
C386 C384 1.394 . S
C386 C387 1.369 1_545 S
C386 C390 1.531 1_545 S
C387 C386 1.369 1_565 S
C387 C388 1.410 1_565 S
C387 C395 1.503 . S
C388 C387 1.410 1_545 S
C388 C389 1.392 . S
C388 C391 1.511 1_545 S
C389 C385 1.376 . S
C389 C388 1.392 . S
C389 H401 0.929 . S
C390 C386 1.531 1_565 S
C390 H402 0.960 . S
C390 H403 0.962 1_565 S
C390 H404 0.960 . S
C391 C388 1.511 1_565 S
C391 H405 0.961 1_565 S
C391 H406 0.961 1_565 S
C391 H407 0.961 . S
C392 C393 1.370 1_545 S
C392 C394 1.363 . S
C392 H408 0.931 . S
C393 C392 1.370 1_565 S
C393 C397 1.408 . S
C394 C392 1.363 . S
C394 C395 1.370 1_545 S
C394 C398 1.524 . S
C395 C387 1.503 . S
C395 C394 1.370 1_565 S
C395 C396 1.403 . S
C396 C395 1.403 . S
C396 C397 1.404 . S
C396 C399 1.539 . S
C397 C393 1.408 . S
C397 C396 1.404 . S
C397 H409 0.930 . S
C398 C394 1.524 . S
C398 H410 0.956 . S
C398 H411 0.961 . S
C398 H412 0.961 . S
C399 C396 1.539 . S
C399 H413 0.958 . S
C399 H414 0.961 . S
C399 H415 0.960 . S
H400 C384 0.931 . S
H401 C389 0.929 . S
H402 C390 0.960 . S
H403 C390 0.962 1_545 S
H404 C390 0.960 . S
H405 C391 0.961 1_545 S
H406 C391 0.961 1_545 S
H407 C391 0.961 . S
H408 C392 0.931 . S
H409 C397 0.930 . S
H410 C398 0.956 . S
H411 C398 0.961 . S
H412 C398 0.961 . S
H413 C399 0.958 . S
H414 C399 0.961 . S
H415 C399 0.960 . S
C416 C417 1.391 . S
C416 C418 1.394 . S
C416 H432 0.931 1_455 S
C417 C416 1.391 . S
C417 C421 1.376 . S
C418 C416 1.394 . S
C418 C419 1.369 . S
C418 C422 1.531 1_455 S
C419 C418 1.369 . S
C419 C420 1.410 . S
C419 C427 1.503 . S
C420 C419 1.410 . S
C420 C421 1.392 . S
C420 C423 1.511 . S
C421 C417 1.376 . S
C421 C420 1.392 . S
C421 H433 0.929 . S
C422 C418 1.531 1_655 S
C422 H434 0.960 . S
C422 H435 0.962 . S
C422 H436 0.960 . S
C423 C420 1.511 . S
C423 H437 0.961 . S
C423 H438 0.961 . S
C423 H439 0.961 . S
C424 C425 1.370 . S
C424 C426 1.363 . S
C424 H440 0.931 . S
C425 C424 1.370 . S
C425 C429 1.408 . S
C426 C424 1.363 . S
C426 C427 1.370 . S
C426 C430 1.524 . S
C427 C419 1.503 . S
C427 C426 1.370 . S
C427 C428 1.403 . S
C428 C427 1.403 . S
C428 C429 1.404 . S
C428 C431 1.539 . S
C429 C425 1.408 . S
C429 C428 1.404 . S
C429 H441 0.930 . S
C430 C426 1.524 . S
C430 H442 0.956 . S
C430 H443 0.961 . S
C430 H444 0.961 . S
C431 C428 1.539 . S
C431 H445 0.958 . S
C431 H446 0.961 . S
C431 H447 0.960 . S
H432 C416 0.931 1_655 S
H433 C421 0.929 . S
H434 C422 0.960 . S
H435 C422 0.962 . S
H436 C422 0.960 . S
H437 C423 0.961 . S
H438 C423 0.961 . S
H439 C423 0.961 . S
H440 C424 0.931 . S
H441 C429 0.930 . S
H442 C430 0.956 . S
H443 C430 0.961 . S
H444 C430 0.961 . S
H445 C431 0.958 . S
H446 C431 0.961 . S
H447 C431 0.960 . S
C448 C449 1.391 1_565 S
C448 C450 1.394 . S
C448 H464 0.931 . S
C449 C448 1.391 1_545 S
C449 C453 1.376 . S
C450 C448 1.394 . S
C450 C451 1.369 1_565 S
C450 C454 1.531 . S
C451 C450 1.369 1_545 S
C451 C452 1.410 . S
C451 C459 1.503 . S
C452 C451 1.410 . S
C452 C453 1.392 . S
C452 C455 1.511 . S
C453 C449 1.376 . S
C453 C452 1.392 . S
C453 H465 0.929 . S
C454 C450 1.531 . S
C454 H466 0.960 . S
C454 H467 0.962 . S
C454 H468 0.960 . S
C455 C452 1.511 . S
C455 H469 0.961 . S
C455 H470 0.961 . S
C455 H471 0.961 . S
C456 C457 1.370 . S
C456 C458 1.363 . S
C456 H472 0.931 . S
C457 C456 1.370 . S
C457 C461 1.408 1_545 S
C458 C456 1.363 . S
C458 C459 1.370 . S
C458 C462 1.524 . S
C459 C451 1.503 . S
C459 C458 1.370 . S
C459 C460 1.403 1_545 S
C460 C459 1.403 1_565 S
C460 C461 1.404 . S
C460 C463 1.539 . S
C461 C457 1.408 1_565 S
C461 C460 1.404 . S
C461 H473 0.930 . S
C462 C458 1.524 . S
C462 H474 0.956 . S
C462 H475 0.961 . S
C462 H476 0.961 . S
C463 C460 1.539 . S
C463 H477 0.958 . S
C463 H478 0.961 . S
C463 H479 0.960 . S
H464 C448 0.931 . S
H465 C453 0.929 . S
H466 C454 0.960 . S
H467 C454 0.962 . S
H468 C454 0.960 . S
H469 C455 0.961 . S
H470 C455 0.961 . S
H471 C455 0.961 . S
H472 C456 0.931 . S
H473 C461 0.930 . S
H474 C462 0.956 . S
H475 C462 0.961 . S
H476 C462 0.961 . S
H477 C463 0.958 . S
H478 C463 0.961 . S
H479 C463 0.960 . S
C480 C481 1.391 . S
C480 C482 1.394 . S
C480 H496 0.931 . S
C481 C480 1.391 . S
C481 C485 1.376 . S
C482 C480 1.394 . S
C482 C483 1.369 . S
C482 C486 1.531 . S
C483 C482 1.369 . S
C483 C484 1.410 . S
C483 C491 1.503 . S
C484 C483 1.410 . S
C484 C485 1.392 . S
C484 C487 1.511 1_455 S
C485 C481 1.376 . S
C485 C484 1.392 . S
C485 H497 0.929 1_455 S
C486 C482 1.531 . S
C486 H498 0.960 . S
C486 H499 0.962 . S
C486 H500 0.960 . S
C487 C484 1.511 1_655 S
C487 H501 0.961 . S
C487 H502 0.961 . S
C487 H503 0.961 . S
C488 C489 1.370 . S
C488 C490 1.363 . S
C488 H504 0.931 . S
C489 C488 1.370 . S
C489 C493 1.408 . S
C490 C488 1.363 . S
C490 C491 1.370 . S
C490 C494 1.524 . S
C491 C483 1.503 . S
C491 C490 1.370 . S
C491 C492 1.403 . S
C492 C491 1.403 . S
C492 C493 1.404 . S
C492 C495 1.539 1_455 S
C493 C489 1.408 . S
C493 C492 1.404 . S
C493 H505 0.930 1_455 S
C494 C490 1.524 . S
C494 H506 0.956 . S
C494 H507 0.961 . S
C494 H508 0.961 . S
C495 C492 1.539 1_655 S
C495 H509 0.958 1_655 S
C495 H510 0.961 . S
C495 H511 0.960 . S
H496 C480 0.931 . S
H497 C485 0.929 1_655 S
H498 C486 0.960 . S
H499 C486 0.962 . S
H500 C486 0.960 . S
H501 C487 0.961 . S
H502 C487 0.961 . S
H503 C487 0.961 . S
H504 C488 0.931 . S
H505 C493 0.930 1_655 S
H506 C494 0.956 . S
H507 C494 0.961 . S
H508 C494 0.961 . S
H509 C495 0.958 1_455 S
H510 C495 0.961 . S
H511 C495 0.960 . S
C265 C237 1.612 . S
C257 C11 0.977 1_545 S
C297 C248 1.393 . S
C289 C115 1.240 . S
C329 C236 1.429 1_545 S
C321 C1 1.073 . S
C361 C249 1.533 . S
C353 C125 0.967 . S
C393 C251 1.664 . S
C385 C55 1.148 . S
C425 C235 1.468 . S
C417 C143 1.248 . S
C457 C250 1.522 . S
C449 C29 1.257 . S
C481 C169 1.199 . S
C489 C234 1.626 . S
