# Generated by pormake.
# Topology apo, (3,6)-cn, num edge types: 1
# Building blocks:
#     Node 0, Type 0, BuildingBlock: ESEHIV_clean_linker_0, # of connection points: 3
#     Node 1, Type 0, BuildingBlock: ESEHIV_clean_linker_0, # of connection points: 3
#     Node 2, Type 0, BuildingBlock: ESEHIV_clean_linker_0, # of connection points: 3
#     Node 3, Type 0, BuildingBlock: ESEHIV_clean_linker_0, # of connection points: 3
#     Node 4, Type 0, BuildingBlock: ESEHIV_clean_linker_0, # of connection points: 3
#     Node 5, Type 0, BuildingBlock: ESEHIV_clean_linker_0, # of connection points: 3
#     Node 6, Type 0, BuildingBlock: ESEHIV_clean_linker_0, # of connection points: 3
#     Node 7, Type 0, BuildingBlock: ESEHIV_clean_linker_0, # of connection points: 3
#     Node 8, Type 1, BuildingBlock: KUMJIN_clean_sbu_1, # of connection points: 6
#     Node 9, Type 1, BuildingBlock: KUMJIN_clean_sbu_1, # of connection points: 6
#     Node 10, Type 1, BuildingBlock: KUMJIN_clean_sbu_1, # of connection points: 6
#     Node 11, Type 1, BuildingBlock: KUMJIN_clean_sbu_1, # of connection points: 6
#     Edge 12, Type (0, 1), BuildingBlock: UVAHIK_clean_linker_0, # of connection points: 2
#     Edge 13, Type (0, 1), BuildingBlock: UVAHIK_clean_linker_0, # of connection points: 2
#     Edge 14, Type (0, 1), BuildingBlock: UVAHIK_clean_linker_0, # of connection points: 2
#     Edge 15, Type (0, 1), BuildingBlock: UVAHIK_clean_linker_0, # of connection points: 2
#     Edge 16, Type (0, 1), BuildingBlock: UVAHIK_clean_linker_0, # of connection points: 2
#     Edge 17, Type (0, 1), BuildingBlock: UVAHIK_clean_linker_0, # of connection points: 2
#     Edge 18, Type (0, 1), BuildingBlock: UVAHIK_clean_linker_0, # of connection points: 2
#     Edge 19, Type (0, 1), BuildingBlock: UVAHIK_clean_linker_0, # of connection points: 2
#     Edge 20, Type (0, 1), BuildingBlock: UVAHIK_clean_linker_0, # of connection points: 2
#     Edge 21, Type (0, 1), BuildingBlock: UVAHIK_clean_linker_0, # of connection points: 2
#     Edge 22, Type (0, 1), BuildingBlock: UVAHIK_clean_linker_0, # of connection points: 2
#     Edge 23, Type (0, 1), BuildingBlock: UVAHIK_clean_linker_0, # of connection points: 2
#     Edge 24, Type (0, 1), BuildingBlock: UVAHIK_clean_linker_0, # of connection points: 2
#     Edge 25, Type (0, 1), BuildingBlock: UVAHIK_clean_linker_0, # of connection points: 2
#     Edge 26, Type (0, 1), BuildingBlock: UVAHIK_clean_linker_0, # of connection points: 2
#     Edge 27, Type (0, 1), BuildingBlock: UVAHIK_clean_linker_0, # of connection points: 2
#     Edge 28, Type (0, 1), BuildingBlock: UVAHIK_clean_linker_0, # of connection points: 2
#     Edge 29, Type (0, 1), BuildingBlock: UVAHIK_clean_linker_0, # of connection points: 2
#     Edge 30, Type (0, 1), BuildingBlock: UVAHIK_clean_linker_0, # of connection points: 2
#     Edge 31, Type (0, 1), BuildingBlock: UVAHIK_clean_linker_0, # of connection points: 2
#     Edge 32, Type (0, 1), BuildingBlock: UVAHIK_clean_linker_0, # of connection points: 2
#     Edge 33, Type (0, 1), BuildingBlock: UVAHIK_clean_linker_0, # of connection points: 2
#     Edge 34, Type (0, 1), BuildingBlock: UVAHIK_clean_linker_0, # of connection points: 2
#     Edge 35, Type (0, 1), BuildingBlock: UVAHIK_clean_linker_0, # of connection points: 2
# Relax obj value: 0.009
# Max RMSD: 0.097
# Mean RMSD: 0.076
data_MOF--net-apo--node1-KUMJIN_clean_sbu_1--node2-ESEHIV_clean_linker_0--edge1-UVAHIK_clean_linker_0
_symmetry_space_group_name_H-M    P1
_symmetry_Int_Tables_number       1
_symmetry_cell_setting            triclinic
loop_
_symmetry_equiv_pos_as_xyz
'x, y, z'
_cell_length_a     29.245653
_cell_length_b     53.237766
_cell_length_c     64.555303
_cell_angle_alpha  89.995462
_cell_angle_beta   89.942349
_cell_angle_gamma 90.48434
loop_
_atom_site_label
_atom_site_type_symbol
_atom_site_fract_x
_atom_site_fract_y
_atom_site_fract_z
_atom_type_partial_charge
H0 H 0.32809 0.41045 0.43063 0.0
H1 H 0.26813 0.38071 0.37495 0.0
H2 H 0.25552 0.33951 0.43184 0.0
C3 C 0.30851 0.39587 0.42288 0.0
C4 C 0.293 0.37472 0.43406 0.0
C5 C 0.29899 0.39835 0.40166 0.0
C6 C 0.27476 0.3792 0.39143 0.0
C7 C 0.25951 0.35793 0.40226 0.0
C8 C 0.26806 0.35588 0.42356 0.0
H9 H 0.18493 0.08007 0.92768 0.0
H10 H 0.25694 0.10594 0.87385 0.0
H11 H 0.25827 0.15048 0.92957 0.0
C12 C 0.2064 0.09413 0.92027 0.0
C13 C 0.22114 0.11537 0.93145 0.0
C14 C 0.21929 0.09071 0.89955 0.0
C15 C 0.24672 0.1089 0.88979 0.0
C16 C 0.26026 0.13092 0.90027 0.0
C17 C 0.24759 0.13383 0.92121 0.0
H18 H 0.83655 0.08515 0.5763 0.0
H19 H 0.77754 0.11035 0.63345 0.0
H20 H 0.77097 0.15726 0.57929 0.0
C21 C 0.81814 0.09932 0.58492 0.0
C22 C 0.80437 0.12156 0.57502 0.0
C23 C 0.8083 0.09517 0.60593 0.0
C24 C 0.78507 0.11361 0.61722 0.0
C25 C 0.77203 0.13628 0.60786 0.0
C26 C 0.78141 0.13997 0.58668 0.0
H27 H 0.67561 0.40687 0.07443 0.0
H28 H 0.73237 0.38181 0.13208 0.0
H29 H 0.74413 0.3359 0.07731 0.0
C30 C 0.69413 0.39293 0.08325 0.0
C31 C 0.70838 0.37072 0.07357 0.0
C32 C 0.70331 0.3971 0.10432 0.0
C33 C 0.72696 0.37883 0.11566 0.0
C34 C 0.74196 0.3565 0.10623 0.0
C35 C 0.73233 0.35268 0.08508 0.0
H36 H 0.66976 0.58323 0.57582 0.0
H37 H 0.74004 0.65472 0.57554 0.0
H38 H 0.73489 0.61033 0.63117 0.0
C39 C 0.68903 0.59775 0.58382 0.0
C40 C 0.70072 0.59429 0.60471 0.0
C41 C 0.70366 0.61934 0.57302 0.0
C42 C 0.72908 0.63787 0.58362 0.0
C43 C 0.74063 0.63473 0.60459 0.0
C44 C 0.72674 0.61274 0.61491 0.0
H45 H 0.8339 0.91001 0.0772 0.0
H46 H 0.77619 0.87832 0.13266 0.0
H47 H 0.76717 0.83746 0.07536 0.0
C48 C 0.81596 0.89477 0.08494 0.0
C49 C 0.80188 0.87346 0.0736 0.0
C50 C 0.80702 0.89651 0.10627 0.0
C51 C 0.78326 0.87696 0.1162 0.0
C52 C 0.76846 0.85571 0.10517 0.0
C53 C 0.77821 0.85396 0.0839 0.0
H54 H 0.1725 0.9062 0.42903 0.0
H55 H 0.24934 0.83779 0.43056 0.0
H56 H 0.23175 0.87723 0.37303 0.0
C57 C 0.19242 0.8921 0.42109 0.0
C58 C 0.20029 0.89434 0.39966 0.0
C59 C 0.20997 0.87176 0.43236 0.0
C60 C 0.23568 0.85346 0.42192 0.0
C61 C 0.24367 0.85513 0.40047 0.0
C62 C 0.22582 0.87571 0.38953 0.0
H63 H 0.33588 0.58611 0.93081 0.0
H64 H 0.27756 0.61473 0.87448 0.0
H65 H 0.26803 0.65768 0.93057 0.0
C66 C 0.31727 0.6006 0.92267 0.0
C67 C 0.3033 0.62227 0.93334 0.0
C68 C 0.30769 0.59762 0.90147 0.0
C69 C 0.28441 0.61668 0.89091 0.0
C70 C 0.27018 0.63837 0.90131 0.0
C71 C 0.27925 0.64094 0.92254 0.0
Eu72 Eu 0.05642 0.13352 0.23669 0.0
C73 C 0.86018 0.10278 0.25385 0.0
N74 N 0.87639 0.12677 0.2527 0.0
C75 C 0.81575 0.13793 0.22965 0.0
C76 C 0.82156 0.09526 0.24229 0.0
C77 C 0.85444 0.14448 0.24122 0.0
C78 C 0.79941 0.11318 0.23008 0.0
C79 C 0.86728 0.06052 0.26749 0.0
C80 C 0.88328 0.08555 0.26615 0.0
C81 C 0.82938 0.05284 0.25565 0.0
C82 C 0.80659 0.07016 0.2431 0.0
Eu83 Eu 0.94257 0.13593 0.27219 0.0
N84 N 0.9204 0.09338 0.27722 0.0
C85 C 0.88915 0.04408 0.2811 0.0
C86 C 0.93862 0.07812 0.292 0.0
C87 C 0.92432 0.05308 0.29374 0.0
H88 H 0.86713 0.1636 0.24089 0.0
H89 H 0.93983 0.0409 0.30512 0.0
H90 H 0.12445 0.08777 0.25409 0.0
H91 H 0.08868 0.23454 0.22933 0.0
H92 H 0.96327 0.08525 0.30294 0.0
H93 H 0.87789 0.02472 0.28259 0.0
H94 H 0.04449 0.1953 0.22564 0.0
H95 H 0.79866 0.15192 0.22037 0.0
H96 H 0.81698 0.03362 0.25635 0.0
H97 H 0.77721 0.06398 0.23418 0.0
H98 H 0.20163 0.08353 0.2692 0.0
H99 H 0.76963 0.10813 0.22097 0.0
H100 H 0.16641 0.23373 0.24435 0.0
N101 N 0.12969 0.12739 0.25078 0.0
C102 C 0.15625 0.1483 0.25297 0.0
C103 C 0.18922 0.10185 0.26476 0.0
C104 C 0.20067 0.14672 0.2613 0.0
C105 C 0.14543 0.10433 0.25638 0.0
C106 C 0.21696 0.12313 0.26725 0.0
N107 N 0.09531 0.17251 0.2395 0.0
C108 C 0.07771 0.19466 0.23271 0.0
C109 C 0.16553 0.19347 0.24916 0.0
C110 C 0.13877 0.17147 0.24703 0.0
C111 C 0.14695 0.2164 0.24294 0.0
C112 C 0.103 0.21695 0.23454 0.0
H113 H 0.2509 0.12114 0.27374 0.0
H114 H 0.26148 0.16777 0.26991 0.0
H115 H 0.23079 0.20865 0.25926 0.0
O116 O 0.05379 0.13894 0.20313 0.0
O117 O 0.06309 0.1535 0.26776 0.0
O118 O 0.99163 0.16867 0.276 0.0
O119 O 0.10427 0.11423 0.2162 0.0
O120 O 0.99594 0.15602 0.22463 0.0
O121 O 0.95535 0.17077 0.25296 0.0
O122 O 0.9247 0.13592 0.30552 0.0
O123 O 0.94093 0.12066 0.23909 0.0
O124 O 0.00859 0.10005 0.23654 0.0
O125 O 0.88643 0.1587 0.28351 0.0
O126 O 0.00689 0.11795 0.2857 0.0
O127 O 0.04119 0.10002 0.25716 0.0
C128 C 0.03625 0.16867 0.27817 0.0
C129 C 0.12448 0.1364 0.18571 0.0
C130 C 0.15317 0.14469 0.1508 0.0
C131 C 0.18856 0.15943 0.15931 0.0
C132 C 0.16054 0.15086 0.19384 0.0
C133 C 0.19226 0.16236 0.18071 0.0
C134 C 0.12112 0.13316 0.16415 0.0
C135 C 0.96679 0.17163 0.23327 0.0
C136 C 0.08962 0.12523 0.19949 0.0
C137 C 0.22729 0.16863 0.26351 0.0
C138 C 0.2098 0.19192 0.25745 0.0
C139 C 0.96493 0.10163 0.23243 0.0
C140 C 0.86171 0.16137 0.31932 0.0
C141 C 0.84203 0.16595 0.35595 0.0
C142 C 0.8071 0.18262 0.35042 0.0
C143 C 0.82627 0.17796 0.31424 0.0
C144 C 0.86909 0.15511 0.34028 0.0
C145 C 0.79916 0.18842 0.3297 0.0
C146 C 0.03411 0.10113 0.27727 0.0
C147 C 0.89163 0.15179 0.30265 0.0
H148 H 0.21391 0.1683 0.14941 0.0
H149 H 0.16433 0.15325 0.21031 0.0
H150 H 0.21991 0.17352 0.18715 0.0
H151 H 0.09336 0.12199 0.15777 0.0
H152 H 0.78564 0.19102 0.36218 0.0
H153 H 0.81969 0.1831 0.29829 0.0
H154 H 0.89641 0.14245 0.34446 0.0
H155 H 0.77207 0.20123 0.32562 0.0
Eu156 Eu 0.45609 0.35531 0.73851 0.0
C157 C 0.64637 0.39929 0.76455 0.0
N158 N 0.63471 0.37505 0.76061 0.0
C159 C 0.70231 0.36986 0.74011 0.0
C160 C 0.68588 0.41016 0.75565 0.0
C161 C 0.66258 0.35998 0.74918 0.0
C162 C 0.71374 0.39515 0.74316 0.0
C163 C 0.63145 0.4379 0.78311 0.0
C164 C 0.61948 0.4129 0.7781 0.0
C165 C 0.66944 0.44928 0.77347 0.0
C166 C 0.69668 0.43541 0.75982 0.0
Eu167 Eu 0.56745 0.35954 0.77633 0.0
N168 N 0.58363 0.40114 0.7875 0.0
C169 C 0.606 0.45035 0.79827 0.0
C170 C 0.56168 0.41241 0.80364 0.0
C171 C 0.57153 0.43736 0.80887 0.0
H172 H 0.65365 0.34045 0.74687 0.0
H173 H 0.5531 0.44639 0.82132 0.0
H174 H 0.38303 0.3957 0.76232 0.0
H175 H 0.42414 0.25792 0.71725 0.0
H176 H 0.53711 0.40208 0.81281 0.0
H177 H 0.61403 0.46956 0.80255 0.0
H178 H 0.46386 0.29927 0.71638 0.0
H179 H 0.724 0.358 0.73076 0.0
H180 H 0.67887 0.46854 0.77698 0.0
H181 H 0.72657 0.44421 0.75293 0.0
H182 H 0.31597 0.3935 0.78521 0.0
H183 H 0.74446 0.40278 0.73607 0.0
H184 H 0.35781 0.25145 0.74057 0.0
N185 N 0.38882 0.356 0.75919 0.0
C186 C 0.36726 0.33349 0.76194 0.0
C187 C 0.33051 0.37641 0.77908 0.0
C188 C 0.32737 0.33148 0.77417 0.0
C189 C 0.36939 0.37751 0.76648 0.0
C190 C 0.30988 0.35323 0.78327 0.0
N191 N 0.42097 0.31537 0.73924 0.0
C192 C 0.43503 0.29638 0.72661 0.0
C193 C 0.3597 0.28951 0.75244 0.0
C194 C 0.38322 0.31269 0.75132 0.0
C195 C 0.37507 0.26953 0.74021 0.0
C196 C 0.41255 0.27309 0.72704 0.0
H197 H 0.27935 0.35248 0.79278 0.0
H198 H 0.27479 0.30617 0.78573 0.0
H199 H 0.30303 0.26943 0.76663 0.0
O200 O 0.4588 0.35447 0.70458 0.0
O201 O 0.47535 0.32239 0.75933 0.0
O202 O 0.50019 0.34375 0.78763 0.0
O203 O 0.39975 0.36964 0.7199 0.0
O204 O 0.52136 0.33879 0.72545 0.0
O205 O 0.56605 0.32679 0.7536 0.0
O206 O 0.60363 0.35887 0.80604 0.0
O207 O 0.57237 0.37592 0.74365 0.0
O208 O 0.49978 0.39045 0.73922 0.0
O209 O 0.60329 0.32603 0.78654 0.0
O210 O 0.49933 0.37458 0.7881 0.0
O211 O 0.46378 0.39007 0.75898 0.0
C212 C 0.48184 0.32366 0.77941 0.0
C213 C 0.38749 0.34875 0.68809 0.0
C214 C 0.36181 0.33946 0.65289 0.0
C215 C 0.33174 0.32112 0.66089 0.0
C216 C 0.35658 0.33067 0.69574 0.0
C217 C 0.32913 0.31685 0.68218 0.0
C218 C 0.38978 0.35321 0.66665 0.0
C219 C 0.55346 0.3249 0.73398 0.0
C220 C 0.41752 0.36293 0.7023 0.0
C221 C 0.30521 0.30809 0.77625 0.0
C222 C 0.32123 0.28717 0.76534 0.0
C223 C 0.54342 0.39122 0.73469 0.0
C224 C 0.60108 0.31927 0.82293 0.0
C225 C 0.60012 0.31279 0.8606 0.0
C226 C 0.57997 0.28898 0.85732 0.0
C227 C 0.5805 0.29553 0.82026 0.0
C228 C 0.6106 0.32782 0.84316 0.0
C229 C 0.57002 0.28058 0.83736 0.0
C230 C 0.47271 0.39104 0.77898 0.0
C231 C 0.61299 0.33508 0.80477 0.0
H232 H 0.30948 0.31044 0.65071 0.0
H233 H 0.35337 0.32731 0.71217 0.0
H234 H 0.30548 0.30291 0.68822 0.0
H235 H 0.41349 0.36722 0.6607 0.0
H236 H 0.57244 0.27653 0.87015 0.0
H237 H 0.57245 0.2884 0.80497 0.0
H238 H 0.62574 0.34629 0.84523 0.0
H239 H 0.55433 0.26229 0.83512 0.0
Eu240 Eu 0.06045 0.85058 0.73493 0.0
C241 C 0.8605 0.82546 0.75398 0.0
N242 N 0.87834 0.84903 0.75213 0.0
C243 C 0.8167 0.86101 0.72993 0.0
C244 C 0.8203 0.81858 0.74328 0.0
C245 C 0.85692 0.86692 0.74062 0.0
C246 C 0.79842 0.83671 0.73118 0.0
C247 C 0.86585 0.78333 0.76806 0.0
C248 C 0.88355 0.80796 0.76604 0.0
C249 C 0.82623 0.7763 0.75714 0.0
C250 C 0.80354 0.79387 0.74479 0.0
Eu251 Eu 0.94648 0.85733 0.77042 0.0
N252 N 0.9223 0.81517 0.77627 0.0
C253 C 0.88777 0.76665 0.78143 0.0
C254 C 0.94078 0.79972 0.79087 0.0
C255 C 0.92479 0.77506 0.79321 0.0
H256 H 0.87121 0.88567 0.73961 0.0
H257 H 0.94042 0.76274 0.80446 0.0
H258 H 0.12915 0.81317 0.76236 0.0
H259 H 0.08881 0.94703 0.70751 0.0
H260 H 0.96681 0.80638 0.80132 0.0
H261 H 0.87521 0.74759 0.78342 0.0
H262 H 0.04842 0.90668 0.70999 0.0
H263 H 0.79993 0.87515 0.72067 0.0
H264 H 0.81246 0.7574 0.75839 0.0
H265 H 0.77288 0.78818 0.73656 0.0
H266 H 0.20453 0.8154 0.77954 0.0
H267 H 0.76746 0.83214 0.72273 0.0
H268 H 0.16324 0.95298 0.725 0.0
N269 N 0.13197 0.85084 0.75165 0.0
C270 C 0.15716 0.87233 0.74992 0.0
C271 C 0.19149 0.83158 0.77138 0.0
C272 C 0.20057 0.87435 0.75931 0.0
C273 C 0.14859 0.83047 0.76189 0.0
C274 C 0.21756 0.85364 0.77014 0.0
N275 N 0.09633 0.89037 0.73073 0.0
C276 C 0.07931 0.90922 0.71873 0.0
C277 C 0.16381 0.91537 0.73777 0.0
C278 C 0.13869 0.8927 0.73937 0.0
C279 C 0.14501 0.93528 0.7266 0.0
C280 C 0.10286 0.93206 0.71682 0.0
H281 H 0.25075 0.85447 0.77757 0.0
H282 H 0.25865 0.89891 0.76504 0.0
H283 H 0.22661 0.93474 0.74612 0.0
O284 O 0.06926 0.84918 0.70076 0.0
O285 O 0.06864 0.87188 0.76544 0.0
O286 O 0.99785 0.88929 0.771 0.0
O287 O 0.10884 0.8249 0.72121 0.0
O288 O 1.00056 0.87231 0.72116 0.0
O289 O 0.96231 0.89 0.74908 0.0
O290 O 0.92936 0.85917 0.8038 0.0
O291 O 0.94121 0.84052 0.73804 0.0
O292 O 0.00806 0.81911 0.73596 0.0
O293 O 0.89333 0.88243 0.7814 0.0
O294 O 0.00954 0.83957 0.78504 0.0
O295 O 0.04123 0.81937 0.75708 0.0
C296 C 0.04206 0.8885 0.77438 0.0
C297 C 0.1238 0.81981 0.68466 0.0
C298 C 0.14093 0.81635 0.64767 0.0
C299 C 0.16825 0.79535 0.65191 0.0
C300 C 0.15138 0.79877 0.68837 0.0
C301 C 0.17343 0.7867 0.6721 0.0
C302 C 0.11889 0.82871 0.6642 0.0
C303 C 0.9731 0.88931 0.72926 0.0
C304 C 0.10011 0.83171 0.70232 0.0
C305 C 0.22531 0.89699 0.75787 0.0
C306 C 0.20699 0.91743 0.74715 0.0
C307 C 0.96523 0.82189 0.7307 0.0
C308 C 0.86923 0.88691 0.81717 0.0
C309 C 0.84413 0.88936 0.85327 0.0
C310 C 0.81135 0.90719 0.84749 0.0
C311 C 0.83625 0.90487 0.81187 0.0
C312 C 0.87344 0.8794 0.83804 0.0
C313 C 0.80767 0.91495 0.82696 0.0
C314 C 0.0365 0.82232 0.77715 0.0
C315 C 0.89777 0.87583 0.80064 0.0
H316 H 0.18615 0.78575 0.63957 0.0
H317 H 0.15583 0.79146 0.7039 0.0
H318 H 0.19462 0.77055 0.67516 0.0
H319 H 0.09766 0.84486 0.66111 0.0
H320 H 0.78876 0.91531 0.85895 0.0
H321 H 0.83224 0.91107 0.796 0.0
H322 H 0.89856 0.8655 0.84235 0.0
H323 H 0.78239 0.92875 0.8227 0.0
Eu324 Eu 0.44841 0.64005 0.23638 0.0
C325 C 0.64952 0.66432 0.2529 0.0
N326 N 0.63138 0.64077 0.25149 0.0
C327 C 0.69184 0.62827 0.22877 0.0
C328 C 0.68927 0.67091 0.2417 0.0
C329 C 0.65207 0.62265 0.23994 0.0
C330 C 0.7104 0.65253 0.22957 0.0
C331 C 0.64519 0.70668 0.26656 0.0
C332 C 0.62718 0.68207 0.26499 0.0
C333 C 0.68434 0.71343 0.25515 0.0
C334 C 0.70631 0.69561 0.24277 0.0
Eu335 Eu 0.56391 0.63297 0.27049 0.0
N336 N 0.58883 0.67513 0.27567 0.0
C337 C 0.62404 0.72363 0.27998 0.0
C338 C 0.57123 0.69085 0.29032 0.0
C339 C 0.58753 0.71549 0.29224 0.0
H340 H 0.63754 0.60393 0.23926 0.0
H341 H 0.57257 0.72802 0.30353 0.0
H342 H 0.38226 0.6787 0.26406 0.0
H343 H 0.41541 0.54351 0.21033 0.0
H344 H 0.54572 0.68439 0.30114 0.0
H345 H 0.63685 0.74268 0.28164 0.0
H346 H 0.45772 0.58332 0.21222 0.0
H347 H 0.70802 0.61395 0.21948 0.0
H348 H 0.69832 0.73231 0.25605 0.0
H349 H 0.73661 0.70108 0.23416 0.0
H350 H 0.30755 0.67761 0.28192 0.0
H351 H 0.741 0.65688 0.22075 0.0
H352 H 0.34111 0.53885 0.22825 0.0
N353 N 0.37761 0.64091 0.25375 0.0
C354 C 0.35147 0.61973 0.2524 0.0
C355 C 0.31962 0.66116 0.2738 0.0
C356 C 0.30833 0.61838 0.26215 0.0
C357 C 0.36219 0.66162 0.26394 0.0
C358 C 0.29262 0.63942 0.27296 0.0
N359 N 0.41082 0.60065 0.23289 0.0
C360 C 0.42681 0.58137 0.22107 0.0
C361 C 0.34252 0.57665 0.24063 0.0
C362 C 0.36864 0.59901 0.24183 0.0
C363 C 0.36014 0.55633 0.22955 0.0
C364 C 0.40221 0.55882 0.21953 0.0
H365 H 0.25968 0.6391 0.28066 0.0
H366 H 0.24939 0.59466 0.2685 0.0
H367 H 0.27919 0.5582 0.24961 0.0
O368 O 0.43873 0.6412 0.20227 0.0
O369 O 0.44141 0.6184 0.26683 0.0
O370 O 0.51253 0.6011 0.27167 0.0
O371 O 0.39993 0.66577 0.22283 0.0
O372 O 0.50697 0.61773 0.22198 0.0
O373 O 0.54704 0.60018 0.24942 0.0
O374 O 0.58208 0.6315 0.30369 0.0
O375 O 0.56782 0.64937 0.23795 0.0
O376 O 0.50145 0.67122 0.23673 0.0
O377 O 0.61742 0.60791 0.28126 0.0
O378 O 0.50169 0.65095 0.28578 0.0
O379 O 0.46901 0.6713 0.2582 0.0
C380 C 0.46856 0.60193 0.27561 0.0
C381 C 0.38405 0.67058 0.18636 0.0
C382 C 0.36754 0.67437 0.14939 0.0
C383 C 0.33971 0.69514 0.15368 0.0
C384 C 0.35584 0.69136 0.19017 0.0
C385 C 0.33384 0.70347 0.17393 0.0
C386 C 0.38948 0.66194 0.16586 0.0
C387 C 0.53481 0.60072 0.22977 0.0
C388 C 0.40812 0.65879 0.20394 0.0
C389 C 0.28255 0.59606 0.26106 0.0
C390 C 0.29958 0.57527 0.25035 0.0
C391 C 0.54379 0.66808 0.23082 0.0
C392 C 0.64242 0.60399 0.31695 0.0
C393 C 0.66731 0.60186 0.35307 0.0
C394 C 0.7006 0.58428 0.34736 0.0
C395 C 0.6759 0.58629 0.31171 0.0
C396 C 0.63791 0.61155 0.33779 0.0
C397 C 0.70465 0.57649 0.32684 0.0
C398 C 0.47459 0.66832 0.27822 0.0
C399 C 0.61353 0.61478 0.30046 0.0
H400 H 0.32204 0.70481 0.14131 0.0
H401 H 0.35095 0.69845 0.20573 0.0
H402 H 0.31224 0.71945 0.17705 0.0
H403 H 0.41119 0.646 0.16268 0.0
H404 H 0.72329 0.57635 0.35885 0.0
H405 H 0.68014 0.58008 0.29584 0.0
H406 H 0.61239 0.62527 0.34205 0.0
H407 H 0.73032 0.56288 0.32262 0.0
C408 C 0.16472 0.91286 0.36766 0.0
C409 C 0.18192 0.91611 0.38783 0.0
C410 C 0.14846 0.93331 0.35636 0.0
C411 C 0.15223 0.0032 0.35441 0.0
H412 H 0.05001 0.99372 0.31693 0.0
C413 C 0.06043 0.08478 0.31167 0.0
C414 C 0.05286 0.08094 0.29041 0.0
C415 C 0.0765 0.06521 0.32411 0.0
C416 C 0.07875 -0.0034 0.32726 0.0
H417 H 0.1953 0.94368 0.41188 0.0
H418 H 0.16511 0.97911 0.39256 0.0
H419 H 0.07609 0.95862 0.33791 0.0
H420 H 0.05609 0.05367 0.2655 0.0
H421 H 0.08365 0.01952 0.28724 0.0
H422 H 0.15399 0.04144 0.34391 0.0
C423 C 0.16513 0.96081 0.38526 0.0
C424 C 0.09389 0.97646 0.33924 0.0
C425 C 0.18185 0.94037 0.39649 0.0
C426 C 0.06188 0.05724 0.28181 0.0
C427 C 0.07729 0.03763 0.29428 0.0
C428 C 0.13667 0.02344 0.3426 0.0
C429 C 0.14837 0.95759 0.365 0.0
C430 C 0.13117 0.97938 0.35283 0.0
C431 C 0.08459 0.04137 0.31556 0.0
C432 C 0.10009 0.02026 0.32874 0.0
H433 H 0.16356 0.89444 0.36056 0.0
H434 H 0.13649 0.93007 0.34072 0.0
H435 H 0.18144 0.00614 0.36444 0.0
H436 H 0.05378 0.10288 0.31867 0.0
H437 H 0.08167 0.06855 0.3405 0.0
C438 C 0.36749 0.56603 0.89212 0.0
C439 C 0.32261 0.57487 0.89012 0.0
C440 C 0.38211 0.54538 0.88056 0.0
C441 C 0.3528 0.50857 0.83349 0.0
H442 H 0.43894 0.46119 0.85645 0.0
C443 C 0.4435 0.43474 0.78282 0.0
C444 C 0.45208 0.41112 0.79156 0.0
C445 C 0.4262 0.45417 0.79501 0.0
C446 C 0.41446 0.47406 0.84985 0.0
H447 H 0.25734 0.56853 0.87508 0.0
H448 H 0.28238 0.53216 0.85527 0.0
H449 H 0.41083 0.49532 0.8779 0.0
H450 H 0.44778 0.38887 0.81959 0.0
H451 H 0.41648 0.42255 0.84081 0.0
H452 H 0.35536 0.48689 0.80564 0.0
C453 C 0.30679 0.54154 0.86529 0.0
C454 C 0.39883 0.49388 0.86208 0.0
C455 C 0.29234 0.56232 0.8767 0.0
C456 C 0.44195 0.40704 0.81255 0.0
C457 C 0.42429 0.42639 0.82471 0.0
C458 C 0.36817 0.48865 0.82131 0.0
C459 C 0.35202 0.53296 0.86688 0.0
C460 C 0.36795 0.51148 0.85404 0.0
C461 C 0.41662 0.4503 0.81616 0.0
C462 C 0.39938 0.47119 0.82929 0.0
H463 H 0.39169 0.57553 0.90218 0.0
H464 H 0.41736 0.53957 0.88197 0.0
H465 H 0.32952 0.52192 0.82664 0.0
H466 H 0.45129 0.43839 0.76668 0.0
H467 H 0.42137 0.4724 0.78794 0.0
C468 C 0.63884 0.56477 0.61645 0.0
C469 C 0.68531 0.57161 0.61612 0.0
C470 C 0.62385 0.54442 0.62844 0.0
C471 C 0.65925 0.4857 0.65239 0.0
H472 H 0.56234 0.49823 0.69197 0.0
C473 C 0.60618 0.41187 0.71397 0.0
C474 C 0.5602 0.41084 0.72019 0.0
C475 C 0.62199 0.43107 0.70094 0.0
C476 C 0.58884 0.49416 0.68077 0.0
H477 H 0.75276 0.56218 0.6274 0.0
H478 H 0.72663 0.52614 0.64801 0.0
H479 H 0.58802 0.53182 0.66906 0.0
H480 H 0.49408 0.42855 0.71661 0.0
H481 H 0.52082 0.46104 0.69315 0.0
H482 H 0.65937 0.44788 0.66353 0.0
C483 C 0.70185 0.53667 0.63916 0.0
C484 C 0.60366 0.51351 0.66772 0.0
C485 C 0.71672 0.55731 0.62748 0.0
C486 C 0.52995 0.42891 0.71241 0.0
C487 C 0.54546 0.44779 0.69907 0.0
C488 C 0.64387 0.46616 0.66519 0.0
C489 C 0.6552 0.53028 0.63999 0.0
C490 C 0.63905 0.50949 0.65345 0.0
C491 C 0.59185 0.44939 0.69335 0.0
C492 C 0.60846 0.47012 0.67961 0.0
H493 H 0.61397 0.57559 0.60791 0.0
H494 H 0.58773 0.53977 0.62876 0.0
H495 H 0.68647 0.48212 0.64141 0.0
H496 H 0.63004 0.39784 0.71912 0.0
H497 H 0.65801 0.43167 0.69707 0.0
C498 C 0.81077 0.94307 0.11226 0.0
C499 C 0.82223 0.91864 0.11844 0.0
C500 C 0.82233 0.96371 0.12471 0.0
C501 C 0.85787 0.9795 0.17876 0.0
H502 H 0.8943 0.04312 0.1543 0.0
C503 C 0.95816 0.05665 0.22234 0.0
C504 C 0.94281 0.08143 0.22037 0.0
C505 C 0.93842 0.03744 0.21057 0.0
C506 C 0.88363 0.02553 0.16132 0.0
H507 H 0.85621 0.89661 0.14193 0.0
H508 H 0.87804 0.93248 0.16321 0.0
H509 H 0.87147 0.00828 0.1319 0.0
H510 H 0.89468 0.1057 0.20482 0.0
H511 H 0.86069 0.072 0.18374 0.0
H512 H 0.87205 -0.00339 0.20815 0.0
C513 C 0.85864 0.93584 0.14922 0.0
C514 C 0.87044 0.00555 0.14851 0.0
C515 C 0.84652 0.91526 0.13695 0.0
C516 C 0.90703 0.08669 0.20659 0.0
C517 C 0.88778 0.0675 0.19451 0.0
C518 C 0.87168 -0.00065 0.19152 0.0
C519 C 0.84613 0.96035 0.14346 0.0
C520 C 0.85794 0.98214 0.15705 0.0
C521 C 0.90351 0.04272 0.19633 0.0
C522 C 0.88515 0.02245 0.18291 0.0
H523 H 0.79165 0.94612 0.09813 0.0
H524 H 0.81164 0.98221 0.11984 0.0
H525 H 0.8473 0.96204 0.18598 0.0
H526 H 0.98545 0.05212 0.23301 0.0
H527 H 0.95133 0.01853 0.21219 0.0
C528 C 0.86868 0.06402 0.61522 0.0
C529 C 0.82301 0.07179 0.61637 0.0
C530 C 0.88323 0.04295 0.62628 0.0
C531 C 0.84927 0.00261 0.67088 0.0
H532 H 0.94723 0.96064 0.65058 0.0
C533 C 0.9518 0.90548 0.69409 0.0
C534 C 0.95434 0.90903 0.71562 0.0
C535 C 0.93409 0.92426 0.6813 0.0
C536 C 0.91941 0.97192 0.65641 0.0
H537 H 0.75628 0.06314 0.62916 0.0
H538 H 0.78103 0.02584 0.64784 0.0
H539 H 0.91819 0.99422 0.62886 0.0
H540 H 0.94093 0.93518 0.74061 0.0
H541 H 0.91163 0.96813 0.71838 0.0
H542 H 0.84921 0.97978 0.69807 0.0
C543 C 0.80617 0.03641 0.63903 0.0
C544 C 0.90319 0.9915 0.64404 0.0
C545 C 0.79183 0.05768 0.62824 0.0
C546 C 0.939 0.93175 0.72409 0.0
C547 C 0.9219 0.95063 0.71131 0.0
C548 C 0.86507 0.98287 0.68311 0.0
C549 C 0.85225 0.02896 0.6385 0.0
C550 C 0.8682 0.0073 0.65119 0.0
C551 C 0.91902 0.94714 0.68973 0.0
C552 C 0.90076 0.96743 0.67618 0.0
H553 H 0.89348 0.07474 0.60633 0.0
H554 H 0.91909 0.03812 0.6257 0.0
H555 H 0.82275 0.0145 0.67711 0.0
H556 H 0.96305 0.88808 0.68713 0.0
H557 H 0.93178 0.92069 0.66482 0.0
C558 C 0.64148 0.42746 0.11367 0.0
C559 C 0.68744 0.42021 0.11483 0.0
C560 C 0.62588 0.44813 0.12499 0.0
C561 C 0.65795 0.48798 0.17023 0.0
H562 H 0.55849 0.52927 0.15058 0.0
C563 C 0.56846 0.55819 0.22425 0.0
C564 C 0.55265 0.58088 0.21593 0.0
C565 C 0.5851 0.53932 0.21131 0.0
C566 C 0.5867 0.51817 0.15624 0.0
H567 H 0.7536 0.42944 0.1279 0.0
H568 H 0.72709 0.46605 0.14697 0.0
H569 H 0.58843 0.49626 0.12847 0.0
H570 H 0.5424 0.60174 0.18751 0.0
H571 H 0.57291 0.56918 0.16491 0.0
H572 H 0.65761 0.51047 0.19761 0.0
C573 C 0.70248 0.45536 0.13799 0.0
C574 C 0.60346 0.49891 0.14364 0.0
C575 C 0.71785 0.43449 0.12694 0.0
C576 C 0.55405 0.58437 0.19436 0.0
C577 C 0.57132 0.5656 0.18141 0.0
C578 C 0.64163 0.50741 0.18269 0.0
C579 C 0.65609 0.46223 0.1375 0.0
C580 C 0.63912 0.48341 0.15052 0.0
C581 C 0.58707 0.54278 0.1897 0.0
C582 C 0.60545 0.52264 0.17599 0.0
H583 H 0.61726 0.41661 0.10458 0.0
H584 H 0.58984 0.45251 0.1244 0.0
H585 H 0.68492 0.47629 0.17629 0.0
H586 H 0.56737 0.5548 0.24079 0.0
H587 H 0.59585 0.52186 0.2183 0.0
C588 C 0.36051 0.42864 0.39084 0.0
C589 C 0.31463 0.4208 0.39001 0.0
C590 C 0.37553 0.44927 0.37919 0.0
C591 C 0.34206 0.48914 0.33427 0.0
H592 H 0.44003 0.53197 0.35466 0.0
C593 C 0.40177 0.58119 0.29367 0.0
C594 C 0.44897 0.58247 0.28957 0.0
C595 C 0.38371 0.56229 0.3064 0.0
C596 C 0.41268 0.52011 0.34879 0.0
H597 H 0.24814 0.42867 0.37695 0.0
H598 H 0.27371 0.46525 0.35724 0.0
H599 H 0.41102 0.49787 0.37633 0.0
H600 H 0.51441 0.5653 0.29646 0.0
H601 H 0.48292 0.5329 0.31908 0.0
H602 H 0.34333 0.51198 0.3069 0.0
C603 C 0.29864 0.45508 0.36627 0.0
C604 C 0.3962 0.50045 0.36113 0.0
C605 C 0.28383 0.43422 0.37766 0.0
C606 C 0.47782 0.56485 0.29907 0.0
C607 C 0.45989 0.54631 0.31212 0.0
C608 C 0.35805 0.50909 0.3221 0.0
C609 C 0.34481 0.46278 0.36671 0.0
C610 C 0.36102 0.48447 0.35395 0.0
C611 C 0.41266 0.54472 0.31576 0.0
C612 C 0.39386 0.52455 0.32915 0.0
H613 H 0.38501 0.41843 0.4001 0.0
H614 H 0.41148 0.45424 0.37967 0.0
H615 H 0.31556 0.47705 0.32799 0.0
H616 H 0.37871 0.59478 0.28718 0.0
H617 H 0.34717 0.56161 0.30917 0.0
C618 C 0.23418 0.05369 0.87658 0.0
C619 C 0.20324 0.06836 0.88788 0.0
C620 C 0.21876 0.03294 0.86521 0.0
C621 C 0.11773 0.99028 0.85876 0.0
H622 H 0.17432 0.97578 0.80578 0.0
C623 C 0.03486 0.92674 0.7967 0.0
C624 C 0.06256 0.908 0.78799 0.0
C625 C 0.0537 0.94518 0.80956 0.0
C626 C 0.15852 0.9795 0.82064 0.0
H627 H 0.13202 0.07312 0.896 0.0
H628 H 0.10471 0.03751 0.87567 0.0
H629 H 0.20375 0.01032 0.82688 0.0
H630 H 0.13163 0.89361 0.78676 0.0
H631 H 0.16489 0.92657 0.80843 0.0
H632 H 0.07136 0.96 0.85198 0.0
C633 C 0.1411 0.04139 0.87603 0.0
C634 C 0.17544 -0.00078 0.83281 0.0
C635 C 0.15663 0.06191 0.88762 0.0
C636 C 0.10954 0.9081 0.79262 0.0
C637 C 0.12857 0.92688 0.80517 0.0
C638 C 0.10041 0.97085 0.84644 0.0
C639 C 0.17193 0.0266 0.86465 0.0
C640 C 0.15508 0.00499 0.852 0.0
C641 C 0.10074 0.94552 0.81381 0.0
C642 C 0.12048 0.96538 0.82723 0.0
H643 H 0.27038 0.05817 0.87669 0.0
H644 H 0.24367 0.02178 0.85699 0.0
H645 H 0.10177 0.9937 0.87363 0.0
H646 H 0.99848 0.92724 0.79362 0.0
H647 H 0.03155 0.95944 0.81595 0.0
C648 C 0.19889 0.1415 0.96245 0.0
C649 C 0.20934 0.11796 0.95384 0.0
C650 C 0.18869 0.1438 0.98355 0.0
C651 C 0.20156 0.11004 0.03369 0.0
H652 H 0.11376 0.15902 0.0529 0.0
C653 C 0.14711 0.1169 0.11954 0.0
C654 C 0.15072 0.14112 0.12805 0.0
C655 C 0.1497 0.11341 0.09808 0.0
C656 C 0.1384 0.14529 0.04773 0.0
H657 H 0.2173 0.07837 0.96093 0.0
H658 H 0.19747 0.08217 0.99727 0.0
H659 H 0.12729 0.15408 0.0158 0.0
H660 H 0.15763 0.18072 0.12084 0.0
H661 H 0.16154 0.17465 0.08335 0.0
H662 H 0.21217 0.10112 0.06567 0.0
C663 C 0.19812 0.09902 0.98787 0.0
C664 C 0.14641 0.14254 0.02648 0.0
C665 C 0.20882 0.09677 0.96687 0.0
C666 C 0.15505 0.16184 0.11468 0.0
C667 C 0.15699 0.15838 0.09324 0.0
C668 C 0.19311 0.11258 0.05489 0.0
C669 C 0.18825 0.12258 0.99657 0.0
C670 C 0.17843 0.12503 0.01917 0.0
C671 C 0.15524 0.1341 0.08474 0.0
C672 C 0.16176 0.13038 0.06215 0.0
H673 H 0.19833 0.1582 0.95289 0.0
H674 H 0.18186 0.16232 0.98967 0.0
H675 H 0.22711 0.09671 0.02876 0.0
H676 H 0.14399 0.10061 0.12951 0.0
H677 H 0.14792 0.0945 0.09192 0.0
C678 C 0.30206 0.39319 0.46976 0.0
C679 C 0.30337 0.37218 0.45656 0.0
C680 C 0.31217 0.39083 0.49083 0.0
C681 C 0.36777 0.34826 0.52878 0.0
H682 H 0.29598 0.38529 0.56881 0.0
C683 C 0.36302 0.32445 0.61607 0.0
C684 C 0.36279 0.34447 0.63026 0.0
C685 C 0.36021 0.32899 0.59479 0.0
C686 C 0.31675 0.37508 0.55782 0.0
H687 H 0.31694 0.3322 0.4553 0.0
H688 H 0.33289 0.32791 0.4921 0.0
H689 H 0.28143 0.39077 0.53194 0.0
H690 H 0.36037 0.38498 0.63326 0.0
H691 H 0.35541 0.39295 0.59598 0.0
H692 H 0.40221 0.33209 0.55479 0.0
C693 C 0.32485 0.34635 0.48611 0.0
C694 C 0.30846 0.37823 0.53665 0.0
C695 C 0.31499 0.34874 0.46502 0.0
C696 C 0.36088 0.36919 0.62268 0.0
C697 C 0.35762 0.37373 0.60138 0.0
C698 C 0.37582 0.34498 0.54995 0.0
C699 C 0.32362 0.36737 0.49931 0.0
C700 C 0.33361 0.36471 0.52184 0.0
C701 C 0.35674 0.35365 0.58722 0.0
C702 C 0.35017 0.35822 0.56471 0.0
H703 H 0.29276 0.41149 0.46386 0.0
H704 H 0.31134 0.40749 0.50045 0.0
H705 H 0.38846 0.33791 0.51784 0.0
H706 H 0.36485 0.30522 0.62146 0.0
H707 H 0.35929 0.31312 0.5843 0.0
C708 C 0.71158 0.38312 0.0361 0.0
C709 C 0.69764 0.36605 0.05147 0.0
C710 C 0.70213 0.37832 0.0152 0.0
C711 C 0.66449 0.32636 0.97962 0.0
H712 H 0.6436 0.38128 0.94139 0.0
C713 C 0.58232 0.31424 0.89883 0.0
C714 C 0.61056 0.32153 0.88213 0.0
C715 C 0.59364 0.32075 0.91917 0.0
C716 C 0.64959 0.36582 0.95193 0.0
H717 H 0.66186 0.33105 0.05729 0.0
H718 H 0.64309 0.3232 0.02113 0.0
H719 H 0.66092 0.39038 0.97765 0.0
H720 H 0.67248 0.34222 0.8741 0.0
H721 H 0.69073 0.35457 0.90964 0.0
H722 H 0.65085 0.30191 0.95391 0.0
C723 C 0.66305 0.3398 0.02485 0.0
C724 C 0.65984 0.37096 0.97271 0.0
C725 C 0.67341 0.34434 0.04566 0.0
C726 C 0.64947 0.33647 0.88639 0.0
C727 C 0.6602 0.34345 0.90675 0.0
C728 C 0.65322 0.32128 0.959 0.0
C729 C 0.67763 0.35657 0.00923 0.0
C730 C 0.66735 0.35128 0.98692 0.0
C731 C 0.6328 0.33524 0.92332 0.0
C732 C 0.64564 0.34093 0.945 0.0
H733 H 0.7306 0.39993 0.04024 0.0
H734 H 0.71474 0.39152 1.00375 0.0
H735 H 0.67123 0.31064 0.98976 0.0
H736 H 0.55136 0.30339 0.89628 0.0
H737 H 0.57171 0.31446 0.93171 0.0
C738 C 0.82698 0.14935 0.54505 0.0
C739 C 0.81389 0.12553 0.55254 0.0
C740 C 0.83468 0.15321 0.5239 0.0
C741 C 0.86034 0.12073 0.47473 0.0
H742 H 0.80576 0.17952 0.44981 0.0
C743 C 0.84786 0.13562 0.38561 0.0
C744 C 0.84964 0.16038 0.37817 0.0
C745 C 0.84827 0.13089 0.40698 0.0
C746 C 0.82202 0.16323 0.4565 0.0
H747 H 0.79882 0.08708 0.54348 0.0
H748 H 0.81288 0.09382 0.50662 0.0
H749 H 0.79742 0.17233 0.48679 0.0
H750 H 0.85644 0.19946 0.38697 0.0
H751 H 0.85891 0.19131 0.42408 0.0
H752 H 0.88514 0.11169 0.4444 0.0
C753 C 0.8175 0.10943 0.51719 0.0
C754 C 0.81706 0.15908 0.47775 0.0
C755 C 0.80949 0.10559 0.53834 0.0
C756 C 0.85444 0.18021 0.39235 0.0
C757 C 0.85545 0.1755 0.41362 0.0
C758 C 0.86565 0.12499 0.45343 0.0
C759 C 0.82978 0.13334 0.50971 0.0
C760 C 0.83605 0.13778 0.48712 0.0
C761 C 0.85094 0.15086 0.42128 0.0
C762 C 0.84653 0.14632 0.44403 0.0
H763 H 0.83163 0.16502 0.55554 0.0
H764 H 0.84476 0.17178 0.51865 0.0
H765 H 0.87571 0.10425 0.48154 0.0
H766 H 0.84387 0.12003 0.37496 0.0
H767 H 0.84446 0.11168 0.41226 0.0
C768 C 0.85446 0.87858 0.04299 0.0
C769 C 0.81141 0.87173 0.051 0.0
C770 C 0.86312 0.87729 0.02168 0.0
C771 C 0.81771 0.84988 0.97255 0.0
H772 H 0.88733 0.90382 0.94687 0.0
C773 C 0.80677 0.87407 0.88578 0.0
C774 C 0.84677 0.88141 0.87526 0.0
C775 C 0.80753 0.86944 0.90707 0.0
C776 C 0.86847 0.88839 0.95383 0.0
H777 H 0.74357 0.85837 0.04288 0.0
H778 H 0.75824 0.85653 0.00578 0.0
H779 H 0.87841 0.90292 0.98441 0.0
H780 H 0.91924 0.88894 0.87859 0.0
H781 H 0.92061 0.88104 0.91607 0.0
H782 H 0.80643 0.83592 0.94183 0.0
C783 C 0.78582 0.86232 0.01593 0.0
C784 C 0.86333 0.88785 0.97539 0.0
C785 C 0.77729 0.86345 0.03723 0.0
C786 C 0.888 0.88318 0.88633 0.0
C787 C 0.88866 0.87886 0.90776 0.0
C788 C 0.82257 0.85054 0.951 0.0
C789 C 0.82883 0.86927 0.00784 0.0
C790 C 0.83723 0.86881 0.98503 0.0
C791 C 0.84824 0.8723 0.9184 0.0
C792 C 0.8474 0.87001 0.94137 0.0
H793 H 0.88166 0.88471 0.05323 0.0
H794 H 0.89684 0.88243 0.01609 0.0
H795 H 0.79827 0.8346 0.97942 0.0
H796 H 0.77457 0.87248 0.87758 0.0
H797 H 0.77575 0.86464 0.9148 0.0
C798 C 0.72818 0.63012 0.53681 0.0
C799 C 0.69374 0.62208 0.55054 0.0
C800 C 0.71981 0.63147 0.51553 0.0
C801 C 0.64256 0.60607 0.47506 0.0
H802 H 0.70224 0.65672 0.4411 0.0
C803 C 0.62228 0.60867 0.38576 0.0
C804 C 0.66406 0.60989 0.37503 0.0
C805 C 0.62071 0.61347 0.4071 0.0
C806 C 0.68532 0.64246 0.45039 0.0
H807 H 0.62299 0.60993 0.55274 0.0
H808 H 0.60808 0.61262 0.51559 0.0
H809 H 0.7088 0.65891 0.47872 0.0
H810 H 0.73636 0.61834 0.37786 0.0
H811 H 0.73362 0.62696 0.41494 0.0
H812 H 0.61947 0.58954 0.44663 0.0
C813 C 0.64191 0.61739 0.52122 0.0
C814 C 0.68923 0.64363 0.47196 0.0
C815 C 0.6504 0.61589 0.54252 0.0
C816 C 0.70376 0.61711 0.3858 0.0
C817 C 0.70211 0.62221 0.407 0.0
C818 C 0.63837 0.60502 0.45349 0.0
C819 C 0.67665 0.62497 0.50741 0.0
C820 C 0.66875 0.62514 0.48458 0.0
C821 C 0.66077 0.61998 0.41799 0.0
C822 C 0.66051 0.6229 0.4409 0.0
H823 H 0.76213 0.63465 0.54245 0.0
H824 H 0.7477 0.63691 0.50539 0.0
H825 H 0.62676 0.59131 0.48421 0.0
H826 H 0.59123 0.60304 0.37783 0.0
H827 H 0.58832 0.61177 0.41515 0.0
C828 C 0.30989 0.60587 0.96983 0.0
C829 C 0.31464 0.62577 0.95562 0.0
C830 C 0.31959 0.60954 0.99086 0.0
C831 C 0.32781 0.66015 0.02975 0.0
H832 H 0.3911 0.61079 0.06307 0.0
C833 C 0.38276 0.68394 0.11219 0.0
C834 C 0.37276 0.66611 0.1276 0.0
C835 C 0.38047 0.67746 0.09129 0.0
C836 C 0.37309 0.62465 0.05399 0.0
H837 H 0.33517 0.66478 0.95224 0.0
H838 H 0.35206 0.67117 0.98877 0.0
H839 H 0.37683 0.60243 0.02631 0.0
H840 H 0.35507 0.62715 0.13333 0.0
H841 H 0.35058 0.61573 0.09656 0.0
H842 H 0.32363 0.68231 0.05722 0.0
C843 C 0.3399 0.65287 0.98379 0.0
C844 C 0.36487 0.61986 0.03295 0.0
C845 C 0.33019 0.64922 0.96284 0.0
C846 C 0.36309 0.64122 0.12172 0.0
C847 C 0.36051 0.63472 0.1007 0.0
C848 C 0.336 0.66492 0.05066 0.0
C849 C 0.33426 0.63318 0.99811 0.0
C850 C 0.34245 0.63769 0.02056 0.0
C851 C 0.36776 0.65301 0.08526 0.0
C852 C 0.3591 0.64737 0.06302 0.0
H853 H 0.29766 0.58762 0.96477 0.0
H854 H 0.31447 0.59405 1.00151 0.0
H855 H 0.30947 0.67402 0.02081 0.0
H856 H 0.391 0.70318 0.11633 0.0
H857 H 0.38748 0.69183 0.07981 0.0
C858 C 0.15758 0.87451 0.46328 0.0
C859 C 0.20107 0.86938 0.45501 0.0
C860 C 0.14876 0.87113 0.48442 0.0
C861 C 0.18953 0.83489 0.52904 0.0
H862 H 0.11669 0.88083 0.56174 0.0
C863 C 0.12897 0.80741 0.61007 0.0
C864 C 0.13666 0.82504 0.62591 0.0
C865 C 0.13235 0.81443 0.58931 0.0
C866 C 0.13719 0.86789 0.5528 0.0
H867 H 0.26987 0.85776 0.46273 0.0
H868 H 0.25437 0.85164 0.4995 0.0
H869 H 0.13381 0.8907 0.52543 0.0
H870 H 0.15112 0.86421 0.63242 0.0
H871 H 0.15709 0.87661 0.59591 0.0
H872 H 0.19342 0.81219 0.55625 0.0
C873 C 0.2269 0.85792 0.48957 0.0
C874 C 0.14672 0.87344 0.53199 0.0
C875 C 0.23576 0.86137 0.46848 0.0
C876 C 0.14489 0.85026 0.62052 0.0
C877 C 0.14836 0.85732 0.59964 0.0
C878 C 0.17981 0.8293 0.5497 0.0
C879 C 0.18316 0.86244 0.49775 0.0
C880 C 0.17309 0.85699 0.5199 0.0
C881 C 0.14358 0.83927 0.58383 0.0
C882 C 0.1534 0.84564 0.56183 0.0
H883 H 0.12993 0.88044 0.45332 0.0
H884 H 0.11458 0.87453 0.4902 0.0
H885 H 0.20949 0.82168 0.52012 0.0
H886 H 0.12173 0.78792 0.61377 0.0
H887 H 0.12732 0.80021 0.57751 0.0
C888 C 0.26022 0.32302 0.37666 0.0
C889 C 0.23597 0.33752 0.39098 0.0
C890 C 0.23794 0.30428 0.36527 0.0
C891 C 0.12915 0.26689 0.36263 0.0
H892 H 0.17111 0.25428 0.3066 0.0
C893 C 0.0315 0.20657 0.30129 0.0
C894 C 0.05772 0.18752 0.2921 0.0
C895 C 0.0522 0.22466 0.314 0.0
C896 C 0.15919 0.25759 0.32225 0.0
H897 H 0.16983 0.34421 0.40478 0.0
H898 H 0.13002 0.31222 0.38425 0.0
H899 H 0.20867 0.28659 0.32731 0.0
H900 H 0.1259 0.17185 0.29021 0.0
H901 H 0.16217 0.20421 0.31132 0.0
H902 H 0.07841 0.23832 0.35697 0.0
C903 C 0.16653 0.31459 0.38217 0.0
C904 C 0.1809 0.27597 0.33424 0.0
C905 C 0.18912 0.33302 0.39387 0.0
C906 C 0.10487 0.18672 0.29631 0.0
C907 C 0.12567 0.20512 0.30858 0.0
C908 C 0.10686 0.24883 0.35044 0.0
C909 C 0.19059 0.30002 0.36761 0.0
C910 C 0.16655 0.28073 0.3547 0.0
C911 C 0.09955 0.22427 0.3175 0.0
C912 C 0.12199 0.24389 0.33023 0.0
H913 H 0.29652 0.32617 0.37434 0.0
H914 H 0.25804 0.29312 0.35468 0.0
H915 H 0.11747 0.26963 0.37838 0.0
H916 H 0.99504 0.20768 0.29854 0.0
H917 H 0.03139 0.23929 0.32074 0.0
C918 C 0.27882 0.15555 0.86797 0.0
C919 C 0.28684 0.15088 0.88914 0.0
C920 C 0.30413 0.17376 0.8573 0.0
C921 C 0.36153 0.23284 0.86197 0.0
H922 H 0.43193 0.21319 0.81379 0.0
C923 C 0.46405 0.30623 0.81463 0.0
C924 C 0.46568 0.30303 0.79303 0.0
C925 C 0.44677 0.28716 0.8274 0.0
C926 C 0.41195 0.21916 0.82699 0.0
H927 H 0.32806 0.16226 0.91559 0.0
H928 H 0.3705 0.19504 0.89701 0.0
H929 H 0.39147 0.18131 0.83397 0.0
H930 H 0.45344 0.27664 0.76814 0.0
H931 H 0.41984 0.24434 0.78993 0.0
H932 H 0.37938 0.27076 0.85452 0.0
C933 C 0.3449 0.18412 0.88879 0.0
C934 C 0.38916 0.20081 0.83863 0.0
C935 C 0.32029 0.16546 0.89942 0.0
C936 C 0.45109 0.28006 0.78459 0.0
C937 C 0.43273 0.26125 0.79725 0.0
C938 C 0.38348 0.25131 0.85007 0.0
C939 C 0.33728 0.1882 0.86761 0.0
C940 C 0.36357 0.20752 0.85612 0.0
C941 C 0.43001 0.26455 0.81887 0.0
C942 C 0.40873 0.24477 0.83227 0.0
H943 H 0.25258 0.14534 0.85958 0.0
H944 H 0.2973 0.17685 0.84101 0.0
H945 H 0.34162 0.23842 0.87534 0.0
H946 H 0.47583 0.32356 0.82171 0.0
H947 H 0.44659 0.29024 0.84397 0.0
C948 C 0.71286 0.17008 0.61232 0.0
C949 C 0.74942 0.15615 0.6204 0.0
C950 C 0.69151 0.18851 0.62432 0.0
C951 C 0.67363 0.20798 0.67863 0.0
H952 H 0.64234 0.2723 0.65458 0.0
C953 C 0.61134 0.29081 0.72878 0.0
C954 C 0.57623 0.30587 0.72079 0.0
C955 C 0.63239 0.27272 0.71638 0.0
C956 C 0.65031 0.25433 0.66149 0.0
H957 H 0.79292 0.15129 0.64729 0.0
H958 H 0.75548 0.18315 0.6682 0.0
H959 H 0.67857 0.24039 0.63313 0.0
H960 H 0.53578 0.31352 0.69334 0.0
H961 H 0.57186 0.28175 0.67193 0.0
H962 H 0.64514 0.22175 0.70693 0.0
C963 C 0.74284 0.17957 0.6527 0.0
C964 C 0.67113 0.23604 0.64918 0.0
C965 C 0.76428 0.16126 0.6407 0.0
C966 C 0.56279 0.30237 0.70006 0.0
C967 C 0.58371 0.28421 0.68769 0.0
C968 C 0.65266 0.2262 0.69091 0.0
C969 C 0.70612 0.19337 0.64469 0.0
C970 C 0.6832 0.21269 0.65763 0.0
C971 C 0.61877 0.26913 0.69569 0.0
C972 C 0.64087 0.24966 0.68253 0.0
H973 H 0.70017 0.16644 0.59685 0.0
H974 H 0.66299 0.19862 0.61777 0.0
H975 H 0.68182 0.19003 0.68554 0.0
H976 H 0.62274 0.29298 0.74465 0.0
H977 H 0.65973 0.26171 0.72298 0.0
C978 C 0.7961 0.34446 0.13495 0.0
C979 C 0.76704 0.33723 0.11858 0.0
C980 C 0.81817 0.3265 0.14705 0.0
C981 C 0.81585 0.25777 0.15964 0.0
H982 H 0.93287 0.27358 0.18491 0.0
C983 C 0.93602 0.18542 0.19906 0.0
C984 C 0.94511 0.1907 0.21999 0.0
C985 C 0.9143 0.20313 0.18656 0.0
C986 C 0.90013 0.26901 0.17796 0.0
H987 H 0.73926 0.30493 0.10217 0.0
H988 H 0.78015 0.27386 0.12217 0.0
H989 H 0.89646 0.30439 0.16252 0.0
H990 H 0.9394 0.21869 0.2442 0.0
H991 H 0.90292 0.25014 0.222 0.0
H992 H 0.82116 0.22184 0.17451 0.0
C993 C 0.78461 0.29345 0.12623 0.0
C994 C 0.87894 0.28671 0.16524 0.0
C995 C 0.7617 0.31142 0.1144 0.0
C996 C 0.93266 0.21415 0.22812 0.0
C997 C 0.912 0.23211 0.21546 0.0
C998 C 0.83763 0.23988 0.17196 0.0
C999 C 0.81285 0.30068 0.14289 0.0
C1000 C 0.83623 0.28147 0.156 0.0
C1001 C 0.90236 0.22666 0.19463 0.0
C1002 C 0.87973 0.24544 0.18134 0.0
H1003 H 0.80203 0.36409 0.13849 0.0
H1004 H 0.8389 0.333 0.15988 0.0
H1005 H 0.78265 0.25306 0.15327 0.0
H1006 H 0.94493 0.1674 0.19245 0.0
H1007 H 0.90722 0.19858 0.17051 0.0
C1008 C 0.75316 0.67978 0.61473 0.0
C1009 C 0.76634 0.65451 0.61599 0.0
C1010 C 0.77539 0.69814 0.62662 0.0
C1011 C 0.84801 0.70504 0.6735 0.0
H1012 H 0.86853 0.77236 0.65232 0.0
C1013 C 0.96045 0.7786 0.71578 0.0
C1014 C 0.94287 0.803 0.71727 0.0
C1015 C 0.93883 0.7606 0.70335 0.0
C1016 C 0.86266 0.75369 0.6585 0.0
H1017 H 0.81428 0.6288 0.63 0.0
H1018 H 0.85384 0.66082 0.65035 0.0
H1019 H 0.83223 0.74077 0.63027 0.0
H1020 H 0.88955 0.82788 0.70662 0.0
H1021 H 0.85163 0.79639 0.68494 0.0
H1022 H 0.87911 0.71796 0.70163 0.0
C1023 C 0.82548 0.66644 0.64068 0.0
C1024 C 0.84178 0.73557 0.64588 0.0
C1025 C 0.80299 0.64808 0.62894 0.0
C1026 C 0.90357 0.80913 0.70593 0.0
C1027 C 0.88211 0.79119 0.69338 0.0
C1028 C 0.86922 0.72309 0.68603 0.0
C1029 C 0.81159 0.69167 0.63991 0.0
C1030 C 0.83417 0.711 0.65322 0.0
C1031 C 0.89947 0.76671 0.69199 0.0
C1032 C 0.87675 0.7476 0.67867 0.0
H1033 H 0.72468 0.68522 0.60505 0.0
H1034 H 0.76332 0.71728 0.62581 0.0
H1035 H 0.84188 0.6865 0.67987 0.0
H1036 H 0.99067 0.77333 0.72439 0.0
H1037 H 0.95323 0.74195 0.70243 0.0
C1038 C 0.7065 0.84169 0.12939 0.0
C1039 C 0.7428 0.83554 0.11612 0.0
C1040 C 0.68418 0.82309 0.14093 0.0
C1041 C 0.66719 0.75399 0.14539 0.0
H1042 H 0.63218 0.771 0.20161 0.0
C1043 C 0.60445 0.68025 0.20531 0.0
C1044 C 0.5659 0.68675 0.21708 0.0
C1045 C 0.62604 0.69804 0.19264 0.0
C1046 C 0.6414 0.76604 0.18589 0.0
H1047 H 0.78375 0.80506 0.10422 0.0
H1048 H 0.74534 0.77248 0.12469 0.0
H1049 H 0.66969 0.80246 0.17996 0.0
H1050 H 0.51947 0.71688 0.22476 0.0
H1051 H 0.55714 0.74799 0.20258 0.0
H1052 H 0.63944 0.71735 0.15161 0.0
C1053 C 0.73353 0.79164 0.12594 0.0
C1054 C 0.66278 0.78409 0.17342 0.0
C1055 C 0.75562 0.81028 0.11423 0.0
C1056 C 0.54909 0.71132 0.21583 0.0
C1057 C 0.57086 0.72917 0.20327 0.0
C1058 C 0.6461 0.73586 0.15795 0.0
C1059 C 0.69789 0.79787 0.13965 0.0
C1060 C 0.67568 0.77838 0.15295 0.0
C1061 C 0.60958 0.72272 0.19155 0.0
C1062 C 0.63273 0.74175 0.17829 0.0
H1063 H 0.69544 0.86097 0.1309 0.0
H1064 H 0.65616 0.82854 0.15089 0.0
H1065 H 0.6761 0.749 0.12965 0.0
H1066 H 0.61786 0.66136 0.20583 0.0
H1067 H 0.65602 0.69257 0.18392 0.0
C1068 C 0.2996 0.84166 0.37292 0.0
C1069 C 0.27023 0.83533 0.38942 0.0
C1070 C 0.32338 0.82309 0.36216 0.0
C1071 C 0.32429 0.75387 0.35281 0.0
H1072 H 0.44315 0.76912 0.32904 0.0
C1073 C 0.43982 0.67989 0.31239 0.0
C1074 C 0.45397 0.68685 0.29239 0.0
C1075 C 0.41873 0.69741 0.32538 0.0
C1076 C 0.40995 0.76463 0.3356 0.0
H1077 H 0.24334 0.80414 0.4075 0.0
H1078 H 0.28661 0.77203 0.38957 0.0
H1079 H 0.40462 0.80061 0.34999 0.0
H1080 H 0.45845 0.7176 0.27045 0.0
H1081 H 0.42279 0.74832 0.29333 0.0
H1082 H 0.33057 0.71758 0.33865 0.0
C1083 C 0.29036 0.79133 0.38452 0.0
C1084 C 0.38761 0.78273 0.34749 0.0
C1085 C 0.26602 0.80988 0.39508 0.0
C1086 C 0.44762 0.71171 0.28576 0.0
C1087 C 0.42747 0.72931 0.29888 0.0
C1088 C 0.34705 0.73562 0.3412 0.0
C1089 C 0.31916 0.79762 0.36779 0.0
C1090 C 0.34411 0.77778 0.35603 0.0
C1091 C 0.4125 0.7223 0.31874 0.0
C1092 C 0.3898 0.74096 0.33225 0.0
H1093 H 0.30446 0.86104 0.36827 0.0
H1094 H 0.34456 0.82878 0.3492 0.0
H1095 H 0.29059 0.74939 0.35877 0.0
H1096 H 0.44422 0.6608 0.3178 0.0
H1097 H 0.4076 0.69159 0.34066 0.0
C1098 C 0.20429 0.66761 0.89643 0.0
C1099 C 0.24679 0.65857 0.88978 0.0
C1100 C 0.18155 0.686 0.88497 0.0
C1101 C 0.18053 0.71504 0.83238 0.0
H1102 H 0.10275 0.76391 0.85913 0.0
C1103 C 0.06508 0.77925 0.78429 0.0
C1104 C 0.05829 0.80397 0.79106 0.0
C1105 C 0.087 0.7619 0.79699 0.0
C1106 C 0.12475 0.75062 0.85139 0.0
H1107 H 0.29981 0.66222 0.86655 0.0
H1108 H 0.26141 0.69499 0.84703 0.0
H1109 H 0.14488 0.73406 0.88012 0.0
H1110 H 0.06869 0.83005 0.81635 0.0
H1111 H 0.10878 0.80004 0.83835 0.0
H1112 H 0.16239 0.73228 0.80376 0.0
C1113 C 0.24448 0.68734 0.86058 0.0
C1114 C 0.14844 0.73317 0.86345 0.0
C1115 C 0.26673 0.66866 0.87182 0.0
C1116 C 0.07335 0.81101 0.81086 0.0
C1117 C 0.09611 0.79375 0.82347 0.0
C1118 C 0.15748 0.73268 0.82038 0.0
C1119 C 0.20123 0.69604 0.8668 0.0
C1120 C 0.1765 0.71504 0.8541 0.0
C1121 C 0.10352 0.76897 0.81663 0.0
C1122 C 0.1289 0.7506 0.82967 0.0
H1123 H 0.18815 0.65998 0.91019 0.0
H1124 H 0.14808 0.69186 0.89013 0.0
H1125 H 0.2011 0.70119 0.8245 0.0
H1126 H 0.05317 0.77324 0.76918 0.0
H1127 H 0.09078 0.74288 0.79135 0.0
loop_
_geom_bond_atom_site_label_1
_geom_bond_atom_site_label_2
_geom_bond_distance
_geom_bond_site_symmetry_2
_ccdc_geom_bond_type
H0 C3 0.931 . S
H1 C6 0.928 . S
H2 C8 0.930 . S
C3 H0 0.931 . S
C3 C4 1.413 . S
C3 C5 1.360 . S
C4 C3 1.413 . S
C4 C8 1.429 . S
C5 C3 1.360 . S
C5 C6 1.372 . S
C6 H1 0.928 . S
C6 C5 1.372 . S
C6 C7 1.404 . S
C7 C6 1.404 . S
C7 C8 1.391 . S
C8 H2 0.930 . S
C8 C4 1.429 . S
C8 C7 1.391 . S
H9 C12 0.931 . S
H10 C15 0.928 . S
H11 C17 0.930 . S
C12 H9 0.931 . S
C12 C13 1.413 . S
C12 C14 1.360 . S
C13 C12 1.413 . S
C13 C17 1.429 . S
C14 C12 1.360 . S
C14 C15 1.372 . S
C15 H10 0.928 . S
C15 C14 1.372 . S
C15 C16 1.404 . S
C16 C15 1.404 . S
C16 C17 1.391 . S
C17 H11 0.930 . S
C17 C13 1.429 . S
C17 C16 1.391 . S
H18 C21 0.931 . S
H19 C24 0.928 . S
H20 C26 0.930 . S
C21 H18 0.931 . S
C21 C22 1.413 . S
C21 C23 1.360 . S
C22 C21 1.413 . S
C22 C26 1.429 . S
C23 C21 1.360 . S
C23 C24 1.372 . S
C24 H19 0.928 . S
C24 C23 1.372 . S
C24 C25 1.404 . S
C25 C24 1.404 . S
C25 C26 1.391 . S
C26 H20 0.930 . S
C26 C22 1.429 . S
C26 C25 1.391 . S
H27 C30 0.931 . S
H28 C33 0.928 . S
H29 C35 0.930 . S
C30 H27 0.931 . S
C30 C31 1.413 . S
C30 C32 1.360 . S
C31 C30 1.413 . S
C31 C35 1.429 . S
C32 C30 1.360 . S
C32 C33 1.372 . S
C33 H28 0.928 . S
C33 C32 1.372 . S
C33 C34 1.404 . S
C34 C33 1.404 . S
C34 C35 1.391 . S
C35 H29 0.930 . S
C35 C31 1.429 . S
C35 C34 1.391 . S
H36 C39 0.931 . S
H37 C42 0.928 . S
H38 C44 0.930 . S
C39 H36 0.931 . S
C39 C40 1.413 . S
C39 C41 1.360 . S
C40 C39 1.413 . S
C40 C44 1.429 . S
C41 C39 1.360 . S
C41 C42 1.372 . S
C42 H37 0.928 . S
C42 C41 1.372 . S
C42 C43 1.404 . S
C43 C42 1.404 . S
C43 C44 1.391 . S
C44 H38 0.930 . S
C44 C40 1.429 . S
C44 C43 1.391 . S
H45 C48 0.931 . S
H46 C51 0.928 . S
H47 C53 0.930 . S
C48 H45 0.931 . S
C48 C49 1.413 . S
C48 C50 1.360 . S
C49 C48 1.413 . S
C49 C53 1.429 . S
C50 C48 1.360 . S
C50 C51 1.372 . S
C51 H46 0.928 . S
C51 C50 1.372 . S
C51 C52 1.404 . S
C52 C51 1.404 . S
C52 C53 1.391 . S
C53 H47 0.930 . S
C53 C49 1.429 . S
C53 C52 1.391 . S
H54 C57 0.931 . S
H55 C60 0.928 . S
H56 C62 0.930 . S
C57 H54 0.931 . S
C57 C58 1.413 . S
C57 C59 1.360 . S
C58 C57 1.413 . S
C58 C62 1.429 . S
C59 C57 1.360 . S
C59 C60 1.372 . S
C60 H55 0.928 . S
C60 C59 1.372 . S
C60 C61 1.404 . S
C61 C60 1.404 . S
C61 C62 1.391 . S
C62 H56 0.930 . S
C62 C58 1.429 . S
C62 C61 1.391 . S
H63 C66 0.931 . S
H64 C69 0.928 . S
H65 C71 0.930 . S
C66 H63 0.931 . S
C66 C67 1.413 . S
C66 C68 1.360 . S
C67 C66 1.413 . S
C67 C71 1.429 . S
C68 C66 1.360 . S
C68 C69 1.372 . S
C69 H64 0.928 . S
C69 C68 1.372 . S
C69 C70 1.404 . S
C70 C69 1.404 . S
C70 C71 1.391 . S
C71 H65 0.930 . S
C71 C67 1.429 . S
C71 C70 1.391 . S
Eu72 N101 2.600 . S
Eu72 N107 2.562 . S
Eu72 O116 2.462 . S
Eu72 O117 2.373 . S
Eu72 O119 2.432 . S
Eu72 O120 2.310 . S
Eu72 O124 2.335 . S
Eu72 O127 2.372 . S
Eu72 C136 2.787 . S
C73 N74 1.365 . S
C73 C76 1.405 . S
C73 C80 1.448 . S
N74 C73 1.365 . S
N74 C77 1.319 . S
N74 Eu83 2.600 . S
C75 C77 1.397 . S
C75 C78 1.367 . S
C75 H95 0.931 . S
C76 C73 1.405 . S
C76 C78 1.403 . S
C76 C82 1.439 . S
C77 N74 1.319 . S
C77 C75 1.397 . S
C77 H88 0.930 . S
C78 C75 1.367 . S
C78 C76 1.403 . S
C78 H99 0.929 . S
C79 C80 1.430 . S
C79 C81 1.387 . S
C79 C85 1.404 . S
C80 C73 1.448 . S
C80 C79 1.430 . S
C80 N84 1.351 . S
C81 C79 1.387 . S
C81 C82 1.374 . S
C81 H96 0.931 . S
C82 C76 1.439 . S
C82 C81 1.374 . S
C82 H97 0.931 . S
Eu83 N74 2.600 . S
Eu83 N84 2.562 . S
Eu83 O118 2.337 . S
Eu83 O121 2.372 . S
Eu83 O122 2.462 . S
Eu83 O123 2.373 . S
Eu83 O125 2.432 . S
Eu83 O126 2.276 1_655 S
Eu83 C147 2.787 . S
N84 C80 1.351 . S
N84 Eu83 2.562 . S
N84 C86 1.325 . S
C85 C79 1.404 . S
C85 C87 1.366 . S
C85 H93 0.930 . S
C86 N84 1.325 . S
C86 C87 1.416 . S
C86 H92 0.929 . S
C87 C85 1.366 . S
C87 C86 1.416 . S
C87 H89 0.930 . S
H88 C77 0.930 . S
H89 C87 0.930 . S
H90 C105 0.930 . S
H91 C112 0.930 . S
H92 C86 0.929 . S
H93 C85 0.930 . S
H94 C108 0.929 . S
H95 C75 0.931 . S
H96 C81 0.931 . S
H97 C82 0.931 . S
H98 C103 0.931 . S
H99 C78 0.929 . S
H100 C111 0.930 . S
N101 Eu72 2.600 . S
N101 C102 1.365 . S
N101 C105 1.319 . S
C102 N101 1.365 . S
C102 C104 1.405 . S
C102 C110 1.448 . S
C103 H98 0.931 . S
C103 C105 1.397 . S
C103 C106 1.367 . S
C104 C102 1.405 . S
C104 C106 1.403 . S
C104 C137 1.439 . S
C105 H90 0.930 . S
C105 N101 1.319 . S
C105 C103 1.397 . S
C106 C103 1.367 . S
C106 C104 1.403 . S
C106 H113 0.929 . S
N107 Eu72 2.562 . S
N107 C108 1.325 . S
N107 C110 1.351 . S
C108 H94 0.929 . S
C108 N107 1.325 . S
C108 C112 1.416 . S
C109 C110 1.430 . S
C109 C111 1.404 . S
C109 C138 1.387 . S
C110 C102 1.448 . S
C110 N107 1.351 . S
C110 C109 1.430 . S
C111 H100 0.930 . S
C111 C109 1.404 . S
C111 C112 1.366 . S
C112 H91 0.930 . S
C112 C108 1.416 . S
C112 C111 1.366 . S
H113 C106 0.929 . S
H114 C137 0.931 . S
H115 C138 0.931 . S
O116 Eu72 2.462 . S
O116 C136 1.252 . S
O117 Eu72 2.373 . S
O117 C128 1.249 . S
O118 Eu83 2.337 . S
O118 C128 1.261 1_655 S
O119 Eu72 2.432 . S
O119 C136 1.268 . S
O120 Eu72 2.310 . S
O120 C135 1.233 1_455 S
O121 Eu83 2.372 . S
O121 C135 1.257 . S
O122 Eu83 2.462 . S
O122 C147 1.252 . S
O123 Eu83 2.373 . S
O123 C139 1.249 . S
O124 Eu72 2.335 . S
O124 C139 1.264 1_455 S
O125 Eu83 2.432 . S
O125 C147 1.268 . S
O126 Eu83 2.276 1_455 S
O126 C146 1.274 . S
O127 Eu72 2.372 . S
O127 C146 1.257 . S
C128 O117 1.249 . S
C128 O118 1.261 1_455 S
C129 C132 1.382 . S
C129 C134 1.390 . S
C129 C136 1.506 . S
C130 C131 1.398 . S
C130 C134 1.392 . S
C131 C130 1.398 . S
C131 C133 1.372 . S
C131 H148 0.931 . S
C132 C129 1.382 . S
C132 C133 1.390 . S
C132 H149 0.931 . S
C133 C131 1.372 . S
C133 C132 1.390 . S
C133 H150 0.929 . S
C134 C129 1.390 . S
C134 C130 1.392 . S
C134 H151 0.930 . S
C135 O120 1.233 1_655 S
C135 O121 1.257 . S
C136 Eu72 2.787 . S
C136 O116 1.252 . S
C136 O119 1.268 . S
C136 C129 1.506 . S
C137 C104 1.439 . S
C137 H114 0.931 . S
C137 C138 1.374 . S
C138 C109 1.387 . S
C138 H115 0.931 . S
C138 C137 1.374 . S
C139 O123 1.249 . S
C139 O124 1.264 1_655 S
C140 C143 1.382 . S
C140 C144 1.390 . S
C140 C147 1.506 . S
C141 C142 1.398 . S
C141 C144 1.392 . S
C142 C141 1.398 . S
C142 C145 1.372 . S
C142 H152 0.931 . S
C143 C140 1.382 . S
C143 C145 1.390 . S
C143 H153 0.931 . S
C144 C140 1.390 . S
C144 C141 1.392 . S
C144 H154 0.930 . S
C145 C142 1.372 . S
C145 C143 1.390 . S
C145 H155 0.929 . S
C146 O126 1.274 . S
C146 O127 1.257 . S
C147 Eu83 2.787 . S
C147 O122 1.252 . S
C147 O125 1.268 . S
C147 C140 1.506 . S
H148 C131 0.931 . S
H149 C132 0.931 . S
H150 C133 0.929 . S
H151 C134 0.930 . S
H152 C142 0.931 . S
H153 C143 0.931 . S
H154 C144 0.930 . S
H155 C145 0.929 . S
Eu156 N185 2.600 . S
Eu156 N191 2.562 . S
Eu156 O200 2.462 . S
Eu156 O201 2.373 . S
Eu156 O203 2.432 . S
Eu156 O204 2.291 . S
Eu156 O208 2.335 . S
Eu156 O211 2.372 . S
Eu156 C220 2.787 . S
C157 N158 1.365 . S
C157 C160 1.405 . S
C157 C164 1.448 . S
N158 C157 1.365 . S
N158 C161 1.319 . S
N158 Eu167 2.600 . S
C159 C161 1.397 . S
C159 C162 1.367 . S
C159 H179 0.931 . S
C160 C157 1.405 . S
C160 C162 1.403 . S
C160 C166 1.439 . S
C161 N158 1.319 . S
C161 C159 1.397 . S
C161 H172 0.930 . S
C162 C159 1.367 . S
C162 C160 1.403 . S
C162 H183 0.929 . S
C163 C164 1.430 . S
C163 C165 1.387 . S
C163 C169 1.404 . S
C164 C157 1.448 . S
C164 C163 1.430 . S
C164 N168 1.351 . S
C165 C163 1.387 . S
C165 C166 1.374 . S
C165 H180 0.931 . S
C166 C160 1.439 . S
C166 C165 1.374 . S
C166 H181 0.931 . S
Eu167 N158 2.600 . S
Eu167 N168 2.562 . S
Eu167 O202 2.335 . S
Eu167 O205 2.372 . S
Eu167 O206 2.462 . S
Eu167 O207 2.373 . S
Eu167 O209 2.432 . S
Eu167 O210 2.291 . S
Eu167 C231 2.787 . S
N168 C164 1.351 . S
N168 Eu167 2.562 . S
N168 C170 1.325 . S
C169 C163 1.404 . S
C169 C171 1.366 . S
C169 H177 0.930 . S
C170 N168 1.325 . S
C170 C171 1.416 . S
C170 H176 0.929 . S
C171 C169 1.366 . S
C171 C170 1.416 . S
C171 H173 0.930 . S
H172 C161 0.930 . S
H173 C171 0.930 . S
H174 C189 0.930 . S
H175 C196 0.930 . S
H176 C170 0.929 . S
H177 C169 0.930 . S
H178 C192 0.929 . S
H179 C159 0.931 . S
H180 C165 0.931 . S
H181 C166 0.931 . S
H182 C187 0.931 . S
H183 C162 0.929 . S
H184 C195 0.930 . S
N185 Eu156 2.600 . S
N185 C186 1.365 . S
N185 C189 1.319 . S
C186 N185 1.365 . S
C186 C188 1.405 . S
C186 C194 1.448 . S
C187 H182 0.931 . S
C187 C189 1.397 . S
C187 C190 1.367 . S
C188 C186 1.405 . S
C188 C190 1.403 . S
C188 C221 1.439 . S
C189 H174 0.930 . S
C189 N185 1.319 . S
C189 C187 1.397 . S
C190 C187 1.367 . S
C190 C188 1.403 . S
C190 H197 0.929 . S
N191 Eu156 2.562 . S
N191 C192 1.325 . S
N191 C194 1.351 . S
C192 H178 0.929 . S
C192 N191 1.325 . S
C192 C196 1.416 . S
C193 C194 1.430 . S
C193 C195 1.404 . S
C193 C222 1.387 . S
C194 C186 1.448 . S
C194 N191 1.351 . S
C194 C193 1.430 . S
C195 H184 0.930 . S
C195 C193 1.404 . S
C195 C196 1.366 . S
C196 H175 0.930 . S
C196 C192 1.416 . S
C196 C195 1.366 . S
H197 C190 0.929 . S
H198 C221 0.931 . S
H199 C222 0.931 . S
O200 Eu156 2.462 . S
O200 C220 1.252 . S
O201 Eu156 2.373 . S
O201 C212 1.249 . S
O202 Eu167 2.335 . S
O202 C212 1.264 . S
O203 Eu156 2.432 . S
O203 C220 1.268 . S
O204 Eu156 2.291 . S
O204 C219 1.255 . S
O205 Eu167 2.372 . S
O205 C219 1.257 . S
O206 Eu167 2.462 . S
O206 C231 1.252 . S
O207 Eu167 2.373 . S
O207 C223 1.249 . S
O208 Eu156 2.335 . S
O208 C223 1.264 . S
O209 Eu167 2.432 . S
O209 C231 1.268 . S
O210 Eu167 2.291 . S
O210 C230 1.255 . S
O211 Eu156 2.372 . S
O211 C230 1.257 . S
C212 O201 1.249 . S
C212 O202 1.264 . S
C213 C216 1.382 . S
C213 C218 1.390 . S
C213 C220 1.506 . S
C214 C215 1.398 . S
C214 C218 1.392 . S
C215 C214 1.398 . S
C215 C217 1.372 . S
C215 H232 0.931 . S
C216 C213 1.382 . S
C216 C217 1.390 . S
C216 H233 0.931 . S
C217 C215 1.372 . S
C217 C216 1.390 . S
C217 H234 0.929 . S
C218 C213 1.390 . S
C218 C214 1.392 . S
C218 H235 0.930 . S
C219 O204 1.255 . S
C219 O205 1.257 . S
C220 Eu156 2.787 . S
C220 O200 1.252 . S
C220 O203 1.268 . S
C220 C213 1.506 . S
C221 C188 1.439 . S
C221 H198 0.931 . S
C221 C222 1.374 . S
C222 C193 1.387 . S
C222 H199 0.931 . S
C222 C221 1.374 . S
C223 O207 1.249 . S
C223 O208 1.264 . S
C224 C227 1.382 . S
C224 C228 1.390 . S
C224 C231 1.506 . S
C225 C226 1.398 . S
C225 C228 1.392 . S
C226 C225 1.398 . S
C226 C229 1.372 . S
C226 H236 0.931 . S
C227 C224 1.382 . S
C227 C229 1.390 . S
C227 H237 0.931 . S
C228 C224 1.390 . S
C228 C225 1.392 . S
C228 H238 0.930 . S
C229 C226 1.372 . S
C229 C227 1.390 . S
C229 H239 0.929 . S
C230 O210 1.255 . S
C230 O211 1.257 . S
C231 Eu167 2.787 . S
C231 O206 1.252 . S
C231 O209 1.268 . S
C231 C224 1.506 . S
H232 C215 0.931 . S
H233 C216 0.931 . S
H234 C217 0.929 . S
H235 C218 0.930 . S
H236 C226 0.931 . S
H237 C227 0.931 . S
H238 C228 0.930 . S
H239 C229 0.929 . S
Eu240 N269 2.600 . S
Eu240 N275 2.562 . S
Eu240 O284 2.462 . S
Eu240 O285 2.373 . S
Eu240 O287 2.432 . S
Eu240 O288 2.291 . S
Eu240 O292 2.335 . S
Eu240 O295 2.372 . S
Eu240 C304 2.787 . S
C241 N242 1.365 . S
C241 C244 1.405 . S
C241 C248 1.448 . S
N242 C241 1.365 . S
N242 C245 1.319 . S
N242 Eu251 2.600 . S
C243 C245 1.397 . S
C243 C246 1.367 . S
C243 H263 0.931 . S
C244 C241 1.405 . S
C244 C246 1.403 . S
C244 C250 1.439 . S
C245 N242 1.319 . S
C245 C243 1.397 . S
C245 H256 0.930 . S
C246 C243 1.367 . S
C246 C244 1.403 . S
C246 H267 0.929 . S
C247 C248 1.430 . S
C247 C249 1.387 . S
C247 C253 1.404 . S
C248 C241 1.448 . S
C248 C247 1.430 . S
C248 N252 1.351 . S
C249 C247 1.387 . S
C249 C250 1.374 . S
C249 H264 0.931 . S
C250 C244 1.439 . S
C250 C249 1.374 . S
C250 H265 0.931 . S
Eu251 N242 2.600 . S
Eu251 N252 2.562 . S
Eu251 O286 2.335 1_655 S
Eu251 O289 2.372 . S
Eu251 O290 2.462 . S
Eu251 O291 2.373 . S
Eu251 O293 2.432 . S
Eu251 O294 2.291 1_655 S
Eu251 C315 2.787 . S
N252 C248 1.351 . S
N252 Eu251 2.562 . S
N252 C254 1.325 . S
C253 C247 1.404 . S
C253 C255 1.366 . S
C253 H261 0.930 . S
C254 N252 1.325 . S
C254 C255 1.416 . S
C254 H260 0.929 . S
C255 C253 1.366 . S
C255 C254 1.416 . S
C255 H257 0.930 . S
H256 C245 0.930 . S
H257 C255 0.930 . S
H258 C273 0.930 . S
H259 C280 0.930 . S
H260 C254 0.929 . S
H261 C253 0.930 . S
H262 C276 0.929 . S
H263 C243 0.931 . S
H264 C249 0.931 . S
H265 C250 0.931 . S
H266 C271 0.931 . S
H267 C246 0.929 . S
H268 C279 0.930 . S
N269 Eu240 2.600 . S
N269 C270 1.365 . S
N269 C273 1.319 . S
C270 N269 1.365 . S
C270 C272 1.405 . S
C270 C278 1.448 . S
C271 H266 0.931 . S
C271 C273 1.397 . S
C271 C274 1.367 . S
C272 C270 1.405 . S
C272 C274 1.403 . S
C272 C305 1.439 . S
C273 H258 0.930 . S
C273 N269 1.319 . S
C273 C271 1.397 . S
C274 C271 1.367 . S
C274 C272 1.403 . S
C274 H281 0.929 . S
N275 Eu240 2.562 . S
N275 C276 1.325 . S
N275 C278 1.351 . S
C276 H262 0.929 . S
C276 N275 1.325 . S
C276 C280 1.416 . S
C277 C278 1.430 . S
C277 C279 1.404 . S
C277 C306 1.387 . S
C278 C270 1.448 . S
C278 N275 1.351 . S
C278 C277 1.430 . S
C279 H268 0.930 . S
C279 C277 1.404 . S
C279 C280 1.366 . S
C280 H259 0.930 . S
C280 C276 1.416 . S
C280 C279 1.366 . S
H281 C274 0.929 . S
H282 C305 0.931 . S
H283 C306 0.931 . S
O284 Eu240 2.462 . S
O284 C304 1.252 . S
O285 Eu240 2.373 . S
O285 C296 1.249 . S
O286 Eu251 2.335 1_455 S
O286 C296 1.264 . S
O287 Eu240 2.432 . S
O287 C304 1.268 . S
O288 Eu240 2.291 . S
O288 C303 1.255 1_455 S
O289 Eu251 2.372 . S
O289 C303 1.257 . S
O290 Eu251 2.462 . S
O290 C315 1.252 . S
O291 Eu251 2.373 . S
O291 C307 1.249 . S
O292 Eu240 2.335 . S
O292 C307 1.264 1_455 S
O293 Eu251 2.432 . S
O293 C315 1.268 . S
O294 Eu251 2.291 1_455 S
O294 C314 1.255 . S
O295 Eu240 2.372 . S
O295 C314 1.257 . S
C296 O285 1.249 . S
C296 O286 1.264 . S
C297 C300 1.382 . S
C297 C302 1.390 . S
C297 C304 1.506 . S
C298 C299 1.398 . S
C298 C302 1.392 . S
C299 C298 1.398 . S
C299 C301 1.372 . S
C299 H316 0.931 . S
C300 C297 1.382 . S
C300 C301 1.390 . S
C300 H317 0.931 . S
C301 C299 1.372 . S
C301 C300 1.390 . S
C301 H318 0.929 . S
C302 C297 1.390 . S
C302 C298 1.392 . S
C302 H319 0.930 . S
C303 O288 1.255 1_655 S
C303 O289 1.257 . S
C304 Eu240 2.787 . S
C304 O284 1.252 . S
C304 O287 1.268 . S
C304 C297 1.506 . S
C305 C272 1.439 . S
C305 H282 0.931 . S
C305 C306 1.374 . S
C306 C277 1.387 . S
C306 H283 0.931 . S
C306 C305 1.374 . S
C307 O291 1.249 . S
C307 O292 1.264 1_655 S
C308 C311 1.382 . S
C308 C312 1.390 . S
C308 C315 1.506 . S
C309 C310 1.398 . S
C309 C312 1.392 . S
C310 C309 1.398 . S
C310 C313 1.372 . S
C310 H320 0.931 . S
C311 C308 1.382 . S
C311 C313 1.390 . S
C311 H321 0.931 . S
C312 C308 1.390 . S
C312 C309 1.392 . S
C312 H322 0.930 . S
C313 C310 1.372 . S
C313 C311 1.390 . S
C313 H323 0.929 . S
C314 O294 1.255 . S
C314 O295 1.257 . S
C315 Eu251 2.787 . S
C315 O290 1.252 . S
C315 O293 1.268 . S
C315 C308 1.506 . S
H316 C299 0.931 . S
H317 C300 0.931 . S
H318 C301 0.929 . S
H319 C302 0.930 . S
H320 C310 0.931 . S
H321 C311 0.931 . S
H322 C312 0.930 . S
H323 C313 0.929 . S
Eu324 N353 2.600 . S
Eu324 N359 2.562 . S
Eu324 O368 2.462 . S
Eu324 O369 2.373 . S
Eu324 O371 2.432 . S
Eu324 O372 2.291 . S
Eu324 O376 2.335 . S
Eu324 O379 2.372 . S
Eu324 C388 2.787 . S
C325 N326 1.365 . S
C325 C328 1.405 . S
C325 C332 1.448 . S
N326 C325 1.365 . S
N326 C329 1.319 . S
N326 Eu335 2.600 . S
C327 C329 1.397 . S
C327 C330 1.367 . S
C327 H347 0.931 . S
C328 C325 1.405 . S
C328 C330 1.403 . S
C328 C334 1.439 . S
C329 N326 1.319 . S
C329 C327 1.397 . S
C329 H340 0.930 . S
C330 C327 1.367 . S
C330 C328 1.403 . S
C330 H351 0.929 . S
C331 C332 1.430 . S
C331 C333 1.387 . S
C331 C337 1.404 . S
C332 C325 1.448 . S
C332 C331 1.430 . S
C332 N336 1.351 . S
C333 C331 1.387 . S
C333 C334 1.374 . S
C333 H348 0.931 . S
C334 C328 1.439 . S
C334 C333 1.374 . S
C334 H349 0.931 . S
Eu335 N326 2.600 . S
Eu335 N336 2.562 . S
Eu335 O370 2.335 . S
Eu335 O373 2.372 . S
Eu335 O374 2.462 . S
Eu335 O375 2.373 . S
Eu335 O377 2.432 . S
Eu335 O378 2.291 . S
Eu335 C399 2.787 . S
N336 C332 1.351 . S
N336 Eu335 2.562 . S
N336 C338 1.325 . S
C337 C331 1.404 . S
C337 C339 1.366 . S
C337 H345 0.930 . S
C338 N336 1.325 . S
C338 C339 1.416 . S
C338 H344 0.929 . S
C339 C337 1.366 . S
C339 C338 1.416 . S
C339 H341 0.930 . S
H340 C329 0.930 . S
H341 C339 0.930 . S
H342 C357 0.930 . S
H343 C364 0.930 . S
H344 C338 0.929 . S
H345 C337 0.930 . S
H346 C360 0.929 . S
H347 C327 0.931 . S
H348 C333 0.931 . S
H349 C334 0.931 . S
H350 C355 0.931 . S
H351 C330 0.929 . S
H352 C363 0.930 . S
N353 Eu324 2.600 . S
N353 C354 1.365 . S
N353 C357 1.319 . S
C354 N353 1.365 . S
C354 C356 1.405 . S
C354 C362 1.448 . S
C355 H350 0.931 . S
C355 C357 1.397 . S
C355 C358 1.367 . S
C356 C354 1.405 . S
C356 C358 1.403 . S
C356 C389 1.439 . S
C357 H342 0.930 . S
C357 N353 1.319 . S
C357 C355 1.397 . S
C358 C355 1.367 . S
C358 C356 1.403 . S
C358 H365 0.929 . S
N359 Eu324 2.562 . S
N359 C360 1.325 . S
N359 C362 1.351 . S
C360 H346 0.929 . S
C360 N359 1.325 . S
C360 C364 1.416 . S
C361 C362 1.430 . S
C361 C363 1.404 . S
C361 C390 1.387 . S
C362 C354 1.448 . S
C362 N359 1.351 . S
C362 C361 1.430 . S
C363 H352 0.930 . S
C363 C361 1.404 . S
C363 C364 1.366 . S
C364 H343 0.930 . S
C364 C360 1.416 . S
C364 C363 1.366 . S
H365 C358 0.929 . S
H366 C389 0.931 . S
H367 C390 0.931 . S
O368 Eu324 2.462 . S
O368 C388 1.252 . S
O369 Eu324 2.373 . S
O369 C380 1.249 . S
O370 Eu335 2.335 . S
O370 C380 1.264 . S
O371 Eu324 2.432 . S
O371 C388 1.268 . S
O372 Eu324 2.291 . S
O372 C387 1.255 . S
O373 Eu335 2.372 . S
O373 C387 1.257 . S
O374 Eu335 2.462 . S
O374 C399 1.252 . S
O375 Eu335 2.373 . S
O375 C391 1.249 . S
O376 Eu324 2.335 . S
O376 C391 1.264 . S
O377 Eu335 2.432 . S
O377 C399 1.268 . S
O378 Eu335 2.291 . S
O378 C398 1.255 . S
O379 Eu324 2.372 . S
O379 C398 1.257 . S
C380 O369 1.249 . S
C380 O370 1.264 . S
C381 C384 1.382 . S
C381 C386 1.390 . S
C381 C388 1.506 . S
C382 C383 1.398 . S
C382 C386 1.392 . S
C383 C382 1.398 . S
C383 C385 1.372 . S
C383 H400 0.931 . S
C384 C381 1.382 . S
C384 C385 1.390 . S
C384 H401 0.931 . S
C385 C383 1.372 . S
C385 C384 1.390 . S
C385 H402 0.929 . S
C386 C381 1.390 . S
C386 C382 1.392 . S
C386 H403 0.930 . S
C387 O372 1.255 . S
C387 O373 1.257 . S
C388 Eu324 2.787 . S
C388 O368 1.252 . S
C388 O371 1.268 . S
C388 C381 1.506 . S
C389 C356 1.439 . S
C389 H366 0.931 . S
C389 C390 1.374 . S
C390 C361 1.387 . S
C390 H367 0.931 . S
C390 C389 1.374 . S
C391 O375 1.249 . S
C391 O376 1.264 . S
C392 C395 1.382 . S
C392 C396 1.390 . S
C392 C399 1.506 . S
C393 C394 1.398 . S
C393 C396 1.392 . S
C394 C393 1.398 . S
C394 C397 1.372 . S
C394 H404 0.931 . S
C395 C392 1.382 . S
C395 C397 1.390 . S
C395 H405 0.931 . S
C396 C392 1.390 . S
C396 C393 1.392 . S
C396 H406 0.930 . S
C397 C394 1.372 . S
C397 C395 1.390 . S
C397 H407 0.929 . S
C398 O378 1.255 . S
C398 O379 1.257 . S
C399 Eu335 2.787 . S
C399 O374 1.252 . S
C399 O377 1.268 . S
C399 C392 1.506 . S
H400 C383 0.931 . S
H401 C384 0.931 . S
H402 C385 0.929 . S
H403 C386 0.930 . S
H404 C394 0.931 . S
H405 C395 0.931 . S
H406 C396 0.930 . S
H407 C397 0.929 . S
C408 C409 1.349 . S
C408 C410 1.327 . S
C408 H433 0.950 . S
C409 C408 1.349 . S
C409 C425 1.349 . S
C410 C408 1.327 . S
C410 C429 1.429 . S
C410 H434 0.950 . S
C411 C428 1.574 . S
C411 C430 1.368 1_545 S
C411 H435 0.949 . S
H412 C416 0.949 . S
C413 C414 1.349 . S
C413 C415 1.327 . S
C413 H436 0.950 . S
C414 C413 1.349 . S
C414 C426 1.349 . S
C415 C413 1.327 . S
C415 C431 1.429 . S
C415 H437 0.950 . S
C416 H412 0.949 . S
C416 C424 1.574 1_545 S
C416 C432 1.368 . S
H417 C425 0.950 . S
H418 C423 0.950 . S
H419 C424 0.949 . S
H420 C426 0.938 1_655 S
H421 C427 0.950 . S
H422 C428 0.949 . S
C423 H418 0.950 . S
C423 C425 1.327 . S
C423 C429 1.429 . S
C424 C416 1.574 1_565 S
C424 H419 0.949 . S
C424 C430 1.368 . S
C425 C409 1.349 . S
C425 H417 0.950 . S
C425 C423 1.327 . S
C426 C414 1.349 . S
C426 H420 0.938 1_455 S
C426 C427 1.327 . S
C427 H421 0.950 . S
C427 C426 1.327 . S
C427 C431 1.429 . S
C428 C411 1.574 . S
C428 H422 0.949 . S
C428 C432 1.368 . S
C429 C410 1.429 . S
C429 C423 1.429 . S
C429 C430 1.523 . S
C430 C411 1.368 1_565 S
C430 C424 1.368 . S
C430 C429 1.523 . S
C431 C415 1.429 . S
C431 C427 1.429 . S
C431 C432 1.523 . S
C432 C416 1.368 . S
C432 C428 1.368 . S
C432 C431 1.523 . S
H433 C408 0.950 . S
H434 C410 0.950 . S
H435 C411 0.949 . S
H436 C413 0.950 . S
H437 C415 0.950 . S
C438 C439 1.349 . S
C438 C440 1.327 . S
C438 H463 0.950 . S
C439 C438 1.349 . S
C439 C455 1.349 . S
C440 C438 1.327 . S
C440 C459 1.429 . S
C440 H464 0.950 . S
C441 C458 1.574 . S
C441 C460 1.368 . S
C441 H465 0.949 . S
H442 C446 0.949 . S
C443 C444 1.349 . S
C443 C445 1.327 . S
C443 H466 0.950 . S
C444 C443 1.349 . S
C444 C456 1.349 . S
C445 C443 1.327 . S
C445 C461 1.429 . S
C445 H467 0.950 . S
C446 H442 0.949 . S
C446 C454 1.574 . S
C446 C462 1.368 . S
H447 C455 0.950 . S
H448 C453 0.950 . S
H449 C454 0.949 . S
H450 C456 0.950 . S
H451 C457 0.950 . S
H452 C458 0.949 . S
C453 H448 0.950 . S
C453 C455 1.327 . S
C453 C459 1.429 . S
C454 C446 1.574 . S
C454 H449 0.949 . S
C454 C460 1.368 . S
C455 C439 1.349 . S
C455 H447 0.950 . S
C455 C453 1.327 . S
C456 C444 1.349 . S
C456 H450 0.950 . S
C456 C457 1.327 . S
C457 H451 0.950 . S
C457 C456 1.327 . S
C457 C461 1.429 . S
C458 C441 1.574 . S
C458 H452 0.949 . S
C458 C462 1.368 . S
C459 C440 1.429 . S
C459 C453 1.429 . S
C459 C460 1.523 . S
C460 C441 1.368 . S
C460 C454 1.368 . S
C460 C459 1.523 . S
C461 C445 1.429 . S
C461 C457 1.429 . S
C461 C462 1.523 . S
C462 C446 1.368 . S
C462 C458 1.368 . S
C462 C461 1.523 . S
H463 C438 0.950 . S
H464 C440 0.950 . S
H465 C441 0.949 . S
H466 C443 0.950 . S
H467 C445 0.950 . S
C468 C469 1.349 . S
C468 C470 1.327 . S
C468 H493 0.950 . S
C469 C468 1.349 . S
C469 C485 1.349 . S
C470 C468 1.327 . S
C470 C489 1.429 . S
C470 H494 0.950 . S
C471 C488 1.574 . S
C471 C490 1.368 . S
C471 H495 0.949 . S
H472 C476 0.949 . S
C473 C474 1.349 . S
C473 C475 1.327 . S
C473 H496 0.950 . S
C474 C473 1.349 . S
C474 C486 1.349 . S
C475 C473 1.327 . S
C475 C491 1.429 . S
C475 H497 0.950 . S
C476 H472 0.949 . S
C476 C484 1.574 . S
C476 C492 1.368 . S
H477 C485 0.950 . S
H478 C483 0.950 . S
H479 C484 0.949 . S
H480 C486 0.950 . S
H481 C487 0.950 . S
H482 C488 0.949 . S
C483 H478 0.950 . S
C483 C485 1.327 . S
C483 C489 1.429 . S
C484 C476 1.574 . S
C484 H479 0.949 . S
C484 C490 1.368 . S
C485 C469 1.349 . S
C485 H477 0.950 . S
C485 C483 1.327 . S
C486 C474 1.349 . S
C486 H480 0.950 . S
C486 C487 1.327 . S
C487 H481 0.950 . S
C487 C486 1.327 . S
C487 C491 1.429 . S
C488 C471 1.574 . S
C488 H482 0.949 . S
C488 C492 1.368 . S
C489 C470 1.429 . S
C489 C483 1.429 . S
C489 C490 1.523 . S
C490 C471 1.368 . S
C490 C484 1.368 . S
C490 C489 1.523 . S
C491 C475 1.429 . S
C491 C487 1.429 . S
C491 C492 1.523 . S
C492 C476 1.368 . S
C492 C488 1.368 . S
C492 C491 1.523 . S
H493 C468 0.950 . S
H494 C470 0.950 . S
H495 C471 0.949 . S
H496 C473 0.950 . S
H497 C475 0.950 . S
C498 C499 1.349 . S
C498 C500 1.327 . S
C498 H523 0.950 . S
C499 C498 1.349 . S
C499 C515 1.349 . S
C500 C498 1.327 . S
C500 C519 1.429 . S
C500 H524 0.950 . S
C501 C518 1.587 . S
C501 C520 1.368 . S
C501 H525 0.949 . S
H502 C506 0.949 . S
C503 C504 1.349 . S
C503 C505 1.327 . S
C503 H526 0.950 . S
C504 C503 1.349 . S
C504 C516 1.349 . S
C505 C503 1.327 . S
C505 C521 1.429 . S
C505 H527 0.950 . S
C506 H502 0.949 . S
C506 C514 1.574 . S
C506 C522 1.368 . S
H507 C515 0.950 . S
H508 C513 0.950 . S
H509 C514 0.949 . S
H510 C516 0.950 . S
H511 C517 0.950 . S
H512 C518 0.952 . S
C513 H508 0.950 . S
C513 C515 1.327 . S
C513 C519 1.429 . S
C514 C506 1.574 . S
C514 H509 0.949 . S
C514 C520 1.368 1_545 S
C515 C499 1.349 . S
C515 H507 0.950 . S
C515 C513 1.327 . S
C516 C504 1.349 . S
C516 H510 0.950 . S
C516 C517 1.327 . S
C517 H511 0.950 . S
C517 C516 1.327 . S
C517 C521 1.429 . S
C518 C501 1.587 . S
C518 H512 0.952 . S
C518 C522 1.352 1_565 S
C519 C500 1.429 . S
C519 C513 1.429 . S
C519 C520 1.523 . S
C520 C501 1.368 . S
C520 C514 1.368 1_565 S
C520 C519 1.523 . S
C521 C505 1.429 . S
C521 C517 1.429 . S
C521 C522 1.523 . S
C522 C506 1.368 . S
C522 C518 1.352 1_545 S
C522 C521 1.523 . S
H523 C498 0.950 . S
H524 C500 0.950 . S
H525 C501 0.949 . S
H526 C503 0.950 . S
H527 C505 0.950 . S
C528 C529 1.349 . S
C528 C530 1.327 . S
C528 H553 0.950 . S
C529 C528 1.349 . S
C529 C545 1.349 . S
C530 C528 1.327 . S
C530 C549 1.429 . S
C530 H554 0.950 . S
C531 C548 1.595 . S
C531 C550 1.352 1_565 S
C531 H555 0.945 1_565 S
H532 C536 0.949 . S
C533 C534 1.349 . S
C533 C535 1.327 . S
C533 H556 0.950 . S
C534 C533 1.349 . S
C534 C546 1.349 . S
C535 C533 1.327 . S
C535 C551 1.429 . S
C535 H557 0.950 . S
C536 H532 0.949 . S
C536 C544 1.574 1_565 S
C536 C552 1.368 . S
H537 C545 0.950 . S
H538 C543 0.950 . S
H539 C544 0.949 . S
H540 C546 0.950 1_455 S
H541 C547 0.950 . S
H542 C548 0.949 . S
C543 H538 0.950 . S
C543 C545 1.327 . S
C543 C549 1.429 . S
C544 C536 1.574 1_545 S
C544 H539 0.949 . S
C544 C550 1.368 . S
C545 C529 1.349 . S
C545 H537 0.950 . S
C545 C543 1.327 . S
C546 C534 1.349 . S
C546 H540 0.950 1_655 S
C546 C547 1.327 . S
C547 H541 0.950 . S
C547 C546 1.327 . S
C547 C551 1.429 . S
C548 C531 1.595 . S
C548 H542 0.949 . S
C548 C552 1.368 . S
C549 C530 1.429 . S
C549 C543 1.429 . S
C549 C550 1.523 . S
C550 C531 1.352 1_545 S
C550 C544 1.368 . S
C550 C549 1.523 . S
C551 C535 1.429 . S
C551 C547 1.429 . S
C551 C552 1.523 . S
C552 C536 1.368 . S
C552 C548 1.368 . S
C552 C551 1.523 . S
H553 C528 0.950 . S
H554 C530 0.950 . S
H555 C531 0.945 1_545 S
H556 C533 0.950 . S
H557 C535 0.950 . S
C558 C559 1.349 . S
C558 C560 1.327 . S
C558 H583 0.950 . S
C559 C558 1.349 . S
C559 C575 1.349 . S
C560 C558 1.327 . S
C560 C579 1.429 . S
C560 H584 0.950 . S
C561 C578 1.574 . S
C561 C580 1.368 . S
C561 H585 0.949 . S
H562 C566 0.949 . S
C563 C564 1.349 . S
C563 C565 1.327 . S
C563 H586 0.950 . S
C564 C563 1.349 . S
C564 C576 1.349 . S
C565 C563 1.327 . S
C565 C581 1.429 . S
C565 H587 0.950 . S
C566 H562 0.949 . S
C566 C574 1.574 . S
C566 C582 1.368 . S
H567 C575 0.950 . S
H568 C573 0.950 . S
H569 C574 0.949 . S
H570 C576 0.950 . S
H571 C577 0.950 . S
H572 C578 0.949 . S
C573 H568 0.950 . S
C573 C575 1.327 . S
C573 C579 1.429 . S
C574 C566 1.574 . S
C574 H569 0.949 . S
C574 C580 1.368 . S
C575 C559 1.349 . S
C575 H567 0.950 . S
C575 C573 1.327 . S
C576 C564 1.349 . S
C576 H570 0.950 . S
C576 C577 1.327 . S
C577 H571 0.950 . S
C577 C576 1.327 . S
C577 C581 1.429 . S
C578 C561 1.574 . S
C578 H572 0.949 . S
C578 C582 1.368 . S
C579 C560 1.429 . S
C579 C573 1.429 . S
C579 C580 1.523 . S
C580 C561 1.368 . S
C580 C574 1.368 . S
C580 C579 1.523 . S
C581 C565 1.429 . S
C581 C577 1.429 . S
C581 C582 1.523 . S
C582 C566 1.368 . S
C582 C578 1.368 . S
C582 C581 1.523 . S
H583 C558 0.950 . S
H584 C560 0.950 . S
H585 C561 0.949 . S
H586 C563 0.950 . S
H587 C565 0.950 . S
C588 C589 1.349 . S
C588 C590 1.327 . S
C588 H613 0.950 . S
C589 C588 1.349 . S
C589 C605 1.349 . S
C590 C588 1.327 . S
C590 C609 1.429 . S
C590 H614 0.950 . S
C591 C608 1.574 . S
C591 C610 1.368 . S
C591 H615 0.949 . S
H592 C596 0.949 . S
C593 C594 1.349 . S
C593 C595 1.327 . S
C593 H616 0.950 . S
C594 C593 1.349 . S
C594 C606 1.349 . S
C595 C593 1.327 . S
C595 C611 1.429 . S
C595 H617 0.950 . S
C596 H592 0.949 . S
C596 C604 1.574 . S
C596 C612 1.368 . S
H597 C605 0.950 . S
H598 C603 0.950 . S
H599 C604 0.949 . S
H600 C606 0.950 . S
H601 C607 0.950 . S
H602 C608 0.949 . S
C603 H598 0.950 . S
C603 C605 1.327 . S
C603 C609 1.429 . S
C604 C596 1.574 . S
C604 H599 0.949 . S
C604 C610 1.368 . S
C605 C589 1.349 . S
C605 H597 0.950 . S
C605 C603 1.327 . S
C606 C594 1.349 . S
C606 H600 0.950 . S
C606 C607 1.327 . S
C607 H601 0.950 . S
C607 C606 1.327 . S
C607 C611 1.429 . S
C608 C591 1.574 . S
C608 H602 0.949 . S
C608 C612 1.368 . S
C609 C590 1.429 . S
C609 C603 1.429 . S
C609 C610 1.523 . S
C610 C591 1.368 . S
C610 C604 1.368 . S
C610 C609 1.523 . S
C611 C595 1.429 . S
C611 C607 1.429 . S
C611 C612 1.523 . S
C612 C596 1.368 . S
C612 C608 1.368 . S
C612 C611 1.523 . S
H613 C588 0.950 . S
H614 C590 0.950 . S
H615 C591 0.949 . S
H616 C593 0.950 . S
H617 C595 0.950 . S
C618 C619 1.349 . S
C618 C620 1.327 . S
C618 H643 0.950 . S
C619 C618 1.349 . S
C619 C635 1.349 . S
C620 C618 1.327 . S
C620 C639 1.429 . S
C620 H644 0.950 . S
C621 C638 1.575 . S
C621 C640 1.367 1_565 S
C621 H645 0.949 1_565 S
H622 C626 0.949 . S
C623 C624 1.349 . S
C623 C625 1.327 . S
C623 H646 0.950 . S
C624 C623 1.349 . S
C624 C636 1.349 . S
C625 C623 1.327 . S
C625 C641 1.429 . S
C625 H647 0.950 . S
C626 H622 0.949 . S
C626 C634 1.574 1_565 S
C626 C642 1.368 . S
H627 C635 0.950 . S
H628 C633 0.950 . S
H629 C634 0.949 . S
H630 C636 0.950 . S
H631 C637 0.950 . S
H632 C638 0.949 . S
C633 H628 0.950 . S
C633 C635 1.327 . S
C633 C639 1.429 . S
C634 C626 1.574 1_545 S
C634 H629 0.949 . S
C634 C640 1.368 . S
C635 C619 1.349 . S
C635 H627 0.950 . S
C635 C633 1.327 . S
C636 C624 1.349 . S
C636 H630 0.950 . S
C636 C637 1.327 . S
C637 H631 0.950 . S
C637 C636 1.327 . S
C637 C641 1.429 . S
C638 C621 1.575 . S
C638 H632 0.949 . S
C638 C642 1.368 . S
C639 C620 1.429 . S
C639 C633 1.429 . S
C639 C640 1.523 . S
C640 C621 1.367 1_545 S
C640 C634 1.368 . S
C640 C639 1.523 . S
C641 C625 1.429 . S
C641 C637 1.429 . S
C641 C642 1.523 . S
C642 C626 1.368 . S
C642 C638 1.368 . S
C642 C641 1.523 . S
H643 C618 0.950 . S
H644 C620 0.950 . S
H645 C621 0.949 1_545 S
H646 C623 0.950 . S
H647 C625 0.950 . S
C648 C649 1.349 . S
C648 C650 1.327 . S
C648 H673 0.950 . S
C649 C648 1.349 . S
C649 C665 1.349 . S
C650 C648 1.327 . S
C650 C669 1.429 . S
C650 H674 0.950 . S
C651 C668 1.574 . S
C651 C670 1.368 . S
C651 H675 0.949 . S
H652 C656 0.949 . S
C653 C654 1.349 . S
C653 C655 1.327 . S
C653 H676 0.950 . S
C654 C653 1.349 . S
C654 C666 1.349 . S
C655 C653 1.327 . S
C655 C671 1.429 . S
C655 H677 0.950 . S
C656 H652 0.949 . S
C656 C664 1.574 . S
C656 C672 1.368 . S
H657 C665 0.950 . S
H658 C663 0.950 . S
H659 C664 0.949 . S
H660 C666 0.950 . S
H661 C667 0.950 . S
H662 C668 0.949 . S
C663 H658 0.950 . S
C663 C665 1.327 . S
C663 C669 1.429 . S
C664 C656 1.574 . S
C664 H659 0.949 . S
C664 C670 1.368 . S
C665 C649 1.349 . S
C665 H657 0.950 . S
C665 C663 1.327 . S
C666 C654 1.349 . S
C666 H660 0.950 . S
C666 C667 1.327 . S
C667 H661 0.950 . S
C667 C666 1.327 . S
C667 C671 1.429 . S
C668 C651 1.574 . S
C668 H662 0.949 . S
C668 C672 1.368 . S
C669 C650 1.429 . S
C669 C663 1.429 . S
C669 C670 1.523 1_556 S
C670 C651 1.368 . S
C670 C664 1.368 . S
C670 C669 1.523 1_554 S
C671 C655 1.429 . S
C671 C667 1.429 . S
C671 C672 1.523 . S
C672 C656 1.368 . S
C672 C668 1.368 . S
C672 C671 1.523 . S
H673 C648 0.950 . S
H674 C650 0.950 . S
H675 C651 0.949 . S
H676 C653 0.950 . S
H677 C655 0.950 . S
C678 C679 1.349 . S
C678 C680 1.327 . S
C678 H703 0.950 . S
C679 C678 1.349 . S
C679 C695 1.349 . S
C680 C678 1.327 . S
C680 C699 1.429 . S
C680 H704 0.950 . S
C681 C698 1.574 . S
C681 C700 1.368 . S
C681 H705 0.949 . S
H682 C686 0.949 . S
C683 C684 1.349 . S
C683 C685 1.327 . S
C683 H706 0.950 . S
C684 C683 1.349 . S
C684 C696 1.349 . S
C685 C683 1.327 . S
C685 C701 1.429 . S
C685 H707 0.950 . S
C686 H682 0.949 . S
C686 C694 1.574 . S
C686 C702 1.368 . S
H687 C695 0.950 . S
H688 C693 0.950 . S
H689 C694 0.949 . S
H690 C696 0.950 . S
H691 C697 0.950 . S
H692 C698 0.949 . S
C693 H688 0.950 . S
C693 C695 1.327 . S
C693 C699 1.429 . S
C694 C686 1.574 . S
C694 H689 0.949 . S
C694 C700 1.368 . S
C695 C679 1.349 . S
C695 H687 0.950 . S
C695 C693 1.327 . S
C696 C684 1.349 . S
C696 H690 0.950 . S
C696 C697 1.327 . S
C697 H691 0.950 . S
C697 C696 1.327 . S
C697 C701 1.429 . S
C698 C681 1.574 . S
C698 H692 0.949 . S
C698 C702 1.368 . S
C699 C680 1.429 . S
C699 C693 1.429 . S
C699 C700 1.523 . S
C700 C681 1.368 . S
C700 C694 1.368 . S
C700 C699 1.523 . S
C701 C685 1.429 . S
C701 C697 1.429 . S
C701 C702 1.523 . S
C702 C686 1.368 . S
C702 C698 1.368 . S
C702 C701 1.523 . S
H703 C678 0.950 . S
H704 C680 0.950 . S
H705 C681 0.949 . S
H706 C683 0.950 . S
H707 C685 0.950 . S
C708 C709 1.349 . S
C708 C710 1.327 . S
C708 H733 0.950 . S
C709 C708 1.349 . S
C709 C725 1.349 . S
C710 C708 1.327 . S
C710 C729 1.429 . S
C710 H734 0.950 . S
C711 C728 1.574 . S
C711 C730 1.368 . S
C711 H735 0.949 . S
H712 C716 0.949 . S
C713 C714 1.349 . S
C713 C715 1.327 . S
C713 H736 0.950 . S
C714 C713 1.349 . S
C714 C726 1.349 . S
C715 C713 1.327 . S
C715 C731 1.429 . S
C715 H737 0.950 . S
C716 H712 0.949 . S
C716 C724 1.574 . S
C716 C732 1.368 . S
H717 C725 0.950 . S
H718 C723 0.950 . S
H719 C724 0.949 . S
H720 C726 0.950 . S
H721 C727 0.950 . S
H722 C728 0.949 . S
C723 H718 0.950 . S
C723 C725 1.327 . S
C723 C729 1.429 . S
C724 C716 1.574 . S
C724 H719 0.949 . S
C724 C730 1.368 . S
C725 C709 1.349 . S
C725 H717 0.950 . S
C725 C723 1.327 . S
C726 C714 1.349 . S
C726 H720 0.950 . S
C726 C727 1.327 . S
C727 H721 0.950 . S
C727 C726 1.327 . S
C727 C731 1.429 . S
C728 C711 1.574 . S
C728 H722 0.949 . S
C728 C732 1.368 . S
C729 C710 1.429 . S
C729 C723 1.429 . S
C729 C730 1.523 1_554 S
C730 C711 1.368 . S
C730 C724 1.368 . S
C730 C729 1.523 1_556 S
C731 C715 1.429 . S
C731 C727 1.429 . S
C731 C732 1.523 . S
C732 C716 1.368 . S
C732 C728 1.368 . S
C732 C731 1.523 . S
H733 C708 0.950 . S
H734 C710 0.950 . S
H735 C711 0.949 . S
H736 C713 0.950 . S
H737 C715 0.950 . S
C738 C739 1.349 . S
C738 C740 1.327 . S
C738 H763 0.950 . S
C739 C738 1.349 . S
C739 C755 1.349 . S
C740 C738 1.327 . S
C740 C759 1.429 . S
C740 H764 0.950 . S
C741 C758 1.574 . S
C741 C760 1.368 . S
C741 H765 0.949 . S
H742 C746 0.949 . S
C743 C744 1.349 . S
C743 C745 1.327 . S
C743 H766 0.950 . S
C744 C743 1.349 . S
C744 C756 1.349 . S
C745 C743 1.327 . S
C745 C761 1.429 . S
C745 H767 0.950 . S
C746 H742 0.949 . S
C746 C754 1.574 . S
C746 C762 1.368 . S
H747 C755 0.950 . S
H748 C753 0.950 . S
H749 C754 0.949 . S
H750 C756 0.950 . S
H751 C757 0.950 . S
H752 C758 0.949 . S
C753 H748 0.950 . S
C753 C755 1.327 . S
C753 C759 1.429 . S
C754 C746 1.574 . S
C754 H749 0.949 . S
C754 C760 1.368 . S
C755 C739 1.349 . S
C755 H747 0.950 . S
C755 C753 1.327 . S
C756 C744 1.349 . S
C756 H750 0.950 . S
C756 C757 1.327 . S
C757 H751 0.950 . S
C757 C756 1.327 . S
C757 C761 1.429 . S
C758 C741 1.574 . S
C758 H752 0.949 . S
C758 C762 1.368 . S
C759 C740 1.429 . S
C759 C753 1.429 . S
C759 C760 1.523 . S
C760 C741 1.368 . S
C760 C754 1.368 . S
C760 C759 1.523 . S
C761 C745 1.429 . S
C761 C757 1.429 . S
C761 C762 1.523 . S
C762 C746 1.368 . S
C762 C758 1.368 . S
C762 C761 1.523 . S
H763 C738 0.950 . S
H764 C740 0.950 . S
H765 C741 0.949 . S
H766 C743 0.950 . S
H767 C745 0.950 . S
C768 C769 1.349 . S
C768 C770 1.327 . S
C768 H793 0.950 . S
C769 C768 1.349 . S
C769 C785 1.349 . S
C770 C768 1.327 . S
C770 C789 1.429 . S
C770 H794 0.950 . S
C771 C788 1.574 . S
C771 C790 1.368 . S
C771 H795 0.949 . S
H772 C776 0.949 . S
C773 C774 1.349 . S
C773 C775 1.327 . S
C773 H796 0.950 . S
C774 C773 1.349 . S
C774 C786 1.349 . S
C775 C773 1.327 . S
C775 C791 1.429 . S
C775 H797 0.950 . S
C776 H772 0.949 . S
C776 C784 1.574 . S
C776 C792 1.368 . S
H777 C785 0.950 . S
H778 C783 0.950 . S
H779 C784 0.949 . S
H780 C786 0.950 . S
H781 C787 0.950 . S
H782 C788 0.949 . S
C783 H778 0.950 . S
C783 C785 1.327 . S
C783 C789 1.429 . S
C784 C776 1.574 . S
C784 H779 0.949 . S
C784 C790 1.368 . S
C785 C769 1.349 . S
C785 H777 0.950 . S
C785 C783 1.327 . S
C786 C774 1.349 . S
C786 H780 0.950 . S
C786 C787 1.327 . S
C787 H781 0.950 . S
C787 C786 1.327 . S
C787 C791 1.429 . S
C788 C771 1.574 . S
C788 H782 0.949 . S
C788 C792 1.368 . S
C789 C770 1.429 . S
C789 C783 1.429 . S
C789 C790 1.523 1_554 S
C790 C771 1.368 . S
C790 C784 1.368 . S
C790 C789 1.523 1_556 S
C791 C775 1.429 . S
C791 C787 1.429 . S
C791 C792 1.523 . S
C792 C776 1.368 . S
C792 C788 1.368 . S
C792 C791 1.523 . S
H793 C768 0.950 . S
H794 C770 0.950 . S
H795 C771 0.949 . S
H796 C773 0.950 . S
H797 C775 0.950 . S
C798 C799 1.349 . S
C798 C800 1.327 . S
C798 H823 0.950 . S
C799 C798 1.349 . S
C799 C815 1.349 . S
C800 C798 1.327 . S
C800 C819 1.429 . S
C800 H824 0.950 . S
C801 C818 1.574 . S
C801 C820 1.368 . S
C801 H825 0.949 . S
H802 C806 0.949 . S
C803 C804 1.349 . S
C803 C805 1.327 . S
C803 H826 0.950 . S
C804 C803 1.349 . S
C804 C816 1.349 . S
C805 C803 1.327 . S
C805 C821 1.429 . S
C805 H827 0.950 . S
C806 H802 0.949 . S
C806 C814 1.574 . S
C806 C822 1.368 . S
H807 C815 0.950 . S
H808 C813 0.950 . S
H809 C814 0.949 . S
H810 C816 0.950 . S
H811 C817 0.950 . S
H812 C818 0.949 . S
C813 H808 0.950 . S
C813 C815 1.327 . S
C813 C819 1.429 . S
C814 C806 1.574 . S
C814 H809 0.949 . S
C814 C820 1.368 . S
C815 C799 1.349 . S
C815 H807 0.950 . S
C815 C813 1.327 . S
C816 C804 1.349 . S
C816 H810 0.950 . S
C816 C817 1.327 . S
C817 H811 0.950 . S
C817 C816 1.327 . S
C817 C821 1.429 . S
C818 C801 1.574 . S
C818 H812 0.949 . S
C818 C822 1.368 . S
C819 C800 1.429 . S
C819 C813 1.429 . S
C819 C820 1.523 . S
C820 C801 1.368 . S
C820 C814 1.368 . S
C820 C819 1.523 . S
C821 C805 1.429 . S
C821 C817 1.429 . S
C821 C822 1.523 . S
C822 C806 1.368 . S
C822 C818 1.368 . S
C822 C821 1.523 . S
H823 C798 0.950 . S
H824 C800 0.950 . S
H825 C801 0.949 . S
H826 C803 0.950 . S
H827 C805 0.950 . S
C828 C829 1.349 . S
C828 C830 1.327 . S
C828 H853 0.950 . S
C829 C828 1.349 . S
C829 C845 1.349 . S
C830 C828 1.327 . S
C830 C849 1.429 . S
C830 H854 0.950 . S
C831 C848 1.574 . S
C831 C850 1.368 . S
C831 H855 0.949 . S
H832 C836 0.949 . S
C833 C834 1.349 . S
C833 C835 1.327 . S
C833 H856 0.950 . S
C834 C833 1.349 . S
C834 C846 1.349 . S
C835 C833 1.327 . S
C835 C851 1.429 . S
C835 H857 0.950 . S
C836 H832 0.949 . S
C836 C844 1.574 . S
C836 C852 1.368 . S
H837 C845 0.950 . S
H838 C843 0.950 . S
H839 C844 0.949 . S
H840 C846 0.950 . S
H841 C847 0.950 . S
H842 C848 0.949 . S
C843 H838 0.950 . S
C843 C845 1.327 . S
C843 C849 1.429 . S
C844 C836 1.574 . S
C844 H839 0.949 . S
C844 C850 1.368 . S
C845 C829 1.349 . S
C845 H837 0.950 . S
C845 C843 1.327 . S
C846 C834 1.349 . S
C846 H840 0.950 . S
C846 C847 1.327 . S
C847 H841 0.950 . S
C847 C846 1.327 . S
C847 C851 1.429 . S
C848 C831 1.574 . S
C848 H842 0.949 . S
C848 C852 1.368 . S
C849 C830 1.429 . S
C849 C843 1.429 . S
C849 C850 1.523 1_556 S
C850 C831 1.368 . S
C850 C844 1.368 . S
C850 C849 1.523 1_554 S
C851 C835 1.429 . S
C851 C847 1.429 . S
C851 C852 1.523 . S
C852 C836 1.368 . S
C852 C848 1.368 . S
C852 C851 1.523 . S
H853 C828 0.950 . S
H854 C830 0.950 . S
H855 C831 0.949 . S
H856 C833 0.950 . S
H857 C835 0.950 . S
C858 C859 1.349 . S
C858 C860 1.327 . S
C858 H883 0.950 . S
C859 C858 1.349 . S
C859 C875 1.349 . S
C860 C858 1.327 . S
C860 C879 1.429 . S
C860 H884 0.950 . S
C861 C878 1.574 . S
C861 C880 1.368 . S
C861 H885 0.949 . S
H862 C866 0.949 . S
C863 C864 1.349 . S
C863 C865 1.327 . S
C863 H886 0.950 . S
C864 C863 1.349 . S
C864 C876 1.349 . S
C865 C863 1.327 . S
C865 C881 1.429 . S
C865 H887 0.950 . S
C866 H862 0.949 . S
C866 C874 1.574 . S
C866 C882 1.368 . S
H867 C875 0.950 . S
H868 C873 0.950 . S
H869 C874 0.949 . S
H870 C876 0.950 . S
H871 C877 0.950 . S
H872 C878 0.949 . S
C873 H868 0.950 . S
C873 C875 1.327 . S
C873 C879 1.429 . S
C874 C866 1.574 . S
C874 H869 0.949 . S
C874 C880 1.368 . S
C875 C859 1.349 . S
C875 H867 0.950 . S
C875 C873 1.327 . S
C876 C864 1.349 . S
C876 H870 0.950 . S
C876 C877 1.327 . S
C877 H871 0.950 . S
C877 C876 1.327 . S
C877 C881 1.429 . S
C878 C861 1.574 . S
C878 H872 0.949 . S
C878 C882 1.368 . S
C879 C860 1.429 . S
C879 C873 1.429 . S
C879 C880 1.523 . S
C880 C861 1.368 . S
C880 C874 1.368 . S
C880 C879 1.523 . S
C881 C865 1.429 . S
C881 C877 1.429 . S
C881 C882 1.523 . S
C882 C866 1.368 . S
C882 C878 1.368 . S
C882 C881 1.523 . S
H883 C858 0.950 . S
H884 C860 0.950 . S
H885 C861 0.949 . S
H886 C863 0.950 . S
H887 C865 0.950 . S
C888 C889 1.349 . S
C888 C890 1.327 . S
C888 H913 0.950 . S
C889 C888 1.349 . S
C889 C905 1.349 . S
C890 C888 1.327 . S
C890 C909 1.429 . S
C890 H914 0.950 . S
C891 C908 1.574 . S
C891 C910 1.368 . S
C891 H915 0.949 . S
H892 C896 0.949 . S
C893 C894 1.349 . S
C893 C895 1.327 . S
C893 H916 0.950 . S
C894 C893 1.349 . S
C894 C906 1.349 . S
C895 C893 1.327 . S
C895 C911 1.429 . S
C895 H917 0.950 . S
C896 H892 0.949 . S
C896 C904 1.574 . S
C896 C912 1.368 . S
H897 C905 0.950 . S
H898 C903 0.950 . S
H899 C904 0.949 . S
H900 C906 0.950 . S
H901 C907 0.950 . S
H902 C908 0.949 . S
C903 H898 0.950 . S
C903 C905 1.327 . S
C903 C909 1.429 . S
C904 C896 1.574 . S
C904 H899 0.949 . S
C904 C910 1.368 . S
C905 C889 1.349 . S
C905 H897 0.950 . S
C905 C903 1.327 . S
C906 C894 1.349 . S
C906 H900 0.950 . S
C906 C907 1.327 . S
C907 H901 0.950 . S
C907 C906 1.327 . S
C907 C911 1.429 . S
C908 C891 1.574 . S
C908 H902 0.949 . S
C908 C912 1.368 . S
C909 C890 1.429 . S
C909 C903 1.429 . S
C909 C910 1.523 . S
C910 C891 1.368 . S
C910 C904 1.368 . S
C910 C909 1.523 . S
C911 C895 1.429 . S
C911 C907 1.429 . S
C911 C912 1.523 . S
C912 C896 1.368 . S
C912 C908 1.368 . S
C912 C911 1.523 . S
H913 C888 0.950 . S
H914 C890 0.950 . S
H915 C891 0.949 . S
H916 C893 0.950 . S
H917 C895 0.950 . S
C918 C919 1.349 . S
C918 C920 1.327 . S
C918 H943 0.950 . S
C919 C918 1.349 . S
C919 C935 1.349 . S
C920 C918 1.327 . S
C920 C939 1.429 . S
C920 H944 0.950 . S
C921 C938 1.574 . S
C921 C940 1.368 . S
C921 H945 0.949 . S
H922 C926 0.949 . S
C923 C924 1.349 . S
C923 C925 1.327 . S
C923 H946 0.950 . S
C924 C923 1.349 . S
C924 C936 1.349 . S
C925 C923 1.327 . S
C925 C941 1.429 . S
C925 H947 0.950 . S
C926 H922 0.949 . S
C926 C934 1.574 . S
C926 C942 1.368 . S
H927 C935 0.950 . S
H928 C933 0.950 . S
H929 C934 0.949 . S
H930 C936 0.950 . S
H931 C937 0.950 . S
H932 C938 0.949 . S
C933 H928 0.950 . S
C933 C935 1.327 . S
C933 C939 1.429 . S
C934 C926 1.574 . S
C934 H929 0.949 . S
C934 C940 1.368 . S
C935 C919 1.349 . S
C935 H927 0.950 . S
C935 C933 1.327 . S
C936 C924 1.349 . S
C936 H930 0.950 . S
C936 C937 1.327 . S
C937 H931 0.950 . S
C937 C936 1.327 . S
C937 C941 1.429 . S
C938 C921 1.574 . S
C938 H932 0.949 . S
C938 C942 1.368 . S
C939 C920 1.429 . S
C939 C933 1.429 . S
C939 C940 1.523 . S
C940 C921 1.368 . S
C940 C934 1.368 . S
C940 C939 1.523 . S
C941 C925 1.429 . S
C941 C937 1.429 . S
C941 C942 1.523 . S
C942 C926 1.368 . S
C942 C938 1.368 . S
C942 C941 1.523 . S
H943 C918 0.950 . S
H944 C920 0.950 . S
H945 C921 0.949 . S
H946 C923 0.950 . S
H947 C925 0.950 . S
C948 C949 1.349 . S
C948 C950 1.327 . S
C948 H973 0.950 . S
C949 C948 1.349 . S
C949 C965 1.349 . S
C950 C948 1.327 . S
C950 C969 1.429 . S
C950 H974 0.950 . S
C951 C968 1.574 . S
C951 C970 1.368 . S
C951 H975 0.949 . S
H952 C956 0.949 . S
C953 C954 1.349 . S
C953 C955 1.327 . S
C953 H976 0.950 . S
C954 C953 1.349 . S
C954 C966 1.349 . S
C955 C953 1.327 . S
C955 C971 1.429 . S
C955 H977 0.950 . S
C956 H952 0.949 . S
C956 C964 1.574 . S
C956 C972 1.368 . S
H957 C965 0.950 . S
H958 C963 0.950 . S
H959 C964 0.949 . S
H960 C966 0.950 . S
H961 C967 0.950 . S
H962 C968 0.949 . S
C963 H958 0.950 . S
C963 C965 1.327 . S
C963 C969 1.429 . S
C964 C956 1.574 . S
C964 H959 0.949 . S
C964 C970 1.368 . S
C965 C949 1.349 . S
C965 H957 0.950 . S
C965 C963 1.327 . S
C966 C954 1.349 . S
C966 H960 0.950 . S
C966 C967 1.327 . S
C967 H961 0.950 . S
C967 C966 1.327 . S
C967 C971 1.429 . S
C968 C951 1.574 . S
C968 H962 0.949 . S
C968 C972 1.368 . S
C969 C950 1.429 . S
C969 C963 1.429 . S
C969 C970 1.523 . S
C970 C951 1.368 . S
C970 C964 1.368 . S
C970 C969 1.523 . S
C971 C955 1.429 . S
C971 C967 1.429 . S
C971 C972 1.523 . S
C972 C956 1.368 . S
C972 C968 1.368 . S
C972 C971 1.523 . S
H973 C948 0.950 . S
H974 C950 0.950 . S
H975 C951 0.949 . S
H976 C953 0.950 . S
H977 C955 0.950 . S
C978 C979 1.349 . S
C978 C980 1.327 . S
C978 H1003 0.950 . S
C979 C978 1.349 . S
C979 C995 1.349 . S
C980 C978 1.327 . S
C980 C999 1.429 . S
C980 H1004 0.950 . S
C981 C998 1.574 . S
C981 C1000 1.368 . S
C981 H1005 0.949 . S
H982 C986 0.949 . S
C983 C984 1.349 . S
C983 C985 1.327 . S
C983 H1006 0.950 . S
C984 C983 1.349 . S
C984 C996 1.349 . S
C985 C983 1.327 . S
C985 C1001 1.429 . S
C985 H1007 0.950 . S
C986 H982 0.949 . S
C986 C994 1.574 . S
C986 C1002 1.368 . S
H987 C995 0.950 . S
H988 C993 0.950 . S
H989 C994 0.949 . S
H990 C996 0.947 1_455 S
H991 C997 0.950 . S
H992 C998 0.949 . S
C993 H988 0.950 . S
C993 C995 1.327 . S
C993 C999 1.429 . S
C994 C986 1.574 . S
C994 H989 0.949 . S
C994 C1000 1.368 . S
C995 C979 1.349 . S
C995 H987 0.950 . S
C995 C993 1.327 . S
C996 C984 1.349 . S
C996 H990 0.947 1_655 S
C996 C997 1.327 . S
C997 H991 0.950 . S
C997 C996 1.327 . S
C997 C1001 1.429 . S
C998 C981 1.574 . S
C998 H992 0.949 . S
C998 C1002 1.368 . S
C999 C980 1.429 . S
C999 C993 1.429 . S
C999 C1000 1.523 . S
C1000 C981 1.368 . S
C1000 C994 1.368 . S
C1000 C999 1.523 . S
C1001 C985 1.429 . S
C1001 C997 1.429 . S
C1001 C1002 1.523 . S
C1002 C986 1.368 . S
C1002 C998 1.368 . S
C1002 C1001 1.523 . S
H1003 C978 0.950 . S
H1004 C980 0.950 . S
H1005 C981 0.949 . S
H1006 C983 0.950 . S
H1007 C985 0.950 . S
C1008 C1009 1.349 . S
C1008 C1010 1.327 . S
C1008 H1033 0.950 . S
C1009 C1008 1.349 . S
C1009 C1025 1.349 . S
C1010 C1008 1.327 . S
C1010 C1029 1.429 . S
C1010 H1034 0.950 . S
C1011 C1028 1.574 . S
C1011 C1030 1.368 . S
C1011 H1035 0.949 . S
H1012 C1016 0.949 . S
C1013 C1014 1.349 . S
C1013 C1015 1.327 . S
C1013 H1036 0.950 . S
C1014 C1013 1.349 . S
C1014 C1026 1.349 . S
C1015 C1013 1.327 . S
C1015 C1031 1.429 . S
C1015 H1037 0.950 . S
C1016 H1012 0.949 . S
C1016 C1024 1.574 . S
C1016 C1032 1.368 . S
H1017 C1025 0.950 . S
H1018 C1023 0.950 . S
H1019 C1024 0.949 . S
H1020 C1026 0.950 . S
H1021 C1027 0.950 . S
H1022 C1028 0.949 . S
C1023 H1018 0.950 . S
C1023 C1025 1.327 . S
C1023 C1029 1.429 . S
C1024 C1016 1.574 . S
C1024 H1019 0.949 . S
C1024 C1030 1.368 . S
C1025 C1009 1.349 . S
C1025 H1017 0.950 . S
C1025 C1023 1.327 . S
C1026 C1014 1.349 . S
C1026 H1020 0.950 . S
C1026 C1027 1.327 . S
C1027 H1021 0.950 . S
C1027 C1026 1.327 . S
C1027 C1031 1.429 . S
C1028 C1011 1.574 . S
C1028 H1022 0.949 . S
C1028 C1032 1.368 . S
C1029 C1010 1.429 . S
C1029 C1023 1.429 . S
C1029 C1030 1.523 . S
C1030 C1011 1.368 . S
C1030 C1024 1.368 . S
C1030 C1029 1.523 . S
C1031 C1015 1.429 . S
C1031 C1027 1.429 . S
C1031 C1032 1.523 . S
C1032 C1016 1.368 . S
C1032 C1028 1.368 . S
C1032 C1031 1.523 . S
H1033 C1008 0.950 . S
H1034 C1010 0.950 . S
H1035 C1011 0.949 . S
H1036 C1013 0.950 . S
H1037 C1015 0.950 . S
C1038 C1039 1.349 . S
C1038 C1040 1.327 . S
C1038 H1063 0.950 . S
C1039 C1038 1.349 . S
C1039 C1055 1.349 . S
C1040 C1038 1.327 . S
C1040 C1059 1.429 . S
C1040 H1064 0.950 . S
C1041 C1058 1.574 . S
C1041 C1060 1.368 . S
C1041 H1065 0.949 . S
H1042 C1046 0.949 . S
C1043 C1044 1.349 . S
C1043 C1045 1.327 . S
C1043 H1066 0.950 . S
C1044 C1043 1.349 . S
C1044 C1056 1.349 . S
C1045 C1043 1.327 . S
C1045 C1061 1.429 . S
C1045 H1067 0.950 . S
C1046 H1042 0.949 . S
C1046 C1054 1.574 . S
C1046 C1062 1.368 . S
H1047 C1055 0.950 . S
H1048 C1053 0.950 . S
H1049 C1054 0.949 . S
H1050 C1056 0.950 . S
H1051 C1057 0.950 . S
H1052 C1058 0.949 . S
C1053 H1048 0.950 . S
C1053 C1055 1.327 . S
C1053 C1059 1.429 . S
C1054 C1046 1.574 . S
C1054 H1049 0.949 . S
C1054 C1060 1.368 . S
C1055 C1039 1.349 . S
C1055 H1047 0.950 . S
C1055 C1053 1.327 . S
C1056 C1044 1.349 . S
C1056 H1050 0.950 . S
C1056 C1057 1.327 . S
C1057 H1051 0.950 . S
C1057 C1056 1.327 . S
C1057 C1061 1.429 . S
C1058 C1041 1.574 . S
C1058 H1052 0.949 . S
C1058 C1062 1.368 . S
C1059 C1040 1.429 . S
C1059 C1053 1.429 . S
C1059 C1060 1.523 . S
C1060 C1041 1.368 . S
C1060 C1054 1.368 . S
C1060 C1059 1.523 . S
C1061 C1045 1.429 . S
C1061 C1057 1.429 . S
C1061 C1062 1.523 . S
C1062 C1046 1.368 . S
C1062 C1058 1.368 . S
C1062 C1061 1.523 . S
H1063 C1038 0.950 . S
H1064 C1040 0.950 . S
H1065 C1041 0.949 . S
H1066 C1043 0.950 . S
H1067 C1045 0.950 . S
C1068 C1069 1.349 . S
C1068 C1070 1.327 . S
C1068 H1093 0.950 . S
C1069 C1068 1.349 . S
C1069 C1085 1.349 . S
C1070 C1068 1.327 . S
C1070 C1089 1.429 . S
C1070 H1094 0.950 . S
C1071 C1088 1.574 . S
C1071 C1090 1.368 . S
C1071 H1095 0.949 . S
H1072 C1076 0.949 . S
C1073 C1074 1.349 . S
C1073 C1075 1.327 . S
C1073 H1096 0.950 . S
C1074 C1073 1.349 . S
C1074 C1086 1.349 . S
C1075 C1073 1.327 . S
C1075 C1091 1.429 . S
C1075 H1097 0.950 . S
C1076 H1072 0.949 . S
C1076 C1084 1.574 . S
C1076 C1092 1.368 . S
H1077 C1085 0.950 . S
H1078 C1083 0.950 . S
H1079 C1084 0.949 . S
H1080 C1086 0.950 . S
H1081 C1087 0.950 . S
H1082 C1088 0.949 . S
C1083 H1078 0.950 . S
C1083 C1085 1.327 . S
C1083 C1089 1.429 . S
C1084 C1076 1.574 . S
C1084 H1079 0.949 . S
C1084 C1090 1.368 . S
C1085 C1069 1.349 . S
C1085 H1077 0.950 . S
C1085 C1083 1.327 . S
C1086 C1074 1.349 . S
C1086 H1080 0.950 . S
C1086 C1087 1.327 . S
C1087 H1081 0.950 . S
C1087 C1086 1.327 . S
C1087 C1091 1.429 . S
C1088 C1071 1.574 . S
C1088 H1082 0.949 . S
C1088 C1092 1.368 . S
C1089 C1070 1.429 . S
C1089 C1083 1.429 . S
C1089 C1090 1.523 . S
C1090 C1071 1.368 . S
C1090 C1084 1.368 . S
C1090 C1089 1.523 . S
C1091 C1075 1.429 . S
C1091 C1087 1.429 . S
C1091 C1092 1.523 . S
C1092 C1076 1.368 . S
C1092 C1088 1.368 . S
C1092 C1091 1.523 . S
H1093 C1068 0.950 . S
H1094 C1070 0.950 . S
H1095 C1071 0.949 . S
H1096 C1073 0.950 . S
H1097 C1075 0.950 . S
C1098 C1099 1.349 . S
C1098 C1100 1.327 . S
C1098 H1123 0.950 . S
C1099 C1098 1.349 . S
C1099 C1115 1.349 . S
C1100 C1098 1.327 . S
C1100 C1119 1.429 . S
C1100 H1124 0.950 . S
C1101 C1118 1.574 . S
C1101 C1120 1.368 . S
C1101 H1125 0.949 . S
H1102 C1106 0.949 . S
C1103 C1104 1.349 . S
C1103 C1105 1.327 . S
C1103 H1126 0.950 . S
C1104 C1103 1.349 . S
C1104 C1116 1.349 . S
C1105 C1103 1.327 . S
C1105 C1121 1.429 . S
C1105 H1127 0.950 . S
C1106 H1102 0.949 . S
C1106 C1114 1.574 . S
C1106 C1122 1.368 . S
H1107 C1115 0.950 . S
H1108 C1113 0.950 . S
H1109 C1114 0.949 . S
H1110 C1116 0.950 . S
H1111 C1117 0.950 . S
H1112 C1118 0.949 . S
C1113 H1108 0.950 . S
C1113 C1115 1.327 . S
C1113 C1119 1.429 . S
C1114 C1106 1.574 . S
C1114 H1109 0.949 . S
C1114 C1120 1.368 . S
C1115 C1099 1.349 . S
C1115 H1107 0.950 . S
C1115 C1113 1.327 . S
C1116 C1104 1.349 . S
C1116 H1110 0.950 . S
C1116 C1117 1.327 . S
C1117 H1111 0.950 . S
C1117 C1116 1.327 . S
C1117 C1121 1.429 . S
C1118 C1101 1.574 . S
C1118 H1112 0.949 . S
C1118 C1122 1.368 . S
C1119 C1100 1.429 . S
C1119 C1113 1.429 . S
C1119 C1120 1.523 . S
C1120 C1101 1.368 . S
C1120 C1114 1.368 . S
C1120 C1119 1.523 . S
C1121 C1105 1.429 . S
C1121 C1117 1.429 . S
C1121 C1122 1.523 . S
C1122 C1106 1.368 . S
C1122 C1118 1.368 . S
C1122 C1121 1.523 . S
H1123 C1098 0.950 . S
H1124 C1100 0.950 . S
H1125 C1101 0.949 . S
H1126 C1103 0.950 . S
H1127 C1105 0.950 . S
C409 C58 1.465 . S
C414 C146 1.444 . S
C444 C230 1.446 . S
C439 C68 1.465 . S
C474 C223 1.452 . S
C469 C40 1.453 . S
C499 C50 1.453 . S
C504 C139 1.454 . S
C534 C303 1.447 . S
C529 C23 1.468 . S
C564 C387 1.446 . S
C559 C32 1.467 . S
C589 C5 1.456 . S
C594 C380 1.455 . S
C619 C14 1.455 . S
C624 C296 1.454 . S
C654 C130 1.339 . S
C649 C13 1.501 . S
C684 C214 1.338 . S
C679 C4 1.501 . S
C714 C225 1.397 . S
C709 C31 1.524 . S
C744 C141 1.396 . S
C739 C22 1.523 . S
C774 C309 1.341 . S
C769 C49 1.502 . S
C799 C41 1.504 . S
C804 C393 1.340 . S
C834 C382 1.398 . S
C829 C67 1.524 . S
C859 C59 1.525 . S
C864 C298 1.398 . S
C894 C128 1.545 . S
C889 C7 1.544 . S
C924 C212 1.543 . S
C919 C16 1.541 . S
C949 C25 1.540 . S
C954 C219 1.523 . S
C984 C135 1.521 . S
C979 C34 1.538 . S
C1014 C307 1.545 . S
C1009 C43 1.545 . S
C1039 C52 1.544 . S
C1044 C391 1.547 . S
C1069 C61 1.541 . S
C1074 C398 1.523 . S
C1099 C70 1.540 . S
C1104 C314 1.525 . S
