# Generated by pormake.
# Topology zzz, (3,6)-cn, num edge types: 1
# Building blocks:
#     Node 0, Type 0, BuildingBlock: BELTOD_clean_linker_0, # of connection points: 3
#     Node 1, Type 0, BuildingBlock: BELTOD_clean_linker_0, # of connection points: 3
#     Node 2, Type 0, BuildingBlock: BELTOD_clean_linker_0, # of connection points: 3
#     Node 3, Type 0, BuildingBlock: BELTOD_clean_linker_0, # of connection points: 3
#     Node 4, Type 0, BuildingBlock: BELTOD_clean_linker_0, # of connection points: 3
#     Node 5, Type 0, BuildingBlock: BELTOD_clean_linker_0, # of connection points: 3
#     Node 6, Type 0, BuildingBlock: BELTOD_clean_linker_0, # of connection points: 3
#     Node 7, Type 0, BuildingBlock: BELTOD_clean_linker_0, # of connection points: 3
#     Node 8, Type 1, BuildingBlock: INOVEN_clean_sbu_0, # of connection points: 6
#     Node 9, Type 1, BuildingBlock: INOVEN_clean_sbu_0, # of connection points: 6
#     Node 10, Type 1, BuildingBlock: INOVEN_clean_sbu_0, # of connection points: 6
#     Node 11, Type 1, BuildingBlock: INOVEN_clean_sbu_0, # of connection points: 6
#     Edge 12, Type (0, 1), BuildingBlock: XIVTED_clean_linker_0, # of connection points: 2
#     Edge 13, Type (0, 1), BuildingBlock: XIVTED_clean_linker_0, # of connection points: 2
#     Edge 14, Type (0, 1), BuildingBlock: XIVTED_clean_linker_0, # of connection points: 2
#     Edge 15, Type (0, 1), BuildingBlock: XIVTED_clean_linker_0, # of connection points: 2
#     Edge 16, Type (0, 1), BuildingBlock: XIVTED_clean_linker_0, # of connection points: 2
#     Edge 17, Type (0, 1), BuildingBlock: XIVTED_clean_linker_0, # of connection points: 2
#     Edge 18, Type (0, 1), BuildingBlock: XIVTED_clean_linker_0, # of connection points: 2
#     Edge 19, Type (0, 1), BuildingBlock: XIVTED_clean_linker_0, # of connection points: 2
#     Edge 20, Type (0, 1), BuildingBlock: XIVTED_clean_linker_0, # of connection points: 2
#     Edge 21, Type (0, 1), BuildingBlock: XIVTED_clean_linker_0, # of connection points: 2
#     Edge 22, Type (0, 1), BuildingBlock: XIVTED_clean_linker_0, # of connection points: 2
#     Edge 23, Type (0, 1), BuildingBlock: XIVTED_clean_linker_0, # of connection points: 2
#     Edge 24, Type (0, 1), BuildingBlock: XIVTED_clean_linker_0, # of connection points: 2
#     Edge 25, Type (0, 1), BuildingBlock: XIVTED_clean_linker_0, # of connection points: 2
#     Edge 26, Type (0, 1), BuildingBlock: XIVTED_clean_linker_0, # of connection points: 2
#     Edge 27, Type (0, 1), BuildingBlock: XIVTED_clean_linker_0, # of connection points: 2
#     Edge 28, Type (0, 1), BuildingBlock: XIVTED_clean_linker_0, # of connection points: 2
#     Edge 29, Type (0, 1), BuildingBlock: XIVTED_clean_linker_0, # of connection points: 2
#     Edge 30, Type (0, 1), BuildingBlock: XIVTED_clean_linker_0, # of connection points: 2
#     Edge 31, Type (0, 1), BuildingBlock: XIVTED_clean_linker_0, # of connection points: 2
#     Edge 32, Type (0, 1), BuildingBlock: XIVTED_clean_linker_0, # of connection points: 2
#     Edge 33, Type (0, 1), BuildingBlock: XIVTED_clean_linker_0, # of connection points: 2
#     Edge 34, Type (0, 1), BuildingBlock: XIVTED_clean_linker_0, # of connection points: 2
#     Edge 35, Type (0, 1), BuildingBlock: XIVTED_clean_linker_0, # of connection points: 2
# Relax obj value: 0.418
# Max RMSD: 0.256
# Mean RMSD: 0.243
data_MOF--net-zzz--node1-INOVEN_clean_sbu_0--node2-BELTOD_clean_linker_0--edge1-XIVTED_clean_linker_0
_symmetry_space_group_name_H-M    P1
_symmetry_Int_Tables_number       1
_symmetry_cell_setting            triclinic
loop_
_symmetry_equiv_pos_as_xyz
'x, y, z'
_cell_length_a     55.830975
_cell_length_b     55.798227
_cell_length_c     17.066109
_cell_angle_alpha  89.9534
_cell_angle_beta   89.952336
_cell_angle_gamma 89.99366
loop_
_atom_site_label
_atom_site_type_symbol
_atom_site_fract_x
_atom_site_fract_y
_atom_site_fract_z
_atom_type_partial_charge
P0 P 0.72301 0.47055 0.38805 0.0
H1 H 0.7407 0.47854 0.54747 0.0
H2 H 0.77939 0.49192 0.59488 0.0
H3 H 0.79748 0.51637 0.36161 0.0
H4 H 0.75951 0.50097 0.31372 0.0
H5 H 0.6734 0.45792 0.36186 0.0
H6 H 0.64376 0.47122 0.2673 0.0
H7 H 0.69141 0.52785 0.19257 0.0
H8 H 0.72124 0.51411 0.28715 0.0
H9 H 0.76451 0.44044 0.41491 0.0
H10 H 0.71528 0.45369 0.22494 0.0
O11 O 0.71031 0.45542 0.46154 0.0
H12 H 0.79117 0.4196 0.32596 0.0
H13 H 0.74116 0.43153 0.13624 0.0
C14 C 0.74678 0.48912 0.42708 0.0
C15 C 0.75264 0.48745 0.50683 0.0
C16 C 0.775 0.49518 0.53407 0.0
C17 C 0.79203 0.505 0.48218 0.0
C18 C 0.78524 0.50839 0.40336 0.0
C19 C 0.76307 0.50021 0.37598 0.0
C20 C 0.69954 0.48513 0.33266 0.0
C21 C 0.67726 0.47366 0.3269 0.0
C22 C 0.66024 0.48132 0.27242 0.0
C23 C 0.66512 0.50062 0.22176 0.0
C24 C 0.68713 0.51273 0.22982 0.0
C25 C 0.70421 0.50499 0.28458 0.0
C26 C 0.73827 0.44928 0.32636 0.0
C27 C 0.75906 0.4382 0.35445 0.0
C28 C 0.77424 0.42599 0.30328 0.0
C29 C 0.76864 0.42422 0.22305 0.0
C30 C 0.74644 0.43316 0.19703 0.0
C31 C 0.73148 0.44579 0.2481 0.0
P32 P 0.04643 0.72287 0.39613 0.0
H33 H 0.02714 0.73478 0.55142 0.0
H34 H 0.012 0.77246 0.60387 0.0
H35 H 0.00946 0.80169 0.36933 0.0
H36 H 0.02348 0.7636 0.31736 0.0
H37 H 0.06345 0.676 0.35201 0.0
H38 H 0.05148 0.64722 0.25261 0.0
H39 H 0.99215 0.69291 0.18804 0.0
H40 H 1.00467 0.72202 0.28791 0.0
H41 H 0.08768 0.74806 0.45971 0.0
H42 H 0.05638 0.7354 0.23266 0.0
O43 O 0.05752 0.70821 0.4733 0.0
H44 H 0.11178 0.78053 0.40486 0.0
H45 H 0.07962 0.76811 0.1781 0.0
C46 C 0.02659 0.74628 0.43033 0.0
C47 C 0.02247 0.74896 0.51092 0.0
C48 C 0.01415 0.77077 0.54106 0.0
C49 C 0.01008 0.79052 0.4913 0.0
C50 C 0.01228 0.78703 0.40984 0.0
C51 C 0.02032 0.7651 0.37975 0.0
C52 C 0.03471 0.70094 0.32852 0.0
C53 C 0.04759 0.67966 0.31754 0.0
C54 C 0.04065 0.66314 0.26056 0.0
C55 C 0.02067 0.66754 0.21246 0.0
C56 C 0.00767 0.68895 0.22377 0.0
C57 C 0.01467 0.70554 0.28129 0.0
C58 C 0.07036 0.73921 0.35023 0.0
C59 C 0.08673 0.7516 0.39738 0.0
C60 C 0.10029 0.77036 0.36609 0.0
C61 C 0.09736 0.77725 0.28736 0.0
C62 C 0.0826 0.76323 0.23874 0.0
C63 C 0.06918 0.74442 0.27002 0.0
P64 P 0.79571 0.04108 0.40155 0.0
H65 H 0.77717 0.0361 0.56129 0.0
H66 H 0.73798 0.02435 0.60886 0.0
H67 H 0.72102 0.99542 0.38048 0.0
H68 H 0.75958 0.00915 0.33191 0.0
H69 H 0.84589 0.05278 0.38199 0.0
H70 H 0.87606 0.03971 0.28909 0.0
H71 H 0.82841 0.98402 0.20765 0.0
H72 H 0.79798 0.99762 0.30057 0.0
H73 H 0.75419 0.07164 0.42174 0.0
H74 H 0.80374 0.05491 0.23535 0.0
O75 O 0.8079 0.05756 0.4727 0.0
H76 H 0.72748 0.0904 0.32814 0.0
H77 H 0.77771 0.07486 0.14171 0.0
C78 C 0.77175 0.02317 0.4431 0.0
C79 C 0.76538 0.02653 0.52191 0.0
C80 C 0.74271 0.01975 0.54926 0.0
C81 C 0.72582 0.00921 0.49853 0.0
C82 C 0.73311 1.00404 0.42119 0.0
C83 C 0.75564 0.01125 0.39359 0.0
C84 C 0.81966 0.02604 0.34949 0.0
C85 C 0.84212 0.03724 0.34611 0.0
C86 C 0.85948 0.02972 0.29247 0.0
C87 C 0.85477 0.01082 0.24018 0.0
C88 C 0.8326 0.99885 0.24616 0.0
C89 C 0.81518 1.00645 0.3001 0.0
C90 C 0.78058 0.06117 0.33547 0.0
C91 C 0.75969 0.07267 0.36094 0.0
C92 C 0.74448 0.08366 0.30707 0.0
C93 C 0.75013 0.08374 0.22664 0.0
C94 C 0.77242 0.07448 0.20275 0.0
C95 C 0.78745 0.06312 0.25664 0.0
P96 P 0.47332 0.79725 0.38637 0.0
H97 H 0.48014 0.77859 0.54481 0.0
H98 H 0.49338 0.73981 0.59163 0.0
H99 H 0.51932 0.72265 0.35949 0.0
H100 H 0.50442 0.76102 0.31209 0.0
H101 H 0.45793 0.84552 0.35261 0.0
H102 H 0.47022 0.87527 0.25663 0.0
H103 H 0.52937 0.83002 0.18774 0.0
H104 H 0.51693 0.80016 0.28507 0.0
H105 H 0.42811 0.77389 0.42572 0.0
H106 H 0.4716 0.78501 0.21999 0.0
O107 O 0.45918 0.81056 0.4608 0.0
H108 H 0.40409 0.74449 0.35452 0.0
H109 H 0.44843 0.75534 0.14963 0.0
C110 C 0.49163 0.77317 0.42497 0.0
C111 C 0.48936 0.76687 0.50425 0.0
C112 C 0.49701 0.74444 0.5312 0.0
C113 C 0.50727 0.72764 0.4795 0.0
C114 C 0.51106 0.73473 0.40108 0.0
C115 C 0.50307 0.75709 0.374 0.0
C116 C 0.48662 0.82064 0.32704 0.0
C117 C 0.47398 0.84221 0.31859 0.0
C118 C 0.48104 0.8593 0.2634 0.0
C119 C 0.50081 0.85512 0.21421 0.0
C120 C 0.51395 0.83375 0.22426 0.0
C121 C 0.50694 0.81668 0.28034 0.0
C122 C 0.45147 0.78185 0.32794 0.0
C123 C 0.43198 0.77062 0.36446 0.0
C124 C 0.4184 0.75365 0.32387 0.0
C125 C 0.42443 0.74733 0.2465 0.0
C126 C 0.44295 0.75994 0.2086 0.0
C127 C 0.45637 0.77696 0.24908 0.0
P128 P 0.3027 0.46195 0.01489 0.0
H129 H 0.28483 0.4695 0.85535 0.0
H130 H 0.2454 0.48184 0.81043 0.0
H131 H 0.22904 0.50816 0.04244 0.0
H132 H 0.26792 0.49458 0.08775 0.0
H133 H 0.35068 0.44546 0.05097 0.0
H134 H 0.37977 0.45706 0.15066 0.0
H135 H 0.33513 0.51704 0.21518 0.0
H136 H 0.3064 0.50584 0.11343 0.0
H137 H 0.26842 0.42494 0.97433 0.0
H138 H 0.29567 0.45751 0.18534 0.0
O139 O 0.31514 0.44603 0.94278 0.0
H140 H 0.23166 0.41414 0.0432 0.0
H141 H 0.25913 0.44724 0.25353 0.0
C142 C 0.27983 0.48147 0.97483 0.0
C143 C 0.27323 0.47885 0.89593 0.0
C144 C 0.25044 0.48586 0.87024 0.0
C145 C 0.23369 0.49564 0.92302 0.0
C146 C 0.24119 0.50024 1.00031 0.0
C147 C 0.2639 0.49308 0.02598 0.0
C148 C 0.32632 0.47479 0.07409 0.0
C149 C 0.34746 0.46159 0.08465 0.0
C150 C 0.36409 0.46818 0.14193 0.0
C151 C 0.35965 0.48785 0.19113 0.0
C152 C 0.33891 0.50166 0.1785 0.0
C153 C 0.32248 0.49529 0.12003 0.0
C154 C 0.28467 0.44236 0.07415 0.0
C155 C 0.26712 0.42859 0.03653 0.0
C156 C 0.24595 0.4227 0.0757 0.0
C157 C 0.2422 0.43049 0.15305 0.0
C158 C 0.26135 0.44102 0.19387 0.0
C159 C 0.28244 0.44696 0.15456 0.0
P160 P 0.06351 0.29726 0.0223 0.0
H161 H 0.05485 0.28041 0.86275 0.0
H162 H 0.03987 0.24186 0.8188 0.0
H163 H 0.01045 0.22877 0.0491 0.0
H164 H 0.02608 0.26732 0.09318 0.0
H165 H 0.09038 0.33523 0.09443 0.0
H166 H 0.08103 0.36512 0.19391 0.0
H167 H 1.0073 0.34175 0.19512 0.0
H168 H 0.01687 0.31167 0.09429 0.0
H169 H 0.09714 0.26046 0.97334 0.0
H170 H 0.06701 0.28646 0.19003 0.0
O171 O 0.08012 0.30903 0.95061 0.0
H172 H 0.1069 0.22243 0.03688 0.0
H173 H 0.07669 0.24887 0.25333 0.0
C174 C 0.04149 0.27706 0.98129 0.0
C175 C 0.04416 0.26988 0.90296 0.0
C176 C 0.03567 0.24755 0.87787 0.0
C177 C 0.02437 0.23182 0.93076 0.0
C178 C 0.01953 0.24015 0.00708 0.0
C179 C 0.02799 0.26254 0.03201 0.0
C180 C 0.05435 0.32126 0.08673 0.0
C181 C 0.07209 0.33674 0.11509 0.0
C182 C 0.06677 0.35371 0.17253 0.0
C183 C 0.04348 0.35566 0.20309 0.0
C184 C 0.0254 0.34072 0.17252 0.0
C185 C 0.03084 0.32349 0.11505 0.0
C186 C 0.08142 0.27636 0.07684 0.0
C187 C 0.09384 0.25853 0.03559 0.0
C188 C 0.09915 0.23669 0.07169 0.0
C189 C 0.0922 0.23252 0.14969 0.0
C190 C 0.08245 0.25153 0.19333 0.0
C191 C 0.07695 0.27322 0.15701 0.0
P192 P 0.21229 0.0462 0.02373 0.0
H193 H 0.23 0.03693 0.86445 0.0
H194 H 0.26945 0.02479 0.81859 0.0
H195 H 0.28824 1.00343 0.05411 0.0
H196 H 0.24931 0.01694 0.10005 0.0
H197 H 0.16225 0.05827 0.04884 0.0
H198 H 0.1334 0.04636 0.14859 0.0
H199 H 0.18237 0.99185 0.23011 0.0
H200 H 0.21122 1.00396 0.13001 0.0
H201 H 0.25381 0.07634 0.99518 0.0
H202 H 0.20596 0.0623 0.18851 0.0
O203 O 0.19969 0.0613 0.95006 0.0
H204 H 0.2846 0.08894 0.08612 0.0
H205 H 0.23614 0.07641 0.2797 0.0
C206 C 0.23625 0.02749 0.98571 0.0
C207 C 0.24222 0.02879 0.90588 0.0
C208 C 0.26501 0.02187 0.8796 0.0
C209 C 0.28242 0.01347 0.93267 0.0
C210 C 0.27561 0.01028 0.01153 0.0
C211 C 0.25291 0.01739 0.03777 0.0
C212 C 0.18893 0.0319 0.08092 0.0
C213 C 0.16652 0.04319 0.0863 0.0
C214 C 0.14998 0.03638 0.14382 0.0
C215 C 0.15557 0.01826 0.19814 0.0
C216 C 0.17758 1.00613 0.19006 0.0
C217 C 0.19409 0.01291 0.13212 0.0
C218 C 0.22808 0.06716 0.08511 0.0
C219 C 0.24947 0.07712 0.05701 0.0
C220 C 0.26712 0.08452 0.1095 0.0
C221 C 0.26326 0.08259 0.19077 0.0
C222 C 0.24007 0.07703 0.21757 0.0
C223 C 0.22266 0.069 0.16511 0.0
P224 P 0.44697 0.22227 0.01812 0.0
H225 H 0.45675 0.23788 0.85776 0.0
H226 H 0.47279 0.27573 0.81131 0.0
H227 H 0.50138 0.28989 0.04185 0.0
H228 H 0.48459 0.25207 0.08846 0.0
H229 H 0.41897 0.18492 0.08957 0.0
H230 H 0.42714 0.15487 0.18973 0.0
H231 H 0.50115 0.1773 0.19673 0.0
H232 H 0.49277 0.20748 0.09499 0.0
H233 H 0.41455 0.25955 0.96476 0.0
H234 H 0.44252 0.23393 0.18498 0.0
O235 O 0.43049 0.21043 0.94637 0.0
H236 H 0.40524 0.29811 0.02542 0.0
H237 H 0.43321 0.27203 0.2455 0.0
C238 C 0.46957 0.24181 0.97666 0.0
C239 C 0.46745 0.24848 0.89763 0.0
C240 C 0.47656 0.27042 0.87107 0.0
C241 C 0.48799 0.28629 0.92308 0.0
C242 C 0.49222 0.27843 1.00037 0.0
C243 C 0.4831 0.25644 0.02682 0.0
C244 C 0.45525 0.19837 0.08446 0.0
C245 C 0.43707 0.18318 0.11175 0.0
C246 C 0.44171 0.16613 0.16966 0.0
C247 C 0.46474 0.16381 0.20197 0.0
C248 C 0.48323 0.17857 0.17283 0.0
C249 C 0.47847 0.19586 0.1148 0.0
C250 C 0.42917 0.24381 0.07024 0.0
C251 C 0.41744 0.26171 0.02711 0.0
C252 C 0.41238 0.28383 0.06158 0.0
C253 C 0.41884 0.28821 0.13982 0.0
C254 C 0.42783 0.2692 0.18524 0.0
C255 C 0.43313 0.24723 0.15053 0.0
Gd256 Gd 0.02197 1.002 0.80721 0.0
Gd257 Gd 0.99291 0.01685 0.65332 0.0
C258 C 1.00379 0.961 0.68447 0.0
C259 C 0.03371 0.98827 0.94584 0.0
C260 C 0.04921 0.96952 0.97873 0.0
C261 C 0.06144 0.97368 0.04907 0.0
C262 C 0.05189 0.94743 0.94057 0.0
C263 C 0.07752 0.9331 0.04607 0.0
C264 C 0.0658 0.92935 0.9741 0.0
C265 C 0.07554 0.95566 0.08243 0.0
C266 C 0.05147 1.00518 0.67911 0.0
C267 C 0.01421 0.05789 0.77035 0.0
C268 C 0.98216 0.03597 0.52073 0.0
C269 C 0.99616 0.05351 0.47603 0.0
C270 C 0.98699 0.06431 0.40835 0.0
C271 C 0.0192 0.05952 0.50201 0.0
C272 C 0.02383 0.08744 0.39394 0.0
C273 C 0.03296 0.07617 0.4612 0.0
C274 C 1.00074 0.08121 0.36748 0.0
C275 C 0.96626 1.00483 0.7799 0.0
O276 O 0.01028 0.96628 0.75732 0.0
O277 O 0.99871 0.97761 0.63148 0.0
O278 O 0.04477 1.0057 0.90898 0.0
O279 O 0.01424 0.98084 0.91 0.0
O280 O 0.05897 0.99949 0.74863 0.0
O281 O 0.02942 0.00884 0.68446 0.0
O282 O 0.00838 0.05194 0.69761 0.0
O283 O 0.01748 0.04159 0.82566 0.0
O284 O 0.97347 0.04378 0.58736 0.0
O285 O 0.99221 0.01485 0.52686 0.0
O286 O 0.95911 1.00187 0.70798 0.0
O287 O 0.98588 0.01599 0.78026 0.0
H288 H 0.05983 0.99077 0.07874 0.0
H289 H 0.04281 0.94395 0.88565 0.0
H290 H 0.06658 0.91215 0.94492 0.0
H291 H 0.08461 0.9593 0.13721 0.0
H292 H 0.9692 0.05987 0.38763 0.0
H293 H 0.02661 0.05132 0.55412 0.0
H294 H 0.05078 0.0802 0.48246 0.0
H295 H 0.99309 0.08978 0.31633 0.0
Gd296 Gd 0.50858 0.02444 0.77496 0.0
Gd297 Gd 0.49627 0.99379 0.62399 0.0
C298 C 0.55168 1.00491 0.65705 0.0
C299 C 0.52668 0.04377 0.89874 0.0
C300 C 0.55052 0.05229 0.92234 0.0
C301 C 0.55294 0.07555 0.95229 0.0
C302 C 0.57101 0.03807 0.91204 0.0
C303 C 0.59608 0.07029 0.96242 0.0
C304 C 0.59355 0.04693 0.93228 0.0
C305 C 0.57549 0.08452 0.97189 0.0
C306 C 0.49266 0.04863 0.64782 0.0
C307 C 0.4549 0.00784 0.75211 0.0
C308 C 0.47951 0.98642 0.48599 0.0
C309 C 0.45643 0.99449 0.45374 0.0
C310 C 0.43536 0.99159 0.49765 0.0
C311 C 0.4558 0.00819 0.38483 0.0
C312 C 0.41357 0.01699 0.40661 0.0
C313 C 0.43452 0.01931 0.36125 0.0
C314 C 0.41424 1.00279 0.47463 0.0
C315 C 0.5046 0.96458 0.74871 0.0
O316 O 0.54531 0.01661 0.72188 0.0
O317 O 0.53602 0.9947 0.60924 0.0
O318 O 0.51649 0.05613 0.84288 0.0
O319 O 0.52374 0.02057 0.89106 0.0
O320 O 0.48686 0.05418 0.71919 0.0
O321 O 0.50686 0.0311 0.64804 0.0
O322 O 0.46031 1.00449 0.67699 0.0
O323 O 0.4716 0.01218 0.80525 0.0
O324 O 0.47852 0.97024 0.54164 0.0
O325 O 0.49465 1.00368 0.50135 0.0
O326 O 0.50077 0.9566 0.67818 0.0
O327 O 0.50468 0.98706 0.74578 0.0
H328 H 0.53735 0.0869 0.95983 0.0
H329 H 0.56966 0.02011 0.88838 0.0
H330 H 0.60892 0.03529 0.9255 0.0
H331 H 0.57678 0.10267 0.99389 0.0
H332 H 0.43534 0.98137 0.55161 0.0
H333 H 0.47193 0.01091 0.35062 0.0
H334 H 0.43453 0.02984 0.30793 0.0
H335 H 0.39862 1.00091 0.51181 0.0
Gd336 Gd 0.49511 0.51498 0.78569 0.0
Gd337 Gd 0.52349 0.50019 0.64406 0.0
C338 C 0.51575 0.55645 0.66733 0.0
C339 C 0.47856 0.53274 0.91445 0.0
C340 C 0.46424 0.55356 0.9386 0.0
C341 C 0.44659 0.55065 0.99621 0.0
C342 C 0.46797 0.57626 0.90534 0.0
C343 C 0.43763 0.59331 0.99148 0.0
C344 C 0.45485 0.59598 0.93177 0.0
C345 C 0.43333 0.57031 0.02229 0.0
C346 C 0.46803 0.50493 0.65772 0.0
C347 C 0.50262 0.45997 0.76179 0.0
C348 C 0.53484 0.47986 0.51345 0.0
C349 C 0.52038 0.46288 0.46814 0.0
C350 C 0.52951 0.45141 0.40159 0.0
C351 C 0.49677 0.45834 0.49192 0.0
C352 C 0.49145 0.43058 0.38403 0.0
C353 C 0.48239 0.44253 0.45009 0.0
C354 C 0.51513 0.4353 0.35975 0.0
C355 C 0.55077 0.51082 0.77026 0.0
O356 O 0.50638 0.55122 0.7367 0.0
O357 O 0.5224 0.53953 0.61778 0.0
O358 O 0.46722 0.51648 0.87377 0.0
O359 O 0.50026 0.537 0.8885 0.0
O360 O 0.4613 0.50057 0.72892 0.0
O361 O 0.48773 0.51576 0.65847 0.0
O362 O 0.50547 0.46594 0.68733 0.0
O363 O 0.50257 0.47671 0.81615 0.0
O364 O 0.54232 0.47204 0.58142 0.0
O365 O 0.52581 0.5014 0.51759 0.0
O366 O 0.55754 0.51454 0.69839 0.0
O367 O 0.53113 0.49974 0.77096 0.0
H368 H 0.44327 0.53318 0.02182 0.0
H369 H 0.48134 0.57888 0.86012 0.0
H370 H 0.45889 0.61344 0.90743 0.0
H371 H 0.41996 0.56755 0.06742 0.0
H372 H 0.54771 0.45475 0.38246 0.0
H373 H 0.48942 0.46708 0.54306 0.0
H374 H 0.46415 0.4397 0.46964 0.0
H375 H 0.52271 0.42616 0.30955 0.0
Gd376 Gd 1.00548 0.4947 0.78346 0.0
Gd377 Gd 0.01896 0.52322 0.64272 0.0
C378 C 0.96329 0.51417 0.66558 0.0
C379 C 0.98666 0.47709 0.90907 0.0
C380 C 0.96373 0.46522 0.92727 0.0
C381 C 0.96374 0.44221 0.96048 0.0
C382 C 0.94179 0.47626 0.90965 0.0
C383 C 0.92014 0.44156 0.95944 0.0
C384 C 0.92025 0.4646 0.9258 0.0
C385 C 0.94216 0.43045 0.97627 0.0
C386 C 0.01759 0.46784 0.65736 0.0
C387 C 0.0601 0.50372 0.75988 0.0
C388 C 0.03938 0.53545 0.51321 0.0
C389 C 0.05845 0.5226 0.47167 0.0
C390 C 0.07188 0.53368 0.4126 0.0
C391 C 0.06353 0.49885 0.49289 0.0
C392 C 0.09561 0.49727 0.3972 0.0
C393 C 0.08186 0.48628 0.45599 0.0
C394 C 0.09036 0.52107 0.37538 0.0
C395 C 0.00756 0.55044 0.76867 0.0
O396 O 0.96894 0.50488 0.73459 0.0
O397 O 0.97988 0.52139 0.61585 0.0
O398 O 1.00124 0.46498 0.86409 0.0
O399 O 0.98581 0.49993 0.89135 0.0
O400 O 0.02323 0.46237 0.72874 0.0
O401 O 1.00509 0.48661 0.65639 0.0
O402 O 0.05388 0.50672 0.68575 0.0
O403 O 0.04352 0.50265 0.81478 0.0
O404 O 0.0455 0.54452 0.58092 0.0
O405 O 0.01894 0.52407 0.51606 0.0
O406 O 1.00305 0.55666 0.69679 0.0
O407 O 0.01944 0.53126 0.76947 0.0
H408 H 0.98048 0.43328 0.97399 0.0
H409 H 0.94119 0.49398 0.88379 0.0
H410 H 0.90367 0.47396 0.91357 0.0
H411 H 0.94274 0.41265 1.00151 0.0
H412 H 0.06823 0.55205 0.39581 0.0
H413 H 0.05331 0.48999 0.53834 0.0
H414 H 0.08518 0.46789 0.4733 0.0
H415 H 0.10083 0.53006 0.33074 0.0
H416 H 0.10612 0.01678 0.20236 0.0
H417 H 0.10004 1.00332 0.67038 0.0
H418 H 0.16823 0.00976 0.351 0.0
H419 H 0.03726 0.00849 0.52508 0.0
H420 H 0.12512 1.00477 0.55297 0.0
H421 H 0.08042 0.01288 0.31816 0.0
C422 C 0.11439 0.01433 0.2592 0.0
C423 C 0.13947 0.01364 0.2666 0.0
C424 C 0.10585 1.00567 0.54647 0.0
C425 C 0.11005 0.00913 0.39975 0.0
C426 C 0.09151 1.00486 0.6136 0.0
C427 C 0.0665 1.00616 0.60751 0.0
C428 C 0.09513 1.00773 0.47225 0.0
C429 C 0.05644 0.00796 0.53245 0.0
C430 C 0.09968 0.01205 0.32532 0.0
C431 C 0.14906 0.0101 0.34189 0.0
N432 N 0.07075 0.00876 0.46774 0.0
N433 N 0.13439 0.00812 0.40526 0.0
H434 H 0.43646 0.15606 0.33048 0.0
H435 H 0.51523 0.04846 0.50498 0.0
H436 H 0.50235 0.13236 0.22356 0.0
H437 H 0.4593 0.08417 0.63431 0.0
H438 H 0.50842 0.07596 0.39493 0.0
H439 H 0.44244 0.12711 0.436 0.0
C440 C 0.45217 0.14468 0.32898 0.0
C441 C 0.46888 0.14662 0.26766 0.0
C442 C 0.49758 0.07772 0.44726 0.0
C443 C 0.47589 0.11331 0.38914 0.0
C444 C 0.50132 0.06191 0.50985 0.0
C445 C 0.48774 0.064 0.5788 0.0
C446 C 0.48002 0.09568 0.45346 0.0
C447 C 0.47019 0.08196 0.5823 0.0
C448 C 0.45563 0.12821 0.38958 0.0
C449 C 0.48909 0.13161 0.26979 0.0
N450 N 0.46683 0.09706 0.5206 0.0
N451 N 0.49197 0.11552 0.32927 0.0
H452 H 0.34669 0.49536 0.34351 0.0
H453 H 0.4792 0.51532 0.50538 0.0
H454 H 0.4088 0.49037 0.19402 0.0
H455 H 0.42138 0.49002 0.65124 0.0
H456 H 0.45309 0.5119 0.39048 0.0
H457 H 0.37313 0.49981 0.45713 0.0
C458 C 0.3659 0.49553 0.33452 0.0
C459 C 0.37557 0.49256 0.25921 0.0
C460 C 0.44615 0.50707 0.44763 0.0
C461 C 0.40591 0.49753 0.38897 0.0
C462 C 0.46102 0.50902 0.51318 0.0
C463 C 0.45248 0.50279 0.58785 0.0
C464 C 0.42236 0.49942 0.45708 0.0
C465 C 0.42871 0.49491 0.59469 0.0
C466 C 0.38096 0.49783 0.39942 0.0
C467 C 0.40062 0.49253 0.25112 0.0
N468 N 0.41442 0.4936 0.53024 0.0
N469 N 0.41493 0.49507 0.31515 0.0
H470 H 1.00593 0.38733 0.22188 0.0
H471 H 0.04792 0.42979 0.64833 0.0
H472 H 0.07023 0.36218 0.33517 0.0
H473 H 0.99685 0.46987 0.51149 0.0
H474 H 0.05402 0.40281 0.53728 0.0
H475 H 0.99961 0.41545 0.33102 0.0
C476 C 0.01863 0.38765 0.26979 0.0
C477 C 0.0387 0.37247 0.26915 0.0
C478 C 0.04149 0.41751 0.53131 0.0
C479 C 0.03159 0.40447 0.39401 0.0
C480 C 0.03797 0.43288 0.59479 0.0
C481 C 0.02178 0.45199 0.58919 0.0
C482 C 0.02849 0.42102 0.46174 0.0
C483 C 0.00947 0.45528 0.51822 0.0
C484 C 0.01512 0.4038 0.33172 0.0
C485 C 0.05468 0.37375 0.3326 0.0
N486 N 0.01294 0.43984 0.45737 0.0
N487 N 0.05073 0.38935 0.39234 0.0
H488 H 0.90417 0.01091 0.24553 0.0
H489 H 0.92042 0.98774 0.78474 0.0
H490 H 0.8452 0.99827 0.08733 0.0
H491 H 0.97661 0.01495 0.93333 0.0
H492 H 0.89381 0.98566 0.89874 0.0
H493 H 0.93197 1.00666 0.13571 0.0
C494 C 0.89701 1.00714 0.1879 0.0
C495 C 0.87215 1.0052 0.176 0.0
C496 C 0.91201 0.99194 0.90657 0.0
C497 C 0.9041 1.00005 0.04967 0.0
C498 C 0.92722 0.99308 0.84154 0.0
C499 C 0.95072 1.00164 0.84954 0.0
C500 C 0.92036 0.9993 0.98039 0.0
C501 C 0.9586 0.00827 0.92454 0.0
C502 C 0.91296 1.00464 0.12518 0.0
C503 C 0.86413 0.99973 0.09995 0.0
N504 N 0.94344 1.00705 0.98698 0.0
N505 N 0.88001 0.99751 0.03981 0.0
H506 H 0.5001 0.90448 0.21699 0.0
H507 H 0.51304 0.91668 0.75159 0.0
H508 H 0.51342 0.8448 0.06233 0.0
H509 H 0.50382 0.97742 0.90442 0.0
H510 H 0.51584 0.89055 0.86607 0.0
H511 H 0.50409 0.93182 0.10552 0.0
C512 C 0.50403 0.89711 0.15972 0.0
C513 C 0.50626 0.87221 0.14918 0.0
C514 C 0.51345 0.90961 0.87491 0.0
C515 C 0.51084 0.90353 0.02093 0.0
C516 C 0.51185 0.92456 0.80946 0.0
C517 C 0.5083 0.94928 0.81858 0.0
C518 C 0.51122 0.91936 0.95043 0.0
C519 C 0.50683 0.95851 0.89487 0.0
C520 C 0.50637 0.91277 0.09608 0.0
C521 C 0.51172 0.86381 0.07366 0.0
N522 N 0.50811 0.94353 0.95791 0.0
N523 N 0.51359 0.87938 0.01252 0.0
H524 H 0.67534 0.51406 0.07017 0.0
H525 H 0.54002 0.50127 0.92329 0.0
H526 H 0.61576 0.50064 0.22555 0.0
H527 H 0.59774 0.52492 0.77405 0.0
H528 H 0.56729 0.50214 0.03547 0.0
H529 H 0.64718 0.51978 0.96236 0.0
C530 C 0.65634 0.51269 0.08213 0.0
C531 C 0.64802 0.50669 0.15741 0.0
C532 C 0.574 0.50731 0.97834 0.0
C533 C 0.61557 0.51274 0.03315 0.0
C534 C 0.55842 0.50679 0.91427 0.0
C535 C 0.56669 0.51289 0.83922 0.0
C536 C 0.5981 0.51379 0.96729 0.0
C537 C 0.59067 0.51999 0.8309 0.0
C538 C 0.64024 0.51578 0.02019 0.0
C539 C 0.62312 0.50478 0.16844 0.0
N540 N 0.60558 0.52006 0.89399 0.0
N541 N 0.60785 0.50759 0.10703 0.0
H542 H 1.00514 0.67702 0.06221 0.0
H543 H 0.01888 0.54097 0.92111 0.0
H544 H 0.02194 0.61831 0.21758 0.0
H545 H 0.99252 0.59726 0.7709 0.0
H546 H 0.01882 0.56898 0.03123 0.0
H547 H 0.99873 0.64821 0.95613 0.0
C548 C 1.00718 0.65809 0.07447 0.0
C549 C 0.01435 0.65019 0.1491 0.0
C550 C 0.01288 0.57522 0.97439 0.0
C551 C 1.00741 0.61706 0.02716 0.0
C552 C 0.01292 0.55921 0.91146 0.0
C553 C 1.00582 0.56684 0.83667 0.0
C554 C 1.00587 0.59916 0.96251 0.0
C555 C 0.99821 0.59067 0.82758 0.0
C556 C 1.00366 0.64164 0.01361 0.0
C557 C 0.01694 0.62537 0.16081 0.0
N558 N 0.99862 0.60604 0.88956 0.0
N559 N 0.01367 0.60978 0.10055 0.0
H560 H 0.10314 0.21624 0.2973 0.0
H561 H 0.02886 0.09534 0.23568 0.0
H562 H 0.07597 0.19277 0.07345 0.0
H563 H 0.05134 0.12242 0.46087 0.0
H564 H 0.05122 0.1277 0.17211 0.0
H565 H 0.09058 0.17809 0.3546 0.0
C566 C 0.09498 0.20286 0.25992 0.0
C567 C 0.09041 0.20778 0.18074 0.0
C568 C 0.05143 0.12639 0.23542 0.0
C569 C 0.07564 0.16429 0.24593 0.0
C570 C 0.03851 0.10805 0.27173 0.0
C571 C 0.0381 0.10622 0.35374 0.0
C572 C 0.06396 0.14307 0.28149 0.0
C573 C 0.05131 0.12294 0.39747 0.0
C574 C 0.08773 0.18112 0.29262 0.0
C575 C 0.07999 0.18971 0.13469 0.0
N576 N 0.06355 0.14072 0.36084 0.0
N577 N 0.07262 0.16891 0.16824 0.0
H578 H 0.3066 0.1069 0.18822 0.0
H579 H 0.36773 1.0002 0.41943 0.0
H580 H 0.26818 0.05157 0.31345 0.0
H581 H 0.40797 0.06209 0.34291 0.0
H582 H 0.33091 0.02075 0.38574 0.0
H583 H 0.34366 0.09353 0.25147 0.0
C584 C 0.30579 0.09235 0.23015 0.0
C585 C 0.28416 0.08014 0.2442 0.0
C586 C 0.34774 0.02999 0.37677 0.0
C587 C 0.32644 0.06474 0.31616 0.0
C588 C 0.36886 0.01823 0.39619 0.0
C589 C 0.39107 0.0294 0.38418 0.0
C590 C 0.34868 0.05303 0.34378 0.0
C591 C 0.39128 0.05262 0.35202 0.0
C592 C 0.32696 0.08474 0.2662 0.0
C593 C 0.2842 0.06172 0.30043 0.0
N594 N 0.37038 0.06363 0.33237 0.0
N595 N 0.30502 0.05437 0.33314 0.0
H596 H 0.40694 0.3056 0.28518 0.0
H597 H 0.48743 0.4225 0.22557 0.0
H598 H 0.43706 0.32699 0.06289 0.0
H599 H 0.46121 0.39758 0.44936 0.0
H600 H 0.46387 0.39124 0.16099 0.0
H601 H 0.42037 0.34353 0.34168 0.0
C602 C 0.41591 0.31852 0.24791 0.0
C603 C 0.42107 0.31305 0.16952 0.0
C604 C 0.4631 0.39281 0.22419 0.0
C605 C 0.43688 0.35624 0.23384 0.0
C606 C 0.4767 0.41051 0.26109 0.0
C607 C 0.47644 0.41258 0.34304 0.0
C608 C 0.44922 0.37702 0.26962 0.0
C609 C 0.46183 0.39684 0.38603 0.0
C610 C 0.42366 0.34012 0.28016 0.0
C611 C 0.43257 0.3305 0.12354 0.0
N612 N 0.44897 0.37965 0.34887 0.0
N613 N 0.44044 0.35115 0.15672 0.0
H614 H 0.20218 0.44503 0.07503 0.0
H615 H 0.12871 0.46848 0.46859 0.0
H616 H 0.22641 0.42262 0.30383 0.0
H617 H 0.10796 0.49567 0.24173 0.0
H618 H 0.16172 0.44683 0.40711 0.0
H619 H 0.1644 0.45778 0.13245 0.0
C620 C 0.19931 0.44209 0.13708 0.0
C621 C 0.21757 0.43277 0.18478 0.0
C622 C 0.14987 0.45741 0.37067 0.0
C623 C 0.17449 0.44811 0.25136 0.0
C624 C 0.13098 0.46973 0.40568 0.0
C625 C 0.11559 0.48396 0.36018 0.0
C626 C 0.15346 0.45932 0.28952 0.0
C627 C 0.11959 0.48518 0.27913 0.0
C628 C 0.17779 0.44972 0.17002 0.0
C629 C 0.21292 0.42994 0.26507 0.0
N630 N 0.13818 0.47307 0.24641 0.0
N631 N 0.19192 0.43783 0.29602 0.0
H632 H 0.09783 0.81937 0.3692 0.0
H633 H 0.10505 0.89736 0.98034 0.0
H634 H 0.11494 0.78997 0.14191 0.0
H635 H 0.07797 0.92239 0.20282 0.0
H636 H 0.11875 0.86062 0.04441 0.0
H637 H 0.1018 0.85947 0.3155 0.0
C638 C 0.10314 0.82125 0.30847 0.0
C639 C 0.10566 0.80113 0.25973 0.0
C640 C 0.11017 0.87436 0.07932 0.0
C641 C 0.10942 0.8473 0.19716 0.0
C642 C 0.10221 0.89529 0.04275 0.0
C643 C 0.08986 0.91285 0.08584 0.0
C644 C 0.10578 0.87097 0.15956 0.0
C645 C 0.08736 0.90945 0.16698 0.0
C646 C 0.10512 0.84428 0.27758 0.0
C647 C 0.11225 0.80494 0.18121 0.0
N648 N 0.09493 0.88879 0.20089 0.0
N649 N 0.11347 0.82758 0.15197 0.0
H650 H 0.74194 0.06245 0.08432 0.0
H651 H 0.60709 0.0985 0.08916 0.0
H652 H 0.71482 0.11835 0.23544 0.0
H653 H 0.63971 0.06262 0.89187 0.0
H654 H 0.64678 0.10914 0.1367 0.0
H655 H 0.70616 0.06579 0.0047 0.0
C656 C 0.72885 0.07595 0.09982 0.0
C657 C 0.73133 0.0898 0.16811 0.0
C658 C 0.64526 0.09928 0.08231 0.0
C659 C 0.68967 0.09302 0.07802 0.0
C660 C 0.62254 0.09322 0.0549 0.0
C661 C 0.61998 0.07926 0.98695 0.0
C662 C 0.66561 0.09102 0.04227 0.0
C663 C 0.64079 0.07277 0.94576 0.0
C664 C 0.70822 0.07768 0.05437 0.0
C665 C 0.71339 0.10672 0.18496 0.0
N666 N 0.66273 0.07837 0.97474 0.0
N667 N 0.69307 0.10747 0.14128 0.0
H668 H 0.41414 0.70467 0.31821 0.0
H669 H 0.42121 0.63384 0.91647 0.0
H670 H 0.41311 0.73911 0.0915 0.0
H671 H 0.42755 0.60181 0.14596 0.0
H672 H 0.40851 0.67133 0.97805 0.0
H673 H 0.40797 0.66624 0.25483 0.0
C674 C 0.41192 0.70433 0.2552 0.0
C675 C 0.41465 0.72521 0.21008 0.0
C676 C 0.41227 0.65594 0.01474 0.0
C677 C 0.40843 0.68089 0.13675 0.0
C678 C 0.41967 0.63458 0.97969 0.0
C679 C 0.42591 0.61474 0.02611 0.0
C680 C 0.41119 0.65748 0.0968 0.0
C681 C 0.42294 0.61655 0.1076 0.0
C682 C 0.40866 0.68223 0.21887 0.0
C683 C 0.41181 0.72339 0.12848 0.0
N684 N 0.41614 0.63763 0.14029 0.0
N685 N 0.40934 0.70155 0.09426 0.0
H686 H 0.80398 0.38988 0.24054 0.0
H687 H 0.8776 0.44213 0.87845 0.0
H688 H 0.77677 0.44191 0.07525 0.0
H689 H 0.90992 0.41468 0.09017 0.0
H690 H 0.83841 0.42953 0.9272 0.0
H691 H 0.84035 0.3864 0.16137 0.0
C692 C 0.80537 0.40026 0.1871 0.0
C693 C 0.78745 0.41676 0.1661 0.0
C694 C 0.85418 0.4259 0.96217 0.0
C695 C 0.82877 0.41238 0.07465 0.0
C696 C 0.87653 0.43323 0.93476 0.0
C697 C 0.89706 0.43006 0.98119 0.0
C698 C 0.85233 0.41518 0.0363 0.0
C699 C 0.89464 0.41764 0.05241 0.0
C700 C 0.8261 0.39814 0.14184 0.0
C701 C 0.78997 0.42901 0.0945 0.0
N702 N 0.87262 0.41097 0.07833 0.0
N703 N 0.81042 0.42684 0.05209 0.0
H704 H 0.03069 0.19186 0.02259 0.0
H705 H 1.00704 0.09748 0.67651 0.0
H706 H 0.0098 0.21281 0.78886 0.0
H707 H 0.02485 0.07742 0.91381 0.0
H708 H 0.00808 0.1397 0.71561 0.0
H709 H 0.02787 0.14993 0.98378 0.0
C710 C 0.02511 0.18772 0.96337 0.0
C711 C 0.02039 0.20612 0.90914 0.0
C712 C 0.01177 0.12605 0.75908 0.0
C713 C 0.01767 0.15771 0.8635 0.0
C714 C 0.01126 0.10189 0.73674 0.0
C715 C 0.01587 0.08372 0.79185 0.0
C716 C 0.01696 0.1322 0.83715 0.0
C717 C 0.02119 0.09068 0.86908 0.0
C718 C 0.02375 0.16366 0.94098 0.0
C719 C 0.01384 0.19937 0.83264 0.0
N720 N 0.02157 0.11427 0.8893 0.0
N721 N 0.01274 0.17579 0.81213 0.0
H722 H 0.32326 0.02347 0.01669 0.0
H723 H 0.41453 0.99965 0.66285 0.0
H724 H 0.30045 0.99717 0.79081 0.0
H725 H 0.43665 0.01513 0.89968 0.0
H726 H 0.37275 0.99941 0.70657 0.0
H727 H 0.36472 0.02077 0.97362 0.0
C728 C 0.32686 0.01674 0.95837 0.0
C729 C 0.30803 0.01038 0.90774 0.0
C730 C 0.38676 1.00277 0.74899 0.0
C731 C 0.35601 0.00791 0.85693 0.0
C732 C 0.41069 1.00293 0.72401 0.0
C733 C 0.42932 1.00739 0.77745 0.0
C734 C 0.38129 1.00726 0.82806 0.0
C735 C 0.42303 0.0116 0.85607 0.0
C736 C 0.35069 0.01544 0.93351 0.0
C737 C 0.31418 1.00252 0.83192 0.0
N738 N 0.39965 0.01151 0.87877 0.0
N739 N 0.33756 1.0016 0.80884 0.0
H740 H 0.50333 0.30373 0.77961 0.0
H741 H 0.49445 0.44176 0.90847 0.0
H742 H 0.483 0.32723 0.01129 0.0
H743 H 0.50637 0.41957 0.66939 0.0
H744 H 0.49239 0.39978 0.94783 0.0
H745 H 0.507 0.34571 0.73939 0.0
C746 C 0.49973 0.31763 0.82224 0.0
C747 C 0.49285 0.3117 0.89921 0.0
C748 C 0.49543 0.40403 0.8867 0.0
C749 C 0.49712 0.36003 0.85324 0.0
C750 C 0.49659 0.42808 0.86405 0.0
C751 C 0.50056 0.43433 0.78533 0.0
C752 C 0.49837 0.38587 0.83049 0.0
C753 C 0.50322 0.41566 0.73069 0.0
C754 C 0.50186 0.34165 0.79913 0.0
C755 C 0.48874 0.33069 0.95178 0.0
N756 N 0.50212 0.39232 0.75429 0.0
N757 N 0.49087 0.35387 0.9278 0.0
H758 H 0.1936 0.48737 0.01267 0.0
H759 H 0.09963 0.50858 0.66473 0.0
H760 H 0.21471 0.50983 0.78043 0.0
H761 H 0.07937 0.49602 0.90544 0.0
H762 H 0.14184 0.50764 0.70393 0.0
H763 H 0.15182 0.48967 0.97307 0.0
C764 C 0.18954 0.49315 0.95359 0.0
C765 C 0.20796 0.49857 0.90012 0.0
C766 C 0.12814 0.5051 0.74813 0.0
C767 C 0.15967 0.50064 0.85354 0.0
C768 C 0.10401 0.50555 0.72577 0.0
C769 C 0.08583 0.50238 0.78185 0.0
C770 C 0.13421 0.50132 0.82713 0.0
C771 C 0.09269 0.49856 0.86007 0.0
C772 C 0.16555 0.49424 0.93077 0.0
C773 C 0.20128 0.50527 0.82366 0.0
N774 N 0.11625 0.49812 0.88025 0.0
N775 N 0.17774 0.50605 0.80268 0.0
H776 H 0.98206 0.82729 0.43237 0.0
H777 H 0.01934 0.9214 0.76593 0.0
H778 H 0.0292 0.81026 0.62511 0.0
H779 H 0.98576 0.94197 0.54819 0.0
H780 H 0.01876 0.87962 0.72287 0.0
H781 H 0.97905 0.86837 0.48147 0.0
C782 C 0.99173 0.83206 0.48507 0.0
C783 C 1.00596 0.81506 0.52428 0.0
C784 C 0.01145 0.89327 0.68461 0.0
C785 C 1.00233 0.86222 0.58141 0.0
C786 C 0.01172 0.91718 0.70926 0.0
C787 C 1.00268 0.93537 0.66058 0.0
C788 C 1.00193 0.88736 0.6109 0.0
C789 C 0.99306 0.92865 0.58766 0.0
C790 C 0.98992 0.85556 0.51321 0.0
C791 C 0.01768 0.82242 0.59323 0.0
N792 N 0.99295 0.90525 0.5651 0.0
N793 N 0.01565 0.84537 0.61929 0.0
H794 H 0.70784 0.99878 0.64662 0.0
H795 H 0.5709 0.99483 0.5133 0.0
H796 H 0.68479 0.01245 0.40898 0.0
H797 H 0.59137 0.01274 0.74998 0.0
H798 H 0.61313 0.99415 0.47612 0.0
H799 H 0.6658 0.99716 0.68709 0.0
C800 C 0.69412 1.00142 0.6027 0.0
C801 C 0.70025 1.00582 0.52385 0.0
C802 C 0.60839 0.99818 0.53623 0.0
C803 C 0.65187 1.00337 0.57023 0.0
C804 C 0.58425 0.99848 0.55772 0.0
C805 C 0.57747 1.0039 0.63501 0.0
C806 C 0.62608 1.00295 0.5925 0.0
C807 C 0.59571 0.00859 0.68968 0.0
C808 C 0.67007 1.00039 0.62607 0.0
C809 C 0.68132 0.00851 0.46999 0.0
N810 N 0.61918 0.00791 0.66748 0.0
N811 N 0.65813 1.0072 0.49412 0.0
H812 H 0.50351 0.6859 0.39353 0.0
H813 H 0.51216 0.59722 0.75754 0.0
H814 H 0.52102 0.71099 0.62606 0.0
H815 H 0.52236 0.57391 0.51875 0.0
H816 H 0.51252 0.63896 0.71213 0.0
H817 H 0.50803 0.64481 0.43918 0.0
C818 C 0.50869 0.68296 0.45387 0.0
C819 C 0.51189 0.70233 0.50566 0.0
C820 C 0.51485 0.62469 0.66985 0.0
C821 C 0.51628 0.65475 0.55911 0.0
C822 C 0.51457 0.60084 0.69568 0.0
C823 C 0.51722 0.58194 0.64196 0.0
C824 C 0.51738 0.62972 0.58954 0.0
C825 C 0.52034 0.58781 0.56246 0.0
C826 C 0.51106 0.65933 0.48006 0.0
C827 C 0.5179 0.69688 0.58389 0.0
N828 N 0.52011 0.6111 0.53867 0.0
N829 N 0.51968 0.67368 0.60828 0.0
H830 H 0.83369 0.50034 0.39652 0.0
H831 H 0.9229 0.50966 0.75725 0.0
H832 H 0.80873 0.51907 0.62838 0.0
H833 H 0.94537 0.52082 0.51794 0.0
H834 H 0.88104 0.50968 0.7134 0.0
H835 H 0.87472 0.50489 0.44147 0.0
C836 C 0.83664 0.50582 0.45655 0.0
C837 C 0.81732 0.50942 0.5083 0.0
C838 C 0.89517 0.5123 0.67072 0.0
C839 C 0.86487 0.51377 0.56103 0.0
C840 C 0.91907 0.51219 0.69562 0.0
C841 C 0.93775 0.51523 0.64126 0.0
C842 C 0.8899 0.51502 0.59069 0.0
C843 C 0.93163 0.5185 0.5621 0.0
C844 C 0.86024 0.50818 0.48235 0.0
C845 C 0.82281 0.5157 0.58625 0.0
N846 N 0.90831 0.51809 0.53921 0.0
N847 N 0.84601 0.51746 0.61033 0.0
loop_
_geom_bond_atom_site_label_1
_geom_bond_atom_site_label_2
_geom_bond_distance
_geom_bond_site_symmetry_2
_ccdc_geom_bond_type
P0 O11 1.490 . S
P0 C14 1.812 . S
P0 C20 1.803 . S
P0 C26 1.819 . S
H1 C15 0.941 . S
H2 C16 0.939 . S
H3 C18 0.940 . S
H4 C19 0.940 . S
H5 C21 0.939 . S
H6 C22 0.942 . S
H7 C24 0.940 . S
H8 C25 0.939 . S
H9 C27 0.941 . S
H10 C31 0.939 . S
O11 P0 1.490 . S
H12 C28 0.939 . S
H13 C30 0.940 . S
C14 P0 1.812 . S
C14 C15 1.389 . S
C14 C19 1.391 . S
C15 H1 0.941 . S
C15 C14 1.389 . S
C15 C16 1.397 . S
C16 H2 0.939 . S
C16 C15 1.397 . S
C16 C17 1.378 . S
C17 C16 1.378 . S
C17 C18 1.378 . S
C18 H3 0.940 . S
C18 C17 1.378 . S
C18 C19 1.396 . S
C19 H4 0.940 . S
C19 C14 1.391 . S
C19 C18 1.396 . S
C20 P0 1.803 . S
C20 C21 1.378 . S
C20 C25 1.400 . S
C21 H5 0.939 . S
C21 C20 1.378 . S
C21 C22 1.361 . S
C22 H6 0.942 . S
C22 C21 1.361 . S
C22 C23 1.369 . S
C23 C22 1.369 . S
C23 C24 1.404 . S
C24 H7 0.940 . S
C24 C23 1.404 . S
C24 C25 1.389 . S
C25 H8 0.939 . S
C25 C20 1.400 . S
C25 C24 1.389 . S
C26 P0 1.819 . S
C26 C27 1.391 . S
C26 C31 1.391 . S
C27 H9 0.941 . S
C27 C26 1.391 . S
C27 C28 1.396 . S
C28 H12 0.939 . S
C28 C27 1.396 . S
C28 C29 1.397 . S
C29 C28 1.397 . S
C29 C30 1.385 . S
C30 H13 0.940 . S
C30 C29 1.385 . S
C30 C31 1.388 . S
C31 H10 0.939 . S
C31 C26 1.391 . S
C31 C30 1.388 . S
P32 O43 1.490 . S
P32 C46 1.812 . S
P32 C52 1.803 . S
P32 C58 1.819 . S
H33 C47 0.941 . S
H34 C48 0.939 . S
H35 C50 0.940 . S
H36 C51 0.940 . S
H37 C53 0.939 . S
H38 C54 0.942 . S
H39 C56 0.940 . S
H40 C57 0.939 . S
H41 C59 0.941 . S
H42 C63 0.939 1_655 S
O43 P32 1.490 . S
H44 C60 0.939 . S
H45 C62 0.940 . S
C46 P32 1.812 . S
C46 C47 1.389 . S
C46 C51 1.391 1_455 S
C47 H33 0.941 . S
C47 C46 1.389 . S
C47 C48 1.397 . S
C48 H34 0.939 . S
C48 C47 1.397 . S
C48 C49 1.378 . S
C49 C48 1.378 . S
C49 C50 1.378 1_455 S
C50 H35 0.940 . S
C50 C49 1.378 1_655 S
C50 C51 1.396 . S
C51 H36 0.940 . S
C51 C46 1.391 1_655 S
C51 C50 1.396 . S
C52 P32 1.803 . S
C52 C53 1.378 . S
C52 C57 1.400 1_455 S
C53 H37 0.939 . S
C53 C52 1.378 . S
C53 C54 1.361 . S
C54 H38 0.942 . S
C54 C53 1.361 . S
C54 C55 1.369 . S
C55 C54 1.369 . S
C55 C56 1.404 1_455 S
C56 H39 0.940 . S
C56 C55 1.404 1_655 S
C56 C57 1.389 . S
C57 H40 0.939 . S
C57 C52 1.400 1_655 S
C57 C56 1.389 . S
C58 P32 1.819 . S
C58 C59 1.391 . S
C58 C63 1.391 . S
C59 H41 0.941 . S
C59 C58 1.391 . S
C59 C60 1.396 . S
C60 H44 0.939 . S
C60 C59 1.396 . S
C60 C61 1.397 . S
C61 C60 1.397 . S
C61 C62 1.385 1_455 S
C62 H45 0.940 . S
C62 C61 1.385 1_655 S
C62 C63 1.388 1_655 S
C63 H42 0.939 1_455 S
C63 C58 1.391 . S
C63 C62 1.388 1_455 S
P64 O75 1.490 . S
P64 C78 1.812 . S
P64 C84 1.803 . S
P64 C90 1.819 . S
H65 C79 0.941 . S
H66 C80 0.939 . S
H67 C82 0.940 . S
H68 C83 0.940 . S
H69 C85 0.939 . S
H70 C86 0.942 . S
H71 C88 0.940 . S
H72 C89 0.939 . S
H73 C91 0.941 . S
H74 C95 0.939 1_565 S
O75 P64 1.490 . S
H76 C92 0.939 . S
H77 C94 0.940 . S
C78 P64 1.812 . S
C78 C79 1.389 . S
C78 C83 1.391 1_545 S
C79 H65 0.941 . S
C79 C78 1.389 . S
C79 C80 1.397 . S
C80 H66 0.939 . S
C80 C79 1.397 . S
C80 C81 1.378 . S
C81 C80 1.378 . S
C81 C82 1.378 1_545 S
C82 H67 0.940 . S
C82 C81 1.378 1_565 S
C82 C83 1.396 . S
C83 H68 0.940 . S
C83 C78 1.391 1_565 S
C83 C82 1.396 . S
C84 P64 1.803 . S
C84 C85 1.378 . S
C84 C89 1.400 1_545 S
C85 H69 0.939 . S
C85 C84 1.378 . S
C85 C86 1.361 . S
C86 H70 0.942 . S
C86 C85 1.361 . S
C86 C87 1.369 . S
C87 C86 1.369 . S
C87 C88 1.404 1_545 S
C88 H71 0.940 . S
C88 C87 1.404 1_565 S
C88 C89 1.389 . S
C89 H72 0.939 . S
C89 C84 1.400 1_565 S
C89 C88 1.389 . S
C90 P64 1.819 . S
C90 C91 1.391 . S
C90 C95 1.391 . S
C91 H73 0.941 . S
C91 C90 1.391 . S
C91 C92 1.396 . S
C92 H76 0.939 . S
C92 C91 1.396 . S
C92 C93 1.397 . S
C93 C92 1.397 . S
C93 C94 1.385 1_545 S
C94 H77 0.940 . S
C94 C93 1.385 1_565 S
C94 C95 1.388 1_565 S
C95 H74 0.939 1_545 S
C95 C90 1.391 . S
C95 C94 1.388 1_545 S
P96 O107 1.490 . S
P96 C110 1.812 . S
P96 C116 1.803 . S
P96 C122 1.819 . S
H97 C111 0.941 . S
H98 C112 0.939 . S
H99 C114 0.940 . S
H100 C115 0.940 . S
H101 C117 0.939 . S
H102 C118 0.942 . S
H103 C120 0.940 . S
H104 C121 0.939 . S
H105 C123 0.941 . S
H106 C127 0.939 . S
O107 P96 1.490 . S
H108 C124 0.939 . S
H109 C126 0.940 . S
C110 P96 1.812 . S
C110 C111 1.389 . S
C110 C115 1.391 . S
C111 H97 0.941 . S
C111 C110 1.389 . S
C111 C112 1.397 . S
C112 H98 0.939 . S
C112 C111 1.397 . S
C112 C113 1.378 . S
C113 C112 1.378 . S
C113 C114 1.378 . S
C114 H99 0.940 . S
C114 C113 1.378 . S
C114 C115 1.396 . S
C115 H100 0.940 . S
C115 C110 1.391 . S
C115 C114 1.396 . S
C116 P96 1.803 . S
C116 C117 1.378 . S
C116 C121 1.400 . S
C117 H101 0.939 . S
C117 C116 1.378 . S
C117 C118 1.361 . S
C118 H102 0.942 . S
C118 C117 1.361 . S
C118 C119 1.369 . S
C119 C118 1.369 . S
C119 C120 1.404 . S
C120 H103 0.940 . S
C120 C119 1.404 . S
C120 C121 1.389 . S
C121 H104 0.939 . S
C121 C116 1.400 . S
C121 C120 1.389 . S
C122 P96 1.819 . S
C122 C123 1.391 . S
C122 C127 1.391 . S
C123 H105 0.941 . S
C123 C122 1.391 . S
C123 C124 1.396 . S
C124 H108 0.939 . S
C124 C123 1.396 . S
C124 C125 1.397 . S
C125 C124 1.397 . S
C125 C126 1.385 . S
C126 H109 0.940 . S
C126 C125 1.385 . S
C126 C127 1.388 . S
C127 H106 0.939 . S
C127 C122 1.391 . S
C127 C126 1.388 . S
P128 O139 1.490 . S
P128 C142 1.812 1_554 S
P128 C148 1.803 . S
P128 C154 1.819 . S
H129 C143 0.941 . S
H130 C144 0.939 . S
H131 C146 0.940 . S
H132 C147 0.940 . S
H133 C149 0.939 . S
H134 C150 0.942 . S
H135 C152 0.940 . S
H136 C153 0.939 1_556 S
H137 C155 0.941 . S
H138 C159 0.939 . S
O139 P128 1.490 . S
H140 C156 0.939 . S
H141 C158 0.940 . S
C142 P128 1.812 1_556 S
C142 C143 1.389 . S
C142 C147 1.391 . S
C143 H129 0.941 . S
C143 C142 1.389 . S
C143 C144 1.397 . S
C144 H130 0.939 . S
C144 C143 1.397 . S
C144 C145 1.378 . S
C145 C144 1.378 . S
C145 C146 1.378 . S
C146 H131 0.940 . S
C146 C145 1.378 . S
C146 C147 1.396 . S
C147 H132 0.940 . S
C147 C142 1.391 . S
C147 C146 1.396 . S
C148 P128 1.803 . S
C148 C149 1.378 . S
C148 C153 1.400 . S
C149 H133 0.939 . S
C149 C148 1.378 . S
C149 C150 1.361 . S
C150 H134 0.942 . S
C150 C149 1.361 . S
C150 C151 1.369 . S
C151 C150 1.369 . S
C151 C152 1.404 . S
C152 H135 0.940 . S
C152 C151 1.404 . S
C152 C153 1.389 . S
C153 H136 0.939 1_554 S
C153 C148 1.400 . S
C153 C152 1.389 . S
C154 P128 1.819 . S
C154 C155 1.391 . S
C154 C159 1.391 . S
C155 H137 0.941 . S
C155 C154 1.391 . S
C155 C156 1.396 . S
C156 H140 0.939 . S
C156 C155 1.396 . S
C156 C157 1.397 . S
C157 C156 1.397 . S
C157 C158 1.385 . S
C158 H141 0.940 . S
C158 C157 1.385 . S
C158 C159 1.388 . S
C159 H138 0.939 . S
C159 C154 1.391 . S
C159 C158 1.388 . S
P160 O171 1.490 . S
P160 C174 1.812 1_554 S
P160 C180 1.803 . S
P160 C186 1.819 . S
H161 C175 0.941 . S
H162 C176 0.939 . S
H163 C178 0.940 . S
H164 C179 0.940 1_655 S
H165 C181 0.939 . S
H166 C182 0.942 . S
H167 C184 0.940 . S
H168 C185 0.939 1_656 S
H169 C187 0.941 . S
H170 C191 0.939 . S
O171 P160 1.490 . S
H172 C188 0.939 . S
H173 C190 0.940 . S
C174 P160 1.812 1_556 S
C174 C175 1.389 . S
C174 C179 1.391 . S
C175 H161 0.941 . S
C175 C174 1.389 . S
C175 C176 1.397 . S
C176 H162 0.939 . S
C176 C175 1.397 . S
C176 C177 1.378 . S
C177 C176 1.378 . S
C177 C178 1.378 1_455 S
C178 H163 0.940 . S
C178 C177 1.378 1_655 S
C178 C179 1.396 1_655 S
C179 H164 0.940 1_455 S
C179 C174 1.391 . S
C179 C178 1.396 1_455 S
C180 P160 1.803 . S
C180 C181 1.378 . S
C180 C185 1.400 . S
C181 H165 0.939 . S
C181 C180 1.378 . S
C181 C182 1.361 . S
C182 H166 0.942 . S
C182 C181 1.361 . S
C182 C183 1.369 . S
C183 C182 1.369 . S
C183 C184 1.404 1_455 S
C184 H167 0.940 . S
C184 C183 1.404 1_655 S
C184 C185 1.389 1_655 S
C185 H168 0.939 1_454 S
C185 C180 1.400 . S
C185 C184 1.389 1_455 S
C186 P160 1.819 . S
C186 C187 1.391 . S
C186 C191 1.391 . S
C187 H169 0.941 . S
C187 C186 1.391 . S
C187 C188 1.396 . S
C188 H172 0.939 . S
C188 C187 1.396 . S
C188 C189 1.397 . S
C189 C188 1.397 . S
C189 C190 1.385 1_455 S
C190 H173 0.940 . S
C190 C189 1.385 1_655 S
C190 C191 1.388 1_655 S
C191 H170 0.939 . S
C191 C186 1.391 . S
C191 C190 1.388 1_455 S
P192 O203 1.490 . S
P192 C206 1.812 1_554 S
P192 C212 1.803 . S
P192 C218 1.819 . S
H193 C207 0.941 . S
H194 C208 0.939 . S
H195 C210 0.940 . S
H196 C211 0.940 1_565 S
H197 C213 0.939 . S
H198 C214 0.942 . S
H199 C216 0.940 . S
H200 C217 0.939 1_566 S
H201 C219 0.941 . S
H202 C223 0.939 . S
O203 P192 1.490 . S
H204 C220 0.939 . S
H205 C222 0.940 . S
C206 P192 1.812 1_556 S
C206 C207 1.389 . S
C206 C211 1.391 . S
C207 H193 0.941 . S
C207 C206 1.389 . S
C207 C208 1.397 . S
C208 H194 0.939 . S
C208 C207 1.397 . S
C208 C209 1.378 . S
C209 C208 1.378 . S
C209 C210 1.378 1_545 S
C210 H195 0.940 . S
C210 C209 1.378 1_565 S
C210 C211 1.396 1_565 S
C211 H196 0.940 1_545 S
C211 C206 1.391 . S
C211 C210 1.396 1_545 S
C212 P192 1.803 . S
C212 C213 1.378 . S
C212 C217 1.400 . S
C213 H197 0.939 . S
C213 C212 1.378 . S
C213 C214 1.361 . S
C214 H198 0.942 . S
C214 C213 1.361 . S
C214 C215 1.369 . S
C215 C214 1.369 . S
C215 C216 1.404 1_545 S
C216 H199 0.940 . S
C216 C215 1.404 1_565 S
C216 C217 1.389 1_565 S
C217 H200 0.939 1_544 S
C217 C212 1.400 . S
C217 C216 1.389 1_545 S
C218 P192 1.819 . S
C218 C219 1.391 . S
C218 C223 1.391 . S
C219 H201 0.941 . S
C219 C218 1.391 . S
C219 C220 1.396 . S
C220 H204 0.939 . S
C220 C219 1.396 . S
C220 C221 1.397 . S
C221 C220 1.397 . S
C221 C222 1.385 1_545 S
C222 H205 0.940 . S
C222 C221 1.385 1_565 S
C222 C223 1.388 1_565 S
C223 H202 0.939 . S
C223 C218 1.391 . S
C223 C222 1.388 1_545 S
P224 O235 1.490 . S
P224 C238 1.812 1_554 S
P224 C244 1.803 . S
P224 C250 1.819 . S
H225 C239 0.941 . S
H226 C240 0.939 . S
H227 C242 0.940 . S
H228 C243 0.940 . S
H229 C245 0.939 . S
H230 C246 0.942 . S
H231 C248 0.940 . S
H232 C249 0.939 1_556 S
H233 C251 0.941 . S
H234 C255 0.939 . S
O235 P224 1.490 . S
H236 C252 0.939 . S
H237 C254 0.940 . S
C238 P224 1.812 1_556 S
C238 C239 1.389 . S
C238 C243 1.391 . S
C239 H225 0.941 . S
C239 C238 1.389 . S
C239 C240 1.397 . S
C240 H226 0.939 . S
C240 C239 1.397 . S
C240 C241 1.378 . S
C241 C240 1.378 . S
C241 C242 1.378 . S
C242 H227 0.940 . S
C242 C241 1.378 . S
C242 C243 1.396 . S
C243 H228 0.940 . S
C243 C238 1.391 . S
C243 C242 1.396 . S
C244 P224 1.803 . S
C244 C245 1.378 . S
C244 C249 1.400 . S
C245 H229 0.939 . S
C245 C244 1.378 . S
C245 C246 1.361 . S
C246 H230 0.942 . S
C246 C245 1.361 . S
C246 C247 1.369 . S
C247 C246 1.369 . S
C247 C248 1.404 . S
C248 H231 0.940 . S
C248 C247 1.404 . S
C248 C249 1.389 . S
C249 H232 0.939 1_554 S
C249 C244 1.400 . S
C249 C248 1.389 . S
C250 P224 1.819 . S
C250 C251 1.391 . S
C250 C255 1.391 . S
C251 H233 0.941 . S
C251 C250 1.391 . S
C251 C252 1.396 . S
C252 H236 0.939 . S
C252 C251 1.396 . S
C252 C253 1.397 . S
C253 C252 1.397 . S
C253 C254 1.385 . S
C254 H237 0.940 . S
C254 C253 1.385 . S
C254 C255 1.388 . S
C255 H234 0.939 . S
C255 C250 1.391 . S
C255 C254 1.388 . S
Gd256 C259 2.818 . S
Gd256 O276 2.377 . S
Gd256 O278 2.448 . S
Gd256 O279 2.506 . S
Gd256 O280 2.435 . S
Gd256 O281 2.717 1_565 S
Gd256 O283 2.395 1_565 S
Gd256 O287 2.327 1_455 S
Gd257 C268 2.818 . S
Gd257 O277 2.395 1_545 S
Gd257 O281 2.327 1_655 S
Gd257 O282 2.377 . S
Gd257 O284 2.448 . S
Gd257 O285 2.506 . S
Gd257 O286 2.435 . S
Gd257 O287 2.717 1_545 S
C258 O276 1.240 1_655 S
C258 O277 1.240 . S
C259 Gd256 2.818 . S
C259 C260 1.510 . S
C259 O278 1.249 . S
C259 O279 1.252 . S
C260 C259 1.510 . S
C260 C261 1.404 . S
C260 C262 1.352 . S
C261 C260 1.404 . S
C261 C265 1.389 . S
C261 H288 0.930 . S
C262 C260 1.352 . S
C262 C264 1.374 . S
C262 H289 0.931 1_455 S
C263 C264 1.359 . S
C263 C265 1.364 . S
C264 C262 1.374 . S
C264 C263 1.359 . S
C264 H290 0.931 1_455 S
C265 C261 1.389 . S
C265 C263 1.364 . S
C265 H291 0.931 . S
C266 O280 1.275 . S
C266 O281 1.247 1_565 S
C267 O282 1.240 1_455 S
C267 O283 1.240 . S
C268 Gd257 2.818 . S
C268 C269 1.510 . S
C268 O284 1.249 . S
C268 O285 1.252 . S
C269 C268 1.510 . S
C269 C270 1.404 . S
C269 C271 1.352 . S
C270 C269 1.404 . S
C270 C274 1.389 . S
C270 H292 0.930 . S
C271 C269 1.352 . S
C271 C273 1.374 . S
C271 H293 0.931 1_655 S
C272 C273 1.359 . S
C272 C274 1.364 . S
C273 C271 1.374 . S
C273 C272 1.359 . S
C273 H294 0.931 1_655 S
C274 C270 1.389 . S
C274 C272 1.364 . S
C274 H295 0.931 . S
C275 O286 1.256 . S
C275 O287 1.257 1_545 S
O276 Gd256 2.377 . S
O276 C258 1.240 1_455 S
O277 Gd257 2.395 1_565 S
O277 C258 1.240 . S
O278 Gd256 2.448 . S
O278 C259 1.249 . S
O279 Gd256 2.506 . S
O279 C259 1.252 . S
O280 Gd256 2.435 . S
O280 C266 1.275 . S
O281 Gd256 2.717 1_545 S
O281 Gd257 2.327 1_455 S
O281 C266 1.247 1_545 S
O282 Gd257 2.377 . S
O282 C267 1.240 1_655 S
O283 Gd256 2.395 1_545 S
O283 C267 1.240 . S
O284 Gd257 2.448 . S
O284 C268 1.249 . S
O285 Gd257 2.506 . S
O285 C268 1.252 . S
O286 Gd257 2.435 . S
O286 C275 1.256 . S
O287 Gd256 2.327 1_655 S
O287 Gd257 2.717 1_565 S
O287 C275 1.257 1_565 S
H288 C261 0.930 . S
H289 C262 0.931 1_655 S
H290 C264 0.931 1_655 S
H291 C265 0.931 . S
H292 C270 0.930 . S
H293 C271 0.931 1_455 S
H294 C273 0.931 1_455 S
H295 C274 0.931 . S
Gd296 C299 2.818 . S
Gd296 O316 2.377 . S
Gd296 O318 2.448 . S
Gd296 O319 2.506 . S
Gd296 O320 2.435 . S
Gd296 O321 2.717 . S
Gd296 O323 2.395 . S
Gd296 O327 2.327 1_545 S
Gd297 C308 2.818 . S
Gd297 O317 2.395 . S
Gd297 O321 2.327 1_565 S
Gd297 O322 2.377 . S
Gd297 O324 2.448 . S
Gd297 O325 2.506 . S
Gd297 O326 2.435 . S
Gd297 O327 2.717 . S
C298 O316 1.240 1_565 S
C298 O317 1.240 . S
C299 Gd296 2.818 . S
C299 C300 1.510 . S
C299 O318 1.249 . S
C299 O319 1.252 . S
C300 C299 1.510 . S
C300 C301 1.404 . S
C300 C302 1.352 . S
C301 C300 1.404 . S
C301 C305 1.389 . S
C301 H328 0.930 . S
C302 C300 1.352 . S
C302 C304 1.374 . S
C302 H329 0.931 1_545 S
C303 C304 1.359 . S
C303 C305 1.364 . S
C304 C302 1.374 . S
C304 C303 1.359 . S
C304 H330 0.931 1_545 S
C305 C301 1.389 . S
C305 C303 1.364 . S
C305 H331 0.931 . S
C306 O320 1.256 . S
C306 O321 1.257 . S
C307 O322 1.240 1_545 S
C307 O323 1.240 . S
C308 Gd297 2.818 . S
C308 C309 1.510 . S
C308 O324 1.249 . S
C308 O325 1.252 . S
C309 C308 1.510 . S
C309 C310 1.404 . S
C309 C311 1.352 . S
C310 C309 1.404 . S
C310 C314 1.389 . S
C310 H332 0.930 . S
C311 C309 1.352 . S
C311 C313 1.374 . S
C311 H333 0.931 1_565 S
C312 C313 1.359 . S
C312 C314 1.364 . S
C313 C311 1.374 . S
C313 C312 1.359 . S
C313 H334 0.931 1_565 S
C314 C310 1.389 . S
C314 C312 1.364 . S
C314 H335 0.931 . S
C315 O326 1.256 . S
C315 O327 1.257 . S
O316 Gd296 2.377 . S
O316 C298 1.240 1_545 S
O317 Gd297 2.395 . S
O317 C298 1.240 . S
O318 Gd296 2.448 . S
O318 C299 1.249 . S
O319 Gd296 2.506 . S
O319 C299 1.252 . S
O320 Gd296 2.435 . S
O320 C306 1.256 . S
O321 Gd296 2.717 . S
O321 Gd297 2.327 1_545 S
O321 C306 1.257 . S
O322 Gd297 2.377 . S
O322 C307 1.240 1_565 S
O323 Gd296 2.395 . S
O323 C307 1.240 . S
O324 Gd297 2.448 . S
O324 C308 1.249 . S
O325 Gd297 2.506 . S
O325 C308 1.252 . S
O326 Gd297 2.435 . S
O326 C315 1.256 . S
O327 Gd296 2.327 1_565 S
O327 Gd297 2.717 . S
O327 C315 1.257 . S
H328 C301 0.930 . S
H329 C302 0.931 1_565 S
H330 C304 0.931 1_565 S
H331 C305 0.931 . S
H332 C310 0.930 . S
H333 C311 0.931 1_545 S
H334 C313 0.931 1_545 S
H335 C314 0.931 . S
Gd336 C339 2.818 . S
Gd336 O356 2.377 . S
Gd336 O358 2.448 . S
Gd336 O359 2.506 . S
Gd336 O360 2.435 . S
Gd336 O361 2.717 . S
Gd336 O363 2.395 . S
Gd336 O367 2.327 . S
Gd337 C348 2.818 . S
Gd337 O357 2.395 . S
Gd337 O361 2.327 . S
Gd337 O362 2.377 . S
Gd337 O364 2.448 . S
Gd337 O365 2.506 . S
Gd337 O366 2.435 . S
Gd337 O367 2.717 . S
C338 O356 1.240 . S
C338 O357 1.240 . S
C339 Gd336 2.818 . S
C339 C340 1.510 . S
C339 O358 1.249 . S
C339 O359 1.252 . S
C340 C339 1.510 . S
C340 C341 1.404 . S
C340 C342 1.352 . S
C341 C340 1.404 . S
C341 C345 1.389 . S
C341 H368 0.930 . S
C342 C340 1.352 . S
C342 C344 1.374 . S
C342 H369 0.931 . S
C343 C344 1.359 . S
C343 C345 1.364 . S
C344 C342 1.374 . S
C344 C343 1.359 . S
C344 H370 0.931 . S
C345 C341 1.389 . S
C345 C343 1.364 . S
C345 H371 0.931 . S
C346 O360 1.256 . S
C346 O361 1.257 . S
C347 O362 1.240 . S
C347 O363 1.240 . S
C348 Gd337 2.818 . S
C348 C349 1.510 . S
C348 O364 1.249 . S
C348 O365 1.252 . S
C349 C348 1.510 . S
C349 C350 1.404 . S
C349 C351 1.352 . S
C350 C349 1.404 . S
C350 C354 1.389 . S
C350 H372 0.930 . S
C351 C349 1.352 . S
C351 C353 1.374 . S
C351 H373 0.931 . S
C352 C353 1.359 . S
C352 C354 1.364 . S
C353 C351 1.374 . S
C353 C352 1.359 . S
C353 H374 0.931 . S
C354 C350 1.389 . S
C354 C352 1.364 . S
C354 H375 0.931 . S
C355 O366 1.256 . S
C355 O367 1.257 . S
O356 Gd336 2.377 . S
O356 C338 1.240 . S
O357 Gd337 2.395 . S
O357 C338 1.240 . S
O358 Gd336 2.448 . S
O358 C339 1.249 . S
O359 Gd336 2.506 . S
O359 C339 1.252 . S
O360 Gd336 2.435 . S
O360 C346 1.256 . S
O361 Gd336 2.717 . S
O361 Gd337 2.327 . S
O361 C346 1.257 . S
O362 Gd337 2.377 . S
O362 C347 1.240 . S
O363 Gd336 2.395 . S
O363 C347 1.240 . S
O364 Gd337 2.448 . S
O364 C348 1.249 . S
O365 Gd337 2.506 . S
O365 C348 1.252 . S
O366 Gd337 2.435 . S
O366 C355 1.256 . S
O367 Gd336 2.327 . S
O367 Gd337 2.717 . S
O367 C355 1.257 . S
H368 C341 0.930 . S
H369 C342 0.931 . S
H370 C344 0.931 . S
H371 C345 0.931 . S
H372 C350 0.930 . S
H373 C351 0.931 . S
H374 C353 0.931 . S
H375 C354 0.931 . S
Gd376 C379 2.818 . S
Gd376 O396 2.377 . S
Gd376 O398 2.448 . S
Gd376 O399 2.506 . S
Gd376 O400 2.435 . S
Gd376 O401 2.717 1_655 S
Gd376 O403 2.395 1_655 S
Gd376 O407 2.327 . S
Gd377 C388 2.818 . S
Gd377 O397 2.395 1_455 S
Gd377 O401 2.327 . S
Gd377 O402 2.377 . S
Gd377 O404 2.448 . S
Gd377 O405 2.506 . S
Gd377 O406 2.435 . S
Gd377 O407 2.717 1_455 S
C378 O396 1.240 . S
C378 O397 1.240 . S
C379 Gd376 2.818 . S
C379 C380 1.510 . S
C379 O398 1.249 . S
C379 O399 1.252 . S
C380 C379 1.510 . S
C380 C381 1.404 . S
C380 C382 1.352 . S
C381 C380 1.404 . S
C381 C385 1.389 . S
C381 H408 0.930 . S
C382 C380 1.352 . S
C382 C384 1.374 . S
C382 H409 0.931 . S
C383 C384 1.359 . S
C383 C385 1.364 . S
C384 C382 1.374 . S
C384 C383 1.359 . S
C384 H410 0.931 . S
C385 C381 1.389 . S
C385 C383 1.364 . S
C385 H411 0.931 . S
C386 O400 1.276 . S
C386 O401 1.247 1_655 S
C387 O402 1.240 . S
C387 O403 1.240 . S
C388 Gd377 2.818 . S
C388 C389 1.510 . S
C388 O404 1.249 . S
C388 O405 1.252 . S
C389 C388 1.510 . S
C389 C390 1.404 . S
C389 C391 1.352 . S
C390 C389 1.404 . S
C390 C394 1.389 . S
C390 H412 0.930 . S
C391 C389 1.352 . S
C391 C393 1.374 . S
C391 H413 0.931 . S
C392 C393 1.359 . S
C392 C394 1.364 . S
C393 C391 1.374 . S
C393 C392 1.359 . S
C393 H414 0.931 . S
C394 C390 1.389 . S
C394 C392 1.364 . S
C394 H415 0.931 . S
C395 O406 1.256 . S
C395 O407 1.257 1_455 S
O396 Gd376 2.377 . S
O396 C378 1.240 . S
O397 Gd377 2.395 1_655 S
O397 C378 1.240 . S
O398 Gd376 2.448 . S
O398 C379 1.249 . S
O399 Gd376 2.506 . S
O399 C379 1.252 . S
O400 Gd376 2.435 . S
O400 C386 1.276 . S
O401 Gd376 2.717 1_455 S
O401 Gd377 2.327 . S
O401 C386 1.247 1_455 S
O402 Gd377 2.377 . S
O402 C387 1.240 . S
O403 Gd376 2.395 1_455 S
O403 C387 1.240 . S
O404 Gd377 2.448 . S
O404 C388 1.249 . S
O405 Gd377 2.506 . S
O405 C388 1.252 . S
O406 Gd377 2.435 . S
O406 C395 1.256 . S
O407 Gd376 2.327 . S
O407 Gd377 2.717 1_655 S
O407 C395 1.257 1_655 S
H408 C381 0.930 . S
H409 C382 0.931 . S
H410 C384 0.931 . S
H411 C385 0.931 . S
H412 C390 0.930 . S
H413 C391 0.931 . S
H414 C393 0.931 . S
H415 C394 0.931 . S
H416 C422 0.930 . S
H417 C426 0.930 . S
H418 C431 0.929 . S
H419 C429 0.929 . S
H420 C424 0.929 . S
H421 C430 0.929 . S
C422 H416 0.930 . S
C422 C423 1.367 . S
C422 C430 1.378 . S
C423 C422 1.367 . S
C423 C431 1.433 1_545 S
C424 H420 0.929 . S
C424 C426 1.378 . S
C424 C428 1.350 1_565 S
C425 C428 1.463 . S
C425 C430 1.350 . S
C425 N433 1.427 1_545 S
C426 H417 0.930 . S
C426 C424 1.378 . S
C426 C427 1.367 1_565 S
C427 C426 1.367 1_545 S
C427 C429 1.433 . S
C428 C424 1.350 1_545 S
C428 C425 1.463 . S
C428 N432 1.427 . S
C429 H419 0.929 . S
C429 C427 1.433 . S
C429 N432 1.384 . S
C430 H421 0.929 . S
C430 C422 1.378 . S
C430 C425 1.350 . S
C431 H418 0.929 . S
C431 C423 1.433 1_565 S
C431 N433 1.384 . S
N432 C428 1.427 . S
N432 C429 1.384 . S
N433 C425 1.427 1_565 S
N433 C431 1.384 . S
H434 C440 0.930 . S
H435 C444 0.930 . S
H436 C449 0.929 . S
H437 C447 0.929 . S
H438 C442 0.929 . S
H439 C448 0.929 . S
C440 H434 0.930 . S
C440 C441 1.367 . S
C440 C448 1.378 . S
C441 C440 1.367 . S
C441 C449 1.433 . S
C442 H438 0.929 . S
C442 C444 1.378 . S
C442 C446 1.350 . S
C443 C446 1.463 . S
C443 C448 1.350 . S
C443 N451 1.427 . S
C444 H435 0.930 . S
C444 C442 1.378 . S
C444 C445 1.367 . S
C445 C444 1.367 . S
C445 C447 1.433 . S
C446 C442 1.350 . S
C446 C443 1.463 . S
C446 N450 1.427 . S
C447 H437 0.929 . S
C447 C445 1.433 . S
C447 N450 1.384 . S
C448 H439 0.929 . S
C448 C440 1.378 . S
C448 C443 1.350 . S
C449 H436 0.929 . S
C449 C441 1.433 . S
C449 N451 1.384 . S
N450 C446 1.427 . S
N450 C447 1.384 . S
N451 C443 1.427 . S
N451 C449 1.384 . S
H452 C458 0.930 . S
H453 C462 0.930 . S
H454 C467 0.929 . S
H455 C465 0.929 . S
H456 C460 0.929 . S
H457 C466 0.929 . S
C458 H452 0.930 . S
C458 C459 1.367 . S
C458 C466 1.378 . S
C459 C458 1.367 . S
C459 C467 1.433 . S
C460 H456 0.929 . S
C460 C462 1.378 . S
C460 C464 1.350 . S
C461 C464 1.463 . S
C461 C466 1.350 . S
C461 N469 1.427 . S
C462 H453 0.930 . S
C462 C460 1.378 . S
C462 C463 1.367 . S
C463 C462 1.367 . S
C463 C465 1.433 . S
C464 C460 1.350 . S
C464 C461 1.463 . S
C464 N468 1.427 . S
C465 H455 0.929 . S
C465 C463 1.433 . S
C465 N468 1.384 . S
C466 H457 0.929 . S
C466 C458 1.378 . S
C466 C461 1.350 . S
C467 H454 0.929 . S
C467 C459 1.433 . S
C467 N469 1.384 . S
N468 C464 1.427 . S
N468 C465 1.384 . S
N469 C461 1.427 . S
N469 C467 1.384 . S
H470 C476 0.930 . S
H471 C480 0.930 . S
H472 C485 0.929 . S
H473 C483 0.929 . S
H474 C478 0.929 . S
H475 C484 0.929 . S
C476 H470 0.930 . S
C476 C477 1.367 1_655 S
C476 C484 1.378 . S
C477 C476 1.367 1_455 S
C477 C485 1.433 . S
C478 H474 0.929 . S
C478 C480 1.378 . S
C478 C482 1.350 . S
C479 C482 1.463 . S
C479 C484 1.350 1_455 S
C479 N487 1.427 . S
C480 H471 0.930 . S
C480 C478 1.378 . S
C480 C481 1.367 . S
C481 C480 1.367 . S
C481 C483 1.433 1_455 S
C482 C478 1.350 . S
C482 C479 1.463 . S
C482 N486 1.427 1_455 S
C483 H473 0.929 . S
C483 C481 1.433 1_655 S
C483 N486 1.384 . S
C484 H475 0.929 . S
C484 C476 1.378 . S
C484 C479 1.350 1_655 S
C485 H472 0.929 . S
C485 C477 1.433 . S
C485 N487 1.384 . S
N486 C482 1.427 1_655 S
N486 C483 1.384 . S
N487 C479 1.427 . S
N487 C485 1.384 . S
H488 C494 0.930 . S
H489 C498 0.930 . S
H490 C503 0.929 . S
H491 C501 0.929 . S
H492 C496 0.929 . S
H493 C502 0.929 . S
C494 H488 0.930 . S
C494 C495 1.367 1_545 S
C494 C502 1.378 . S
C495 C494 1.367 1_565 S
C495 C503 1.433 . S
C496 H492 0.929 . S
C496 C498 1.378 . S
C496 C500 1.350 1_556 S
C497 C500 1.463 . S
C497 C502 1.350 1_565 S
C497 N505 1.427 . S
C498 H489 0.930 . S
C498 C496 1.378 . S
C498 C499 1.367 . S
C499 C498 1.367 . S
C499 C501 1.433 1_565 S
C500 C496 1.350 1_554 S
C500 C497 1.463 . S
C500 N504 1.427 1_565 S
C501 H491 0.929 . S
C501 C499 1.433 1_545 S
C501 N504 1.384 1_556 S
C502 H493 0.929 . S
C502 C494 1.378 . S
C502 C497 1.350 1_545 S
C503 H490 0.929 . S
C503 C495 1.433 . S
C503 N505 1.384 . S
N504 C500 1.427 1_545 S
N504 C501 1.384 1_554 S
N505 C497 1.427 . S
N505 C503 1.384 . S
H506 C512 0.930 . S
H507 C516 0.930 . S
H508 C521 0.929 . S
H509 C519 0.929 . S
H510 C514 0.929 . S
H511 C520 0.929 . S
C512 H506 0.930 . S
C512 C513 1.367 . S
C512 C520 1.378 . S
C513 C512 1.367 . S
C513 C521 1.433 . S
C514 H510 0.929 . S
C514 C516 1.378 . S
C514 C518 1.350 1_556 S
C515 C518 1.463 . S
C515 C520 1.350 . S
C515 N523 1.427 . S
C516 H507 0.930 . S
C516 C514 1.378 . S
C516 C517 1.367 . S
C517 C516 1.367 . S
C517 C519 1.433 . S
C518 C514 1.350 1_554 S
C518 C515 1.463 . S
C518 N522 1.427 1_554 S
C519 H509 0.929 . S
C519 C517 1.433 . S
C519 N522 1.384 . S
C520 H511 0.929 . S
C520 C512 1.378 . S
C520 C515 1.350 . S
C521 H508 0.929 . S
C521 C513 1.433 . S
C521 N523 1.384 . S
N522 C518 1.427 1_556 S
N522 C519 1.384 . S
N523 C515 1.427 . S
N523 C521 1.384 . S
H524 C530 0.930 . S
H525 C534 0.930 . S
H526 C539 0.929 . S
H527 C537 0.929 . S
H528 C532 0.929 . S
H529 C538 0.929 . S
C530 H524 0.930 . S
C530 C531 1.367 . S
C530 C538 1.378 . S
C531 C530 1.367 . S
C531 C539 1.433 . S
C532 H528 0.929 . S
C532 C534 1.378 1_554 S
C532 C536 1.350 . S
C533 C536 1.463 . S
C533 C538 1.350 . S
C533 N541 1.427 . S
C534 H525 0.930 . S
C534 C532 1.378 1_556 S
C534 C535 1.367 . S
C535 C534 1.367 . S
C535 C537 1.433 . S
C536 C532 1.350 . S
C536 C533 1.463 . S
C536 N540 1.427 1_554 S
C537 H527 0.929 . S
C537 C535 1.433 . S
C537 N540 1.384 . S
C538 H529 0.929 . S
C538 C530 1.378 . S
C538 C533 1.350 . S
C539 H526 0.929 . S
C539 C531 1.433 . S
C539 N541 1.384 . S
N540 C536 1.427 1_556 S
N540 C537 1.384 . S
N541 C533 1.427 . S
N541 C539 1.384 . S
H542 C548 0.930 . S
H543 C552 0.930 . S
H544 C557 0.929 . S
H545 C555 0.929 . S
H546 C550 0.929 . S
H547 C556 0.929 . S
C548 H542 0.930 . S
C548 C549 1.367 . S
C548 C556 1.378 . S
C549 C548 1.367 . S
C549 C557 1.433 1_655 S
C550 H546 0.929 . S
C550 C552 1.378 1_554 S
C550 C554 1.350 1_455 S
C551 C554 1.463 . S
C551 C556 1.350 . S
C551 N559 1.427 1_655 S
C552 H543 0.930 . S
C552 C550 1.378 1_556 S
C552 C553 1.367 1_455 S
C553 C552 1.367 1_655 S
C553 C555 1.433 . S
C554 C550 1.350 1_655 S
C554 C551 1.463 . S
C554 N558 1.427 1_554 S
C555 H545 0.929 . S
C555 C553 1.433 . S
C555 N558 1.384 . S
C556 H547 0.929 . S
C556 C548 1.378 . S
C556 C551 1.350 . S
C557 H544 0.929 . S
C557 C549 1.433 1_455 S
C557 N559 1.384 . S
N558 C554 1.427 1_556 S
N558 C555 1.384 . S
N559 C551 1.427 1_455 S
N559 C557 1.384 . S
H560 C566 0.930 . S
H561 C570 0.930 . S
H562 C575 0.929 . S
H563 C573 0.929 . S
H564 C568 0.946 . S
H565 C574 0.929 . S
C566 H560 0.930 . S
C566 C567 1.367 1_655 S
C566 C574 1.378 . S
C567 C566 1.367 1_455 S
C567 C575 1.433 . S
C568 H564 0.946 . S
C568 C570 1.378 . S
C568 C572 1.350 . S
C569 C572 1.463 . S
C569 C574 1.350 . S
C569 N577 1.427 1_655 S
C570 H561 0.930 . S
C570 C568 1.378 . S
C570 C571 1.367 . S
C571 C570 1.367 . S
C571 C573 1.433 . S
C572 C568 1.350 . S
C572 C569 1.463 . S
C572 N576 1.427 . S
C573 H563 0.929 . S
C573 C571 1.433 . S
C573 N576 1.384 . S
C574 H565 0.929 . S
C574 C566 1.378 . S
C574 C569 1.350 . S
C575 H562 0.929 . S
C575 C567 1.433 . S
C575 N577 1.384 . S
N576 C572 1.427 . S
N576 C573 1.384 . S
N577 C569 1.427 1_455 S
N577 C575 1.384 . S
H578 C584 0.930 . S
H579 C588 0.930 . S
H580 C593 0.929 . S
H581 C591 0.929 . S
H582 C586 0.929 . S
H583 C592 0.929 . S
C584 H578 0.930 . S
C584 C585 1.367 . S
C584 C592 1.378 . S
C585 C584 1.367 . S
C585 C593 1.433 1_545 S
C586 H582 0.929 . S
C586 C588 1.378 . S
C586 C590 1.350 . S
C587 C590 1.463 . S
C587 C592 1.350 1_565 S
C587 N595 1.427 . S
C588 H579 0.930 . S
C588 C586 1.378 . S
C588 C589 1.367 . S
C589 C588 1.367 . S
C589 C591 1.433 . S
C590 C586 1.350 . S
C590 C587 1.463 . S
C590 N594 1.427 . S
C591 H581 0.929 . S
C591 C589 1.433 . S
C591 N594 1.384 . S
C592 H583 0.929 . S
C592 C584 1.378 . S
C592 C587 1.350 1_545 S
C593 H580 0.929 . S
C593 C585 1.433 1_565 S
C593 N595 1.384 . S
N594 C590 1.427 . S
N594 C591 1.384 . S
N595 C587 1.427 . S
N595 C593 1.384 . S
H596 C602 0.930 . S
H597 C606 0.930 . S
H598 C611 0.929 . S
H599 C609 0.929 . S
H600 C604 0.929 . S
H601 C610 0.929 . S
C602 H596 0.930 . S
C602 C603 1.367 . S
C602 C610 1.378 . S
C603 C602 1.367 . S
C603 C611 1.433 . S
C604 H600 0.929 . S
C604 C606 1.378 . S
C604 C608 1.350 . S
C605 C608 1.463 . S
C605 C610 1.350 . S
C605 N613 1.427 . S
C606 H597 0.930 . S
C606 C604 1.378 . S
C606 C607 1.367 . S
C607 C606 1.367 . S
C607 C609 1.433 . S
C608 C604 1.350 . S
C608 C605 1.463 . S
C608 N612 1.427 . S
C609 H599 0.929 . S
C609 C607 1.433 . S
C609 N612 1.384 . S
C610 H601 0.929 . S
C610 C602 1.378 . S
C610 C605 1.350 . S
C611 H598 0.929 . S
C611 C603 1.433 . S
C611 N613 1.384 . S
N612 C608 1.427 . S
N612 C609 1.384 . S
N613 C605 1.427 . S
N613 C611 1.384 . S
H614 C620 0.930 . S
H615 C624 0.930 . S
H616 C629 0.929 . S
H617 C627 0.929 . S
H618 C622 0.929 . S
H619 C628 0.929 . S
C620 H614 0.930 . S
C620 C621 1.367 . S
C620 C628 1.378 . S
C621 C620 1.367 . S
C621 C629 1.433 . S
C622 H618 0.929 . S
C622 C624 1.378 . S
C622 C626 1.350 . S
C623 C626 1.463 . S
C623 C628 1.350 . S
C623 N631 1.427 . S
C624 H615 0.930 . S
C624 C622 1.378 . S
C624 C625 1.367 . S
C625 C624 1.367 . S
C625 C627 1.433 . S
C626 C622 1.350 . S
C626 C623 1.463 . S
C626 N630 1.427 . S
C627 H617 0.929 . S
C627 C625 1.433 . S
C627 N630 1.384 . S
C628 H619 0.929 . S
C628 C620 1.378 . S
C628 C623 1.350 . S
C629 H616 0.929 . S
C629 C621 1.433 . S
C629 N631 1.384 . S
N630 C626 1.427 . S
N630 C627 1.384 . S
N631 C623 1.427 . S
N631 C629 1.384 . S
H632 C638 0.930 . S
H633 C642 0.930 . S
H634 C647 0.929 . S
H635 C645 0.929 . S
H636 C640 0.929 . S
H637 C646 0.929 . S
C638 H632 0.930 . S
C638 C639 1.367 1_455 S
C638 C646 1.378 . S
C639 C638 1.367 1_655 S
C639 C647 1.433 . S
C640 H636 0.929 . S
C640 C642 1.378 . S
C640 C644 1.350 1_556 S
C641 C644 1.463 . S
C641 C646 1.350 . S
C641 N649 1.429 . S
C642 H633 0.930 . S
C642 C640 1.378 . S
C642 C643 1.367 . S
C643 C642 1.367 . S
C643 C645 1.433 1_556 S
C644 C640 1.350 1_554 S
C644 C641 1.463 . S
C644 N648 1.427 . S
C645 H635 0.929 . S
C645 C643 1.433 1_554 S
C645 N648 1.384 . S
C646 H637 0.929 . S
C646 C638 1.378 . S
C646 C641 1.350 . S
C647 H634 0.929 . S
C647 C639 1.433 . S
C647 N649 1.382 1_655 S
N648 C644 1.427 . S
N648 C645 1.384 . S
N649 C641 1.429 . S
N649 C647 1.382 1_455 S
H650 C656 0.930 . S
H651 C660 0.930 . S
H652 C665 0.929 . S
H653 C663 0.929 . S
H654 C658 0.929 . S
H655 C664 0.929 . S
C656 H650 0.930 . S
C656 C657 1.367 . S
C656 C664 1.378 . S
C657 C656 1.367 . S
C657 C665 1.433 1_565 S
C658 H654 0.929 . S
C658 C660 1.378 . S
C658 C662 1.350 . S
C659 C662 1.463 . S
C659 C664 1.350 1_545 S
C659 N667 1.427 . S
C660 H651 0.930 . S
C660 C658 1.378 . S
C660 C661 1.367 1_554 S
C661 C660 1.367 1_556 S
C661 C663 1.433 . S
C662 C658 1.350 . S
C662 C659 1.463 . S
C662 N666 1.427 . S
C663 H653 0.929 . S
C663 C661 1.433 . S
C663 N666 1.384 1_556 S
C664 H655 0.929 . S
C664 C656 1.378 . S
C664 C659 1.350 1_565 S
C665 H652 0.929 . S
C665 C657 1.433 1_545 S
C665 N667 1.384 . S
N666 C662 1.427 . S
N666 C663 1.384 1_554 S
N667 C659 1.427 . S
N667 C665 1.384 . S
H668 C674 0.930 . S
H669 C678 0.930 . S
H670 C683 0.929 . S
H671 C681 0.929 . S
H672 C676 0.929 . S
H673 C682 0.929 . S
C674 H668 0.930 . S
C674 C675 1.367 . S
C674 C682 1.378 . S
C675 C674 1.367 . S
C675 C683 1.433 . S
C676 H672 0.929 . S
C676 C678 1.378 . S
C676 C680 1.350 1_556 S
C677 C680 1.463 . S
C677 C682 1.350 . S
C677 N685 1.427 . S
C678 H669 0.930 . S
C678 C676 1.378 . S
C678 C679 1.367 . S
C679 C678 1.367 . S
C679 C681 1.433 1_556 S
C680 C676 1.350 1_554 S
C680 C677 1.463 . S
C680 N684 1.427 . S
C681 H671 0.929 . S
C681 C679 1.433 1_554 S
C681 N684 1.384 . S
C682 H673 0.929 . S
C682 C674 1.378 . S
C682 C677 1.350 . S
C683 H670 0.929 . S
C683 C675 1.433 . S
C683 N685 1.384 . S
N684 C680 1.427 . S
N684 C681 1.384 . S
N685 C677 1.427 . S
N685 C683 1.384 . S
H686 C692 0.930 . S
H687 C696 0.930 . S
H688 C701 0.929 . S
H689 C699 0.929 . S
H690 C694 0.928 1_556 S
H691 C700 0.929 . S
C692 H686 0.930 . S
C692 C693 1.367 . S
C692 C700 1.378 . S
C693 C692 1.367 . S
C693 C701 1.433 . S
C694 H690 0.928 1_554 S
C694 C696 1.378 1_554 S
C694 C698 1.350 . S
C695 C698 1.463 . S
C695 C700 1.350 . S
C695 N703 1.427 . S
C696 H687 0.930 . S
C696 C694 1.378 1_556 S
C696 C697 1.367 . S
C697 C696 1.367 . S
C697 C699 1.433 1_556 S
C698 C694 1.350 . S
C698 C695 1.463 . S
C698 N702 1.427 . S
C699 H689 0.929 . S
C699 C697 1.433 1_554 S
C699 N702 1.384 . S
C700 H691 0.929 . S
C700 C692 1.378 . S
C700 C695 1.350 . S
C701 H688 0.929 . S
C701 C693 1.433 . S
C701 N703 1.384 . S
N702 C698 1.427 . S
N702 C699 1.384 . S
N703 C695 1.427 . S
N703 C701 1.384 . S
H704 C710 0.930 . S
H705 C714 0.930 . S
H706 C719 0.929 . S
H707 C717 0.929 . S
H708 C712 0.929 . S
H709 C718 0.929 . S
C710 H704 0.930 . S
C710 C711 1.367 . S
C710 C718 1.378 . S
C711 C710 1.367 . S
C711 C719 1.433 1_455 S
C712 H708 0.929 . S
C712 C714 1.378 . S
C712 C716 1.350 1_655 S
C713 C716 1.463 . S
C713 C718 1.350 . S
C713 N721 1.427 1_455 S
C714 H705 0.930 . S
C714 C712 1.378 . S
C714 C715 1.367 1_655 S
C715 C714 1.367 1_455 S
C715 C717 1.433 . S
C716 C712 1.350 1_455 S
C716 C713 1.463 . S
C716 N720 1.427 . S
C717 H707 0.929 . S
C717 C715 1.433 . S
C717 N720 1.384 . S
C718 H709 0.929 . S
C718 C710 1.378 . S
C718 C713 1.350 . S
C719 H706 0.929 . S
C719 C711 1.433 1_655 S
C719 N721 1.384 . S
N720 C716 1.427 . S
N720 C717 1.384 . S
N721 C713 1.427 1_655 S
N721 C719 1.384 . S
H722 C728 0.930 . S
H723 C732 0.930 . S
H724 C737 0.929 . S
H725 C735 0.929 . S
H726 C730 0.929 . S
H727 C736 0.929 . S
C728 H722 0.930 . S
C728 C729 1.367 . S
C728 C736 1.378 . S
C729 C728 1.367 . S
C729 C737 1.433 1_545 S
C730 H726 0.929 . S
C730 C732 1.378 . S
C730 C734 1.350 1_565 S
C731 C734 1.463 . S
C731 C736 1.350 . S
C731 N739 1.427 1_545 S
C732 H723 0.930 . S
C732 C730 1.378 . S
C732 C733 1.367 1_565 S
C733 C732 1.367 1_545 S
C733 C735 1.433 . S
C734 C730 1.350 1_545 S
C734 C731 1.463 . S
C734 N738 1.427 . S
C735 H725 0.929 . S
C735 C733 1.433 . S
C735 N738 1.384 . S
C736 H727 0.929 . S
C736 C728 1.378 . S
C736 C731 1.350 . S
C737 H724 0.929 . S
C737 C729 1.433 1_565 S
C737 N739 1.384 . S
N738 C734 1.427 . S
N738 C735 1.384 . S
N739 C731 1.427 1_565 S
N739 C737 1.384 . S
H740 C746 0.930 . S
H741 C750 0.930 . S
H742 C755 0.929 . S
H743 C753 0.929 . S
H744 C748 0.929 . S
H745 C754 0.929 . S
C746 H740 0.930 . S
C746 C747 1.367 . S
C746 C754 1.378 . S
C747 C746 1.367 . S
C747 C755 1.433 . S
C748 H744 0.929 . S
C748 C750 1.378 . S
C748 C752 1.350 . S
C749 C752 1.463 . S
C749 C754 1.350 . S
C749 N757 1.427 . S
C750 H741 0.930 . S
C750 C748 1.378 . S
C750 C751 1.367 . S
C751 C750 1.367 . S
C751 C753 1.433 . S
C752 C748 1.350 . S
C752 C749 1.463 . S
C752 N756 1.427 . S
C753 H743 0.929 . S
C753 C751 1.433 . S
C753 N756 1.384 . S
C754 H745 0.929 . S
C754 C746 1.378 . S
C754 C749 1.350 . S
C755 H742 0.929 . S
C755 C747 1.433 . S
C755 N757 1.384 . S
N756 C752 1.427 . S
N756 C753 1.384 . S
N757 C749 1.427 . S
N757 C755 1.384 . S
H758 C764 0.930 . S
H759 C768 0.930 . S
H760 C773 0.929 . S
H761 C771 0.929 . S
H762 C766 0.929 . S
H763 C772 0.929 . S
C764 H758 0.930 . S
C764 C765 1.367 . S
C764 C772 1.378 . S
C765 C764 1.367 . S
C765 C773 1.433 . S
C766 H762 0.929 . S
C766 C768 1.378 . S
C766 C770 1.350 . S
C767 C770 1.463 . S
C767 C772 1.350 . S
C767 N775 1.427 . S
C768 H759 0.930 . S
C768 C766 1.378 . S
C768 C769 1.367 . S
C769 C768 1.367 . S
C769 C771 1.433 . S
C770 C766 1.350 . S
C770 C767 1.463 . S
C770 N774 1.427 . S
C771 H761 0.929 . S
C771 C769 1.433 . S
C771 N774 1.384 . S
C772 H763 0.929 . S
C772 C764 1.378 . S
C772 C767 1.350 . S
C773 H760 0.929 . S
C773 C765 1.433 . S
C773 N775 1.384 . S
N774 C770 1.427 . S
N774 C771 1.384 . S
N775 C767 1.427 . S
N775 C773 1.384 . S
H776 C782 0.930 . S
H777 C786 0.930 . S
H778 C791 0.929 . S
H779 C789 0.929 . S
H780 C784 0.929 . S
H781 C790 0.929 . S
C782 H776 0.930 . S
C782 C783 1.367 . S
C782 C790 1.378 . S
C783 C782 1.367 . S
C783 C791 1.433 1_655 S
C784 H780 0.929 . S
C784 C786 1.378 . S
C784 C788 1.350 1_455 S
C785 C788 1.463 . S
C785 C790 1.350 . S
C785 N793 1.427 1_655 S
C786 H777 0.930 . S
C786 C784 1.378 . S
C786 C787 1.367 1_455 S
C787 C786 1.367 1_655 S
C787 C789 1.433 . S
C788 C784 1.350 1_655 S
C788 C785 1.463 . S
C788 N792 1.427 . S
C789 H779 0.929 . S
C789 C787 1.433 . S
C789 N792 1.384 . S
C790 H781 0.929 . S
C790 C782 1.378 . S
C790 C785 1.350 . S
C791 H778 0.929 . S
C791 C783 1.433 1_455 S
C791 N793 1.384 . S
N792 C788 1.427 . S
N792 C789 1.384 . S
N793 C785 1.427 1_455 S
N793 C791 1.384 . S
H794 C800 0.930 . S
H795 C804 0.930 . S
H796 C809 0.929 . S
H797 C807 0.929 . S
H798 C802 0.929 . S
H799 C808 0.925 1_545 S
C800 H794 0.930 . S
C800 C801 1.367 1_545 S
C800 C808 1.377 1_545 S
C801 C800 1.367 1_565 S
C801 C809 1.433 . S
C802 H798 0.929 . S
C802 C804 1.378 . S
C802 C806 1.350 . S
C803 C806 1.463 . S
C803 C808 1.354 . S
C803 N811 1.427 . S
C804 H795 0.930 . S
C804 C802 1.378 . S
C804 C805 1.367 . S
C805 C804 1.367 . S
C805 C807 1.433 . S
C806 C802 1.350 . S
C806 C803 1.463 . S
C806 N810 1.427 . S
C807 H797 0.929 . S
C807 C805 1.433 . S
C807 N810 1.384 . S
C808 H799 0.925 1_565 S
C808 C800 1.377 1_565 S
C808 C803 1.354 . S
C809 H796 0.929 . S
C809 C801 1.433 . S
C809 N811 1.384 . S
N810 C806 1.427 . S
N810 C807 1.384 . S
N811 C803 1.427 . S
N811 C809 1.384 . S
H812 C818 0.930 . S
H813 C822 0.930 . S
H814 C827 0.929 . S
H815 C825 0.929 . S
H816 C820 0.929 . S
H817 C826 0.929 . S
C818 H812 0.930 . S
C818 C819 1.367 . S
C818 C826 1.378 . S
C819 C818 1.367 . S
C819 C827 1.433 . S
C820 H816 0.929 . S
C820 C822 1.378 . S
C820 C824 1.350 . S
C821 C824 1.463 . S
C821 C826 1.350 . S
C821 N829 1.427 . S
C822 H813 0.930 . S
C822 C820 1.378 . S
C822 C823 1.367 . S
C823 C822 1.367 . S
C823 C825 1.433 . S
C824 C820 1.350 . S
C824 C821 1.463 . S
C824 N828 1.427 . S
C825 H815 0.929 . S
C825 C823 1.433 . S
C825 N828 1.384 . S
C826 H817 0.929 . S
C826 C818 1.378 . S
C826 C821 1.350 . S
C827 H814 0.929 . S
C827 C819 1.433 . S
C827 N829 1.384 . S
N828 C824 1.427 . S
N828 C825 1.384 . S
N829 C821 1.427 . S
N829 C827 1.384 . S
H830 C836 0.930 . S
H831 C840 0.930 . S
H832 C845 0.929 . S
H833 C843 0.929 . S
H834 C838 0.929 . S
H835 C844 0.929 . S
C836 H830 0.930 . S
C836 C837 1.367 . S
C836 C844 1.378 . S
C837 C836 1.367 . S
C837 C845 1.433 . S
C838 H834 0.929 . S
C838 C840 1.378 . S
C838 C842 1.350 . S
C839 C842 1.463 . S
C839 C844 1.350 . S
C839 N847 1.427 . S
C840 H831 0.930 . S
C840 C838 1.378 . S
C840 C841 1.367 . S
C841 C840 1.367 . S
C841 C843 1.433 . S
C842 C838 1.350 . S
C842 C839 1.463 . S
C842 N846 1.427 . S
C843 H833 0.929 . S
C843 C841 1.433 . S
C843 N846 1.384 . S
C844 H835 0.929 . S
C844 C836 1.378 . S
C844 C839 1.350 . S
C845 H832 0.929 . S
C845 C837 1.433 . S
C845 N847 1.384 . S
N846 C842 1.427 . S
N846 C843 1.384 . S
N847 C839 1.427 . S
N847 C845 1.384 . S
C423 C215 2.022 . S
C427 C266 2.179 1_545 S
C445 C306 2.181 . S
C441 C247 2.013 . S
C463 C346 2.183 . S
C459 C151 2.016 . S
C481 C386 2.182 1_455 S
C477 C183 2.029 . S
C499 C275 2.185 1_565 S
C495 C87 2.024 1_565 S
C513 C119 2.028 . S
C517 C315 2.182 . S
C531 C23 2.017 . S
C535 C355 2.181 . S
C549 C55 2.015 1_655 S
C553 C395 2.181 1_655 S
C571 C272 0.485 . S
C567 C189 0.436 . S
C589 C312 0.523 . S
C585 C221 0.424 . S
C607 C352 0.489 . S
C603 C253 0.436 . S
C621 C157 0.419 . S
C625 C392 0.499 . S
C639 C61 0.546 1_655 S
C643 C263 0.493 . S
C661 C303 0.521 . S
C657 C93 0.589 1_565 S
C679 C343 0.488 . S
C675 C125 0.541 . S
C693 C29 0.536 . S
C697 C383 0.479 . S
C711 C177 2.477 . S
C715 C267 2.805 . S
C729 C209 2.478 . S
C733 C307 2.804 . S
C751 C347 2.806 . S
C747 C241 2.486 . S
C769 C387 2.806 . S
C765 C145 2.483 . S
C783 C49 2.506 1_655 S
C787 C258 2.804 . S
C805 C298 2.809 . S
C801 C81 2.515 1_565 S
C823 C338 2.807 . S
C819 C113 2.502 . S
C837 C17 2.500 . S
C841 C378 2.808 . S
