# Generated by pormake.
# Topology wbl, (4,4)-cn, num edge types: 1
# Building blocks:
#     Node 0, Type 0, BuildingBlock: MIFKUJ_clean_linker_1, # of connection points: 4
#     Node 1, Type 0, BuildingBlock: MIFKUJ_clean_linker_1, # of connection points: 4
#     Node 2, Type 0, BuildingBlock: MIFKUJ_clean_linker_1, # of connection points: 4
#     Node 3, Type 0, BuildingBlock: MIFKUJ_clean_linker_1, # of connection points: 4
#     Node 4, Type 0, BuildingBlock: MIFKUJ_clean_linker_1, # of connection points: 4
#     Node 5, Type 0, BuildingBlock: MIFKUJ_clean_linker_1, # of connection points: 4
#     Node 6, Type 0, BuildingBlock: MIFKUJ_clean_linker_1, # of connection points: 4
#     Node 7, Type 0, BuildingBlock: MIFKUJ_clean_linker_1, # of connection points: 4
#     Node 8, Type 1, BuildingBlock: QUQFOY_clean_sbu_1, # of connection points: 4
#     Node 9, Type 1, BuildingBlock: QUQFOY_clean_sbu_1, # of connection points: 4
#     Node 10, Type 1, BuildingBlock: QUQFOY_clean_sbu_1, # of connection points: 4
#     Node 11, Type 1, BuildingBlock: QUQFOY_clean_sbu_1, # of connection points: 4
#     Node 12, Type 1, BuildingBlock: QUQFOY_clean_sbu_1, # of connection points: 4
#     Node 13, Type 1, BuildingBlock: QUQFOY_clean_sbu_1, # of connection points: 4
#     Node 14, Type 1, BuildingBlock: QUQFOY_clean_sbu_1, # of connection points: 4
#     Node 15, Type 1, BuildingBlock: QUQFOY_clean_sbu_1, # of connection points: 4
#     Edge 16, Type (0, 1), BuildingBlock: ZUJKAS_clean_linker_0, # of connection points: 2
#     Edge 17, Type (0, 1), BuildingBlock: ZUJKAS_clean_linker_0, # of connection points: 2
#     Edge 18, Type (0, 1), BuildingBlock: ZUJKAS_clean_linker_0, # of connection points: 2
#     Edge 19, Type (0, 1), BuildingBlock: ZUJKAS_clean_linker_0, # of connection points: 2
#     Edge 20, Type (0, 1), BuildingBlock: ZUJKAS_clean_linker_0, # of connection points: 2
#     Edge 21, Type (0, 1), BuildingBlock: ZUJKAS_clean_linker_0, # of connection points: 2
#     Edge 22, Type (0, 1), BuildingBlock: ZUJKAS_clean_linker_0, # of connection points: 2
#     Edge 23, Type (0, 1), BuildingBlock: ZUJKAS_clean_linker_0, # of connection points: 2
#     Edge 24, Type (0, 1), BuildingBlock: ZUJKAS_clean_linker_0, # of connection points: 2
#     Edge 25, Type (0, 1), BuildingBlock: ZUJKAS_clean_linker_0, # of connection points: 2
#     Edge 26, Type (0, 1), BuildingBlock: ZUJKAS_clean_linker_0, # of connection points: 2
#     Edge 27, Type (0, 1), BuildingBlock: ZUJKAS_clean_linker_0, # of connection points: 2
#     Edge 28, Type (0, 1), BuildingBlock: ZUJKAS_clean_linker_0, # of connection points: 2
#     Edge 29, Type (0, 1), BuildingBlock: ZUJKAS_clean_linker_0, # of connection points: 2
#     Edge 30, Type (0, 1), BuildingBlock: ZUJKAS_clean_linker_0, # of connection points: 2
#     Edge 31, Type (0, 1), BuildingBlock: ZUJKAS_clean_linker_0, # of connection points: 2
#     Edge 32, Type (0, 1), BuildingBlock: ZUJKAS_clean_linker_0, # of connection points: 2
#     Edge 33, Type (0, 1), BuildingBlock: ZUJKAS_clean_linker_0, # of connection points: 2
#     Edge 34, Type (0, 1), BuildingBlock: ZUJKAS_clean_linker_0, # of connection points: 2
#     Edge 35, Type (0, 1), BuildingBlock: ZUJKAS_clean_linker_0, # of connection points: 2
#     Edge 36, Type (0, 1), BuildingBlock: ZUJKAS_clean_linker_0, # of connection points: 2
#     Edge 37, Type (0, 1), BuildingBlock: ZUJKAS_clean_linker_0, # of connection points: 2
#     Edge 38, Type (0, 1), BuildingBlock: ZUJKAS_clean_linker_0, # of connection points: 2
#     Edge 39, Type (0, 1), BuildingBlock: ZUJKAS_clean_linker_0, # of connection points: 2
#     Edge 40, Type (0, 1), BuildingBlock: ZUJKAS_clean_linker_0, # of connection points: 2
#     Edge 41, Type (0, 1), BuildingBlock: ZUJKAS_clean_linker_0, # of connection points: 2
#     Edge 42, Type (0, 1), BuildingBlock: ZUJKAS_clean_linker_0, # of connection points: 2
#     Edge 43, Type (0, 1), BuildingBlock: ZUJKAS_clean_linker_0, # of connection points: 2
#     Edge 44, Type (0, 1), BuildingBlock: ZUJKAS_clean_linker_0, # of connection points: 2
#     Edge 45, Type (0, 1), BuildingBlock: ZUJKAS_clean_linker_0, # of connection points: 2
#     Edge 46, Type (0, 1), BuildingBlock: ZUJKAS_clean_linker_0, # of connection points: 2
#     Edge 47, Type (0, 1), BuildingBlock: ZUJKAS_clean_linker_0, # of connection points: 2
# Relax obj value: 0.175
# Max RMSD: 0.212
# Mean RMSD: 0.160
data_MOF--net-wbl--node1-QUQFOY_clean_sbu_1--node2-MIFKUJ_clean_linker_1--edge1-ZUJKAS_clean_linker_0
_symmetry_space_group_name_H-M    P1
_symmetry_Int_Tables_number       1
_symmetry_cell_setting            triclinic
loop_
_symmetry_equiv_pos_as_xyz
'x, y, z'
_cell_length_a     56.95588
_cell_length_b     56.950301
_cell_length_c     95.257358
_cell_angle_alpha  93.301289
_cell_angle_beta   93.258376
_cell_angle_gamma 90.283991
loop_
_atom_site_label
_atom_site_type_symbol
_atom_site_fract_x
_atom_site_fract_y
_atom_site_fract_z
_atom_type_partial_charge
H0 H 0.14758 0.1319 0.37874 0.0
H1 H 0.12388 0.15866 0.3929 0.0
H2 H 0.06089 0.12153 0.37647 0.0
H3 H 0.08486 0.09406 0.36296 0.0
H4 H 0.15274 0.08565 0.38063 0.0
H5 H 0.125 0.13578 0.34353 0.0
H6 H 0.09212 0.15592 0.3319 0.0
H7 H 0.05849 0.08872 0.32053 0.0
H8 H 0.09165 0.06878 0.33191 0.0
H9 H 0.14772 0.02109 0.33123 0.0
H10 H 0.17332 0.99456 0.31794 0.0
H11 H 0.23384 0.03594 0.3339 0.0
H12 H 0.20824 0.06237 0.34709 0.0
H13 H 0.14026 0.06806 0.32913 0.0
H14 H 0.16574 0.01744 0.3647 0.0
H15 H 0.18804 0.99591 0.3824 0.0
H16 H 0.22148 0.06077 0.39892 0.0
H17 H 0.19904 0.08223 0.38123 0.0
C18 C 0.11802 0.11109 0.36968 0.0
C19 C 0.12866 0.12956 0.37818 0.0
C20 C 0.11503 0.14501 0.38616 0.0
C21 C 0.09042 0.14235 0.38581 0.0
C22 C 0.07979 0.12398 0.37712 0.0
C23 C 0.09346 0.10841 0.36924 0.0
C24 C 0.13278 0.09407 0.36178 0.0
C25 C 0.1504 0.08218 0.36932 0.0
C26 C 0.12898 0.08878 0.34712 0.0
C27 C 0.1106 0.10082 0.33868 0.0
C28 C 0.11065 0.12543 0.33836 0.0
C29 C 0.09179 0.13689 0.33179 0.0
C30 C 0.07255 0.12395 0.3254 0.0
C31 C 0.07311 0.09923 0.3252 0.0
C32 C 0.09203 0.08778 0.33173 0.0
C33 C 0.17611 0.04359 0.34021 0.0
C34 C 0.16651 0.0244 0.33186 0.0
C35 C 0.18113 0.00923 0.32433 0.0
C36 C 0.20554 0.01326 0.32486 0.0
C37 C 0.21507 0.03255 0.33319 0.0
C38 C 0.2005 0.04753 0.34082 0.0
C39 C 0.16068 0.05999 0.34798 0.0
C40 C 0.14291 0.07175 0.34041 0.0
C41 C 0.16422 0.06502 0.36267 0.0
C42 C 0.1807 0.05147 0.37165 0.0
C43 C 0.17837 0.02693 0.37187 0.0
C44 C 0.19113 0.01463 0.38201 0.0
C45 C 0.20633 0.02669 0.39216 0.0
C46 C 0.20961 0.05106 0.39139 0.0
C47 C 0.19688 0.06332 0.38125 0.0
H48 H 0.03718 0.5919 0.57463 0.0
H49 H 0.02238 0.55904 0.55903 0.0
H50 H 0.95155 0.58487 0.56221 0.0
H51 H 0.96653 0.61788 0.57785 0.0
H52 H 0.03722 0.63789 0.57317 0.0
H53 H 0.00696 0.58407 0.60651 0.0
H54 H 0.97943 0.56083 0.61878 0.0
H55 H 0.93127 0.61938 0.6197 0.0
H56 H 0.95964 0.64283 0.60806 0.0
H57 H 0.01677 0.69325 0.62576 0.0
H58 H 0.03783 0.71325 0.64609 0.0
H59 H 0.10235 0.68006 0.63396 0.0
H60 H 0.08087 0.65872 0.61446 0.0
H61 H 0.0085 0.64917 0.62126 0.0
H62 H 0.04611 0.70511 0.59424 0.0
H63 H 0.07986 0.72837 0.58811 0.0
H64 H 0.11568 0.66453 0.57553 0.0
H65 H 0.08201 0.64131 0.5819 0.0
C66 C 0.00296 0.60724 0.57754 0.0
C67 C 0.01848 0.59067 0.57185 0.0
C68 C 0.01 0.57193 0.56287 0.0
C69 C 0.98578 0.56935 0.55937 0.0
C70 C 0.97027 0.58624 0.56484 0.0
C71 C 0.9788 0.60507 0.5738 0.0
C72 C 0.01224 0.62641 0.58756 0.0
C73 C 0.03094 0.64038 0.58369 0.0
C74 C 0.00362 0.63024 0.60112 0.0
C75 C 0.98529 0.61511 0.60641 0.0
C76 C 0.99028 0.5917 0.60916 0.0
C77 C 0.97438 0.5784 0.61612 0.0
C78 C 0.95306 0.58821 0.62037 0.0
C79 C 0.94767 0.61135 0.61689 0.0
C80 C 0.96376 0.62475 0.61012 0.0
C81 C 0.04721 0.67465 0.61842 0.0
C82 C 0.03548 0.69036 0.62747 0.0
C83 C 0.04763 0.70199 0.63903 0.0
C84 C 0.07185 0.69826 0.64176 0.0
C85 C 0.08366 0.68309 0.63239 0.0
C86 C 0.07143 0.67118 0.62101 0.0
C87 C 0.03392 0.66031 0.60704 0.0
C88 C 0.01439 0.64727 0.61062 0.0
C89 C 0.04183 0.65733 0.59323 0.0
C90 C 0.0616 0.67148 0.5886 0.0
C91 C 0.0612 0.69614 0.59012 0.0
C92 C 0.08043 0.7094 0.58653 0.0
C93 C 0.10044 0.69825 0.58138 0.0
C94 C 0.10061 0.67358 0.57962 0.0
C95 C 0.08131 0.66032 0.58313 0.0
H96 H 0.5062 0.55512 0.87442 0.0
H97 H 0.48344 0.57431 0.89262 0.0
H98 H 0.42063 0.56708 0.865 0.0
H99 H 0.44369 0.54776 0.8467 0.0
H100 H 0.50263 0.51178 0.86207 0.0
H101 H 0.49513 0.59204 0.84784 0.0
H102 H 0.47015 0.62553 0.84238 0.0
H103 H 0.43671 0.58452 0.80714 0.0
H104 H 0.4617 0.5511 0.8127 0.0
H105 H 0.52665 0.47241 0.81865 0.0
H106 H 0.55677 0.45666 0.80346 0.0
H107 H 0.5871 0.52624 0.80261 0.0
H108 H 0.55699 0.54183 0.81777 0.0
H109 H 0.51042 0.54444 0.81538 0.0
H110 H 0.5068 0.46343 0.84645 0.0
H111 H 0.52956 0.43407 0.85898 0.0
H112 H 0.58849 0.48267 0.86434 0.0
H113 H 0.56597 0.51118 0.8511 0.0
C114 C 0.47667 0.55002 0.8592 0.0
C115 C 0.4875 0.55749 0.8723 0.0
C116 C 0.47444 0.56842 0.88271 0.0
C117 C 0.45019 0.57206 0.88028 0.0
C118 C 0.43932 0.56465 0.86713 0.0
C119 C 0.45244 0.55359 0.85669 0.0
C120 C 0.4911 0.53863 0.84831 0.0
C121 C 0.50412 0.51878 0.85179 0.0
C122 C 0.49323 0.5479 0.83496 0.0
C123 C 0.47999 0.56898 0.8308 0.0
C124 C 0.48249 0.59033 0.8389 0.0
C125 C 0.46818 0.60942 0.83579 0.0
C126 C 0.45132 0.6076 0.8244 0.0
C127 C 0.44965 0.58654 0.81592 0.0
C128 C 0.46388 0.56741 0.81909 0.0
C129 C 0.53973 0.50826 0.81949 0.0
C130 C 0.53983 0.48425 0.81522 0.0
C131 C 0.55704 0.47528 0.80653 0.0
C132 C 0.57438 0.49019 0.80186 0.0
C133 C 0.57383 0.51433 0.80586 0.0
C134 C 0.55667 0.52326 0.81457 0.0
C135 C 0.52231 0.51777 0.82929 0.0
C136 C 0.50863 0.5372 0.82555 0.0
C137 C 0.5198 0.5084 0.84254 0.0
C138 C 0.5348 0.48935 0.84783 0.0
C139 C 0.52487 0.46739 0.85001 0.0
C140 C 0.53785 0.45076 0.85732 0.0
C141 C 0.56083 0.45602 0.86292 0.0
C142 C 0.57103 0.47773 0.86008 0.0
C143 C 0.55816 0.49417 0.85254 0.0
H144 H 0.58215 0.98623 0.07082 0.0
H145 H 0.5556 0.95404 0.0621 0.0
H146 H 0.49982 0.9858 0.08532 0.0
H147 H 0.52624 0.01823 0.09377 0.0
H148 H 0.58225 0.03276 0.06858 0.0
H149 H 0.57587 0.98044 0.10674 0.0
H150 H 0.55636 0.95895 0.12435 0.0
H151 H 0.53135 0.02467 0.14277 0.0
H152 H 0.54985 0.04582 0.12475 0.0
H153 H 0.59586 0.09657 0.11786 0.0
H154 H 0.62508 0.12176 0.13115 0.0
H155 H 0.68031 0.08717 0.10873 0.0
H156 H 0.65092 0.06168 0.09561 0.0
H157 H 0.59482 0.04971 0.12013 0.0
H158 H 0.59326 0.10119 0.0824 0.0
H159 H 0.61029 0.12666 0.06576 0.0
H160 H 0.64816 0.06757 0.04806 0.0
H161 H 0.63082 0.04199 0.06473 0.0
C162 C 0.5563 0.00442 0.08314 0.0
C163 C 0.56412 0.98642 0.07388 0.0
C164 C 0.54895 0.96807 0.06891 0.0
C165 C 0.52574 0.96737 0.07314 0.0
C166 C 0.51774 0.98575 0.08207 0.0
C167 C 0.53281 0.00424 0.08691 0.0
C168 C 0.5729 0.02299 0.08912 0.0
C169 C 0.58521 0.03622 0.07987 0.0
C170 C 0.57621 0.02809 0.10383 0.0
C171 C 0.56413 0.01474 0.11432 0.0
C172 C 0.56586 0.99016 0.11444 0.0
C173 C 0.5549 0.97792 0.12462 0.0
C174 C 0.54223 0.99006 0.135 0.0
C175 C 0.54057 0.01468 0.13482 0.0
C176 C 0.55137 0.02685 0.12459 0.0
C177 C 0.62123 0.07724 0.10579 0.0
C178 C 0.61422 0.09474 0.11561 0.0
C179 C 0.63094 0.10924 0.12312 0.0
C180 C 0.65502 0.10637 0.12102 0.0
C181 C 0.6619 0.08964 0.11064 0.0
C182 C 0.64512 0.07521 0.10307 0.0
C183 C 0.60397 0.05945 0.09963 0.0
C184 C 0.59175 0.04622 0.10886 0.0
C185 C 0.60042 0.05462 0.08496 0.0
C186 C 0.6109 0.06978 0.07482 0.0
C187 C 0.60522 0.09372 0.07493 0.0
C188 C 0.61481 0.10819 0.06537 0.0
C189 C 0.63044 0.09903 0.05559 0.0
C190 C 0.63619 0.07504 0.05551 0.0
C191 C 0.62628 0.06046 0.06497 0.0
H192 H 0.00092 0.67372 0.93424 0.0
H193 H 0.02386 0.70317 0.92309 0.0
H194 H 0.08715 0.66387 0.93196 0.0
H195 H 0.06411 0.63444 0.94301 0.0
H196 H 0.9974 0.62748 0.92476 0.0
H197 H 0.02941 0.67055 0.9677 0.0
H198 H 0.0638 0.68581 0.98196 0.0
H199 H 0.08766 0.61469 0.98706 0.0
H200 H 0.05423 0.59972 0.97212 0.0
H201 H 0.00817 0.55415 0.96384 0.0
H202 H 0.98628 0.5197 0.97039 0.0
H203 H 0.92103 0.55318 0.95801 0.0
H204 H 0.94295 0.5877 0.95174 0.0
H205 H 0.00955 0.59913 0.97287 0.0
H206 H 0.99298 0.55591 0.93051 0.0
H207 H 0.97242 0.53364 0.91087 0.0
H208 H 0.93104 0.59482 0.90161 0.0
H209 H 0.95123 0.61689 0.92165 0.0
C210 C 0.03081 0.65199 0.93957 0.0
C211 C 0.01978 0.67163 0.93394 0.0
C212 C 0.03289 0.68839 0.92754 0.0
C213 C 0.0573 0.68583 0.92664 0.0
C214 C 0.06843 0.66653 0.93268 0.0
C215 C 0.05528 0.64968 0.939 0.0
C216 C 0.01641 0.63298 0.94488 0.0
C217 C -0.00039 0.62171 0.93541 0.0
C218 C 0.02039 0.62449 0.95851 0.0
C219 C 0.03946 0.63401 0.96856 0.0
C220 C 0.04209 0.65827 0.97187 0.0
C221 C 0.06163 0.66696 0.98018 0.0
C222 C 0.07868 0.65148 0.9855 0.0
C223 C 0.07518 0.62714 0.98286 0.0
C224 C 0.05588 0.61853 0.97444 0.0
C225 C 0.97718 0.57345 0.95727 0.0
C226 C 0.98914 0.55414 0.96268 0.0
C227 C 0.97664 0.5344 0.96629 0.0
C228 C 0.95196 0.53373 0.96469 0.0
C229 C 0.94003 0.55327 0.95949 0.0
C230 C 0.95253 0.57294 0.95581 0.0
C231 C 0.99049 0.59389 0.95277 0.0
C232 C 0.00694 0.60537 0.96235 0.0
C233 C 0.98724 0.6018 0.939 0.0
C234 C 0.97344 0.58799 0.92767 0.0
C235 C 0.97913 0.56441 0.92445 0.0
C236 C 0.96756 0.55177 0.91311 0.0
C237 C 0.9502 0.56251 0.90463 0.0
C238 C 0.94418 0.586 0.90802 0.0
C239 C 0.95578 0.59867 0.91941 0.0
H240 H 0.57218 0.55284 0.21699 0.0
H241 H 0.55057 0.58466 0.22851 0.0
H242 H 0.48502 0.54882 0.21574 0.0
H243 H 0.50687 0.51724 0.20397 0.0
H244 H 0.57512 0.50467 0.21911 0.0
H245 H 0.54728 0.55973 0.18561 0.0
H246 H 0.51895 0.58268 0.17206 0.0
H247 H 0.48542 0.51833 0.15465 0.0
H248 H 0.51308 0.49557 0.16882 0.0
H249 H 0.5675 0.44713 0.16625 0.0
H250 H 0.59158 0.42686 0.14899 0.0
H251 H 0.65289 0.46518 0.16685 0.0
H252 H 0.62858 0.48577 0.18392 0.0
H253 H 0.56008 0.49339 0.16735 0.0
H254 H 0.58815 0.43803 0.19953 0.0
H255 H 0.61679 0.41426 0.21233 0.0
H256 H 0.6499 0.47756 0.23151 0.0
H257 H 0.62145 0.50131 0.2184 0.0
C258 C 0.54111 0.53284 0.20952 0.0
C259 C 0.55317 0.55166 0.2169 0.0
C260 C 0.54076 0.56981 0.22351 0.0
C261 C 0.51601 0.56938 0.22298 0.0
C262 C 0.50404 0.5499 0.21614 0.0
C263 C 0.51648 0.53179 0.20947 0.0
C264 C 0.55427 0.51534 0.20104 0.0
C265 C 0.57196 0.50226 0.20778 0.0
C266 C 0.54969 0.51184 0.18631 0.0
C267 C 0.53212 0.52591 0.17839 0.0
C268 C 0.53353 0.55058 0.1791 0.0
C269 C 0.51747 0.56368 0.1712 0.0
C270 C 0.49987 0.55238 0.16224 0.0
C271 C 0.49846 0.52766 0.16161 0.0
C272 C 0.51442 0.51459 0.16959 0.0
C273 C 0.59624 0.46792 0.17639 0.0
C274 C 0.5862 0.45088 0.16659 0.0
C275 C 0.60002 0.4392 0.15679 0.0
C276 C 0.62413 0.4445 0.15652 0.0
C277 C 0.63433 0.46089 0.16672 0.0
C278 C 0.6205 0.4725 0.17656 0.0
C279 C 0.58101 0.48267 0.18538 0.0
C280 C 0.56302 0.49543 0.17871 0.0
C281 C 0.58527 0.48579 0.20015 0.0
C282 C 0.60279 0.47146 0.2079 0.0
C283 C 0.60168 0.44681 0.2064 0.0
C284 C 0.61791 0.43324 0.21384 0.0
C285 C 0.63556 0.44404 0.22297 0.0
C286 C 0.63662 0.46874 0.22447 0.0
C287 C 0.62031 0.48232 0.21706 0.0
H288 H 0.61086 0.99159 0.43506 0.0
H289 H 0.58554 0.96336 0.4213 0.0
H290 H 0.52431 0.99836 0.43708 0.0
H291 H 0.55 0.02738 0.45035 0.0
H292 H 0.61069 0.03756 0.42985 0.0
H293 H 0.59464 0.99111 0.46976 0.0
H294 H 0.5666 0.97322 0.48455 0.0
H295 H 0.54155 0.0423 0.49726 0.0
H296 H 0.5689 0.05996 0.482 0.0
H297 H 0.62204 0.107 0.47729 0.0
H298 H 0.65152 0.13677 0.4859 0.0
H299 H 0.70549 0.09556 0.46627 0.0
H300 H 0.67612 0.06602 0.45776 0.0
H301 H 0.61574 0.06093 0.4809 0.0
H302 H 0.62689 0.10799 0.44244 0.0
H303 H 0.64624 0.12906 0.42458 0.0
H304 H 0.67447 0.06348 0.40806 0.0
H305 H 0.6557 0.04266 0.42621 0.0
C306 C 0.58235 0.0116 0.44371 0.0
C307 C 0.59199 0.99299 0.43571 0.0
C308 C 0.57742 0.97668 0.42795 0.0
C309 C 0.5528 0.97854 0.42803 0.0
C310 C 0.54318 0.99656 0.43663 0.0
C311 C 0.55783 0.01304 0.44435 0.0
C312 C 0.59806 0.03063 0.45009 0.0
C313 C 0.61211 0.04237 0.44106 0.0
C314 C 0.59887 0.03778 0.4646 0.0
C315 C 0.58356 0.02685 0.47456 0.0
C316 C 0.58308 0.00238 0.47572 0.0
C317 C 0.56721 0.9922 0.48431 0.0
C318 C 0.55167 0.00632 0.49201 0.0
C319 C 0.55296 0.03089 0.49128 0.0
C320 C 0.56874 0.04103 0.48266 0.0
C321 C 0.64684 0.0845 0.4667 0.0
C322 C 0.64026 0.10434 0.47496 0.0
C323 C 0.6571 0.1213 0.47987 0.0
C324 C 0.68074 0.11864 0.47659 0.0
C325 C 0.68732 0.09837 0.46869 0.0
C326 C 0.67057 0.08145 0.46386 0.0
C327 C 0.62901 0.06715 0.46069 0.0
C328 C 0.61446 0.05593 0.46972 0.0
C329 C 0.62723 0.06078 0.44609 0.0
C330 C 0.63998 0.07376 0.43573 0.0
C331 C 0.63758 0.09822 0.43512 0.0
C332 C 0.64845 0.1102 0.42481 0.0
C333 C 0.66187 0.09795 0.41488 0.0
C334 C 0.66452 0.0735 0.41566 0.0
C335 C 0.65364 0.06154 0.42595 0.0
H336 H 0.08491 0.17543 0.73519 0.0
H337 H 0.05066 0.1992 0.74082 0.0
H338 H 0.01003 0.16301 0.70637 0.0
H339 H 0.04437 0.13936 0.7008 0.0
H340 H 0.09387 0.12716 0.73286 0.0
H341 H 0.08775 0.19284 0.70194 0.0
H342 H 0.06662 0.21623 0.68456 0.0
H343 H 0.05983 0.15467 0.65584 0.0
H344 H 0.08006 0.13133 0.67339 0.0
H345 H 0.13179 0.06968 0.70314 0.0
H346 H 0.16103 0.04598 0.69112 0.0
H347 H 0.19685 0.1095 0.68115 0.0
H348 H 0.16823 0.13297 0.69376 0.0
H349 H 0.12329 0.1343 0.68527 0.0
H350 H 0.09796 0.0815 0.73174 0.0
H351 H 0.11545 0.05282 0.74717 0.0
H352 H 0.18397 0.08402 0.74345 0.0
H353 H 0.1663 0.11281 0.72799 0.0
C354 C 0.06727 0.1559 0.71746 0.0
C355 C 0.06851 0.17238 0.729 0.0
C356 C 0.0489 0.18591 0.73222 0.0
C357 C 0.02767 0.18312 0.72396 0.0
C358 C 0.02622 0.16585 0.71278 0.0
C359 C 0.0458 0.15228 0.70961 0.0
C360 C 0.08873 0.1435 0.71311 0.0
C361 C 0.10044 0.12877 0.72249 0.0
C362 C 0.09724 0.14565 0.69958 0.0
C363 C 0.08529 0.1603 0.689 0.0
C364 C 0.08155 0.1844 0.69193 0.0
C365 C 0.06964 0.19777 0.68195 0.0
C366 C 0.06138 0.18727 0.66885 0.0
C367 C 0.06553 0.16321 0.66591 0.0
C368 C 0.07735 0.14989 0.67588 0.0
C369 C 0.14787 0.10312 0.69943 0.0
C370 C 0.14634 0.07847 0.69874 0.0
C371 C 0.16293 0.06494 0.69169 0.0
C372 C 0.18121 0.07581 0.68503 0.0
C373 C 0.18323 0.10048 0.68628 0.0
C374 C 0.16674 0.11396 0.6934 0.0
C375 C 0.12847 0.11766 0.70494 0.0
C376 C 0.11706 0.13288 0.69574 0.0
C377 C 0.12007 0.11556 0.71853 0.0
C378 C 0.13083 0.09918 0.72858 0.0
C379 C 0.11671 0.08239 0.73439 0.0
C380 C 0.12673 0.06603 0.74325 0.0
C381 C 0.15111 0.06612 0.74653 0.0
C382 C 0.16517 0.08332 0.74099 0.0
C383 C 0.1551 0.09977 0.73215 0.0
O384 O 0.35886 0.71167 0.00399 0.0
Cd385 Cd 0.34965 0.72951 0.02223 0.0
Cd386 Cd 0.38584 0.70447 0.03447 0.0
O387 O 0.38481 0.68874 0.01432 0.0
O388 O 0.31758 0.74161 0.01805 0.0
O389 O 0.32538 0.71452 0.03341 0.0
C390 C 0.31011 0.72721 0.0268 0.0
C391 C 0.39259 0.67965 0.05298 0.0
C392 C 0.37327 0.69475 0.0033 0.0
C393 C 0.39009 0.75758 0.03566 0.0
O394 O 0.3997 0.73803 0.03812 0.0
O395 O 0.36958 0.75815 0.02973 0.0
O396 O 0.4089 0.68476 0.04482 0.0
O397 O 0.37203 0.68853 0.05058 0.0
O398 O 0.43344 0.84755 0.30156 0.0
Cd399 Cd 0.41586 0.83716 0.28269 0.0
Cd400 Cd 0.45689 0.84898 0.27188 0.0
O401 O 0.46506 0.86127 0.29238 0.0
O402 O 0.38187 0.83905 0.28626 0.0
O403 O 0.39948 0.8626 0.27233 0.0
C404 C 0.38075 0.85679 0.27842 0.0
C405 C 0.4649 0.87274 0.25353 0.0
C406 C 0.45325 0.85803 0.30304 0.0
C407 C 0.44146 0.79819 0.26813 0.0
O408 O 0.45771 0.81327 0.26712 0.0
O409 O 0.4223 0.80426 0.27348 0.0
O410 O 0.48146 0.86245 0.26057 0.0
O411 O 0.44357 0.86992 0.25711 0.0
O412 O 0.29438 0.90301 0.52057 0.0
Cd413 Cd 0.30973 0.89147 0.53897 0.0
Cd414 Cd 0.27831 0.9203 0.55132 0.0
O415 O 0.27468 0.93155 0.53104 0.0
O416 O 0.34223 0.88206 0.53479 0.0
O417 O 0.33407 0.91289 0.54892 0.0
C418 C 0.34948 0.9004 0.54245 0.0
C419 C 0.27541 0.94845 0.57005 0.0
C420 C 0.28147 0.92106 0.51986 0.0
C421 C 0.27357 0.86753 0.554 0.0
O422 O 0.26463 0.88788 0.55539 0.0
O423 O 0.29311 0.86477 0.54834 0.0
O424 O 0.25753 0.94221 0.56179 0.0
O425 O 0.29546 0.93916 0.56746 0.0
O426 O 0.21886 0.79432 0.76879 0.0
Cd427 Cd 0.23784 0.80844 0.78631 0.0
Cd428 Cd 0.21109 0.77836 0.80034 0.0
O429 O 0.19279 0.77666 0.78089 0.0
O430 O 0.24838 0.84018 0.78162 0.0
O431 O 0.22256 0.83423 0.79764 0.0
C432 C 0.23398 0.84874 0.79053 0.0
C433 C 0.18836 0.77439 0.81984 0.0
C434 C 0.19971 0.78296 0.76921 0.0
C435 C 0.26415 0.77065 0.79991 0.0
O436 O 0.24394 0.76307 0.80257 0.0
O437 O 0.2662 0.78991 0.79398 0.0
O438 O 0.19194 0.75703 0.811 0.0
O439 O 0.19745 0.79453 0.81754 0.0
O440 O 0.93512 0.28833 0.54386 0.0
Cd441 Cd 0.91679 0.29771 0.52577 0.0
Cd442 Cd 0.93868 0.25896 0.51401 0.0
O443 O 0.95486 0.25924 0.53395 0.0
O444 O 0.90661 0.33046 0.53012 0.0
O445 O 0.9317 0.32103 0.51385 0.0
C446 C 0.92034 0.33705 0.52077 0.0
C447 C 0.96237 0.25063 0.49512 0.0
C448 C 0.95041 0.27224 0.54475 0.0
C449 C 0.88558 0.25834 0.51368 0.0
O450 O 0.90432 0.24724 0.51116 0.0
O451 O 0.8866 0.27925 0.51912 0.0
O452 O 0.95658 0.23467 0.50335 0.0
O453 O 0.95477 0.2717 0.49763 0.0
O454 O 0.84642 0.41989 0.77741 0.0
Cd455 Cd 0.83143 0.40154 0.75988 0.0
Cd456 Cd 0.86472 0.42558 0.74617 0.0
O457 O 0.87034 0.44167 0.76609 0.0
O458 O 0.79945 0.39245 0.76498 0.0
O459 O 0.80593 0.41774 0.74877 0.0
C460 C 0.7912 0.40703 0.7561 0.0
C461 C 0.86979 0.44943 0.72731 0.0
C462 C 0.86163 0.43628 0.77749 0.0
C463 C 0.86679 0.37195 0.74571 0.0
O464 O 0.87568 0.39136 0.74261 0.0
O465 O 0.84812 0.37167 0.7524 0.0
O466 O 0.88728 0.44248 0.73509 0.0
O467 O 0.84894 0.44314 0.73032 0.0
O468 O 0.74166 0.34955 0.02717 0.0
Cd469 Cd 0.75264 0.3337 0.00874 0.0
Cd470 Cd 0.72724 0.36812 0.99649 0.0
O471 O 0.71743 0.37429 0.01695 0.0
O472 O 0.75863 0.30022 0.01239 0.0
O473 O 0.72953 0.31187 0.99802 0.0
C474 C 0.74017 0.29503 0.00428 0.0
C475 C 0.69868 0.37298 0.97823 0.0
C476 C 0.72612 0.36542 0.02803 0.0
C477 C 0.78021 0.36697 0.99347 0.0
O478 O 0.76072 0.37743 0.99159 0.0
O479 O 0.7812 0.34796 0.99982 0.0
O480 O 0.70778 0.39061 0.98573 0.0
O481 O 0.70536 0.35217 0.98132 0.0
O482 O 0.79636 0.21373 0.24676 0.0
Cd483 Cd 0.8072 0.23098 0.26565 0.0
Cd484 Cd 0.79254 0.19085 0.2765 0.0
O485 O 0.7794 0.18388 0.25605 0.0
O486 O 0.80797 0.26489 0.26187 0.0
O487 O 0.78257 0.24947 0.2756 0.0
C488 C 0.79006 0.26754 0.2695 0.0
C489 C 0.76886 0.1827 0.2949 0.0
C490 C 0.78402 0.19501 0.24533 0.0
C491 C 0.84421 0.20313 0.28021 0.0
O492 O 0.82817 0.18775 0.28103 0.0
O493 O 0.83936 0.22274 0.27507 0.0
O494 O 0.77839 0.16617 0.28742 0.0
O495 O 0.77234 0.20415 0.29172 0.0
H496 H 0.20567 0.96519 0.3233 0.0
H497 H 0.23342 0.93918 0.31141 0.0
H498 H 0.26793 0.99949 0.29616 0.0
H499 H 0.24055 0.02556 0.30824 0.0
H500 H 0.24509 0.93187 0.28376 0.0
H501 H 0.32153 0.96773 0.3172 0.0
H502 H 0.29158 0.97429 0.3211 0.0
H503 H 0.30557 0.98951 0.30776 0.0
C504 C 0.21906 0.97285 0.31731 0.0
C505 C 0.22117 0.99739 0.31684 0.0
C506 C 0.23489 0.958 0.31053 0.0
C507 C 0.25302 0.96743 0.30313 0.0
C508 C 0.25446 0.99188 0.30211 0.0
H509 H 0.3757 0.90036 0.26797 0.0
H510 H 0.34288 0.92738 0.27123 0.0
C511 C 0.23881 0.00674 0.309 0.0
C512 C 0.27093 0.95174 0.29698 0.0
H513 H 0.32967 0.93984 0.29891 0.0
C514 C 0.2636 0.93365 0.28703 0.0
C515 C 0.29508 0.95405 0.30129 0.0
C516 C 0.30394 0.97229 0.31252 0.0
C517 C 0.27979 0.91778 0.28129 0.0
C518 C 0.30385 0.92002 0.2857 0.0
C519 C 0.31122 0.93835 0.29544 0.0
C520 C 0.32156 0.90253 0.28134 0.0
C521 C 0.27108 0.89872 0.27058 0.0
C522 C 0.32019 0.87946 0.28567 0.0
C523 C 0.33892 0.86405 0.2839 0.0
C524 C 0.35939 0.87145 0.27778 0.0
C525 C 0.36015 0.89411 0.27268 0.0
C526 C 0.34144 0.90958 0.27455 0.0
H527 H 0.25375 0.90317 0.2655 0.0
H528 H 0.28385 0.89562 0.26229 0.0
H529 H 0.26898 0.88209 0.27592 0.0
H530 H 0.30519 0.87379 0.29115 0.0
H531 H 0.33779 0.84671 0.28793 0.0
H532 H 0.10093 0.73864 0.56724 0.0
H533 H 0.13504 0.76282 0.56278 0.0
H534 H 0.1809 0.714 0.58358 0.0
H535 H 0.14678 0.68986 0.58829 0.0
H536 H 0.18845 0.76202 0.59274 0.0
H537 H 0.18646 0.74881 0.53455 0.0
H538 H 0.15862 0.75718 0.54119 0.0
H539 H 0.1713 0.72945 0.54546 0.0
C540 C 0.11828 0.73304 0.57085 0.0
C541 C 0.12119 0.71235 0.5781 0.0
C542 C 0.13775 0.74673 0.56818 0.0
C543 C 0.16048 0.73999 0.57268 0.0
C544 C 0.1635 0.71935 0.57991 0.0
H545 H 0.28194 0.82067 0.54806 0.0
H546 H 0.25755 0.78719 0.55362 0.0
C547 C 0.14402 0.70555 0.58252 0.0
C548 C 0.18088 0.75524 0.57045 0.0
H549 H 0.20932 0.78146 0.54486 0.0
C550 C 0.19326 0.76603 0.58228 0.0
C551 C 0.18732 0.76016 0.55681 0.0
C552 C 0.1754 0.74813 0.54376 0.0
C553 C 0.21113 0.78261 0.58079 0.0
C554 C 0.21653 0.78864 0.56714 0.0
C555 C 0.20502 0.77691 0.55532 0.0
C556 C 0.23256 0.80842 0.56488 0.0
C557 C 0.22379 0.79385 0.59383 0.0
C558 C 0.22658 0.83136 0.56942 0.0
C559 C 0.24033 0.85045 0.56622 0.0
C560 C 0.26037 0.84699 0.55839 0.0
C561 C 0.26668 0.82391 0.55416 0.0
C562 C 0.25277 0.80479 0.55729 0.0
H563 H 0.22272 0.78268 0.60296 0.0
H564 H 0.24259 0.79718 0.59206 0.0
H565 H 0.21548 0.81096 0.59659 0.0
H566 H 0.21082 0.83457 0.57506 0.0
H567 H 0.23496 0.86797 0.56965 0.0
H568 H 0.42797 0.63422 0.84382 0.0
H569 H 0.3984 0.66432 0.83945 0.0
H570 H 0.40734 0.65514 0.79482 0.0
H571 H 0.43697 0.62495 0.79911 0.0
H572 H 0.39972 0.70688 0.82608 0.0
H573 H 0.33696 0.64292 0.79798 0.0
H574 H 0.36269 0.63385 0.80814 0.0
H575 H 0.36537 0.64393 0.79076 0.0
C576 C 0.42391 0.63884 0.83309 0.0
C577 C 0.43471 0.6271 0.8218 0.0
C578 C 0.40695 0.65599 0.83061 0.0
C579 C 0.40043 0.66168 0.8168 0.0
C580 C 0.41178 0.65064 0.80554 0.0
H581 H 0.30965 0.77819 0.79306 0.0
H582 H 0.3436 0.75284 0.79737 0.0
C583 C 0.42869 0.63342 0.808 0.0
C584 C 0.38116 0.67856 0.81421 0.0
H585 H 0.326 0.68289 0.79865 0.0
C586 C 0.3836 0.7017 0.82006 0.0
C587 C 0.36005 0.67161 0.80652 0.0
C588 C 0.35592 0.64668 0.80058 0.0
C589 C 0.36548 0.71814 0.81838 0.0
C590 C 0.34455 0.71128 0.81047 0.0
C591 C 0.34214 0.68814 0.80464 0.0
C592 C 0.32449 0.72747 0.80849 0.0
C593 C 0.36864 0.74247 0.82539 0.0
C594 C 0.30245 0.72151 0.81317 0.0
C595 C 0.28302 0.7358 0.81063 0.0
C596 C 0.28519 0.75638 0.8033 0.0
C597 C 0.30739 0.76254 0.7988 0.0
C598 C 0.32685 0.74813 0.80131 0.0
H599 H 0.38303 0.74313 0.83378 0.0
H600 H 0.37317 0.75492 0.81739 0.0
H601 H 0.35216 0.74857 0.83006 0.0
H602 H 0.30024 0.70562 0.81871 0.0
H603 H 0.26622 0.73053 0.81428 0.0
H604 H 0.51815 0.94673 0.04666 0.0
H605 H 0.49326 0.91241 0.03947 0.0
H606 H 0.47429 0.90753 0.08243 0.0
H607 H 0.49869 0.94208 0.08958 0.0
H608 H 0.49698 0.86846 0.04742 0.0
H609 H 0.41065 0.90356 0.06192 0.0
H610 H 0.43627 0.92213 0.06122 0.0
H611 H 0.43209 0.90565 0.07647 0.0
C612 C 0.50852 0.93838 0.05453 0.0
C613 C 0.51017 0.94712 0.06865 0.0
C614 C 0.4943 0.91885 0.05042 0.0
C615 C 0.48157 0.90767 0.06037 0.0
C616 C 0.48337 0.91628 0.0745 0.0
H617 H 0.43049 0.76386 0.0524 0.0
H618 H 0.45238 0.80048 0.05814 0.0
C619 C 0.49737 0.93596 0.07858 0.0
C620 C 0.46737 0.8863 0.05611 0.0
H621 H 0.41276 0.86187 0.05743 0.0
C622 C 0.47851 0.86708 0.0495 0.0
C623 C 0.44319 0.88465 0.05864 0.0
C624 C 0.42979 0.90519 0.06482 0.0
C625 C 0.46628 0.84606 0.04564 0.0
C626 C 0.44243 0.84398 0.04886 0.0
C627 C 0.43113 0.86338 0.05515 0.0
C628 C 0.42884 0.82187 0.0457 0.0
C629 C 0.47897 0.82644 0.03796 0.0
C630 C 0.40783 0.8219 0.03726 0.0
C631 C 0.39505 0.80107 0.03416 0.0
C632 C 0.40311 0.77979 0.03941 0.0
C633 C 0.42395 0.7799 0.04806 0.0
C634 C 0.43658 0.80079 0.05127 0.0
H635 H 0.49422 0.83321 0.03259 0.0
H636 H 0.48575 0.81386 0.04565 0.0
H637 H 0.46702 0.81677 0.02998 0.0
H638 H 0.40147 0.83801 0.03292 0.0
H639 H 0.37906 0.8016 0.02746 0.0
H640 H 0.12294 0.63454 0.98265 0.0
H641 H 0.15974 0.65008 0.99372 0.0
H642 H 0.1222 0.70545 0.0154 0.0
H643 H 0.08487 0.68932 0.00477 0.0
H644 H 0.17679 0.69424 0.98987 0.0
H645 H 0.16733 0.68149 0.04673 0.0
H646 H 0.14894 0.6663 0.03298 0.0
H647 H 0.1437 0.69665 0.03787 0.0
C648 C 0.12232 0.64966 0.99005 0.0
C649 C 0.10087 0.66057 0.99289 0.0
C650 C 0.14345 0.65863 0.9963 0.0
C651 C 0.14368 0.67876 0.00549 0.0
C652 C 0.12236 0.68964 0.00852 0.0
H653 H 0.27509 0.75728 0.01949 0.0
H654 H 0.23301 0.74837 0.01666 0.0
C655 C 0.10109 0.68058 0.0023 0.0
C656 C 0.16655 0.68913 0.01088 0.0
H657 H 0.20186 0.70097 0.04069 0.0
C658 C 0.18222 0.69584 0.00098 0.0
C659 C 0.17358 0.69102 0.02539 0.0
C660 C 0.15764 0.68334 0.0364 0.0
C661 C 0.20494 0.70395 0.00513 0.0
C662 C 0.212 0.70603 0.01964 0.0
C663 C 0.19626 0.6996 0.0296 0.0
C664 C 0.23622 0.71348 0.02439 0.0
C665 C 0.22147 0.70933 0.99386 0.0
C666 C 0.25168 0.69743 0.0306 0.0
C667 C 0.27573 0.70262 0.03243 0.0
C668 C 0.2846 0.72384 0.02795 0.0
C669 C 0.26879 0.74063 0.02284 0.0
C670 C 0.24476 0.73557 0.0212 0.0
H671 H 0.21515 0.70164 0.98333 0.0
H672 H 0.22285 0.72867 0.99318 0.0
H673 H 0.23934 0.70249 0.9964 0.0
H674 H 0.24538 0.68032 0.03319 0.0
H675 H 0.28751 0.68937 0.03643 0.0
H676 H 0.52637 0.5965 0.24731 0.0
H677 H 0.50761 0.63306 0.25505 0.0
H678 H 0.45684 0.62511 0.21971 0.0
H679 H 0.47622 0.58916 0.21148 0.0
H680 H 0.47637 0.66768 0.22153 0.0
H681 H 0.44768 0.6478 0.27406 0.0
H682 H 0.47831 0.64177 0.27245 0.0
H683 H 0.45663 0.62514 0.26147 0.0
C684 C 0.51113 0.60245 0.24121 0.0
C685 C 0.50287 0.58991 0.22874 0.0
C686 C 0.5002 0.62319 0.24578 0.0
C687 C 0.48058 0.63164 0.23809 0.0
C688 C 0.47183 0.61879 0.22588 0.0
H689 H 0.41062 0.76092 0.26797 0.0
H690 H 0.41744 0.71998 0.25993 0.0
C691 C 0.48284 0.59813 0.22125 0.0
C692 C 0.47077 0.65503 0.24198 0.0
H693 H 0.45122 0.68893 0.2696 0.0
C694 C 0.47053 0.67221 0.23198 0.0
C695 C 0.46282 0.66088 0.25554 0.0
C696 C 0.46112 0.64283 0.26644 0.0
C697 C 0.46363 0.69533 0.23537 0.0
C698 C 0.45731 0.70158 0.24922 0.0
C699 C 0.4564 0.68417 0.25903 0.0
C700 C 0.45288 0.72631 0.25392 0.0
C701 C 0.46338 0.71291 0.22409 0.0
C702 C 0.47065 0.74331 0.25337 0.0
C703 C 0.46682 0.76663 0.25788 0.0
C704 C 0.44518 0.77343 0.2632 0.0
C705 C 0.42745 0.7563 0.26389 0.0
C706 C 0.43131 0.73291 0.25932 0.0
H707 H 0.4613 0.70405 0.21339 0.0
H708 H 0.44896 0.72577 0.22535 0.0
H709 H 0.48035 0.72269 0.22486 0.0
H710 H 0.48763 0.73848 0.24955 0.0
H711 H 0.48094 0.77928 0.2573 0.0
H712 H 0.50582 0.01945 0.49355 0.0
H713 H 0.47491 0.00056 0.50568 0.0
H714 H 0.52432 0.94898 0.52029 0.0
H715 H 0.5557 0.9683 0.50852 0.0
H716 H 0.46017 0.95435 0.49966 0.0
H717 H 0.49005 0.96925 0.55606 0.0
H718 H 0.50134 0.98606 0.54237 0.0
H719 H 0.51142 0.95665 0.54472 0.0
C720 C 0.51031 0.00443 0.49961 0.0
C721 C 0.53329 0.99546 0.50011 0.0
C722 C 0.49257 0.99356 0.50647 0.0
C723 C 0.49737 0.97353 0.514 0.0
C724 C 0.52033 0.96466 0.51473 0.0
H725 H 0.38622 0.87634 0.53153 0.0
H726 H 0.42442 0.89254 0.52643 0.0
C727 C 0.53816 0.97556 0.50786 0.0
C728 C 0.47783 0.96101 0.52008 0.0
H729 H 0.45633 0.94493 0.55095 0.0
C730 C 0.45936 0.95223 0.51087 0.0
C731 C 0.47679 0.95844 0.53472 0.0
C732 C 0.49584 0.96824 0.5451 0.0
C733 C 0.4398 0.94104 0.51586 0.0
C734 C 0.43886 0.93817 0.53047 0.0
C735 C 0.45729 0.94694 0.53974 0.0
C736 C 0.41817 0.927 0.53618 0.0
C737 C 0.42 0.93291 0.50547 0.0
C738 C 0.40264 0.94064 0.54409 0.0
C739 C 0.38081 0.93138 0.54712 0.0
C740 C 0.37422 0.90838 0.54223 0.0
C741 C 0.39066 0.8942 0.53532 0.0
C742 C 0.41248 0.90342 0.53236 0.0
H743 H 0.42121 0.94086 0.49515 0.0
H744 H 0.42074 0.91352 0.50365 0.0
H745 H 0.40267 0.9374 0.50964 0.0
H746 H 0.40678 0.95886 0.54716 0.0
H747 H 0.36856 0.94274 0.55249 0.0
H748 H 0.1913 0.04149 0.74193 0.0
H749 H 0.20669 0.00817 0.75458 0.0
H750 H 0.15054 0.0151 0.783 0.0
H751 H 0.13504 0.04856 0.77044 0.0
H752 H 0.2208 0.00246 0.78365 0.0
H753 H 0.1427 0.94767 0.76497 0.0
H754 H 0.1494 0.97512 0.75745 0.0
H755 H 0.13672 0.97513 0.77429 0.0
C756 C 0.18247 0.03623 0.75103 0.0
C757 C 0.16182 0.04753 0.7551 0.0
C758 C 0.19125 0.01715 0.75822 0.0
C759 C 0.17955 0.00899 0.76958 0.0
C760 C 0.15958 0.02089 0.77409 0.0
H761 H 0.20048 0.87201 0.8054 0.0
H762 H 0.18838 0.91298 0.80351 0.0
C763 C 0.15074 0.03995 0.76689 0.0
C764 C 0.18749 0.98716 0.77606 0.0
H765 H 0.17211 0.92967 0.7787 0.0
C766 C 0.2101 0.98658 0.7827 0.0
C767 C 0.17343 0.96651 0.77484 0.0
C768 C 0.14928 0.96593 0.76742 0.0
C769 C 0.21921 0.96572 0.78794 0.0
C770 C 0.2055 0.94486 0.78623 0.0
C771 C 0.18257 0.9457 0.78006 0.0
C772 C 0.21521 0.9215 0.78939 0.0
C773 C 0.24349 0.9662 0.79515 0.0
C774 C 0.23457 0.91283 0.78229 0.0
C775 C 0.24152 0.8895 0.78336 0.0
C776 C 0.22912 0.87428 0.79145 0.0
C777 C 0.21043 0.88329 0.7991 0.0
C778 C 0.20347 0.90668 0.79802 0.0
H779 H 0.24809 0.98401 0.79991 0.0
H780 H 0.24498 0.95339 0.80351 0.0
H781 H 0.25656 0.96156 0.78726 0.0
H782 H 0.24357 0.92372 0.77531 0.0
H783 H 0.25596 0.88313 0.7773 0.0
H784 H 0.59909 0.44974 0.80549 0.0
H785 H 0.63263 0.43539 0.79267 0.0
H786 H 0.62692 0.49439 0.76631 0.0
H787 H 0.5932 0.50885 0.77904 0.0
H788 H 0.63808 0.42372 0.76344 0.0
H789 H 0.69451 0.4995 0.78415 0.0
H790 H 0.66694 0.49273 0.79151 0.0
H791 H 0.66718 0.50669 0.77509 0.0
C792 C 0.6047 0.45948 0.79681 0.0
C793 C 0.59357 0.48054 0.79335 0.0
C794 C 0.62392 0.45129 0.78953 0.0
C795 C 0.63244 0.464 0.77868 0.0
C796 C 0.62087 0.48455 0.77482 0.0
H797 H 0.76898 0.44213 0.74208 0.0
H798 H 0.72841 0.45536 0.74438 0.0
C799 C 0.60165 0.4928 0.78212 0.0
C800 C 0.6541 0.4562 0.77194 0.0
H801 H 0.71193 0.47064 0.76969 0.0
C802 C 0.65419 0.43406 0.76467 0.0
C803 C 0.67504 0.4698 0.77351 0.0
C804 C 0.67612 0.49343 0.78156 0.0
C805 C 0.67485 0.42489 0.7592 0.0
C806 C 0.69601 0.43806 0.76129 0.0
C807 C 0.69567 0.46061 0.76805 0.0
C808 C 0.71913 0.42798 0.75795 0.0
C809 C 0.67386 0.4011 0.75136 0.0
C810 C 0.72724 0.408 0.76462 0.0
C811 C 0.75033 0.40042 0.76334 0.0
C812 C 0.76587 0.41279 0.75543 0.0
C813 C 0.75742 0.43218 0.74821 0.0
C814 C 0.73427 0.43979 0.74953 0.0
H815 H 0.65596 0.39717 0.74651 0.0
H816 H 0.68665 0.39998 0.74297 0.0
H817 H 0.67821 0.38736 0.75886 0.0
H818 H 0.71609 0.39892 0.77143 0.0
H819 H 0.75627 0.38546 0.76906 0.0
H820 H 0.60787 0.13025 0.03902 0.0
H821 H 0.6256 0.15936 0.02485 0.0
H822 H 0.69457 0.13322 0.03646 0.0
H823 H 0.6768 0.10367 0.05033 0.0
H824 H 0.6536 0.19363 0.0354 0.0
H825 H 0.70136 0.14184 0.99537 0.0
H826 H 0.67965 0.1288 0.0057 0.0
H827 H 0.70932 0.13366 0.0129 0.0
C828 C 0.62679 0.13049 0.03833 0.0
C829 C 0.64099 0.11478 0.04578 0.0
C830 C 0.6369 0.14705 0.0302 0.0
C831 C 0.66142 0.14834 0.02943 0.0
C832 C 0.6756 0.13219 0.03655 0.0
H833 H 0.75974 0.25582 0.0151 0.0
H834 H 0.73984 0.21863 0.01847 0.0
C835 C 0.66545 0.1154 0.04455 0.0
C836 C 0.67217 0.16827 0.02264 0.0
H837 H 0.7129 0.18258 0.99945 0.0
C838 C 0.66624 0.19118 0.02735 0.0
C839 C 0.68877 0.16509 0.01219 0.0
C840 C 0.69497 0.141 0.00614 0.0
C841 C 0.67701 0.21093 0.0223 0.0
C842 C 0.69405 0.20774 0.01216 0.0
C843 C 0.69974 0.18491 0.0072 0.0
C844 C 0.70727 0.22804 0.00751 0.0
C845 C 0.67077 0.23509 0.02828 0.0
C846 C 0.69583 0.2452 0.99969 0.0
C847 C 0.70715 0.26652 0.99773 0.0
C848 C 0.73006 0.27098 0.00362 0.0
C849 C 0.74204 0.253 0.01052 0.0
C850 C 0.73074 0.2317 0.01242 0.0
H851 H 0.66004 0.23429 0.03763 0.0
H852 H 0.68694 0.24556 0.03135 0.0
H853 H 0.66051 0.24449 0.02013 0.0
H854 H 0.67774 0.24257 0.99573 0.0
H855 H 0.69747 0.27997 0.99232 0.0
H856 H 0.04495 0.11188 0.30149 0.0
H857 H 0.00788 0.12969 0.29369 0.0
H858 H 0.01527 0.18163 0.32847 0.0
H859 H 0.05174 0.16328 0.33674 0.0
H860 H 0.97257 0.16128 0.32663 0.0
H861 H 0.99363 0.18952 0.27412 0.0
H862 H -0.0003 0.15899 0.27616 0.0
H863 H 0.01602 0.18106 0.287 0.0
C864 C 0.03874 0.12714 0.30746 0.0
C865 C 0.05134 0.13614 0.31974 0.0
C866 C 0.0177 0.13751 0.30287 0.0
C867 C 0.009 0.15722 0.31037 0.0
C868 C 0.02178 0.16655 0.32246 0.0
H869 H 0.88308 0.23192 0.28086 0.0
H870 H 0.92346 0.22266 0.28882 0.0
C871 C 0.04274 0.15613 0.3271 0.0
C872 C 0.98565 0.16688 0.30629 0.0
H873 H 0.95265 0.18753 0.27867 0.0
C874 C 0.9683 0.16727 0.3162 0.0
C875 C 0.98018 0.175 0.29274 0.0
C876 C 0.99844 0.17637 0.28194 0.0
C877 C 0.94539 0.17476 0.31276 0.0
C878 C 0.93956 0.18155 0.29895 0.0
C879 C 0.95711 0.18204 0.2892 0.0
C880 C 0.91515 0.18734 0.2943 0.0
C881 C 0.92765 0.1753 0.32395 0.0
C882 C 0.89721 0.17045 0.29459 0.0
C883 C 0.87418 0.17568 0.29012 0.0
C884 C 0.86865 0.19787 0.28512 0.0
C885 C 0.88672 0.2147 0.28469 0.0
C886 C 0.9098 0.20945 0.28922 0.0
H887 H 0.93638 0.17658 0.33471 0.0
H888 H 0.91547 0.19033 0.32288 0.0
H889 H 0.91713 0.15878 0.32287 0.0
H890 H 0.90107 0.1531 0.29817 0.0
H891 H 0.86076 0.16222 0.29049 0.0
H892 H 0.9475 0.5421 0.5636 0.0
H893 H 0.93541 0.50505 0.55096 0.0
H894 H 0.99174 0.51182 0.52304 0.0
H895 H 0.00391 0.54904 0.53559 0.0
H896 H 0.92313 0.49205 0.52162 0.0
H897 H 0.00497 0.44934 0.54206 0.0
H898 H 0.9954 0.47748 0.54922 0.0
H899 H 0.00863 0.47533 0.53254 0.0
C900 C 0.95702 0.53598 0.55459 0.0
C901 C 0.97681 0.54838 0.55068 0.0
C902 C 0.95013 0.51478 0.5474 0.0
C903 C 0.9629 0.50558 0.53621 0.0
C904 C 0.98191 0.51847 0.53181 0.0
H905 H 0.95302 0.35765 0.50521 0.0
H906 H 0.96256 0.3997 0.50523 0.0
C907 C 0.98885 0.53967 0.53901 0.0
C908 C 0.95724 0.48171 0.52993 0.0
H909 H 0.97722 0.42531 0.52904 0.0
C910 C 0.93504 0.47747 0.52306 0.0
C911 C 0.9729 0.46279 0.53176 0.0
C912 C 0.99676 0.46628 0.53937 0.0
C913 C 0.9278 0.45461 0.51836 0.0
C914 C 0.94299 0.43553 0.52087 0.0
C915 C 0.96562 0.43997 0.5271 0.0
C916 C 0.93494 0.41072 0.51879 0.0
C917 C 0.90381 0.45108 0.51097 0.0
C918 C 0.91609 0.40303 0.52624 0.0
C919 C 0.91064 0.37913 0.52626 0.0
C920 C 0.92407 0.36238 0.51892 0.0
C921 C 0.94232 0.37014 0.51094 0.0
C922 C 0.94779 0.39414 0.51095 0.0
H923 H 0.89826 0.46696 0.50544 0.0
H924 H 0.90349 0.43574 0.50322 0.0
H925 H 0.89076 0.44795 0.51889 0.0
H926 H 0.90629 0.41539 0.53265 0.0
H927 H 0.89648 0.37376 0.53252 0.0
H928 H 0.68702 0.14222 0.50245 0.0
H929 H 0.71809 0.17081 0.51025 0.0
H930 H 0.74615 0.1642 0.4691 0.0
H931 H 0.71493 0.1362 0.46116 0.0
H932 H 0.76592 0.16198 0.511 0.0
H933 H 0.7444 0.23538 0.47697 0.0
H934 H 0.72359 0.21227 0.4797 0.0
H935 H 0.74582 0.20761 0.46716 0.0
C936 C 0.69956 0.14722 0.49501 0.0
C937 C 0.6986 0.13692 0.48121 0.0
C938 C 0.71732 0.16346 0.49948 0.0
C939 C 0.7342 0.16985 0.49019 0.0
C940 C 0.73303 0.15988 0.47636 0.0
H941 H 0.87715 0.21338 0.50294 0.0
H942 H 0.8392 0.1935 0.49842 0.0
C943 C 0.71536 0.14364 0.47189 0.0
C944 C 0.75418 0.18547 0.49515 0.0
H945 H 0.78393 0.23478 0.48732 0.0
C946 C 0.76968 0.17809 0.50597 0.0
C947 C 0.75889 0.20661 0.4887 0.0
C948 C 0.74216 0.21608 0.47759 0.0
C949 C 0.79042 0.19068 0.51002 0.0
C950 C 0.79589 0.21096 0.50291 0.0
C951 C 0.77981 0.21903 0.49261 0.0
C952 C 0.81875 0.22332 0.50557 0.0
C953 C 0.80644 0.18201 0.52175 0.0
C954 C 0.81973 0.2469 0.5107 0.0
C955 C 0.84144 0.25841 0.51325 0.0
C956 C 0.86249 0.24654 0.51059 0.0
C957 C 0.86132 0.22303 0.50518 0.0
C958 C 0.83966 0.21157 0.50267 0.0
H959 H 0.79683 0.17067 0.52865 0.0
H960 H 0.82068 0.1714 0.51713 0.0
H961 H 0.81465 0.19693 0.52831 0.0
H962 H 0.80373 0.2563 0.51289 0.0
H963 H 0.8417 0.27653 0.51737 0.0
H964 H 0.99947 0.20437 0.70437 0.0
H965 H 0.96866 0.23326 0.70854 0.0
H966 H 0.97982 0.22726 0.75334 0.0
H967 H 0.01068 0.19825 0.74926 0.0
H968 H 0.92647 0.23212 0.723 0.0
H969 H 0.99125 0.29746 0.74787 0.0
H970 H 0.0 0.27119 0.73808 0.0
H971 H 0.99103 0.26958 0.75578 0.0
C972 C 0.99511 0.20887 0.71511 0.0
C973 C 0.00763 0.19912 0.7265 0.0
C974 C 0.97754 0.22543 0.71746 0.0
C975 C 0.9722 0.23261 0.73124 0.0
C976 C 0.98398 0.22225 0.74263 0.0
H977 H 0.85815 0.3277 0.75444 0.0
H978 H 0.8821 0.29248 0.75072 0.0
C979 C 0.00161 0.20572 0.74028 0.0
C980 C 0.95523 0.25186 0.73364 0.0
H981 H 0.9514 0.30843 0.74715 0.0
C982 C 0.93183 0.24879 0.72834 0.0
C983 C 0.96242 0.27366 0.74044 0.0
C984 C 0.98757 0.27836 0.74578 0.0
C985 C 0.9154 0.26702 0.72964 0.0
C986 C 0.92259 0.28873 0.73654 0.0
C987 C 0.94594 0.2917 0.74192 0.0
C988 C 0.90663 0.30913 0.73779 0.0
C989 C 0.89073 0.26318 0.72328 0.0
C990 C 0.91245 0.33009 0.73174 0.0
C991 C 0.89896 0.35021 0.73391 0.0
C992 C 0.87936 0.34983 0.74224 0.0
C993 C 0.87307 0.32857 0.74793 0.0
C994 C 0.88668 0.30839 0.74577 0.0
H995 H 0.88943 0.24748 0.71579 0.0
H996 H 0.87868 0.2605 0.73181 0.0
H997 H 0.88463 0.2788 0.71768 0.0
H998 H 0.92777 0.33102 0.72554 0.0
H999 H 0.90427 0.36622 0.72932 0.0
H1000 H 0.91195 0.53245 0.97911 0.0
H1001 H 0.8888 0.49791 0.98396 0.0
H1002 H 0.93857 0.45286 0.96336 0.0
H1003 H 0.96167 0.48747 0.95821 0.0
H1004 H 0.89148 0.44357 0.95431 0.0
H1005 H 0.90295 0.44769 0.0125 0.0
H1006 H 0.89394 0.47524 0.00577 0.0
H1007 H 0.92207 0.46326 0.00164 0.0
C1008 C 0.918 0.5152 0.97564 0.0
C1009 C 0.93862 0.51267 0.96828 0.0
C1010 C 0.9049 0.49547 0.97855 0.0
C1011 C 0.91219 0.47283 0.97422 0.0
C1012 C 0.93281 0.47018 0.96692 0.0
H1013 H 0.82614 0.35616 0.00059 0.0
H1014 H 0.86147 0.37767 0.99485 0.0
C1015 C 0.94601 0.48994 0.96405 0.0
C1016 C 0.89732 0.4522 0.97656 0.0
H1017 H 0.8696 0.4254 0.00221 0.0
C1018 C 0.88701 0.43928 0.96479 0.0
C1019 C 0.89184 0.44637 0.99023 0.0
C1020 C 0.90347 0.45871 0.00327 0.0
C1021 C 0.87013 0.42172 0.96632 0.0
C1022 C 0.86326 0.41723 0.97995 0.0
C1023 C 0.87475 0.42902 0.99175 0.0
C1024 C 0.84251 0.40241 0.98214 0.0
C1025 C 0.85935 0.40857 0.95331 0.0
C1026 C 0.82025 0.40916 0.97683 0.0
C1027 C 0.80014 0.39706 0.98013 0.0
C1028 C 0.80185 0.37797 0.98885 0.0
C1029 C 0.82425 0.37074 0.99381 0.0
C1030 C 0.84442 0.383 0.99056 0.0
H1031 H 0.87142 0.4083 0.94454 0.0
H1032 H 0.85483 0.39018 0.95546 0.0
H1033 H 0.84298 0.41753 0.94978 0.0
H1034 H 0.81832 0.42438 0.97056 0.0
H1035 H 0.78318 0.4031 0.97612 0.0
H1036 H 0.68314 0.45099 0.22686 0.0
H1037 H 0.71191 0.42548 0.23839 0.0
H1038 H 0.65609 0.3786 0.24792 0.0
H1039 H 0.62716 0.4042 0.23667 0.0
H1040 H 0.69278 0.389 0.27074 0.0
H1041 H 0.72741 0.35992 0.21911 0.0
H1042 H 0.72618 0.39114 0.22305 0.0
H1043 H 0.6994 0.37431 0.22047 0.0
C1044 C 0.67695 0.43544 0.2316 0.0
C1045 C 0.6529 0.42948 0.23074 0.0
C1046 C 0.69341 0.42085 0.23811 0.0
C1047 C 0.68609 0.40009 0.24387 0.0
C1048 C 0.66205 0.39454 0.2435 0.0
H1049 H 0.74537 0.27552 0.27759 0.0
H1050 H 0.72156 0.31029 0.27343 0.0
C1051 C 0.64559 0.40906 0.23696 0.0
C1052 C 0.70352 0.38337 0.24951 0.0
H1053 H 0.74501 0.34404 0.23926 0.0
C1054 C 0.70435 0.37924 0.26391 0.0
C1055 C 0.71853 0.37073 0.24054 0.0
C1056 C 0.71784 0.37402 0.22491 0.0
C1057 C 0.71988 0.3627 0.26961 0.0
C1058 C 0.73452 0.34965 0.26057 0.0
C1059 C 0.73389 0.35413 0.24621 0.0
C1060 C 0.7498 0.33035 0.26545 0.0
C1061 C 0.72058 0.35953 0.28524 0.0
C1062 C 0.77366 0.33008 0.26249 0.0
C1063 C 0.78719 0.31009 0.26465 0.0
C1064 C 0.77714 0.29 0.26986 0.0
C1065 C 0.75366 0.2908 0.27367 0.0
C1066 C 0.74004 0.31074 0.27136 0.0
H1067 H 0.71457 0.3756 0.29112 0.0
H1068 H 0.70858 0.34487 0.28731 0.0
H1069 H 0.73857 0.35523 0.28937 0.0
H1070 H 0.78156 0.34498 0.25791 0.0
H1071 H 0.80527 0.31004 0.26166 0.0
H1072 H 0.20871 0.04218 0.41978 0.0
H1073 H 0.22331 0.02118 0.44008 0.0
H1074 H 0.24131 0.96202 0.41259 0.0
H1075 H 0.22697 0.98313 0.39206 0.0
H1076 H 0.20495 0.97388 0.44617 0.0
H1077 H 0.30163 0.97766 0.44005 0.0
H1078 H 0.28174 0.99857 0.4323 0.0
H1079 H 0.28265 0.969 0.42483 0.0
C1080 C 0.21622 0.02491 0.41799 0.0
C1081 C 0.21685 0.01438 0.40429 0.0
C1082 C 0.22438 0.01288 0.42962 0.0
C1083 C 0.23348 0.99017 0.4278 0.0
C1084 C 0.23452 0.97965 0.41416 0.0
H1085 H 0.29064 0.90189 0.49369 0.0
H1086 H 0.27847 0.91675 0.4708 0.0
C1087 C 0.22622 0.99166 0.40248 0.0
C1088 C 0.24071 0.97725 0.44032 0.0
H1089 H 0.28876 0.95921 0.45976 0.0
C1090 C 0.22326 0.97051 0.44912 0.0
C1091 C 0.26456 0.97274 0.44401 0.0
C1092 C 0.28386 0.9799 0.43489 0.0
C1093 C 0.22906 0.95969 0.46169 0.0
C1094 C 0.253 0.95607 0.46572 0.0
C1095 C 0.27043 0.96213 0.45668 0.0
C1096 C 0.26032 0.94699 0.47955 0.0
C1097 C 0.20947 0.95217 0.47052 0.0
C1098 C 0.25445 0.95927 0.49204 0.0
C1099 C 0.26125 0.95081 0.50511 0.0
C1100 C 0.27432 0.93 0.50596 0.0
C1101 C 0.28052 0.91793 0.49342 0.0
C1102 C 0.27361 0.92639 0.48033 0.0
H1103 H 0.19269 0.94943 0.46408 0.0
H1104 H 0.21391 0.93567 0.47571 0.0
H1105 H 0.20658 0.96617 0.47882 0.0
H1106 H 0.24469 0.97552 0.49169 0.0
H1107 H 0.25635 0.96067 0.51455 0.0
H1108 H 0.10674 0.67883 0.65828 0.0
H1109 H 0.12702 0.69601 0.67959 0.0
H1110 H 0.08502 0.75853 0.67671 0.0
H1111 H 0.06568 0.74215 0.6547 0.0
H1112 H 0.12947 0.76976 0.6842 0.0
H1113 H 0.10098 0.70011 0.7177 0.0
H1114 H 0.11654 0.68797 0.70318 0.0
H1115 H 0.08895 0.70264 0.69993 0.0
C1116 C 0.10202 0.69642 0.66197 0.0
C1117 C 0.08447 0.70906 0.6547 0.0
C1118 C 0.11339 0.70605 0.67435 0.0
C1119 C 0.10711 0.72829 0.67997 0.0
C1120 C 0.08996 0.74121 0.67265 0.0
H1121 H 0.15312 0.77119 0.76653 0.0
H1122 H 0.12947 0.76056 0.74488 0.0
C1123 C 0.07877 0.73171 0.66012 0.0
C1124 C 0.11869 0.73805 0.69341 0.0
H1125 H 0.13285 0.72474 0.7273 0.0
C1126 C 0.13001 0.76005 0.69367 0.0
C1127 C 0.11897 0.72563 0.70587 0.0
C1128 C 0.10547 0.70292 0.70671 0.0
C1129 C 0.14227 0.76958 0.70592 0.0
C1130 C 0.1439 0.75638 0.71809 0.0
C1131 C 0.13193 0.73474 0.71793 0.0
C1132 C 0.15802 0.76442 0.73109 0.0
C1133 C 0.15303 0.79381 0.7057 0.0
C1134 C 0.18197 0.77014 0.73058 0.0
C1135 C 0.19543 0.77662 0.74294 0.0
C1136 C 0.18534 0.77692 0.75608 0.0
C1137 C 0.16142 0.77104 0.75657 0.0
C1138 C 0.14788 0.76498 0.7442 0.0
H1139 H 0.14364 0.8044 0.69773 0.0
H1140 H 0.15272 0.80348 0.71614 0.0
H1141 H 0.17157 0.79219 0.7028 0.0
H1142 H 0.19042 0.76912 0.72067 0.0
H1143 H 0.21388 0.78083 0.74224 0.0
H1144 H 0.41648 0.60608 0.87775 0.0
H1145 H 0.39642 0.62703 0.8968 0.0
H1146 H 0.4337 0.58558 0.9272 0.0
H1147 H 0.45311 0.56412 0.90828 0.0
H1148 H 0.38622 0.59153 0.93229 0.0
H1149 H 0.43007 0.67675 0.92371 0.0
H1150 H 0.41347 0.6631 0.9088 0.0
H1151 H 0.43954 0.64919 0.9157 0.0
C1152 C 0.4201 0.60121 0.88848 0.0
C1153 C 0.43659 0.58365 0.89154 0.0
C1154 C 0.40882 0.61335 0.89935 0.0
C1155 C 0.41392 0.60813 0.91342 0.0
C1156 C 0.42964 0.58998 0.91642 0.0
H1157 H 0.39957 0.65545 0.99841 0.0
H1158 H 0.40589 0.63469 0.97583 0.0
C1159 C 0.44086 0.57787 0.9056 0.0
C1160 C 0.4037 0.62193 0.9252 0.0
H1161 H 0.4057 0.67597 0.94276 0.0
C1162 C 0.39026 0.61006 0.93451 0.0
C1163 C 0.40897 0.64611 0.92804 0.0
C1164 C 0.42393 0.65959 0.91862 0.0
C1165 C 0.38248 0.62156 0.94679 0.0
C1166 C 0.38859 0.64545 0.94991 0.0
C1167 C 0.40112 0.65762 0.94031 0.0
C1168 C 0.38376 0.65762 0.96357 0.0
C1169 C 0.36809 0.60798 0.95643 0.0
C1170 C 0.36956 0.67766 0.96412 0.0
C1171 C 0.36592 0.68964 0.97704 0.0
C1172 C 0.37669 0.68193 0.98961 0.0
C1173 C 0.39098 0.66186 0.98896 0.0
C1174 C 0.39448 0.64986 0.97607 0.0
H1175 H 0.35934 0.59243 0.95076 0.0
H1176 H 0.37983 0.60159 0.96507 0.0
H1177 H 0.35447 0.61928 0.9612 0.0
H1178 H 0.36132 0.68402 0.95455 0.0
H1179 H 0.35487 0.70507 0.97715 0.0
H1180 H 0.49988 0.99854 0.14667 0.0
H1181 H 0.48373 0.97949 0.16644 0.0
H1182 H 0.54345 0.93339 0.16845 0.0
H1183 H 0.56017 0.95275 0.14899 0.0
H1184 H 0.494 0.91212 0.1695 0.0
H1185 H 0.51652 0.98713 0.20817 0.0
H1186 H 0.50202 0.99362 0.19156 0.0
H1187 H 0.53141 0.98246 0.19201 0.0
C1188 C 0.50969 0.98444 0.15135 0.0
C1189 C 0.53145 0.97732 0.14628 0.0
C1190 C 0.50035 0.97351 0.16259 0.0
C1191 C 0.51251 0.95519 0.16892 0.0
C1192 C 0.53382 0.94751 0.16366 0.0
H1193 H 0.50812 0.88668 0.24618 0.0
H1194 H 0.51766 0.90752 0.22549 0.0
C1195 C 0.54326 0.95852 0.15248 0.0
C1196 C 0.50341 0.94446 0.18131 0.0
H1197 H 0.49752 0.9544 0.21663 0.0
C1198 C 0.49456 0.92137 0.17979 0.0
C1199 C 0.50436 0.95663 0.19469 0.0
C1200 C 0.51418 0.9813 0.19684 0.0
C1201 C 0.48672 0.91004 0.1914 0.0
C1202 C 0.48783 0.92216 0.2048 0.0
C1203 C 0.49654 0.94529 0.20629 0.0
C1204 C 0.48155 0.91047 0.21755 0.0
C1205 C 0.47792 0.88498 0.1894 0.0
C1206 C 0.45801 0.90562 0.22001 0.0
C1207 C 0.45243 0.89384 0.23191 0.0
C1208 C 0.47037 0.88662 0.24145 0.0
C1209 C 0.49389 0.89192 0.23902 0.0
C1210 C 0.4994 0.90384 0.22722 0.0
H1211 H 0.4805 0.87724 0.17863 0.0
H1212 H 0.48714 0.87393 0.19718 0.0
H1213 H 0.45887 0.88442 0.19126 0.0
H1214 H 0.444 0.91077 0.21268 0.0
H1215 H 0.43416 0.88998 0.23349 0.0
H1216 H 0.10072 0.70567 0.93356 0.0
H1217 H 0.1244 0.72917 0.91877 0.0
H1218 H 0.06842 0.72519 0.88623 0.0
H1219 H 0.0447 0.70212 0.90097 0.0
H1220 H 0.1404 0.71463 0.89447 0.0
H1221 H 0.08655 0.79309 0.88539 0.0
H1222 H 0.08087 0.77352 0.89909 0.0
H1223 H 0.06944 0.76686 0.88126 0.0
C1224 C 0.09337 0.71015 0.92333 0.0
C1225 C 0.07082 0.70211 0.91845 0.0
C1226 C 0.10685 0.72365 0.91492 0.0
C1227 C 0.09805 0.72935 0.90147 0.0
C1228 C 0.07534 0.72174 0.89672 0.0
H1229 H 0.16488 0.73478 0.82561 0.0
H1230 H 0.14469 0.72714 0.84672 0.0
C1231 C 0.06181 0.70842 0.90515 0.0
C1232 C 0.11345 0.74067 0.89171 0.0
H1233 H 0.11396 0.78247 0.86738 0.0
C1234 C 0.13482 0.72978 0.88878 0.0
C1235 C 0.10645 0.76069 0.8844 0.0
C1236 C 0.08469 0.77435 0.88782 0.0
C1237 C 0.14853 0.73733 0.87811 0.0
C1238 C 0.14041 0.75593 0.86994 0.0
C1239 C 0.11993 0.76793 0.87349 0.0
C1240 C 0.15183 0.76154 0.85694 0.0
C1241 C 0.17131 0.72488 0.87544 0.0
C1242 C 0.16175 0.78382 0.85543 0.0
C1243 C 0.17328 0.78836 0.84323 0.0
C1244 C 0.1749 0.77069 0.83238 0.0
C1245 C 0.1642 0.74872 0.8338 0.0
C1246 C 0.15273 0.74425 0.84591 0.0
H1247 H 0.17863 0.71673 0.88505 0.0
H1248 H 0.16801 0.71062 0.86711 0.0
H1249 H 0.18465 0.73714 0.87185 0.0
H1250 H 0.16102 0.79747 0.86379 0.0
H1251 H 0.18129 0.80548 0.84241 0.0
H1252 H 0.51062 0.59112 0.14805 0.0
H1253 H 0.48501 0.61235 0.13186 0.0
H1254 H 0.42741 0.56584 0.13883 0.0
H1255 H 0.45281 0.54471 0.15537 0.0
H1256 H 0.4358 0.57069 0.11018 0.0
H1257 H 0.43007 0.65763 0.13895 0.0
H1258 H 0.45968 0.64725 0.13798 0.0
H1259 H 0.43904 0.63138 0.14754 0.0
C1260 C 0.49237 0.58571 0.14645 0.0
C1261 C 0.4838 0.5662 0.15307 0.0
C1262 C 0.47775 0.59788 0.13716 0.0
C1263 C 0.45424 0.59086 0.1343 0.0
C1264 C 0.44548 0.5716 0.14097 0.0
H1265 H 0.3663 0.67299 0.07576 0.0
H1266 H 0.37708 0.64974 0.0961 0.0
C1267 C 0.46008 0.55946 0.15034 0.0
C1268 C 0.43956 0.60255 0.12347 0.0
H1269 H 0.42068 0.65649 0.11396 0.0
C1270 C 0.43209 0.58936 0.11111 0.0
C1271 C 0.43449 0.62684 0.12476 0.0
C1272 C 0.44103 0.64158 0.13808 0.0
C1273 C 0.42101 0.60014 0.09965 0.0
C1274 C 0.41748 0.62471 0.10058 0.0
C1275 C 0.42357 0.63766 0.11325 0.0
C1276 C 0.40993 0.6376 0.08807 0.0
C1277 C 0.41381 0.5853 0.08647 0.0
C1278 C 0.42489 0.63847 0.07692 0.0
C1279 C 0.41893 0.6518 0.06544 0.0
C1280 C 0.39783 0.6645 0.06484 0.0
C1281 C 0.38261 0.66329 0.07591 0.0
C1282 C 0.38874 0.65008 0.08752 0.0
H1283 H 0.41163 0.5665 0.0887 0.0
H1284 H 0.3971 0.59165 0.0815 0.0
H1285 H 0.42767 0.58647 0.0788 0.0
H1286 H 0.44148 0.62925 0.07726 0.0
H1287 H 0.43104 0.65234 0.0571 0.0
H1288 H 0.55844 0.93173 0.42037 0.0
H1289 H 0.53835 0.90935 0.40053 0.0
H1290 H 0.49193 0.96767 0.39365 0.0
H1291 H 0.51279 0.99072 0.41286 0.0
H1292 H 0.49366 0.89449 0.39275 0.0
H1293 H 0.52337 0.96028 0.35666 0.0
H1294 H 0.53391 0.96036 0.37486 0.0
H1295 H 0.50563 0.97253 0.37018 0.0
C1296 C 0.54393 0.93981 0.41466 0.0
C1297 C 0.53762 0.96325 0.41804 0.0
C1298 C 0.53233 0.9269 0.4034 0.0
C1299 C 0.51409 0.9371 0.39538 0.0
C1300 C 0.50639 0.9597 0.39948 0.0
H1301 H 0.42893 0.86423 0.32693 0.0
H1302 H 0.44324 0.88225 0.34975 0.0
C1303 C 0.51815 0.97274 0.41062 0.0
C1304 C 0.50444 0.92479 0.38215 0.0
H1305 H 0.4982 0.93002 0.34663 0.0
C1306 C 0.4946 0.90222 0.38265 0.0
C1307 C 0.50616 0.93474 0.36896 0.0
C1308 C 0.51805 0.95819 0.36756 0.0
C1309 C 0.48628 0.88938 0.37031 0.0
C1310 C 0.48737 0.89966 0.35717 0.0
C1311 C 0.49724 0.92221 0.35671 0.0
C1312 C 0.47888 0.88735 0.34368 0.0
C1313 C 0.47706 0.86472 0.37143 0.0
C1314 C 0.49403 0.88458 0.33258 0.0
C1315 C 0.48579 0.87471 0.31945 0.0
C1316 C 0.46226 0.86726 0.31717 0.0
C1317 C 0.44722 0.8696 0.32838 0.0
C1318 C 0.45541 0.87976 0.34147 0.0
H1319 H 0.48371 0.85711 0.38137 0.0
H1320 H 0.45758 0.86511 0.3714 0.0
H1321 H 0.48209 0.85295 0.36241 0.0
H1322 H 0.5122 0.89036 0.33402 0.0
H1323 H 0.49785 0.8731 0.31106 0.0
H1324 H 0.22853 0.08197 0.68172 0.0
H1325 H 0.25246 0.06167 0.66426 0.0
H1326 H 0.19306 0.01774 0.64988 0.0
H1327 H 0.16892 0.03812 0.66698 0.0
H1328 H 0.23808 0.99366 0.65322 0.0
H1329 H 0.24088 0.07249 0.62126 0.0
H1330 H 0.25007 0.0762 0.63965 0.0
H1331 H 0.21987 0.06954 0.63456 0.0
C1332 C 0.22057 0.06794 0.67487 0.0
C1333 C 0.19673 0.06178 0.67573 0.0
C1334 C 0.2343 0.05634 0.66493 0.0
C1335 C 0.22443 0.03839 0.65572 0.0
C1336 C 0.201 0.03153 0.65694 0.0
H1337 H 0.23757 0.97581 0.57518 0.0
H1338 H 0.22998 0.99905 0.59673 0.0
C1339 C 0.18726 0.04313 0.6668 0.0
C1340 C 0.23785 0.02745 0.64422 0.0
H1341 H 0.25692 0.03762 0.61175 0.0
C1342 C 0.24264 0.00331 0.64426 0.0
C1343 C 0.24357 0.04014 0.63252 0.0
C1344 C 0.23827 0.066 0.63185 0.0
C1345 C 0.25223 0.99131 0.63265 0.0
C1346 C 0.25721 0.00385 0.62076 0.0
C1347 C 0.25325 0.02816 0.62095 0.0
C1348 C 0.2634 0.99151 0.60739 0.0
C1349 C 0.25571 0.96508 0.63282 0.0
C1350 C 0.28501 0.98005 0.60612 0.0
C1351 C 0.28949 0.96677 0.59372 0.0
C1352 C 0.27233 0.96467 0.58249 0.0
C1353 C 0.2511 0.97694 0.58366 0.0
C1354 C 0.24674 0.99029 0.59596 0.0
H1355 H 0.24857 0.9576 0.64223 0.0
H1356 H 0.24706 0.95611 0.62322 0.0
H1357 H 0.27478 0.96117 0.63283 0.0
H1358 H 0.29816 0.98099 0.61481 0.0
H1359 H 0.30599 0.9575 0.59312 0.0
H1360 H 0.60832 0.44723 0.86625 0.0
H1361 H 0.62856 0.42631 0.88493 0.0
H1362 H 0.56182 0.40676 0.90027 0.0
H1363 H 0.54149 0.42912 0.88237 0.0
H1364 H 0.58841 0.42462 0.92086 0.0
H1365 H 0.6416 0.35937 0.89199 0.0
H1366 H 0.64735 0.38835 0.88657 0.0
H1367 H 0.61839 0.37558 0.88331 0.0
C1368 C 0.59789 0.43844 0.87356 0.0
C1369 C 0.5732 0.44011 0.87278 0.0
C1370 C 0.60953 0.42607 0.88411 0.0
C1371 C 0.59675 0.41461 0.89392 0.0
C1372 C 0.57209 0.41532 0.89278 0.0
H1373 H 0.67453 0.34005 0.96061 0.0
H1374 H 0.6474 0.34749 0.94039 0.0
C1375 C 0.56046 0.42798 0.88239 0.0
C1376 C 0.60903 0.40433 0.9063 0.0
H1377 H 0.65507 0.36956 0.91621 0.0
C1378 C 0.60271 0.41225 0.9198 0.0
C1379 C 0.62745 0.38785 0.90502 0.0
C1380 C 0.63389 0.37711 0.89093 0.0
C1381 C 0.615 0.40514 0.93197 0.0
C1382 C 0.63467 0.39027 0.93065 0.0
C1383 C 0.64023 0.38127 0.91722 0.0
C1384 C 0.65062 0.3854 0.94298 0.0
C1385 C 0.6069 0.41387 0.94615 0.0
C1386 C 0.66162 0.40418 0.95101 0.0
C1387 C 0.67687 0.40003 0.96255 0.0
C1388 C 0.68178 0.37693 0.96623 0.0
C1389 C 0.67099 0.35804 0.95809 0.0
C1390 C 0.65555 0.36225 0.94653 0.0
H1391 H 0.58778 0.41777 0.94556 0.0
H1392 H 0.61043 0.40083 0.95422 0.0
H1393 H 0.6164 0.43044 0.94962 0.0
H1394 H 0.65861 0.42215 0.94825 0.0
H1395 H 0.68505 0.41499 0.96847 0.0
H1396 H 0.69431 0.08806 0.13379 0.0
H1397 H 0.7196 0.10653 0.15291 0.0
H1398 H 0.68102 0.17115 0.14974 0.0
H1399 H 0.65551 0.15273 0.13058 0.0
H1400 H 0.74831 0.14735 0.15668 0.0
H1401 H 0.67106 0.15175 0.18991 0.0
H1402 H 0.67063 0.1351 0.17321 0.0
H1403 H 0.66758 0.16653 0.17377 0.0
C1404 C 0.69157 0.10639 0.13689 0.0
C1405 C 0.67276 0.11889 0.13077 0.0
C1406 C 0.706 0.11689 0.14786 0.0
C1407 C 0.70187 0.14003 0.1529 0.0
C1408 C 0.68417 0.1531 0.14617 0.0
H1409 H 0.78679 0.21635 0.2204 0.0
H1410 H 0.76816 0.20359 0.19744 0.0
C1411 C 0.66964 0.14258 0.13524 0.0
C1412 C 0.71472 0.1496 0.16593 0.0
H1413 H 0.70692 0.1668 0.20025 0.0
C1414 C 0.73931 0.15176 0.1662 0.0
C1415 C 0.70289 0.15494 0.17838 0.0
C1416 C 0.67662 0.1518 0.17892 0.0
C1417 C 0.75242 0.1591 0.17864 0.0
C1418 C 0.74053 0.16464 0.19103 0.0
C1419 C 0.71595 0.16262 0.19071 0.0
C1420 C 0.75315 0.17176 0.20463 0.0
C1421 C 0.77888 0.16015 0.17854 0.0
C1422 C 0.7507 0.1582 0.21631 0.0
C1423 C 0.76114 0.16551 0.22945 0.0
C1424 C 0.77419 0.1866 0.2312 0.0
C1425 C 0.77695 0.19996 0.21941 0.0
C1426 C 0.76643 0.19264 0.20625 0.0
H1427 H 0.78548 0.15022 0.1692 0.0
H1428 H 0.78459 0.17876 0.17824 0.0
H1429 H 0.78713 0.15298 0.18821 0.0
H1430 H 0.74046 0.14204 0.21527 0.0
H1431 H 0.75868 0.15477 0.23829 0.0
H1432 H 0.05254 0.13021 0.40041 0.0
H1433 H 0.03061 0.15519 0.41661 0.0
H1434 H 0.07429 0.21453 0.40882 0.0
H1435 H 0.09604 0.18981 0.39223 0.0
H1436 H 0.07048 0.20564 0.43785 0.0
H1437 H 0.98308 0.20872 0.40926 0.0
H1438 H 0.99483 0.1796 0.41019 0.0
H1439 H 0.0096 0.20095 0.40057 0.0
C1440 C 0.05717 0.14869 0.40183 0.0
C1441 C 0.07608 0.15797 0.39497 0.0
C1442 C 0.04461 0.16295 0.41113 0.0
C1443 C 0.05066 0.18675 0.41378 0.0
C1444 C 0.0693 0.1962 0.40685 0.0
H1445 H 0.9701 0.27649 0.47231 0.0
H1446 H 0.99283 0.26463 0.4519 0.0
C1447 C 0.0818 0.18199 0.39746 0.0
C1448 C 0.03866 0.20113 0.42462 0.0
H1449 H 0.9844 0.2192 0.43407 0.0
C1450 C 0.05173 0.20899 0.43693 0.0
C1451 C 0.01426 0.20564 0.42333 0.0
C1452 C -0.00038 0.19849 0.41007 0.0
C1453 C 0.04078 0.22005 0.44834 0.0
C1454 C 0.01617 0.22324 0.44737 0.0
C1455 C 0.00328 0.21661 0.43477 0.0
C1456 C 0.00326 0.23116 0.4598 0.0
C1457 C 0.05545 0.22763 0.46151 0.0
C1458 C 0.0016 0.2162 0.47088 0.0
C1459 C 0.98856 0.22276 0.4824 0.0
C1460 C 0.97698 0.24451 0.48311 0.0
C1461 C 0.97892 0.25968 0.47208 0.0
C1462 C 0.99182 0.25294 0.46043 0.0
H1463 H 0.07438 0.22916 0.45945 0.0
H1464 H 0.04935 0.24478 0.46606 0.0
H1465 H 0.05361 0.21436 0.46948 0.0
H1466 H 0.01011 0.19922 0.47049 0.0
H1467 H 0.98744 0.21068 0.49071 0.0
H1468 H 0.92747 0.60601 0.64209 0.0
H1469 H 0.90631 0.58425 0.65871 0.0
H1470 H 0.92392 0.51892 0.6368 0.0
H1471 H 0.94373 0.5406 0.61944 0.0
H1472 H 0.87999 0.51715 0.64667 0.0
H1473 H 0.94411 0.55219 0.68892 0.0
H1474 H 0.92775 0.57454 0.68025 0.0
H1475 H 0.94774 0.55638 0.67056 0.0
C1476 C 0.92632 0.58706 0.64048 0.0
C1477 C 0.9377 0.5751 0.62946 0.0
C1478 C 0.91445 0.57462 0.65016 0.0
C1479 C 0.91413 0.54995 0.64925 0.0
C1480 C 0.92418 0.53797 0.63781 0.0
H1481 H 0.91143 0.457 0.71582 0.0
H1482 H 0.91933 0.48146 0.69649 0.0
C1483 C 0.93576 0.55041 0.62798 0.0
C1484 C 0.90496 0.53658 0.66072 0.0
H1485 H 0.91381 0.5279 0.69577 0.0
C1486 C 0.88728 0.51953 0.65743 0.0
C1487 C 0.91471 0.53955 0.67473 0.0
C1488 C 0.93477 0.55648 0.67884 0.0
C1489 C 0.87935 0.50512 0.66773 0.0
C1490 C 0.88904 0.50823 0.68173 0.0
C1491 C 0.90631 0.52564 0.68505 0.0
C1492 C 0.88325 0.49241 0.69292 0.0
C1493 C 0.86142 0.4861 0.66341 0.0
C1494 C 0.86024 0.49025 0.69733 0.0
C1495 C 0.85558 0.47596 0.70837 0.0
C1496 C 0.87396 0.46395 0.71529 0.0
C1497 C 0.89689 0.46612 0.71078 0.0
C1498 C 0.90145 0.48011 0.69971 0.0
H1499 H 0.85977 0.4826 0.6518 0.0
H1500 H 0.86611 0.46945 0.66837 0.0
H1501 H 0.84398 0.49171 0.66695 0.0
H1502 H 0.84599 0.49994 0.69243 0.0
H1503 H 0.83776 0.47469 0.71167 0.0
H1504 H 0.64184 0.13213 0.39912 0.0
H1505 H 0.65824 0.15091 0.37934 0.0
H1506 H 0.72147 0.11025 0.38455 0.0
H1507 H 0.70551 0.09186 0.4046 0.0
H1508 H 0.72945 0.1584 0.37975 0.0
H1509 H 0.66407 0.11595 0.34054 0.0
H1510 H 0.65203 0.13238 0.35509 0.0
H1511 H 0.66862 0.10627 0.35819 0.0
C1512 C 0.65939 0.12743 0.3962 0.0
C1513 C 0.67232 0.11038 0.40339 0.0
C1514 C 0.66862 0.13802 0.38481 0.0
C1515 C 0.6909 0.13169 0.38036 0.0
C1516 C 0.70416 0.11526 0.38777 0.0
H1517 H 0.75692 0.13919 0.30272 0.0
H1518 H 0.73679 0.12923 0.32353 0.0
C1519 C 0.69495 0.10465 0.39916 0.0
C1520 C 0.70022 0.14164 0.36774 0.0
H1521 H 0.69155 0.14186 0.33198 0.0
C1522 C 0.7211 0.15497 0.36931 0.0
C1523 C 0.68935 0.13692 0.35414 0.0
C1524 C 0.66738 0.12195 0.35179 0.0
C1525 C 0.73158 0.16347 0.35758 0.0
C1526 C 0.72073 0.15871 0.34398 0.0
C1527 C 0.69968 0.14566 0.34245 0.0
C1528 C 0.73197 0.16532 0.33111 0.0
C1529 C 0.75464 0.1767 0.35977 0.0
C1530 C 0.73556 0.18898 0.32833 0.0
C1531 C 0.7471 0.19479 0.31638 0.0
C1532 C 0.7552 0.17698 0.30704 0.0
C1533 C 0.751 0.15334 0.30971 0.0
C1534 C 0.73946 0.1476 0.3216 0.0
H1535 H 0.76279 0.17515 0.37055 0.0
H1536 H 0.76725 0.17012 0.35201 0.0
H1537 H 0.7516 0.19561 0.35818 0.0
H1538 H 0.72958 0.20293 0.33544 0.0
H1539 H 0.75001 0.21315 0.31458 0.0
H1540 H 0.07147 0.23189 0.66143 0.0
H1541 H 0.05192 0.25353 0.64264 0.0
H1542 H 0.00394 0.19526 0.63291 0.0
H1543 H 0.02267 0.17403 0.65196 0.0
H1544 H 0.04942 0.2407 0.61497 0.0
H1545 H 0.95931 0.24991 0.633 0.0
H1546 H 0.9838 0.24177 0.64454 0.0
H1547 H 0.96862 0.21988 0.63293 0.0
C1548 C 0.0564 0.22394 0.6555 0.0
C1549 C 0.04867 0.2012 0.65816 0.0
C1550 C 0.04534 0.23626 0.64472 0.0
C1551 C 0.02626 0.22615 0.6365 0.0
C1552 C 0.01828 0.20365 0.63931 0.0
H1553 H 0.98135 0.23727 0.55084 0.0
H1554 H 0.00066 0.22972 0.57361 0.0
C1555 C 0.02924 0.19138 0.65008 0.0
C1556 C 0.01589 0.23806 0.62421 0.0
H1557 H 0.96339 0.25244 0.60798 0.0
C1558 C 0.03065 0.24366 0.61355 0.0
C1559 C 0.99148 0.24234 0.62244 0.0
C1560 C 0.97495 0.2384 0.63392 0.0
C1561 C 0.02148 0.25209 0.60084 0.0
C1562 C 0.99686 0.25446 0.59862 0.0
C1563 C 0.98225 0.25024 0.6096 0.0
C1564 C 0.98579 0.25984 0.58472 0.0
C1565 C 0.03826 0.2581 0.58985 0.0
C1566 C 0.97051 0.27895 0.58346 0.0
C1567 C 0.95917 0.28318 0.57045 0.0
C1568 C 0.96285 0.26828 0.55848 0.0
C1569 C 0.97823 0.2492 0.5598 0.0
C1570 C 0.98945 0.24495 0.57281 0.0
H1571 H 0.05591 0.26301 0.59474 0.0
H1572 H 0.04041 0.24248 0.58254 0.0
H1573 H 0.03158 0.27283 0.58364 0.0
H1574 H 0.96729 0.29054 0.59256 0.0
H1575 H 0.94742 0.29802 0.5698 0.0
H1576 H 0.97206 0.53437 0.88533 0.0
H1577 H 0.95447 0.51315 0.8643 0.0
H1578 H 0.88624 0.54002 0.874 0.0
H1579 H 0.90376 0.56136 0.89517 0.0
H1580 H 0.91938 0.47883 0.86213 0.0
H1581 H 0.89258 0.55724 0.83314 0.0
H1582 H 0.9128 0.55909 0.84846 0.0
H1583 H 0.88176 0.55618 0.85045 0.0
C1584 C 0.95327 0.53563 0.88307 0.0
C1585 C 0.93929 0.54952 0.89193 0.0
C1586 C 0.94327 0.52358 0.87102 0.0
C1587 C 0.91911 0.52522 0.86752 0.0
C1588 C 0.905 0.53888 0.87638 0.0
H1589 H 0.84532 0.4311 0.80365 0.0
H1590 H 0.85796 0.45264 0.82576 0.0
C1591 C 0.91503 0.55103 0.88846 0.0
C1592 C 0.90887 0.51236 0.85464 0.0
H1593 H 0.88168 0.52005 0.82238 0.0
C1594 C 0.91104 0.4878 0.85345 0.0
C1595 C 0.89825 0.52419 0.8433 0.0
C1596 C 0.89633 0.55064 0.84378 0.0
C1597 C 0.90301 0.47472 0.84117 0.0
C1598 C 0.89216 0.48651 0.82989 0.0
C1599 C 0.88987 0.51107 0.8311 0.0
C1600 C 0.88399 0.47379 0.81649 0.0
C1601 C 0.90686 0.44848 0.84022 0.0
C1602 C 0.89404 0.47897 0.80391 0.0
C1603 C 0.88676 0.4668 0.79124 0.0
C1604 C 0.86923 0.44927 0.79091 0.0
C1605 C 0.85898 0.44435 0.80353 0.0
C1606 C 0.86625 0.45658 0.81619 0.0
H1607 H 0.92023 0.44304 0.84832 0.0
H1608 H 0.89009 0.43934 0.8419 0.0
H1609 H 0.9126 0.44253 0.82966 0.0
H1610 H 0.90772 0.49225 0.80392 0.0
H1611 H 0.89499 0.4711 0.78172 0.0
H1612 H 0.65515 0.46743 0.1412 0.0
H1613 H 0.67469 0.4521 0.12045 0.0
H1614 H 0.64392 0.3837 0.12467 0.0
H1615 H 0.62418 0.39897 0.14546 0.0
H1616 H 0.706 0.41578 0.11567 0.0
H1617 H 0.62108 0.39947 0.08493 0.0
H1618 H 0.62317 0.41634 0.10158 0.0
H1619 H 0.62387 0.38475 0.1011 0.0
C1620 C 0.65286 0.44902 0.13788 0.0
C1621 C 0.63799 0.43443 0.14492 0.0
C1622 C 0.66396 0.44031 0.12597 0.0
C1623 C 0.6604 0.4169 0.12087 0.0
C1624 C 0.64647 0.40198 0.12825 0.0
H1625 H 0.7373 0.34735 0.05358 0.0
H1626 H 0.72218 0.3595 0.07637 0.0
C1627 C 0.63524 0.4107 0.14013 0.0
C1628 C 0.67052 0.40849 0.10752 0.0
H1629 H 0.6555 0.38745 0.07391 0.0
C1630 C 0.695 0.40952 0.10653 0.0
C1631 C 0.65607 0.4007 0.09557 0.0
C1632 C 0.62958 0.40042 0.09574 0.0
C1633 C 0.70544 0.40289 0.09391 0.0
C1634 C 0.691 0.39464 0.08205 0.0
C1635 C 0.66653 0.39363 0.08305 0.0
C1636 C 0.70075 0.38757 0.06835 0.0
C1637 C 0.73174 0.40539 0.09327 0.0
C1638 C 0.69338 0.39902 0.05623 0.0
C1639 C 0.70178 0.39198 0.04316 0.0
C1640 C 0.71774 0.3733 0.04196 0.0
C1641 C 0.72517 0.36191 0.05414 0.0
C1642 C 0.71665 0.36891 0.0672 0.0
H1643 H 0.73938 0.4175 0.10192 0.0
H1644 H 0.73998 0.38792 0.09434 0.0
H1645 H 0.7364 0.41204 0.08305 0.0
H1646 H 0.68105 0.41342 0.05688 0.0
H1647 H 0.69569 0.40114 0.03401 0.0
loop_
_geom_bond_atom_site_label_1
_geom_bond_atom_site_label_2
_geom_bond_distance
_geom_bond_site_symmetry_2
_ccdc_geom_bond_type
H0 C19 0.949 . S
H1 C20 0.950 . S
H2 C22 0.950 . S
H3 C23 0.950 . S
H4 C25 0.950 . S
H5 C28 0.950 . S
H6 C29 0.950 . S
H7 C31 0.951 . S
H8 C32 0.949 . S
H9 C34 0.949 . S
H10 C35 0.950 . S
H11 C37 0.950 . S
H12 C38 0.950 . S
H13 C40 0.950 . S
H14 C43 0.950 . S
H15 C44 0.950 . S
H16 C46 0.951 . S
H17 C47 0.949 . S
C18 C19 1.376 . S
C18 C23 1.386 . S
C18 C24 1.483 . S
C19 H0 0.949 . S
C19 C18 1.376 . S
C19 C20 1.397 . S
C20 H1 0.950 . S
C20 C19 1.397 . S
C20 C21 1.391 . S
C21 C20 1.391 . S
C21 C22 1.405 . S
C22 H2 0.950 . S
C22 C21 1.405 . S
C22 C23 1.367 . S
C23 H3 0.950 . S
C23 C18 1.386 . S
C23 C22 1.367 . S
C24 C18 1.483 . S
C24 C25 1.382 . S
C24 C26 1.403 . S
C25 H4 0.950 . S
C25 C24 1.382 . S
C25 C41 1.411 . S
C26 C24 1.403 . S
C26 C27 1.489 . S
C26 C40 1.411 . S
C27 C26 1.489 . S
C27 C28 1.383 . S
C27 C32 1.382 . S
C28 H5 0.950 . S
C28 C27 1.383 . S
C28 C29 1.395 . S
C29 H6 0.950 . S
C29 C28 1.395 . S
C29 C30 1.288 . S
C30 C29 1.288 . S
C30 C31 1.392 . S
C31 H7 0.951 . S
C31 C30 1.392 . S
C31 C32 1.392 . S
C32 H8 0.949 . S
C32 C27 1.382 . S
C32 C31 1.392 . S
C33 C34 1.376 1_545 S
C33 C38 1.386 . S
C33 C39 1.483 . S
C34 H9 0.949 . S
C34 C33 1.376 1_565 S
C34 C35 1.397 . S
C35 H10 0.950 . S
C35 C34 1.397 . S
C35 C36 1.391 . S
C36 C35 1.391 . S
C36 C37 1.405 1_565 S
C37 H11 0.950 . S
C37 C36 1.405 1_545 S
C37 C38 1.367 . S
C38 H12 0.950 . S
C38 C33 1.386 . S
C38 C37 1.367 . S
C39 C33 1.483 . S
C39 C40 1.382 . S
C39 C41 1.403 . S
C40 H13 0.950 . S
C40 C26 1.411 . S
C40 C39 1.382 . S
C41 C25 1.411 . S
C41 C39 1.403 . S
C41 C42 1.489 . S
C42 C41 1.489 . S
C42 C43 1.383 1_545 S
C42 C47 1.382 . S
C43 H14 0.950 . S
C43 C42 1.383 1_565 S
C43 C44 1.395 . S
C44 H15 0.950 . S
C44 C43 1.395 . S
C44 C45 1.265 1_565 S
C45 C44 1.265 1_545 S
C45 C46 1.437 . S
C46 H16 0.951 . S
C46 C45 1.437 . S
C46 C47 1.392 . S
C47 H17 0.949 . S
C47 C42 1.382 . S
C47 C46 1.392 . S
H48 C67 0.949 . S
H49 C68 0.950 . S
H50 C70 0.950 . S
H51 C71 0.950 . S
H52 C73 0.950 . S
H53 C76 0.950 . S
H54 C77 0.950 . S
H55 C79 0.951 . S
H56 C80 0.949 . S
H57 C82 0.949 . S
H58 C83 0.950 . S
H59 C85 0.950 . S
H60 C86 0.950 . S
H61 C88 0.950 . S
H62 C91 0.950 . S
H63 C92 0.950 . S
H64 C94 0.951 . S
H65 C95 0.949 . S
C66 C67 1.376 . S
C66 C71 1.386 1_455 S
C66 C72 1.483 . S
C67 H48 0.949 . S
C67 C66 1.376 . S
C67 C68 1.397 . S
C68 H49 0.950 . S
C68 C67 1.397 . S
C68 C69 1.403 . S
C69 C68 1.403 . S
C69 C70 1.398 1_455 S
C70 H50 0.950 . S
C70 C69 1.398 1_655 S
C70 C71 1.367 . S
C71 H51 0.950 . S
C71 C66 1.386 1_655 S
C71 C70 1.367 . S
C72 C66 1.483 . S
C72 C73 1.382 . S
C72 C74 1.403 . S
C73 H52 0.950 . S
C73 C72 1.382 . S
C73 C89 1.411 . S
C74 C72 1.403 . S
C74 C75 1.489 . S
C74 C88 1.411 . S
C75 C74 1.489 . S
C75 C76 1.383 . S
C75 C80 1.382 1_455 S
C76 H53 0.950 . S
C76 C75 1.383 . S
C76 C77 1.395 1_455 S
C77 H54 0.950 . S
C77 C76 1.395 1_655 S
C77 C78 1.288 . S
C78 C77 1.288 . S
C78 C79 1.392 . S
C79 H55 0.951 . S
C79 C78 1.392 . S
C79 C80 1.392 . S
C80 H56 0.949 . S
C80 C75 1.382 1_655 S
C80 C79 1.392 . S
C81 C82 1.376 . S
C81 C86 1.386 . S
C81 C87 1.483 . S
C82 H57 0.949 . S
C82 C81 1.376 . S
C82 C83 1.397 . S
C83 H58 0.950 . S
C83 C82 1.397 . S
C83 C84 1.391 . S
C84 C83 1.391 . S
C84 C85 1.405 . S
C85 H59 0.950 . S
C85 C84 1.405 . S
C85 C86 1.367 . S
C86 H60 0.950 . S
C86 C81 1.386 . S
C86 C85 1.367 . S
C87 C81 1.483 . S
C87 C88 1.382 . S
C87 C89 1.403 . S
C88 H61 0.950 . S
C88 C74 1.411 . S
C88 C87 1.382 . S
C89 C73 1.411 . S
C89 C87 1.403 . S
C89 C90 1.489 . S
C90 C89 1.489 . S
C90 C91 1.383 . S
C90 C95 1.382 . S
C91 H62 0.950 . S
C91 C90 1.383 . S
C91 C92 1.395 . S
C92 H63 0.950 . S
C92 C91 1.395 . S
C92 C93 1.288 . S
C93 C92 1.288 . S
C93 C94 1.392 . S
C94 H64 0.951 . S
C94 C93 1.392 . S
C94 C95 1.392 . S
C95 H65 0.949 . S
C95 C90 1.382 . S
C95 C94 1.392 . S
H96 C115 0.949 . S
H97 C116 0.950 . S
H98 C118 0.950 . S
H99 C119 0.950 . S
H100 C121 0.950 . S
H101 C124 0.950 . S
H102 C125 0.950 . S
H103 C127 0.951 . S
H104 C128 0.949 . S
H105 C130 0.949 . S
H106 C131 0.950 . S
H107 C133 0.950 . S
H108 C134 0.950 . S
H109 C136 0.950 . S
H110 C139 0.950 . S
H111 C140 0.950 . S
H112 C142 0.951 . S
H113 C143 0.949 . S
C114 C115 1.376 . S
C114 C119 1.386 . S
C114 C120 1.483 . S
C115 H96 0.949 . S
C115 C114 1.376 . S
C115 C116 1.397 . S
C116 H97 0.950 . S
C116 C115 1.397 . S
C116 C117 1.391 . S
C117 C116 1.391 . S
C117 C118 1.405 . S
C118 H98 0.950 . S
C118 C117 1.405 . S
C118 C119 1.367 . S
C119 H99 0.950 . S
C119 C114 1.386 . S
C119 C118 1.367 . S
C120 C114 1.483 . S
C120 C121 1.382 . S
C120 C122 1.403 . S
C121 H100 0.950 . S
C121 C120 1.382 . S
C121 C137 1.411 . S
C122 C120 1.403 . S
C122 C123 1.489 . S
C122 C136 1.411 . S
C123 C122 1.489 . S
C123 C124 1.383 . S
C123 C128 1.382 . S
C124 H101 0.950 . S
C124 C123 1.383 . S
C124 C125 1.395 . S
C125 H102 0.950 . S
C125 C124 1.395 . S
C125 C126 1.288 . S
C126 C125 1.288 . S
C126 C127 1.392 . S
C127 H103 0.951 . S
C127 C126 1.392 . S
C127 C128 1.392 . S
C128 H104 0.949 . S
C128 C123 1.382 . S
C128 C127 1.392 . S
C129 C130 1.376 . S
C129 C134 1.386 . S
C129 C135 1.483 . S
C130 H105 0.949 . S
C130 C129 1.376 . S
C130 C131 1.397 . S
C131 H106 0.950 . S
C131 C130 1.397 . S
C131 C132 1.391 . S
C132 C131 1.391 . S
C132 C133 1.405 . S
C133 H107 0.950 . S
C133 C132 1.405 . S
C133 C134 1.367 . S
C134 H108 0.950 . S
C134 C129 1.386 . S
C134 C133 1.367 . S
C135 C129 1.483 . S
C135 C136 1.382 . S
C135 C137 1.403 . S
C136 H109 0.950 . S
C136 C122 1.411 . S
C136 C135 1.382 . S
C137 C121 1.411 . S
C137 C135 1.403 . S
C137 C138 1.489 . S
C138 C137 1.489 . S
C138 C139 1.383 . S
C138 C143 1.382 . S
C139 H110 0.950 . S
C139 C138 1.383 . S
C139 C140 1.395 . S
C140 H111 0.950 . S
C140 C139 1.395 . S
C140 C141 1.288 . S
C141 C140 1.288 . S
C141 C142 1.392 . S
C142 H112 0.951 . S
C142 C141 1.392 . S
C142 C143 1.392 . S
C143 H113 0.949 . S
C143 C138 1.382 . S
C143 C142 1.392 . S
H144 C163 0.949 . S
H145 C164 0.950 . S
H146 C166 0.950 . S
H147 C167 0.950 . S
H148 C169 0.950 . S
H149 C172 0.950 . S
H150 C173 0.950 . S
H151 C175 0.951 . S
H152 C176 0.949 . S
H153 C178 0.949 . S
H154 C179 0.950 . S
H155 C181 0.950 . S
H156 C182 0.950 . S
H157 C184 0.950 . S
H158 C187 0.950 . S
H159 C188 0.950 . S
H160 C190 0.951 . S
H161 C191 0.949 . S
C162 C163 1.376 . S
C162 C167 1.386 . S
C162 C168 1.483 . S
C163 H144 0.949 . S
C163 C162 1.376 . S
C163 C164 1.397 . S
C164 H145 0.950 . S
C164 C163 1.397 . S
C164 C165 1.391 . S
C165 C164 1.391 . S
C165 C166 1.405 . S
C166 H146 0.950 . S
C166 C165 1.405 . S
C166 C167 1.367 . S
C167 H147 0.950 . S
C167 C162 1.386 . S
C167 C166 1.367 . S
C168 C162 1.483 . S
C168 C169 1.382 . S
C168 C170 1.403 . S
C169 H148 0.950 . S
C169 C168 1.382 . S
C169 C185 1.411 1_565 S
C170 C168 1.403 . S
C170 C171 1.489 . S
C170 C184 1.411 1_565 S
C171 C170 1.489 . S
C171 C172 1.383 . S
C171 C176 1.382 . S
C172 H149 0.950 . S
C172 C171 1.383 . S
C172 C173 1.395 . S
C173 H150 0.950 . S
C173 C172 1.395 . S
C173 C174 1.288 . S
C174 C173 1.288 . S
C174 C175 1.392 . S
C175 H151 0.951 . S
C175 C174 1.392 . S
C175 C176 1.392 . S
C176 H152 0.949 . S
C176 C171 1.382 . S
C176 C175 1.392 . S
C177 C178 1.376 . S
C177 C182 1.386 . S
C177 C183 1.483 . S
C178 H153 0.949 . S
C178 C177 1.376 . S
C178 C179 1.397 . S
C179 H154 0.950 . S
C179 C178 1.397 . S
C179 C180 1.391 . S
C180 C179 1.391 . S
C180 C181 1.405 . S
C181 H155 0.950 . S
C181 C180 1.405 . S
C181 C182 1.367 . S
C182 H156 0.950 . S
C182 C177 1.386 . S
C182 C181 1.367 . S
C183 C177 1.483 . S
C183 C184 1.382 . S
C183 C185 1.403 . S
C184 H157 0.950 . S
C184 C170 1.411 1_545 S
C184 C183 1.382 . S
C185 C169 1.411 1_545 S
C185 C183 1.403 . S
C185 C186 1.489 . S
C186 C185 1.489 . S
C186 C187 1.383 . S
C186 C191 1.382 . S
C187 H158 0.950 . S
C187 C186 1.383 . S
C187 C188 1.395 . S
C188 H159 0.950 . S
C188 C187 1.395 . S
C188 C189 1.288 . S
C189 C188 1.288 . S
C189 C190 1.392 . S
C190 H160 0.951 . S
C190 C189 1.392 . S
C190 C191 1.392 . S
C191 H161 0.949 . S
C191 C186 1.382 . S
C191 C190 1.392 . S
H192 C211 0.949 . S
H193 C212 0.950 . S
H194 C214 0.950 . S
H195 C215 0.950 . S
H196 C217 0.950 . S
H197 C220 0.950 . S
H198 C221 0.950 . S
H199 C223 0.951 . S
H200 C224 0.949 . S
H201 C226 0.949 . S
H202 C227 0.950 . S
H203 C229 0.950 . S
H204 C230 0.950 . S
H205 C232 0.950 . S
H206 C235 0.950 . S
H207 C236 0.950 . S
H208 C238 0.951 . S
H209 C239 0.949 . S
C210 C211 1.376 . S
C210 C215 1.386 . S
C210 C216 1.483 . S
C211 H192 0.949 . S
C211 C210 1.376 . S
C211 C212 1.397 . S
C212 H193 0.950 . S
C212 C211 1.397 . S
C212 C213 1.391 . S
C213 C212 1.391 . S
C213 C214 1.405 . S
C214 H194 0.950 . S
C214 C213 1.405 . S
C214 C215 1.367 . S
C215 H195 0.950 . S
C215 C210 1.386 . S
C215 C214 1.367 . S
C216 C210 1.483 . S
C216 C217 1.382 1_455 S
C216 C218 1.403 . S
C217 H196 0.950 . S
C217 C216 1.382 1_655 S
C217 C233 1.411 . S
C218 C216 1.403 . S
C218 C219 1.489 . S
C218 C232 1.411 . S
C219 C218 1.489 . S
C219 C220 1.383 . S
C219 C224 1.382 . S
C220 H197 0.950 . S
C220 C219 1.383 . S
C220 C221 1.395 . S
C221 H198 0.950 . S
C221 C220 1.395 . S
C221 C222 1.288 . S
C222 C221 1.288 . S
C222 C223 1.392 . S
C223 H199 0.951 . S
C223 C222 1.392 . S
C223 C224 1.392 . S
C224 H200 0.949 . S
C224 C219 1.382 . S
C224 C223 1.392 . S
C225 C226 1.376 . S
C225 C230 1.386 . S
C225 C231 1.483 . S
C226 H201 0.949 . S
C226 C225 1.376 . S
C226 C227 1.397 . S
C227 H202 0.950 . S
C227 C226 1.397 . S
C227 C228 1.391 . S
C228 C227 1.391 . S
C228 C229 1.405 . S
C229 H203 0.950 . S
C229 C228 1.405 . S
C229 C230 1.367 . S
C230 H204 0.950 . S
C230 C225 1.386 . S
C230 C229 1.367 . S
C231 C225 1.483 . S
C231 C232 1.382 1_655 S
C231 C233 1.403 . S
C232 H205 0.950 . S
C232 C218 1.411 . S
C232 C231 1.382 1_455 S
C233 C217 1.411 . S
C233 C231 1.403 . S
C233 C234 1.489 . S
C234 C233 1.489 . S
C234 C235 1.383 . S
C234 C239 1.382 . S
C235 H206 0.950 . S
C235 C234 1.383 . S
C235 C236 1.395 . S
C236 H207 0.950 . S
C236 C235 1.395 . S
C236 C237 1.288 . S
C237 C236 1.288 . S
C237 C238 1.392 . S
C238 H208 0.951 . S
C238 C237 1.392 . S
C238 C239 1.392 . S
C239 H209 0.949 . S
C239 C234 1.382 . S
C239 C238 1.392 . S
H240 C259 0.949 . S
H241 C260 0.950 . S
H242 C262 0.950 . S
H243 C263 0.950 . S
H244 C265 0.950 . S
H245 C268 0.950 . S
H246 C269 0.950 . S
H247 C271 0.951 . S
H248 C272 0.949 . S
H249 C274 0.949 . S
H250 C275 0.950 . S
H251 C277 0.950 . S
H252 C278 0.950 . S
H253 C280 0.950 . S
H254 C283 0.950 . S
H255 C284 0.950 . S
H256 C286 0.951 . S
H257 C287 0.949 . S
C258 C259 1.376 . S
C258 C263 1.386 . S
C258 C264 1.483 . S
C259 H240 0.949 . S
C259 C258 1.376 . S
C259 C260 1.397 . S
C260 H241 0.950 . S
C260 C259 1.397 . S
C260 C261 1.391 . S
C261 C260 1.391 . S
C261 C262 1.405 . S
C262 H242 0.950 . S
C262 C261 1.405 . S
C262 C263 1.367 . S
C263 H243 0.950 . S
C263 C258 1.386 . S
C263 C262 1.367 . S
C264 C258 1.483 . S
C264 C265 1.382 . S
C264 C266 1.403 . S
C265 H244 0.950 . S
C265 C264 1.382 . S
C265 C281 1.411 . S
C266 C264 1.403 . S
C266 C267 1.489 . S
C266 C280 1.411 . S
C267 C266 1.489 . S
C267 C268 1.383 . S
C267 C272 1.382 . S
C268 H245 0.950 . S
C268 C267 1.383 . S
C268 C269 1.395 . S
C269 H246 0.950 . S
C269 C268 1.395 . S
C269 C270 1.288 . S
C270 C269 1.288 . S
C270 C271 1.392 . S
C271 H247 0.951 . S
C271 C270 1.392 . S
C271 C272 1.392 . S
C272 H248 0.949 . S
C272 C267 1.382 . S
C272 C271 1.392 . S
C273 C274 1.376 . S
C273 C278 1.386 . S
C273 C279 1.483 . S
C274 H249 0.949 . S
C274 C273 1.376 . S
C274 C275 1.397 . S
C275 H250 0.950 . S
C275 C274 1.397 . S
C275 C276 1.391 . S
C276 C275 1.391 . S
C276 C277 1.405 . S
C277 H251 0.950 . S
C277 C276 1.405 . S
C277 C278 1.367 . S
C278 H252 0.950 . S
C278 C273 1.386 . S
C278 C277 1.367 . S
C279 C273 1.483 . S
C279 C280 1.382 . S
C279 C281 1.403 . S
C280 H253 0.950 . S
C280 C266 1.411 . S
C280 C279 1.382 . S
C281 C265 1.411 . S
C281 C279 1.403 . S
C281 C282 1.489 . S
C282 C281 1.489 . S
C282 C283 1.383 . S
C282 C287 1.382 . S
C283 H254 0.950 . S
C283 C282 1.383 . S
C283 C284 1.395 . S
C284 H255 0.950 . S
C284 C283 1.395 . S
C284 C285 1.288 . S
C285 C284 1.288 . S
C285 C286 1.392 . S
C286 H256 0.951 . S
C286 C285 1.392 . S
C286 C287 1.392 . S
C287 H257 0.949 . S
C287 C282 1.382 . S
C287 C286 1.392 . S
H288 C307 0.949 . S
H289 C308 0.950 . S
H290 C310 0.950 . S
H291 C311 0.950 1_545 S
H292 C313 0.950 . S
H293 C316 0.950 . S
H294 C317 0.950 . S
H295 C319 0.951 . S
H296 C320 0.949 . S
H297 C322 0.949 . S
H298 C323 0.950 . S
H299 C325 0.950 . S
H300 C326 0.950 . S
H301 C328 0.950 . S
H302 C331 0.950 . S
H303 C332 0.950 . S
H304 C334 0.951 . S
H305 C335 0.949 . S
C306 C307 1.376 . S
C306 C311 1.386 . S
C306 C312 1.483 1_565 S
C307 H288 0.949 . S
C307 C306 1.376 . S
C307 C308 1.397 . S
C308 H289 0.950 . S
C308 C307 1.397 . S
C308 C309 1.391 . S
C309 C308 1.391 . S
C309 C310 1.405 . S
C310 H290 0.950 . S
C310 C309 1.405 . S
C310 C311 1.367 . S
C311 H291 0.950 1_565 S
C311 C306 1.386 . S
C311 C310 1.367 . S
C312 C306 1.483 1_545 S
C312 C313 1.382 . S
C312 C314 1.403 . S
C313 H292 0.950 . S
C313 C312 1.382 . S
C313 C329 1.411 . S
C314 C312 1.403 . S
C314 C315 1.489 . S
C314 C328 1.411 . S
C315 C314 1.489 . S
C315 C316 1.383 1_545 S
C315 C320 1.382 . S
C316 H293 0.950 . S
C316 C315 1.383 1_565 S
C316 C317 1.395 . S
C317 H294 0.950 . S
C317 C316 1.395 . S
C317 C318 1.288 . S
C318 C317 1.288 . S
C318 C319 1.392 1_565 S
C319 H295 0.951 . S
C319 C318 1.392 1_545 S
C319 C320 1.392 . S
C320 H296 0.949 . S
C320 C315 1.382 . S
C320 C319 1.392 . S
C321 C322 1.376 . S
C321 C326 1.386 . S
C321 C327 1.483 . S
C322 H297 0.949 . S
C322 C321 1.376 . S
C322 C323 1.397 . S
C323 H298 0.950 . S
C323 C322 1.397 . S
C323 C324 1.391 . S
C324 C323 1.391 . S
C324 C325 1.405 . S
C325 H299 0.950 . S
C325 C324 1.405 . S
C325 C326 1.367 . S
C326 H300 0.950 . S
C326 C321 1.386 . S
C326 C325 1.367 . S
C327 C321 1.483 . S
C327 C328 1.382 . S
C327 C329 1.403 . S
C328 H301 0.950 . S
C328 C314 1.411 . S
C328 C327 1.382 . S
C329 C313 1.411 . S
C329 C327 1.403 . S
C329 C330 1.489 . S
C330 C329 1.489 . S
C330 C331 1.383 . S
C330 C335 1.382 . S
C331 H302 0.950 . S
C331 C330 1.383 . S
C331 C332 1.395 . S
C332 H303 0.950 . S
C332 C331 1.395 . S
C332 C333 1.288 . S
C333 C332 1.288 . S
C333 C334 1.392 . S
C334 H304 0.951 . S
C334 C333 1.392 . S
C334 C335 1.392 . S
C335 H305 0.949 . S
C335 C330 1.382 . S
C335 C334 1.392 . S
H336 C355 0.949 . S
H337 C356 0.950 . S
H338 C358 0.950 . S
H339 C359 0.950 . S
H340 C361 0.950 . S
H341 C364 0.950 . S
H342 C365 0.950 . S
H343 C367 0.951 . S
H344 C368 0.949 . S
H345 C370 0.949 . S
H346 C371 0.950 . S
H347 C373 0.950 . S
H348 C374 0.950 . S
H349 C376 0.950 . S
H350 C379 0.950 . S
H351 C380 0.950 . S
H352 C382 0.951 . S
H353 C383 0.949 . S
C354 C355 1.376 . S
C354 C359 1.386 . S
C354 C360 1.483 . S
C355 H336 0.949 . S
C355 C354 1.376 . S
C355 C356 1.397 . S
C356 H337 0.950 . S
C356 C355 1.397 . S
C356 C357 1.391 . S
C357 C356 1.391 . S
C357 C358 1.405 . S
C358 H338 0.950 . S
C358 C357 1.405 . S
C358 C359 1.367 . S
C359 H339 0.950 . S
C359 C354 1.386 . S
C359 C358 1.367 . S
C360 C354 1.483 . S
C360 C361 1.382 . S
C360 C362 1.403 . S
C361 H340 0.950 . S
C361 C360 1.382 . S
C361 C377 1.411 . S
C362 C360 1.403 . S
C362 C363 1.489 . S
C362 C376 1.411 . S
C363 C362 1.489 . S
C363 C364 1.383 . S
C363 C368 1.382 . S
C364 H341 0.950 . S
C364 C363 1.383 . S
C364 C365 1.395 . S
C365 H342 0.950 . S
C365 C364 1.395 . S
C365 C366 1.288 . S
C366 C365 1.288 . S
C366 C367 1.392 . S
C367 H343 0.951 . S
C367 C366 1.392 . S
C367 C368 1.392 . S
C368 H344 0.949 . S
C368 C363 1.382 . S
C368 C367 1.392 . S
C369 C370 1.376 . S
C369 C374 1.386 . S
C369 C375 1.483 . S
C370 H345 0.949 . S
C370 C369 1.376 . S
C370 C371 1.397 . S
C371 H346 0.950 . S
C371 C370 1.397 . S
C371 C372 1.391 . S
C372 C371 1.391 . S
C372 C373 1.405 . S
C373 H347 0.950 . S
C373 C372 1.405 . S
C373 C374 1.367 . S
C374 H348 0.950 . S
C374 C369 1.386 . S
C374 C373 1.367 . S
C375 C369 1.483 . S
C375 C376 1.382 . S
C375 C377 1.403 . S
C376 H349 0.950 . S
C376 C362 1.411 . S
C376 C375 1.382 . S
C377 C361 1.411 . S
C377 C375 1.403 . S
C377 C378 1.489 . S
C378 C377 1.489 . S
C378 C379 1.383 . S
C378 C383 1.382 . S
C379 H350 0.950 . S
C379 C378 1.383 . S
C379 C380 1.395 . S
C380 H351 0.950 . S
C380 C379 1.395 . S
C380 C381 1.288 . S
C381 C380 1.288 . S
C381 C382 1.392 . S
C382 H352 0.951 . S
C382 C381 1.392 . S
C382 C383 1.392 . S
C383 H353 0.949 . S
C383 C378 1.382 . S
C383 C382 1.392 . S
O384 Cd385 2.223 . S
O384 C392 1.315 . S
Cd385 O384 2.223 . S
Cd385 O388 2.297 . S
Cd385 O389 2.439 . S
Cd385 O395 2.240 . S
Cd386 O387 2.240 . S
Cd386 O394 2.223 . S
Cd386 O396 2.297 . S
Cd386 O397 2.439 . S
O387 Cd386 2.240 . S
O387 C392 1.279 . S
O388 Cd385 2.297 . S
O388 C390 1.247 . S
O389 Cd385 2.439 . S
O389 C390 1.208 . S
C390 O388 1.247 . S
C390 O389 1.208 . S
C391 O396 1.247 . S
C391 O397 1.208 . S
C392 O384 1.315 . S
C392 O387 1.279 . S
C393 O394 1.315 . S
C393 O395 1.279 . S
O394 Cd386 2.223 . S
O394 C393 1.315 . S
O395 Cd385 2.240 . S
O395 C393 1.279 . S
O396 Cd386 2.297 . S
O396 C391 1.247 . S
O397 Cd386 2.439 . S
O397 C391 1.208 . S
O398 Cd399 2.223 . S
O398 C406 1.315 . S
Cd399 O398 2.223 . S
Cd399 O402 2.297 . S
Cd399 O403 2.439 . S
Cd399 O409 2.240 . S
Cd400 O401 2.240 . S
Cd400 O408 2.223 . S
Cd400 O410 2.297 . S
Cd400 O411 2.439 . S
O401 Cd400 2.240 . S
O401 C406 1.279 . S
O402 Cd399 2.297 . S
O402 C404 1.247 . S
O403 Cd399 2.439 . S
O403 C404 1.208 . S
C404 O402 1.247 . S
C404 O403 1.208 . S
C405 O410 1.247 . S
C405 O411 1.208 . S
C406 O398 1.315 . S
C406 O401 1.279 . S
C407 O408 1.315 . S
C407 O409 1.279 . S
O408 Cd400 2.223 . S
O408 C407 1.315 . S
O409 Cd399 2.240 . S
O409 C407 1.279 . S
O410 Cd400 2.297 . S
O410 C405 1.247 . S
O411 Cd400 2.439 . S
O411 C405 1.208 . S
O412 Cd413 2.223 . S
O412 C420 1.315 . S
Cd413 O412 2.223 . S
Cd413 O416 2.297 . S
Cd413 O417 2.439 . S
Cd413 O423 2.240 . S
Cd414 O415 2.240 . S
Cd414 O422 2.223 . S
Cd414 O424 2.297 . S
Cd414 O425 2.439 . S
O415 Cd414 2.240 . S
O415 C420 1.279 . S
O416 Cd413 2.297 . S
O416 C418 1.247 . S
O417 Cd413 2.439 . S
O417 C418 1.208 . S
C418 O416 1.247 . S
C418 O417 1.208 . S
C419 O424 1.247 . S
C419 O425 1.208 . S
C420 O412 1.315 . S
C420 O415 1.279 . S
C421 O422 1.315 . S
C421 O423 1.279 . S
O422 Cd414 2.223 . S
O422 C421 1.315 . S
O423 Cd413 2.240 . S
O423 C421 1.279 . S
O424 Cd414 2.297 . S
O424 C419 1.247 . S
O425 Cd414 2.439 . S
O425 C419 1.208 . S
O426 Cd427 2.223 . S
O426 C434 1.315 . S
Cd427 O426 2.223 . S
Cd427 O430 2.297 . S
Cd427 O431 2.439 . S
Cd427 O437 2.240 . S
Cd428 O429 2.240 . S
Cd428 O436 2.223 . S
Cd428 O438 2.297 . S
Cd428 O439 2.439 . S
O429 Cd428 2.240 . S
O429 C434 1.279 . S
O430 Cd427 2.297 . S
O430 C432 1.247 . S
O431 Cd427 2.439 . S
O431 C432 1.208 . S
C432 O430 1.247 . S
C432 O431 1.208 . S
C433 O438 1.247 . S
C433 O439 1.208 . S
C434 O426 1.315 . S
C434 O429 1.279 . S
C435 O436 1.315 . S
C435 O437 1.279 . S
O436 Cd428 2.223 . S
O436 C435 1.315 . S
O437 Cd427 2.240 . S
O437 C435 1.279 . S
O438 Cd428 2.297 . S
O438 C433 1.247 . S
O439 Cd428 2.439 . S
O439 C433 1.208 . S
O440 Cd441 2.223 . S
O440 C448 1.315 . S
Cd441 O440 2.223 . S
Cd441 O444 2.297 . S
Cd441 O445 2.439 . S
Cd441 O451 2.240 . S
Cd442 O443 2.240 . S
Cd442 O450 2.223 . S
Cd442 O452 2.297 . S
Cd442 O453 2.439 . S
O443 Cd442 2.240 . S
O443 C448 1.279 . S
O444 Cd441 2.297 . S
O444 C446 1.247 . S
O445 Cd441 2.439 . S
O445 C446 1.208 . S
C446 O444 1.247 . S
C446 O445 1.208 . S
C447 O452 1.247 . S
C447 O453 1.208 . S
C448 O440 1.315 . S
C448 O443 1.279 . S
C449 O450 1.315 . S
C449 O451 1.279 . S
O450 Cd442 2.223 . S
O450 C449 1.315 . S
O451 Cd441 2.240 . S
O451 C449 1.279 . S
O452 Cd442 2.297 . S
O452 C447 1.247 . S
O453 Cd442 2.439 . S
O453 C447 1.208 . S
O454 Cd455 2.223 . S
O454 C462 1.315 . S
Cd455 O454 2.223 . S
Cd455 O458 2.297 . S
Cd455 O459 2.439 . S
Cd455 O465 2.240 . S
Cd456 O457 2.240 . S
Cd456 O464 2.223 . S
Cd456 O466 2.297 . S
Cd456 O467 2.439 . S
O457 Cd456 2.240 . S
O457 C462 1.279 . S
O458 Cd455 2.297 . S
O458 C460 1.247 . S
O459 Cd455 2.439 . S
O459 C460 1.208 . S
C460 O458 1.247 . S
C460 O459 1.208 . S
C461 O466 1.247 . S
C461 O467 1.208 . S
C462 O454 1.315 . S
C462 O457 1.279 . S
C463 O464 1.315 . S
C463 O465 1.279 . S
O464 Cd456 2.223 . S
O464 C463 1.315 . S
O465 Cd455 2.240 . S
O465 C463 1.279 . S
O466 Cd456 2.297 . S
O466 C461 1.247 . S
O467 Cd456 2.439 . S
O467 C461 1.208 . S
O468 Cd469 2.223 . S
O468 C476 1.315 . S
Cd469 O468 2.223 . S
Cd469 O472 2.297 . S
Cd469 O473 2.439 . S
Cd469 O479 2.240 1_554 S
Cd470 O471 2.240 1_556 S
Cd470 O478 2.223 . S
Cd470 O480 2.297 . S
Cd470 O481 2.439 . S
O471 Cd470 2.240 1_554 S
O471 C476 1.279 . S
O472 Cd469 2.297 . S
O472 C474 1.247 . S
O473 Cd469 2.439 . S
O473 C474 1.208 . S
C474 O472 1.247 . S
C474 O473 1.208 . S
C475 O480 1.247 . S
C475 O481 1.208 . S
C476 O468 1.315 . S
C476 O471 1.279 . S
C477 O478 1.315 . S
C477 O479 1.279 . S
O478 Cd470 2.223 . S
O478 C477 1.315 . S
O479 Cd469 2.240 1_556 S
O479 C477 1.279 . S
O480 Cd470 2.297 . S
O480 C475 1.247 . S
O481 Cd470 2.439 . S
O481 C475 1.208 . S
O482 Cd483 2.223 . S
O482 C490 1.315 . S
Cd483 O482 2.223 . S
Cd483 O486 2.297 . S
Cd483 O487 2.439 . S
Cd483 O493 2.240 . S
Cd484 O485 2.240 . S
Cd484 O492 2.223 . S
Cd484 O494 2.297 . S
Cd484 O495 2.439 . S
O485 Cd484 2.240 . S
O485 C490 1.279 . S
O486 Cd483 2.297 . S
O486 C488 1.247 . S
O487 Cd483 2.439 . S
O487 C488 1.208 . S
C488 O486 1.247 . S
C488 O487 1.208 . S
C489 O494 1.247 . S
C489 O495 1.208 . S
C490 O482 1.315 . S
C490 O485 1.279 . S
C491 O492 1.315 . S
C491 O493 1.279 . S
O492 Cd484 2.223 . S
O492 C491 1.315 . S
O493 Cd483 2.240 . S
O493 C491 1.279 . S
O494 Cd484 2.297 . S
O494 C489 1.247 . S
O495 Cd484 2.439 . S
O495 C489 1.208 . S
H496 C504 0.929 . S
H497 C506 0.930 . S
H498 C508 0.930 . S
H499 C511 0.929 . S
H500 C514 0.930 . S
H501 C516 0.960 . S
H502 C516 0.960 . S
H503 C516 0.960 . S
C504 H496 0.929 . S
C504 C505 1.377 . S
C504 C506 1.384 . S
C505 C504 1.377 . S
C505 C511 1.390 . S
C506 H497 0.930 . S
C506 C504 1.384 . S
C506 C507 1.372 . S
C507 C506 1.372 . S
C507 C508 1.400 . S
C507 C512 1.490 . S
C508 H498 0.930 . S
C508 C507 1.400 . S
C508 C511 1.386 . S
H509 C525 0.930 . S
H510 C526 0.931 . S
C511 H499 0.929 . S
C511 C505 1.390 . S
C511 C508 1.386 . S
C512 C507 1.490 . S
C512 C514 1.395 . S
C512 C515 1.403 . S
H513 C519 0.930 . S
C514 H500 0.930 . S
C514 C512 1.395 . S
C514 C517 1.403 . S
C515 C512 1.403 . S
C515 C516 1.524 . S
C515 C519 1.400 . S
C516 H501 0.960 . S
C516 H502 0.960 . S
C516 H503 0.960 . S
C516 C515 1.524 . S
C517 C514 1.403 . S
C517 C518 1.392 . S
C517 C521 1.495 . S
C518 C517 1.392 . S
C518 C519 1.385 . S
C518 C520 1.478 . S
C519 H513 0.930 . S
C519 C515 1.400 . S
C519 C518 1.385 . S
C520 C518 1.478 . S
C520 C522 1.381 . S
C520 C526 1.383 . S
C521 C517 1.495 . S
C521 H527 0.959 . S
C521 H528 0.961 . S
C521 H529 0.960 . S
C522 C520 1.381 . S
C522 C523 1.394 . S
C522 H530 0.930 . S
C523 C522 1.394 . S
C523 C524 1.383 . S
C523 H531 0.929 . S
C524 C523 1.383 . S
C524 C525 1.377 . S
C525 H509 0.930 . S
C525 C524 1.377 . S
C525 C526 1.379 . S
C526 H510 0.931 . S
C526 C520 1.383 . S
C526 C525 1.379 . S
H527 C521 0.959 . S
H528 C521 0.961 . S
H529 C521 0.960 . S
H530 C522 0.930 . S
H531 C523 0.929 . S
H532 C540 0.929 . S
H533 C542 0.930 . S
H534 C544 0.930 . S
H535 C547 0.929 . S
H536 C550 0.930 . S
H537 C552 0.960 . S
H538 C552 0.960 . S
H539 C552 0.960 . S
C540 H532 0.929 . S
C540 C541 1.377 . S
C540 C542 1.384 . S
C541 C540 1.377 . S
C541 C547 1.390 . S
C542 H533 0.930 . S
C542 C540 1.384 . S
C542 C543 1.372 . S
C543 C542 1.372 . S
C543 C544 1.400 . S
C543 C548 1.490 . S
C544 H534 0.930 . S
C544 C543 1.400 . S
C544 C547 1.386 . S
H545 C561 0.930 . S
H546 C562 0.931 . S
C547 H535 0.929 . S
C547 C541 1.390 . S
C547 C544 1.386 . S
C548 C543 1.490 . S
C548 C550 1.395 . S
C548 C551 1.403 . S
H549 C555 0.930 . S
C550 H536 0.930 . S
C550 C548 1.395 . S
C550 C553 1.403 . S
C551 C548 1.403 . S
C551 C552 1.524 . S
C551 C555 1.400 . S
C552 H537 0.960 . S
C552 H538 0.960 . S
C552 H539 0.960 . S
C552 C551 1.524 . S
C553 C550 1.403 . S
C553 C554 1.392 . S
C553 C557 1.495 . S
C554 C553 1.392 . S
C554 C555 1.385 . S
C554 C556 1.478 . S
C555 H549 0.930 . S
C555 C551 1.400 . S
C555 C554 1.385 . S
C556 C554 1.478 . S
C556 C558 1.381 . S
C556 C562 1.383 . S
C557 C553 1.495 . S
C557 H563 0.959 . S
C557 H564 0.961 . S
C557 H565 0.960 . S
C558 C556 1.381 . S
C558 C559 1.394 . S
C558 H566 0.930 . S
C559 C558 1.394 . S
C559 C560 1.383 . S
C559 H567 0.929 . S
C560 C559 1.383 . S
C560 C561 1.377 . S
C561 H545 0.930 . S
C561 C560 1.377 . S
C561 C562 1.379 . S
C562 H546 0.931 . S
C562 C556 1.383 . S
C562 C561 1.379 . S
H563 C557 0.959 . S
H564 C557 0.961 . S
H565 C557 0.960 . S
H566 C558 0.930 . S
H567 C559 0.929 . S
H568 C576 0.929 . S
H569 C578 0.930 . S
H570 C580 0.930 . S
H571 C583 0.929 . S
H572 C586 0.930 . S
H573 C588 0.960 . S
H574 C588 0.960 . S
H575 C588 0.960 . S
C576 H568 0.929 . S
C576 C577 1.377 . S
C576 C578 1.384 . S
C577 C576 1.377 . S
C577 C583 1.390 . S
C578 H569 0.930 . S
C578 C576 1.384 . S
C578 C579 1.372 . S
C579 C578 1.372 . S
C579 C580 1.400 . S
C579 C584 1.490 . S
C580 H570 0.930 . S
C580 C579 1.400 . S
C580 C583 1.386 . S
H581 C597 0.930 . S
H582 C598 0.931 . S
C583 H571 0.929 . S
C583 C577 1.390 . S
C583 C580 1.386 . S
C584 C579 1.490 . S
C584 C586 1.395 . S
C584 C587 1.403 . S
H585 C591 0.930 . S
C586 H572 0.930 . S
C586 C584 1.395 . S
C586 C589 1.403 . S
C587 C584 1.403 . S
C587 C588 1.524 . S
C587 C591 1.400 . S
C588 H573 0.960 . S
C588 H574 0.960 . S
C588 H575 0.960 . S
C588 C587 1.524 . S
C589 C586 1.403 . S
C589 C590 1.392 . S
C589 C593 1.495 . S
C590 C589 1.392 . S
C590 C591 1.385 . S
C590 C592 1.478 . S
C591 H585 0.930 . S
C591 C587 1.400 . S
C591 C590 1.385 . S
C592 C590 1.478 . S
C592 C594 1.381 . S
C592 C598 1.383 . S
C593 C589 1.495 . S
C593 H599 0.959 . S
C593 H600 0.961 . S
C593 H601 0.960 . S
C594 C592 1.381 . S
C594 C595 1.394 . S
C594 H602 0.930 . S
C595 C594 1.394 . S
C595 C596 1.383 . S
C595 H603 0.929 . S
C596 C595 1.383 . S
C596 C597 1.377 . S
C597 H581 0.930 . S
C597 C596 1.377 . S
C597 C598 1.379 . S
C598 H582 0.931 . S
C598 C592 1.383 . S
C598 C597 1.379 . S
H599 C593 0.959 . S
H600 C593 0.961 . S
H601 C593 0.960 . S
H602 C594 0.930 . S
H603 C595 0.929 . S
H604 C612 0.929 . S
H605 C614 0.930 . S
H606 C616 0.930 . S
H607 C619 0.929 . S
H608 C622 0.930 . S
H609 C624 0.960 . S
H610 C624 0.960 . S
H611 C624 0.960 . S
C612 H604 0.929 . S
C612 C613 1.377 . S
C612 C614 1.384 . S
C613 C612 1.377 . S
C613 C619 1.390 . S
C614 H605 0.930 . S
C614 C612 1.384 . S
C614 C615 1.372 . S
C615 C614 1.372 . S
C615 C616 1.400 . S
C615 C620 1.490 . S
C616 H606 0.930 . S
C616 C615 1.400 . S
C616 C619 1.386 . S
H617 C633 0.930 . S
H618 C634 0.931 . S
C619 H607 0.929 . S
C619 C613 1.390 . S
C619 C616 1.386 . S
C620 C615 1.490 . S
C620 C622 1.395 . S
C620 C623 1.403 . S
H621 C627 0.930 . S
C622 H608 0.930 . S
C622 C620 1.395 . S
C622 C625 1.403 . S
C623 C620 1.403 . S
C623 C624 1.524 . S
C623 C627 1.400 . S
C624 H609 0.960 . S
C624 H610 0.960 . S
C624 H611 0.960 . S
C624 C623 1.524 . S
C625 C622 1.403 . S
C625 C626 1.392 . S
C625 C629 1.495 . S
C626 C625 1.392 . S
C626 C627 1.385 . S
C626 C628 1.478 . S
C627 H621 0.930 . S
C627 C623 1.400 . S
C627 C626 1.385 . S
C628 C626 1.478 . S
C628 C630 1.381 . S
C628 C634 1.383 . S
C629 C625 1.495 . S
C629 H635 0.959 . S
C629 H636 0.961 . S
C629 H637 0.960 . S
C630 C628 1.381 . S
C630 C631 1.394 . S
C630 H638 0.930 . S
C631 C630 1.394 . S
C631 C632 1.383 . S
C631 H639 0.929 . S
C632 C631 1.383 . S
C632 C633 1.377 . S
C633 H617 0.930 . S
C633 C632 1.377 . S
C633 C634 1.379 . S
C634 H618 0.931 . S
C634 C628 1.383 . S
C634 C633 1.379 . S
H635 C629 0.959 . S
H636 C629 0.961 . S
H637 C629 0.960 . S
H638 C630 0.930 . S
H639 C631 0.929 . S
H640 C648 0.929 . S
H641 C650 0.930 . S
H642 C652 0.930 . S
H643 C655 0.929 . S
H644 C658 0.930 . S
H645 C660 0.960 . S
H646 C660 0.960 . S
H647 C660 0.960 . S
C648 H640 0.929 . S
C648 C649 1.377 . S
C648 C650 1.384 . S
C649 C648 1.377 . S
C649 C655 1.390 1_556 S
C650 H641 0.930 . S
C650 C648 1.384 . S
C650 C651 1.372 1_556 S
C651 C650 1.372 1_554 S
C651 C652 1.400 . S
C651 C656 1.490 . S
C652 H642 0.930 . S
C652 C651 1.400 . S
C652 C655 1.386 . S
H653 C669 0.930 . S
H654 C670 0.931 . S
C655 H643 0.929 . S
C655 C649 1.390 1_554 S
C655 C652 1.386 . S
C656 C651 1.490 . S
C656 C658 1.395 1_554 S
C656 C659 1.403 . S
H657 C663 0.930 . S
C658 H644 0.930 . S
C658 C656 1.395 1_556 S
C658 C661 1.396 1_556 S
C659 C656 1.403 . S
C659 C660 1.524 . S
C659 C663 1.400 . S
C660 H645 0.960 . S
C660 H646 0.960 . S
C660 H647 0.960 . S
C660 C659 1.524 . S
C661 C658 1.396 1_554 S
C661 C662 1.466 . S
C661 C665 1.433 1_554 S
C662 C661 1.466 . S
C662 C663 1.385 . S
C662 C664 1.478 . S
C663 H657 0.930 . S
C663 C659 1.400 . S
C663 C662 1.385 . S
C664 C662 1.478 . S
C664 C666 1.381 . S
C664 C670 1.383 . S
C665 C661 1.433 1_556 S
C665 H671 0.959 . S
C665 H672 0.961 . S
C665 H673 0.960 . S
C666 C664 1.381 . S
C666 C667 1.394 . S
C666 H674 0.930 . S
C667 C666 1.394 . S
C667 C668 1.383 . S
C667 H675 0.929 . S
C668 C667 1.383 . S
C668 C669 1.377 . S
C669 H653 0.930 . S
C669 C668 1.377 . S
C669 C670 1.379 . S
C670 H654 0.931 . S
C670 C664 1.383 . S
C670 C669 1.379 . S
H671 C665 0.959 . S
H672 C665 0.961 . S
H673 C665 0.960 . S
H674 C666 0.930 . S
H675 C667 0.929 . S
H676 C684 0.929 . S
H677 C686 0.930 . S
H678 C688 0.930 . S
H679 C691 0.929 . S
H680 C694 0.930 . S
H681 C696 0.960 . S
H682 C696 0.960 . S
H683 C696 0.960 . S
C684 H676 0.929 . S
C684 C685 1.377 . S
C684 C686 1.384 . S
C685 C684 1.377 . S
C685 C691 1.390 . S
C686 H677 0.930 . S
C686 C684 1.384 . S
C686 C687 1.372 . S
C687 C686 1.372 . S
C687 C688 1.400 . S
C687 C692 1.490 . S
C688 H678 0.930 . S
C688 C687 1.400 . S
C688 C691 1.386 . S
H689 C705 0.930 . S
H690 C706 0.931 . S
C691 H679 0.929 . S
C691 C685 1.390 . S
C691 C688 1.386 . S
C692 C687 1.490 . S
C692 C694 1.395 . S
C692 C695 1.403 . S
H693 C699 0.930 . S
C694 H680 0.930 . S
C694 C692 1.395 . S
C694 C697 1.403 . S
C695 C692 1.403 . S
C695 C696 1.524 . S
C695 C699 1.400 . S
C696 H681 0.960 . S
C696 H682 0.960 . S
C696 H683 0.960 . S
C696 C695 1.524 . S
C697 C694 1.403 . S
C697 C698 1.392 . S
C697 C701 1.495 . S
C698 C697 1.392 . S
C698 C699 1.385 . S
C698 C700 1.478 . S
C699 H693 0.930 . S
C699 C695 1.400 . S
C699 C698 1.385 . S
C700 C698 1.478 . S
C700 C702 1.381 . S
C700 C706 1.383 . S
C701 C697 1.495 . S
C701 H707 0.959 . S
C701 H708 0.961 . S
C701 H709 0.960 . S
C702 C700 1.381 . S
C702 C703 1.394 . S
C702 H710 0.930 . S
C703 C702 1.394 . S
C703 C704 1.383 . S
C703 H711 0.929 . S
C704 C703 1.383 . S
C704 C705 1.377 . S
C705 H689 0.930 . S
C705 C704 1.377 . S
C705 C706 1.379 . S
C706 H690 0.931 . S
C706 C700 1.383 . S
C706 C705 1.379 . S
H707 C701 0.959 . S
H708 C701 0.961 . S
H709 C701 0.960 . S
H710 C702 0.930 . S
H711 C703 0.929 . S
H712 C720 0.929 1_545 S
H713 C722 0.930 . S
H714 C724 0.930 . S
H715 C727 0.929 . S
H716 C730 0.930 . S
H717 C732 0.960 . S
H718 C732 0.960 . S
H719 C732 0.960 . S
C720 H712 0.929 1_565 S
C720 C721 1.377 . S
C720 C722 1.384 . S
C721 C720 1.377 . S
C721 C727 1.390 . S
C722 H713 0.930 . S
C722 C720 1.384 . S
C722 C723 1.372 . S
C723 C722 1.372 . S
C723 C724 1.400 . S
C723 C728 1.490 . S
C724 H714 0.930 . S
C724 C723 1.400 . S
C724 C727 1.386 . S
H725 C741 0.930 . S
H726 C742 0.931 . S
C727 H715 0.929 . S
C727 C721 1.390 . S
C727 C724 1.386 . S
C728 C723 1.490 . S
C728 C730 1.395 . S
C728 C731 1.403 . S
H729 C735 0.930 . S
C730 H716 0.930 . S
C730 C728 1.395 . S
C730 C733 1.403 . S
C731 C728 1.403 . S
C731 C732 1.524 . S
C731 C735 1.400 . S
C732 H717 0.960 . S
C732 H718 0.960 . S
C732 H719 0.960 . S
C732 C731 1.524 . S
C733 C730 1.403 . S
C733 C734 1.392 . S
C733 C737 1.495 . S
C734 C733 1.392 . S
C734 C735 1.385 . S
C734 C736 1.478 . S
C735 H729 0.930 . S
C735 C731 1.400 . S
C735 C734 1.385 . S
C736 C734 1.478 . S
C736 C738 1.381 . S
C736 C742 1.383 . S
C737 C733 1.495 . S
C737 H743 0.959 . S
C737 H744 0.961 . S
C737 H745 0.960 . S
C738 C736 1.381 . S
C738 C739 1.394 . S
C738 H746 0.930 . S
C739 C738 1.394 . S
C739 C740 1.383 . S
C739 H747 0.929 . S
C740 C739 1.383 . S
C740 C741 1.377 . S
C741 H725 0.930 . S
C741 C740 1.377 . S
C741 C742 1.379 . S
C742 H726 0.931 . S
C742 C736 1.383 . S
C742 C741 1.379 . S
H743 C737 0.959 . S
H744 C737 0.961 . S
H745 C737 0.960 . S
H746 C738 0.930 . S
H747 C739 0.929 . S
H748 C756 0.929 . S
H749 C758 0.930 . S
H750 C760 0.930 . S
H751 C763 0.929 . S
H752 C766 0.930 . S
H753 C768 0.960 . S
H754 C768 0.960 . S
H755 C768 0.960 . S
C756 H748 0.929 . S
C756 C757 1.377 . S
C756 C758 1.384 . S
C757 C756 1.377 . S
C757 C763 1.390 . S
C758 H749 0.930 . S
C758 C756 1.384 . S
C758 C759 1.372 . S
C759 C758 1.372 . S
C759 C760 1.400 . S
C759 C764 1.490 . S
C760 H750 0.930 . S
C760 C759 1.400 . S
C760 C763 1.386 . S
H761 C777 0.930 . S
H762 C778 0.931 . S
C763 H751 0.929 . S
C763 C757 1.390 . S
C763 C760 1.386 . S
C764 C759 1.490 . S
C764 C766 1.395 . S
C764 C767 1.403 1_545 S
H765 C771 0.930 . S
C766 H752 0.930 . S
C766 C764 1.395 . S
C766 C769 1.403 1_545 S
C767 C764 1.403 1_565 S
C767 C768 1.524 . S
C767 C771 1.400 . S
C768 H753 0.960 . S
C768 H754 0.960 . S
C768 H755 0.960 . S
C768 C767 1.524 . S
C769 C766 1.403 1_565 S
C769 C770 1.392 . S
C769 C773 1.495 . S
C770 C769 1.392 . S
C770 C771 1.385 . S
C770 C772 1.478 . S
C771 H765 0.930 . S
C771 C767 1.400 . S
C771 C770 1.385 . S
C772 C770 1.478 . S
C772 C774 1.381 . S
C772 C778 1.383 . S
C773 C769 1.495 . S
C773 H779 0.949 1_565 S
C773 H780 0.961 . S
C773 H781 0.960 . S
C774 C772 1.381 . S
C774 C775 1.394 . S
C774 H782 0.930 . S
C775 C774 1.394 . S
C775 C776 1.383 . S
C775 H783 0.929 . S
C776 C775 1.383 . S
C776 C777 1.377 . S
C777 H761 0.930 . S
C777 C776 1.377 . S
C777 C778 1.379 . S
C778 H762 0.931 . S
C778 C772 1.383 . S
C778 C777 1.379 . S
H779 C773 0.949 1_545 S
H780 C773 0.961 . S
H781 C773 0.960 . S
H782 C774 0.930 . S
H783 C775 0.929 . S
H784 C792 0.929 . S
H785 C794 0.930 . S
H786 C796 0.930 . S
H787 C799 0.929 . S
H788 C802 0.930 . S
H789 C804 0.960 . S
H790 C804 0.960 . S
H791 C804 0.960 . S
C792 H784 0.929 . S
C792 C793 1.377 . S
C792 C794 1.384 . S
C793 C792 1.377 . S
C793 C799 1.390 . S
C794 H785 0.930 . S
C794 C792 1.384 . S
C794 C795 1.372 . S
C795 C794 1.372 . S
C795 C796 1.400 . S
C795 C800 1.490 . S
C796 H786 0.930 . S
C796 C795 1.400 . S
C796 C799 1.386 . S
H797 C813 0.930 . S
H798 C814 0.931 . S
C799 H787 0.929 . S
C799 C793 1.390 . S
C799 C796 1.386 . S
C800 C795 1.490 . S
C800 C802 1.395 . S
C800 C803 1.403 . S
H801 C807 0.930 . S
C802 H788 0.930 . S
C802 C800 1.395 . S
C802 C805 1.403 . S
C803 C800 1.403 . S
C803 C804 1.524 . S
C803 C807 1.400 . S
C804 H789 0.960 . S
C804 H790 0.960 . S
C804 H791 0.960 . S
C804 C803 1.524 . S
C805 C802 1.403 . S
C805 C806 1.392 . S
C805 C809 1.495 . S
C806 C805 1.392 . S
C806 C807 1.385 . S
C806 C808 1.478 . S
C807 H801 0.930 . S
C807 C803 1.400 . S
C807 C806 1.385 . S
C808 C806 1.478 . S
C808 C810 1.381 . S
C808 C814 1.383 . S
C809 C805 1.495 . S
C809 H815 0.959 . S
C809 H816 0.961 . S
C809 H817 0.960 . S
C810 C808 1.381 . S
C810 C811 1.394 . S
C810 H818 0.930 . S
C811 C810 1.394 . S
C811 C812 1.383 . S
C811 H819 0.929 . S
C812 C811 1.383 . S
C812 C813 1.377 . S
C813 H797 0.930 . S
C813 C812 1.377 . S
C813 C814 1.379 . S
C814 H798 0.931 . S
C814 C808 1.383 . S
C814 C813 1.379 . S
H815 C809 0.959 . S
H816 C809 0.961 . S
H817 C809 0.960 . S
H818 C810 0.930 . S
H819 C811 0.929 . S
H820 C828 0.929 . S
H821 C830 0.930 . S
H822 C832 0.930 . S
H823 C835 0.929 . S
H824 C838 0.930 . S
H825 C840 0.960 . S
H826 C840 0.960 . S
H827 C840 0.960 . S
C828 H820 0.929 . S
C828 C829 1.377 . S
C828 C830 1.384 . S
C829 C828 1.377 . S
C829 C835 1.390 . S
C830 H821 0.930 . S
C830 C828 1.384 . S
C830 C831 1.372 . S
C831 C830 1.372 . S
C831 C832 1.400 . S
C831 C836 1.490 . S
C832 H822 0.930 . S
C832 C831 1.400 . S
C832 C835 1.386 . S
H833 C849 0.930 . S
H834 C850 0.931 . S
C835 H823 0.929 . S
C835 C829 1.390 . S
C835 C832 1.386 . S
C836 C831 1.490 . S
C836 C838 1.395 . S
C836 C839 1.403 . S
H837 C843 0.930 . S
C838 H824 0.930 . S
C838 C836 1.395 . S
C838 C841 1.403 . S
C839 C836 1.403 . S
C839 C840 1.524 . S
C839 C843 1.400 . S
C840 H825 0.960 . S
C840 H826 0.960 . S
C840 H827 0.960 . S
C840 C839 1.524 . S
C841 C838 1.403 . S
C841 C842 1.392 . S
C841 C845 1.495 . S
C842 C841 1.392 . S
C842 C843 1.385 . S
C842 C844 1.478 . S
C843 H837 0.930 . S
C843 C839 1.400 . S
C843 C842 1.385 . S
C844 C842 1.478 . S
C844 C846 1.381 . S
C844 C850 1.383 . S
C845 C841 1.495 . S
C845 H851 0.959 . S
C845 H852 0.961 . S
C845 H853 0.960 . S
C846 C844 1.381 . S
C846 C847 1.394 . S
C846 H854 0.930 . S
C847 C846 1.394 . S
C847 C848 1.383 . S
C847 H855 0.929 . S
C848 C847 1.383 . S
C848 C849 1.377 . S
C849 H833 0.930 . S
C849 C848 1.377 . S
C849 C850 1.379 . S
C850 H834 0.931 . S
C850 C844 1.383 . S
C850 C849 1.379 . S
H851 C845 0.959 . S
H852 C845 0.961 . S
H853 C845 0.960 . S
H854 C846 0.930 . S
H855 C847 0.929 . S
H856 C864 0.929 . S
H857 C866 0.930 . S
H858 C868 0.930 . S
H859 C871 0.929 . S
H860 C874 0.930 . S
H861 C876 0.960 . S
H862 C876 0.960 . S
H863 C876 0.960 . S
C864 H856 0.929 . S
C864 C865 1.377 . S
C864 C866 1.384 1_455 S
C865 C864 1.377 . S
C865 C871 1.390 . S
C866 H857 0.930 . S
C866 C864 1.384 1_655 S
C866 C867 1.372 . S
C867 C866 1.372 . S
C867 C868 1.400 1_655 S
C867 C872 1.490 . S
C868 H858 0.930 . S
C868 C867 1.400 1_455 S
C868 C871 1.386 . S
H869 C885 0.930 . S
H870 C886 0.931 . S
C871 H859 0.929 . S
C871 C865 1.390 . S
C871 C868 1.386 . S
C872 C867 1.490 . S
C872 C874 1.395 . S
C872 C875 1.403 . S
H873 C879 0.930 . S
C874 H860 0.930 . S
C874 C872 1.395 . S
C874 C877 1.403 . S
C875 C872 1.403 . S
C875 C876 1.524 . S
C875 C879 1.400 . S
C876 H861 0.960 . S
C876 H862 0.960 . S
C876 H863 0.960 . S
C876 C875 1.524 . S
C877 C874 1.403 . S
C877 C878 1.392 . S
C877 C881 1.495 . S
C878 C877 1.392 . S
C878 C879 1.385 . S
C878 C880 1.478 . S
C879 H873 0.930 . S
C879 C875 1.400 . S
C879 C878 1.385 . S
C880 C878 1.478 . S
C880 C882 1.381 . S
C880 C886 1.383 . S
C881 C877 1.495 . S
C881 H887 0.959 . S
C881 H888 0.961 . S
C881 H889 0.960 . S
C882 C880 1.381 . S
C882 C883 1.394 . S
C882 H890 0.930 . S
C883 C882 1.394 . S
C883 C884 1.383 . S
C883 H891 0.929 . S
C884 C883 1.383 . S
C884 C885 1.377 . S
C885 H869 0.930 . S
C885 C884 1.377 . S
C885 C886 1.379 . S
C886 H870 0.931 . S
C886 C880 1.383 . S
C886 C885 1.379 . S
H887 C881 0.959 . S
H888 C881 0.961 . S
H889 C881 0.960 . S
H890 C882 0.930 . S
H891 C883 0.929 . S
H892 C900 0.929 . S
H893 C902 0.930 . S
H894 C904 0.930 . S
H895 C907 0.929 . S
H896 C910 0.930 . S
H897 C912 0.960 . S
H898 C912 0.960 . S
H899 C912 0.960 . S
C900 H892 0.929 . S
C900 C901 1.377 . S
C900 C902 1.384 . S
C901 C900 1.377 . S
C901 C907 1.390 . S
C902 H893 0.930 . S
C902 C900 1.384 . S
C902 C903 1.372 . S
C903 C902 1.372 . S
C903 C904 1.400 . S
C903 C908 1.490 . S
C904 H894 0.930 . S
C904 C903 1.400 . S
C904 C907 1.386 . S
H905 C921 0.930 . S
H906 C922 0.931 . S
C907 H895 0.929 . S
C907 C901 1.390 . S
C907 C904 1.386 . S
C908 C903 1.490 . S
C908 C910 1.395 . S
C908 C911 1.403 . S
H909 C915 0.930 . S
C910 H896 0.930 . S
C910 C908 1.395 . S
C910 C913 1.403 . S
C911 C908 1.403 . S
C911 C912 1.524 1_655 S
C911 C915 1.400 . S
C912 H897 0.960 . S
C912 H898 0.960 . S
C912 H899 0.960 . S
C912 C911 1.524 1_455 S
C913 C910 1.403 . S
C913 C914 1.392 . S
C913 C917 1.495 . S
C914 C913 1.392 . S
C914 C915 1.385 . S
C914 C916 1.478 . S
C915 H909 0.930 . S
C915 C911 1.400 . S
C915 C914 1.385 . S
C916 C914 1.478 . S
C916 C918 1.381 . S
C916 C922 1.383 . S
C917 C913 1.495 . S
C917 H923 0.959 . S
C917 H924 0.961 . S
C917 H925 0.960 . S
C918 C916 1.381 . S
C918 C919 1.394 . S
C918 H926 0.930 . S
C919 C918 1.394 . S
C919 C920 1.383 . S
C919 H927 0.929 . S
C920 C919 1.383 . S
C920 C921 1.377 . S
C921 H905 0.930 . S
C921 C920 1.377 . S
C921 C922 1.379 . S
C922 H906 0.931 . S
C922 C916 1.383 . S
C922 C921 1.379 . S
H923 C917 0.959 . S
H924 C917 0.961 . S
H925 C917 0.960 . S
H926 C918 0.930 . S
H927 C919 0.929 . S
H928 C936 0.929 . S
H929 C938 0.930 . S
H930 C940 0.930 . S
H931 C943 0.929 . S
H932 C946 0.930 . S
H933 C948 0.960 . S
H934 C948 0.960 . S
H935 C948 0.960 . S
C936 H928 0.929 . S
C936 C937 1.377 . S
C936 C938 1.384 . S
C937 C936 1.377 . S
C937 C943 1.390 . S
C938 H929 0.930 . S
C938 C936 1.384 . S
C938 C939 1.372 . S
C939 C938 1.372 . S
C939 C940 1.400 . S
C939 C944 1.490 . S
C940 H930 0.930 . S
C940 C939 1.400 . S
C940 C943 1.386 . S
H941 C957 0.930 . S
H942 C958 0.931 . S
C943 H931 0.929 . S
C943 C937 1.390 . S
C943 C940 1.386 . S
C944 C939 1.490 . S
C944 C946 1.395 . S
C944 C947 1.403 . S
H945 C951 0.930 . S
C946 H932 0.930 . S
C946 C944 1.395 . S
C946 C949 1.403 . S
C947 C944 1.403 . S
C947 C948 1.524 . S
C947 C951 1.400 . S
C948 H933 0.960 . S
C948 H934 0.960 . S
C948 H935 0.960 . S
C948 C947 1.524 . S
C949 C946 1.403 . S
C949 C950 1.392 . S
C949 C953 1.495 . S
C950 C949 1.392 . S
C950 C951 1.385 . S
C950 C952 1.478 . S
C951 H945 0.930 . S
C951 C947 1.400 . S
C951 C950 1.385 . S
C952 C950 1.478 . S
C952 C954 1.381 . S
C952 C958 1.383 . S
C953 C949 1.495 . S
C953 H959 0.959 . S
C953 H960 0.961 . S
C953 H961 0.960 . S
C954 C952 1.381 . S
C954 C955 1.394 . S
C954 H962 0.930 . S
C955 C954 1.394 . S
C955 C956 1.383 . S
C955 H963 0.929 . S
C956 C955 1.383 . S
C956 C957 1.377 . S
C957 H941 0.930 . S
C957 C956 1.377 . S
C957 C958 1.379 . S
C958 H942 0.931 . S
C958 C952 1.383 . S
C958 C957 1.379 . S
H959 C953 0.959 . S
H960 C953 0.961 . S
H961 C953 0.960 . S
H962 C954 0.930 . S
H963 C955 0.929 . S
H964 C972 0.929 . S
H965 C974 0.930 . S
H966 C976 0.930 . S
H967 C979 0.929 . S
H968 C982 0.930 . S
H969 C984 0.960 . S
H970 C984 0.960 . S
H971 C984 0.960 . S
C972 H964 0.929 . S
C972 C973 1.377 . S
C972 C974 1.384 1_455 S
C973 C972 1.377 . S
C973 C979 1.390 . S
C974 H965 0.930 . S
C974 C972 1.384 1_655 S
C974 C975 1.372 . S
C975 C974 1.372 . S
C975 C976 1.400 . S
C975 C980 1.490 . S
C976 H966 0.930 . S
C976 C975 1.400 . S
C976 C979 1.386 1_655 S
H977 C993 0.930 . S
H978 C994 0.931 . S
C979 H967 0.929 . S
C979 C973 1.390 . S
C979 C976 1.386 1_455 S
C980 C975 1.490 . S
C980 C982 1.395 . S
C980 C983 1.403 . S
H981 C987 0.930 . S
C982 H968 0.930 . S
C982 C980 1.395 . S
C982 C985 1.403 . S
C983 C980 1.403 . S
C983 C984 1.524 . S
C983 C987 1.400 . S
C984 H969 0.960 . S
C984 H970 0.960 . S
C984 H971 0.960 . S
C984 C983 1.524 . S
C985 C982 1.403 . S
C985 C986 1.392 . S
C985 C989 1.495 . S
C986 C985 1.392 . S
C986 C987 1.385 . S
C986 C988 1.478 . S
C987 H981 0.930 . S
C987 C983 1.400 . S
C987 C986 1.385 . S
C988 C986 1.478 . S
C988 C990 1.381 . S
C988 C994 1.383 . S
C989 C985 1.495 . S
C989 H995 0.959 . S
C989 H996 0.961 . S
C989 H997 0.960 . S
C990 C988 1.381 . S
C990 C991 1.394 . S
C990 H998 0.930 . S
C991 C990 1.394 . S
C991 C992 1.383 . S
C991 H999 0.929 . S
C992 C991 1.383 . S
C992 C993 1.377 . S
C993 H977 0.930 . S
C993 C992 1.377 . S
C993 C994 1.379 . S
C994 H978 0.931 . S
C994 C988 1.383 . S
C994 C993 1.379 . S
H995 C989 0.959 . S
H996 C989 0.961 . S
H997 C989 0.960 . S
H998 C990 0.930 . S
H999 C991 0.929 . S
H1000 C1008 0.929 . S
H1001 C1010 0.930 . S
H1002 C1012 0.930 . S
H1003 C1015 0.929 . S
H1004 C1018 0.930 . S
H1005 C1020 0.960 . S
H1006 C1020 0.960 . S
H1007 C1020 0.969 . S
C1008 H1000 0.929 . S
C1008 C1009 1.377 . S
C1008 C1010 1.384 . S
C1009 C1008 1.377 . S
C1009 C1015 1.390 . S
C1010 H1001 0.930 . S
C1010 C1008 1.384 . S
C1010 C1011 1.372 . S
C1011 C1010 1.372 . S
C1011 C1012 1.400 . S
C1011 C1016 1.490 . S
C1012 H1002 0.930 . S
C1012 C1011 1.400 . S
C1012 C1015 1.386 . S
H1013 C1029 0.930 . S
H1014 C1030 0.931 . S
C1015 H1003 0.929 . S
C1015 C1009 1.390 . S
C1015 C1012 1.386 . S
C1016 C1011 1.490 . S
C1016 C1018 1.395 . S
C1016 C1019 1.403 . S
H1017 C1023 0.930 1_554 S
C1018 H1004 0.930 . S
C1018 C1016 1.395 . S
C1018 C1021 1.403 . S
C1019 C1016 1.403 . S
C1019 C1020 1.524 1_556 S
C1019 C1023 1.400 . S
C1020 H1005 0.960 . S
C1020 H1006 0.960 . S
C1020 H1007 0.969 . S
C1020 C1019 1.524 1_554 S
C1021 C1018 1.403 . S
C1021 C1022 1.392 . S
C1021 C1025 1.495 . S
C1022 C1021 1.392 . S
C1022 C1023 1.385 . S
C1022 C1024 1.478 . S
C1023 H1017 0.930 1_556 S
C1023 C1019 1.400 . S
C1023 C1022 1.385 . S
C1024 C1022 1.478 . S
C1024 C1026 1.381 . S
C1024 C1030 1.383 . S
C1025 C1021 1.495 . S
C1025 H1031 0.959 . S
C1025 H1032 0.961 . S
C1025 H1033 0.960 . S
C1026 C1024 1.381 . S
C1026 C1027 1.394 . S
C1026 H1034 0.930 . S
C1027 C1026 1.394 . S
C1027 C1028 1.383 . S
C1027 H1035 0.929 1_556 S
C1028 C1027 1.383 . S
C1028 C1029 1.377 . S
C1029 H1013 0.930 . S
C1029 C1028 1.377 . S
C1029 C1030 1.379 . S
C1030 H1014 0.931 . S
C1030 C1024 1.383 . S
C1030 C1029 1.379 . S
H1031 C1025 0.959 . S
H1032 C1025 0.961 . S
H1033 C1025 0.960 . S
H1034 C1026 0.930 . S
H1035 C1027 0.929 1_554 S
H1036 C1044 0.929 . S
H1037 C1046 0.930 . S
H1038 C1048 0.930 . S
H1039 C1051 0.929 . S
H1040 C1054 0.930 . S
H1041 C1056 0.960 . S
H1042 C1056 0.960 . S
H1043 C1056 0.960 . S
C1044 H1036 0.929 . S
C1044 C1045 1.377 . S
C1044 C1046 1.384 . S
C1045 C1044 1.377 . S
C1045 C1051 1.390 . S
C1046 H1037 0.930 . S
C1046 C1044 1.384 . S
C1046 C1047 1.372 . S
C1047 C1046 1.372 . S
C1047 C1048 1.400 . S
C1047 C1052 1.490 . S
C1048 H1038 0.930 . S
C1048 C1047 1.400 . S
C1048 C1051 1.386 . S
H1049 C1065 0.930 . S
H1050 C1066 0.931 . S
C1051 H1039 0.929 . S
C1051 C1045 1.390 . S
C1051 C1048 1.386 . S
C1052 C1047 1.490 . S
C1052 C1054 1.395 . S
C1052 C1055 1.403 . S
H1053 C1059 0.930 . S
C1054 H1040 0.930 . S
C1054 C1052 1.395 . S
C1054 C1057 1.403 . S
C1055 C1052 1.403 . S
C1055 C1056 1.524 . S
C1055 C1059 1.400 . S
C1056 H1041 0.960 . S
C1056 H1042 0.960 . S
C1056 H1043 0.960 . S
C1056 C1055 1.524 . S
C1057 C1054 1.403 . S
C1057 C1058 1.392 . S
C1057 C1061 1.495 . S
C1058 C1057 1.392 . S
C1058 C1059 1.385 . S
C1058 C1060 1.478 . S
C1059 H1053 0.930 . S
C1059 C1055 1.400 . S
C1059 C1058 1.385 . S
C1060 C1058 1.478 . S
C1060 C1062 1.381 . S
C1060 C1066 1.383 . S
C1061 C1057 1.495 . S
C1061 H1067 0.959 . S
C1061 H1068 0.961 . S
C1061 H1069 0.960 . S
C1062 C1060 1.381 . S
C1062 C1063 1.394 . S
C1062 H1070 0.930 . S
C1063 C1062 1.394 . S
C1063 C1064 1.383 . S
C1063 H1071 0.929 . S
C1064 C1063 1.383 . S
C1064 C1065 1.377 . S
C1065 H1049 0.930 . S
C1065 C1064 1.377 . S
C1065 C1066 1.379 . S
C1066 H1050 0.931 . S
C1066 C1060 1.383 . S
C1066 C1065 1.379 . S
H1067 C1061 0.959 . S
H1068 C1061 0.961 . S
H1069 C1061 0.960 . S
H1070 C1062 0.930 . S
H1071 C1063 0.929 . S
H1072 C1080 0.929 . S
H1073 C1082 0.930 1_545 S
H1074 C1084 0.930 . S
H1075 C1087 0.929 . S
H1076 C1090 0.930 . S
H1077 C1092 0.960 . S
H1078 C1092 0.960 . S
H1079 C1092 0.960 . S
C1080 H1072 0.929 . S
C1080 C1081 1.377 1_545 S
C1080 C1082 1.384 1_545 S
C1081 C1080 1.377 1_565 S
C1081 C1087 1.390 . S
C1082 H1073 0.930 1_565 S
C1082 C1080 1.384 1_565 S
C1082 C1083 1.372 . S
C1083 C1082 1.372 . S
C1083 C1084 1.400 . S
C1083 C1088 1.490 . S
C1084 H1074 0.930 . S
C1084 C1083 1.400 . S
C1084 C1087 1.386 . S
H1085 C1101 0.930 . S
H1086 C1102 0.931 . S
C1087 H1075 0.929 . S
C1087 C1081 1.390 . S
C1087 C1084 1.386 . S
C1088 C1083 1.490 . S
C1088 C1090 1.395 . S
C1088 C1091 1.403 . S
H1089 C1095 0.930 . S
C1090 H1076 0.930 . S
C1090 C1088 1.395 . S
C1090 C1093 1.403 . S
C1091 C1088 1.403 . S
C1091 C1092 1.524 . S
C1091 C1095 1.400 . S
C1092 H1077 0.960 . S
C1092 H1078 0.960 . S
C1092 H1079 0.960 . S
C1092 C1091 1.524 . S
C1093 C1090 1.403 . S
C1093 C1094 1.392 . S
C1093 C1097 1.495 . S
C1094 C1093 1.392 . S
C1094 C1095 1.385 . S
C1094 C1096 1.478 . S
C1095 H1089 0.930 . S
C1095 C1091 1.400 . S
C1095 C1094 1.385 . S
C1096 C1094 1.478 . S
C1096 C1098 1.381 . S
C1096 C1102 1.383 . S
C1097 C1093 1.495 . S
C1097 H1103 0.959 . S
C1097 H1104 0.961 . S
C1097 H1105 0.960 . S
C1098 C1096 1.381 . S
C1098 C1099 1.394 . S
C1098 H1106 0.930 . S
C1099 C1098 1.394 . S
C1099 C1100 1.383 . S
C1099 H1107 0.929 . S
C1100 C1099 1.383 . S
C1100 C1101 1.377 . S
C1101 H1085 0.930 . S
C1101 C1100 1.377 . S
C1101 C1102 1.379 . S
C1102 H1086 0.931 . S
C1102 C1096 1.383 . S
C1102 C1101 1.379 . S
H1103 C1097 0.959 . S
H1104 C1097 0.961 . S
H1105 C1097 0.960 . S
H1106 C1098 0.930 . S
H1107 C1099 0.929 . S
H1108 C1116 0.929 . S
H1109 C1118 0.930 . S
H1110 C1120 0.930 . S
H1111 C1123 0.929 . S
H1112 C1126 0.930 . S
H1113 C1128 0.960 . S
H1114 C1128 0.960 . S
H1115 C1128 0.960 . S
C1116 H1108 0.929 . S
C1116 C1117 1.377 . S
C1116 C1118 1.384 . S
C1117 C1116 1.377 . S
C1117 C1123 1.390 . S
C1118 H1109 0.930 . S
C1118 C1116 1.384 . S
C1118 C1119 1.372 . S
C1119 C1118 1.372 . S
C1119 C1120 1.400 . S
C1119 C1124 1.490 . S
C1120 H1110 0.930 . S
C1120 C1119 1.400 . S
C1120 C1123 1.386 . S
H1121 C1137 0.930 . S
H1122 C1138 0.931 . S
C1123 H1111 0.929 . S
C1123 C1117 1.390 . S
C1123 C1120 1.386 . S
C1124 C1119 1.490 . S
C1124 C1126 1.395 . S
C1124 C1127 1.403 . S
H1125 C1131 0.930 . S
C1126 H1112 0.930 . S
C1126 C1124 1.395 . S
C1126 C1129 1.403 . S
C1127 C1124 1.403 . S
C1127 C1128 1.524 . S
C1127 C1131 1.400 . S
C1128 H1113 0.960 . S
C1128 H1114 0.960 . S
C1128 H1115 0.960 . S
C1128 C1127 1.524 . S
C1129 C1126 1.403 . S
C1129 C1130 1.392 . S
C1129 C1133 1.495 . S
C1130 C1129 1.392 . S
C1130 C1131 1.385 . S
C1130 C1132 1.478 . S
C1131 H1125 0.930 . S
C1131 C1127 1.400 . S
C1131 C1130 1.385 . S
C1132 C1130 1.478 . S
C1132 C1134 1.381 . S
C1132 C1138 1.383 . S
C1133 C1129 1.495 . S
C1133 H1139 0.959 . S
C1133 H1140 0.961 . S
C1133 H1141 0.960 . S
C1134 C1132 1.381 . S
C1134 C1135 1.394 . S
C1134 H1142 0.930 . S
C1135 C1134 1.394 . S
C1135 C1136 1.383 . S
C1135 H1143 0.929 . S
C1136 C1135 1.383 . S
C1136 C1137 1.377 . S
C1137 H1121 0.930 . S
C1137 C1136 1.377 . S
C1137 C1138 1.379 . S
C1138 H1122 0.931 . S
C1138 C1132 1.383 . S
C1138 C1137 1.379 . S
H1139 C1133 0.959 . S
H1140 C1133 0.961 . S
H1141 C1133 0.960 . S
H1142 C1134 0.930 . S
H1143 C1135 0.929 . S
H1144 C1152 0.929 . S
H1145 C1154 0.930 . S
H1146 C1156 0.930 . S
H1147 C1159 0.929 . S
H1148 C1162 0.930 . S
H1149 C1164 0.960 . S
H1150 C1164 0.960 . S
H1151 C1164 0.960 . S
C1152 H1144 0.929 . S
C1152 C1153 1.377 . S
C1152 C1154 1.384 . S
C1153 C1152 1.377 . S
C1153 C1159 1.390 . S
C1154 H1145 0.930 . S
C1154 C1152 1.384 . S
C1154 C1155 1.372 . S
C1155 C1154 1.372 . S
C1155 C1156 1.400 . S
C1155 C1160 1.490 . S
C1156 H1146 0.930 . S
C1156 C1155 1.400 . S
C1156 C1159 1.386 . S
H1157 C1173 0.930 1_554 S
H1158 C1174 0.931 . S
C1159 H1147 0.929 . S
C1159 C1153 1.390 . S
C1159 C1156 1.386 . S
C1160 C1155 1.490 . S
C1160 C1162 1.395 . S
C1160 C1163 1.403 . S
H1161 C1167 0.930 . S
C1162 H1148 0.930 . S
C1162 C1160 1.395 . S
C1162 C1165 1.403 . S
C1163 C1160 1.403 . S
C1163 C1164 1.524 . S
C1163 C1167 1.400 . S
C1164 H1149 0.960 . S
C1164 H1150 0.960 . S
C1164 H1151 0.960 . S
C1164 C1163 1.524 . S
C1165 C1162 1.403 . S
C1165 C1166 1.392 . S
C1165 C1169 1.495 . S
C1166 C1165 1.392 . S
C1166 C1167 1.385 . S
C1166 C1168 1.478 . S
C1167 H1161 0.930 . S
C1167 C1163 1.400 . S
C1167 C1166 1.385 . S
C1168 C1166 1.478 . S
C1168 C1170 1.381 . S
C1168 C1174 1.383 . S
C1169 C1165 1.495 . S
C1169 H1175 0.959 . S
C1169 H1176 0.961 . S
C1169 H1177 0.960 . S
C1170 C1168 1.381 . S
C1170 C1171 1.394 . S
C1170 H1178 0.930 . S
C1171 C1170 1.394 . S
C1171 C1172 1.383 . S
C1171 H1179 0.929 . S
C1172 C1171 1.383 . S
C1172 C1173 1.377 . S
C1173 H1157 0.930 1_556 S
C1173 C1172 1.377 . S
C1173 C1174 1.379 . S
C1174 H1158 0.931 . S
C1174 C1168 1.383 . S
C1174 C1173 1.379 . S
H1175 C1169 0.959 . S
H1176 C1169 0.961 . S
H1177 C1169 0.960 . S
H1178 C1170 0.930 . S
H1179 C1171 0.929 . S
H1180 C1188 0.929 . S
H1181 C1190 0.930 . S
H1182 C1192 0.930 . S
H1183 C1195 0.929 . S
H1184 C1198 0.930 . S
H1185 C1200 0.960 . S
H1186 C1200 0.960 . S
H1187 C1200 0.960 . S
C1188 H1180 0.929 . S
C1188 C1189 1.377 . S
C1188 C1190 1.384 . S
C1189 C1188 1.377 . S
C1189 C1195 1.390 . S
C1190 H1181 0.930 . S
C1190 C1188 1.384 . S
C1190 C1191 1.372 . S
C1191 C1190 1.372 . S
C1191 C1192 1.400 . S
C1191 C1196 1.490 . S
C1192 H1182 0.930 . S
C1192 C1191 1.400 . S
C1192 C1195 1.386 . S
H1193 C1209 0.930 . S
H1194 C1210 0.931 . S
C1195 H1183 0.929 . S
C1195 C1189 1.390 . S
C1195 C1192 1.386 . S
C1196 C1191 1.490 . S
C1196 C1198 1.395 . S
C1196 C1199 1.403 . S
H1197 C1203 0.930 . S
C1198 H1184 0.930 . S
C1198 C1196 1.395 . S
C1198 C1201 1.403 . S
C1199 C1196 1.403 . S
C1199 C1200 1.524 . S
C1199 C1203 1.400 . S
C1200 H1185 0.960 . S
C1200 H1186 0.960 . S
C1200 H1187 0.960 . S
C1200 C1199 1.524 . S
C1201 C1198 1.403 . S
C1201 C1202 1.392 . S
C1201 C1205 1.495 . S
C1202 C1201 1.392 . S
C1202 C1203 1.385 . S
C1202 C1204 1.478 . S
C1203 H1197 0.930 . S
C1203 C1199 1.400 . S
C1203 C1202 1.385 . S
C1204 C1202 1.478 . S
C1204 C1206 1.381 . S
C1204 C1210 1.383 . S
C1205 C1201 1.495 . S
C1205 H1211 0.959 . S
C1205 H1212 0.961 . S
C1205 H1213 0.960 . S
C1206 C1204 1.381 . S
C1206 C1207 1.394 . S
C1206 H1214 0.930 . S
C1207 C1206 1.394 . S
C1207 C1208 1.383 . S
C1207 H1215 0.929 . S
C1208 C1207 1.383 . S
C1208 C1209 1.377 . S
C1209 H1193 0.930 . S
C1209 C1208 1.377 . S
C1209 C1210 1.379 . S
C1210 H1194 0.931 . S
C1210 C1204 1.383 . S
C1210 C1209 1.379 . S
H1211 C1205 0.959 . S
H1212 C1205 0.961 . S
H1213 C1205 0.960 . S
H1214 C1206 0.930 . S
H1215 C1207 0.929 . S
H1216 C1224 0.929 . S
H1217 C1226 0.930 . S
H1218 C1228 0.930 . S
H1219 C1231 0.929 . S
H1220 C1234 0.930 . S
H1221 C1236 0.960 . S
H1222 C1236 0.960 . S
H1223 C1236 0.960 . S
C1224 H1216 0.929 . S
C1224 C1225 1.377 . S
C1224 C1226 1.384 . S
C1225 C1224 1.377 . S
C1225 C1231 1.390 . S
C1226 H1217 0.930 . S
C1226 C1224 1.384 . S
C1226 C1227 1.372 . S
C1227 C1226 1.372 . S
C1227 C1228 1.400 . S
C1227 C1232 1.490 . S
C1228 H1218 0.930 . S
C1228 C1227 1.400 . S
C1228 C1231 1.386 . S
H1229 C1245 0.930 . S
H1230 C1246 0.931 . S
C1231 H1219 0.929 . S
C1231 C1225 1.390 . S
C1231 C1228 1.386 . S
C1232 C1227 1.490 . S
C1232 C1234 1.395 . S
C1232 C1235 1.403 . S
H1233 C1239 0.930 . S
C1234 H1220 0.930 . S
C1234 C1232 1.395 . S
C1234 C1237 1.403 . S
C1235 C1232 1.403 . S
C1235 C1236 1.524 . S
C1235 C1239 1.400 . S
C1236 H1221 0.960 . S
C1236 H1222 0.960 . S
C1236 H1223 0.960 . S
C1236 C1235 1.524 . S
C1237 C1234 1.403 . S
C1237 C1238 1.392 . S
C1237 C1241 1.495 . S
C1238 C1237 1.392 . S
C1238 C1239 1.385 . S
C1238 C1240 1.478 . S
C1239 H1233 0.930 . S
C1239 C1235 1.400 . S
C1239 C1238 1.385 . S
C1240 C1238 1.478 . S
C1240 C1242 1.381 . S
C1240 C1246 1.383 . S
C1241 C1237 1.495 . S
C1241 H1247 0.959 . S
C1241 H1248 0.961 . S
C1241 H1249 0.960 . S
C1242 C1240 1.381 . S
C1242 C1243 1.394 . S
C1242 H1250 0.930 . S
C1243 C1242 1.394 . S
C1243 C1244 1.383 . S
C1243 H1251 0.929 . S
C1244 C1243 1.383 . S
C1244 C1245 1.377 . S
C1245 H1229 0.930 . S
C1245 C1244 1.377 . S
C1245 C1246 1.379 . S
C1246 H1230 0.931 . S
C1246 C1240 1.383 . S
C1246 C1245 1.379 . S
H1247 C1241 0.959 . S
H1248 C1241 0.961 . S
H1249 C1241 0.960 . S
H1250 C1242 0.930 . S
H1251 C1243 0.929 . S
H1252 C1260 0.929 . S
H1253 C1262 0.930 . S
H1254 C1264 0.930 . S
H1255 C1267 0.929 . S
H1256 C1270 0.930 . S
H1257 C1272 0.960 . S
H1258 C1272 0.960 . S
H1259 C1272 0.960 . S
C1260 H1252 0.929 . S
C1260 C1261 1.377 . S
C1260 C1262 1.384 . S
C1261 C1260 1.377 . S
C1261 C1267 1.390 . S
C1262 H1253 0.930 . S
C1262 C1260 1.384 . S
C1262 C1263 1.372 . S
C1263 C1262 1.372 . S
C1263 C1264 1.400 . S
C1263 C1268 1.490 . S
C1264 H1254 0.930 . S
C1264 C1263 1.400 . S
C1264 C1267 1.386 . S
H1265 C1281 0.930 . S
H1266 C1282 0.931 . S
C1267 H1255 0.929 . S
C1267 C1261 1.390 . S
C1267 C1264 1.386 . S
C1268 C1263 1.490 . S
C1268 C1270 1.395 . S
C1268 C1271 1.403 . S
H1269 C1275 0.930 . S
C1270 H1256 0.930 . S
C1270 C1268 1.395 . S
C1270 C1273 1.403 . S
C1271 C1268 1.403 . S
C1271 C1272 1.524 . S
C1271 C1275 1.400 . S
C1272 H1257 0.960 . S
C1272 H1258 0.960 . S
C1272 H1259 0.960 . S
C1272 C1271 1.524 . S
C1273 C1270 1.403 . S
C1273 C1274 1.392 . S
C1273 C1277 1.495 . S
C1274 C1273 1.392 . S
C1274 C1275 1.385 . S
C1274 C1276 1.478 . S
C1275 H1269 0.930 . S
C1275 C1271 1.400 . S
C1275 C1274 1.385 . S
C1276 C1274 1.478 . S
C1276 C1278 1.381 . S
C1276 C1282 1.383 . S
C1277 C1273 1.495 . S
C1277 H1283 0.959 . S
C1277 H1284 0.961 . S
C1277 H1285 0.960 . S
C1278 C1276 1.381 . S
C1278 C1279 1.394 . S
C1278 H1286 0.930 . S
C1279 C1278 1.394 . S
C1279 C1280 1.383 . S
C1279 H1287 0.929 . S
C1280 C1279 1.383 . S
C1280 C1281 1.377 . S
C1281 H1265 0.930 . S
C1281 C1280 1.377 . S
C1281 C1282 1.379 . S
C1282 H1266 0.931 . S
C1282 C1276 1.383 . S
C1282 C1281 1.379 . S
H1283 C1277 0.959 . S
H1284 C1277 0.961 . S
H1285 C1277 0.960 . S
H1286 C1278 0.930 . S
H1287 C1279 0.929 . S
H1288 C1296 0.929 . S
H1289 C1298 0.930 . S
H1290 C1300 0.930 . S
H1291 C1303 0.929 . S
H1292 C1306 0.930 . S
H1293 C1308 0.960 . S
H1294 C1308 0.960 . S
H1295 C1308 0.960 . S
C1296 H1288 0.929 . S
C1296 C1297 1.377 . S
C1296 C1298 1.384 . S
C1297 C1296 1.377 . S
C1297 C1303 1.390 . S
C1298 H1289 0.930 . S
C1298 C1296 1.384 . S
C1298 C1299 1.372 . S
C1299 C1298 1.372 . S
C1299 C1300 1.400 . S
C1299 C1304 1.490 . S
C1300 H1290 0.930 . S
C1300 C1299 1.400 . S
C1300 C1303 1.386 . S
H1301 C1317 0.930 . S
H1302 C1318 0.931 . S
C1303 H1291 0.929 . S
C1303 C1297 1.390 . S
C1303 C1300 1.386 . S
C1304 C1299 1.490 . S
C1304 C1306 1.395 . S
C1304 C1307 1.403 . S
H1305 C1311 0.930 . S
C1306 H1292 0.930 . S
C1306 C1304 1.395 . S
C1306 C1309 1.403 . S
C1307 C1304 1.403 . S
C1307 C1308 1.524 . S
C1307 C1311 1.400 . S
C1308 H1293 0.960 . S
C1308 H1294 0.960 . S
C1308 H1295 0.960 . S
C1308 C1307 1.524 . S
C1309 C1306 1.403 . S
C1309 C1310 1.392 . S
C1309 C1313 1.495 . S
C1310 C1309 1.392 . S
C1310 C1311 1.385 . S
C1310 C1312 1.478 . S
C1311 H1305 0.930 . S
C1311 C1307 1.400 . S
C1311 C1310 1.385 . S
C1312 C1310 1.478 . S
C1312 C1314 1.381 . S
C1312 C1318 1.383 . S
C1313 C1309 1.495 . S
C1313 H1319 0.959 . S
C1313 H1320 0.961 . S
C1313 H1321 0.960 . S
C1314 C1312 1.381 . S
C1314 C1315 1.394 . S
C1314 H1322 0.930 . S
C1315 C1314 1.394 . S
C1315 C1316 1.383 . S
C1315 H1323 0.929 . S
C1316 C1315 1.383 . S
C1316 C1317 1.377 . S
C1317 H1301 0.930 . S
C1317 C1316 1.377 . S
C1317 C1318 1.379 . S
C1318 H1302 0.931 . S
C1318 C1312 1.383 . S
C1318 C1317 1.379 . S
H1319 C1313 0.959 . S
H1320 C1313 0.961 . S
H1321 C1313 0.960 . S
H1322 C1314 0.930 . S
H1323 C1315 0.929 . S
H1324 C1332 0.929 . S
H1325 C1334 0.930 . S
H1326 C1336 0.930 . S
H1327 C1339 0.929 . S
H1328 C1342 0.930 . S
H1329 C1344 0.960 . S
H1330 C1344 0.960 . S
H1331 C1344 0.960 . S
C1332 H1324 0.929 . S
C1332 C1333 1.377 . S
C1332 C1334 1.384 . S
C1333 C1332 1.377 . S
C1333 C1339 1.390 . S
C1334 H1325 0.930 . S
C1334 C1332 1.384 . S
C1334 C1335 1.372 . S
C1335 C1334 1.372 . S
C1335 C1336 1.400 . S
C1335 C1340 1.490 . S
C1336 H1326 0.930 . S
C1336 C1335 1.400 . S
C1336 C1339 1.386 . S
H1337 C1353 0.930 . S
H1338 C1354 0.931 . S
C1339 H1327 0.929 . S
C1339 C1333 1.390 . S
C1339 C1336 1.386 . S
C1340 C1335 1.490 . S
C1340 C1342 1.395 . S
C1340 C1343 1.403 . S
H1341 C1347 0.930 . S
C1342 H1328 0.930 . S
C1342 C1340 1.395 . S
C1342 C1345 1.403 1_545 S
C1343 C1340 1.403 . S
C1343 C1344 1.524 . S
C1343 C1347 1.400 . S
C1344 H1329 0.960 . S
C1344 H1330 0.960 . S
C1344 H1331 0.960 . S
C1344 C1343 1.524 . S
C1345 C1342 1.403 1_565 S
C1345 C1346 1.392 . S
C1345 C1349 1.495 . S
C1346 C1345 1.392 . S
C1346 C1347 1.385 1_565 S
C1346 C1348 1.478 . S
C1347 H1341 0.930 . S
C1347 C1343 1.400 . S
C1347 C1346 1.385 1_545 S
C1348 C1346 1.478 . S
C1348 C1350 1.381 . S
C1348 C1354 1.383 . S
C1349 C1345 1.495 . S
C1349 H1355 0.959 . S
C1349 H1356 0.961 . S
C1349 H1357 0.960 . S
C1350 C1348 1.381 . S
C1350 C1351 1.394 . S
C1350 H1358 0.930 . S
C1351 C1350 1.394 . S
C1351 C1352 1.383 . S
C1351 H1359 0.929 . S
C1352 C1351 1.383 . S
C1352 C1353 1.377 . S
C1353 H1337 0.930 . S
C1353 C1352 1.377 . S
C1353 C1354 1.379 . S
C1354 H1338 0.931 . S
C1354 C1348 1.383 . S
C1354 C1353 1.379 . S
H1355 C1349 0.959 . S
H1356 C1349 0.961 . S
H1357 C1349 0.960 . S
H1358 C1350 0.930 . S
H1359 C1351 0.929 . S
H1360 C1368 0.929 . S
H1361 C1370 0.930 . S
H1362 C1372 0.930 . S
H1363 C1375 0.929 . S
H1364 C1378 0.930 . S
H1365 C1380 0.960 . S
H1366 C1380 0.960 . S
H1367 C1380 0.960 . S
C1368 H1360 0.929 . S
C1368 C1369 1.377 . S
C1368 C1370 1.384 . S
C1369 C1368 1.377 . S
C1369 C1375 1.390 . S
C1370 H1361 0.930 . S
C1370 C1368 1.384 . S
C1370 C1371 1.372 . S
C1371 C1370 1.372 . S
C1371 C1372 1.400 . S
C1371 C1376 1.490 . S
C1372 H1362 0.930 . S
C1372 C1371 1.400 . S
C1372 C1375 1.386 . S
H1373 C1389 0.930 . S
H1374 C1390 0.931 . S
C1375 H1363 0.929 . S
C1375 C1369 1.390 . S
C1375 C1372 1.386 . S
C1376 C1371 1.490 . S
C1376 C1378 1.395 . S
C1376 C1379 1.403 . S
H1377 C1383 0.930 . S
C1378 H1364 0.930 . S
C1378 C1376 1.395 . S
C1378 C1381 1.403 . S
C1379 C1376 1.403 . S
C1379 C1380 1.524 . S
C1379 C1383 1.400 . S
C1380 H1365 0.960 . S
C1380 H1366 0.960 . S
C1380 H1367 0.960 . S
C1380 C1379 1.524 . S
C1381 C1378 1.403 . S
C1381 C1382 1.392 . S
C1381 C1385 1.495 . S
C1382 C1381 1.392 . S
C1382 C1383 1.385 . S
C1382 C1384 1.478 . S
C1383 H1377 0.930 . S
C1383 C1379 1.400 . S
C1383 C1382 1.385 . S
C1384 C1382 1.478 . S
C1384 C1386 1.381 . S
C1384 C1390 1.383 . S
C1385 C1381 1.495 . S
C1385 H1391 0.959 . S
C1385 H1392 0.961 . S
C1385 H1393 0.960 . S
C1386 C1384 1.381 . S
C1386 C1387 1.394 . S
C1386 H1394 0.930 . S
C1387 C1386 1.394 . S
C1387 C1388 1.383 . S
C1387 H1395 0.929 . S
C1388 C1387 1.383 . S
C1388 C1389 1.377 . S
C1389 H1373 0.930 . S
C1389 C1388 1.377 . S
C1389 C1390 1.379 . S
C1390 H1374 0.931 . S
C1390 C1384 1.383 . S
C1390 C1389 1.379 . S
H1391 C1385 0.959 . S
H1392 C1385 0.961 . S
H1393 C1385 0.960 . S
H1394 C1386 0.930 . S
H1395 C1387 0.929 . S
H1396 C1404 0.929 . S
H1397 C1406 0.930 . S
H1398 C1408 0.930 . S
H1399 C1411 0.929 . S
H1400 C1414 0.930 . S
H1401 C1416 0.960 . S
H1402 C1416 0.960 . S
H1403 C1416 0.960 . S
C1404 H1396 0.929 . S
C1404 C1405 1.377 . S
C1404 C1406 1.384 . S
C1405 C1404 1.377 . S
C1405 C1411 1.390 . S
C1406 H1397 0.930 . S
C1406 C1404 1.384 . S
C1406 C1407 1.372 . S
C1407 C1406 1.372 . S
C1407 C1408 1.400 . S
C1407 C1412 1.490 . S
C1408 H1398 0.930 . S
C1408 C1407 1.400 . S
C1408 C1411 1.386 . S
H1409 C1425 0.930 . S
H1410 C1426 0.931 . S
C1411 H1399 0.929 . S
C1411 C1405 1.390 . S
C1411 C1408 1.386 . S
C1412 C1407 1.490 . S
C1412 C1414 1.395 . S
C1412 C1415 1.403 . S
H1413 C1419 0.930 . S
C1414 H1400 0.930 . S
C1414 C1412 1.395 . S
C1414 C1417 1.403 . S
C1415 C1412 1.403 . S
C1415 C1416 1.524 . S
C1415 C1419 1.400 . S
C1416 H1401 0.960 . S
C1416 H1402 0.960 . S
C1416 H1403 0.960 . S
C1416 C1415 1.524 . S
C1417 C1414 1.403 . S
C1417 C1418 1.392 . S
C1417 C1421 1.495 . S
C1418 C1417 1.392 . S
C1418 C1419 1.385 . S
C1418 C1420 1.478 . S
C1419 H1413 0.930 . S
C1419 C1415 1.400 . S
C1419 C1418 1.385 . S
C1420 C1418 1.478 . S
C1420 C1422 1.381 . S
C1420 C1426 1.383 . S
C1421 C1417 1.495 . S
C1421 H1427 0.959 . S
C1421 H1428 0.961 . S
C1421 H1429 0.960 . S
C1422 C1420 1.381 . S
C1422 C1423 1.394 . S
C1422 H1430 0.930 . S
C1423 C1422 1.394 . S
C1423 C1424 1.383 . S
C1423 H1431 0.929 . S
C1424 C1423 1.383 . S
C1424 C1425 1.377 . S
C1425 H1409 0.930 . S
C1425 C1424 1.377 . S
C1425 C1426 1.379 . S
C1426 H1410 0.931 . S
C1426 C1420 1.383 . S
C1426 C1425 1.379 . S
H1427 C1421 0.959 . S
H1428 C1421 0.961 . S
H1429 C1421 0.960 . S
H1430 C1422 0.930 . S
H1431 C1423 0.929 . S
H1432 C1440 0.929 . S
H1433 C1442 0.930 . S
H1434 C1444 0.930 . S
H1435 C1447 0.929 . S
H1436 C1450 0.930 1_455 S
H1437 C1452 0.960 . S
H1438 C1452 0.960 . S
H1439 C1452 0.960 . S
C1440 H1432 0.929 . S
C1440 C1441 1.377 . S
C1440 C1442 1.384 1_455 S
C1441 C1440 1.377 . S
C1441 C1447 1.390 . S
C1442 H1433 0.930 . S
C1442 C1440 1.384 1_655 S
C1442 C1443 1.372 1_655 S
C1443 C1442 1.372 1_455 S
C1443 C1444 1.400 . S
C1443 C1448 1.490 1_455 S
C1444 H1434 0.930 . S
C1444 C1443 1.400 . S
C1444 C1447 1.386 . S
H1445 C1461 0.930 . S
H1446 C1462 0.931 . S
C1447 H1435 0.929 . S
C1447 C1441 1.390 . S
C1447 C1444 1.386 . S
C1448 C1443 1.490 1_655 S
C1448 C1450 1.395 . S
C1448 C1451 1.403 . S
H1449 C1455 0.930 . S
C1450 H1436 0.930 1_655 S
C1450 C1448 1.395 . S
C1450 C1453 1.403 . S
C1451 C1448 1.403 . S
C1451 C1452 1.524 . S
C1451 C1455 1.400 . S
C1452 H1437 0.960 . S
C1452 H1438 0.960 . S
C1452 H1439 0.960 . S
C1452 C1451 1.524 . S
C1453 C1450 1.403 . S
C1453 C1454 1.392 . S
C1453 C1457 1.495 . S
C1454 C1453 1.392 . S
C1454 C1455 1.385 . S
C1454 C1456 1.478 . S
C1455 H1449 0.930 . S
C1455 C1451 1.400 . S
C1455 C1454 1.385 . S
C1456 C1454 1.478 . S
C1456 C1458 1.381 . S
C1456 C1462 1.383 . S
C1457 C1453 1.495 . S
C1457 H1463 0.959 . S
C1457 H1464 0.961 . S
C1457 H1465 0.960 . S
C1458 C1456 1.381 . S
C1458 C1459 1.394 . S
C1458 H1466 0.930 . S
C1459 C1458 1.394 . S
C1459 C1460 1.383 . S
C1459 H1467 0.929 . S
C1460 C1459 1.383 . S
C1460 C1461 1.377 . S
C1461 H1445 0.930 . S
C1461 C1460 1.377 . S
C1461 C1462 1.379 . S
C1462 H1446 0.931 . S
C1462 C1456 1.383 . S
C1462 C1461 1.379 . S
H1463 C1457 0.959 . S
H1464 C1457 0.961 . S
H1465 C1457 0.960 . S
H1466 C1458 0.930 . S
H1467 C1459 0.929 . S
H1468 C1476 0.929 . S
H1469 C1478 0.930 . S
H1470 C1480 0.930 . S
H1471 C1483 0.929 . S
H1472 C1486 0.930 . S
H1473 C1488 0.960 . S
H1474 C1488 0.960 . S
H1475 C1488 0.960 . S
C1476 H1468 0.929 . S
C1476 C1477 1.377 . S
C1476 C1478 1.384 . S
C1477 C1476 1.377 . S
C1477 C1483 1.390 . S
C1478 H1469 0.930 . S
C1478 C1476 1.384 . S
C1478 C1479 1.372 . S
C1479 C1478 1.372 . S
C1479 C1480 1.400 . S
C1479 C1484 1.490 . S
C1480 H1470 0.930 . S
C1480 C1479 1.400 . S
C1480 C1483 1.386 . S
H1481 C1497 0.930 . S
H1482 C1498 0.931 . S
C1483 H1471 0.929 . S
C1483 C1477 1.390 . S
C1483 C1480 1.386 . S
C1484 C1479 1.490 . S
C1484 C1486 1.395 . S
C1484 C1487 1.403 . S
H1485 C1491 0.930 . S
C1486 H1472 0.930 . S
C1486 C1484 1.395 . S
C1486 C1489 1.403 . S
C1487 C1484 1.403 . S
C1487 C1488 1.524 . S
C1487 C1491 1.400 . S
C1488 H1473 0.960 . S
C1488 H1474 0.960 . S
C1488 H1475 0.960 . S
C1488 C1487 1.524 . S
C1489 C1486 1.403 . S
C1489 C1490 1.392 . S
C1489 C1493 1.495 . S
C1490 C1489 1.392 . S
C1490 C1491 1.385 . S
C1490 C1492 1.478 . S
C1491 H1485 0.930 . S
C1491 C1487 1.400 . S
C1491 C1490 1.385 . S
C1492 C1490 1.478 . S
C1492 C1494 1.381 . S
C1492 C1498 1.383 . S
C1493 C1489 1.495 . S
C1493 H1499 0.959 . S
C1493 H1500 0.961 . S
C1493 H1501 0.960 . S
C1494 C1492 1.381 . S
C1494 C1495 1.394 . S
C1494 H1502 0.930 . S
C1495 C1494 1.394 . S
C1495 C1496 1.383 . S
C1495 H1503 0.929 . S
C1496 C1495 1.383 . S
C1496 C1497 1.377 . S
C1497 H1481 0.930 . S
C1497 C1496 1.377 . S
C1497 C1498 1.379 . S
C1498 H1482 0.931 . S
C1498 C1492 1.383 . S
C1498 C1497 1.379 . S
H1499 C1493 0.959 . S
H1500 C1493 0.961 . S
H1501 C1493 0.960 . S
H1502 C1494 0.930 . S
H1503 C1495 0.929 . S
H1504 C1512 0.929 . S
H1505 C1514 0.930 . S
H1506 C1516 0.930 . S
H1507 C1519 0.929 . S
H1508 C1522 0.930 . S
H1509 C1524 0.960 . S
H1510 C1524 0.960 . S
H1511 C1524 0.960 . S
C1512 H1504 0.929 . S
C1512 C1513 1.377 . S
C1512 C1514 1.384 . S
C1513 C1512 1.377 . S
C1513 C1519 1.390 . S
C1514 H1505 0.930 . S
C1514 C1512 1.384 . S
C1514 C1515 1.372 . S
C1515 C1514 1.372 . S
C1515 C1516 1.400 . S
C1515 C1520 1.490 . S
C1516 H1506 0.930 . S
C1516 C1515 1.400 . S
C1516 C1519 1.386 . S
H1517 C1533 0.930 . S
H1518 C1534 0.931 . S
C1519 H1507 0.929 . S
C1519 C1513 1.390 . S
C1519 C1516 1.386 . S
C1520 C1515 1.490 . S
C1520 C1522 1.395 . S
C1520 C1523 1.403 . S
H1521 C1527 0.930 . S
C1522 H1508 0.930 . S
C1522 C1520 1.395 . S
C1522 C1525 1.403 . S
C1523 C1520 1.403 . S
C1523 C1524 1.524 . S
C1523 C1527 1.400 . S
C1524 H1509 0.960 . S
C1524 H1510 0.960 . S
C1524 H1511 0.960 . S
C1524 C1523 1.524 . S
C1525 C1522 1.403 . S
C1525 C1526 1.392 . S
C1525 C1529 1.495 . S
C1526 C1525 1.392 . S
C1526 C1527 1.385 . S
C1526 C1528 1.478 . S
C1527 H1521 0.930 . S
C1527 C1523 1.400 . S
C1527 C1526 1.385 . S
C1528 C1526 1.478 . S
C1528 C1530 1.381 . S
C1528 C1534 1.383 . S
C1529 C1525 1.495 . S
C1529 H1535 0.959 . S
C1529 H1536 0.961 . S
C1529 H1537 0.960 . S
C1530 C1528 1.381 . S
C1530 C1531 1.394 . S
C1530 H1538 0.930 . S
C1531 C1530 1.394 . S
C1531 C1532 1.383 . S
C1531 H1539 0.929 . S
C1532 C1531 1.383 . S
C1532 C1533 1.377 . S
C1533 H1517 0.930 . S
C1533 C1532 1.377 . S
C1533 C1534 1.379 . S
C1534 H1518 0.931 . S
C1534 C1528 1.383 . S
C1534 C1533 1.379 . S
H1535 C1529 0.959 . S
H1536 C1529 0.961 . S
H1537 C1529 0.960 . S
H1538 C1530 0.930 . S
H1539 C1531 0.929 . S
H1540 C1548 0.929 . S
H1541 C1550 0.930 . S
H1542 C1552 0.930 . S
H1543 C1555 0.929 . S
H1544 C1558 0.930 . S
H1545 C1560 0.960 . S
H1546 C1560 0.960 . S
H1547 C1560 0.960 . S
C1548 H1540 0.929 . S
C1548 C1549 1.377 . S
C1548 C1550 1.384 . S
C1549 C1548 1.377 . S
C1549 C1555 1.390 . S
C1550 H1541 0.930 . S
C1550 C1548 1.384 . S
C1550 C1551 1.372 . S
C1551 C1550 1.372 . S
C1551 C1552 1.400 . S
C1551 C1556 1.490 1_455 S
C1552 H1542 0.930 . S
C1552 C1551 1.400 . S
C1552 C1555 1.386 . S
H1553 C1569 0.930 . S
H1554 C1570 0.931 . S
C1555 H1543 0.929 . S
C1555 C1549 1.390 . S
C1555 C1552 1.386 . S
C1556 C1551 1.490 1_655 S
C1556 C1558 1.395 1_655 S
C1556 C1559 1.403 . S
H1557 C1563 0.930 . S
C1558 H1544 0.930 . S
C1558 C1556 1.395 1_455 S
C1558 C1561 1.385 1_455 S
C1559 C1556 1.403 . S
C1559 C1560 1.524 . S
C1559 C1563 1.400 . S
C1560 H1545 0.960 . S
C1560 H1546 0.960 . S
C1560 H1547 0.960 . S
C1560 C1559 1.524 . S
C1561 C1558 1.385 1_655 S
C1561 C1562 1.439 . S
C1561 C1565 1.468 1_655 S
C1562 C1561 1.439 . S
C1562 C1563 1.385 . S
C1562 C1564 1.478 . S
C1563 H1557 0.930 . S
C1563 C1559 1.400 . S
C1563 C1562 1.385 . S
C1564 C1562 1.478 . S
C1564 C1566 1.381 . S
C1564 C1570 1.383 . S
C1565 C1561 1.468 1_455 S
C1565 H1571 0.959 . S
C1565 H1572 0.961 . S
C1565 H1573 0.960 . S
C1566 C1564 1.381 . S
C1566 C1567 1.394 . S
C1566 H1574 0.930 . S
C1567 C1566 1.394 . S
C1567 C1568 1.383 . S
C1567 H1575 0.929 . S
C1568 C1567 1.383 . S
C1568 C1569 1.377 . S
C1569 H1553 0.930 . S
C1569 C1568 1.377 . S
C1569 C1570 1.379 . S
C1570 H1554 0.931 . S
C1570 C1564 1.383 . S
C1570 C1569 1.379 . S
H1571 C1565 0.959 . S
H1572 C1565 0.961 . S
H1573 C1565 0.960 . S
H1574 C1566 0.930 . S
H1575 C1567 0.929 . S
H1576 C1584 0.929 . S
H1577 C1586 0.930 . S
H1578 C1588 0.930 . S
H1579 C1591 0.929 . S
H1580 C1594 0.930 . S
H1581 C1596 0.960 . S
H1582 C1596 0.960 . S
H1583 C1596 0.960 . S
C1584 H1576 0.929 . S
C1584 C1585 1.377 . S
C1584 C1586 1.384 . S
C1585 C1584 1.377 . S
C1585 C1591 1.390 . S
C1586 H1577 0.930 . S
C1586 C1584 1.384 . S
C1586 C1587 1.372 . S
C1587 C1586 1.372 . S
C1587 C1588 1.400 . S
C1587 C1592 1.490 . S
C1588 H1578 0.930 . S
C1588 C1587 1.400 . S
C1588 C1591 1.386 . S
H1589 C1605 0.930 . S
H1590 C1606 0.931 . S
C1591 H1579 0.929 . S
C1591 C1585 1.390 . S
C1591 C1588 1.386 . S
C1592 C1587 1.490 . S
C1592 C1594 1.395 . S
C1592 C1595 1.403 . S
H1593 C1599 0.930 . S
C1594 H1580 0.930 . S
C1594 C1592 1.395 . S
C1594 C1597 1.403 . S
C1595 C1592 1.403 . S
C1595 C1596 1.524 . S
C1595 C1599 1.400 . S
C1596 H1581 0.960 . S
C1596 H1582 0.960 . S
C1596 H1583 0.960 . S
C1596 C1595 1.524 . S
C1597 C1594 1.403 . S
C1597 C1598 1.392 . S
C1597 C1601 1.495 . S
C1598 C1597 1.392 . S
C1598 C1599 1.385 . S
C1598 C1600 1.478 . S
C1599 H1593 0.930 . S
C1599 C1595 1.400 . S
C1599 C1598 1.385 . S
C1600 C1598 1.478 . S
C1600 C1602 1.381 . S
C1600 C1606 1.383 . S
C1601 C1597 1.495 . S
C1601 H1607 0.959 . S
C1601 H1608 0.961 . S
C1601 H1609 0.960 . S
C1602 C1600 1.381 . S
C1602 C1603 1.394 . S
C1602 H1610 0.930 . S
C1603 C1602 1.394 . S
C1603 C1604 1.383 . S
C1603 H1611 0.929 . S
C1604 C1603 1.383 . S
C1604 C1605 1.377 . S
C1605 H1589 0.930 . S
C1605 C1604 1.377 . S
C1605 C1606 1.379 . S
C1606 H1590 0.931 . S
C1606 C1600 1.383 . S
C1606 C1605 1.379 . S
H1607 C1601 0.959 . S
H1608 C1601 0.961 . S
H1609 C1601 0.960 . S
H1610 C1602 0.930 . S
H1611 C1603 0.929 . S
H1612 C1620 0.929 . S
H1613 C1622 0.930 . S
H1614 C1624 0.930 . S
H1615 C1627 0.929 . S
H1616 C1630 0.930 . S
H1617 C1632 0.960 . S
H1618 C1632 0.960 . S
H1619 C1632 0.960 . S
C1620 H1612 0.929 . S
C1620 C1621 1.377 . S
C1620 C1622 1.384 . S
C1621 C1620 1.377 . S
C1621 C1627 1.390 . S
C1622 H1613 0.930 . S
C1622 C1620 1.384 . S
C1622 C1623 1.372 . S
C1623 C1622 1.372 . S
C1623 C1624 1.400 . S
C1623 C1628 1.490 . S
C1624 H1614 0.930 . S
C1624 C1623 1.400 . S
C1624 C1627 1.386 . S
H1625 C1641 0.930 . S
H1626 C1642 0.931 . S
C1627 H1615 0.929 . S
C1627 C1621 1.390 . S
C1627 C1624 1.386 . S
C1628 C1623 1.490 . S
C1628 C1630 1.395 . S
C1628 C1631 1.403 . S
H1629 C1635 0.930 . S
C1630 H1616 0.930 . S
C1630 C1628 1.395 . S
C1630 C1633 1.403 . S
C1631 C1628 1.403 . S
C1631 C1632 1.524 . S
C1631 C1635 1.400 . S
C1632 H1617 0.960 . S
C1632 H1618 0.960 . S
C1632 H1619 0.960 . S
C1632 C1631 1.524 . S
C1633 C1630 1.403 . S
C1633 C1634 1.392 . S
C1633 C1637 1.495 . S
C1634 C1633 1.392 . S
C1634 C1635 1.385 . S
C1634 C1636 1.478 . S
C1635 H1629 0.930 . S
C1635 C1631 1.400 . S
C1635 C1634 1.385 . S
C1636 C1634 1.478 . S
C1636 C1638 1.381 . S
C1636 C1642 1.383 . S
C1637 C1633 1.495 . S
C1637 H1643 0.959 . S
C1637 H1644 0.961 . S
C1637 H1645 0.960 . S
C1638 C1636 1.381 . S
C1638 C1639 1.394 . S
C1638 H1646 0.930 . S
C1639 C1638 1.394 . S
C1639 C1640 1.383 . S
C1639 H1647 0.929 . S
C1640 C1639 1.383 . S
C1640 C1641 1.377 . S
C1641 H1625 0.930 . S
C1641 C1640 1.377 . S
C1641 C1642 1.379 . S
C1642 H1626 0.931 . S
C1642 C1636 1.383 . S
C1642 C1641 1.379 . S
H1643 C1637 0.959 . S
H1644 C1637 0.961 . S
H1645 C1637 0.960 . S
H1646 C1638 0.930 . S
H1647 C1639 0.929 . S
C524 C404 1.249 . S
C505 C36 1.242 . S
C560 C421 1.305 . S
C541 C93 1.368 . S
C596 C435 1.505 . S
C577 C126 1.517 . S
C613 C165 1.247 . S
C632 C393 1.194 . S
C649 C222 1.195 . S
C668 C390 1.211 . S
C685 C261 1.047 . S
C704 C407 0.992 . S
C740 C418 1.474 . S
C721 C318 1.457 . S
C776 C432 1.325 . S
C757 C381 1.334 . S
C793 C132 1.313 . S
C812 C460 1.322 . S
C848 C474 1.492 . S
C829 C189 1.503 . S
C865 C30 1.051 . S
C884 C491 0.990 . S
C920 C446 1.203 . S
C901 C69 1.186 1_655 S
C937 C324 1.238 . S
C956 C449 1.210 . S
C973 C357 1.502 . S
C992 C463 1.504 . S
C1028 C477 1.309 . S
C1009 C228 1.364 . S
C1045 C285 1.256 . S
C1064 C488 1.268 . S
C1100 C420 2.028 . S
C1081 C45 1.996 1_565 S
C1136 C434 2.089 . S
C1117 C84 2.092 . S
C1153 C117 1.997 . S
C1172 C392 1.995 1_556 S
C1189 C174 1.840 . S
C1208 C405 1.795 . S
C1225 C213 1.713 . S
C1244 C433 1.548 . S
C1280 C391 1.477 . S
C1261 C270 1.622 . S
C1316 C406 1.910 . S
C1297 C309 1.916 . S
C1352 C419 1.722 . S
C1333 C372 1.828 . S
C1388 C475 1.669 . S
C1369 C141 1.809 . S
C1424 C490 1.914 . S
C1405 C180 1.913 . S
C1441 C21 1.642 . S
C1460 C447 1.477 . S
C1496 C461 1.606 . S
C1477 C78 1.697 . S
C1532 C489 1.803 . S
C1513 C333 1.893 . S
C1549 C366 1.963 . S
C1568 C448 1.998 . S
C1604 C462 2.091 . S
C1585 C237 2.090 . S
C1640 C476 2.032 . S
C1621 C276 2.030 . S
