# Generated by pormake.
# Topology anh, (6,3)-cn, num edge types: 1
# Building blocks:
#     Node 0, Type 0, BuildingBlock: CUKXOW_clean_sbu_0, # of connection points: 6
#     Node 1, Type 0, BuildingBlock: CUKXOW_clean_sbu_0, # of connection points: 6
#     Node 2, Type 0, BuildingBlock: CUKXOW_clean_sbu_0, # of connection points: 6
#     Node 3, Type 1, BuildingBlock: BETDAH_clean_linker_0, # of connection points: 3
#     Node 4, Type 1, BuildingBlock: BETDAH_clean_linker_0, # of connection points: 3
#     Node 5, Type 1, BuildingBlock: BETDAH_clean_linker_0, # of connection points: 3
#     Node 6, Type 1, BuildingBlock: BETDAH_clean_linker_0, # of connection points: 3
#     Node 7, Type 1, BuildingBlock: BETDAH_clean_linker_0, # of connection points: 3
#     Node 8, Type 1, BuildingBlock: BETDAH_clean_linker_0, # of connection points: 3
#     Edge 9, Type (0, 1), BuildingBlock: OJICUG_clean_linker_0, # of connection points: 2
#     Edge 10, Type (0, 1), BuildingBlock: OJICUG_clean_linker_0, # of connection points: 2
#     Edge 11, Type (0, 1), BuildingBlock: OJICUG_clean_linker_0, # of connection points: 2
#     Edge 12, Type (0, 1), BuildingBlock: OJICUG_clean_linker_0, # of connection points: 2
#     Edge 13, Type (0, 1), BuildingBlock: OJICUG_clean_linker_0, # of connection points: 2
#     Edge 14, Type (0, 1), BuildingBlock: OJICUG_clean_linker_0, # of connection points: 2
#     Edge 15, Type (0, 1), BuildingBlock: OJICUG_clean_linker_0, # of connection points: 2
#     Edge 16, Type (0, 1), BuildingBlock: OJICUG_clean_linker_0, # of connection points: 2
#     Edge 17, Type (0, 1), BuildingBlock: OJICUG_clean_linker_0, # of connection points: 2
#     Edge 18, Type (0, 1), BuildingBlock: OJICUG_clean_linker_0, # of connection points: 2
#     Edge 19, Type (0, 1), BuildingBlock: OJICUG_clean_linker_0, # of connection points: 2
#     Edge 20, Type (0, 1), BuildingBlock: OJICUG_clean_linker_0, # of connection points: 2
#     Edge 21, Type (0, 1), BuildingBlock: OJICUG_clean_linker_0, # of connection points: 2
#     Edge 22, Type (0, 1), BuildingBlock: OJICUG_clean_linker_0, # of connection points: 2
#     Edge 23, Type (0, 1), BuildingBlock: OJICUG_clean_linker_0, # of connection points: 2
#     Edge 24, Type (0, 1), BuildingBlock: OJICUG_clean_linker_0, # of connection points: 2
#     Edge 25, Type (0, 1), BuildingBlock: OJICUG_clean_linker_0, # of connection points: 2
#     Edge 26, Type (0, 1), BuildingBlock: OJICUG_clean_linker_0, # of connection points: 2
# Relax obj value: 0.077
# Max RMSD: 0.146
# Mean RMSD: 0.087
data_MOF--net-anh--node1-CUKXOW_clean_sbu_0--node2-BETDAH_clean_linker_0--edge1-OJICUG_clean_linker_0
_symmetry_space_group_name_H-M    P1
_symmetry_Int_Tables_number       1
_symmetry_cell_setting            triclinic
loop_
_symmetry_equiv_pos_as_xyz
'x, y, z'
_cell_length_a     20.886498
_cell_length_b     20.48326
_cell_length_c     34.303843
_cell_angle_alpha  97.741823
_cell_angle_beta   91.893967
_cell_angle_gamma 109.14412
loop_
_atom_site_label
_atom_site_type_symbol
_atom_site_fract_x
_atom_site_fract_y
_atom_site_fract_z
_atom_type_partial_charge
Tb0 Tb 0.09499 0.57644 0.16359 0.0
C1 C 0.04342 0.52835 0.2446 0.0
Tb2 Tb 1.01066 0.42063 0.16472 0.0
O3 O 1.01111 0.61719 0.15328 0.0
O4 O 0.99126 0.51379 0.15818 0.0
O5 O 0.07858 0.57968 0.22591 0.0
C6 C 0.90618 0.30361 0.16431 0.0
O7 O 1.01176 0.46316 0.22682 0.0
C8 C 0.14355 0.44726 0.16012 0.0
C9 C 0.06308 0.46696 0.08532 0.0
O10 O 0.96456 0.3191 0.18439 0.0
O11 O 0.90711 0.35371 0.1447 0.0
O12 O 0.09732 0.38662 0.14795 0.0
O13 O 0.11399 0.48629 0.17783 0.0
O14 O 1.01377 0.42338 0.10194 0.0
O15 O 0.10624 0.52606 0.10517 0.0
C16 C 0.20582 0.69011 0.17504 0.0
O17 O 0.16659 0.66748 0.14239 0.0
O18 O 0.18162 0.64983 0.20083 0.0
C19 C 0.96228 0.55792 0.15309 0.0
Tb20 Tb 0.5406 0.03466 0.50155 0.0
C21 C 0.60116 0.07302 0.42168 0.0
Tb22 Tb 0.68964 0.122 0.50466 0.0
O23 O 0.5091 0.12159 0.48757 0.0
O24 O 0.60002 0.14047 0.52137 0.0
O25 O 0.54758 0.03788 0.43899 0.0
C26 C 0.79816 0.23243 0.49967 0.0
O27 O 0.66137 0.10814 0.44109 0.0
C28 C 0.66568 0.98772 0.50254 0.0
C29 C 0.62799 0.08514 0.58402 0.0
O30 O 0.79992 0.17579 0.51213 0.0
O31 O 0.73584 0.22642 0.49001 0.0
O32 O 0.72182 0.03539 0.5186 0.0
O33 O 0.6306 0.01645 0.48506 0.0
O34 O 0.6746 0.1319 0.56734 0.0
O35 O 0.5749 0.0366 0.563 0.0
C36 C 0.4278 0.92474 0.49732 0.0
O37 O 0.43475 0.98717 0.51515 0.0
O38 O 0.48405 0.92472 0.48273 0.0
C39 C 0.56506 0.16926 0.50383 0.0
Tb40 Tb 0.52241 0.60009 0.82555 0.0
C41 C 0.5845 0.60412 0.91028 0.0
Tb42 Tb 0.67792 0.62693 0.83782 0.0
O43 O 0.50157 0.49427 0.83949 0.0
O44 O 0.5897 0.54281 0.81377 0.0
O45 O 0.53364 0.61421 0.89032 0.0
C46 C 0.78301 0.58653 0.85142 0.0
O47 O 0.64124 0.60295 0.89448 0.0
C48 C 0.65263 0.74609 0.84769 0.0
C49 C 0.61491 0.62298 0.75349 0.0
O50 O 0.72808 0.57131 0.86972 0.0
O51 O 0.78029 0.62693 0.8256 0.0
O52 O 0.71385 0.74266 0.85061 0.0
O53 O 0.61229 0.68439 0.84104 0.0
O54 O 0.66317 0.6103 0.77414 0.0
O55 O 0.56066 0.63213 0.7696 0.0
C56 C 0.39497 0.58314 0.8014 0.0
O57 O 0.43416 0.55339 0.78356 0.0
O58 O 0.4287 0.62505 0.83286 0.0
C59 C 0.55896 0.48964 0.82886 0.0
H60 H 0.4478 0.93675 0.26632 0.0
H61 H 0.6412 0.05874 0.23176 0.0
H62 H 0.49647 0.90242 0.14629 0.0
C63 C 0.48272 0.95038 0.24371 0.0
C64 C 0.46394 0.9139 0.20517 0.0
C65 C 0.5466 0.0024 0.25378 0.0
C66 C 0.59176 0.01884 0.22426 0.0
C67 C 0.57321 0.98307 0.18528 0.0
C68 C 0.50961 0.93079 0.17609 0.0
N69 N 0.61776 0.99714 0.15479 0.0
C70 C 0.67622 0.05531 0.15819 0.0
H71 H 0.61123 0.46213 0.59526 0.0
H72 H 0.61015 0.65865 0.56541 0.0
H73 H 0.59216 0.4866 0.47323 0.0
C74 C 0.60941 0.49438 0.57291 0.0
C75 C 0.60192 0.46553 0.53286 0.0
C76 C 0.61187 0.56351 0.58472 0.0
C77 C 0.60782 0.60519 0.55609 0.0
C78 C 0.60155 0.57787 0.51566 0.0
C79 C 0.59751 0.50774 0.50433 0.0
N80 N 0.59928 0.61924 0.48574 0.0
C81 C 0.61046 0.69104 0.49256 0.0
H82 H 0.98366 0.47826 0.93495 0.0
H83 H 0.10514 0.35387 0.89368 0.0
H84 H 0.98312 0.41259 0.81049 0.0
C85 C 1.00051 0.44984 0.91069 0.0
C86 C 0.97668 0.44814 0.87191 0.0
C87 C 0.04603 0.4156 0.91877 0.0
C88 C 0.06849 0.37913 0.8877 0.0
C89 C 0.04569 0.37845 0.84857 0.0
C90 C 0.99988 0.41286 0.84077 0.0
N91 N 0.07645 0.35276 0.81695 0.0
C92 C 0.13062 0.40085 0.80303 0.0
H93 H 0.1792 0.69565 0.40075 0.0
H94 H 1.02447 0.51999 0.43509 0.0
H95 H 0.17205 0.66869 0.52249 0.0
C96 C 0.15428 0.66665 0.42339 0.0
C97 C 0.18103 0.68961 0.46271 0.0
C98 C 0.0971 0.60599 0.41301 0.0
C99 C 0.06803 0.56726 0.44278 0.0
C100 C 0.09532 0.59019 0.48245 0.0
C101 C 0.15073 0.65181 0.4921 0.0
N102 N 0.06982 0.5521 0.5134 0.0
C103 C 1.01873 0.4876 0.50765 0.0
H104 H 0.62782 0.2417 0.74407 0.0
H105 H 0.60824 0.03678 0.76996 0.0
H106 H 0.58364 0.19227 0.86027 0.0
C107 C 0.62094 0.20563 0.76524 0.0
C108 C 0.60714 0.22612 0.80383 0.0
C109 C 0.62118 0.13755 0.75272 0.0
C110 C 0.60863 0.0895 0.77961 0.0
C111 C 0.59559 0.10956 0.81866 0.0
C112 C 0.59444 0.17747 0.83032 0.0
N113 N 0.58149 0.06261 0.84673 0.0
C114 C 0.59301 0.99895 0.8423 0.0
H115 H 0.70139 0.55734 0.06343 0.0
H116 H 0.49303 0.52851 0.08556 0.0
H117 H 0.6313 0.50725 0.17567 0.0
C118 C 0.66089 0.54552 0.08308 0.0
C119 C 0.6753 0.53248 0.12102 0.0
C120 C 0.59554 0.54359 0.06985 0.0
C121 C 0.54324 0.52992 0.09561 0.0
C122 C 0.55537 0.51638 0.1339 0.0
C123 C 0.62152 0.51709 0.1462 0.0
N124 N 0.50288 0.50228 0.16075 0.0
C125 C 0.43447 0.49756 0.1536 0.0
C126 C 0.24279 0.41469 0.13432 0.0
C127 C 0.21876 0.46349 0.15677 0.0
H128 H 0.32939 0.38742 0.11543 0.0
C129 C 0.26741 0.52573 0.17644 0.0
H130 H 0.20715 0.36619 0.11872 0.0
C131 C 0.3378 0.53798 0.17434 0.0
C132 C 0.36143 0.48846 0.15242 0.0
H133 H 0.25126 0.5642 0.19431 0.0
H134 H 0.37379 0.58561 0.19064 0.0
C135 C 0.31299 0.42693 0.13223 0.0
C136 C 0.84605 0.3543 0.48617 0.0
C137 C 0.85644 0.29612 0.4992 0.0
H138 H 0.89094 0.46169 0.47865 0.0
C139 C 0.92186 0.3008 0.51335 0.0
H140 H 0.79597 0.35192 0.47518 0.0
C141 C 0.97589 0.36362 0.51535 0.0
C142 C 0.96473 0.4218 0.50313 0.0
H143 H 0.93091 0.25657 0.52358 0.0
H144 H 1.02593 0.36711 0.52707 0.0
C145 C 0.90002 0.41687 0.48813 0.0
C146 C 0.68882 0.8755 0.85128 0.0
C147 C 0.63615 0.81057 0.84623 0.0
H148 H 0.71587 0.9866 0.85357 0.0
C149 C 0.56878 0.8082 0.83881 0.0
H150 H 0.74123 0.87881 0.8569 0.0
C151 C 0.55446 0.86999 0.83678 0.0
C152 C 0.60735 0.93461 0.84199 0.0
H153 H 0.52735 0.75877 0.83462 0.0
H154 H 0.50218 0.86736 0.83147 0.0
C155 C 0.6745 0.93704 0.84919 0.0
C156 C 0.83425 0.48905 0.1537 0.0
C157 C 0.88768 0.5486 0.1467 0.0
H158 H 0.72535 0.43727 0.15205 0.0
C159 C 0.86974 0.60328 0.1339 0.0
H160 H 0.8457 0.44634 0.16423 0.0
C161 C 0.80152 0.59832 0.12715 0.0
C162 C 0.74775 0.53871 0.13329 0.0
H163 H 0.90886 0.65032 0.12843 0.0
H164 H 0.79071 0.64142 0.11655 0.0
C165 C 0.76513 0.4843 0.14725 0.0
C166 C 0.3623 0.80644 0.46257 0.0
C167 C 0.36479 0.86442 0.49031 0.0
H168 H 0.30139 0.70599 0.43185 0.0
C169 C 0.30665 0.86458 0.50959 0.0
H170 H 0.40654 0.80511 0.44727 0.0
C171 C 0.24656 0.80719 0.50104 0.0
C172 C 0.24394 0.75004 0.47257 0.0
H173 H 0.30763 0.90886 0.53108 0.0
H174 H 0.20192 0.80786 0.51607 0.0
C175 C 0.30223 0.75 0.45354 0.0
C176 C 0.53422 0.36728 0.84163 0.0
C177 C 0.57689 0.42538 0.8267 0.0
H178 H 0.51011 0.2588 0.84601 0.0
C179 C 0.6337 0.41968 0.80768 0.0
H180 H 0.49025 0.37041 0.85664 0.0
C181 C 0.64551 0.35575 0.80187 0.0
C182 C 0.60067 0.29638 0.81496 0.0
H183 H 0.6677 0.46388 0.79615 0.0
H184 H 0.6888 0.35232 0.78625 0.0
C185 C 0.54593 0.30344 0.83582 0.0
C186 C 0.60235 0.86366 0.47147 0.0
C187 C 0.65027 0.91122 0.50052 0.0
H188 H 0.55189 0.7559 0.44648 0.0
C189 C 0.68436 0.88502 0.52731 0.0
H190 H 0.57659 0.88226 0.4498 0.0
C191 C 0.67054 0.81273 0.52519 0.0
C192 C 0.62263 0.76558 0.49617 0.0
H193 H 0.72169 0.92044 0.54992 0.0
H194 H 0.6977 0.79376 0.54599 0.0
C195 C 0.58855 0.79146 0.46939 0.0
C196 C 0.82588 0.50758 0.8839 0.0
C197 C 0.83463 0.55385 0.85635 0.0
H198 H 0.86309 0.43644 0.9094 0.0
C199 C 0.88949 0.56412 0.83267 0.0
H200 H 0.7834 0.49805 0.90218 0.0
C201 C 0.93556 0.52857 0.83691 0.0
C202 C 0.92684 0.48278 0.86488 0.0
H203 H 0.89651 0.59913 0.81094 0.0
H204 H 0.97843 0.53771 0.81896 0.0
C205 C 0.87135 0.47221 0.88802 0.0
C206 C 0.2938 0.79305 0.15394 0.0
C207 C 0.27112 0.74785 0.18171 0.0
H208 H 0.37283 0.8822 0.13979 0.0
C209 C 0.31245 0.7565 0.21638 0.0
H210 H 0.26279 0.787 0.12688 0.0
C211 C 0.37522 0.80959 0.22344 0.0
C212 C 0.3979 0.85604 0.19625 0.0
H213 H 0.29664 0.72168 0.23803 0.0
H214 H 0.40625 0.81385 0.25022 0.0
C215 C 0.3568 0.84701 0.16122 0.0
C216 C 0.6316 0.29229 0.53477 0.0
C217 C 0.5782 0.24577 0.50845 0.0
H218 H 0.6817 0.39813 0.5625 0.0
C219 C 0.53588 0.27282 0.48774 0.0
H220 H 0.66521 0.27316 0.5511 0.0
C221 C 0.54539 0.34466 0.4942 0.0
C222 C 0.59709 0.39087 0.52179 0.0
H223 H 0.49447 0.23822 0.46711 0.0
H224 H 0.51054 0.36358 0.47882 0.0
C225 C 0.64087 0.36389 0.54139 0.0
C226 C 0.28058 0.56273 0.82598 0.0
C227 C 0.32067 0.55199 0.7954 0.0
H228 H 0.18674 0.52091 0.85208 0.0
C229 C 0.29181 0.49805 0.76341 0.0
H230 H 0.30173 0.60372 0.85098 0.0
C231 C 0.22666 0.45038 0.76434 0.0
C232 C 0.18979 0.45715 0.79694 0.0
H233 H 0.32178 0.48887 0.73941 0.0
H234 H 0.20721 0.40584 0.74105 0.0
C235 C 0.21526 0.51518 0.82676 0.0
C236 C 0.84978 0.18757 0.18572 0.0
C237 C 0.84742 0.23946 0.16335 0.0
H238 H 0.79572 0.08706 0.20159 0.0
C239 C 0.78798 0.22984 0.1396 0.0
H240 H 0.89504 0.19398 0.20429 0.0
C241 C 0.73185 0.16918 0.13806 0.0
C242 C 0.73442 0.1175 0.16025 0.0
H243 H 0.78484 0.26915 0.12212 0.0
H244 H 0.68648 0.16263 0.11951 0.0
C245 C 0.79334 0.12674 0.18419 0.0
C246 C 1.03081 0.38222 0.02237 0.0
C247 C 0.06985 0.44849 0.04289 0.0
H248 H 0.9949 0.31881 0.96585 0.0
C249 C 0.11244 0.49784 0.022 0.0
H250 H 0.99831 0.34255 0.03767 0.0
C251 C 0.11098 0.48357 0.98096 0.0
C252 C 0.06768 0.41952 0.96036 0.0
H253 H 0.14365 0.54906 0.03696 0.0
H254 H 0.13947 0.52455 0.96503 0.0
C255 C 1.02972 0.36792 0.98137 0.0
C256 C 0.64435 0.0607 0.35476 0.0
C257 C 0.5931 0.06859 0.3785 0.0
H258 H 0.66957 0.03246 0.29625 0.0
C259 C 0.53056 0.06508 0.36051 0.0
H260 H 0.69304 0.06321 0.36805 0.0
C261 C 0.51768 0.04936 0.31961 0.0
C262 C 0.56642 0.03488 0.29582 0.0
H263 H 0.49067 0.07227 0.37821 0.0
H264 H 0.4682 0.04531 0.30675 0.0
C265 C 0.63094 0.04343 0.31366 0.0
C266 C 0.67174 0.60046 0.69267 0.0
C267 C 0.61891 0.61906 0.7102 0.0
H268 H 0.71067 0.56863 0.63915 0.0
C269 C 0.56772 0.62742 0.68564 0.0
H270 H 0.71236 0.59397 0.71049 0.0
C271 C 0.56752 0.6136 0.64446 0.0
C272 C 0.61804 0.59059 0.62736 0.0
H273 H 0.52647 0.64192 0.69815 0.0
H274 H 0.526 0.61722 0.62609 0.0
C275 C 0.671 0.58594 0.65177 0.0
C276 C 0.58251 0.04541 0.64698 0.0
C277 C 0.63178 0.09212 0.62771 0.0
H278 H 0.54106 0.0228 0.702 0.0
C279 C 0.6824 0.14876 0.65064 0.0
H280 H 0.54309 1.00094 0.63026 0.0
C281 C 0.68119 0.16103 0.69159 0.0
C282 C 0.62966 0.11675 0.71061 0.0
H283 H 0.72156 0.18547 0.63692 0.0
H284 H 0.71921 0.20675 0.70832 0.0
C285 C 0.5816 0.05753 0.6881 0.0
C286 C 0.60695 0.5351 0.95971 0.0
C287 C 0.57733 0.58417 0.95035 0.0
H288 H 0.63401 0.48283 0.00396 0.0
C289 C 0.54651 0.61493 0.97992 0.0
H290 H 0.62962 0.50899 0.93741 0.0
C291 C 0.54958 0.6 0.01879 0.0
C292 C 0.58314 0.5539 0.02835 0.0
H293 H 0.52305 0.65264 0.97347 0.0
H294 H 0.52845 0.62671 0.04161 0.0
C295 C 0.60957 0.52004 0.99795 0.0
C296 C 0.05722 0.61419 0.30577 0.0
C297 C 0.04442 0.54478 0.28801 0.0
H298 H 0.08113 0.68726 0.3592 0.0
C299 C 1.0401 0.49352 0.31222 0.0
H300 H 0.05978 0.65469 0.28797 0.0
C301 C 0.05357 0.51248 0.35327 0.0
C302 C 0.07098 0.5829 0.37074 0.0
H303 H 1.03041 0.43958 0.29933 0.0
H304 H 0.05418 0.47269 0.37097 0.0
C305 C 0.06977 0.63289 0.34662 0.0
loop_
_geom_bond_atom_site_label_1
_geom_bond_atom_site_label_2
_geom_bond_distance
_geom_bond_site_symmetry_2
_ccdc_geom_bond_type
Tb0 O3 2.453 1_455 S
Tb0 O4 2.596 1_455 S
Tb0 O5 2.374 . S
Tb0 O13 2.343 . S
Tb0 O15 2.353 . S
Tb0 O17 2.427 . S
Tb0 O18 2.513 . S
C1 O5 1.251 . S
C1 O7 1.263 . S
Tb2 O4 2.343 1_455 S
Tb2 O7 2.353 . S
Tb2 O10 2.427 1_455 S
Tb2 O11 2.513 1_455 S
Tb2 O12 2.453 . S
Tb2 O13 2.596 . S
Tb2 O14 2.374 . S
O3 Tb0 2.453 1_655 S
O3 C19 1.245 . S
O4 Tb0 2.596 1_655 S
O4 Tb2 2.343 1_655 S
O4 C19 1.259 . S
O5 Tb0 2.374 . S
O5 C1 1.251 . S
C6 O10 1.275 . S
C6 O11 1.246 . S
O7 C1 1.263 . S
O7 Tb2 2.353 . S
C8 O12 1.245 . S
C8 O13 1.259 . S
C9 O14 1.250 . S
C9 O15 1.263 . S
O10 Tb2 2.427 1_655 S
O10 C6 1.275 . S
O11 Tb2 2.513 1_655 S
O11 C6 1.246 . S
O12 Tb2 2.453 . S
O12 C8 1.245 . S
O13 Tb0 2.343 . S
O13 Tb2 2.596 . S
O13 C8 1.259 . S
O14 Tb2 2.374 . S
O14 C9 1.250 . S
O15 Tb0 2.353 . S
O15 C9 1.263 . S
C16 O17 1.275 . S
C16 O18 1.246 . S
O17 Tb0 2.427 . S
O17 C16 1.275 . S
O18 Tb0 2.513 . S
O18 C16 1.246 . S
C19 O3 1.245 . S
C19 O4 1.259 . S
Tb20 O23 2.453 . S
Tb20 O24 2.596 . S
Tb20 O25 2.374 . S
Tb20 O33 2.343 1_545 S
Tb20 O35 2.353 . S
Tb20 O37 2.427 1_545 S
Tb20 O38 2.513 1_545 S
C21 O25 1.251 . S
C21 O27 1.263 . S
Tb22 O24 2.343 . S
Tb22 O27 2.353 . S
Tb22 O30 2.427 . S
Tb22 O31 2.513 . S
Tb22 O32 2.453 1_545 S
Tb22 O33 2.596 1_545 S
Tb22 O34 2.374 . S
O23 Tb20 2.453 . S
O23 C39 1.245 . S
O24 Tb20 2.596 . S
O24 Tb22 2.343 . S
O24 C39 1.259 . S
O25 Tb20 2.374 . S
O25 C21 1.251 . S
C26 O30 1.275 . S
C26 O31 1.246 . S
O27 C21 1.263 . S
O27 Tb22 2.353 . S
C28 O32 1.245 . S
C28 O33 1.259 . S
C29 O34 1.250 . S
C29 O35 1.263 . S
O30 Tb22 2.427 . S
O30 C26 1.275 . S
O31 Tb22 2.513 . S
O31 C26 1.246 . S
O32 Tb22 2.453 1_565 S
O32 C28 1.245 . S
O33 Tb20 2.343 1_565 S
O33 Tb22 2.596 1_565 S
O33 C28 1.259 . S
O34 Tb22 2.374 . S
O34 C29 1.250 . S
O35 Tb20 2.353 . S
O35 C29 1.263 . S
C36 O37 1.275 . S
C36 O38 1.246 . S
O37 Tb20 2.427 1_565 S
O37 C36 1.275 . S
O38 Tb20 2.513 1_565 S
O38 C36 1.246 . S
C39 O23 1.245 . S
C39 O24 1.259 . S
Tb40 O43 2.453 . S
Tb40 O44 2.596 . S
Tb40 O45 2.374 . S
Tb40 O53 2.343 . S
Tb40 O55 2.353 . S
Tb40 O57 2.427 . S
Tb40 O58 2.513 . S
C41 O45 1.251 . S
C41 O47 1.263 . S
Tb42 O44 2.343 . S
Tb42 O47 2.353 . S
Tb42 O50 2.427 . S
Tb42 O51 2.513 . S
Tb42 O52 2.453 . S
Tb42 O53 2.596 . S
Tb42 O54 2.374 . S
O43 Tb40 2.453 . S
O43 C59 1.245 . S
O44 Tb40 2.596 . S
O44 Tb42 2.343 . S
O44 C59 1.259 . S
O45 Tb40 2.374 . S
O45 C41 1.251 . S
C46 O50 1.275 . S
C46 O51 1.246 . S
O47 C41 1.263 . S
O47 Tb42 2.353 . S
C48 O52 1.245 . S
C48 O53 1.259 . S
C49 O54 1.250 . S
C49 O55 1.263 . S
O50 Tb42 2.427 . S
O50 C46 1.275 . S
O51 Tb42 2.513 . S
O51 C46 1.246 . S
O52 Tb42 2.453 . S
O52 C48 1.245 . S
O53 Tb40 2.343 . S
O53 Tb42 2.596 . S
O53 C48 1.259 . S
O54 Tb42 2.374 . S
O54 C49 1.250 . S
O55 Tb40 2.353 . S
O55 C49 1.263 . S
C56 O57 1.275 . S
C56 O58 1.246 . S
O57 Tb40 2.427 . S
O57 C56 1.275 . S
O58 Tb40 2.513 . S
O58 C56 1.246 . S
C59 O43 1.245 . S
C59 O44 1.259 . S
H60 C63 0.929 1_565 S
H61 C66 0.929 . S
H62 C68 0.930 . S
C63 H60 0.929 1_545 S
C63 C64 1.398 1_545 S
C63 C65 1.396 . S
C64 C63 1.398 1_565 S
C64 C68 1.407 1_565 S
C65 C63 1.396 . S
C65 C66 1.394 . S
C66 H61 0.929 . S
C66 C65 1.394 . S
C66 C67 1.382 . S
C67 C66 1.382 . S
C67 C68 1.392 . S
C67 N69 1.420 . S
C68 H62 0.930 . S
C68 C64 1.407 1_545 S
C68 C67 1.392 . S
N69 C67 1.420 . S
N69 C70 1.244 . S
C70 N69 1.244 . S
H71 C74 0.929 . S
H72 C77 0.929 . S
H73 C79 0.930 . S
C74 H71 0.929 . S
C74 C75 1.398 . S
C74 C76 1.396 . S
C75 C74 1.398 . S
C75 C79 1.407 . S
C76 C74 1.396 . S
C76 C77 1.394 . S
C77 H72 0.929 . S
C77 C76 1.394 . S
C77 C78 1.382 . S
C78 C77 1.382 . S
C78 C79 1.392 . S
C78 N80 1.420 . S
C79 H73 0.930 . S
C79 C75 1.407 . S
C79 C78 1.392 . S
N80 C78 1.420 . S
N80 C81 1.244 . S
C81 N80 1.244 . S
H82 C85 0.929 1_655 S
H83 C88 0.929 . S
H84 C90 0.930 . S
C85 H82 0.929 1_455 S
C85 C86 1.398 1_455 S
C85 C87 1.396 . S
C86 C85 1.398 1_655 S
C86 C90 1.407 1_655 S
C87 C85 1.396 . S
C87 C88 1.394 . S
C88 H83 0.929 . S
C88 C87 1.394 . S
C88 C89 1.382 . S
C89 C88 1.382 . S
C89 C90 1.392 . S
C89 N91 1.420 . S
C90 H84 0.930 . S
C90 C86 1.407 1_455 S
C90 C89 1.392 . S
N91 C89 1.420 . S
N91 C92 1.244 . S
C92 N91 1.244 . S
H93 C96 0.929 . S
H94 C99 0.929 . S
H95 C101 0.930 . S
C96 H93 0.929 . S
C96 C97 1.398 . S
C96 C98 1.396 . S
C97 C96 1.398 . S
C97 C101 1.407 . S
C98 C96 1.396 . S
C98 C99 1.394 1_455 S
C99 H94 0.929 . S
C99 C98 1.394 1_655 S
C99 C100 1.382 . S
C100 C99 1.382 . S
C100 C101 1.392 1_655 S
C100 N102 1.420 . S
C101 H95 0.930 . S
C101 C97 1.407 . S
C101 C100 1.392 1_455 S
N102 C100 1.420 . S
N102 C103 1.244 . S
C103 N102 1.244 . S
H104 C107 0.929 . S
H105 C110 0.929 1_565 S
H106 C112 0.930 . S
C107 H104 0.929 . S
C107 C108 1.398 . S
C107 C109 1.396 . S
C108 C107 1.398 . S
C108 C112 1.407 . S
C109 C107 1.396 . S
C109 C110 1.394 . S
C110 H105 0.929 1_545 S
C110 C109 1.394 . S
C110 C111 1.382 . S
C111 C110 1.382 . S
C111 C112 1.392 . S
C111 N113 1.420 1_545 S
C112 H106 0.930 . S
C112 C108 1.407 . S
C112 C111 1.392 . S
N113 C111 1.420 1_565 S
N113 C114 1.244 . S
C114 N113 1.244 . S
H115 C118 0.929 . S
H116 C121 0.929 . S
H117 C123 0.930 . S
C118 H115 0.929 . S
C118 C119 1.398 . S
C118 C120 1.396 . S
C119 C118 1.398 . S
C119 C123 1.407 . S
C120 C118 1.396 . S
C120 C121 1.394 . S
C121 H116 0.929 . S
C121 C120 1.394 . S
C121 C122 1.382 . S
C122 C121 1.382 . S
C122 C123 1.392 . S
C122 N124 1.420 . S
C123 H117 0.930 . S
C123 C119 1.407 . S
C123 C122 1.392 . S
N124 C122 1.420 . S
N124 C125 1.244 . S
C125 N124 1.244 . S
C126 C127 1.387 . S
C126 H130 0.950 . S
C126 C135 1.390 . S
C127 C126 1.387 . S
C127 C129 1.387 . S
H128 C135 0.950 . S
C129 C127 1.387 . S
C129 C131 1.390 . S
C129 H133 0.950 . S
H130 C126 0.950 . S
C131 C129 1.390 . S
C131 C132 1.387 . S
C131 H134 0.950 . S
C132 C131 1.387 . S
C132 C135 1.387 . S
H133 C129 0.950 . S
H134 C131 0.950 . S
C135 C126 1.390 . S
C135 H128 0.950 . S
C135 C132 1.387 . S
C136 C137 1.387 . S
C136 H140 0.950 . S
C136 C145 1.390 . S
C137 C136 1.387 . S
C137 C139 1.387 . S
H138 C145 0.950 . S
C139 C137 1.387 . S
C139 C141 1.390 . S
C139 H143 0.950 . S
H140 C136 0.950 . S
C141 C139 1.390 . S
C141 C142 1.387 . S
C141 H144 0.950 . S
C142 C141 1.387 . S
C142 C145 1.387 . S
H143 C139 0.950 . S
H144 C141 0.950 . S
C145 C136 1.390 . S
C145 H138 0.950 . S
C145 C142 1.387 . S
C146 C147 1.387 . S
C146 H150 0.950 . S
C146 C155 1.390 . S
C147 C146 1.387 . S
C147 C149 1.387 . S
H148 C155 0.950 . S
C149 C147 1.387 . S
C149 C151 1.390 . S
C149 H153 0.950 . S
H150 C146 0.950 . S
C151 C149 1.390 . S
C151 C152 1.387 . S
C151 H154 0.950 . S
C152 C151 1.387 . S
C152 C155 1.387 . S
H153 C149 0.950 . S
H154 C151 0.950 . S
C155 C146 1.390 . S
C155 H148 0.950 . S
C155 C152 1.387 . S
C156 C157 1.387 . S
C156 H160 0.950 . S
C156 C165 1.390 . S
C157 C156 1.387 . S
C157 C159 1.387 . S
H158 C165 0.950 . S
C159 C157 1.387 . S
C159 C161 1.390 . S
C159 H163 0.950 . S
H160 C156 0.950 . S
C161 C159 1.390 . S
C161 C162 1.387 . S
C161 H164 0.950 . S
C162 C161 1.387 . S
C162 C165 1.387 . S
H163 C159 0.950 . S
H164 C161 0.950 . S
C165 C156 1.390 . S
C165 H158 0.950 . S
C165 C162 1.387 . S
C166 C167 1.387 . S
C166 H170 0.950 . S
C166 C175 1.390 . S
C167 C166 1.387 . S
C167 C169 1.387 . S
H168 C175 0.950 . S
C169 C167 1.387 . S
C169 C171 1.390 . S
C169 H173 0.950 . S
H170 C166 0.950 . S
C171 C169 1.390 . S
C171 C172 1.387 . S
C171 H174 0.950 . S
C172 C171 1.387 . S
C172 C175 1.387 . S
H173 C169 0.950 . S
H174 C171 0.950 . S
C175 C166 1.390 . S
C175 H168 0.950 . S
C175 C172 1.387 . S
C176 C177 1.387 . S
C176 H180 0.950 . S
C176 C185 1.390 . S
C177 C176 1.387 . S
C177 C179 1.387 . S
H178 C185 0.950 . S
C179 C177 1.387 . S
C179 C181 1.390 . S
C179 H183 0.950 . S
H180 C176 0.950 . S
C181 C179 1.390 . S
C181 C182 1.387 . S
C181 H184 0.950 . S
C182 C181 1.387 . S
C182 C185 1.387 . S
H183 C179 0.950 . S
H184 C181 0.950 . S
C185 C176 1.390 . S
C185 H178 0.950 . S
C185 C182 1.387 . S
C186 C187 1.387 . S
C186 H190 0.950 . S
C186 C195 1.390 . S
C187 C186 1.387 . S
C187 C189 1.387 . S
H188 C195 0.950 . S
C189 C187 1.387 . S
C189 C191 1.390 . S
C189 H193 0.950 . S
H190 C186 0.950 . S
C191 C189 1.390 . S
C191 C192 1.387 . S
C191 H194 0.950 . S
C192 C191 1.387 . S
C192 C195 1.387 . S
H193 C189 0.950 . S
H194 C191 0.950 . S
C195 C186 1.390 . S
C195 H188 0.950 . S
C195 C192 1.387 . S
C196 C197 1.387 . S
C196 H200 0.950 . S
C196 C205 1.390 . S
C197 C196 1.387 . S
C197 C199 1.387 . S
H198 C205 0.950 . S
C199 C197 1.387 . S
C199 C201 1.390 . S
C199 H203 0.950 . S
H200 C196 0.950 . S
C201 C199 1.390 . S
C201 C202 1.387 . S
C201 H204 0.950 . S
C202 C201 1.387 . S
C202 C205 1.387 . S
H203 C199 0.950 . S
H204 C201 0.950 . S
C205 C196 1.390 . S
C205 H198 0.950 . S
C205 C202 1.387 . S
C206 C207 1.387 . S
C206 H210 0.950 . S
C206 C215 1.390 . S
C207 C206 1.387 . S
C207 C209 1.387 . S
H208 C215 0.950 . S
C209 C207 1.387 . S
C209 C211 1.390 . S
C209 H213 0.950 . S
H210 C206 0.950 . S
C211 C209 1.390 . S
C211 C212 1.387 . S
C211 H214 0.950 . S
C212 C211 1.387 . S
C212 C215 1.387 . S
H213 C209 0.950 . S
H214 C211 0.950 . S
C215 C206 1.390 . S
C215 H208 0.950 . S
C215 C212 1.387 . S
C216 C217 1.387 . S
C216 H220 0.950 . S
C216 C225 1.390 . S
C217 C216 1.387 . S
C217 C219 1.387 . S
H218 C225 0.950 . S
C219 C217 1.387 . S
C219 C221 1.390 . S
C219 H223 0.950 . S
H220 C216 0.950 . S
C221 C219 1.390 . S
C221 C222 1.387 . S
C221 H224 0.950 . S
C222 C221 1.387 . S
C222 C225 1.387 . S
H223 C219 0.950 . S
H224 C221 0.950 . S
C225 C216 1.390 . S
C225 H218 0.950 . S
C225 C222 1.387 . S
C226 C227 1.387 . S
C226 H230 0.950 . S
C226 C235 1.390 . S
C227 C226 1.387 . S
C227 C229 1.387 . S
H228 C235 0.950 . S
C229 C227 1.387 . S
C229 C231 1.390 . S
C229 H233 0.950 . S
H230 C226 0.950 . S
C231 C229 1.390 . S
C231 C232 1.387 . S
C231 H234 0.950 . S
C232 C231 1.387 . S
C232 C235 1.387 . S
H233 C229 0.950 . S
H234 C231 0.950 . S
C235 C226 1.390 . S
C235 H228 0.950 . S
C235 C232 1.387 . S
C236 C237 1.387 . S
C236 H240 0.950 . S
C236 C245 1.390 . S
C237 C236 1.387 . S
C237 C239 1.387 . S
H238 C245 0.950 . S
C239 C237 1.387 . S
C239 C241 1.390 . S
C239 H243 0.950 . S
H240 C236 0.950 . S
C241 C239 1.390 . S
C241 C242 1.387 . S
C241 H244 0.950 . S
C242 C241 1.387 . S
C242 C245 1.387 . S
H243 C239 0.950 . S
H244 C241 0.950 . S
C245 C236 1.390 . S
C245 H238 0.950 . S
C245 C242 1.387 . S
C246 C247 1.387 . S
C246 H250 0.950 . S
C246 C255 1.390 1_554 S
C247 C246 1.387 . S
C247 C249 1.387 . S
H248 C255 0.950 . S
C249 C247 1.387 . S
C249 C251 1.390 1_554 S
C249 H253 0.950 . S
H250 C246 0.950 . S
C251 C249 1.390 1_556 S
C251 C252 1.387 . S
C251 H254 0.950 . S
C252 C251 1.387 . S
C252 C255 1.387 . S
H253 C249 0.950 . S
H254 C251 0.950 . S
C255 C246 1.390 1_556 S
C255 H248 0.950 . S
C255 C252 1.387 . S
C256 C257 1.387 . S
C256 H260 0.950 . S
C256 C265 1.390 . S
C257 C256 1.387 . S
C257 C259 1.387 . S
H258 C265 0.950 . S
C259 C257 1.387 . S
C259 C261 1.390 . S
C259 H263 0.950 . S
H260 C256 0.950 . S
C261 C259 1.390 . S
C261 C262 1.387 . S
C261 H264 0.950 . S
C262 C261 1.387 . S
C262 C265 1.387 . S
H263 C259 0.950 . S
H264 C261 0.950 . S
C265 C256 1.390 . S
C265 H258 0.950 . S
C265 C262 1.387 . S
C266 C267 1.387 . S
C266 H270 0.950 . S
C266 C275 1.390 . S
C267 C266 1.387 . S
C267 C269 1.387 . S
H268 C275 0.950 . S
C269 C267 1.387 . S
C269 C271 1.390 . S
C269 H273 0.950 . S
H270 C266 0.950 . S
C271 C269 1.390 . S
C271 C272 1.387 . S
C271 H274 0.950 . S
C272 C271 1.387 . S
C272 C275 1.387 . S
H273 C269 0.950 . S
H274 C271 0.950 . S
C275 C266 1.390 . S
C275 H268 0.950 . S
C275 C272 1.387 . S
C276 C277 1.387 1_565 S
C276 H280 0.950 . S
C276 C285 1.390 . S
C277 C276 1.387 1_545 S
C277 C279 1.387 . S
H278 C285 0.950 . S
C279 C277 1.387 . S
C279 C281 1.390 . S
C279 H283 0.950 . S
H280 C276 0.950 . S
C281 C279 1.390 . S
C281 C282 1.387 . S
C281 H284 0.950 . S
C282 C281 1.387 . S
C282 C285 1.387 1_545 S
H283 C279 0.950 . S
H284 C281 0.950 . S
C285 C276 1.390 . S
C285 H278 0.950 . S
C285 C282 1.387 1_565 S
C286 C287 1.387 . S
C286 H290 0.950 . S
C286 C295 1.390 1_556 S
C287 C286 1.387 . S
C287 C289 1.387 . S
H288 C295 0.950 . S
C289 C287 1.387 . S
C289 C291 1.390 1_556 S
C289 H293 0.950 . S
H290 C286 0.950 . S
C291 C289 1.390 1_554 S
C291 C292 1.387 . S
C291 H294 0.950 . S
C292 C291 1.387 . S
C292 C295 1.387 . S
H293 C289 0.950 . S
H294 C291 0.950 . S
C295 C286 1.390 1_554 S
C295 H288 0.950 . S
C295 C292 1.387 . S
C296 C297 1.387 . S
C296 H300 0.950 . S
C296 C305 1.390 . S
C297 C296 1.387 . S
C297 C299 1.387 1_455 S
H298 C305 0.950 . S
C299 C297 1.387 1_655 S
C299 C301 1.390 . S
C299 H303 0.950 . S
H300 C296 0.950 . S
C301 C299 1.390 . S
C301 C302 1.387 1_655 S
C301 H304 0.950 . S
C302 C301 1.387 1_455 S
C302 C305 1.387 . S
H303 C299 0.950 . S
H304 C301 0.950 . S
C305 C296 1.390 . S
C305 H298 0.950 . S
C305 C302 1.387 . S
C127 C8 1.993 . S
C132 C125 2.024 . S
C137 C26 1.415 . S
C142 C103 1.413 . S
C147 C48 1.566 . S
C152 C114 1.599 . S
C157 C19 1.793 . S
C162 C119 1.824 . S
C172 C97 1.365 . S
C167 C36 1.359 . S
C182 C108 1.586 . S
C177 C59 1.527 . S
C187 C28 1.577 . S
C192 C81 1.609 . S
C197 C46 1.098 . S
C202 C86 1.113 . S
C207 C16 1.374 . S
C212 C64 1.362 . S
C222 C75 1.567 . S
C217 C39 1.535 . S
C232 C92 1.117 . S
C227 C56 1.094 . S
C237 C6 1.446 . S
C242 C70 1.439 . S
C252 C87 1.454 . S
C247 C9 1.438 . S
C257 C21 1.520 . S
C262 C65 1.536 . S
C267 C49 1.505 . S
C272 C76 1.500 . S
C282 C109 1.494 . S
C277 C29 1.499 . S
C292 C120 1.604 . S
C287 C41 1.571 . S
C297 C1 1.497 . S
C302 C98 1.512 . S
