# Generated by pormake.
# Topology rtl, (3,6)-cn, num edge types: 1
# Building blocks:
#     Node 0, Type 0, BuildingBlock: ESEHIV_clean_linker_0, # of connection points: 3
#     Node 1, Type 0, BuildingBlock: ESEHIV_clean_linker_0, # of connection points: 3
#     Node 2, Type 0, BuildingBlock: ESEHIV_clean_linker_0, # of connection points: 3
#     Node 3, Type 0, BuildingBlock: ESEHIV_clean_linker_0, # of connection points: 3
#     Node 4, Type 1, BuildingBlock: FUNLAD_clean_sbu_0, # of connection points: 6
#     Node 5, Type 1, BuildingBlock: FUNLAD_clean_sbu_0, # of connection points: 6
#     Edge 6, Type (0, 1), BuildingBlock: UVAHIK_clean_linker_0, # of connection points: 2
#     Edge 7, Type (0, 1), BuildingBlock: UVAHIK_clean_linker_0, # of connection points: 2
#     Edge 8, Type (0, 1), BuildingBlock: UVAHIK_clean_linker_0, # of connection points: 2
#     Edge 9, Type (0, 1), BuildingBlock: UVAHIK_clean_linker_0, # of connection points: 2
#     Edge 10, Type (0, 1), BuildingBlock: UVAHIK_clean_linker_0, # of connection points: 2
#     Edge 11, Type (0, 1), BuildingBlock: UVAHIK_clean_linker_0, # of connection points: 2
#     Edge 12, Type (0, 1), BuildingBlock: UVAHIK_clean_linker_0, # of connection points: 2
#     Edge 13, Type (0, 1), BuildingBlock: UVAHIK_clean_linker_0, # of connection points: 2
#     Edge 14, Type (0, 1), BuildingBlock: UVAHIK_clean_linker_0, # of connection points: 2
#     Edge 15, Type (0, 1), BuildingBlock: UVAHIK_clean_linker_0, # of connection points: 2
#     Edge 16, Type (0, 1), BuildingBlock: UVAHIK_clean_linker_0, # of connection points: 2
#     Edge 17, Type (0, 1), BuildingBlock: UVAHIK_clean_linker_0, # of connection points: 2
# Relax obj value: 0.027
# Max RMSD: 0.091
# Mean RMSD: 0.078
data_MOF--net-rtl--node1-FUNLAD_clean_sbu_0--node2-ESEHIV_clean_linker_0--edge1-UVAHIK_clean_linker_0
_symmetry_space_group_name_H-M    P1
_symmetry_Int_Tables_number       1
_symmetry_cell_setting            triclinic
loop_
_symmetry_equiv_pos_as_xyz
'x, y, z'
_cell_length_a     49.401698
_cell_length_b     40.268885
_cell_length_c     28.573643
_cell_angle_alpha  89.993996
_cell_angle_beta   90.965814
_cell_angle_gamma 90.586203
loop_
_atom_site_label
_atom_site_type_symbol
_atom_site_fract_x
_atom_site_fract_y
_atom_site_fract_z
_atom_type_partial_charge
H0 H 0.07586 0.78891 0.01864 0.0
H1 H 0.13332 0.72345 0.08409 0.0
H2 H 0.12843 0.73104 0.93365 0.0
C3 C 0.09135 0.77015 0.01591 0.0
C4 C 0.10055 0.76114 0.97162 0.0
C5 C 0.10284 0.7564 0.05664 0.0
C6 C 0.12379 0.7333 0.05266 0.0
C7 C 0.13324 0.72394 0.00841 0.0
C8 C 0.12115 0.73765 0.96796 0.0
H9 H 0.57232 0.7156 0.5081 0.0
H10 H 0.62886 0.7813 0.44146 0.0
H11 H 0.62688 0.77508 0.59209 0.0
C12 C 0.58794 0.73468 0.51053 0.0
C13 C 0.5981 0.74419 0.55462 0.0
C14 C 0.59871 0.74826 0.46961 0.0
C15 C 0.61987 0.7717 0.47312 0.0
C16 C 0.63021 0.78167 0.51719 0.0
C17 C 0.61886 0.7681 0.5579 0.0
H18 H 0.92482 0.21214 0.00423 0.0
H19 H 0.86602 0.26888 0.0783 0.0
H20 H 0.86525 0.26817 0.92761 0.0
C21 C 0.90815 0.22946 0.00387 0.0
C22 C 0.89653 0.23921 0.96094 0.0
C23 C 0.8972 0.23993 0.04635 0.0
C24 C 0.87478 0.26112 0.04559 0.0
C25 C 0.86307 0.27143 0.0029 0.0
C26 C 0.87411 0.26034 0.96073 0.0
H27 H 0.42985 0.28513 0.50077 0.0
H28 H 0.37609 0.22736 0.58545 0.0
H29 H 0.37166 0.21941 0.43498 0.0
C30 C 0.4141 0.26629 0.50347 0.0
C31 C 0.40258 0.25236 0.46273 0.0
C32 C 0.40453 0.25747 0.54766 0.0
C33 C 0.38365 0.23384 0.5512 0.0
C34 C 0.37153 0.21997 0.51069 0.0
C35 C 0.38125 0.22926 0.46651 0.0
C36 C 0.01661 0.95423 0.4408 0.0
N37 N 0.06037 0.02978 0.50976 0.0
C38 C 0.08155 0.00844 0.51139 0.0
C39 C 0.10812 0.02057 0.51262 0.0
C40 C 0.11294 0.05498 0.51241 0.0
C41 C 0.09069 0.07643 0.51076 0.0
C42 C 0.06445 0.06323 0.50934 0.0
Zn43 Zn 0.02185 0.01102 0.50801 0.0
C44 C 0.98722 0.04405 0.43619 0.0
N45 N 0.94179 0.97043 0.50386 0.0
C46 C 0.93777 0.93698 0.50542 0.0
C47 C 0.92056 0.9917 0.50269 0.0
C48 C 0.89401 0.97952 0.50357 0.0
C49 C 0.88926 0.94513 0.50588 0.0
C50 C 0.91156 0.92375 0.50652 0.0
Zn51 Zn 0.98031 0.98926 0.50519 0.0
O52 O 0.03337 0.97508 0.45837 0.0
C53 C 0.01493 0.95655 0.5773 0.0
O54 O 0.99207 0.95465 0.4535 0.0
H55 H 0.92421 0.01821 0.50165 0.0
H56 H 0.07785 0.98193 0.51189 0.0
H57 H 0.95493 0.92052 0.50619 0.0
O58 O 0.03183 0.97814 0.5631 0.0
O59 O 0.99143 0.95506 0.5586 0.0
H60 H 0.04732 0.07973 0.50785 0.0
O61 O 0.96913 0.02424 0.5569 0.0
O62 O 0.00987 0.04643 0.5579 0.0
O63 O 0.96986 0.02362 0.45202 0.0
O64 O 0.01124 0.04399 0.45288 0.0
C65 C 0.98579 0.04588 0.5728 0.0
H66 H 0.12469 0.00319 0.5144 0.0
H67 H 0.09354 0.10313 0.50998 0.0
H68 H 0.87742 0.9969 0.50353 0.0
H69 H 0.90878 0.89705 0.50767 0.0
C70 C 0.4843 0.45681 0.94339 0.0
N71 N 0.55833 0.47126 0.01403 0.0
C72 C 0.56105 0.43768 0.01364 0.0
C73 C 0.58669 0.42352 0.01263 0.0
C74 C 0.60981 0.44409 0.0122 0.0
C75 C 0.60644 0.47868 0.01331 0.0
C76 C 0.58037 0.4918 0.01408 0.0
Zn77 Zn 0.52025 0.49064 0.01326 0.0
C78 C 0.51491 0.54599 0.94489 0.0
N79 N 0.4406 0.53077 0.01079 0.0
C80 C 0.41887 0.50972 0.00968 0.0
C81 C 0.43735 0.56428 0.01086 0.0
C82 C 0.41145 0.57782 0.00947 0.0
C83 C 0.38864 0.5567 0.00819 0.0
C84 C 0.3926 0.52221 0.00849 0.0
Zn85 Zn 0.4788 0.51171 0.01189 0.0
O86 O 0.50783 0.45555 0.96183 0.0
C87 C 0.4843 0.45591 0.07986 0.0
O88 O 0.46783 0.47864 0.95712 0.0
H89 H 0.4549 0.58056 0.01196 0.0
H90 H 0.54328 0.42178 0.01384 0.0
H91 H 0.4219 0.48317 0.00946 0.0
O92 O 0.50866 0.45734 0.06642 0.0
O93 O 0.46704 0.47574 0.06226 0.0
H94 H 0.57774 0.51843 0.01427 0.0
O95 O 0.49039 0.54467 0.06629 0.0
O96 O 0.532 0.52616 0.06473 0.0
O97 O 0.49126 0.54723 0.9616 0.0
O98 O 0.53127 0.52407 0.9597 0.0
C99 C 0.51472 0.54592 0.08141 0.0
H100 H 0.58839 0.39673 0.01247 0.0
H101 H 0.62373 0.49541 0.01261 0.0
H102 H 0.40931 0.60456 0.00989 0.0
H103 H 0.37558 0.50506 0.00703 0.0
C104 C 0.34398 0.17 0.48568 0.0
C105 C 0.34724 0.19818 0.51432 0.0
C106 C 0.32027 0.1508 0.48734 0.0
C107 C 0.25993 0.13426 0.5598 0.0
H108 H 0.22654 0.1073 0.44183 0.0
C109 C 0.14769 0.09565 0.54293 0.0
C110 C 0.14099 0.06845 0.51404 0.0
C111 C 0.17404 0.10852 0.54427 0.0
C112 C 0.23579 0.11423 0.4751 0.0
H113 H 0.32811 0.22839 0.56695 0.0
H114 H 0.28689 0.19507 0.5698 0.0
H115 H 0.27084 0.13458 0.44222 0.0
H116 H 0.15665 0.03349 0.46377 0.0
H117 H 0.20279 0.05591 0.46634 0.0
H118 H 0.22458 0.11456 0.59254 0.0
C119 C 0.30281 0.18733 0.54674 0.0
C120 C 0.2612 0.12981 0.47535 0.0
C121 C 0.32648 0.20646 0.54511 0.0
C122 C 0.16125 0.05431 0.48665 0.0
C123 C 0.18759 0.06731 0.48781 0.0
C124 C 0.23451 0.11878 0.55952 0.0
C125 C 0.29931 0.15943 0.51762 0.0
C126 C 0.27339 0.14043 0.51766 0.0
C127 C 0.19425 0.09458 0.51661 0.0
C128 C 0.222 0.10902 0.51713 0.0
H129 H 0.35975 0.16284 0.46192 0.0
H130 H 0.31832 0.12921 0.46488 0.0
H131 H 0.26899 0.14158 0.59305 0.0
H132 H 0.13259 0.10687 0.56478 0.0
H133 H 0.17847 0.12978 0.56642 0.0
C134 C 0.17804 0.7103 0.97374 0.0
C135 C 0.15719 0.70214 0.00471 0.0
C136 C 0.20146 0.69125 0.97227 0.0
C137 C 0.24219 0.63387 0.04423 0.0
H138 H 0.27873 0.61825 0.92732 0.0
C139 C 0.34023 0.55693 0.03374 0.0
C140 C 0.36092 0.5706 0.00632 0.0
C141 C 0.31425 0.57041 0.03242 0.0
C142 C 0.26883 0.62259 0.96027 0.0
H143 H 0.14425 0.66698 0.05746 0.0
H144 H 0.18517 0.63349 0.0547 0.0
H145 H 0.23494 0.64568 0.92649 0.0
H146 H 0.37042 0.60867 0.95531 0.0
H147 H 0.32521 0.63239 0.9534 0.0
H148 H 0.27623 0.611 0.07799 0.0
C149 C 0.18354 0.65496 0.03205 0.0
C150 C 0.24375 0.63831 0.95982 0.0
C151 C 0.16009 0.67409 0.03358 0.0
C152 C 0.355 0.5978 0.97722 0.0
C153 C 0.32901 0.61115 0.97572 0.0
C154 C 0.26724 0.61804 0.04465 0.0
C155 C 0.20462 0.66352 0.00169 0.0
C156 C 0.23029 0.64456 0.00184 0.0
C157 C 0.30837 0.59769 0.00343 0.0
C158 C 0.28101 0.61263 0.00273 0.0
H159 H 0.17668 0.73211 0.95167 0.0
H160 H 0.21747 0.69893 0.94908 0.0
H161 H 0.23257 0.6387 0.07729 0.0
H162 H 0.34422 0.53613 0.05678 0.0
H163 H 0.29872 0.55936 0.05393 0.0
C164 C 0.67581 0.79625 0.5514 0.0
C165 C 0.65438 0.80382 0.52036 0.0
C166 C 0.69956 0.81533 0.55187 0.0
C167 C 0.7396 0.87027 0.47641 0.0
H168 H 0.77972 0.88846 0.59155 0.0
C169 C 0.84035 0.94487 0.48035 0.0
C170 C 0.86125 0.93166 0.50844 0.0
C171 C 0.814 0.93208 0.48285 0.0
C172 C 0.76881 0.88339 0.55909 0.0
H173 H 0.6407 0.83809 0.46666 0.0
H174 H 0.68224 0.87157 0.46759 0.0
H175 H 0.73517 0.86197 0.59484 0.0
H176 H 0.87077 0.89509 0.56179 0.0
H177 H 0.82492 0.87246 0.56566 0.0
H178 H 0.77342 0.89132 0.44065 0.0
C179 C 0.68078 0.85055 0.49108 0.0
C180 C 0.7433 0.86824 0.56096 0.0
C181 C 0.65699 0.83142 0.49059 0.0
C182 C 0.85519 0.90555 0.5393 0.0
C183 C 0.82885 0.89287 0.54194 0.0
C184 C 0.7651 0.88549 0.47454 0.0
C185 C 0.70247 0.84244 0.52132 0.0
C186 C 0.72856 0.86106 0.51961 0.0
C187 C 0.80797 0.90594 0.51369 0.0
C188 C 0.78015 0.89178 0.51583 0.0
H189 H 0.67467 0.7748 0.57417 0.0
H190 H 0.71603 0.80805 0.57504 0.0
H191 H 0.72896 0.86467 0.44386 0.0
H192 H 0.84442 0.96484 0.45598 0.0
H193 H 0.7983 0.94282 0.46087 0.0
C194 C 0.81677 0.285 0.97167 0.0
C195 C 0.83852 0.29242 0.00236 0.0
C196 C 0.79333 0.30407 0.97187 0.0
C197 C 0.75484 0.36089 0.04635 0.0
H198 H 0.71683 0.38047 0.92988 0.0
C199 C 0.65864 0.44187 0.03804 0.0
C200 C 0.6372 0.42943 0.00998 0.0
C201 C 0.68426 0.42747 0.03649 0.0
C202 C 0.72714 0.37503 0.96271 0.0
H203 H 0.85292 0.32605 0.05675 0.0
H204 H 0.81197 0.35954 0.05695 0.0
H205 H 0.75985 0.35139 0.9282 0.0
H206 H 0.62599 0.39269 0.95747 0.0
H207 H 0.67054 0.36738 0.9551 0.0
H208 H 0.72197 0.38439 0.08082 0.0
C209 C 0.81291 0.33865 0.03319 0.0
C210 C 0.75176 0.35833 0.96177 0.0
C211 C 0.83637 0.3195 0.03306 0.0
C212 C 0.64201 0.40259 0.97991 0.0
C213 C 0.66762 0.38834 0.97816 0.0
C214 C 0.73023 0.3777 0.04727 0.0
C215 C 0.79107 0.33107 0.0027 0.0
C216 C 0.76574 0.35067 0.00361 0.0
C217 C 0.689 0.40051 0.00656 0.0
C218 C 0.71594 0.38456 0.00549 0.0
H219 H 0.81759 0.26394 0.94818 0.0
H220 H 0.77671 0.29714 0.94855 0.0
H221 H 0.76489 0.35502 0.07925 0.0
H222 H 0.6555 0.46239 0.06179 0.0
H223 H 0.70039 0.43753 0.05854 0.0
C224 C 0.06687 0.77285 0.11268 0.0
C225 C 0.09443 0.76874 0.103 0.0
C226 C 0.05901 0.78852 0.15383 0.0
C227 C 0.0839 0.8511 0.23632 0.0
H228 H 0.02294 0.82368 0.31135 0.0
C229 C 0.05353 0.92556 0.39841 0.0
C230 C 0.02575 0.92986 0.4059 0.0
C231 C 0.06236 0.90314 0.36484 0.0
C232 C 0.03984 0.83185 0.29047 0.0
H233 H 0.13535 0.77674 0.1295 0.0
H234 H 0.12161 0.80405 0.20154 0.0
H235 H 0.03765 0.7883 0.2473 0.0
H236 H 0.98542 0.91372 0.38441 0.0
H237 H 0.00079 0.87525 0.32476 0.0
H238 H 0.08569 0.89506 0.27802 0.0
C239 C 0.10611 0.79525 0.17717 0.0
C240 C 0.04832 0.8115 0.25396 0.0
C241 C 0.11396 0.77934 0.13619 0.0
C242 C 0.00697 0.91092 0.37949 0.0
C243 C 0.01581 0.88869 0.34552 0.0
C244 C 0.07531 0.87154 0.27246 0.0
C245 C 0.07858 0.80064 0.18592 0.0
C246 C 0.07039 0.82099 0.22644 0.0
C247 C 0.04363 0.8847 0.33754 0.0
C248 C 0.05311 0.86227 0.29994 0.0
H249 H 0.0514 0.76471 0.08779 0.0
H250 H 0.03766 0.79248 0.1595 0.0
H251 H 0.10065 0.85938 0.21513 0.0
H252 H 0.06854 0.9395 0.41856 0.0
H253 H 0.08393 0.90024 0.36038 0.0
C254 C 0.57707 0.74313 0.63387 0.0
C255 C 0.58897 0.72631 0.59664 0.0
C256 C 0.56773 0.72543 0.67271 0.0
C257 C 0.55016 0.63895 0.70962 0.0
H258 H 0.5554 0.67585 0.83485 0.0
C259 C 0.54422 0.56065 0.87757 0.0
C260 C 0.52306 0.56906 0.90745 0.0
C261 C 0.55119 0.58155 0.84064 0.0
C262 C 0.5537 0.66546 0.79994 0.0
H263 H 0.60163 0.67845 0.57108 0.0
H264 H 0.58668 0.64774 0.63931 0.0
H265 H 0.57007 0.7092 0.76813 0.0
H266 H 0.49316 0.60636 0.92311 0.0
H267 H 0.50608 0.64354 0.85897 0.0
H268 H 0.53503 0.59467 0.74201 0.0
C269 C 0.58329 0.67425 0.63819 0.0
C270 C 0.56194 0.68453 0.76167 0.0
C271 C 0.5921 0.69181 0.5992 0.0
C272 C 0.50948 0.59922 0.90045 0.0
C273 C 0.51688 0.62051 0.86404 0.0
C274 C 0.54249 0.61975 0.74787 0.0
C275 C 0.57061 0.69068 0.67523 0.0
C276 C 0.56056 0.67136 0.71601 0.0
C277 C 0.53754 0.61155 0.83354 0.0
C278 C 0.54441 0.63275 0.79329 0.0
H279 H 0.57447 0.76979 0.63242 0.0
H280 H 0.55786 0.73893 0.70025 0.0
H281 H 0.54798 0.62822 0.675 0.0
H282 H 0.55499 0.53753 0.88204 0.0
H283 H 0.56725 0.57428 0.81752 0.0
C284 C 0.89006 0.21318 0.12431 0.0
C285 C 0.90788 0.22639 0.09119 0.0
C286 C 0.90005 0.19745 0.16449 0.0
C287 C 0.96121 0.15496 0.20912 0.0
H288 H 0.92326 0.15774 0.32674 0.0
C289 C -0.00088 0.08681 0.3759 0.0
C290 C 0.9794 0.06778 0.39896 0.0
C291 C 0.99162 0.10892 0.34035 0.0
C292 C 0.934 0.15668 0.29405 0.0
H293 H 0.95008 0.23482 0.07506 0.0
H294 H 0.96762 0.20797 0.1458 0.0
H295 H 0.90827 0.19277 0.26183 0.0
H296 H 0.93631 0.05741 0.40328 0.0
H297 H 0.92328 0.0961 0.34147 0.0
H298 H 0.98692 0.11883 0.24156 0.0
C299 C 0.94591 0.20903 0.14022 0.0
C300 C 0.9254 0.17667 0.25681 0.0
C301 C 0.9359 0.22454 0.09982 0.0
C302 C 0.95201 0.07163 0.38613 0.0
C303 C 0.94451 0.09396 0.35097 0.0
C304 C 0.96995 0.1352 0.24652 0.0
C305 C 0.92811 0.19476 0.17268 0.0
C306 C 0.93862 0.17567 0.21361 0.0
C307 C 0.96423 0.11272 0.32756 0.0
C308 C 0.95617 0.13548 0.2891 0.0
H309 H 0.86837 0.2138 0.11825 0.0
H310 H 0.88571 0.1863 0.18822 0.0
H311 H 0.97163 0.1531 0.17621 0.0
H312 H 0.02038 0.08444 0.38502 0.0
H313 H 0.00722 0.12322 0.32306 0.0
C314 C 0.42513 0.25906 0.62846 0.0
C315 C 0.41431 0.27577 0.58947 0.0
C316 C 0.43434 0.27696 0.6677 0.0
C317 C 0.45297 0.36332 0.7051 0.0
H318 H 0.44357 0.32777 0.83001 0.0
C319 C 0.45582 0.44238 0.87323 0.0
C320 C 0.47645 0.43379 0.90527 0.0
C321 C 0.44931 0.4215 0.83563 0.0
C322 C 0.44641 0.33778 0.79522 0.0
H323 H 0.4036 0.32378 0.56109 0.0
H324 H 0.41837 0.35491 0.62986 0.0
H325 H 0.43002 0.29426 0.762 0.0
H326 H 0.50587 0.39625 0.92412 0.0
H327 H 0.49371 0.3591 0.85882 0.0
H328 H 0.46807 0.40746 0.73879 0.0
C329 C 0.42101 0.32825 0.6299 0.0
C330 C 0.43885 0.3186 0.75623 0.0
C331 C 0.41234 0.31045 0.59053 0.0
C332 C 0.48995 0.4035 0.89977 0.0
C333 C 0.48298 0.38225 0.8627 0.0
C334 C 0.45994 0.38266 0.74402 0.0
C335 C 0.43238 0.31185 0.66892 0.0
C336 C 0.44177 0.33127 0.71061 0.0
C337 C 0.46288 0.39137 0.83007 0.0
C338 C 0.45654 0.37013 0.78928 0.0
H339 H 0.42682 0.23226 0.62823 0.0
H340 H 0.44325 0.26346 0.69677 0.0
H341 H 0.45629 0.37364 0.67066 0.0
H342 H 0.44515 0.46561 0.87653 0.0
H343 H 0.43368 0.42888 0.81079 0.0
C344 C 0.56159 0.73196 0.41333 0.0
C345 C 0.58937 0.73536 0.42354 0.0
C346 C 0.5527 0.71591 0.37249 0.0
C347 C 0.57568 0.68284 0.25803 0.0
H348 H 0.51517 0.62196 0.27379 0.0
C349 C 0.55021 0.57512 0.13023 0.0
C350 C 0.52279 0.57025 0.11792 0.0
C351 C 0.55775 0.59808 0.16485 0.0
C352 C 0.53188 0.63913 0.26867 0.0
H353 H 0.62967 0.72553 0.39864 0.0
H354 H 0.61426 0.69687 0.32779 0.0
H355 H 0.52925 0.65796 0.33824 0.0
H356 H 0.48179 0.58583 0.13203 0.0
H357 H 0.495 0.62563 0.19281 0.0
H358 H 0.57872 0.66294 0.18875 0.0
C359 C 0.59925 0.70719 0.35067 0.0
C360 C 0.53991 0.65991 0.30554 0.0
C361 C 0.60813 0.72357 0.3913 0.0
C362 C 0.50309 0.58893 0.14079 0.0
C363 C 0.51061 0.61164 0.17568 0.0
C364 C 0.56777 0.66179 0.22125 0.0
C365 C 0.57141 0.70252 0.34126 0.0
C366 C 0.562 0.68192 0.30082 0.0
C367 C 0.538 0.61639 0.18814 0.0
C368 C 0.54589 0.63961 0.22633 0.0
H369 H 0.54673 0.74116 0.43747 0.0
H370 H 0.53112 0.71346 0.36585 0.0
H371 H 0.59252 0.6998 0.25292 0.0
H372 H 0.56588 0.56119 0.11315 0.0
H373 H 0.57899 0.60102 0.1741 0.0
C374 C 0.88843 0.21166 0.88338 0.0
C375 C 0.90665 0.22527 0.91659 0.0
C376 C 0.89792 0.19593 0.84341 0.0
C377 C 0.95898 0.15474 0.79917 0.0
H378 H 0.91928 0.15716 0.68098 0.0
C379 C 0.9967 0.08968 0.63264 0.0
C380 C 0.97737 0.06978 0.60891 0.0
C381 C 0.98885 0.11135 0.668 0.0
C382 C 0.9305 0.1562 0.71384 0.0
H383 H 0.94903 0.23433 0.93315 0.0
H384 H 0.9657 0.20754 0.86276 0.0
H385 H 0.90452 0.19129 0.74616 0.0
H386 H 0.93456 0.05757 0.60293 0.0
H387 H 0.92088 0.09561 0.66448 0.0
H388 H 0.98499 0.1197 0.76663 0.0
C389 C 0.94407 0.20825 0.86812 0.0
C390 C 0.92203 0.17566 0.75124 0.0
C391 C 0.93455 0.22372 0.90833 0.0
C392 C 0.94996 0.07251 0.62063 0.0
C393 C 0.94209 0.09443 0.65566 0.0
C394 C 0.96758 0.13554 0.76164 0.0
C395 C 0.92588 0.19367 0.83551 0.0
C396 C 0.93595 0.17485 0.7946 0.0
C397 C 0.96148 0.11383 0.67999 0.0
C398 C 0.95324 0.13576 0.71879 0.0
H399 H 0.86682 0.21207 0.88917 0.0
H400 H 0.88332 0.18453 0.81956 0.0
H401 H 0.96993 0.15299 0.8322 0.0
H402 H 0.01798 0.08819 0.6244 0.0
H403 H 0.00419 0.12622 0.68594 0.0
C404 C 0.43898 0.26741 0.40662 0.0
C405 C 0.41133 0.26467 0.41655 0.0
C406 C 0.44746 0.28339 0.36598 0.0
C407 C 0.42333 0.31807 0.2518 0.0
H408 H 0.48467 0.37781 0.27028 0.0
C409 C 0.4488 0.42664 0.12662 0.0
C410 C 0.47619 0.43129 0.1155 0.0
C411 C 0.44128 0.40342 0.16049 0.0
C412 C 0.46772 0.36096 0.26437 0.0
H413 H 0.37078 0.2754 0.39126 0.0
H414 H 0.38549 0.30395 0.32071 0.0
H415 H 0.47099 0.34132 0.33357 0.0
H416 H 0.51714 0.41496 0.13083 0.0
H417 H 0.50397 0.37469 0.19018 0.0
H418 H 0.4197 0.33878 0.18287 0.0
C419 C 0.4007 0.2932 0.34368 0.0
C420 C 0.45992 0.33989 0.30059 0.0
C421 C 0.39223 0.27688 0.38412 0.0
C422 C 0.49587 0.41208 0.1387 0.0
C423 C 0.48836 0.38908 0.17279 0.0
C424 C 0.43103 0.3394 0.21565 0.0
C425 C 0.42845 0.29738 0.3347 0.0
C426 C 0.43755 0.31827 0.29489 0.0
C427 C 0.46102 0.3846 0.18415 0.0
C428 C 0.45323 0.36115 0.22169 0.0
H429 H 0.45408 0.25788 0.43092 0.0
H430 H 0.46896 0.28544 0.35963 0.0
H431 H 0.40624 0.30145 0.24598 0.0
H432 H 0.43316 0.44099 0.10925 0.0
H433 H 0.42008 0.40069 0.16889 0.0
C434 C 0.09234 0.81359 0.92799 0.0
C435 C 0.09039 0.77887 0.92973 0.0
C436 C 0.0828 0.83088 0.88893 0.0
C437 C 0.0618 0.82006 0.76402 0.0
H438 H 0.03278 0.90812 0.78297 0.0
C439 C 0.00869 0.90363 0.62221 0.0
C440 C 0.02243 0.93403 0.61602 0.0
C441 C 0.0158 0.88263 0.65935 0.0
C442 C 0.04079 0.88351 0.77732 0.0
H443 H 0.0771 0.73476 0.89239 0.0
H444 H 0.05923 0.76502 0.82442 0.0
H445 H 0.04628 0.87488 0.85046 0.0
H446 H 0.0542 0.96638 0.6438 0.0
H447 H 0.06591 0.93014 0.70956 0.0
H448 H 0.05534 0.82887 0.69052 0.0
C449 C 0.06876 0.77897 0.8527 0.0
C450 C 0.04878 0.86452 0.81586 0.0
C451 C 0.07882 0.76159 0.89162 0.0
C452 C 0.04332 0.94306 0.64762 0.0
C453 C 0.04998 0.92246 0.68525 0.0
C454 C 0.05324 0.83888 0.72545 0.0
C455 C 0.07056 0.8139 0.85092 0.0
C456 C 0.05999 0.83282 0.80977 0.0
C457 C 0.03629 0.89213 0.69137 0.0
C458 C 0.04318 0.87097 0.73188 0.0
H459 H 0.10161 0.82737 0.95674 0.0
H460 H 0.08536 0.8576 0.88845 0.0
H461 H 0.07057 0.79597 0.75778 0.0
H462 H 0.99258 0.89603 0.59823 0.0
H463 H 0.00499 0.85931 0.66364 0.0
loop_
_geom_bond_atom_site_label_1
_geom_bond_atom_site_label_2
_geom_bond_distance
_geom_bond_site_symmetry_2
_ccdc_geom_bond_type
H0 C3 0.931 . S
H1 C6 0.928 . S
H2 C8 0.930 . S
C3 H0 0.931 . S
C3 C4 1.413 1_554 S
C3 C5 1.360 . S
C4 C3 1.413 1_556 S
C4 C8 1.429 . S
C5 C3 1.360 . S
C5 C6 1.372 . S
C6 H1 0.928 . S
C6 C5 1.372 . S
C6 C7 1.404 . S
C7 C6 1.404 . S
C7 C8 1.391 1_554 S
C8 H2 0.930 . S
C8 C4 1.429 . S
C8 C7 1.391 1_556 S
H9 C12 0.931 . S
H10 C15 0.928 . S
H11 C17 0.930 . S
C12 H9 0.931 . S
C12 C13 1.413 . S
C12 C14 1.360 . S
C13 C12 1.413 . S
C13 C17 1.429 . S
C14 C12 1.360 . S
C14 C15 1.372 . S
C15 H10 0.928 . S
C15 C14 1.372 . S
C15 C16 1.404 . S
C16 C15 1.404 . S
C16 C17 1.391 . S
C17 H11 0.930 . S
C17 C13 1.429 . S
C17 C16 1.391 . S
H18 C21 0.931 . S
H19 C24 0.928 . S
H20 C26 0.930 . S
C21 H18 0.931 . S
C21 C22 1.413 1_554 S
C21 C23 1.360 . S
C22 C21 1.413 1_556 S
C22 C26 1.429 . S
C23 C21 1.360 . S
C23 C24 1.372 . S
C24 H19 0.928 . S
C24 C23 1.372 . S
C24 C25 1.404 . S
C25 C24 1.404 . S
C25 C26 1.391 1_554 S
C26 H20 0.930 . S
C26 C22 1.429 . S
C26 C25 1.391 1_556 S
H27 C30 0.931 . S
H28 C33 0.928 . S
H29 C35 0.930 . S
C30 H27 0.931 . S
C30 C31 1.413 . S
C30 C32 1.360 . S
C31 C30 1.413 . S
C31 C35 1.429 . S
C32 C30 1.360 . S
C32 C33 1.372 . S
C33 H28 0.928 . S
C33 C32 1.372 . S
C33 C34 1.404 . S
C34 C33 1.404 . S
C34 C35 1.391 . S
C35 H29 0.930 . S
C35 C31 1.429 . S
C35 C34 1.391 . S
C36 O52 1.251 . S
C36 O54 1.254 1_455 S
N37 C38 1.333 . S
N37 C42 1.307 . S
N37 Zn43 2.020 . S
C38 N37 1.333 . S
C38 C39 1.379 . S
C38 H56 0.952 . S
C39 C38 1.379 . S
C39 C40 1.390 . S
C39 H66 0.949 . S
C40 C39 1.390 . S
C40 C41 1.357 . S
C41 C40 1.357 . S
C41 C42 1.370 . S
C41 H67 0.950 . S
C42 N37 1.307 . S
C42 C41 1.370 . S
C42 H60 0.948 . S
Zn43 N37 2.020 . S
Zn43 O52 2.039 1_545 S
Zn43 O58 2.034 1_545 S
Zn43 O62 2.025 . S
Zn43 O64 2.024 . S
C44 O63 1.246 . S
C44 O64 1.249 1_655 S
N45 C46 1.307 . S
N45 C47 1.333 . S
N45 Zn51 2.020 . S
C46 N45 1.307 . S
C46 C50 1.370 . S
C46 H57 0.948 . S
C47 N45 1.333 . S
C47 C48 1.379 . S
C47 H55 0.952 . S
C48 C47 1.379 . S
C48 C49 1.390 . S
C48 H68 0.949 . S
C49 C48 1.390 . S
C49 C50 1.357 . S
C50 C46 1.370 . S
C50 C49 1.357 . S
C50 H69 0.950 . S
Zn51 N45 2.020 . S
Zn51 O54 2.025 . S
Zn51 O59 2.024 . S
Zn51 O61 2.039 1_565 S
Zn51 O63 2.034 1_565 S
O52 C36 1.251 . S
O52 Zn43 2.039 1_565 S
C53 O58 1.246 . S
C53 O59 1.249 1_455 S
O54 C36 1.254 1_655 S
O54 Zn51 2.025 . S
H55 C47 0.952 . S
H56 C38 0.952 . S
H57 C46 0.948 . S
O58 Zn43 2.034 1_565 S
O58 C53 1.246 . S
O59 Zn51 2.024 . S
O59 C53 1.249 1_655 S
H60 C42 0.948 . S
O61 Zn51 2.039 1_545 S
O61 C65 1.251 . S
O62 Zn43 2.025 . S
O62 C65 1.254 1_455 S
O63 C44 1.246 . S
O63 Zn51 2.034 1_545 S
O64 Zn43 2.024 . S
O64 C44 1.249 1_455 S
C65 O61 1.251 . S
C65 O62 1.254 1_655 S
H66 C39 0.949 . S
H67 C41 0.950 . S
H68 C48 0.949 . S
H69 C50 0.950 . S
C70 O86 1.251 . S
C70 O88 1.254 . S
N71 C72 1.333 1_554 S
N71 C76 1.307 . S
N71 Zn77 2.020 . S
C72 N71 1.333 1_556 S
C72 C73 1.379 . S
C72 H90 0.952 . S
C73 C72 1.379 . S
C73 C74 1.390 1_556 S
C73 H100 0.949 . S
C74 C73 1.390 1_554 S
C74 C75 1.357 . S
C75 C74 1.357 . S
C75 C76 1.370 . S
C75 H101 0.950 . S
C76 N71 1.307 . S
C76 C75 1.370 . S
C76 H94 0.948 . S
Zn77 N71 2.020 . S
Zn77 O86 2.039 1_554 S
Zn77 O92 2.034 . S
Zn77 O96 2.025 . S
Zn77 O98 2.024 1_554 S
C78 O97 1.246 . S
C78 O98 1.249 . S
N79 C80 1.307 1_554 S
N79 C81 1.333 . S
N79 Zn85 2.020 . S
C80 N79 1.307 1_556 S
C80 C84 1.370 1_556 S
C80 H91 0.949 . S
C81 N79 1.333 . S
C81 C82 1.379 . S
C81 H89 0.952 . S
C82 C81 1.379 . S
C82 C83 1.390 . S
C82 H102 0.949 . S
C83 C82 1.390 . S
C83 C84 1.359 . S
C84 C80 1.370 1_554 S
C84 C83 1.359 . S
C84 H103 0.948 1_554 S
Zn85 N79 2.020 . S
Zn85 O88 2.025 1_554 S
Zn85 O93 2.024 . S
Zn85 O95 2.039 . S
Zn85 O97 2.034 1_554 S
O86 C70 1.251 . S
O86 Zn77 2.039 1_556 S
C87 O92 1.246 . S
C87 O93 1.249 . S
O88 C70 1.254 . S
O88 Zn85 2.025 1_556 S
H89 C81 0.952 . S
H90 C72 0.952 . S
H91 C80 0.949 . S
O92 Zn77 2.034 . S
O92 C87 1.246 . S
O93 Zn85 2.024 . S
O93 C87 1.249 . S
H94 C76 0.948 . S
O95 Zn85 2.039 . S
O95 C99 1.251 . S
O96 Zn77 2.025 . S
O96 C99 1.254 . S
O97 C78 1.246 . S
O97 Zn85 2.034 1_556 S
O98 Zn77 2.024 1_556 S
O98 C78 1.249 . S
C99 O95 1.251 . S
C99 O96 1.254 . S
H100 C73 0.949 . S
H101 C75 0.950 . S
H102 C82 0.949 . S
H103 C84 0.948 1_556 S
C104 C105 1.349 . S
C104 C106 1.327 . S
C104 H129 0.950 . S
C105 C104 1.349 . S
C105 C121 1.349 . S
C106 C104 1.327 . S
C106 C125 1.429 . S
C106 H130 0.950 . S
C107 C124 1.574 . S
C107 C126 1.368 . S
C107 H131 0.949 . S
H108 C112 0.949 . S
C109 C110 1.349 . S
C109 C111 1.327 . S
C109 H132 0.950 . S
C110 C109 1.349 . S
C110 C122 1.349 . S
C111 C109 1.327 . S
C111 C127 1.429 . S
C111 H133 0.950 . S
C112 H108 0.949 . S
C112 C120 1.574 . S
C112 C128 1.368 . S
H113 C121 0.950 . S
H114 C119 0.950 . S
H115 C120 0.949 . S
H116 C122 0.950 . S
H117 C123 0.950 . S
H118 C124 0.949 . S
C119 H114 0.950 . S
C119 C121 1.327 . S
C119 C125 1.429 . S
C120 C112 1.574 . S
C120 H115 0.949 . S
C120 C126 1.368 . S
C121 C105 1.349 . S
C121 H113 0.950 . S
C121 C119 1.327 . S
C122 C110 1.349 . S
C122 H116 0.950 . S
C122 C123 1.327 . S
C123 H117 0.950 . S
C123 C122 1.327 . S
C123 C127 1.429 . S
C124 C107 1.574 . S
C124 H118 0.949 . S
C124 C128 1.368 . S
C125 C106 1.429 . S
C125 C119 1.429 . S
C125 C126 1.523 . S
C126 C107 1.368 . S
C126 C120 1.368 . S
C126 C125 1.523 . S
C127 C111 1.429 . S
C127 C123 1.429 . S
C127 C128 1.523 . S
C128 C112 1.368 . S
C128 C124 1.368 . S
C128 C127 1.523 . S
H129 C104 0.950 . S
H130 C106 0.950 . S
H131 C107 0.949 . S
H132 C109 0.950 . S
H133 C111 0.950 . S
C134 C135 1.349 1_556 S
C134 C136 1.327 . S
C134 H159 0.950 . S
C135 C134 1.349 1_554 S
C135 C151 1.349 . S
C136 C134 1.327 . S
C136 C155 1.429 1_556 S
C136 H160 0.950 . S
C137 C154 1.574 . S
C137 C156 1.368 . S
C137 H161 0.949 . S
H138 C142 0.949 . S
C139 C140 1.349 . S
C139 C141 1.327 . S
C139 H162 0.950 . S
C140 C139 1.349 . S
C140 C152 1.349 1_554 S
C141 C139 1.327 . S
C141 C157 1.429 . S
C141 H163 0.950 . S
C142 H138 0.949 . S
C142 C150 1.574 . S
C142 C158 1.368 1_556 S
H143 C151 0.950 . S
H144 C149 0.950 . S
H145 C150 0.949 . S
H146 C152 0.950 . S
H147 C153 0.950 . S
H148 C154 0.949 . S
C149 H144 0.950 . S
C149 C151 1.327 . S
C149 C155 1.429 . S
C150 C142 1.574 . S
C150 H145 0.949 . S
C150 C156 1.368 1_556 S
C151 C135 1.349 . S
C151 H143 0.950 . S
C151 C149 1.327 . S
C152 C140 1.349 1_556 S
C152 H146 0.950 . S
C152 C153 1.327 . S
C153 H147 0.950 . S
C153 C152 1.327 . S
C153 C157 1.429 1_556 S
C154 C137 1.574 . S
C154 H148 0.949 . S
C154 C158 1.368 . S
C155 C136 1.429 1_554 S
C155 C149 1.429 . S
C155 C156 1.523 . S
C156 C137 1.368 . S
C156 C150 1.368 1_554 S
C156 C155 1.523 . S
C157 C141 1.429 . S
C157 C153 1.429 1_554 S
C157 C158 1.523 . S
C158 C142 1.368 1_554 S
C158 C154 1.368 . S
C158 C157 1.523 . S
H159 C134 0.950 . S
H160 C136 0.950 . S
H161 C137 0.949 . S
H162 C139 0.950 . S
H163 C141 0.950 . S
C164 C165 1.349 . S
C164 C166 1.327 . S
C164 H189 0.950 . S
C165 C164 1.349 . S
C165 C181 1.349 . S
C166 C164 1.327 . S
C166 C185 1.429 . S
C166 H190 0.950 . S
C167 C184 1.574 . S
C167 C186 1.368 . S
C167 H191 0.949 . S
H168 C172 0.949 . S
C169 C170 1.349 . S
C169 C171 1.327 . S
C169 H192 0.950 . S
C170 C169 1.349 . S
C170 C182 1.349 . S
C171 C169 1.327 . S
C171 C187 1.429 . S
C171 H193 0.950 . S
C172 H168 0.949 . S
C172 C180 1.574 . S
C172 C188 1.368 . S
H173 C181 0.950 . S
H174 C179 0.950 . S
H175 C180 0.949 . S
H176 C182 0.950 . S
H177 C183 0.950 . S
H178 C184 0.949 . S
C179 H174 0.950 . S
C179 C181 1.327 . S
C179 C185 1.429 . S
C180 C172 1.574 . S
C180 H175 0.949 . S
C180 C186 1.368 . S
C181 C165 1.349 . S
C181 H173 0.950 . S
C181 C179 1.327 . S
C182 C170 1.349 . S
C182 H176 0.950 . S
C182 C183 1.327 . S
C183 H177 0.950 . S
C183 C182 1.327 . S
C183 C187 1.429 . S
C184 C167 1.574 . S
C184 H178 0.949 . S
C184 C188 1.368 . S
C185 C166 1.429 . S
C185 C179 1.429 . S
C185 C186 1.523 . S
C186 C167 1.368 . S
C186 C180 1.368 . S
C186 C185 1.523 . S
C187 C171 1.429 . S
C187 C183 1.429 . S
C187 C188 1.523 . S
C188 C172 1.368 . S
C188 C184 1.368 . S
C188 C187 1.523 . S
H189 C164 0.950 . S
H190 C166 0.950 . S
H191 C167 0.949 . S
H192 C169 0.950 . S
H193 C171 0.950 . S
C194 C195 1.349 1_556 S
C194 C196 1.327 . S
C194 H219 0.950 . S
C195 C194 1.349 1_554 S
C195 C211 1.349 . S
C196 C194 1.327 . S
C196 C215 1.429 1_556 S
C196 H220 0.950 . S
C197 C214 1.574 . S
C197 C216 1.368 . S
C197 H221 0.949 . S
H198 C202 0.949 . S
C199 C200 1.349 . S
C199 C201 1.327 . S
C199 H222 0.950 . S
C200 C199 1.349 . S
C200 C212 1.349 1_554 S
C201 C199 1.327 . S
C201 C217 1.429 . S
C201 H223 0.950 . S
C202 H198 0.949 . S
C202 C210 1.574 . S
C202 C218 1.368 1_556 S
H203 C211 0.950 . S
H204 C209 0.950 . S
H205 C210 0.949 . S
H206 C212 0.950 . S
H207 C213 0.950 . S
H208 C214 0.949 . S
C209 H204 0.950 . S
C209 C211 1.327 . S
C209 C215 1.429 . S
C210 C202 1.574 . S
C210 H205 0.949 . S
C210 C216 1.368 1_556 S
C211 C195 1.349 . S
C211 H203 0.950 . S
C211 C209 1.327 . S
C212 C200 1.349 1_556 S
C212 H206 0.950 . S
C212 C213 1.327 . S
C213 H207 0.950 . S
C213 C212 1.327 . S
C213 C217 1.429 1_556 S
C214 C197 1.574 . S
C214 H208 0.949 . S
C214 C218 1.368 . S
C215 C196 1.429 1_554 S
C215 C209 1.429 . S
C215 C216 1.523 . S
C216 C197 1.368 . S
C216 C210 1.368 1_554 S
C216 C215 1.523 . S
C217 C201 1.429 . S
C217 C213 1.429 1_554 S
C217 C218 1.523 . S
C218 C202 1.368 1_554 S
C218 C214 1.368 . S
C218 C217 1.523 . S
H219 C194 0.950 . S
H220 C196 0.950 . S
H221 C197 0.949 . S
H222 C199 0.950 . S
H223 C201 0.950 . S
C224 C225 1.349 . S
C224 C226 1.327 . S
C224 H249 0.950 . S
C225 C224 1.349 . S
C225 C241 1.349 . S
C226 C224 1.327 . S
C226 C245 1.429 . S
C226 H250 0.950 . S
C227 C244 1.574 . S
C227 C246 1.368 . S
C227 H251 0.949 . S
H228 C232 0.949 . S
C229 C230 1.349 . S
C229 C231 1.327 . S
C229 H252 0.950 . S
C230 C229 1.349 . S
C230 C242 1.349 . S
C231 C229 1.327 . S
C231 C247 1.429 . S
C231 H253 0.950 . S
C232 H228 0.949 . S
C232 C240 1.574 . S
C232 C248 1.368 . S
H233 C241 0.950 . S
H234 C239 0.950 . S
H235 C240 0.949 . S
H236 C242 0.950 . S
H237 C243 0.950 . S
H238 C244 0.949 . S
C239 H234 0.950 . S
C239 C241 1.327 . S
C239 C245 1.429 . S
C240 C232 1.574 . S
C240 H235 0.949 . S
C240 C246 1.368 . S
C241 C225 1.349 . S
C241 H233 0.950 . S
C241 C239 1.327 . S
C242 C230 1.349 . S
C242 H236 0.950 . S
C242 C243 1.327 . S
C243 H237 0.950 . S
C243 C242 1.327 . S
C243 C247 1.429 . S
C244 C227 1.574 . S
C244 H238 0.949 . S
C244 C248 1.368 . S
C245 C226 1.429 . S
C245 C239 1.429 . S
C245 C246 1.523 . S
C246 C227 1.368 . S
C246 C240 1.368 . S
C246 C245 1.523 . S
C247 C231 1.429 . S
C247 C243 1.429 . S
C247 C248 1.523 . S
C248 C232 1.368 . S
C248 C244 1.368 . S
C248 C247 1.523 . S
H249 C224 0.950 . S
H250 C226 0.950 . S
H251 C227 0.949 . S
H252 C229 0.950 . S
H253 C231 0.950 . S
C254 C255 1.349 . S
C254 C256 1.327 . S
C254 H279 0.950 . S
C255 C254 1.349 . S
C255 C271 1.349 . S
C256 C254 1.327 . S
C256 C275 1.429 . S
C256 H280 0.950 . S
C257 C274 1.574 . S
C257 C276 1.368 . S
C257 H281 0.949 . S
H258 C262 0.949 . S
C259 C260 1.349 . S
C259 C261 1.327 . S
C259 H282 0.950 . S
C260 C259 1.349 . S
C260 C272 1.349 . S
C261 C259 1.327 . S
C261 C277 1.429 . S
C261 H283 0.950 . S
C262 H258 0.949 . S
C262 C270 1.574 . S
C262 C278 1.368 . S
H263 C271 0.950 . S
H264 C269 0.950 . S
H265 C270 0.949 . S
H266 C272 0.950 . S
H267 C273 0.950 . S
H268 C274 0.949 . S
C269 H264 0.950 . S
C269 C271 1.327 . S
C269 C275 1.429 . S
C270 C262 1.574 . S
C270 H265 0.949 . S
C270 C276 1.368 . S
C271 C255 1.349 . S
C271 H263 0.950 . S
C271 C269 1.327 . S
C272 C260 1.349 . S
C272 H266 0.950 . S
C272 C273 1.327 . S
C273 H267 0.950 . S
C273 C272 1.327 . S
C273 C277 1.429 . S
C274 C257 1.574 . S
C274 H268 0.949 . S
C274 C278 1.368 . S
C275 C256 1.429 . S
C275 C269 1.429 . S
C275 C276 1.523 . S
C276 C257 1.368 . S
C276 C270 1.368 . S
C276 C275 1.523 . S
C277 C261 1.429 . S
C277 C273 1.429 . S
C277 C278 1.523 . S
C278 C262 1.368 . S
C278 C274 1.368 . S
C278 C277 1.523 . S
H279 C254 0.950 . S
H280 C256 0.950 . S
H281 C257 0.949 . S
H282 C259 0.950 . S
H283 C261 0.950 . S
C284 C285 1.349 . S
C284 C286 1.327 . S
C284 H309 0.950 . S
C285 C284 1.349 . S
C285 C301 1.349 . S
C286 C284 1.327 . S
C286 C305 1.429 . S
C286 H310 0.950 . S
C287 C304 1.574 . S
C287 C306 1.368 . S
C287 H311 0.949 . S
H288 C292 0.949 . S
C289 C290 1.349 . S
C289 C291 1.327 . S
C289 H312 0.974 . S
C290 C289 1.349 . S
C290 C302 1.349 . S
C291 C289 1.327 . S
C291 C307 1.429 . S
C291 H313 0.950 . S
C292 H288 0.949 . S
C292 C300 1.574 . S
C292 C308 1.368 . S
H293 C301 0.950 . S
H294 C299 0.950 . S
H295 C300 0.949 . S
H296 C302 0.950 . S
H297 C303 0.950 . S
H298 C304 0.949 . S
C299 H294 0.950 . S
C299 C301 1.327 . S
C299 C305 1.429 . S
C300 C292 1.574 . S
C300 H295 0.949 . S
C300 C306 1.368 . S
C301 C285 1.349 . S
C301 H293 0.950 . S
C301 C299 1.327 . S
C302 C290 1.349 . S
C302 H296 0.950 . S
C302 C303 1.327 . S
C303 H297 0.950 . S
C303 C302 1.327 . S
C303 C307 1.429 . S
C304 C287 1.574 . S
C304 H298 0.949 . S
C304 C308 1.368 . S
C305 C286 1.429 . S
C305 C299 1.429 . S
C305 C306 1.523 . S
C306 C287 1.368 . S
C306 C300 1.368 . S
C306 C305 1.523 . S
C307 C291 1.429 . S
C307 C303 1.429 . S
C307 C308 1.523 . S
C308 C292 1.368 . S
C308 C304 1.368 . S
C308 C307 1.523 . S
H309 C284 0.950 . S
H310 C286 0.950 . S
H311 C287 0.949 . S
H312 C289 0.974 . S
H313 C291 0.950 . S
C314 C315 1.349 . S
C314 C316 1.327 . S
C314 H339 0.950 . S
C315 C314 1.349 . S
C315 C331 1.349 . S
C316 C314 1.327 . S
C316 C335 1.429 . S
C316 H340 0.950 . S
C317 C334 1.574 . S
C317 C336 1.368 . S
C317 H341 0.949 . S
H318 C322 0.949 . S
C319 C320 1.349 . S
C319 C321 1.327 . S
C319 H342 0.950 . S
C320 C319 1.349 . S
C320 C332 1.349 . S
C321 C319 1.327 . S
C321 C337 1.429 . S
C321 H343 0.950 . S
C322 H318 0.949 . S
C322 C330 1.574 . S
C322 C338 1.368 . S
H323 C331 0.950 . S
H324 C329 0.950 . S
H325 C330 0.949 . S
H326 C332 0.950 . S
H327 C333 0.950 . S
H328 C334 0.949 . S
C329 H324 0.950 . S
C329 C331 1.327 . S
C329 C335 1.429 . S
C330 C322 1.574 . S
C330 H325 0.949 . S
C330 C336 1.368 . S
C331 C315 1.349 . S
C331 H323 0.950 . S
C331 C329 1.327 . S
C332 C320 1.349 . S
C332 H326 0.950 . S
C332 C333 1.327 . S
C333 H327 0.950 . S
C333 C332 1.327 . S
C333 C337 1.429 . S
C334 C317 1.574 . S
C334 H328 0.949 . S
C334 C338 1.368 . S
C335 C316 1.429 . S
C335 C329 1.429 . S
C335 C336 1.523 . S
C336 C317 1.368 . S
C336 C330 1.368 . S
C336 C335 1.523 . S
C337 C321 1.429 . S
C337 C333 1.429 . S
C337 C338 1.523 . S
C338 C322 1.368 . S
C338 C334 1.368 . S
C338 C337 1.523 . S
H339 C314 0.950 . S
H340 C316 0.950 . S
H341 C317 0.949 . S
H342 C319 0.950 . S
H343 C321 0.950 . S
C344 C345 1.349 . S
C344 C346 1.327 . S
C344 H369 0.950 . S
C345 C344 1.349 . S
C345 C361 1.349 . S
C346 C344 1.327 . S
C346 C365 1.429 . S
C346 H370 0.950 . S
C347 C364 1.574 . S
C347 C366 1.368 . S
C347 H371 0.949 . S
H348 C352 0.949 . S
C349 C350 1.349 . S
C349 C351 1.327 . S
C349 H372 0.950 . S
C350 C349 1.349 . S
C350 C362 1.349 . S
C351 C349 1.327 . S
C351 C367 1.429 . S
C351 H373 0.950 . S
C352 H348 0.949 . S
C352 C360 1.574 . S
C352 C368 1.368 . S
H353 C361 0.950 . S
H354 C359 0.950 . S
H355 C360 0.949 . S
H356 C362 0.950 . S
H357 C363 0.950 . S
H358 C364 0.949 . S
C359 H354 0.950 . S
C359 C361 1.327 . S
C359 C365 1.429 . S
C360 C352 1.574 . S
C360 H355 0.949 . S
C360 C366 1.368 . S
C361 C345 1.349 . S
C361 H353 0.950 . S
C361 C359 1.327 . S
C362 C350 1.349 . S
C362 H356 0.950 . S
C362 C363 1.327 . S
C363 H357 0.950 . S
C363 C362 1.327 . S
C363 C367 1.429 . S
C364 C347 1.574 . S
C364 H358 0.949 . S
C364 C368 1.368 . S
C365 C346 1.429 . S
C365 C359 1.429 . S
C365 C366 1.523 . S
C366 C347 1.368 . S
C366 C360 1.368 . S
C366 C365 1.523 . S
C367 C351 1.429 . S
C367 C363 1.429 . S
C367 C368 1.523 . S
C368 C352 1.368 . S
C368 C364 1.368 . S
C368 C367 1.523 . S
H369 C344 0.950 . S
H370 C346 0.950 . S
H371 C347 0.949 . S
H372 C349 0.950 . S
H373 C351 0.950 . S
C374 C375 1.349 . S
C374 C376 1.327 . S
C374 H399 0.950 . S
C375 C374 1.349 . S
C375 C391 1.349 . S
C376 C374 1.327 . S
C376 C395 1.429 . S
C376 H400 0.950 . S
C377 C394 1.574 . S
C377 C396 1.368 . S
C377 H401 0.949 . S
H378 C382 0.949 . S
C379 C380 1.349 . S
C379 C381 1.327 . S
C379 H402 0.950 1_655 S
C380 C379 1.349 . S
C380 C392 1.349 . S
C381 C379 1.327 . S
C381 C397 1.429 . S
C381 H403 0.942 1_655 S
C382 H378 0.949 . S
C382 C390 1.574 . S
C382 C398 1.368 . S
H383 C391 0.950 . S
H384 C389 0.950 . S
H385 C390 0.949 . S
H386 C392 0.950 . S
H387 C393 0.950 . S
H388 C394 0.949 . S
C389 H384 0.950 . S
C389 C391 1.327 . S
C389 C395 1.429 . S
C390 C382 1.574 . S
C390 H385 0.949 . S
C390 C396 1.368 . S
C391 C375 1.349 . S
C391 H383 0.950 . S
C391 C389 1.327 . S
C392 C380 1.349 . S
C392 H386 0.950 . S
C392 C393 1.327 . S
C393 H387 0.950 . S
C393 C392 1.327 . S
C393 C397 1.429 . S
C394 C377 1.574 . S
C394 H388 0.949 . S
C394 C398 1.368 . S
C395 C376 1.429 . S
C395 C389 1.429 . S
C395 C396 1.523 . S
C396 C377 1.368 . S
C396 C390 1.368 . S
C396 C395 1.523 . S
C397 C381 1.429 . S
C397 C393 1.429 . S
C397 C398 1.523 . S
C398 C382 1.368 . S
C398 C394 1.368 . S
C398 C397 1.523 . S
H399 C374 0.950 . S
H400 C376 0.950 . S
H401 C377 0.949 . S
H402 C379 0.950 1_455 S
H403 C381 0.942 1_455 S
C404 C405 1.349 . S
C404 C406 1.327 . S
C404 H429 0.950 . S
C405 C404 1.349 . S
C405 C421 1.349 . S
C406 C404 1.327 . S
C406 C425 1.429 . S
C406 H430 0.950 . S
C407 C424 1.574 . S
C407 C426 1.368 . S
C407 H431 0.949 . S
H408 C412 0.949 . S
C409 C410 1.349 . S
C409 C411 1.327 . S
C409 H432 0.950 . S
C410 C409 1.349 . S
C410 C422 1.349 . S
C411 C409 1.327 . S
C411 C427 1.429 . S
C411 H433 0.950 . S
C412 H408 0.949 . S
C412 C420 1.574 . S
C412 C428 1.368 . S
H413 C421 0.950 . S
H414 C419 0.950 . S
H415 C420 0.949 . S
H416 C422 0.950 . S
H417 C423 0.950 . S
H418 C424 0.949 . S
C419 H414 0.950 . S
C419 C421 1.327 . S
C419 C425 1.429 . S
C420 C412 1.574 . S
C420 H415 0.949 . S
C420 C426 1.368 . S
C421 C405 1.349 . S
C421 H413 0.950 . S
C421 C419 1.327 . S
C422 C410 1.349 . S
C422 H416 0.950 . S
C422 C423 1.327 . S
C423 H417 0.950 . S
C423 C422 1.327 . S
C423 C427 1.429 . S
C424 C407 1.574 . S
C424 H418 0.949 . S
C424 C428 1.368 . S
C425 C406 1.429 . S
C425 C419 1.429 . S
C425 C426 1.523 . S
C426 C407 1.368 . S
C426 C420 1.368 . S
C426 C425 1.523 . S
C427 C411 1.429 . S
C427 C423 1.429 . S
C427 C428 1.523 . S
C428 C412 1.368 . S
C428 C424 1.368 . S
C428 C427 1.523 . S
H429 C404 0.950 . S
H430 C406 0.950 . S
H431 C407 0.949 . S
H432 C409 0.950 . S
H433 C411 0.950 . S
C434 C435 1.349 . S
C434 C436 1.327 . S
C434 H459 0.950 . S
C435 C434 1.349 . S
C435 C451 1.349 . S
C436 C434 1.327 . S
C436 C455 1.429 . S
C436 H460 0.950 . S
C437 C454 1.574 . S
C437 C456 1.368 . S
C437 H461 0.949 . S
H438 C442 0.949 . S
C439 C440 1.349 . S
C439 C441 1.327 . S
C439 H462 0.950 . S
C440 C439 1.349 . S
C440 C452 1.349 . S
C441 C439 1.327 . S
C441 C457 1.429 . S
C441 H463 0.950 . S
C442 H438 0.949 . S
C442 C450 1.574 . S
C442 C458 1.368 . S
H443 C451 0.950 . S
H444 C449 0.950 . S
H445 C450 0.949 . S
H446 C452 0.950 . S
H447 C453 0.950 . S
H448 C454 0.949 . S
C449 H444 0.950 . S
C449 C451 1.327 . S
C449 C455 1.429 . S
C450 C442 1.574 . S
C450 H445 0.949 . S
C450 C456 1.368 . S
C451 C435 1.349 . S
C451 H443 0.950 . S
C451 C449 1.327 . S
C452 C440 1.349 . S
C452 H446 0.950 . S
C452 C453 1.327 . S
C453 H447 0.950 . S
C453 C452 1.327 . S
C453 C457 1.429 . S
C454 C437 1.574 . S
C454 H448 0.949 . S
C454 C458 1.368 . S
C455 C436 1.429 . S
C455 C449 1.429 . S
C455 C456 1.523 . S
C456 C437 1.368 . S
C456 C450 1.368 . S
C456 C455 1.523 . S
C457 C441 1.429 . S
C457 C453 1.429 . S
C457 C458 1.523 . S
C458 C442 1.368 . S
C458 C454 1.368 . S
C458 C457 1.523 . S
H459 C434 0.950 . S
H460 C436 0.950 . S
H461 C437 0.949 . S
H462 C439 0.950 . S
H463 C441 0.950 . S
C110 C40 1.543 . S
C105 C34 1.533 . S
C135 C7 1.496 . S
C140 C83 1.503 . S
C165 C16 1.529 . S
C170 C49 1.543 . S
C195 C25 1.496 . S
C200 C74 1.503 . S
C230 C36 1.519 . S
C225 C5 1.503 . S
C260 C78 1.572 . S
C255 C13 1.550 . S
C285 C23 1.502 . S
C290 C44 1.517 . S
C315 C32 1.553 . S
C320 C70 1.570 . S
C350 C99 1.568 . S
C345 C14 1.545 . S
C380 C65 1.516 . S
C375 C22 1.501 . S
C410 C87 1.569 . S
C405 C31 1.551 . S
C435 C4 1.501 . S
C440 C53 1.514 . S
