# Generated by pormake.
# Topology pyr, (3,6)-cn, num edge types: 1
# Building blocks:
#     Node 0, Type 0, BuildingBlock: KAKCAD_clean_linker_0, # of connection points: 3
#     Node 1, Type 0, BuildingBlock: KAKCAD_clean_linker_0, # of connection points: 3
#     Node 2, Type 0, BuildingBlock: KAKCAD_clean_linker_0, # of connection points: 3
#     Node 3, Type 0, BuildingBlock: KAKCAD_clean_linker_0, # of connection points: 3
#     Node 4, Type 0, BuildingBlock: KAKCAD_clean_linker_0, # of connection points: 3
#     Node 5, Type 0, BuildingBlock: KAKCAD_clean_linker_0, # of connection points: 3
#     Node 6, Type 0, BuildingBlock: KAKCAD_clean_linker_0, # of connection points: 3
#     Node 7, Type 0, BuildingBlock: KAKCAD_clean_linker_0, # of connection points: 3
#     Node 8, Type 1, BuildingBlock: PAMTOO_clean_sbu_0, # of connection points: 6
#     Node 9, Type 1, BuildingBlock: PAMTOO_clean_sbu_0, # of connection points: 6
#     Node 10, Type 1, BuildingBlock: PAMTOO_clean_sbu_0, # of connection points: 6
#     Node 11, Type 1, BuildingBlock: PAMTOO_clean_sbu_0, # of connection points: 6
#     Edge 12, Type (0, 1), BuildingBlock: CIFDUS_clean_linker_0, # of connection points: 2
#     Edge 13, Type (0, 1), BuildingBlock: CIFDUS_clean_linker_0, # of connection points: 2
#     Edge 14, Type (0, 1), BuildingBlock: CIFDUS_clean_linker_0, # of connection points: 2
#     Edge 15, Type (0, 1), BuildingBlock: CIFDUS_clean_linker_0, # of connection points: 2
#     Edge 16, Type (0, 1), BuildingBlock: CIFDUS_clean_linker_0, # of connection points: 2
#     Edge 17, Type (0, 1), BuildingBlock: CIFDUS_clean_linker_0, # of connection points: 2
#     Edge 18, Type (0, 1), BuildingBlock: CIFDUS_clean_linker_0, # of connection points: 2
#     Edge 19, Type (0, 1), BuildingBlock: CIFDUS_clean_linker_0, # of connection points: 2
#     Edge 20, Type (0, 1), BuildingBlock: CIFDUS_clean_linker_0, # of connection points: 2
#     Edge 21, Type (0, 1), BuildingBlock: CIFDUS_clean_linker_0, # of connection points: 2
#     Edge 22, Type (0, 1), BuildingBlock: CIFDUS_clean_linker_0, # of connection points: 2
#     Edge 23, Type (0, 1), BuildingBlock: CIFDUS_clean_linker_0, # of connection points: 2
#     Edge 24, Type (0, 1), BuildingBlock: CIFDUS_clean_linker_0, # of connection points: 2
#     Edge 25, Type (0, 1), BuildingBlock: CIFDUS_clean_linker_0, # of connection points: 2
#     Edge 26, Type (0, 1), BuildingBlock: CIFDUS_clean_linker_0, # of connection points: 2
#     Edge 27, Type (0, 1), BuildingBlock: CIFDUS_clean_linker_0, # of connection points: 2
#     Edge 28, Type (0, 1), BuildingBlock: CIFDUS_clean_linker_0, # of connection points: 2
#     Edge 29, Type (0, 1), BuildingBlock: CIFDUS_clean_linker_0, # of connection points: 2
#     Edge 30, Type (0, 1), BuildingBlock: CIFDUS_clean_linker_0, # of connection points: 2
#     Edge 31, Type (0, 1), BuildingBlock: CIFDUS_clean_linker_0, # of connection points: 2
#     Edge 32, Type (0, 1), BuildingBlock: CIFDUS_clean_linker_0, # of connection points: 2
#     Edge 33, Type (0, 1), BuildingBlock: CIFDUS_clean_linker_0, # of connection points: 2
#     Edge 34, Type (0, 1), BuildingBlock: CIFDUS_clean_linker_0, # of connection points: 2
#     Edge 35, Type (0, 1), BuildingBlock: CIFDUS_clean_linker_0, # of connection points: 2
# Relax obj value: 0.103
# Max RMSD: 0.164
# Mean RMSD: 0.069
data_MOF--net-pyr--node1-PAMTOO_clean_sbu_0--node2-KAKCAD_clean_linker_0--edge1-CIFDUS_clean_linker_0
_symmetry_space_group_name_H-M    P1
_symmetry_Int_Tables_number       1
_symmetry_cell_setting            triclinic
loop_
_symmetry_equiv_pos_as_xyz
'x, y, z'
_cell_length_a     41.33169
_cell_length_b     42.858763
_cell_length_c     41.593584
_cell_angle_alpha  90.170854
_cell_angle_beta   90.05644
_cell_angle_gamma 103.86566
loop_
_atom_site_label
_atom_site_type_symbol
_atom_site_fract_x
_atom_site_fract_y
_atom_site_fract_z
_atom_type_partial_charge
C0 C 0.27314 0.25392 0.32453 0.0
C1 C 0.29268 0.24548 0.34917 0.0
C2 C 0.28804 0.27139 0.29806 0.0
C3 C 0.3229 0.28091 0.29544 0.0
C4 C 0.34258 0.27337 0.32048 0.0
C5 C 0.32759 0.25584 0.34715 0.0
C6 C 0.33809 0.29588 0.26518 0.0
C7 C 0.32407 0.31819 0.2491 0.0
C8 C 0.33297 0.32723 0.2173 0.0
C9 C 0.35737 0.31463 0.20195 0.0
C10 C 0.37243 0.29297 0.21808 0.0
C11 C 0.36292 0.28405 0.24981 0.0
C12 C 0.39407 0.27561 0.20061 0.0
C13 C 0.38375 0.26118 0.17077 0.0
C14 C 0.42277 0.26992 0.21529 0.0
C15 C 0.43981 0.24886 0.20118 0.0
C16 C 0.42815 0.23289 0.17239 0.0
C17 C 0.3129 0.34579 0.19924 0.0
C18 C 0.3029 0.37142 0.21414 0.0
C19 C 0.2995 0.33498 0.16897 0.0
C20 C 0.27478 0.3479 0.15509 0.0
C21 C 0.26294 0.37174 0.1713 0.0
C22 C 0.2781 0.38419 0.20036 0.0
C23 C 0.40056 0.23994 0.15687 0.0
H24 H 0.24624 0.24569 0.32481 0.0
H25 H 0.27211 0.27602 0.27886 0.0
H26 H 0.36951 0.28051 0.31915 0.0
H27 H 0.34332 0.24993 0.36587 0.0
H28 H 0.30436 0.32678 0.26068 0.0
H29 H 0.37271 0.26567 0.26149 0.0
H30 H 0.36389 0.3209 0.17717 0.0
H31 H 0.36153 0.26482 0.15906 0.0
H32 H 0.43129 0.28084 0.23826 0.0
H33 H 0.46098 0.24376 0.21364 0.0
H34 H 0.31314 0.38056 0.23725 0.0
H35 H 0.3064 0.31504 0.15703 0.0
H36 H 0.39128 0.22813 0.13448 0.0
H37 H 0.26987 0.40299 0.21306 0.0
H38 H 0.26344 0.33776 0.13272 0.0
C39 C 0.17385 0.79238 0.86284 0.0
C40 C 0.20816 0.8022 0.86965 0.0
C41 C 0.16276 0.77878 0.83292 0.0
C42 C 0.1858 0.77479 0.80931 0.0
C43 C 0.21997 0.78345 0.81679 0.0
C44 C 0.23096 0.79689 0.84647 0.0
C45 C 0.1753 0.76522 0.77579 0.0
C46 C 0.15199 0.77894 0.76009 0.0
C47 C 0.14832 0.7767 0.72653 0.0
C48 C 0.16782 0.7602 0.70861 0.0
C49 C 0.19077 0.7459 0.72406 0.0
C50 C 0.19319 0.74733 0.7577 0.0
C51 C 0.21577 0.73381 0.7053 0.0
C52 C 0.2067 0.71379 0.67833 0.0
C53 C 0.24951 0.74308 0.7143 0.0
C54 C 0.27356 0.73209 0.69727 0.0
C55 C 0.26463 0.71168 0.6706 0.0
C56 C 0.12864 0.79644 0.71002 0.0
C57 C 0.095 0.79369 0.71762 0.0
C58 C 0.14449 0.82008 0.68828 0.0
C59 C 0.12726 0.84104 0.67473 0.0
C60 C 0.09344 0.83847 0.68203 0.0
C61 C 0.07743 0.81429 0.70348 0.0
C62 C 0.23093 0.70264 0.66121 0.0
H63 H 0.15565 0.796 0.88029 0.0
H64 H 0.13626 0.77219 0.82795 0.0
H65 H 0.23859 0.78168 0.79902 0.0
H66 H 0.25758 0.80491 0.8504 0.0
H67 H 0.13896 0.79393 0.77344 0.0
H68 H 0.21089 0.73627 0.76969 0.0
H69 H 0.16653 0.76021 0.68257 0.0
H70 H 0.1809 0.70641 0.67079 0.0
H71 H 0.25743 0.75904 0.73456 0.0
H72 H 0.29917 0.73915 0.70548 0.0
H73 H 0.08238 0.77567 0.73452 0.0
H74 H 0.17066 0.82313 0.68265 0.0
H75 H 0.22334 0.68705 0.64064 0.0
H76 H 0.05137 0.81125 0.70942 0.0
H77 H 0.14091 0.85986 0.65921 0.0
C78 C 0.7614 0.44108 0.91236 0.0
C79 C 0.78199 0.42087 0.922 0.0
C80 C 0.73035 0.42834 0.89777 0.0
C81 C 0.71917 0.39508 0.89215 0.0
C82 C 0.74026 0.37513 0.90091 0.0
C83 C 0.77084 0.3877 0.91593 0.0
C84 C 0.6853 0.38069 0.87846 0.0
C85 C 0.67102 0.3963 0.85443 0.0
C86 C 0.63937 0.38197 0.84122 0.0
C87 C 0.62206 0.35141 0.85249 0.0
C88 C 0.63614 0.33549 0.87634 0.0
C89 C 0.66727 0.35055 0.88936 0.0
C90 C 0.6196 0.30271 0.88789 0.0
C91 C 0.58835 0.29638 0.90305 0.0
C92 C 0.63731 0.27855 0.88737 0.0
C93 C 0.62498 0.24931 0.90301 0.0
C94 C 0.5947 0.24349 0.92 0.0
C95 C 0.62503 0.39876 0.81519 0.0
C96 C 0.62785 0.43213 0.81674 0.0
C97 C 0.6091 0.38182 0.78823 0.0
C98 C 0.59669 0.39785 0.7634 0.0
C99 C 0.59959 0.43124 0.76495 0.0
C100 C 0.61525 0.4481 0.79206 0.0
C101 C 0.57603 0.26705 0.91903 0.0
H102 H 0.76919 0.46681 0.91602 0.0
H103 H 0.71485 0.44452 0.89153 0.0
H104 H 0.73311 0.3495 0.89638 0.0
H105 H 0.78541 0.37107 0.92331 0.0
H106 H 0.685 0.41917 0.84521 0.0
H107 H 0.67731 0.33857 0.90852 0.0
H108 H 0.59784 0.33991 0.84264 0.0
H109 H 0.57433 0.31472 0.90403 0.0
H110 H 0.66137 0.28272 0.87567 0.0
H111 H 0.63967 0.23152 0.90241 0.0
H112 H 0.63969 0.44598 0.83721 0.0
H113 H 0.60672 0.35619 0.786 0.0
H114 H 0.55268 0.26352 0.93189 0.0
H115 H 0.61823 0.47384 0.79404 0.0
H116 H 0.58451 0.38398 0.7431 0.0
C117 C 0.87411 0.62742 0.25757 0.0
C118 C 0.90645 0.62234 0.25875 0.0
C119 C 0.86163 0.64214 0.28337 0.0
C120 C 0.88147 0.65278 0.3106 0.0
C121 C 0.91409 0.64835 0.31146 0.0
C122 C 0.9263 0.63297 0.28598 0.0
C123 C 0.86783 0.6676 0.33838 0.0
C124 C 0.83728 0.6517 0.35229 0.0
C125 C 0.82433 0.66492 0.37897 0.0
C126 C 0.84173 0.69501 0.39086 0.0
C127 C 0.87202 0.7116 0.37712 0.0
C128 C 0.88527 0.69739 0.35123 0.0
C129 C 0.88935 0.74379 0.39006 0.0
C130 C 0.87129 0.76708 0.3964 0.0
C131 C 0.92353 0.7511 0.39739 0.0
C132 C 0.93907 0.78067 0.41156 0.0
C133 C 0.9209 0.80388 0.4184 0.0
C134 C 0.79295 0.64731 0.39491 0.0
C135 C 0.76478 0.63234 0.37674 0.0
C136 C 0.79087 0.64577 0.42864 0.0
C137 C 0.76131 0.62998 0.44385 0.0
C138 C 0.73288 0.61541 0.42577 0.0
C139 C 0.73509 0.6167 0.39196 0.0
C140 C 0.88685 0.79672 0.41019 0.0
H141 H 0.85821 0.61937 0.23698 0.0
H142 H 0.83644 0.64533 0.282 0.0
H143 H 0.92988 0.65615 0.33219 0.0
H144 H 0.95138 0.62951 0.28748 0.0
H145 H 0.82416 0.62844 0.34299 0.0
H146 H 0.90861 0.70994 0.34044 0.0
H147 H 0.83165 0.70561 0.41107 0.0
H148 H 0.84501 0.76237 0.39059 0.0
H149 H 0.93806 0.73356 0.39307 0.0
H150 H 0.96519 0.78495 0.41785 0.0
H151 H 0.76544 0.63335 0.35072 0.0
H152 H 0.81228 0.65656 0.44337 0.0
H153 H 0.87209 0.81409 0.41424 0.0
H154 H 0.71365 0.60618 0.37717 0.0
H155 H 0.76091 0.62894 0.46986 0.0
C156 C 0.70386 0.78868 0.75234 0.0
C157 C 0.70428 0.82003 0.74223 0.0
C158 C 0.69236 0.77831 0.78305 0.0
C159 C 0.68148 0.79927 0.80434 0.0
C160 C 0.67968 0.82975 0.79316 0.0
C161 C 0.69078 0.83993 0.76246 0.0
C162 C 0.67641 0.79152 0.83913 0.0
C163 C 0.69829 0.77648 0.8554 0.0
C164 C 0.69809 0.77447 0.88909 0.0
C165 C 0.67573 0.78788 0.90671 0.0
C166 C 0.6534 0.80279 0.89083 0.0
C167 C 0.65319 0.80342 0.85705 0.0
C168 C 0.63286 0.82076 0.90925 0.0
C169 C 0.61732 0.80879 0.93824 0.0
C170 C 0.62994 0.85104 0.89841 0.0
C171 C 0.6122 0.869 0.91615 0.0
C172 C 0.59709 0.8573 0.94533 0.0
C173 C 0.72367 0.76111 0.90548 0.0
C174 C 0.73056 0.73238 0.89445 0.0
C175 C 0.74326 0.7783 0.93035 0.0
C176 C 0.77001 0.76757 0.94306 0.0
C177 C 0.77749 0.73931 0.93133 0.0
C178 C 0.75711 0.72155 0.90729 0.0
C179 C 0.59965 0.82691 0.95613 0.0
H180 H 0.71384 0.77274 0.73708 0.0
H181 H 0.69345 0.75444 0.79062 0.0
H182 H 0.67202 0.84685 0.80887 0.0
H183 H 0.69121 0.86439 0.75561 0.0
H184 H 0.71724 0.76833 0.84207 0.0
H185 H 0.63573 0.81445 0.84468 0.0
H186 H 0.67659 0.7877 0.93274 0.0
H187 H 0.61888 0.78546 0.94712 0.0
H188 H 0.64227 0.86143 0.87663 0.0
H189 H 0.61131 0.8926 0.90751 0.0
H190 H 0.71579 0.71861 0.87537 0.0
H191 H 0.73874 0.80071 0.93909 0.0
H192 H 0.58805 0.81719 0.97846 0.0
H193 H 0.7624 0.69984 0.89754 0.0
H194 H 0.78511 0.78159 0.96177 0.0
C195 C 0.81895 0.22206 0.25511 0.0
C196 C 0.80649 0.24299 0.23533 0.0
C197 C 0.82948 0.23109 0.28634 0.0
C198 C 0.82818 0.26144 0.29847 0.0
C199 C 0.81839 0.28339 0.27767 0.0
C200 C 0.8074 0.27415 0.24647 0.0
C201 C 0.83269 0.26821 0.33355 0.0
C202 C 0.85512 0.25534 0.35158 0.0
C203 C 0.85473 0.25599 0.38536 0.0
C204 C 0.8331 0.27176 0.40116 0.0
C205 C 0.81115 0.28566 0.38353 0.0
C206 C 0.8111 0.28365 0.34981 0.0
C207 C 0.78586 0.29952 0.39997 0.0
C208 C 0.768 0.28393 0.42648 0.0
C209 C 0.77762 0.32715 0.38769 0.0
C210 C 0.75137 0.33824 0.40081 0.0
C211 C 0.73281 0.32211 0.4267 0.0
C212 C 0.87404 0.237 0.40392 0.0
C213 C 0.87498 0.20603 0.39336 0.0
C214 C 0.89 0.24862 0.43293 0.0
C215 C 0.90624 0.2295 0.45111 0.0
C216 C 0.90683 0.19841 0.4406 0.0
C217 C 0.89119 0.18702 0.41143 0.0
C218 C 0.74181 0.29514 0.43973 0.0
H219 H 0.81811 0.19771 0.24739 0.0
H220 H 0.83632 0.21327 0.30162 0.0
H221 H 0.81776 0.30721 0.28597 0.0
H222 H 0.79817 0.29084 0.23158 0.0
H223 H 0.87213 0.24365 0.33932 0.0
H224 H 0.7925 0.29218 0.33635 0.0
H225 H 0.83238 0.2721 0.42719 0.0
H226 H 0.77342 0.26237 0.43632 0.0
H227 H 0.7911 0.33988 0.36747 0.0
H228 H 0.74496 0.35889 0.38992 0.0
H229 H 0.86223 0.19598 0.37156 0.0
H230 H 0.88989 0.27245 0.4416 0.0
H231 H 0.72835 0.28241 0.45996 0.0
H232 H 0.89056 0.16295 0.40298 0.0
H233 H 0.91833 0.23903 0.47337 0.0
C234 C 0.23725 0.65532 0.18911 0.0
C235 C 0.22938 0.6217 0.18569 0.0
C236 C 0.26615 0.67135 0.20533 0.0
C237 C 0.28817 0.65429 0.21848 0.0
C238 C 0.27995 0.62058 0.21573 0.0
C239 C 0.2509 0.60448 0.19955 0.0
C240 C 0.32033 0.67189 0.23341 0.0
C241 C 0.33277 0.66075 0.26158 0.0
C242 C 0.36345 0.67736 0.27535 0.0
C243 C 0.3812 0.70606 0.26042 0.0
C244 C 0.36898 0.7175 0.23232 0.0
C245 C 0.33882 0.70012 0.21903 0.0
C246 C 0.38696 0.74775 0.21631 0.0
C247 C 0.39548 0.777 0.23328 0.0
C248 C 0.39218 0.74805 0.18293 0.0
C249 C 0.40385 0.777 0.1666 0.0
C250 C 0.41035 0.80657 0.18311 0.0
C251 C 0.3768 0.66466 0.30507 0.0
C252 C 0.36974 0.6314 0.31144 0.0
C253 C 0.39674 0.68553 0.32747 0.0
C254 C 0.40924 0.6736 0.35501 0.0
C255 C 0.40169 0.64038 0.36166 0.0
C256 C 0.38159 0.61954 0.33935 0.0
C257 C 0.407 0.80616 0.21684 0.0
H258 H 0.22091 0.6693 0.17941 0.0
H259 H 0.27125 0.69726 0.20754 0.0
H260 H 0.29646 0.60668 0.22524 0.0
H261 H 0.24573 0.57859 0.19721 0.0
H262 H 0.31796 0.6395 0.27314 0.0
H263 H 0.32964 0.70878 0.1972 0.0
H264 H 0.40499 0.71916 0.26993 0.0
H265 H 0.39151 0.77749 0.259 0.0
H266 H 0.38625 0.72584 0.16927 0.0
H267 H 0.407 0.77623 0.14079 0.0
H268 H 0.35516 0.61421 0.29477 0.0
H269 H 0.40255 0.71129 0.32407 0.0
H270 H 0.41168 0.82842 0.23037 0.0
H271 H 0.37453 0.59389 0.34344 0.0
H272 H 0.42509 0.69067 0.37094 0.0
C273 C 0.13002 0.24384 0.70577 0.0
C274 C 0.09572 0.2348 0.69905 0.0
C275 C 0.1444 0.27381 0.71941 0.0
C276 C 0.125 0.29586 0.72648 0.0
C277 C 0.09042 0.28636 0.72099 0.0
C278 C 0.07593 0.25613 0.70749 0.0
C279 C 0.14148 0.32932 0.73704 0.0
C280 C 0.17152 0.34525 0.72246 0.0
C281 C 0.18777 0.37674 0.73108 0.0
C282 C 0.17352 0.39285 0.75464 0.0
C283 C 0.14348 0.37749 0.77004 0.0
C284 C 0.12757 0.34567 0.76086 0.0
C285 C 0.12916 0.39462 0.79592 0.0
C286 C 0.12988 0.42751 0.79307 0.0
C287 C 0.11523 0.3785 0.82396 0.0
C288 C 0.10258 0.39483 0.84846 0.0
C289 C 0.10331 0.42773 0.84557 0.0
C290 C 0.21984 0.39211 0.7152 0.0
C291 C 0.24553 0.37584 0.7139 0.0
C292 C 0.22411 0.4216 0.69916 0.0
C293 C 0.25295 0.43385 0.68098 0.0
C294 C 0.27833 0.41703 0.67879 0.0
C295 C 0.27445 0.38823 0.69619 0.0
C296 C 0.11714 0.44378 0.81747 0.0
H297 H 0.14587 0.22774 0.70028 0.0
H298 H 0.17098 0.27993 0.72399 0.0
H299 H 0.07473 0.30274 0.72589 0.0
H300 H 0.04942 0.24996 0.70255 0.0
H301 H 0.18212 0.33334 0.70356 0.0
H302 H 0.10439 0.33362 0.77224 0.0
H303 H 0.18646 0.417 0.76163 0.0
H304 H 0.14009 0.44074 0.77178 0.0
H305 H 0.11452 0.35329 0.82724 0.0
H306 H 0.09185 0.38153 0.86954 0.0
H307 H 0.24304 0.35321 0.72634 0.0
H308 H 0.20455 0.4345 0.69957 0.0
H309 H 0.11849 0.46914 0.81443 0.0
H310 H 0.2937 0.37498 0.69601 0.0
H311 H 0.25476 0.45593 0.66778 0.0
Dy312 Dy 0.04461 0.02767 0.53109 0.0
Dy313 Dy 0.97825 1.01674 0.57778 0.0
C314 C 0.04124 0.07572 0.58994 0.0
O315 O 0.05449 0.99878 0.5726 0.0
O316 O 1.00134 0.97618 0.58995 0.0
O317 O 0.09799 0.0368 0.52736 0.0
O318 O 0.06772 0.03083 0.48418 0.0
O319 O 0.96351 0.98352 0.53564 0.0
O320 O 0.01471 0.97854 0.51804 0.0
O321 O 0.97964 0.06102 0.54926 0.0
O322 O 0.00795 0.04931 0.50543 0.0
O323 O 0.92584 1.01506 0.58177 0.0
O324 O 0.95423 1.00822 0.624 0.0
C325 C 0.03309 0.97649 0.58821 0.0
O326 O 0.0511 0.07273 0.56028 0.0
O327 O 0.01766 0.05348 0.60338 0.0
C328 C 0.12028 0.06723 0.48242 0.0
C329 C 0.16432 0.12166 0.45629 0.0
C330 C 0.14198 0.12508 0.48081 0.0
C331 C 0.12007 0.09806 0.49372 0.0
C332 C 0.14245 0.06365 0.4581 0.0
C333 C 0.16427 0.09062 0.44507 0.0
C334 C 0.09779 0.03868 0.4961 0.0
C335 C 0.98211 0.96828 0.51902 0.0
C336 C 0.98845 0.06552 0.51904 0.0
C337 C 0.89843 0.97901 0.62084 0.0
C338 C 0.84843 0.9254 0.63978 0.0
C339 C 0.87662 0.92119 0.62302 0.0
C340 C 0.90142 0.94785 0.6135 0.0
C341 C 0.87013 0.98336 0.6369 0.0
C342 C 0.84529 0.95678 0.6463 0.0
C343 C 0.92475 1.00712 0.61206 0.0
H344 H 0.14156 0.1486 0.49014 0.0
H345 H 0.10304 0.1012 0.51257 0.0
H346 H 0.1428 0.03998 0.44908 0.0
H347 H 0.18066 0.08718 0.42578 0.0
H348 H 0.87961 0.89732 0.61753 0.0
H349 H 0.92311 0.94418 0.60081 0.0
H350 H 0.86749 1.0073 0.64264 0.0
H351 H 0.82417 0.96082 0.65965 0.0
Dy352 Dy 0.45601 1.0231 1.04392 0.0
Dy353 Dy 0.52943 0.042 0.07898 0.0
C354 C 0.4733 0.97998 0.10061 0.0
O355 O 0.45158 0.05051 0.08872 0.0
O356 O 0.50483 0.08105 0.09253 0.0
O357 O 0.40269 1.00984 1.04945 0.0
O358 O 0.42433 1.01738 1.0018 0.0
O359 O 0.53473 0.07199 1.03421 0.0
O360 O 0.47991 0.07236 1.02606 0.0
O361 O 0.52737 0.99666 1.05206 0.0
O362 O 0.4891 1.00082 1.01344 0.0
O363 O 0.58273 0.04834 0.07588 0.0
O364 O 0.55954 0.05433 0.12159 0.0
C365 C 0.47298 0.07648 0.0987 0.0
O366 O 0.45879 0.97983 0.07249 0.0
O367 O 0.49635 1.00505 0.11043 0.0
C368 C 0.37372 0.97839 1.00732 0.0
C369 C 0.32855 0.92265 0.98457 0.0
C370 C 0.35178 0.92052 1.00874 0.0
C371 C 0.37427 0.94818 1.01996 0.0
C372 C 0.35049 0.98067 0.98351 0.0
C373 C 0.32816 0.95309 0.97216 0.0
C374 C 0.39715 1.00773 1.01858 0.0
C375 C 0.5118 0.08436 1.02075 0.0
C376 C 0.51308 0.98829 1.02418 0.0
C377 C 0.6138 0.08556 0.11262 0.0
C378 C 0.66365 0.14027 0.12969 0.0
C379 C 0.63403 0.14359 0.11485 0.0
C380 C 0.60926 0.11637 0.10632 0.0
C381 C 0.64358 0.08213 0.12645 0.0
C382 C 0.66829 0.1092 0.13494 0.0
C383 C 0.58743 0.05673 0.10602 0.0
H384 H 0.35262 0.89751 1.01893 0.0
H385 H 0.39213 0.94598 1.03839 0.0
H386 H 0.34987 1.00381 0.97343 0.0
H387 H 0.31118 0.95558 0.95302 0.0
H388 H 0.62981 0.16717 0.11034 0.0
H389 H 0.58635 0.11933 0.09544 0.0
H390 H 0.64738 0.05846 0.13147 0.0
H391 H 0.69045 0.10572 0.14689 0.0
Dy392 Dy 0.50207 0.49416 0.53646 0.0
Dy393 Dy 0.50759 0.56157 0.5756 0.0
C394 C 0.53702 0.505 0.60489 0.0
O395 O 0.45939 0.48459 0.5714 0.0
O396 O 0.45389 0.53616 0.57697 0.0
O397 O 0.49744 0.44289 0.53752 0.0
O398 O 0.50215 0.46792 0.49206 0.0
O399 O 0.49087 0.57022 0.52563 0.0
O400 O 0.46832 0.51834 0.50931 0.0
O401 O 0.55933 0.56412 0.55841 0.0
O402 O 0.54593 0.52956 0.51571 0.0
O403 O 0.52159 0.61345 0.57762 0.0
O404 O 0.49923 0.58615 0.61901 0.0
C405 C 0.44231 0.50516 0.58094 0.0
O406 O 0.53986 0.49559 0.57521 0.0
O407 O 0.52033 0.52682 0.61122 0.0
C408 C 0.53207 0.42853 0.49849 0.0
C409 C 0.58838 0.40637 0.4806 0.0
C410 C 0.59168 0.43311 0.50107 0.0
C411 C 0.56381 0.44413 0.50983 0.0
C412 C 0.52843 0.40162 0.47842 0.0
C413 C 0.5564 0.39056 0.46955 0.0
C414 C 0.50336 0.44145 0.50683 0.0
C415 C 0.47264 0.5495 0.50548 0.0
C416 C 0.56703 0.55281 0.53081 0.0
C417 C 0.48247 0.63313 0.60734 0.0
C418 C 0.43061 0.66481 0.61444 0.0
C419 C 0.42823 0.64034 0.59136 0.0
C420 C 0.45394 0.62461 0.58787 0.0
C421 C 0.48544 0.65807 0.62976 0.0
C422 C 0.45972 0.67387 0.63325 0.0
C423 C 0.5078 0.61441 0.60568 0.0
H424 H 0.61583 0.44554 0.51038 0.0
H425 H 0.56708 0.46505 0.52529 0.0
H426 H 0.50409 0.38947 0.46931 0.0
H427 H 0.5531 0.37011 0.45347 0.0
H428 H 0.40631 0.63306 0.5763 0.0
H429 H 0.45126 0.60529 0.57045 0.0
H430 H 0.50722 0.66473 0.6451 0.0
H431 H 0.4621 0.69236 0.65151 0.0
Dy432 Dy 0.00805 0.5628 1.02804 0.0
Dy433 Dy 0.00306 0.49743 0.07039 0.0
C434 C 0.97371 0.55496 0.09822 0.0
O435 O 0.05964 0.56829 1.04771 0.0
O436 O 0.047 0.5333 0.09017 0.0
O437 O 0.01968 0.61445 1.02249 0.0
O438 O 0.99925 0.58349 0.98258 0.0
O439 O 0.04183 0.49775 1.03282 0.0
O440 O 0.02139 0.52624 0.99492 0.0
O441 O 0.96164 0.48618 1.03409 0.0
O442 O 0.9543 0.53702 1.02936 0.0
O443 O 1.00077 0.4465 0.07128 0.0
O444 O 0.99935 0.47244 0.11569 0.0
C445 C 0.06749 0.55709 0.07536 0.0
O446 O 0.99098 0.57437 0.07667 0.0
O447 O 0.97036 0.52365 0.09704 0.0
C448 C 0.97857 0.62895 0.99079 0.0
C449 C 0.92283 0.65472 0.98048 0.0
C450 C 0.92239 0.63195 1.00482 0.0
C451 C 0.95001 0.61922 1.00993 0.0
C452 C 0.9796 0.65232 0.96709 0.0
C453 C 0.95194 0.66526 0.96205 0.0
C454 C 0.00581 0.61264 0.99414 0.0
C455 C 0.03888 0.50548 1.00264 0.0
C456 C 0.94345 0.50596 1.02536 0.0
C457 C 0.03106 0.43312 0.11554 0.0
C458 C 0.08748 0.41314 0.13781 0.0
C459 C 0.0725 0.40177 0.10832 0.0
C460 C 0.04453 0.41158 0.09734 0.0
C461 C 0.04539 0.44359 0.14555 0.0
C462 C 0.07332 0.4338 0.1565 0.0
C463 C 0.00356 0.44605 0.10251 0.0
H464 H 0.9005 0.62367 1.01964 0.0
H465 H 0.94878 0.60114 1.02834 0.0
H466 H 1.00138 0.6599 0.95197 0.0
H467 H 0.95287 0.68259 0.94296 0.0
H468 H 0.08247 0.38538 0.09364 0.0
H469 H 0.03386 0.40278 0.07428 0.0
H470 H 0.03556 0.46002 0.16031 0.0
H471 H 0.08439 0.44318 0.17922 0.0
H472 H 0.23542 0.24644 0.38099 0.0
H473 H 0.31293 0.19473 0.37518 0.0
H474 H 0.2814 0.15345 0.4109 0.0
H475 H 0.22917 0.12906 0.43874 0.0
H476 H 0.14975 0.17865 0.44053 0.0
H477 H 0.18466 0.22367 0.41152 0.0
C478 C 0.24549 0.2262 0.38765 0.0
C479 C 0.27631 0.22353 0.37508 0.0
C480 C 0.22672 0.20197 0.40724 0.0
C481 C 0.2894 0.19757 0.38462 0.0
C482 C 0.2712 0.17374 0.40479 0.0
C483 C 0.2195 0.14973 0.43278 0.0
C484 C 0.18675 0.15029 0.4415 0.0
C485 C 0.2394 0.1752 0.41539 0.0
C486 C 0.1749 0.17761 0.4343 0.0
C487 C 0.19478 0.20331 0.41751 0.0
H488 H 0.26126 0.79823 0.90684 0.0
H489 H 0.18414 0.85001 0.89746 0.0
H490 H 0.21258 0.88964 0.93664 0.0
H491 H 0.26351 0.91403 0.96673 0.0
H492 H 0.34345 0.86519 0.971 0.0
H493 H 0.30978 0.82006 0.94091 0.0
C494 C 0.25049 0.81802 0.91362 0.0
C495 C 0.22092 0.82142 0.89877 0.0
C496 C 0.26778 0.84157 0.93496 0.0
C497 C 0.20679 0.84667 0.90852 0.0
C498 C 0.22328 0.86962 0.93065 0.0
C499 C 0.27352 0.89344 0.9612 0.0
C500 C 0.30619 0.89329 0.97069 0.0
C501 C 0.25448 0.86804 0.94289 0.0
C502 C 0.31839 0.866 0.96413 0.0
C503 C 0.29923 0.84024 0.94668 0.0
H504 H 0.60367 0.42288 0.69985 0.0
H505 H 0.56553 0.47862 0.77053 0.0
H506 H 0.5439 0.50699 0.72778 0.0
H507 H 0.53473 0.51546 0.67005 0.0
H508 H 0.57291 0.45933 0.59961 0.0
H509 H 0.59524 0.43181 0.64234 0.0
C510 C 0.59041 0.44106 0.70596 0.0
C511 C 0.5863 0.44845 0.73854 0.0
C512 C 0.57797 0.45738 0.68117 0.0
C513 C 0.56947 0.47255 0.74578 0.0
C514 C 0.55691 0.48874 0.72129 0.0
C515 C 0.54808 0.49734 0.664 0.0
C516 C 0.552 0.48964 0.63144 0.0
C517 C 0.56095 0.48136 0.68885 0.0
C518 C 0.5694 0.46595 0.62429 0.0
C519 C 0.5822 0.45005 0.64879 0.0
H520 H 0.90811 0.63638 0.19478 0.0
H521 H 0.93364 0.57043 0.26274 0.0
H522 H 0.95458 0.54225 0.21906 0.0
H523 H 0.96685 0.53701 0.1613 0.0
H524 H 0.94548 0.60588 0.09417 0.0
H525 H 0.92154 0.63197 0.13737 0.0
C526 C 0.91813 0.61574 0.19993 0.0
C527 C 0.91923 0.60545 0.23195 0.0
C528 C 0.93084 0.6001 0.17473 0.0
C529 C 0.93268 0.57892 0.23833 0.0
C530 C 0.94455 0.56273 0.21333 0.0
C531 C 0.95663 0.55753 0.15616 0.0
C532 C 0.95768 0.56933 0.12452 0.0
C533 C 0.94388 0.57314 0.18141 0.0
C534 C 0.94495 0.59633 0.1183 0.0
C535 C 0.93127 0.61128 0.14302 0.0
H536 H 0.39471 0.1731 0.15583 0.0
H537 H 0.49393 0.23405 0.16221 0.0
H538 H 0.51706 0.19037 0.14131 0.0
H539 H 0.50849 0.13532 0.11956 0.0
H540 H 0.4086 0.07481 0.11426 0.0
H541 H 0.38637 0.11786 0.13656 0.0
C542 C 0.42139 0.17686 0.15241 0.0
C543 C 0.44259 0.20678 0.16002 0.0
C544 C 0.43437 0.1517 0.14073 0.0
C545 C 0.47717 0.21118 0.15633 0.0
C546 C 0.49034 0.18626 0.14439 0.0
C547 C 0.48189 0.13145 0.12354 0.0
C548 C 0.46028 0.10186 0.11506 0.0
C549 C 0.46912 0.15645 0.13633 0.0
C550 C 0.42588 0.0973 0.12044 0.0
C551 C 0.41306 0.12196 0.13313 0.0
H552 H 0.10172 0.86523 0.62242 0.0
H553 H 0.04476 0.86404 0.70961 0.0
H554 H 0.01878 0.90474 0.68732 0.0
H555 H 0.01515 0.94368 0.6442 0.0
H556 H 0.07785 0.94856 0.56062 0.0
H557 H 0.09935 0.90414 0.58077 0.0
C558 C 0.08402 0.87408 0.63691 0.0
C559 C 0.07562 0.86162 0.66785 0.0
C560 C 0.0704 0.89853 0.62466 0.0
C561 C 0.05159 0.87278 0.68557 0.0
C562 C 0.03692 0.89637 0.67298 0.0
C563 C 0.03345 0.93485 0.63051 0.0
C564 C 0.04513 0.9494 0.60115 0.0
C565 C 0.04654 0.90983 0.64274 0.0
C566 C 0.06888 0.93795 0.58353 0.0
C567 C 0.08107 0.91248 0.59493 0.0
H568 H 0.7992 0.47206 0.96396 0.0
H569 H 0.83938 0.39932 0.91736 0.0
H570 H 0.89118 0.4174 0.94701 0.0
H571 H 0.92584 0.45412 0.9859 0.0
H572 H 0.88852 0.53059 1.02797 0.0
H573 H 0.83526 0.51114 1.00005 0.0
C574 C 0.81936 0.46039 0.95979 0.0
C575 C 0.81472 0.43386 0.93863 0.0
C576 C 0.84978 0.47156 0.97626 0.0
C577 C 0.84142 0.41909 0.93408 0.0
C578 C 0.87137 0.4296 0.95088 0.0
C579 C 0.90591 0.46633 0.98914 0.0
C580 C 0.9109 0.49344 1.00931 0.0
C581 C 0.87578 0.45566 0.97219 0.0
C582 C 0.88518 0.50952 1.01271 0.0
C583 C 0.85475 0.49844 0.9967 0.0
H584 H 0.70618 0.63411 0.48067 0.0
H585 H 0.68769 0.55998 0.40779 0.0
H586 H 0.63525 0.53409 0.43379 0.0
H587 H 0.59427 0.53258 0.47704 0.0
H588 H 0.61375 0.606 0.55066 0.0
H589 H 0.6664 0.63149 0.52491 0.0
C590 C 0.69098 0.61205 0.47062 0.0
C591 C 0.70106 0.5992 0.44212 0.0
C592 C 0.66095 0.59702 0.48592 0.0
C593 C 0.68049 0.57085 0.42932 0.0
C594 C 0.65052 0.55584 0.44433 0.0
C595 C 0.61002 0.55413 0.48754 0.0
C596 C 0.59983 0.56734 0.51577 0.0
C597 C 0.64041 0.56878 0.47257 0.0
C598 C 0.62081 0.59519 0.52902 0.0
C599 C 0.65097 0.60989 0.51424 0.0
H600 H 0.20927 0.37611 0.20641 0.0
H601 H 0.24859 0.38759 0.11003 0.0
H602 H 0.19742 0.40093 0.09099 0.0
H603 H 0.14172 0.40964 0.10206 0.0
H604 H 0.1023 0.39663 0.19847 0.0
H605 H 0.15361 0.384 0.21731 0.0
C606 C 0.20682 0.38196 0.18131 0.0
C607 C 0.23277 0.38124 0.1597 0.0
C608 C 0.17735 0.38927 0.17058 0.0
C609 C 0.22893 0.38804 0.12709 0.0
C610 C 0.19973 0.39567 0.11624 0.0
C611 C 0.1442 0.40368 0.12711 0.0
C612 C 0.11821 0.40416 0.14883 0.0
C613 C 0.17373 0.39625 0.13777 0.0
C614 C 0.12206 0.39685 0.18133 0.0
C615 C 0.15134 0.3895 0.19211 0.0
H616 H 0.53153 0.20542 0.92882 0.0
H617 H 0.63396 0.2149 0.9571 0.0
H618 H 0.61777 0.16652 0.98956 0.0
H619 H 0.57463 0.12159 1.01072 0.0
H620 H 0.47188 0.11262 0.98393 0.0
H621 H 0.48809 0.1606 0.95062 0.0
C622 C 0.5503 0.19704 0.94222 0.0
C623 C 0.58402 0.21382 0.94004 0.0
C624 C 0.54077 0.16915 0.96128 0.0
C625 C 0.60792 0.20227 0.95756 0.0
C626 C 0.59867 0.17463 0.97642 0.0
C627 C 0.55575 0.12998 0.9975 0.0
C628 C 0.52206 0.11327 0.99989 0.0
C629 C 0.56519 0.15781 0.97844 0.0
C630 C 0.49801 0.12485 0.98268 0.0
C631 C 0.50725 0.15238 0.96355 0.0
H632 H 0.89401 0.83808 0.46259 0.0
H633 H 0.98476 0.84067 0.41016 0.0
H634 H 0.0116 0.89107 0.43669 0.0
H635 H 0.00949 0.93479 0.47471 0.0
H636 H 0.91783 0.93318 0.52512 0.0
H637 H 0.89118 0.88259 0.49886 0.0
C638 C 0.91951 0.84978 0.45649 0.0
C639 C 0.93718 0.8352 0.43429 0.0
C640 C 0.93473 0.87919 0.47143 0.0
C641 C 0.97052 0.85075 0.42747 0.0
C642 C 0.9859 0.87982 0.44248 0.0
C643 C 0.98365 0.92345 0.47992 0.0
C644 C 0.96578 0.93798 0.50192 0.0
C645 C 0.96829 0.89427 0.46456 0.0
C646 C 0.93225 0.92282 0.50821 0.0
C647 C 0.91696 0.89374 0.49326 0.0
H648 H 0.32712 0.74454 0.6542 0.0
H649 H 0.26045 0.65023 0.64983 0.0
H650 H 0.30552 0.62791 0.62924 0.0
H651 H 0.36506 0.63424 0.61808 0.0
H652 H 0.43215 0.72824 0.62438 0.0
H653 H 0.38579 0.75155 0.63933 0.0
C654 C 0.32242 0.71911 0.64865 0.0
C655 C 0.29057 0.69902 0.65389 0.0
C656 C 0.34861 0.70632 0.63763 0.0
C657 C 0.28467 0.66626 0.64586 0.0
C658 C 0.31051 0.65343 0.63437 0.0
C659 C 0.36945 0.65993 0.6221 0.0
C660 C 0.40205 0.67945 0.62033 0.0
C661 C 0.34275 0.6731 0.63092 0.0
C662 C 0.40737 0.71263 0.62606 0.0
C663 C 0.38087 0.72598 0.63447 0.0
H664 H 0.76572 0.8146 0.72489 0.0
H665 H 0.68647 0.85825 0.69612 0.0
H666 H 0.72376 0.89239 0.65792 0.0
H667 H 0.78088 0.91522 0.63913 0.0
H668 H 0.8605 0.87312 0.67031 0.0
H669 H 0.82087 0.83232 0.70039 0.0
C670 C 0.75626 0.83077 0.70948 0.0
C671 C 0.7235 0.83416 0.71355 0.0
C672 C 0.77806 0.85088 0.68828 0.0
C673 C 0.71174 0.85553 0.69366 0.0
C674 C 0.73307 0.8751 0.67193 0.0
C675 C 0.78944 0.89685 0.65221 0.0
C676 C 0.82361 0.89748 0.6529 0.0
C677 C 0.76664 0.87395 0.67011 0.0
C678 C 0.83432 0.87315 0.66934 0.0
C679 C 0.8117 0.84994 0.68676 0.0
H680 H 0.74538 0.24921 0.21795 0.0
H681 H 0.825 0.20677 0.1876 0.0
H682 H 0.78826 0.17432 0.14756 0.0
H683 H 0.73138 0.152 0.12779 0.0
H684 H 0.65106 0.19189 0.16153 0.0
H685 H 0.6904 0.23215 0.1927 0.0
C686 C 0.75503 0.2337 0.20181 0.0
C687 C 0.78773 0.23013 0.20588 0.0
C688 C 0.73348 0.2144 0.17967 0.0
C689 C 0.79978 0.20963 0.18508 0.0
C690 C 0.77876 0.19101 0.16231 0.0
C691 C 0.72258 0.16978 0.14166 0.0
C692 C 0.68826 0.16856 0.14276 0.0
C693 C 0.74517 0.19214 0.16046 0.0
C694 C 0.67731 0.19225 0.16017 0.0
C695 C 0.69978 0.21513 0.17828 0.0
H696 H 0.41743 0.58192 0.37083 0.0
H697 H 0.41488 0.66973 0.4211 0.0
H698 H 0.43721 0.65009 0.46903 0.0
H699 H 0.45747 0.60782 0.49738 0.0
H700 H 0.45492 0.5183 0.44858 0.0
H701 H 0.43365 0.53845 0.40007 0.0
C702 C 0.42108 0.59674 0.39229 0.0
C703 C 0.41456 0.62765 0.39164 0.0
C704 C 0.43294 0.58485 0.42042 0.0
C705 C 0.42035 0.6463 0.42002 0.0
C706 C 0.43286 0.63492 0.44781 0.0
C707 C 0.45218 0.5927 0.47614 0.0
C708 C 0.45795 0.56158 0.4767 0.0
C709 C 0.43936 0.60427 0.4483 0.0
C710 C 0.45061 0.54225 0.449 0.0
C711 C 0.43855 0.55383 0.42112 0.0
H712 H 0.10873 0.4225 0.91108 0.0
H713 H 0.06636 0.47254 0.83844 0.0
H714 H 0.04392 0.50158 0.88009 0.0
H715 H 0.03531 0.51237 0.93728 0.0
H716 H 0.07699 0.46176 1.00998 0.0
H717 H 0.10032 0.43345 0.96834 0.0
C718 C 0.09437 0.43956 0.90431 0.0
C719 C 0.08942 0.44522 0.87145 0.0
C720 C 0.08133 0.45623 0.9285 0.0
C721 C 0.07108 0.46788 0.86337 0.0
C722 C 0.05803 0.48444 0.88724 0.0
C723 C 0.04963 0.49528 0.94409 0.0
C724 C 0.05431 0.48939 0.97692 0.0
C725 C 0.06296 0.47884 0.91991 0.0
C726 C 0.07292 0.46697 0.98505 0.0
C727 C 0.08628 0.45065 0.96117 0.0
H728 H 0.55455 0.89294 0.9251 0.0
H729 H 0.60284 0.8679 1.00996 0.0
H730 H 0.58 0.90539 1.04193 0.0
H731 H 0.54915 0.94732 1.04517 0.0
H732 H 0.50088 0.97301 0.96057 0.0
H733 H 0.52111 0.9333 0.929 0.0
C734 C 0.56001 0.89569 0.95061 0.0
C735 C 0.58049 0.87777 0.96511 0.0
C736 C 0.54706 0.91754 0.96879 0.0
C737 C 0.5869 0.88116 0.99828 0.0
C738 C 0.57407 0.90278 1.01652 0.0
C739 C 0.54302 0.9443 1.01981 0.0
C740 C 0.52387 0.96339 1.00515 0.0
C741 C 0.55459 0.92143 1.00192 0.0
C742 C 0.51569 0.95872 0.97241 0.0
C743 C 0.52728 0.93605 0.95435 0.0
H744 H 0.94585 0.15957 0.41994 0.0
H745 H 0.90263 0.18945 0.50565 0.0
H746 H 0.92478 0.15153 0.53761 0.0
H747 H 0.95417 0.10822 0.54074 0.0
H748 H 0.99664 0.07779 0.45473 0.0
H749 H 0.97658 0.11733 0.42332 0.0
C750 C 0.94121 0.15773 0.44561 0.0
C751 C 0.92248 0.17721 0.46035 0.0
C752 C 0.95362 0.1356 0.46374 0.0
C753 C 0.91724 0.17497 0.49374 0.0
C754 C 0.92965 0.1531 0.51199 0.0
C755 C 0.95905 0.11018 0.51512 0.0
C756 C 0.97668 0.08985 0.50012 0.0
C757 C 0.94752 0.13302 0.49716 0.0
C758 C 0.98303 0.09301 0.46693 0.0
C759 C 0.97159 0.11564 0.44891 0.0
H760 H 0.2051 0.63955 0.12927 0.0
H761 H 0.18476 0.56572 0.20186 0.0
H762 H 0.13385 0.53875 0.17358 0.0
H763 H 0.09413 0.53702 0.12932 0.0
H764 H 0.11409 0.61101 0.05677 0.0
H765 H 0.16596 0.63702 0.08407 0.0
C766 C 0.18943 0.61766 0.13903 0.0
C767 C 0.19878 0.60482 0.16782 0.0
C768 C 0.16005 0.6023 0.12268 0.0
C769 C 0.17843 0.57606 0.17969 0.0
C770 C 0.14917 0.56069 0.1636 0.0
C771 C 0.10979 0.5588 0.11934 0.0
C772 C 0.09996 0.57206 0.091 0.0
C773 C 0.13961 0.57371 0.1352 0.0
C774 C 0.12088 0.6002 0.07848 0.0
C775 C 0.15057 0.61516 0.09415 0.0
H776 H 0.31252 0.4793 0.66708 0.0
H777 H 0.31168 0.38108 0.64271 0.0
H778 H 0.36167 0.39938 0.61043 0.0
H779 H 0.40653 0.44316 0.58958 0.0
H780 H 0.40577 0.54146 0.6118 0.0
H781 H 0.35531 0.52318 0.64355 0.0
C782 C 0.32291 0.46183 0.65441 0.0
C783 C 0.30831 0.42874 0.65793 0.0
C784 C 0.3515 0.47253 0.63524 0.0
C785 C 0.32264 0.40665 0.64137 0.0
C786 C 0.35118 0.4171 0.62256 0.0
C787 C 0.39525 0.46062 0.6012 0.0
C788 C 0.41017 0.49366 0.59827 0.0
C789 C 0.36601 0.44997 0.61948 0.0
C790 C 0.39497 0.51586 0.61348 0.0
C791 C 0.36607 0.50544 0.63181 0.0
H792 H 0.78186 0.67898 0.9472 0.0
H793 H 0.84025 0.77674 0.94103 0.0
H794 H 0.89032 0.75947 0.9564 0.0
H795 H 0.91795 0.71613 0.96961 0.0
H796 H 0.85932 0.61839 0.97511 0.0
H797 H 0.80901 0.63606 0.96191 0.0
C798 C 0.80556 0.69649 0.94919 0.0
C799 C 0.80734 0.72906 0.94288 0.0
C800 C 0.83425 0.68637 0.95782 0.0
C801 C 0.83813 0.75156 0.94607 0.0
C802 C 0.86683 0.74167 0.95463 0.0
C803 C 0.89414 0.69875 0.96784 0.0
C804 C 0.89237 0.66602 0.97331 0.0
C805 C 0.86525 0.70908 0.96022 0.0
C806 C 0.8613 0.64377 0.97134 0.0
C807 C 0.83254 0.65383 0.96364 0.0
H808 H 0.45541 0.86334 0.19817 0.0
H809 H 0.38262 0.81962 0.12671 0.0
H810 H 0.39536 0.86894 0.0955 0.0
H811 H 0.42722 0.92429 0.08784 0.0
H812 H 0.4997 0.96914 0.15905 0.0
H813 H 0.48664 0.91991 0.19103 0.0
C814 C 0.44218 0.86467 0.1759 0.0
C815 C 0.41836 0.83744 0.16474 0.0
C816 C 0.44947 0.89343 0.15795 0.0
C817 C 0.40163 0.83975 0.13565 0.0
C818 C 0.4087 0.86812 0.11782 0.0
C819 C 0.44016 0.92347 0.1104 0.0
C820 C 0.46447 0.95055 0.1209 0.0
C821 C 0.43265 0.89505 0.12862 0.0
C822 C 0.48085 0.94878 0.15028 0.0
C823 C 0.47343 0.92056 0.16861 0.0
H824 H 0.12064 0.2091 0.64745 0.0
H825 H 0.03761 0.19054 0.71312 0.0
H826 H 0.0139 0.13937 0.68598 0.0
H827 H 0.0167 0.09984 0.64327 0.0
H828 H 0.09922 0.11972 0.57683 0.0
H829 H 0.12327 0.17006 0.60478 0.0
C830 C 0.0975 0.19373 0.65603 0.0
C831 C 0.08106 0.20364 0.68245 0.0
C832 C 0.08392 0.16445 0.64017 0.0
C833 C 0.05071 0.18366 0.69277 0.0
C834 C 0.03722 0.1543 0.67733 0.0
C835 C 0.04007 0.11507 0.63504 0.0
C836 C 0.05616 0.10579 0.608 0.0
C837 C 0.0536 0.14441 0.65098 0.0
C838 C 0.08622 0.12613 0.59749 0.0
C839 C 0.10004 0.155 0.61349 0.0
H840 H 0.72669 0.38343 0.43557 0.0
H841 H 0.67256 0.28444 0.44541 0.0
H842 H 0.62346 0.30168 0.46358 0.0
H843 H 0.59539 0.34489 0.47546 0.0
H844 H 0.64886 0.44373 0.46283 0.0
H845 H 0.69855 0.42647 0.44671 0.0
C846 C 0.70409 0.36559 0.44144 0.0
C847 C 0.70341 0.33269 0.43909 0.0
C848 C 0.67574 0.37563 0.4513 0.0
C849 C 0.67404 0.30994 0.44743 0.0
C850 C 0.64581 0.31976 0.45756 0.0
C851 C 0.61783 0.36263 0.46891 0.0
C852 C 0.61838 0.39554 0.47045 0.0
C853 C 0.64629 0.35254 0.45936 0.0
C854 C 0.64785 0.41825 0.46233 0.0
C855 C 0.67626 0.40841 0.45293 0.0
loop_
_geom_bond_atom_site_label_1
_geom_bond_atom_site_label_2
_geom_bond_distance
_geom_bond_site_symmetry_2
_ccdc_geom_bond_type
C0 C1 1.386 . S
C0 C2 1.397 . S
C0 H24 0.931 . S
C1 C0 1.386 . S
C1 C5 1.397 . S
C2 C0 1.397 . S
C2 C3 1.384 . S
C2 H25 0.930 . S
C3 C2 1.384 . S
C3 C4 1.377 . S
C3 C6 1.481 . S
C4 C3 1.377 . S
C4 C5 1.389 . S
C4 H26 0.929 . S
C5 C1 1.397 . S
C5 C4 1.389 . S
C5 H27 0.931 . S
C6 C3 1.481 . S
C6 C7 1.387 . S
C6 C11 1.390 . S
C7 C6 1.387 . S
C7 C8 1.401 . S
C7 H28 0.930 . S
C8 C7 1.401 . S
C8 C9 1.376 . S
C8 C17 1.511 . S
C9 C8 1.376 . S
C9 C10 1.392 . S
C9 H30 0.931 . S
C10 C9 1.392 . S
C10 C11 1.361 . S
C10 C12 1.500 . S
C11 C6 1.390 . S
C11 C10 1.361 . S
C11 H29 0.931 . S
C12 C10 1.500 . S
C12 C13 1.371 . S
C12 C14 1.365 . S
C13 C12 1.371 . S
C13 C23 1.386 . S
C13 H31 0.931 . S
C14 C12 1.365 . S
C14 C15 1.409 . S
C14 H32 0.929 . S
C15 C14 1.409 . S
C15 C16 1.380 . S
C15 H33 0.930 . S
C16 C15 1.380 . S
C16 C23 1.357 . S
C17 C8 1.511 . S
C17 C18 1.341 . S
C17 C19 1.371 . S
C18 C17 1.341 . S
C18 C22 1.394 . S
C18 H34 0.930 . S
C19 C17 1.371 . S
C19 C20 1.392 . S
C19 H35 0.931 . S
C20 C19 1.392 . S
C20 C21 1.331 . S
C20 H38 0.932 . S
C21 C20 1.331 . S
C21 C22 1.336 . S
C22 C18 1.394 . S
C22 C21 1.336 . S
C22 H37 0.929 . S
C23 C13 1.386 . S
C23 C16 1.357 . S
C23 H36 0.928 . S
H24 C0 0.931 . S
H25 C2 0.930 . S
H26 C4 0.929 . S
H27 C5 0.931 . S
H28 C7 0.930 . S
H29 C11 0.931 . S
H30 C9 0.931 . S
H31 C13 0.931 . S
H32 C14 0.929 . S
H33 C15 0.930 . S
H34 C18 0.930 . S
H35 C19 0.931 . S
H36 C23 0.928 . S
H37 C22 0.929 . S
H38 C20 0.932 . S
C39 C40 1.386 . S
C39 C41 1.397 . S
C39 H63 0.931 . S
C40 C39 1.386 . S
C40 C44 1.397 . S
C41 C39 1.397 . S
C41 C42 1.384 . S
C41 H64 0.930 . S
C42 C41 1.384 . S
C42 C43 1.377 . S
C42 C45 1.481 . S
C43 C42 1.377 . S
C43 C44 1.389 . S
C43 H65 0.929 . S
C44 C40 1.397 . S
C44 C43 1.389 . S
C44 H66 0.931 . S
C45 C42 1.481 . S
C45 C46 1.387 . S
C45 C50 1.390 . S
C46 C45 1.387 . S
C46 C47 1.401 . S
C46 H67 0.930 . S
C47 C46 1.401 . S
C47 C48 1.376 . S
C47 C56 1.511 . S
C48 C47 1.376 . S
C48 C49 1.392 . S
C48 H69 0.931 . S
C49 C48 1.392 . S
C49 C50 1.361 . S
C49 C51 1.500 . S
C50 C45 1.390 . S
C50 C49 1.361 . S
C50 H68 0.931 . S
C51 C49 1.500 . S
C51 C52 1.371 . S
C51 C53 1.365 . S
C52 C51 1.371 . S
C52 C62 1.386 . S
C52 H70 0.931 . S
C53 C51 1.365 . S
C53 C54 1.409 . S
C53 H71 0.929 . S
C54 C53 1.409 . S
C54 C55 1.380 . S
C54 H72 0.930 . S
C55 C54 1.380 . S
C55 C62 1.357 . S
C56 C47 1.511 . S
C56 C57 1.341 . S
C56 C58 1.371 . S
C57 C56 1.341 . S
C57 C61 1.394 . S
C57 H73 0.930 . S
C58 C56 1.371 . S
C58 C59 1.392 . S
C58 H74 0.931 . S
C59 C58 1.392 . S
C59 C60 1.331 . S
C59 H77 0.932 . S
C60 C59 1.331 . S
C60 C61 1.336 . S
C61 C57 1.394 . S
C61 C60 1.336 . S
C61 H76 0.929 . S
C62 C52 1.386 . S
C62 C55 1.357 . S
C62 H75 0.928 . S
H63 C39 0.931 . S
H64 C41 0.930 . S
H65 C43 0.929 . S
H66 C44 0.931 . S
H67 C46 0.930 . S
H68 C50 0.931 . S
H69 C48 0.931 . S
H70 C52 0.931 . S
H71 C53 0.929 . S
H72 C54 0.930 . S
H73 C57 0.930 . S
H74 C58 0.931 . S
H75 C62 0.928 . S
H76 C61 0.929 . S
H77 C59 0.932 . S
C78 C79 1.386 . S
C78 C80 1.397 . S
C78 H102 0.931 . S
C79 C78 1.386 . S
C79 C83 1.397 . S
C80 C78 1.397 . S
C80 C81 1.384 . S
C80 H103 0.930 . S
C81 C80 1.384 . S
C81 C82 1.377 . S
C81 C84 1.481 . S
C82 C81 1.377 . S
C82 C83 1.389 . S
C82 H104 0.929 . S
C83 C79 1.397 . S
C83 C82 1.389 . S
C83 H105 0.931 . S
C84 C81 1.481 . S
C84 C85 1.387 . S
C84 C89 1.390 . S
C85 C84 1.387 . S
C85 C86 1.401 . S
C85 H106 0.930 . S
C86 C85 1.401 . S
C86 C87 1.376 . S
C86 C95 1.511 . S
C87 C86 1.376 . S
C87 C88 1.392 . S
C87 H108 0.931 . S
C88 C87 1.392 . S
C88 C89 1.361 . S
C88 C90 1.500 . S
C89 C84 1.390 . S
C89 C88 1.361 . S
C89 H107 0.931 . S
C90 C88 1.500 . S
C90 C91 1.371 . S
C90 C92 1.365 . S
C91 C90 1.371 . S
C91 C101 1.386 . S
C91 H109 0.931 . S
C92 C90 1.365 . S
C92 C93 1.409 . S
C92 H110 0.929 . S
C93 C92 1.409 . S
C93 C94 1.380 . S
C93 H111 0.930 . S
C94 C93 1.380 . S
C94 C101 1.357 . S
C95 C86 1.511 . S
C95 C96 1.341 . S
C95 C97 1.371 . S
C96 C95 1.341 . S
C96 C100 1.394 . S
C96 H112 0.930 . S
C97 C95 1.371 . S
C97 C98 1.392 . S
C97 H113 0.931 . S
C98 C97 1.392 . S
C98 C99 1.331 . S
C98 H116 0.932 . S
C99 C98 1.331 . S
C99 C100 1.336 . S
C100 C96 1.394 . S
C100 C99 1.336 . S
C100 H115 0.929 . S
C101 C91 1.386 . S
C101 C94 1.357 . S
C101 H114 0.928 . S
H102 C78 0.931 . S
H103 C80 0.930 . S
H104 C82 0.929 . S
H105 C83 0.931 . S
H106 C85 0.930 . S
H107 C89 0.931 . S
H108 C87 0.931 . S
H109 C91 0.931 . S
H110 C92 0.929 . S
H111 C93 0.930 . S
H112 C96 0.930 . S
H113 C97 0.931 . S
H114 C101 0.928 . S
H115 C100 0.929 . S
H116 C98 0.932 . S
C117 C118 1.386 . S
C117 C119 1.397 . S
C117 H141 0.931 . S
C118 C117 1.386 . S
C118 C122 1.397 . S
C119 C117 1.397 . S
C119 C120 1.384 . S
C119 H142 0.930 . S
C120 C119 1.384 . S
C120 C121 1.377 . S
C120 C123 1.481 . S
C121 C120 1.377 . S
C121 C122 1.389 . S
C121 H143 0.929 . S
C122 C118 1.397 . S
C122 C121 1.389 . S
C122 H144 0.931 . S
C123 C120 1.481 . S
C123 C124 1.387 . S
C123 C128 1.390 . S
C124 C123 1.387 . S
C124 C125 1.401 . S
C124 H145 0.930 . S
C125 C124 1.401 . S
C125 C126 1.376 . S
C125 C134 1.511 . S
C126 C125 1.376 . S
C126 C127 1.392 . S
C126 H147 0.931 . S
C127 C126 1.392 . S
C127 C128 1.361 . S
C127 C129 1.500 . S
C128 C123 1.390 . S
C128 C127 1.361 . S
C128 H146 0.931 . S
C129 C127 1.500 . S
C129 C130 1.371 . S
C129 C131 1.365 . S
C130 C129 1.371 . S
C130 C140 1.386 . S
C130 H148 0.931 . S
C131 C129 1.365 . S
C131 C132 1.409 . S
C131 H149 0.929 . S
C132 C131 1.409 . S
C132 C133 1.380 . S
C132 H150 0.930 . S
C133 C132 1.380 . S
C133 C140 1.357 . S
C134 C125 1.511 . S
C134 C135 1.341 . S
C134 C136 1.371 . S
C135 C134 1.341 . S
C135 C139 1.394 . S
C135 H151 0.930 . S
C136 C134 1.371 . S
C136 C137 1.392 . S
C136 H152 0.931 . S
C137 C136 1.392 . S
C137 C138 1.331 . S
C137 H155 0.932 . S
C138 C137 1.331 . S
C138 C139 1.336 . S
C139 C135 1.394 . S
C139 C138 1.336 . S
C139 H154 0.929 . S
C140 C130 1.386 . S
C140 C133 1.357 . S
C140 H153 0.928 . S
H141 C117 0.931 . S
H142 C119 0.930 . S
H143 C121 0.929 . S
H144 C122 0.931 . S
H145 C124 0.930 . S
H146 C128 0.931 . S
H147 C126 0.931 . S
H148 C130 0.931 . S
H149 C131 0.929 . S
H150 C132 0.930 . S
H151 C135 0.930 . S
H152 C136 0.931 . S
H153 C140 0.928 . S
H154 C139 0.929 . S
H155 C137 0.932 . S
C156 C157 1.386 . S
C156 C158 1.397 . S
C156 H180 0.931 . S
C157 C156 1.386 . S
C157 C161 1.397 . S
C158 C156 1.397 . S
C158 C159 1.384 . S
C158 H181 0.930 . S
C159 C158 1.384 . S
C159 C160 1.377 . S
C159 C162 1.481 . S
C160 C159 1.377 . S
C160 C161 1.389 . S
C160 H182 0.929 . S
C161 C157 1.397 . S
C161 C160 1.389 . S
C161 H183 0.931 . S
C162 C159 1.481 . S
C162 C163 1.387 . S
C162 C167 1.390 . S
C163 C162 1.387 . S
C163 C164 1.401 . S
C163 H184 0.930 . S
C164 C163 1.401 . S
C164 C165 1.376 . S
C164 C173 1.511 . S
C165 C164 1.376 . S
C165 C166 1.392 . S
C165 H186 0.931 . S
C166 C165 1.392 . S
C166 C167 1.361 . S
C166 C168 1.500 . S
C167 C162 1.390 . S
C167 C166 1.361 . S
C167 H185 0.931 . S
C168 C166 1.500 . S
C168 C169 1.371 . S
C168 C170 1.365 . S
C169 C168 1.371 . S
C169 C179 1.386 . S
C169 H187 0.931 . S
C170 C168 1.365 . S
C170 C171 1.409 . S
C170 H188 0.929 . S
C171 C170 1.409 . S
C171 C172 1.380 . S
C171 H189 0.930 . S
C172 C171 1.380 . S
C172 C179 1.357 . S
C173 C164 1.511 . S
C173 C174 1.341 . S
C173 C175 1.371 . S
C174 C173 1.341 . S
C174 C178 1.394 . S
C174 H190 0.930 . S
C175 C173 1.371 . S
C175 C176 1.392 . S
C175 H191 0.931 . S
C176 C175 1.392 . S
C176 C177 1.331 . S
C176 H194 0.932 . S
C177 C176 1.331 . S
C177 C178 1.336 . S
C178 C174 1.394 . S
C178 C177 1.336 . S
C178 H193 0.929 . S
C179 C169 1.386 . S
C179 C172 1.357 . S
C179 H192 0.928 . S
H180 C156 0.931 . S
H181 C158 0.930 . S
H182 C160 0.929 . S
H183 C161 0.931 . S
H184 C163 0.930 . S
H185 C167 0.931 . S
H186 C165 0.931 . S
H187 C169 0.931 . S
H188 C170 0.929 . S
H189 C171 0.930 . S
H190 C174 0.930 . S
H191 C175 0.931 . S
H192 C179 0.928 . S
H193 C178 0.929 . S
H194 C176 0.932 . S
C195 C196 1.386 . S
C195 C197 1.397 . S
C195 H219 0.931 . S
C196 C195 1.386 . S
C196 C200 1.397 . S
C197 C195 1.397 . S
C197 C198 1.384 . S
C197 H220 0.930 . S
C198 C197 1.384 . S
C198 C199 1.377 . S
C198 C201 1.481 . S
C199 C198 1.377 . S
C199 C200 1.389 . S
C199 H221 0.929 . S
C200 C196 1.397 . S
C200 C199 1.389 . S
C200 H222 0.931 . S
C201 C198 1.481 . S
C201 C202 1.387 . S
C201 C206 1.390 . S
C202 C201 1.387 . S
C202 C203 1.401 . S
C202 H223 0.930 . S
C203 C202 1.401 . S
C203 C204 1.376 . S
C203 C212 1.511 . S
C204 C203 1.376 . S
C204 C205 1.392 . S
C204 H225 0.931 . S
C205 C204 1.392 . S
C205 C206 1.361 . S
C205 C207 1.500 . S
C206 C201 1.390 . S
C206 C205 1.361 . S
C206 H224 0.931 . S
C207 C205 1.500 . S
C207 C208 1.371 . S
C207 C209 1.365 . S
C208 C207 1.371 . S
C208 C218 1.386 . S
C208 H226 0.931 . S
C209 C207 1.365 . S
C209 C210 1.409 . S
C209 H227 0.929 . S
C210 C209 1.409 . S
C210 C211 1.380 . S
C210 H228 0.930 . S
C211 C210 1.380 . S
C211 C218 1.357 . S
C212 C203 1.511 . S
C212 C213 1.341 . S
C212 C214 1.371 . S
C213 C212 1.341 . S
C213 C217 1.394 . S
C213 H229 0.930 . S
C214 C212 1.371 . S
C214 C215 1.392 . S
C214 H230 0.931 . S
C215 C214 1.392 . S
C215 C216 1.331 . S
C215 H233 0.932 . S
C216 C215 1.331 . S
C216 C217 1.336 . S
C217 C213 1.394 . S
C217 C216 1.336 . S
C217 H232 0.929 . S
C218 C208 1.386 . S
C218 C211 1.357 . S
C218 H231 0.928 . S
H219 C195 0.931 . S
H220 C197 0.930 . S
H221 C199 0.929 . S
H222 C200 0.931 . S
H223 C202 0.930 . S
H224 C206 0.931 . S
H225 C204 0.931 . S
H226 C208 0.931 . S
H227 C209 0.929 . S
H228 C210 0.930 . S
H229 C213 0.930 . S
H230 C214 0.931 . S
H231 C218 0.928 . S
H232 C217 0.929 . S
H233 C215 0.932 . S
C234 C235 1.386 . S
C234 C236 1.397 . S
C234 H258 0.931 . S
C235 C234 1.386 . S
C235 C239 1.397 . S
C236 C234 1.397 . S
C236 C237 1.384 . S
C236 H259 0.930 . S
C237 C236 1.384 . S
C237 C238 1.377 . S
C237 C240 1.481 . S
C238 C237 1.377 . S
C238 C239 1.389 . S
C238 H260 0.929 . S
C239 C235 1.397 . S
C239 C238 1.389 . S
C239 H261 0.931 . S
C240 C237 1.481 . S
C240 C241 1.387 . S
C240 C245 1.390 . S
C241 C240 1.387 . S
C241 C242 1.401 . S
C241 H262 0.930 . S
C242 C241 1.401 . S
C242 C243 1.376 . S
C242 C251 1.511 . S
C243 C242 1.376 . S
C243 C244 1.392 . S
C243 H264 0.931 . S
C244 C243 1.392 . S
C244 C245 1.361 . S
C244 C246 1.500 . S
C245 C240 1.390 . S
C245 C244 1.361 . S
C245 H263 0.931 . S
C246 C244 1.500 . S
C246 C247 1.371 . S
C246 C248 1.365 . S
C247 C246 1.371 . S
C247 C257 1.386 . S
C247 H265 0.931 . S
C248 C246 1.365 . S
C248 C249 1.409 . S
C248 H266 0.929 . S
C249 C248 1.409 . S
C249 C250 1.380 . S
C249 H267 0.930 . S
C250 C249 1.380 . S
C250 C257 1.357 . S
C251 C242 1.511 . S
C251 C252 1.341 . S
C251 C253 1.371 . S
C252 C251 1.341 . S
C252 C256 1.394 . S
C252 H268 0.930 . S
C253 C251 1.371 . S
C253 C254 1.392 . S
C253 H269 0.931 . S
C254 C253 1.392 . S
C254 C255 1.331 . S
C254 H272 0.932 . S
C255 C254 1.331 . S
C255 C256 1.336 . S
C256 C252 1.394 . S
C256 C255 1.336 . S
C256 H271 0.929 . S
C257 C247 1.386 . S
C257 C250 1.357 . S
C257 H270 0.928 . S
H258 C234 0.931 . S
H259 C236 0.930 . S
H260 C238 0.929 . S
H261 C239 0.931 . S
H262 C241 0.930 . S
H263 C245 0.931 . S
H264 C243 0.931 . S
H265 C247 0.931 . S
H266 C248 0.929 . S
H267 C249 0.930 . S
H268 C252 0.930 . S
H269 C253 0.931 . S
H270 C257 0.928 . S
H271 C256 0.929 . S
H272 C254 0.932 . S
C273 C274 1.386 . S
C273 C275 1.397 . S
C273 H297 0.931 . S
C274 C273 1.386 . S
C274 C278 1.397 . S
C275 C273 1.397 . S
C275 C276 1.384 . S
C275 H298 0.930 . S
C276 C275 1.384 . S
C276 C277 1.377 . S
C276 C279 1.481 . S
C277 C276 1.377 . S
C277 C278 1.389 . S
C277 H299 0.929 . S
C278 C274 1.397 . S
C278 C277 1.389 . S
C278 H300 0.931 . S
C279 C276 1.481 . S
C279 C280 1.387 . S
C279 C284 1.390 . S
C280 C279 1.387 . S
C280 C281 1.401 . S
C280 H301 0.930 . S
C281 C280 1.401 . S
C281 C282 1.376 . S
C281 C290 1.511 . S
C282 C281 1.376 . S
C282 C283 1.392 . S
C282 H303 0.931 . S
C283 C282 1.392 . S
C283 C284 1.361 . S
C283 C285 1.500 . S
C284 C279 1.390 . S
C284 C283 1.361 . S
C284 H302 0.931 . S
C285 C283 1.500 . S
C285 C286 1.371 . S
C285 C287 1.365 . S
C286 C285 1.371 . S
C286 C296 1.386 . S
C286 H304 0.931 . S
C287 C285 1.365 . S
C287 C288 1.409 . S
C287 H305 0.929 . S
C288 C287 1.409 . S
C288 C289 1.380 . S
C288 H306 0.930 . S
C289 C288 1.380 . S
C289 C296 1.357 . S
C290 C281 1.511 . S
C290 C291 1.341 . S
C290 C292 1.371 . S
C291 C290 1.341 . S
C291 C295 1.394 . S
C291 H307 0.930 . S
C292 C290 1.371 . S
C292 C293 1.392 . S
C292 H308 0.931 . S
C293 C292 1.392 . S
C293 C294 1.331 . S
C293 H311 0.932 . S
C294 C293 1.331 . S
C294 C295 1.336 . S
C295 C291 1.394 . S
C295 C294 1.336 . S
C295 H310 0.929 . S
C296 C286 1.386 . S
C296 C289 1.357 . S
C296 H309 0.928 . S
H297 C273 0.931 . S
H298 C275 0.930 . S
H299 C277 0.929 . S
H300 C278 0.931 . S
H301 C280 0.930 . S
H302 C284 0.931 . S
H303 C282 0.931 . S
H304 C286 0.931 . S
H305 C287 0.929 . S
H306 C288 0.930 . S
H307 C291 0.930 . S
H308 C292 0.931 . S
H309 C296 0.928 . S
H310 C295 0.929 . S
H311 C293 0.932 . S
Dy312 O315 2.307 1_545 S
Dy312 O317 2.395 . S
Dy312 O318 2.379 . S
Dy312 O320 2.339 1_545 S
Dy312 O322 2.285 1_455 S
Dy312 O326 2.275 . S
Dy312 C334 2.738 . S
Dy313 O316 2.298 1_655 S
Dy313 O319 2.275 . S
Dy313 O321 2.307 1_565 S
Dy313 O323 2.395 . S
Dy313 O324 2.379 . S
Dy313 O327 2.339 1_565 S
Dy313 C343 2.738 . S
C314 O326 1.254 . S
C314 O327 1.257 1_455 S
O315 Dy312 2.307 1_565 S
O315 C325 1.266 . S
O316 Dy313 2.298 1_455 S
O316 C325 1.236 . S
O317 Dy312 2.395 . S
O317 C334 1.255 . S
O318 Dy312 2.379 . S
O318 C334 1.249 . S
O319 Dy313 2.275 . S
O319 C335 1.254 . S
O320 Dy312 2.339 1_565 S
O320 C335 1.257 1_455 S
O321 Dy313 2.307 1_545 S
O321 C336 1.266 . S
O322 Dy312 2.285 1_655 S
O322 C336 1.249 . S
O323 Dy313 2.395 . S
O323 C343 1.255 . S
O324 Dy313 2.379 . S
O324 C343 1.249 . S
C325 O315 1.266 . S
C325 O316 1.236 . S
O326 Dy312 2.275 . S
O326 C314 1.254 . S
O327 Dy313 2.339 1_545 S
O327 C314 1.257 1_655 S
C328 C331 1.344 . S
C328 C332 1.328 . S
C328 C334 1.516 . S
C329 C330 1.304 . S
C329 C333 1.323 . S
C330 C329 1.304 . S
C330 C331 1.371 . S
C330 H344 0.930 . S
C331 C328 1.344 . S
C331 C330 1.371 . S
C331 H345 0.931 . S
C332 C328 1.328 . S
C332 C333 1.433 . S
C332 H346 0.931 . S
C333 C329 1.323 . S
C333 C332 1.433 . S
C333 H347 0.933 . S
C334 Dy312 2.738 . S
C334 O317 1.255 . S
C334 O318 1.249 . S
C334 C328 1.516 . S
C335 O319 1.254 . S
C335 O320 1.257 1_655 S
C336 O321 1.266 . S
C336 O322 1.249 . S
C337 C340 1.344 . S
C337 C341 1.328 . S
C337 C343 1.516 . S
C338 C339 1.304 . S
C338 C342 1.323 . S
C339 C338 1.304 . S
C339 C340 1.371 . S
C339 H348 0.930 . S
C340 C337 1.344 . S
C340 C339 1.371 . S
C340 H349 0.931 . S
C341 C337 1.328 . S
C341 C342 1.433 . S
C341 H350 0.931 . S
C342 C338 1.323 . S
C342 C341 1.433 . S
C342 H351 0.933 . S
C343 Dy313 2.738 . S
C343 O323 1.255 . S
C343 O324 1.249 . S
C343 C337 1.516 . S
H344 C330 0.930 . S
H345 C331 0.931 . S
H346 C332 0.931 . S
H347 C333 0.933 . S
H348 C339 0.930 . S
H349 C340 0.931 . S
H350 C341 0.931 . S
H351 C342 0.933 . S
Dy352 O355 2.307 1_566 S
Dy352 O357 2.395 . S
Dy352 O358 2.379 . S
Dy352 O360 2.339 1_565 S
Dy352 O362 2.298 . S
Dy352 O366 2.275 1_556 S
Dy352 C374 2.738 . S
Dy353 O356 2.298 . S
Dy353 O359 2.275 1_554 S
Dy353 O361 2.307 1_544 S
Dy353 O363 2.395 . S
Dy353 O364 2.379 . S
Dy353 O367 2.339 1_545 S
Dy353 C383 2.738 . S
C354 O366 1.254 . S
C354 O367 1.257 . S
O355 Dy352 2.307 1_544 S
O355 C365 1.266 . S
O356 Dy353 2.298 . S
O356 C365 1.236 . S
O357 Dy352 2.395 . S
O357 C374 1.255 . S
O358 Dy352 2.379 . S
O358 C374 1.249 . S
O359 Dy353 2.275 1_556 S
O359 C375 1.254 . S
O360 Dy352 2.339 1_545 S
O360 C375 1.257 . S
O361 Dy353 2.307 1_566 S
O361 C376 1.266 . S
O362 Dy352 2.298 . S
O362 C376 1.236 . S
O363 Dy353 2.395 . S
O363 C383 1.255 . S
O364 Dy353 2.379 . S
O364 C383 1.249 . S
C365 O355 1.266 . S
C365 O356 1.236 . S
O366 Dy352 2.275 1_554 S
O366 C354 1.254 . S
O367 Dy353 2.339 1_565 S
O367 C354 1.257 . S
C368 C371 1.344 . S
C368 C372 1.328 . S
C368 C374 1.516 . S
C369 C370 1.304 . S
C369 C373 1.323 . S
C370 C369 1.304 . S
C370 C371 1.371 . S
C370 H384 0.930 . S
C371 C368 1.344 . S
C371 C370 1.371 . S
C371 H385 0.931 . S
C372 C368 1.328 . S
C372 C373 1.433 . S
C372 H386 0.931 . S
C373 C369 1.323 . S
C373 C372 1.433 . S
C373 H387 0.933 . S
C374 Dy352 2.738 . S
C374 O357 1.255 . S
C374 O358 1.249 . S
C374 C368 1.516 . S
C375 O359 1.254 . S
C375 O360 1.257 . S
C376 O361 1.266 . S
C376 O362 1.236 . S
C377 C380 1.344 . S
C377 C381 1.328 . S
C377 C383 1.516 . S
C378 C379 1.304 . S
C378 C382 1.323 . S
C379 C378 1.304 . S
C379 C380 1.371 . S
C379 H388 0.930 . S
C380 C377 1.344 . S
C380 C379 1.371 . S
C380 H389 0.931 . S
C381 C377 1.328 . S
C381 C382 1.433 . S
C381 H390 0.931 . S
C382 C378 1.323 . S
C382 C381 1.433 . S
C382 H391 0.933 . S
C383 Dy353 2.738 . S
C383 O363 1.255 . S
C383 O364 1.249 . S
C383 C377 1.516 . S
H384 C370 0.930 . S
H385 C371 0.931 . S
H386 C372 0.931 . S
H387 C373 0.933 . S
H388 C379 0.930 . S
H389 C380 0.931 . S
H390 C381 0.931 . S
H391 C382 0.933 . S
Dy392 O395 2.307 . S
Dy392 O397 2.395 . S
Dy392 O398 2.379 . S
Dy392 O400 2.339 . S
Dy392 O402 2.298 . S
Dy392 O406 2.275 . S
Dy392 C414 2.738 . S
Dy393 O396 2.298 . S
Dy393 O399 2.275 . S
Dy393 O401 2.307 . S
Dy393 O403 2.395 . S
Dy393 O404 2.379 . S
Dy393 O407 2.339 . S
Dy393 C423 2.738 . S
C394 O406 1.254 . S
C394 O407 1.257 . S
O395 Dy392 2.307 . S
O395 C405 1.266 . S
O396 Dy393 2.298 . S
O396 C405 1.236 . S
O397 Dy392 2.395 . S
O397 C414 1.255 . S
O398 Dy392 2.379 . S
O398 C414 1.249 . S
O399 Dy393 2.275 . S
O399 C415 1.254 . S
O400 Dy392 2.339 . S
O400 C415 1.257 . S
O401 Dy393 2.307 . S
O401 C416 1.266 . S
O402 Dy392 2.298 . S
O402 C416 1.236 . S
O403 Dy393 2.395 . S
O403 C423 1.255 . S
O404 Dy393 2.379 . S
O404 C423 1.249 . S
C405 O395 1.266 . S
C405 O396 1.236 . S
O406 Dy392 2.275 . S
O406 C394 1.254 . S
O407 Dy393 2.339 . S
O407 C394 1.257 . S
C408 C411 1.344 . S
C408 C412 1.328 . S
C408 C414 1.516 . S
C409 C410 1.304 . S
C409 C413 1.323 . S
C410 C409 1.304 . S
C410 C411 1.371 . S
C410 H424 0.930 . S
C411 C408 1.344 . S
C411 C410 1.371 . S
C411 H425 0.931 . S
C412 C408 1.328 . S
C412 C413 1.433 . S
C412 H426 0.931 . S
C413 C409 1.323 . S
C413 C412 1.433 . S
C413 H427 0.933 . S
C414 Dy392 2.738 . S
C414 O397 1.255 . S
C414 O398 1.249 . S
C414 C408 1.516 . S
C415 O399 1.254 . S
C415 O400 1.257 . S
C416 O401 1.266 . S
C416 O402 1.236 . S
C417 C420 1.344 . S
C417 C421 1.328 . S
C417 C423 1.516 . S
C418 C419 1.304 . S
C418 C422 1.323 . S
C419 C418 1.304 . S
C419 C420 1.371 . S
C419 H428 0.930 . S
C420 C417 1.344 . S
C420 C419 1.371 . S
C420 H429 0.931 . S
C421 C417 1.328 . S
C421 C422 1.433 . S
C421 H430 0.931 . S
C422 C418 1.323 . S
C422 C421 1.433 . S
C422 H431 0.933 . S
C423 Dy393 2.738 . S
C423 O403 1.255 . S
C423 O404 1.249 . S
C423 C417 1.516 . S
H424 C410 0.930 . S
H425 C411 0.931 . S
H426 C412 0.931 . S
H427 C413 0.933 . S
H428 C419 0.930 . S
H429 C420 0.931 . S
H430 C421 0.931 . S
H431 C422 0.933 . S
Dy432 O435 2.291 1_656 S
Dy432 O437 2.395 . S
Dy432 O438 2.379 . S
Dy432 O440 2.339 1_655 S
Dy432 O442 2.298 . S
Dy432 O446 2.275 1_556 S
Dy432 C454 2.738 . S
Dy433 O436 2.298 . S
Dy433 O439 2.275 1_554 S
Dy433 O441 2.323 1_455 S
Dy433 O443 2.395 . S
Dy433 O444 2.379 . S
Dy433 O447 2.339 1_455 S
Dy433 C463 2.738 . S
C434 O446 1.254 . S
C434 O447 1.257 . S
O435 Dy432 2.291 1_454 S
O435 C445 1.292 . S
O436 Dy433 2.298 . S
O436 C445 1.236 . S
O437 Dy432 2.395 . S
O437 C454 1.255 . S
O438 Dy432 2.379 . S
O438 C454 1.249 . S
O439 Dy433 2.275 1_556 S
O439 C455 1.254 . S
O440 Dy432 2.339 1_455 S
O440 C455 1.257 . S
O441 Dy433 2.323 1_655 S
O441 C456 1.242 1_554 S
O442 Dy432 2.298 . S
O442 C456 1.236 . S
O443 Dy433 2.395 . S
O443 C463 1.255 . S
O444 Dy433 2.379 . S
O444 C463 1.249 . S
C445 O435 1.292 . S
C445 O436 1.236 . S
O446 Dy432 2.275 1_554 S
O446 C434 1.254 . S
O447 Dy433 2.339 1_655 S
O447 C434 1.257 . S
C448 C451 1.344 . S
C448 C452 1.328 . S
C448 C454 1.516 . S
C449 C450 1.304 . S
C449 C453 1.323 . S
C450 C449 1.304 . S
C450 C451 1.371 . S
C450 H464 0.930 . S
C451 C448 1.344 . S
C451 C450 1.371 . S
C451 H465 0.931 . S
C452 C448 1.328 . S
C452 C453 1.433 . S
C452 H466 0.931 . S
C453 C449 1.323 . S
C453 C452 1.433 . S
C453 H467 0.933 . S
C454 Dy432 2.738 . S
C454 O437 1.255 . S
C454 O438 1.249 . S
C454 C448 1.516 . S
C455 O439 1.254 . S
C455 O440 1.257 . S
C456 O441 1.242 1_556 S
C456 O442 1.236 . S
C457 C460 1.344 . S
C457 C461 1.328 . S
C457 C463 1.516 . S
C458 C459 1.304 . S
C458 C462 1.323 . S
C459 C458 1.304 . S
C459 C460 1.371 . S
C459 H468 0.930 . S
C460 C457 1.344 . S
C460 C459 1.371 . S
C460 H469 0.931 . S
C461 C457 1.328 . S
C461 C462 1.433 . S
C461 H470 0.931 . S
C462 C458 1.323 . S
C462 C461 1.433 . S
C462 H471 0.933 . S
C463 Dy433 2.738 . S
C463 O443 1.255 . S
C463 O444 1.249 . S
C463 C457 1.516 . S
H464 C450 0.930 . S
H465 C451 0.931 . S
H466 C452 0.931 . S
H467 C453 0.933 . S
H468 C459 0.930 . S
H469 C460 0.931 . S
H470 C461 0.931 . S
H471 C462 0.933 . S
H472 C478 0.930 . S
H473 C481 0.930 . S
H474 C482 0.930 . S
H475 C483 0.930 . S
H476 C486 0.930 . S
H477 C487 0.930 . S
C478 H472 0.930 . S
C478 C479 1.355 . S
C478 C480 1.415 . S
C479 C478 1.355 . S
C479 C481 1.419 . S
C480 C478 1.415 . S
C480 C485 1.425 . S
C480 C487 1.409 . S
C481 H473 0.930 . S
C481 C479 1.419 . S
C481 C482 1.362 . S
C482 H474 0.930 . S
C482 C481 1.362 . S
C482 C485 1.409 . S
C483 H475 0.930 . S
C483 C484 1.355 . S
C483 C485 1.415 . S
C484 C483 1.355 . S
C484 C486 1.419 . S
C485 C480 1.425 . S
C485 C482 1.409 . S
C485 C483 1.415 . S
C486 H476 0.930 . S
C486 C484 1.419 . S
C486 C487 1.362 . S
C487 H477 0.930 . S
C487 C480 1.409 . S
C487 C486 1.362 . S
H488 C494 0.930 . S
H489 C497 0.930 . S
H490 C498 0.930 . S
H491 C499 0.930 . S
H492 C502 0.930 . S
H493 C503 0.930 . S
C494 H488 0.930 . S
C494 C495 1.355 . S
C494 C496 1.415 . S
C495 C494 1.355 . S
C495 C497 1.419 . S
C496 C494 1.415 . S
C496 C501 1.425 . S
C496 C503 1.409 . S
C497 H489 0.930 . S
C497 C495 1.419 . S
C497 C498 1.362 . S
C498 H490 0.930 . S
C498 C497 1.362 . S
C498 C501 1.409 . S
C499 H491 0.930 . S
C499 C500 1.355 . S
C499 C501 1.415 . S
C500 C499 1.355 . S
C500 C502 1.419 . S
C501 C496 1.425 . S
C501 C498 1.409 . S
C501 C499 1.415 . S
C502 H492 0.930 . S
C502 C500 1.419 . S
C502 C503 1.362 . S
C503 H493 0.930 . S
C503 C496 1.409 . S
C503 C502 1.362 . S
H504 C510 0.930 . S
H505 C513 0.930 . S
H506 C514 0.930 . S
H507 C515 0.930 . S
H508 C518 0.930 . S
H509 C519 0.930 . S
C510 H504 0.930 . S
C510 C511 1.355 . S
C510 C512 1.415 . S
C511 C510 1.355 . S
C511 C513 1.419 . S
C512 C510 1.415 . S
C512 C517 1.425 . S
C512 C519 1.409 . S
C513 H505 0.930 . S
C513 C511 1.419 . S
C513 C514 1.362 . S
C514 H506 0.930 . S
C514 C513 1.362 . S
C514 C517 1.409 . S
C515 H507 0.930 . S
C515 C516 1.355 . S
C515 C517 1.415 . S
C516 C515 1.355 . S
C516 C518 1.419 . S
C517 C512 1.425 . S
C517 C514 1.409 . S
C517 C515 1.415 . S
C518 H508 0.930 . S
C518 C516 1.419 . S
C518 C519 1.362 . S
C519 H509 0.930 . S
C519 C512 1.409 . S
C519 C518 1.362 . S
H520 C526 0.930 . S
H521 C529 0.930 . S
H522 C530 0.930 . S
H523 C531 0.930 . S
H524 C534 0.930 . S
H525 C535 0.930 . S
C526 H520 0.930 . S
C526 C527 1.355 . S
C526 C528 1.415 . S
C527 C526 1.355 . S
C527 C529 1.419 . S
C528 C526 1.415 . S
C528 C533 1.425 . S
C528 C535 1.409 . S
C529 H521 0.930 . S
C529 C527 1.419 . S
C529 C530 1.362 . S
C530 H522 0.930 . S
C530 C529 1.362 . S
C530 C533 1.409 . S
C531 H523 0.930 . S
C531 C532 1.355 . S
C531 C533 1.415 . S
C532 C531 1.355 . S
C532 C534 1.419 . S
C533 C528 1.425 . S
C533 C530 1.409 . S
C533 C531 1.415 . S
C534 H524 0.930 . S
C534 C532 1.419 . S
C534 C535 1.362 . S
C535 H525 0.930 . S
C535 C528 1.409 . S
C535 C534 1.362 . S
H536 C542 0.930 . S
H537 C545 0.930 . S
H538 C546 0.930 . S
H539 C547 0.930 . S
H540 C550 0.930 . S
H541 C551 0.930 . S
C542 H536 0.930 . S
C542 C543 1.355 . S
C542 C544 1.415 . S
C543 C542 1.355 . S
C543 C545 1.419 . S
C544 C542 1.415 . S
C544 C549 1.425 . S
C544 C551 1.409 . S
C545 H537 0.930 . S
C545 C543 1.419 . S
C545 C546 1.362 . S
C546 H538 0.930 . S
C546 C545 1.362 . S
C546 C549 1.409 . S
C547 H539 0.930 . S
C547 C548 1.355 . S
C547 C549 1.415 . S
C548 C547 1.355 . S
C548 C550 1.419 . S
C549 C544 1.425 . S
C549 C546 1.409 . S
C549 C547 1.415 . S
C550 H540 0.930 . S
C550 C548 1.419 . S
C550 C551 1.362 . S
C551 H541 0.930 . S
C551 C544 1.409 . S
C551 C550 1.362 . S
H552 C558 0.930 . S
H553 C561 0.930 . S
H554 C562 0.930 . S
H555 C563 0.930 . S
H556 C566 0.930 . S
H557 C567 0.930 1_655 S
C558 H552 0.930 . S
C558 C559 1.355 . S
C558 C560 1.415 . S
C559 C558 1.355 . S
C559 C561 1.419 . S
C560 C558 1.415 . S
C560 C565 1.425 . S
C560 C567 1.409 . S
C561 H553 0.930 . S
C561 C559 1.419 . S
C561 C562 1.362 . S
C562 H554 0.930 . S
C562 C561 1.362 . S
C562 C565 1.409 . S
C563 H555 0.930 . S
C563 C564 1.355 . S
C563 C565 1.415 . S
C564 C563 1.355 . S
C564 C566 1.419 . S
C565 C560 1.425 . S
C565 C562 1.409 . S
C565 C563 1.415 . S
C566 H556 0.930 . S
C566 C564 1.419 . S
C566 C567 1.362 . S
C567 H557 0.930 1_455 S
C567 C560 1.409 . S
C567 C566 1.362 . S
H568 C574 0.930 . S
H569 C577 0.930 . S
H570 C578 0.930 . S
H571 C579 0.930 . S
H572 C582 0.930 . S
H573 C583 0.930 . S
C574 H568 0.930 . S
C574 C575 1.355 . S
C574 C576 1.415 . S
C575 C574 1.355 . S
C575 C577 1.419 . S
C576 C574 1.415 . S
C576 C581 1.425 . S
C576 C583 1.409 . S
C577 H569 0.930 . S
C577 C575 1.419 . S
C577 C578 1.362 . S
C578 H570 0.930 . S
C578 C577 1.362 . S
C578 C581 1.409 . S
C579 H571 0.930 . S
C579 C580 1.355 . S
C579 C581 1.415 . S
C580 C579 1.355 . S
C580 C582 1.419 . S
C581 C576 1.425 . S
C581 C578 1.409 . S
C581 C579 1.415 . S
C582 H572 0.930 . S
C582 C580 1.419 . S
C582 C583 1.362 . S
C583 H573 0.930 . S
C583 C576 1.409 . S
C583 C582 1.362 . S
H584 C590 0.930 . S
H585 C593 0.930 . S
H586 C594 0.930 . S
H587 C595 0.930 . S
H588 C598 0.930 . S
H589 C599 0.930 . S
C590 H584 0.930 . S
C590 C591 1.355 . S
C590 C592 1.415 . S
C591 C590 1.355 . S
C591 C593 1.419 . S
C592 C590 1.415 . S
C592 C597 1.425 . S
C592 C599 1.409 . S
C593 H585 0.930 . S
C593 C591 1.419 . S
C593 C594 1.362 . S
C594 H586 0.930 . S
C594 C593 1.362 . S
C594 C597 1.409 . S
C595 H587 0.930 . S
C595 C596 1.355 . S
C595 C597 1.415 . S
C596 C595 1.355 . S
C596 C598 1.419 . S
C597 C592 1.425 . S
C597 C594 1.409 . S
C597 C595 1.415 . S
C598 H588 0.930 . S
C598 C596 1.419 . S
C598 C599 1.362 . S
C599 H589 0.930 . S
C599 C592 1.409 . S
C599 C598 1.362 . S
H600 C606 0.930 . S
H601 C609 0.930 . S
H602 C610 0.930 . S
H603 C611 0.930 . S
H604 C614 0.930 . S
H605 C615 0.930 . S
C606 H600 0.930 . S
C606 C607 1.355 . S
C606 C608 1.415 . S
C607 C606 1.355 . S
C607 C609 1.419 . S
C608 C606 1.415 . S
C608 C613 1.425 . S
C608 C615 1.409 . S
C609 H601 0.930 . S
C609 C607 1.419 . S
C609 C610 1.362 . S
C610 H602 0.930 . S
C610 C609 1.362 . S
C610 C613 1.409 . S
C611 H603 0.930 . S
C611 C612 1.355 . S
C611 C613 1.415 . S
C612 C611 1.355 . S
C612 C614 1.419 . S
C613 C608 1.425 . S
C613 C610 1.409 . S
C613 C611 1.415 . S
C614 H604 0.930 . S
C614 C612 1.419 . S
C614 C615 1.362 . S
C615 H605 0.930 . S
C615 C608 1.409 . S
C615 C614 1.362 . S
H616 C622 0.930 . S
H617 C625 0.930 . S
H618 C626 0.930 . S
H619 C627 0.930 . S
H620 C630 0.930 . S
H621 C631 0.930 . S
C622 H616 0.930 . S
C622 C623 1.355 . S
C622 C624 1.415 . S
C623 C622 1.355 . S
C623 C625 1.419 . S
C624 C622 1.415 . S
C624 C629 1.425 . S
C624 C631 1.409 . S
C625 H617 0.930 . S
C625 C623 1.419 . S
C625 C626 1.362 . S
C626 H618 0.930 . S
C626 C625 1.362 . S
C626 C629 1.409 . S
C627 H619 0.930 . S
C627 C628 1.355 . S
C627 C629 1.415 . S
C628 C627 1.355 . S
C628 C630 1.419 . S
C629 C624 1.425 . S
C629 C626 1.409 . S
C629 C627 1.415 . S
C630 H620 0.930 . S
C630 C628 1.419 . S
C630 C631 1.362 . S
C631 H621 0.930 . S
C631 C624 1.409 . S
C631 C630 1.362 . S
H632 C638 0.930 . S
H633 C641 0.930 . S
H634 C642 0.930 . S
H635 C643 0.930 . S
H636 C646 0.930 . S
H637 C647 0.930 . S
C638 H632 0.930 . S
C638 C639 1.355 . S
C638 C640 1.415 . S
C639 C638 1.355 . S
C639 C641 1.419 . S
C640 C638 1.415 . S
C640 C645 1.425 . S
C640 C647 1.409 . S
C641 H633 0.930 . S
C641 C639 1.419 . S
C641 C642 1.362 . S
C642 H634 0.930 . S
C642 C641 1.362 . S
C642 C645 1.409 . S
C643 H635 0.930 . S
C643 C644 1.355 . S
C643 C645 1.415 . S
C644 C643 1.355 . S
C644 C646 1.419 . S
C645 C640 1.425 . S
C645 C642 1.409 . S
C645 C643 1.415 . S
C646 H636 0.930 . S
C646 C644 1.419 . S
C646 C647 1.362 . S
C647 H637 0.930 . S
C647 C640 1.409 . S
C647 C646 1.362 . S
H648 C654 0.930 . S
H649 C657 0.930 . S
H650 C658 0.930 . S
H651 C659 0.930 . S
H652 C662 0.930 . S
H653 C663 0.930 . S
C654 H648 0.930 . S
C654 C655 1.355 . S
C654 C656 1.415 . S
C655 C654 1.355 . S
C655 C657 1.419 . S
C656 C654 1.415 . S
C656 C661 1.425 . S
C656 C663 1.409 . S
C657 H649 0.930 . S
C657 C655 1.419 . S
C657 C658 1.362 . S
C658 H650 0.930 . S
C658 C657 1.362 . S
C658 C661 1.409 . S
C659 H651 0.930 . S
C659 C660 1.355 . S
C659 C661 1.415 . S
C660 C659 1.355 . S
C660 C662 1.419 . S
C661 C656 1.425 . S
C661 C658 1.409 . S
C661 C659 1.415 . S
C662 H652 0.930 . S
C662 C660 1.419 . S
C662 C663 1.362 . S
C663 H653 0.930 . S
C663 C656 1.409 . S
C663 C662 1.362 . S
H664 C670 0.930 . S
H665 C673 0.930 . S
H666 C674 0.930 . S
H667 C675 0.930 . S
H668 C678 0.930 . S
H669 C679 0.930 . S
C670 H664 0.930 . S
C670 C671 1.355 . S
C670 C672 1.415 . S
C671 C670 1.355 . S
C671 C673 1.419 . S
C672 C670 1.415 . S
C672 C677 1.425 . S
C672 C679 1.409 . S
C673 H665 0.930 . S
C673 C671 1.419 . S
C673 C674 1.362 . S
C674 H666 0.930 . S
C674 C673 1.362 . S
C674 C677 1.409 . S
C675 H667 0.930 . S
C675 C676 1.355 . S
C675 C677 1.415 . S
C676 C675 1.355 . S
C676 C678 1.419 . S
C677 C672 1.425 . S
C677 C674 1.409 . S
C677 C675 1.415 . S
C678 H668 0.930 . S
C678 C676 1.419 . S
C678 C679 1.362 . S
C679 H669 0.930 . S
C679 C672 1.409 . S
C679 C678 1.362 . S
H680 C686 0.930 . S
H681 C689 0.930 . S
H682 C690 0.930 . S
H683 C691 0.930 . S
H684 C694 0.930 . S
H685 C695 0.930 . S
C686 H680 0.930 . S
C686 C687 1.355 . S
C686 C688 1.415 . S
C687 C686 1.355 . S
C687 C689 1.419 . S
C688 C686 1.415 . S
C688 C693 1.425 . S
C688 C695 1.409 . S
C689 H681 0.930 . S
C689 C687 1.419 . S
C689 C690 1.362 . S
C690 H682 0.930 . S
C690 C689 1.362 . S
C690 C693 1.409 . S
C691 H683 0.930 . S
C691 C692 1.355 . S
C691 C693 1.415 . S
C692 C691 1.355 . S
C692 C694 1.419 . S
C693 C688 1.425 . S
C693 C690 1.409 . S
C693 C691 1.415 . S
C694 H684 0.930 . S
C694 C692 1.419 . S
C694 C695 1.362 . S
C695 H685 0.930 . S
C695 C688 1.409 . S
C695 C694 1.362 . S
H696 C702 0.930 . S
H697 C705 0.930 . S
H698 C706 0.930 . S
H699 C707 0.930 . S
H700 C710 0.930 . S
H701 C711 0.930 . S
C702 H696 0.930 . S
C702 C703 1.355 . S
C702 C704 1.415 . S
C703 C702 1.355 . S
C703 C705 1.419 . S
C704 C702 1.415 . S
C704 C709 1.425 . S
C704 C711 1.409 . S
C705 H697 0.930 . S
C705 C703 1.419 . S
C705 C706 1.362 . S
C706 H698 0.930 . S
C706 C705 1.362 . S
C706 C709 1.409 . S
C707 H699 0.930 . S
C707 C708 1.355 . S
C707 C709 1.415 . S
C708 C707 1.355 . S
C708 C710 1.419 . S
C709 C704 1.425 . S
C709 C706 1.409 . S
C709 C707 1.415 . S
C710 H700 0.930 . S
C710 C708 1.419 . S
C710 C711 1.362 . S
C711 H701 0.930 . S
C711 C704 1.409 . S
C711 C710 1.362 . S
H712 C718 0.930 . S
H713 C721 0.930 . S
H714 C722 0.930 . S
H715 C723 0.930 . S
H716 C726 0.930 . S
H717 C727 0.930 . S
C718 H712 0.930 . S
C718 C719 1.355 . S
C718 C720 1.415 . S
C719 C718 1.355 . S
C719 C721 1.419 . S
C720 C718 1.415 . S
C720 C725 1.425 . S
C720 C727 1.409 . S
C721 H713 0.930 . S
C721 C719 1.419 . S
C721 C722 1.362 . S
C722 H714 0.930 . S
C722 C721 1.362 . S
C722 C725 1.409 . S
C723 H715 0.930 . S
C723 C724 1.355 . S
C723 C725 1.415 . S
C724 C723 1.355 . S
C724 C726 1.419 . S
C725 C720 1.425 . S
C725 C722 1.409 . S
C725 C723 1.415 . S
C726 H716 0.930 . S
C726 C724 1.419 . S
C726 C727 1.362 . S
C727 H717 0.930 . S
C727 C720 1.409 . S
C727 C726 1.362 . S
H728 C734 0.930 . S
H729 C737 0.930 . S
H730 C738 0.930 . S
H731 C739 0.930 . S
H732 C742 0.930 . S
H733 C743 0.930 . S
C734 H728 0.930 . S
C734 C735 1.355 . S
C734 C736 1.415 . S
C735 C734 1.355 . S
C735 C737 1.419 . S
C736 C734 1.415 . S
C736 C741 1.425 . S
C736 C743 1.409 . S
C737 H729 0.930 . S
C737 C735 1.419 . S
C737 C738 1.362 . S
C738 H730 0.930 . S
C738 C737 1.362 . S
C738 C741 1.409 . S
C739 H731 0.930 . S
C739 C740 1.355 . S
C739 C741 1.415 . S
C740 C739 1.355 . S
C740 C742 1.419 . S
C741 C736 1.425 . S
C741 C738 1.409 . S
C741 C739 1.415 . S
C742 H732 0.930 . S
C742 C740 1.419 . S
C742 C743 1.362 . S
C743 H733 0.930 . S
C743 C736 1.409 . S
C743 C742 1.362 . S
H744 C750 0.930 . S
H745 C753 0.930 . S
H746 C754 0.930 . S
H747 C755 0.930 . S
H748 C758 0.960 . S
H749 C759 0.930 . S
C750 H744 0.930 . S
C750 C751 1.355 . S
C750 C752 1.415 . S
C751 C750 1.355 . S
C751 C753 1.419 . S
C752 C750 1.415 . S
C752 C757 1.425 . S
C752 C759 1.409 1_655 S
C753 H745 0.930 . S
C753 C751 1.419 . S
C753 C754 1.362 . S
C754 H746 0.930 . S
C754 C753 1.362 . S
C754 C757 1.409 . S
C755 H747 0.930 . S
C755 C756 1.355 . S
C755 C757 1.415 . S
C756 C755 1.355 . S
C756 C758 1.392 1_655 S
C757 C752 1.425 . S
C757 C754 1.409 . S
C757 C755 1.415 . S
C758 H748 0.960 . S
C758 C756 1.392 1_455 S
C758 C759 1.360 . S
C759 H749 0.930 . S
C759 C752 1.409 1_455 S
C759 C758 1.360 . S
H760 C766 0.930 . S
H761 C769 0.930 . S
H762 C770 0.930 . S
H763 C771 0.930 . S
H764 C774 0.930 . S
H765 C775 0.930 . S
C766 H760 0.930 . S
C766 C767 1.355 . S
C766 C768 1.415 . S
C767 C766 1.355 . S
C767 C769 1.419 . S
C768 C766 1.415 . S
C768 C773 1.425 . S
C768 C775 1.409 . S
C769 H761 0.930 . S
C769 C767 1.419 . S
C769 C770 1.362 . S
C770 H762 0.930 . S
C770 C769 1.362 . S
C770 C773 1.409 . S
C771 H763 0.930 . S
C771 C772 1.355 . S
C771 C773 1.415 . S
C772 C771 1.355 . S
C772 C774 1.419 . S
C773 C768 1.425 . S
C773 C770 1.409 . S
C773 C771 1.415 . S
C774 H764 0.930 . S
C774 C772 1.419 . S
C774 C775 1.362 . S
C775 H765 0.930 . S
C775 C768 1.409 . S
C775 C774 1.362 . S
H776 C782 0.930 . S
H777 C785 0.930 . S
H778 C786 0.930 . S
H779 C787 0.930 . S
H780 C790 0.930 . S
H781 C791 0.930 . S
C782 H776 0.930 . S
C782 C783 1.355 . S
C782 C784 1.415 . S
C783 C782 1.355 . S
C783 C785 1.419 . S
C784 C782 1.415 . S
C784 C789 1.425 . S
C784 C791 1.409 . S
C785 H777 0.930 . S
C785 C783 1.419 . S
C785 C786 1.362 . S
C786 H778 0.930 . S
C786 C785 1.362 . S
C786 C789 1.409 . S
C787 H779 0.930 . S
C787 C788 1.355 . S
C787 C789 1.415 . S
C788 C787 1.355 . S
C788 C790 1.419 . S
C789 C784 1.425 . S
C789 C786 1.409 . S
C789 C787 1.415 . S
C790 H780 0.930 . S
C790 C788 1.419 . S
C790 C791 1.362 . S
C791 H781 0.930 . S
C791 C784 1.409 . S
C791 C790 1.362 . S
H792 C798 0.930 . S
H793 C801 0.930 . S
H794 C802 0.930 . S
H795 C803 0.930 . S
H796 C806 0.930 . S
H797 C807 0.930 . S
C798 H792 0.930 . S
C798 C799 1.355 . S
C798 C800 1.415 . S
C799 C798 1.355 . S
C799 C801 1.419 . S
C800 C798 1.415 . S
C800 C805 1.425 . S
C800 C807 1.409 . S
C801 H793 0.930 . S
C801 C799 1.419 . S
C801 C802 1.362 . S
C802 H794 0.930 . S
C802 C801 1.362 . S
C802 C805 1.409 . S
C803 H795 0.930 . S
C803 C804 1.355 . S
C803 C805 1.415 . S
C804 C803 1.355 . S
C804 C806 1.419 . S
C805 C800 1.425 . S
C805 C802 1.409 . S
C805 C803 1.415 . S
C806 H796 0.930 . S
C806 C804 1.419 . S
C806 C807 1.362 . S
C807 H797 0.930 . S
C807 C800 1.409 . S
C807 C806 1.362 . S
H808 C814 0.930 . S
H809 C817 0.930 . S
H810 C818 0.930 . S
H811 C819 0.930 . S
H812 C822 0.930 . S
H813 C823 0.930 . S
C814 H808 0.930 . S
C814 C815 1.355 . S
C814 C816 1.415 . S
C815 C814 1.355 . S
C815 C817 1.419 . S
C816 C814 1.415 . S
C816 C821 1.425 . S
C816 C823 1.409 . S
C817 H809 0.930 . S
C817 C815 1.419 . S
C817 C818 1.362 . S
C818 H810 0.930 . S
C818 C817 1.362 . S
C818 C821 1.409 . S
C819 H811 0.930 . S
C819 C820 1.355 . S
C819 C821 1.415 . S
C820 C819 1.355 . S
C820 C822 1.419 . S
C821 C816 1.425 . S
C821 C818 1.409 . S
C821 C819 1.415 . S
C822 H812 0.930 . S
C822 C820 1.419 . S
C822 C823 1.362 . S
C823 H813 0.930 . S
C823 C816 1.409 . S
C823 C822 1.362 . S
H824 C830 0.930 . S
H825 C833 0.930 . S
H826 C834 0.930 . S
H827 C835 0.930 . S
H828 C838 0.930 . S
H829 C839 0.930 . S
C830 H824 0.930 . S
C830 C831 1.355 . S
C830 C832 1.415 . S
C831 C830 1.355 . S
C831 C833 1.419 . S
C832 C830 1.415 . S
C832 C837 1.425 . S
C832 C839 1.409 . S
C833 H825 0.930 . S
C833 C831 1.419 . S
C833 C834 1.362 . S
C834 H826 0.930 . S
C834 C833 1.362 . S
C834 C837 1.409 . S
C835 H827 0.930 . S
C835 C836 1.355 . S
C835 C837 1.415 . S
C836 C835 1.355 . S
C836 C838 1.419 . S
C837 C832 1.425 . S
C837 C834 1.409 . S
C837 C835 1.415 . S
C838 H828 0.930 . S
C838 C836 1.419 . S
C838 C839 1.362 . S
C839 H829 0.930 . S
C839 C832 1.409 . S
C839 C838 1.362 . S
H840 C846 0.930 . S
H841 C849 0.930 . S
H842 C850 0.930 . S
H843 C851 0.930 . S
H844 C854 0.930 . S
H845 C855 0.930 . S
C846 H840 0.930 . S
C846 C847 1.355 . S
C846 C848 1.415 . S
C847 C846 1.355 . S
C847 C849 1.419 . S
C848 C846 1.415 . S
C848 C853 1.425 . S
C848 C855 1.409 . S
C849 H841 0.930 . S
C849 C847 1.419 . S
C849 C850 1.362 . S
C850 H842 0.930 . S
C850 C849 1.362 . S
C850 C853 1.409 . S
C851 H843 0.930 . S
C851 C852 1.355 . S
C851 C853 1.415 . S
C852 C851 1.355 . S
C852 C854 1.419 . S
C853 C848 1.425 . S
C853 C850 1.409 . S
C853 C851 1.415 . S
C854 H844 0.930 . S
C854 C852 1.419 . S
C854 C855 1.362 . S
C855 H845 0.930 . S
C855 C848 1.409 . S
C855 C854 1.362 . S
C479 C1 1.295 . S
C484 C329 1.328 . S
C495 C40 1.301 . S
C500 C369 1.324 . S
C516 C394 2.415 . S
C511 C99 2.461 . S
C527 C118 2.451 . S
C532 C434 2.408 . S
C548 C365 1.874 . S
C543 C16 1.791 . S
C564 C325 1.860 . S
C559 C60 1.747 . S
C580 C456 1.744 . S
C575 C79 1.756 . S
C596 C416 1.719 . S
C591 C138 1.726 . S
C607 C21 1.466 . S
C612 C458 1.517 . S
C628 C375 2.149 . S
C623 C94 2.206 . S
C639 C133 2.198 . S
C644 C335 2.165 . S
C655 C55 1.480 . S
C660 C418 1.522 . S
C676 C338 1.309 . S
C671 C157 1.279 . S
C687 C196 1.229 . S
C692 C378 1.278 . S
C703 C255 2.458 . S
C708 C415 2.400 . S
C719 C289 2.440 . S
C724 C455 2.384 . S
C735 C172 1.729 . S
C740 C376 1.855 . S
C756 C336 1.860 . S
C751 C216 1.717 . S
C772 C445 1.702 . S
C767 C235 1.750 . S
C788 C405 1.662 . S
C783 C294 1.709 . S
C799 C177 1.408 . S
C804 C449 1.448 . S
C820 C354 2.151 . S
C815 C250 2.207 . S
C836 C314 2.155 . S
C831 C274 2.196 . S
C847 C211 1.399 . S
C852 C409 1.451 . S
