# Generated by pormake.
# Topology anh, (6,3)-cn, num edge types: 1
# Building blocks:
#     Node 0, Type 0, BuildingBlock: PAMTUU_clean_sbu_0, # of connection points: 6
#     Node 1, Type 0, BuildingBlock: PAMTUU_clean_sbu_0, # of connection points: 6
#     Node 2, Type 0, BuildingBlock: PAMTUU_clean_sbu_0, # of connection points: 6
#     Node 3, Type 1, BuildingBlock: BETDAH_clean_linker_0, # of connection points: 3
#     Node 4, Type 1, BuildingBlock: BETDAH_clean_linker_0, # of connection points: 3
#     Node 5, Type 1, BuildingBlock: BETDAH_clean_linker_0, # of connection points: 3
#     Node 6, Type 1, BuildingBlock: BETDAH_clean_linker_0, # of connection points: 3
#     Node 7, Type 1, BuildingBlock: BETDAH_clean_linker_0, # of connection points: 3
#     Node 8, Type 1, BuildingBlock: BETDAH_clean_linker_0, # of connection points: 3
#     Edge 9, Type (0, 1), BuildingBlock: MIFKUJ_clean_linker_0, # of connection points: 2
#     Edge 10, Type (0, 1), BuildingBlock: MIFKUJ_clean_linker_0, # of connection points: 2
#     Edge 11, Type (0, 1), BuildingBlock: MIFKUJ_clean_linker_0, # of connection points: 2
#     Edge 12, Type (0, 1), BuildingBlock: MIFKUJ_clean_linker_0, # of connection points: 2
#     Edge 13, Type (0, 1), BuildingBlock: MIFKUJ_clean_linker_0, # of connection points: 2
#     Edge 14, Type (0, 1), BuildingBlock: MIFKUJ_clean_linker_0, # of connection points: 2
#     Edge 15, Type (0, 1), BuildingBlock: MIFKUJ_clean_linker_0, # of connection points: 2
#     Edge 16, Type (0, 1), BuildingBlock: MIFKUJ_clean_linker_0, # of connection points: 2
#     Edge 17, Type (0, 1), BuildingBlock: MIFKUJ_clean_linker_0, # of connection points: 2
#     Edge 18, Type (0, 1), BuildingBlock: MIFKUJ_clean_linker_0, # of connection points: 2
#     Edge 19, Type (0, 1), BuildingBlock: MIFKUJ_clean_linker_0, # of connection points: 2
#     Edge 20, Type (0, 1), BuildingBlock: MIFKUJ_clean_linker_0, # of connection points: 2
#     Edge 21, Type (0, 1), BuildingBlock: MIFKUJ_clean_linker_0, # of connection points: 2
#     Edge 22, Type (0, 1), BuildingBlock: MIFKUJ_clean_linker_0, # of connection points: 2
#     Edge 23, Type (0, 1), BuildingBlock: MIFKUJ_clean_linker_0, # of connection points: 2
#     Edge 24, Type (0, 1), BuildingBlock: MIFKUJ_clean_linker_0, # of connection points: 2
#     Edge 25, Type (0, 1), BuildingBlock: MIFKUJ_clean_linker_0, # of connection points: 2
#     Edge 26, Type (0, 1), BuildingBlock: MIFKUJ_clean_linker_0, # of connection points: 2
# Relax obj value: 0.171
# Max RMSD: 0.139
# Mean RMSD: 0.096
data_MOF--net-anh--node1-PAMTUU_clean_sbu_0--node2-BETDAH_clean_linker_0--edge1-MIFKUJ_clean_linker_0
_symmetry_space_group_name_H-M    P1
_symmetry_Int_Tables_number       1
_symmetry_cell_setting            triclinic
loop_
_symmetry_equiv_pos_as_xyz
'x, y, z'
_cell_length_a     39.789782
_cell_length_b     39.911891
_cell_length_c     64.829127
_cell_angle_alpha  93.392302
_cell_angle_beta   93.958623
_cell_angle_gamma 119.82766
loop_
_atom_site_label
_atom_site_type_symbol
_atom_site_fract_x
_atom_site_fract_y
_atom_site_fract_z
_atom_type_partial_charge
Tb0 Tb 0.11664 0.66094 0.15372 0.0
Tb1 Tb 0.16465 0.61522 0.15766 0.0
C2 C 0.14409 0.63598 0.11398 0.0
C3 C 1.04172 0.68807 0.16129 0.0
C4 C 0.96901 0.66655 0.17574 0.0
C5 C 0.97488 0.6738 0.1549 0.0
C6 C 1.01087 0.68464 0.14781 0.0
C7 C 1.03652 0.68211 0.18228 0.0
C8 C 1.00058 0.67166 0.18945 0.0
C9 C 1.07798 0.69536 0.15284 0.0
O10 O 1.07113 0.59848 0.14838 0.0
O11 O 0.10514 0.57326 0.16457 0.0
O12 O 0.16628 0.63894 0.18886 0.0
O13 O 0.1106 0.64211 0.18468 0.0
O14 O 0.16565 0.56369 0.15112 0.0
O15 O 0.21305 0.6125 0.1705 0.0
O16 O 0.20976 0.67419 0.15203 0.0
O17 O 0.17853 0.70697 0.16159 0.0
O18 O 0.13688 0.66154 0.12327 0.0
O19 O 0.14967 0.61152 0.12435 0.0
C20 C 1.07166 0.56936 0.15685 0.0
O21 O 0.10815 0.70543 0.16632 0.0
O22 O 1.0741 0.66973 0.138 0.0
C23 C 0.13739 0.64022 0.1966 0.0
C24 C 0.22766 0.57026 0.15144 0.0
C25 C 0.27913 0.55271 0.13229 0.0
C26 C 0.26505 0.53758 0.15091 0.0
C27 C 0.23963 0.54636 0.16039 0.0
C28 C 0.24152 0.58567 0.1329 0.0
C29 C 0.26713 0.57689 0.12335 0.0
C30 C 0.19985 0.57753 0.16154 0.0
C31 C 0.21074 0.70715 0.15747 0.0
H32 H 0.95117 0.66933 0.14369 0.0
H33 H 1.01417 0.68895 0.13157 0.0
H34 H 1.05985 0.68453 0.19307 0.0
H35 H 0.99733 0.66675 0.20562 0.0
H36 H 0.27301 0.5182 0.15797 0.0
H37 H 0.22889 0.53405 0.17462 0.0
H38 H 0.23235 0.60416 0.12581 0.0
H39 H 0.27763 0.58908 0.10907 0.0
Tb40 Tb 0.56093 0.10938 0.47921 0.0
Tb41 Tb 0.65456 0.15343 0.49147 0.0
C42 C 0.61822 0.13441 0.44484 0.0
C43 C 0.4555 1.0432 0.47927 0.0
C44 C 0.39473 0.97821 0.49438 0.0
C45 C 0.39413 0.98245 0.47296 0.0
C46 C 0.42421 1.01474 0.4655 0.0
C47 C 0.45597 1.03938 0.50069 0.0
C48 C 0.42578 1.00727 0.50819 0.0
C49 C 0.48797 0.07602 0.47111 0.0
O50 O 0.57206 0.06001 0.47941 0.0
O51 O 0.63707 0.09183 0.49213 0.0
O52 O 0.62873 0.15411 0.51992 0.0
O53 O 0.56954 0.09935 0.51094 0.0
O54 O 0.71173 0.19575 0.48733 0.0
O55 O 0.70052 0.15665 0.51098 0.0
O56 O 0.64354 0.20199 0.48788 0.0
O57 O 0.57746 0.17001 0.48936 0.0
O58 O 0.58678 0.13248 0.4512 0.0
O59 O 0.64531 0.13536 0.45808 0.0
C60 C 0.60384 0.05931 0.48631 0.0
O61 O 0.50852 0.10708 0.4842 0.0
O62 O 0.50993 0.06777 0.46034 0.0
C63 C 0.59678 0.12487 0.52509 0.0
C64 C 0.75383 0.2199 0.51918 0.0
C65 C 0.81181 0.28166 0.54726 0.0
C66 C 0.80242 0.24321 0.54936 0.0
C67 C 0.77387 0.21268 0.53537 0.0
C68 C 0.76125 0.25794 0.51789 0.0
C69 C 0.79003 0.28853 0.53178 0.0
C70 C 0.7265 0.18757 0.50356 0.0
C71 C 0.61099 0.20268 0.4896 0.0
H72 H 0.37109 0.96017 0.46184 0.0
H73 H 0.42346 1.0171 0.44893 0.0
H74 H 0.47987 0.06099 0.51164 0.0
H75 H 0.42698 1.00501 0.52476 0.0
H76 H 0.81837 0.23691 0.56124 0.0
H77 H 0.76831 0.18348 0.53681 0.0
H78 H 0.74593 0.26434 0.5057 0.0
H79 H 0.79683 0.31783 0.52951 0.0
Tb80 Tb 0.61864 0.56832 0.81189 0.0
Tb81 Tb 0.66591 0.66101 0.82491 0.0
C82 C 0.64145 0.62588 0.77841 0.0
C83 C 0.59349 0.4655 0.80741 0.0
C84 C 0.61258 0.40804 0.81582 0.0
C85 C 0.61564 0.42134 0.79606 0.0
C86 C 0.606 0.44963 0.79188 0.0
C87 C 0.59053 0.45228 0.82722 0.0
C88 C 0.59992 0.42377 0.83136 0.0
C89 C 0.58395 0.49587 0.80281 0.0
O90 O 0.68021 0.58407 0.81038 0.0
O91 O 0.71239 0.6462 0.82708 0.0
O92 O 0.64227 0.6323 0.8524 0.0
O93 O 0.64558 0.57839 0.84329 0.0
O94 O 0.67978 0.71737 0.81901 0.0
O95 O 0.70545 0.70761 0.84673 0.0
O96 O 0.60454 0.64658 0.81929 0.0
O97 O 0.57367 0.58106 0.82198 0.0
O98 O 0.61271 0.5953 0.78492 0.0
O99 O 0.67045 0.65215 0.79175 0.0
C100 C 0.71271 0.61512 0.81918 0.0
O101 O 0.57718 0.5128 0.81851 0.0
O102 O 0.60559 0.52076 0.79047 0.0
C103 C 0.64382 0.60176 0.85754 0.0
C104 C 0.6881 0.75556 0.84987 0.0
C105 C 0.66174 0.80016 0.87112 0.0
C106 C 0.70009 0.8177 0.86562 0.0
C107 C 0.71309 0.79554 0.85498 0.0
C108 C 0.65077 0.73755 0.85639 0.0
C109 C 0.6377 0.75961 0.86689 0.0
C110 C 0.70014 0.73265 0.83714 0.0
C111 C 0.57268 0.61363 0.82147 0.0
H112 H 0.6246 0.4092 0.78367 0.0
H113 H 0.60826 0.45902 0.77644 0.0
H114 H 0.58096 0.46386 0.83957 0.0
H115 H 0.59738 0.41409 0.84673 0.0
H116 H 0.71961 0.84875 0.86891 0.0
H117 H 0.74221 0.80976 0.85026 0.0
H118 H 0.6312 0.70656 0.8527 0.0
H119 H 0.608 0.74501 0.87063 0.0
H120 H 0.56699 0.07606 0.22288 0.0
H121 H 0.67547 0.17947 0.21615 0.0
H122 H 0.60387 0.10057 0.1621 0.0
C123 C 0.58781 0.09487 0.21295 0.0
C124 C 0.58051 0.08374 0.19144 0.0
C125 C 0.62184 0.12889 0.22204 0.0
C126 C 0.64949 0.15318 0.20921 0.0
C127 C 0.64333 0.14371 0.18744 0.0
C128 C 0.60887 0.10839 0.17876 0.0
N129 N 0.67062 0.16835 0.17381 0.0
C130 C 0.70507 0.20537 0.17833 0.0
H131 H 0.61573 0.5637 0.55761 0.0
H132 H 0.61308 0.66777 0.5473 0.0
H133 H 0.61322 0.59493 0.49526 0.0
C134 C 0.61519 0.58319 0.54681 0.0
C135 C 0.61543 0.57468 0.52545 0.0
C136 C 0.61448 0.61641 0.55479 0.0
C137 C 0.61357 0.64223 0.54112 0.0
C138 C 0.61253 0.63468 0.5195 0.0
C139 C 0.61342 0.60066 0.51181 0.0
N140 N 0.61086 0.66039 0.50515 0.0
C141 C 0.60908 0.69485 0.50922 0.0
H142 H 1.07223 0.61746 0.89177 0.0
H143 H 0.17838 0.61751 0.88253 0.0
H144 H 0.10342 0.6135 0.82984 0.0
C145 C 0.09159 0.61598 0.88128 0.0
C146 C 0.08223 0.61415 0.85974 0.0
C147 C 0.1257 0.61684 0.88972 0.0
C148 C 0.15227 0.61715 0.87622 0.0
C149 C 0.1448 0.61619 0.85455 0.0
C150 C 0.10964 0.6148 0.84649 0.0
N151 N 0.17121 0.61599 0.84038 0.0
C152 C 0.20722 0.61702 0.84468 0.0
H153 H 0.14951 0.62974 0.41882 0.0
H154 H 0.09861 0.50606 0.40554 0.0
H155 H 0.14132 0.56006 0.4683 0.0
C156 C 0.14021 0.60155 0.42421 0.0
C157 C 0.1471 0.59882 0.44541 0.0
C158 C 0.12295 0.56835 0.40969 0.0
C159 C 0.11241 0.53199 0.41654 0.0
C160 C 0.11807 0.52872 0.43771 0.0
C161 C 0.136 0.56231 0.45199 0.0
N162 N 0.10456 0.49142 0.44451 0.0
C163 C 0.09506 0.48455 0.46465 0.0
H164 H 0.57532 0.08102 0.74518 0.0
H165 H 0.48297 0.96387 0.72577 0.0
H166 H 0.51103 1.00784 0.79063 0.0
C167 C 0.55338 0.05284 0.74902 0.0
C168 C 0.54629 1.04764 0.7698 0.0
C169 C 0.53081 1.02299 0.73297 0.0
C170 C 0.50059 0.98733 0.73794 0.0
C171 C 0.49387 0.98131 0.75873 0.0
C172 C 0.51667 1.01176 0.77459 0.0
N173 N 0.46458 0.94441 0.76349 0.0
C174 C 0.46779 0.93136 0.78251 0.0
H175 H 0.6487 0.4857 0.06941 0.0
H176 H 0.5375 0.39472 0.03994 0.0
H177 H 0.57146 0.39355 0.10387 0.0
C178 C 0.6215 0.45914 0.07029 0.0
C179 C 0.61386 0.44197 0.08907 0.0
C180 C 0.59424 0.44241 0.05249 0.0
C181 C 0.55949 0.40737 0.0533 0.0
C182 C 0.55182 0.38953 0.07171 0.0
C183 C 0.5789 0.40671 0.08949 0.0
N184 N 0.51449 0.35761 0.07325 0.0
C185 C 0.48404 0.36484 0.0745 0.0
H186 H 0.33982 0.54784 0.15097 0.0
H187 H 0.37626 0.52086 0.13543 0.0
H188 H 0.31535 0.50739 0.07504 0.0
H189 H 0.27704 0.53262 0.09082 0.0
H190 H 0.31424 0.44316 0.08133 0.0
H191 H 0.41481 0.5745 0.0869 0.0
H192 H 0.4583 0.64162 0.10308 0.0
H193 H 0.50724 0.60045 0.14931 0.0
H194 H 0.46367 0.53301 0.1336 0.0
H195 H 0.44137 0.37572 0.04425 0.0
H196 H 0.40658 0.41178 0.04888 0.0
H197 H 0.43778 0.42684 0.11526 0.0
H198 H 0.47236 0.39092 0.11059 0.0
H199 H 0.45618 0.49581 0.09849 0.0
H200 H 0.34647 0.36344 0.09472 0.0
H201 H 0.3029 0.29701 0.07756 0.0
H202 H 0.27264 0.34293 0.02579 0.0
H203 H 0.31644 0.40968 0.04254 0.0
C204 C 0.33426 0.53933 0.13436 0.0
C205 C 0.30523 0.54195 0.12216 0.0
C206 C 0.35554 0.52438 0.12542 0.0
C207 C 0.34889 0.51246 0.104 0.0
C208 C 0.32105 0.51653 0.09159 0.0
C209 C 0.29942 0.53124 0.10059 0.0
C210 C 0.36862 0.49258 0.0952 0.0
C211 C 0.34545 0.45513 0.08463 0.0
C212 C 0.40929 0.508 0.0996 0.0
C213 C 0.43579 0.5486 0.10909 0.0
C214 C 0.43467 0.57971 0.10059 0.0
C215 C 0.45937 0.61783 0.10968 0.0
C216 C 0.48549 0.62529 0.12722 0.0
C217 C 0.48701 0.59463 0.13571 0.0
C218 C 0.46236 0.55644 0.12669 0.0
C219 C 0.43984 0.38603 0.05981 0.0
C220 C 0.4587 0.38031 0.07714 0.0
C221 C 0.42025 0.40669 0.06243 0.0
C222 C 0.41971 0.42194 0.08241 0.0
C223 C 0.43797 0.41535 0.09973 0.0
C224 C 0.45733 0.39461 0.0971 0.0
C225 C 0.40153 0.44611 0.08548 0.0
C226 C 0.42511 0.48436 0.09486 0.0
C227 C 0.3614 0.43163 0.07976 0.0
C228 C 0.33508 0.39153 0.06975 0.0
C229 C 0.33079 0.35937 0.07959 0.0
C230 C 0.306 0.32166 0.06996 0.0
C231 C 0.28511 0.31575 0.05056 0.0
C232 C 0.28889 0.34755 0.04079 0.0
C233 C 0.31367 0.38531 0.05034 0.0
H234 H 0.26593 0.28654 0.04314 0.0
H235 H 0.50457 0.65482 0.13424 0.0
H236 H 0.88198 0.28602 0.55463 0.0
H237 H 0.94452 0.34455 0.56107 0.0
H238 H 0.88835 0.41204 0.57107 0.0
H239 H 0.82466 0.35258 0.56421 0.0
H240 H 0.92388 0.4326 0.53983 0.0
H241 H 0.97045 0.42713 0.60594 0.0
H242 H 0.9822 0.40077 0.6373 0.0
H243 H 1.04767 0.36062 0.60438 0.0
H244 H 1.03583 0.38606 0.5727 0.0
H245 H 0.08781 0.53758 0.48844 0.0
H246 H 1.05706 0.52771 0.52066 0.0
H247 H 1.0416 0.41252 0.51839 0.0
H248 H 1.07345 0.42288 0.48641 0.0
H249 H 1.0536 0.44755 0.55963 0.0
H250 H 0.9734 0.42686 0.4924 0.0
H251 H 0.95874 0.45108 0.46083 0.0
H252 H 0.95537 0.54135 0.4985 0.0
H253 H 0.9704 0.51779 0.53028 0.0
C254 C 0.88268 0.3129 0.55925 0.0
C255 C 0.84827 0.31474 0.55834 0.0
C256 C 0.91887 0.34673 0.56314 0.0
C257 C 0.92146 0.38311 0.56636 0.0
C258 C 0.88716 0.3844 0.56841 0.0
C259 C 0.85076 0.35043 0.56433 0.0
C260 C 0.95722 0.41784 0.56133 0.0
C261 C 0.95253 0.43713 0.54492 0.0
C262 C 0.99489 0.42434 0.56789 0.0
C263 C 1.00233 0.40876 0.58688 0.0
C264 C 0.98721 0.41252 0.60532 0.0
C265 C 0.9939 0.39773 0.62318 0.0
C266 C 1.01572 0.37909 0.62284 0.0
C267 C 1.03089 0.37519 0.60464 0.0
C268 C 1.0243 0.38993 0.58673 0.0
C269 C 1.07908 0.51072 0.49525 0.0
C270 C 0.08275 0.48084 0.48513 0.0
C271 C 1.06159 0.50516 0.51365 0.0
C272 C 1.04686 0.46933 0.52183 0.0
C273 C 1.05308 0.44051 0.51242 0.0
C274 C 1.07087 0.44622 0.49411 0.0
C275 C 1.01868 0.45865 0.53738 0.0
C276 C 1.02522 0.44444 0.5556 0.0
C277 C 0.98258 0.45691 0.53268 0.0
C278 C 0.97349 0.47095 0.51363 0.0
C279 C 0.96974 0.452 0.4939 0.0
C280 C 0.96135 0.46558 0.47599 0.0
C281 C 0.95627 0.49782 0.47765 0.0
C282 C 0.95944 0.51646 0.49724 0.0
C283 C 0.9679 0.50303 0.5152 0.0
H284 H 0.94976 0.50829 0.46377 0.0
H285 H 1.02085 0.36765 0.63668 0.0
H286 H 0.67527 0.86907 0.85817 0.0
H287 H 0.63626 0.89931 0.86233 0.0
H288 H 0.56839 0.81514 0.9032 0.0
H289 H 0.6087 0.78502 0.8996 0.0
H290 H 0.52352 0.81231 0.8705 0.0
H291 H 0.60865 0.91227 0.92036 0.0
H292 H 0.67057 0.96306 0.93982 0.0
H293 H 0.69691 1.02943 0.88747 0.0
H294 H 0.63553 0.97885 0.86753 0.0
H295 H 0.4234 0.89178 0.81252 0.0
H296 H 0.4473 0.87627 0.84469 0.0
H297 H 0.56433 0.93656 0.82719 0.0
H298 H 0.54066 0.95243 0.7957 0.0
H299 H 0.56558 0.95132 0.86795 0.0
H300 H 0.49662 0.83625 0.81546 0.0
H301 H 0.43832 0.78215 0.79482 0.0
H302 H 0.38635 0.74204 0.85078 0.0
H303 H 0.44415 0.79637 0.87175 0.0
C304 C 0.65343 0.85794 0.86889 0.0
C305 C 0.64481 0.82413 0.87827 0.0
C306 C 0.63098 0.87545 0.87131 0.0
C307 C 0.59932 0.85962 0.88314 0.0
C308 C 0.59273 0.82795 0.89406 0.0
C309 C 0.61558 0.81057 0.89181 0.0
C310 C 0.56934 0.87118 0.88 0.0
C311 C 0.53235 0.84271 0.87042 0.0
C312 C 0.5801 0.91075 0.88058 0.0
C313 C 0.61719 0.94169 0.89246 0.0
C314 C 0.62767 0.93762 0.91294 0.0
C315 C 0.66272 0.9664 0.92407 0.0
C316 C 0.68762 0.99948 0.9149 0.0
C317 C 0.67752 1.00385 0.89458 0.0
C318 C 0.6425 0.97516 0.88338 0.0
C319 C 0.4542 0.90186 0.81584 0.0
C320 C 0.48039 0.92286 0.80181 0.0
C321 C 0.46782 0.89316 0.83414 0.0
C322 C 0.50762 0.9052 0.83835 0.0
C323 C 0.5336 0.92724 0.82444 0.0
C324 C 0.52009 0.93599 0.80636 0.0
C325 C 0.52287 0.89253 0.85592 0.0
C326 C 0.55641 0.9209 0.86862 0.0
C327 C 0.50938 0.85278 0.85783 0.0
C328 C 0.47424 0.82093 0.84513 0.0
C329 C 0.47246 0.81631 0.82334 0.0
C330 C 0.43957 0.78553 0.81159 0.0
C331 C 0.4085 0.75887 0.82147 0.0
C332 C 0.41031 0.76288 0.84314 0.0
C333 C 0.44309 0.7937 0.85496 0.0
H334 H 0.38317 0.73494 0.81235 0.0
H335 H 0.71476 1.02172 0.92354 0.0
H336 H 0.91204 0.68344 0.16371 0.0
H337 H 0.8427 0.64279 0.16582 0.0
H338 H 0.8655 0.57136 0.20532 0.0
H339 H 0.93504 0.61124 0.20265 0.0
H340 H 0.8217 0.52947 0.17255 0.0
H341 H 0.81054 0.61304 0.221 0.0
H342 H 0.82142 0.67426 0.23911 0.0
H343 H 0.7674 0.694 0.1852 0.0
H344 H 0.75671 0.63326 0.1666 0.0
H345 H 0.63188 0.40922 0.12127 0.0
H346 H 0.68034 0.44281 0.15155 0.0
H347 H 0.70884 0.55317 0.1299 0.0
H348 H 0.65812 0.52021 0.10098 0.0
H349 H 0.7172 0.56276 0.16941 0.0
H350 H 0.75659 0.49583 0.11833 0.0
H351 H 0.75206 0.43842 0.09885 0.0
H352 H 0.75944 0.39259 0.1562 0.0
H353 H 0.76359 0.44959 0.17599 0.0
C354 C 0.90247 0.65954 0.17318 0.0
C355 C 0.92905 0.64964 0.18224 0.0
C356 C 0.86268 0.63663 0.17472 0.0
C357 C 0.84866 0.6037 0.18563 0.0
C358 C 0.87556 0.59652 0.19675 0.0
C359 C 0.91544 0.61941 0.19516 0.0
C360 C 0.80695 0.57302 0.18131 0.0
C361 C 0.7987 0.53651 0.17234 0.0
C362 C 0.7766 0.58176 0.18132 0.0
C363 C 0.78278 0.61842 0.19239 0.0
C364 C 0.80114 0.63051 0.21294 0.0
C365 C 0.80727 0.66515 0.2233 0.0
C366 C 0.79509 0.68799 0.21331 0.0
C367 C 0.77674 0.67623 0.19294 0.0
C368 C 0.77054 0.64162 0.18249 0.0
C369 C 0.64776 0.44066 0.12321 0.0
C370 C 0.64167 0.46189 0.10826 0.0
C371 C 0.67579 0.45985 0.14048 0.0
C372 C 0.6991 0.50056 0.14278 0.0
C373 C 0.69155 0.52174 0.12849 0.0
C374 C 0.66296 0.50271 0.11161 0.0
C375 C 0.73381 0.52153 0.15859 0.0
C376 C 0.74023 0.55564 0.17006 0.0
C377 C 0.76303 0.51111 0.16051 0.0
C378 C 0.75955 0.47649 0.14859 0.0
C379 C 0.75677 0.47326 0.12675 0.0
C380 C 0.75435 0.44086 0.11567 0.0
C381 C 0.75516 0.41174 0.12628 0.0
C382 C 0.75849 0.41502 0.148 0.0
C383 C 0.76085 0.44733 0.15915 0.0
H384 H 0.75346 0.38676 0.11768 0.0
H385 H 0.79988 0.7148 0.22136 0.0
H386 H 0.40498 0.93709 0.5241 0.0
H387 H 0.35819 0.87141 0.53115 0.0
H388 H 0.27052 0.87102 0.48792 0.0
H389 H 0.31642 0.93744 0.48166 0.0
H390 H 0.23763 0.82493 0.51873 0.0
H391 H 0.33615 0.8456 0.47056 0.0
H392 H 0.40449 0.87327 0.4632 0.0
H393 H 0.42591 0.81641 0.51235 0.0
H394 H 0.35768 0.7885 0.52003 0.0
H395 H 0.13615 0.66133 0.44702 0.0
H396 H 0.1739 0.72243 0.46928 0.0
H397 H 0.23878 0.6768 0.50115 0.0
H398 H 0.2027 0.61638 0.47807 0.0
H399 H 0.28621 0.74184 0.48886 0.0
H400 H 0.17887 0.70226 0.52709 0.0
H401 H 0.11019 0.67433 0.53359 0.0
H402 H 0.1039 0.76502 0.50426 0.0
H403 H 0.17234 0.79319 0.49725 0.0
C404 C 0.37532 0.92368 0.51672 0.0
C405 C 0.36464 0.94208 0.5019 0.0
C406 C 0.34865 0.88605 0.52072 0.0
C407 C 0.31126 0.86609 0.50967 0.0
C408 C 0.29936 0.88583 0.49651 0.0
C409 C 0.32581 0.92357 0.49269 0.0
C410 C 0.2872 0.82335 0.50854 0.0
C411 C 0.24809 0.8065 0.51237 0.0
C412 C 0.3014 0.79935 0.50092 0.0
C413 C 0.34205 0.81532 0.49598 0.0
C414 C 0.3555 0.83905 0.47979 0.0
C415 C 0.39417 0.85474 0.47556 0.0
C416 C 0.41954 0.84659 0.48731 0.0
C417 C 0.40622 0.82261 0.50325 0.0
C418 C 0.36756 0.80684 0.50754 0.0
C419 C 0.15835 0.66423 0.45881 0.0
C420 C 0.16674 0.63417 0.46057 0.0
C421 C 0.17943 0.69894 0.47183 0.0
C422 C 0.20887 0.70406 0.48711 0.0
C423 C 0.21601 0.67339 0.48957 0.0
C424 C 0.19522 0.63879 0.4764 0.0
C425 C 0.23578 0.7432 0.4981 0.0
C426 C 0.27563 0.75955 0.49605 0.0
C427 C 0.22211 0.7665 0.50738 0.0
C428 C 0.18085 0.74982 0.5116 0.0
C429 C 0.16281 0.71615 0.5219 0.0
C430 C 0.1239 0.70027 0.52569 0.0
C431 C 0.10269 0.71788 0.51934 0.0
C432 C 0.12038 0.75144 0.50919 0.0
C433 C 0.15928 0.76742 0.50535 0.0
H434 H 1.07257 0.70554 0.52229 0.0
H435 H 0.4495 0.85883 0.48405 0.0
H436 H 0.56861 0.34354 0.83497 0.0
H437 H 0.57628 0.28683 0.83681 0.0
H438 H 0.68184 0.34378 0.80718 0.0
H439 H 0.67397 0.40059 0.80509 0.0
H440 H 0.63336 0.27649 0.78689 0.0
H441 H 0.68303 0.31923 0.8578 0.0
H442 H 0.68634 0.3446 0.89394 0.0
H443 H 0.57718 0.24322 0.90081 0.0
H444 H 0.57287 0.21746 0.86461 0.0
H445 H 0.62449 0.09997 0.77632 0.0
H446 H 0.65489 0.16501 0.79513 0.0
H447 H 0.54548 0.13684 0.81784 0.0
H448 H 0.51496 0.07194 0.79911 0.0
H449 H 0.61268 0.19479 0.84486 0.0
H450 H 0.5564 0.16424 0.77194 0.0
H451 H 0.55114 0.1366 0.73601 0.0
H452 H 0.67282 0.21638 0.73349 0.0
H453 H 0.67894 0.24387 0.76964 0.0
C454 C 0.59403 0.3444 0.82937 0.0
C455 C 0.62051 0.37629 0.81971 0.0
C456 C 0.59851 0.31202 0.83052 0.0
C457 C 0.62983 0.31113 0.82228 0.0
C458 C 0.65748 0.34385 0.81365 0.0
C459 C 0.65285 0.37615 0.81236 0.0
C460 C 0.63024 0.27416 0.81992 0.0
C461 C 0.63013 0.25927 0.79974 0.0
C462 C 0.62514 0.2512 0.83657 0.0
C463 C 0.62756 0.26648 0.85841 0.0
C464 C 0.65958 0.30245 0.86696 0.0
C465 C 0.66166 0.31689 0.88747 0.0
C466 C 0.63197 0.29556 0.89965 0.0
C467 C 0.60017 0.2597 0.89135 0.0
C468 C 0.59793 0.24513 0.87084 0.0
C469 C 0.60733 0.10725 0.78594 0.0
C470 C 0.56719 0.08136 0.78588 0.0
C471 C 0.62479 0.14424 0.79679 0.0
C472 C 0.60217 0.15583 0.80749 0.0
C473 C 0.56339 0.12838 0.80965 0.0
C474 C 0.54594 0.09131 0.79887 0.0
C475 C 0.61537 0.19753 0.81195 0.0
C476 C 0.61749 0.21293 0.83231 0.0
C477 C 0.6222 0.22115 0.79551 0.0
C478 C 0.61823 0.2058 0.77352 0.0
C479 C 0.58205 0.17578 0.76374 0.0
C480 C 0.57891 0.16013 0.74335 0.0
C481 C 0.61164 0.17468 0.73248 0.0
C482 C 0.64752 0.20508 0.74195 0.0
C483 C 0.65085 0.22068 0.76239 0.0
H484 H 0.60919 0.16244 0.71673 0.0
H485 H 0.63363 0.30679 0.91553 0.0
H486 H 0.66283 1.04709 0.502 0.0
H487 H 0.66192 0.98637 0.50625 0.0
H488 H 0.54172 0.92166 0.47973 0.0
H489 H 0.54224 0.98289 0.47588 0.0
H490 H 0.5489 0.88403 0.50959 0.0
H491 H 0.62407 0.93273 0.45297 0.0
H492 H 0.67637 0.98041 0.43439 0.0
H493 H 0.76276 0.98585 0.48015 0.0
H494 H 0.71094 0.93856 0.49917 0.0
H495 H 0.54662 0.70195 0.49534 0.0
H496 H 0.54399 0.76149 0.49157 0.0
H497 H 0.66418 0.83026 0.51787 0.0
H498 H 0.66684 0.77046 0.5212 0.0
H499 H 0.65553 0.865 0.4874 0.0
H500 H 0.57922 0.81609 0.54414 0.0
H501 H 0.52625 0.76755 0.56204 0.0
H502 H 0.44119 0.76124 0.51505 0.0
H503 H 0.49367 0.80965 0.4968 0.0
C504 C 0.63605 1.02011 0.49689 0.0
C505 C 0.60271 1.02075 0.48833 0.0
C506 C 0.63564 0.98488 0.49926 0.0
C507 C 0.60201 0.94836 0.49297 0.0
C508 C 0.56839 0.94883 0.4847 0.0
C509 C 0.56874 0.98423 0.48238 0.0
C510 C 0.6021 0.91025 0.49519 0.0
C511 C 0.57206 0.87992 0.50441 0.0
C512 C 0.63238 0.90395 0.48897 0.0
C513 C 0.66361 0.9324 0.4776 0.0
C514 C 0.65422 0.94431 0.45915 0.0
C515 C 0.68378 0.97123 0.44853 0.0
C516 C 0.72286 0.98623 0.45611 0.0
C517 C 0.73247 0.97426 0.47431 0.0
C518 C 0.70302 0.94737 0.48501 0.0
C519 C 0.57237 0.72973 0.50063 0.0
C520 C 0.60676 0.73101 0.50891 0.0
C521 C 0.57086 0.76415 0.49851 0.0
C522 C 0.60369 0.80143 0.50468 0.0
C523 C 0.63813 0.80252 0.51296 0.0
C524 C 0.63963 0.76805 0.51504 0.0
C525 C 0.60257 0.83891 0.50198 0.0
C526 C 0.6324 0.86912 0.49262 0.0
C527 C 0.57202 0.84498 0.50799 0.0
C528 C 0.5404 0.81617 0.51899 0.0
C529 C 0.54922 0.80419 0.53756 0.0
C530 C 0.51928 0.77678 0.54779 0.0
C531 C 0.48039 0.76129 0.53966 0.0
C532 C 0.47134 0.7733 0.52133 0.0
C533 C 0.50116 0.80077 0.51105 0.0
H534 H 0.45725 0.74003 0.54759 0.0
H535 H 0.74571 1.00706 0.44786 0.0
H536 H 0.78469 0.67137 0.83906 0.0
H537 H 0.84569 0.67037 0.84364 0.0
H538 H 0.78996 0.5573 0.80875 0.0
H539 H 0.72856 0.55817 0.80402 0.0
H540 H 0.86326 0.59941 0.79834 0.0
H541 H 0.91429 0.67923 0.8816 0.0
H542 H 0.88585 0.68828 0.91263 0.0
H543 H 0.78052 0.57971 0.89373 0.0
H544 H 0.80852 0.56977 0.86277 0.0
H545 H 1.06464 0.64996 0.82811 0.0
H546 H 1.00324 0.64962 0.81921 0.0
H547 H 0.95006 0.57143 0.86531 0.0
H548 H 1.01057 0.57146 0.87403 0.0
H549 H 0.93008 0.6233 0.86958 0.0
H550 H 0.92738 0.54419 0.81023 0.0
H551 H 0.95194 0.5282 0.77945 0.0
H552 H 0.955 0.62404 0.75105 0.0
H553 H 0.9309 0.64089 0.78179 0.0
C554 C 0.78515 0.6462 0.83221 0.0
C555 C 0.75095 0.61481 0.82114 0.0
C556 C 0.8204 0.6456 0.83496 0.0
C557 C 0.82315 0.61358 0.8268 0.0
C558 C 0.7893 0.58253 0.8153 0.0
C559 C 0.75385 0.58302 0.81264 0.0
C560 C 0.86077 0.61223 0.83073 0.0
C561 C 0.87785 0.60487 0.81395 0.0
C562 C 0.88028 0.61856 0.85104 0.0
C563 C 0.86338 0.624 0.86976 0.0
C564 C 0.88512 0.65723 0.88412 0.0
C565 C 0.86907 0.66252 0.90169 0.0
C566 C 0.83136 0.63465 0.90511 0.0
C567 C 0.80967 0.60135 0.89102 0.0
C568 C 0.82561 0.59589 0.87345 0.0
C569 C 1.03974 0.6322 0.83614 0.0
C570 C 1.04345 0.61113 0.85205 0.0
C571 C 1.00431 0.63206 0.83106 0.0
C572 C 0.97115 0.61061 0.84157 0.0
C573 C 0.9747 0.58878 0.85699 0.0
C574 C 1.0098 0.58887 0.86202 0.0
C575 C 0.93317 0.61123 0.83716 0.0
C576 C 0.91586 0.6183 0.85391 0.0
C577 C 0.91325 0.60407 0.81687 0.0
C578 C 0.92775 0.59404 0.7984 0.0
C579 C 0.93359 0.56203 0.79749 0.0
C580 C 0.94737 0.55278 0.78004 0.0
C581 C 0.95514 0.57516 0.76333 0.0
C582 C 0.94903 0.60677 0.76402 0.0
C583 C 0.93529 0.61617 0.78144 0.0
H584 H 0.96579 0.56794 0.74983 0.0
H585 H 0.81897 0.63882 0.9187 0.0
H586 H 0.22479 0.7818 0.16796 0.0
H587 H 0.28634 0.84363 0.17163 0.0
H588 H 0.34695 0.78348 0.15504 0.0
H589 H 0.28529 0.72126 0.15165 0.0
H590 H 0.39224 0.8384 0.18454 0.0
H591 H 0.32667 0.8411 0.12103 0.0
H592 H 0.27277 0.83651 0.09753 0.0
H593 H 0.27687 0.93121 0.13494 0.0
H594 H 0.3305 0.93604 0.15883 0.0
H595 H 0.56968 1.01532 0.17068 0.0
H596 H 0.50878 0.95205 0.16321 0.0
H597 H 0.44447 1.00321 0.18735 0.0
H598 H 0.50517 0.06596 0.19512 0.0
H599 H 0.40232 0.95229 0.15243 0.0
H600 H 0.46822 0.94769 0.21621 0.0
H601 H 0.52323 0.95205 0.23858 0.0
H602 H 0.51965 0.86017 0.19878 0.0
H603 H 0.46495 0.85565 0.17596 0.0
C604 C 0.25106 0.78144 0.16499 0.0
C605 C 0.24924 0.74575 0.15936 0.0
C606 C 0.28668 0.8173 0.167 0.0
C607 C 0.32225 0.81933 0.16336 0.0
C608 C 0.32055 0.78362 0.15796 0.0
C609 C 0.28486 0.74768 0.15592 0.0
C610 C 0.36077 0.85828 0.16534 0.0
C611 C 0.39429 0.86294 0.17717 0.0
C612 C 0.36455 0.89141 0.15615 0.0
C613 C 0.33235 0.88868 0.14184 0.0
C614 C 0.31589 0.86076 0.12434 0.0
C615 C 0.28542 0.85815 0.11093 0.0
C616 C 0.27134 0.88349 0.11477 0.0
C617 C 0.28778 0.91157 0.132 0.0
C618 C 0.31824 0.91428 0.14547 0.0
C619 C 0.54247 1.01334 0.17399 0.0
C620 C 0.54273 1.04638 0.18327 0.0
C621 C 0.50743 0.97679 0.16991 0.0
C622 C 0.47121 0.97195 0.17478 0.0
C623 C 0.4714 1.00539 0.18331 0.0
C624 C 0.50639 1.04161 0.1877 0.0
C625 C 0.43355 0.93233 0.17167 0.0
C626 C 0.4002 0.92761 0.15968 0.0
C627 C 0.43005 0.89909 0.18053 0.0
C628 C 0.46278 0.90163 0.19425 0.0
C629 C 0.47937 0.92863 0.21213 0.0
C630 C 0.51046 0.9311 0.22491 0.0
C631 C 0.525 0.90648 0.22008 0.0
C632 C 0.5084 0.87927 0.20248 0.0
C633 C 0.47735 0.87673 0.18962 0.0
H634 H 0.54906 0.90843 0.23 0.0
H635 H 0.24775 0.88142 0.10437 0.0
H636 H 0.67136 0.27709 0.48528 0.0
H637 H 0.67214 0.33907 0.48935 0.0
H638 H 0.55372 0.2792 0.50419 0.0
H639 H 0.55266 0.21723 0.49999 0.0
H640 H 0.59487 0.34501 0.53018 0.0
H641 H 0.68897 0.42124 0.4655 0.0
H642 H 0.70487 0.40416 0.43178 0.0
H643 H 0.59455 0.29786 0.42259 0.0
H644 H 0.57778 0.31455 0.45611 0.0
H645 H 0.6592 0.54672 0.5448 0.0
H646 H 0.65761 0.48545 0.53719 0.0
H647 H 0.5772 0.45801 0.48244 0.0
H648 H 0.57796 0.5197 0.49029 0.0
H649 H 0.63101 0.43399 0.47502 0.0
H650 H 0.54533 0.4165 0.52722 0.0
H651 H 0.52786 0.433 0.56056 0.0
H652 H 0.61644 0.419 0.5938 0.0
H653 H 0.63494 0.40311 0.56064 0.0
C654 C 0.64535 0.2769 0.48937 0.0
C655 C 0.61189 0.24141 0.49219 0.0
C656 C 0.64577 0.3127 0.49164 0.0
C657 C 0.61287 0.31464 0.49698 0.0
C658 C 0.57967 0.27927 0.50007 0.0
C659 C 0.57906 0.24346 0.49757 0.0
C660 C 0.61296 0.35311 0.49947 0.0
C661 C 0.60295 0.36433 0.51806 0.0
C662 C 0.6229 0.37897 0.48378 0.0
C663 C 0.63232 0.369 0.46341 0.0
C664 C 0.66804 0.39431 0.45624 0.0
C665 C 0.67722 0.38468 0.43716 0.0
C666 C 0.65079 0.34988 0.42508 0.0
C667 C 0.61505 0.32473 0.43199 0.0
C668 C 0.60571 0.33425 0.45104 0.0
C669 C 0.64082 0.52784 0.53112 0.0
C670 C 0.61804 0.53868 0.51848 0.0
C671 C 0.64007 0.4924 0.52673 0.0
C672 C 0.61669 0.46589 0.5094 0.0
C673 C 0.59543 0.47734 0.49603 0.0
C674 C 0.596 0.513 0.50051 0.0
C675 C 0.6138 0.4262 0.50591 0.0
C676 C 0.62315 0.41472 0.48716 0.0
C677 C 0.60325 0.40003 0.52146 0.0
C678 C 0.59173 0.40892 0.54143 0.0
C679 C 0.56125 0.41717 0.54163 0.0
C680 C 0.55116 0.42642 0.5605 0.0
C681 C 0.57109 0.42715 0.57928 0.0
C682 C 0.60106 0.41848 0.57924 0.0
C683 C 0.61136 0.40934 0.56041 0.0
H684 H 0.56328 0.43436 0.59387 0.0
H685 H 0.65799 0.34244 0.41034 0.0
H686 H 0.55007 0.66442 0.80764 0.0
H687 H 0.48915 0.66416 0.81065 0.0
H688 H 0.44826 0.56388 0.84464 0.0
H689 H 0.50824 0.56234 0.8401 0.0
H690 H 0.38841 0.55432 0.82375 0.0
H691 H 0.48234 0.67196 0.86952 0.0
H692 H 0.54531 0.73316 0.87597 0.0
H693 H 0.51539 0.7742 0.82189 0.0
H694 H 0.45136 0.71368 0.81565 0.0
H695 H 0.23078 0.56959 0.862 0.0
H696 H 0.2918 0.56915 0.85872 0.0
H697 H 0.33024 0.66556 0.82188 0.0
H698 H 0.26969 0.66644 0.82566 0.0
H699 H 0.39117 0.67739 0.84417 0.0
H700 H 0.293 0.56392 0.80148 0.0
H701 H 0.23165 0.50138 0.79301 0.0
H702 H 0.27044 0.45053 0.83862 0.0
H703 H 0.33185 0.51294 0.84754 0.0
C704 C 0.52821 0.64225 0.8158 0.0
C705 C 0.53476 0.61352 0.82367 0.0
C706 C 0.4931 0.64243 0.81785 0.0
C707 C 0.46348 0.6149 0.82865 0.0
C708 C 0.46995 0.58587 0.83633 0.0
C709 C 0.50467 0.58502 0.83376 0.0
C710 C 0.42598 0.61594 0.8317 0.0
C711 C 0.3894 0.5813 0.82858 0.0
C712 C 0.42569 0.65084 0.83738 0.0
C713 C 0.46241 0.68837 0.84206 0.0
C714 C 0.48913 0.69424 0.85913 0.0
C715 C 0.525 0.72876 0.86272 0.0
C716 C 0.53469 0.7573 0.84911 0.0
C717 C 0.50789 0.75198 0.83234 0.0
C718 C 0.47162 0.7178 0.82892 0.0
C719 C 0.25241 0.59094 0.85337 0.0
C720 C 0.24513 0.6182 0.84422 0.0
C721 C 0.28743 0.59045 0.85126 0.0
C722 C 0.31631 0.61686 0.83963 0.0
C723 C 0.30914 0.64464 0.8309 0.0
C724 C 0.27423 0.64518 0.83308 0.0
C725 C 0.35359 0.61566 0.83649 0.0
C726 C 0.39013 0.65033 0.83951 0.0
C727 C 0.3537 0.58073 0.83062 0.0
C728 C 0.31683 0.54321 0.82533 0.0
C729 C 0.28832 0.53948 0.80981 0.0
C730 C 0.25356 0.50404 0.80491 0.0
C731 C 0.2471 0.47203 0.81531 0.0
C732 C 0.27545 0.47537 0.8306 0.0
C733 C 0.31025 0.51076 0.83558 0.0
H734 H 0.22017 0.44462 0.81149 0.0
H735 H 0.56279 0.78369 0.85161 0.0
H736 H 0.99858 0.53961 0.13447 0.0
H737 H 0.93808 0.47898 0.1372 0.0
H738 H 0.99651 0.45318 0.18688 0.0
H739 H 1.05762 0.51259 0.18317 0.0
H740 H 0.94923 0.38816 0.16707 0.0
H741 H 0.92495 0.48998 0.19191 0.0
H742 H 0.92639 0.55136 0.18715 0.0
H743 H 0.8439 0.49698 0.1325 0.0
H744 H 0.84266 0.43529 0.1367 0.0
H745 H 0.77613 0.23703 0.20249 0.0
H746 H 0.83659 0.29803 0.19938 0.0
H747 H 0.7776 0.32115 0.14876 0.0
H748 H 0.71709 0.26068 0.15229 0.0
H749 H 0.82457 0.38755 0.16868 0.0
H750 H 0.84708 0.28627 0.14345 0.0
H751 H 0.85126 0.22675 0.14438 0.0
H752 H 0.93811 0.28009 0.19734 0.0
H753 H 0.93409 0.33979 0.19687 0.0
C754 C 0.99871 0.52112 0.14601 0.0
C755 C 1.03364 0.53179 0.15862 0.0
C756 C 0.96355 0.48615 0.14776 0.0
C757 C 0.96121 0.46082 0.16276 0.0
C758 C 0.99637 0.4714 0.17518 0.0
C759 C 1.03173 0.50588 0.17308 0.0
C760 C 0.92275 0.42376 0.16557 0.0
C761 C 0.92226 0.38852 0.16777 0.0
C762 C 0.88633 0.42253 0.16593 0.0
C763 C 0.88392 0.45817 0.16455 0.0
C764 C 0.90692 0.49106 0.17896 0.0
C765 C 0.90784 0.52596 0.17629 0.0
C766 C 0.88544 0.52819 0.15945 0.0
C767 C 0.86141 0.49525 0.14547 0.0
C768 C 0.86053 0.46028 0.148 0.0
C769 C 0.77591 0.25527 0.19082 0.0
C770 C 0.74127 0.24363 0.17774 0.0
C771 C 0.81092 0.29032 0.18883 0.0
C772 C 0.81296 0.31494 0.17347 0.0
C773 C 0.77786 0.30349 0.16075 0.0
C774 C 0.7429 0.26856 0.16279 0.0
C775 C 0.85119 0.352 0.17048 0.0
C776 C 0.85158 0.38722 0.16818 0.0
C777 C 0.88751 0.35314 0.1699 0.0
C778 C 0.88996 0.31732 0.17026 0.0
C779 C 0.86686 0.28519 0.15539 0.0
C780 C 0.86923 0.25145 0.15582 0.0
C781 C 0.89485 0.2496 0.17095 0.0
C782 C 0.91823 0.28154 0.18565 0.0
C783 C 0.91593 0.31535 0.18531 0.0
H784 H 0.89666 0.22346 0.17126 0.0
H785 H 0.88654 0.55539 0.15727 0.0
H786 H 0.16995 0.59612 0.09014 0.0
H787 H 0.17346 0.59403 0.05264 0.0
H788 H 0.12548 0.66968 0.04817 0.0
H789 H 0.12295 0.67281 0.08575 0.0
H790 H 0.12231 0.56752 0.02081 0.0
H791 H 0.15648 0.72412 0.00826 0.0
H792 H 0.19176 0.7897 0.02744 0.0
H793 H 0.26426 0.75824 0.06368 0.0
H794 H 0.22984 0.69269 0.04451 0.0
H795 H 1.07212 0.57583 0.91611 0.0
H796 H 0.08116 0.58018 0.95384 0.0
H797 H 0.204 0.66091 0.95388 0.0
H798 H 0.19468 0.65832 0.91587 0.0
H799 H 0.17879 0.68566 0.98375 0.0
H800 H 0.16757 0.56374 0.96405 0.0
H801 H 0.13926 0.49816 0.94545 0.0
H802 H 1.03435 0.46065 0.97457 0.0
H803 H 1.06182 0.52617 -0.00686 0.0
C804 C 0.16025 0.61247 0.08122 0.0
C805 C 0.14625 0.63474 0.09108 0.0
C806 C 0.16223 0.61118 0.05969 0.0
C807 C 0.15019 0.63203 0.04742 0.0
C808 C 0.13581 0.65398 0.05722 0.0
C809 C 0.13417 0.65558 0.07878 0.0
C810 C 0.15174 0.63003 0.02437 0.0
C811 C 0.13475 0.59341 0.01277 0.0
C812 C 0.16891 0.66372 0.01371 0.0
C813 C 0.1903 0.70336 0.02506 0.0
C814 C 0.18009 0.73126 0.02024 0.0
C815 C 0.19992 0.76842 0.03113 0.0
C816 C 0.23015 0.77809 0.04681 0.0
C817 C 0.24075 0.75068 0.05158 0.0
C818 C 0.22107 0.7135 0.04071 0.0
C819 C 0.10112 0.59478 0.92406 0.0
C820 C 0.1326 0.61702 0.91279 0.0
C821 C 0.10635 0.59685 0.94575 0.0
C822 C 0.14338 0.62054 0.9569 0.0
C823 C 0.1751 0.64235 0.94573 0.0
C824 C 0.16981 0.64053 0.92393 0.0
C825 C 0.14836 0.62309 0.98018 0.0
C826 C 0.16655 0.65979 -0.00818 0.0
C827 C 0.13331 0.5895 0.99095 0.0
C828 C 0.11668 0.54997 0.97987 0.0
C829 C 0.13837 0.54158 0.96638 0.0
C830 C 0.12248 0.5044 0.95586 0.0
C831 C 0.085 0.47528 0.9588 0.0
C832 C 1.06337 0.48324 0.9723 0.0
C833 C 1.0791 0.52039 0.98285 0.0
H834 H 1.07275 0.44651 0.95063 0.0
H835 H 0.24541 0.80685 0.05525 0.0
H836 H 0.68232 0.14738 0.42504 0.0
H837 H 0.68853 0.14944 0.38764 0.0
H838 H 0.57053 0.12632 0.37594 0.0
H839 H 0.56405 0.12412 0.41302 0.0
H840 H 0.58386 0.08171 0.34868 0.0
H841 H 0.64832 0.21731 0.37501 0.0
H842 H 0.69692 0.27629 0.39749 0.0
H843 H 0.78962 0.26713 0.37257 0.0
H844 H 0.74151 0.20776 0.35012 0.0
H845 H 0.56937 0.12742 0.24751 0.0
H846 H 0.57478 0.13169 0.28543 0.0
H847 H 0.69274 0.154 0.28724 0.0
H848 H 0.68746 0.14986 0.24902 0.0
H849 H 0.68472 0.19729 0.31951 0.0
H850 H 0.62062 0.06409 0.29164 0.0
H851 H 0.57222 1.00574 0.26871 0.0
H852 H 0.47931 1.00974 0.2966 0.0
H853 H 0.52719 0.06854 0.31949 0.0
C854 C 0.65769 0.14273 0.41451 0.0
C855 C 0.62271 0.13566 0.42216 0.0
C856 C 0.66134 0.14408 0.3931 0.0
C857 C 0.63007 0.13828 0.37888 0.0
C858 C 0.5951 0.13087 0.38651 0.0
C859 C 0.59151 0.12976 0.40782 0.0
C860 C 0.63319 0.13949 0.35603 0.0
C861 C 0.60575 0.10715 0.34234 0.0
C862 C 0.6624 0.17216 0.34763 0.0
C863 C 0.69133 0.20786 0.36107 0.0
C864 C 0.67907 0.22769 0.37445 0.0
C865 C 0.70652 0.26122 0.38716 0.0
C866 C 0.74634 0.27538 0.38651 0.0
C867 C 0.75877 0.25609 0.37309 0.0
C868 C 0.73143 0.22251 0.36036 0.0
C869 C 0.59664 0.1336 0.25595 0.0
C870 C 0.62782 0.1378 0.24519 0.0
C871 C 0.59968 0.13598 0.27767 0.0
C872 C 0.63386 0.14229 0.28927 0.0
C873 C 0.66596 0.14886 0.27868 0.0
C874 C 0.66297 0.14662 0.25683 0.0
C875 C 0.63487 0.13983 0.31222 0.0
C876 C 0.66307 0.17177 0.32588 0.0
C877 C 0.60642 0.1067 0.32066 0.0
C878 C 0.57751 0.07092 0.30718 0.0
C879 C 0.58987 0.05267 0.2928 0.0
C880 C 0.56252 1.0195 0.27981 0.0
C881 C 0.5227 1.00408 0.28116 0.0
C882 C 0.51017 1.02174 0.29556 0.0
C883 C 0.5374 0.05497 0.30856 0.0
H884 H 0.50156 0.97842 0.27108 0.0
H885 H 0.76755 0.30135 0.39636 0.0
H886 H 0.69135 0.68744 0.75786 0.0
H887 H 0.68952 0.69153 0.72014 0.0
H888 H 0.58836 0.57661 0.7098 0.0
H889 H 0.58996 0.57226 0.74711 0.0
H890 H 0.64139 0.58451 0.68375 0.0
H891 H 0.58037 0.65708 0.70595 0.0
H892 H 0.5771 0.70924 0.72644 0.0
H893 H 0.67693 0.7952 0.70045 0.0
H894 H 0.68111 0.74349 0.68 0.0
H895 H 0.56737 0.56591 0.5805 0.0
H896 H 0.57419 0.57346 0.61849 0.0
H897 H 0.67111 0.68995 0.6192 0.0
H898 H 0.66377 0.68266 0.58094 0.0
H899 H 0.62744 0.68618 0.65021 0.0
H900 H 0.6868 0.61468 0.62656 0.0
H901 H 0.6902 0.56313 0.60554 0.0
H902 H 0.59561 0.47608 0.63428 0.0
H903 H 0.59122 0.52714 0.65526 0.0
C904 C 0.66868 0.66311 0.74755 0.0
C905 C 0.64078 0.62957 0.75563 0.0
C906 C 0.66759 0.66552 0.72597 0.0
C907 C 0.63867 0.6344 0.71205 0.0
C908 C 0.611 0.60097 0.72013 0.0
C909 C 0.61191 0.59864 0.74158 0.0
C910 C 0.63707 0.63594 0.68903 0.0
C911 C 0.63803 0.6066 0.67645 0.0
C912 C 0.63386 0.66536 0.6794 0.0
C913 C 0.63134 0.69643 0.69164 0.0
C914 C 0.60184 0.6871 0.70474 0.0
C915 C 0.59977 0.71658 0.71632 0.0
C916 C 0.62687 0.75551 0.7148 0.0
C917 C 0.65601 0.76503 0.70165 0.0
C918 C 0.65823 0.73566 0.69005 0.0
C919 C 0.58984 0.59333 0.58874 0.0
C920 C 0.61528 0.62356 0.57772 0.0
C921 C 0.59384 0.59758 0.61049 0.0
C922 C 0.62382 0.63194 0.62182 0.0
C923 C 0.64792 0.66306 0.61086 0.0
C924 C 0.64366 0.65892 0.589 0.0
C925 C 0.63091 0.63425 0.64496 0.0
C926 C 0.63112 0.6643 0.65753 0.0
C927 C 0.63547 0.6056 0.65465 0.0
C928 C 0.63852 0.57476 0.64239 0.0
C929 C 0.6666 0.58455 0.62834 0.0
C930 C 0.6687 0.55542 0.61643 0.0
C931 C 0.64311 0.51637 0.61856 0.0
C932 C 0.61541 0.50636 0.63265 0.0
C933 C 0.61313 0.53539 0.64457 0.0
H934 H 0.64483 0.49389 0.60934 0.0
H935 H 0.62522 0.77829 0.72377 0.0
H936 H 0.65314 0.15349 0.55848 0.0
H937 H 0.64411 0.13808 0.59451 0.0
H938 H 0.51991 0.06798 0.57743 0.0
H939 H 0.52867 0.08277 0.54155 0.0
H940 H 0.54183 0.11719 0.61539 0.0
H941 H 0.56821 1.02355 0.58053 0.0
H942 H 0.60698 1.00418 0.56009 0.0
H943 H 0.70393 0.06336 0.60778 0.0
H944 H 0.6659 0.08364 0.62835 0.0
H945 H 0.47757 1.00396 0.69889 0.0
H946 H 0.49093 1.02239 0.66373 0.0
H947 H 0.61453 0.07832 0.6828 0.0
H948 H 0.60138 0.05907 0.71777 0.0
H949 H 0.5963 1.03959 0.64446 0.0
H950 H 0.57194 0.13273 0.67968 0.0
H951 H 0.53587 0.15554 0.70023 0.0
H952 H 0.43847 0.10088 0.65266 0.0
H953 H 0.4739 0.07754 0.63187 0.0
C954 C 0.6239 0.13522 0.56249 0.0
C955 C 0.5916 0.11919 0.54719 0.0
C956 C 0.61882 0.12633 0.58302 0.0
C957 C 0.58136 0.10171 0.58853 0.0
C958 C 0.54902 0.08702 0.57346 0.0
C959 C 0.55411 0.0954 0.55295 0.0
C960 C 0.57569 0.08977 0.60976 0.0
C961 C 0.55343 0.09994 0.62171 0.0
C962 C 0.59165 0.06806 0.6181 0.0
C963 C 0.61436 0.05548 0.60587 0.0
C964 C 0.5979 1.03272 0.58658 0.0
C965 C 0.61972 1.02152 0.57498 0.0
C966 C 0.65793 1.03263 0.5826 0.0
C967 C 0.67435 0.05484 0.60187 0.0
C968 C 0.65267 0.06618 0.61351 0.0
C969 C 0.50754 1.0195 0.69547 0.0
C970 C 0.53841 1.0303 0.71112 0.0
C971 C 0.51516 1.03037 0.67545 0.0
C972 C 0.55375 0.0523 0.67076 0.0
C973 C 0.58456 0.06161 0.6861 0.0
C974 C 0.57698 1.05078 0.7061 0.0
C975 C 0.56202 0.06664 0.65008 0.0
C976 C 0.58481 0.05697 0.63822 0.0
C977 C 0.54686 0.08915 0.64188 0.0
C978 C 0.52542 0.10307 0.65433 0.0
C979 C 0.54271 0.12532 0.67369 0.0
C980 C 0.52242 0.13838 0.68536 0.0
C981 C 0.48484 0.1295 0.67781 0.0
C982 C 0.46755 0.10767 0.65851 0.0
C983 C 0.48776 0.09458 0.64675 0.0
H984 H 0.46917 0.13964 0.68687 0.0
H985 H 0.67478 1.02394 0.5736 0.0
H986 H 0.63565 0.53521 0.87098 0.0
H987 H 0.62758 0.51561 0.90589 0.0
H988 H 0.6373 0.62432 0.92827 0.0
H989 H 0.64523 0.64448 0.89292 0.0
H990 H 0.68212 0.59712 0.95404 0.0
H991 H 0.55254 0.55445 0.92307 0.0
H992 H 0.49793 0.5234 0.89499 0.0
H993 H 0.49456 0.41468 0.89845 0.0
H994 H 0.54961 0.44525 0.92633 0.0
H995 H 0.61872 0.519 0.04981 0.0
H996 H 0.62746 0.55211 0.01836 0.0
H997 H 0.59379 0.44486 0.98089 0.0
H998 H 0.5842 0.41151 0.0123 0.0
H999 H 0.55856 0.47881 0.96427 0.0
H1000 H 0.69088 0.52093 -0.00826 0.0
H1001 H 0.74806 0.55077 0.01831 0.0
H1002 H 0.74855 0.65876 0.02044 0.0
H1003 H 0.69101 0.62937 -0.00593 0.0
C1004 C 0.63633 0.55524 0.88325 0.0
C1005 C 0.64093 0.59142 0.87913 0.0
C1006 C 0.63163 0.54387 0.90322 0.0
C1007 C 0.63152 0.56838 0.91955 0.0
C1008 C 0.63724 0.60503 0.91577 0.0
C1009 C 0.64163 0.61641 0.89562 0.0
C1010 C 0.62428 0.55449 0.94031 0.0
C1011 C 0.65485 0.5718 0.95652 0.0
C1012 C 0.58897 0.52093 0.94323 0.0
C1013 C 0.55537 0.50223 0.92672 0.0
C1014 C 0.54032 0.52398 0.91776 0.0
C1015 C 0.50927 0.50646 0.90189 0.0
C1016 C 0.49282 0.4671 0.89493 0.0
C1017 C 0.50733 0.44517 0.90386 0.0
C1018 C 0.53843 0.46257 0.91972 0.0
C1019 C 0.61358 0.50262 0.03486 0.0
C1020 C 0.60099 0.46273 0.03347 0.0
C1021 C 0.61858 0.52157 0.0169 0.0
C1022 C 0.6117 0.5011 -0.00275 0.0
C1023 C 0.59919 0.46125 -0.00413 0.0
C1024 C 0.59377 0.44221 0.0138 0.0
C1025 C 0.61678 0.52082 0.97803 0.0
C1026 C 0.58569 0.50454 0.96204 0.0
C1027 C 0.65176 0.55513 0.97529 0.0
C1028 C 0.68637 0.57282 0.99112 0.0
C1029 C 0.70299 0.55094 -0.002 0.0
C1030 C 0.73549 0.56779 0.013 0.0
C1031 C 0.75185 0.6066 0.02111 0.0
C1032 C 0.7358 0.62868 0.01418 0.0
C1033 C 0.70326 0.61195 -0.0008 0.0
H1034 H 0.77702 0.6196 0.03271 0.0
H1035 H 0.46879 0.45359 0.88263 0.0
H1036 H 0.09095 0.65449 0.22075 0.0
H1037 H 0.08133 0.64184 0.25715 0.0
H1038 H 0.16293 0.60046 0.25852 0.0
H1039 H 0.1733 0.61358 0.22256 0.0
H1040 H 0.08702 0.54973 0.27323 0.0
H1041 H 0.19474 0.68384 0.28095 0.0
H1042 H 0.22487 0.75285 0.27494 0.0
H1043 H 0.13417 0.76081 0.30311 0.0
H1044 H 0.1032 0.69163 0.30902 0.0
H1045 H 0.14263 0.53887 0.37668 0.0
H1046 H 0.13695 0.54976 0.34021 0.0
H1047 H 0.08274 0.61701 0.35599 0.0
H1048 H 0.08949 0.60706 0.3926 0.0
H1049 H 0.13479 0.65388 0.33186 0.0
H1050 H 1.03032 0.52438 0.32831 0.0
H1051 H 0.99613 0.45508 0.33391 0.0
H1052 H 1.07274 0.43664 0.29747 0.0
H1053 H 0.10779 0.50598 0.29189 0.0
C1054 C 0.10706 0.64301 0.2289 0.0
C1055 C 0.13301 0.63519 0.21883 0.0
C1056 C 0.10148 0.63577 0.24961 0.0
C1057 C 0.12134 0.6201 0.26037 0.0
C1058 C 0.14728 0.61243 0.25039 0.0
C1059 C 0.15335 0.62023 0.22988 0.0
C1060 C 0.11523 0.6113 0.28206 0.0
C1061 C 0.09756 0.57238 0.28613 0.0
C1062 C 0.12767 0.6409 0.29865 0.0
C1063 C 0.1464 0.68248 0.29518 0.0
C1064 C 0.18101 0.70021 0.28567 0.0
C1065 C 0.19829 0.73937 0.28233 0.0
C1066 C 0.18137 0.76117 0.28857 0.0
C1067 C 0.1472 0.74387 0.29824 0.0
C1068 C 0.12979 0.7047 0.3016 0.0
C1069 C 0.129 0.55548 0.37228 0.0
C1070 C 0.1165 0.57213 0.3874 0.0
C1071 C 0.12564 0.56162 0.35144 0.0
C1072 C 0.10895 0.58383 0.34527 0.0
C1073 C 0.09574 0.59983 0.36035 0.0
C1074 C 0.09958 0.59412 0.38123 0.0
C1075 C 0.10736 0.59207 0.32329 0.0
C1076 C 0.12356 0.63094 0.31908 0.0
C1077 C 0.09285 0.56228 0.30652 0.0
C1078 C 1.07188 0.52049 0.30981 0.0
C1079 C 1.04008 0.50562 0.32162 0.0
C1080 C 1.0205 0.46632 0.32477 0.0
C1081 C 1.0323 0.44149 0.31609 0.0
C1082 C 1.06365 0.45591 0.3042 0.0
C1083 C 0.08335 0.49521 0.30101 0.0
H1084 H 1.01711 0.41106 0.31854 0.0
H1085 H 0.19479 0.79149 0.28597 0.0
loop_
_geom_bond_atom_site_label_1
_geom_bond_atom_site_label_2
_geom_bond_distance
_geom_bond_site_symmetry_2
_ccdc_geom_bond_type
Tb0 C9 2.764 1_455 S
Tb0 O10 2.325 1_455 S
Tb0 O13 2.303 . S
Tb0 O17 2.322 . S
Tb0 O18 2.349 . S
Tb0 O21 2.415 1_455 S
Tb0 O22 2.399 1_455 S
Tb1 O11 2.322 . S
Tb1 O12 2.349 . S
Tb1 O14 2.415 . S
Tb1 O15 2.399 . S
Tb1 O16 2.325 . S
Tb1 O19 2.303 . S
Tb1 C30 2.764 . S
C2 O18 1.261 . S
C2 O19 1.257 . S
C3 C6 1.358 . S
C3 C7 1.332 . S
C3 C9 1.504 . S
C4 C5 1.373 . S
C4 C8 1.308 . S
C5 C4 1.373 . S
C5 C6 1.429 . S
C5 H32 0.932 . S
C6 C3 1.358 . S
C6 C5 1.429 . S
C6 H33 0.930 . S
C7 C3 1.332 . S
C7 C8 1.394 . S
C7 H34 0.932 . S
C8 C4 1.308 . S
C8 C7 1.394 . S
C8 H35 0.929 . S
C9 Tb0 2.764 1_655 S
C9 C3 1.504 . S
C9 O21 1.239 . S
C9 O22 1.263 . S
O10 Tb0 2.325 1_655 S
O10 C20 1.236 . S
O11 Tb1 2.322 . S
O11 C20 1.257 1_455 S
O12 Tb1 2.349 . S
O12 C23 1.261 . S
O13 Tb0 2.303 . S
O13 C23 1.257 . S
O14 Tb1 2.415 . S
O14 C30 1.239 . S
O15 Tb1 2.399 . S
O15 C30 1.263 . S
O16 Tb1 2.325 . S
O16 C31 1.236 . S
O17 Tb0 2.322 . S
O17 C31 1.257 . S
O18 Tb0 2.349 . S
O18 C2 1.261 . S
O19 Tb1 2.303 . S
O19 C2 1.257 . S
C20 O10 1.236 . S
C20 O11 1.257 1_655 S
O21 Tb0 2.415 1_655 S
O21 C9 1.239 . S
O22 Tb0 2.399 1_655 S
O22 C9 1.263 . S
C23 O12 1.261 . S
C23 O13 1.257 . S
C24 C27 1.358 . S
C24 C28 1.332 . S
C24 C30 1.504 . S
C25 C26 1.373 . S
C25 C29 1.308 . S
C26 C25 1.373 . S
C26 C27 1.429 . S
C26 H36 0.932 . S
C27 C24 1.358 . S
C27 C26 1.429 . S
C27 H37 0.930 . S
C28 C24 1.332 . S
C28 C29 1.394 . S
C28 H38 0.932 . S
C29 C25 1.308 . S
C29 C28 1.394 . S
C29 H39 0.929 . S
C30 Tb1 2.764 . S
C30 O14 1.239 . S
C30 O15 1.263 . S
C30 C24 1.504 . S
C31 O16 1.236 . S
C31 O17 1.257 . S
H32 C5 0.932 . S
H33 C6 0.930 . S
H34 C7 0.932 . S
H35 C8 0.929 . S
H36 C26 0.932 . S
H37 C27 0.930 . S
H38 C28 0.932 . S
H39 C29 0.929 . S
Tb40 C49 2.764 1_545 S
Tb40 O50 2.325 1_545 S
Tb40 O53 2.303 . S
Tb40 O57 2.322 . S
Tb40 O58 2.349 . S
Tb40 O61 2.415 1_545 S
Tb40 O62 2.399 1_545 S
Tb41 O51 2.322 . S
Tb41 O52 2.349 . S
Tb41 O54 2.415 . S
Tb41 O55 2.399 . S
Tb41 O56 2.325 . S
Tb41 O59 2.303 . S
Tb41 C70 2.764 . S
C42 O58 1.261 . S
C42 O59 1.257 . S
C43 C46 1.358 . S
C43 C47 1.332 . S
C43 C49 1.504 . S
C44 C45 1.373 . S
C44 C48 1.308 . S
C45 C44 1.373 . S
C45 C46 1.429 . S
C45 H72 0.932 . S
C46 C43 1.358 . S
C46 C45 1.429 . S
C46 H73 0.930 . S
C47 C43 1.332 . S
C47 C48 1.394 . S
C47 H74 0.932 . S
C48 C44 1.308 . S
C48 C47 1.394 . S
C48 H75 0.929 . S
C49 Tb40 2.764 1_565 S
C49 C43 1.504 . S
C49 O61 1.239 . S
C49 O62 1.263 . S
O50 Tb40 2.325 1_565 S
O50 C60 1.236 . S
O51 Tb41 2.322 . S
O51 C60 1.257 1_545 S
O52 Tb41 2.349 . S
O52 C63 1.261 . S
O53 Tb40 2.303 . S
O53 C63 1.257 . S
O54 Tb41 2.415 . S
O54 C70 1.239 . S
O55 Tb41 2.399 . S
O55 C70 1.263 . S
O56 Tb41 2.325 . S
O56 C71 1.236 . S
O57 Tb40 2.322 . S
O57 C71 1.257 . S
O58 Tb40 2.349 . S
O58 C42 1.261 . S
O59 Tb41 2.303 . S
O59 C42 1.257 . S
C60 O50 1.236 . S
C60 O51 1.257 1_565 S
O61 Tb40 2.415 1_565 S
O61 C49 1.239 . S
O62 Tb40 2.399 1_565 S
O62 C49 1.263 . S
C63 O52 1.261 . S
C63 O53 1.257 . S
C64 C67 1.358 . S
C64 C68 1.332 . S
C64 C70 1.504 . S
C65 C66 1.373 . S
C65 C69 1.308 . S
C66 C65 1.373 . S
C66 C67 1.429 . S
C66 H76 0.932 . S
C67 C64 1.358 . S
C67 C66 1.429 . S
C67 H77 0.930 . S
C68 C64 1.332 . S
C68 C69 1.394 . S
C68 H78 0.932 . S
C69 C65 1.308 . S
C69 C68 1.394 . S
C69 H79 0.929 . S
C70 Tb41 2.764 . S
C70 O54 1.239 . S
C70 O55 1.263 . S
C70 C64 1.504 . S
C71 O56 1.236 . S
C71 O57 1.257 . S
H72 C45 0.932 . S
H73 C46 0.930 . S
H74 C47 0.932 . S
H75 C48 0.929 . S
H76 C66 0.932 . S
H77 C67 0.930 . S
H78 C68 0.932 . S
H79 C69 0.929 . S
Tb80 C89 2.764 . S
Tb80 O90 2.325 . S
Tb80 O93 2.303 . S
Tb80 O97 2.322 . S
Tb80 O98 2.349 . S
Tb80 O101 2.415 . S
Tb80 O102 2.399 . S
Tb81 O91 2.322 . S
Tb81 O92 2.349 . S
Tb81 O94 2.415 . S
Tb81 O95 2.399 . S
Tb81 O96 2.325 . S
Tb81 O99 2.303 . S
Tb81 C110 2.764 . S
C82 O98 1.261 . S
C82 O99 1.257 . S
C83 C86 1.358 . S
C83 C87 1.332 . S
C83 C89 1.504 . S
C84 C85 1.373 . S
C84 C88 1.308 . S
C85 C84 1.373 . S
C85 C86 1.429 . S
C85 H112 0.932 . S
C86 C83 1.358 . S
C86 C85 1.429 . S
C86 H113 0.930 . S
C87 C83 1.332 . S
C87 C88 1.394 . S
C87 H114 0.932 . S
C88 C84 1.308 . S
C88 C87 1.394 . S
C88 H115 0.929 . S
C89 Tb80 2.764 . S
C89 C83 1.504 . S
C89 O101 1.239 . S
C89 O102 1.263 . S
O90 Tb80 2.325 . S
O90 C100 1.236 . S
O91 Tb81 2.322 . S
O91 C100 1.257 . S
O92 Tb81 2.349 . S
O92 C103 1.261 . S
O93 Tb80 2.303 . S
O93 C103 1.257 . S
O94 Tb81 2.415 . S
O94 C110 1.239 . S
O95 Tb81 2.399 . S
O95 C110 1.263 . S
O96 Tb81 2.325 . S
O96 C111 1.236 . S
O97 Tb80 2.322 . S
O97 C111 1.257 . S
O98 Tb80 2.349 . S
O98 C82 1.261 . S
O99 Tb81 2.303 . S
O99 C82 1.257 . S
C100 O90 1.236 . S
C100 O91 1.257 . S
O101 Tb80 2.415 . S
O101 C89 1.239 . S
O102 Tb80 2.399 . S
O102 C89 1.263 . S
C103 O92 1.261 . S
C103 O93 1.257 . S
C104 C107 1.358 . S
C104 C108 1.332 . S
C104 C110 1.504 . S
C105 C106 1.373 . S
C105 C109 1.308 . S
C106 C105 1.373 . S
C106 C107 1.429 . S
C106 H116 0.932 . S
C107 C104 1.358 . S
C107 C106 1.429 . S
C107 H117 0.930 . S
C108 C104 1.332 . S
C108 C109 1.394 . S
C108 H118 0.932 . S
C109 C105 1.308 . S
C109 C108 1.394 . S
C109 H119 0.929 . S
C110 Tb81 2.764 . S
C110 O94 1.239 . S
C110 O95 1.263 . S
C110 C104 1.504 . S
C111 O96 1.236 . S
C111 O97 1.257 . S
H112 C85 0.932 . S
H113 C86 0.930 . S
H114 C87 0.932 . S
H115 C88 0.929 . S
H116 C106 0.932 . S
H117 C107 0.930 . S
H118 C108 0.932 . S
H119 C109 0.929 . S
H120 C123 0.929 . S
H121 C126 0.929 . S
H122 C128 0.930 . S
C123 H120 0.929 . S
C123 C124 1.398 . S
C123 C125 1.396 . S
C124 C123 1.398 . S
C124 C128 1.407 . S
C125 C123 1.396 . S
C125 C126 1.394 . S
C126 H121 0.929 . S
C126 C125 1.394 . S
C126 C127 1.382 . S
C127 C126 1.382 . S
C127 C128 1.392 . S
C127 N129 1.420 . S
C128 H122 0.930 . S
C128 C124 1.407 . S
C128 C127 1.392 . S
N129 C127 1.420 . S
N129 C130 1.244 . S
C130 N129 1.244 . S
H131 C134 0.929 . S
H132 C137 0.929 . S
H133 C139 0.930 . S
C134 H131 0.929 . S
C134 C135 1.398 . S
C134 C136 1.396 . S
C135 C134 1.398 . S
C135 C139 1.407 . S
C136 C134 1.396 . S
C136 C137 1.394 . S
C137 H132 0.929 . S
C137 C136 1.394 . S
C137 C138 1.382 . S
C138 C137 1.382 . S
C138 C139 1.392 . S
C138 N140 1.420 . S
C139 H133 0.930 . S
C139 C135 1.407 . S
C139 C138 1.392 . S
N140 C138 1.420 . S
N140 C141 1.244 . S
C141 N140 1.244 . S
H142 C145 0.929 . S
H143 C148 0.929 . S
H144 C150 0.930 . S
C145 H142 0.929 . S
C145 C146 1.398 . S
C145 C147 1.396 . S
C146 C145 1.398 . S
C146 C150 1.407 . S
C147 C145 1.396 . S
C147 C148 1.394 . S
C148 H143 0.929 . S
C148 C147 1.394 . S
C148 C149 1.382 . S
C149 C148 1.382 . S
C149 C150 1.392 . S
C149 N151 1.420 . S
C150 H144 0.930 . S
C150 C146 1.407 . S
C150 C149 1.392 . S
N151 C149 1.420 . S
N151 C152 1.244 . S
C152 N151 1.244 . S
H153 C156 0.929 . S
H154 C159 0.929 . S
H155 C161 0.930 . S
C156 H153 0.929 . S
C156 C157 1.398 . S
C156 C158 1.396 . S
C157 C156 1.398 . S
C157 C161 1.407 . S
C158 C156 1.396 . S
C158 C159 1.394 1_455 S
C159 H154 0.929 . S
C159 C158 1.394 1_655 S
C159 C160 1.382 . S
C160 C159 1.382 . S
C160 C161 1.392 1_655 S
C160 N162 1.420 . S
C161 H155 0.930 . S
C161 C157 1.407 . S
C161 C160 1.392 1_455 S
N162 C160 1.420 . S
N162 C163 1.244 . S
C163 N162 1.244 . S
H164 C167 0.929 . S
H165 C170 0.929 1_565 S
H166 C172 0.930 . S
C167 H164 0.929 . S
C167 C168 1.398 . S
C167 C169 1.396 . S
C168 C167 1.398 . S
C168 C172 1.407 . S
C169 C167 1.396 . S
C169 C170 1.394 . S
C170 H165 0.929 1_545 S
C170 C169 1.394 . S
C170 C171 1.382 . S
C171 C170 1.382 . S
C171 C172 1.392 . S
C171 N173 1.420 1_545 S
C172 H166 0.930 . S
C172 C168 1.407 . S
C172 C171 1.392 . S
N173 C171 1.420 1_565 S
N173 C174 1.244 . S
C174 N173 1.244 . S
H175 C178 0.929 . S
H176 C181 0.929 . S
H177 C183 0.930 . S
C178 H175 0.929 . S
C178 C179 1.398 . S
C178 C180 1.396 . S
C179 C178 1.398 . S
C179 C183 1.407 . S
C180 C178 1.396 . S
C180 C181 1.394 . S
C181 H176 0.929 . S
C181 C180 1.394 . S
C181 C182 1.382 . S
C182 C181 1.382 . S
C182 C183 1.392 . S
C182 N184 1.420 . S
C183 H177 0.930 . S
C183 C179 1.407 . S
C183 C182 1.392 . S
N184 C182 1.420 . S
N184 C185 1.244 . S
C185 N184 1.244 . S
H186 C204 0.951 . S
H187 C206 0.951 . S
H188 C208 0.950 . S
H189 C209 0.950 . S
H190 C211 0.950 . S
H191 C214 0.950 . S
H192 C215 0.950 . S
H193 C217 0.950 . S
H194 C218 0.950 . S
H195 C219 0.951 . S
H196 C221 0.951 . S
H197 C223 0.950 . S
H198 C224 0.950 . S
H199 C226 0.950 . S
H200 C229 0.950 . S
H201 C230 0.950 . S
H202 C232 0.950 . S
H203 C233 0.950 . S
C204 H186 0.951 . S
C204 C205 1.366 . S
C204 C206 1.388 . S
C205 C204 1.366 . S
C205 C209 1.385 . S
C206 H187 0.951 . S
C206 C204 1.388 . S
C206 C207 1.366 . S
C207 C206 1.366 . S
C207 C208 1.414 . S
C207 C210 1.499 . S
C208 H188 0.950 . S
C208 C207 1.414 . S
C208 C209 1.374 . S
C209 H189 0.950 . S
C209 C205 1.385 . S
C209 C208 1.374 . S
C210 C207 1.499 . S
C210 C211 1.373 . S
C210 C212 1.389 . S
C211 H190 0.950 . S
C211 C210 1.373 . S
C211 C227 1.377 . S
C212 C210 1.389 . S
C212 C213 1.524 . S
C212 C226 1.377 . S
C213 C212 1.524 . S
C213 C214 1.397 . S
C213 C218 1.363 . S
C214 H191 0.950 . S
C214 C213 1.397 . S
C214 C215 1.334 . S
C215 H192 0.950 . S
C215 C214 1.334 . S
C215 C216 1.287 . S
C216 C215 1.287 . S
C216 C217 1.524 . S
C216 H235 0.913 . S
C217 H193 0.950 . S
C217 C216 1.524 . S
C217 C218 1.415 . S
C218 H194 0.950 . S
C218 C213 1.363 . S
C218 C217 1.415 . S
C219 H195 0.951 . S
C219 C220 1.366 . S
C219 C221 1.388 . S
C220 C219 1.366 . S
C220 C224 1.385 . S
C221 H196 0.951 . S
C221 C219 1.388 . S
C221 C222 1.366 . S
C222 C221 1.366 . S
C222 C223 1.414 . S
C222 C225 1.499 . S
C223 H197 0.950 . S
C223 C222 1.414 . S
C223 C224 1.374 . S
C224 H198 0.950 . S
C224 C220 1.385 . S
C224 C223 1.374 . S
C225 C222 1.499 . S
C225 C226 1.373 . S
C225 C227 1.389 . S
C226 H199 0.950 . S
C226 C212 1.377 . S
C226 C225 1.373 . S
C227 C211 1.377 . S
C227 C225 1.389 . S
C227 C228 1.524 . S
C228 C227 1.524 . S
C228 C229 1.397 . S
C228 C233 1.363 . S
C229 H200 0.950 . S
C229 C228 1.397 . S
C229 C230 1.334 . S
C230 H201 0.950 . S
C230 C229 1.334 . S
C230 C231 1.287 . S
C231 C230 1.287 . S
C231 C232 1.524 . S
C231 H234 0.999 . S
C232 H202 0.950 . S
C232 C231 1.524 . S
C232 C233 1.415 . S
C233 H203 0.950 . S
C233 C228 1.363 . S
C233 C232 1.415 . S
H234 C231 0.999 . S
H235 C216 0.913 . S
H236 C254 0.951 . S
H237 C256 0.951 . S
H238 C258 0.950 . S
H239 C259 0.950 . S
H240 C261 0.950 . S
H241 C264 0.950 . S
H242 C265 0.950 . S
H243 C267 0.950 . S
H244 C268 0.950 . S
H245 C269 0.951 . S
H246 C271 0.951 . S
H247 C273 0.950 . S
H248 C274 0.950 . S
H249 C276 0.950 . S
H250 C279 0.950 . S
H251 C280 0.950 . S
H252 C282 0.950 . S
H253 C283 0.950 . S
C254 H236 0.951 . S
C254 C255 1.366 . S
C254 C256 1.388 . S
C255 C254 1.366 . S
C255 C259 1.385 . S
C256 H237 0.951 . S
C256 C254 1.388 . S
C256 C257 1.366 . S
C257 C256 1.366 . S
C257 C258 1.414 . S
C257 C260 1.499 . S
C258 H238 0.950 . S
C258 C257 1.414 . S
C258 C259 1.374 . S
C259 H239 0.950 . S
C259 C255 1.385 . S
C259 C258 1.374 . S
C260 C257 1.499 . S
C260 C261 1.373 . S
C260 C262 1.389 . S
C261 H240 0.950 . S
C261 C260 1.373 . S
C261 C277 1.377 . S
C262 C260 1.389 . S
C262 C263 1.524 . S
C262 C276 1.377 . S
C263 C262 1.524 . S
C263 C264 1.397 . S
C263 C268 1.363 . S
C264 H241 0.950 . S
C264 C263 1.397 . S
C264 C265 1.334 . S
C265 H242 0.950 . S
C265 C264 1.334 . S
C265 C266 1.287 . S
C266 C265 1.287 . S
C266 C267 1.524 . S
C266 H285 0.913 . S
C267 H243 0.950 . S
C267 C266 1.524 . S
C267 C268 1.415 . S
C268 H244 0.950 . S
C268 C263 1.363 . S
C268 C267 1.415 . S
C269 H245 0.951 . S
C269 C270 1.366 . S
C269 C271 1.388 . S
C270 C269 1.366 . S
C270 C274 1.385 . S
C271 H246 0.951 . S
C271 C269 1.388 . S
C271 C272 1.366 . S
C272 C271 1.366 . S
C272 C273 1.414 . S
C272 C275 1.499 . S
C273 H247 0.950 . S
C273 C272 1.414 . S
C273 C274 1.374 . S
C274 H248 0.950 . S
C274 C270 1.385 . S
C274 C273 1.374 . S
C275 C272 1.499 . S
C275 C276 1.373 . S
C275 C277 1.389 . S
C276 H249 0.950 . S
C276 C262 1.377 . S
C276 C275 1.373 . S
C277 C261 1.377 . S
C277 C275 1.389 . S
C277 C278 1.524 . S
C278 C277 1.524 . S
C278 C279 1.397 . S
C278 C283 1.363 . S
C279 H250 0.950 . S
C279 C278 1.397 . S
C279 C280 1.334 . S
C280 H251 0.950 . S
C280 C279 1.334 . S
C280 C281 1.287 . S
C281 C280 1.287 . S
C281 C282 1.524 . S
C281 H284 0.999 . S
C282 H252 0.950 . S
C282 C281 1.524 . S
C282 C283 1.415 . S
C283 H253 0.950 . S
C283 C278 1.363 . S
C283 C282 1.415 . S
H284 C281 0.999 . S
H285 C266 0.913 . S
H286 C304 0.951 . S
H287 C306 0.951 . S
H288 C308 0.950 . S
H289 C309 0.950 . S
H290 C311 0.950 . S
H291 C314 0.950 . S
H292 C315 0.950 . S
H293 C317 0.950 . S
H294 C318 0.950 . S
H295 C319 0.951 . S
H296 C321 0.951 . S
H297 C323 0.950 . S
H298 C324 0.950 . S
H299 C326 0.950 . S
H300 C329 0.950 . S
H301 C330 0.950 . S
H302 C332 0.950 . S
H303 C333 0.950 . S
C304 H286 0.951 . S
C304 C305 1.366 . S
C304 C306 1.388 . S
C305 C304 1.366 . S
C305 C309 1.385 . S
C306 H287 0.951 . S
C306 C304 1.388 . S
C306 C307 1.366 . S
C307 C306 1.366 . S
C307 C308 1.414 . S
C307 C310 1.499 . S
C308 H288 0.950 . S
C308 C307 1.414 . S
C308 C309 1.374 . S
C309 H289 0.950 . S
C309 C305 1.385 . S
C309 C308 1.374 . S
C310 C307 1.499 . S
C310 C311 1.373 . S
C310 C312 1.389 . S
C311 H290 0.950 . S
C311 C310 1.373 . S
C311 C327 1.377 . S
C312 C310 1.389 . S
C312 C313 1.524 . S
C312 C326 1.377 . S
C313 C312 1.524 . S
C313 C314 1.397 . S
C313 C318 1.363 . S
C314 H291 0.950 . S
C314 C313 1.397 . S
C314 C315 1.334 . S
C315 H292 0.950 . S
C315 C314 1.334 . S
C315 C316 1.287 . S
C316 C315 1.287 . S
C316 C317 1.524 . S
C316 H335 0.913 . S
C317 H293 0.950 . S
C317 C316 1.524 . S
C317 C318 1.415 . S
C318 H294 0.950 . S
C318 C313 1.363 . S
C318 C317 1.415 . S
C319 H295 0.951 . S
C319 C320 1.366 . S
C319 C321 1.388 . S
C320 C319 1.366 . S
C320 C324 1.385 . S
C321 H296 0.951 . S
C321 C319 1.388 . S
C321 C322 1.366 . S
C322 C321 1.366 . S
C322 C323 1.414 . S
C322 C325 1.499 . S
C323 H297 0.950 . S
C323 C322 1.414 . S
C323 C324 1.374 . S
C324 H298 0.950 . S
C324 C320 1.385 . S
C324 C323 1.374 . S
C325 C322 1.499 . S
C325 C326 1.373 . S
C325 C327 1.389 . S
C326 H299 0.950 . S
C326 C312 1.377 . S
C326 C325 1.373 . S
C327 C311 1.377 . S
C327 C325 1.389 . S
C327 C328 1.524 . S
C328 C327 1.524 . S
C328 C329 1.397 . S
C328 C333 1.363 . S
C329 H300 0.950 . S
C329 C328 1.397 . S
C329 C330 1.334 . S
C330 H301 0.950 . S
C330 C329 1.334 . S
C330 C331 1.287 . S
C331 C330 1.287 . S
C331 C332 1.524 . S
C331 H334 0.999 . S
C332 H302 0.950 . S
C332 C331 1.524 . S
C332 C333 1.415 . S
C333 H303 0.950 . S
C333 C328 1.363 . S
C333 C332 1.415 . S
H334 C331 0.999 . S
H335 C316 0.913 . S
H336 C354 0.951 . S
H337 C356 0.951 . S
H338 C358 0.950 . S
H339 C359 0.950 . S
H340 C361 0.950 . S
H341 C364 0.950 . S
H342 C365 0.950 . S
H343 C367 0.950 . S
H344 C368 0.950 . S
H345 C369 0.951 . S
H346 C371 0.951 . S
H347 C373 0.950 . S
H348 C374 0.950 . S
H349 C376 0.950 . S
H350 C379 0.950 . S
H351 C380 0.950 . S
H352 C382 0.950 . S
H353 C383 0.950 . S
C354 H336 0.951 . S
C354 C355 1.366 . S
C354 C356 1.388 . S
C355 C354 1.366 . S
C355 C359 1.385 . S
C356 H337 0.951 . S
C356 C354 1.388 . S
C356 C357 1.366 . S
C357 C356 1.366 . S
C357 C358 1.414 . S
C357 C360 1.499 . S
C358 H338 0.950 . S
C358 C357 1.414 . S
C358 C359 1.374 . S
C359 H339 0.950 . S
C359 C355 1.385 . S
C359 C358 1.374 . S
C360 C357 1.499 . S
C360 C361 1.373 . S
C360 C362 1.389 . S
C361 H340 0.950 . S
C361 C360 1.373 . S
C361 C377 1.377 . S
C362 C360 1.389 . S
C362 C363 1.524 . S
C362 C376 1.377 . S
C363 C362 1.524 . S
C363 C364 1.397 . S
C363 C368 1.363 . S
C364 H341 0.950 . S
C364 C363 1.397 . S
C364 C365 1.334 . S
C365 H342 0.950 . S
C365 C364 1.334 . S
C365 C366 1.287 . S
C366 C365 1.287 . S
C366 C367 1.524 . S
C366 H385 0.913 . S
C367 H343 0.950 . S
C367 C366 1.524 . S
C367 C368 1.415 . S
C368 H344 0.950 . S
C368 C363 1.363 . S
C368 C367 1.415 . S
C369 H345 0.951 . S
C369 C370 1.366 . S
C369 C371 1.388 . S
C370 C369 1.366 . S
C370 C374 1.385 . S
C371 H346 0.951 . S
C371 C369 1.388 . S
C371 C372 1.366 . S
C372 C371 1.366 . S
C372 C373 1.414 . S
C372 C375 1.499 . S
C373 H347 0.950 . S
C373 C372 1.414 . S
C373 C374 1.374 . S
C374 H348 0.950 . S
C374 C370 1.385 . S
C374 C373 1.374 . S
C375 C372 1.499 . S
C375 C376 1.373 . S
C375 C377 1.389 . S
C376 H349 0.950 . S
C376 C362 1.377 . S
C376 C375 1.373 . S
C377 C361 1.377 . S
C377 C375 1.389 . S
C377 C378 1.524 . S
C378 C377 1.524 . S
C378 C379 1.397 . S
C378 C383 1.363 . S
C379 H350 0.950 . S
C379 C378 1.397 . S
C379 C380 1.334 . S
C380 H351 0.950 . S
C380 C379 1.334 . S
C380 C381 1.287 . S
C381 C380 1.287 . S
C381 C382 1.524 . S
C381 H384 0.999 . S
C382 H352 0.950 . S
C382 C381 1.524 . S
C382 C383 1.415 . S
C383 H353 0.950 . S
C383 C378 1.363 . S
C383 C382 1.415 . S
H384 C381 0.999 . S
H385 C366 0.913 . S
H386 C404 0.951 . S
H387 C406 0.951 . S
H388 C408 0.950 . S
H389 C409 0.950 . S
H390 C411 0.950 . S
H391 C414 0.950 . S
H392 C415 0.950 . S
H393 C417 0.950 . S
H394 C418 0.950 . S
H395 C419 0.951 . S
H396 C421 0.951 . S
H397 C423 0.950 . S
H398 C424 0.950 . S
H399 C426 0.950 . S
H400 C429 0.950 . S
H401 C430 0.950 . S
H402 C432 0.950 . S
H403 C433 0.950 . S
C404 H386 0.951 . S
C404 C405 1.366 . S
C404 C406 1.388 . S
C405 C404 1.366 . S
C405 C409 1.385 . S
C406 H387 0.951 . S
C406 C404 1.388 . S
C406 C407 1.366 . S
C407 C406 1.366 . S
C407 C408 1.414 . S
C407 C410 1.499 . S
C408 H388 0.950 . S
C408 C407 1.414 . S
C408 C409 1.374 . S
C409 H389 0.950 . S
C409 C405 1.385 . S
C409 C408 1.374 . S
C410 C407 1.499 . S
C410 C411 1.373 . S
C410 C412 1.389 . S
C411 H390 0.950 . S
C411 C410 1.373 . S
C411 C427 1.377 . S
C412 C410 1.389 . S
C412 C413 1.524 . S
C412 C426 1.377 . S
C413 C412 1.524 . S
C413 C414 1.397 . S
C413 C418 1.363 . S
C414 H391 0.950 . S
C414 C413 1.397 . S
C414 C415 1.334 . S
C415 H392 0.950 . S
C415 C414 1.334 . S
C415 C416 1.287 . S
C416 C415 1.287 . S
C416 C417 1.524 . S
C416 H435 0.913 . S
C417 H393 0.950 . S
C417 C416 1.524 . S
C417 C418 1.415 . S
C418 H394 0.950 . S
C418 C413 1.363 . S
C418 C417 1.415 . S
C419 H395 0.951 . S
C419 C420 1.366 . S
C419 C421 1.388 . S
C420 C419 1.366 . S
C420 C424 1.385 . S
C421 H396 0.951 . S
C421 C419 1.388 . S
C421 C422 1.366 . S
C422 C421 1.366 . S
C422 C423 1.414 . S
C422 C425 1.499 . S
C423 H397 0.950 . S
C423 C422 1.414 . S
C423 C424 1.374 . S
C424 H398 0.950 . S
C424 C420 1.385 . S
C424 C423 1.374 . S
C425 C422 1.499 . S
C425 C426 1.373 . S
C425 C427 1.389 . S
C426 H399 0.950 . S
C426 C412 1.377 . S
C426 C425 1.373 . S
C427 C411 1.377 . S
C427 C425 1.389 . S
C427 C428 1.524 . S
C428 C427 1.524 . S
C428 C429 1.397 . S
C428 C433 1.363 . S
C429 H400 0.950 . S
C429 C428 1.397 . S
C429 C430 1.334 . S
C430 H401 0.950 . S
C430 C429 1.334 . S
C430 C431 1.287 . S
C431 C430 1.287 . S
C431 C432 1.524 . S
C431 H434 0.999 . S
C432 H402 0.950 . S
C432 C431 1.524 . S
C432 C433 1.415 . S
C433 H403 0.950 . S
C433 C428 1.363 . S
C433 C432 1.415 . S
H434 C431 0.999 . S
H435 C416 0.913 . S
H436 C454 0.951 . S
H437 C456 0.951 . S
H438 C458 0.950 . S
H439 C459 0.950 . S
H440 C461 0.950 . S
H441 C464 0.950 . S
H442 C465 0.950 . S
H443 C467 0.950 . S
H444 C468 0.950 . S
H445 C469 0.951 . S
H446 C471 0.951 . S
H447 C473 0.950 . S
H448 C474 0.950 . S
H449 C476 0.950 . S
H450 C479 0.950 . S
H451 C480 0.950 . S
H452 C482 0.950 . S
H453 C483 0.950 . S
C454 H436 0.951 . S
C454 C455 1.366 . S
C454 C456 1.388 . S
C455 C454 1.366 . S
C455 C459 1.385 . S
C456 H437 0.951 . S
C456 C454 1.388 . S
C456 C457 1.366 . S
C457 C456 1.366 . S
C457 C458 1.414 . S
C457 C460 1.499 . S
C458 H438 0.950 . S
C458 C457 1.414 . S
C458 C459 1.374 . S
C459 H439 0.950 . S
C459 C455 1.385 . S
C459 C458 1.374 . S
C460 C457 1.499 . S
C460 C461 1.373 . S
C460 C462 1.389 . S
C461 H440 0.950 . S
C461 C460 1.373 . S
C461 C477 1.377 . S
C462 C460 1.389 . S
C462 C463 1.524 . S
C462 C476 1.377 . S
C463 C462 1.524 . S
C463 C464 1.397 . S
C463 C468 1.363 . S
C464 H441 0.950 . S
C464 C463 1.397 . S
C464 C465 1.334 . S
C465 H442 0.950 . S
C465 C464 1.334 . S
C465 C466 1.287 . S
C466 C465 1.287 . S
C466 C467 1.524 . S
C466 H485 0.913 . S
C467 H443 0.950 . S
C467 C466 1.524 . S
C467 C468 1.415 . S
C468 H444 0.950 . S
C468 C463 1.363 . S
C468 C467 1.415 . S
C469 H445 0.951 . S
C469 C470 1.366 . S
C469 C471 1.388 . S
C470 C469 1.366 . S
C470 C474 1.385 . S
C471 H446 0.951 . S
C471 C469 1.388 . S
C471 C472 1.366 . S
C472 C471 1.366 . S
C472 C473 1.414 . S
C472 C475 1.499 . S
C473 H447 0.950 . S
C473 C472 1.414 . S
C473 C474 1.374 . S
C474 H448 0.950 . S
C474 C470 1.385 . S
C474 C473 1.374 . S
C475 C472 1.499 . S
C475 C476 1.373 . S
C475 C477 1.389 . S
C476 H449 0.950 . S
C476 C462 1.377 . S
C476 C475 1.373 . S
C477 C461 1.377 . S
C477 C475 1.389 . S
C477 C478 1.524 . S
C478 C477 1.524 . S
C478 C479 1.397 . S
C478 C483 1.363 . S
C479 H450 0.950 . S
C479 C478 1.397 . S
C479 C480 1.334 . S
C480 H451 0.950 . S
C480 C479 1.334 . S
C480 C481 1.287 . S
C481 C480 1.287 . S
C481 C482 1.524 . S
C481 H484 0.999 . S
C482 H452 0.950 . S
C482 C481 1.524 . S
C482 C483 1.415 . S
C483 H453 0.950 . S
C483 C478 1.363 . S
C483 C482 1.415 . S
H484 C481 0.999 . S
H485 C466 0.913 . S
H486 C504 0.951 . S
H487 C506 0.951 . S
H488 C508 0.950 . S
H489 C509 0.950 . S
H490 C511 0.950 . S
H491 C514 0.950 . S
H492 C515 0.950 . S
H493 C517 0.950 . S
H494 C518 0.950 . S
H495 C519 0.951 . S
H496 C521 0.951 . S
H497 C523 0.950 . S
H498 C524 0.950 . S
H499 C526 0.950 . S
H500 C529 0.950 . S
H501 C530 0.950 . S
H502 C532 0.950 . S
H503 C533 0.950 . S
C504 H486 0.951 . S
C504 C505 1.366 . S
C504 C506 1.388 . S
C505 C504 1.366 . S
C505 C509 1.385 . S
C506 H487 0.951 . S
C506 C504 1.388 . S
C506 C507 1.366 . S
C507 C506 1.366 . S
C507 C508 1.414 . S
C507 C510 1.499 . S
C508 H488 0.950 . S
C508 C507 1.414 . S
C508 C509 1.374 . S
C509 H489 0.950 . S
C509 C505 1.385 . S
C509 C508 1.374 . S
C510 C507 1.499 . S
C510 C511 1.373 . S
C510 C512 1.389 . S
C511 H490 0.950 . S
C511 C510 1.373 . S
C511 C527 1.377 . S
C512 C510 1.389 . S
C512 C513 1.524 . S
C512 C526 1.377 . S
C513 C512 1.524 . S
C513 C514 1.397 . S
C513 C518 1.363 . S
C514 H491 0.950 . S
C514 C513 1.397 . S
C514 C515 1.334 . S
C515 H492 0.950 . S
C515 C514 1.334 . S
C515 C516 1.287 . S
C516 C515 1.287 . S
C516 C517 1.524 . S
C516 H535 0.913 . S
C517 H493 0.950 . S
C517 C516 1.524 . S
C517 C518 1.415 . S
C518 H494 0.950 . S
C518 C513 1.363 . S
C518 C517 1.415 . S
C519 H495 0.951 . S
C519 C520 1.366 . S
C519 C521 1.388 . S
C520 C519 1.366 . S
C520 C524 1.385 . S
C521 H496 0.951 . S
C521 C519 1.388 . S
C521 C522 1.366 . S
C522 C521 1.366 . S
C522 C523 1.414 . S
C522 C525 1.499 . S
C523 H497 0.950 . S
C523 C522 1.414 . S
C523 C524 1.374 . S
C524 H498 0.950 . S
C524 C520 1.385 . S
C524 C523 1.374 . S
C525 C522 1.499 . S
C525 C526 1.373 . S
C525 C527 1.389 . S
C526 H499 0.950 . S
C526 C512 1.377 . S
C526 C525 1.373 . S
C527 C511 1.377 . S
C527 C525 1.389 . S
C527 C528 1.524 . S
C528 C527 1.524 . S
C528 C529 1.397 . S
C528 C533 1.363 . S
C529 H500 0.950 . S
C529 C528 1.397 . S
C529 C530 1.334 . S
C530 H501 0.950 . S
C530 C529 1.334 . S
C530 C531 1.287 . S
C531 C530 1.287 . S
C531 C532 1.524 . S
C531 H534 0.999 . S
C532 H502 0.950 . S
C532 C531 1.524 . S
C532 C533 1.415 . S
C533 H503 0.950 . S
C533 C528 1.363 . S
C533 C532 1.415 . S
H534 C531 0.999 . S
H535 C516 0.913 . S
H536 C554 0.951 . S
H537 C556 0.951 . S
H538 C558 0.950 . S
H539 C559 0.950 . S
H540 C561 0.950 . S
H541 C564 0.950 . S
H542 C565 0.950 . S
H543 C567 0.950 . S
H544 C568 0.950 . S
H545 C569 0.951 . S
H546 C571 0.951 . S
H547 C573 0.950 . S
H548 C574 0.950 . S
H549 C576 0.950 . S
H550 C579 0.950 . S
H551 C580 0.950 . S
H552 C582 0.950 . S
H553 C583 0.950 . S
C554 H536 0.951 . S
C554 C555 1.366 . S
C554 C556 1.388 . S
C555 C554 1.366 . S
C555 C559 1.385 . S
C556 H537 0.951 . S
C556 C554 1.388 . S
C556 C557 1.366 . S
C557 C556 1.366 . S
C557 C558 1.414 . S
C557 C560 1.499 . S
C558 H538 0.950 . S
C558 C557 1.414 . S
C558 C559 1.374 . S
C559 H539 0.950 . S
C559 C555 1.385 . S
C559 C558 1.374 . S
C560 C557 1.499 . S
C560 C561 1.373 . S
C560 C562 1.389 . S
C561 H540 0.950 . S
C561 C560 1.373 . S
C561 C577 1.377 . S
C562 C560 1.389 . S
C562 C563 1.524 . S
C562 C576 1.377 . S
C563 C562 1.524 . S
C563 C564 1.397 . S
C563 C568 1.363 . S
C564 H541 0.950 . S
C564 C563 1.397 . S
C564 C565 1.334 . S
C565 H542 0.950 . S
C565 C564 1.334 . S
C565 C566 1.287 . S
C566 C565 1.287 . S
C566 C567 1.524 . S
C566 H585 0.913 . S
C567 H543 0.950 . S
C567 C566 1.524 . S
C567 C568 1.415 . S
C568 H544 0.950 . S
C568 C563 1.363 . S
C568 C567 1.415 . S
C569 H545 0.951 . S
C569 C570 1.366 . S
C569 C571 1.388 . S
C570 C569 1.366 . S
C570 C574 1.385 . S
C571 H546 0.951 . S
C571 C569 1.388 . S
C571 C572 1.366 . S
C572 C571 1.366 . S
C572 C573 1.414 . S
C572 C575 1.499 . S
C573 H547 0.950 . S
C573 C572 1.414 . S
C573 C574 1.374 . S
C574 H548 0.950 . S
C574 C570 1.385 . S
C574 C573 1.374 . S
C575 C572 1.499 . S
C575 C576 1.373 . S
C575 C577 1.389 . S
C576 H549 0.950 . S
C576 C562 1.377 . S
C576 C575 1.373 . S
C577 C561 1.377 . S
C577 C575 1.389 . S
C577 C578 1.524 . S
C578 C577 1.524 . S
C578 C579 1.397 . S
C578 C583 1.363 . S
C579 H550 0.950 . S
C579 C578 1.397 . S
C579 C580 1.334 . S
C580 H551 0.950 . S
C580 C579 1.334 . S
C580 C581 1.287 . S
C581 C580 1.287 . S
C581 C582 1.524 . S
C581 H584 0.999 . S
C582 H552 0.950 . S
C582 C581 1.524 . S
C582 C583 1.415 . S
C583 H553 0.950 . S
C583 C578 1.363 . S
C583 C582 1.415 . S
H584 C581 0.999 . S
H585 C566 0.913 . S
H586 C604 0.951 . S
H587 C606 0.951 . S
H588 C608 0.950 . S
H589 C609 0.950 . S
H590 C611 0.950 . S
H591 C614 0.950 . S
H592 C615 0.950 . S
H593 C617 0.950 . S
H594 C618 0.950 . S
H595 C619 0.951 . S
H596 C621 0.951 . S
H597 C623 0.950 . S
H598 C624 0.950 . S
H599 C626 0.950 . S
H600 C629 0.950 . S
H601 C630 0.950 . S
H602 C632 0.950 . S
H603 C633 0.950 . S
C604 H586 0.951 . S
C604 C605 1.366 . S
C604 C606 1.388 . S
C605 C604 1.366 . S
C605 C609 1.385 . S
C606 H587 0.951 . S
C606 C604 1.388 . S
C606 C607 1.366 . S
C607 C606 1.366 . S
C607 C608 1.414 . S
C607 C610 1.499 . S
C608 H588 0.950 . S
C608 C607 1.414 . S
C608 C609 1.374 . S
C609 H589 0.950 . S
C609 C605 1.385 . S
C609 C608 1.374 . S
C610 C607 1.499 . S
C610 C611 1.373 . S
C610 C612 1.389 . S
C611 H590 0.950 . S
C611 C610 1.373 . S
C611 C627 1.377 . S
C612 C610 1.389 . S
C612 C613 1.524 . S
C612 C626 1.377 . S
C613 C612 1.524 . S
C613 C614 1.397 . S
C613 C618 1.363 . S
C614 H591 0.950 . S
C614 C613 1.397 . S
C614 C615 1.334 . S
C615 H592 0.950 . S
C615 C614 1.334 . S
C615 C616 1.287 . S
C616 C615 1.287 . S
C616 C617 1.524 . S
C616 H635 0.913 . S
C617 H593 0.950 . S
C617 C616 1.524 . S
C617 C618 1.415 . S
C618 H594 0.950 . S
C618 C613 1.363 . S
C618 C617 1.415 . S
C619 H595 0.951 . S
C619 C620 1.366 . S
C619 C621 1.388 . S
C620 C619 1.366 . S
C620 C624 1.385 . S
C621 H596 0.951 . S
C621 C619 1.388 . S
C621 C622 1.366 . S
C622 C621 1.366 . S
C622 C623 1.414 . S
C622 C625 1.499 . S
C623 H597 0.950 . S
C623 C622 1.414 . S
C623 C624 1.374 . S
C624 H598 0.950 . S
C624 C620 1.385 . S
C624 C623 1.374 . S
C625 C622 1.499 . S
C625 C626 1.373 . S
C625 C627 1.389 . S
C626 H599 0.950 . S
C626 C612 1.377 . S
C626 C625 1.373 . S
C627 C611 1.377 . S
C627 C625 1.389 . S
C627 C628 1.524 . S
C628 C627 1.524 . S
C628 C629 1.397 . S
C628 C633 1.363 . S
C629 H600 0.950 . S
C629 C628 1.397 . S
C629 C630 1.334 . S
C630 H601 0.950 . S
C630 C629 1.334 . S
C630 C631 1.287 . S
C631 C630 1.287 . S
C631 C632 1.524 . S
C631 H634 0.999 . S
C632 H602 0.950 . S
C632 C631 1.524 . S
C632 C633 1.415 . S
C633 H603 0.950 . S
C633 C628 1.363 . S
C633 C632 1.415 . S
H634 C631 0.999 . S
H635 C616 0.913 . S
H636 C654 0.951 . S
H637 C656 0.951 . S
H638 C658 0.950 . S
H639 C659 0.950 . S
H640 C661 0.950 . S
H641 C664 0.950 . S
H642 C665 0.950 . S
H643 C667 0.950 . S
H644 C668 0.950 . S
H645 C669 0.951 . S
H646 C671 0.951 . S
H647 C673 0.950 . S
H648 C674 0.950 . S
H649 C676 0.950 . S
H650 C679 0.950 . S
H651 C680 0.950 . S
H652 C682 0.950 . S
H653 C683 0.950 . S
C654 H636 0.951 . S
C654 C655 1.366 . S
C654 C656 1.388 . S
C655 C654 1.366 . S
C655 C659 1.385 . S
C656 H637 0.951 . S
C656 C654 1.388 . S
C656 C657 1.366 . S
C657 C656 1.366 . S
C657 C658 1.414 . S
C657 C660 1.499 . S
C658 H638 0.950 . S
C658 C657 1.414 . S
C658 C659 1.374 . S
C659 H639 0.950 . S
C659 C655 1.385 . S
C659 C658 1.374 . S
C660 C657 1.499 . S
C660 C661 1.373 . S
C660 C662 1.389 . S
C661 H640 0.950 . S
C661 C660 1.373 . S
C661 C677 1.377 . S
C662 C660 1.389 . S
C662 C663 1.524 . S
C662 C676 1.377 . S
C663 C662 1.524 . S
C663 C664 1.397 . S
C663 C668 1.363 . S
C664 H641 0.950 . S
C664 C663 1.397 . S
C664 C665 1.334 . S
C665 H642 0.950 . S
C665 C664 1.334 . S
C665 C666 1.287 . S
C666 C665 1.287 . S
C666 C667 1.524 . S
C666 H685 0.913 . S
C667 H643 0.950 . S
C667 C666 1.524 . S
C667 C668 1.415 . S
C668 H644 0.950 . S
C668 C663 1.363 . S
C668 C667 1.415 . S
C669 H645 0.951 . S
C669 C670 1.366 . S
C669 C671 1.388 . S
C670 C669 1.366 . S
C670 C674 1.385 . S
C671 H646 0.951 . S
C671 C669 1.388 . S
C671 C672 1.366 . S
C672 C671 1.366 . S
C672 C673 1.414 . S
C672 C675 1.499 . S
C673 H647 0.950 . S
C673 C672 1.414 . S
C673 C674 1.374 . S
C674 H648 0.950 . S
C674 C670 1.385 . S
C674 C673 1.374 . S
C675 C672 1.499 . S
C675 C676 1.373 . S
C675 C677 1.389 . S
C676 H649 0.950 . S
C676 C662 1.377 . S
C676 C675 1.373 . S
C677 C661 1.377 . S
C677 C675 1.389 . S
C677 C678 1.524 . S
C678 C677 1.524 . S
C678 C679 1.397 . S
C678 C683 1.363 . S
C679 H650 0.950 . S
C679 C678 1.397 . S
C679 C680 1.334 . S
C680 H651 0.950 . S
C680 C679 1.334 . S
C680 C681 1.287 . S
C681 C680 1.287 . S
C681 C682 1.524 . S
C681 H684 0.999 . S
C682 H652 0.950 . S
C682 C681 1.524 . S
C682 C683 1.415 . S
C683 H653 0.950 . S
C683 C678 1.363 . S
C683 C682 1.415 . S
H684 C681 0.999 . S
H685 C666 0.913 . S
H686 C704 0.951 . S
H687 C706 0.951 . S
H688 C708 0.950 . S
H689 C709 0.950 . S
H690 C711 0.950 . S
H691 C714 0.950 . S
H692 C715 0.950 . S
H693 C717 0.950 . S
H694 C718 0.950 . S
H695 C719 0.951 . S
H696 C721 0.951 . S
H697 C723 0.950 . S
H698 C724 0.950 . S
H699 C726 0.950 . S
H700 C729 0.950 . S
H701 C730 0.950 . S
H702 C732 0.950 . S
H703 C733 0.950 . S
C704 H686 0.951 . S
C704 C705 1.366 . S
C704 C706 1.388 . S
C705 C704 1.366 . S
C705 C709 1.385 . S
C706 H687 0.951 . S
C706 C704 1.388 . S
C706 C707 1.366 . S
C707 C706 1.366 . S
C707 C708 1.414 . S
C707 C710 1.499 . S
C708 H688 0.950 . S
C708 C707 1.414 . S
C708 C709 1.374 . S
C709 H689 0.950 . S
C709 C705 1.385 . S
C709 C708 1.374 . S
C710 C707 1.499 . S
C710 C711 1.373 . S
C710 C712 1.389 . S
C711 H690 0.950 . S
C711 C710 1.373 . S
C711 C727 1.377 . S
C712 C710 1.389 . S
C712 C713 1.524 . S
C712 C726 1.377 . S
C713 C712 1.524 . S
C713 C714 1.397 . S
C713 C718 1.363 . S
C714 H691 0.950 . S
C714 C713 1.397 . S
C714 C715 1.334 . S
C715 H692 0.950 . S
C715 C714 1.334 . S
C715 C716 1.287 . S
C716 C715 1.287 . S
C716 C717 1.524 . S
C716 H735 0.913 . S
C717 H693 0.950 . S
C717 C716 1.524 . S
C717 C718 1.415 . S
C718 H694 0.950 . S
C718 C713 1.363 . S
C718 C717 1.415 . S
C719 H695 0.951 . S
C719 C720 1.366 . S
C719 C721 1.388 . S
C720 C719 1.366 . S
C720 C724 1.385 . S
C721 H696 0.951 . S
C721 C719 1.388 . S
C721 C722 1.366 . S
C722 C721 1.366 . S
C722 C723 1.414 . S
C722 C725 1.499 . S
C723 H697 0.950 . S
C723 C722 1.414 . S
C723 C724 1.374 . S
C724 H698 0.950 . S
C724 C720 1.385 . S
C724 C723 1.374 . S
C725 C722 1.499 . S
C725 C726 1.373 . S
C725 C727 1.389 . S
C726 H699 0.950 . S
C726 C712 1.377 . S
C726 C725 1.373 . S
C727 C711 1.377 . S
C727 C725 1.389 . S
C727 C728 1.524 . S
C728 C727 1.524 . S
C728 C729 1.397 . S
C728 C733 1.363 . S
C729 H700 0.950 . S
C729 C728 1.397 . S
C729 C730 1.334 . S
C730 H701 0.950 . S
C730 C729 1.334 . S
C730 C731 1.287 . S
C731 C730 1.287 . S
C731 C732 1.524 . S
C731 H734 0.999 . S
C732 H702 0.950 . S
C732 C731 1.524 . S
C732 C733 1.415 . S
C733 H703 0.950 . S
C733 C728 1.363 . S
C733 C732 1.415 . S
H734 C731 0.999 . S
H735 C716 0.913 . S
H736 C754 0.951 . S
H737 C756 0.951 . S
H738 C758 0.950 . S
H739 C759 0.950 . S
H740 C761 0.950 . S
H741 C764 0.950 . S
H742 C765 0.950 . S
H743 C767 0.950 . S
H744 C768 0.950 . S
H745 C769 0.951 . S
H746 C771 0.951 . S
H747 C773 0.950 . S
H748 C774 0.950 . S
H749 C776 0.950 . S
H750 C779 0.950 . S
H751 C780 0.950 . S
H752 C782 0.950 . S
H753 C783 0.950 . S
C754 H736 0.951 . S
C754 C755 1.366 . S
C754 C756 1.388 . S
C755 C754 1.366 . S
C755 C759 1.385 . S
C756 H737 0.951 . S
C756 C754 1.388 . S
C756 C757 1.366 . S
C757 C756 1.366 . S
C757 C758 1.414 . S
C757 C760 1.499 . S
C758 H738 0.950 . S
C758 C757 1.414 . S
C758 C759 1.374 . S
C759 H739 0.950 . S
C759 C755 1.385 . S
C759 C758 1.374 . S
C760 C757 1.499 . S
C760 C761 1.373 . S
C760 C762 1.389 . S
C761 H740 0.950 . S
C761 C760 1.373 . S
C761 C777 1.377 . S
C762 C760 1.389 . S
C762 C763 1.524 . S
C762 C776 1.377 . S
C763 C762 1.524 . S
C763 C764 1.397 . S
C763 C768 1.363 . S
C764 H741 0.950 . S
C764 C763 1.397 . S
C764 C765 1.334 . S
C765 H742 0.950 . S
C765 C764 1.334 . S
C765 C766 1.287 . S
C766 C765 1.287 . S
C766 C767 1.524 . S
C766 H785 0.913 . S
C767 H743 0.950 . S
C767 C766 1.524 . S
C767 C768 1.415 . S
C768 H744 0.950 . S
C768 C763 1.363 . S
C768 C767 1.415 . S
C769 H745 0.951 . S
C769 C770 1.366 . S
C769 C771 1.388 . S
C770 C769 1.366 . S
C770 C774 1.385 . S
C771 H746 0.951 . S
C771 C769 1.388 . S
C771 C772 1.366 . S
C772 C771 1.366 . S
C772 C773 1.414 . S
C772 C775 1.499 . S
C773 H747 0.950 . S
C773 C772 1.414 . S
C773 C774 1.374 . S
C774 H748 0.950 . S
C774 C770 1.385 . S
C774 C773 1.374 . S
C775 C772 1.499 . S
C775 C776 1.373 . S
C775 C777 1.389 . S
C776 H749 0.950 . S
C776 C762 1.377 . S
C776 C775 1.373 . S
C777 C761 1.377 . S
C777 C775 1.389 . S
C777 C778 1.524 . S
C778 C777 1.524 . S
C778 C779 1.397 . S
C778 C783 1.363 . S
C779 H750 0.950 . S
C779 C778 1.397 . S
C779 C780 1.334 . S
C780 H751 0.950 . S
C780 C779 1.334 . S
C780 C781 1.287 . S
C781 C780 1.287 . S
C781 C782 1.524 . S
C781 H784 0.999 . S
C782 H752 0.950 . S
C782 C781 1.524 . S
C782 C783 1.415 . S
C783 H753 0.950 . S
C783 C778 1.363 . S
C783 C782 1.415 . S
H784 C781 0.999 . S
H785 C766 0.913 . S
H786 C804 0.951 . S
H787 C806 0.951 . S
H788 C808 0.950 . S
H789 C809 0.950 . S
H790 C811 0.950 . S
H791 C814 0.950 . S
H792 C815 0.950 . S
H793 C817 0.950 . S
H794 C818 0.950 . S
H795 C819 0.951 . S
H796 C821 0.951 . S
H797 C823 0.950 . S
H798 C824 0.950 . S
H799 C826 0.950 . S
H800 C829 0.950 . S
H801 C830 0.950 . S
H802 C832 0.950 . S
H803 C833 0.950 1_554 S
C804 H786 0.951 . S
C804 C805 1.366 . S
C804 C806 1.388 . S
C805 C804 1.366 . S
C805 C809 1.385 . S
C806 H787 0.951 . S
C806 C804 1.388 . S
C806 C807 1.366 . S
C807 C806 1.366 . S
C807 C808 1.414 . S
C807 C810 1.499 . S
C808 H788 0.950 . S
C808 C807 1.414 . S
C808 C809 1.374 . S
C809 H789 0.950 . S
C809 C805 1.385 . S
C809 C808 1.374 . S
C810 C807 1.499 . S
C810 C811 1.373 . S
C810 C812 1.389 . S
C811 H790 0.950 . S
C811 C810 1.373 . S
C811 C827 1.377 . S
C812 C810 1.389 . S
C812 C813 1.524 . S
C812 C826 1.377 . S
C813 C812 1.524 . S
C813 C814 1.397 . S
C813 C818 1.363 . S
C814 H791 0.950 . S
C814 C813 1.397 . S
C814 C815 1.334 . S
C815 H792 0.950 . S
C815 C814 1.334 . S
C815 C816 1.287 . S
C816 C815 1.287 . S
C816 C817 1.524 . S
C816 H835 0.913 . S
C817 H793 0.950 . S
C817 C816 1.524 . S
C817 C818 1.415 . S
C818 H794 0.950 . S
C818 C813 1.363 . S
C818 C817 1.415 . S
C819 H795 0.951 . S
C819 C820 1.366 . S
C819 C821 1.388 . S
C820 C819 1.366 . S
C820 C824 1.385 . S
C821 H796 0.951 . S
C821 C819 1.388 . S
C821 C822 1.366 . S
C822 C821 1.366 . S
C822 C823 1.414 . S
C822 C825 1.499 . S
C823 H797 0.950 . S
C823 C822 1.414 . S
C823 C824 1.374 . S
C824 H798 0.950 . S
C824 C820 1.385 . S
C824 C823 1.374 . S
C825 C822 1.499 . S
C825 C826 1.373 1_556 S
C825 C827 1.389 1_556 S
C826 H799 0.950 . S
C826 C812 1.377 . S
C826 C825 1.373 1_554 S
C827 C811 1.377 . S
C827 C825 1.389 1_554 S
C827 C828 1.524 1_454 S
C828 C827 1.524 1_656 S
C828 C829 1.397 1_655 S
C828 C833 1.363 . S
C829 H800 0.950 . S
C829 C828 1.397 1_455 S
C829 C830 1.334 1_455 S
C830 H801 0.950 . S
C830 C829 1.334 1_655 S
C830 C831 1.287 . S
C831 C830 1.287 . S
C831 C832 1.524 . S
C831 H834 0.999 . S
C832 H802 0.950 . S
C832 C831 1.524 . S
C832 C833 1.415 . S
C833 H803 0.950 1_556 S
C833 C828 1.363 . S
C833 C832 1.415 . S
H834 C831 0.999 . S
H835 C816 0.913 . S
H836 C854 0.951 . S
H837 C856 0.951 . S
H838 C858 0.950 . S
H839 C859 0.950 . S
H840 C861 0.950 . S
H841 C864 0.950 . S
H842 C865 0.950 . S
H843 C867 0.950 . S
H844 C868 0.950 . S
H845 C869 0.951 . S
H846 C871 0.951 . S
H847 C873 0.950 . S
H848 C874 0.950 . S
H849 C876 0.950 . S
H850 C879 0.950 . S
H851 C880 0.950 . S
H852 C882 0.950 . S
H853 C883 0.950 . S
C854 H836 0.951 . S
C854 C855 1.366 . S
C854 C856 1.388 . S
C855 C854 1.366 . S
C855 C859 1.385 . S
C856 H837 0.951 . S
C856 C854 1.388 . S
C856 C857 1.366 . S
C857 C856 1.366 . S
C857 C858 1.414 . S
C857 C860 1.499 . S
C858 H838 0.950 . S
C858 C857 1.414 . S
C858 C859 1.374 . S
C859 H839 0.950 . S
C859 C855 1.385 . S
C859 C858 1.374 . S
C860 C857 1.499 . S
C860 C861 1.373 . S
C860 C862 1.389 . S
C861 H840 0.950 . S
C861 C860 1.373 . S
C861 C877 1.377 . S
C862 C860 1.389 . S
C862 C863 1.524 . S
C862 C876 1.377 . S
C863 C862 1.524 . S
C863 C864 1.397 . S
C863 C868 1.363 . S
C864 H841 0.950 . S
C864 C863 1.397 . S
C864 C865 1.334 . S
C865 H842 0.950 . S
C865 C864 1.334 . S
C865 C866 1.287 . S
C866 C865 1.287 . S
C866 C867 1.524 . S
C866 H885 0.913 . S
C867 H843 0.950 . S
C867 C866 1.524 . S
C867 C868 1.415 . S
C868 H844 0.950 . S
C868 C863 1.363 . S
C868 C867 1.415 . S
C869 H845 0.951 . S
C869 C870 1.366 . S
C869 C871 1.388 . S
C870 C869 1.366 . S
C870 C874 1.385 . S
C871 H846 0.951 . S
C871 C869 1.388 . S
C871 C872 1.366 . S
C872 C871 1.366 . S
C872 C873 1.414 . S
C872 C875 1.499 . S
C873 H847 0.950 . S
C873 C872 1.414 . S
C873 C874 1.374 . S
C874 H848 0.950 . S
C874 C870 1.385 . S
C874 C873 1.374 . S
C875 C872 1.499 . S
C875 C876 1.373 . S
C875 C877 1.389 . S
C876 H849 0.950 . S
C876 C862 1.377 . S
C876 C875 1.373 . S
C877 C861 1.377 . S
C877 C875 1.389 . S
C877 C878 1.524 . S
C878 C877 1.524 . S
C878 C879 1.397 . S
C878 C883 1.363 . S
C879 H850 0.950 . S
C879 C878 1.397 . S
C879 C880 1.334 . S
C880 H851 0.950 . S
C880 C879 1.334 . S
C880 C881 1.287 . S
C881 C880 1.287 . S
C881 C882 1.524 . S
C881 H884 0.999 . S
C882 H852 0.950 . S
C882 C881 1.524 . S
C882 C883 1.415 . S
C883 H853 0.950 . S
C883 C878 1.363 . S
C883 C882 1.415 . S
H884 C881 0.999 . S
H885 C866 0.913 . S
H886 C904 0.951 . S
H887 C906 0.951 . S
H888 C908 0.950 . S
H889 C909 0.950 . S
H890 C911 0.950 . S
H891 C914 0.950 . S
H892 C915 0.950 . S
H893 C917 0.950 . S
H894 C918 0.950 . S
H895 C919 0.951 . S
H896 C921 0.951 . S
H897 C923 0.950 . S
H898 C924 0.950 . S
H899 C926 0.950 . S
H900 C929 0.950 . S
H901 C930 0.950 . S
H902 C932 0.950 . S
H903 C933 0.950 . S
C904 H886 0.951 . S
C904 C905 1.366 . S
C904 C906 1.388 . S
C905 C904 1.366 . S
C905 C909 1.385 . S
C906 H887 0.951 . S
C906 C904 1.388 . S
C906 C907 1.366 . S
C907 C906 1.366 . S
C907 C908 1.414 . S
C907 C910 1.499 . S
C908 H888 0.950 . S
C908 C907 1.414 . S
C908 C909 1.374 . S
C909 H889 0.950 . S
C909 C905 1.385 . S
C909 C908 1.374 . S
C910 C907 1.499 . S
C910 C911 1.373 . S
C910 C912 1.389 . S
C911 H890 0.950 . S
C911 C910 1.373 . S
C911 C927 1.377 . S
C912 C910 1.389 . S
C912 C913 1.524 . S
C912 C926 1.377 . S
C913 C912 1.524 . S
C913 C914 1.397 . S
C913 C918 1.363 . S
C914 H891 0.950 . S
C914 C913 1.397 . S
C914 C915 1.334 . S
C915 H892 0.950 . S
C915 C914 1.334 . S
C915 C916 1.287 . S
C916 C915 1.287 . S
C916 C917 1.524 . S
C916 H935 0.913 . S
C917 H893 0.950 . S
C917 C916 1.524 . S
C917 C918 1.415 . S
C918 H894 0.950 . S
C918 C913 1.363 . S
C918 C917 1.415 . S
C919 H895 0.951 . S
C919 C920 1.366 . S
C919 C921 1.388 . S
C920 C919 1.366 . S
C920 C924 1.385 . S
C921 H896 0.951 . S
C921 C919 1.388 . S
C921 C922 1.366 . S
C922 C921 1.366 . S
C922 C923 1.414 . S
C922 C925 1.499 . S
C923 H897 0.950 . S
C923 C922 1.414 . S
C923 C924 1.374 . S
C924 H898 0.950 . S
C924 C920 1.385 . S
C924 C923 1.374 . S
C925 C922 1.499 . S
C925 C926 1.373 . S
C925 C927 1.389 . S
C926 H899 0.950 . S
C926 C912 1.377 . S
C926 C925 1.373 . S
C927 C911 1.377 . S
C927 C925 1.389 . S
C927 C928 1.524 . S
C928 C927 1.524 . S
C928 C929 1.397 . S
C928 C933 1.363 . S
C929 H900 0.950 . S
C929 C928 1.397 . S
C929 C930 1.334 . S
C930 H901 0.950 . S
C930 C929 1.334 . S
C930 C931 1.287 . S
C931 C930 1.287 . S
C931 C932 1.524 . S
C931 H934 0.999 . S
C932 H902 0.950 . S
C932 C931 1.524 . S
C932 C933 1.415 . S
C933 H903 0.950 . S
C933 C928 1.363 . S
C933 C932 1.415 . S
H934 C931 0.999 . S
H935 C916 0.913 . S
H936 C954 0.951 . S
H937 C956 0.951 . S
H938 C958 0.950 . S
H939 C959 0.950 . S
H940 C961 0.950 . S
H941 C964 0.950 1_565 S
H942 C965 0.950 . S
H943 C967 0.950 . S
H944 C968 0.950 . S
H945 C969 0.951 1_565 S
H946 C971 0.951 1_565 S
H947 C973 0.950 . S
H948 C974 0.950 . S
H949 C976 0.950 . S
H950 C979 0.950 . S
H951 C980 0.950 . S
H952 C982 0.950 . S
H953 C983 0.950 . S
C954 H936 0.951 . S
C954 C955 1.366 . S
C954 C956 1.388 . S
C955 C954 1.366 . S
C955 C959 1.385 . S
C956 H937 0.951 . S
C956 C954 1.388 . S
C956 C957 1.366 . S
C957 C956 1.366 . S
C957 C958 1.414 . S
C957 C960 1.499 . S
C958 H938 0.950 . S
C958 C957 1.414 . S
C958 C959 1.374 . S
C959 H939 0.950 . S
C959 C955 1.385 . S
C959 C958 1.374 . S
C960 C957 1.499 . S
C960 C961 1.373 . S
C960 C962 1.389 . S
C961 H940 0.950 . S
C961 C960 1.373 . S
C961 C977 1.377 . S
C962 C960 1.389 . S
C962 C963 1.524 . S
C962 C976 1.377 . S
C963 C962 1.524 . S
C963 C964 1.397 . S
C963 C968 1.363 . S
C964 H941 0.950 1_545 S
C964 C963 1.397 . S
C964 C965 1.334 1_545 S
C965 H942 0.950 . S
C965 C964 1.334 1_565 S
C965 C966 1.287 1_565 S
C966 C965 1.287 1_545 S
C966 C967 1.524 . S
C966 H985 0.913 . S
C967 H943 0.950 . S
C967 C966 1.524 . S
C967 C968 1.415 . S
C968 H944 0.950 . S
C968 C963 1.363 . S
C968 C967 1.415 . S
C969 H945 0.951 1_545 S
C969 C970 1.366 . S
C969 C971 1.388 . S
C970 C969 1.366 . S
C970 C974 1.385 . S
C971 H946 0.951 1_545 S
C971 C969 1.388 . S
C971 C972 1.366 . S
C972 C971 1.366 . S
C972 C973 1.414 . S
C972 C975 1.499 . S
C973 H947 0.950 . S
C973 C972 1.414 . S
C973 C974 1.374 . S
C974 H948 0.950 . S
C974 C970 1.385 . S
C974 C973 1.374 . S
C975 C972 1.499 . S
C975 C976 1.373 . S
C975 C977 1.389 . S
C976 H949 0.950 . S
C976 C962 1.377 . S
C976 C975 1.373 . S
C977 C961 1.377 . S
C977 C975 1.389 . S
C977 C978 1.524 . S
C978 C977 1.524 . S
C978 C979 1.397 . S
C978 C983 1.363 . S
C979 H950 0.950 . S
C979 C978 1.397 . S
C979 C980 1.334 . S
C980 H951 0.950 . S
C980 C979 1.334 . S
C980 C981 1.287 . S
C981 C980 1.287 . S
C981 C982 1.524 . S
C981 H984 0.999 . S
C982 H952 0.950 . S
C982 C981 1.524 . S
C982 C983 1.415 . S
C983 H953 0.950 . S
C983 C978 1.363 . S
C983 C982 1.415 . S
H984 C981 0.999 . S
H985 C966 0.913 . S
H986 C1004 0.951 . S
H987 C1006 0.951 . S
H988 C1008 0.950 . S
H989 C1009 0.950 . S
H990 C1011 0.950 . S
H991 C1014 0.950 . S
H992 C1015 0.950 . S
H993 C1017 0.950 . S
H994 C1018 0.950 . S
H995 C1019 0.951 . S
H996 C1021 0.951 . S
H997 C1023 0.950 . S
H998 C1024 0.950 . S
H999 C1026 0.950 . S
H1000 C1029 0.950 . S
H1001 C1030 0.950 . S
H1002 C1032 0.950 . S
H1003 C1033 0.950 . S
C1004 H986 0.951 . S
C1004 C1005 1.366 . S
C1004 C1006 1.388 . S
C1005 C1004 1.366 . S
C1005 C1009 1.385 . S
C1006 H987 0.951 . S
C1006 C1004 1.388 . S
C1006 C1007 1.366 . S
C1007 C1006 1.366 . S
C1007 C1008 1.414 . S
C1007 C1010 1.499 . S
C1008 H988 0.950 . S
C1008 C1007 1.414 . S
C1008 C1009 1.374 . S
C1009 H989 0.950 . S
C1009 C1005 1.385 . S
C1009 C1008 1.374 . S
C1010 C1007 1.499 . S
C1010 C1011 1.373 . S
C1010 C1012 1.389 . S
C1011 H990 0.950 . S
C1011 C1010 1.373 . S
C1011 C1027 1.377 . S
C1012 C1010 1.389 . S
C1012 C1013 1.524 . S
C1012 C1026 1.377 . S
C1013 C1012 1.524 . S
C1013 C1014 1.397 . S
C1013 C1018 1.363 . S
C1014 H991 0.950 . S
C1014 C1013 1.397 . S
C1014 C1015 1.334 . S
C1015 H992 0.950 . S
C1015 C1014 1.334 . S
C1015 C1016 1.287 . S
C1016 C1015 1.287 . S
C1016 C1017 1.524 . S
C1016 H1035 0.913 . S
C1017 H993 0.950 . S
C1017 C1016 1.524 . S
C1017 C1018 1.415 . S
C1018 H994 0.950 . S
C1018 C1013 1.363 . S
C1018 C1017 1.415 . S
C1019 H995 0.951 . S
C1019 C1020 1.366 . S
C1019 C1021 1.388 . S
C1020 C1019 1.366 . S
C1020 C1024 1.385 . S
C1021 H996 0.951 . S
C1021 C1019 1.388 . S
C1021 C1022 1.366 . S
C1022 C1021 1.366 . S
C1022 C1023 1.414 . S
C1022 C1025 1.499 . S
C1023 H997 0.950 . S
C1023 C1022 1.414 . S
C1023 C1024 1.374 . S
C1024 H998 0.950 . S
C1024 C1020 1.385 . S
C1024 C1023 1.374 . S
C1025 C1022 1.499 . S
C1025 C1026 1.373 1_554 S
C1025 C1027 1.389 1_554 S
C1026 H999 0.950 . S
C1026 C1012 1.377 . S
C1026 C1025 1.373 1_556 S
C1027 C1011 1.377 . S
C1027 C1025 1.389 1_556 S
C1027 C1028 1.524 1_556 S
C1028 C1027 1.524 1_554 S
C1028 C1029 1.397 . S
C1028 C1033 1.363 . S
C1029 H1000 0.950 . S
C1029 C1028 1.397 . S
C1029 C1030 1.334 . S
C1030 H1001 0.950 . S
C1030 C1029 1.334 . S
C1030 C1031 1.287 . S
C1031 C1030 1.287 . S
C1031 C1032 1.524 . S
C1031 H1034 0.999 . S
C1032 H1002 0.950 . S
C1032 C1031 1.524 . S
C1032 C1033 1.415 . S
C1033 H1003 0.950 . S
C1033 C1028 1.363 . S
C1033 C1032 1.415 . S
H1034 C1031 0.999 . S
H1035 C1016 0.913 . S
H1036 C1054 0.951 . S
H1037 C1056 0.948 . S
H1038 C1058 0.950 . S
H1039 C1059 0.950 . S
H1040 C1061 0.950 . S
H1041 C1064 0.950 . S
H1042 C1065 0.950 . S
H1043 C1067 0.950 . S
H1044 C1068 0.950 . S
H1045 C1069 0.951 . S
H1046 C1071 0.951 . S
H1047 C1073 0.950 . S
H1048 C1074 0.950 . S
H1049 C1076 0.950 . S
H1050 C1079 0.950 . S
H1051 C1080 0.950 . S
H1052 C1082 0.950 . S
H1053 C1083 0.950 . S
C1054 H1036 0.951 . S
C1054 C1055 1.366 . S
C1054 C1056 1.388 . S
C1055 C1054 1.366 . S
C1055 C1059 1.385 . S
C1056 H1037 0.948 . S
C1056 C1054 1.388 . S
C1056 C1057 1.366 . S
C1057 C1056 1.366 . S
C1057 C1058 1.414 . S
C1057 C1060 1.499 . S
C1058 H1038 0.950 . S
C1058 C1057 1.414 . S
C1058 C1059 1.374 . S
C1059 H1039 0.950 . S
C1059 C1055 1.385 . S
C1059 C1058 1.374 . S
C1060 C1057 1.499 . S
C1060 C1061 1.373 . S
C1060 C1062 1.389 . S
C1061 H1040 0.950 . S
C1061 C1060 1.373 . S
C1061 C1077 1.377 . S
C1062 C1060 1.389 . S
C1062 C1063 1.524 . S
C1062 C1076 1.377 . S
C1063 C1062 1.524 . S
C1063 C1064 1.397 . S
C1063 C1068 1.363 . S
C1064 H1041 0.950 . S
C1064 C1063 1.397 . S
C1064 C1065 1.334 . S
C1065 H1042 0.950 . S
C1065 C1064 1.334 . S
C1065 C1066 1.287 . S
C1066 C1065 1.287 . S
C1066 C1067 1.524 . S
C1066 H1085 0.913 . S
C1067 H1043 0.950 . S
C1067 C1066 1.524 . S
C1067 C1068 1.415 . S
C1068 H1044 0.950 . S
C1068 C1063 1.363 . S
C1068 C1067 1.415 . S
C1069 H1045 0.951 . S
C1069 C1070 1.366 . S
C1069 C1071 1.388 . S
C1070 C1069 1.366 . S
C1070 C1074 1.385 1_455 S
C1071 H1046 0.951 . S
C1071 C1069 1.388 . S
C1071 C1072 1.366 . S
C1072 C1071 1.366 . S
C1072 C1073 1.414 1_455 S
C1072 C1075 1.499 . S
C1073 H1047 0.950 . S
C1073 C1072 1.414 1_655 S
C1073 C1074 1.374 . S
C1074 H1048 0.950 . S
C1074 C1070 1.385 1_655 S
C1074 C1073 1.374 . S
C1075 C1072 1.499 . S
C1075 C1076 1.373 . S
C1075 C1077 1.389 . S
C1076 H1049 0.950 . S
C1076 C1062 1.377 . S
C1076 C1075 1.373 . S
C1077 C1061 1.377 . S
C1077 C1075 1.389 . S
C1077 C1078 1.524 . S
C1078 C1077 1.524 . S
C1078 C1079 1.397 1_455 S
C1078 C1083 1.363 . S
C1079 H1050 0.950 . S
C1079 C1078 1.397 1_655 S
C1079 C1080 1.334 . S
C1080 H1051 0.950 . S
C1080 C1079 1.334 . S
C1080 C1081 1.287 . S
C1081 C1080 1.287 . S
C1081 C1082 1.524 1_655 S
C1081 H1084 0.999 . S
C1082 H1052 0.950 . S
C1082 C1081 1.524 1_455 S
C1082 C1083 1.415 . S
C1083 H1053 0.950 . S
C1083 C1078 1.363 . S
C1083 C1082 1.415 . S
H1084 C1081 0.999 . S
H1085 C1066 0.913 . S
C205 C25 0.402 . S
C220 C185 0.438 . S
C255 C65 0.235 . S
C270 C163 0.233 . S
C305 C105 0.275 . S
C320 C174 0.231 . S
C355 C4 0.279 . S
C370 C179 0.201 . S
C420 C157 0.210 . S
C405 C44 0.158 . S
C470 C168 0.237 . S
C455 C84 0.154 . S
C505 C60 2.985 . S
C520 C141 2.925 . S
C555 C100 2.977 . S
C570 C146 2.930 1_655 S
C605 C31 2.937 . S
C620 C124 2.889 1_565 S
C670 C135 2.891 . S
C655 C71 2.931 . S
C720 C152 2.887 . S
C705 C111 2.928 . S
C755 C20 2.983 . S
C770 C130 2.924 . S
C820 C147 1.729 . S
C805 C2 1.699 . S
C855 C42 1.730 . S
C870 C125 1.744 . S
C905 C82 1.721 . S
C920 C136 1.744 . S
C970 C169 1.231 . S
C955 C63 1.208 . S
C1020 C180 1.286 . S
C1005 C103 1.260 . S
C1055 C23 1.188 . S
C1070 C158 1.208 . S
