# Generated by pormake.
# Topology zzz, (3,6)-cn, num edge types: 1
# Building blocks:
#     Node 0, Type 0, BuildingBlock: CUQRIR_clean_linker_1, # of connection points: 3
#     Node 1, Type 0, BuildingBlock: CUQRIR_clean_linker_1, # of connection points: 3
#     Node 2, Type 0, BuildingBlock: CUQRIR_clean_linker_1, # of connection points: 3
#     Node 3, Type 0, BuildingBlock: CUQRIR_clean_linker_1, # of connection points: 3
#     Node 4, Type 0, BuildingBlock: CUQRIR_clean_linker_1, # of connection points: 3
#     Node 5, Type 0, BuildingBlock: CUQRIR_clean_linker_1, # of connection points: 3
#     Node 6, Type 0, BuildingBlock: CUQRIR_clean_linker_1, # of connection points: 3
#     Node 7, Type 0, BuildingBlock: CUQRIR_clean_linker_1, # of connection points: 3
#     Node 8, Type 1, BuildingBlock: KUMJIN_clean_sbu_0, # of connection points: 6
#     Node 9, Type 1, BuildingBlock: KUMJIN_clean_sbu_0, # of connection points: 6
#     Node 10, Type 1, BuildingBlock: KUMJIN_clean_sbu_0, # of connection points: 6
#     Node 11, Type 1, BuildingBlock: KUMJIN_clean_sbu_0, # of connection points: 6
#     Edge 12, Type (0, 1), BuildingBlock: XIVTED_clean_linker_0, # of connection points: 2
#     Edge 13, Type (0, 1), BuildingBlock: XIVTED_clean_linker_0, # of connection points: 2
#     Edge 14, Type (0, 1), BuildingBlock: XIVTED_clean_linker_0, # of connection points: 2
#     Edge 15, Type (0, 1), BuildingBlock: XIVTED_clean_linker_0, # of connection points: 2
#     Edge 16, Type (0, 1), BuildingBlock: XIVTED_clean_linker_0, # of connection points: 2
#     Edge 17, Type (0, 1), BuildingBlock: XIVTED_clean_linker_0, # of connection points: 2
#     Edge 18, Type (0, 1), BuildingBlock: XIVTED_clean_linker_0, # of connection points: 2
#     Edge 19, Type (0, 1), BuildingBlock: XIVTED_clean_linker_0, # of connection points: 2
#     Edge 20, Type (0, 1), BuildingBlock: XIVTED_clean_linker_0, # of connection points: 2
#     Edge 21, Type (0, 1), BuildingBlock: XIVTED_clean_linker_0, # of connection points: 2
#     Edge 22, Type (0, 1), BuildingBlock: XIVTED_clean_linker_0, # of connection points: 2
#     Edge 23, Type (0, 1), BuildingBlock: XIVTED_clean_linker_0, # of connection points: 2
#     Edge 24, Type (0, 1), BuildingBlock: XIVTED_clean_linker_0, # of connection points: 2
#     Edge 25, Type (0, 1), BuildingBlock: XIVTED_clean_linker_0, # of connection points: 2
#     Edge 26, Type (0, 1), BuildingBlock: XIVTED_clean_linker_0, # of connection points: 2
#     Edge 27, Type (0, 1), BuildingBlock: XIVTED_clean_linker_0, # of connection points: 2
#     Edge 28, Type (0, 1), BuildingBlock: XIVTED_clean_linker_0, # of connection points: 2
#     Edge 29, Type (0, 1), BuildingBlock: XIVTED_clean_linker_0, # of connection points: 2
#     Edge 30, Type (0, 1), BuildingBlock: XIVTED_clean_linker_0, # of connection points: 2
#     Edge 31, Type (0, 1), BuildingBlock: XIVTED_clean_linker_0, # of connection points: 2
#     Edge 32, Type (0, 1), BuildingBlock: XIVTED_clean_linker_0, # of connection points: 2
#     Edge 33, Type (0, 1), BuildingBlock: XIVTED_clean_linker_0, # of connection points: 2
#     Edge 34, Type (0, 1), BuildingBlock: XIVTED_clean_linker_0, # of connection points: 2
#     Edge 35, Type (0, 1), BuildingBlock: XIVTED_clean_linker_0, # of connection points: 2
# Relax obj value: 0.207
# Max RMSD: 0.170
# Mean RMSD: 0.120
data_MOF--net-zzz--node1-KUMJIN_clean_sbu_0--node2-CUQRIR_clean_linker_1--edge1-XIVTED_clean_linker_0
_symmetry_space_group_name_H-M    P1
_symmetry_Int_Tables_number       1
_symmetry_cell_setting            triclinic
loop_
_symmetry_equiv_pos_as_xyz
'x, y, z'
_cell_length_a     46.9939
_cell_length_b     47.008109
_cell_length_c     13.331694
_cell_angle_alpha  91.857574
_cell_angle_beta   89.997405
_cell_angle_gamma 90.079108
loop_
_atom_site_label
_atom_site_type_symbol
_atom_site_fract_x
_atom_site_fract_y
_atom_site_fract_z
_atom_type_partial_charge
C0 C 0.75494 0.54616 0.2894 0.0
N1 N 0.78216 0.55618 0.29523 0.0
N2 N 0.73953 0.56045 0.22024 0.0
C3 C 0.74392 0.52159 0.3468 0.0
C4 C 0.75856 0.57921 0.18381 0.0
N5 N 0.78424 0.57659 0.22872 0.0
C6 C 0.75241 0.59879 0.09928 0.0
H7 H 0.74887 0.50154 0.30425 0.0
H8 H 0.7205 0.5231 0.35632 0.0
H9 H 0.75443 0.52086 0.42122 0.0
H10 H 0.73478 0.61336 0.12099 0.0
H11 H 0.74541 0.58603 0.03222 0.0
H12 H 0.77112 0.61189 0.07987 0.0
C13 C 1.01139 0.76177 0.30021 0.0
N14 N 0.99683 0.78643 0.32174 0.0
N15 N 0.9951 0.74268 0.24529 0.0
C16 C 0.04156 0.75665 0.33085 0.0
C17 C 0.97024 0.75694 0.23424 0.0
N18 N 0.97135 0.78332 0.27872 0.0
C19 C 0.9454 0.74585 0.17261 0.0
H20 H 0.05597 0.76579 0.27434 0.0
H21 H 0.04589 0.73351 0.33471 0.0
H22 H 0.04604 0.76739 0.40453 0.0
H23 H 0.93539 0.72782 0.21088 0.0
H24 H 0.95291 0.73796 0.09785 0.0
H25 H 0.92864 0.7621 0.16316 0.0
C26 C 0.78708 1.0039 0.3331 0.0
N27 N 0.76205 0.99001 0.34805 0.0
N28 N 0.8063 0.98676 0.28393 0.0
C29 C 0.79229 0.03449 0.36287 0.0
C30 C 0.79177 0.96198 0.26992 0.0
N31 N 0.76468 0.96408 0.30554 0.0
C32 C 0.80363 0.93608 0.21499 0.0
H33 H 0.78277 0.04815 0.30547 0.0
H34 H 0.81543 0.03905 0.36798 0.0
H35 H 0.78188 0.03977 0.43583 0.0
H36 H 0.82324 0.92901 0.25291 0.0
H37 H 0.80944 0.94156 0.13724 0.0
H38 H 0.78837 0.91805 0.21337 0.0
C39 C 0.55152 0.8105 0.36868 0.0
N40 N 0.54725 0.78178 0.36943 0.0
N41 N 0.54982 0.82016 0.27304 0.0
C42 C 0.55831 0.82892 0.45935 0.0
C43 C 0.5443 0.79625 0.2167 0.0
N44 N 0.54272 0.7734 0.27487 0.0
C45 C 0.53984 0.79522 0.10496 0.0
H46 H 0.5395 0.84225 0.47871 0.0
H47 H 0.57613 0.84349 0.44218 0.0
H48 H 0.56386 0.81592 0.52452 0.0
H49 H 0.56082 0.79306 0.06729 0.0
H50 H 0.52966 0.8151 0.08026 0.0
H51 H 0.5265 0.77669 0.08141 0.0
C52 C 0.30457 0.51747 0.10445 0.0
N53 N 0.27903 0.50482 0.08386 0.0
N54 N 0.32161 0.50016 0.15873 0.0
C55 C 0.31235 0.54703 0.07562 0.0
C56 C 0.30529 0.47666 0.17061 0.0
N57 N 0.27965 0.47947 0.12559 0.0
C58 C 0.31401 0.45155 0.23095 0.0
H59 H 0.30224 0.55222 1.00326 0.0
H60 H 0.33579 0.5494 0.06998 0.0
H61 H 0.30439 0.56233 0.1342 0.0
H62 H 0.33169 0.44013 0.19216 0.0
H63 H 0.29647 0.43611 0.24032 0.0
H64 H 0.32188 0.45906 0.30574 0.0
C65 C 0.04163 0.30191 0.05824 0.0
N66 N 0.04964 0.27405 0.06365 0.0
N67 N 0.05393 0.31834 0.13305 0.0
C68 C 0.02066 0.31267 0.98401 0.0
C69 C 0.06965 0.29928 0.1831 0.0
N70 N 0.06621 0.2724 0.14432 0.0
C71 C 0.08671 0.30671 0.27608 0.0
H72 H 0.02282 0.33603 0.9767 0.0
H73 H 0.99884 0.30789 1.01044 0.0
H74 H 0.0237 0.30165 0.9099 0.0
H75 H 0.07244 0.31564 0.33546 0.0
H76 H 0.10263 0.32329 0.25899 0.0
H77 H 0.09818 0.28796 0.30425 0.0
C78 C 0.26327 0.04799 0.0948 0.0
N79 N 0.28731 0.06369 0.08097 0.0
N80 N 0.24326 0.06322 0.14775 0.0
C81 C 0.25984 1.0175 0.06067 0.0
C82 C 0.25632 0.08856 0.16658 0.0
N83 N 0.28307 0.08883 0.12798 0.0
C84 C 0.24386 0.1121 0.232 0.0
H85 H 0.23699 1.01182 0.05325 0.0
H86 H 0.26967 1.00373 0.11716 0.0
H87 H 0.27092 1.01351 0.98806 0.0
H88 H 0.24081 0.10443 0.30914 0.0
H89 H 0.22266 0.11808 0.20293 0.0
H90 H 0.25764 0.13129 0.23446 0.0
C91 C 0.51468 0.25707 0.07839 0.0
N92 N 0.50713 0.28487 0.06887 0.0
N93 N 0.50004 0.245 0.15489 0.0
C94 C 0.53784 0.24243 0.01917 0.0
C95 C 0.48329 0.26665 0.1902 0.0
N96 N 0.48768 0.29063 0.13907 0.0
C97 C 0.46218 0.26452 0.2745 0.0
H98 H 0.52803 0.2274 0.9633 0.0
H99 H 0.5514 0.22988 0.06954 0.0
H100 H 0.55113 0.25791 0.97898 0.0
H101 H 0.47268 0.27053 0.34663 0.0
H102 H 0.45384 0.2425 0.27891 0.0
H103 H 0.44423 0.27943 0.26368 0.0
Eu104 Eu 0.04913 0.02177 0.81022 0.0
C105 C 0.98331 0.9935 0.43726 0.0
C106 C 0.9974 1.01586 0.2831 0.0
C107 C 0.97064 0.97177 0.27542 0.0
C108 C 0.99631 1.01591 0.38888 0.0
C109 C 0.96966 0.97162 0.3805 0.0
C110 C 0.98541 0.9932 0.22708 0.0
C111 C 0.95175 0.95301 0.53504 0.0
N112 N 0.98131 0.99464 0.53908 0.0
C113 C 0.96512 0.97538 0.58815 0.0
C114 C 0.95409 0.95106 0.4308 0.0
Eu115 Eu 0.99886 0.03624 0.61998 0.0
N116 N 1.00582 0.03873 0.44449 0.0
C117 C 1.0148 0.06278 0.39847 0.0
C118 C 1.00891 0.03943 0.23621 0.0
C119 C 1.01726 0.06318 0.29415 0.0
H120 H 0.9625 0.97718 0.66848 0.0
H121 H 0.0253 0.08193 0.25861 0.0
H122 H 0.98644 0.99278 0.14615 0.0
H123 H 0.93926 0.93756 0.57444 0.0
H124 H 0.02091 0.08154 0.44189 0.0
H125 H 0.99981 0.09709 0.07798 0.0
H126 H 1.01028 0.03991 0.15525 0.0
H127 H 0.11883 1.01421 0.75764 0.0
H128 H 1.00181 0.05553 0.96279 0.0
H129 H 0.16362 0.04139 0.77736 0.0
H130 H 0.95968 0.95559 0.23071 0.0
H131 H 0.04184 0.1285 0.09929 0.0
H132 H 0.09247 0.13915 0.05601 0.0
H133 H 0.94304 0.93413 0.38973 0.0
H134 H 0.13668 0.1247 0.97031 0.0
N135 N 0.04454 0.06285 0.91715 0.0
C136 C 0.02038 0.06878 0.97086 0.0
C137 C 0.04289 0.11008 0.04863 0.0
C138 C 0.06782 0.10357 0.99555 0.0
C139 C 0.01916 0.09244 0.03689 0.0
C140 C 0.06814 0.0793 0.93022 0.0
H141 H 0.16345 0.08833 0.86655 0.0
N142 N 0.09304 0.04696 0.82342 0.0
C143 C 0.14383 0.05037 0.80518 0.0
C144 C 0.09295 0.07137 0.88074 0.0
C145 C 0.1184 0.03523 0.7929 0.0
C146 C 0.14364 0.07682 0.85562 0.0
C147 C 0.11819 0.08723 0.89695 0.0
O148 O 0.07804 0.98892 0.86311 0.0
O149 O 1.01839 0.99968 0.70114 0.0
O150 O 0.97333 0.02327 0.75592 0.0
O151 O 1.00571 1.00902 0.87602 0.0
O152 O 0.05964 0.984 0.70568 0.0
O153 O 0.05095 1.01191 0.96817 0.0
O154 O 0.97073 0.07236 0.65358 0.0
O155 O 0.0214 0.05651 0.7531 0.0
O156 O 0.07454 0.03415 0.67106 0.0
O157 O 0.04206 0.03271 0.53872 0.0
O158 O 0.02252 0.07848 0.62127 0.0
O159 O 0.95559 0.03789 0.55922 0.0
C160 C 0.03508 0.98054 0.66388 0.0
C161 C 0.0675 0.96716 0.01573 0.0
C162 C 0.03836 0.93388 0.10552 0.0
C163 C 0.04065 0.95642 0.04 0.0
C164 C 0.06319 0.92176 0.14485 0.0
C165 C 0.0921 0.95488 0.05495 0.0
C166 C 0.08992 0.93216 0.11911 0.0
C167 C 0.97925 1.01357 0.84531 0.0
C168 C 0.07039 0.99248 0.95624 0.0
C169 C 0.11759 0.11212 0.95799 0.0
C170 C 0.09245 0.12027 1.00721 0.0
C171 C 0.03 0.07958 0.71438 0.0
C172 C 0.9436 0.08352 0.51172 0.0
C173 C 0.96307 0.10454 0.48616 0.0
C174 C 0.9595 0.12006 0.39962 0.0
C175 C 0.93535 0.11519 0.3394 0.0
C176 C 0.91934 0.0789 0.45203 0.0
C177 C 0.91514 0.09491 0.36654 0.0
C178 C 0.0685 0.03443 0.57386 0.0
C179 C 0.95118 0.06384 0.59057 0.0
H180 H 0.02164 0.96607 1.01037 0.0
H181 H 0.06193 0.90403 0.19464 0.0
H182 H 0.11297 0.96318 0.03712 0.0
H183 H 0.10893 0.92275 0.14954 0.0
H184 H 0.98216 0.10775 0.53058 0.0
H185 H 0.93211 0.12703 0.27199 0.0
H186 H 0.90421 0.0624 0.46973 0.0
H187 H 0.89656 0.09113 0.31999 0.0
Eu188 Eu 0.53166 0.05962 0.79829 0.0
C189 C 0.55751 0.94392 0.5911 0.0
C190 C 0.59343 0.95293 0.46555 0.0
C191 C 0.59149 0.90691 0.54319 0.0
C192 C 0.57028 0.96228 0.52539 0.0
C193 C 0.56762 0.91584 0.59914 0.0
C194 C 0.60438 0.92542 0.47654 0.0
C195 C 0.52825 0.9066 0.71021 0.0
N196 N 0.53432 0.95307 0.64358 0.0
C197 C 0.5189 0.93456 0.69928 0.0
C198 C 0.55291 0.89729 0.66088 0.0
Eu199 Eu 0.5198 1.00069 0.61986 0.0
N200 N 0.55906 0.98867 0.51552 0.0
C201 C 0.56826 1.00566 0.44082 0.0
C202 C 0.60427 0.97113 0.39392 0.0
C203 C 0.59126 0.99737 0.38008 0.0
H204 H 0.49983 0.94169 0.73766 0.0
H205 H 0.59904 1.01134 0.32322 0.0
H206 H 0.6223 0.91799 0.43181 0.0
H207 H 0.51642 0.89226 0.75652 0.0
H208 H 0.5584 0.02604 0.42965 0.0
H209 H 0.4631 0.04986 0.12498 0.0
H210 H 0.62219 0.96481 0.34743 0.0
H211 H 0.55236 0.11963 0.68932 0.0
H212 H 0.49637 0.03369 0.99588 0.0
H213 H 0.53884 0.17023 0.68632 0.0
H214 H 0.59972 0.88551 0.54906 0.0
H215 H 0.44271 0.09854 0.12155 0.0
H216 H 0.44105 0.14584 0.04129 0.0
H217 H 0.56 0.87556 0.66892 0.0
H218 H 0.46174 0.17867 0.92108 0.0
N219 N 0.49602 0.07252 0.91764 0.0
C220 C 0.48789 0.05483 0.99174 0.0
C221 C 0.45728 0.09129 0.06334 0.0
C222 C 0.46615 0.10963 0.98912 0.0
C223 C 0.46862 0.06393 0.06553 0.0
C224 C 0.48632 0.0997 0.9178 0.0
H225 H 0.49878 0.18818 0.79066 0.0
N226 N 0.51974 0.10863 0.79201 0.0
C227 C 0.5272 0.15585 0.7331 0.0
C228 C 0.49841 0.1183 0.85224 0.0
C229 C 0.53482 0.12713 0.73519 0.0
C230 C 0.50449 0.16586 0.79166 0.0
C231 C 0.4901 0.14716 0.85359 0.0
O232 O 0.56941 0.0831 0.84804 0.0
O233 O 0.55304 0.02815 0.69211 0.0
O234 O 0.54465 0.98419 0.75234 0.0
O235 O 0.52843 1.0162 0.87451 0.0
O236 O 0.56744 0.06936 0.68847 0.0
O237 O 0.5514 0.05114 0.94243 0.0
O238 O 0.48445 0.97408 0.56571 0.0
O239 O 0.49819 0.03292 0.7226 0.0
O240 O 0.50813 0.07775 0.66609 0.0
O241 O 0.51886 0.04395 0.5401 0.0
O242 O 0.48122 0.99266 0.72055 0.0
O243 O 0.50799 1.00011 0.4623 0.0
C244 C 0.57134 0.04402 0.65193 0.0
C245 C 0.60115 0.05039 0.91775 0.0
C246 C 0.62761 1.00685 0.94721 0.0
C247 C 0.60368 0.0241 0.96456 0.0
C248 C 0.64931 1.01631 0.88357 0.0
C249 C 0.62348 0.05973 0.85655 0.0
C250 C 0.64731 0.04268 0.83937 0.0
C251 C 0.53957 0.99115 0.84752 0.0
C252 C 0.57395 0.06608 0.92162 0.0
C253 C 0.46856 0.15665 0.91946 0.0
C254 C 0.45673 0.13795 0.98769 0.0
C255 C 0.47856 1.01793 0.75957 0.0
C256 C 0.46132 0.98647 0.4158 0.0
C257 C 0.45219 1.01387 0.39216 0.0
C258 C 0.42856 1.01719 0.32933 0.0
C259 C 0.4139 0.9929 0.29225 0.0
C260 C 0.44648 0.96251 0.37844 0.0
C261 C 0.42279 0.96576 0.31712 0.0
C262 C 0.51082 0.07009 0.56995 0.0
C263 C 0.48729 0.98198 0.47338 0.0
H264 H 0.58683 1.01673 1.01285 0.0
H265 H 0.66836 1.00377 0.8706 0.0
H266 H 0.62218 0.07982 0.81929 0.0
H267 H 0.66422 0.04985 0.79111 0.0
H268 H 0.46375 0.03242 0.42047 0.0
H269 H 0.3953 0.99493 0.245 0.0
H270 H 0.45346 0.94126 0.39575 0.0
H271 H 0.41139 0.94721 0.28837 0.0
Eu272 Eu 0.55754 0.52306 0.61877 0.0
C273 C 0.43561 0.52688 0.69484 0.0
C274 C 0.41161 0.57209 0.67644 0.0
C275 C 0.38742 0.52825 0.62699 0.0
C276 C 0.43588 0.55634 0.70368 0.0
C277 C 0.41112 0.51258 0.6573 0.0
C278 C 0.38768 0.55793 0.63643 0.0
C279 C 0.43482 0.46806 0.6832 0.0
N280 N 0.45917 0.51219 0.72216 0.0
C281 C 0.45862 0.48303 0.71907 0.0
C282 C 0.41106 0.48287 0.65123 0.0
Eu283 Eu 0.49827 0.53997 0.78664 0.0
N284 N 0.45936 0.5696 0.74196 0.0
C285 C 0.45844 0.59817 0.76588 0.0
C286 C 0.41174 0.60161 0.69271 0.0
C287 C 0.43507 0.61464 0.7394 0.0
H288 H 0.47631 0.47069 0.74297 0.0
H289 H 0.43496 0.63732 0.75621 0.0
H290 H 0.36903 0.56973 0.61426 0.0
H291 H 0.43489 0.44502 0.67988 0.0
H292 H 0.4759 0.6084 0.80583 0.0
H293 H 0.58999 0.41352 0.52043 0.0
H294 H 0.39354 0.61439 0.67282 0.0
H295 H 0.60163 0.57815 0.69543 0.0
H296 H 0.55925 0.45582 0.51722 0.0
H297 H 0.64866 0.58448 0.76936 0.0
H298 H 0.36866 0.51758 0.59698 0.0
H299 H 0.63488 0.41517 0.61708 0.0
H300 H 0.67017 0.44374 0.71823 0.0
H301 H 0.39272 0.47118 0.62274 0.0
H302 H 0.68609 0.49028 0.78597 0.0
N303 N 0.58614 0.48132 0.61235 0.0
C304 C 0.57907 0.45706 0.55792 0.0
C305 C 0.62148 0.43389 0.61566 0.0
C306 C 0.62975 0.45936 0.66465 0.0
C307 C 0.59626 0.43291 0.56061 0.0
C308 C 0.61153 0.4832 0.66087 0.0
H309 H 0.67865 0.54277 0.8027 0.0
N310 N 0.60327 0.53262 0.68948 0.0
C311 C 0.6409 0.56325 0.75104 0.0
C312 C 0.62043 0.50954 0.69969 0.0
C313 C 0.61386 0.55939 0.70899 0.0
C314 C 0.65774 0.53967 0.76982 0.0
C315 C 0.64791 0.51247 0.74211 0.0
O316 O 0.5507 0.54716 0.48307 0.0
O317 O 0.51051 0.53125 0.62691 0.0
O318 O 0.51435 0.4948 0.81951 0.0
O319 O 0.54601 0.48133 0.69203 0.0
O320 O 0.52325 0.49678 0.53768 0.0
O321 O 0.5877 0.52078 0.49396 0.0
O322 O 0.48297 0.51682 0.91618 0.0
O323 O 0.54538 0.53239 0.77911 0.0
O324 O 0.55542 0.57147 0.64446 0.0
O325 O 0.50957 0.58066 0.7026 0.0
O326 O 0.53215 0.56556 0.87329 0.0
O327 O 0.47984 0.56275 0.91447 0.0
C328 C 0.50165 0.51178 0.56703 0.0
C329 C 0.56712 0.52468 0.33507 0.0
C330 C 0.54737 0.48643 0.22816 0.0
C331 C 0.55521 0.49756 0.32306 0.0
C332 C 0.55159 0.5033 0.14425 0.0
C333 C 0.572 0.5409 0.25087 0.0
C334 C 0.56393 0.5303 0.15605 0.0
C335 C 0.53066 0.47561 0.7719 0.0
C336 C 0.57262 0.53653 0.43609 0.0
C337 C 0.6652 0.48842 0.75194 0.0
C338 C 0.65613 0.46192 0.71339 0.0
C339 C 0.55407 0.55129 0.84173 0.0
C340 C 0.4858 0.54225 0.07204 0.0
C341 C 0.50057 0.56633 0.10802 0.0
C342 C 0.50769 0.56957 0.20963 0.0
C343 C 0.50061 0.54808 0.27554 0.0
C344 C 0.47863 0.52093 0.13849 0.0
C345 C 0.48673 0.52354 0.23909 0.0
C346 C 0.53376 0.5891 0.66102 0.0
C347 C 0.47651 0.5401 0.96696 0.0
H348 H 0.55127 0.48541 0.38854 0.0
H349 H 0.5452 0.49596 0.07008 0.0
H350 H 0.58106 0.56205 0.25884 0.0
H351 H 0.56628 0.54352 0.09229 0.0
H352 H 0.50562 0.58329 0.05773 0.0
H353 H 0.50615 0.55017 0.35416 0.0
H354 H 0.46684 0.50229 0.11255 0.0
H355 H 0.48231 0.50641 0.28837 0.0
Eu356 Eu 0.04311 0.55877 0.58708 0.0
C357 C 0.01911 0.44418 0.6828 0.0
C358 C 0.97016 0.42825 0.69974 0.0
C359 C 1.00551 0.39622 0.62641 0.0
C360 C 0.99108 0.44972 0.71077 0.0
C361 C 0.02659 0.41709 0.64198 0.0
C362 C 0.97739 0.40179 0.65517 0.0
C363 C 0.0755 0.43264 0.63757 0.0
N364 N 0.03915 0.46488 0.69747 0.0
C365 C 0.06718 0.45923 0.67728 0.0
C366 C 0.05511 0.41159 0.61878 0.0
Eu367 Eu 0.02221 0.50884 0.76774 0.0
N368 N 0.98461 0.47536 0.75483 0.0
C369 C 0.95861 0.47978 0.79906 0.0
C370 C 0.94279 0.43362 0.73728 0.0
C371 C 0.93715 0.45932 0.78874 0.0
H372 H 0.08334 0.47522 0.68844 0.0
H373 H 0.91636 0.46328 0.82117 0.0
H374 H 0.96152 0.38519 0.64507 0.0
H375 H 0.09764 0.42855 0.62017 0.0
H376 H 0.95439 0.49949 0.84056 0.0
H377 H 0.09841 0.63787 0.83215 0.0
H378 H 0.92619 0.41766 0.73016 0.0
H379 H 0.99994 0.5752 0.39506 0.0
H380 H 0.09254 0.59253 0.74209 0.0
H381 H 0.96771 0.61426 0.34754 0.0
H382 H 1.01087 0.37548 0.59392 0.0
H383 H 0.06239 0.67567 0.81742 0.0
H384 H 1.01826 0.69311 0.73515 0.0
H385 H 0.06163 0.39111 0.58708 0.0
H386 H 0.98224 0.68655 0.60282 0.0
N387 N 0.05247 0.60296 0.67584 0.0
C388 C 0.07618 0.60815 0.73352 0.0
C389 C 0.0595 0.65552 0.77688 0.0
C390 C 0.03636 0.651 0.71262 0.0
C391 C 0.07989 0.63427 0.78514 0.0
C392 C 0.03367 0.62439 0.66087 0.0
H393 H 0.96395 0.65761 0.4556 0.0
N394 N 1.01323 0.59603 0.53134 0.0
C395 C 0.97998 0.61604 0.41603 0.0
C396 C 1.0133 0.62072 0.58677 0.0
C397 C 0.99823 0.5941 0.44316 0.0
C398 C 0.97791 0.64053 0.47732 0.0
C399 C 0.99524 0.64348 0.56227 0.0
O400 O 0.05855 0.58139 0.45662 0.0
O401 O 0.04035 0.51162 0.61307 0.0
O402 O 0.06977 0.51481 0.79117 0.0
O403 O 0.08348 0.54823 0.67546 0.0
O404 O 0.02321 0.52575 0.48033 0.0
O405 O 0.08269 0.54656 0.5118 0.0
O406 O 0.03834 0.51901 0.91836 0.0
O407 O 0.03295 0.5552 0.75057 0.0
O408 O 0.99464 0.55219 0.56909 0.0
O409 O 0.98051 0.5198 0.68788 0.0
O410 O 0.99371 0.54599 0.81349 0.0
O411 O 1.01542 0.48012 0.89172 0.0
C412 C 0.02807 0.50343 0.5315 0.0
C413 C 0.07891 0.54913 0.33646 0.0
C414 C 0.09565 0.50979 0.22648 0.0
C415 C 0.0971 0.52593 0.31737 0.0
C416 C 0.07609 0.51822 0.15324 0.0
C417 C 0.06008 0.55743 0.26111 0.0
C418 C 0.05901 0.54222 0.16976 0.0
C419 C 0.08914 0.53128 0.75048 0.0
C420 C 0.07869 0.56318 0.43725 0.0
C421 C 0.99628 0.66905 0.61944 0.0
C422 C 1.01681 0.6728 0.69465 0.0
C423 C 1.01122 0.56633 0.7935 0.0
C424 C 1.00903 0.50314 0.0476 0.0
C425 C 0.99063 0.52657 0.05046 0.0
C426 C 0.97166 0.5309 0.12998 0.0
C427 C 0.97191 0.51196 0.20936 0.0
C428 C 1.00932 0.48453 0.12744 0.0
C429 C 0.99086 0.48909 0.20833 0.0
C430 C 0.97483 0.53667 0.61283 0.0
C431 C 0.02657 0.49721 0.95882 0.0
H432 H 0.11257 0.52081 0.3741 0.0
H433 H 0.07404 0.50651 0.08267 0.0
H434 H 0.04602 0.57546 0.27279 0.0
H435 H 0.04475 0.54906 0.11172 0.0
H436 H 0.99059 0.54128 0.99029 0.0
H437 H 0.95657 0.51396 0.26945 0.0
H438 H 0.02338 0.46626 0.12628 0.0
H439 H 0.99039 0.47428 0.26832 0.0
H440 H 0.23679 0.02376 0.2904 0.0
H441 H 0.07227 0.0639 0.39727 0.0
H442 H 0.18979 0.08285 0.11535 0.0
H443 H 0.12129 1.00943 0.58423 0.0
H444 H 0.11327 0.06781 0.28474 0.0
H445 H 0.19351 1.01468 0.38888 0.0
C446 C 0.21716 0.03431 0.27129 0.0
C447 C 0.21688 0.0539 0.19397 0.0
C448 C 0.1151 0.05492 0.35029 0.0
C449 C 0.16711 0.0442 0.30809 0.0
C450 C 0.09144 0.05247 0.41443 0.0
C451 C 0.09304 0.03641 0.50148 0.0
C452 C 0.14084 0.04109 0.37245 0.0
C453 C 0.11904 0.02263 0.51989 0.0
C454 C 0.19247 0.0294 0.32819 0.0
C455 C 0.19092 0.06751 0.17399 0.0
N456 N 0.14172 0.02528 0.45653 0.0
N457 N 0.16725 0.06253 0.2306 0.0
H458 H 0.49976 0.19138 0.0673 0.0
H459 H 0.52454 0.06936 0.36636 0.0
H460 H 0.51046 0.23619 0.35131 0.0
H461 H 0.48761 0.12326 0.59953 0.0
H462 H 0.52291 0.10965 0.25262 0.0
H463 H 0.50154 0.1458 0.155 0.0
C464 C 0.50272 0.19162 0.14776 0.0
C465 C 0.5044 0.21776 0.20205 0.0
C466 C 0.51499 0.11257 0.32848 0.0
C467 C 0.50611 0.16578 0.30353 0.0
C468 C 0.5159 0.0895 0.39373 0.0
C469 C 0.50682 0.09286 0.49424 0.0
C470 C 0.50525 0.13938 0.36423 0.0
C471 C 0.49574 0.11961 0.52433 0.0
C472 C 0.50369 0.16561 0.19798 0.0
C473 C 0.50823 0.21673 0.30651 0.0
N474 N 0.49575 0.14172 0.46071 0.0
N475 N 0.50851 0.19142 0.35348 0.0
H476 H 0.36938 0.46857 0.13449 0.0
H477 H 0.46871 0.55789 0.51616 0.0
H478 H 0.33707 0.54349 0.28928 0.0
H479 H 0.47413 0.46676 0.47639 0.0
H480 H 0.42517 0.55734 0.41256 0.0
H481 H 0.41315 0.47231 0.23454 0.0
C482 C 0.37162 0.48596 0.18914 0.0
C483 C 0.34934 0.50552 0.20426 0.0
C484 C 0.43578 0.53748 0.42723 0.0
C485 C 0.39974 0.5102 0.3189 0.0
C486 C 0.46054 0.53774 0.48674 0.0
C487 C 0.47468 0.51222 0.50732 0.0
C488 C 0.42553 0.51159 0.38532 0.0
C489 C 0.46369 0.48686 0.464 0.0
C490 C 0.39658 0.48805 0.24642 0.0
C491 C 0.35373 0.52804 0.27476 0.0
N492 N 0.4399 0.4872 0.40531 0.0
N493 N 0.37836 0.52976 0.3296 0.0
H494 H 1.00373 0.33844 0.20915 0.0
H495 H 0.07679 0.48041 0.45175 0.0
H496 H 0.09008 0.36334 0.15166 0.0
H497 H 0.9873 0.46335 0.47888 0.0
H498 H 0.08189 0.43695 0.34516 0.0
H499 H 0.99656 0.38347 0.30657 0.0
C500 C 0.02094 0.35375 0.21463 0.0
C501 C 0.04745 0.34716 0.17066 0.0
C502 C 0.06113 0.44253 0.37467 0.0
C503 C 0.0398 0.39859 0.2858 0.0
C504 C 0.05828 0.46726 0.43628 0.0
C505 C 0.03177 0.47519 0.47684 0.0
C506 C 0.03723 0.42535 0.352 0.0
C507 C 1.00832 0.4577 0.45165 0.0
C508 C 1.01699 0.37934 0.27148 0.0
C509 C 0.06925 0.36754 0.1833 0.0
N510 N 1.01161 0.43359 0.392 0.0
N511 N 0.06504 0.39201 0.23977 0.0
H512 H 0.81427 0.0275 0.14666 0.0
H513 H 0.97016 0.97133 0.98261 0.0
H514 H 0.85855 0.96222 0.30263 0.0
H515 H 0.93138 0.04611 0.86477 0.0
H516 H 0.92888 0.96607 0.09486 0.0
H517 H 0.85678 0.03453 0.04261 0.0
C518 C 0.83313 1.01499 0.1602 0.0
C519 C 0.83272 0.99422 0.2336 0.0
C520 C 0.92963 0.9839 0.04564 0.0
C521 C 0.88153 1.00145 0.11209 0.0
C522 C 0.9532 0.98684 0.9813 0.0
C523 C 0.95457 1.00939 0.91492 0.0
C524 C 0.90718 1.00377 0.04451 0.0
C525 C 0.93142 0.0284 0.91475 0.0
C526 C 0.85736 1.01877 0.10001 0.0
C527 C 0.85772 0.97822 0.24623 0.0
N528 N 0.90893 0.02526 0.97837 0.0
N529 N 0.88089 0.98198 0.18593 0.0
H530 H 0.58968 0.83641 0.14097 0.0
H531 H 0.51536 0.98683 0.03582 0.0
H532 H 0.51826 0.86795 0.31249 0.0
H533 H 0.57535 0.94496 0.83617 0.0
H534 H 0.52112 0.94807 0.15366 0.0
H535 H 0.59016 0.88046 0.0473 0.0
C536 C 0.57446 0.85298 0.16027 0.0
C537 C 0.55393 0.84848 0.23469 0.0
C538 C 0.53315 0.94746 0.08434 0.0
C539 C 0.55387 0.89911 0.12599 0.0
C540 C 0.52997 0.9697 0.01698 0.0
C541 C 0.54461 0.96916 0.92479 0.0
C542 C 0.55139 0.9245 0.06033 0.0
C543 C 0.56324 0.94623 0.90525 0.0
C544 C 0.57456 0.87806 0.10623 0.0
C545 C 0.53459 0.87064 0.25637 0.0
N546 N 0.56599 0.92495 0.97183 0.0
N547 N 0.53485 0.89484 0.20175 0.0
H548 H 0.71818 0.51302 0.12376 0.0
H549 H 0.58026 0.59659 0.934 0.0
H550 H 0.69569 0.59766 0.22653 0.0
H551 H 0.58884 0.5059 0.8885 0.0
H552 H 0.62354 0.59714 0.0364 0.0
H553 H 0.67208 0.50914 0.03489 0.0
C554 C 0.70326 0.53052 0.12939 0.0
C555 C 0.71076 0.55569 0.18288 0.0
C556 C 0.61617 0.57707 1.00375 0.0
C557 C 0.65825 0.55179 0.07938 0.0
C558 C 0.59148 0.5768 0.94465 0.0
C559 C 0.58136 0.55133 0.89958 0.0
C560 C 0.63113 0.55165 0.01894 0.0
C561 C 0.59642 0.52618 0.91866 0.0
C562 C 0.67705 0.52842 0.07804 0.0
C563 C 0.69083 0.57795 0.18595 0.0
N564 N 0.62061 0.52699 0.97603 0.0
N565 N 0.66579 0.57559 0.13451 0.0
H566 H 0.04009 0.73037 0.1199 0.0
H567 H 0.96667 0.6023 0.83375 0.0
H568 H 0.96634 0.69233 0.25249 0.0
H569 H 0.05424 0.58928 0.9139 0.0
H570 H 0.965 0.6437 0.95203 0.0
H571 H 0.04618 0.68682 1.01236 0.0
C572 C 0.02545 0.71279 0.12778 0.0
C573 C 1.00241 0.71542 0.1951 0.0
C574 C 0.98475 0.6321 0.9422 0.0
C575 C 1.00851 0.66596 0.06842 0.0
C576 C 0.98579 0.60855 0.87423 0.0
C577 C 1.0111 0.59306 0.85919 0.0
C578 C 1.00926 0.64065 0.9958 0.0
C579 C 0.03477 0.60153 0.918 0.0
C580 C 0.02878 0.68804 0.0656 0.0
C581 C 0.9839 0.69183 0.20011 0.0
N582 N 0.03348 0.62495 0.98207 0.0
N583 N 0.98695 0.66858 0.13662 0.0
H584 H 0.08567 0.21891 0.09502 0.0
H585 H 0.98687 0.15838 0.52294 0.0
H586 H 0.04518 0.26905 0.33096 0.0
H587 H 0.98424 0.12649 0.21592 0.0
H588 H 0.02602 0.18977 0.47976 0.0
H589 H 0.06627 0.17567 0.16928 0.0
C590 C 0.07373 0.22075 0.16426 0.0
C591 C 0.06618 0.2476 0.20496 0.0
C592 C 1.01711 0.17558 0.42227 0.0
C593 C 0.04547 0.19886 0.29187 0.0
C594 C 0.99467 0.15788 0.44643 0.0
C595 C 0.98211 0.14013 0.37223 0.0
C596 C 0.02695 0.17572 0.32317 0.0
C597 C 0.99303 0.14032 0.27445 0.0
C598 C 0.06278 0.19619 0.20638 0.0
C599 C 0.05154 0.2489 0.29669 0.0
N600 N 1.01475 0.15814 0.25225 0.0
N601 N 0.04133 0.2249 0.33628 0.0
H602 H 0.32279 0.11999 0.02947 0.0
H603 H 0.41999 0.06387 0.45473 0.0
H604 H 0.29622 0.09621 0.32387 0.0
H605 H 0.41384 0.03513 0.1451 0.0
H606 H 0.39191 0.10611 0.41466 0.0
H607 H 0.37213 0.12252 0.08953 0.0
C608 C 0.3272 0.11651 0.1077 0.0
C609 C 0.30614 0.10555 0.16989 0.0
C610 C 0.39805 0.0912 0.35487 0.0
C611 C 0.36138 0.11005 0.24008 0.0
C612 C 0.41376 0.06703 0.37766 0.0
C613 C 0.41847 0.04573 0.3033 0.0
C614 C 0.38754 0.09401 0.25714 0.0
C615 C 0.40998 0.05076 0.20491 0.0
C616 C 0.35518 0.1185 0.14238 0.0
C617 C 0.31223 0.10351 0.27234 0.0
N618 N 0.39458 0.07418 0.18493 0.0
N619 N 0.33958 0.10489 0.30401 0.0
H620 H 0.46041 0.33218 0.04061 0.0
H621 H 0.56085 0.43945 0.33343 0.0
H622 H 0.50314 0.31405 0.31651 0.0
H623 H 0.50372 0.4675 0.10336 0.0
H624 H 0.53621 0.39428 0.33387 0.0
H625 H 0.46968 0.38314 0.07196 0.0
C626 C 0.47054 0.33916 0.11009 0.0
C627 C 0.48153 0.31911 0.17533 0.0
C628 C 0.52864 0.41041 0.28426 0.0
C629 C 0.49266 0.37669 0.21089 0.0
C630 C 0.54276 0.43635 0.28397 0.0
C631 C 0.53387 0.45782 0.22036 0.0
C632 C 0.50573 0.40534 0.2186 0.0
C633 C 0.51104 0.45186 0.15487 0.0
C634 C 0.47608 0.36812 0.12755 0.0
C635 C 0.49442 0.32892 0.26447 0.0
N636 N 0.49779 0.42609 0.15533 0.0
N637 N 0.50026 0.35699 0.27851 0.0
H638 H 0.25591 0.46726 0.30232 0.0
H639 H 0.11609 0.48875 0.04321 0.0
H640 H 0.24614 0.45445 0.98328 0.0
H641 H 0.12238 0.47457 0.36092 0.0
H642 H 0.15942 0.46219 0.01642 0.0
H643 H 0.20618 0.45474 0.32541 0.0
C644 C 0.24348 0.46049 0.23744 0.0
C645 C 0.25475 0.46234 0.14073 0.0
C646 C 0.15104 0.46435 0.09196 0.0
C647 C 0.19744 0.44979 0.1654 0.0
C648 C 0.12614 0.4799 0.10775 0.0
C649 C 0.11645 0.48623 0.20575 0.0
C650 C 0.16652 0.4552 0.17486 0.0
C651 C 0.13002 0.4724 0.28463 0.0
C652 C 0.21494 0.4536 0.25027 0.0
C653 C 0.23782 0.45373 0.05884 0.0
N654 N 0.15483 0.45833 0.26793 0.0
N655 N 0.20962 0.44878 0.07256 0.0
H656 H 0.96215 0.79866 0.08916 0.0
H657 H 0.01903 0.92306 0.29112 0.0
H658 H 0.94265 0.82248 0.39578 0.0
H659 H 0.99344 0.92016 0.98141 0.0
H660 H 0.97774 0.8946 0.33309 0.0
H661 H 0.95398 0.84706 0.04138 0.0
C662 C 0.95492 0.81395 0.14604 0.0
C663 C 0.95474 0.80712 0.24755 0.0
C664 C 0.98059 0.90067 0.25612 0.0
C665 C 0.94786 0.86302 0.1948 0.0
C666 C 1.00454 0.91634 0.23229 0.0
C667 C 1.01029 0.92254 0.13265 0.0
C668 C 0.96291 0.89004 0.17876 0.0
C669 C 0.99002 0.91515 0.05918 0.0
C670 C 0.95032 0.8418 0.11885 0.0
C671 C 0.94487 0.82756 0.31766 0.0
N672 N 0.96757 0.89845 0.08317 0.0
N673 N 0.94302 0.85512 0.29092 0.0
H674 H 0.71817 0.94238 0.40218 0.0
H675 H 0.64644 0.95478 0.87654 0.0
H676 H 0.75612 0.95029 0.11002 0.0
H677 H 0.61885 0.99917 0.14722 0.0
H678 H 0.67272 0.92143 0.97859 0.0
H679 H 0.67182 0.93386 0.32055 0.0
C680 C 0.71699 0.94154 0.32126 0.0
C681 C 0.74076 0.9485 0.26305 0.0
C682 C 0.65977 0.93766 0.01573 0.0
C683 C 0.68883 0.93631 0.16989 0.0
C684 C 0.64501 0.95682 0.95758 0.0
C685 C 0.63196 0.98065 1.00374 0.0
C686 C 0.66191 0.94299 0.11969 0.0
C687 C 0.62964 0.98168 0.10866 0.0
C688 C 0.69073 0.93604 0.27492 0.0
C689 C 0.73848 0.94526 0.15838 0.0
N690 N 0.64547 0.96372 0.16347 0.0
N691 N 0.71294 0.93977 0.11534 0.0
H692 H 0.58096 0.73752 0.1916 0.0
H693 H 0.48849 0.6051 0.35973 0.0
H694 H 0.49492 0.74366 0.29938 0.0
H695 H 0.55424 0.59622 0.13512 0.0
H696 H 0.49916 0.6561 0.37577 0.0
H697 H 0.57746 0.68524 0.19315 0.0
C698 C 0.56103 0.72763 0.21188 0.0
C699 C 0.53803 0.74437 0.24414 0.0
C700 C 0.51155 0.64281 0.32428 0.0
C701 C 0.53435 0.6856 0.25208 0.0
C702 C 0.50581 0.61374 0.31646 0.0
C703 C 0.52022 0.59678 0.24481 0.0
C704 C 0.53183 0.65461 0.26029 0.0
C705 C 0.54247 0.60886 0.19026 0.0
C706 C 0.55922 0.69807 0.21498 0.0
C707 C 0.51285 0.73108 0.27294 0.0
N708 N 0.54734 0.63725 0.1979 0.0
N709 N 0.51175 0.70237 0.27776 0.0
H710 H 0.82305 0.60724 0.33585 0.0
H711 H 0.93789 0.54183 0.96932 0.0
H712 H 0.80644 0.569 0.0442 0.0
H713 H 0.95465 0.56975 0.27428 0.0
H714 H 0.89385 0.56912 0.97277 0.0
H715 H 0.87368 0.6106 0.29273 0.0
C716 C 0.83003 0.60064 0.26129 0.0
C717 C 0.81093 0.58748 0.19378 0.0
C718 C 0.9074 0.56986 0.0385 0.0
C719 C 0.86833 0.59089 0.14407 0.0
C720 C 0.93262 0.55433 0.03644 0.0
C721 C 0.94922 0.55274 0.1235 0.0
C722 C 0.89863 0.58346 0.12864 0.0
C723 C 0.94171 0.5697 0.20738 0.0
C724 C 0.85883 0.60245 0.23669 0.0
C725 C 0.82067 0.57926 0.09802 0.0
N726 N 0.91654 0.58386 0.20903 0.0
N727 N 0.84883 0.58056 0.07662 0.0
H728 H 1.0048 0.23745 0.08271 0.0
H729 H 0.0739 0.11817 0.70556 0.0
H730 H 0.07891 0.25255 0.90347 0.0
H731 H 0.99086 0.10839 0.83547 0.0
H732 H 0.07671 0.16653 0.7818 0.0
H733 H 0.99924 0.19029 0.99735 0.0
C734 C 0.0193 0.23126 0.02282 0.0
C735 C 0.04191 0.2495 0.99845 0.0
C736 C 0.05789 0.15384 0.79449 0.0
C737 C 0.03643 0.19462 0.90225 0.0
C738 C 0.05637 0.12605 0.75123 0.0
C739 C 0.03263 0.10848 0.76726 0.0
C740 C 0.03526 0.16482 0.85357 0.0
C741 C 1.01011 0.12054 0.82422 0.0
C742 C 1.0164 0.20409 0.97488 0.0
C743 C 0.06078 0.23963 0.92295 0.0
N744 N 1.01209 0.1476 0.86579 0.0
N745 N 0.05778 0.21306 0.87859 0.0
H746 H 0.30814 0.08197 0.90473 0.0
H747 H 0.4506 0.98826 0.90136 0.0
H748 H 0.32782 0.02647 0.14492 0.0
H749 H 0.44563 0.06714 0.74726 0.0
H750 H 0.40444 0.99869 0.98075 0.0
H751 H 0.35582 0.07313 0.8331 0.0
C752 C 0.3224 0.06756 0.94156 0.0
C753 C 0.31388 0.05504 0.03119 0.0
C754 C 0.41345 1.0139 0.93033 0.0
C755 C 0.36882 0.0444 0.94862 0.0
C756 C 0.43995 1.00801 0.88505 0.0
C757 C 0.45244 0.02698 0.81818 0.0
C758 C 0.39839 0.03862 0.90668 0.0
C759 C 0.43722 0.05205 0.79929 0.0
C760 C 0.34975 0.0627 0.90112 0.0
C761 C 0.33332 0.03648 0.07559 0.0
N762 N 0.41101 0.05694 0.84216 0.0
N763 N 0.35965 0.03163 0.03376 0.0
H764 H 0.49327 0.29707 0.87767 0.0
H765 H 0.54375 0.45807 0.96029 0.0
H766 H 0.54665 0.32439 0.12409 0.0
H767 H 0.51969 0.42515 0.66797 0.0
H768 H 0.54383 0.40939 0.0222 0.0
H769 H 0.50221 0.34276 0.79722 0.0
C770 C 0.50784 0.31223 0.91273 0.0
C771 C 0.51964 0.30662 1.00689 0.0
C772 C 0.5384 0.41272 0.94456 0.0
C773 C 0.52883 0.35979 0.91801 0.0
C774 C 0.53819 0.44061 0.90948 0.0
C775 C 0.53135 0.44586 0.80935 0.0
C776 C 0.53093 0.38964 0.87989 0.0
C777 C 0.525 0.42216 0.74594 0.0
C778 C 0.5126 0.33853 0.86766 0.0
C779 C 0.53756 0.32757 0.05073 0.0
N780 N 0.52451 0.39524 0.78244 0.0
N781 N 0.54115 0.35327 1.00718 0.0
H782 H 0.23011 0.52209 0.17412 0.0
H783 H 0.14185 0.53339 0.65637 0.0
H784 H 0.26972 0.51194 0.88467 0.0
H785 H 0.10331 0.53027 0.94848 0.0
H786 H 0.18926 0.53108 0.73591 0.0
H787 H 0.18436 0.53101 0.0918 0.0
C788 C 0.22929 0.52263 0.09304 0.0
C789 C 0.25391 0.51669 0.03635 0.0
C790 C 0.17043 0.53092 0.7827 0.0
C791 C 0.20118 0.52645 0.94021 0.0
C792 C 0.14334 0.53232 0.73723 0.0
C793 C 0.11844 0.5314 0.79567 0.0
C794 C 0.17279 0.52917 0.88784 0.0
C795 C 0.12181 0.53024 0.90021 0.0
C796 C 0.20308 0.52741 0.04577 0.0
C797 C 0.25142 0.51694 0.9312 0.0
N798 N 0.14824 0.52918 0.94257 0.0
N799 N 0.22562 0.52157 0.88664 0.0
H800 H 0.98431 0.80305 0.51371 0.0
H801 H 0.05839 0.95857 0.48946 0.0
H802 H 0.02934 0.83046 0.25358 0.0
H803 H 0.99863 0.93683 0.71879 0.0
H804 H 0.0527 0.91057 0.41239 0.0
H805 H 0.99319 0.84989 0.59675 0.0
C806 C 0.99671 0.81871 0.47494 0.0
C807 C 1.00641 0.81239 0.37677 0.0
C808 C 0.04007 0.91648 0.4777 0.0
C809 C 1.01666 0.86692 0.47193 0.0
C810 C 0.04331 0.94406 0.52196 0.0
C811 C 0.02789 0.95268 0.60835 0.0
C812 C 0.02114 0.89676 0.51915 0.0
C813 C 1.00994 0.93196 0.64963 0.0
C814 C 1.00156 0.84568 0.5221 0.0
C815 C 0.02184 0.834 0.32968 0.0
N816 N 1.00687 0.90538 0.60451 0.0
N817 N 0.02651 0.86 0.3774 0.0
H818 H 0.74362 0.97895 0.5349 0.0
H819 H 0.60164 0.07264 0.51358 0.0
H820 H 0.7212 0.02453 0.27216 0.0
H821 H 0.60588 0.9973 0.68819 0.0
H822 H 0.64839 0.06088 0.44084 0.0
H823 H 0.69697 0.99126 0.60946 0.0
C824 C 0.72903 0.99206 0.49389 0.0
C825 C 0.73637 1.00085 0.39747 0.0
C826 C 0.6391 0.04682 0.49467 0.0
C827 C 0.68277 1.01514 0.48229 0.0
C828 C 0.61238 0.05352 0.53638 0.0
C829 C 0.59936 0.03561 0.60543 0.0
C830 C 0.65377 0.02248 0.52461 0.0
C831 C 0.61466 1.01137 0.63342 0.0
C832 C 0.70229 0.9988 0.53587 0.0
C833 C 0.71651 1.01752 0.34689 0.0
N834 N 0.64103 1.00565 0.59354 0.0
N835 N 0.69076 0.02419 0.38985 0.0
H836 H 0.50491 0.76624 0.49457 0.0
H837 H 0.58159 0.61615 0.5891 0.0
H838 H 0.59174 0.74833 0.41545 0.0
H839 H 0.49366 0.63277 0.66118 0.0
H840 H 0.58672 0.66547 0.53866 0.0
H841 H 0.50191 0.71994 0.57542 0.0
C842 C 0.52381 0.75319 0.49884 0.0
C843 C 0.54885 0.76165 0.45019 0.0
C844 C 0.56633 0.65846 0.56658 0.0
C845 C 0.54528 0.70758 0.53846 0.0
C846 C 0.56332 0.63008 0.59565 0.0
C847 C 0.53717 0.61982 0.63182 0.0
C848 C 0.54305 0.67726 0.57299 0.0
C849 C 0.51439 0.63937 0.63639 0.0
C850 C 0.52193 0.72638 0.54296 0.0
C851 C 0.57229 0.74311 0.45423 0.0
N852 N 0.51784 0.66687 0.60754 0.0
N853 N 0.56985 0.717 0.49591 0.0
H854 H 0.82465 0.52301 0.2213 0.0
H855 H 0.95958 0.54116 0.41805 0.0
H856 H 0.79622 0.5664 0.49156 0.0
H857 H 0.92235 0.53244 0.70986 0.0
H858 H 0.91185 0.54021 0.34392 0.0
H859 H 0.87103 0.51504 0.29993 0.0
C860 C 0.82798 0.53013 0.29846 0.0
C861 C 0.80637 0.54508 0.35015 0.0
C862 C 0.91399 0.53862 0.42408 0.0
C863 C 0.86023 0.53717 0.44066 0.0
C864 C 0.9413 0.53931 0.46653 0.0
C865 C 0.9452 0.53693 0.57011 0.0
C866 C 0.8898 0.53644 0.48534 0.0
C867 C 0.9205 0.53427 0.6294 0.0
C868 C 0.85469 0.5261 0.34298 0.0
C869 C 0.81212 0.5544 0.4496 0.0
N870 N 0.8939 0.53457 0.58653 0.0
N871 N 0.83845 0.55044 0.4914 0.0
loop_
_geom_bond_atom_site_label_1
_geom_bond_atom_site_label_2
_geom_bond_distance
_geom_bond_site_symmetry_2
_ccdc_geom_bond_type
C0 N1 1.317 . S
C0 N2 1.348 . S
C0 C3 1.485 . S
N1 C0 1.317 . S
N1 N5 1.370 . S
N2 C0 1.348 . S
N2 C4 1.346 . S
C3 C0 1.485 . S
C3 H7 0.960 . S
C3 H8 0.961 . S
C3 H9 0.960 . S
C4 N2 1.346 . S
C4 N5 1.307 . S
C4 C6 1.486 . S
N5 N1 1.370 . S
N5 C4 1.307 . S
C6 C4 1.486 . S
C6 H10 0.960 . S
C6 H11 0.960 . S
C6 H12 0.959 . S
H7 C3 0.960 . S
H8 C3 0.961 . S
H9 C3 0.960 . S
H10 C6 0.960 . S
H11 C6 0.960 . S
H12 C6 0.959 . S
C13 N14 1.317 . S
C13 N15 1.348 . S
C13 C16 1.485 . S
N14 C13 1.317 . S
N14 N18 1.370 . S
N15 C13 1.348 . S
N15 C17 1.346 . S
C16 C13 1.485 . S
C16 H20 0.960 . S
C16 H21 0.961 . S
C16 H22 0.960 . S
C17 N15 1.346 . S
C17 N18 1.307 . S
C17 C19 1.486 . S
N18 N14 1.370 . S
N18 C17 1.307 . S
C19 C17 1.486 . S
C19 H23 0.960 . S
C19 H24 0.960 . S
C19 H25 0.959 . S
H20 C16 0.960 . S
H21 C16 0.961 . S
H22 C16 0.960 . S
H23 C19 0.960 . S
H24 C19 0.960 . S
H25 C19 0.959 . S
C26 N27 1.317 . S
C26 N28 1.348 . S
C26 C29 1.485 . S
N27 C26 1.317 . S
N27 N31 1.370 . S
N28 C26 1.348 . S
N28 C30 1.346 . S
C29 C26 1.485 . S
C29 H33 0.960 . S
C29 H34 0.961 . S
C29 H35 0.960 . S
C30 N28 1.346 . S
C30 N31 1.307 . S
C30 C32 1.486 . S
N31 N27 1.370 . S
N31 C30 1.307 . S
C32 C30 1.486 . S
C32 H36 0.960 . S
C32 H37 0.960 . S
C32 H38 0.959 . S
H33 C29 0.960 . S
H34 C29 0.961 . S
H35 C29 0.960 . S
H36 C32 0.960 . S
H37 C32 0.960 . S
H38 C32 0.959 . S
C39 N40 1.317 . S
C39 N41 1.348 . S
C39 C42 1.485 . S
N40 C39 1.317 . S
N40 N44 1.370 . S
N41 C39 1.348 . S
N41 C43 1.346 . S
C42 C39 1.485 . S
C42 H46 0.960 . S
C42 H47 0.961 . S
C42 H48 0.960 . S
C43 N41 1.346 . S
C43 N44 1.307 . S
C43 C45 1.486 . S
N44 N40 1.370 . S
N44 C43 1.307 . S
C45 C43 1.486 . S
C45 H49 0.960 . S
C45 H50 0.960 . S
C45 H51 0.959 . S
H46 C42 0.960 . S
H47 C42 0.961 . S
H48 C42 0.960 . S
H49 C45 0.960 . S
H50 C45 0.960 . S
H51 C45 0.959 . S
C52 N53 1.317 . S
C52 N54 1.348 1_556 S
C52 C55 1.485 . S
N53 C52 1.317 . S
N53 N57 1.370 1_556 S
N54 C52 1.348 1_554 S
N54 C56 1.346 . S
C55 C52 1.485 . S
C55 H59 0.960 . S
C55 H60 0.961 . S
C55 H61 0.960 . S
C56 N54 1.346 . S
C56 N57 1.307 . S
C56 C58 1.486 . S
N57 N53 1.370 1_554 S
N57 C56 1.307 . S
C58 C56 1.486 . S
C58 H62 0.960 . S
C58 H63 0.960 . S
C58 H64 0.959 . S
H59 C55 0.960 . S
H60 C55 0.961 . S
H61 C55 0.960 . S
H62 C58 0.960 . S
H63 C58 0.960 . S
H64 C58 0.959 . S
C65 N66 1.317 . S
C65 N67 1.348 1_556 S
C65 C68 1.485 . S
N66 C65 1.317 . S
N66 N70 1.370 1_556 S
N67 C65 1.348 1_554 S
N67 C69 1.346 . S
C68 C65 1.485 . S
C68 H72 0.960 . S
C68 H73 0.961 . S
C68 H74 0.960 . S
C69 N67 1.346 . S
C69 N70 1.307 . S
C69 C71 1.486 . S
N70 N66 1.370 1_554 S
N70 C69 1.307 . S
C71 C69 1.486 . S
C71 H75 0.960 . S
C71 H76 0.960 . S
C71 H77 0.959 . S
H72 C68 0.960 . S
H73 C68 0.961 . S
H74 C68 0.960 . S
H75 C71 0.960 . S
H76 C71 0.960 . S
H77 C71 0.959 . S
C78 N79 1.317 . S
C78 N80 1.348 1_556 S
C78 C81 1.485 . S
N79 C78 1.317 . S
N79 N83 1.370 1_556 S
N80 C78 1.348 1_554 S
N80 C82 1.346 . S
C81 C78 1.485 . S
C81 H85 0.960 . S
C81 H86 0.961 . S
C81 H87 0.960 . S
C82 N80 1.346 . S
C82 N83 1.307 . S
C82 C84 1.486 . S
N83 N79 1.370 1_554 S
N83 C82 1.307 . S
C84 C82 1.486 . S
C84 H88 0.960 . S
C84 H89 0.960 . S
C84 H90 0.959 . S
H85 C81 0.960 . S
H86 C81 0.961 . S
H87 C81 0.960 . S
H88 C84 0.960 . S
H89 C84 0.960 . S
H90 C84 0.959 . S
C91 N92 1.317 . S
C91 N93 1.348 1_556 S
C91 C94 1.485 . S
N92 C91 1.317 . S
N92 N96 1.370 1_556 S
N93 C91 1.348 1_554 S
N93 C95 1.346 . S
C94 C91 1.485 . S
C94 H98 0.960 . S
C94 H99 0.961 . S
C94 H100 0.960 . S
C95 N93 1.346 . S
C95 N96 1.307 . S
C95 C97 1.486 . S
N96 N92 1.370 1_554 S
N96 C95 1.307 . S
C97 C95 1.486 . S
C97 H101 0.960 . S
C97 H102 0.960 . S
C97 H103 0.959 . S
H98 C94 0.960 . S
H99 C94 0.961 . S
H100 C94 0.960 . S
H101 C97 0.960 . S
H102 C97 0.960 . S
H103 C97 0.959 . S
Eu104 N135 2.657 1_565 S
Eu104 N142 2.609 1_565 S
Eu104 O148 2.558 . S
Eu104 O149 2.612 1_455 S
Eu104 O151 2.339 1_455 S
Eu104 O152 2.563 . S
Eu104 O153 2.419 . S
Eu104 O155 2.380 1_565 S
Eu104 O156 2.432 . S
Eu104 C168 2.848 . S
C105 C108 1.429 1_545 S
C105 C109 1.411 1_545 S
C105 N112 1.377 . S
C106 C108 1.420 . S
C106 C110 1.423 . S
C106 C118 1.392 . S
C107 C109 1.420 . S
C107 C110 1.351 . S
C107 H130 0.931 . S
C108 C105 1.429 1_565 S
C108 C106 1.420 . S
C108 N116 1.362 . S
C109 C105 1.411 1_565 S
C109 C107 1.420 . S
C109 C114 1.395 1_565 S
C110 C106 1.423 . S
C110 C107 1.351 . S
C110 H122 0.930 . S
C111 C113 1.400 . S
C111 C114 1.386 . S
C111 H123 0.930 . S
N112 C105 1.377 . S
N112 C113 1.321 . S
N112 Eu115 2.609 . S
C113 C111 1.400 . S
C113 N112 1.321 . S
C113 H120 0.930 . S
C114 C109 1.395 1_545 S
C114 C111 1.386 . S
C114 H133 0.930 . S
Eu115 N112 2.609 . S
Eu115 N116 2.657 1_545 S
Eu115 O149 2.380 1_545 S
Eu115 O150 2.432 . S
Eu115 O154 2.558 . S
Eu115 O155 2.612 1_655 S
Eu115 O157 2.339 1_655 S
Eu115 O158 2.563 1_655 S
Eu115 O159 2.419 . S
Eu115 C179 2.848 . S
N116 C108 1.362 . S
N116 Eu115 2.657 1_565 S
N116 C117 1.334 1_655 S
C117 N116 1.334 1_455 S
C117 C119 1.413 . S
C117 H124 0.929 . S
C118 C106 1.392 . S
C118 C119 1.367 1_655 S
C118 H126 0.930 . S
C119 C117 1.413 . S
C119 C118 1.367 1_455 S
C119 H121 0.930 . S
H120 C113 0.930 . S
H121 C119 0.930 . S
H122 C110 0.930 . S
H123 C111 0.930 . S
H124 C117 0.929 . S
H125 C139 0.930 1_655 S
H126 C118 0.930 . S
H127 C145 0.930 . S
H128 C136 0.929 1_655 S
H129 C143 0.930 . S
H130 C107 0.931 . S
H131 C137 0.930 . S
H132 C170 0.930 . S
H133 C114 0.930 . S
H134 C169 0.931 . S
N135 Eu104 2.657 1_545 S
N135 C136 1.334 . S
N135 C140 1.362 . S
C136 H128 0.929 1_455 S
C136 N135 1.334 . S
C136 C139 1.413 1_556 S
C137 H131 0.930 . S
C137 C138 1.392 . S
C137 C139 1.367 . S
C138 C137 1.392 . S
C138 C140 1.420 1_554 S
C138 C170 1.423 . S
C139 H125 0.930 1_455 S
C139 C136 1.413 1_554 S
C139 C137 1.367 . S
C140 N135 1.362 . S
C140 C138 1.420 1_556 S
C140 C144 1.429 . S
H141 C146 0.930 . S
N142 Eu104 2.609 1_545 S
N142 C144 1.377 . S
N142 C145 1.321 1_545 S
C143 H129 0.930 . S
C143 C145 1.400 . S
C143 C146 1.386 1_565 S
C144 C140 1.429 . S
C144 N142 1.377 . S
C144 C147 1.411 . S
C145 H127 0.930 . S
C145 N142 1.321 1_565 S
C145 C143 1.400 . S
C146 H141 0.930 . S
C146 C143 1.386 1_545 S
C146 C147 1.395 . S
C147 C144 1.411 . S
C147 C146 1.395 . S
C147 C169 1.420 1_556 S
O148 Eu104 2.558 . S
O148 C168 1.257 . S
O149 Eu104 2.612 1_655 S
O149 Eu115 2.380 1_565 S
O149 C160 1.276 . S
O150 Eu115 2.432 . S
O150 C167 1.264 . S
O151 Eu104 2.339 1_655 S
O151 C167 1.254 1_565 S
O152 Eu104 2.563 . S
O152 C160 1.235 1_455 S
O153 Eu104 2.419 . S
O153 C168 1.249 . S
O154 Eu115 2.558 . S
O154 C179 1.257 . S
O155 Eu104 2.380 1_545 S
O155 Eu115 2.612 1_455 S
O155 C171 1.276 . S
O156 Eu104 2.432 . S
O156 C178 1.264 1_565 S
O157 Eu115 2.339 1_455 S
O157 C178 1.254 . S
O158 Eu115 2.563 1_455 S
O158 C171 1.235 . S
O159 Eu115 2.419 . S
O159 C179 1.249 . S
C160 O149 1.276 . S
C160 O152 1.235 1_655 S
C161 C163 1.393 1_556 S
C161 C165 1.395 . S
C161 C168 1.492 . S
C162 C163 1.392 . S
C162 C164 1.386 . S
C163 C161 1.393 1_554 S
C163 C162 1.392 . S
C163 H180 0.930 1_554 S
C164 C162 1.386 . S
C164 C166 1.395 . S
C164 H181 0.930 . S
C165 C161 1.395 . S
C165 C166 1.379 1_556 S
C165 H182 0.930 . S
C166 C164 1.395 . S
C166 C165 1.379 1_554 S
C166 H183 0.930 . S
C167 O150 1.264 . S
C167 O151 1.254 1_545 S
C168 Eu104 2.848 . S
C168 O148 1.257 . S
C168 O153 1.249 . S
C168 C161 1.492 . S
C169 H134 0.931 . S
C169 C147 1.420 1_554 S
C169 C170 1.351 . S
C170 H132 0.930 . S
C170 C138 1.423 . S
C170 C169 1.351 . S
C171 O155 1.276 . S
C171 O158 1.235 . S
C172 C173 1.393 . S
C172 C176 1.395 . S
C172 C179 1.492 . S
C173 C172 1.393 . S
C173 C174 1.392 . S
C173 H184 0.930 1_655 S
C174 C173 1.392 . S
C174 C175 1.386 . S
C175 C174 1.386 . S
C175 C177 1.395 . S
C175 H185 0.930 . S
C176 C172 1.395 . S
C176 C177 1.379 . S
C176 H186 0.930 . S
C177 C175 1.395 . S
C177 C176 1.379 . S
C177 H187 0.930 . S
C178 O156 1.264 1_545 S
C178 O157 1.254 . S
C179 Eu115 2.848 . S
C179 O154 1.257 . S
C179 O159 1.249 . S
C179 C172 1.492 . S
H180 C163 0.930 1_556 S
H181 C164 0.930 . S
H182 C165 0.930 . S
H183 C166 0.930 . S
H184 C173 0.930 1_455 S
H185 C175 0.930 . S
H186 C176 0.930 . S
H187 C177 0.930 . S
Eu188 N219 2.657 . S
Eu188 N226 2.609 . S
Eu188 O232 2.558 . S
Eu188 O233 2.612 1_545 S
Eu188 O235 2.339 1_545 S
Eu188 O236 2.563 . S
Eu188 O237 2.419 . S
Eu188 O239 2.380 . S
Eu188 O240 2.432 . S
Eu188 C252 2.848 . S
C189 C192 1.429 . S
C189 C193 1.411 . S
C189 N196 1.377 . S
C190 C192 1.420 . S
C190 C194 1.423 . S
C190 C202 1.392 . S
C191 C193 1.420 . S
C191 C194 1.351 . S
C191 H214 0.931 . S
C192 C189 1.429 . S
C192 C190 1.420 . S
C192 N200 1.362 . S
C193 C189 1.411 . S
C193 C191 1.420 . S
C193 C198 1.395 . S
C194 C190 1.423 . S
C194 C191 1.351 . S
C194 H206 0.930 . S
C195 C197 1.400 . S
C195 C198 1.386 . S
C195 H207 0.930 . S
N196 C189 1.377 . S
N196 C197 1.321 . S
N196 Eu199 2.609 . S
C197 C195 1.400 . S
C197 N196 1.321 . S
C197 H204 0.930 . S
C198 C193 1.395 . S
C198 C195 1.386 . S
C198 H217 0.930 . S
Eu199 N196 2.609 . S
Eu199 N200 2.657 . S
Eu199 O233 2.380 . S
Eu199 O234 2.432 . S
Eu199 O238 2.558 . S
Eu199 O239 2.612 1_565 S
Eu199 O241 2.339 1_565 S
Eu199 O242 2.563 1_565 S
Eu199 O243 2.419 . S
Eu199 C263 2.848 . S
N200 C192 1.362 . S
N200 Eu199 2.657 . S
N200 C201 1.334 1_565 S
C201 N200 1.334 1_545 S
C201 C203 1.413 . S
C201 H208 0.929 . S
C202 C190 1.392 . S
C202 C203 1.367 1_565 S
C202 H210 0.930 . S
C203 C201 1.413 . S
C203 C202 1.367 1_545 S
C203 H205 0.930 . S
H204 C197 0.930 . S
H205 C203 0.930 . S
H206 C194 0.930 . S
H207 C195 0.930 . S
H208 C201 0.929 . S
H209 C223 0.930 1_565 S
H210 C202 0.930 . S
H211 C229 0.930 . S
H212 C220 0.929 1_565 S
H213 C227 0.930 . S
H214 C191 0.931 . S
H215 C221 0.930 . S
H216 C254 0.930 . S
H217 C198 0.930 . S
H218 C253 0.931 . S
N219 Eu188 2.657 . S
N219 C220 1.334 . S
N219 C224 1.362 . S
C220 H212 0.929 1_545 S
C220 N219 1.334 . S
C220 C223 1.413 1_556 S
C221 H215 0.930 . S
C221 C222 1.392 . S
C221 C223 1.367 . S
C222 C221 1.392 . S
C222 C224 1.420 1_554 S
C222 C254 1.423 . S
C223 H209 0.930 1_545 S
C223 C220 1.413 1_554 S
C223 C221 1.367 . S
C224 N219 1.362 . S
C224 C222 1.420 1_556 S
C224 C228 1.429 . S
H225 C230 0.930 . S
N226 Eu188 2.609 . S
N226 C228 1.377 . S
N226 C229 1.321 . S
C227 H213 0.930 . S
C227 C229 1.400 . S
C227 C230 1.386 . S
C228 C224 1.429 . S
C228 N226 1.377 . S
C228 C231 1.411 . S
C229 H211 0.930 . S
C229 N226 1.321 . S
C229 C227 1.400 . S
C230 H225 0.930 . S
C230 C227 1.386 . S
C230 C231 1.395 . S
C231 C228 1.411 . S
C231 C230 1.395 . S
C231 C253 1.420 1_556 S
O232 Eu188 2.558 . S
O232 C252 1.257 . S
O233 Eu188 2.612 1_565 S
O233 Eu199 2.380 . S
O233 C244 1.278 . S
O234 Eu199 2.432 . S
O234 C251 1.264 . S
O235 Eu188 2.339 1_565 S
O235 C251 1.254 . S
O236 Eu188 2.563 . S
O236 C244 1.216 1_545 S
O237 Eu188 2.419 . S
O237 C252 1.249 . S
O238 Eu199 2.558 . S
O238 C263 1.257 . S
O239 Eu188 2.380 . S
O239 Eu199 2.612 1_545 S
O239 C255 1.276 . S
O240 Eu188 2.432 . S
O240 C262 1.264 . S
O241 Eu199 2.339 1_545 S
O241 C262 1.254 . S
O242 Eu199 2.563 1_545 S
O242 C255 1.235 . S
O243 Eu199 2.419 . S
O243 C263 1.249 . S
C244 O233 1.278 . S
C244 O236 1.216 1_565 S
C245 C247 1.393 1_556 S
C245 C249 1.395 . S
C245 C252 1.492 . S
C246 C247 1.392 . S
C246 C248 1.386 . S
C247 C245 1.393 1_554 S
C247 C246 1.392 . S
C247 H264 0.930 1_554 S
C248 C246 1.386 . S
C248 C250 1.395 . S
C248 H265 0.930 . S
C249 C245 1.395 . S
C249 C250 1.379 1_556 S
C249 H266 0.930 . S
C250 C248 1.395 . S
C250 C249 1.379 1_554 S
C250 H267 0.930 . S
C251 O234 1.264 . S
C251 O235 1.254 . S
C252 Eu188 2.848 . S
C252 O232 1.257 . S
C252 O237 1.249 . S
C252 C245 1.492 . S
C253 H218 0.931 . S
C253 C231 1.420 1_554 S
C253 C254 1.351 . S
C254 H216 0.930 . S
C254 C222 1.423 . S
C254 C253 1.351 . S
C255 O239 1.276 . S
C255 O242 1.235 . S
C256 C257 1.393 . S
C256 C260 1.395 . S
C256 C263 1.492 . S
C257 C256 1.393 . S
C257 C258 1.392 . S
C257 H268 0.930 1_565 S
C258 C257 1.392 . S
C258 C259 1.386 . S
C259 C258 1.386 . S
C259 C261 1.395 . S
C259 H269 0.930 . S
C260 C256 1.395 . S
C260 C261 1.379 . S
C260 H270 0.930 . S
C261 C259 1.395 . S
C261 C260 1.379 . S
C261 H271 0.930 . S
C262 O240 1.264 . S
C262 O241 1.254 . S
C263 Eu199 2.848 . S
C263 O238 1.257 . S
C263 O243 1.249 . S
C263 C256 1.492 . S
H264 C247 0.930 1_556 S
H265 C248 0.930 . S
H266 C249 0.930 . S
H267 C250 0.930 . S
H268 C257 0.930 1_545 S
H269 C259 0.930 . S
H270 C260 0.930 . S
H271 C261 0.930 . S
Eu272 N303 2.657 . S
Eu272 N310 2.609 . S
Eu272 O316 2.558 . S
Eu272 O317 2.612 . S
Eu272 O319 2.339 . S
Eu272 O320 2.563 . S
Eu272 O321 2.419 . S
Eu272 O323 2.380 . S
Eu272 O324 2.432 . S
Eu272 C336 2.848 . S
C273 C276 1.429 . S
C273 C277 1.411 . S
C273 N280 1.377 . S
C274 C276 1.420 . S
C274 C278 1.423 . S
C274 C286 1.392 . S
C275 C277 1.420 . S
C275 C278 1.351 . S
C275 H298 0.931 . S
C276 C273 1.429 . S
C276 C274 1.420 . S
C276 N284 1.362 . S
C277 C273 1.411 . S
C277 C275 1.420 . S
C277 C282 1.395 . S
C278 C274 1.423 . S
C278 C275 1.351 . S
C278 H290 0.930 . S
C279 C281 1.400 . S
C279 C282 1.386 . S
C279 H291 0.930 1_556 S
N280 C273 1.377 . S
N280 C281 1.321 . S
N280 Eu283 2.609 . S
C281 C279 1.400 . S
C281 N280 1.321 . S
C281 H288 0.930 . S
C282 C277 1.395 . S
C282 C279 1.386 . S
C282 H301 0.930 . S
Eu283 N280 2.609 . S
Eu283 N284 2.657 . S
Eu283 O317 2.380 . S
Eu283 O318 2.432 . S
Eu283 O322 2.558 . S
Eu283 O323 2.612 . S
Eu283 O325 2.339 . S
Eu283 O326 2.563 . S
Eu283 O327 2.419 . S
Eu283 C347 2.848 . S
N284 C276 1.362 . S
N284 Eu283 2.657 . S
N284 C285 1.334 . S
C285 N284 1.334 . S
C285 C287 1.413 . S
C285 H292 0.929 . S
C286 C274 1.392 . S
C286 C287 1.367 . S
C286 H294 0.930 . S
C287 C285 1.413 . S
C287 C286 1.367 . S
C287 H289 0.930 . S
H288 C281 0.930 . S
H289 C287 0.930 . S
H290 C278 0.930 . S
H291 C279 0.930 1_554 S
H292 C285 0.929 . S
H293 C307 0.930 . S
H294 C286 0.930 . S
H295 C313 0.930 . S
H296 C304 0.929 . S
H297 C311 0.930 . S
H298 C275 0.931 . S
H299 C305 0.930 . S
H300 C338 0.930 . S
H301 C282 0.930 . S
H302 C337 0.931 . S
N303 Eu272 2.657 . S
N303 C304 1.334 . S
N303 C308 1.362 . S
C304 H296 0.929 . S
C304 N303 1.334 . S
C304 C307 1.413 . S
C305 H299 0.930 . S
C305 C306 1.392 . S
C305 C307 1.367 . S
C306 C305 1.392 . S
C306 C308 1.420 . S
C306 C338 1.423 . S
C307 H293 0.930 . S
C307 C304 1.413 . S
C307 C305 1.367 . S
C308 N303 1.362 . S
C308 C306 1.420 . S
C308 C312 1.429 . S
H309 C314 0.930 . S
N310 Eu272 2.609 . S
N310 C312 1.377 . S
N310 C313 1.321 . S
C311 H297 0.930 . S
C311 C313 1.400 . S
C311 C314 1.386 . S
C312 C308 1.429 . S
C312 N310 1.377 . S
C312 C315 1.411 . S
C313 H295 0.930 . S
C313 N310 1.321 . S
C313 C311 1.400 . S
C314 H309 0.930 . S
C314 C311 1.386 . S
C314 C315 1.395 . S
C315 C312 1.411 . S
C315 C314 1.395 . S
C315 C337 1.420 . S
O316 Eu272 2.558 . S
O316 C336 1.257 . S
O317 Eu272 2.612 . S
O317 Eu283 2.380 . S
O317 C328 1.276 . S
O318 Eu283 2.432 . S
O318 C335 1.264 . S
O319 Eu272 2.339 . S
O319 C335 1.254 . S
O320 Eu272 2.563 . S
O320 C328 1.235 . S
O321 Eu272 2.419 . S
O321 C336 1.249 . S
O322 Eu283 2.558 . S
O322 C347 1.257 . S
O323 Eu272 2.380 . S
O323 Eu283 2.612 . S
O323 C339 1.276 . S
O324 Eu272 2.432 . S
O324 C346 1.264 . S
O325 Eu283 2.339 . S
O325 C346 1.254 . S
O326 Eu283 2.563 . S
O326 C339 1.235 . S
O327 Eu283 2.419 . S
O327 C347 1.249 . S
C328 O317 1.276 . S
C328 O320 1.235 . S
C329 C331 1.393 . S
C329 C333 1.395 . S
C329 C336 1.492 . S
C330 C331 1.392 . S
C330 C332 1.386 . S
C331 C329 1.393 . S
C331 C330 1.392 . S
C331 H348 0.930 . S
C332 C330 1.386 . S
C332 C334 1.395 . S
C332 H349 0.930 . S
C333 C329 1.395 . S
C333 C334 1.379 . S
C333 H350 0.930 . S
C334 C332 1.395 . S
C334 C333 1.379 . S
C334 H351 0.930 . S
C335 O318 1.264 . S
C335 O319 1.254 . S
C336 Eu272 2.848 . S
C336 O316 1.257 . S
C336 O321 1.249 . S
C336 C329 1.492 . S
C337 H302 0.931 . S
C337 C315 1.420 . S
C337 C338 1.351 . S
C338 H300 0.930 . S
C338 C306 1.423 . S
C338 C337 1.351 . S
C339 O323 1.276 . S
C339 O326 1.235 . S
C340 C341 1.393 . S
C340 C344 1.395 . S
C340 C347 1.492 1_554 S
C341 C340 1.393 . S
C341 C342 1.392 . S
C341 H352 0.930 1_554 S
C342 C341 1.392 . S
C342 C343 1.386 . S
C343 C342 1.386 . S
C343 C345 1.395 . S
C343 H353 0.930 . S
C344 C340 1.395 . S
C344 C345 1.379 . S
C344 H354 0.930 . S
C345 C343 1.395 . S
C345 C344 1.379 . S
C345 H355 0.930 . S
C346 O324 1.264 . S
C346 O325 1.254 . S
C347 Eu283 2.848 . S
C347 O322 1.257 . S
C347 O327 1.249 . S
C347 C340 1.492 1_556 S
H348 C331 0.930 . S
H349 C332 0.930 . S
H350 C333 0.930 . S
H351 C334 0.930 . S
H352 C341 0.930 1_556 S
H353 C343 0.930 . S
H354 C344 0.930 . S
H355 C345 0.930 . S
Eu356 N387 2.657 . S
Eu356 N394 2.609 . S
Eu356 O400 2.558 . S
Eu356 O401 2.612 . S
Eu356 O403 2.339 . S
Eu356 O404 2.563 . S
Eu356 O405 2.419 . S
Eu356 O407 2.380 . S
Eu356 O408 2.432 1_455 S
Eu356 C420 2.848 . S
C357 C360 1.429 . S
C357 C361 1.411 . S
C357 N364 1.377 . S
C358 C360 1.420 . S
C358 C362 1.423 . S
C358 C370 1.392 . S
C359 C361 1.420 . S
C359 C362 1.351 . S
C359 H382 0.931 . S
C360 C357 1.429 . S
C360 C358 1.420 . S
C360 N368 1.362 . S
C361 C357 1.411 . S
C361 C359 1.420 . S
C361 C366 1.395 1_655 S
C362 C358 1.423 . S
C362 C359 1.351 . S
C362 H374 0.930 . S
C363 C365 1.400 . S
C363 C366 1.386 . S
C363 H375 0.930 1_556 S
N364 C357 1.377 . S
N364 C365 1.321 1_655 S
N364 Eu367 2.609 . S
C365 C363 1.400 . S
C365 N364 1.321 1_455 S
C365 H372 0.930 . S
C366 C361 1.395 1_455 S
C366 C363 1.386 . S
C366 H385 0.930 . S
Eu367 N364 2.609 . S
Eu367 N368 2.657 . S
Eu367 O401 2.380 1_655 S
Eu367 O402 2.432 1_655 S
Eu367 O406 2.558 . S
Eu367 O407 2.612 1_655 S
Eu367 O409 2.339 . S
Eu367 O410 2.563 . S
Eu367 O411 2.419 . S
Eu367 C431 2.848 . S
N368 C360 1.362 . S
N368 Eu367 2.657 . S
N368 C369 1.334 . S
C369 N368 1.334 . S
C369 C371 1.413 . S
C369 H376 0.929 . S
C370 C358 1.392 . S
C370 C371 1.367 . S
C370 H378 0.930 . S
C371 C369 1.413 . S
C371 C370 1.367 . S
C371 H373 0.930 . S
H372 C365 0.930 . S
H373 C371 0.930 . S
H374 C362 0.930 . S
H375 C363 0.930 1_554 S
H376 C369 0.929 . S
H377 C391 0.930 . S
H378 C370 0.930 . S
H379 C397 0.930 . S
H380 C388 0.929 . S
H381 C395 0.930 . S
H382 C359 0.931 . S
H383 C389 0.930 . S
H384 C422 0.930 . S
H385 C366 0.930 . S
H386 C421 0.931 . S
N387 Eu356 2.657 . S
N387 C388 1.334 . S
N387 C392 1.362 . S
C388 H380 0.929 . S
C388 N387 1.334 . S
C388 C391 1.413 . S
C389 H383 0.930 . S
C389 C390 1.392 . S
C389 C391 1.367 . S
C390 C389 1.392 . S
C390 C392 1.420 . S
C390 C422 1.423 . S
C391 H377 0.930 . S
C391 C388 1.413 . S
C391 C389 1.367 . S
C392 N387 1.362 . S
C392 C390 1.420 . S
C392 C396 1.429 . S
H393 C398 0.930 . S
N394 Eu356 2.609 . S
N394 C396 1.377 . S
N394 C397 1.321 1_455 S
C395 H381 0.930 . S
C395 C397 1.400 . S
C395 C398 1.386 1_655 S
C396 C392 1.429 . S
C396 N394 1.377 . S
C396 C399 1.411 . S
C397 H379 0.930 . S
C397 N394 1.321 1_655 S
C397 C395 1.400 . S
C398 H393 0.930 . S
C398 C395 1.386 1_455 S
C398 C399 1.395 . S
C399 C396 1.411 . S
C399 C398 1.395 . S
C399 C421 1.420 . S
O400 Eu356 2.558 . S
O400 C420 1.257 . S
O401 Eu356 2.612 . S
O401 Eu367 2.380 1_455 S
O401 C412 1.276 . S
O402 Eu367 2.432 1_455 S
O402 C419 1.264 . S
O403 Eu356 2.339 . S
O403 C419 1.254 . S
O404 Eu356 2.563 . S
O404 C412 1.235 . S
O405 Eu356 2.419 . S
O405 C420 1.249 . S
O406 Eu367 2.558 . S
O406 C431 1.257 . S
O407 Eu356 2.380 . S
O407 Eu367 2.612 1_455 S
O407 C423 1.276 1_455 S
O408 Eu356 2.432 1_655 S
O408 C430 1.264 . S
O409 Eu367 2.339 . S
O409 C430 1.254 . S
O410 Eu367 2.563 . S
O410 C423 1.235 . S
O411 Eu367 2.419 . S
O411 C431 1.249 . S
C412 O401 1.276 . S
C412 O404 1.235 . S
C413 C415 1.393 . S
C413 C417 1.395 . S
C413 C420 1.492 . S
C414 C415 1.392 . S
C414 C416 1.386 . S
C415 C413 1.393 . S
C415 C414 1.392 . S
C415 H432 0.930 . S
C416 C414 1.386 . S
C416 C418 1.395 . S
C416 H433 0.930 . S
C417 C413 1.395 . S
C417 C418 1.379 . S
C417 H434 0.930 . S
C418 C416 1.395 . S
C418 C417 1.379 . S
C418 H435 0.930 . S
C419 O402 1.264 . S
C419 O403 1.254 . S
C420 Eu356 2.848 . S
C420 O400 1.257 . S
C420 O405 1.249 . S
C420 C413 1.492 . S
C421 H386 0.931 . S
C421 C399 1.420 . S
C421 C422 1.351 . S
C422 H384 0.930 . S
C422 C390 1.423 . S
C422 C421 1.351 . S
C423 O407 1.276 1_655 S
C423 O410 1.235 . S
C424 C425 1.393 . S
C424 C428 1.395 . S
C424 C431 1.492 1_554 S
C425 C424 1.393 . S
C425 C426 1.392 . S
C425 H436 0.930 1_554 S
C426 C425 1.392 . S
C426 C427 1.386 . S
C427 C426 1.386 . S
C427 C429 1.395 . S
C427 H437 0.930 . S
C428 C424 1.395 . S
C428 C429 1.379 . S
C428 H438 0.930 . S
C429 C427 1.395 . S
C429 C428 1.379 . S
C429 H439 0.930 . S
C430 O408 1.264 . S
C430 O409 1.254 . S
C431 Eu367 2.848 . S
C431 O406 1.257 . S
C431 O411 1.249 . S
C431 C424 1.492 1_556 S
H432 C415 0.930 . S
H433 C416 0.930 . S
H434 C417 0.930 . S
H435 C418 0.930 . S
H436 C425 0.930 1_556 S
H437 C427 0.930 . S
H438 C428 0.930 . S
H439 C429 0.930 . S
H440 C446 0.930 . S
H441 C450 0.930 . S
H442 C455 0.929 . S
H443 C453 0.929 1_565 S
H444 C448 0.929 . S
H445 C454 0.929 . S
C446 H440 0.930 . S
C446 C447 1.367 . S
C446 C454 1.378 . S
C447 C446 1.367 . S
C447 C455 1.433 . S
C448 H444 0.929 . S
C448 C450 1.378 . S
C448 C452 1.350 . S
C449 C452 1.463 . S
C449 C454 1.350 . S
C449 N457 1.427 . S
C450 H441 0.930 . S
C450 C448 1.378 . S
C450 C451 1.367 . S
C451 C450 1.367 . S
C451 C453 1.433 . S
C452 C448 1.350 . S
C452 C449 1.463 . S
C452 N456 1.427 . S
C453 H443 0.929 1_545 S
C453 C451 1.433 . S
C453 N456 1.384 . S
C454 H445 0.929 . S
C454 C446 1.378 . S
C454 C449 1.350 . S
C455 H442 0.929 . S
C455 C447 1.433 . S
C455 N457 1.384 . S
N456 C452 1.427 . S
N456 C453 1.384 . S
N457 C449 1.427 . S
N457 C455 1.384 . S
H458 C464 0.930 . S
H459 C468 0.930 . S
H460 C473 0.929 . S
H461 C471 0.929 . S
H462 C466 0.929 . S
H463 C472 0.929 . S
C464 H458 0.930 . S
C464 C465 1.367 . S
C464 C472 1.378 . S
C465 C464 1.367 . S
C465 C473 1.433 . S
C466 H462 0.929 . S
C466 C468 1.378 . S
C466 C470 1.350 . S
C467 C470 1.463 . S
C467 C472 1.350 . S
C467 N475 1.427 . S
C468 H459 0.930 . S
C468 C466 1.378 . S
C468 C469 1.367 . S
C469 C468 1.367 . S
C469 C471 1.433 . S
C470 C466 1.350 . S
C470 C467 1.463 . S
C470 N474 1.427 . S
C471 H461 0.929 . S
C471 C469 1.433 . S
C471 N474 1.384 . S
C472 H463 0.929 . S
C472 C464 1.378 . S
C472 C467 1.350 . S
C473 H460 0.929 . S
C473 C465 1.433 . S
C473 N475 1.384 . S
N474 C470 1.427 . S
N474 C471 1.384 . S
N475 C467 1.427 . S
N475 C473 1.384 . S
H476 C482 0.930 . S
H477 C486 0.930 . S
H478 C491 0.929 . S
H479 C489 0.929 . S
H480 C484 0.929 . S
H481 C490 0.929 . S
C482 H476 0.930 . S
C482 C483 1.367 . S
C482 C490 1.378 . S
C483 C482 1.367 . S
C483 C491 1.433 . S
C484 H480 0.929 . S
C484 C486 1.378 . S
C484 C488 1.350 . S
C485 C488 1.463 . S
C485 C490 1.350 . S
C485 N493 1.427 . S
C486 H477 0.930 . S
C486 C484 1.378 . S
C486 C487 1.367 . S
C487 C486 1.367 . S
C487 C489 1.433 . S
C488 C484 1.350 . S
C488 C485 1.463 . S
C488 N492 1.427 . S
C489 H479 0.929 . S
C489 C487 1.433 . S
C489 N492 1.384 . S
C490 H481 0.929 . S
C490 C482 1.378 . S
C490 C485 1.350 . S
C491 H478 0.929 . S
C491 C483 1.433 . S
C491 N493 1.384 . S
N492 C488 1.427 . S
N492 C489 1.384 . S
N493 C485 1.427 . S
N493 C491 1.384 . S
H494 C500 0.930 . S
H495 C504 0.930 . S
H496 C509 0.929 . S
H497 C507 0.929 . S
H498 C502 0.929 . S
H499 C508 0.929 . S
C500 H494 0.930 . S
C500 C501 1.367 . S
C500 C508 1.378 . S
C501 C500 1.367 . S
C501 C509 1.433 . S
C502 H498 0.929 . S
C502 C504 1.378 . S
C502 C506 1.350 . S
C503 C506 1.463 . S
C503 C508 1.350 . S
C503 N511 1.427 . S
C504 H495 0.930 . S
C504 C502 1.378 . S
C504 C505 1.367 . S
C505 C504 1.367 . S
C505 C507 1.433 . S
C506 C502 1.350 . S
C506 C503 1.463 . S
C506 N510 1.427 . S
C507 H497 0.929 . S
C507 C505 1.433 . S
C507 N510 1.384 . S
C508 H499 0.929 . S
C508 C500 1.378 . S
C508 C503 1.350 . S
C509 H496 0.929 . S
C509 C501 1.433 . S
C509 N511 1.384 . S
N510 C506 1.427 . S
N510 C507 1.384 . S
N511 C503 1.427 . S
N511 C509 1.384 . S
H512 C518 0.930 1_545 S
H513 C522 0.930 . S
H514 C527 0.929 . S
H515 C525 0.929 . S
H516 C520 0.929 . S
H517 C526 0.929 1_545 S
C518 H512 0.930 1_565 S
C518 C519 1.367 . S
C518 C526 1.378 . S
C519 C518 1.367 . S
C519 C527 1.433 . S
C520 H516 0.929 . S
C520 C522 1.378 1_554 S
C520 C524 1.350 . S
C521 C524 1.463 . S
C521 C526 1.350 . S
C521 N529 1.427 . S
C522 H513 0.930 . S
C522 C520 1.378 1_556 S
C522 C523 1.367 . S
C523 C522 1.367 . S
C523 C525 1.433 1_565 S
C524 C520 1.350 . S
C524 C521 1.463 . S
C524 N528 1.427 1_564 S
C525 H515 0.929 . S
C525 C523 1.433 1_545 S
C525 N528 1.384 . S
C526 H517 0.929 1_565 S
C526 C518 1.378 . S
C526 C521 1.350 . S
C527 H514 0.929 . S
C527 C519 1.433 . S
C527 N529 1.384 . S
N528 C524 1.427 1_546 S
N528 C525 1.384 . S
N529 C521 1.427 . S
N529 C527 1.384 . S
H530 C536 0.930 . S
H531 C540 0.930 . S
H532 C545 0.929 . S
H533 C543 0.929 . S
H534 C538 0.929 . S
H535 C544 0.929 . S
C536 H530 0.930 . S
C536 C537 1.367 . S
C536 C544 1.378 . S
C537 C536 1.367 . S
C537 C545 1.433 . S
C538 H534 0.929 . S
C538 C540 1.378 1_554 S
C538 C542 1.350 . S
C539 C542 1.463 . S
C539 C544 1.350 . S
C539 N547 1.427 . S
C540 H531 0.930 . S
C540 C538 1.378 1_556 S
C540 C541 1.367 . S
C541 C540 1.367 . S
C541 C543 1.433 . S
C542 C538 1.350 . S
C542 C539 1.463 . S
C542 N546 1.427 1_554 S
C543 H533 0.929 . S
C543 C541 1.433 . S
C543 N546 1.384 . S
C544 H535 0.929 . S
C544 C536 1.378 . S
C544 C539 1.350 . S
C545 H532 0.929 . S
C545 C537 1.433 . S
C545 N547 1.384 . S
N546 C542 1.427 1_556 S
N546 C543 1.384 . S
N547 C539 1.427 . S
N547 C545 1.384 . S
H548 C554 0.930 . S
H549 C558 0.930 . S
H550 C563 0.929 . S
H551 C561 0.929 . S
H552 C556 0.929 1_554 S
H553 C562 0.929 . S
C554 H548 0.930 . S
C554 C555 1.367 . S
C554 C562 1.378 . S
C555 C554 1.367 . S
C555 C563 1.433 . S
C556 H552 0.929 1_556 S
C556 C558 1.378 . S
C556 C560 1.350 1_556 S
C557 C560 1.463 . S
C557 C562 1.350 . S
C557 N565 1.427 . S
C558 H549 0.930 . S
C558 C556 1.378 . S
C558 C559 1.367 . S
C559 C558 1.367 . S
C559 C561 1.433 . S
C560 C556 1.350 1_554 S
C560 C557 1.463 . S
C560 N564 1.427 1_554 S
C561 H551 0.929 . S
C561 C559 1.433 . S
C561 N564 1.384 . S
C562 H553 0.929 . S
C562 C554 1.378 . S
C562 C557 1.350 . S
C563 H550 0.929 . S
C563 C555 1.433 . S
C563 N565 1.384 . S
N564 C560 1.427 1_556 S
N564 C561 1.384 . S
N565 C557 1.427 . S
N565 C563 1.384 . S
H566 C572 0.930 . S
H567 C576 0.930 . S
H568 C581 0.929 . S
H569 C579 0.929 . S
H570 C574 0.929 . S
H571 C580 0.929 1_455 S
C572 H566 0.930 . S
C572 C573 1.367 . S
C572 C580 1.378 . S
C573 C572 1.367 . S
C573 C581 1.433 . S
C574 H570 0.929 . S
C574 C576 1.378 1_554 S
C574 C578 1.350 . S
C575 C578 1.463 . S
C575 C580 1.350 . S
C575 N583 1.427 . S
C576 H567 0.930 . S
C576 C574 1.378 1_556 S
C576 C577 1.367 . S
C577 C576 1.367 . S
C577 C579 1.433 1_655 S
C578 C574 1.350 . S
C578 C575 1.463 . S
C578 N582 1.392 1_654 S
C579 H569 0.929 . S
C579 C577 1.433 1_455 S
C579 N582 1.392 . S
C580 H571 0.929 1_655 S
C580 C572 1.378 . S
C580 C575 1.350 . S
C581 H568 0.929 . S
C581 C573 1.433 . S
C581 N583 1.384 . S
N582 C578 1.392 1_456 S
N582 C579 1.392 . S
N583 C575 1.427 . S
N583 C581 1.384 . S
H584 C590 0.930 1_556 S
H585 C594 0.944 . S
H586 C599 0.929 . S
H587 C597 0.929 . S
H588 C592 0.929 . S
H589 C598 0.929 . S
C590 H584 0.930 1_554 S
C590 C591 1.367 . S
C590 C598 1.378 . S
C591 C590 1.367 . S
C591 C599 1.433 . S
C592 H588 0.929 . S
C592 C594 1.366 1_455 S
C592 C596 1.350 . S
C593 C596 1.463 . S
C593 C598 1.350 . S
C593 N601 1.427 . S
C594 H585 0.944 . S
C594 C592 1.366 1_655 S
C594 C595 1.366 1_655 S
C595 C594 1.366 1_455 S
C595 C597 1.439 . S
C596 C592 1.350 . S
C596 C593 1.463 . S
C596 N600 1.427 . S
C597 H587 0.929 . S
C597 C595 1.439 . S
C597 N600 1.384 . S
C598 H589 0.929 . S
C598 C590 1.378 . S
C598 C593 1.350 . S
C599 H586 0.929 . S
C599 C591 1.433 . S
C599 N601 1.384 . S
N600 C596 1.427 . S
N600 C597 1.384 . S
N601 C593 1.427 . S
N601 C599 1.384 . S
H602 C608 0.930 1_556 S
H603 C612 0.936 . S
H604 C617 0.929 . S
H605 C615 0.929 . S
H606 C610 0.929 . S
H607 C616 0.929 . S
C608 H602 0.930 1_554 S
C608 C609 1.367 . S
C608 C616 1.378 . S
C609 C608 1.367 . S
C609 C617 1.433 . S
C610 H606 0.929 . S
C610 C612 1.378 . S
C610 C614 1.350 . S
C611 C614 1.463 . S
C611 C616 1.350 . S
C611 N619 1.427 . S
C612 H603 0.936 . S
C612 C610 1.378 . S
C612 C613 1.367 . S
C613 C612 1.367 . S
C613 C615 1.433 . S
C614 C610 1.350 . S
C614 C611 1.463 . S
C614 N618 1.427 . S
C615 H605 0.929 . S
C615 C613 1.433 . S
C615 N618 1.384 . S
C616 H607 0.929 . S
C616 C608 1.378 . S
C616 C611 1.350 . S
C617 H604 0.929 . S
C617 C609 1.433 . S
C617 N619 1.384 . S
N618 C614 1.427 . S
N618 C615 1.384 . S
N619 C611 1.427 . S
N619 C617 1.384 . S
H620 C626 0.930 . S
H621 C630 0.930 . S
H622 C635 0.929 . S
H623 C633 0.929 . S
H624 C628 0.929 . S
H625 C634 0.929 . S
C626 H620 0.930 . S
C626 C627 1.367 . S
C626 C634 1.378 . S
C627 C626 1.367 . S
C627 C635 1.433 . S
C628 H624 0.929 . S
C628 C630 1.378 . S
C628 C632 1.350 . S
C629 C632 1.463 . S
C629 C634 1.350 . S
C629 N637 1.427 . S
C630 H621 0.930 . S
C630 C628 1.378 . S
C630 C631 1.367 . S
C631 C630 1.367 . S
C631 C633 1.433 . S
C632 C628 1.350 . S
C632 C629 1.463 . S
C632 N636 1.427 . S
C633 H623 0.929 . S
C633 C631 1.433 . S
C633 N636 1.384 . S
C634 H625 0.929 . S
C634 C626 1.378 . S
C634 C629 1.350 . S
C635 H622 0.929 . S
C635 C627 1.433 . S
C635 N637 1.384 . S
N636 C632 1.427 . S
N636 C633 1.384 . S
N637 C629 1.427 . S
N637 C635 1.384 . S
H638 C644 0.930 . S
H639 C648 0.930 . S
H640 C653 0.929 1_556 S
H641 C651 0.929 . S
H642 C646 0.929 . S
H643 C652 0.929 . S
C644 H638 0.930 . S
C644 C645 1.367 . S
C644 C652 1.378 . S
C645 C644 1.367 . S
C645 C653 1.433 . S
C646 H642 0.929 . S
C646 C648 1.378 . S
C646 C650 1.350 . S
C647 C650 1.463 . S
C647 C652 1.350 . S
C647 N655 1.427 . S
C648 H639 0.930 . S
C648 C646 1.378 . S
C648 C649 1.367 . S
C649 C648 1.367 . S
C649 C651 1.433 . S
C650 C646 1.350 . S
C650 C647 1.463 . S
C650 N654 1.427 . S
C651 H641 0.929 . S
C651 C649 1.433 . S
C651 N654 1.384 . S
C652 H643 0.929 . S
C652 C644 1.378 . S
C652 C647 1.350 . S
C653 H640 0.929 1_554 S
C653 C645 1.433 . S
C653 N655 1.384 . S
N654 C650 1.427 . S
N654 C651 1.384 . S
N655 C647 1.427 . S
N655 C653 1.384 . S
H656 C662 0.930 . S
H657 C666 0.930 . S
H658 C671 0.929 . S
H659 C669 0.929 1_556 S
H660 C664 0.929 . S
H661 C670 0.929 . S
C662 H656 0.930 . S
C662 C663 1.367 . S
C662 C670 1.378 . S
C663 C662 1.367 . S
C663 C671 1.433 . S
C664 H660 0.929 . S
C664 C666 1.378 1_655 S
C664 C668 1.350 . S
C665 C668 1.463 . S
C665 C670 1.350 . S
C665 N673 1.427 . S
C666 H657 0.930 . S
C666 C664 1.378 1_455 S
C666 C667 1.367 . S
C667 C666 1.367 . S
C667 C669 1.433 . S
C668 C664 1.350 . S
C668 C665 1.463 . S
C668 N672 1.428 . S
C669 H659 0.929 1_554 S
C669 C667 1.433 . S
C669 N672 1.383 1_455 S
C670 H661 0.929 . S
C670 C662 1.378 . S
C670 C665 1.350 . S
C671 H658 0.929 . S
C671 C663 1.433 . S
C671 N673 1.384 . S
N672 C668 1.428 . S
N672 C669 1.383 1_655 S
N673 C665 1.427 . S
N673 C671 1.384 . S
H674 C680 0.930 . S
H675 C684 0.930 . S
H676 C689 0.929 1_545 S
H677 C687 0.929 . S
H678 C682 0.929 . S
H679 C688 0.929 . S
C680 H674 0.930 . S
C680 C681 1.367 . S
C680 C688 1.378 . S
C681 C680 1.367 . S
C681 C689 1.433 . S
C682 H678 0.929 . S
C682 C684 1.378 . S
C682 C686 1.350 1_545 S
C683 C686 1.463 . S
C683 C688 1.350 . S
C683 N691 1.427 1_565 S
C684 H675 0.930 . S
C684 C682 1.378 . S
C684 C685 1.367 . S
C685 C684 1.367 . S
C685 C687 1.433 1_545 S
C686 C682 1.350 1_565 S
C686 C683 1.463 . S
C686 N690 1.427 . S
C687 H677 0.929 . S
C687 C685 1.433 1_565 S
C687 N690 1.384 . S
C688 H679 0.929 . S
C688 C680 1.378 . S
C688 C683 1.350 . S
C689 H676 0.929 1_565 S
C689 C681 1.433 . S
C689 N691 1.384 1_565 S
N690 C686 1.427 . S
N690 C687 1.384 . S
N691 C683 1.427 1_545 S
N691 C689 1.384 1_545 S
H692 C698 0.930 . S
H693 C702 0.930 . S
H694 C707 0.929 . S
H695 C705 0.929 . S
H696 C700 0.929 . S
H697 C706 0.929 . S
C698 H692 0.930 . S
C698 C699 1.367 . S
C698 C706 1.378 . S
C699 C698 1.367 . S
C699 C707 1.433 . S
C700 H696 0.929 . S
C700 C702 1.378 . S
C700 C704 1.350 . S
C701 C704 1.463 . S
C701 C706 1.350 . S
C701 N709 1.427 . S
C702 H693 0.930 . S
C702 C700 1.378 . S
C702 C703 1.367 . S
C703 C702 1.367 . S
C703 C705 1.433 . S
C704 C700 1.350 . S
C704 C701 1.463 . S
C704 N708 1.427 . S
C705 H695 0.929 . S
C705 C703 1.433 . S
C705 N708 1.384 . S
C706 H697 0.929 . S
C706 C698 1.378 . S
C706 C701 1.350 . S
C707 H694 0.929 . S
C707 C699 1.433 . S
C707 N709 1.384 . S
N708 C704 1.427 . S
N708 C705 1.384 . S
N709 C701 1.427 . S
N709 C707 1.384 . S
H710 C716 0.930 . S
H711 C720 0.930 . S
H712 C725 0.929 . S
H713 C723 0.929 . S
H714 C718 0.929 . S
H715 C724 0.929 . S
C716 H710 0.930 . S
C716 C717 1.367 . S
C716 C724 1.378 . S
C717 C716 1.367 . S
C717 C725 1.433 . S
C718 H714 0.929 . S
C718 C720 1.378 . S
C718 C722 1.350 . S
C719 C722 1.463 . S
C719 C724 1.350 . S
C719 N727 1.427 . S
C720 H711 0.930 . S
C720 C718 1.378 . S
C720 C721 1.367 . S
C721 C720 1.367 . S
C721 C723 1.433 . S
C722 C718 1.350 . S
C722 C719 1.463 . S
C722 N726 1.427 . S
C723 H713 0.929 . S
C723 C721 1.433 . S
C723 N726 1.384 . S
C724 H715 0.929 . S
C724 C716 1.378 . S
C724 C719 1.350 . S
C725 H712 0.929 . S
C725 C717 1.433 . S
C725 N727 1.384 . S
N726 C722 1.427 . S
N726 C723 1.384 . S
N727 C719 1.427 . S
N727 C725 1.384 . S
H728 C734 0.930 . S
H729 C738 0.930 . S
H730 C743 0.929 1_554 S
H731 C741 0.929 . S
H732 C736 0.929 . S
H733 C742 0.929 . S
C734 H728 0.930 . S
C734 C735 1.367 . S
C734 C742 1.378 . S
C735 C734 1.367 . S
C735 C743 1.433 . S
C736 H732 0.929 . S
C736 C738 1.378 . S
C736 C740 1.350 . S
C737 C740 1.463 . S
C737 C742 1.350 . S
C737 N745 1.427 . S
C738 H729 0.930 . S
C738 C736 1.378 . S
C738 C739 1.367 . S
C739 C738 1.367 . S
C739 C741 1.433 . S
C740 C736 1.350 . S
C740 C737 1.463 . S
C740 N744 1.427 . S
C741 H731 0.929 . S
C741 C739 1.433 . S
C741 N744 1.384 . S
C742 H733 0.929 . S
C742 C734 1.378 . S
C742 C737 1.350 . S
C743 H730 0.929 1_556 S
C743 C735 1.433 . S
C743 N745 1.384 . S
N744 C740 1.427 . S
N744 C741 1.384 . S
N745 C737 1.427 . S
N745 C743 1.384 . S
H746 C752 0.930 . S
H747 C756 0.930 1_565 S
H748 C761 0.929 . S
H749 C759 0.929 . S
H750 C754 0.929 1_565 S
H751 C760 0.929 . S
C752 H746 0.930 . S
C752 C753 1.367 . S
C752 C760 1.378 . S
C753 C752 1.367 . S
C753 C761 1.433 . S
C754 H750 0.929 1_545 S
C754 C756 1.378 . S
C754 C758 1.350 . S
C755 C758 1.463 . S
C755 C760 1.350 . S
C755 N763 1.427 . S
C756 H747 0.930 1_545 S
C756 C754 1.378 . S
C756 C757 1.367 . S
C757 C756 1.367 . S
C757 C759 1.433 . S
C758 C754 1.350 . S
C758 C755 1.463 . S
C758 N762 1.427 . S
C759 H749 0.929 . S
C759 C757 1.433 . S
C759 N762 1.384 . S
C760 H751 0.929 . S
C760 C752 1.378 . S
C760 C755 1.350 . S
C761 H748 0.929 . S
C761 C753 1.433 . S
C761 N763 1.384 . S
N762 C758 1.427 . S
N762 C759 1.384 . S
N763 C755 1.427 . S
N763 C761 1.384 . S
H764 C770 0.930 . S
H765 C774 0.930 . S
H766 C779 0.929 1_554 S
H767 C777 0.929 . S
H768 C772 0.929 . S
H769 C778 0.929 . S
C770 H764 0.930 . S
C770 C771 1.367 . S
C770 C778 1.378 . S
C771 C770 1.367 . S
C771 C779 1.433 . S
C772 H768 0.929 . S
C772 C774 1.378 . S
C772 C776 1.350 . S
C773 C776 1.463 . S
C773 C778 1.350 . S
C773 N781 1.427 . S
C774 H765 0.930 . S
C774 C772 1.378 . S
C774 C775 1.367 . S
C775 C774 1.367 . S
C775 C777 1.433 . S
C776 C772 1.350 . S
C776 C773 1.463 . S
C776 N780 1.427 . S
C777 H767 0.929 . S
C777 C775 1.433 . S
C777 N780 1.384 . S
C778 H769 0.929 . S
C778 C770 1.378 . S
C778 C773 1.350 . S
C779 H766 0.929 1_556 S
C779 C771 1.433 . S
C779 N781 1.384 . S
N780 C776 1.427 . S
N780 C777 1.384 . S
N781 C773 1.427 . S
N781 C779 1.384 . S
H782 C788 0.930 1_554 S
H783 C792 0.930 . S
H784 C797 0.929 . S
H785 C795 0.929 . S
H786 C790 0.929 . S
H787 C796 0.929 . S
C788 H782 0.930 1_556 S
C788 C789 1.367 . S
C788 C796 1.378 . S
C789 C788 1.367 . S
C789 C797 1.433 . S
C790 H786 0.929 . S
C790 C792 1.378 . S
C790 C794 1.350 . S
C791 C794 1.463 . S
C791 C796 1.350 . S
C791 N799 1.427 . S
C792 H783 0.930 . S
C792 C790 1.378 . S
C792 C793 1.367 . S
C793 C792 1.367 . S
C793 C795 1.433 . S
C794 C790 1.350 . S
C794 C791 1.463 . S
C794 N798 1.427 . S
C795 H785 0.929 . S
C795 C793 1.433 . S
C795 N798 1.384 . S
C796 H787 0.929 . S
C796 C788 1.378 . S
C796 C791 1.350 . S
C797 H784 0.929 . S
C797 C789 1.433 . S
C797 N799 1.384 . S
N798 C794 1.427 . S
N798 C795 1.384 . S
N799 C791 1.427 . S
N799 C797 1.384 . S
H800 C806 0.930 . S
H801 C810 0.930 . S
H802 C815 0.929 . S
H803 C813 0.929 . S
H804 C808 0.929 . S
H805 C814 0.929 . S
C806 H800 0.930 . S
C806 C807 1.367 . S
C806 C814 1.378 . S
C807 C806 1.367 . S
C807 C815 1.433 . S
C808 H804 0.929 . S
C808 C810 1.378 . S
C808 C812 1.350 . S
C809 C812 1.463 . S
C809 C814 1.350 . S
C809 N817 1.427 . S
C810 H801 0.930 . S
C810 C808 1.378 . S
C810 C811 1.367 . S
C811 C810 1.367 . S
C811 C813 1.433 . S
C812 C808 1.350 . S
C812 C809 1.463 . S
C812 N816 1.427 . S
C813 H803 0.929 . S
C813 C811 1.433 . S
C813 N816 1.384 . S
C814 H805 0.929 . S
C814 C806 1.378 . S
C814 C809 1.350 . S
C815 H802 0.929 . S
C815 C807 1.433 . S
C815 N817 1.384 . S
N816 C812 1.427 . S
N816 C813 1.384 . S
N817 C809 1.427 . S
N817 C815 1.384 . S
H818 C824 0.930 . S
H819 C828 0.930 . S
H820 C833 0.929 . S
H821 C831 0.929 . S
H822 C826 0.929 . S
H823 C832 0.929 . S
C824 H818 0.930 . S
C824 C825 1.367 . S
C824 C832 1.378 . S
C825 C824 1.367 . S
C825 C833 1.433 . S
C826 H822 0.929 . S
C826 C828 1.378 . S
C826 C830 1.350 . S
C827 C830 1.463 . S
C827 C832 1.350 . S
C827 N835 1.427 . S
C828 H819 0.930 . S
C828 C826 1.378 . S
C828 C829 1.367 . S
C829 C828 1.367 . S
C829 C831 1.433 . S
C830 C826 1.350 . S
C830 C827 1.463 . S
C830 N834 1.427 . S
C831 H821 0.929 . S
C831 C829 1.433 . S
C831 N834 1.384 . S
C832 H823 0.929 . S
C832 C824 1.378 . S
C832 C827 1.350 . S
C833 H820 0.929 . S
C833 C825 1.433 . S
C833 N835 1.384 . S
N834 C830 1.427 . S
N834 C831 1.384 . S
N835 C827 1.427 . S
N835 C833 1.384 . S
H836 C842 0.930 . S
H837 C846 0.930 . S
H838 C851 0.929 . S
H839 C849 0.929 . S
H840 C844 0.929 . S
H841 C850 0.929 . S
C842 H836 0.930 . S
C842 C843 1.367 . S
C842 C850 1.378 . S
C843 C842 1.367 . S
C843 C851 1.433 . S
C844 H840 0.929 . S
C844 C846 1.378 . S
C844 C848 1.350 . S
C845 C848 1.463 . S
C845 C850 1.350 . S
C845 N853 1.427 . S
C846 H837 0.930 . S
C846 C844 1.378 . S
C846 C847 1.367 . S
C847 C846 1.367 . S
C847 C849 1.433 . S
C848 C844 1.350 . S
C848 C845 1.463 . S
C848 N852 1.427 . S
C849 H839 0.929 . S
C849 C847 1.433 . S
C849 N852 1.384 . S
C850 H841 0.929 . S
C850 C842 1.378 . S
C850 C845 1.350 . S
C851 H838 0.929 . S
C851 C843 1.433 . S
C851 N853 1.384 . S
N852 C848 1.427 . S
N852 C849 1.384 . S
N853 C845 1.427 . S
N853 C851 1.384 . S
H854 C860 0.930 . S
H855 C864 0.930 . S
H856 C869 0.929 . S
H857 C867 0.929 . S
H858 C862 0.929 . S
H859 C868 0.929 . S
C860 H854 0.930 . S
C860 C861 1.367 . S
C860 C868 1.378 . S
C861 C860 1.367 . S
C861 C869 1.433 . S
C862 H858 0.929 . S
C862 C864 1.378 . S
C862 C866 1.350 . S
C863 C866 1.463 . S
C863 C868 1.350 . S
C863 N871 1.427 . S
C864 H855 0.930 . S
C864 C862 1.378 . S
C864 C865 1.367 . S
C865 C864 1.367 . S
C865 C867 1.433 . S
C866 C862 1.350 . S
C866 C863 1.463 . S
C866 N870 1.427 . S
C867 H857 0.929 . S
C867 C865 1.433 . S
C867 N870 1.384 . S
C868 H859 0.929 . S
C868 C860 1.378 . S
C868 C863 1.350 . S
C869 H856 0.929 . S
C869 C861 1.433 . S
C869 N871 1.384 . S
N870 C866 1.427 . S
N870 C867 1.384 . S
N871 C863 1.427 . S
N871 C869 1.384 . S
C447 N80 1.903 . S
C451 C178 1.932 . S
C469 C262 1.940 . S
C465 N93 1.918 . S
C487 C328 1.944 . S
C483 N54 2.018 . S
C505 C412 1.932 . S
C501 N67 2.004 . S
C523 C167 1.932 1_565 S
C519 N28 1.912 . S
C537 N41 1.925 . S
C541 C251 1.942 . S
C555 N2 2.021 . S
C559 C339 1.936 . S
C573 N15 2.005 . S
C577 C423 1.920 . S
C595 C174 0.583 1_455 S
C591 N70 0.597 . S
C613 C258 0.577 1_545 S
C609 N83 0.567 . S
C631 C330 0.557 . S
C627 N96 0.548 . S
C645 N57 0.564 . S
C649 C414 0.559 . S
C663 N18 0.580 . S
C667 C162 0.603 . S
C685 C246 0.559 . S
C681 N31 0.572 . S
C703 C342 0.539 . S
C699 N44 0.542 . S
C717 N5 0.572 . S
C721 C426 0.574 . S
C735 N66 2.099 . S
C739 C171 2.053 . S
C753 N79 2.073 . S
C757 C255 2.015 . S
C775 C335 2.026 . S
C771 N92 1.982 . S
C793 C419 2.058 . S
C789 N53 1.993 . S
C807 N14 2.104 . S
C811 C160 2.040 . S
C829 C244 2.024 . S
C825 N27 2.076 . S
C847 C346 2.030 . S
C843 N40 1.995 . S
C861 N1 2.012 . S
C865 C430 2.059 . S
