# Generated by pormake.
# Topology tsx, (6,3)-cn, num edge types: 1
# Building blocks:
#     Node 0, Type 0, BuildingBlock: VOLQOD_clean_sbu_1, # of connection points: 6
#     Node 1, Type 0, BuildingBlock: VOLQOD_clean_sbu_1, # of connection points: 6
#     Node 2, Type 1, BuildingBlock: BETDIP_clean_linker_0, # of connection points: 3
#     Node 3, Type 1, BuildingBlock: BETDIP_clean_linker_0, # of connection points: 3
#     Node 4, Type 1, BuildingBlock: BETDIP_clean_linker_0, # of connection points: 3
#     Node 5, Type 1, BuildingBlock: BETDIP_clean_linker_0, # of connection points: 3
#     Edge 6, Type (0, 1), BuildingBlock: UVAHIK_clean_linker_0, # of connection points: 2
#     Edge 7, Type (0, 1), BuildingBlock: UVAHIK_clean_linker_0, # of connection points: 2
#     Edge 8, Type (0, 1), BuildingBlock: UVAHIK_clean_linker_0, # of connection points: 2
#     Edge 9, Type (0, 1), BuildingBlock: UVAHIK_clean_linker_0, # of connection points: 2
#     Edge 10, Type (0, 1), BuildingBlock: UVAHIK_clean_linker_0, # of connection points: 2
#     Edge 11, Type (0, 1), BuildingBlock: UVAHIK_clean_linker_0, # of connection points: 2
#     Edge 12, Type (0, 1), BuildingBlock: UVAHIK_clean_linker_0, # of connection points: 2
#     Edge 13, Type (0, 1), BuildingBlock: UVAHIK_clean_linker_0, # of connection points: 2
#     Edge 14, Type (0, 1), BuildingBlock: UVAHIK_clean_linker_0, # of connection points: 2
#     Edge 15, Type (0, 1), BuildingBlock: UVAHIK_clean_linker_0, # of connection points: 2
#     Edge 16, Type (0, 1), BuildingBlock: UVAHIK_clean_linker_0, # of connection points: 2
#     Edge 17, Type (0, 1), BuildingBlock: UVAHIK_clean_linker_0, # of connection points: 2
# Relax obj value: 0.057
# Max RMSD: 0.120
# Mean RMSD: 0.106
data_MOF--net-tsx--node1-VOLQOD_clean_sbu_1--node2-BETDIP_clean_linker_0--edge1-UVAHIK_clean_linker_0
_symmetry_space_group_name_H-M    P1
_symmetry_Int_Tables_number       1
_symmetry_cell_setting            triclinic
loop_
_symmetry_equiv_pos_as_xyz
'x, y, z'
_cell_length_a     27.011566
_cell_length_b     28.264646
_cell_length_c     48.322781
_cell_angle_alpha  90.165495
_cell_angle_beta   98.378829
_cell_angle_gamma 90.148015
loop_
_atom_site_label
_atom_site_type_symbol
_atom_site_fract_x
_atom_site_fract_y
_atom_site_fract_z
_atom_type_partial_charge
O0 O 0.05932 0.00711 0.0753 0.0
Zn1 Zn 0.07231 0.00032 0.03521 0.0
O2 O 0.01109 0.00857 0.00836 0.0
Zn3 Zn 0.9975 0.95097 0.98562 0.0
Zn4 Zn 0.95562 0.0211 0.02893 0.0
Zn5 Zn 0.01833 0.06264 0.98403 0.0
O6 O 0.99521 0.96541 0.94434 0.0
O7 O 0.01055 0.0426 0.94368 0.0
O8 O 0.10376 0.93677 0.03043 0.0
O9 O 0.05267 0.90324 0.99569 0.0
O10 O 0.93172 0.92058 0.99176 0.0
O11 O 0.90363 0.97053 0.0214 0.0
O12 O 0.92238 0.0832 0.01839 0.0
O13 O 0.12344 0.04942 0.02891 0.0
O14 O 0.96663 0.11289 0.98733 0.0
O15 O 0.08615 0.09271 0.99367 0.0
C16 C 0.01988 0.01662 0.08583 0.0
C17 C 0.00144 0.00331 0.93098 0.0
C18 C 0.89858 0.93305 0.0066 0.0
C19 C 0.09209 0.90223 0.01374 0.0
C20 C 0.93093 0.11605 0.00177 0.0
C21 C 0.12395 0.08359 0.01183 0.0
O22 O 0.97814 0.0229 0.07034 0.0
O23 O 0.5425 0.48742 0.57048 0.0
Zn24 Zn 0.55843 0.48568 0.53094 0.0
O25 O 0.49873 0.4934 0.50317 0.0
Zn26 Zn 0.48796 0.43651 0.47944 0.0
Zn27 Zn 0.44144 0.50361 0.52268 0.0
Zn28 Zn 0.50699 0.54873 0.48008 0.0
O29 O 0.48587 0.45357 0.4385 0.0
O30 O 0.50155 0.5308 0.43958 0.0
O31 O 0.59348 0.42503 0.5246 0.0
O32 O 0.54577 0.39111 0.48864 0.0
O33 O 0.42293 0.40313 0.4845 0.0
O34 O 0.39058 0.45275 0.51274 0.0
O35 O 0.40807 0.56602 0.51296 0.0
O36 O 0.60813 0.53746 0.52761 0.0
O37 O 0.45397 0.59728 0.48315 0.0
O38 O 0.57366 0.58037 0.49153 0.0
C39 C 0.50205 0.4949 0.58041 0.0
C40 C 0.49265 0.49227 0.42605 0.0
C41 C 0.38779 0.4151 0.49808 0.0
C42 C 0.58483 0.39138 0.50698 0.0
C43 C 0.41733 0.59952 0.49693 0.0
C44 C 0.6097 0.57206 0.51096 0.0
O45 O 0.461 0.50195 0.5644 0.0
H46 H 0.07828 0.02328 0.46694 0.0
H47 H 0.0184 0.09977 0.39269 0.0
H48 H 0.09615 0.9691 0.38572 0.0
H49 H 0.02852 0.16286 0.42416 0.0
C50 C 0.01292 0.14603 0.44116 0.0
C51 C 0.07289 0.02672 0.44436 0.0
C52 C 0.09006 0.99125 0.42779 0.0
C53 C 0.04784 0.06635 0.43199 0.0
C54 C 0.0395 0.07034 0.40259 0.0
C55 C 0.05622 0.0349 0.38576 0.0
C56 C 0.08182 -0.00417 0.39858 0.0
N57 N 0.02807 0.09958 0.44954 0.0
H58 H 0.97966 0.96764 0.55089 0.0
H59 H 0.0272 0.0498 0.625 0.0
H60 H 0.9556 0.9149 0.63122 0.0
H61 H 0.00101 0.11058 0.5909 0.0
C62 C 0.02187 0.09735 0.5749 0.0
C63 C 0.98293 0.97173 0.5734 0.0
C64 C 0.96556 0.93602 0.58964 0.0
C65 C 0.00392 0.01321 0.5859 0.0
C66 C 0.00915 0.01852 0.61519 0.0
C67 C 0.99283 0.98261 0.63188 0.0
C68 C 0.97055 0.9418 0.61877 0.0
N69 N 0.02108 0.04828 0.56859 0.0
H70 H 0.53312 0.49422 0.96083 0.0
H71 H 0.46383 0.55443 0.88301 0.0
H72 H 0.57669 0.44774 0.88309 0.0
H73 H 0.50187 0.56198 0.9796 0.0
C74 C 0.467 0.5679 0.96577 0.0
C75 C 0.53011 0.49713 0.93832 0.0
C76 C 0.5588 0.46719 0.92368 0.0
C77 C 0.49582 0.5288 0.92353 0.0
C78 C 0.49103 0.53067 0.89428 0.0
C79 C 0.51984 0.50138 0.87951 0.0
C80 C 0.55373 0.46997 0.89439 0.0
N81 N 0.46277 0.55698 0.93682 0.0
H82 H 0.48326 0.48665 0.04651 0.0
H83 H 0.52507 0.56444 0.12297 0.0
H84 H 0.46196 0.42493 0.1251 0.0
H85 H 0.50112 0.62745 0.09146 0.0
C86 C 0.52199 0.61593 0.07507 0.0
C87 C 0.48603 0.48888 0.06908 0.0
C88 C 0.47114 0.45054 0.08428 0.0
C89 C 0.50435 0.53037 0.08279 0.0
C90 C 0.50894 0.53317 0.11219 0.0
C91 C 0.49456 0.49485 0.12777 0.0
C92 C 0.47525 0.45393 0.1135 0.0
N93 N 0.52018 0.56778 0.06661 0.0
C94 C 0.21264 0.10241 0.03178 0.0
C95 C 0.16876 0.11428 0.01381 0.0
C96 C 0.25369 0.13306 0.03522 0.0
C97 C 0.30764 0.23992 0.00601 0.0
H98 H 0.36453 0.26133 0.08342 0.0
C99 C 0.41053 0.41096 0.0472 0.0
C100 C 0.44914 0.40744 0.06993 0.0
C101 C 0.38445 0.37055 0.03655 0.0
C102 C 0.34991 0.25519 0.06162 0.0
H103 H 0.13436 0.16684 0.98449 0.0
H104 H 0.20551 0.22075 0.99101 0.0
H105 H 0.30348 0.19868 0.07194 0.0
H106 H 0.49377 0.35883 0.09776 0.0
H107 H 0.44857 0.28818 0.07902 0.0
H108 H 0.35309 0.29792 0.99597 0.0
C109 C 0.20852 0.18742 0.00212 0.0
C110 C 0.31482 0.21919 0.05502 0.0
C111 C 0.16755 0.15664 0.99855 0.0
C112 C 0.46349 0.36255 0.08055 0.0
C113 C 0.43762 0.32219 0.06985 0.0
C114 C 0.34279 0.27613 0.01265 0.0
C115 C 0.25169 0.17639 0.0209 0.0
C116 C 0.29267 0.21158 0.02721 0.0
C117 C 0.3967 0.32594 0.0484 0.0
C118 C 0.36371 0.28456 0.04059 0.0
H119 H 0.21508 0.06977 0.04359 0.0
H120 H 0.28674 0.12315 0.04948 0.0
H121 H 0.29171 0.23451 0.98434 0.0
H122 H 0.39859 0.44519 0.03872 0.0
H123 H 0.35286 0.37466 0.02015 0.0
C124 C 0.17244 0.86096 0.03224 0.0
C125 C 0.12681 0.86159 0.01396 0.0
C126 C 0.20744 0.82511 0.03035 0.0
C127 C 0.24522 0.74351 0.97841 0.0
H128 H 0.3256 0.68314 0.04152 0.0
C129 C 0.37812 0.59419 0.96029 0.0
C130 C 0.42631 0.59502 0.97574 0.0
C131 C 0.34058 0.62315 0.96781 0.0
C132 C 0.30373 0.70002 0.02372 0.0
H133 H 0.08124 0.82343 0.98038 0.0
H134 H 0.14208 0.76102 0.97723 0.0
H135 H 0.26095 0.74014 0.04965 0.0
H136 H 0.47255 0.62471 0.01197 0.0
H137 H 0.4069 0.67669 0.02493 0.0
H138 H 0.28813 0.70469 0.95243 0.0
C139 C 0.15111 0.78868 0.99272 0.0
C140 C 0.26668 0.73255 0.02837 0.0
C141 C 0.11612 0.82438 0.99462 0.0
C142 C 0.43566 0.62369 0.9997 0.0
C143 C 0.39804 0.65325 0.00712 0.0
C144 C 0.28219 0.71137 0.97378 0.0
C145 C 0.19762 0.78923 0.0101 0.0
C146 C 0.23679 0.75434 0.0057 0.0
C147 C 0.3504 0.65414 0.99076 0.0
C148 C 0.31166 0.68885 0.99632 0.0
H149 H 0.18188 0.88897 0.04746 0.0
H150 H 0.24303 0.82663 0.04395 0.0
H151 H 0.22376 0.76057 0.96052 0.0
H152 H 0.36947 0.57165 0.94205 0.0
H153 H 0.30395 0.62182 0.95525 0.0
C154 C 0.85066 0.85693 0.99639 0.0
C155 C 0.85409 0.90281 0.00788 0.0
C156 C 0.81047 0.82734 7e-05 0.0
C157 C 0.72003 0.8102 0.04895 0.0
H158 H 0.65195 0.72622 0.9921 0.0
C159 C 0.55361 0.69788 0.07103 0.0
C160 C 0.55329 0.65042 0.06255 0.0
C161 C 0.5862 0.73025 0.06136 0.0
C162 C 0.67087 0.74927 0.00823 0.0
H163 H 0.81644 0.95443 0.03083 0.0
H164 H 0.74665 0.9032 0.03694 0.0
H165 H 0.71729 0.77965 0.98044 0.0
H166 H 0.58515 0.59975 0.03633 0.0
H167 H 0.6428 0.65603 0.01987 0.0
H168 H 0.67478 0.77958 0.07692 0.0
C169 C 0.77544 0.88967 0.02564 0.0
C170 C 0.70824 0.77981 0.00155 0.0
C171 C 0.81545 0.9191 0.02202 0.0
C172 C 0.58472 0.63615 0.04334 0.0
C173 C 0.61754 0.6685 0.03375 0.0
C174 C 0.68295 0.77971 0.05563 0.0
C175 C 0.77304 0.84313 0.01528 0.0
C176 C 0.73309 0.81069 0.02186 0.0
C177 C 0.61939 0.7157 0.04312 0.0
C178 C 0.65781 0.74893 0.03538 0.0
H179 H 0.87975 0.84334 0.98534 0.0
H180 H 0.80971 0.79155 0.99195 0.0
H181 H 0.73923 0.8328 0.06525 0.0
H182 H 0.52937 0.70977 0.08564 0.0
H183 H 0.58593 0.76658 0.06853 0.0
C184 C 0.85771 0.16186 0.0141 0.0
C185 C 0.89762 0.15785 0.99849 0.0
C186 C 0.82413 0.19953 0.00958 0.0
C187 C 0.76924 0.29439 0.00312 0.0
H188 H 0.7214 0.31898 0.92491 0.0
C189 C 0.62997 0.4449 0.96086 0.0
C190 C 0.59363 0.43188 0.93826 0.0
C191 C 0.66754 0.41289 0.97143 0.0
C192 C 0.73429 0.31244 0.94686 0.0
H193 H 0.93475 0.19158 0.9668 0.0
H194 H 0.87616 0.25726 0.95899 0.0
H195 H 0.78852 0.26243 0.93738 0.0
H196 H 0.56528 0.3743 0.91065 0.0
H197 H 0.63041 0.31869 0.92906 0.0
H198 H 0.71384 0.34408 0.01239 0.0
C199 C 0.87057 0.2309 0.97447 0.0
C200 C 0.77318 0.28047 0.95401 0.0
C201 C 0.90421 0.19331 0.97902 0.0
C202 C 0.59349 0.38554 0.92769 0.0
C203 C 0.63081 0.35378 0.93817 0.0
C204 C 0.73036 0.32678 0.99593 0.0
C205 C 0.82964 0.23392 0.98933 0.0
C206 C 0.79076 0.27065 0.98219 0.0
C207 C 0.66913 0.36756 0.9595 0.0
C208 C 0.712 0.33545 0.96769 0.0
H209 H 0.85162 0.1353 0.02937 0.0
H210 H 0.79272 0.20065 0.02118 0.0
H211 H 0.78231 0.28774 0.02503 0.0
H212 H 0.63085 0.48046 0.96933 0.0
H213 H 0.69663 0.42434 0.98794 0.0
C214 C 0.69577 0.59291 0.5345 0.0
C215 C 0.65375 0.6039 0.51485 0.0
C216 C 0.73612 0.62422 0.53947 0.0
C217 C 0.79376 0.72993 0.51162 0.0
H218 H 0.84366 0.75273 0.58989 0.0
C219 C 0.90259 0.89797 0.55309 0.0
C220 C 0.94002 0.89351 0.57637 0.0
C221 C 0.87413 0.85871 0.54278 0.0
C222 C 0.83091 0.74622 0.5679 0.0
H223 H 0.62192 0.65578 0.48435 0.0
H224 H 0.69197 0.71085 0.49345 0.0
H225 H 0.78158 0.69124 0.57712 0.0
H226 H 0.97952 0.84404 0.60584 0.0
H227 H 0.93002 0.77538 0.58775 0.0
H228 H 0.84237 0.78609 0.50258 0.0
C229 C 0.69401 0.67768 0.50473 0.0
C230 C 0.79525 0.71093 0.56057 0.0
C231 C 0.65368 0.64624 0.49965 0.0
C232 C 0.95027 0.84861 0.58818 0.0
C233 C 0.92194 0.80938 0.57784 0.0
C234 C 0.82949 0.76539 0.51898 0.0
C235 C 0.73531 0.66735 0.52502 0.0
C236 C 0.77585 0.70268 0.53238 0.0
C237 C 0.88265 0.81425 0.55554 0.0
C238 C 0.84803 0.77421 0.54724 0.0
H239 H 0.69732 0.56034 0.54635 0.0
H240 H 0.76778 0.61486 0.5549 0.0
H241 H 0.77998 0.724 0.48969 0.0
H242 H 0.89363 0.93223 0.54371 0.0
H243 H 0.84383 0.86372 0.52574 0.0
C244 C 0.6695 0.35775 0.52398 0.0
C245 C 0.62389 0.35498 0.50579 0.0
C246 C 0.70957 0.32864 0.51998 0.0
C247 C 0.78603 0.25271 0.51202 0.0
H248 H 0.80694 0.24483 0.43444 0.0
C249 C 0.94907 0.14839 0.47412 0.0
C250 C 0.9716 0.16943 0.45273 0.0
C251 C 0.90666 0.16872 0.48273 0.0
C252 C 0.80182 0.24695 0.45623 0.0
H253 H 0.58351 0.31679 0.47046 0.0
H254 H 0.65326 0.26554 0.46378 0.0
H255 H 0.73107 0.28099 0.44607 0.0
H256 H 0.96927 0.22901 0.42456 0.0
H257 H 0.89562 0.26489 0.43977 0.0
H258 H 0.85784 0.2199 0.52212 0.0
C259 C 0.65832 0.29104 0.48074 0.0
C260 C 0.7579 0.267 0.46287 0.0
C261 C 0.61823 0.32022 0.48469 0.0
C262 C 0.95234 0.212 0.44095 0.0
C263 C 0.90998 0.23226 0.4495 0.0
C264 C 0.83007 0.23253 0.50535 0.0
C265 C 0.70493 0.29599 0.49777 0.0
C266 C 0.74967 0.27061 0.49086 0.0
C267 C 0.88603 0.21033 0.47006 0.0
C268 C 0.83871 0.23007 0.47739 0.0
H269 H 0.67518 0.38396 0.54054 0.0
H270 H 0.74499 0.3336 0.53339 0.0
H271 H 0.78064 0.25467 0.53377 0.0
H272 H 0.96333 0.11564 0.48373 0.0
H273 H 0.88904 0.15096 0.49858 0.0
C274 C 0.30188 0.40115 0.50959 0.0
C275 C 0.34353 0.38411 0.49829 0.0
C276 C 0.26222 0.37118 0.51299 0.0
C277 C 0.20204 0.25603 0.49376 0.0
H278 H 0.16358 0.26564 0.56782 0.0
C279 C 0.08307 0.11494 0.54174 0.0
C280 C 0.05083 0.13086 0.56013 0.0
C281 C 0.11402 0.14692 0.53027 0.0
C282 C 0.17304 0.26297 0.54685 0.0
H283 H 0.3748 0.32268 0.48021 0.0
H284 H 0.30523 0.26986 0.48649 0.0
H285 H 0.22635 0.31903 0.55455 0.0
H286 H 0.02303 0.19254 0.57948 0.0
H287 H 0.07612 0.24856 0.55905 0.0
H288 H 0.14859 0.19945 0.48626 0.0
C289 C 0.30345 0.30666 0.49257 0.0
C290 C 0.20922 0.29355 0.53927 0.0
C291 C 0.34333 0.33685 0.48907 0.0
C292 C 0.04807 0.17939 0.56564 0.0
C293 C 0.07867 0.21135 0.55405 0.0
C294 C 0.16543 0.22538 0.50133 0.0
C295 C 0.26319 0.3233 0.5053 0.0
C296 C 0.22412 0.29057 0.51266 0.0
C297 C 0.11313 0.19536 0.53692 0.0
C298 C 0.1505 0.22859 0.52799 0.0
H299 H 0.30032 0.43755 0.5165 0.0
H300 H 0.23121 0.38529 0.5223 0.0
H301 H 0.21267 0.25307 0.47306 0.0
H302 H 0.08578 0.07766 0.53697 0.0
H303 H 0.1402 0.13336 0.51725 0.0
C304 C 0.34491 0.64616 0.50963 0.0
C305 C 0.38412 0.64128 0.49359 0.0
C306 C 0.31218 0.68454 0.50542 0.0
C307 C 0.26492 0.78361 0.5006 0.0
H308 H 0.21433 0.8125 0.42324 0.0
C309 C 0.1563 0.95444 0.46289 0.0
C310 C 0.11704 0.94935 0.44056 0.0
C311 C 0.18586 0.91552 0.47233 0.0
C312 C 0.22775 0.80462 0.44497 0.0
H313 H 0.42045 0.67369 0.46113 0.0
H314 H 0.3633 0.74038 0.45381 0.0
H315 H 0.27347 0.74804 0.43392 0.0
H316 H 0.07525 0.89912 0.41217 0.0
H317 H 0.12681 0.83135 0.42859 0.0
H318 H 0.2189 0.84052 0.51152 0.0
C319 C 0.35768 0.71429 0.46944 0.0
C320 C 0.26206 0.76809 0.45106 0.0
C321 C 0.39053 0.67616 0.47374 0.0
C322 C 0.106 0.90423 0.429 0.0
C323 C 0.13546 0.86548 0.43839 0.0
C324 C 0.23072 0.82055 0.49448 0.0
C325 C 0.31783 0.71854 0.48498 0.0
C326 C 0.28115 0.7573 0.4789 0.0
C327 C 0.17657 0.871 0.45956 0.0
C328 C 0.21178 0.8313 0.46657 0.0
H329 H 0.33903 0.62002 0.52518 0.0
H330 H 0.28158 0.68685 0.51756 0.0
H331 H 0.27924 0.77609 0.52226 0.0
H332 H 0.16569 0.98887 0.47212 0.0
H333 H 0.21746 0.92079 0.48862 0.0
C334 C 0.97879 0.0313 0.12832 0.0
C335 C 0.02229 0.02109 0.11659 0.0
C336 C 0.98069 0.0358 0.15724 0.0
C337 C 0.06722 0.05797 0.22256 0.0
H338 H 0.96185 0.0 0.25756 0.0
C339 C 0.03022 -0.00274 0.33894 0.0
C340 C 0.04658 0.03762 0.35476 0.0
C341 C 0.02449 -0.00172 0.30979 0.0
C342 C 0.99161 0.01632 0.24812 0.0
H343 H 0.10202 0.00781 0.12624 0.0
H344 H 0.10516 0.01524 0.17681 0.0
H345 H 0.95897 -0.00527 0.20702 0.0
H346 H 0.06862 0.11109 0.35241 0.0
H347 H 0.05816 0.11307 0.3012 0.0
H348 H 0.10049 0.07849 0.26382 0.0
C349 C 0.06969 0.02027 0.16352 0.0
C350 C 0.98972 0.01368 0.21912 0.0
C351 C 0.0678 0.01569 0.13454 0.0
C352 C 0.05579 0.07951 0.34074 0.0
C353 C 0.05028 0.08048 0.31148 0.0
C354 C 0.06903 0.06073 0.25159 0.0
C355 C 0.02609 0.03025 0.1752 0.0
C356 C 0.02769 0.03416 0.206 0.0
C357 C 0.03501 0.0397 0.2957 0.0
C358 C 0.03147 0.03954 0.26472 0.0
H359 H 0.9431 0.03592 0.11518 0.0
H360 H 0.94655 0.04411 0.16552 0.0
H361 H 0.09675 0.07458 0.21306 0.0
H362 H 0.02229 0.9646 0.34915 0.0
H363 H 0.0131 0.96615 0.29831 0.0
C364 C 0.00121 0.95844 0.88601 0.0
C365 C -0.00077 0.00176 0.90014 0.0
C366 C 0.00107 0.95732 0.85706 0.0
C367 C 0.02378 0.0336 0.7974 0.0
H368 H 0.95538 0.93194 0.75315 0.0
C369 C 0.98927 0.03059 0.67567 0.0
C370 C 0.99819 0.98725 0.6629 0.0
C371 C 0.99095 0.03364 0.70473 0.0
C372 C 0.97496 0.96037 0.76528 0.0
H373 H 0.99439 0.07789 0.89475 0.0
H374 H 0.99261 0.07587 0.84429 0.0
H375 H 0.9535 0.93467 0.80336 0.0
H376 H 0.0186 0.91379 0.67098 0.0
H377 H 0.02047 0.91902 0.72141 0.0
H378 H 0.04427 0.05964 0.75897 0.0
C379 C 0.99568 0.04274 0.8556 0.0
C380 C 0.97406 0.96188 0.7941 0.0
C381 C 0.99634 0.04388 0.88457 0.0
C382 C 0.01029 0.94747 0.67998 0.0
C383 C 0.01148 0.95042 0.70891 0.0
C384 C 0.02421 0.03233 0.76849 0.0
C385 C 0.9984 -0.00052 0.84145 0.0
C386 C -0.0013 -0.00165 0.81061 0.0
C387 C 0.00121 -0.00665 0.72157 0.0
C388 C 9e-05 -0.00448 0.75217 0.0
H389 H 0.00383 0.92535 0.89738 0.0
H390 H 0.00402 0.92336 0.84701 0.0
H391 H 0.04388 0.06181 0.80944 0.0
H392 H 0.97942 0.06182 0.66316 0.0
H393 H 0.98265 0.06716 0.71393 0.0
C394 C 0.54815 0.49578 0.62944 0.0
C395 C 0.50265 0.49617 0.61111 0.0
C396 C 0.54851 0.49793 0.65838 0.0
C397 C 0.47065 0.47344 0.71296 0.0
H398 H 0.5642 0.5561 0.75874 0.0
C399 C 0.51339 0.54573 0.83418 0.0
C400 C 0.51408 0.50253 0.84853 0.0
C401 C 0.51023 0.54639 0.80503 0.0
C402 C 0.53762 0.53313 0.74619 0.0
H403 H 0.42184 0.49885 0.60892 0.0
H404 H 0.42263 0.50232 0.65937 0.0
H405 H 0.56269 0.5545 0.70803 0.0
H406 H 0.51042 0.42627 0.84365 0.0
H407 H 0.50491 0.4274 0.79283 0.0
H408 H 0.44565 0.45198 0.75108 0.0
C409 C 0.45796 0.50023 0.65133 0.0
C410 C 0.53711 0.53185 0.71723 0.0
C411 C 0.45757 0.49846 0.62241 0.0
C412 C 0.51046 0.46008 0.83315 0.0
C413 C 0.50686 0.46074 0.80405 0.0
C414 C 0.47144 0.47443 0.74192 0.0
C415 C 0.50341 0.50011 0.66962 0.0
C416 C 0.5037 0.5019 0.70033 0.0
C417 C 0.5071 0.50386 0.78969 0.0
C418 C 0.50504 0.50416 0.75885 0.0
H419 H 0.58355 0.49411 0.62146 0.0
H420 H 0.58411 0.49728 0.672 0.0
H421 H 0.44473 0.44976 0.70049 0.0
H422 H 0.51637 0.57895 0.84554 0.0
H423 H 0.51008 0.58015 0.79447 0.0
C424 C 0.4953 0.45052 0.38035 0.0
C425 C 0.4913 0.49272 0.39528 0.0
C426 C 0.49625 0.45148 0.35148 0.0
C427 C 0.51843 0.53311 0.29411 0.0
H428 H 0.45578 0.43222 0.24681 0.0
C429 C 0.48704 0.53865 0.1725 0.0
C430 C 0.4989 0.49707 0.15883 0.0
C431 C 0.48777 0.53928 0.20153 0.0
C432 C 0.47374 0.46047 0.25981 0.0
H433 H 0.48376 0.56893 0.39147 0.0
H434 H 0.48373 0.57046 0.34118 0.0
H435 H 0.45192 0.43084 0.29686 0.0
H436 H 0.5235 0.42432 0.16531 0.0
H437 H 0.52357 0.42528 0.2157 0.0
H438 H 0.53916 0.56312 0.25671 0.0
C439 C 0.48769 0.53669 0.35177 0.0
C440 C 0.47173 0.45962 0.28853 0.0
C441 C 0.48734 0.53577 0.38064 0.0
C442 C 0.51291 0.45663 0.175 0.0
C443 C 0.51311 0.45714 0.20389 0.0
C444 C 0.51991 0.53421 0.26531 0.0
C445 C 0.49261 0.49462 0.33681 0.0
C446 C 0.49424 0.49581 0.30612 0.0
C447 C 0.49996 0.49826 0.21742 0.0
C448 C 0.49784 0.49775 0.24791 0.0
H449 H 0.49878 0.41679 0.39103 0.0
H450 H 0.50085 0.41841 0.3408 0.0
H451 H 0.53698 0.56117 0.307 0.0
H452 H 0.47564 0.57029 0.16071 0.0
H453 H 0.47725 0.57142 0.21144 0.0
loop_
_geom_bond_atom_site_label_1
_geom_bond_atom_site_label_2
_geom_bond_distance
_geom_bond_site_symmetry_2
_ccdc_geom_bond_type
O0 Zn1 1.953 1_565 S
O0 C16 1.225 1_565 S
Zn1 O0 1.953 1_545 S
Zn1 O2 1.949 . S
Zn1 O8 1.919 1_545 S
Zn1 O13 1.924 . S
O2 Zn1 1.949 . S
O2 Zn3 1.923 1_444 S
O2 Zn4 1.950 1_455 S
O2 Zn5 1.945 1_554 S
Zn3 O2 1.923 1_666 S
Zn3 O6 1.933 . S
Zn3 O9 1.941 1_655 S
Zn3 O10 1.965 . S
Zn4 O2 1.950 1_655 S
Zn4 O11 1.938 1_545 S
Zn4 O12 1.906 . S
Zn4 O22 1.953 . S
Zn5 O2 1.945 1_556 S
Zn5 O7 1.932 . S
Zn5 O14 1.977 1_455 S
Zn5 O15 1.920 . S
O6 Zn3 1.933 . S
O6 C17 1.226 1_665 S
O7 Zn5 1.932 . S
O7 C17 1.307 . S
O8 Zn1 1.919 1_565 S
O8 C19 1.253 . S
O9 Zn3 1.941 1_455 S
O9 C19 1.283 1_556 S
O10 Zn3 1.965 . S
O10 C18 1.303 1_556 S
O11 Zn4 1.938 1_565 S
O11 C18 1.247 . S
O12 Zn4 1.906 . S
O12 C20 1.304 1_554 S
O13 Zn1 1.924 . S
O13 C21 1.311 . S
O14 Zn5 1.977 1_655 S
O14 C20 1.272 . S
O15 Zn5 1.920 . S
O15 C21 1.205 1_556 S
C16 O0 1.225 1_545 S
C16 O22 1.298 1_455 S
C17 O6 1.226 1_445 S
C17 O7 1.307 . S
C18 O10 1.303 1_554 S
C18 O11 1.247 . S
C19 O8 1.253 . S
C19 O9 1.283 1_554 S
C20 O12 1.304 1_556 S
C20 O14 1.272 . S
C21 O13 1.311 . S
C21 O15 1.205 1_554 S
O22 Zn4 1.953 . S
O22 C16 1.298 1_655 S
O23 Zn24 1.953 . S
O23 C39 1.225 . S
Zn24 O23 1.953 . S
Zn24 O25 1.949 . S
Zn24 O31 1.919 . S
Zn24 O36 1.924 . S
O25 Zn24 1.949 . S
O25 Zn26 1.923 . S
O25 Zn27 1.950 . S
O25 Zn28 1.945 . S
Zn26 O25 1.923 . S
Zn26 O29 1.933 . S
Zn26 O32 1.941 . S
Zn26 O33 1.965 . S
Zn27 O25 1.950 . S
Zn27 O34 1.938 . S
Zn27 O35 1.906 . S
Zn27 O45 1.953 . S
Zn28 O25 1.945 . S
Zn28 O30 1.932 . S
Zn28 O37 1.977 . S
Zn28 O38 1.910 . S
O29 Zn26 1.933 . S
O29 C40 1.226 . S
O30 Zn28 1.932 . S
O30 C40 1.307 . S
O31 Zn24 1.919 . S
O31 C42 1.253 . S
O32 Zn26 1.941 . S
O32 C42 1.283 . S
O33 Zn26 1.965 . S
O33 C41 1.303 . S
O34 Zn27 1.938 . S
O34 C41 1.247 . S
O35 Zn27 1.906 . S
O35 C43 1.304 . S
O36 Zn24 1.924 . S
O36 C44 1.311 . S
O37 Zn28 1.977 . S
O37 C43 1.272 . S
O38 Zn28 1.910 . S
O38 C44 1.231 . S
C39 O23 1.225 . S
C39 O45 1.298 . S
C40 O29 1.226 . S
C40 O30 1.307 . S
C41 O33 1.303 . S
C41 O34 1.247 . S
C42 O31 1.253 . S
C42 O32 1.283 . S
C43 O35 1.304 . S
C43 O37 1.272 . S
C44 O36 1.311 . S
C44 O38 1.231 . S
O45 Zn27 1.953 . S
O45 C39 1.298 . S
H46 C51 0.930 . S
H47 C54 0.930 . S
H48 C56 0.930 . S
H49 C50 1.016 . S
C50 H49 1.016 . S
C50 N57 1.286 . S
C51 H46 0.930 . S
C51 C52 1.397 . S
C51 C53 1.361 1_465 S
C52 C51 1.397 . S
C52 C56 1.390 . S
C53 C51 1.361 1_645 S
C53 C54 1.393 . S
C53 N57 1.413 . S
C54 H47 0.930 . S
C54 C53 1.393 . S
C54 C55 1.399 1_655 S
C55 C54 1.399 1_455 S
C55 C56 1.381 1_545 S
C56 H48 0.930 . S
C56 C52 1.390 . S
C56 C55 1.381 1_565 S
N57 C50 1.286 . S
N57 C53 1.413 . S
H58 C63 0.930 . S
H59 C66 0.930 . S
H60 C68 0.930 . S
H61 C62 1.016 . S
C62 H61 1.016 . S
C62 N69 1.286 . S
C63 H58 0.930 . S
C63 C64 1.397 1_455 S
C63 C65 1.361 1_565 S
C64 C63 1.397 1_655 S
C64 C68 1.390 . S
C65 C63 1.361 1_545 S
C65 C66 1.393 . S
C65 N69 1.413 . S
C66 H59 0.930 . S
C66 C65 1.393 . S
C66 C67 1.399 . S
C67 C66 1.399 . S
C67 C68 1.381 1_445 S
C68 H60 0.930 . S
C68 C64 1.390 . S
C68 C67 1.381 1_665 S
N69 C62 1.286 . S
N69 C65 1.413 . S
H70 C75 0.930 . S
H71 C78 0.930 . S
H72 C80 0.930 . S
H73 C74 1.016 . S
C74 H73 1.016 . S
C74 N81 1.286 . S
C75 H70 0.930 . S
C75 C76 1.397 . S
C75 C77 1.361 . S
C76 C75 1.397 . S
C76 C80 1.390 . S
C77 C75 1.361 . S
C77 C78 1.393 . S
C77 N81 1.413 . S
C78 H71 0.930 . S
C78 C77 1.393 . S
C78 C79 1.399 . S
C79 C78 1.399 . S
C79 C80 1.381 . S
C80 H72 0.930 . S
C80 C76 1.390 . S
C80 C79 1.381 . S
N81 C74 1.286 . S
N81 C77 1.413 . S
H82 C87 0.930 . S
H83 C90 0.930 . S
H84 C92 0.930 . S
H85 C86 1.016 . S
C86 H85 1.016 . S
C86 N93 1.286 . S
C87 H82 0.930 . S
C87 C88 1.397 . S
C87 C89 1.361 . S
C88 C87 1.397 . S
C88 C92 1.390 . S
C89 C87 1.361 . S
C89 C90 1.393 . S
C89 N93 1.413 . S
C90 H83 0.930 . S
C90 C89 1.393 . S
C90 C91 1.399 . S
C91 C90 1.399 . S
C91 C92 1.381 . S
C92 H84 0.930 . S
C92 C88 1.390 . S
C92 C91 1.381 . S
N93 C86 1.286 . S
N93 C89 1.413 . S
C94 C95 1.349 . S
C94 C96 1.327 . S
C94 H119 0.950 . S
C95 C94 1.349 . S
C95 C111 1.349 . S
C96 C94 1.327 . S
C96 C115 1.429 . S
C96 H120 0.950 . S
C97 C114 1.574 . S
C97 C116 1.368 . S
C97 H121 0.949 . S
H98 C102 0.949 . S
C99 C100 1.349 . S
C99 C101 1.327 . S
C99 H122 0.950 . S
C100 C99 1.349 . S
C100 C112 1.349 . S
C101 C99 1.327 . S
C101 C117 1.429 . S
C101 H123 0.950 . S
C102 H98 0.949 . S
C102 C110 1.574 . S
C102 C118 1.368 . S
H103 C111 0.950 1_556 S
H104 C109 0.950 . S
H105 C110 0.949 . S
H106 C112 0.950 . S
H107 C113 0.950 . S
H108 C114 0.949 . S
C109 H104 0.950 . S
C109 C111 1.327 . S
C109 C115 1.429 . S
C110 C102 1.574 . S
C110 H105 0.949 . S
C110 C116 1.368 . S
C111 C95 1.349 . S
C111 H103 0.950 1_554 S
C111 C109 1.327 . S
C112 C100 1.349 . S
C112 H106 0.950 . S
C112 C113 1.327 . S
C113 H107 0.950 . S
C113 C112 1.327 . S
C113 C117 1.429 . S
C114 C97 1.574 . S
C114 H108 0.949 . S
C114 C118 1.368 . S
C115 C96 1.429 . S
C115 C109 1.429 . S
C115 C116 1.523 . S
C116 C97 1.368 . S
C116 C110 1.368 . S
C116 C115 1.523 . S
C117 C101 1.429 . S
C117 C113 1.429 . S
C117 C118 1.523 . S
C118 C102 1.368 . S
C118 C114 1.368 . S
C118 C117 1.523 . S
H119 C94 0.950 . S
H120 C96 0.950 . S
H121 C97 0.949 . S
H122 C99 0.950 . S
H123 C101 0.950 . S
C124 C125 1.349 1_554 S
C124 C126 1.334 . S
C124 H149 0.950 . S
C125 C124 1.349 1_556 S
C125 C141 1.349 . S
C126 C124 1.334 . S
C126 C145 1.416 1_554 S
C126 H150 0.956 . S
C127 C144 1.574 . S
C127 C146 1.368 . S
C127 H151 0.949 . S
H128 C132 0.949 . S
C129 C130 1.349 . S
C129 C131 1.327 . S
C129 H152 0.950 . S
C130 C129 1.349 . S
C130 C142 1.349 . S
C131 C129 1.327 . S
C131 C147 1.429 . S
C131 H153 0.950 . S
C132 H128 0.949 . S
C132 C140 1.574 . S
C132 C148 1.368 . S
H133 C141 0.950 . S
H134 C139 0.950 . S
H135 C140 0.949 1_554 S
H136 C142 0.950 . S
H137 C143 0.950 . S
H138 C144 0.949 . S
C139 H134 0.950 . S
C139 C141 1.327 . S
C139 C145 1.429 . S
C140 C132 1.574 . S
C140 H135 0.949 1_556 S
C140 C146 1.368 . S
C141 C125 1.349 . S
C141 H133 0.950 . S
C141 C139 1.327 . S
C142 C130 1.349 . S
C142 H136 0.950 . S
C142 C143 1.327 . S
C143 H137 0.950 . S
C143 C142 1.327 . S
C143 C147 1.429 . S
C144 C127 1.574 . S
C144 H138 0.949 . S
C144 C148 1.368 . S
C145 C126 1.416 1_556 S
C145 C139 1.429 . S
C145 C146 1.523 . S
C146 C127 1.368 . S
C146 C140 1.368 . S
C146 C145 1.523 . S
C147 C131 1.429 . S
C147 C143 1.429 . S
C147 C148 1.523 . S
C148 C132 1.368 . S
C148 C144 1.368 . S
C148 C147 1.523 . S
H149 C124 0.950 . S
H150 C126 0.956 . S
H151 C127 0.949 . S
H152 C129 0.950 . S
H153 C131 0.950 . S
C154 C155 1.349 . S
C154 C156 1.327 . S
C154 H179 0.950 1_554 S
C155 C154 1.349 . S
C155 C171 1.349 . S
C156 C154 1.327 . S
C156 C175 1.429 . S
C156 H180 0.950 . S
C157 C174 1.574 . S
C157 C176 1.368 . S
C157 H181 0.949 . S
H158 C162 0.949 . S
C159 C160 1.349 . S
C159 C161 1.327 . S
C159 H182 0.950 . S
C160 C159 1.349 . S
C160 C172 1.349 . S
C161 C159 1.327 . S
C161 C177 1.429 . S
C161 H183 0.950 . S
C162 H158 0.949 . S
C162 C170 1.574 . S
C162 C178 1.368 . S
H163 C171 0.950 . S
H164 C169 0.950 . S
H165 C170 0.949 . S
H166 C172 0.950 . S
H167 C173 0.950 . S
H168 C174 0.949 . S
C169 H164 0.950 . S
C169 C171 1.327 . S
C169 C175 1.429 . S
C170 C162 1.574 . S
C170 H165 0.949 . S
C170 C176 1.368 . S
C171 C155 1.349 . S
C171 H163 0.950 . S
C171 C169 1.327 . S
C172 C160 1.349 . S
C172 H166 0.950 . S
C172 C173 1.327 . S
C173 H167 0.950 . S
C173 C172 1.327 . S
C173 C177 1.429 . S
C174 C157 1.574 . S
C174 H168 0.949 . S
C174 C178 1.368 . S
C175 C156 1.429 . S
C175 C169 1.429 . S
C175 C176 1.523 . S
C176 C157 1.368 . S
C176 C170 1.368 . S
C176 C175 1.523 . S
C177 C161 1.429 . S
C177 C173 1.429 . S
C177 C178 1.523 . S
C178 C162 1.368 . S
C178 C174 1.368 . S
C178 C177 1.523 . S
H179 C154 0.950 1_556 S
H180 C156 0.950 . S
H181 C157 0.949 . S
H182 C159 0.950 . S
H183 C161 0.950 . S
C184 C185 1.349 . S
C184 C186 1.327 . S
C184 H209 0.950 . S
C185 C184 1.349 . S
C185 C201 1.349 . S
C186 C184 1.327 . S
C186 C205 1.429 . S
C186 H210 0.950 . S
C187 C204 1.574 . S
C187 C206 1.368 . S
C187 H211 0.949 . S
H188 C192 0.949 . S
C189 C190 1.349 . S
C189 C191 1.327 . S
C189 H212 0.950 . S
C190 C189 1.349 . S
C190 C202 1.349 . S
C191 C189 1.327 . S
C191 C207 1.429 . S
C191 H213 0.950 . S
C192 H188 0.949 . S
C192 C200 1.574 . S
C192 C208 1.368 . S
H193 C201 0.950 1_554 S
H194 C199 0.950 1_554 S
H195 C200 0.949 . S
H196 C202 0.950 . S
H197 C203 0.950 . S
H198 C204 0.949 . S
C199 H194 0.950 1_556 S
C199 C201 1.327 . S
C199 C205 1.429 . S
C200 C192 1.574 . S
C200 H195 0.949 . S
C200 C206 1.368 . S
C201 C185 1.349 . S
C201 H193 0.950 1_556 S
C201 C199 1.327 . S
C202 C190 1.349 . S
C202 H196 0.950 . S
C202 C203 1.327 . S
C203 H197 0.950 . S
C203 C202 1.327 . S
C203 C207 1.429 . S
C204 C187 1.574 . S
C204 H198 0.949 . S
C204 C208 1.368 . S
C205 C186 1.429 . S
C205 C199 1.429 . S
C205 C206 1.523 . S
C206 C187 1.368 . S
C206 C200 1.368 . S
C206 C205 1.523 . S
C207 C191 1.429 . S
C207 C203 1.429 . S
C207 C208 1.523 . S
C208 C192 1.368 . S
C208 C204 1.368 . S
C208 C207 1.523 . S
H209 C184 0.950 . S
H210 C186 0.950 . S
H211 C187 0.949 . S
H212 C189 0.950 . S
H213 C191 0.950 . S
C214 C215 1.349 . S
C214 C216 1.327 . S
C214 H239 0.950 . S
C215 C214 1.349 . S
C215 C231 1.349 . S
C216 C214 1.327 . S
C216 C235 1.429 . S
C216 H240 0.950 . S
C217 C234 1.574 . S
C217 C236 1.368 . S
C217 H241 0.949 . S
H218 C222 0.949 . S
C219 C220 1.349 . S
C219 C221 1.327 . S
C219 H242 0.950 . S
C220 C219 1.349 . S
C220 C232 1.349 . S
C221 C219 1.327 . S
C221 C237 1.429 . S
C221 H243 0.950 . S
C222 H218 0.949 . S
C222 C230 1.574 . S
C222 C238 1.368 . S
H223 C231 0.950 . S
H224 C229 0.950 . S
H225 C230 0.949 . S
H226 C232 0.950 . S
H227 C233 0.950 . S
H228 C234 0.949 . S
C229 H224 0.950 . S
C229 C231 1.327 . S
C229 C235 1.429 . S
C230 C222 1.574 . S
C230 H225 0.949 . S
C230 C236 1.368 . S
C231 C215 1.349 . S
C231 H223 0.950 . S
C231 C229 1.327 . S
C232 C220 1.349 . S
C232 H226 0.950 . S
C232 C233 1.327 . S
C233 H227 0.950 . S
C233 C232 1.327 . S
C233 C237 1.429 . S
C234 C217 1.574 . S
C234 H228 0.949 . S
C234 C238 1.368 . S
C235 C216 1.429 . S
C235 C229 1.429 . S
C235 C236 1.523 . S
C236 C217 1.368 . S
C236 C230 1.368 . S
C236 C235 1.523 . S
C237 C221 1.429 . S
C237 C233 1.429 . S
C237 C238 1.523 . S
C238 C222 1.368 . S
C238 C234 1.368 . S
C238 C237 1.523 . S
H239 C214 0.950 . S
H240 C216 0.950 . S
H241 C217 0.949 . S
H242 C219 0.950 . S
H243 C221 0.950 . S
C244 C245 1.349 . S
C244 C246 1.327 . S
C244 H269 0.950 . S
C245 C244 1.349 . S
C245 C261 1.349 . S
C246 C244 1.327 . S
C246 C265 1.429 . S
C246 H270 0.950 . S
C247 C264 1.574 . S
C247 C266 1.368 . S
C247 H271 0.949 . S
H248 C252 0.949 . S
C249 C250 1.349 . S
C249 C251 1.327 . S
C249 H272 0.950 . S
C250 C249 1.349 . S
C250 C262 1.349 . S
C251 C249 1.327 . S
C251 C267 1.429 . S
C251 H273 0.950 . S
C252 H248 0.949 . S
C252 C260 1.574 . S
C252 C268 1.368 . S
H253 C261 0.950 . S
H254 C259 0.950 . S
H255 C260 0.949 . S
H256 C262 0.950 . S
H257 C263 0.950 . S
H258 C264 0.949 . S
C259 H254 0.950 . S
C259 C261 1.327 . S
C259 C265 1.429 . S
C260 C252 1.574 . S
C260 H255 0.949 . S
C260 C266 1.368 . S
C261 C245 1.349 . S
C261 H253 0.950 . S
C261 C259 1.327 . S
C262 C250 1.349 . S
C262 H256 0.950 . S
C262 C263 1.327 . S
C263 H257 0.950 . S
C263 C262 1.327 . S
C263 C267 1.429 . S
C264 C247 1.574 . S
C264 H258 0.949 . S
C264 C268 1.368 . S
C265 C246 1.429 . S
C265 C259 1.429 . S
C265 C266 1.523 . S
C266 C247 1.368 . S
C266 C260 1.368 . S
C266 C265 1.523 . S
C267 C251 1.429 . S
C267 C263 1.429 . S
C267 C268 1.523 . S
C268 C252 1.368 . S
C268 C264 1.368 . S
C268 C267 1.523 . S
H269 C244 0.950 . S
H270 C246 0.950 . S
H271 C247 0.949 . S
H272 C249 0.950 . S
H273 C251 0.950 . S
C274 C275 1.349 . S
C274 C276 1.327 . S
C274 H299 0.950 . S
C275 C274 1.349 . S
C275 C291 1.349 . S
C276 C274 1.327 . S
C276 C295 1.429 . S
C276 H300 0.950 . S
C277 C294 1.574 . S
C277 C296 1.368 . S
C277 H301 0.949 . S
H278 C282 0.949 . S
C279 C280 1.349 . S
C279 C281 1.327 . S
C279 H302 0.950 . S
C280 C279 1.349 . S
C280 C292 1.349 . S
C281 C279 1.327 . S
C281 C297 1.429 . S
C281 H303 0.950 . S
C282 H278 0.949 . S
C282 C290 1.574 . S
C282 C298 1.368 . S
H283 C291 0.950 . S
H284 C289 0.950 . S
H285 C290 0.949 . S
H286 C292 0.950 . S
H287 C293 0.950 . S
H288 C294 0.949 . S
C289 H284 0.950 . S
C289 C291 1.327 . S
C289 C295 1.429 . S
C290 C282 1.574 . S
C290 H285 0.949 . S
C290 C296 1.368 . S
C291 C275 1.349 . S
C291 H283 0.950 . S
C291 C289 1.327 . S
C292 C280 1.349 . S
C292 H286 0.950 . S
C292 C293 1.327 . S
C293 H287 0.950 . S
C293 C292 1.327 . S
C293 C297 1.429 . S
C294 C277 1.574 . S
C294 H288 0.949 . S
C294 C298 1.368 . S
C295 C276 1.429 . S
C295 C289 1.429 . S
C295 C296 1.523 . S
C296 C277 1.368 . S
C296 C290 1.368 . S
C296 C295 1.523 . S
C297 C281 1.429 . S
C297 C293 1.429 . S
C297 C298 1.523 . S
C298 C282 1.368 . S
C298 C294 1.368 . S
C298 C297 1.523 . S
H299 C274 0.950 . S
H300 C276 0.950 . S
H301 C277 0.949 . S
H302 C279 0.950 . S
H303 C281 0.950 . S
C304 C305 1.349 . S
C304 C306 1.327 . S
C304 H329 0.950 . S
C305 C304 1.349 . S
C305 C321 1.349 . S
C306 C304 1.327 . S
C306 C325 1.429 . S
C306 H330 0.950 . S
C307 C324 1.574 . S
C307 C326 1.368 . S
C307 H331 0.949 . S
H308 C312 0.949 . S
C309 C310 1.349 . S
C309 C311 1.327 . S
C309 H332 0.950 . S
C310 C309 1.349 . S
C310 C322 1.349 . S
C311 C309 1.327 . S
C311 C327 1.429 . S
C311 H333 0.950 . S
C312 H308 0.949 . S
C312 C320 1.574 . S
C312 C328 1.368 . S
H313 C321 0.950 . S
H314 C319 0.950 . S
H315 C320 0.949 . S
H316 C322 0.950 . S
H317 C323 0.950 . S
H318 C324 0.949 . S
C319 H314 0.950 . S
C319 C321 1.327 . S
C319 C325 1.429 . S
C320 C312 1.574 . S
C320 H315 0.949 . S
C320 C326 1.368 . S
C321 C305 1.349 . S
C321 H313 0.950 . S
C321 C319 1.327 . S
C322 C310 1.349 . S
C322 H316 0.950 . S
C322 C323 1.327 . S
C323 H317 0.950 . S
C323 C322 1.327 . S
C323 C327 1.429 . S
C324 C307 1.574 . S
C324 H318 0.949 . S
C324 C328 1.368 . S
C325 C306 1.429 . S
C325 C319 1.429 . S
C325 C326 1.523 . S
C326 C307 1.368 . S
C326 C320 1.368 . S
C326 C325 1.523 . S
C327 C311 1.429 . S
C327 C323 1.429 . S
C327 C328 1.523 . S
C328 C312 1.368 . S
C328 C324 1.368 . S
C328 C327 1.523 . S
H329 C304 0.950 . S
H330 C306 0.950 . S
H331 C307 0.949 . S
H332 C309 0.950 . S
H333 C311 0.950 . S
C334 C335 1.349 1_655 S
C334 C336 1.327 . S
C334 H359 0.950 . S
C335 C334 1.349 1_455 S
C335 C351 1.349 1_545 S
C336 C334 1.327 . S
C336 C355 1.429 1_655 S
C336 H360 0.950 . S
C337 C354 1.574 . S
C337 C356 1.368 1_565 S
C337 H361 0.949 . S
H338 C342 0.949 . S
C339 C340 1.349 1_565 S
C339 C341 1.327 . S
C339 H362 0.950 . S
C340 C339 1.349 1_545 S
C340 C352 1.349 1_455 S
C341 C339 1.327 . S
C341 C357 1.429 1_565 S
C341 H363 0.950 . S
C342 H338 0.949 . S
C342 C350 1.574 . S
C342 C358 1.368 1_655 S
H343 C351 0.950 . S
H344 C349 0.950 . S
H345 C350 0.949 . S
H346 C352 0.950 . S
H347 C353 0.950 . S
H348 C354 0.949 . S
C349 H344 0.950 . S
C349 C351 1.327 . S
C349 C355 1.429 1_565 S
C350 C342 1.574 . S
C350 H345 0.949 . S
C350 C356 1.368 1_655 S
C351 C335 1.349 1_565 S
C351 H343 0.950 . S
C351 C349 1.327 . S
C352 C340 1.349 1_655 S
C352 H346 0.950 . S
C352 C353 1.327 . S
C353 H347 0.950 . S
C353 C352 1.327 . S
C353 C357 1.429 1_655 S
C354 C337 1.574 . S
C354 H348 0.949 . S
C354 C358 1.368 1_565 S
C355 C336 1.429 1_455 S
C355 C349 1.429 1_545 S
C355 C356 1.523 . S
C356 C337 1.368 1_545 S
C356 C350 1.368 1_455 S
C356 C355 1.523 . S
C357 C341 1.429 1_545 S
C357 C353 1.429 1_455 S
C357 C358 1.523 . S
C358 C342 1.368 1_455 S
C358 C354 1.368 1_545 S
C358 C357 1.523 . S
H359 C334 0.950 . S
H360 C336 0.950 . S
H361 C337 0.949 . S
H362 C339 0.950 . S
H363 C341 0.950 . S
C364 C365 1.349 1_665 S
C364 C366 1.327 . S
C364 H389 0.950 . S
C365 C364 1.349 1_445 S
C365 C381 1.349 . S
C366 C364 1.327 . S
C366 C385 1.429 1_665 S
C366 H390 0.950 . S
C367 C384 1.574 . S
C367 C386 1.368 . S
C367 H391 0.949 . S
H368 C372 0.949 . S
C369 C370 1.349 . S
C369 C371 1.327 . S
C369 H392 0.950 . S
C370 C369 1.349 . S
C370 C382 1.349 1_445 S
C371 C369 1.327 . S
C371 C387 1.429 . S
C371 H393 0.950 . S
C372 H368 0.949 . S
C372 C380 1.574 . S
C372 C388 1.368 1_665 S
H373 C381 0.950 . S
H374 C379 0.950 . S
H375 C380 0.949 . S
H376 C382 0.950 . S
H377 C383 0.950 . S
H378 C384 0.949 . S
C379 H374 0.950 . S
C379 C381 1.327 . S
C379 C385 1.429 . S
C380 C372 1.574 . S
C380 H375 0.949 . S
C380 C386 1.368 1_665 S
C381 C365 1.349 . S
C381 H373 0.950 . S
C381 C379 1.327 . S
C382 C370 1.349 1_665 S
C382 H376 0.950 . S
C382 C383 1.327 . S
C383 H377 0.950 . S
C383 C382 1.327 . S
C383 C387 1.429 1_665 S
C384 C367 1.574 . S
C384 H378 0.949 . S
C384 C388 1.368 . S
C385 C366 1.429 1_445 S
C385 C379 1.429 . S
C385 C386 1.523 . S
C386 C367 1.368 . S
C386 C380 1.368 1_445 S
C386 C385 1.523 . S
C387 C371 1.429 . S
C387 C383 1.429 1_445 S
C387 C388 1.523 . S
C388 C372 1.368 1_445 S
C388 C384 1.368 . S
C388 C387 1.523 . S
H389 C364 0.950 . S
H390 C366 0.950 . S
H391 C367 0.949 . S
H392 C369 0.950 . S
H393 C371 0.950 . S
C394 C395 1.349 . S
C394 C396 1.327 . S
C394 H419 0.950 . S
C395 C394 1.349 . S
C395 C411 1.349 . S
C396 C394 1.327 . S
C396 C415 1.429 . S
C396 H420 0.950 . S
C397 C414 1.574 . S
C397 C416 1.368 . S
C397 H421 0.949 . S
H398 C402 0.949 . S
C399 C400 1.349 . S
C399 C401 1.327 . S
C399 H422 0.950 . S
C400 C399 1.349 . S
C400 C412 1.349 . S
C401 C399 1.327 . S
C401 C417 1.429 . S
C401 H423 0.950 . S
C402 H398 0.949 . S
C402 C410 1.574 . S
C402 C418 1.368 . S
H403 C411 0.950 . S
H404 C409 0.950 . S
H405 C410 0.949 . S
H406 C412 0.950 . S
H407 C413 0.950 . S
H408 C414 0.949 . S
C409 H404 0.950 . S
C409 C411 1.327 . S
C409 C415 1.429 . S
C410 C402 1.574 . S
C410 H405 0.949 . S
C410 C416 1.368 . S
C411 C395 1.349 . S
C411 H403 0.950 . S
C411 C409 1.327 . S
C412 C400 1.349 . S
C412 H406 0.950 . S
C412 C413 1.327 . S
C413 H407 0.950 . S
C413 C412 1.327 . S
C413 C417 1.429 . S
C414 C397 1.574 . S
C414 H408 0.949 . S
C414 C418 1.368 . S
C415 C396 1.429 . S
C415 C409 1.429 . S
C415 C416 1.523 . S
C416 C397 1.368 . S
C416 C410 1.368 . S
C416 C415 1.523 . S
C417 C401 1.429 . S
C417 C413 1.429 . S
C417 C418 1.523 . S
C418 C402 1.368 . S
C418 C414 1.368 . S
C418 C417 1.523 . S
H419 C394 0.950 . S
H420 C396 0.950 . S
H421 C397 0.949 . S
H422 C399 0.950 . S
H423 C401 0.950 . S
C424 C425 1.349 . S
C424 C426 1.327 . S
C424 H449 0.950 . S
C425 C424 1.349 . S
C425 C441 1.349 . S
C426 C424 1.327 . S
C426 C445 1.429 . S
C426 H450 0.950 . S
C427 C444 1.574 . S
C427 C446 1.368 . S
C427 H451 0.949 . S
H428 C432 0.949 . S
C429 C430 1.349 . S
C429 C431 1.327 . S
C429 H452 0.950 . S
C430 C429 1.349 . S
C430 C442 1.349 . S
C431 C429 1.327 . S
C431 C447 1.429 . S
C431 H453 0.950 . S
C432 H428 0.949 . S
C432 C440 1.574 . S
C432 C448 1.368 . S
H433 C441 0.950 . S
H434 C439 0.950 . S
H435 C440 0.949 . S
H436 C442 0.950 . S
H437 C443 0.950 . S
H438 C444 0.949 . S
C439 H434 0.950 . S
C439 C441 1.327 . S
C439 C445 1.429 . S
C440 C432 1.574 . S
C440 H435 0.949 . S
C440 C446 1.368 . S
C441 C425 1.349 . S
C441 H433 0.950 . S
C441 C439 1.327 . S
C442 C430 1.349 . S
C442 H436 0.950 . S
C442 C443 1.327 . S
C443 H437 0.950 . S
C443 C442 1.327 . S
C443 C447 1.429 . S
C444 C427 1.574 . S
C444 H438 0.949 . S
C444 C448 1.368 . S
C445 C426 1.429 . S
C445 C439 1.429 . S
C445 C446 1.523 . S
C446 C427 1.368 . S
C446 C440 1.368 . S
C446 C445 1.523 . S
C447 C431 1.429 . S
C447 C443 1.429 . S
C447 C448 1.523 . S
C448 C432 1.368 . S
C448 C444 1.368 . S
C448 C447 1.523 . S
H449 C424 0.950 . S
H450 C426 0.950 . S
H451 C427 0.949 . S
H452 C429 0.950 . S
H453 C431 0.950 . S
C100 C88 1.527 . S
C95 C21 1.526 . S
C125 C19 1.373 1_556 S
C130 C74 1.351 . S
C155 C18 1.338 . S
C160 C86 1.329 . S
C185 C20 1.507 . S
C190 C76 1.511 . S
C215 C44 1.526 . S
C220 C64 1.527 . S
C245 C42 1.373 . S
C250 C50 1.351 . S
C280 C62 1.329 . S
C275 C41 1.338 . S
C310 C52 1.511 . S
C305 C43 1.507 . S
C335 C16 1.531 . S
C340 C55 1.527 . S
C365 C17 1.490 . S
C370 C67 1.485 . S
C400 C79 1.527 . S
C395 C39 1.531 . S
C425 C40 1.490 . S
C430 C91 1.485 . S
