# Generated by pormake.
# Topology dag, (6,3)-cn, num edge types: 1
# Building blocks:
#     Node 0, Type 0, BuildingBlock: IZENUY_clean_sbu_0, # of connection points: 6
#     Node 1, Type 0, BuildingBlock: IZENUY_clean_sbu_0, # of connection points: 6
#     Node 2, Type 0, BuildingBlock: IZENUY_clean_sbu_0, # of connection points: 6
#     Node 3, Type 0, BuildingBlock: IZENUY_clean_sbu_0, # of connection points: 6
#     Node 4, Type 1, BuildingBlock: MIDCAF_clean_linker_0, # of connection points: 3
#     Node 5, Type 1, BuildingBlock: MIDCAF_clean_linker_0, # of connection points: 3
#     Node 6, Type 1, BuildingBlock: MIDCAF_clean_linker_0, # of connection points: 3
#     Node 7, Type 1, BuildingBlock: MIDCAF_clean_linker_0, # of connection points: 3
#     Node 8, Type 1, BuildingBlock: MIDCAF_clean_linker_0, # of connection points: 3
#     Node 9, Type 1, BuildingBlock: MIDCAF_clean_linker_0, # of connection points: 3
#     Node 10, Type 1, BuildingBlock: MIDCAF_clean_linker_0, # of connection points: 3
#     Node 11, Type 1, BuildingBlock: MIDCAF_clean_linker_0, # of connection points: 3
#     Edge 12, Type (0, 1), BuildingBlock: MIFKUJ_clean_linker_0, # of connection points: 2
#     Edge 13, Type (0, 1), BuildingBlock: MIFKUJ_clean_linker_0, # of connection points: 2
#     Edge 14, Type (0, 1), BuildingBlock: MIFKUJ_clean_linker_0, # of connection points: 2
#     Edge 15, Type (0, 1), BuildingBlock: MIFKUJ_clean_linker_0, # of connection points: 2
#     Edge 16, Type (0, 1), BuildingBlock: MIFKUJ_clean_linker_0, # of connection points: 2
#     Edge 17, Type (0, 1), BuildingBlock: MIFKUJ_clean_linker_0, # of connection points: 2
#     Edge 18, Type (0, 1), BuildingBlock: MIFKUJ_clean_linker_0, # of connection points: 2
#     Edge 19, Type (0, 1), BuildingBlock: MIFKUJ_clean_linker_0, # of connection points: 2
#     Edge 20, Type (0, 1), BuildingBlock: MIFKUJ_clean_linker_0, # of connection points: 2
#     Edge 21, Type (0, 1), BuildingBlock: MIFKUJ_clean_linker_0, # of connection points: 2
#     Edge 22, Type (0, 1), BuildingBlock: MIFKUJ_clean_linker_0, # of connection points: 2
#     Edge 23, Type (0, 1), BuildingBlock: MIFKUJ_clean_linker_0, # of connection points: 2
#     Edge 24, Type (0, 1), BuildingBlock: MIFKUJ_clean_linker_0, # of connection points: 2
#     Edge 25, Type (0, 1), BuildingBlock: MIFKUJ_clean_linker_0, # of connection points: 2
#     Edge 26, Type (0, 1), BuildingBlock: MIFKUJ_clean_linker_0, # of connection points: 2
#     Edge 27, Type (0, 1), BuildingBlock: MIFKUJ_clean_linker_0, # of connection points: 2
#     Edge 28, Type (0, 1), BuildingBlock: MIFKUJ_clean_linker_0, # of connection points: 2
#     Edge 29, Type (0, 1), BuildingBlock: MIFKUJ_clean_linker_0, # of connection points: 2
#     Edge 30, Type (0, 1), BuildingBlock: MIFKUJ_clean_linker_0, # of connection points: 2
#     Edge 31, Type (0, 1), BuildingBlock: MIFKUJ_clean_linker_0, # of connection points: 2
#     Edge 32, Type (0, 1), BuildingBlock: MIFKUJ_clean_linker_0, # of connection points: 2
#     Edge 33, Type (0, 1), BuildingBlock: MIFKUJ_clean_linker_0, # of connection points: 2
#     Edge 34, Type (0, 1), BuildingBlock: MIFKUJ_clean_linker_0, # of connection points: 2
#     Edge 35, Type (0, 1), BuildingBlock: MIFKUJ_clean_linker_0, # of connection points: 2
# Relax obj value: 0.260
# Max RMSD: 0.197
# Mean RMSD: 0.161
data_MOF--net-dag--node1-IZENUY_clean_sbu_0--node2-MIDCAF_clean_linker_0--edge1-MIFKUJ_clean_linker_0
_symmetry_space_group_name_H-M    P1
_symmetry_Int_Tables_number       1
_symmetry_cell_setting            triclinic
loop_
_symmetry_equiv_pos_as_xyz
'x, y, z'
_cell_length_a     57.682817
_cell_length_b     59.809881
_cell_length_c     50.642634
_cell_angle_alpha  95.010198
_cell_angle_beta   90.236889
_cell_angle_gamma 90.060507
loop_
_atom_site_label
_atom_site_type_symbol
_atom_site_fract_x
_atom_site_fract_y
_atom_site_fract_z
_atom_type_partial_charge
Fe0 Fe 0.18229 0.83674 0.08068 0.0
Fe1 Fe 0.14035 0.84845 0.04745 0.0
O2 O 0.15768 0.82817 0.06136 0.0
Fe3 Fe 0.15021 0.79939 0.05597 0.0
O4 O 0.16107 0.79196 0.08832 0.0
O5 O 0.17075 0.82439 0.10918 0.0
O6 O 0.16944 0.86336 0.09443 0.0
C7 C 0.14835 0.8691 0.09678 0.0
C8 C 0.19731 0.79747 0.05018 0.0
O9 O 0.13339 0.86168 0.07999 0.0
C10 C 0.14205 0.8162 0.00621 0.0
O11 O 0.19552 0.84991 0.05356 0.0
O12 O 0.16419 0.86807 0.04318 0.0
O13 O 0.17767 0.79286 0.04013 0.0
O14 O 0.19946 0.81159 0.07025 0.0
C15 C 0.10725 0.81752 0.06358 0.0
O16 O 0.14653 0.83626 0.01435 0.0
O17 O 0.13814 0.80166 0.02246 0.0
C18 C 0.18584 0.86492 0.04148 0.0
O19 O 0.11315 0.83262 0.04891 0.0
O20 O 0.12213 0.80419 0.07154 0.0
C21 C 0.16475 0.80418 0.10965 0.0
Fe22 Fe 0.68437 0.65639 0.48769 0.0
Fe23 Fe 0.65462 0.69469 0.51395 0.0
O24 O 0.65865 0.66584 0.50409 0.0
Fe25 Fe 0.63685 0.64626 0.51054 0.0
O26 O 0.65704 0.62296 0.51436 0.0
O27 O 0.69145 0.63853 0.51367 0.0
O28 O 0.70321 0.67792 0.50487 0.0
C29 C 0.70036 0.69002 0.5264 0.0
C30 C 0.64893 0.6311 0.46022 0.0
O31 O 0.68037 0.69552 0.53445 0.0
C32 C 0.61112 0.68342 0.49601 0.0
O33 O 0.679 0.67354 0.46084 0.0
O34 O 0.67025 0.70456 0.48546 0.0
O35 O 0.63301 0.63844 0.47556 0.0
O36 O 0.67005 0.63329 0.46716 0.0
C37 C 0.63694 0.67267 0.55716 0.0
O38 O 0.62854 0.69584 0.49407 0.0
O39 O 0.61259 0.66576 0.50795 0.0
C40 C 0.67564 0.69441 0.46329 0.0
O41 O 0.63827 0.68984 0.54416 0.0
O42 O 0.63936 0.65318 0.54585 0.0
C43 C 0.6784 0.62311 0.52034 0.0
Fe44 Fe 0.84529 0.19824 0.01601 0.0
Fe45 Fe 0.85865 0.14911 0.01954 0.0
O46 O 0.83942 0.16932 0.0085 0.0
Fe47 Fe 0.81447 0.1606 0.98981 0.0
O48 O 0.82406 0.17526 0.96206 0.0
O49 O 0.83253 0.207 0.98522 0.0
O50 O 0.87278 0.19608 0.99872 0.0
C51 C 0.88884 0.18304 0.00437 0.0
C52 C 0.79853 0.19741 0.02397 0.0
O53 O 0.88473 0.16649 0.01762 0.0
C54 C 0.81445 0.13007 0.02674 0.0
O55 O 0.85915 0.19473 0.04825 0.0
O56 O 0.85386 0.15908 0.05385 0.0
O57 O 0.79643 0.18436 0.00298 0.0
O58 O 0.81825 0.20219 0.03371 0.0
C59 C 0.84927 0.13068 0.96937 0.0
O60 O 0.83614 0.12808 0.02369 0.0
O61 O 0.8033 0.14514 0.01626 0.0
C62 C 0.85766 0.17895 0.06333 0.0
O63 O 0.86459 0.13798 0.98578 0.0
O64 O 0.82808 0.13535 0.97333 0.0
C65 C 0.82896 0.19585 0.96313 0.0
Fe66 Fe 0.35579 0.3511 0.55761 0.0
Fe67 Fe 0.30994 0.33884 0.58287 0.0
O68 O 0.33644 0.33054 0.56744 0.0
Fe69 Fe 0.34358 0.30166 0.56209 0.0
O70 O 0.37504 0.30583 0.56591 0.0
O71 O 0.37862 0.34171 0.57869 0.0
O72 O 0.34855 0.3721 0.5849 0.0
C73 C 0.33952 0.36991 0.60727 0.0
C74 C 0.35779 0.31674 0.5155 0.0
O75 O 0.32495 0.35456 0.61009 0.0
C76 C 0.29559 0.30284 0.55017 0.0
O77 O 0.33435 0.36188 0.53593 0.0
O78 O 0.30613 0.36404 0.5649 0.0
O79 O 0.34531 0.30297 0.52652 0.0
O80 O 0.36637 0.33384 0.52852 0.0
C81 C 0.32509 0.30318 0.61172 0.0
O82 O 0.29345 0.32359 0.55661 0.0
O83 O 0.31335 0.29228 0.5571 0.0
C84 C 0.31486 0.36939 0.54342 0.0
O85 O 0.3089 0.31524 0.60375 0.0
O86 O 0.34253 0.29852 0.59736 0.0
C87 C 0.38656 0.32203 0.57713 0.0
C88 C 0.9779 0.13382 0.29884 0.0
C89 C 0.97344 0.15699 0.30222 0.0
C90 C 0.98719 0.1705 0.32028 0.0
C91 C 0.0056 0.16116 0.33371 0.0
H92 H 0.05832 0.17418 0.39116 0.0
H93 H 0.08527 0.19748 0.41872 0.0
H94 H 0.13741 0.14574 0.40728 0.0
H95 H 0.11042 0.12226 0.38053 0.0
H96 H 0.0993 0.0764 0.34839 0.0
H97 H 0.11244 0.04082 0.3262 0.0
H98 H 0.04731 0.0339 0.2838 0.0
H99 H 0.03396 0.06888 0.30628 0.0
H100 H 0.99935 0.1067 0.30838 0.0
H101 H 0.968 0.1229 0.28481 0.0
H102 H 0.98406 0.18837 0.32359 0.0
H103 H 0.01631 0.17213 0.34682 0.0
N104 N 0.04594 0.14098 0.35748 0.0
N105 N 0.07227 0.111 0.35717 0.0
N106 N 0.03816 0.10716 0.33206 0.0
C107 C 0.06618 0.13231 0.36602 0.0
C108 C 0.05829 0.09828 0.34025 0.0
C109 C 0.03179 0.12841 0.34052 0.0
C110 C 0.08215 0.14631 0.38357 0.0
C111 C 0.07549 0.16771 0.39465 0.0
C112 C 0.09099 0.18114 0.41035 0.0
C113 C 0.11353 0.17351 0.41524 0.0
C114 C 0.12007 0.15203 0.40435 0.0
C115 C 0.10458 0.13858 0.38881 0.0
C116 C 0.06562 0.07567 0.329 0.0
C117 C 0.08765 0.06713 0.33462 0.0
C118 C 0.09525 0.04678 0.32181 0.0
C119 C 0.08097 0.03453 0.30316 0.0
C120 C 0.05866 0.04269 0.29833 0.0
C121 C 0.05106 0.06294 0.3111 0.0
C122 C 0.01065 0.13813 0.32929 0.0
C123 C 0.99616 0.12452 0.31223 0.0
C124 C 0.44272 0.54655 0.80195 0.0
C125 C 0.41972 0.53907 0.80369 0.0
C126 C 0.40425 0.55172 0.82035 0.0
C127 C 0.41131 0.57203 0.83381 0.0
H128 H 0.38844 0.62527 0.88355 0.0
H129 H 0.36138 0.6481 0.91085 0.0
H130 H 0.41089 0.70258 0.91757 0.0
H131 H 0.43781 0.67998 0.88967 0.0
H132 H 0.47016 0.67808 0.83017 0.0
H133 H 0.50041 0.69381 0.80344 0.0
H134 H 0.53631 0.63034 0.79794 0.0
H135 H 0.50589 0.61439 0.82407 0.0
H136 H 0.46744 0.57235 0.81281 0.0
H137 H 0.4552 0.53694 0.78973 0.0
H138 H 0.38638 0.54647 0.82202 0.0
H139 H 0.39868 0.58181 0.84562 0.0
N140 N 0.42626 0.61547 0.85845 0.0
N141 N 0.45098 0.6466 0.85752 0.0
N142 N 0.46024 0.61264 0.83323 0.0
C143 C 0.43143 0.63718 0.86664 0.0
C144 C 0.46553 0.63435 0.84096 0.0
C145 C 0.44063 0.60306 0.8418 0.0
C146 C 0.41533 0.65077 0.88426 0.0
C147 C 0.39366 0.64208 0.8909 0.0
C148 C 0.37815 0.65514 0.90672 0.0
C149 C 0.38393 0.6772 0.9164 0.0
C150 C 0.40573 0.68578 0.91011 0.0
C151 C 0.42123 0.67275 0.8942 0.0
C152 C 0.48561 0.64496 0.82901 0.0
C153 C 0.48477 0.66764 0.82377 0.0
C154 C 0.50199 0.67663 0.80844 0.0
C155 C 0.52059 0.66325 0.79871 0.0
C156 C 0.52221 0.64103 0.80542 0.0
C157 C 0.50476 0.63189 0.82022 0.0
C158 C 0.43397 0.58014 0.83081 0.0
C159 C 0.44975 0.56683 0.8153 0.0
C160 C 0.72566 0.81864 0.22177 0.0
C161 C 0.73082 0.7962 0.22581 0.0
C162 C 0.74504 0.78385 0.20733 0.0
C163 C 0.75467 0.79395 0.18606 0.0
H164 H 0.81676 0.79205 0.14341 0.0
H165 H 0.85644 0.78166 0.13124 0.0
H166 H 0.86193 0.84048 0.08777 0.0
H167 H 0.82233 0.85042 0.09905 0.0
H168 H 0.77189 0.87639 0.08787 0.0
H169 H 0.76261 0.91437 0.0773 0.0
H170 H 0.7287 0.9272 0.1529 0.0
H171 H 0.73771 0.88896 0.16348 0.0
H172 H 0.73115 0.84611 0.19816 0.0
H173 H 0.71506 0.82879 0.23573 0.0
H174 H 0.74897 0.76639 0.2094 0.0
H175 H 0.7659 0.78407 0.17252 0.0
N176 N 0.78168 0.81923 0.15049 0.0
N177 N 0.78411 0.84922 0.12385 0.0
N178 N 0.75302 0.84721 0.1532 0.0
C179 C 0.79312 0.82997 0.13188 0.0
C180 C 0.76408 0.8579 0.13428 0.0
C181 C 0.76157 0.82769 0.16114 0.0
C182 C 0.8163 0.82216 0.12237 0.0
C183 C 0.82632 0.80259 0.13093 0.0
C184 C 0.84915 0.7967 0.1241 0.0
C185 C 0.86248 0.81026 0.1086 0.0
C186 C 0.85214 0.8294 0.09936 0.0
C187 C 0.82936 0.8352 0.10603 0.0
C188 C 0.75567 0.87975 0.12658 0.0
C189 C 0.76208 0.88715 0.10205 0.0
C190 C 0.75661 0.90882 0.0959 0.0
C191 C 0.74491 0.92364 0.11428 0.0
C192 C 0.73771 0.91603 0.13841 0.0
C193 C 0.74282 0.89417 0.14439 0.0
C194 C 0.75001 0.81654 0.1825 0.0
C195 C 0.73501 0.82864 0.20026 0.0
C196 C 0.78536 0.31353 0.71341 0.0
C197 C 0.77757 0.29432 0.72486 0.0
C198 C 0.75683 0.28405 0.71554 0.0
C199 C 0.74395 0.29298 0.6956 0.0
H200 H 0.67314 0.30393 0.67427 0.0
H201 H 0.63158 0.29651 0.66846 0.0
H202 H 0.6347 0.31833 0.58955 0.0
H203 H 0.67606 0.32617 0.59542 0.0
H204 H 0.71294 0.36726 0.59048 0.0
H205 H 0.7203 0.40382 0.57515 0.0
H206 H 0.77399 0.4159 0.63444 0.0
H207 H 0.76626 0.37916 0.65032 0.0
H208 H 0.77888 0.33741 0.68516 0.0
H209 H 0.80137 0.32172 0.72006 0.0
H210 H 0.75015 0.26943 0.72421 0.0
H211 H 0.72789 0.28474 0.68925 0.0
N212 N 0.71548 0.31418 0.65832 0.0
N213 N 0.71011 0.341 0.62788 0.0
N214 N 0.74487 0.34038 0.65195 0.0
C215 C 0.70197 0.32334 0.64012 0.0
C216 C 0.73146 0.34969 0.63367 0.0
C217 C 0.73708 0.32241 0.66413 0.0
C218 C 0.6778 0.31575 0.63534 0.0
C219 C 0.66504 0.30675 0.65551 0.0
C220 C 0.64128 0.30262 0.65227 0.0
C221 C 0.63003 0.30692 0.6286 0.0
C222 C 0.64303 0.31475 0.60792 0.0
C223 C 0.66665 0.31933 0.61135 0.0
C224 C 0.73879 0.37036 0.62187 0.0
C225 C 0.72656 0.37751 0.60009 0.0
C226 C 0.73094 0.39846 0.59109 0.0
C227 C 0.7477 0.41285 0.60361 0.0
C228 C 0.76081 0.40528 0.62455 0.0
C229 C 0.75648 0.38417 0.63352 0.0
C230 C 0.75147 0.31243 0.68442 0.0
C231 C 0.7725 0.32245 0.69334 0.0
C232 C 0.48896 0.35818 0.28771 0.0
C233 C 0.48631 0.33477 0.28671 0.0
C234 C 0.50028 0.32113 0.26927 0.0
C235 C 0.51683 0.33073 0.25353 0.0
H236 H 0.5677 0.3157 0.19768 0.0
H237 H 0.59308 0.29269 0.16816 0.0
H238 H 0.6297 0.35214 0.14901 0.0
H239 H 0.60424 0.37526 0.1782 0.0
H240 H 0.59924 0.41982 0.21786 0.0
H241 H 0.61099 0.45776 0.23428 0.0
H242 H 0.54919 0.46426 0.28221 0.0
H243 H 0.53721 0.4268 0.26556 0.0
H244 H 0.5072 0.38585 0.27383 0.0
H245 H 0.47875 0.36919 0.30121 0.0
H246 H 0.49851 0.30303 0.26789 0.0
H247 H 0.52756 0.31974 0.2406 0.0
N248 N 0.55152 0.35192 0.22214 0.0
N249 N 0.57408 0.38353 0.21502 0.0
N250 N 0.5435 0.38663 0.24535 0.0
C251 C 0.56927 0.36135 0.20939 0.0
C252 C 0.56122 0.39631 0.23296 0.0
C253 C 0.53848 0.36451 0.2401 0.0
C254 C 0.58395 0.34738 0.19047 0.0
C255 C 0.58104 0.32394 0.18707 0.0
C256 C 0.59566 0.3107 0.17025 0.0
C257 C 0.61342 0.32059 0.15633 0.0
C258 C 0.61602 0.34404 0.15925 0.0
C259 C 0.60148 0.35727 0.17616 0.0
C260 C 0.56736 0.42011 0.24055 0.0
C261 C 0.58797 0.42947 0.23159 0.0
C262 C 0.59479 0.45118 0.24108 0.0
C263 C 0.58107 0.46402 0.2596 0.0
C264 C 0.56002 0.45499 0.26768 0.0
C265 C 0.55325 0.43334 0.25827 0.0
C266 C 0.51984 0.35416 0.25506 0.0
C267 C 0.50547 0.36775 0.27211 0.0
C268 C 0.27382 0.18034 0.8532 0.0
C269 C 0.26759 0.20244 0.84873 0.0
C270 C 0.2512 0.21367 0.86552 0.0
C271 C 0.24054 0.2028 0.8855 0.0
H272 H 0.17898 0.20521 0.92657 0.0
H273 H 0.13919 0.21648 0.93676 0.0
H274 H 0.12786 0.15414 0.97201 0.0
H275 H 0.16763 0.14324 0.96271 0.0
H276 H 0.22174 0.12071 0.98233 0.0
H277 H 0.23113 0.08312 0.99442 0.0
H278 H 0.2638 0.06786 0.91849 0.0
H279 H 0.25489 0.1058 0.9065 0.0
H280 H 0.26798 0.15227 0.87587 0.0
H281 H 0.28623 0.17112 0.84052 0.0
H282 H 0.24641 0.23088 0.86307 0.0
H283 H 0.22769 0.21188 0.89772 0.0
N284 N 0.21265 0.17662 0.91846 0.0
N285 N 0.20867 0.14617 0.94412 0.0
N286 N 0.24151 0.1489 0.91737 0.0
C287 C 0.20013 0.1655 0.9358 0.0
C288 C 0.22933 0.13782 0.93512 0.0
C289 C 0.23337 0.16852 0.90924 0.0
C290 C 0.17656 0.17328 0.94376 0.0
C291 C 0.16807 0.19401 0.93674 0.0
C292 C 0.14518 0.20041 0.94242 0.0
C293 C 0.13023 0.1862 0.95512 0.0
C294 C 0.13892 0.16571 0.9626 0.0
C295 C 0.1618 0.15938 0.95712 0.0
C296 C 0.2375 0.11611 0.94344 0.0
C297 C 0.23128 0.10948 0.96839 0.0
C298 C 0.23677 0.08805 0.97538 0.0
C299 C 0.24816 0.07268 0.95736 0.0
C300 C 0.25501 0.07948 0.9327 0.0
C301 C 0.24998 0.10115 0.92591 0.0
C302 C 0.24616 0.18047 0.88941 0.0
C303 C 0.26327 0.16949 0.87341 0.0
C304 C 0.24278 0.72045 0.35915 0.0
C305 C 0.22482 0.7076 0.34664 0.0
C306 C 0.22112 0.68565 0.35365 0.0
C307 C 0.23543 0.6766 0.37241 0.0
H308 H 0.24535 0.62012 0.41582 0.0
H309 H 0.24188 0.58162 0.4286 0.0
H310 H 0.3044 0.59084 0.4754 0.0
H311 H 0.30797 0.62886 0.46298 0.0
H312 H 0.3378 0.67093 0.46245 0.0
H313 H 0.37747 0.68405 0.46768 0.0
H314 H 0.36765 0.72671 0.404 0.0
H315 H 0.3277 0.71329 0.39841 0.0
H316 H 0.27107 0.7217 0.38651 0.0
H317 H 0.24629 0.7373 0.35394 0.0
H318 H 0.20731 0.67541 0.34445 0.0
H319 H 0.23238 0.65951 0.37704 0.0
N320 N 0.26561 0.65926 0.41228 0.0
N321 N 0.30141 0.66077 0.43438 0.0
N322 N 0.29086 0.68973 0.40866 0.0
C323 C 0.28112 0.64996 0.42841 0.0
C324 C 0.30647 0.68057 0.42465 0.0
C325 C 0.27031 0.6793 0.40254 0.0
C326 C 0.27712 0.62754 0.43802 0.0
C327 C 0.25819 0.614 0.42907 0.0
C328 C 0.25616 0.592 0.43639 0.0
C329 C 0.2731 0.58319 0.45259 0.0
C330 C 0.29136 0.59706 0.46243 0.0
C331 C 0.29333 0.61893 0.45531 0.0
C332 C 0.32959 0.69089 0.42983 0.0
C333 C 0.34392 0.6833 0.4497 0.0
C334 C 0.36667 0.69098 0.45287 0.0
C335 C 0.37573 0.7064 0.43622 0.0
C336 C 0.36119 0.71467 0.41697 0.0
C337 C 0.33828 0.70708 0.41389 0.0
C338 C 0.25387 0.68925 0.38428 0.0
C339 C 0.25714 0.71139 0.37769 0.0
C340 C 0.93888 0.9517 0.77363 0.0
C341 C 0.91697 0.96044 0.76803 0.0
C342 C 0.90293 0.94853 0.74882 0.0
C343 C 0.91022 0.92791 0.7364 0.0
H344 H 0.8965 0.87372 0.67426 0.0
H345 H 0.86857 0.84962 0.64866 0.0
H346 H 0.89696 0.79156 0.68202 0.0
H347 H 0.92519 0.81541 0.70719 0.0
H348 H 0.97623 0.82059 0.73322 0.0
H349 H 0.0092 0.80484 0.75568 0.0
H350 H 0.03279 0.87182 0.78143 0.0
H351 H 0.00029 0.88753 0.75886 0.0
H352 H 0.96293 0.92482 0.7667 0.0
H353 H 0.95007 0.96018 0.78855 0.0
H354 H 0.8861 0.95494 0.7437 0.0
H355 H 0.89869 0.91889 0.72227 0.0
N356 N 0.924 0.88272 0.71638 0.0
N357 N 0.94944 0.85218 0.71782 0.0
N358 N 0.95857 0.88675 0.74078 0.0
C359 C 0.92942 0.86094 0.70896 0.0
C360 C 0.96423 0.86508 0.73354 0.0
C361 C 0.93853 0.89574 0.7324 0.0
C362 C 0.91303 0.84646 0.69273 0.0
C363 C 0.89686 0.85581 0.67601 0.0
C364 C 0.88098 0.84206 0.66129 0.0
C365 C 0.88069 0.81883 0.6635 0.0
C366 C 0.89685 0.80946 0.68011 0.0
C367 C 0.91303 0.82311 0.69438 0.0
C368 C 0.98546 0.85534 0.74445 0.0
C369 C 0.98866 0.83196 0.7433 0.0
C370 C 0.00749 0.82291 0.75625 0.0
C371 C 0.02357 0.83707 0.77037 0.0
C372 C 0.0209 0.86042 0.77045 0.0
C373 C 0.00208 0.86944 0.75769 0.0
C374 C 0.93175 0.91876 0.74289 0.0
C375 C 0.9462 0.93122 0.76118 0.0
H376 H 0.17579 0.90005 0.12465 0.0
H377 H 0.16465 0.92641 0.16199 0.0
H378 H 0.09453 0.90106 0.15654 0.0
H379 H 0.10541 0.87526 0.11847 0.0
H380 H 0.09359 0.94434 0.16494 0.0
H381 H 0.13418 0.88606 0.20478 0.0
H382 H 0.16693 0.86041 0.21054 0.0
H383 H 0.21168 0.91672 0.23107 0.0
H384 H 0.17931 0.94273 0.22502 0.0
H385 H 0.05753 0.99551 0.28842 0.0
H386 H 0.06983 0.96501 0.25625 0.0
H387 H 0.13638 0.99692 0.24979 0.0
H388 H 0.12408 0.02777 0.28146 0.0
H389 H 0.13853 0.94905 0.24907 0.0
H390 H 0.09745 0.00678 0.20647 0.0
H391 H 0.06426 0.03184 0.20055 0.0
H392 H 0.0194 0.97472 0.18589 0.0
H393 H 0.05229 0.94933 0.19215 0.0
C394 C 0.158 0.90012 0.13141 0.0
C395 C 0.14147 0.88554 0.11876 0.0
C396 C 0.15167 0.9151 0.15285 0.0
C397 C 0.12886 0.91538 0.16248 0.0
C398 C 0.11225 0.90109 0.14955 0.0
C399 C 0.11847 0.88637 0.1278 0.0
C400 C 0.12224 0.93076 0.18582 0.0
C401 C 0.10321 0.94506 0.18345 0.0
C402 C 0.13499 0.93199 0.2099 0.0
C403 C 0.15435 0.91636 0.21424 0.0
C404 C 0.15103 0.89298 0.21041 0.0
C405 C 0.16952 0.87837 0.21372 0.0
C406 C 0.19137 0.88695 0.2211 0.0
C407 C 0.19475 0.91012 0.22533 0.0
C408 C 0.17633 0.9248 0.22199 0.0
C409 C 0.07485 0.99597 0.28032 0.0
C410 C 0.0897 0.01425 0.28723 0.0
C411 C 0.08188 0.97847 0.26207 0.0
C412 C 0.10389 0.97891 0.25045 0.0
C413 C 0.11933 0.9963 0.25859 0.0
C414 C 0.11227 0.01388 0.27677 0.0
C415 C 0.10995 0.96244 0.22803 0.0
C416 C 0.12886 0.94806 0.23058 0.0
C417 C 0.09698 0.96093 0.20418 0.0
C418 C 0.07727 0.97617 0.20004 0.0
C419 C 0.08048 0.99958 0.20218 0.0
C420 C 0.06172 0.01384 0.19874 0.0
C421 C 0.03972 0.00488 0.19291 0.0
C422 C 0.03644 0.98164 0.19044 0.0
C423 C 0.05513 0.9673 0.19392 0.0
H424 H 0.02522 0.01595 0.19026 0.0
H425 H 0.20569 0.87565 0.22353 0.0
H426 H 0.64075 0.7099 0.59246 0.0
H427 H 0.62821 0.71386 0.63884 0.0
H428 H 0.60326 0.64551 0.63082 0.0
H429 H 0.61667 0.64119 0.58522 0.0
H430 H 0.58896 0.7134 0.66081 0.0
H431 H 0.60475 0.62063 0.68553 0.0
H432 H 0.6337 0.59082 0.67552 0.0
H433 H 0.68462 0.64024 0.65961 0.0
H434 H 0.65611 0.67039 0.66991 0.0
H435 H 0.50931 0.67965 0.75224 0.0
H436 H 0.5353 0.68747 0.71639 0.0
H437 H 0.59431 0.67322 0.76497 0.0
H438 H 0.56798 0.66404 0.8004 0.0
H439 H 0.60093 0.65326 0.72096 0.0
H440 H 0.58123 0.72843 0.74488 0.0
H441 H 0.55661 0.76125 0.7576 0.0
H442 H 0.52188 0.75277 0.68224 0.0
H443 H 0.54604 0.71971 0.66918 0.0
C444 C 0.63278 0.69569 0.60075 0.0
C445 C 0.62981 0.6752 0.58526 0.0
C446 C 0.6256 0.69797 0.62723 0.0
C447 C 0.61515 0.67987 0.63857 0.0
C448 C 0.61193 0.65952 0.62291 0.0
C449 C 0.61948 0.65711 0.5967 0.0
C450 C 0.60644 0.68231 0.66628 0.0
C451 C 0.59176 0.70038 0.67409 0.0
C452 C 0.61083 0.66586 0.68415 0.0
C453 C 0.62821 0.64778 0.67838 0.0
C454 C 0.62217 0.62517 0.68009 0.0
C455 C 0.63849 0.6082 0.67431 0.0
C456 C 0.66097 0.61363 0.66688 0.0
C457 C 0.66719 0.63605 0.6653 0.0
C458 C 0.65094 0.65309 0.67108 0.0
C459 C 0.52786 0.67868 0.75544 0.0
C460 C 0.53671 0.67138 0.77905 0.0
C461 C 0.54277 0.68329 0.73498 0.0
C462 C 0.56691 0.68134 0.73798 0.0
C463 C 0.57579 0.67488 0.76209 0.0
C464 C 0.5608 0.66973 0.78235 0.0
C465 C 0.58246 0.68376 0.71499 0.0
C466 C 0.59848 0.66659 0.70802 0.0
C467 C 0.58002 0.70154 0.69842 0.0
C468 C 0.56543 0.7215 0.70609 0.0
C469 C 0.56825 0.73348 0.73107 0.0
C470 C 0.55438 0.75214 0.73834 0.0
C471 C 0.53768 0.75908 0.72075 0.0
C472 C 0.53484 0.74739 0.69584 0.0
C473 C 0.54865 0.72871 0.68847 0.0
H474 H 0.52695 0.77353 0.72643 0.0
H475 H 0.67357 0.60046 0.66238 0.0
H476 H 0.77164 0.11219 0.01469 0.0
H477 H 0.75387 0.07978 0.03311 0.0
H478 H 0.81126 0.0771 0.08779 0.0
H479 H 0.82957 0.1086 0.06839 0.0
H480 H 0.80496 0.03828 0.06625 0.0
H481 H 0.75329 0.09347 0.10655 0.0
H482 H 0.72575 0.12506 0.10843 0.0
H483 H 0.6786 0.08569 0.0576 0.0
H484 H 0.70601 0.05395 0.05511 0.0
H485 H 0.75848 0.95973 0.14688 0.0
H486 H 0.76318 0.99832 0.13514 0.0
H487 H 0.73207 0.98012 0.05874 0.0
H488 H 0.72773 0.94127 0.07018 0.0
H489 H 0.72281 0.02939 0.09223 0.0
H490 H 0.77972 0.97608 0.04922 0.0
H491 H 0.80727 0.94481 0.05178 0.0
H492 H 0.84489 0.98299 0.11371 0.0
H493 H 0.81725 0.01433 0.11182 0.0
C494 C 0.78022 0.10484 0.03092 0.0
C495 C 0.80201 0.11272 0.04004 0.0
C496 C 0.77001 0.08639 0.04155 0.0
C497 C 0.78113 0.07598 0.06199 0.0
C498 C 0.80239 0.08467 0.07192 0.0
C499 C 0.81283 0.10269 0.06088 0.0
C500 C 0.77185 0.05491 0.0715 0.0
C501 C 0.78704 0.03662 0.07222 0.0
C502 C 0.74837 0.05236 0.07894 0.0
C503 C 0.73182 0.0714 0.08044 0.0
C504 C 0.73713 0.0916 0.0956 0.0
C505 C 0.72153 0.10953 0.09681 0.0
C506 C 0.70047 0.10741 0.08309 0.0
C507 C 0.69494 0.08732 0.06819 0.0
C508 C 0.71049 0.06935 0.06689 0.0
C509 C 0.75192 0.96413 0.12795 0.0
C510 C 0.74284 0.94757 0.10936 0.0
C511 C 0.7546 0.98615 0.12129 0.0
C512 C 0.74792 0.99195 0.09614 0.0
C513 C 0.73711 0.97591 0.07833 0.0
C514 C 0.7348 0.95377 0.0848 0.0
C515 C 0.756 0.01334 0.08692 0.0
C516 C 0.74066 0.03143 0.08624 0.0
C517 C 0.77942 0.01598 0.07989 0.0
C518 C 0.79631 0.9974 0.08058 0.0
C519 C 0.79376 0.97771 0.06353 0.0
C520 C 0.80939 0.95999 0.06483 0.0
C521 C 0.82779 0.96189 0.08294 0.0
C522 C 0.83061 0.98154 0.09972 0.0
C523 C 0.81498 0.99927 0.09854 0.0
H524 H 0.83988 0.94815 0.08393 0.0
H525 H 0.68841 0.1213 0.08405 0.0
H526 H 0.41203 0.34721 0.61431 0.0
H527 H 0.45283 0.34226 0.62581 0.0
H528 H 0.45685 0.2845 0.56869 0.0
H529 H 0.41581 0.28872 0.55803 0.0
H530 H 0.48089 0.27659 0.61021 0.0
H531 H 0.47635 0.33706 0.55526 0.0
H532 H 0.46266 0.37306 0.54076 0.0
H533 H 0.48963 0.40778 0.61215 0.0
H534 H 0.50307 0.37191 0.62735 0.0
H535 H 0.60494 0.28439 0.58885 0.0
H536 H 0.56262 0.28452 0.58299 0.0
H537 H 0.55564 0.32647 0.6562 0.0
H538 H 0.59783 0.32598 0.66244 0.0
H539 H 0.5336 0.34191 0.60705 0.0
H540 H 0.5388 0.27852 0.66003 0.0
H541 H 0.55351 0.24161 0.67047 0.0
H542 H 0.52697 0.21158 0.59632 0.0
H543 H 0.51239 0.24842 0.58526 0.0
C544 C 0.42159 0.33337 0.60437 0.0
C545 C 0.4108 0.31841 0.58519 0.0
C546 C 0.44492 0.33062 0.61085 0.0
C547 C 0.45805 0.31329 0.59773 0.0
C548 C 0.4471 0.29799 0.57908 0.0
C549 C 0.42365 0.30045 0.57297 0.0
C550 C 0.48333 0.3115 0.60287 0.0
C551 C 0.49241 0.29084 0.60925 0.0
C552 C 0.49844 0.3301 0.60174 0.0
C553 C 0.49048 0.35175 0.5926 0.0
C554 C 0.47919 0.35235 0.56799 0.0
C555 C 0.47147 0.37274 0.55963 0.0
C556 C 0.47518 0.39269 0.57558 0.0
C557 C 0.48671 0.39231 0.59986 0.0
C558 C 0.49439 0.37195 0.60835 0.0
C559 C 0.59429 0.29335 0.60382 0.0
C560 C 0.60453 0.30509 0.62614 0.0
C561 C 0.57022 0.2934 0.60049 0.0
C562 C 0.55613 0.3055 0.61919 0.0
C563 C 0.56629 0.317 0.64163 0.0
C564 C 0.5903 0.3166 0.64523 0.0
C565 C 0.53091 0.30717 0.61459 0.0
C566 C 0.52194 0.32777 0.60813 0.0
C567 C 0.51605 0.28843 0.61503 0.0
C568 C 0.52473 0.26627 0.6217 0.0
C569 C 0.5363 0.2641 0.64583 0.0
C570 C 0.54457 0.24317 0.65189 0.0
C571 C 0.54124 0.22427 0.63404 0.0
C572 C 0.52957 0.22624 0.61012 0.0
C573 C 0.52128 0.24713 0.60396 0.0
H574 H 0.54764 0.20809 0.63876 0.0
H575 H 0.46919 0.40847 0.56909 0.0
H576 H 0.6768 0.60385 0.42768 0.0
H577 H 0.66528 0.58032 0.38787 0.0
H578 H 0.59535 0.6055 0.3959 0.0
H579 H 0.60658 0.62865 0.43597 0.0
H580 H 0.59483 0.56182 0.3887 0.0
H581 H 0.63134 0.62004 0.34579 0.0
H582 H 0.66237 0.64664 0.33662 0.0
H583 H 0.70799 0.59171 0.31387 0.0
H584 H 0.67736 0.56474 0.32325 0.0
H585 H 0.55589 0.50242 0.27133 0.0
H586 H 0.5679 0.53578 0.29945 0.0
H587 H 0.63681 0.50864 0.30482 0.0
H588 H 0.6249 0.47509 0.27704 0.0
H589 H 0.63611 0.55603 0.30259 0.0
H590 H 0.59985 0.49861 0.3506 0.0
H591 H 0.56824 0.47254 0.35945 0.0
H592 H 0.52112 0.52793 0.37231 0.0
H593 H 0.55241 0.55431 0.3631 0.0
C594 C 0.65902 0.60452 0.42084 0.0
C595 C 0.64256 0.61793 0.43515 0.0
C596 C 0.65249 0.59117 0.39797 0.0
C597 C 0.62947 0.59126 0.38877 0.0
C598 C 0.61318 0.60511 0.40265 0.0
C599 C 0.61964 0.6183 0.42559 0.0
C600 C 0.62198 0.57566 0.36591 0.0
C601 C 0.60359 0.56092 0.36971 0.0
C602 C 0.63364 0.57418 0.34126 0.0
C603 C 0.65209 0.59035 0.33544 0.0
C604 C 0.64804 0.61361 0.33902 0.0
C605 C 0.66555 0.62877 0.33376 0.0
C606 C 0.68714 0.62087 0.32473 0.0
C607 C 0.69125 0.5978 0.32088 0.0
C608 C 0.67382 0.58257 0.32614 0.0
C609 C 0.57369 0.50368 0.2782 0.0
C610 C 0.58934 0.48594 0.27228 0.0
C611 C 0.58055 0.5228 0.29413 0.0
C612 C 0.60315 0.5245 0.30448 0.0
C613 C 0.6193 0.50764 0.29698 0.0
C614 C 0.61245 0.48849 0.28106 0.0
C615 C 0.60911 0.54232 0.32557 0.0
C616 C 0.62722 0.5573 0.32149 0.0
C617 C 0.59711 0.54421 0.34998 0.0
C618 C 0.57839 0.52839 0.35586 0.0
C619 C 0.58271 0.50521 0.35512 0.0
C620 C 0.56486 0.49038 0.36022 0.0
C621 C 0.54267 0.49856 0.36636 0.0
C622 C 0.53831 0.52161 0.3675 0.0
C623 C 0.55609 0.5365 0.36234 0.0
H624 H 0.52887 0.48705 0.37031 0.0
H625 H 0.70067 0.63264 0.32068 0.0
H626 H 0.90474 0.21046 0.96768 0.0
H627 H 0.94534 0.21838 0.95726 0.0
H628 H 0.96801 0.17582 0.0168 0.0
H629 H 0.92781 0.16766 0.02712 0.0
H630 H 0.99144 0.2183 0.01791 0.0
H631 H 0.96797 0.15474 0.95543 0.0
H632 H 0.94214 0.13783 0.92017 0.0
H633 H 0.95978 0.19011 0.87081 0.0
H634 H 0.98556 0.20744 0.90594 0.0
H635 H 0.10377 0.17888 0.99829 0.0
H636 H 0.06244 0.18532 0.00418 0.0
H637 H 0.05916 0.21461 0.92934 0.0
H638 H 0.10043 0.20688 0.92249 0.0
H639 H 0.02453 0.18748 0.93205 0.0
H640 H 0.0537 0.24723 0.98993 0.0
H641 H 0.07811 0.2665 0.02496 0.0
H642 H 0.04878 0.22596 0.0823 0.0
H643 H 0.02443 0.2062 0.04755 0.0
C644 C 0.91841 0.2029 0.9786 0.0
C645 C 0.9131 0.18838 0.99814 0.0
C646 C 0.94153 0.20743 0.97263 0.0
C647 C 0.95957 0.19769 0.98632 0.0
C648 C 0.95429 0.18356 0.00612 0.0
C649 C 0.9313 0.1788 0.01185 0.0
C650 C 0.98412 0.20128 0.97961 0.0
C651 C 0.99878 0.21159 0.99918 0.0
C652 C 0.99336 0.19332 0.95476 0.0
C653 C 0.97852 0.18247 0.93336 0.0
C654 C 0.96627 0.16265 0.93709 0.0
C655 C 0.95166 0.15299 0.91713 0.0
C656 C 0.9493 0.16291 0.89329 0.0
C657 C 0.96163 0.18245 0.8893 0.0
C658 C 0.97627 0.19218 0.9092 0.0
C659 C 0.09431 0.18662 0.98299 0.0
C660 C 0.10548 0.19223 0.95984 0.0
C661 C 0.07067 0.19062 0.98657 0.0
C662 C 0.05768 0.2008 0.9674 0.0
C663 C 0.06883 0.20685 0.94448 0.0
C664 C 0.09249 0.20261 0.94073 0.0
C665 C 0.03227 0.20379 0.97083 0.0
C666 C 0.01734 0.19473 0.95061 0.0
C667 C 0.02272 0.21328 0.99499 0.0
C668 C 0.0373 0.22514 0.01606 0.0
C669 C 0.05255 0.24231 0.00997 0.0
C670 C 0.06637 0.25334 0.02979 0.0
C671 C 0.06502 0.24744 0.05583 0.0
C672 C 0.04981 0.23051 0.06211 0.0
C673 C 0.03596 0.21942 0.04237 0.0
H674 H 0.07573 0.25599 0.07114 0.0
H675 H 0.93794 0.15544 0.87789 0.0
H676 H 0.33312 0.39034 0.50243 0.0
H677 H 0.31929 0.42467 0.48504 0.0
H678 H 0.25916 0.42458 0.53525 0.0
H679 H 0.273 0.39022 0.55324 0.0
H680 H 0.25387 0.43939 0.47748 0.0
H681 H 0.29416 0.45406 0.56132 0.0
H682 H 0.32629 0.44811 0.59222 0.0
H683 H 0.37506 0.47093 0.53661 0.0
H684 H 0.34324 0.47655 0.50513 0.0
H685 H 0.23679 0.55908 0.47071 0.0
H686 H 0.23809 0.52064 0.48438 0.0
H687 H 0.30989 0.51547 0.46098 0.0
H688 H 0.30871 0.55366 0.44774 0.0
H689 H 0.30479 0.50319 0.50926 0.0
H690 H 0.26601 0.48766 0.425 0.0
H691 H 0.23511 0.49157 0.39193 0.0
H692 H 0.18447 0.46987 0.44616 0.0
H693 H 0.21505 0.46612 0.47971 0.0
C694 C 0.31671 0.39729 0.50947 0.0
C695 C 0.30437 0.38774 0.5296 0.0
C696 C 0.30881 0.41687 0.49941 0.0
C697 C 0.28833 0.42713 0.50903 0.0
C698 C 0.27499 0.4168 0.52758 0.0
C699 C 0.28301 0.39727 0.53793 0.0
C700 C 0.28288 0.45007 0.50231 0.0
C701 C 0.26466 0.4535 0.48473 0.0
C702 C 0.29724 0.46826 0.51158 0.0
C703 C 0.31634 0.46552 0.53078 0.0
C704 C 0.31176 0.45764 0.5556 0.0
C705 C 0.3299 0.45434 0.57323 0.0
C706 C 0.3527 0.45909 0.56636 0.0
C707 C 0.35739 0.46723 0.54189 0.0
C708 C 0.3393 0.47049 0.52415 0.0
C709 C 0.2527 0.54955 0.4682 0.0
C710 C 0.27272 0.55937 0.45849 0.0
C711 C 0.25344 0.52763 0.47598 0.0
C712 C 0.27413 0.51521 0.47379 0.0
C713 C 0.29381 0.5248 0.46312 0.0
C714 C 0.29313 0.54662 0.45558 0.0
C715 C 0.27601 0.49268 0.48378 0.0
C716 C 0.29366 0.48928 0.50217 0.0
C717 C 0.26115 0.47461 0.47511 0.0
C718 C 0.24277 0.47688 0.45498 0.0
C719 C 0.24825 0.48392 0.42997 0.0
C720 C 0.23081 0.48607 0.41111 0.0
C721 C 0.20783 0.48104 0.41697 0.0
C722 C 0.20227 0.4738 0.44167 0.0
C723 C 0.21965 0.47166 0.4606 0.0
H724 H 0.19435 0.4827 0.40234 0.0
H725 H 0.36673 0.45651 0.58003 0.0
H726 H 0.1621 0.83515 0.9652 0.0
H727 H 0.14934 0.83195 0.91895 0.0
H728 H 0.09747 0.78356 0.93697 0.0
H729 H 0.11086 0.78603 0.98311 0.0
H730 H 0.11289 0.77477 0.88677 0.0
H731 H 0.08464 0.83918 0.94095 0.0
H732 H 0.08871 0.87342 0.9715 0.0
H733 H 0.12913 0.90432 0.91362 0.0
H734 H 0.12557 0.87012 0.88285 0.0
H735 H 0.01938 0.80321 0.80294 0.0
H736 H 0.04693 0.79318 0.83666 0.0
H737 H 0.09626 0.84055 0.81012 0.0
H738 H 0.06882 0.85055 0.77615 0.0
H739 H 0.08607 0.84888 0.86176 0.0
H740 H 0.1083 0.78473 0.80472 0.0
H741 H 0.10218 0.75022 0.77518 0.0
H742 H 0.07026 0.71861 0.83876 0.0
H743 H 0.07588 0.75305 0.8686 0.0
C744 C 0.14834 0.82343 0.95912 0.0
C745 C 0.13719 0.8111 0.97773 0.0
C746 C 0.14107 0.82162 0.93273 0.0
C747 C 0.12206 0.80796 0.92469 0.0
C748 C 0.11211 0.79428 0.94278 0.0
C749 C 0.11971 0.79575 0.96914 0.0
C750 C 0.11076 0.81016 0.8987 0.0
C751 C 0.10693 0.79093 0.88127 0.0
C752 C 0.10322 0.83131 0.89144 0.0
C753 C 0.10505 0.85202 0.90973 0.0
C754 C 0.0945 0.85324 0.9348 0.0
C755 C 0.09671 0.87263 0.95215 0.0
C756 C 0.10923 0.89101 0.94453 0.0
C757 C 0.11948 0.89006 0.91951 0.0
C758 C 0.11737 0.87068 0.9021 0.0
C759 C 0.03638 0.81095 0.80366 0.0
C760 C 0.04184 0.82786 0.78707 0.0
C761 C 0.05213 0.80519 0.82297 0.0
C762 C 0.07364 0.81614 0.82591 0.0
C763 C 0.07971 0.83195 0.80822 0.0
C764 C 0.06399 0.83771 0.78892 0.0
C765 C 0.08821 0.81351 0.84961 0.0
C766 C 0.09243 0.83273 0.86686 0.0
C767 C 0.09574 0.79233 0.85673 0.0
C768 C 0.09237 0.77156 0.83886 0.0
C769 C 0.0998 0.77049 0.81236 0.0
C770 C 0.09646 0.75092 0.79557 0.0
C771 C 0.0858 0.73225 0.80507 0.0
C772 C 0.07851 0.73309 0.83142 0.0
C773 C 0.0818 0.75262 0.84829 0.0
H774 H 0.08323 0.71711 0.79204 0.0
H775 H 0.11093 0.906 0.958 0.0
H776 H 0.82074 0.10301 0.93821 0.0
H777 H 0.8316 0.07621 0.90115 0.0
H778 H 0.90323 0.09598 0.91123 0.0
H779 H 0.89256 0.12281 0.94857 0.0
H780 H 0.88716 0.09151 0.85711 0.0
H781 H 0.88819 0.05009 0.93467 0.0
H782 H 0.87169 0.03663 0.97525 0.0
H783 H 0.8159 0.00483 0.92978 0.0
H784 H 0.8319 0.0184 0.88896 0.0
H785 H 0.94134 0.99849 0.78519 0.0
H786 H 0.92854 0.02938 0.81631 0.0
H787 H 0.86006 0.00034 0.81686 0.0
H788 H 0.87309 0.96872 0.78695 0.0
H789 H 0.87364 0.01044 0.86506 0.0
H790 H 0.87241 0.04993 0.78723 0.0
H791 H 0.88734 0.064 0.74624 0.0
H792 H 0.94129 0.09989 0.79065 0.0
H793 H 0.92689 0.08577 0.83188 0.0
C794 C 0.83881 0.10175 0.93253 0.0
C795 C 0.85583 0.1149 0.94649 0.0
C796 C 0.84496 0.08641 0.91136 0.0
C797 C 0.86821 0.08405 0.90361 0.0
C798 C 0.88519 0.09757 0.91697 0.0
C799 C 0.87909 0.11276 0.93838 0.0
C800 C 0.87481 0.06685 0.88217 0.0
C801 C 0.8845 0.07374 0.85886 0.0
C802 C 0.87066 0.04378 0.88431 0.0
C803 C 0.86111 0.03546 0.90881 0.0
C804 C 0.8723 0.04039 0.93336 0.0
C805 C 0.86306 0.03271 0.9564 0.0
C806 C 0.84272 0.01994 0.95511 0.0
C807 C 0.83163 0.01476 0.93075 0.0
C808 C 0.84079 0.02242 0.90766 0.0
C809 C 0.92353 0.99868 0.79186 0.0
C810 C 0.90832 0.98096 0.78369 0.0
C811 C 0.91614 0.01654 0.80943 0.0
C812 C 0.89327 0.0173 0.81886 0.0
C813 C 0.87779 0.00013 0.80987 0.0
C814 C 0.88522 0.98215 0.79251 0.0
C815 C 0.88602 0.03498 0.83966 0.0
C816 C 0.87624 0.02818 0.86303 0.0
C817 C 0.88991 0.05814 0.8374 0.0
C818 C 0.8987 0.06659 0.81262 0.0
C819 C 0.88759 0.06065 0.78823 0.0
C820 C 0.89593 0.06867 0.76496 0.0
C821 C 0.91529 0.08278 0.76583 0.0
C822 C 0.92632 0.08894 0.79 0.0
C823 C 0.91806 0.08094 0.81333 0.0
H824 H 0.92172 0.08898 0.74779 0.0
H825 H 0.8356 0.01401 0.97296 0.0
H826 H 0.37244 0.27666 0.49144 0.0
H827 H 0.39096 0.27057 0.44769 0.0
H828 H 0.37793 0.33959 0.43397 0.0
H829 H 0.36035 0.34598 0.47794 0.0
H830 H 0.37045 0.2987 0.38761 0.0
H831 H 0.42436 0.33971 0.45275 0.0
H832 H 0.44336 0.3422 0.49669 0.0
H833 H 0.47079 0.27576 0.48003 0.0
H834 H 0.45165 0.27282 0.43611 0.0
H835 H 0.44246 0.34901 0.29957 0.0
H836 H 0.41766 0.33648 0.33417 0.0
H837 H 0.46741 0.28523 0.34928 0.0
H838 H 0.49289 0.29843 0.31534 0.0
H839 H 0.45599 0.30705 0.3938 0.0
H840 H 0.41283 0.27159 0.32277 0.0
H841 H 0.39275 0.26701 0.27959 0.0
H842 H 0.34402 0.3182 0.30631 0.0
H843 H 0.364 0.32335 0.34954 0.0
C844 C 0.37309 0.29032 0.47876 0.0
C845 C 0.3651 0.31178 0.48788 0.0
C846 C 0.38362 0.28684 0.45389 0.0
C847 C 0.38564 0.30463 0.43774 0.0
C848 C 0.37631 0.32566 0.44616 0.0
C849 C 0.36641 0.3293 0.47123 0.0
C850 C 0.39998 0.30241 0.41363 0.0
C851 C 0.38915 0.30044 0.38875 0.0
C852 C 0.42435 0.30394 0.41538 0.0
C853 C 0.43644 0.30597 0.44134 0.0
C854 C 0.43435 0.3256 0.45855 0.0
C855 C 0.44514 0.3271 0.48342 0.0
C856 C 0.45822 0.30912 0.49118 0.0
C857 C 0.46062 0.28966 0.47401 0.0
C858 C 0.44982 0.28807 0.44913 0.0
C859 C 0.44808 0.33497 0.31011 0.0
C860 C 0.46976 0.32487 0.30486 0.0
C861 C 0.43372 0.3276 0.32969 0.0
C862 C 0.44053 0.30974 0.34422 0.0
C863 C 0.46175 0.29899 0.33828 0.0
C864 C 0.47621 0.30644 0.31873 0.0
C865 C 0.42651 0.30402 0.36725 0.0
C866 C 0.43738 0.30462 0.3922 0.0
C867 C 0.40217 0.3009 0.3654 0.0
C868 C 0.39002 0.29793 0.3394 0.0
C869 C 0.39794 0.28199 0.3194 0.0
C870 C 0.38655 0.27927 0.2949 0.0
C871 C 0.36714 0.29232 0.29019 0.0
C872 C 0.35906 0.3081 0.30999 0.0
C873 C 0.37039 0.31089 0.33452 0.0
H874 H 0.35835 0.29019 0.27122 0.0
H875 H 0.46651 0.31028 0.51047 0.0
H876 H 0.22868 0.88097 0.05652 0.0
H877 H 0.24866 0.9132 0.03997 0.0
H878 H 0.19487 0.91816 0.9814 0.0
H879 H 0.17449 0.88645 0.99832 0.0
H880 H 0.24546 0.92602 0.96507 0.0
H881 H 0.18528 0.94776 0.03127 0.0
H882 H 0.168 0.94513 0.07537 0.0
H883 H 0.23212 0.96711 0.11247 0.0
H884 H 0.2499 0.96945 0.06851 0.0
H885 H 0.23305 0.03552 0.9278 0.0
H886 H 0.23151 0.99722 0.94068 0.0
H887 H 0.26766 0.01822 0.01354 0.0
H888 H 0.26802 0.05695 0.00114 0.0
H889 H 0.23377 0.99506 0.02529 0.0
H890 H 0.29219 0.98133 0.96074 0.0
H891 H 0.31197 0.98231 0.91779 0.0
H892 H 0.25648 0.94431 0.87893 0.0
H893 H 0.23619 0.94337 0.92157 0.0
C894 C 0.22145 0.88862 0.03971 0.0
C895 C 0.19999 0.88143 0.02879 0.0
C896 C 0.23286 0.90696 0.0303 0.0
C897 C 0.22318 0.91796 0.00951 0.0
C898 C 0.20263 0.90976 0.99736 0.0
C899 C 0.19096 0.89179 0.00713 0.0
C900 C 0.2325 0.93973 0.00277 0.0
C901 C 0.24299 0.9412 0.9781 0.0
C902 C 0.22989 0.95926 0.02028 0.0
C903 C 0.21898 0.95852 0.04665 0.0
C904 C 0.19573 0.95187 0.04883 0.0
C905 C 0.18584 0.95044 0.07379 0.0
C906 C 0.19897 0.95587 0.09671 0.0
C907 C 0.22198 0.96286 0.0947 0.0
C908 C 0.23198 0.96423 0.06978 0.0
C909 C 0.24112 0.03182 0.94628 0.0
C910 C 0.25073 0.04908 0.96346 0.0
C911 C 0.24036 0.00987 0.95361 0.0
C912 C 0.24978 0.00461 0.97796 0.0
C913 C 0.26026 0.02178 0.99466 0.0
C914 C 0.26056 0.04386 0.98757 0.0
C915 C 0.24652 0.98179 0.98703 0.0
C916 C 0.23695 0.98002 0.01225 0.0
C917 C 0.25044 0.96196 0.97013 0.0
C918 C 0.2626 0.9624 0.94438 0.0
C919 C 0.28412 0.97331 0.94302 0.0
C920 C 0.29544 0.97384 0.91872 0.0
C921 C 0.28547 0.96341 0.89564 0.0
C922 C 0.26418 0.95238 0.89682 0.0
C923 C 0.25278 0.95181 0.92107 0.0
H924 H 0.29426 0.96384 0.87685 0.0
H925 H 0.1913 0.95472 0.11602 0.0
H926 H 0.57037 0.66036 0.4966 0.0
H927 H 0.53286 0.6709 0.47939 0.0
H928 H 0.56242 0.73188 0.4545 0.0
H929 H 0.60028 0.72153 0.47195 0.0
H930 H 0.52069 0.7393 0.47921 0.0
H931 H 0.55037 0.69115 0.40853 0.0
H932 H 0.5697 0.65743 0.38758 0.0
H933 H 0.5144 0.61612 0.4125 0.0
H934 H 0.49493 0.64954 0.43405 0.0
H935 H 0.40624 0.70917 0.3954 0.0
H936 H 0.44841 0.71336 0.39848 0.0
H937 H 0.44388 0.71983 0.48384 0.0
H938 H 0.40181 0.71647 0.48087 0.0
H939 H 0.47678 0.6852 0.41811 0.0
H940 H 0.48794 0.74865 0.51202 0.0
H941 H 0.46995 0.7837 0.53128 0.0
H942 H 0.44541 0.79772 0.4543 0.0
H943 H 0.46353 0.76294 0.43449 0.0
C944 C 0.56899 0.67604 0.48751 0.0
C945 C 0.58835 0.69011 0.48569 0.0
C946 C 0.54753 0.68198 0.47755 0.0
C947 C 0.54495 0.70203 0.46538 0.0
C948 C 0.56411 0.7163 0.46375 0.0
C949 C 0.5857 0.71033 0.4737 0.0
C950 C 0.52198 0.70796 0.45489 0.0
C951 C 0.5111 0.72763 0.46564 0.0
C952 C 0.50985 0.69307 0.43648 0.0
C953 C 0.52121 0.67289 0.42302 0.0
C954 C 0.54237 0.67487 0.40967 0.0
C955 C 0.55337 0.6558 0.39768 0.0
C956 C 0.5433 0.63465 0.39872 0.0
C957 C 0.52218 0.63253 0.4117 0.0
C958 C 0.51113 0.65154 0.42378 0.0
C959 C 0.41419 0.71219 0.4148 0.0
C960 C 0.40072 0.71237 0.43791 0.0
C961 C 0.4383 0.7144 0.41653 0.0
C962 C 0.44934 0.71699 0.44137 0.0
C963 C 0.43579 0.7182 0.46443 0.0
C964 C 0.41174 0.71603 0.46272 0.0
C965 C 0.47499 0.71602 0.44351 0.0
C966 C 0.48643 0.6972 0.43119 0.0
C967 C 0.48775 0.73196 0.46003 0.0
C968 C 0.47702 0.75308 0.47179 0.0
C969 C 0.47884 0.75927 0.49916 0.0
C970 C 0.46858 0.77908 0.51019 0.0
C971 C 0.45651 0.7929 0.49404 0.0
C972 C 0.45471 0.78697 0.46681 0.0
C973 C 0.46495 0.76718 0.45567 0.0
H974 H 0.44856 0.80823 0.50262 0.0
H975 H 0.55184 0.6199 0.38945 0.0
H976 H 0.36673 0.40715 0.6065 0.0
H977 H 0.37902 0.43278 0.64392 0.0
H978 H 0.33894 0.39552 0.69691 0.0
H979 H 0.32633 0.36961 0.65934 0.0
H980 H 0.33487 0.44219 0.70732 0.0
H981 H 0.39506 0.3875 0.6949 0.0
H982 H 0.42348 0.36389 0.66915 0.0
H983 H 0.45891 0.42286 0.64796 0.0
H984 H 0.43045 0.44684 0.67313 0.0
H985 H 0.39069 0.50526 0.81681 0.0
H986 H 0.37614 0.47347 0.78749 0.0
H987 H 0.41548 0.4964 0.72276 0.0
H988 H 0.42999 0.528 0.75175 0.0
H989 H 0.41932 0.45224 0.7234 0.0
H990 H 0.35693 0.50648 0.72973 0.0
H991 H 0.32795 0.531 0.75327 0.0
H992 H 0.29661 0.47374 0.78443 0.0
H993 H 0.32563 0.44891 0.76133 0.0
C994 C 0.36041 0.40436 0.62606 0.0
C995 C 0.34567 0.38619 0.62994 0.0
C996 C 0.36751 0.41903 0.64745 0.0
C997 C 0.36019 0.41581 0.67321 0.0
C998 C 0.34486 0.39818 0.67716 0.0
C999 C 0.33771 0.38341 0.65569 0.0
C1000 C 0.36905 0.43075 0.69588 0.0
C1001 C 0.3533 0.44409 0.71125 0.0
C1002 C 0.39313 0.43338 0.70067 0.0
C1003 C 0.41052 0.41898 0.68582 0.0
C1004 C 0.40882 0.39544 0.68461 0.0
C1005 C 0.42494 0.38199 0.67012 0.0
C1006 C 0.44297 0.39188 0.65693 0.0
C1007 C 0.44493 0.41523 0.65819 0.0
C1008 C 0.42882 0.42876 0.67259 0.0
C1009 C 0.39621 0.50349 0.79632 0.0
C1010 C 0.41156 0.51911 0.78663 0.0
C1011 C 0.3879 0.48533 0.77961 0.0
C1012 C 0.39461 0.48264 0.75287 0.0
C1013 C 0.41018 0.49804 0.74334 0.0
C1014 C 0.41853 0.51607 0.75999 0.0
C1015 C 0.38518 0.46419 0.7344 0.0
C1016 C 0.40086 0.45011 0.71983 0.0
C1017 C 0.36106 0.46099 0.73024 0.0
C1018 C 0.34361 0.47589 0.74408 0.0
C1019 C 0.34398 0.49915 0.74178 0.0
C1020 C 0.32753 0.51309 0.75501 0.0
C1021 C 0.3105 0.50394 0.77041 0.0
C1022 C 0.30985 0.48081 0.77255 0.0
C1023 C 0.32628 0.4668 0.75938 0.0
H1024 H 0.29777 0.51476 0.78063 0.0
H1025 H 0.45546 0.38145 0.6458 0.0
H1026 H 0.08766 0.79423 0.10219 0.0
H1027 H 0.04628 0.78983 0.11125 0.0
H1028 H 0.02942 0.82813 0.04538 0.0
H1029 H 0.0705 0.83326 0.03692 0.0
H1030 H 0.00416 0.84198 0.08486 0.0
H1031 H 0.02371 0.76897 0.0436 0.0
H1032 H 0.04544 0.73339 0.03803 0.0
H1033 H 0.02389 0.71741 0.11525 0.0
H1034 H 0.00227 0.75306 0.12141 0.0
H1035 H 0.88677 0.81523 0.06304 0.0
H1036 H 0.92869 0.81297 0.0569 0.0
H1037 H 0.93683 0.79164 0.13552 0.0
H1038 H 0.89493 0.79466 0.14234 0.0
H1039 H 0.96628 0.7684 0.09316 0.0
H1040 H 0.94557 0.84215 0.13252 0.0
H1041 H 0.92282 0.87715 0.13551 0.0
H1042 H 0.94623 0.89103 0.05823 0.0
H1043 H 0.96883 0.85589 0.0546 0.0
C1044 C 0.07509 0.80163 0.08962 0.0
C1045 C 0.08235 0.81412 0.06888 0.0
C1046 C 0.05144 0.79901 0.09472 0.0
C1047 C 0.03466 0.80846 0.07883 0.0
C1048 C 0.04197 0.82076 0.058 0.0
C1049 C 0.06551 0.82365 0.05316 0.0
C1050 C 0.00945 0.80624 0.08412 0.0
C1051 C 0.99594 0.82582 0.08637 0.0
C1052 C 0.99866 0.78524 0.08676 0.0
C1053 C 0.01159 0.76379 0.08308 0.0
C1054 C 0.02376 0.75795 0.05947 0.0
C1055 C 0.03602 0.73776 0.0562 0.0
C1056 C 0.0361 0.72318 0.07631 0.0
C1057 C 0.02385 0.72874 0.09971 0.0
C1058 C 0.01157 0.74892 0.10309 0.0
C1059 C 0.89741 0.81 0.07905 0.0
C1060 C 0.88745 0.80547 0.10335 0.0
C1061 C 0.92134 0.80854 0.0754 0.0
C1062 C 0.93579 0.80233 0.09585 0.0
C1063 C 0.9259 0.7964 0.1195 0.0
C1064 C 0.90193 0.79808 0.12329 0.0
C1065 C 0.96125 0.80404 0.09327 0.0
C1066 C 0.9747 0.78447 0.09169 0.0
C1067 C 0.97203 0.825 0.0909 0.0
C1068 C 0.95871 0.84629 0.0932 0.0
C1069 C 0.94572 0.85257 0.11608 0.0
C1070 C 0.93287 0.87245 0.1179 0.0
C1071 C 0.93303 0.88628 0.09705 0.0
C1072 C 0.9461 0.88028 0.07435 0.0
C1073 C 0.95894 0.8604 0.07241 0.0
H1074 H 0.92307 0.90166 0.09849 0.0
H1075 H 0.04561 0.70756 0.07373 0.0
H1076 H 0.72264 0.61846 0.53918 0.0
H1077 H 0.73966 0.58532 0.55677 0.0
H1078 H 0.67448 0.55031 0.54505 0.0
H1079 H 0.65723 0.58342 0.52821 0.0
H1080 H 0.69224 0.54163 0.59024 0.0
H1081 H 0.72052 0.54233 0.50078 0.0
H1082 H 0.74053 0.55854 0.46393 0.0
H1083 H 0.80368 0.56321 0.50928 0.0
H1084 H 0.78395 0.54727 0.54654 0.0
H1085 H 0.74695 0.42771 0.55396 0.0
H1086 H 0.74122 0.46625 0.54292 0.0
H1087 H 0.74739 0.4898 0.62563 0.0
H1088 H 0.75213 0.45119 0.63695 0.0
H1089 H 0.76216 0.50619 0.54799 0.0
H1090 H 0.70545 0.52922 0.63974 0.0
H1091 H 0.68225 0.51052 0.6723 0.0
H1092 H 0.67065 0.45433 0.61499 0.0
H1093 H 0.69347 0.47283 0.58202 0.0
C1094 C 0.71191 0.60373 0.54048 0.0
C1095 C 0.68861 0.60354 0.53211 0.0
C1096 C 0.72169 0.58478 0.55046 0.0
C1097 C 0.70844 0.56522 0.55192 0.0
C1098 C 0.68505 0.56521 0.54415 0.0
C1099 C 0.67522 0.58416 0.53443 0.0
C1100 C 0.71883 0.54448 0.56095 0.0
C1101 C 0.70767 0.53403 0.58115 0.0
C1102 C 0.73881 0.53437 0.54893 0.0
C1103 C 0.7507 0.54386 0.52653 0.0
C1104 C 0.73863 0.54697 0.50295 0.0
C1105 C 0.74992 0.55608 0.48199 0.0
C1106 C 0.77334 0.56196 0.4843 0.0
C1107 C 0.78553 0.55868 0.50755 0.0
C1108 C 0.77431 0.5496 0.52858 0.0
C1109 C 0.74736 0.44112 0.56978 0.0
C1110 C 0.74955 0.43633 0.59638 0.0
C1111 C 0.7443 0.46317 0.56341 0.0
C1112 C 0.74342 0.48085 0.5835 0.0
C1113 C 0.74765 0.47636 0.60985 0.0
C1114 C 0.75057 0.45427 0.61626 0.0
C1115 C 0.73545 0.50333 0.57709 0.0
C1116 C 0.74704 0.51409 0.55742 0.0
C1117 C 0.71544 0.51343 0.58903 0.0
C1118 C 0.70142 0.50228 0.60858 0.0
C1119 C 0.69789 0.5129 0.6341 0.0
C1120 C 0.68481 0.50234 0.65261 0.0
C1121 C 0.67507 0.48121 0.64575 0.0
C1122 C 0.67828 0.47065 0.62032 0.0
C1123 C 0.6913 0.48116 0.60172 0.0
H1124 H 0.66497 0.47306 0.66012 0.0
H1125 H 0.78206 0.56901 0.46804 0.0
H1126 H 0.84984 0.15167 0.1029 0.0
H1127 H 0.86449 0.15639 0.1484 0.0
H1128 H 0.8951 0.2198 0.13326 0.0
H1129 H 0.88039 0.21532 0.0877 0.0
H1130 H 0.92615 0.18965 0.15292 0.0
H1131 H 0.85164 0.22035 0.17501 0.0
H1132 H 0.80892 0.22145 0.17513 0.0
H1133 H 0.80695 0.16088 0.21477 0.0
H1134 H 0.84967 0.15922 0.21452 0.0
H1135 H 0.97646 0.19654 0.27876 0.0
H1136 H 0.95158 0.2089 0.2438 0.0
H1137 H 0.90706 0.15163 0.25008 0.0
H1138 H 0.93098 0.13994 0.28621 0.0
H1139 H 0.88204 0.18543 0.23626 0.0
H1140 H 0.95364 0.15004 0.20675 0.0
H1141 H 0.9961 0.14542 0.20475 0.0
H1142 H 0.00307 0.21088 0.17692 0.0
H1143 H 0.96064 0.216 0.17913 0.0
C1144 C 0.85939 0.16679 0.10935 0.0
C1145 C 0.86411 0.18304 0.09164 0.0
C1146 C 0.86761 0.16952 0.13541 0.0
C1147 C 0.88078 0.18849 0.14419 0.0
C1148 C 0.88489 0.2051 0.12685 0.0
C1149 C 0.87644 0.20251 0.10085 0.0
C1150 C 0.89223 0.18971 0.17051 0.0
C1151 C 0.91652 0.18932 0.17125 0.0
C1152 C 0.8796 0.18857 0.19423 0.0
C1153 C 0.85389 0.18959 0.19459 0.0
C1154 C 0.84211 0.20717 0.18357 0.0
C1155 C 0.81789 0.20791 0.1837 0.0
C1156 C 0.80523 0.19123 0.19491 0.0
C1157 C 0.81678 0.17379 0.20608 0.0
C1158 C 0.841 0.17296 0.20599 0.0
C1159 C 0.96093 0.18699 0.27342 0.0
C1160 C 0.95601 0.16695 0.28495 0.0
C1161 C 0.94684 0.19397 0.25318 0.0
C1162 C 0.92785 0.18082 0.24376 0.0
C1163 C 0.92176 0.16192 0.25679 0.0
C1164 C 0.93563 0.15511 0.27727 0.0
C1165 C 0.91597 0.18511 0.21862 0.0
C1166 C 0.89166 0.18635 0.21803 0.0
C1167 C 0.92853 0.18658 0.19484 0.0
C1168 C 0.95402 0.18352 0.19344 0.0
C1169 C 0.96425 0.16351 0.2004 0.0
C1170 C 0.9883 0.16079 0.1992 0.0
C1171 C 0.00228 0.17788 0.1908 0.0
C1172 C 0.99223 0.19769 0.1835 0.0
C1173 C 0.96818 0.20051 0.18472 0.0
H1174 H 0.0209 0.17574 0.18987 0.0
H1175 H 0.78648 0.19183 0.19498 0.0
H1176 H 0.16195 0.82609 0.15907 0.0
H1177 H 0.1652 0.80999 0.20161 0.0
H1178 H 0.17142 0.7438 0.16096 0.0
H1179 H 0.16738 0.75973 0.11832 0.0
H1180 H 0.14664 0.7419 0.20468 0.0
H1181 H 0.21907 0.77588 0.18245 0.0
H1182 H 0.24458 0.80661 0.17082 0.0
H1183 H 0.22738 0.84477 0.24387 0.0
H1184 H 0.20126 0.81453 0.25559 0.0
H1185 H 0.21285 0.68634 0.29855 0.0
H1186 H 0.19545 0.70305 0.26086 0.0
H1187 H 0.18903 0.76632 0.30812 0.0
H1188 H 0.20645 0.74969 0.34592 0.0
H1189 H 0.21094 0.77131 0.26314 0.0
H1190 H 0.14096 0.73566 0.28711 0.0
H1191 H 0.11621 0.70442 0.29886 0.0
H1192 H 0.12989 0.66863 0.22333 0.0
H1193 H 0.155 0.69952 0.21126 0.0
C1194 C 0.16381 0.80808 0.15919 0.0
C1195 C 0.16475 0.79419 0.13533 0.0
C1196 C 0.16569 0.7989 0.18353 0.0
C1197 C 0.16907 0.77573 0.18447 0.0
C1198 C 0.16892 0.76173 0.16072 0.0
C1199 C 0.16669 0.77086 0.13635 0.0
C1200 C 0.17418 0.76626 0.20999 0.0
C1201 C 0.1608 0.74821 0.21739 0.0
C1202 C 0.19234 0.77481 0.22688 0.0
C1203 C 0.20799 0.79305 0.21974 0.0
C1204 C 0.22053 0.79093 0.1959 0.0
C1205 C 0.23509 0.80827 0.18928 0.0
C1206 C 0.23749 0.8277 0.20651 0.0
C1207 C 0.22538 0.82979 0.23044 0.0
C1208 C 0.21068 0.81257 0.23706 0.0
C1209 C 0.20716 0.70364 0.30113 0.0
C1210 C 0.21116 0.71675 0.32514 0.0
C1211 C 0.19721 0.71318 0.27956 0.0
C1212 C 0.19088 0.73593 0.28168 0.0
C1213 C 0.19386 0.74876 0.30602 0.0
C1214 C 0.20387 0.73925 0.32756 0.0
C1215 C 0.18348 0.74689 0.25786 0.0
C1216 C 0.19655 0.76517 0.25066 0.0
C1217 C 0.16514 0.73846 0.24119 0.0
C1218 C 0.15002 0.71984 0.24837 0.0
C1219 C 0.13885 0.72105 0.27309 0.0
C1220 C 0.12472 0.70342 0.27979 0.0
C1221 C 0.12152 0.68453 0.26188 0.0
C1222 C 0.1324 0.68326 0.2372 0.0
C1223 C 0.14656 0.70084 0.2304 0.0
H1224 H 0.11058 0.6709 0.26711 0.0
H1225 H 0.24879 0.84109 0.20138 0.0
H1226 H 0.70415 0.70201 0.57924 0.0
H1227 H 0.73628 0.7218 0.60259 0.0
H1228 H 0.77357 0.72232 0.52888 0.0
H1229 H 0.74195 0.70134 0.50575 0.0
H1230 H 0.80298 0.71664 0.5654 0.0
H1231 H 0.74157 0.76906 0.55742 0.0
H1232 H 0.70169 0.78374 0.56142 0.0
H1233 H 0.70535 0.78303 0.64604 0.0
H1234 H 0.74517 0.76805 0.64253 0.0
H1235 H 0.87169 0.8147 0.6104 0.0
H1236 H 0.84225 0.7907 0.58677 0.0
H1237 H 0.8204 0.76723 0.66086 0.0
H1238 H 0.85016 0.7907 0.68443 0.0
H1239 H 0.78403 0.78516 0.62371 0.0
H1240 H 0.84757 0.73239 0.62872 0.0
H1241 H 0.88801 0.72003 0.62172 0.0
H1242 H 0.8806 0.72512 0.53806 0.0
H1243 H 0.84019 0.73786 0.54463 0.0
C1244 C 0.71933 0.70617 0.56811 0.0
C1245 C 0.72053 0.70034 0.54069 0.0
C1246 C 0.73762 0.71761 0.58141 0.0
C1247 C 0.75711 0.72415 0.56739 0.0
C1248 C 0.75868 0.71759 0.54013 0.0
C1249 C 0.74062 0.70562 0.52692 0.0
C1250 C 0.7755 0.73832 0.58104 0.0
C1251 C 0.79878 0.73175 0.57788 0.0
C1252 C 0.77015 0.75806 0.59746 0.0
C1253 C 0.74627 0.76724 0.59968 0.0
C1254 C 0.73382 0.7719 0.57687 0.0
C1255 C 0.71123 0.78029 0.57905 0.0
C1256 C 0.70097 0.78426 0.60396 0.0
C1257 C 0.71331 0.77992 0.62676 0.0
C1258 C 0.7359 0.7715 0.62469 0.0
C1259 C 0.86061 0.80435 0.62154 0.0
C1260 C 0.86311 0.80442 0.64914 0.0
C1261 C 0.84392 0.79066 0.60809 0.0
C1262 C 0.8293 0.77724 0.62216 0.0
C1263 C 0.83162 0.77748 0.64974 0.0
C1264 C 0.8486 0.79077 0.66312 0.0
C1265 C 0.81119 0.76328 0.60816 0.0
C1266 C 0.78805 0.77001 0.6112 0.0
C1267 C 0.8167 0.74405 0.59117 0.0
C1268 C 0.84096 0.73634 0.58721 0.0
C1269 C 0.85464 0.73111 0.60887 0.0
C1270 C 0.87754 0.72398 0.60497 0.0
C1271 C 0.8869 0.72186 0.57947 0.0
C1272 C 0.87334 0.72681 0.5578 0.0
C1273 C 0.85044 0.73397 0.56161 0.0
H1274 H 0.90462 0.71632 0.57649 0.0
H1275 H 0.68348 0.79075 0.60561 0.0
H1276 H 0.75381 0.1956 0.00532 0.0
H1277 H 0.72013 0.21586 0.02434 0.0
H1278 H 0.7626 0.24489 0.0888 0.0
H1279 H 0.79637 0.22506 0.0698 0.0
H1280 H 0.69783 0.21542 0.07052 0.0
H1281 H 0.74594 0.29808 0.10562 0.0
H1282 H 0.7796 0.32 0.09251 0.0
H1283 H 0.77238 0.29143 0.01212 0.0
H1284 H 0.73849 0.2696 0.02466 0.0
H1285 H 0.63441 0.28168 0.16788 0.0
H1286 H 0.66308 0.25969 0.14151 0.0
H1287 H 0.65825 0.30569 0.08065 0.0
H1288 H 0.62961 0.32786 0.10706 0.0
H1289 H 0.70182 0.29798 0.09123 0.0
H1290 H 0.63519 0.25246 0.07151 0.0
H1291 H 0.60022 0.23082 0.08087 0.0
H1292 H 0.64144 0.18598 0.12328 0.0
H1293 H 0.67664 0.20754 0.1145 0.0
C1294 C 0.75599 0.20628 0.02356 0.0
C1295 C 0.77786 0.20889 0.03588 0.0
C1296 C 0.73671 0.21779 0.03443 0.0
C1297 C 0.73894 0.23212 0.05776 0.0
C1298 C 0.76058 0.23425 0.07049 0.0
C1299 C 0.77987 0.22285 0.05962 0.0
C1300 C 0.71876 0.24508 0.06875 0.0
C1301 C 0.69864 0.23347 0.07501 0.0
C1302 C 0.71964 0.2687 0.07399 0.0
C1303 C 0.73979 0.28206 0.06616 0.0
C1304 C 0.75146 0.29657 0.08513 0.0
C1305 C 0.7706 0.30896 0.0778 0.0
C1306 C 0.77816 0.30706 0.05152 0.0
C1307 C 0.76655 0.29283 0.03249 0.0
C1308 C 0.74739 0.28042 0.0397 0.0
C1309 C 0.63917 0.28691 0.14869 0.0
C1310 C 0.62975 0.3065 0.13954 0.0
C1311 C 0.65556 0.27432 0.13362 0.0
C1312 C 0.66267 0.28092 0.10898 0.0
C1313 C 0.65305 0.3003 0.09963 0.0
C1314 C 0.63673 0.31297 0.11475 0.0
C1315 C 0.68103 0.26827 0.09367 0.0
C1316 C 0.70087 0.27994 0.08662 0.0
C1317 C 0.67966 0.24478 0.0872 0.0
C1318 C 0.65853 0.23174 0.09252 0.0
C1319 C 0.63678 0.23809 0.08301 0.0
C1320 C 0.61692 0.22582 0.08818 0.0
C1321 C 0.6186 0.20707 0.10271 0.0
C1322 C 0.64016 0.20052 0.11205 0.0
C1323 C 0.66008 0.21275 0.10695 0.0
H1324 H 0.6032 0.19758 0.10669 0.0
H1325 H 0.79299 0.31665 0.0459 0.0
H1326 H 0.35692 0.27836 0.63703 0.0
H1327 H 0.35226 0.26192 0.67932 0.0
H1328 H 0.28282 0.28849 0.68603 0.0
H1329 H 0.28745 0.30529 0.64426 0.0
H1330 H 0.30495 0.29519 0.73197 0.0
H1331 H 0.29389 0.23278 0.66548 0.0
H1332 H 0.30534 0.20693 0.62714 0.0
H1333 H 0.36456 0.18604 0.67033 0.0
H1334 H 0.3536 0.212 0.70882 0.0
H1335 H 0.24461 0.22884 0.81595 0.0
H1336 H 0.25991 0.24681 0.77837 0.0
H1337 H 0.32726 0.21834 0.79114 0.0
H1338 H 0.31217 0.20057 0.82943 0.0
H1339 H 0.31299 0.21324 0.73833 0.0
H1340 H 0.32025 0.27245 0.80723 0.0
H1341 H 0.30752 0.29779 0.84542 0.0
H1342 H 0.25441 0.3245 0.79756 0.0
H1343 H 0.26659 0.29908 0.75917 0.0
C1344 C 0.34065 0.28067 0.64751 0.0
C1345 C 0.3225 0.29303 0.63718 0.0
C1346 C 0.33801 0.27123 0.67164 0.0
C1347 C 0.31711 0.27382 0.68572 0.0
C1348 C 0.29911 0.28632 0.67555 0.0
C1349 C 0.30176 0.29584 0.65157 0.0
C1350 C 0.31367 0.26345 0.71097 0.0
C1351 C 0.30659 0.27726 0.73331 0.0
C1352 C 0.31654 0.24015 0.71297 0.0
C1353 C 0.32309 0.22451 0.68989 0.0
C1354 C 0.30945 0.2228 0.66671 0.0
C1355 C 0.31583 0.20811 0.64498 0.0
C1356 C 0.33571 0.1949 0.64627 0.0
C1357 C 0.3492 0.19631 0.66934 0.0
C1358 C 0.34291 0.211 0.69112 0.0
C1359 C 0.26279 0.22668 0.81115 0.0
C1360 C 0.27721 0.21344 0.82593 0.0
C1361 C 0.27148 0.2369 0.78956 0.0
C1362 C 0.29478 0.23413 0.78221 0.0
C1363 C 0.30923 0.22072 0.7966 0.0
C1364 C 0.30056 0.21053 0.81837 0.0
C1365 C 0.3036 0.24491 0.759 0.0
C1366 C 0.31173 0.23122 0.73709 0.0
C1367 C 0.30158 0.26832 0.75733 0.0
C1368 C 0.29426 0.28374 0.78035 0.0
C1369 C 0.30575 0.28361 0.80489 0.0
C1370 C 0.29865 0.29801 0.82657 0.0
C1371 C 0.28015 0.31272 0.82393 0.0
C1372 C 0.26874 0.31309 0.79958 0.0
C1373 C 0.27575 0.29871 0.77784 0.0
H1374 H 0.27468 0.32386 0.84074 0.0
H1375 H 0.34062 0.18353 0.62943 0.0
H1376 H 0.65501 0.73338 0.45107 0.0
H1377 H 0.66148 0.75334 0.4112 0.0
H1378 H 0.71288 0.70433 0.38434 0.0
H1379 H 0.70608 0.68404 0.42344 0.0
H1380 H 0.72401 0.75547 0.38576 0.0
H1381 H 0.66982 0.69536 0.35498 0.0
H1382 H 0.63285 0.67508 0.35848 0.0
H1383 H 0.59513 0.73579 0.34937 0.0
H1384 H 0.63192 0.75654 0.34632 0.0
H1385 H 0.75407 0.76714 0.25532 0.0
H1386 H 0.74157 0.75199 0.29591 0.0
H1387 H 0.67717 0.78833 0.29317 0.0
H1388 H 0.68893 0.8025 0.25135 0.0
H1389 H 0.66931 0.74829 0.30953 0.0
H1390 H 0.72172 0.80783 0.33449 0.0
H1391 H 0.75761 0.83015 0.33345 0.0
H1392 H 0.7973 0.77423 0.35631 0.0
H1393 H 0.76168 0.75145 0.35711 0.0
C1394 C 0.66774 0.72699 0.43667 0.0
C1395 C 0.68004 0.7072 0.44025 0.0
C1396 C 0.67135 0.73831 0.41398 0.0
C1397 C 0.68761 0.73019 0.39499 0.0
C1398 C 0.70026 0.71076 0.39885 0.0
C1399 C 0.6963 0.6992 0.42112 0.0
C1400 C 0.69159 0.74172 0.37085 0.0
C1401 C 0.71216 0.75389 0.369 0.0
C1402 C 0.67567 0.74013 0.34952 0.0
C1403 C 0.6536 0.72756 0.35077 0.0
C1404 C 0.65365 0.70443 0.35398 0.0
C1405 C 0.63273 0.69284 0.35582 0.0
C1406 C 0.61166 0.70415 0.35422 0.0
C1407 C 0.61147 0.72706 0.35066 0.0
C1408 C 0.63234 0.73874 0.34887 0.0
C1409 C 0.73702 0.77159 0.26291 0.0
C1410 C 0.72257 0.78616 0.24998 0.0
C1411 C 0.73003 0.76315 0.28642 0.0
C1412 C 0.70867 0.76945 0.29795 0.0
C1413 C 0.69384 0.78342 0.28477 0.0
C1414 C 0.7007 0.79168 0.26099 0.0
C1415 C 0.70221 0.76166 0.32397 0.0
C1416 C 0.68112 0.75022 0.3263 0.0
C1417 C 0.71754 0.7642 0.34598 0.0
C1418 C 0.73903 0.77788 0.34568 0.0
C1419 C 0.73812 0.80024 0.33912 0.0
C1420 C 0.75842 0.81298 0.3386 0.0
C1421 C 0.77973 0.8036 0.34476 0.0
C1422 C 0.78078 0.78147 0.35152 0.0
C1423 C 0.76054 0.76864 0.35205 0.0
H1424 H 0.79542 0.8135 0.34434 0.0
H1425 H 0.59549 0.69516 0.35569 0.0
H1426 H 0.82371 0.17702 0.91231 0.0
H1427 H 0.82189 0.19619 0.87177 0.0
H1428 H 0.83206 0.25987 0.91725 0.0
H1429 H 0.83369 0.24085 0.95805 0.0
H1430 H 0.79612 0.26107 0.88342 0.0
H1431 H 0.87489 0.23764 0.87823 0.0
H1432 H 0.90749 0.21109 0.87925 0.0
H1433 H 0.87903 0.17159 0.81195 0.0
H1434 H 0.84605 0.1977 0.81076 0.0
H1435 H 0.79674 0.3184 0.76793 0.0
H1436 H 0.8128 0.30384 0.80777 0.0
H1437 H 0.80211 0.2361 0.77323 0.0
H1438 H 0.78662 0.25053 0.73302 0.0
H1439 H 0.84259 0.24025 0.80274 0.0
H1440 H 0.76167 0.26056 0.81243 0.0
H1441 H 0.72834 0.28632 0.81192 0.0
H1442 H 0.76107 0.3312 0.87163 0.0
H1443 H 0.79477 0.30584 0.87221 0.0
C1444 C 0.82566 0.1951 0.91373 0.0
C1445 C 0.82869 0.20742 0.93847 0.0
C1446 C 0.82481 0.20601 0.89049 0.0
C1447 C 0.82708 0.22943 0.89148 0.0
C1448 C 0.83035 0.24177 0.91607 0.0
C1449 C 0.83127 0.23086 0.93935 0.0
C1450 C 0.82448 0.24107 0.86698 0.0
C1451 C 0.80665 0.25689 0.86597 0.0
C1452 C 0.83791 0.23524 0.84408 0.0
C1453 C 0.85788 0.21958 0.84452 0.0
C1454 C 0.87548 0.22321 0.86375 0.0
C1455 C 0.89405 0.20825 0.86435 0.0
C1456 C 0.89531 0.18965 0.84571 0.0
C1457 C 0.87803 0.186 0.82639 0.0
C1458 C 0.8594 0.2009 0.82571 0.0
C1459 C 0.79836 0.30041 0.76852 0.0
C1460 C 0.79015 0.2856 0.74745 0.0
C1461 C 0.80742 0.29213 0.79136 0.0
C1462 C 0.80832 0.2689 0.79358 0.0
C1463 C 0.8015 0.25408 0.77195 0.0
C1464 C 0.79244 0.26235 0.74911 0.0
C1465 C 0.81413 0.26006 0.81923 0.0
C1466 C 0.83242 0.24471 0.82039 0.0
C1467 C 0.80113 0.26626 0.84235 0.0
C1468 C 0.78084 0.28145 0.84213 0.0
C1469 C 0.76183 0.27601 0.8253 0.0
C1470 C 0.74287 0.29052 0.82501 0.0
C1471 C 0.74262 0.31042 0.84167 0.0
C1472 C 0.76131 0.31581 0.8587 0.0
C1473 C 0.78034 0.30138 0.85901 0.0
H1474 H 0.72792 0.32163 0.84143 0.0
H1475 H 0.90969 0.17809 0.8462 0.0
H1476 H 0.25889 0.31978 0.52398 0.0
H1477 H 0.22704 0.29888 0.50137 0.0
H1478 H 0.25626 0.23683 0.52373 0.0
H1479 H 0.28852 0.25752 0.54554 0.0
H1480 H 0.24291 0.23143 0.47479 0.0
H1481 H 0.20786 0.26282 0.5555 0.0
H1482 H 0.19667 0.29297 0.58936 0.0
H1483 H 0.15728 0.32494 0.53118 0.0
H1484 H 0.16849 0.29511 0.49688 0.0
H1485 H 0.1453 0.16094 0.45148 0.0
H1486 H 0.17519 0.18416 0.47457 0.0
H1487 H 0.1498 0.24212 0.43854 0.0
H1488 H 0.12018 0.21891 0.41471 0.0
H1489 H 0.16051 0.25045 0.49327 0.0
H1490 H 0.19551 0.21759 0.41295 0.0
H1491 H 0.20638 0.18644 0.38024 0.0
H1492 H 0.2457 0.15607 0.43976 0.0
H1493 H 0.23478 0.18689 0.47294 0.0
C1494 C 0.25849 0.30168 0.52412 0.0
C1495 C 0.27618 0.29031 0.53663 0.0
C1496 C 0.24021 0.28976 0.51129 0.0
C1497 C 0.23904 0.26629 0.51118 0.0
C1498 C 0.25677 0.25492 0.52355 0.0
C1499 C 0.27519 0.26679 0.53606 0.0
C1500 C 0.2196 0.25345 0.4978 0.0
C1501 C 0.22491 0.23545 0.47914 0.0
C1502 C 0.19606 0.25896 0.50296 0.0
C1503 C 0.18921 0.27685 0.52357 0.0
C1504 C 0.19695 0.27636 0.54989 0.0
C1505 C 0.19058 0.29338 0.56917 0.0
C1506 C 0.17632 0.31089 0.56241 0.0
C1507 C 0.16835 0.31138 0.53638 0.0
C1508 C 0.17469 0.29442 0.51701 0.0
C1509 C 0.14611 0.1786 0.44832 0.0
C1510 C 0.13046 0.188 0.431 0.0
C1511 C 0.16313 0.19185 0.46165 0.0
C1512 C 0.16482 0.21477 0.45801 0.0
C1513 C 0.14874 0.22445 0.44159 0.0
C1514 C 0.13177 0.21116 0.42808 0.0
C1515 C 0.18394 0.2284 0.47065 0.0
C1516 C 0.17854 0.24653 0.48903 0.0
C1517 C 0.20741 0.2229 0.46545 0.0
C1518 C 0.21415 0.20444 0.44548 0.0
C1519 C 0.20632 0.20418 0.41912 0.0
C1520 C 0.21252 0.1866 0.40048 0.0
C1521 C 0.22667 0.16926 0.40793 0.0
C1522 C 0.23472 0.1695 0.43402 0.0
C1523 C 0.22855 0.18703 0.45274 0.0
H1524 H 0.23145 0.15566 0.39348 0.0
H1525 H 0.17141 0.32406 0.57736 0.0
H1526 H 0.24295 0.80528 0.06328 0.0
H1527 H 0.27704 0.78712 0.04232 0.0
H1528 H 0.23257 0.74467 0.9908 0.0
H1529 H 0.19851 0.76292 0.01117 0.0
H1530 H 0.29297 0.74502 0.03746 0.0
H1531 H 0.25596 0.73669 0.93017 0.0
H1532 H 0.22845 0.75655 0.90303 0.0
H1533 H 0.24083 0.81792 0.95159 0.0
H1534 H 0.26867 0.79853 0.97876 0.0
H1535 H 0.35495 0.66453 0.95521 0.0
H1536 H 0.32573 0.68728 0.97972 0.0
H1537 H 0.34594 0.74474 0.93923 0.0
H1538 H 0.3745 0.72183 0.91377 0.0
H1539 H 0.30083 0.74156 0.93964 0.0
H1540 H 0.36042 0.74055 0.00474 0.0
H1541 H 0.38968 0.72388 0.03271 0.0
H1542 H 0.33633 0.68737 0.06943 0.0
H1543 H 0.30677 0.70358 0.04141 0.0
C1544 C 0.24043 0.792 0.04757 0.0
C1545 C 0.218 0.78565 0.0388 0.0
C1546 C 0.25993 0.78163 0.03565 0.0
C1547 C 0.25734 0.76478 0.01475 0.0
C1548 C 0.23498 0.75793 0.00656 0.0
C1549 C 0.21551 0.76835 0.01832 0.0
C1550 C 0.27794 0.75455 0.0011 0.0
C1551 C 0.29474 0.74429 0.01608 0.0
C1552 C 0.28055 0.75414 0.97328 0.0
C1553 C 0.26426 0.76608 0.95663 0.0
C1554 C 0.25292 0.75445 0.93495 0.0
C1555 C 0.23725 0.76562 0.91959 0.0
C1556 C 0.23285 0.78846 0.92563 0.0
C1557 C 0.2442 0.80021 0.94698 0.0
C1558 C 0.25991 0.78913 0.96238 0.0
C1559 C 0.35312 0.68198 0.95141 0.0
C1560 C 0.36706 0.69133 0.93247 0.0
C1561 C 0.33658 0.69505 0.96568 0.0
C1562 C 0.33381 0.7178 0.96154 0.0
C1563 C 0.34783 0.72724 0.94283 0.0
C1564 C 0.3643 0.71416 0.92846 0.0
C1565 C 0.31559 0.73145 0.9759 0.0
C1566 C 0.29919 0.74237 0.96103 0.0
C1567 C 0.31369 0.73292 0.00387 0.0
C1568 C 0.3314 0.72315 0.02081 0.0
C1569 C 0.35494 0.72883 0.01863 0.0
C1570 C 0.37158 0.71949 0.03452 0.0
C1571 C 0.36487 0.70454 0.05279 0.0
C1572 C 0.34151 0.69894 0.05525 0.0
C1573 C 0.3248 0.70822 0.03939 0.0
H1574 H 0.37778 0.69732 0.06508 0.0
H1575 H 0.22067 0.79706 0.91375 0.0
loop_
_geom_bond_atom_site_label_1
_geom_bond_atom_site_label_2
_geom_bond_distance
_geom_bond_site_symmetry_2
_ccdc_geom_bond_type
Fe0 O2 1.918 . S
Fe0 O5 1.997 . S
Fe0 O6 2.002 . S
Fe0 O11 1.976 . S
Fe0 O14 1.996 . S
Fe1 O2 1.918 . S
Fe1 O9 1.997 . S
Fe1 O12 1.996 . S
Fe1 O16 1.976 . S
Fe1 O19 2.002 . S
O2 Fe0 1.918 . S
O2 Fe1 1.918 . S
O2 Fe3 1.918 . S
Fe3 O2 1.918 . S
Fe3 O4 2.002 . S
Fe3 O13 1.976 . S
Fe3 O17 1.996 . S
Fe3 O20 1.997 . S
O4 Fe3 2.002 . S
O4 C21 1.295 . S
O5 Fe0 1.997 . S
O5 C21 1.235 . S
O6 Fe0 2.002 . S
O6 C7 1.295 . S
C7 O6 1.295 . S
C7 O9 1.235 . S
C8 O13 1.287 . S
C8 O14 1.255 . S
O9 Fe1 1.997 . S
O9 C7 1.235 . S
C10 O16 1.287 . S
C10 O17 1.255 . S
O11 Fe0 1.976 . S
O11 C18 1.287 . S
O12 Fe1 1.996 . S
O12 C18 1.255 . S
O13 Fe3 1.976 . S
O13 C8 1.287 . S
O14 Fe0 1.996 . S
O14 C8 1.255 . S
C15 O19 1.295 . S
C15 O20 1.235 . S
O16 Fe1 1.976 . S
O16 C10 1.287 . S
O17 Fe3 1.996 . S
O17 C10 1.255 . S
C18 O11 1.287 . S
C18 O12 1.255 . S
O19 Fe1 2.002 . S
O19 C15 1.295 . S
O20 Fe3 1.997 . S
O20 C15 1.235 . S
C21 O4 1.295 . S
C21 O5 1.235 . S
Fe22 O24 1.918 . S
Fe22 O27 1.997 . S
Fe22 O28 2.002 . S
Fe22 O33 1.976 . S
Fe22 O36 1.996 . S
Fe23 O24 1.918 . S
Fe23 O31 1.997 . S
Fe23 O34 1.996 . S
Fe23 O38 1.976 . S
Fe23 O41 2.002 . S
O24 Fe22 1.918 . S
O24 Fe23 1.918 . S
O24 Fe25 1.918 . S
Fe25 O24 1.918 . S
Fe25 O26 2.002 . S
Fe25 O35 1.976 . S
Fe25 O39 1.996 . S
Fe25 O42 1.997 . S
O26 Fe25 2.002 . S
O26 C43 1.295 . S
O27 Fe22 1.997 . S
O27 C43 1.235 . S
O28 Fe22 2.002 . S
O28 C29 1.295 . S
C29 O28 1.295 . S
C29 O31 1.235 . S
C30 O35 1.287 . S
C30 O36 1.255 . S
O31 Fe23 1.997 . S
O31 C29 1.235 . S
C32 O38 1.287 . S
C32 O39 1.255 . S
O33 Fe22 1.976 . S
O33 C40 1.287 . S
O34 Fe23 1.996 . S
O34 C40 1.255 . S
O35 Fe25 1.976 . S
O35 C30 1.287 . S
O36 Fe22 1.996 . S
O36 C30 1.255 . S
C37 O41 1.295 . S
C37 O42 1.235 . S
O38 Fe23 1.976 . S
O38 C32 1.287 . S
O39 Fe25 1.996 . S
O39 C32 1.255 . S
C40 O33 1.287 . S
C40 O34 1.255 . S
O41 Fe23 2.002 . S
O41 C37 1.295 . S
O42 Fe25 1.997 . S
O42 C37 1.235 . S
C43 O26 1.295 . S
C43 O27 1.235 . S
Fe44 O46 1.918 . S
Fe44 O49 1.997 1_554 S
Fe44 O50 2.002 . S
Fe44 O55 1.976 . S
Fe44 O58 1.996 . S
Fe45 O46 1.918 . S
Fe45 O53 1.997 1_554 S
Fe45 O56 1.996 . S
Fe45 O60 1.976 . S
Fe45 O63 2.002 1_554 S
O46 Fe44 1.918 . S
O46 Fe45 1.918 . S
O46 Fe47 1.918 1_554 S
Fe47 O46 1.918 1_556 S
Fe47 O48 2.002 . S
Fe47 O57 1.976 1_556 S
Fe47 O61 1.996 1_556 S
Fe47 O64 1.997 . S
O48 Fe47 2.002 . S
O48 C65 1.295 . S
O49 Fe44 1.997 1_556 S
O49 C65 1.235 . S
O50 Fe44 2.002 . S
O50 C51 1.295 1_554 S
C51 O50 1.295 1_556 S
C51 O53 1.235 . S
C52 O57 1.287 . S
C52 O58 1.255 . S
O53 Fe45 1.997 1_556 S
O53 C51 1.235 . S
C54 O60 1.287 . S
C54 O61 1.255 . S
O55 Fe44 1.976 . S
O55 C62 1.287 . S
O56 Fe45 1.996 . S
O56 C62 1.255 . S
O57 Fe47 1.976 1_554 S
O57 C52 1.287 . S
O58 Fe44 1.996 . S
O58 C52 1.255 . S
C59 O63 1.295 . S
C59 O64 1.235 . S
O60 Fe45 1.976 . S
O60 C54 1.287 . S
O61 Fe47 1.996 1_554 S
O61 C54 1.255 . S
C62 O55 1.287 . S
C62 O56 1.255 . S
O63 Fe45 2.002 1_556 S
O63 C59 1.295 . S
O64 Fe47 1.997 . S
O64 C59 1.235 . S
C65 O48 1.295 . S
C65 O49 1.235 . S
Fe66 O68 1.918 . S
Fe66 O71 1.997 . S
Fe66 O72 2.002 . S
Fe66 O77 1.976 . S
Fe66 O80 1.996 . S
Fe67 O68 1.918 . S
Fe67 O75 1.997 . S
Fe67 O78 1.996 . S
Fe67 O82 1.976 . S
Fe67 O85 2.002 . S
O68 Fe66 1.918 . S
O68 Fe67 1.918 . S
O68 Fe69 1.918 . S
Fe69 O68 1.918 . S
Fe69 O70 2.002 . S
Fe69 O79 1.976 . S
Fe69 O83 1.996 . S
Fe69 O86 1.997 . S
O70 Fe69 2.002 . S
O70 C87 1.295 . S
O71 Fe66 1.997 . S
O71 C87 1.235 . S
O72 Fe66 2.002 . S
O72 C73 1.295 . S
C73 O72 1.295 . S
C73 O75 1.235 . S
C74 O79 1.287 . S
C74 O80 1.255 . S
O75 Fe67 1.997 . S
O75 C73 1.235 . S
C76 O82 1.287 . S
C76 O83 1.255 . S
O77 Fe66 1.976 . S
O77 C84 1.287 . S
O78 Fe67 1.996 . S
O78 C84 1.255 . S
O79 Fe69 1.976 . S
O79 C74 1.287 . S
O80 Fe66 1.996 . S
O80 C74 1.255 . S
C81 O85 1.295 . S
C81 O86 1.235 . S
O82 Fe67 1.976 . S
O82 C76 1.287 . S
O83 Fe69 1.996 . S
O83 C76 1.255 . S
C84 O77 1.287 . S
C84 O78 1.255 . S
O85 Fe67 2.002 . S
O85 C81 1.295 . S
O86 Fe69 1.997 . S
O86 C81 1.235 . S
C87 O70 1.295 . S
C87 O71 1.235 . S
C88 C89 1.384 1_455 S
C88 H101 0.947 1_455 S
C88 C123 1.382 . S
C89 C88 1.384 1_655 S
C89 C90 1.378 1_655 S
C90 C89 1.378 1_455 S
C90 C91 1.378 . S
C90 H102 0.952 . S
C91 C90 1.378 . S
C91 H103 0.950 . S
C91 C122 1.383 . S
H92 C111 0.947 . S
H93 C112 0.946 . S
H94 C114 0.953 . S
H95 C115 0.945 . S
H96 C117 0.952 . S
H97 C118 0.949 . S
H98 C120 0.950 . S
H99 C121 0.948 . S
H100 C123 0.951 . S
H101 C88 0.947 1_655 S
H102 C90 0.952 . S
H103 C91 0.950 . S
N104 C107 1.382 . S
N104 C109 1.363 . S
N105 C107 1.371 . S
N105 C108 1.372 . S
N106 C108 1.361 . S
N106 C109 1.377 . S
C107 N104 1.382 . S
C107 N105 1.371 . S
C107 C110 1.480 . S
C108 N105 1.372 . S
C108 N106 1.361 . S
C108 C116 1.457 . S
C109 N104 1.363 . S
C109 N106 1.377 . S
C109 C122 1.479 . S
C110 C107 1.480 . S
C110 C111 1.383 . S
C110 C115 1.385 . S
C111 H92 0.947 . S
C111 C110 1.383 . S
C111 C112 1.388 . S
C112 H93 0.946 . S
C112 C111 1.388 . S
C112 C113 1.384 . S
C113 C112 1.384 . S
C113 C114 1.377 . S
C114 H94 0.953 . S
C114 C113 1.377 . S
C114 C115 1.369 . S
C115 H95 0.945 . S
C115 C110 1.385 . S
C115 C114 1.369 . S
C116 C108 1.457 . S
C116 C117 1.372 . S
C116 C121 1.364 . S
C117 H96 0.952 . S
C117 C116 1.372 . S
C117 C118 1.389 . S
C118 H97 0.949 . S
C118 C117 1.389 . S
C118 C119 1.387 . S
C119 C118 1.387 . S
C119 C120 1.372 . S
C120 H98 0.950 . S
C120 C119 1.372 . S
C120 C121 1.379 . S
C121 H99 0.948 . S
C121 C116 1.364 . S
C121 C120 1.379 . S
C122 C91 1.383 . S
C122 C109 1.479 . S
C122 C123 1.398 . S
C123 C88 1.382 . S
C123 H100 0.951 . S
C123 C122 1.398 . S
C124 C125 1.384 . S
C124 H137 0.947 . S
C124 C159 1.382 . S
C125 C124 1.384 . S
C125 C126 1.378 . S
C126 C125 1.378 . S
C126 C127 1.378 . S
C126 H138 0.952 . S
C127 C126 1.378 . S
C127 H139 0.950 . S
C127 C158 1.383 . S
H128 C147 0.947 . S
H129 C148 0.946 . S
H130 C150 0.953 . S
H131 C151 0.945 . S
H132 C153 0.952 . S
H133 C154 0.949 . S
H134 C156 0.950 . S
H135 C157 0.948 . S
H136 C159 0.951 . S
H137 C124 0.947 . S
H138 C126 0.952 . S
H139 C127 0.950 . S
N140 C143 1.382 . S
N140 C145 1.363 . S
N141 C143 1.371 . S
N141 C144 1.372 . S
N142 C144 1.361 . S
N142 C145 1.377 . S
C143 N140 1.382 . S
C143 N141 1.371 . S
C143 C146 1.480 . S
C144 N141 1.372 . S
C144 N142 1.361 . S
C144 C152 1.457 . S
C145 N140 1.363 . S
C145 N142 1.377 . S
C145 C158 1.479 . S
C146 C143 1.480 . S
C146 C147 1.383 . S
C146 C151 1.385 . S
C147 H128 0.947 . S
C147 C146 1.383 . S
C147 C148 1.388 . S
C148 H129 0.946 . S
C148 C147 1.388 . S
C148 C149 1.384 . S
C149 C148 1.384 . S
C149 C150 1.377 . S
C150 H130 0.953 . S
C150 C149 1.377 . S
C150 C151 1.369 . S
C151 H131 0.945 . S
C151 C146 1.385 . S
C151 C150 1.369 . S
C152 C144 1.457 . S
C152 C153 1.372 . S
C152 C157 1.364 . S
C153 H132 0.952 . S
C153 C152 1.372 . S
C153 C154 1.389 . S
C154 H133 0.949 . S
C154 C153 1.389 . S
C154 C155 1.387 . S
C155 C154 1.387 . S
C155 C156 1.372 . S
C156 H134 0.950 . S
C156 C155 1.372 . S
C156 C157 1.379 . S
C157 H135 0.948 . S
C157 C152 1.364 . S
C157 C156 1.379 . S
C158 C127 1.383 . S
C158 C145 1.479 . S
C158 C159 1.398 . S
C159 C124 1.382 . S
C159 H136 0.951 . S
C159 C158 1.398 . S
C160 C161 1.384 . S
C160 H173 0.947 . S
C160 C195 1.382 . S
C161 C160 1.384 . S
C161 C162 1.378 . S
C162 C161 1.378 . S
C162 C163 1.378 . S
C162 H174 0.952 . S
C163 C162 1.378 . S
C163 H175 0.950 . S
C163 C194 1.383 . S
H164 C183 0.947 . S
H165 C184 0.946 . S
H166 C186 0.953 . S
H167 C187 0.945 . S
H168 C189 0.952 . S
H169 C190 0.949 . S
H170 C192 0.950 . S
H171 C193 0.948 . S
H172 C195 0.951 . S
H173 C160 0.947 . S
H174 C162 0.952 . S
H175 C163 0.950 . S
N176 C179 1.382 . S
N176 C181 1.363 . S
N177 C179 1.371 . S
N177 C180 1.372 . S
N178 C180 1.361 . S
N178 C181 1.377 . S
C179 N176 1.382 . S
C179 N177 1.371 . S
C179 C182 1.480 . S
C180 N177 1.372 . S
C180 N178 1.361 . S
C180 C188 1.457 . S
C181 N176 1.363 . S
C181 N178 1.377 . S
C181 C194 1.479 . S
C182 C179 1.480 . S
C182 C183 1.383 . S
C182 C187 1.385 . S
C183 H164 0.947 . S
C183 C182 1.383 . S
C183 C184 1.388 . S
C184 H165 0.946 . S
C184 C183 1.388 . S
C184 C185 1.384 . S
C185 C184 1.384 . S
C185 C186 1.377 . S
C186 H166 0.953 . S
C186 C185 1.377 . S
C186 C187 1.369 . S
C187 H167 0.945 . S
C187 C182 1.385 . S
C187 C186 1.369 . S
C188 C180 1.457 . S
C188 C189 1.372 . S
C188 C193 1.364 . S
C189 H168 0.952 . S
C189 C188 1.372 . S
C189 C190 1.389 . S
C190 H169 0.949 . S
C190 C189 1.389 . S
C190 C191 1.387 . S
C191 C190 1.387 . S
C191 C192 1.372 . S
C192 H170 0.950 . S
C192 C191 1.372 . S
C192 C193 1.379 . S
C193 H171 0.948 . S
C193 C188 1.364 . S
C193 C192 1.379 . S
C194 C163 1.383 . S
C194 C181 1.479 . S
C194 C195 1.398 . S
C195 C160 1.382 . S
C195 H172 0.951 . S
C195 C194 1.398 . S
C196 C197 1.384 . S
C196 H209 0.947 . S
C196 C231 1.382 . S
C197 C196 1.384 . S
C197 C198 1.378 . S
C198 C197 1.378 . S
C198 C199 1.378 . S
C198 H210 0.952 . S
C199 C198 1.378 . S
C199 H211 0.950 . S
C199 C230 1.383 . S
H200 C219 0.947 . S
H201 C220 0.946 . S
H202 C222 0.953 . S
H203 C223 0.945 . S
H204 C225 0.952 . S
H205 C226 0.949 . S
H206 C228 0.950 . S
H207 C229 0.948 . S
H208 C231 0.951 . S
H209 C196 0.947 . S
H210 C198 0.952 . S
H211 C199 0.950 . S
N212 C215 1.382 . S
N212 C217 1.363 . S
N213 C215 1.371 . S
N213 C216 1.372 . S
N214 C216 1.361 . S
N214 C217 1.377 . S
C215 N212 1.382 . S
C215 N213 1.371 . S
C215 C218 1.480 . S
C216 N213 1.372 . S
C216 N214 1.361 . S
C216 C224 1.457 . S
C217 N212 1.363 . S
C217 N214 1.377 . S
C217 C230 1.479 . S
C218 C215 1.480 . S
C218 C219 1.383 . S
C218 C223 1.385 . S
C219 H200 0.947 . S
C219 C218 1.383 . S
C219 C220 1.388 . S
C220 H201 0.946 . S
C220 C219 1.388 . S
C220 C221 1.384 . S
C221 C220 1.384 . S
C221 C222 1.377 . S
C222 H202 0.953 . S
C222 C221 1.377 . S
C222 C223 1.369 . S
C223 H203 0.945 . S
C223 C218 1.385 . S
C223 C222 1.369 . S
C224 C216 1.457 . S
C224 C225 1.372 . S
C224 C229 1.364 . S
C225 H204 0.952 . S
C225 C224 1.372 . S
C225 C226 1.389 . S
C226 H205 0.949 . S
C226 C225 1.389 . S
C226 C227 1.387 . S
C227 C226 1.387 . S
C227 C228 1.372 . S
C228 H206 0.950 . S
C228 C227 1.372 . S
C228 C229 1.379 . S
C229 H207 0.948 . S
C229 C224 1.364 . S
C229 C228 1.379 . S
C230 C199 1.383 . S
C230 C217 1.479 . S
C230 C231 1.398 . S
C231 C196 1.382 . S
C231 H208 0.951 . S
C231 C230 1.398 . S
C232 C233 1.384 . S
C232 H245 0.947 . S
C232 C267 1.382 . S
C233 C232 1.384 . S
C233 C234 1.378 . S
C234 C233 1.378 . S
C234 C235 1.378 . S
C234 H246 0.952 . S
C235 C234 1.378 . S
C235 H247 0.950 . S
C235 C266 1.383 . S
H236 C255 0.947 . S
H237 C256 0.946 . S
H238 C258 0.953 . S
H239 C259 0.945 . S
H240 C261 0.952 . S
H241 C262 0.949 . S
H242 C264 0.950 . S
H243 C265 0.948 . S
H244 C267 0.951 . S
H245 C232 0.947 . S
H246 C234 0.952 . S
H247 C235 0.950 . S
N248 C251 1.382 . S
N248 C253 1.363 . S
N249 C251 1.371 . S
N249 C252 1.372 . S
N250 C252 1.361 . S
N250 C253 1.377 . S
C251 N248 1.382 . S
C251 N249 1.371 . S
C251 C254 1.480 . S
C252 N249 1.372 . S
C252 N250 1.361 . S
C252 C260 1.457 . S
C253 N248 1.363 . S
C253 N250 1.377 . S
C253 C266 1.479 . S
C254 C251 1.480 . S
C254 C255 1.383 . S
C254 C259 1.385 . S
C255 H236 0.947 . S
C255 C254 1.383 . S
C255 C256 1.388 . S
C256 H237 0.946 . S
C256 C255 1.388 . S
C256 C257 1.384 . S
C257 C256 1.384 . S
C257 C258 1.377 . S
C258 H238 0.953 . S
C258 C257 1.377 . S
C258 C259 1.369 . S
C259 H239 0.945 . S
C259 C254 1.385 . S
C259 C258 1.369 . S
C260 C252 1.457 . S
C260 C261 1.372 . S
C260 C265 1.364 . S
C261 H240 0.952 . S
C261 C260 1.372 . S
C261 C262 1.389 . S
C262 H241 0.949 . S
C262 C261 1.389 . S
C262 C263 1.387 . S
C263 C262 1.387 . S
C263 C264 1.372 . S
C264 H242 0.950 . S
C264 C263 1.372 . S
C264 C265 1.379 . S
C265 H243 0.948 . S
C265 C260 1.364 . S
C265 C264 1.379 . S
C266 C235 1.383 . S
C266 C253 1.479 . S
C266 C267 1.398 . S
C267 C232 1.382 . S
C267 H244 0.951 . S
C267 C266 1.398 . S
C268 C269 1.384 . S
C268 H281 0.947 . S
C268 C303 1.382 . S
C269 C268 1.384 . S
C269 C270 1.378 . S
C270 C269 1.378 . S
C270 C271 1.378 . S
C270 H282 0.952 . S
C271 C270 1.378 . S
C271 H283 0.950 . S
C271 C302 1.383 . S
H272 C291 0.947 . S
H273 C292 0.946 . S
H274 C294 0.953 . S
H275 C295 0.945 . S
H276 C297 0.952 . S
H277 C298 0.949 . S
H278 C300 0.950 . S
H279 C301 0.948 . S
H280 C303 0.951 . S
H281 C268 0.947 . S
H282 C270 0.952 . S
H283 C271 0.950 . S
N284 C287 1.382 . S
N284 C289 1.363 . S
N285 C287 1.371 . S
N285 C288 1.372 . S
N286 C288 1.361 . S
N286 C289 1.377 . S
C287 N284 1.382 . S
C287 N285 1.371 . S
C287 C290 1.480 . S
C288 N285 1.372 . S
C288 N286 1.361 . S
C288 C296 1.457 . S
C289 N284 1.363 . S
C289 N286 1.377 . S
C289 C302 1.479 . S
C290 C287 1.480 . S
C290 C291 1.383 . S
C290 C295 1.385 . S
C291 H272 0.947 . S
C291 C290 1.383 . S
C291 C292 1.388 . S
C292 H273 0.946 . S
C292 C291 1.388 . S
C292 C293 1.384 . S
C293 C292 1.384 . S
C293 C294 1.377 . S
C294 H274 0.953 . S
C294 C293 1.377 . S
C294 C295 1.369 . S
C295 H275 0.945 . S
C295 C290 1.385 . S
C295 C294 1.369 . S
C296 C288 1.457 . S
C296 C297 1.372 . S
C296 C301 1.364 . S
C297 H276 0.952 . S
C297 C296 1.372 . S
C297 C298 1.389 . S
C298 H277 0.949 . S
C298 C297 1.389 . S
C298 C299 1.387 . S
C299 C298 1.387 . S
C299 C300 1.372 . S
C300 H278 0.950 . S
C300 C299 1.372 . S
C300 C301 1.379 . S
C301 H279 0.948 . S
C301 C296 1.364 . S
C301 C300 1.379 . S
C302 C271 1.383 . S
C302 C289 1.479 . S
C302 C303 1.398 . S
C303 C268 1.382 . S
C303 H280 0.951 . S
C303 C302 1.398 . S
C304 C305 1.384 . S
C304 H317 0.947 . S
C304 C339 1.382 . S
C305 C304 1.384 . S
C305 C306 1.378 . S
C306 C305 1.378 . S
C306 C307 1.378 . S
C306 H318 0.952 . S
C307 C306 1.378 . S
C307 H319 0.950 . S
C307 C338 1.383 . S
H308 C327 0.947 . S
H309 C328 0.946 . S
H310 C330 0.953 . S
H311 C331 0.945 . S
H312 C333 0.952 . S
H313 C334 0.949 . S
H314 C336 0.950 . S
H315 C337 0.948 . S
H316 C339 0.951 . S
H317 C304 0.947 . S
H318 C306 0.952 . S
H319 C307 0.950 . S
N320 C323 1.382 . S
N320 C325 1.363 . S
N321 C323 1.371 . S
N321 C324 1.372 . S
N322 C324 1.361 . S
N322 C325 1.377 . S
C323 N320 1.382 . S
C323 N321 1.371 . S
C323 C326 1.480 . S
C324 N321 1.372 . S
C324 N322 1.361 . S
C324 C332 1.457 . S
C325 N320 1.363 . S
C325 N322 1.377 . S
C325 C338 1.479 . S
C326 C323 1.480 . S
C326 C327 1.383 . S
C326 C331 1.385 . S
C327 H308 0.947 . S
C327 C326 1.383 . S
C327 C328 1.388 . S
C328 H309 0.946 . S
C328 C327 1.388 . S
C328 C329 1.384 . S
C329 C328 1.384 . S
C329 C330 1.377 . S
C330 H310 0.953 . S
C330 C329 1.377 . S
C330 C331 1.369 . S
C331 H311 0.945 . S
C331 C326 1.385 . S
C331 C330 1.369 . S
C332 C324 1.457 . S
C332 C333 1.372 . S
C332 C337 1.364 . S
C333 H312 0.952 . S
C333 C332 1.372 . S
C333 C334 1.389 . S
C334 H313 0.949 . S
C334 C333 1.389 . S
C334 C335 1.387 . S
C335 C334 1.387 . S
C335 C336 1.372 . S
C336 H314 0.950 . S
C336 C335 1.372 . S
C336 C337 1.379 . S
C337 H315 0.948 . S
C337 C332 1.364 . S
C337 C336 1.379 . S
C338 C307 1.383 . S
C338 C325 1.479 . S
C338 C339 1.398 . S
C339 C304 1.382 . S
C339 H316 0.951 . S
C339 C338 1.398 . S
C340 C341 1.384 . S
C340 H353 0.947 . S
C340 C375 1.382 . S
C341 C340 1.384 . S
C341 C342 1.378 . S
C342 C341 1.378 . S
C342 C343 1.378 . S
C342 H354 0.952 . S
C343 C342 1.378 . S
C343 H355 0.950 . S
C343 C374 1.383 . S
H344 C363 0.947 . S
H345 C364 0.946 . S
H346 C366 0.953 . S
H347 C367 0.945 . S
H348 C369 0.952 . S
H349 C370 0.947 1_455 S
H350 C372 0.950 1_455 S
H351 C373 0.948 . S
H352 C375 0.951 . S
H353 C340 0.947 . S
H354 C342 0.952 . S
H355 C343 0.950 . S
N356 C359 1.382 . S
N356 C361 1.363 . S
N357 C359 1.371 . S
N357 C360 1.372 . S
N358 C360 1.361 . S
N358 C361 1.377 . S
C359 N356 1.382 . S
C359 N357 1.371 . S
C359 C362 1.480 . S
C360 N357 1.372 . S
C360 N358 1.361 . S
C360 C368 1.457 . S
C361 N356 1.363 . S
C361 N358 1.377 . S
C361 C374 1.479 . S
C362 C359 1.480 . S
C362 C363 1.383 . S
C362 C367 1.385 . S
C363 H344 0.947 . S
C363 C362 1.383 . S
C363 C364 1.388 . S
C364 H345 0.946 . S
C364 C363 1.388 . S
C364 C365 1.384 . S
C365 C364 1.384 . S
C365 C366 1.377 . S
C366 H346 0.953 . S
C366 C365 1.377 . S
C366 C367 1.369 . S
C367 H347 0.945 . S
C367 C362 1.385 . S
C367 C366 1.369 . S
C368 C360 1.457 . S
C368 C369 1.372 . S
C368 C373 1.364 . S
C369 H348 0.952 . S
C369 C368 1.372 . S
C369 C370 1.389 . S
C370 H349 0.947 1_655 S
C370 C369 1.389 . S
C370 C371 1.387 1_655 S
C371 C370 1.387 1_455 S
C371 C372 1.372 1_455 S
C372 H350 0.950 1_655 S
C372 C371 1.372 1_655 S
C372 C373 1.379 . S
C373 H351 0.948 . S
C373 C368 1.364 . S
C373 C372 1.379 . S
C374 C343 1.383 . S
C374 C361 1.479 . S
C374 C375 1.398 . S
C375 C340 1.382 . S
C375 H352 0.951 . S
C375 C374 1.398 . S
H376 C394 0.951 . S
H377 C396 0.951 . S
H378 C398 0.950 . S
H379 C399 0.950 . S
H380 C401 0.950 . S
H381 C404 0.950 . S
H382 C405 0.950 . S
H383 C407 0.950 . S
H384 C408 0.950 . S
H385 C409 0.951 . S
H386 C411 0.951 . S
H387 C413 0.950 . S
H388 C414 0.950 . S
H389 C416 0.950 . S
H390 C419 0.950 . S
H391 C420 0.950 . S
H392 C422 0.950 . S
H393 C423 0.950 . S
C394 H376 0.951 . S
C394 C395 1.366 . S
C394 C396 1.388 . S
C395 C394 1.366 . S
C395 C399 1.385 . S
C396 H377 0.951 . S
C396 C394 1.388 . S
C396 C397 1.366 . S
C397 C396 1.366 . S
C397 C398 1.414 . S
C397 C400 1.499 . S
C398 H378 0.950 . S
C398 C397 1.414 . S
C398 C399 1.374 . S
C399 H379 0.950 . S
C399 C395 1.385 . S
C399 C398 1.374 . S
C400 C397 1.499 . S
C400 C401 1.373 . S
C400 C402 1.389 . S
C401 H380 0.950 . S
C401 C400 1.373 . S
C401 C417 1.377 . S
C402 C400 1.389 . S
C402 C403 1.524 . S
C402 C416 1.377 . S
C403 C402 1.524 . S
C403 C404 1.397 . S
C403 C408 1.363 . S
C404 H381 0.950 . S
C404 C403 1.397 . S
C404 C405 1.334 . S
C405 H382 0.950 . S
C405 C404 1.334 . S
C405 C406 1.287 . S
C406 C405 1.287 . S
C406 C407 1.524 . S
C406 H425 0.913 . S
C407 H383 0.950 . S
C407 C406 1.524 . S
C407 C408 1.415 . S
C408 H384 0.950 . S
C408 C403 1.363 . S
C408 C407 1.415 . S
C409 H385 0.951 . S
C409 C410 1.366 . S
C409 C411 1.388 1_545 S
C410 C409 1.366 . S
C410 C414 1.385 . S
C411 H386 0.951 . S
C411 C409 1.388 1_565 S
C411 C412 1.366 . S
C412 C411 1.366 . S
C412 C413 1.414 1_565 S
C412 C415 1.499 . S
C413 H387 0.950 . S
C413 C412 1.414 1_545 S
C413 C414 1.374 . S
C414 H388 0.950 . S
C414 C410 1.385 . S
C414 C413 1.374 . S
C415 C412 1.499 . S
C415 C416 1.373 . S
C415 C417 1.389 . S
C416 H389 0.950 . S
C416 C402 1.377 . S
C416 C415 1.373 . S
C417 C401 1.377 . S
C417 C415 1.389 . S
C417 C418 1.524 . S
C418 C417 1.524 . S
C418 C419 1.397 1_565 S
C418 C423 1.363 . S
C419 H390 0.950 . S
C419 C418 1.397 1_545 S
C419 C420 1.334 . S
C420 H391 0.950 . S
C420 C419 1.334 . S
C420 C421 1.287 . S
C421 C420 1.287 . S
C421 C422 1.524 1_545 S
C421 H424 0.999 . S
C422 H392 0.950 . S
C422 C421 1.524 1_565 S
C422 C423 1.415 . S
C423 H393 0.950 . S
C423 C418 1.363 . S
C423 C422 1.415 . S
H424 C421 0.999 . S
H425 C406 0.913 . S
H426 C444 0.951 . S
H427 C446 0.951 . S
H428 C448 0.950 . S
H429 C449 0.950 . S
H430 C451 0.950 . S
H431 C454 0.950 . S
H432 C455 0.950 . S
H433 C457 0.950 . S
H434 C458 0.950 . S
H435 C459 0.951 . S
H436 C461 0.951 . S
H437 C463 0.950 . S
H438 C464 0.950 . S
H439 C466 0.950 . S
H440 C469 0.950 . S
H441 C470 0.950 . S
H442 C472 0.950 . S
H443 C473 0.950 . S
C444 H426 0.951 . S
C444 C445 1.366 . S
C444 C446 1.388 . S
C445 C444 1.366 . S
C445 C449 1.385 . S
C446 H427 0.951 . S
C446 C444 1.388 . S
C446 C447 1.366 . S
C447 C446 1.366 . S
C447 C448 1.414 . S
C447 C450 1.499 . S
C448 H428 0.950 . S
C448 C447 1.414 . S
C448 C449 1.374 . S
C449 H429 0.950 . S
C449 C445 1.385 . S
C449 C448 1.374 . S
C450 C447 1.499 . S
C450 C451 1.373 . S
C450 C452 1.389 . S
C451 H430 0.950 . S
C451 C450 1.373 . S
C451 C467 1.377 . S
C452 C450 1.389 . S
C452 C453 1.524 . S
C452 C466 1.377 . S
C453 C452 1.524 . S
C453 C454 1.397 . S
C453 C458 1.363 . S
C454 H431 0.950 . S
C454 C453 1.397 . S
C454 C455 1.334 . S
C455 H432 0.950 . S
C455 C454 1.334 . S
C455 C456 1.287 . S
C456 C455 1.287 . S
C456 C457 1.524 . S
C456 H475 0.913 . S
C457 H433 0.950 . S
C457 C456 1.524 . S
C457 C458 1.415 . S
C458 H434 0.950 . S
C458 C453 1.363 . S
C458 C457 1.415 . S
C459 H435 0.951 . S
C459 C460 1.366 . S
C459 C461 1.388 . S
C460 C459 1.366 . S
C460 C464 1.385 . S
C461 H436 0.951 . S
C461 C459 1.388 . S
C461 C462 1.366 . S
C462 C461 1.366 . S
C462 C463 1.414 . S
C462 C465 1.499 . S
C463 H437 0.950 . S
C463 C462 1.414 . S
C463 C464 1.374 . S
C464 H438 0.950 . S
C464 C460 1.385 . S
C464 C463 1.374 . S
C465 C462 1.499 . S
C465 C466 1.373 . S
C465 C467 1.389 . S
C466 H439 0.950 . S
C466 C452 1.377 . S
C466 C465 1.373 . S
C467 C451 1.377 . S
C467 C465 1.389 . S
C467 C468 1.524 . S
C468 C467 1.524 . S
C468 C469 1.397 . S
C468 C473 1.363 . S
C469 H440 0.950 . S
C469 C468 1.397 . S
C469 C470 1.334 . S
C470 H441 0.950 . S
C470 C469 1.334 . S
C470 C471 1.287 . S
C471 C470 1.287 . S
C471 C472 1.524 . S
C471 H474 0.999 . S
C472 H442 0.950 . S
C472 C471 1.524 . S
C472 C473 1.415 . S
C473 H443 0.950 . S
C473 C468 1.363 . S
C473 C472 1.415 . S
H474 C471 0.999 . S
H475 C456 0.913 . S
H476 C494 0.951 . S
H477 C496 0.951 . S
H478 C498 0.950 . S
H479 C499 0.950 . S
H480 C501 0.950 . S
H481 C504 0.950 . S
H482 C505 0.950 . S
H483 C507 0.950 . S
H484 C508 0.950 . S
H485 C509 0.951 . S
H486 C511 0.951 . S
H487 C513 0.950 . S
H488 C514 0.950 . S
H489 C516 0.950 . S
H490 C519 0.950 . S
H491 C520 0.950 . S
H492 C522 0.950 . S
H493 C523 0.950 1_545 S
C494 H476 0.951 . S
C494 C495 1.366 . S
C494 C496 1.388 . S
C495 C494 1.366 . S
C495 C499 1.385 . S
C496 H477 0.951 . S
C496 C494 1.388 . S
C496 C497 1.366 . S
C497 C496 1.366 . S
C497 C498 1.414 . S
C497 C500 1.499 . S
C498 H478 0.950 . S
C498 C497 1.414 . S
C498 C499 1.374 . S
C499 H479 0.950 . S
C499 C495 1.385 . S
C499 C498 1.374 . S
C500 C497 1.499 . S
C500 C501 1.373 . S
C500 C502 1.389 . S
C501 H480 0.950 . S
C501 C500 1.373 . S
C501 C517 1.377 . S
C502 C500 1.389 . S
C502 C503 1.524 . S
C502 C516 1.377 . S
C503 C502 1.524 . S
C503 C504 1.397 . S
C503 C508 1.363 . S
C504 H481 0.950 . S
C504 C503 1.397 . S
C504 C505 1.334 . S
C505 H482 0.950 . S
C505 C504 1.334 . S
C505 C506 1.287 . S
C506 C505 1.287 . S
C506 C507 1.524 . S
C506 H525 0.913 . S
C507 H483 0.950 . S
C507 C506 1.524 . S
C507 C508 1.415 . S
C508 H484 0.950 . S
C508 C503 1.363 . S
C508 C507 1.415 . S
C509 H485 0.951 . S
C509 C510 1.366 . S
C509 C511 1.388 . S
C510 C509 1.366 . S
C510 C514 1.385 . S
C511 H486 0.951 . S
C511 C509 1.388 . S
C511 C512 1.366 . S
C512 C511 1.366 . S
C512 C513 1.414 . S
C512 C515 1.499 . S
C513 H487 0.950 . S
C513 C512 1.414 . S
C513 C514 1.374 . S
C514 H488 0.950 . S
C514 C510 1.385 . S
C514 C513 1.374 . S
C515 C512 1.499 . S
C515 C516 1.373 1_565 S
C515 C517 1.389 1_565 S
C516 H489 0.950 . S
C516 C502 1.377 . S
C516 C515 1.373 1_545 S
C517 C501 1.377 . S
C517 C515 1.389 1_545 S
C517 C518 1.524 1_545 S
C518 C517 1.524 1_565 S
C518 C519 1.397 . S
C518 C523 1.363 . S
C519 H490 0.950 . S
C519 C518 1.397 . S
C519 C520 1.334 . S
C520 H491 0.950 . S
C520 C519 1.334 . S
C520 C521 1.287 . S
C521 C520 1.287 . S
C521 C522 1.524 . S
C521 H524 0.999 . S
C522 H492 0.950 . S
C522 C521 1.524 . S
C522 C523 1.415 . S
C523 H493 0.950 1_565 S
C523 C518 1.363 . S
C523 C522 1.415 . S
H524 C521 0.999 . S
H525 C506 0.913 . S
H526 C544 0.951 . S
H527 C546 0.951 . S
H528 C548 0.950 . S
H529 C549 0.950 . S
H530 C551 0.950 . S
H531 C554 0.950 . S
H532 C555 0.950 . S
H533 C557 0.950 . S
H534 C558 0.950 . S
H535 C559 0.951 . S
H536 C561 0.951 . S
H537 C563 0.950 . S
H538 C564 0.950 . S
H539 C566 0.950 . S
H540 C569 0.950 . S
H541 C570 0.950 . S
H542 C572 0.950 . S
H543 C573 0.950 . S
C544 H526 0.951 . S
C544 C545 1.366 . S
C544 C546 1.388 . S
C545 C544 1.366 . S
C545 C549 1.385 . S
C546 H527 0.951 . S
C546 C544 1.388 . S
C546 C547 1.366 . S
C547 C546 1.366 . S
C547 C548 1.414 . S
C547 C550 1.499 . S
C548 H528 0.950 . S
C548 C547 1.414 . S
C548 C549 1.374 . S
C549 H529 0.950 . S
C549 C545 1.385 . S
C549 C548 1.374 . S
C550 C547 1.499 . S
C550 C551 1.373 . S
C550 C552 1.389 . S
C551 H530 0.950 . S
C551 C550 1.373 . S
C551 C567 1.377 . S
C552 C550 1.389 . S
C552 C553 1.524 . S
C552 C566 1.377 . S
C553 C552 1.524 . S
C553 C554 1.397 . S
C553 C558 1.363 . S
C554 H531 0.950 . S
C554 C553 1.397 . S
C554 C555 1.334 . S
C555 H532 0.950 . S
C555 C554 1.334 . S
C555 C556 1.287 . S
C556 C555 1.287 . S
C556 C557 1.524 . S
C556 H575 0.913 . S
C557 H533 0.950 . S
C557 C556 1.524 . S
C557 C558 1.415 . S
C558 H534 0.950 . S
C558 C553 1.363 . S
C558 C557 1.415 . S
C559 H535 0.951 . S
C559 C560 1.366 . S
C559 C561 1.388 . S
C560 C559 1.366 . S
C560 C564 1.385 . S
C561 H536 0.951 . S
C561 C559 1.388 . S
C561 C562 1.366 . S
C562 C561 1.366 . S
C562 C563 1.414 . S
C562 C565 1.499 . S
C563 H537 0.950 . S
C563 C562 1.414 . S
C563 C564 1.374 . S
C564 H538 0.950 . S
C564 C560 1.385 . S
C564 C563 1.374 . S
C565 C562 1.499 . S
C565 C566 1.373 . S
C565 C567 1.389 . S
C566 H539 0.950 . S
C566 C552 1.377 . S
C566 C565 1.373 . S
C567 C551 1.377 . S
C567 C565 1.389 . S
C567 C568 1.524 . S
C568 C567 1.524 . S
C568 C569 1.397 . S
C568 C573 1.363 . S
C569 H540 0.950 . S
C569 C568 1.397 . S
C569 C570 1.334 . S
C570 H541 0.950 . S
C570 C569 1.334 . S
C570 C571 1.287 . S
C571 C570 1.287 . S
C571 C572 1.524 . S
C571 H574 0.999 . S
C572 H542 0.950 . S
C572 C571 1.524 . S
C572 C573 1.415 . S
C573 H543 0.950 . S
C573 C568 1.363 . S
C573 C572 1.415 . S
H574 C571 0.999 . S
H575 C556 0.913 . S
H576 C594 0.951 . S
H577 C596 0.951 . S
H578 C598 0.950 . S
H579 C599 0.950 . S
H580 C601 0.950 . S
H581 C604 0.950 . S
H582 C605 0.950 . S
H583 C607 0.950 . S
H584 C608 0.950 . S
H585 C609 0.951 . S
H586 C611 0.951 . S
H587 C613 0.950 . S
H588 C614 0.950 . S
H589 C616 0.950 . S
H590 C619 0.950 . S
H591 C620 0.950 . S
H592 C622 0.950 . S
H593 C623 0.950 . S
C594 H576 0.951 . S
C594 C595 1.366 . S
C594 C596 1.388 . S
C595 C594 1.366 . S
C595 C599 1.385 . S
C596 H577 0.951 . S
C596 C594 1.388 . S
C596 C597 1.366 . S
C597 C596 1.366 . S
C597 C598 1.414 . S
C597 C600 1.499 . S
C598 H578 0.950 . S
C598 C597 1.414 . S
C598 C599 1.374 . S
C599 H579 0.950 . S
C599 C595 1.385 . S
C599 C598 1.374 . S
C600 C597 1.499 . S
C600 C601 1.373 . S
C600 C602 1.389 . S
C601 H580 0.950 . S
C601 C600 1.373 . S
C601 C617 1.377 . S
C602 C600 1.389 . S
C602 C603 1.524 . S
C602 C616 1.377 . S
C603 C602 1.524 . S
C603 C604 1.397 . S
C603 C608 1.363 . S
C604 H581 0.950 . S
C604 C603 1.397 . S
C604 C605 1.334 . S
C605 H582 0.950 . S
C605 C604 1.334 . S
C605 C606 1.287 . S
C606 C605 1.287 . S
C606 C607 1.524 . S
C606 H625 0.913 . S
C607 H583 0.950 . S
C607 C606 1.524 . S
C607 C608 1.415 . S
C608 H584 0.950 . S
C608 C603 1.363 . S
C608 C607 1.415 . S
C609 H585 0.951 . S
C609 C610 1.366 . S
C609 C611 1.388 . S
C610 C609 1.366 . S
C610 C614 1.385 . S
C611 H586 0.951 . S
C611 C609 1.388 . S
C611 C612 1.366 . S
C612 C611 1.366 . S
C612 C613 1.414 . S
C612 C615 1.499 . S
C613 H587 0.950 . S
C613 C612 1.414 . S
C613 C614 1.374 . S
C614 H588 0.950 . S
C614 C610 1.385 . S
C614 C613 1.374 . S
C615 C612 1.499 . S
C615 C616 1.373 . S
C615 C617 1.389 . S
C616 H589 0.950 . S
C616 C602 1.377 . S
C616 C615 1.373 . S
C617 C601 1.377 . S
C617 C615 1.389 . S
C617 C618 1.524 . S
C618 C617 1.524 . S
C618 C619 1.397 . S
C618 C623 1.363 . S
C619 H590 0.950 . S
C619 C618 1.397 . S
C619 C620 1.334 . S
C620 H591 0.950 . S
C620 C619 1.334 . S
C620 C621 1.287 . S
C621 C620 1.287 . S
C621 C622 1.524 . S
C621 H624 0.999 . S
C622 H592 0.950 . S
C622 C621 1.524 . S
C622 C623 1.415 . S
C623 H593 0.950 . S
C623 C618 1.363 . S
C623 C622 1.415 . S
H624 C621 0.999 . S
H625 C606 0.913 . S
H626 C644 0.951 . S
H627 C646 0.951 . S
H628 C648 0.939 1_554 S
H629 C649 0.950 . S
H630 C651 0.948 1_654 S
H631 C654 0.950 . S
H632 C655 0.950 . S
H633 C657 0.950 . S
H634 C658 0.950 1_455 S
H635 C659 0.951 . S
H636 C661 0.951 . S
H637 C663 0.950 . S
H638 C664 0.950 . S
H639 C666 0.950 . S
H640 C669 0.950 1_556 S
H641 C670 0.950 . S
H642 C672 0.950 . S
H643 C673 0.950 . S
C644 H626 0.951 . S
C644 C645 1.366 . S
C644 C646 1.388 . S
C645 C644 1.366 . S
C645 C649 1.385 1_556 S
C646 H627 0.951 . S
C646 C644 1.388 . S
C646 C647 1.366 . S
C647 C646 1.366 . S
C647 C648 1.428 . S
C647 C650 1.499 . S
C648 H628 0.939 1_556 S
C648 C647 1.428 . S
C648 C649 1.371 1_556 S
C649 H629 0.950 . S
C649 C645 1.385 1_554 S
C649 C648 1.371 1_554 S
C650 C647 1.499 . S
C650 C651 1.373 1_655 S
C650 C652 1.389 1_655 S
C651 H630 0.948 1_456 S
C651 C650 1.373 1_455 S
C651 C667 1.377 . S
C652 C650 1.389 1_455 S
C652 C653 1.524 1_455 S
C652 C666 1.377 . S
C653 C652 1.524 1_655 S
C653 C654 1.397 . S
C653 C658 1.363 . S
C654 H631 0.950 . S
C654 C653 1.397 . S
C654 C655 1.334 . S
C655 H632 0.950 . S
C655 C654 1.334 . S
C655 C656 1.287 . S
C656 C655 1.287 . S
C656 C657 1.524 . S
C656 H675 0.913 . S
C657 H633 0.950 . S
C657 C656 1.524 . S
C657 C658 1.415 . S
C658 H634 0.950 1_655 S
C658 C653 1.363 . S
C658 C657 1.415 . S
C659 H635 0.951 . S
C659 C660 1.366 . S
C659 C661 1.388 . S
C660 C659 1.366 . S
C660 C664 1.385 . S
C661 H636 0.951 . S
C661 C659 1.388 . S
C661 C662 1.366 . S
C662 C661 1.366 . S
C662 C663 1.414 . S
C662 C665 1.499 . S
C663 H637 0.950 . S
C663 C662 1.414 . S
C663 C664 1.374 . S
C664 H638 0.950 . S
C664 C660 1.385 . S
C664 C663 1.374 . S
C665 C662 1.499 . S
C665 C666 1.373 . S
C665 C667 1.389 . S
C666 H639 0.950 . S
C666 C652 1.377 . S
C666 C665 1.373 . S
C667 C651 1.377 . S
C667 C665 1.389 . S
C667 C668 1.524 1_556 S
C668 C667 1.524 1_554 S
C668 C669 1.397 . S
C668 C673 1.363 . S
C669 H640 0.950 1_554 S
C669 C668 1.397 . S
C669 C670 1.334 . S
C670 H641 0.950 . S
C670 C669 1.334 . S
C670 C671 1.287 . S
C671 C670 1.287 . S
C671 C672 1.524 . S
C671 H674 0.999 . S
C672 H642 0.950 . S
C672 C671 1.524 . S
C672 C673 1.415 . S
C673 H643 0.950 . S
C673 C668 1.363 . S
C673 C672 1.415 . S
H674 C671 0.999 . S
H675 C656 0.913 . S
H676 C694 0.951 . S
H677 C696 0.951 . S
H678 C698 0.950 . S
H679 C699 0.950 . S
H680 C701 0.950 . S
H681 C704 0.950 . S
H682 C705 0.950 . S
H683 C707 0.950 . S
H684 C708 0.950 . S
H685 C709 0.951 . S
H686 C711 0.951 . S
H687 C713 0.950 . S
H688 C714 0.950 . S
H689 C716 0.950 . S
H690 C719 0.950 . S
H691 C720 0.950 . S
H692 C722 0.950 . S
H693 C723 0.950 . S
C694 H676 0.951 . S
C694 C695 1.366 . S
C694 C696 1.388 . S
C695 C694 1.366 . S
C695 C699 1.385 . S
C696 H677 0.951 . S
C696 C694 1.388 . S
C696 C697 1.366 . S
C697 C696 1.366 . S
C697 C698 1.414 . S
C697 C700 1.499 . S
C698 H678 0.950 . S
C698 C697 1.414 . S
C698 C699 1.374 . S
C699 H679 0.950 . S
C699 C695 1.385 . S
C699 C698 1.374 . S
C700 C697 1.499 . S
C700 C701 1.373 . S
C700 C702 1.389 . S
C701 H680 0.950 . S
C701 C700 1.373 . S
C701 C717 1.377 . S
C702 C700 1.389 . S
C702 C703 1.524 . S
C702 C716 1.377 . S
C703 C702 1.524 . S
C703 C704 1.397 . S
C703 C708 1.363 . S
C704 H681 0.950 . S
C704 C703 1.397 . S
C704 C705 1.334 . S
C705 H682 0.950 . S
C705 C704 1.334 . S
C705 C706 1.287 . S
C706 C705 1.287 . S
C706 C707 1.524 . S
C706 H725 0.913 . S
C707 H683 0.950 . S
C707 C706 1.524 . S
C707 C708 1.415 . S
C708 H684 0.950 . S
C708 C703 1.363 . S
C708 C707 1.415 . S
C709 H685 0.951 . S
C709 C710 1.366 . S
C709 C711 1.388 . S
C710 C709 1.366 . S
C710 C714 1.385 . S
C711 H686 0.951 . S
C711 C709 1.388 . S
C711 C712 1.366 . S
C712 C711 1.366 . S
C712 C713 1.414 . S
C712 C715 1.499 . S
C713 H687 0.950 . S
C713 C712 1.414 . S
C713 C714 1.374 . S
C714 H688 0.950 . S
C714 C710 1.385 . S
C714 C713 1.374 . S
C715 C712 1.499 . S
C715 C716 1.373 . S
C715 C717 1.389 . S
C716 H689 0.950 . S
C716 C702 1.377 . S
C716 C715 1.373 . S
C717 C701 1.377 . S
C717 C715 1.389 . S
C717 C718 1.524 . S
C718 C717 1.524 . S
C718 C719 1.397 . S
C718 C723 1.363 . S
C719 H690 0.950 . S
C719 C718 1.397 . S
C719 C720 1.334 . S
C720 H691 0.950 . S
C720 C719 1.334 . S
C720 C721 1.287 . S
C721 C720 1.287 . S
C721 C722 1.524 . S
C721 H724 0.999 . S
C722 H692 0.950 . S
C722 C721 1.524 . S
C722 C723 1.415 . S
C723 H693 0.950 . S
C723 C718 1.363 . S
C723 C722 1.415 . S
H724 C721 0.999 . S
H725 C706 0.913 . S
H726 C744 0.951 . S
H727 C746 0.951 . S
H728 C748 0.950 . S
H729 C749 0.950 . S
H730 C751 0.950 . S
H731 C754 0.950 . S
H732 C755 0.950 . S
H733 C757 0.950 . S
H734 C758 0.950 . S
H735 C759 0.951 1_655 S
H736 C761 0.951 . S
H737 C763 0.950 . S
H738 C764 0.950 . S
H739 C766 0.950 . S
H740 C769 0.950 . S
H741 C770 0.950 . S
H742 C772 0.950 . S
H743 C773 0.950 . S
C744 H726 0.951 . S
C744 C745 1.366 . S
C744 C746 1.388 . S
C745 C744 1.366 . S
C745 C749 1.385 . S
C746 H727 0.951 . S
C746 C744 1.388 . S
C746 C747 1.366 . S
C747 C746 1.366 . S
C747 C748 1.414 . S
C747 C750 1.499 . S
C748 H728 0.950 . S
C748 C747 1.414 . S
C748 C749 1.374 . S
C749 H729 0.950 . S
C749 C745 1.385 . S
C749 C748 1.374 . S
C750 C747 1.499 . S
C750 C751 1.373 . S
C750 C752 1.389 . S
C751 H730 0.950 . S
C751 C750 1.373 . S
C751 C767 1.377 . S
C752 C750 1.389 . S
C752 C753 1.524 . S
C752 C766 1.377 . S
C753 C752 1.524 . S
C753 C754 1.397 . S
C753 C758 1.363 . S
C754 H731 0.950 . S
C754 C753 1.397 . S
C754 C755 1.334 . S
C755 H732 0.950 . S
C755 C754 1.334 . S
C755 C756 1.287 . S
C756 C755 1.287 . S
C756 C757 1.524 . S
C756 H775 0.913 . S
C757 H733 0.950 . S
C757 C756 1.524 . S
C757 C758 1.415 . S
C758 H734 0.950 . S
C758 C753 1.363 . S
C758 C757 1.415 . S
C759 H735 0.951 1_455 S
C759 C760 1.366 . S
C759 C761 1.388 . S
C760 C759 1.366 . S
C760 C764 1.385 . S
C761 H736 0.951 . S
C761 C759 1.388 . S
C761 C762 1.366 . S
C762 C761 1.366 . S
C762 C763 1.414 . S
C762 C765 1.499 . S
C763 H737 0.950 . S
C763 C762 1.414 . S
C763 C764 1.374 . S
C764 H738 0.950 . S
C764 C760 1.385 . S
C764 C763 1.374 . S
C765 C762 1.499 . S
C765 C766 1.373 . S
C765 C767 1.389 . S
C766 H739 0.950 . S
C766 C752 1.377 . S
C766 C765 1.373 . S
C767 C751 1.377 . S
C767 C765 1.389 . S
C767 C768 1.524 . S
C768 C767 1.524 . S
C768 C769 1.397 . S
C768 C773 1.363 . S
C769 H740 0.950 . S
C769 C768 1.397 . S
C769 C770 1.334 . S
C770 H741 0.950 . S
C770 C769 1.334 . S
C770 C771 1.287 . S
C771 C770 1.287 . S
C771 C772 1.524 . S
C771 H774 0.999 . S
C772 H742 0.950 . S
C772 C771 1.524 . S
C772 C773 1.415 . S
C773 H743 0.950 . S
C773 C768 1.363 . S
C773 C772 1.415 . S
H774 C771 0.999 . S
H775 C756 0.913 . S
H776 C794 0.951 . S
H777 C796 0.951 . S
H778 C798 0.950 . S
H779 C799 0.950 . S
H780 C801 0.950 . S
H781 C804 0.950 . S
H782 C805 0.950 . S
H783 C807 0.950 1_565 S
H784 C808 0.958 . S
H785 C809 0.951 . S
H786 C811 0.951 . S
H787 C813 0.950 . S
H788 C814 0.950 . S
H789 C816 0.950 . S
H790 C819 0.950 . S
H791 C820 0.950 . S
H792 C822 0.950 . S
H793 C823 0.950 . S
C794 H776 0.951 . S
C794 C795 1.366 . S
C794 C796 1.388 . S
C795 C794 1.366 . S
C795 C799 1.385 . S
C796 H777 0.951 . S
C796 C794 1.388 . S
C796 C797 1.366 . S
C797 C796 1.366 . S
C797 C798 1.414 . S
C797 C800 1.499 . S
C798 H778 0.950 . S
C798 C797 1.414 . S
C798 C799 1.374 . S
C799 H779 0.950 . S
C799 C795 1.385 . S
C799 C798 1.374 . S
C800 C797 1.499 . S
C800 C801 1.373 . S
C800 C802 1.389 . S
C801 H780 0.950 . S
C801 C800 1.373 . S
C801 C817 1.377 . S
C802 C800 1.389 . S
C802 C803 1.524 . S
C802 C816 1.377 . S
C803 C802 1.524 . S
C803 C804 1.397 . S
C803 C808 1.363 . S
C804 H781 0.950 . S
C804 C803 1.397 . S
C804 C805 1.334 . S
C805 H782 0.950 . S
C805 C804 1.334 . S
C805 C806 1.287 . S
C806 C805 1.287 . S
C806 C807 1.524 . S
C806 H825 0.913 . S
C807 H783 0.950 1_545 S
C807 C806 1.524 . S
C807 C808 1.415 . S
C808 H784 0.958 . S
C808 C803 1.363 . S
C808 C807 1.415 . S
C809 H785 0.951 . S
C809 C810 1.366 . S
C809 C811 1.388 1_565 S
C810 C809 1.366 . S
C810 C814 1.385 . S
C811 H786 0.951 . S
C811 C809 1.388 1_545 S
C811 C812 1.366 . S
C812 C811 1.366 . S
C812 C813 1.414 1_545 S
C812 C815 1.499 . S
C813 H787 0.950 . S
C813 C812 1.414 1_565 S
C813 C814 1.374 . S
C814 H788 0.950 . S
C814 C810 1.385 . S
C814 C813 1.374 . S
C815 C812 1.499 . S
C815 C816 1.373 . S
C815 C817 1.389 . S
C816 H789 0.950 . S
C816 C802 1.377 . S
C816 C815 1.373 . S
C817 C801 1.377 . S
C817 C815 1.389 . S
C817 C818 1.524 . S
C818 C817 1.524 . S
C818 C819 1.397 . S
C818 C823 1.363 . S
C819 H790 0.950 . S
C819 C818 1.397 . S
C819 C820 1.334 . S
C820 H791 0.950 . S
C820 C819 1.334 . S
C820 C821 1.287 . S
C821 C820 1.287 . S
C821 C822 1.524 . S
C821 H824 0.999 . S
C822 H792 0.950 . S
C822 C821 1.524 . S
C822 C823 1.415 . S
C823 H793 0.950 . S
C823 C818 1.363 . S
C823 C822 1.415 . S
H824 C821 0.999 . S
H825 C806 0.913 . S
H826 C844 0.951 . S
H827 C846 0.951 . S
H828 C848 0.950 . S
H829 C849 0.950 . S
H830 C851 0.950 . S
H831 C854 0.950 . S
H832 C855 0.950 . S
H833 C857 0.950 . S
H834 C858 0.950 . S
H835 C859 0.951 . S
H836 C861 0.951 . S
H837 C863 0.950 . S
H838 C864 0.950 . S
H839 C866 0.950 . S
H840 C869 0.950 . S
H841 C870 0.950 . S
H842 C872 0.950 . S
H843 C873 0.950 . S
C844 H826 0.951 . S
C844 C845 1.366 . S
C844 C846 1.388 . S
C845 C844 1.366 . S
C845 C849 1.385 . S
C846 H827 0.951 . S
C846 C844 1.388 . S
C846 C847 1.366 . S
C847 C846 1.366 . S
C847 C848 1.414 . S
C847 C850 1.499 . S
C848 H828 0.950 . S
C848 C847 1.414 . S
C848 C849 1.374 . S
C849 H829 0.950 . S
C849 C845 1.385 . S
C849 C848 1.374 . S
C850 C847 1.499 . S
C850 C851 1.373 . S
C850 C852 1.389 . S
C851 H830 0.950 . S
C851 C850 1.373 . S
C851 C867 1.377 . S
C852 C850 1.389 . S
C852 C853 1.524 . S
C852 C866 1.377 . S
C853 C852 1.524 . S
C853 C854 1.397 . S
C853 C858 1.363 . S
C854 H831 0.950 . S
C854 C853 1.397 . S
C854 C855 1.334 . S
C855 H832 0.950 . S
C855 C854 1.334 . S
C855 C856 1.287 . S
C856 C855 1.287 . S
C856 C857 1.524 . S
C856 H875 0.913 . S
C857 H833 0.950 . S
C857 C856 1.524 . S
C857 C858 1.415 . S
C858 H834 0.950 . S
C858 C853 1.363 . S
C858 C857 1.415 . S
C859 H835 0.951 . S
C859 C860 1.366 . S
C859 C861 1.388 . S
C860 C859 1.366 . S
C860 C864 1.385 . S
C861 H836 0.951 . S
C861 C859 1.388 . S
C861 C862 1.366 . S
C862 C861 1.366 . S
C862 C863 1.414 . S
C862 C865 1.499 . S
C863 H837 0.950 . S
C863 C862 1.414 . S
C863 C864 1.374 . S
C864 H838 0.950 . S
C864 C860 1.385 . S
C864 C863 1.374 . S
C865 C862 1.499 . S
C865 C866 1.373 . S
C865 C867 1.389 . S
C866 H839 0.950 . S
C866 C852 1.377 . S
C866 C865 1.373 . S
C867 C851 1.377 . S
C867 C865 1.389 . S
C867 C868 1.524 . S
C868 C867 1.524 . S
C868 C869 1.397 . S
C868 C873 1.363 . S
C869 H840 0.950 . S
C869 C868 1.397 . S
C869 C870 1.334 . S
C870 H841 0.950 . S
C870 C869 1.334 . S
C870 C871 1.287 . S
C871 C870 1.287 . S
C871 C872 1.524 . S
C871 H874 0.999 . S
C872 H842 0.950 . S
C872 C871 1.524 . S
C872 C873 1.415 . S
C873 H843 0.950 . S
C873 C868 1.363 . S
C873 C872 1.415 . S
H874 C871 0.999 . S
H875 C856 0.913 . S
H876 C894 0.951 . S
H877 C896 0.951 . S
H878 C898 0.950 . S
H879 C899 0.950 1_556 S
H880 C901 0.950 . S
H881 C904 0.950 . S
H882 C905 0.950 . S
H883 C907 0.950 1_545 S
H884 C908 0.952 . S
H885 C909 0.951 . S
H886 C911 0.951 . S
H887 C913 0.950 1_554 S
H888 C914 0.942 1_554 S
H889 C916 0.950 . S
H890 C919 0.950 . S
H891 C920 0.950 . S
H892 C922 0.950 . S
H893 C923 0.950 . S
C894 H876 0.951 . S
C894 C895 1.366 . S
C894 C896 1.388 . S
C895 C894 1.366 . S
C895 C899 1.385 . S
C896 H877 0.951 . S
C896 C894 1.388 . S
C896 C897 1.366 . S
C897 C896 1.366 . S
C897 C898 1.414 1_554 S
C897 C900 1.499 . S
C898 H878 0.950 . S
C898 C897 1.414 1_556 S
C898 C899 1.374 1_556 S
C899 H879 0.950 1_554 S
C899 C895 1.385 . S
C899 C898 1.374 1_554 S
C900 C897 1.499 . S
C900 C901 1.373 1_554 S
C900 C902 1.389 . S
C901 H880 0.950 . S
C901 C900 1.373 1_556 S
C901 C917 1.377 . S
C902 C900 1.389 . S
C902 C903 1.524 . S
C902 C916 1.377 1_565 S
C903 C902 1.524 . S
C903 C904 1.397 . S
C903 C908 1.363 . S
C904 H881 0.950 . S
C904 C903 1.397 . S
C904 C905 1.334 . S
C905 H882 0.950 . S
C905 C904 1.334 . S
C905 C906 1.287 . S
C906 C905 1.287 . S
C906 C907 1.524 . S
C906 H925 0.913 . S
C907 H883 0.950 1_565 S
C907 C906 1.524 . S
C907 C908 1.415 . S
C908 H884 0.952 . S
C908 C903 1.363 . S
C908 C907 1.415 . S
C909 H885 0.951 . S
C909 C910 1.366 . S
C909 C911 1.388 . S
C910 C909 1.366 . S
C910 C914 1.385 . S
C911 H886 0.951 . S
C911 C909 1.388 . S
C911 C912 1.366 . S
C912 C911 1.366 . S
C912 C913 1.414 . S
C912 C915 1.499 . S
C913 H887 0.950 1_556 S
C913 C912 1.414 . S
C913 C914 1.374 . S
C914 H888 0.942 1_556 S
C914 C910 1.385 . S
C914 C913 1.374 . S
C915 C912 1.499 . S
C915 C916 1.373 1_556 S
C915 C917 1.389 1_545 S
C916 H889 0.950 . S
C916 C902 1.377 1_545 S
C916 C915 1.373 1_554 S
C917 C901 1.377 . S
C917 C915 1.389 1_565 S
C917 C918 1.524 . S
C918 C917 1.524 . S
C918 C919 1.397 . S
C918 C923 1.363 . S
C919 H890 0.950 . S
C919 C918 1.397 . S
C919 C920 1.334 . S
C920 H891 0.950 . S
C920 C919 1.334 . S
C920 C921 1.287 . S
C921 C920 1.287 . S
C921 C922 1.524 . S
C921 H924 0.999 . S
C922 H892 0.950 . S
C922 C921 1.524 . S
C922 C923 1.415 . S
C923 H893 0.950 . S
C923 C918 1.363 . S
C923 C922 1.415 . S
H924 C921 0.999 . S
H925 C906 0.913 . S
H926 C944 0.951 . S
H927 C946 0.951 . S
H928 C948 0.950 . S
H929 C949 0.950 . S
H930 C951 0.950 . S
H931 C954 0.950 . S
H932 C955 0.950 . S
H933 C957 0.950 . S
H934 C958 0.950 . S
H935 C959 0.951 . S
H936 C961 0.951 . S
H937 C963 0.950 . S
H938 C964 0.950 . S
H939 C966 0.950 . S
H940 C969 0.950 . S
H941 C970 0.950 . S
H942 C972 0.950 . S
H943 C973 0.950 . S
C944 H926 0.951 . S
C944 C945 1.366 . S
C944 C946 1.388 . S
C945 C944 1.366 . S
C945 C949 1.385 . S
C946 H927 0.951 . S
C946 C944 1.388 . S
C946 C947 1.366 . S
C947 C946 1.366 . S
C947 C948 1.414 . S
C947 C950 1.499 . S
C948 H928 0.950 . S
C948 C947 1.414 . S
C948 C949 1.374 . S
C949 H929 0.950 . S
C949 C945 1.385 . S
C949 C948 1.374 . S
C950 C947 1.499 . S
C950 C951 1.373 . S
C950 C952 1.389 . S
C951 H930 0.950 . S
C951 C950 1.373 . S
C951 C967 1.377 . S
C952 C950 1.389 . S
C952 C953 1.524 . S
C952 C966 1.377 . S
C953 C952 1.524 . S
C953 C954 1.397 . S
C953 C958 1.363 . S
C954 H931 0.950 . S
C954 C953 1.397 . S
C954 C955 1.334 . S
C955 H932 0.950 . S
C955 C954 1.334 . S
C955 C956 1.287 . S
C956 C955 1.287 . S
C956 C957 1.524 . S
C956 H975 0.913 . S
C957 H933 0.950 . S
C957 C956 1.524 . S
C957 C958 1.415 . S
C958 H934 0.950 . S
C958 C953 1.363 . S
C958 C957 1.415 . S
C959 H935 0.951 . S
C959 C960 1.366 . S
C959 C961 1.388 . S
C960 C959 1.366 . S
C960 C964 1.385 . S
C961 H936 0.951 . S
C961 C959 1.388 . S
C961 C962 1.366 . S
C962 C961 1.366 . S
C962 C963 1.414 . S
C962 C965 1.499 . S
C963 H937 0.950 . S
C963 C962 1.414 . S
C963 C964 1.374 . S
C964 H938 0.950 . S
C964 C960 1.385 . S
C964 C963 1.374 . S
C965 C962 1.499 . S
C965 C966 1.373 . S
C965 C967 1.389 . S
C966 H939 0.950 . S
C966 C952 1.377 . S
C966 C965 1.373 . S
C967 C951 1.377 . S
C967 C965 1.389 . S
C967 C968 1.524 . S
C968 C967 1.524 . S
C968 C969 1.397 . S
C968 C973 1.363 . S
C969 H940 0.950 . S
C969 C968 1.397 . S
C969 C970 1.334 . S
C970 H941 0.950 . S
C970 C969 1.334 . S
C970 C971 1.287 . S
C971 C970 1.287 . S
C971 C972 1.524 . S
C971 H974 0.999 . S
C972 H942 0.950 . S
C972 C971 1.524 . S
C972 C973 1.415 . S
C973 H943 0.950 . S
C973 C968 1.363 . S
C973 C972 1.415 . S
H974 C971 0.999 . S
H975 C956 0.913 . S
H976 C994 0.951 . S
H977 C996 0.951 . S
H978 C998 0.950 . S
H979 C999 0.950 . S
H980 C1001 0.950 . S
H981 C1004 0.950 . S
H982 C1005 0.950 . S
H983 C1007 0.950 . S
H984 C1008 0.950 . S
H985 C1009 0.951 . S
H986 C1011 0.951 . S
H987 C1013 0.950 . S
H988 C1014 0.950 . S
H989 C1016 0.950 . S
H990 C1019 0.950 . S
H991 C1020 0.950 . S
H992 C1022 0.950 . S
H993 C1023 0.950 . S
C994 H976 0.951 . S
C994 C995 1.366 . S
C994 C996 1.388 . S
C995 C994 1.366 . S
C995 C999 1.385 . S
C996 H977 0.951 . S
C996 C994 1.388 . S
C996 C997 1.366 . S
C997 C996 1.366 . S
C997 C998 1.414 . S
C997 C1000 1.499 . S
C998 H978 0.950 . S
C998 C997 1.414 . S
C998 C999 1.374 . S
C999 H979 0.950 . S
C999 C995 1.385 . S
C999 C998 1.374 . S
C1000 C997 1.499 . S
C1000 C1001 1.373 . S
C1000 C1002 1.389 . S
C1001 H980 0.950 . S
C1001 C1000 1.373 . S
C1001 C1017 1.377 . S
C1002 C1000 1.389 . S
C1002 C1003 1.524 . S
C1002 C1016 1.377 . S
C1003 C1002 1.524 . S
C1003 C1004 1.397 . S
C1003 C1008 1.363 . S
C1004 H981 0.950 . S
C1004 C1003 1.397 . S
C1004 C1005 1.334 . S
C1005 H982 0.950 . S
C1005 C1004 1.334 . S
C1005 C1006 1.287 . S
C1006 C1005 1.287 . S
C1006 C1007 1.524 . S
C1006 H1025 0.913 . S
C1007 H983 0.950 . S
C1007 C1006 1.524 . S
C1007 C1008 1.415 . S
C1008 H984 0.950 . S
C1008 C1003 1.363 . S
C1008 C1007 1.415 . S
C1009 H985 0.951 . S
C1009 C1010 1.366 . S
C1009 C1011 1.388 . S
C1010 C1009 1.366 . S
C1010 C1014 1.385 . S
C1011 H986 0.951 . S
C1011 C1009 1.388 . S
C1011 C1012 1.366 . S
C1012 C1011 1.366 . S
C1012 C1013 1.414 . S
C1012 C1015 1.499 . S
C1013 H987 0.950 . S
C1013 C1012 1.414 . S
C1013 C1014 1.374 . S
C1014 H988 0.950 . S
C1014 C1010 1.385 . S
C1014 C1013 1.374 . S
C1015 C1012 1.499 . S
C1015 C1016 1.373 . S
C1015 C1017 1.389 . S
C1016 H989 0.950 . S
C1016 C1002 1.377 . S
C1016 C1015 1.373 . S
C1017 C1001 1.377 . S
C1017 C1015 1.389 . S
C1017 C1018 1.524 . S
C1018 C1017 1.524 . S
C1018 C1019 1.397 . S
C1018 C1023 1.363 . S
C1019 H990 0.950 . S
C1019 C1018 1.397 . S
C1019 C1020 1.334 . S
C1020 H991 0.950 . S
C1020 C1019 1.334 . S
C1020 C1021 1.287 . S
C1021 C1020 1.287 . S
C1021 C1022 1.524 . S
C1021 H1024 0.999 . S
C1022 H992 0.950 . S
C1022 C1021 1.524 . S
C1022 C1023 1.415 . S
C1023 H993 0.950 . S
C1023 C1018 1.363 . S
C1023 C1022 1.415 . S
H1024 C1021 0.999 . S
H1025 C1006 0.913 . S
H1026 C1044 0.951 . S
H1027 C1046 0.951 . S
H1028 C1048 0.950 . S
H1029 C1049 0.950 . S
H1030 C1051 0.950 . S
H1031 C1054 0.950 . S
H1032 C1055 0.950 . S
H1033 C1057 0.950 . S
H1034 C1058 0.950 . S
H1035 C1059 0.951 . S
H1036 C1061 0.951 . S
H1037 C1063 0.950 . S
H1038 C1064 0.950 . S
H1039 C1066 0.950 . S
H1040 C1069 0.950 . S
H1041 C1070 0.950 . S
H1042 C1072 0.950 . S
H1043 C1073 0.950 . S
C1044 H1026 0.951 . S
C1044 C1045 1.366 . S
C1044 C1046 1.388 . S
C1045 C1044 1.366 . S
C1045 C1049 1.385 . S
C1046 H1027 0.951 . S
C1046 C1044 1.388 . S
C1046 C1047 1.366 . S
C1047 C1046 1.366 . S
C1047 C1048 1.414 . S
C1047 C1050 1.499 . S
C1048 H1028 0.950 . S
C1048 C1047 1.414 . S
C1048 C1049 1.374 . S
C1049 H1029 0.950 . S
C1049 C1045 1.385 . S
C1049 C1048 1.374 . S
C1050 C1047 1.499 . S
C1050 C1051 1.373 1_455 S
C1050 C1052 1.389 1_455 S
C1051 H1030 0.950 . S
C1051 C1050 1.373 1_655 S
C1051 C1067 1.377 . S
C1052 C1050 1.389 1_655 S
C1052 C1053 1.524 1_655 S
C1052 C1066 1.377 . S
C1053 C1052 1.524 1_455 S
C1053 C1054 1.397 . S
C1053 C1058 1.363 . S
C1054 H1031 0.950 . S
C1054 C1053 1.397 . S
C1054 C1055 1.334 . S
C1055 H1032 0.950 . S
C1055 C1054 1.334 . S
C1055 C1056 1.287 . S
C1056 C1055 1.287 . S
C1056 C1057 1.524 . S
C1056 H1075 0.913 . S
C1057 H1033 0.950 . S
C1057 C1056 1.524 . S
C1057 C1058 1.415 . S
C1058 H1034 0.950 . S
C1058 C1053 1.363 . S
C1058 C1057 1.415 . S
C1059 H1035 0.951 . S
C1059 C1060 1.366 . S
C1059 C1061 1.388 . S
C1060 C1059 1.366 . S
C1060 C1064 1.385 . S
C1061 H1036 0.951 . S
C1061 C1059 1.388 . S
C1061 C1062 1.366 . S
C1062 C1061 1.366 . S
C1062 C1063 1.414 . S
C1062 C1065 1.499 . S
C1063 H1037 0.950 . S
C1063 C1062 1.414 . S
C1063 C1064 1.374 . S
C1064 H1038 0.950 . S
C1064 C1060 1.385 . S
C1064 C1063 1.374 . S
C1065 C1062 1.499 . S
C1065 C1066 1.373 . S
C1065 C1067 1.389 . S
C1066 H1039 0.950 . S
C1066 C1052 1.377 . S
C1066 C1065 1.373 . S
C1067 C1051 1.377 . S
C1067 C1065 1.389 . S
C1067 C1068 1.524 . S
C1068 C1067 1.524 . S
C1068 C1069 1.397 . S
C1068 C1073 1.363 . S
C1069 H1040 0.950 . S
C1069 C1068 1.397 . S
C1069 C1070 1.334 . S
C1070 H1041 0.950 . S
C1070 C1069 1.334 . S
C1070 C1071 1.287 . S
C1071 C1070 1.287 . S
C1071 C1072 1.524 . S
C1071 H1074 0.999 . S
C1072 H1042 0.950 . S
C1072 C1071 1.524 . S
C1072 C1073 1.415 . S
C1073 H1043 0.950 . S
C1073 C1068 1.363 . S
C1073 C1072 1.415 . S
H1074 C1071 0.999 . S
H1075 C1056 0.913 . S
H1076 C1094 0.951 . S
H1077 C1096 0.951 . S
H1078 C1098 0.950 . S
H1079 C1099 0.950 . S
H1080 C1101 0.950 . S
H1081 C1104 0.950 . S
H1082 C1105 0.950 . S
H1083 C1107 0.950 . S
H1084 C1108 0.950 . S
H1085 C1109 0.951 . S
H1086 C1111 0.951 . S
H1087 C1113 0.950 . S
H1088 C1114 0.950 . S
H1089 C1116 0.950 . S
H1090 C1119 0.950 . S
H1091 C1120 0.950 . S
H1092 C1122 0.950 . S
H1093 C1123 0.950 . S
C1094 H1076 0.951 . S
C1094 C1095 1.366 . S
C1094 C1096 1.388 . S
C1095 C1094 1.366 . S
C1095 C1099 1.385 . S
C1096 H1077 0.951 . S
C1096 C1094 1.388 . S
C1096 C1097 1.366 . S
C1097 C1096 1.366 . S
C1097 C1098 1.414 . S
C1097 C1100 1.499 . S
C1098 H1078 0.950 . S
C1098 C1097 1.414 . S
C1098 C1099 1.374 . S
C1099 H1079 0.950 . S
C1099 C1095 1.385 . S
C1099 C1098 1.374 . S
C1100 C1097 1.499 . S
C1100 C1101 1.373 . S
C1100 C1102 1.389 . S
C1101 H1080 0.950 . S
C1101 C1100 1.373 . S
C1101 C1117 1.377 . S
C1102 C1100 1.389 . S
C1102 C1103 1.524 . S
C1102 C1116 1.377 . S
C1103 C1102 1.524 . S
C1103 C1104 1.397 . S
C1103 C1108 1.363 . S
C1104 H1081 0.950 . S
C1104 C1103 1.397 . S
C1104 C1105 1.334 . S
C1105 H1082 0.950 . S
C1105 C1104 1.334 . S
C1105 C1106 1.287 . S
C1106 C1105 1.287 . S
C1106 C1107 1.524 . S
C1106 H1125 0.913 . S
C1107 H1083 0.950 . S
C1107 C1106 1.524 . S
C1107 C1108 1.415 . S
C1108 H1084 0.950 . S
C1108 C1103 1.363 . S
C1108 C1107 1.415 . S
C1109 H1085 0.951 . S
C1109 C1110 1.366 . S
C1109 C1111 1.388 . S
C1110 C1109 1.366 . S
C1110 C1114 1.385 . S
C1111 H1086 0.951 . S
C1111 C1109 1.388 . S
C1111 C1112 1.366 . S
C1112 C1111 1.366 . S
C1112 C1113 1.414 . S
C1112 C1115 1.499 . S
C1113 H1087 0.950 . S
C1113 C1112 1.414 . S
C1113 C1114 1.374 . S
C1114 H1088 0.950 . S
C1114 C1110 1.385 . S
C1114 C1113 1.374 . S
C1115 C1112 1.499 . S
C1115 C1116 1.373 . S
C1115 C1117 1.389 . S
C1116 H1089 0.950 . S
C1116 C1102 1.377 . S
C1116 C1115 1.373 . S
C1117 C1101 1.377 . S
C1117 C1115 1.389 . S
C1117 C1118 1.524 . S
C1118 C1117 1.524 . S
C1118 C1119 1.397 . S
C1118 C1123 1.363 . S
C1119 H1090 0.950 . S
C1119 C1118 1.397 . S
C1119 C1120 1.334 . S
C1120 H1091 0.950 . S
C1120 C1119 1.334 . S
C1120 C1121 1.287 . S
C1121 C1120 1.287 . S
C1121 C1122 1.524 . S
C1121 H1124 0.999 . S
C1122 H1092 0.950 . S
C1122 C1121 1.524 . S
C1122 C1123 1.415 . S
C1123 H1093 0.950 . S
C1123 C1118 1.363 . S
C1123 C1122 1.415 . S
H1124 C1121 0.999 . S
H1125 C1106 0.913 . S
H1126 C1144 0.951 . S
H1127 C1146 0.951 . S
H1128 C1148 0.950 . S
H1129 C1149 0.950 . S
H1130 C1151 0.950 . S
H1131 C1154 0.950 . S
H1132 C1155 0.950 . S
H1133 C1157 0.950 . S
H1134 C1158 0.950 . S
H1135 C1159 0.951 1_455 S
H1136 C1161 0.951 . S
H1137 C1163 0.950 . S
H1138 C1164 0.950 . S
H1139 C1166 0.950 . S
H1140 C1169 0.950 . S
H1141 C1170 0.950 . S
H1142 C1172 0.950 . S
H1143 C1173 0.950 . S
C1144 H1126 0.951 . S
C1144 C1145 1.366 . S
C1144 C1146 1.388 . S
C1145 C1144 1.366 . S
C1145 C1149 1.385 . S
C1146 H1127 0.951 . S
C1146 C1144 1.388 . S
C1146 C1147 1.366 . S
C1147 C1146 1.366 . S
C1147 C1148 1.414 . S
C1147 C1150 1.499 . S
C1148 H1128 0.950 . S
C1148 C1147 1.414 . S
C1148 C1149 1.374 . S
C1149 H1129 0.950 . S
C1149 C1145 1.385 . S
C1149 C1148 1.374 . S
C1150 C1147 1.499 . S
C1150 C1151 1.373 . S
C1150 C1152 1.389 . S
C1151 H1130 0.950 . S
C1151 C1150 1.373 . S
C1151 C1167 1.377 . S
C1152 C1150 1.389 . S
C1152 C1153 1.524 . S
C1152 C1166 1.377 . S
C1153 C1152 1.524 . S
C1153 C1154 1.397 . S
C1153 C1158 1.363 . S
C1154 H1131 0.950 . S
C1154 C1153 1.397 . S
C1154 C1155 1.334 . S
C1155 H1132 0.950 . S
C1155 C1154 1.334 . S
C1155 C1156 1.287 . S
C1156 C1155 1.287 . S
C1156 C1157 1.524 . S
C1156 H1175 0.913 . S
C1157 H1133 0.950 . S
C1157 C1156 1.524 . S
C1157 C1158 1.415 . S
C1158 H1134 0.950 . S
C1158 C1153 1.363 . S
C1158 C1157 1.415 . S
C1159 H1135 0.951 1_655 S
C1159 C1160 1.366 . S
C1159 C1161 1.388 . S
C1160 C1159 1.366 . S
C1160 C1164 1.385 . S
C1161 H1136 0.951 . S
C1161 C1159 1.388 . S
C1161 C1162 1.366 . S
C1162 C1161 1.366 . S
C1162 C1163 1.414 . S
C1162 C1165 1.499 . S
C1163 H1137 0.950 . S
C1163 C1162 1.414 . S
C1163 C1164 1.374 . S
C1164 H1138 0.950 . S
C1164 C1160 1.385 . S
C1164 C1163 1.374 . S
C1165 C1162 1.499 . S
C1165 C1166 1.373 . S
C1165 C1167 1.389 . S
C1166 H1139 0.950 . S
C1166 C1152 1.377 . S
C1166 C1165 1.373 . S
C1167 C1151 1.377 . S
C1167 C1165 1.389 . S
C1167 C1168 1.524 . S
C1168 C1167 1.524 . S
C1168 C1169 1.397 . S
C1168 C1173 1.363 . S
C1169 H1140 0.950 . S
C1169 C1168 1.397 . S
C1169 C1170 1.334 . S
C1170 H1141 0.950 . S
C1170 C1169 1.334 . S
C1170 C1171 1.278 1_655 S
C1171 C1170 1.278 1_455 S
C1171 C1172 1.526 . S
C1171 H1174 1.007 . S
C1172 H1142 0.950 . S
C1172 C1171 1.526 . S
C1172 C1173 1.415 1_455 S
C1173 H1143 0.950 . S
C1173 C1168 1.363 . S
C1173 C1172 1.415 1_655 S
H1174 C1171 1.007 . S
H1175 C1156 0.913 . S
H1176 C1194 0.951 . S
H1177 C1196 0.951 . S
H1178 C1198 0.950 . S
H1179 C1199 0.950 . S
H1180 C1201 0.950 . S
H1181 C1204 0.950 . S
H1182 C1205 0.950 . S
H1183 C1207 0.950 . S
H1184 C1208 0.950 . S
H1185 C1209 0.951 . S
H1186 C1211 0.951 . S
H1187 C1213 0.950 . S
H1188 C1214 0.950 . S
H1189 C1216 0.950 . S
H1190 C1219 0.950 . S
H1191 C1220 0.950 . S
H1192 C1222 0.950 . S
H1193 C1223 0.950 . S
C1194 H1176 0.951 . S
C1194 C1195 1.366 . S
C1194 C1196 1.388 . S
C1195 C1194 1.366 . S
C1195 C1199 1.385 . S
C1196 H1177 0.951 . S
C1196 C1194 1.388 . S
C1196 C1197 1.366 . S
C1197 C1196 1.366 . S
C1197 C1198 1.414 . S
C1197 C1200 1.499 . S
C1198 H1178 0.950 . S
C1198 C1197 1.414 . S
C1198 C1199 1.374 . S
C1199 H1179 0.950 . S
C1199 C1195 1.385 . S
C1199 C1198 1.374 . S
C1200 C1197 1.499 . S
C1200 C1201 1.373 . S
C1200 C1202 1.389 . S
C1201 H1180 0.950 . S
C1201 C1200 1.373 . S
C1201 C1217 1.377 . S
C1202 C1200 1.389 . S
C1202 C1203 1.524 . S
C1202 C1216 1.377 . S
C1203 C1202 1.524 . S
C1203 C1204 1.397 . S
C1203 C1208 1.363 . S
C1204 H1181 0.950 . S
C1204 C1203 1.397 . S
C1204 C1205 1.334 . S
C1205 H1182 0.950 . S
C1205 C1204 1.334 . S
C1205 C1206 1.287 . S
C1206 C1205 1.287 . S
C1206 C1207 1.524 . S
C1206 H1225 0.913 . S
C1207 H1183 0.950 . S
C1207 C1206 1.524 . S
C1207 C1208 1.415 . S
C1208 H1184 0.950 . S
C1208 C1203 1.363 . S
C1208 C1207 1.415 . S
C1209 H1185 0.951 . S
C1209 C1210 1.366 . S
C1209 C1211 1.388 . S
C1210 C1209 1.366 . S
C1210 C1214 1.385 . S
C1211 H1186 0.951 . S
C1211 C1209 1.388 . S
C1211 C1212 1.366 . S
C1212 C1211 1.366 . S
C1212 C1213 1.414 . S
C1212 C1215 1.499 . S
C1213 H1187 0.950 . S
C1213 C1212 1.414 . S
C1213 C1214 1.374 . S
C1214 H1188 0.950 . S
C1214 C1210 1.385 . S
C1214 C1213 1.374 . S
C1215 C1212 1.499 . S
C1215 C1216 1.373 . S
C1215 C1217 1.389 . S
C1216 H1189 0.950 . S
C1216 C1202 1.377 . S
C1216 C1215 1.373 . S
C1217 C1201 1.377 . S
C1217 C1215 1.389 . S
C1217 C1218 1.524 . S
C1218 C1217 1.524 . S
C1218 C1219 1.397 . S
C1218 C1223 1.363 . S
C1219 H1190 0.950 . S
C1219 C1218 1.397 . S
C1219 C1220 1.334 . S
C1220 H1191 0.950 . S
C1220 C1219 1.334 . S
C1220 C1221 1.287 . S
C1221 C1220 1.287 . S
C1221 C1222 1.524 . S
C1221 H1224 0.999 . S
C1222 H1192 0.950 . S
C1222 C1221 1.524 . S
C1222 C1223 1.415 . S
C1223 H1193 0.950 . S
C1223 C1218 1.363 . S
C1223 C1222 1.415 . S
H1224 C1221 0.999 . S
H1225 C1206 0.913 . S
H1226 C1244 0.951 . S
H1227 C1246 0.951 . S
H1228 C1248 0.950 . S
H1229 C1249 0.950 . S
H1230 C1251 0.950 . S
H1231 C1254 0.950 . S
H1232 C1255 0.950 . S
H1233 C1257 0.950 . S
H1234 C1258 0.950 . S
H1235 C1259 0.951 . S
H1236 C1261 0.951 . S
H1237 C1263 0.950 . S
H1238 C1264 0.950 . S
H1239 C1266 0.950 . S
H1240 C1269 0.950 . S
H1241 C1270 0.950 . S
H1242 C1272 0.950 . S
H1243 C1273 0.950 . S
C1244 H1226 0.951 . S
C1244 C1245 1.366 . S
C1244 C1246 1.388 . S
C1245 C1244 1.366 . S
C1245 C1249 1.385 . S
C1246 H1227 0.951 . S
C1246 C1244 1.388 . S
C1246 C1247 1.366 . S
C1247 C1246 1.366 . S
C1247 C1248 1.414 . S
C1247 C1250 1.499 . S
C1248 H1228 0.950 . S
C1248 C1247 1.414 . S
C1248 C1249 1.374 . S
C1249 H1229 0.950 . S
C1249 C1245 1.385 . S
C1249 C1248 1.374 . S
C1250 C1247 1.499 . S
C1250 C1251 1.373 . S
C1250 C1252 1.389 . S
C1251 H1230 0.950 . S
C1251 C1250 1.373 . S
C1251 C1267 1.377 . S
C1252 C1250 1.389 . S
C1252 C1253 1.524 . S
C1252 C1266 1.377 . S
C1253 C1252 1.524 . S
C1253 C1254 1.397 . S
C1253 C1258 1.363 . S
C1254 H1231 0.950 . S
C1254 C1253 1.397 . S
C1254 C1255 1.334 . S
C1255 H1232 0.950 . S
C1255 C1254 1.334 . S
C1255 C1256 1.287 . S
C1256 C1255 1.287 . S
C1256 C1257 1.524 . S
C1256 H1275 0.913 . S
C1257 H1233 0.950 . S
C1257 C1256 1.524 . S
C1257 C1258 1.415 . S
C1258 H1234 0.950 . S
C1258 C1253 1.363 . S
C1258 C1257 1.415 . S
C1259 H1235 0.951 . S
C1259 C1260 1.366 . S
C1259 C1261 1.388 . S
C1260 C1259 1.366 . S
C1260 C1264 1.385 . S
C1261 H1236 0.951 . S
C1261 C1259 1.388 . S
C1261 C1262 1.366 . S
C1262 C1261 1.366 . S
C1262 C1263 1.414 . S
C1262 C1265 1.499 . S
C1263 H1237 0.950 . S
C1263 C1262 1.414 . S
C1263 C1264 1.374 . S
C1264 H1238 0.950 . S
C1264 C1260 1.385 . S
C1264 C1263 1.374 . S
C1265 C1262 1.499 . S
C1265 C1266 1.373 . S
C1265 C1267 1.389 . S
C1266 H1239 0.950 . S
C1266 C1252 1.377 . S
C1266 C1265 1.373 . S
C1267 C1251 1.377 . S
C1267 C1265 1.389 . S
C1267 C1268 1.524 . S
C1268 C1267 1.524 . S
C1268 C1269 1.397 . S
C1268 C1273 1.363 . S
C1269 H1240 0.950 . S
C1269 C1268 1.397 . S
C1269 C1270 1.334 . S
C1270 H1241 0.950 . S
C1270 C1269 1.334 . S
C1270 C1271 1.287 . S
C1271 C1270 1.287 . S
C1271 C1272 1.524 . S
C1271 H1274 0.999 . S
C1272 H1242 0.950 . S
C1272 C1271 1.524 . S
C1272 C1273 1.415 . S
C1273 H1243 0.950 . S
C1273 C1268 1.363 . S
C1273 C1272 1.415 . S
H1274 C1271 0.999 . S
H1275 C1256 0.913 . S
H1276 C1294 0.951 . S
H1277 C1296 0.951 . S
H1278 C1298 0.950 . S
H1279 C1299 0.950 . S
H1280 C1301 0.950 . S
H1281 C1304 0.950 . S
H1282 C1305 0.950 . S
H1283 C1307 0.950 . S
H1284 C1308 0.950 . S
H1285 C1309 0.951 . S
H1286 C1311 0.951 . S
H1287 C1313 0.950 . S
H1288 C1314 0.950 . S
H1289 C1316 0.950 . S
H1290 C1319 0.950 . S
H1291 C1320 0.950 . S
H1292 C1322 0.950 . S
H1293 C1323 0.950 . S
C1294 H1276 0.951 . S
C1294 C1295 1.366 . S
C1294 C1296 1.388 . S
C1295 C1294 1.366 . S
C1295 C1299 1.385 . S
C1296 H1277 0.951 . S
C1296 C1294 1.388 . S
C1296 C1297 1.366 . S
C1297 C1296 1.366 . S
C1297 C1298 1.414 . S
C1297 C1300 1.499 . S
C1298 H1278 0.950 . S
C1298 C1297 1.414 . S
C1298 C1299 1.374 . S
C1299 H1279 0.950 . S
C1299 C1295 1.385 . S
C1299 C1298 1.374 . S
C1300 C1297 1.499 . S
C1300 C1301 1.373 . S
C1300 C1302 1.389 . S
C1301 H1280 0.950 . S
C1301 C1300 1.373 . S
C1301 C1317 1.377 . S
C1302 C1300 1.389 . S
C1302 C1303 1.524 . S
C1302 C1316 1.377 . S
C1303 C1302 1.524 . S
C1303 C1304 1.397 . S
C1303 C1308 1.363 . S
C1304 H1281 0.950 . S
C1304 C1303 1.397 . S
C1304 C1305 1.334 . S
C1305 H1282 0.950 . S
C1305 C1304 1.334 . S
C1305 C1306 1.287 . S
C1306 C1305 1.287 . S
C1306 C1307 1.524 . S
C1306 H1325 0.913 . S
C1307 H1283 0.950 . S
C1307 C1306 1.524 . S
C1307 C1308 1.415 . S
C1308 H1284 0.950 . S
C1308 C1303 1.363 . S
C1308 C1307 1.415 . S
C1309 H1285 0.951 . S
C1309 C1310 1.366 . S
C1309 C1311 1.388 . S
C1310 C1309 1.366 . S
C1310 C1314 1.385 . S
C1311 H1286 0.951 . S
C1311 C1309 1.388 . S
C1311 C1312 1.366 . S
C1312 C1311 1.366 . S
C1312 C1313 1.414 . S
C1312 C1315 1.499 . S
C1313 H1287 0.950 . S
C1313 C1312 1.414 . S
C1313 C1314 1.374 . S
C1314 H1288 0.950 . S
C1314 C1310 1.385 . S
C1314 C1313 1.374 . S
C1315 C1312 1.499 . S
C1315 C1316 1.373 . S
C1315 C1317 1.389 . S
C1316 H1289 0.950 . S
C1316 C1302 1.377 . S
C1316 C1315 1.373 . S
C1317 C1301 1.377 . S
C1317 C1315 1.389 . S
C1317 C1318 1.524 . S
C1318 C1317 1.524 . S
C1318 C1319 1.397 . S
C1318 C1323 1.363 . S
C1319 H1290 0.950 . S
C1319 C1318 1.397 . S
C1319 C1320 1.334 . S
C1320 H1291 0.950 . S
C1320 C1319 1.334 . S
C1320 C1321 1.287 . S
C1321 C1320 1.287 . S
C1321 C1322 1.524 . S
C1321 H1324 0.999 . S
C1322 H1292 0.950 . S
C1322 C1321 1.524 . S
C1322 C1323 1.415 . S
C1323 H1293 0.950 . S
C1323 C1318 1.363 . S
C1323 C1322 1.415 . S
H1324 C1321 0.999 . S
H1325 C1306 0.913 . S
H1326 C1344 0.951 . S
H1327 C1346 0.951 . S
H1328 C1348 0.950 . S
H1329 C1349 0.950 . S
H1330 C1351 0.950 . S
H1331 C1354 0.950 . S
H1332 C1355 0.950 . S
H1333 C1357 0.950 . S
H1334 C1358 0.950 . S
H1335 C1359 0.951 . S
H1336 C1361 0.951 . S
H1337 C1363 0.950 . S
H1338 C1364 0.950 . S
H1339 C1366 0.950 . S
H1340 C1369 0.950 . S
H1341 C1370 0.950 . S
H1342 C1372 0.950 . S
H1343 C1373 0.950 . S
C1344 H1326 0.951 . S
C1344 C1345 1.366 . S
C1344 C1346 1.388 . S
C1345 C1344 1.366 . S
C1345 C1349 1.385 . S
C1346 H1327 0.951 . S
C1346 C1344 1.388 . S
C1346 C1347 1.366 . S
C1347 C1346 1.366 . S
C1347 C1348 1.414 . S
C1347 C1350 1.499 . S
C1348 H1328 0.950 . S
C1348 C1347 1.414 . S
C1348 C1349 1.374 . S
C1349 H1329 0.950 . S
C1349 C1345 1.385 . S
C1349 C1348 1.374 . S
C1350 C1347 1.499 . S
C1350 C1351 1.373 . S
C1350 C1352 1.389 . S
C1351 H1330 0.950 . S
C1351 C1350 1.373 . S
C1351 C1367 1.377 . S
C1352 C1350 1.389 . S
C1352 C1353 1.524 . S
C1352 C1366 1.377 . S
C1353 C1352 1.524 . S
C1353 C1354 1.397 . S
C1353 C1358 1.363 . S
C1354 H1331 0.950 . S
C1354 C1353 1.397 . S
C1354 C1355 1.334 . S
C1355 H1332 0.950 . S
C1355 C1354 1.334 . S
C1355 C1356 1.287 . S
C1356 C1355 1.287 . S
C1356 C1357 1.524 . S
C1356 H1375 0.913 . S
C1357 H1333 0.950 . S
C1357 C1356 1.524 . S
C1357 C1358 1.415 . S
C1358 H1334 0.950 . S
C1358 C1353 1.363 . S
C1358 C1357 1.415 . S
C1359 H1335 0.951 . S
C1359 C1360 1.366 . S
C1359 C1361 1.388 . S
C1360 C1359 1.366 . S
C1360 C1364 1.385 . S
C1361 H1336 0.951 . S
C1361 C1359 1.388 . S
C1361 C1362 1.366 . S
C1362 C1361 1.366 . S
C1362 C1363 1.414 . S
C1362 C1365 1.499 . S
C1363 H1337 0.950 . S
C1363 C1362 1.414 . S
C1363 C1364 1.374 . S
C1364 H1338 0.950 . S
C1364 C1360 1.385 . S
C1364 C1363 1.374 . S
C1365 C1362 1.499 . S
C1365 C1366 1.373 . S
C1365 C1367 1.389 . S
C1366 H1339 0.950 . S
C1366 C1352 1.377 . S
C1366 C1365 1.373 . S
C1367 C1351 1.377 . S
C1367 C1365 1.389 . S
C1367 C1368 1.524 . S
C1368 C1367 1.524 . S
C1368 C1369 1.397 . S
C1368 C1373 1.363 . S
C1369 H1340 0.950 . S
C1369 C1368 1.397 . S
C1369 C1370 1.334 . S
C1370 H1341 0.950 . S
C1370 C1369 1.334 . S
C1370 C1371 1.287 . S
C1371 C1370 1.287 . S
C1371 C1372 1.524 . S
C1371 H1374 0.999 . S
C1372 H1342 0.950 . S
C1372 C1371 1.524 . S
C1372 C1373 1.415 . S
C1373 H1343 0.950 . S
C1373 C1368 1.363 . S
C1373 C1372 1.415 . S
H1374 C1371 0.999 . S
H1375 C1356 0.913 . S
H1376 C1394 0.951 . S
H1377 C1396 0.951 . S
H1378 C1398 0.950 . S
H1379 C1399 0.950 . S
H1380 C1401 0.950 . S
H1381 C1404 0.950 . S
H1382 C1405 0.950 . S
H1383 C1407 0.950 . S
H1384 C1408 0.950 . S
H1385 C1409 0.951 . S
H1386 C1411 0.951 . S
H1387 C1413 0.950 . S
H1388 C1414 0.950 . S
H1389 C1416 0.950 . S
H1390 C1419 0.950 . S
H1391 C1420 0.950 . S
H1392 C1422 0.950 . S
H1393 C1423 0.950 . S
C1394 H1376 0.951 . S
C1394 C1395 1.366 . S
C1394 C1396 1.388 . S
C1395 C1394 1.366 . S
C1395 C1399 1.385 . S
C1396 H1377 0.951 . S
C1396 C1394 1.388 . S
C1396 C1397 1.366 . S
C1397 C1396 1.366 . S
C1397 C1398 1.414 . S
C1397 C1400 1.499 . S
C1398 H1378 0.950 . S
C1398 C1397 1.414 . S
C1398 C1399 1.374 . S
C1399 H1379 0.950 . S
C1399 C1395 1.385 . S
C1399 C1398 1.374 . S
C1400 C1397 1.499 . S
C1400 C1401 1.373 . S
C1400 C1402 1.389 . S
C1401 H1380 0.950 . S
C1401 C1400 1.373 . S
C1401 C1417 1.377 . S
C1402 C1400 1.389 . S
C1402 C1403 1.524 . S
C1402 C1416 1.377 . S
C1403 C1402 1.524 . S
C1403 C1404 1.397 . S
C1403 C1408 1.363 . S
C1404 H1381 0.950 . S
C1404 C1403 1.397 . S
C1404 C1405 1.334 . S
C1405 H1382 0.950 . S
C1405 C1404 1.334 . S
C1405 C1406 1.287 . S
C1406 C1405 1.287 . S
C1406 C1407 1.524 . S
C1406 H1425 0.913 . S
C1407 H1383 0.950 . S
C1407 C1406 1.524 . S
C1407 C1408 1.415 . S
C1408 H1384 0.950 . S
C1408 C1403 1.363 . S
C1408 C1407 1.415 . S
C1409 H1385 0.951 . S
C1409 C1410 1.366 . S
C1409 C1411 1.388 . S
C1410 C1409 1.366 . S
C1410 C1414 1.385 . S
C1411 H1386 0.951 . S
C1411 C1409 1.388 . S
C1411 C1412 1.366 . S
C1412 C1411 1.366 . S
C1412 C1413 1.414 . S
C1412 C1415 1.499 . S
C1413 H1387 0.950 . S
C1413 C1412 1.414 . S
C1413 C1414 1.374 . S
C1414 H1388 0.950 . S
C1414 C1410 1.385 . S
C1414 C1413 1.374 . S
C1415 C1412 1.499 . S
C1415 C1416 1.373 . S
C1415 C1417 1.389 . S
C1416 H1389 0.950 . S
C1416 C1402 1.377 . S
C1416 C1415 1.373 . S
C1417 C1401 1.377 . S
C1417 C1415 1.389 . S
C1417 C1418 1.524 . S
C1418 C1417 1.524 . S
C1418 C1419 1.397 . S
C1418 C1423 1.363 . S
C1419 H1390 0.950 . S
C1419 C1418 1.397 . S
C1419 C1420 1.334 . S
C1420 H1391 0.950 . S
C1420 C1419 1.334 . S
C1420 C1421 1.287 . S
C1421 C1420 1.287 . S
C1421 C1422 1.524 . S
C1421 H1424 0.999 . S
C1422 H1392 0.950 . S
C1422 C1421 1.524 . S
C1422 C1423 1.415 . S
C1423 H1393 0.950 . S
C1423 C1418 1.363 . S
C1423 C1422 1.415 . S
H1424 C1421 0.999 . S
H1425 C1406 0.913 . S
H1426 C1444 0.951 . S
H1427 C1446 0.951 . S
H1428 C1448 0.950 . S
H1429 C1449 0.950 . S
H1430 C1451 0.950 . S
H1431 C1454 0.950 . S
H1432 C1455 0.950 . S
H1433 C1457 0.950 . S
H1434 C1458 0.950 . S
H1435 C1459 0.951 . S
H1436 C1461 0.951 . S
H1437 C1463 0.950 . S
H1438 C1464 0.950 . S
H1439 C1466 0.950 . S
H1440 C1469 0.950 . S
H1441 C1470 0.950 . S
H1442 C1472 0.950 . S
H1443 C1473 0.950 . S
C1444 H1426 0.951 . S
C1444 C1445 1.366 . S
C1444 C1446 1.388 . S
C1445 C1444 1.366 . S
C1445 C1449 1.385 . S
C1446 H1427 0.951 . S
C1446 C1444 1.388 . S
C1446 C1447 1.366 . S
C1447 C1446 1.366 . S
C1447 C1448 1.414 . S
C1447 C1450 1.499 . S
C1448 H1428 0.950 . S
C1448 C1447 1.414 . S
C1448 C1449 1.374 . S
C1449 H1429 0.950 . S
C1449 C1445 1.385 . S
C1449 C1448 1.374 . S
C1450 C1447 1.499 . S
C1450 C1451 1.373 . S
C1450 C1452 1.389 . S
C1451 H1430 0.950 . S
C1451 C1450 1.373 . S
C1451 C1467 1.377 . S
C1452 C1450 1.389 . S
C1452 C1453 1.524 . S
C1452 C1466 1.377 . S
C1453 C1452 1.524 . S
C1453 C1454 1.397 . S
C1453 C1458 1.363 . S
C1454 H1431 0.950 . S
C1454 C1453 1.397 . S
C1454 C1455 1.334 . S
C1455 H1432 0.950 . S
C1455 C1454 1.334 . S
C1455 C1456 1.287 . S
C1456 C1455 1.287 . S
C1456 C1457 1.524 . S
C1456 H1475 0.913 . S
C1457 H1433 0.950 . S
C1457 C1456 1.524 . S
C1457 C1458 1.415 . S
C1458 H1434 0.950 . S
C1458 C1453 1.363 . S
C1458 C1457 1.415 . S
C1459 H1435 0.951 . S
C1459 C1460 1.366 . S
C1459 C1461 1.388 . S
C1460 C1459 1.366 . S
C1460 C1464 1.385 . S
C1461 H1436 0.951 . S
C1461 C1459 1.388 . S
C1461 C1462 1.366 . S
C1462 C1461 1.366 . S
C1462 C1463 1.414 . S
C1462 C1465 1.499 . S
C1463 H1437 0.950 . S
C1463 C1462 1.414 . S
C1463 C1464 1.374 . S
C1464 H1438 0.950 . S
C1464 C1460 1.385 . S
C1464 C1463 1.374 . S
C1465 C1462 1.499 . S
C1465 C1466 1.373 . S
C1465 C1467 1.389 . S
C1466 H1439 0.950 . S
C1466 C1452 1.377 . S
C1466 C1465 1.373 . S
C1467 C1451 1.377 . S
C1467 C1465 1.389 . S
C1467 C1468 1.524 . S
C1468 C1467 1.524 . S
C1468 C1469 1.397 . S
C1468 C1473 1.363 . S
C1469 H1440 0.950 . S
C1469 C1468 1.397 . S
C1469 C1470 1.334 . S
C1470 H1441 0.950 . S
C1470 C1469 1.334 . S
C1470 C1471 1.287 . S
C1471 C1470 1.287 . S
C1471 C1472 1.524 . S
C1471 H1474 0.999 . S
C1472 H1442 0.950 . S
C1472 C1471 1.524 . S
C1472 C1473 1.415 . S
C1473 H1443 0.950 . S
C1473 C1468 1.363 . S
C1473 C1472 1.415 . S
H1474 C1471 0.999 . S
H1475 C1456 0.913 . S
H1476 C1494 0.951 . S
H1477 C1496 0.951 . S
H1478 C1498 0.950 . S
H1479 C1499 0.950 . S
H1480 C1501 0.950 . S
H1481 C1504 0.950 . S
H1482 C1505 0.950 . S
H1483 C1507 0.950 . S
H1484 C1508 0.950 . S
H1485 C1509 0.951 . S
H1486 C1511 0.951 . S
H1487 C1513 0.950 . S
H1488 C1514 0.950 . S
H1489 C1516 0.950 . S
H1490 C1519 0.950 . S
H1491 C1520 0.950 . S
H1492 C1522 0.950 . S
H1493 C1523 0.950 . S
C1494 H1476 0.951 . S
C1494 C1495 1.366 . S
C1494 C1496 1.388 . S
C1495 C1494 1.366 . S
C1495 C1499 1.385 . S
C1496 H1477 0.951 . S
C1496 C1494 1.388 . S
C1496 C1497 1.366 . S
C1497 C1496 1.366 . S
C1497 C1498 1.414 . S
C1497 C1500 1.499 . S
C1498 H1478 0.950 . S
C1498 C1497 1.414 . S
C1498 C1499 1.374 . S
C1499 H1479 0.950 . S
C1499 C1495 1.385 . S
C1499 C1498 1.374 . S
C1500 C1497 1.499 . S
C1500 C1501 1.373 . S
C1500 C1502 1.389 . S
C1501 H1480 0.950 . S
C1501 C1500 1.373 . S
C1501 C1517 1.377 . S
C1502 C1500 1.389 . S
C1502 C1503 1.524 . S
C1502 C1516 1.377 . S
C1503 C1502 1.524 . S
C1503 C1504 1.397 . S
C1503 C1508 1.363 . S
C1504 H1481 0.950 . S
C1504 C1503 1.397 . S
C1504 C1505 1.334 . S
C1505 H1482 0.950 . S
C1505 C1504 1.334 . S
C1505 C1506 1.287 . S
C1506 C1505 1.287 . S
C1506 C1507 1.524 . S
C1506 H1525 0.913 . S
C1507 H1483 0.950 . S
C1507 C1506 1.524 . S
C1507 C1508 1.415 . S
C1508 H1484 0.950 . S
C1508 C1503 1.363 . S
C1508 C1507 1.415 . S
C1509 H1485 0.951 . S
C1509 C1510 1.366 . S
C1509 C1511 1.388 . S
C1510 C1509 1.366 . S
C1510 C1514 1.385 . S
C1511 H1486 0.951 . S
C1511 C1509 1.388 . S
C1511 C1512 1.366 . S
C1512 C1511 1.366 . S
C1512 C1513 1.414 . S
C1512 C1515 1.499 . S
C1513 H1487 0.950 . S
C1513 C1512 1.414 . S
C1513 C1514 1.374 . S
C1514 H1488 0.950 . S
C1514 C1510 1.385 . S
C1514 C1513 1.374 . S
C1515 C1512 1.499 . S
C1515 C1516 1.373 . S
C1515 C1517 1.389 . S
C1516 H1489 0.950 . S
C1516 C1502 1.377 . S
C1516 C1515 1.373 . S
C1517 C1501 1.377 . S
C1517 C1515 1.389 . S
C1517 C1518 1.524 . S
C1518 C1517 1.524 . S
C1518 C1519 1.397 . S
C1518 C1523 1.363 . S
C1519 H1490 0.950 . S
C1519 C1518 1.397 . S
C1519 C1520 1.334 . S
C1520 H1491 0.950 . S
C1520 C1519 1.334 . S
C1520 C1521 1.287 . S
C1521 C1520 1.287 . S
C1521 C1522 1.524 . S
C1521 H1524 0.999 . S
C1522 H1492 0.950 . S
C1522 C1521 1.524 . S
C1522 C1523 1.415 . S
C1523 H1493 0.950 . S
C1523 C1518 1.363 . S
C1523 C1522 1.415 . S
H1524 C1521 0.999 . S
H1525 C1506 0.913 . S
H1526 C1544 0.951 . S
H1527 C1546 0.951 . S
H1528 C1548 0.950 . S
H1529 C1549 0.950 . S
H1530 C1551 0.950 . S
H1531 C1554 0.950 . S
H1532 C1555 0.950 . S
H1533 C1557 0.950 . S
H1534 C1558 0.950 . S
H1535 C1559 0.951 . S
H1536 C1561 0.951 . S
H1537 C1563 0.950 . S
H1538 C1564 0.950 . S
H1539 C1566 0.950 . S
H1540 C1569 0.950 . S
H1541 C1570 0.950 . S
H1542 C1572 0.950 . S
H1543 C1573 0.950 . S
C1544 H1526 0.951 . S
C1544 C1545 1.366 . S
C1544 C1546 1.388 1_554 S
C1545 C1544 1.366 . S
C1545 C1549 1.385 . S
C1546 H1527 0.951 . S
C1546 C1544 1.388 1_556 S
C1546 C1547 1.354 1_556 S
C1547 C1546 1.354 1_554 S
C1547 C1548 1.441 . S
C1547 C1550 1.486 1_554 S
C1548 H1528 0.950 . S
C1548 C1547 1.441 . S
C1548 C1549 1.374 . S
C1549 H1529 0.950 . S
C1549 C1545 1.385 . S
C1549 C1548 1.374 . S
C1550 C1547 1.486 1_556 S
C1550 C1551 1.373 1_556 S
C1550 C1552 1.389 . S
C1551 H1530 0.950 . S
C1551 C1550 1.373 1_554 S
C1551 C1567 1.377 1_554 S
C1552 C1550 1.389 . S
C1552 C1553 1.524 . S
C1552 C1566 1.377 . S
C1553 C1552 1.524 . S
C1553 C1554 1.397 . S
C1553 C1558 1.363 . S
C1554 H1531 0.950 . S
C1554 C1553 1.397 . S
C1554 C1555 1.334 . S
C1555 H1532 0.950 . S
C1555 C1554 1.334 . S
C1555 C1556 1.287 . S
C1556 C1555 1.287 . S
C1556 C1557 1.524 . S
C1556 H1575 0.913 . S
C1557 H1533 0.950 . S
C1557 C1556 1.524 . S
C1557 C1558 1.415 . S
C1558 H1534 0.950 . S
C1558 C1553 1.363 . S
C1558 C1557 1.415 . S
C1559 H1535 0.951 . S
C1559 C1560 1.366 . S
C1559 C1561 1.388 . S
C1560 C1559 1.366 . S
C1560 C1564 1.385 . S
C1561 H1536 0.951 . S
C1561 C1559 1.388 . S
C1561 C1562 1.366 . S
C1562 C1561 1.366 . S
C1562 C1563 1.414 . S
C1562 C1565 1.499 . S
C1563 H1537 0.950 . S
C1563 C1562 1.414 . S
C1563 C1564 1.374 . S
C1564 H1538 0.950 . S
C1564 C1560 1.385 . S
C1564 C1563 1.374 . S
C1565 C1562 1.499 . S
C1565 C1566 1.373 . S
C1565 C1567 1.389 . S
C1566 H1539 0.950 . S
C1566 C1552 1.377 . S
C1566 C1565 1.373 . S
C1567 C1551 1.377 1_556 S
C1567 C1565 1.389 . S
C1567 C1568 1.524 1_556 S
C1568 C1567 1.524 1_554 S
C1568 C1569 1.397 . S
C1568 C1573 1.363 . S
C1569 H1540 0.950 . S
C1569 C1568 1.397 . S
C1569 C1570 1.334 . S
C1570 H1541 0.950 . S
C1570 C1569 1.334 . S
C1570 C1571 1.287 . S
C1571 C1570 1.287 . S
C1571 C1572 1.524 . S
C1571 H1574 0.999 . S
C1572 H1542 0.950 . S
C1572 C1571 1.524 . S
C1572 C1573 1.415 . S
C1573 H1543 0.950 . S
C1573 C1568 1.363 . S
C1573 C1572 1.415 . S
H1574 C1571 0.999 . S
H1575 C1556 0.913 . S
C395 C7 1.476 . S
C410 C119 1.402 . S
C445 C37 1.331 . S
C460 C155 1.235 . S
C495 C54 1.556 . S
C510 C191 1.455 . S
C560 C221 1.383 . S
C545 C87 1.390 . S
C610 C263 1.353 . S
C595 C30 1.425 . S
C645 C51 1.439 . S
C660 C293 1.430 . S
C695 C84 1.602 . S
C710 C329 1.506 . S
C745 C10 1.289 1_556 S
C760 C371 1.193 . S
C795 C59 1.482 . S
C810 C341 1.434 . S
C860 C233 1.202 . S
C845 C74 1.270 . S
C910 C299 1.540 . S
C895 C18 1.604 . S
C945 C32 1.418 . S
C960 C335 1.409 . S
C1010 C125 1.423 . S
C995 C73 1.472 . S
C1045 C15 1.421 . S
C1060 C185 1.378 . S
C1110 C227 1.590 . S
C1095 C43 1.640 . S
C1160 C89 1.207 . S
C1145 C62 1.273 . S
C1210 C305 1.437 . S
C1195 C21 1.460 . S
C1260 C365 1.227 . S
C1245 C29 1.257 . S
C1295 C52 1.196 . S
C1310 C257 1.154 . S
C1360 C269 1.413 . S
C1345 C81 1.442 . S
C1410 C161 1.360 . S
C1395 C40 1.416 . S
C1445 C65 1.434 . S
C1460 C197 1.403 . S
C1510 C113 1.169 . S
C1495 C76 1.212 . S
C1560 C149 1.220 . S
C1545 C8 1.260 . S
