# Generated by pormake.
# Topology anh, (6,3)-cn, num edge types: 1
# Building blocks:
#     Node 0, Type 0, BuildingBlock: BETFEN_clean_sbu_0, # of connection points: 6
#     Node 1, Type 0, BuildingBlock: BETFEN_clean_sbu_0, # of connection points: 6
#     Node 2, Type 0, BuildingBlock: BETFEN_clean_sbu_0, # of connection points: 6
#     Node 3, Type 1, BuildingBlock: QEWDON_clean_linker_0, # of connection points: 3
#     Node 4, Type 1, BuildingBlock: QEWDON_clean_linker_0, # of connection points: 3
#     Node 5, Type 1, BuildingBlock: QEWDON_clean_linker_0, # of connection points: 3
#     Node 6, Type 1, BuildingBlock: QEWDON_clean_linker_0, # of connection points: 3
#     Node 7, Type 1, BuildingBlock: QEWDON_clean_linker_0, # of connection points: 3
#     Node 8, Type 1, BuildingBlock: QEWDON_clean_linker_0, # of connection points: 3
#     Edge 9, Type (0, 1), BuildingBlock: CIFDUS_clean_linker_0, # of connection points: 2
#     Edge 10, Type (0, 1), BuildingBlock: CIFDUS_clean_linker_0, # of connection points: 2
#     Edge 11, Type (0, 1), BuildingBlock: CIFDUS_clean_linker_0, # of connection points: 2
#     Edge 12, Type (0, 1), BuildingBlock: CIFDUS_clean_linker_0, # of connection points: 2
#     Edge 13, Type (0, 1), BuildingBlock: CIFDUS_clean_linker_0, # of connection points: 2
#     Edge 14, Type (0, 1), BuildingBlock: CIFDUS_clean_linker_0, # of connection points: 2
#     Edge 15, Type (0, 1), BuildingBlock: CIFDUS_clean_linker_0, # of connection points: 2
#     Edge 16, Type (0, 1), BuildingBlock: CIFDUS_clean_linker_0, # of connection points: 2
#     Edge 17, Type (0, 1), BuildingBlock: CIFDUS_clean_linker_0, # of connection points: 2
#     Edge 18, Type (0, 1), BuildingBlock: CIFDUS_clean_linker_0, # of connection points: 2
#     Edge 19, Type (0, 1), BuildingBlock: CIFDUS_clean_linker_0, # of connection points: 2
#     Edge 20, Type (0, 1), BuildingBlock: CIFDUS_clean_linker_0, # of connection points: 2
#     Edge 21, Type (0, 1), BuildingBlock: CIFDUS_clean_linker_0, # of connection points: 2
#     Edge 22, Type (0, 1), BuildingBlock: CIFDUS_clean_linker_0, # of connection points: 2
#     Edge 23, Type (0, 1), BuildingBlock: CIFDUS_clean_linker_0, # of connection points: 2
#     Edge 24, Type (0, 1), BuildingBlock: CIFDUS_clean_linker_0, # of connection points: 2
#     Edge 25, Type (0, 1), BuildingBlock: CIFDUS_clean_linker_0, # of connection points: 2
#     Edge 26, Type (0, 1), BuildingBlock: CIFDUS_clean_linker_0, # of connection points: 2
# Relax obj value: 0.159
# Max RMSD: 0.184
# Mean RMSD: 0.128
data_MOF--net-anh--node1-BETFEN_clean_sbu_0--node2-QEWDON_clean_linker_0--edge1-CIFDUS_clean_linker_0
_symmetry_space_group_name_H-M    P1
_symmetry_Int_Tables_number       1
_symmetry_cell_setting            triclinic
loop_
_symmetry_equiv_pos_as_xyz
'x, y, z'
_cell_length_a     27.592975
_cell_length_b     28.199108
_cell_length_c     42.557589
_cell_angle_alpha  94.607633
_cell_angle_beta   95.212806
_cell_angle_gamma 99.831018
loop_
_atom_site_label
_atom_site_type_symbol
_atom_site_fract_x
_atom_site_fract_y
_atom_site_fract_z
_atom_type_partial_charge
Pr0 Pr 0.08819 0.60604 0.14788 0.0
Pr1 Pr 0.10406 0.7141 0.14312 0.0
C2 C 0.0527 0.51585 0.16154 0.0
C3 C 1.00297 0.49036 0.16617 0.0
C4 C 0.98799 0.44148 0.15489 0.0
C5 C 0.93947 0.41805 0.15672 0.0
C6 C 0.90498 0.44318 0.16986 0.0
C7 C 0.92056 0.492 0.18172 0.0
C8 C 0.96897 0.51536 0.1798 0.0
C9 C 0.10157 0.63292 0.08723 0.0
C10 C 0.99051 0.66105 0.13436 0.0
C11 C 0.13691 0.80506 0.12992 0.0
C12 C 0.18295 0.84048 0.1383 0.0
C13 C 0.21151 0.84106 0.16741 0.0
C14 C 0.2554 0.87452 0.17508 0.0
C15 C 0.27186 0.90758 0.15362 0.0
C16 C 0.2437 0.90622 0.12421 0.0
C17 C 0.19948 0.873 0.11667 0.0
C18 C 0.08732 0.68802 0.20332 0.0
C19 C 0.20332 0.65902 0.15361 0.0
O20 O 0.07332 0.55084 0.1832 0.0
O21 O 0.05878 0.52668 0.1327 0.0
O22 O 0.07515 0.6505 0.10606 0.0
O23 O 0.12113 0.59849 0.09897 0.0
O24 O 1.02097 0.69644 0.12427 0.0
O25 O 1.00782 0.62636 0.14859 0.0
O26 O 0.14037 0.76693 0.11121 0.0
O27 O 0.1096 0.79491 0.15293 0.0
O28 O 0.11552 0.66996 0.18582 0.0
O29 O 0.06845 0.72189 0.19042 0.0
O30 O 0.17457 0.61811 0.15801 0.0
O31 O 0.18479 0.69747 0.14643 0.0
H32 H 1.01351 0.42171 0.14399 0.0
H33 H 0.92862 0.38068 0.14695 0.0
H34 H 0.89527 0.51232 0.19236 0.0
H35 H 0.97956 0.55322 0.18855 0.0
H36 H 0.1999 0.81564 0.18423 0.0
H37 H 0.27671 0.87434 0.19773 0.0
H38 H 0.25538 0.93144 0.10731 0.0
H39 H 0.17815 0.87273 0.09397 0.0
Pr40 Pr 0.63173 0.16338 0.51841 0.0
Pr41 Pr 0.51955 0.144 0.50742 0.0
C42 C 0.72867 0.19657 0.51518 0.0
C43 C 0.76075 0.2439 0.51451 0.0
C44 C 0.74867 0.28617 0.52904 0.0
C45 C 0.77845 0.3311 0.52732 0.0
C46 C 0.82079 0.33471 0.51089 0.0
C47 C 0.83255 0.29225 0.4962 0.0
C48 C 0.8028 0.24726 0.49804 0.0
C49 C 0.58428 0.14118 0.57173 0.0
C50 C 0.5712 0.25922 0.52234 0.0
C51 C 0.42128 0.11062 0.50446 0.0
C52 C 0.3877 1.06376 0.50241 0.0
C53 C 0.33742 1.06102 0.49257 0.0
C54 C 0.3052 1.01653 0.4891 0.0
C55 C 0.32269 0.97381 0.49538 0.0
C56 C 0.37321 0.97682 0.50557 0.0
C57 C 0.40543 1.02147 0.50909 0.0
C58 C 0.56665 0.16432 0.4536 0.0
C59 C 0.58104 1.04864 0.50819 0.0
O60 O 0.6969 0.18196 0.49014 0.0
O61 O 0.71007 0.18778 0.54179 0.0
O62 O 0.57233 0.1692 0.55191 0.0
O63 O 0.62436 0.12538 0.56545 0.0
O64 O 0.52868 0.22866 0.52122 0.0
O65 O 0.6131 0.24291 0.51944 0.0
O66 O 0.4496 0.1241 0.53106 0.0
O67 O 0.44426 0.11967 0.47951 0.0
O68 O 0.57872 0.13612 0.47332 0.0
O69 O 0.5293 0.18325 0.46157 0.0
O70 O 0.62193 1.07978 0.50591 0.0
O71 O 0.53891 1.06429 0.512 0.0
H72 H 0.71603 0.28449 0.54153 0.0
H73 H 0.76786 0.36314 0.53847 0.0
H74 H 0.86506 0.29373 0.48358 0.0
H75 H 0.81251 0.21505 0.48649 0.0
H76 H 0.32317 0.09327 0.48714 0.0
H77 H 0.26674 1.01547 0.48073 0.0
H78 H 0.38781 0.94472 0.51087 0.0
H79 H 0.44418 1.0229 0.51678 0.0
Pr80 Pr 0.63371 0.57957 0.8185 0.0
Pr81 Pr 0.63995 0.68066 0.84608 0.0
C82 C 0.61112 0.49299 0.78441 0.0
C83 C 0.57015 0.45182 0.78322 0.0
C84 C 0.54704 0.42978 0.75377 0.0
C85 C 0.50691 0.39183 0.75215 0.0
C86 C 0.48929 0.37512 0.78 0.0
C87 C 0.51239 0.39733 0.80954 0.0
C88 C 0.55228 0.43569 0.81115 0.0
C89 C 0.63413 0.5865 0.8842 0.0
C90 C 0.7443 0.63899 0.84046 0.0
C91 C 0.64641 0.76714 0.87897 0.0
C92 C 0.60592 0.79279 0.88606 0.0
C93 C 0.55983 0.76641 0.89137 0.0
C94 C 0.51762 0.78753 0.88895 0.0
C95 C 0.52075 0.8353 0.88109 0.0
C96 C 0.56763 0.86295 0.87876 0.0
C97 C 0.60989 0.84175 0.88113 0.0
C98 C 0.63651 0.6682 0.77968 0.0
C99 C 0.52911 0.62389 0.82442 0.0
O100 O 0.64205 0.50145 0.81022 0.0
O101 O 0.59939 0.53226 0.77383 0.0
O102 O 0.60971 0.60932 0.86609 0.0
O103 O 0.65773 0.55831 0.86842 0.0
O104 O 0.72114 0.66729 0.85764 0.0
O105 O 0.71911 0.60572 0.81867 0.0
O106 O 0.64827 0.72753 0.89273 0.0
O107 O 0.65308 0.76238 0.84894 0.0
O108 O 0.66329 0.64998 0.79906 0.0
O109 O 0.60983 0.69471 0.79436 0.0
O110 O 0.55106 0.59271 0.8087 0.0
O111 O 0.55506 0.65839 0.84472 0.0
H112 H 0.56005 0.44196 0.732 0.0
H113 H 0.49033 0.3748 0.72905 0.0
H114 H 0.49947 0.38517 0.83132 0.0
H115 H 0.56903 0.45272 0.83421 0.0
H116 H 0.55569 0.72846 0.89515 0.0
H117 H 0.48208 0.76553 0.89121 0.0
H118 H 0.57122 0.89973 0.87242 0.0
H119 H 0.64497 0.86254 0.87667 0.0
H120 H 0.59941 0.22965 0.2546 0.0
C121 C 0.57249 0.19733 0.2464 0.0
C122 C 0.55488 0.16612 0.26853 0.0
C123 C 0.55416 0.18791 0.21412 0.0
H124 H 0.50453 0.10187 0.27568 0.0
C125 C 0.51848 0.12539 0.25835 0.0
C126 C 0.49777 0.11642 0.2266 0.0
C127 C 0.51676 0.14723 0.20449 0.0
C128 C 0.57187 0.22206 0.19086 0.0
H129 H 0.50134 0.14037 0.1799 0.0
C130 C 0.62201 0.24448 0.19286 0.0
C131 C 0.63848 0.27747 0.17122 0.0
C132 C 0.53839 0.2332 0.16679 0.0
H133 H 0.49941 0.21771 0.16493 0.0
C134 C 0.55457 0.2653 0.14508 0.0
H135 H 0.64817 0.23649 0.21137 0.0
C136 C 0.60416 0.28723 0.14717 0.0
H137 H 0.61567 0.3116 0.12975 0.0
H138 H 0.52846 0.27338 0.12659 0.0
H139 H 0.57748 0.68395 0.57837 0.0
C140 C 0.57089 0.64617 0.56944 0.0
C141 C 0.57268 0.61171 0.59146 0.0
C142 C 0.56319 0.63272 0.53653 0.0
H143 H 0.56991 0.53618 0.5976 0.0
C144 C 0.56839 0.56258 0.58054 0.0
C145 C 0.56038 0.54675 0.548 0.0
C146 C 0.55646 0.58201 0.5262 0.0
C147 C 0.56614 0.67184 0.51351 0.0
H148 H 0.54903 0.56954 0.50126 0.0
C149 C 0.55894 0.72058 0.52182 0.0
C150 C 0.56714 0.7571 0.50046 0.0
C151 C 0.58007 0.6613 0.48304 0.0
H152 H 0.5879 0.62615 0.47548 0.0
C153 C 0.58613 0.69633 0.46175 0.0
H154 H 0.54795 0.73067 0.5448 0.0
C155 C 0.57996 0.74343 0.47028 0.0
H156 H 0.58535 0.76947 0.45297 0.0
H157 H 0.59669 0.68704 0.43846 0.0
H158 H 0.17546 0.65802 0.88972 0.0
C159 C 0.13695 0.65139 0.8802 0.0
C160 C 0.10093 0.64486 0.90147 0.0
C161 C 0.12336 0.65141 0.84735 0.0
H162 H 1.02311 0.63363 0.90649 0.0
C163 C 0.05092 0.63919 0.89005 0.0
C164 C 1.03603 0.63989 0.85779 0.0
C165 C 0.07223 0.64455 0.83642 0.0
C166 C 0.16236 0.66056 0.82488 0.0
H167 H 0.06019 0.6436 0.81144 0.0
C168 C 0.2103 0.64967 0.83172 0.0
C169 C 0.24705 0.66006 0.81106 0.0
C170 C 0.15253 0.68202 0.79669 0.0
H171 H 0.11743 0.69302 0.79079 0.0
C172 C 0.18851 0.69107 0.77583 0.0
H173 H 0.21946 0.63277 0.85288 0.0
C174 C 0.23542 0.68014 0.78288 0.0
H175 H 0.26315 0.68879 0.76676 0.0
H176 H 0.18024 0.70758 0.75434 0.0
H177 H 0.04588 0.62202 0.39345 0.0
C178 C 0.07803 0.64675 0.4052 0.0
C179 C 0.11687 0.66441 0.38765 0.0
C180 C 0.07932 0.66324 0.4374 0.0
H181 H 0.18578 0.71374 0.38853 0.0
C182 C 0.1573 0.69827 0.40259 0.0
C183 C 0.15881 0.71588 0.43453 0.0
C184 C 0.12003 0.69749 0.45187 0.0
C185 C 1.03597 0.64929 0.45513 0.0
H186 H 0.12084 0.71081 0.47657 0.0
C187 C 1.01396 0.60045 0.45591 0.0
C188 C 0.9734 0.5882 0.47355 0.0
C189 C 1.01637 0.68567 0.47154 0.0
H190 H 1.03212 0.72348 0.47096 0.0
C191 C 0.9758 0.67382 0.48843 0.0
H192 H 1.02929 0.57221 0.44365 0.0
C193 C 0.95444 0.62559 0.48947 0.0
H194 H 0.92261 0.6176 0.50254 0.0
H195 H 0.96077 0.70218 0.50074 0.0
H196 H 0.35652 0.99726 0.6802 0.0
C197 C 0.35837 1.02929 0.69647 0.0
C198 C 0.38179 1.07441 0.68875 0.0
C199 C 0.33805 1.02567 0.72558 0.0
H200 H 0.40328 0.15008 0.70425 0.0
C201 C 0.3841 0.1154 0.70993 0.0
C202 C 0.36485 0.11214 0.73911 0.0
C203 C 0.34239 1.06706 0.7472 0.0
C204 C 0.3137 0.97846 0.73408 0.0
H205 H 0.32806 1.06423 0.77 0.0
C206 C 0.33579 0.95682 0.75878 0.0
C207 C 0.31303 0.91184 0.76744 0.0
C208 C 0.26835 0.9552 0.71785 0.0
H209 H 0.25081 0.97152 0.69872 0.0
C210 C 0.24501 0.91098 0.72661 0.0
H211 H 0.37164 0.97448 0.77042 0.0
C212 C 0.2671 0.88935 0.75123 0.0
H213 H 0.24831 0.85501 0.75749 0.0
H214 H 0.20977 0.89332 0.7142 0.0
H215 H 0.55968 0.6381 0.08382 0.0
C216 C 0.59655 0.6337 0.09259 0.0
C217 C 0.62961 0.62389 0.07064 0.0
C218 C 0.61154 0.63882 0.12556 0.0
H219 H 0.70465 0.61589 0.06483 0.0
C220 C 0.67842 0.62127 0.0817 0.0
C221 C 0.69459 0.62681 0.11408 0.0
C222 C 0.66062 0.63367 0.13592 0.0
C223 C 0.57786 0.65336 0.14906 0.0
H224 H 0.67331 0.63678 0.16095 0.0
C225 C 0.52548 0.64037 0.14351 0.0
C226 C 0.49497 0.6573 0.1653 0.0
C227 C 0.59844 0.6829 0.17703 0.0
H228 H 0.63789 0.69561 0.18188 0.0
C229 C 0.5685 0.69799 0.19902 0.0
H230 H 0.50833 0.61808 0.12218 0.0
C231 C 0.51733 0.68539 0.19328 0.0
H232 H 0.49505 0.69812 0.21073 0.0
H233 H 0.58509 0.7204 0.22043 0.0
H234 H 0.2611 0.58883 0.14506 0.0
H235 H 0.26907 0.7417 0.17005 0.0
H236 H 0.35875 0.75437 0.17422 0.0
H237 H 0.43523 0.72318 0.17105 0.0
H238 H 0.43093 0.57143 0.14564 0.0
H239 H 0.33996 0.55737 0.14061 0.0
C240 C 0.2826 0.62475 0.15164 0.0
C241 C 0.25815 0.66418 0.15736 0.0
C242 C 0.3349 0.63217 0.15356 0.0
C243 C 0.28663 0.71065 0.16542 0.0
C244 C 0.33809 0.71806 0.16781 0.0
C245 C 0.41444 0.68693 0.16446 0.0
C246 C 0.43988 0.64835 0.15904 0.0
C247 C 0.36258 0.67923 0.16189 0.0
C248 C 0.41229 0.6018 0.14985 0.0
C249 C 0.36027 0.59374 0.14723 0.0
H250 H 0.86206 0.37041 0.45957 0.0
H251 H 0.85083 0.40686 0.55878 0.0
H252 H 0.89922 0.4871 0.55624 0.0
H253 H 0.94244 0.54775 0.52574 0.0
H254 H 0.95246 0.51319 0.4262 0.0
H255 H 0.90833 0.4309 0.42923 0.0
C256 C 0.8707 0.39573 0.4807 0.0
C257 C 0.85242 0.38268 0.50928 0.0
C258 C 0.89854 0.44207 0.47907 0.0
C259 C 0.86364 0.41616 0.53637 0.0
C260 C 0.89157 0.46199 0.53499 0.0
C261 C 0.93481 0.52233 0.50462 0.0
C262 C 0.95034 0.53691 0.4757 0.0
C263 C 0.90867 0.47552 0.5064 0.0
C264 C 0.94121 0.50298 0.4488 0.0
C265 C 0.91563 0.456 0.45048 0.0
H266 H 0.44272 0.78667 0.84148 0.0
H267 H 0.49815 0.92518 0.89463 0.0
H268 H 0.43287 0.95965 0.86681 0.0
H269 H 0.36775 0.95283 0.82258 0.0
H270 H 0.31744 0.81544 0.76682 0.0
H271 H 0.37142 0.77761 0.80152 0.0
C272 C 0.43967 0.82404 0.84772 0.0
C273 C 0.47549 0.8535 0.8699 0.0
C274 C 0.40307 0.84386 0.83101 0.0
C275 C 0.47134 0.90199 0.87737 0.0
C276 C 0.43411 0.92168 0.86144 0.0
C277 C 0.36846 0.91457 0.81805 0.0
C278 C 0.33925 0.88736 0.79168 0.0
C279 C 0.4011 0.89342 0.83732 0.0
C280 C 0.33941 0.83742 0.78687 0.0
C281 C 0.37069 0.81578 0.80654 0.0
H282 H 0.91473 0.60543 0.16019 0.0
H283 H 0.94422 0.71532 0.09582 0.0
H284 H 0.85628 0.71543 0.08532 0.0
H285 H 0.77086 0.68391 0.09313 0.0
H286 H 0.73838 0.57507 0.15737 0.0
H287 H 0.82738 0.57553 0.16963 0.0
C288 C 0.90186 0.62935 0.14388 0.0
C289 C 0.93635 0.66022 0.12877 0.0
C290 C 0.85066 0.62964 0.13802 0.0
C291 C 0.91886 0.69123 0.10788 0.0
C292 C 0.86842 0.69136 0.10179 0.0
C293 C 0.78327 0.66028 0.10986 0.0
C294 C 0.74817 0.62923 0.12413 0.0
C295 C 0.83405 0.66068 0.11658 0.0
C296 C 0.76475 0.5994 0.14615 0.0
C297 C 0.81558 0.59946 0.15296 0.0
H298 H 0.33987 0.88807 0.46812 0.0
H299 H 0.22805 0.95296 0.5111 0.0
H300 H 0.16867 0.87772 0.49811 0.0
H301 H 0.14667 0.79583 0.471 0.0
H302 H 0.25816 0.73018 0.42828 0.0
H303 H 0.31962 0.80327 0.445 0.0
C304 C 0.30279 0.8855 0.47517 0.0
C305 C 0.28836 0.92637 0.49027 0.0
C306 C 0.26867 0.84206 0.46752 0.0
C307 C 0.23993 0.92242 0.49893 0.0
C308 C 0.20598 0.87931 0.49164 0.0
C309 C 0.18466 0.79697 0.46598 0.0
C310 C 0.19769 0.75753 0.44833 0.0
C311 C 0.21966 0.83921 0.47542 0.0
C312 C 0.24699 0.76018 0.44154 0.0
C313 C 0.28216 0.80195 0.45113 0.0
H314 H 0.48692 0.29571 0.81232 0.0
H315 H 0.4018 0.35915 0.74234 0.0
H316 H 0.34493 0.28223 0.72936 0.0
H317 H 0.33131 0.19429 0.7298 0.0
H318 H 0.42053 0.1293 0.79625 0.0
H319 H 0.46248 0.20952 0.81992 0.0
C320 C 0.45497 0.29302 0.79498 0.0
C321 C 0.44904 0.33256 0.77777 0.0
C322 C 0.42326 0.24829 0.78704 0.0
C323 C 0.40761 0.32875 0.75534 0.0
C324 C 0.37508 0.28487 0.74798 0.0
C325 C 0.35841 0.19798 0.75041 0.0
C326 C 0.37332 0.15644 0.76121 0.0
C327 C 0.38414 0.24391 0.76249 0.0
C328 C 0.40845 0.16102 0.78776 0.0
C329 C 0.43298 0.20685 0.80087 0.0
H330 H 0.51514 0.96991 0.52568 0.0
H331 H 0.65418 1.00602 0.48636 0.0
H332 H 0.66315 0.92171 0.4828 0.0
H333 H 0.63221 0.83696 0.48944 0.0
H334 H 0.4942 0.79711 0.52864 0.0
H335 H 0.48496 0.88265 0.53425 0.0
C336 C 0.54732 0.95934 0.51625 0.0
C337 C 0.58381 0.99528 0.50618 0.0
C338 C 0.55284 0.9097 0.51447 0.0
C339 C 0.62536 0.98012 0.49438 0.0
C340 C 0.63068 0.9315 0.49231 0.0
C341 C 0.60002 0.84675 0.49934 0.0
C342 C 0.56384 0.80989 0.50839 0.0
C343 C 0.59477 0.89593 0.50216 0.0
C344 C 0.52295 0.82415 0.52164 0.0
C345 C 0.51745 0.87329 0.52456 0.0
H346 H 0.80764 0.5937 0.80736 0.0
H347 H 0.80484 0.70001 0.88589 0.0
H348 H 0.89425 0.71147 0.89643 0.0
H349 H 0.97314 0.69017 0.8849 0.0
H350 H 0.97854 0.5835 0.80748 0.0
H351 H 0.88862 0.57422 0.79453 0.0
C352 C 0.82661 0.61938 0.82675 0.0
C353 C 0.79917 0.64568 0.84589 0.0
C354 C 0.87863 0.62601 0.83281 0.0
C355 C 0.82462 0.67908 0.87076 0.0
C356 C 0.87594 0.68577 0.87686 0.0
C357 C 0.95467 0.66479 0.86518 0.0
C358 C 0.98244 0.63716 0.84742 0.0
C359 C 0.90323 0.65922 0.85825 0.0
C360 C 0.95807 0.6053 0.82149 0.0
C361 C 0.90661 0.59974 0.81426 0.0
H362 H 0.29731 0.96538 0.20854 0.0
H363 H 0.3485 0.93208 0.11802 0.0
H364 H 0.42366 0.99286 0.13266 0.0
H365 H 0.47486 1.05539 0.17154 0.0
H366 H 0.41983 0.09096 0.26072 0.0
H367 H 0.34702 1.02861 0.24656 0.0
C368 C 0.32514 0.97118 0.19213 0.0
C369 C 0.31756 0.94418 0.16235 0.0
C370 C 0.36783 1.00636 0.20057 0.0
C371 C 0.35346 0.95265 0.14106 0.0
C372 C 0.39647 0.98725 0.14946 0.0
C373 C 0.44683 1.04976 0.1878 0.0
C374 C 0.45356 1.0776 0.2174 0.0
C375 C 0.40402 1.01444 0.17918 0.0
C376 C 0.41671 1.06937 0.23817 0.0
C377 C 0.3746 1.03396 0.22998 0.0
H378 H 0.50623 0.31934 0.50155 0.0
H379 H 0.64406 0.32171 0.55872 0.0
H380 H 0.65333 0.4089 0.571 0.0
H381 H 0.62264 0.48552 0.56648 0.0
H382 H 0.48829 0.48647 0.50675 0.0
H383 H 0.47778 0.3984 0.49436 0.0
C384 C 0.53816 0.33893 0.51678 0.0
C385 C 0.57424 0.31318 0.52934 0.0
C386 C 0.54415 0.39027 0.52321 0.0
C387 C 0.6157 0.33991 0.54859 0.0
C388 C 0.62107 0.39011 0.55572 0.0
C389 C 0.59109 0.46659 0.5506 0.0
C390 C 0.55623 0.49323 0.53773 0.0
C391 C 0.58564 0.41582 0.54324 0.0
C392 C 0.51598 0.46754 0.51692 0.0
C393 C 0.50978 0.41685 0.50999 0.0
H394 H 0.47057 0.66679 0.86151 0.0
H395 H 0.46573 0.57657 0.77402 0.0
H396 H 0.3776 0.57858 0.76251 0.0
H397 H 0.30254 0.60915 0.77626 0.0
H398 H 0.30722 0.69666 0.86467 0.0
H399 H 0.39478 0.69265 0.87689 0.0
C400 C 0.45023 0.6473 0.83999 0.0
C401 C 0.47487 0.62176 0.81856 0.0
C402 C 0.39952 0.64825 0.83368 0.0
C403 C 0.44773 0.59639 0.79095 0.0
C404 C 0.39735 0.59768 0.7843 0.0
C405 C 0.32276 0.62684 0.79833 0.0
C406 C 0.29858 0.65306 0.81961 0.0
C407 C 0.37296 0.62389 0.80533 0.0
C408 C 0.32497 0.67583 0.84814 0.0
C409 C 0.37505 0.67376 0.85503 0.0
H410 H 0.87013 0.3506 0.18244 0.0
H411 H 0.82158 0.48173 0.15759 0.0
H412 H 0.73561 0.44284 0.15729 0.0
H413 H 0.67399 0.37135 0.16298 0.0
H414 H 0.72175 0.23864 0.18488 0.0
H415 H 0.8081 0.27849 0.18754 0.0
C416 C 0.84077 0.37059 0.17672 0.0
C417 C 0.85256 0.41917 0.17018 0.0
C418 C 0.79117 0.34774 0.17609 0.0
C419 C 0.81385 0.44463 0.16329 0.0
C420 C 0.76455 0.42229 0.16286 0.0
C421 C 0.70323 0.35092 0.16804 0.0
C422 C 0.6912 0.30194 0.1736 0.0
C423 C 0.75277 0.37382 0.16906 0.0
C424 C 0.72976 0.27647 0.18084 0.0
C425 C 0.77922 0.29916 0.18215 0.0
H426 H 0.15084 0.59515 0.04126 0.0
H427 H 0.05555 0.69857 0.05929 0.0
H428 H 0.05117 0.71492 0.00386 0.0
H429 H 0.06885 0.69539 0.94956 0.0
H430 H 0.16279 0.59146 0.93034 0.0
H431 H 0.1743 0.58053 0.98697 0.0
C432 C 0.12949 0.62151 0.03303 0.0
C433 C 0.103 0.6451 0.0542 0.0
C434 C 0.12697 0.63069 0.00095 0.0
C435 C 0.07587 0.67956 0.04338 0.0
C436 C 0.07335 0.68899 0.01168 0.0
C437 C 0.0922 0.67066 0.95786 0.0
C438 C 0.11449 0.64384 0.9359 0.0
C439 C 0.09789 0.66407 -0.00983 0.0
C440 C 0.14535 0.61255 0.9469 0.0
C441 C 0.15157 0.60602 0.9792 0.0
H442 H 0.55937 0.23174 0.41284 0.0
H443 H 0.60319 0.09327 0.42106 0.0
H444 H 0.60927 0.08382 0.36394 0.0
H445 H 0.5909 0.11032 0.3109 0.0
H446 H 0.54859 0.24948 0.30309 0.0
H447 H 0.55401 0.26386 0.36084 0.0
C448 C 0.57118 0.19996 0.40213 0.0
C449 C 0.58005 0.16291 0.42085 0.0
C450 C 0.57459 0.19486 0.36938 0.0
C451 C 0.59599 0.12217 0.407 0.0
C452 C 0.59919 0.11664 0.37434 0.0
C453 C 0.58402 0.14419 0.32199 0.0
C454 C 0.56904 0.17868 0.30295 0.0
C455 C 0.58693 0.15202 0.35518 0.0
C456 C 0.56044 0.22259 0.31737 0.0
C457 C 0.5631 0.23061 0.35034 0.0
H458 H 0.57562 0.69804 0.73406 0.0
H459 H 0.68534 0.60732 0.74763 0.0
H460 H 0.67515 0.58149 0.69094 0.0
H461 H 0.63486 0.58417 0.63733 0.0
H462 H 0.52532 0.67494 0.62338 0.0
H463 H 0.53587 0.70142 0.68009 0.0
C464 C 0.59742 0.67282 0.72453 0.0
C465 C 0.6312 0.6547 0.74502 0.0
C466 C 0.59141 0.65805 0.69177 0.0
C467 C 0.65914 0.62193 0.73236 0.0
C468 C 0.65328 0.60702 0.69993 0.0
C469 C 0.61307 0.60949 0.64675 0.0
C470 C 0.57932 0.62747 0.62611 0.0
C471 C 0.6194 0.62467 0.6794 0.0
C472 C 0.55189 0.66085 0.63867 0.0
C473 C 0.55776 0.67588 0.67114 0.0
H474 H 0.4972 0.16616 0.58319 0.0
H475 H 0.59663 1.07113 0.6113 0.0
H476 H 0.53894 1.03646 0.64751 0.0
H477 H 0.46152 1.03669 0.67305 0.0
H478 H 0.36128 0.1292 0.64185 0.0
H479 H 0.41651 0.15926 0.60332 0.0
C480 C 0.50582 0.13715 0.59673 0.0
C481 C 0.55087 0.12104 0.59448 0.0
C482 C 0.47179 0.11626 0.61639 0.0
C483 C 0.56218 0.08431 0.61278 0.0
C484 C 0.52904 1.06421 0.63325 0.0
C485 C 0.45117 1.06212 0.65698 0.0
C486 C 0.40739 1.08055 0.65997 0.0
C487 C 0.48373 1.08004 0.63533 0.0
C488 C 0.39463 0.11428 0.6396 0.0
C489 C 0.42647 0.13193 0.61794 0.0
H490 H 0.59327 0.64616 0.92425 0.0
H491 H 0.66509 0.52153 0.92084 0.0
H492 H 0.66314 0.51833 0.9776 0.0
H493 H 0.64738 0.55399 0.0287 0.0
H494 H 0.58133 0.68184 0.03451 0.0
H495 H 0.57312 0.67991 0.97643 0.0
C496 C 0.60809 0.61819 0.93601 0.0
C497 C 0.62966 0.58437 0.91841 0.0
C498 C 0.60765 0.61697 0.96906 0.0
C499 C 0.64868 0.54824 0.93385 0.0
C500 C 0.64748 0.54624 0.96633 0.0
C501 C 0.63075 0.58122 0.01722 0.0
C502 C 0.61548 0.61826 0.03582 0.0
C503 C 0.62797 0.58088 0.98421 0.0
C504 C 0.59319 0.65281 0.02068 0.0
C505 C 0.58902 0.652 0.98751 0.0
H506 H 0.14782 0.64668 0.24278 0.0
H507 H 1.01376 0.70631 0.2377 0.0
H508 H 1.00706 0.69715 0.2938 0.0
H509 H 0.044 0.68053 0.34548 0.0
H510 H 0.18184 0.62792 0.35204 0.0
H511 H 0.18231 0.6253 0.29433 0.0
C512 C 0.11687 0.657 0.25395 0.0
C513 C 0.08154 0.67749 0.23631 0.0
C514 C 0.11406 0.65298 0.28652 0.0
C515 C 1.04166 0.69092 0.25096 0.0
C516 C 1.03777 0.68564 0.283 0.0
C517 C 0.07338 0.66728 0.33409 0.0
C518 C 0.11257 0.65398 0.35275 0.0
C519 C 0.07436 0.66784 0.30119 0.0
C520 C 0.15116 0.63799 0.33796 0.0
C521 C 0.15155 0.6368 0.30505 0.0
loop_
_geom_bond_atom_site_label_1
_geom_bond_atom_site_label_2
_geom_bond_distance
_geom_bond_site_symmetry_2
_ccdc_geom_bond_type
Pr0 C2 2.880 1_455 S
Pr0 O20 2.562 1_455 S
Pr0 O21 2.490 1_455 S
Pr0 O22 2.695 . S
Pr0 O23 2.512 1_455 S
Pr0 O25 2.437 1_455 S
Pr0 O28 2.436 . S
Pr0 O30 2.438 . S
Pr1 C11 2.880 . S
Pr1 O22 2.436 . S
Pr1 O24 2.438 1_455 S
Pr1 O26 2.562 . S
Pr1 O27 2.490 . S
Pr1 O28 2.695 . S
Pr1 O29 2.512 . S
Pr1 O31 2.437 . S
C2 Pr0 2.880 1_655 S
C2 C3 1.491 . S
C2 O20 1.254 . S
C2 O21 1.225 . S
C3 C2 1.491 . S
C3 C4 1.392 . S
C3 C8 1.356 . S
C4 C3 1.392 . S
C4 C5 1.368 . S
C4 H32 0.929 . S
C5 C4 1.368 . S
C5 C6 1.386 . S
C5 H33 0.929 . S
C6 C5 1.386 . S
C6 C7 1.373 . S
C7 C6 1.373 . S
C7 C8 1.409 . S
C7 H34 0.931 . S
C8 C3 1.356 . S
C8 C7 1.409 . S
C8 H35 0.930 . S
C9 O22 1.270 . S
C9 O23 1.248 1_455 S
C10 O24 1.267 . S
C10 O25 1.278 . S
C11 Pr1 2.880 . S
C11 C12 1.491 . S
C11 O26 1.254 . S
C11 O27 1.225 . S
C12 C11 1.491 . S
C12 C13 1.392 . S
C12 C17 1.356 . S
C13 C12 1.392 . S
C13 C14 1.368 . S
C13 H36 0.929 . S
C14 C13 1.368 . S
C14 C15 1.386 . S
C14 H37 0.929 . S
C15 C14 1.386 . S
C15 C16 1.373 . S
C16 C15 1.373 . S
C16 C17 1.409 . S
C16 H38 0.931 . S
C17 C12 1.356 . S
C17 C16 1.409 . S
C17 H39 0.930 . S
C18 O28 1.270 . S
C18 O29 1.248 . S
C19 O30 1.267 . S
C19 O31 1.278 . S
O20 Pr0 2.562 1_655 S
O20 C2 1.254 . S
O21 Pr0 2.490 1_655 S
O21 C2 1.225 . S
O22 Pr0 2.695 . S
O22 Pr1 2.436 . S
O22 C9 1.270 . S
O23 Pr0 2.512 1_655 S
O23 C9 1.248 1_655 S
O24 Pr1 2.438 1_655 S
O24 C10 1.267 . S
O25 Pr0 2.437 1_655 S
O25 C10 1.278 . S
O26 Pr1 2.562 . S
O26 C11 1.254 . S
O27 Pr1 2.490 . S
O27 C11 1.225 . S
O28 Pr0 2.436 . S
O28 Pr1 2.695 . S
O28 C18 1.270 . S
O29 Pr1 2.512 . S
O29 C18 1.248 . S
O30 Pr0 2.438 . S
O30 C19 1.267 . S
O31 Pr1 2.437 . S
O31 C19 1.278 . S
H32 C4 0.929 . S
H33 C5 0.929 . S
H34 C7 0.931 . S
H35 C8 0.930 . S
H36 C13 0.929 . S
H37 C14 0.929 . S
H38 C16 0.931 . S
H39 C17 0.930 . S
Pr40 C42 2.880 . S
Pr40 O60 2.562 . S
Pr40 O61 2.490 . S
Pr40 O62 2.695 . S
Pr40 O63 2.512 . S
Pr40 O65 2.437 . S
Pr40 O68 2.436 . S
Pr40 O70 2.438 . S
Pr41 C51 2.880 1_545 S
Pr41 O62 2.436 . S
Pr41 O64 2.438 . S
Pr41 O66 2.562 1_545 S
Pr41 O67 2.490 1_545 S
Pr41 O68 2.695 . S
Pr41 O69 2.512 . S
Pr41 O71 2.437 1_545 S
C42 Pr40 2.880 . S
C42 C43 1.491 . S
C42 O60 1.254 . S
C42 O61 1.225 . S
C43 C42 1.491 . S
C43 C44 1.392 . S
C43 C48 1.356 . S
C44 C43 1.392 . S
C44 C45 1.368 . S
C44 H72 0.929 . S
C45 C44 1.368 . S
C45 C46 1.386 . S
C45 H73 0.929 . S
C46 C45 1.386 . S
C46 C47 1.373 . S
C47 C46 1.373 . S
C47 C48 1.409 . S
C47 H74 0.931 . S
C48 C43 1.356 . S
C48 C47 1.409 . S
C48 H75 0.930 . S
C49 O62 1.270 . S
C49 O63 1.248 . S
C50 O64 1.267 . S
C50 O65 1.278 . S
C51 Pr41 2.880 1_565 S
C51 C52 1.491 . S
C51 O66 1.254 . S
C51 O67 1.225 . S
C52 C51 1.491 . S
C52 C53 1.392 . S
C52 C57 1.356 . S
C53 C52 1.392 . S
C53 C54 1.368 . S
C53 H76 0.929 . S
C54 C53 1.368 . S
C54 C55 1.386 . S
C54 H77 0.929 . S
C55 C54 1.386 . S
C55 C56 1.373 . S
C56 C55 1.373 . S
C56 C57 1.409 . S
C56 H78 0.931 . S
C57 C52 1.356 . S
C57 C56 1.409 . S
C57 H79 0.930 . S
C58 O68 1.270 . S
C58 O69 1.248 . S
C59 O70 1.267 1_565 S
C59 O71 1.278 . S
O60 Pr40 2.562 . S
O60 C42 1.254 . S
O61 Pr40 2.490 . S
O61 C42 1.225 . S
O62 Pr40 2.695 . S
O62 Pr41 2.436 . S
O62 C49 1.270 . S
O63 Pr40 2.512 . S
O63 C49 1.248 . S
O64 Pr41 2.438 . S
O64 C50 1.267 . S
O65 Pr40 2.437 . S
O65 C50 1.278 . S
O66 Pr41 2.562 1_565 S
O66 C51 1.254 . S
O67 Pr41 2.490 1_565 S
O67 C51 1.225 . S
O68 Pr40 2.436 . S
O68 Pr41 2.695 . S
O68 C58 1.270 . S
O69 Pr41 2.512 . S
O69 C58 1.248 . S
O70 Pr40 2.438 . S
O70 C59 1.267 1_545 S
O71 Pr41 2.437 1_565 S
O71 C59 1.278 . S
H72 C44 0.929 . S
H73 C45 0.929 . S
H74 C47 0.931 . S
H75 C48 0.930 . S
H76 C53 0.929 . S
H77 C54 0.929 . S
H78 C56 0.931 . S
H79 C57 0.930 . S
Pr80 C82 2.880 . S
Pr80 O100 2.562 . S
Pr80 O101 2.490 . S
Pr80 O102 2.695 . S
Pr80 O103 2.512 . S
Pr80 O105 2.437 . S
Pr80 O108 2.436 . S
Pr80 O110 2.438 . S
Pr81 C91 2.880 . S
Pr81 O102 2.436 . S
Pr81 O104 2.438 . S
Pr81 O106 2.562 . S
Pr81 O107 2.490 . S
Pr81 O108 2.695 . S
Pr81 O109 2.512 . S
Pr81 O111 2.437 . S
C82 Pr80 2.880 . S
C82 C83 1.491 . S
C82 O100 1.254 . S
C82 O101 1.225 . S
C83 C82 1.491 . S
C83 C84 1.392 . S
C83 C88 1.356 . S
C84 C83 1.392 . S
C84 C85 1.368 . S
C84 H112 0.929 . S
C85 C84 1.368 . S
C85 C86 1.386 . S
C85 H113 0.929 . S
C86 C85 1.386 . S
C86 C87 1.373 . S
C87 C86 1.373 . S
C87 C88 1.409 . S
C87 H114 0.931 . S
C88 C83 1.356 . S
C88 C87 1.409 . S
C88 H115 0.930 . S
C89 O102 1.270 . S
C89 O103 1.248 . S
C90 O104 1.267 . S
C90 O105 1.278 . S
C91 Pr81 2.880 . S
C91 C92 1.491 . S
C91 O106 1.254 . S
C91 O107 1.225 . S
C92 C91 1.491 . S
C92 C93 1.392 . S
C92 C97 1.356 . S
C93 C92 1.392 . S
C93 C94 1.368 . S
C93 H116 0.929 . S
C94 C93 1.368 . S
C94 C95 1.386 . S
C94 H117 0.929 . S
C95 C94 1.386 . S
C95 C96 1.373 . S
C96 C95 1.373 . S
C96 C97 1.409 . S
C96 H118 0.931 . S
C97 C92 1.356 . S
C97 C96 1.409 . S
C97 H119 0.930 . S
C98 O108 1.270 . S
C98 O109 1.248 . S
C99 O110 1.267 . S
C99 O111 1.278 . S
O100 Pr80 2.562 . S
O100 C82 1.254 . S
O101 Pr80 2.490 . S
O101 C82 1.225 . S
O102 Pr80 2.695 . S
O102 Pr81 2.436 . S
O102 C89 1.270 . S
O103 Pr80 2.512 . S
O103 C89 1.248 . S
O104 Pr81 2.438 . S
O104 C90 1.267 . S
O105 Pr80 2.437 . S
O105 C90 1.278 . S
O106 Pr81 2.562 . S
O106 C91 1.254 . S
O107 Pr81 2.490 . S
O107 C91 1.225 . S
O108 Pr80 2.436 . S
O108 Pr81 2.695 . S
O108 C98 1.270 . S
O109 Pr81 2.512 . S
O109 C98 1.248 . S
O110 Pr80 2.438 . S
O110 C99 1.267 . S
O111 Pr81 2.437 . S
O111 C99 1.278 . S
H112 C84 0.929 . S
H113 C85 0.929 . S
H114 C87 0.931 . S
H115 C88 0.930 . S
H116 C93 0.929 . S
H117 C94 0.929 . S
H118 C96 0.931 . S
H119 C97 0.930 . S
H120 C121 0.949 . S
C121 H120 0.949 . S
C121 C122 1.395 . S
C121 C123 1.391 . S
C122 C121 1.395 . S
C122 C125 1.390 . S
C123 C121 1.391 . S
C123 C127 1.387 . S
C123 C128 1.491 . S
H124 C125 0.936 1_565 S
C125 C122 1.390 . S
C125 H124 0.936 1_545 S
C125 C126 1.378 . S
C126 C125 1.378 . S
C126 C127 1.409 . S
C127 C123 1.387 . S
C127 C126 1.409 . S
C127 H129 0.951 . S
C128 C123 1.491 . S
C128 C130 1.382 . S
C128 C132 1.404 . S
H129 C127 0.951 . S
C130 C128 1.382 . S
C130 C131 1.390 . S
C130 H135 0.949 . S
C131 C130 1.390 . S
C131 C136 1.399 . S
C132 C128 1.404 . S
C132 H133 0.950 . S
C132 C134 1.375 . S
H133 C132 0.950 . S
C134 C132 1.375 . S
C134 C136 1.382 . S
C134 H138 0.950 . S
H135 C130 0.949 . S
C136 C131 1.399 . S
C136 C134 1.382 . S
C136 H137 0.952 . S
H137 C136 0.952 . S
H138 C134 0.950 . S
H139 C140 0.949 . S
C140 H139 0.949 . S
C140 C141 1.395 . S
C140 C142 1.391 . S
C141 C140 1.395 . S
C141 C144 1.390 . S
C142 C140 1.391 . S
C142 C146 1.387 . S
C142 C147 1.491 . S
H143 C144 0.950 . S
C144 C141 1.390 . S
C144 H143 0.950 . S
C144 C145 1.378 . S
C145 C144 1.378 . S
C145 C146 1.409 . S
C146 C142 1.387 . S
C146 C145 1.409 . S
C146 H148 0.951 . S
C147 C142 1.491 . S
C147 C149 1.382 . S
C147 C151 1.404 . S
H148 C146 0.951 . S
C149 C147 1.382 . S
C149 C150 1.390 . S
C149 H154 0.949 . S
C150 C149 1.390 . S
C150 C155 1.399 . S
C151 C147 1.404 . S
C151 H152 0.950 . S
C151 C153 1.375 . S
H152 C151 0.950 . S
C153 C151 1.375 . S
C153 C155 1.382 . S
C153 H157 0.950 . S
H154 C149 0.949 . S
C155 C150 1.399 . S
C155 C153 1.382 . S
C155 H156 0.952 . S
H156 C155 0.952 . S
H157 C153 0.950 . S
H158 C159 0.949 . S
C159 H158 0.949 . S
C159 C160 1.395 . S
C159 C161 1.391 . S
C160 C159 1.395 . S
C160 C163 1.390 1_455 S
C161 C159 1.391 . S
C161 C165 1.387 . S
C161 C166 1.491 . S
H162 C163 0.950 . S
C163 C160 1.390 1_655 S
C163 H162 0.950 . S
C163 C164 1.378 . S
C164 C163 1.378 . S
C164 C165 1.409 1_655 S
C165 C161 1.387 . S
C165 C164 1.409 1_455 S
C165 H167 0.951 1_455 S
C166 C161 1.491 . S
C166 C168 1.382 . S
C166 C170 1.404 . S
H167 C165 0.951 1_655 S
C168 C166 1.382 . S
C168 C169 1.390 . S
C168 H173 0.949 . S
C169 C168 1.390 . S
C169 C174 1.399 . S
C170 C166 1.404 . S
C170 H171 0.950 . S
C170 C172 1.375 . S
H171 C170 0.950 . S
C172 C170 1.375 . S
C172 C174 1.382 . S
C172 H176 0.950 . S
H173 C168 0.949 . S
C174 C169 1.399 . S
C174 C172 1.382 . S
C174 H175 0.952 . S
H175 C174 0.952 . S
H176 C172 0.950 . S
H177 C178 0.961 . S
C178 H177 0.961 . S
C178 C179 1.381 1_655 S
C178 C180 1.394 1_655 S
C179 C178 1.381 1_455 S
C179 C182 1.390 . S
C180 C178 1.394 1_455 S
C180 C184 1.387 . S
C180 C185 1.491 1_455 S
H181 C182 0.950 . S
C182 C179 1.390 . S
C182 H181 0.950 . S
C182 C183 1.378 . S
C183 C182 1.378 . S
C183 C184 1.409 . S
C184 C180 1.387 . S
C184 C183 1.409 . S
C184 H186 0.951 . S
C185 C180 1.491 1_655 S
C185 C187 1.382 . S
C185 C189 1.404 . S
H186 C184 0.951 . S
C187 C185 1.382 . S
C187 C188 1.390 . S
C187 H192 0.949 . S
C188 C187 1.390 . S
C188 C193 1.399 . S
C189 C185 1.404 . S
C189 H190 0.950 . S
C189 C191 1.375 . S
H190 C189 0.950 . S
C191 C189 1.375 . S
C191 C193 1.382 . S
C191 H195 0.950 . S
H192 C187 0.949 . S
C193 C188 1.399 . S
C193 C191 1.382 . S
C193 H194 0.952 . S
H194 C193 0.952 . S
H195 C191 0.950 . S
H196 C197 0.949 1_565 S
C197 H196 0.949 1_545 S
C197 C198 1.395 . S
C197 C199 1.391 . S
C198 C197 1.395 . S
C198 C201 1.390 . S
C199 C197 1.391 . S
C199 C203 1.387 . S
C199 C204 1.491 1_545 S
H200 C201 0.950 . S
C201 C198 1.390 . S
C201 H200 0.950 . S
C201 C202 1.378 . S
C202 C201 1.378 . S
C202 C203 1.409 . S
C203 C199 1.387 . S
C203 C202 1.409 . S
C203 H205 0.951 . S
C204 C199 1.491 1_565 S
C204 C206 1.382 . S
C204 C208 1.404 . S
H205 C203 0.951 . S
C206 C204 1.382 . S
C206 C207 1.390 . S
C206 H211 0.949 . S
C207 C206 1.390 . S
C207 C212 1.399 . S
C208 C204 1.404 . S
C208 H209 0.950 1_565 S
C208 C210 1.375 . S
H209 C208 0.950 1_545 S
C210 C208 1.375 . S
C210 C212 1.382 . S
C210 H214 0.950 . S
H211 C206 0.949 . S
C212 C207 1.399 . S
C212 C210 1.382 . S
C212 H213 0.952 . S
H213 C212 0.952 . S
H214 C210 0.950 . S
H215 C216 0.949 . S
C216 H215 0.949 . S
C216 C217 1.395 . S
C216 C218 1.391 . S
C217 C216 1.395 . S
C217 C220 1.390 . S
C218 C216 1.391 . S
C218 C222 1.387 . S
C218 C223 1.491 . S
H219 C220 0.950 . S
C220 C217 1.390 . S
C220 H219 0.950 . S
C220 C221 1.378 . S
C221 C220 1.378 . S
C221 C222 1.409 . S
C222 C218 1.387 . S
C222 C221 1.409 . S
C222 H224 0.951 . S
C223 C218 1.491 . S
C223 C225 1.382 . S
C223 C227 1.404 . S
H224 C222 0.951 . S
C225 C223 1.382 . S
C225 C226 1.390 . S
C225 H230 0.949 . S
C226 C225 1.390 . S
C226 C231 1.399 . S
C227 C223 1.404 . S
C227 H228 0.950 . S
C227 C229 1.375 . S
H228 C227 0.950 . S
C229 C227 1.375 . S
C229 C231 1.382 . S
C229 H233 0.950 . S
H230 C225 0.949 . S
C231 C226 1.399 . S
C231 C229 1.382 . S
C231 H232 0.952 . S
H232 C231 0.952 . S
H233 C229 0.950 . S
H234 C240 0.930 . S
H235 C243 0.930 . S
H236 C244 0.930 . S
H237 C245 0.930 . S
H238 C248 0.930 . S
H239 C249 0.930 . S
C240 H234 0.930 . S
C240 C241 1.355 . S
C240 C242 1.415 . S
C241 C240 1.355 . S
C241 C243 1.419 . S
C242 C240 1.415 . S
C242 C247 1.425 . S
C242 C249 1.409 . S
C243 H235 0.930 . S
C243 C241 1.419 . S
C243 C244 1.362 . S
C244 H236 0.930 . S
C244 C243 1.362 . S
C244 C247 1.409 . S
C245 H237 0.930 . S
C245 C246 1.355 . S
C245 C247 1.415 . S
C246 C245 1.355 . S
C246 C248 1.419 . S
C247 C242 1.425 . S
C247 C244 1.409 . S
C247 C245 1.415 . S
C248 H238 0.930 . S
C248 C246 1.419 . S
C248 C249 1.362 . S
C249 H239 0.930 . S
C249 C242 1.409 . S
C249 C248 1.362 . S
H250 C256 0.930 . S
H251 C259 0.930 . S
H252 C260 0.930 . S
H253 C261 0.930 . S
H254 C264 0.930 . S
H255 C265 0.930 . S
C256 H250 0.930 . S
C256 C257 1.355 . S
C256 C258 1.415 . S
C257 C256 1.355 . S
C257 C259 1.419 . S
C258 C256 1.415 . S
C258 C263 1.425 . S
C258 C265 1.409 . S
C259 H251 0.930 . S
C259 C257 1.419 . S
C259 C260 1.362 . S
C260 H252 0.930 . S
C260 C259 1.362 . S
C260 C263 1.409 . S
C261 H253 0.930 . S
C261 C262 1.355 . S
C261 C263 1.415 . S
C262 C261 1.355 . S
C262 C264 1.419 . S
C263 C258 1.425 . S
C263 C260 1.409 . S
C263 C261 1.415 . S
C264 H254 0.930 . S
C264 C262 1.419 . S
C264 C265 1.362 . S
C265 H255 0.930 . S
C265 C258 1.409 . S
C265 C264 1.362 . S
H266 C272 0.930 . S
H267 C275 0.930 . S
H268 C276 0.930 . S
H269 C277 0.930 . S
H270 C280 0.930 . S
H271 C281 0.930 . S
C272 H266 0.930 . S
C272 C273 1.355 . S
C272 C274 1.415 . S
C273 C272 1.355 . S
C273 C275 1.419 . S
C274 C272 1.415 . S
C274 C279 1.425 . S
C274 C281 1.409 . S
C275 H267 0.930 . S
C275 C273 1.419 . S
C275 C276 1.362 . S
C276 H268 0.930 . S
C276 C275 1.362 . S
C276 C279 1.409 . S
C277 H269 0.930 . S
C277 C278 1.355 . S
C277 C279 1.415 . S
C278 C277 1.355 . S
C278 C280 1.419 . S
C279 C274 1.425 . S
C279 C276 1.409 . S
C279 C277 1.415 . S
C280 H270 0.930 . S
C280 C278 1.419 . S
C280 C281 1.362 . S
C281 H271 0.930 . S
C281 C274 1.409 . S
C281 C280 1.362 . S
H282 C288 0.930 . S
H283 C291 0.930 . S
H284 C292 0.930 . S
H285 C293 0.930 . S
H286 C296 0.930 . S
H287 C297 0.930 . S
C288 H282 0.930 . S
C288 C289 1.355 . S
C288 C290 1.415 . S
C289 C288 1.355 . S
C289 C291 1.419 . S
C290 C288 1.415 . S
C290 C295 1.425 . S
C290 C297 1.409 . S
C291 H283 0.930 . S
C291 C289 1.419 . S
C291 C292 1.362 . S
C292 H284 0.930 . S
C292 C291 1.362 . S
C292 C295 1.409 . S
C293 H285 0.930 . S
C293 C294 1.355 . S
C293 C295 1.415 . S
C294 C293 1.355 . S
C294 C296 1.419 . S
C295 C290 1.425 . S
C295 C292 1.409 . S
C295 C293 1.415 . S
C296 H286 0.930 . S
C296 C294 1.419 . S
C296 C297 1.362 . S
C297 H287 0.930 . S
C297 C290 1.409 . S
C297 C296 1.362 . S
H298 C304 0.930 . S
H299 C307 0.930 . S
H300 C308 0.930 . S
H301 C309 0.930 . S
H302 C312 0.930 . S
H303 C313 0.930 . S
C304 H298 0.930 . S
C304 C305 1.355 . S
C304 C306 1.415 . S
C305 C304 1.355 . S
C305 C307 1.419 . S
C306 C304 1.415 . S
C306 C311 1.425 . S
C306 C313 1.409 . S
C307 H299 0.930 . S
C307 C305 1.419 . S
C307 C308 1.362 . S
C308 H300 0.930 . S
C308 C307 1.362 . S
C308 C311 1.409 . S
C309 H301 0.930 . S
C309 C310 1.355 . S
C309 C311 1.415 . S
C310 C309 1.355 . S
C310 C312 1.419 . S
C311 C306 1.425 . S
C311 C308 1.409 . S
C311 C309 1.415 . S
C312 H302 0.930 . S
C312 C310 1.419 . S
C312 C313 1.362 . S
C313 H303 0.930 . S
C313 C306 1.409 . S
C313 C312 1.362 . S
H314 C320 0.930 . S
H315 C323 0.930 . S
H316 C324 0.930 . S
H317 C325 0.930 . S
H318 C328 0.930 . S
H319 C329 0.930 . S
C320 H314 0.930 . S
C320 C321 1.355 . S
C320 C322 1.415 . S
C321 C320 1.355 . S
C321 C323 1.419 . S
C322 C320 1.415 . S
C322 C327 1.425 . S
C322 C329 1.409 . S
C323 H315 0.930 . S
C323 C321 1.419 . S
C323 C324 1.362 . S
C324 H316 0.930 . S
C324 C323 1.362 . S
C324 C327 1.409 . S
C325 H317 0.930 . S
C325 C326 1.355 . S
C325 C327 1.415 . S
C326 C325 1.355 . S
C326 C328 1.419 . S
C327 C322 1.425 . S
C327 C324 1.409 . S
C327 C325 1.415 . S
C328 H318 0.930 . S
C328 C326 1.419 . S
C328 C329 1.362 . S
C329 H319 0.930 . S
C329 C322 1.409 . S
C329 C328 1.362 . S
H330 C336 0.930 . S
H331 C339 0.930 . S
H332 C340 0.930 . S
H333 C341 0.930 . S
H334 C344 0.930 . S
H335 C345 0.930 . S
C336 H330 0.930 . S
C336 C337 1.355 . S
C336 C338 1.415 . S
C337 C336 1.355 . S
C337 C339 1.419 . S
C338 C336 1.415 . S
C338 C343 1.425 . S
C338 C345 1.409 . S
C339 H331 0.930 . S
C339 C337 1.419 . S
C339 C340 1.362 . S
C340 H332 0.930 . S
C340 C339 1.362 . S
C340 C343 1.409 . S
C341 H333 0.930 . S
C341 C342 1.355 . S
C341 C343 1.415 . S
C342 C341 1.355 . S
C342 C344 1.419 . S
C343 C338 1.425 . S
C343 C340 1.409 . S
C343 C341 1.415 . S
C344 H334 0.930 . S
C344 C342 1.419 . S
C344 C345 1.362 . S
C345 H335 0.930 . S
C345 C338 1.409 . S
C345 C344 1.362 . S
H346 C352 0.930 . S
H347 C355 0.930 . S
H348 C356 0.930 . S
H349 C357 0.930 . S
H350 C360 0.930 . S
H351 C361 0.930 . S
C352 H346 0.930 . S
C352 C353 1.355 . S
C352 C354 1.415 . S
C353 C352 1.355 . S
C353 C355 1.419 . S
C354 C352 1.415 . S
C354 C359 1.425 . S
C354 C361 1.409 . S
C355 H347 0.930 . S
C355 C353 1.419 . S
C355 C356 1.362 . S
C356 H348 0.930 . S
C356 C355 1.362 . S
C356 C359 1.409 . S
C357 H349 0.930 . S
C357 C358 1.355 . S
C357 C359 1.415 . S
C358 C357 1.355 . S
C358 C360 1.419 . S
C359 C354 1.425 . S
C359 C356 1.409 . S
C359 C357 1.415 . S
C360 H350 0.930 . S
C360 C358 1.419 . S
C360 C361 1.362 . S
C361 H351 0.930 . S
C361 C354 1.409 . S
C361 C360 1.362 . S
H362 C368 0.930 . S
H363 C371 0.930 . S
H364 C372 0.930 . S
H365 C373 0.930 . S
H366 C376 0.930 1_545 S
H367 C377 0.930 . S
C368 H362 0.930 . S
C368 C369 1.355 . S
C368 C370 1.415 . S
C369 C368 1.355 . S
C369 C371 1.419 . S
C370 C368 1.415 . S
C370 C375 1.425 . S
C370 C377 1.409 . S
C371 H363 0.930 . S
C371 C369 1.419 . S
C371 C372 1.362 . S
C372 H364 0.930 . S
C372 C371 1.362 . S
C372 C375 1.409 . S
C373 H365 0.930 . S
C373 C374 1.355 . S
C373 C375 1.415 . S
C374 C373 1.355 . S
C374 C376 1.419 . S
C375 C370 1.425 . S
C375 C372 1.409 . S
C375 C373 1.415 . S
C376 H366 0.930 1_565 S
C376 C374 1.419 . S
C376 C377 1.362 . S
C377 H367 0.930 . S
C377 C370 1.409 . S
C377 C376 1.362 . S
H378 C384 0.930 . S
H379 C387 0.930 . S
H380 C388 0.930 . S
H381 C389 0.930 . S
H382 C392 0.930 . S
H383 C393 0.930 . S
C384 H378 0.930 . S
C384 C385 1.355 . S
C384 C386 1.415 . S
C385 C384 1.355 . S
C385 C387 1.419 . S
C386 C384 1.415 . S
C386 C391 1.425 . S
C386 C393 1.409 . S
C387 H379 0.930 . S
C387 C385 1.419 . S
C387 C388 1.362 . S
C388 H380 0.930 . S
C388 C387 1.362 . S
C388 C391 1.409 . S
C389 H381 0.930 . S
C389 C390 1.355 . S
C389 C391 1.415 . S
C390 C389 1.355 . S
C390 C392 1.419 . S
C391 C386 1.425 . S
C391 C388 1.409 . S
C391 C389 1.415 . S
C392 H382 0.930 . S
C392 C390 1.419 . S
C392 C393 1.362 . S
C393 H383 0.930 . S
C393 C386 1.409 . S
C393 C392 1.362 . S
H394 C400 0.930 . S
H395 C403 0.930 . S
H396 C404 0.930 . S
H397 C405 0.930 . S
H398 C408 0.930 . S
H399 C409 0.930 . S
C400 H394 0.930 . S
C400 C401 1.355 . S
C400 C402 1.415 . S
C401 C400 1.355 . S
C401 C403 1.419 . S
C402 C400 1.415 . S
C402 C407 1.425 . S
C402 C409 1.409 . S
C403 H395 0.930 . S
C403 C401 1.419 . S
C403 C404 1.362 . S
C404 H396 0.930 . S
C404 C403 1.362 . S
C404 C407 1.409 . S
C405 H397 0.930 . S
C405 C406 1.355 . S
C405 C407 1.415 . S
C406 C405 1.355 . S
C406 C408 1.419 . S
C407 C402 1.425 . S
C407 C404 1.409 . S
C407 C405 1.415 . S
C408 H398 0.930 . S
C408 C406 1.419 . S
C408 C409 1.362 . S
C409 H399 0.930 . S
C409 C402 1.409 . S
C409 C408 1.362 . S
H410 C416 0.930 . S
H411 C419 0.930 . S
H412 C420 0.930 . S
H413 C421 0.930 . S
H414 C424 0.930 . S
H415 C425 0.930 . S
C416 H410 0.930 . S
C416 C417 1.355 . S
C416 C418 1.415 . S
C417 C416 1.355 . S
C417 C419 1.419 . S
C418 C416 1.415 . S
C418 C423 1.425 . S
C418 C425 1.409 . S
C419 H411 0.930 . S
C419 C417 1.419 . S
C419 C420 1.362 . S
C420 H412 0.930 . S
C420 C419 1.362 . S
C420 C423 1.409 . S
C421 H413 0.930 . S
C421 C422 1.355 . S
C421 C423 1.415 . S
C422 C421 1.355 . S
C422 C424 1.419 . S
C423 C418 1.425 . S
C423 C420 1.409 . S
C423 C421 1.415 . S
C424 H414 0.930 . S
C424 C422 1.419 . S
C424 C425 1.362 . S
C425 H415 0.930 . S
C425 C418 1.409 . S
C425 C424 1.362 . S
H426 C432 0.930 . S
H427 C435 0.930 . S
H428 C436 0.930 . S
H429 C437 0.930 . S
H430 C440 0.930 . S
H431 C441 0.930 1_554 S
C432 H426 0.930 . S
C432 C433 1.355 . S
C432 C434 1.415 . S
C433 C432 1.355 . S
C433 C435 1.419 . S
C434 C432 1.415 . S
C434 C439 1.425 1_554 S
C434 C441 1.409 1_554 S
C435 H427 0.930 . S
C435 C433 1.419 . S
C435 C436 1.362 . S
C436 H428 0.930 . S
C436 C435 1.362 . S
C436 C439 1.409 1_554 S
C437 H429 0.930 . S
C437 C438 1.355 . S
C437 C439 1.415 . S
C438 C437 1.355 . S
C438 C440 1.419 . S
C439 C434 1.425 1_556 S
C439 C436 1.409 1_556 S
C439 C437 1.415 . S
C440 H430 0.930 . S
C440 C438 1.419 . S
C440 C441 1.362 . S
C441 H431 0.930 1_556 S
C441 C434 1.409 1_556 S
C441 C440 1.362 . S
H442 C448 0.930 . S
H443 C451 0.930 . S
H444 C452 0.930 . S
H445 C453 0.930 . S
H446 C456 0.930 . S
H447 C457 0.930 . S
C448 H442 0.930 . S
C448 C449 1.355 . S
C448 C450 1.415 . S
C449 C448 1.355 . S
C449 C451 1.419 . S
C450 C448 1.415 . S
C450 C455 1.425 . S
C450 C457 1.409 . S
C451 H443 0.930 . S
C451 C449 1.419 . S
C451 C452 1.362 . S
C452 H444 0.930 . S
C452 C451 1.362 . S
C452 C455 1.409 . S
C453 H445 0.930 . S
C453 C454 1.355 . S
C453 C455 1.415 . S
C454 C453 1.355 . S
C454 C456 1.419 . S
C455 C450 1.425 . S
C455 C452 1.409 . S
C455 C453 1.415 . S
C456 H446 0.930 . S
C456 C454 1.419 . S
C456 C457 1.362 . S
C457 H447 0.930 . S
C457 C450 1.409 . S
C457 C456 1.362 . S
H458 C464 0.930 . S
H459 C467 0.930 . S
H460 C468 0.930 . S
H461 C469 0.930 . S
H462 C472 0.930 . S
H463 C473 0.930 . S
C464 H458 0.930 . S
C464 C465 1.355 . S
C464 C466 1.415 . S
C465 C464 1.355 . S
C465 C467 1.419 . S
C466 C464 1.415 . S
C466 C471 1.425 . S
C466 C473 1.409 . S
C467 H459 0.930 . S
C467 C465 1.419 . S
C467 C468 1.362 . S
C468 H460 0.930 . S
C468 C467 1.362 . S
C468 C471 1.409 . S
C469 H461 0.930 . S
C469 C470 1.355 . S
C469 C471 1.415 . S
C470 C469 1.355 . S
C470 C472 1.419 . S
C471 C466 1.425 . S
C471 C468 1.409 . S
C471 C469 1.415 . S
C472 H462 0.930 . S
C472 C470 1.419 . S
C472 C473 1.362 . S
C473 H463 0.930 . S
C473 C466 1.409 . S
C473 C472 1.362 . S
H474 C480 0.930 . S
H475 C483 0.930 . S
H476 C484 0.930 . S
H477 C485 0.930 . S
H478 C488 0.930 1_565 S
H479 C489 0.930 1_565 S
C480 H474 0.930 . S
C480 C481 1.355 . S
C480 C482 1.415 . S
C481 C480 1.355 . S
C481 C483 1.419 . S
C482 C480 1.415 . S
C482 C487 1.425 . S
C482 C489 1.409 . S
C483 H475 0.930 . S
C483 C481 1.419 . S
C483 C484 1.362 . S
C484 H476 0.930 . S
C484 C483 1.362 . S
C484 C487 1.409 . S
C485 H477 0.930 . S
C485 C486 1.355 . S
C485 C487 1.415 . S
C486 C485 1.355 . S
C486 C488 1.419 . S
C487 C482 1.425 . S
C487 C484 1.409 . S
C487 C485 1.415 . S
C488 H478 0.930 1_545 S
C488 C486 1.419 . S
C488 C489 1.362 . S
C489 H479 0.930 1_545 S
C489 C482 1.409 . S
C489 C488 1.362 . S
H490 C496 0.930 . S
H491 C499 0.930 . S
H492 C500 0.930 1_554 S
H493 C501 0.930 . S
H494 C504 0.930 . S
H495 C505 0.930 1_556 S
C496 H490 0.930 . S
C496 C497 1.355 . S
C496 C498 1.415 . S
C497 C496 1.355 . S
C497 C499 1.419 . S
C498 C496 1.415 . S
C498 C503 1.425 1_556 S
C498 C505 1.409 1_556 S
C499 H491 0.930 . S
C499 C497 1.419 . S
C499 C500 1.362 . S
C500 H492 0.930 1_556 S
C500 C499 1.362 . S
C500 C503 1.409 1_556 S
C501 H493 0.930 . S
C501 C502 1.355 . S
C501 C503 1.415 . S
C502 C501 1.355 . S
C502 C504 1.419 . S
C503 C498 1.425 1_554 S
C503 C500 1.409 1_554 S
C503 C501 1.415 . S
C504 H494 0.930 . S
C504 C502 1.419 . S
C504 C505 1.362 . S
C505 H495 0.930 1_554 S
C505 C498 1.409 1_554 S
C505 C504 1.362 . S
H506 C512 0.930 . S
H507 C515 0.930 . S
H508 C516 0.930 . S
H509 C517 0.930 . S
H510 C520 0.930 . S
H511 C521 0.930 . S
C512 H506 0.930 . S
C512 C513 1.355 . S
C512 C514 1.415 . S
C513 C512 1.355 . S
C513 C515 1.419 1_455 S
C514 C512 1.415 . S
C514 C519 1.425 . S
C514 C521 1.409 . S
C515 H507 0.930 . S
C515 C513 1.419 1_655 S
C515 C516 1.362 . S
C516 H508 0.930 . S
C516 C515 1.362 . S
C516 C519 1.409 1_655 S
C517 H509 0.930 . S
C517 C518 1.355 1_655 S
C517 C519 1.415 1_655 S
C518 C517 1.355 1_455 S
C518 C520 1.419 . S
C519 C514 1.425 . S
C519 C516 1.409 1_455 S
C519 C517 1.415 1_455 S
C520 H510 0.930 . S
C520 C518 1.419 . S
C520 C521 1.362 . S
C521 H511 0.930 . S
C521 C514 1.409 . S
C521 C520 1.362 . S
C241 C19 2.010 . S
C246 C226 1.963 . S
C257 C46 1.314 . S
C262 C188 1.212 . S
C273 C95 0.480 . S
C278 C207 0.523 . S
C289 C10 1.884 . S
C294 C221 1.879 . S
C310 C183 1.186 . S
C305 C55 1.199 . S
C326 C202 0.371 . S
C321 C86 0.449 . S
C337 C59 3.210 . S
C342 C150 3.129 . S
C353 C90 1.916 . S
C358 C164 1.898 . S
C369 C15 1.138 . S
C374 C126 1.091 1_565 S
C390 C145 2.955 . S
C385 C50 3.004 . S
C406 C169 1.933 . S
C401 C99 1.979 . S
C417 C6 1.359 . S
C422 C131 1.307 . S
C438 C160 1.526 . S
C433 C9 1.493 . S
C449 C58 1.584 . S
C454 C122 1.553 . S
C465 C98 1.646 . S
C470 C141 1.755 . S
C486 C198 1.346 . S
C481 C49 1.279 . S
C502 C217 1.534 . S
C497 C89 1.499 . S
C513 C18 1.570 . S
C518 C179 1.529 . S
