# Generated by pormake.
# Topology rtl, (3,6)-cn, num edge types: 1
# Building blocks:
#     Node 0, Type 0, BuildingBlock: BETDIP_clean_linker_0, # of connection points: 3
#     Node 1, Type 0, BuildingBlock: BETDIP_clean_linker_0, # of connection points: 3
#     Node 2, Type 0, BuildingBlock: BETDIP_clean_linker_0, # of connection points: 3
#     Node 3, Type 0, BuildingBlock: BETDIP_clean_linker_0, # of connection points: 3
#     Node 4, Type 1, BuildingBlock: CIFDUS_clean_sbu_1, # of connection points: 6
#     Node 5, Type 1, BuildingBlock: CIFDUS_clean_sbu_1, # of connection points: 6
#     Edge 6, Type (0, 1), BuildingBlock: KIFKEQ_clean_linker_1, # of connection points: 2
#     Edge 7, Type (0, 1), BuildingBlock: KIFKEQ_clean_linker_1, # of connection points: 2
#     Edge 8, Type (0, 1), BuildingBlock: KIFKEQ_clean_linker_1, # of connection points: 2
#     Edge 9, Type (0, 1), BuildingBlock: KIFKEQ_clean_linker_1, # of connection points: 2
#     Edge 10, Type (0, 1), BuildingBlock: KIFKEQ_clean_linker_1, # of connection points: 2
#     Edge 11, Type (0, 1), BuildingBlock: KIFKEQ_clean_linker_1, # of connection points: 2
#     Edge 12, Type (0, 1), BuildingBlock: KIFKEQ_clean_linker_1, # of connection points: 2
#     Edge 13, Type (0, 1), BuildingBlock: KIFKEQ_clean_linker_1, # of connection points: 2
#     Edge 14, Type (0, 1), BuildingBlock: KIFKEQ_clean_linker_1, # of connection points: 2
#     Edge 15, Type (0, 1), BuildingBlock: KIFKEQ_clean_linker_1, # of connection points: 2
#     Edge 16, Type (0, 1), BuildingBlock: KIFKEQ_clean_linker_1, # of connection points: 2
#     Edge 17, Type (0, 1), BuildingBlock: KIFKEQ_clean_linker_1, # of connection points: 2
# Relax obj value: 0.017
# Max RMSD: 0.115
# Mean RMSD: 0.088
data_MOF--net-rtl--node1-CIFDUS_clean_sbu_1--node2-BETDIP_clean_linker_0--edge1-KIFKEQ_clean_linker_1
_symmetry_space_group_name_H-M    P1
_symmetry_Int_Tables_number       1
_symmetry_cell_setting            triclinic
loop_
_symmetry_equiv_pos_as_xyz
'x, y, z'
_cell_length_a     36.4014
_cell_length_b     35.085856
_cell_length_c     22.415349
_cell_angle_alpha  90.207383
_cell_angle_beta   99.727025
_cell_angle_gamma 90.424857
loop_
_atom_site_label
_atom_site_type_symbol
_atom_site_fract_x
_atom_site_fract_y
_atom_site_fract_z
_atom_type_partial_charge
H0 H 0.22224 0.84852 0.99828 0.0
H1 H 0.22986 0.84817 0.19214 0.0
H2 H 0.14632 0.91499 0.08312 0.0
H3 H 0.28285 0.81596 0.19175 0.0
C4 C 0.28127 0.80232 0.14787 0.0
C5 C 0.21219 0.85843 0.03837 0.0
C6 C 0.18231 0.88407 0.03304 0.0
C7 C 0.22963 0.84522 0.09512 0.0
C8 C 0.2174 0.85844 0.14797 0.0
C9 C 0.18733 0.88378 0.14345 0.0
C10 C 0.17001 0.89616 0.08612 0.0
N11 N 0.25779 0.81714 0.09605 0.0
H12 H 0.71895 0.73624 0.70325 0.0
H13 H 0.71232 0.74456 0.50993 0.0
H14 H 0.63839 0.66916 0.58278 0.0
H15 H 0.72814 0.80639 0.53768 0.0
C16 C 0.7501 0.80282 0.57655 0.0
C17 C 0.70646 0.72733 0.65798 0.0
C18 C 0.67698 0.70056 0.64959 0.0
C19 C 0.71875 0.74425 0.60805 0.0
C20 C 0.70251 0.73279 0.54903 0.0
C21 C 0.67327 0.70609 0.54017 0.0
C22 C 0.66067 0.69022 0.59029 0.0
N23 N 0.74701 0.77301 0.61835 0.0
H24 H 0.79231 0.23375 0.8858 0.0
H25 H 0.80954 0.24873 0.07932 0.0
H26 H 0.87451 0.16701 0.99965 0.0
H27 H 0.7989 0.31345 0.0396 0.0
C28 C 0.77254 0.30681 0.01058 0.0
C29 C 0.80678 0.22615 0.93041 0.0
C30 C 0.83454 0.19809 0.93662 0.0
C31 C 0.79784 0.24482 0.98155 0.0
C32 C 0.81657 0.23479 0.0396 0.0
C33 C 0.84443 0.20682 0.04651 0.0
C34 C 0.85311 0.18865 0.99474 0.0
N35 N 0.76989 0.27346 0.97379 0.0
H36 H 0.28185 0.35972 0.38854 0.0
H37 H 0.29567 0.34758 0.5823 0.0
H38 H 0.36382 0.42734 0.50398 0.0
H39 H 0.2759 0.28764 0.55611 0.0
C40 C 0.25458 0.29077 0.51627 0.0
C41 C 0.29543 0.36807 0.43355 0.0
C42 C 0.32378 0.3958 0.44057 0.0
C43 C 0.28575 0.34959 0.4841 0.0
C44 C 0.30384 0.36029 0.54257 0.0
C45 C 0.33166 0.38876 0.55012 0.0
C46 C 0.34172 0.40606 0.49876 0.0
N47 N 0.25783 0.32051 0.4745 0.0
O48 O 0.9832 0.07423 0.46541 0.0
Mn49 Mn 0.00776 0.03931 0.53748 0.0
O50 O 0.94953 0.03534 0.39634 0.0
Mn51 Mn 0.96601 0.9903 0.4334 0.0
O52 O 0.03245 1.00406 0.60918 0.0
O53 O 0.04525 0.08176 0.56318 0.0
Mn54 Mn 0.05011 0.08691 0.64254 0.0
O55 O 0.97078 0.06151 0.59184 0.0
O56 O 0.06889 0.04184 0.67633 0.0
O57 O 0.04485 1.01712 0.48272 0.0
O58 O 0.01179 0.97511 0.41849 0.0
O59 O 0.08136 0.12286 0.6196 0.0
O60 O 0.00443 0.10047 0.66066 0.0
C61 C 0.94486 0.97055 0.51017 0.0
C62 C 0.96114 0.06832 0.41485 0.0
C63 C 0.05649 1.00918 0.65779 0.0
C64 C 0.06956 0.10925 0.56597 0.0
C65 C 0.97366 0.08541 0.63621 0.0
C66 C 0.04225 0.99176 0.44034 0.0
O67 O 0.9699 0.99724 0.51208 0.0
O68 O 0.93337 0.95596 0.45711 0.0
O69 O 0.53025 0.57603 0.12086 0.0
Mn70 Mn 0.50459 0.54163 0.04923 0.0
O71 O 0.54641 0.53505 0.19707 0.0
Mn72 Mn 0.53378 0.49172 0.15031 0.0
O73 O 0.47822 0.50719 0.97649 0.0
O74 O 0.46907 0.58528 0.02438 0.0
Mn75 Mn 0.46552 0.59189 0.94592 0.0
O76 O 0.54313 0.56231 0.9962 0.0
O77 O 0.44462 0.54756 0.9111 0.0
O78 O 0.46361 0.52225 0.0997 0.0
O79 O 0.48754 0.47147 0.14959 0.0
O80 O 0.43512 0.62801 0.97005 0.0
O81 O 0.51223 0.60412 0.9304 0.0
C82 C 0.56734 0.47128 0.09199 0.0
C83 C 0.54407 0.56871 0.17606 0.0
C84 C 0.4542 0.51405 0.92854 0.0
C85 C 0.44527 0.61281 0.02273 0.0
C86 C 0.54191 0.58719 0.95378 0.0
C87 C 0.45991 0.49194 0.13006 0.0
O88 O 0.54305 0.49853 0.07538 0.0
O89 O 0.56929 0.45766 0.14613 0.0
H90 H 0.24905 0.22739 0.5813 0.0
H91 H 0.19344 0.28732 0.42415 0.0
H92 H 0.20087 0.1782 0.56566 0.0
H93 H 0.14454 0.23778 0.40864 0.0
H94 H 0.04878 0.17357 0.50441 0.0
H95 H 0.09454 0.21699 0.47299 0.0
H96 H 0.17477 0.12608 0.4902 0.0
H97 H 0.12882 0.08283 0.52156 0.0
C98 C 0.22667 0.22978 0.54296 0.0
C99 C 0.22509 0.26107 0.50396 0.0
C100 C 0.19924 0.20141 0.53359 0.0
C101 C 0.16926 0.20371 0.48518 0.0
C102 C 0.16753 0.23509 0.44592 0.0
C103 C 0.19543 0.26341 0.45492 0.0
C104 C 0.0753 0.16222 0.49719 0.0
C105 C 0.08527 0.12487 0.51511 0.0
C106 C 0.10173 0.18724 0.4799 0.0
C107 C 0.13852 0.17515 0.48076 0.0
C108 C 0.14673 0.13628 0.49004 0.0
C109 C 0.12021 0.11128 0.50689 0.0
H110 H 0.28089 0.75623 0.04873 0.0
H111 H 0.33706 0.77414 0.23243 0.0
H112 H 0.32184 0.70303 0.03805 0.0
H113 H 0.37867 0.7206 0.22133 0.0
H114 H 0.47081 0.66503 0.10997 0.0
H115 H 0.42956 0.70836 0.15298 0.0
H116 H 0.33544 0.63637 0.08272 0.0
H117 H 0.37673 0.59317 0.04055 0.0
C118 C 0.3019 0.74874 0.087 0.0
C119 C 0.30583 0.76947 0.14148 0.0
C120 C 0.3252 0.71799 0.08103 0.0
C121 C 0.35322 0.70735 0.12914 0.0
C122 C 0.35725 0.72809 0.18364 0.0
C123 C 0.33351 0.75865 0.18992 0.0
C124 C 0.44171 0.65726 0.10729 0.0
C125 C 0.427 0.6255 0.07282 0.0
C126 C 0.41797 0.68231 0.13117 0.0
C127 C 0.37918 0.67613 0.12002 0.0
C128 C 0.36516 0.64208 0.09139 0.0
C129 C 0.38889 0.61696 0.06822 0.0
H130 H 0.7563 0.86494 0.5091 0.0
H131 H 0.81301 0.80517 0.66554 0.0
H132 H 0.80667 0.91164 0.5192 0.0
H133 H 0.86404 0.85232 0.67579 0.0
H134 H 0.96103 0.90688 0.576 0.0
H135 H 0.913 0.8682 0.61106 0.0
H136 H 0.83803 0.96373 0.58553 0.0
H137 H 0.88627 1.00219 0.55034 0.0
C138 C 0.7794 0.86213 0.54622 0.0
C139 C 0.78069 0.83147 0.58644 0.0
C140 C 0.80813 0.88913 0.55244 0.0
C141 C 0.83916 0.8861 0.59894 0.0
C142 C 0.84039 0.85555 0.63977 0.0
C143 C 0.81125 0.82857 0.63383 0.0
C144 C 0.93516 0.92032 0.5819 0.0
C145 C 0.9274 0.95755 0.56095 0.0
C146 C 0.90742 0.89802 0.60134 0.0
C147 C 0.87139 0.91261 0.5995 0.0
C148 C 0.86537 0.95151 0.58647 0.0
C149 C 0.89322 0.97382 0.56742 0.0
H150 H 0.77971 0.38034 0.04447 0.0
H151 H 0.69716 0.29741 0.96696 0.0
H152 H 0.7314 0.42732 0.04611 0.0
H153 H 0.64777 0.34375 0.97257 0.0
H154 H 0.56288 0.43692 0.97938 0.0
H155 H 0.61341 0.40029 0.94631 0.0
H156 H 0.68856 0.43902 0.10589 0.0
H157 H 0.6396 0.47657 0.1353 0.0
C158 C 0.75102 0.37222 0.02776 0.0
C159 C 0.74221 0.3352 1.00615 0.0
C160 C 0.7231 0.39909 0.02913 0.0
C161 C 0.6852 0.38941 0.01087 0.0
C162 C 0.67647 0.35259 0.98673 0.0
C163 C 0.70476 0.32583 0.98394 0.0
C164 C 0.5908 0.43893 1.00521 0.0
C165 C 0.59756 0.46014 0.05923 0.0
C166 C 0.61962 0.4173 0.98719 0.0
C167 C 0.65542 0.41627 0.02336 0.0
C168 C 0.66209 0.43943 0.0755 0.0
C169 C 0.6338 0.46121 0.09263 0.0
H170 H 0.11609 0.8769 0.1617 0.0
H171 H 0.22376 0.92003 0.24602 0.0
H172 H 0.08751 0.90637 0.24092 0.0
H173 H 0.19483 0.94998 0.32628 0.0
H174 H 0.11111 0.95952 0.4805 0.0
H175 H 0.15228 0.93232 0.4144 0.0
H176 H 0.08154 0.97919 0.25839 0.0
H177 H 0.04121 1.00605 0.32351 0.0
C178 C 0.1337 0.89232 0.19779 0.0
C179 C 0.17202 0.89652 0.19748 0.0
C180 C 0.11736 0.90928 0.24303 0.0
C181 C 0.13888 0.931 0.28915 0.0
C182 C 0.17766 0.93339 0.29121 0.0
C183 C 0.19415 0.91625 0.24551 0.0
C184 C 0.10542 0.96512 0.43235 0.0
C185 C 0.07317 0.98492 0.40692 0.0
C186 C 0.12872 0.94939 0.39458 0.0
C187 C 0.1196 0.95306 0.33124 0.0
C188 C 0.08894 0.97541 0.30689 0.0
C189 C 0.06605 0.99108 0.34422 0.0
H190 H 0.60425 0.68776 0.65927 0.0
H191 H 0.71609 0.67565 0.75861 0.0
H192 H 0.57963 0.65505 0.73957 0.0
H193 H 0.69083 0.6437 0.84061 0.0
H194 H 0.60192 0.63468 0.98737 0.0
H195 H 0.64085 0.66128 0.91752 0.0
H196 H 0.58881 0.58382 0.77797 0.0
H197 H 0.5507 0.55721 0.84755 0.0
C198 C 0.62366 0.67802 0.69817 0.0
C199 C 0.66225 0.68371 0.70185 0.0
C200 C 0.60949 0.65937 0.74425 0.0
C201 C 0.63342 0.64629 0.79571 0.0
C202 C 0.67187 0.6534 0.80117 0.0
C203 C 0.68622 0.67181 0.75442 0.0
C204 C 0.60037 0.62216 0.94276 0.0
C205 C 0.57395 0.59349 0.92294 0.0
C206 C 0.62232 0.63754 0.90272 0.0
C207 C 0.61742 0.62485 0.84227 0.0
C208 C 0.59298 0.59421 0.82424 0.0
C209 C 0.57152 0.57868 0.8642 0.0
H210 H 0.9194 0.19917 0.08245 0.0
H211 H 0.81486 0.18984 0.14794 0.0
H212 H 0.95216 0.17495 0.17842 0.0
H213 H 0.8474 0.16445 0.24369 0.0
H214 H 0.91641 0.13038 0.42204 0.0
H215 H 0.89063 0.1721 0.33748 0.0
H216 H 0.95725 0.11418 0.22322 0.0
H217 H 0.98301 0.0738 0.30736 0.0
C218 C 0.90345 0.19204 0.11759 0.0
C219 C 0.86451 0.19599 0.10742 0.0
C220 C 0.92219 0.17808 0.17263 0.0
C221 C 0.90246 0.16722 0.2188 0.0
C222 C 0.86364 0.17288 0.20961 0.0
C223 C 0.84491 0.18727 0.1546 0.0
C224 C 0.92632 0.12776 0.37929 0.0
C225 C 0.95194 0.09938 0.37107 0.0
C226 C 0.91125 0.15118 0.33064 0.0
C227 C 0.92169 0.14651 0.27322 0.0
C228 C 0.94889 0.11925 0.26666 0.0
C229 C 0.96369 0.09598 0.31489 0.0
H230 H 0.33941 0.46132 0.59255 0.0
H231 H 0.36444 0.34497 0.64558 0.0
H232 H 0.36888 0.48335 0.69275 0.0
H233 H 0.39469 0.36731 0.7465 0.0
H234 H 0.48587 0.45384 0.87714 0.0
H235 H 0.45527 0.41687 0.78845 0.0
H236 H 0.35065 0.47042 0.80185 0.0
H237 H 0.38078 0.5067 0.88962 0.0
C238 C 0.3514 0.44049 0.62566 0.0
C239 C 0.34962 0.40148 0.61142 0.0
C240 C 0.36811 0.45305 0.683 0.0
C241 C 0.38391 0.42696 0.72726 0.0
C242 C 0.38273 0.38791 0.71303 0.0
C243 C 0.36529 0.37521 0.65566 0.0
C244 C 0.45605 0.45626 0.8626 0.0
C245 C 0.43561 0.48305 0.88996 0.0
C246 C 0.43863 0.43539 0.81177 0.0
C247 C 0.40078 0.44137 0.78802 0.0
C248 C 0.37991 0.46561 0.81892 0.0
C249 C 0.39712 0.48615 0.86934 0.0
H250 H 0.70259 0.66325 0.45873 0.0
H251 H 0.60298 0.72199 0.48502 0.0
H252 H 0.66978 0.63695 0.36293 0.0
H253 H 0.57026 0.69713 0.3882 0.0
H254 H 0.5149 0.59579 0.27051 0.0
H255 H 0.54638 0.63578 0.35314 0.0
H256 H 0.64033 0.64883 0.25966 0.0
H257 H 0.60843 0.60839 0.17712 0.0
C258 C 0.67392 0.67126 0.44295 0.0
C259 C 0.65518 0.69455 0.47873 0.0
C260 C 0.65511 0.65641 0.38806 0.0
C261 C 0.61728 0.66486 0.36779 0.0
C262 C 0.59917 0.68957 0.40279 0.0
C263 C 0.61787 0.70402 0.45793 0.0
C264 C 0.54179 0.60824 0.26706 0.0
C265 C 0.55918 0.59959 0.21757 0.0
C266 C 0.5599 0.63115 0.31428 0.0
C267 C 0.59607 0.64538 0.31334 0.0
C268 C 0.61268 0.63803 0.26213 0.0
C269 C 0.59432 0.61536 0.21455 0.0
H270 H 0.83885 0.12184 0.91602 0.0
H271 H 0.85508 0.23122 0.83696 0.0
H272 H 0.86304 0.09016 0.83399 0.0
H273 H 0.88108 0.19993 0.75613 0.0
H274 H 0.9174 0.13621 0.60305 0.0
H275 H 0.87565 0.16127 0.66879 0.0
H276 H 0.92106 0.08082 0.80717 0.0
H277 H 0.96109 0.05541 0.74057 0.0
C278 C 0.84747 0.13906 0.88072 0.0
C279 C 0.84526 0.17896 0.88293 0.0
C280 C 0.8616 0.12097 0.83382 0.0
C281 C 0.87462 0.14234 0.78843 0.0
C282 C 0.87095 0.18232 0.78951 0.0
C283 C 0.8562 0.20038 0.83603 0.0
C284 C 0.91703 0.123 0.64656 0.0
C285 C 0.94166 0.09335 0.66641 0.0
C286 C 0.89369 0.13774 0.68477 0.0
C287 C 0.89495 0.12337 0.74381 0.0
C288 C 0.91849 0.09233 0.76193 0.0
C289 C 0.94152 0.07759 0.72372 0.0
H290 H 0.29006 0.44883 0.36064 0.0
H291 H 0.3876 0.3785 0.40148 0.0
H292 H 0.31386 0.47528 0.27249 0.0
H293 H 0.41098 0.404 0.31362 0.0
H294 H 0.42772 0.42275 0.12782 0.0
H295 H 0.38746 0.40046 0.19709 0.0
H296 H 0.3758 0.51601 0.2573 0.0
H297 H 0.41643 0.5385 0.18721 0.0
C298 C 0.31643 0.43899 0.35034 0.0
C299 C 0.3371 0.41167 0.38717 0.0
C300 C 0.33001 0.45409 0.30031 0.0
C301 C 0.36399 0.44133 0.28595 0.0
C302 C 0.38443 0.41392 0.32309 0.0
C303 C 0.37123 0.39944 0.37339 0.0
C304 C 0.4152 0.44361 0.15383 0.0
C305 C 0.42517 0.48229 0.15233 0.0
C306 C 0.39247 0.43081 0.19387 0.0
C307 C 0.37922 0.45642 0.23333 0.0
C308 C 0.38571 0.49571 0.22726 0.0
C309 C 0.40867 0.50862 0.18687 0.0
H310 H 0.1525 0.95465 1.0045 0.0
H311 H 0.16919 0.84534 0.92356 0.0
H312 H 0.11778 0.9761 0.90862 0.0
H313 H 0.13603 0.86819 0.82621 0.0
H314 H 0.11582 0.96193 0.6604 0.0
H315 H 0.14566 0.92595 0.74928 0.0
H316 H 0.05448 0.95413 0.84152 0.0
H317 H 0.02465 0.98936 0.75268 0.0
C318 C 0.14865 0.93498 0.9666 0.0
C319 C 0.16332 0.8979 0.97262 0.0
C320 C 0.12885 0.94745 0.91145 0.0
C321 C 0.1238 0.92359 0.86029 0.0
C322 C 0.13947 0.88706 0.86513 0.0
C323 C 0.15872 0.87418 0.92087 0.0
C324 C 0.10141 0.95869 0.69862 0.0
C325 C 0.06763 0.97755 0.6995 0.0
C326 C 0.11857 0.93845 0.74956 0.0
C327 C 0.10249 0.93765 0.80235 0.0
C328 C 0.06751 0.95447 0.80149 0.0
C329 C 0.05022 0.97417 0.75049 0.0
loop_
_geom_bond_atom_site_label_1
_geom_bond_atom_site_label_2
_geom_bond_distance
_geom_bond_site_symmetry_2
_ccdc_geom_bond_type
H0 C5 0.930 1_556 S
H1 C8 0.930 . S
H2 C10 0.930 . S
H3 C4 1.016 . S
C4 H3 1.016 . S
C4 N11 1.286 . S
C5 H0 0.930 1_554 S
C5 C6 1.397 . S
C5 C7 1.361 . S
C6 C5 1.397 . S
C6 C10 1.390 . S
C7 C5 1.361 . S
C7 C8 1.393 . S
C7 N11 1.413 . S
C8 H1 0.930 . S
C8 C7 1.393 . S
C8 C9 1.399 . S
C9 C8 1.399 . S
C9 C10 1.381 . S
C10 H2 0.930 . S
C10 C6 1.390 . S
C10 C9 1.381 . S
N11 C4 1.286 . S
N11 C7 1.413 . S
H12 C17 0.930 . S
H13 C20 0.930 . S
H14 C22 0.930 . S
H15 C16 1.016 . S
C16 H15 1.016 . S
C16 N23 1.286 . S
C17 H12 0.930 . S
C17 C18 1.397 . S
C17 C19 1.361 . S
C18 C17 1.397 . S
C18 C22 1.390 . S
C19 C17 1.361 . S
C19 C20 1.393 . S
C19 N23 1.413 . S
C20 H13 0.930 . S
C20 C19 1.393 . S
C20 C21 1.399 . S
C21 C20 1.399 . S
C21 C22 1.381 . S
C22 H14 0.930 . S
C22 C18 1.390 . S
C22 C21 1.381 . S
N23 C16 1.286 . S
N23 C19 1.413 . S
H24 C29 0.930 . S
H25 C32 0.930 . S
H26 C34 0.930 . S
H27 C28 1.016 . S
C28 H27 1.016 . S
C28 N35 1.286 1_554 S
C29 H24 0.930 . S
C29 C30 1.397 . S
C29 C31 1.361 . S
C30 C29 1.397 . S
C30 C34 1.390 1_556 S
C31 C29 1.361 . S
C31 C32 1.393 1_556 S
C31 N35 1.413 . S
C32 H25 0.930 . S
C32 C31 1.393 1_554 S
C32 C33 1.399 . S
C33 C32 1.399 . S
C33 C34 1.381 . S
C34 H26 0.930 . S
C34 C30 1.390 1_554 S
C34 C33 1.381 . S
N35 C28 1.286 1_556 S
N35 C31 1.413 . S
H36 C41 0.930 . S
H37 C44 0.930 . S
H38 C46 0.930 . S
H39 C40 1.016 . S
C40 H39 1.016 . S
C40 N47 1.286 . S
C41 H36 0.930 . S
C41 C42 1.397 . S
C41 C43 1.361 . S
C42 C41 1.397 . S
C42 C46 1.390 . S
C43 C41 1.361 . S
C43 C44 1.393 . S
C43 N47 1.413 . S
C44 H37 0.930 . S
C44 C43 1.393 . S
C44 C45 1.399 . S
C45 C44 1.399 . S
C45 C46 1.381 . S
C46 H38 0.930 . S
C46 C42 1.390 . S
C46 C45 1.381 . S
N47 C40 1.286 . S
N47 C43 1.413 . S
O48 Mn49 2.163 1_655 S
O48 C62 1.244 . S
Mn49 O48 2.163 1_455 S
Mn49 O52 2.160 1_545 S
Mn49 O53 2.221 . S
Mn49 O55 2.163 1_455 S
Mn49 O57 2.160 1_545 S
Mn49 O67 2.221 1_445 S
O50 Mn51 2.087 1_545 S
O50 C62 1.256 . S
Mn51 O50 2.087 1_565 S
Mn51 O58 2.089 1_655 S
Mn51 O67 2.290 . S
Mn51 O68 2.251 . S
O52 Mn49 2.160 1_565 S
O52 C63 1.239 . S
O53 Mn49 2.221 . S
O53 Mn54 2.290 . S
O53 C64 1.278 . S
Mn54 O53 2.290 . S
Mn54 O56 2.089 . S
Mn54 O59 2.251 . S
Mn54 O60 2.087 . S
O55 Mn49 2.163 1_655 S
O55 C65 1.244 . S
O56 Mn54 2.089 . S
O56 C63 1.256 1_545 S
O57 Mn49 2.160 1_565 S
O57 C66 1.239 . S
O58 Mn51 2.089 1_455 S
O58 C66 1.256 . S
O59 Mn54 2.251 . S
O59 C64 1.241 . S
O60 Mn54 2.087 . S
O60 C65 1.256 1_455 S
C61 O67 1.278 . S
C61 O68 1.241 . S
C62 O48 1.244 . S
C62 O50 1.256 . S
C63 O52 1.239 . S
C63 O56 1.256 1_565 S
C64 O53 1.278 . S
C64 O59 1.241 . S
C65 O55 1.244 . S
C65 O60 1.256 1_655 S
C66 O57 1.239 . S
C66 O58 1.256 . S
O67 Mn49 2.221 1_665 S
O67 Mn51 2.290 . S
O67 C61 1.278 . S
O68 Mn51 2.251 . S
O68 C61 1.241 . S
O69 Mn70 2.163 . S
O69 C83 1.244 . S
Mn70 O69 2.163 . S
Mn70 O73 2.160 1_554 S
Mn70 O74 2.221 . S
Mn70 O76 2.163 1_554 S
Mn70 O78 2.160 . S
Mn70 O88 2.221 . S
O71 Mn72 2.087 . S
O71 C83 1.256 . S
Mn72 O71 2.087 . S
Mn72 O79 2.089 . S
Mn72 O88 2.290 . S
Mn72 O89 2.251 . S
O73 Mn70 2.160 1_556 S
O73 C84 1.239 . S
O74 Mn70 2.221 . S
O74 Mn75 2.290 1_554 S
O74 C85 1.278 . S
Mn75 O74 2.290 1_556 S
Mn75 O77 2.089 . S
Mn75 O80 2.251 . S
Mn75 O81 2.087 . S
O76 Mn70 2.163 1_556 S
O76 C86 1.244 . S
O77 Mn75 2.089 . S
O77 C84 1.256 . S
O78 Mn70 2.160 . S
O78 C87 1.239 . S
O79 Mn72 2.089 . S
O79 C87 1.256 . S
O80 Mn75 2.251 . S
O80 C85 1.241 1_556 S
O81 Mn75 2.087 . S
O81 C86 1.256 . S
C82 O88 1.278 . S
C82 O89 1.241 . S
C83 O69 1.244 . S
C83 O71 1.256 . S
C84 O73 1.239 . S
C84 O77 1.256 . S
C85 O74 1.278 . S
C85 O80 1.241 1_554 S
C86 O76 1.244 . S
C86 O81 1.256 . S
C87 O78 1.239 . S
C87 O79 1.256 . S
O88 Mn70 2.221 . S
O88 Mn72 2.290 . S
O88 C82 1.278 . S
O89 Mn72 2.251 . S
O89 C82 1.241 . S
H90 C98 0.950 . S
H91 C103 0.950 . S
H92 C100 0.950 . S
H93 C102 0.950 . S
H94 C104 0.950 . S
H95 C106 0.950 . S
H96 C108 0.950 . S
H97 C109 0.950 . S
C98 H90 0.950 . S
C98 C99 1.386 . S
C98 C100 1.391 . S
C99 C98 1.386 . S
C99 C103 1.393 . S
C100 H92 0.950 . S
C100 C98 1.391 . S
C100 C101 1.400 . S
C101 C100 1.400 . S
C101 C102 1.398 . S
C101 C107 1.491 . S
C102 H93 0.950 . S
C102 C101 1.398 . S
C102 C103 1.391 . S
C103 H91 0.950 . S
C103 C99 1.393 . S
C103 C102 1.391 . S
C104 H94 0.950 . S
C104 C105 1.386 . S
C104 C106 1.391 . S
C105 C104 1.386 . S
C105 C109 1.393 . S
C106 H95 0.950 . S
C106 C104 1.391 . S
C106 C107 1.400 . S
C107 C101 1.491 . S
C107 C106 1.400 . S
C107 C108 1.398 . S
C108 H96 0.950 . S
C108 C107 1.398 . S
C108 C109 1.391 . S
C109 H97 0.950 . S
C109 C105 1.393 . S
C109 C108 1.391 . S
H110 C118 0.950 . S
H111 C123 0.950 . S
H112 C120 0.950 1_556 S
H113 C122 0.950 . S
H114 C124 0.950 . S
H115 C126 0.950 . S
H116 C128 0.950 1_556 S
H117 C129 0.950 1_556 S
C118 H110 0.950 . S
C118 C119 1.386 . S
C118 C120 1.391 . S
C119 C118 1.386 . S
C119 C123 1.393 . S
C120 H112 0.950 1_554 S
C120 C118 1.391 . S
C120 C121 1.400 . S
C121 C120 1.400 . S
C121 C122 1.398 . S
C121 C127 1.491 . S
C122 H113 0.950 . S
C122 C121 1.398 . S
C122 C123 1.391 . S
C123 H111 0.950 . S
C123 C119 1.393 . S
C123 C122 1.391 . S
C124 H114 0.950 . S
C124 C125 1.386 . S
C124 C126 1.391 . S
C125 C124 1.386 . S
C125 C129 1.393 . S
C126 H115 0.950 . S
C126 C124 1.391 . S
C126 C127 1.400 . S
C127 C121 1.491 . S
C127 C126 1.400 . S
C127 C128 1.398 . S
C128 H116 0.950 1_554 S
C128 C127 1.398 . S
C128 C129 1.391 . S
C129 H117 0.950 1_554 S
C129 C125 1.393 . S
C129 C128 1.391 . S
H130 C138 0.950 . S
H131 C143 0.950 . S
H132 C140 0.950 . S
H133 C142 0.950 . S
H134 C144 0.950 . S
H135 C146 0.950 . S
H136 C148 0.950 . S
H137 C149 0.950 . S
C138 H130 0.950 . S
C138 C139 1.386 . S
C138 C140 1.391 . S
C139 C138 1.386 . S
C139 C143 1.393 . S
C140 H132 0.950 . S
C140 C138 1.391 . S
C140 C141 1.400 . S
C141 C140 1.400 . S
C141 C142 1.398 . S
C141 C147 1.491 . S
C142 H133 0.950 . S
C142 C141 1.398 . S
C142 C143 1.391 . S
C143 H131 0.950 . S
C143 C139 1.393 . S
C143 C142 1.391 . S
C144 H134 0.950 . S
C144 C145 1.386 . S
C144 C146 1.391 . S
C145 C144 1.386 . S
C145 C149 1.393 . S
C146 H135 0.950 . S
C146 C144 1.391 . S
C146 C147 1.400 . S
C147 C141 1.491 . S
C147 C146 1.400 . S
C147 C148 1.398 . S
C148 H136 0.950 . S
C148 C147 1.398 . S
C148 C149 1.391 . S
C149 H137 0.950 . S
C149 C145 1.393 . S
C149 C148 1.391 . S
H150 C158 0.950 . S
H151 C163 0.950 . S
H152 C160 0.950 . S
H153 C162 0.950 . S
H154 C164 0.950 . S
H155 C166 0.950 . S
H156 C168 0.950 . S
H157 C169 0.950 . S
C158 H150 0.950 . S
C158 C159 1.386 . S
C158 C160 1.391 . S
C159 C158 1.386 . S
C159 C163 1.393 1_554 S
C160 H152 0.950 . S
C160 C158 1.391 . S
C160 C161 1.400 . S
C161 C160 1.400 . S
C161 C162 1.398 1_554 S
C161 C167 1.491 . S
C162 H153 0.950 . S
C162 C161 1.398 1_556 S
C162 C163 1.391 . S
C163 H151 0.950 . S
C163 C159 1.393 1_556 S
C163 C162 1.391 . S
C164 H154 0.950 . S
C164 C165 1.386 1_556 S
C164 C166 1.391 . S
C165 C164 1.386 1_554 S
C165 C169 1.393 . S
C166 H155 0.950 . S
C166 C164 1.391 . S
C166 C167 1.400 1_556 S
C167 C161 1.491 . S
C167 C166 1.400 1_554 S
C167 C168 1.398 . S
C168 H156 0.950 . S
C168 C167 1.398 . S
C168 C169 1.391 . S
C169 H157 0.950 . S
C169 C165 1.393 . S
C169 C168 1.391 . S
H170 C178 0.950 . S
H171 C183 0.950 . S
H172 C180 0.950 . S
H173 C182 0.950 . S
H174 C184 0.950 . S
H175 C186 0.950 . S
H176 C188 0.950 . S
H177 C189 0.950 . S
C178 H170 0.950 . S
C178 C179 1.386 . S
C178 C180 1.391 . S
C179 C178 1.386 . S
C179 C183 1.393 . S
C180 H172 0.950 . S
C180 C178 1.391 . S
C180 C181 1.400 . S
C181 C180 1.400 . S
C181 C182 1.398 . S
C181 C187 1.491 . S
C182 H173 0.950 . S
C182 C181 1.398 . S
C182 C183 1.391 . S
C183 H171 0.950 . S
C183 C179 1.393 . S
C183 C182 1.391 . S
C184 H174 0.950 . S
C184 C185 1.386 . S
C184 C186 1.391 . S
C185 C184 1.386 . S
C185 C189 1.393 . S
C186 H175 0.950 . S
C186 C184 1.391 . S
C186 C187 1.400 . S
C187 C181 1.491 . S
C187 C186 1.400 . S
C187 C188 1.398 . S
C188 H176 0.950 . S
C188 C187 1.398 . S
C188 C189 1.391 . S
C189 H177 0.950 . S
C189 C185 1.393 . S
C189 C188 1.391 . S
H190 C198 0.950 . S
H191 C203 0.950 . S
H192 C200 0.950 . S
H193 C202 0.950 . S
H194 C204 0.950 . S
H195 C206 0.950 . S
H196 C208 0.950 . S
H197 C209 0.950 . S
C198 H190 0.950 . S
C198 C199 1.386 . S
C198 C200 1.391 . S
C199 C198 1.386 . S
C199 C203 1.393 . S
C200 H192 0.950 . S
C200 C198 1.391 . S
C200 C201 1.400 . S
C201 C200 1.400 . S
C201 C202 1.398 . S
C201 C207 1.491 . S
C202 H193 0.950 . S
C202 C201 1.398 . S
C202 C203 1.391 . S
C203 H191 0.950 . S
C203 C199 1.393 . S
C203 C202 1.391 . S
C204 H194 0.950 . S
C204 C205 1.386 . S
C204 C206 1.391 . S
C205 C204 1.386 . S
C205 C209 1.393 . S
C206 H195 0.950 . S
C206 C204 1.391 . S
C206 C207 1.400 . S
C207 C201 1.491 . S
C207 C206 1.400 . S
C207 C208 1.398 . S
C208 H196 0.950 . S
C208 C207 1.398 . S
C208 C209 1.391 . S
C209 H197 0.950 . S
C209 C205 1.393 . S
C209 C208 1.391 . S
H210 C218 0.950 . S
H211 C223 0.950 . S
H212 C220 0.950 . S
H213 C222 0.950 . S
H214 C224 0.950 . S
H215 C226 0.950 . S
H216 C228 0.950 . S
H217 C229 0.950 . S
C218 H210 0.950 . S
C218 C219 1.386 . S
C218 C220 1.391 . S
C219 C218 1.386 . S
C219 C223 1.393 . S
C220 H212 0.950 . S
C220 C218 1.391 . S
C220 C221 1.400 . S
C221 C220 1.400 . S
C221 C222 1.398 . S
C221 C227 1.491 . S
C222 H213 0.950 . S
C222 C221 1.398 . S
C222 C223 1.391 . S
C223 H211 0.950 . S
C223 C219 1.393 . S
C223 C222 1.391 . S
C224 H214 0.950 . S
C224 C225 1.386 . S
C224 C226 1.391 . S
C225 C224 1.386 . S
C225 C229 1.393 . S
C226 H215 0.950 . S
C226 C224 1.391 . S
C226 C227 1.400 . S
C227 C221 1.491 . S
C227 C226 1.400 . S
C227 C228 1.398 . S
C228 H216 0.950 . S
C228 C227 1.398 . S
C228 C229 1.391 . S
C229 H217 0.950 . S
C229 C225 1.393 . S
C229 C228 1.391 . S
H230 C238 0.950 . S
H231 C243 0.950 . S
H232 C240 0.950 . S
H233 C242 0.950 . S
H234 C244 0.950 . S
H235 C246 0.950 . S
H236 C248 0.950 . S
H237 C249 0.950 . S
C238 H230 0.950 . S
C238 C239 1.386 . S
C238 C240 1.391 . S
C239 C238 1.386 . S
C239 C243 1.393 . S
C240 H232 0.950 . S
C240 C238 1.391 . S
C240 C241 1.400 . S
C241 C240 1.400 . S
C241 C242 1.398 . S
C241 C247 1.491 . S
C242 H233 0.950 . S
C242 C241 1.398 . S
C242 C243 1.391 . S
C243 H231 0.950 . S
C243 C239 1.393 . S
C243 C242 1.391 . S
C244 H234 0.950 . S
C244 C245 1.386 . S
C244 C246 1.391 . S
C245 C244 1.386 . S
C245 C249 1.393 . S
C246 H235 0.950 . S
C246 C244 1.391 . S
C246 C247 1.400 . S
C247 C241 1.491 . S
C247 C246 1.400 . S
C247 C248 1.398 . S
C248 H236 0.950 . S
C248 C247 1.398 . S
C248 C249 1.391 . S
C249 H237 0.950 . S
C249 C245 1.393 . S
C249 C248 1.391 . S
H250 C258 0.950 . S
H251 C263 0.950 . S
H252 C260 0.950 . S
H253 C262 0.950 . S
H254 C264 0.950 . S
H255 C266 0.950 . S
H256 C268 0.950 . S
H257 C269 0.950 . S
C258 H250 0.950 . S
C258 C259 1.386 . S
C258 C260 1.391 . S
C259 C258 1.386 . S
C259 C263 1.393 . S
C260 H252 0.950 . S
C260 C258 1.391 . S
C260 C261 1.400 . S
C261 C260 1.400 . S
C261 C262 1.398 . S
C261 C267 1.491 . S
C262 H253 0.950 . S
C262 C261 1.398 . S
C262 C263 1.391 . S
C263 H251 0.950 . S
C263 C259 1.393 . S
C263 C262 1.391 . S
C264 H254 0.950 . S
C264 C265 1.386 . S
C264 C266 1.391 . S
C265 C264 1.386 . S
C265 C269 1.393 . S
C266 H255 0.950 . S
C266 C264 1.391 . S
C266 C267 1.400 . S
C267 C261 1.491 . S
C267 C266 1.400 . S
C267 C268 1.398 . S
C268 H256 0.950 . S
C268 C267 1.398 . S
C268 C269 1.391 . S
C269 H257 0.950 . S
C269 C265 1.393 . S
C269 C268 1.391 . S
H270 C278 0.950 . S
H271 C283 0.950 . S
H272 C280 0.950 . S
H273 C282 0.950 . S
H274 C284 0.950 . S
H275 C286 0.950 . S
H276 C288 0.950 . S
H277 C289 0.950 . S
C278 H270 0.950 . S
C278 C279 1.386 . S
C278 C280 1.391 . S
C279 C278 1.386 . S
C279 C283 1.393 . S
C280 H272 0.950 . S
C280 C278 1.391 . S
C280 C281 1.400 . S
C281 C280 1.400 . S
C281 C282 1.398 . S
C281 C287 1.491 . S
C282 H273 0.950 . S
C282 C281 1.398 . S
C282 C283 1.391 . S
C283 H271 0.950 . S
C283 C279 1.393 . S
C283 C282 1.391 . S
C284 H274 0.950 . S
C284 C285 1.386 . S
C284 C286 1.391 . S
C285 C284 1.386 . S
C285 C289 1.393 . S
C286 H275 0.950 . S
C286 C284 1.391 . S
C286 C287 1.400 . S
C287 C281 1.491 . S
C287 C286 1.400 . S
C287 C288 1.398 . S
C288 H276 0.950 . S
C288 C287 1.398 . S
C288 C289 1.391 . S
C289 H277 0.950 . S
C289 C285 1.393 . S
C289 C288 1.391 . S
H290 C298 0.950 . S
H291 C303 0.950 . S
H292 C300 0.950 . S
H293 C302 0.950 . S
H294 C304 0.950 . S
H295 C306 0.950 . S
H296 C308 0.950 . S
H297 C309 0.950 . S
C298 H290 0.950 . S
C298 C299 1.386 . S
C298 C300 1.391 . S
C299 C298 1.386 . S
C299 C303 1.393 . S
C300 H292 0.950 . S
C300 C298 1.391 . S
C300 C301 1.400 . S
C301 C300 1.400 . S
C301 C302 1.398 . S
C301 C307 1.491 . S
C302 H293 0.950 . S
C302 C301 1.398 . S
C302 C303 1.391 . S
C303 H291 0.950 . S
C303 C299 1.393 . S
C303 C302 1.391 . S
C304 H294 0.950 . S
C304 C305 1.386 . S
C304 C306 1.391 . S
C305 C304 1.386 . S
C305 C309 1.393 . S
C306 H295 0.950 . S
C306 C304 1.391 . S
C306 C307 1.400 . S
C307 C301 1.491 . S
C307 C306 1.400 . S
C307 C308 1.398 . S
C308 H296 0.950 . S
C308 C307 1.398 . S
C308 C309 1.391 . S
C309 H297 0.950 . S
C309 C305 1.393 . S
C309 C308 1.391 . S
H310 C318 0.950 1_554 S
H311 C323 0.950 . S
H312 C320 0.950 . S
H313 C322 0.950 . S
H314 C324 0.950 . S
H315 C326 0.950 . S
H316 C328 0.950 . S
H317 C329 0.951 . S
C318 H310 0.950 1_556 S
C318 C319 1.386 . S
C318 C320 1.391 . S
C319 C318 1.386 . S
C319 C323 1.393 . S
C320 H312 0.950 . S
C320 C318 1.391 . S
C320 C321 1.400 . S
C321 C320 1.400 . S
C321 C322 1.398 . S
C321 C327 1.491 . S
C322 H313 0.950 . S
C322 C321 1.398 . S
C322 C323 1.391 . S
C323 H311 0.950 . S
C323 C319 1.393 . S
C323 C322 1.391 . S
C324 H314 0.950 . S
C324 C325 1.386 . S
C324 C326 1.391 . S
C325 C324 1.386 . S
C325 C329 1.393 . S
C326 H315 0.950 . S
C326 C324 1.391 . S
C326 C327 1.400 . S
C327 C321 1.491 . S
C327 C326 1.400 . S
C327 C328 1.398 . S
C328 H316 0.950 . S
C328 C327 1.398 . S
C328 C329 1.391 . S
C329 H317 0.951 . S
C329 C325 1.393 . S
C329 C328 1.391 . S
C105 C64 1.256 . S
C99 C40 1.435 . S
C119 C4 1.467 . S
C125 C85 1.279 . S
C139 C16 1.604 . S
C145 C61 1.395 . S
C159 C28 1.602 . S
C165 C82 1.384 . S
C185 C66 1.497 . S
C179 C9 1.514 . S
C205 C86 1.536 . S
C199 C18 1.600 . S
C219 C33 1.584 . S
C225 C62 1.535 . S
C239 C45 1.523 . S
C245 C84 1.462 . S
C265 C83 1.485 . S
C259 C21 1.515 . S
C285 C65 1.470 . S
C279 C30 1.539 . S
C305 C87 1.436 . S
C299 C42 1.458 . S
C319 C6 1.469 1_556 S
C325 C63 1.420 . S
