# Generated by pormake.
# Topology rtl, (3,6)-cn, num edge types: 1
# Building blocks:
#     Node 0, Type 0, BuildingBlock: BETDAH_clean_linker_0, # of connection points: 3
#     Node 1, Type 0, BuildingBlock: BETDAH_clean_linker_0, # of connection points: 3
#     Node 2, Type 0, BuildingBlock: BETDAH_clean_linker_0, # of connection points: 3
#     Node 3, Type 0, BuildingBlock: BETDAH_clean_linker_0, # of connection points: 3
#     Node 4, Type 1, BuildingBlock: VOLQOD_clean_sbu_1, # of connection points: 6
#     Node 5, Type 1, BuildingBlock: VOLQOD_clean_sbu_1, # of connection points: 6
#     Edge 6, Type (0, 1), BuildingBlock: EZIPEK_clean_linker_0, # of connection points: 2
#     Edge 7, Type (0, 1), BuildingBlock: EZIPEK_clean_linker_0, # of connection points: 2
#     Edge 8, Type (0, 1), BuildingBlock: EZIPEK_clean_linker_0, # of connection points: 2
#     Edge 9, Type (0, 1), BuildingBlock: EZIPEK_clean_linker_0, # of connection points: 2
#     Edge 10, Type (0, 1), BuildingBlock: EZIPEK_clean_linker_0, # of connection points: 2
#     Edge 11, Type (0, 1), BuildingBlock: EZIPEK_clean_linker_0, # of connection points: 2
#     Edge 12, Type (0, 1), BuildingBlock: EZIPEK_clean_linker_0, # of connection points: 2
#     Edge 13, Type (0, 1), BuildingBlock: EZIPEK_clean_linker_0, # of connection points: 2
#     Edge 14, Type (0, 1), BuildingBlock: EZIPEK_clean_linker_0, # of connection points: 2
#     Edge 15, Type (0, 1), BuildingBlock: EZIPEK_clean_linker_0, # of connection points: 2
#     Edge 16, Type (0, 1), BuildingBlock: EZIPEK_clean_linker_0, # of connection points: 2
#     Edge 17, Type (0, 1), BuildingBlock: EZIPEK_clean_linker_0, # of connection points: 2
# Relax obj value: 0.042
# Max RMSD: 0.143
# Mean RMSD: 0.090
data_MOF--net-rtl--node1-VOLQOD_clean_sbu_1--node2-BETDAH_clean_linker_0--edge1-EZIPEK_clean_linker_0
_symmetry_space_group_name_H-M    P1
_symmetry_Int_Tables_number       1
_symmetry_cell_setting            triclinic
loop_
_symmetry_equiv_pos_as_xyz
'x, y, z'
_cell_length_a     28.128383
_cell_length_b     28.116064
_cell_length_c     16.118948
_cell_angle_alpha  91.305661
_cell_angle_beta   91.732783
_cell_angle_gamma 89.957001
loop_
_atom_site_label
_atom_site_type_symbol
_atom_site_fract_x
_atom_site_fract_y
_atom_site_fract_z
_atom_type_partial_charge
H0 H 0.12552 0.87988 0.0192 0.0
H1 H 0.2183 0.77229 0.1193 0.0
H2 H 0.21212 0.7969 0.85599 0.0
C3 C 0.15202 0.85233 0.01009 0.0
C4 C 0.16689 0.84134 0.93017 0.0
C5 C 0.17014 0.82739 0.07812 0.0
C6 C 0.2043 0.79146 0.0664 0.0
C7 C 0.21971 0.78066 0.98563 0.0
C8 C 0.20076 0.80565 0.9182 0.0
N9 N 0.25374 0.74489 0.9685 0.0
C10 C 0.27485 0.71489 0.02598 0.0
H11 H 0.62504 0.6207 0.54431 0.0
H12 H 0.68672 0.74011 0.42563 0.0
H13 H 0.65629 0.74921 0.68517 0.0
C14 C 0.64033 0.65613 0.54844 0.0
C15 C 0.64012 0.68179 0.62397 0.0
C16 C 0.65593 0.67738 0.47657 0.0
C17 C 0.67568 0.72321 0.48153 0.0
C18 C 0.6768 0.74869 0.55749 0.0
C19 C 0.65761 0.72851 0.62772 0.0
N20 N 0.69249 0.7964 0.56242 0.0
C21 C 0.73856 0.80932 0.54425 0.0
H22 H 0.89481 0.11887 0.00273 0.0
H23 H 0.83826 0.24117 0.13048 0.0
H24 H 0.87307 0.24955 0.87343 0.0
C25 C 0.88181 0.15521 0.00162 0.0
C26 C 0.88423 0.18098 0.92853 0.0
C27 C 0.86682 0.17711 0.07507 0.0
C28 C 0.84939 0.22389 0.07357 0.0
C29 C 0.85109 0.24978 0.00029 0.0
C30 C 0.86983 0.22876 0.92878 0.0
N31 N 0.8387 0.29843 -6e-05 0.0
C32 C 0.79232 0.31355 0.01071 0.0
H33 H 0.41009 0.35938 0.51011 0.0
H34 H 0.28656 0.32867 0.64981 0.0
H35 H 0.28763 0.29426 0.38857 0.0
C36 C 0.37491 0.34385 0.51346 0.0
C37 C 0.35124 0.3278 0.44059 0.0
C38 C 0.35178 0.34468 0.58916 0.0
C39 C 0.30534 0.32697 0.59206 0.0
C40 C 0.28309 0.30647 0.52118 0.0
C41 C 0.30609 0.30674 0.44488 0.0
N42 N 0.23613 0.28941 0.52741 0.0
C43 C 0.21947 0.24863 0.48629 0.0
O44 O 0.9033 0.95364 0.50767 0.0
Zn45 Zn 0.9432 0.01209 0.50117 0.0
O46 O 0.01017 0.99634 0.48801 0.0
Zn47 Zn 0.04777 0.03026 0.5741 0.0
Zn48 Zn 0.01782 0.92766 0.49806 0.0
Zn49 Zn 0.03155 0.0156 0.37997 0.0
O50 O 0.09609 0.0734 0.52674 0.0
O51 O 0.08298 0.06552 0.39061 0.0
O52 O 0.93319 0.05068 0.60555 0.0
O53 O 0.00659 0.0722 0.64369 0.0
O54 O 0.07955 0.98426 0.6519 0.0
O55 O 0.05471 0.91367 0.60231 0.0
O56 O 0.05495 0.89997 0.40434 0.0
O57 O 0.91847 0.05039 0.40549 0.0
O58 O 0.06036 0.96016 0.31763 0.0
O59 O 0.97763 0.04672 0.31652 0.0
C60 C 0.91242 0.90937 0.50686 0.0
C61 C 0.10479 0.08483 0.45288 0.0
C62 C 0.0778 0.93912 0.65588 0.0
C63 C 0.96191 0.07437 0.65283 0.0
C64 C 0.06849 0.91709 0.33665 0.0
C65 C 0.93586 0.05971 0.33577 0.0
O66 O 0.95469 0.89353 0.50245 0.0
O67 O 0.62249 0.45769 0.02798 0.0
Zn68 Zn 0.57943 0.51423 0.03503 0.0
O69 O 0.51343 0.49525 0.04654 0.0
Zn70 Zn 0.47451 0.52717 0.9632 0.0
Zn71 Zn 0.50928 0.42613 0.03044 0.0
Zn72 Zn 0.49077 0.51396 0.15558 0.0
O73 O 0.42258 0.56568 0.01288 0.0
O74 O 0.43589 0.56064 0.14883 0.0
O75 O 0.58763 0.55235 0.9324 0.0
O76 O 0.51359 0.57259 0.89834 0.0
O77 O 0.4446 0.479 0.88365 0.0
O78 O 0.47563 0.40979 0.9219 0.0
O79 O 0.47113 0.39726 0.12015 0.0
O80 O 0.60162 0.55443 0.13366 0.0
O81 O 0.465 0.45694 0.21257 0.0
O82 O 0.54279 0.54742 0.22229 0.0
C83 C 0.61562 0.41302 0.02807 0.0
C84 C 0.41246 0.57692 0.08701 0.0
C85 C 0.44954 0.43423 0.87302 0.0
C86 C 0.55814 0.57589 0.88813 0.0
C87 C 0.45762 0.4138 0.1897 0.0
C88 C 0.58378 0.56265 0.2042 0.0
O89 O 0.57411 0.39518 0.03022 0.0
C90 C 0.21429 0.16089 0.48781 0.0
C91 C 0.19746 0.20468 0.45676 0.0
C92 C 0.12353 0.16736 0.40597 0.0
C93 C 0.13916 0.12375 0.44077 0.0
N94 N 0.20349 0.07528 0.4929 0.0
N95 N 0.14446 0.24723 0.36548 0.0
C96 C 0.18607 0.11933 0.47451 0.0
C97 C 0.15492 0.20695 0.4083 0.0
N98 N 0.25625 0.15959 0.53277 0.0
N99 N 0.07774 0.17215 0.37648 0.0
H100 H 0.16712 0.27666 0.36682 0.0
H101 H 0.1161 0.24977 0.32278 0.0
H102 H 0.05337 0.14432 0.37348 0.0
H103 H 0.06274 0.20458 0.35996 0.0
H104 H 0.26791 0.13017 0.56573 0.0
H105 H 0.27873 0.18904 0.53974 0.0
H106 H 0.23864 0.06892 0.51141 0.0
H107 H 0.18363 0.04426 0.48225 0.0
C108 C 0.29138 0.63056 0.05418 0.0
C109 C 0.30247 0.67914 0.06916 0.0
C110 C 0.38191 0.65856 0.1224 0.0
C111 C 0.37256 0.61031 0.09955 0.0
N112 N 0.31592 0.54807 0.06788 0.0
N113 N 0.35054 0.73884 0.13944 0.0
C114 C 0.32617 0.59556 0.07378 0.0
C115 C 0.34519 0.69287 0.11138 0.0
N116 N 0.24854 0.61837 0.01741 0.0
N117 N 0.4266 0.67189 0.1492 0.0
H118 H 0.32369 0.76417 0.13163 0.0
H119 H 0.37932 0.75083 0.17624 0.0
H120 H 0.45383 0.64745 0.15999 0.0
H121 H 0.4374 0.70709 0.15774 0.0
H122 H 0.23997 0.58422 -0.00431 0.0
H123 H 0.22167 0.6433 0.00647 0.0
H124 H 0.28203 0.53446 0.05517 0.0
H125 H 0.34106 0.52205 0.08278 0.0
C126 C 0.80878 0.8507 0.6067 0.0
C127 C 0.78629 0.82789 0.53661 0.0
C128 C 0.85069 0.85272 0.44818 0.0
C129 C 0.87268 0.87617 0.51802 0.0
N130 N 0.87985 0.8887 0.66612 0.0
N131 N 0.7897 0.79768 0.396 0.0
C132 C 0.85394 0.87229 0.59819 0.0
C133 C 0.80859 0.82577 0.45893 0.0
N134 N 0.78616 0.85313 0.68067 0.0
N135 N 0.86901 0.85792 0.37129 0.0
H136 H 0.75876 0.77788 0.40229 0.0
H137 H 0.80643 0.7909 0.34025 0.0
H138 H 0.90066 0.8761 0.36194 0.0
H139 H 0.85186 0.84643 0.31635 0.0
H140 H 0.79774 0.87423 0.73118 0.0
H141 H 0.75405 0.83589 0.69046 0.0
H142 H 0.87056 0.88296 0.72709 0.0
H143 H 0.91313 0.90468 0.66171 0.0
C144 C 0.71888 0.33188 0.08691 0.0
C145 C 0.74475 0.3333 0.01292 0.0
C146 C 0.68015 0.37741 0.94446 0.0
C147 C 0.65728 0.38141 0.02146 0.0
N148 N 0.6545 0.36486 0.16725 0.0
N149 N 0.75213 0.35821 0.87166 0.0
C150 C 0.67622 0.35881 0.09296 0.0
C151 C 0.7258 0.35595 0.9415 0.0
N152 N 0.73493 0.30444 0.15083 0.0
N153 N 0.65759 0.39331 0.87399 0.0
H154 H 0.78486 0.34116 0.86583 0.0
H155 H 0.74303 0.37911 0.82116 0.0
H156 H 0.62402 0.40915 0.87418 0.0
H157 H 0.67 0.38728 0.81449 0.0
H158 H 0.71551 0.298 0.20336 0.0
H159 H 0.7664 0.28491 0.14839 0.0
H160 H 0.66928 0.35403 0.22369 0.0
H161 H 0.62258 0.38335 0.17336 0.0
C162 C 0.10648 0.8217 0.18102 0.0
C163 C 0.15139 0.84005 0.16051 0.0
C164 C 0.14636 0.90027 0.27185 0.0
C165 C 0.0981 0.88745 0.28174 0.0
N166 N 0.03128 0.83629 0.24704 0.0
N167 N 0.21544 0.89572 0.18544 0.0
C168 C 0.07808 0.84759 0.23791 0.0
C169 C 0.17213 0.87855 0.20674 0.0
N170 N 0.091 0.77988 0.14478 0.0
N171 N 0.16761 0.93264 0.32565 0.0
H172 H 0.23614 0.87901 0.14071 0.0
H173 H 0.22992 0.92744 0.2092 0.0
H174 H 0.14976 0.94895 0.3745 0.0
H175 H 0.20383 0.94027 0.32667 0.0
H176 H 0.06041 0.76218 0.16168 0.0
H177 H 0.11132 0.7606 0.10257 0.0
H178 H 0.01308 0.81099 0.21024 0.0
H179 H 0.00944 0.85441 0.28829 0.0
C180 C 0.56959 0.64464 0.68763 0.0
C181 C 0.61728 0.66053 0.69636 0.0
C182 C 0.61974 0.63304 0.83911 0.0
C183 C 0.57644 0.60776 0.82358 0.0
N184 N 0.51483 0.58325 0.72232 0.0
N185 N 0.69077 0.6632 0.77814 0.0
C186 C 0.55225 0.61208 0.74515 0.0
C187 C 0.6433 0.6531 0.77162 0.0
N188 N 0.54065 0.66084 0.62476 0.0
N189 N 0.63748 0.63977 0.91834 0.0
H190 H 0.70988 0.67657 0.72941 0.0
H191 H 0.71193 0.6539 0.82948 0.0
H192 H 0.61931 0.6293 0.97033 0.0
H193 H 0.66701 0.66114 0.93267 0.0
H194 H 0.50437 0.65326 0.62026 0.0
H195 H 0.55169 0.6861 0.58298 0.0
H196 H 0.49959 0.58252 0.66251 0.0
H197 H 0.5025 0.55623 0.75882 0.0
C198 C 0.85263 0.10874 0.16814 0.0
C199 C 0.87629 0.15228 0.1541 0.0
C200 C 0.92733 0.14003 0.27717 0.0
C201 C 0.91031 0.09285 0.2807 0.0
N202 N 0.85656 0.03116 0.23151 0.0
N203 N 0.94077 0.20688 0.18999 0.0
C204 C 0.87233 0.07697 0.22749 0.0
C205 C 0.9144 0.16779 0.20797 0.0
N206 N 0.8115 0.09803 0.12447 0.0
N207 N 0.95574 0.15834 0.34033 0.0
H208 H 0.93389 0.22796 0.13873 0.0
H209 H 0.97227 0.21603 0.22211 0.0
H210 H 0.9654 0.1389 0.39261 0.0
H211 H 0.96542 0.1941 0.34489 0.0
H212 H 0.79036 0.0687 0.13619 0.0
H213 H 0.79633 0.12107 0.08123 0.0
H214 H 0.83261 0.01573 0.18838 0.0
H215 H 0.86956 0.00762 0.27591 0.0
C216 C 0.39292 0.41462 0.65899 0.0
C217 C 0.37526 0.36754 0.66367 0.0
C218 C 0.40034 0.3666 0.81027 0.0
C219 C 0.42474 0.41033 0.80105 0.0
N220 N 0.45563 0.46752 0.70681 0.0
N221 N 0.37228 0.29461 0.74023 0.0
C222 C 0.42428 0.43207 0.72256 0.0
C223 C 0.38185 0.34219 0.73833 0.0
N224 N 0.37896 0.44322 0.59533 0.0
N225 N 0.39279 0.34927 0.88726 0.0
H226 H 0.36069 0.27482 0.688 0.0
H227 H 0.38072 0.274 0.79157 0.0
H228 H 0.40299 0.36736 0.94208 0.0
H229 H 0.37152 0.31963 0.89657 0.0
H230 H 0.38846 0.47902 0.59357 0.0
H231 H 0.35366 0.43282 0.54985 0.0
H232 H 0.45866 0.48196 0.64817 0.0
H233 H 0.48272 0.47762 0.74907 0.0
C234 C 0.66982 0.61248 0.37111 0.0
C235 C 0.64417 0.65364 0.39555 0.0
C236 C 0.58772 0.64085 0.27878 0.0
C237 C 0.60838 0.59569 0.26354 0.0
N238 N 0.66863 0.53716 0.2941 0.0
N239 N 0.57594 0.70525 0.37775 0.0
C240 C 0.64984 0.58132 0.30853 0.0
C241 C 0.60271 0.66781 0.35009 0.0
N242 N 0.71316 0.60344 0.40801 0.0
N243 N 0.55417 0.65819 0.22422 0.0
H244 H 0.58549 0.72641 0.42949 0.0
H245 H 0.54231 0.71322 0.35302 0.0
H246 H 0.54293 0.63949 0.17049 0.0
H247 H 0.54112 0.69284 0.22763 0.0
H248 H 0.73571 0.5763 0.38852 0.0
H249 H 0.72837 0.6259 0.45395 0.0
H250 H 0.69562 0.52241 0.33088 0.0
H251 H 0.65525 0.51391 0.24776 0.0
C252 C 0.95157 0.13782 0.8622 0.0
C253 C 0.9056 0.15823 0.85433 0.0
C254 C 0.90162 0.13238 0.70842 0.0
C255 C 0.94309 0.10425 0.72149 0.0
N256 N 0.0004 0.07171 0.82051 0.0
N257 N 0.8328 0.16716 0.77232 0.0
C258 C 0.96637 0.10468 0.80098 0.0
C259 C 0.87938 0.15352 0.778 0.0
N260 N 0.98139 0.15041 0.9275 0.0
N261 N 0.88443 0.1406 0.62987 0.0
H262 H 0.81447 0.18122 0.82249 0.0
H263 H 0.81119 0.16004 0.71984 0.0
H264 H 0.90142 0.12853 0.57678 0.0
H265 H 0.85662 0.16419 0.61758 0.0
H266 H 0.01668 0.13913 0.93185 0.0
H267 H 0.97254 0.17625 0.97193 0.0
H268 H 0.01515 0.06872 0.88029 0.0
H269 H 0.00954 0.04368 0.78071 0.0
C270 C 0.35399 0.38206 0.31982 0.0
C271 C 0.37161 0.34108 0.36058 0.0
C272 C 0.44417 0.34333 0.28018 0.0
C273 C 0.4266 0.3846 0.24061 0.0
N274 N 0.35932 0.43331 0.20186 0.0
N275 N 0.42679 0.27587 0.36612 0.0
C276 C 0.3796 0.40061 0.25356 0.0
C277 C 0.41451 0.31928 0.33569 0.0
N278 N 0.31473 0.40538 0.34791 0.0
N279 N 0.48988 0.32877 0.26836 0.0
H280 H 0.40531 0.25783 0.40674 0.0
H281 H 0.45558 0.25601 0.34563 0.0
H282 H 0.51241 0.34546 0.22784 0.0
H283 H 0.5065 0.3021 0.30234 0.0
H284 H 0.30423 0.43875 0.32732 0.0
H285 H 0.29443 0.39337 0.39617 0.0
H286 H 0.32356 0.4429 0.20334 0.0
H287 H 0.37695 0.44712 0.1517 0.0
C288 C 0.1716 0.8993 0.81444 0.0
C289 C 0.14487 0.86602 0.85864 0.0
C290 C 0.07323 0.88623 0.77748 0.0
C291 C 0.101 0.91535 0.72698 0.0
N292 N 0.17813 0.94356 0.68815 0.0
N293 N 0.07266 0.82082 0.87222 0.0
C294 C 0.15066 0.92039 0.74293 0.0
C295 C 0.09635 0.8574 0.8372 0.0
N296 N 0.21635 0.91184 0.84219 0.0
N297 N 0.02465 0.88765 0.77098 0.0
H298 H 0.08855 0.79836 0.9156 0.0
H299 H 0.03872 0.80992 0.8524 0.0
H300 H 0.00612 0.90965 0.72998 0.0
H301 H 0.0027 0.8708 0.81215 0.0
H302 H 0.23546 0.93966 0.81765 0.0
H303 H 0.23286 0.89718 0.8945 0.0
H304 H 0.21515 0.94391 0.69219 0.0
H305 H 0.16427 0.95886 0.63428 0.0
loop_
_geom_bond_atom_site_label_1
_geom_bond_atom_site_label_2
_geom_bond_distance
_geom_bond_site_symmetry_2
_ccdc_geom_bond_type
H0 C3 0.929 . S
H1 C6 0.929 . S
H2 C8 0.930 . S
C3 H0 0.929 . S
C3 C4 1.398 1_554 S
C3 C5 1.396 . S
C4 C3 1.398 1_556 S
C4 C8 1.407 . S
C5 C3 1.396 . S
C5 C6 1.394 . S
C6 H1 0.929 . S
C6 C5 1.394 . S
C6 C7 1.382 . S
C7 C6 1.382 . S
C7 C8 1.392 1_554 S
C7 N9 1.420 1_554 S
C8 H2 0.930 . S
C8 C4 1.407 . S
C8 C7 1.392 1_556 S
N9 C7 1.420 1_556 S
N9 C10 1.244 1_556 S
C10 N9 1.244 1_554 S
H11 C14 0.929 . S
H12 C17 0.929 . S
H13 C19 0.930 . S
C14 H11 0.929 . S
C14 C15 1.398 . S
C14 C16 1.396 . S
C15 C14 1.398 . S
C15 C19 1.407 . S
C16 C14 1.396 . S
C16 C17 1.394 . S
C17 H12 0.929 . S
C17 C16 1.394 . S
C17 C18 1.382 . S
C18 C17 1.382 . S
C18 C19 1.392 . S
C18 N20 1.420 . S
C19 H13 0.930 . S
C19 C15 1.407 . S
C19 C18 1.392 . S
N20 C18 1.420 . S
N20 C21 1.244 . S
C21 N20 1.244 . S
H22 C25 0.929 . S
H23 C28 0.929 . S
H24 C30 0.930 . S
C25 H22 0.929 . S
C25 C26 1.398 1_554 S
C25 C27 1.396 . S
C26 C25 1.398 1_556 S
C26 C30 1.407 . S
C27 C25 1.396 . S
C27 C28 1.394 . S
C28 H23 0.929 . S
C28 C27 1.394 . S
C28 C29 1.382 . S
C29 C28 1.382 . S
C29 C30 1.392 1_554 S
C29 N31 1.420 1_554 S
C30 H24 0.930 . S
C30 C26 1.407 . S
C30 C29 1.392 1_556 S
N31 C29 1.420 1_556 S
N31 C32 1.244 1_556 S
C32 N31 1.244 1_554 S
H33 C36 0.929 . S
H34 C39 0.929 . S
H35 C41 0.930 . S
C36 H33 0.929 . S
C36 C37 1.398 . S
C36 C38 1.396 . S
C37 C36 1.398 . S
C37 C41 1.407 . S
C38 C36 1.396 . S
C38 C39 1.394 . S
C39 H34 0.929 . S
C39 C38 1.394 . S
C39 C40 1.382 . S
C40 C39 1.382 . S
C40 C41 1.392 . S
C40 N42 1.420 . S
C41 H35 0.930 . S
C41 C37 1.407 . S
C41 C40 1.392 . S
N42 C40 1.420 . S
N42 C43 1.244 . S
C43 N42 1.244 . S
O44 Zn45 1.953 1_565 S
O44 C60 1.225 . S
Zn45 O44 1.953 1_545 S
Zn45 O46 1.949 1_655 S
Zn45 O52 1.919 . S
Zn45 O57 1.924 . S
O46 Zn45 1.949 1_455 S
O46 Zn47 1.923 . S
O46 Zn48 1.950 1_545 S
O46 Zn49 1.945 . S
Zn47 O46 1.923 . S
Zn47 O50 1.933 . S
Zn47 O53 1.941 . S
Zn47 O54 1.965 1_545 S
Zn48 O46 1.950 1_565 S
Zn48 O55 1.938 . S
Zn48 O56 1.906 . S
Zn48 O66 1.953 1_455 S
Zn49 O46 1.945 . S
Zn49 O51 1.932 . S
Zn49 O58 1.977 1_545 S
Zn49 O59 1.910 1_455 S
O50 Zn47 1.933 . S
O50 C61 1.226 . S
O51 Zn49 1.932 . S
O51 C61 1.307 . S
O52 Zn45 1.919 . S
O52 C63 1.253 . S
O53 Zn47 1.941 . S
O53 C63 1.283 1_455 S
O54 Zn47 1.965 1_565 S
O54 C62 1.303 . S
O55 Zn48 1.938 . S
O55 C62 1.247 . S
O56 Zn48 1.906 . S
O56 C64 1.304 . S
O57 Zn45 1.924 . S
O57 C65 1.311 . S
O58 Zn49 1.977 1_565 S
O58 C64 1.272 . S
O59 Zn49 1.910 1_655 S
O59 C65 1.231 . S
C60 O44 1.225 . S
C60 O66 1.298 . S
C61 O50 1.226 . S
C61 O51 1.307 . S
C62 O54 1.303 . S
C62 O55 1.247 . S
C63 O52 1.253 . S
C63 O53 1.283 1_655 S
C64 O56 1.304 . S
C64 O58 1.272 . S
C65 O57 1.311 . S
C65 O59 1.231 . S
O66 Zn48 1.953 1_655 S
O66 C60 1.298 . S
O67 Zn68 1.953 . S
O67 C83 1.225 . S
Zn68 O67 1.953 . S
Zn68 O69 1.949 . S
Zn68 O75 1.919 1_554 S
Zn68 O80 1.924 . S
O69 Zn68 1.949 . S
O69 Zn70 1.923 1_554 S
O69 Zn71 1.950 . S
O69 Zn72 1.945 . S
Zn70 O69 1.923 1_556 S
Zn70 O73 1.933 . S
Zn70 O76 1.941 . S
Zn70 O77 1.965 . S
Zn71 O69 1.950 . S
Zn71 O78 1.938 1_554 S
Zn71 O79 1.906 . S
Zn71 O89 1.953 . S
Zn72 O69 1.945 . S
Zn72 O74 1.932 . S
Zn72 O81 1.977 . S
Zn72 O82 1.910 . S
O73 Zn70 1.933 . S
O73 C84 1.226 1_556 S
O74 Zn72 1.932 . S
O74 C84 1.307 . S
O75 Zn68 1.919 1_556 S
O75 C86 1.253 . S
O76 Zn70 1.941 . S
O76 C86 1.283 . S
O77 Zn70 1.965 . S
O77 C85 1.303 . S
O78 Zn71 1.938 1_556 S
O78 C85 1.247 . S
O79 Zn71 1.906 . S
O79 C87 1.304 . S
O80 Zn68 1.924 . S
O80 C88 1.311 . S
O81 Zn72 1.977 . S
O81 C87 1.272 . S
O82 Zn72 1.910 . S
O82 C88 1.231 . S
C83 O67 1.225 . S
C83 O89 1.298 . S
C84 O73 1.226 1_554 S
C84 O74 1.307 . S
C85 O77 1.303 . S
C85 O78 1.247 . S
C86 O75 1.253 . S
C86 O76 1.283 . S
C87 O79 1.304 . S
C87 O81 1.272 . S
C88 O80 1.311 . S
C88 O82 1.231 . S
O89 Zn71 1.953 . S
O89 C83 1.298 . S
C90 C91 1.363 . S
C90 C96 1.379 . S
C90 N98 1.356 . S
C91 C90 1.363 . S
C91 C97 1.363 . S
C92 C93 1.363 . S
C92 C97 1.379 . S
C92 N99 1.356 . S
C93 C92 1.363 . S
C93 C96 1.363 . S
N94 C96 1.356 . S
N94 H106 0.984 . S
N94 H107 0.985 . S
N95 C97 1.356 . S
N95 H100 0.984 . S
N95 H101 0.985 . S
C96 C90 1.379 . S
C96 C93 1.363 . S
C96 N94 1.356 . S
C97 C91 1.363 . S
C97 C92 1.379 . S
C97 N95 1.356 . S
N98 C90 1.356 . S
N98 H104 0.984 . S
N98 H105 0.984 . S
N99 C92 1.356 . S
N99 H102 0.984 . S
N99 H103 0.985 . S
H100 N95 0.984 . S
H101 N95 0.985 . S
H102 N99 0.984 . S
H103 N99 0.985 . S
H104 N98 0.984 . S
H105 N98 0.984 . S
H106 N94 0.984 . S
H107 N94 0.985 . S
C108 C109 1.363 1_556 S
C108 C114 1.379 . S
C108 N116 1.356 . S
C109 C108 1.363 1_554 S
C109 C115 1.363 . S
C110 C111 1.363 . S
C110 C115 1.379 . S
C110 N117 1.356 . S
C111 C110 1.363 . S
C111 C114 1.363 1_554 S
N112 C114 1.356 . S
N112 H124 0.984 . S
N112 H125 0.985 . S
N113 C115 1.356 . S
N113 H118 0.984 . S
N113 H119 0.985 . S
C114 C108 1.379 . S
C114 C111 1.363 1_556 S
C114 N112 1.356 . S
C115 C109 1.363 . S
C115 C110 1.379 . S
C115 N113 1.356 . S
N116 C108 1.356 . S
N116 H122 0.984 . S
N116 H123 0.984 . S
N117 C110 1.356 . S
N117 H120 0.984 . S
N117 H121 0.985 . S
H118 N113 0.984 . S
H119 N113 0.985 . S
H120 N117 0.984 . S
H121 N117 0.985 . S
H122 N116 0.984 . S
H123 N116 0.984 . S
H124 N112 0.984 . S
H125 N112 0.985 . S
C126 C127 1.363 . S
C126 C132 1.379 . S
C126 N134 1.356 . S
C127 C126 1.363 . S
C127 C133 1.363 . S
C128 C129 1.363 . S
C128 C133 1.379 . S
C128 N135 1.356 . S
C129 C128 1.363 . S
C129 C132 1.363 . S
N130 C132 1.356 . S
N130 H142 0.984 . S
N130 H143 0.985 . S
N131 C133 1.356 . S
N131 H136 0.984 . S
N131 H137 0.985 . S
C132 C126 1.379 . S
C132 C129 1.363 . S
C132 N130 1.356 . S
C133 C127 1.363 . S
C133 C128 1.379 . S
C133 N131 1.356 . S
N134 C126 1.356 . S
N134 H140 0.984 . S
N134 H141 0.984 . S
N135 C128 1.356 . S
N135 H138 0.984 . S
N135 H139 0.985 . S
H136 N131 0.984 . S
H137 N131 0.985 . S
H138 N135 0.984 . S
H139 N135 0.985 . S
H140 N134 0.984 . S
H141 N134 0.984 . S
H142 N130 0.984 . S
H143 N130 0.985 . S
C144 C145 1.363 . S
C144 C150 1.379 . S
C144 N152 1.356 . S
C145 C144 1.363 . S
C145 C151 1.363 1_554 S
C146 C147 1.363 1_556 S
C146 C151 1.379 . S
C146 N153 1.356 . S
C147 C146 1.363 1_554 S
C147 C150 1.363 . S
N148 C150 1.356 . S
N148 H160 0.984 . S
N148 H161 0.985 . S
N149 C151 1.356 . S
N149 H154 0.984 . S
N149 H155 0.985 . S
C150 C144 1.379 . S
C150 C147 1.363 . S
C150 N148 1.356 . S
C151 C145 1.363 1_556 S
C151 C146 1.379 . S
C151 N149 1.356 . S
N152 C144 1.356 . S
N152 H158 0.984 . S
N152 H159 0.984 . S
N153 C146 1.356 . S
N153 H156 0.984 . S
N153 H157 0.985 . S
H154 N149 0.984 . S
H155 N149 0.985 . S
H156 N153 0.984 . S
H157 N153 0.985 . S
H158 N152 0.984 . S
H159 N152 0.984 . S
H160 N148 0.984 . S
H161 N148 0.985 . S
C162 C163 1.363 . S
C162 C168 1.379 . S
C162 N170 1.356 . S
C163 C162 1.363 . S
C163 C169 1.363 . S
C164 C165 1.363 . S
C164 C169 1.379 . S
C164 N171 1.356 . S
C165 C164 1.363 . S
C165 C168 1.363 . S
N166 C168 1.356 . S
N166 H178 0.984 . S
N166 H179 0.985 . S
N167 C169 1.356 . S
N167 H172 0.984 . S
N167 H173 0.985 . S
C168 C162 1.379 . S
C168 C165 1.363 . S
C168 N166 1.356 . S
C169 C163 1.363 . S
C169 C164 1.379 . S
C169 N167 1.356 . S
N170 C162 1.356 . S
N170 H176 0.984 . S
N170 H177 0.984 . S
N171 C164 1.356 . S
N171 H174 0.984 . S
N171 H175 0.971 1_565 S
H172 N167 0.984 . S
H173 N167 0.985 . S
H174 N171 0.984 . S
H175 N171 0.971 1_545 S
H176 N170 0.984 . S
H177 N170 0.984 . S
H178 N166 0.984 . S
H179 N166 0.985 . S
C180 C181 1.363 . S
C180 C186 1.379 . S
C180 N188 1.356 . S
C181 C180 1.363 . S
C181 C187 1.363 . S
C182 C183 1.363 . S
C182 C187 1.379 . S
C182 N189 1.356 . S
C183 C182 1.363 . S
C183 C186 1.363 . S
N184 C186 1.356 . S
N184 H196 0.984 . S
N184 H197 0.985 . S
N185 C187 1.356 . S
N185 H190 0.984 . S
N185 H191 0.985 . S
C186 C180 1.379 . S
C186 C183 1.363 . S
C186 N184 1.356 . S
C187 C181 1.363 . S
C187 C182 1.379 . S
C187 N185 1.356 . S
N188 C180 1.356 . S
N188 H194 0.984 . S
N188 H195 0.984 . S
N189 C182 1.356 . S
N189 H192 0.984 . S
N189 H193 0.985 . S
H190 N185 0.984 . S
H191 N185 0.985 . S
H192 N189 0.984 . S
H193 N189 0.985 . S
H194 N188 0.984 . S
H195 N188 0.984 . S
H196 N184 0.984 . S
H197 N184 0.985 . S
C198 C199 1.363 . S
C198 C204 1.379 . S
C198 N206 1.356 . S
C199 C198 1.363 . S
C199 C205 1.363 . S
C200 C201 1.363 . S
C200 C205 1.379 . S
C200 N207 1.356 . S
C201 C200 1.363 . S
C201 C204 1.363 . S
N202 C204 1.356 . S
N202 H214 0.984 . S
N202 H215 0.985 . S
N203 C205 1.356 . S
N203 H208 0.984 . S
N203 H209 0.985 . S
C204 C198 1.379 . S
C204 C201 1.363 . S
C204 N202 1.356 . S
C205 C199 1.363 . S
C205 C200 1.379 . S
C205 N203 1.356 . S
N206 C198 1.356 . S
N206 H212 0.984 . S
N206 H213 0.984 . S
N207 C200 1.356 . S
N207 H210 0.984 . S
N207 H211 0.985 . S
H208 N203 0.984 . S
H209 N203 0.985 . S
H210 N207 0.984 . S
H211 N207 0.985 . S
H212 N206 0.984 . S
H213 N206 0.984 . S
H214 N202 0.984 . S
H215 N202 0.985 . S
C216 C217 1.363 . S
C216 C222 1.379 . S
C216 N224 1.356 . S
C217 C216 1.363 . S
C217 C223 1.363 . S
C218 C219 1.363 . S
C218 C223 1.379 . S
C218 N225 1.356 . S
C219 C218 1.363 . S
C219 C222 1.363 . S
N220 C222 1.356 . S
N220 H232 0.984 . S
N220 H233 0.985 . S
N221 C223 1.356 . S
N221 H226 0.984 . S
N221 H227 0.985 . S
C222 C216 1.379 . S
C222 C219 1.363 . S
C222 N220 1.356 . S
C223 C217 1.363 . S
C223 C218 1.379 . S
C223 N221 1.356 . S
N224 C216 1.356 . S
N224 H230 0.984 . S
N224 H231 0.984 . S
N225 C218 1.356 . S
N225 H228 0.984 . S
N225 H229 0.985 . S
H226 N221 0.984 . S
H227 N221 0.985 . S
H228 N225 0.984 . S
H229 N225 0.985 . S
H230 N224 0.984 . S
H231 N224 0.984 . S
H232 N220 0.984 . S
H233 N220 0.985 . S
C234 C235 1.363 . S
C234 C240 1.379 . S
C234 N242 1.356 . S
C235 C234 1.363 . S
C235 C241 1.363 . S
C236 C237 1.363 . S
C236 C241 1.379 . S
C236 N243 1.356 . S
C237 C236 1.363 . S
C237 C240 1.363 . S
N238 C240 1.356 . S
N238 H250 0.984 . S
N238 H251 0.985 . S
N239 C241 1.356 . S
N239 H244 0.984 . S
N239 H245 0.985 . S
C240 C234 1.379 . S
C240 C237 1.363 . S
C240 N238 1.356 . S
C241 C235 1.363 . S
C241 C236 1.379 . S
C241 N239 1.356 . S
N242 C234 1.356 . S
N242 H248 0.984 . S
N242 H249 0.984 . S
N243 C236 1.356 . S
N243 H246 0.984 . S
N243 H247 0.985 . S
H244 N239 0.984 . S
H245 N239 0.985 . S
H246 N243 0.984 . S
H247 N243 0.985 . S
H248 N242 0.984 . S
H249 N242 0.984 . S
H250 N238 0.984 . S
H251 N238 0.985 . S
C252 C253 1.363 . S
C252 C258 1.379 . S
C252 N260 1.356 . S
C253 C252 1.363 . S
C253 C259 1.363 . S
C254 C255 1.363 . S
C254 C259 1.379 . S
C254 N261 1.356 . S
C255 C254 1.363 . S
C255 C258 1.363 . S
N256 C258 1.356 1_455 S
N256 H268 0.984 . S
N256 H269 0.985 . S
N257 C259 1.356 . S
N257 H262 0.984 . S
N257 H263 0.985 . S
C258 C252 1.379 . S
C258 C255 1.363 . S
C258 N256 1.356 1_655 S
C259 C253 1.363 . S
C259 C254 1.379 . S
C259 N257 1.356 . S
N260 C252 1.356 . S
N260 H266 0.984 1_556 S
N260 H267 0.988 . S
N261 C254 1.356 . S
N261 H264 0.984 . S
N261 H265 0.985 . S
H262 N257 0.984 . S
H263 N257 0.985 . S
H264 N261 0.984 . S
H265 N261 0.985 . S
H266 N260 0.984 1_554 S
H267 N260 0.988 . S
H268 N256 0.984 . S
H269 N256 0.985 . S
C270 C271 1.363 . S
C270 C276 1.379 . S
C270 N278 1.356 . S
C271 C270 1.363 . S
C271 C277 1.363 . S
C272 C273 1.363 . S
C272 C277 1.379 . S
C272 N279 1.356 . S
C273 C272 1.363 . S
C273 C276 1.363 . S
N274 C276 1.356 . S
N274 H286 0.984 . S
N274 H287 0.985 . S
N275 C277 1.356 . S
N275 H280 0.984 . S
N275 H281 0.985 . S
C276 C270 1.379 . S
C276 C273 1.363 . S
C276 N274 1.356 . S
C277 C271 1.363 . S
C277 C272 1.379 . S
C277 N275 1.356 . S
N278 C270 1.356 . S
N278 H284 0.984 . S
N278 H285 0.984 . S
N279 C272 1.356 . S
N279 H282 0.984 . S
N279 H283 0.985 . S
H280 N275 0.984 . S
H281 N275 0.985 . S
H282 N279 0.984 . S
H283 N279 0.985 . S
H284 N278 0.984 . S
H285 N278 0.984 . S
H286 N274 0.984 . S
H287 N274 0.985 . S
C288 C289 1.363 . S
C288 C294 1.379 . S
C288 N296 1.356 . S
C289 C288 1.363 . S
C289 C295 1.363 . S
C290 C291 1.363 . S
C290 C295 1.379 . S
C290 N297 1.356 . S
C291 C290 1.363 . S
C291 C294 1.363 . S
N292 C294 1.356 . S
N292 H304 0.984 1_565 S
N292 H305 0.985 . S
N293 C295 1.356 . S
N293 H298 0.984 . S
N293 H299 0.985 . S
C294 C288 1.379 . S
C294 C291 1.363 . S
C294 N292 1.356 . S
C295 C289 1.363 . S
C295 C290 1.379 . S
C295 N293 1.356 . S
N296 C288 1.356 . S
N296 H302 0.984 . S
N296 H303 0.984 . S
N297 C290 1.356 . S
N297 H300 0.984 . S
N297 H301 0.985 . S
H298 N293 0.984 . S
H299 N293 0.985 . S
H300 N297 0.984 . S
H301 N297 0.985 . S
H302 N296 0.984 . S
H303 N296 0.984 . S
H304 N292 0.984 1_545 S
H305 N292 0.985 . S
C93 C61 1.491 . S
C91 C43 1.492 . S
C109 C10 1.492 . S
C111 C84 1.493 . S
C127 C21 1.511 . S
C129 C60 1.515 . S
C145 C32 1.512 . S
C147 C83 1.514 . S
C165 C64 1.491 . S
C163 C5 1.521 . S
C183 C86 1.493 . S
C181 C15 1.553 . S
C199 C27 1.548 . S
C201 C65 1.496 . S
C217 C38 1.539 . S
C219 C85 1.491 . S
C237 C88 1.428 . S
C235 C16 1.476 . S
C255 C63 1.428 . S
C253 C26 1.494 . S
C273 C87 1.423 . S
C271 C37 1.472 . S
C289 C4 1.477 . S
C291 C62 1.424 . S
