# Generated by pormake.
# Topology ptr, (4,4)-cn, num edge types: 1
# Building blocks:
#     Node 0, Type 0, BuildingBlock: UXUYUI_clean_sbu_0, # of connection points: 4
#     Node 1, Type 0, BuildingBlock: UXUYUI_clean_sbu_0, # of connection points: 4
#     Node 2, Type 0, BuildingBlock: UXUYUI_clean_sbu_0, # of connection points: 4
#     Node 3, Type 0, BuildingBlock: UXUYUI_clean_sbu_0, # of connection points: 4
#     Node 4, Type 0, BuildingBlock: UXUYUI_clean_sbu_0, # of connection points: 4
#     Node 5, Type 0, BuildingBlock: UXUYUI_clean_sbu_0, # of connection points: 4
#     Node 6, Type 0, BuildingBlock: UXUYUI_clean_sbu_0, # of connection points: 4
#     Node 7, Type 0, BuildingBlock: UXUYUI_clean_sbu_0, # of connection points: 4
#     Node 8, Type 0, BuildingBlock: UXUYUI_clean_sbu_0, # of connection points: 4
#     Node 9, Type 0, BuildingBlock: UXUYUI_clean_sbu_0, # of connection points: 4
#     Node 10, Type 0, BuildingBlock: UXUYUI_clean_sbu_0, # of connection points: 4
#     Node 11, Type 0, BuildingBlock: UXUYUI_clean_sbu_0, # of connection points: 4
#     Node 12, Type 0, BuildingBlock: UXUYUI_clean_sbu_0, # of connection points: 4
#     Node 13, Type 0, BuildingBlock: UXUYUI_clean_sbu_0, # of connection points: 4
#     Node 14, Type 0, BuildingBlock: UXUYUI_clean_sbu_0, # of connection points: 4
#     Node 15, Type 0, BuildingBlock: UXUYUI_clean_sbu_0, # of connection points: 4
#     Node 16, Type 0, BuildingBlock: UXUYUI_clean_sbu_0, # of connection points: 4
#     Node 17, Type 0, BuildingBlock: UXUYUI_clean_sbu_0, # of connection points: 4
#     Node 18, Type 1, BuildingBlock: MUDLON_clean_linker_0, # of connection points: 4
#     Node 19, Type 1, BuildingBlock: MUDLON_clean_linker_0, # of connection points: 4
#     Node 20, Type 1, BuildingBlock: MUDLON_clean_linker_0, # of connection points: 4
#     Node 21, Type 1, BuildingBlock: MUDLON_clean_linker_0, # of connection points: 4
#     Node 22, Type 1, BuildingBlock: MUDLON_clean_linker_0, # of connection points: 4
#     Node 23, Type 1, BuildingBlock: MUDLON_clean_linker_0, # of connection points: 4
#     Node 24, Type 1, BuildingBlock: MUDLON_clean_linker_0, # of connection points: 4
#     Node 25, Type 1, BuildingBlock: MUDLON_clean_linker_0, # of connection points: 4
#     Node 26, Type 1, BuildingBlock: MUDLON_clean_linker_0, # of connection points: 4
#     Node 27, Type 1, BuildingBlock: MUDLON_clean_linker_0, # of connection points: 4
#     Node 28, Type 1, BuildingBlock: MUDLON_clean_linker_0, # of connection points: 4
#     Node 29, Type 1, BuildingBlock: MUDLON_clean_linker_0, # of connection points: 4
#     Node 30, Type 1, BuildingBlock: MUDLON_clean_linker_0, # of connection points: 4
#     Node 31, Type 1, BuildingBlock: MUDLON_clean_linker_0, # of connection points: 4
#     Node 32, Type 1, BuildingBlock: MUDLON_clean_linker_0, # of connection points: 4
#     Node 33, Type 1, BuildingBlock: MUDLON_clean_linker_0, # of connection points: 4
#     Node 34, Type 1, BuildingBlock: MUDLON_clean_linker_0, # of connection points: 4
#     Node 35, Type 1, BuildingBlock: MUDLON_clean_linker_0, # of connection points: 4
#     Edge 36, Type (0, 1), BuildingBlock: KIFKEQ_clean_linker_1, # of connection points: 2
#     Edge 37, Type (0, 1), BuildingBlock: KIFKEQ_clean_linker_1, # of connection points: 2
#     Edge 38, Type (0, 1), BuildingBlock: KIFKEQ_clean_linker_1, # of connection points: 2
#     Edge 39, Type (0, 1), BuildingBlock: KIFKEQ_clean_linker_1, # of connection points: 2
#     Edge 40, Type (0, 1), BuildingBlock: KIFKEQ_clean_linker_1, # of connection points: 2
#     Edge 41, Type (0, 1), BuildingBlock: KIFKEQ_clean_linker_1, # of connection points: 2
#     Edge 42, Type (0, 1), BuildingBlock: KIFKEQ_clean_linker_1, # of connection points: 2
#     Edge 43, Type (0, 1), BuildingBlock: KIFKEQ_clean_linker_1, # of connection points: 2
#     Edge 44, Type (0, 1), BuildingBlock: KIFKEQ_clean_linker_1, # of connection points: 2
#     Edge 45, Type (0, 1), BuildingBlock: KIFKEQ_clean_linker_1, # of connection points: 2
#     Edge 46, Type (0, 1), BuildingBlock: KIFKEQ_clean_linker_1, # of connection points: 2
#     Edge 47, Type (0, 1), BuildingBlock: KIFKEQ_clean_linker_1, # of connection points: 2
#     Edge 48, Type (0, 1), BuildingBlock: KIFKEQ_clean_linker_1, # of connection points: 2
#     Edge 49, Type (0, 1), BuildingBlock: KIFKEQ_clean_linker_1, # of connection points: 2
#     Edge 50, Type (0, 1), BuildingBlock: KIFKEQ_clean_linker_1, # of connection points: 2
#     Edge 51, Type (0, 1), BuildingBlock: KIFKEQ_clean_linker_1, # of connection points: 2
#     Edge 52, Type (0, 1), BuildingBlock: KIFKEQ_clean_linker_1, # of connection points: 2
#     Edge 53, Type (0, 1), BuildingBlock: KIFKEQ_clean_linker_1, # of connection points: 2
#     Edge 54, Type (0, 1), BuildingBlock: KIFKEQ_clean_linker_1, # of connection points: 2
#     Edge 55, Type (0, 1), BuildingBlock: KIFKEQ_clean_linker_1, # of connection points: 2
#     Edge 56, Type (0, 1), BuildingBlock: KIFKEQ_clean_linker_1, # of connection points: 2
#     Edge 57, Type (0, 1), BuildingBlock: KIFKEQ_clean_linker_1, # of connection points: 2
#     Edge 58, Type (0, 1), BuildingBlock: KIFKEQ_clean_linker_1, # of connection points: 2
#     Edge 59, Type (0, 1), BuildingBlock: KIFKEQ_clean_linker_1, # of connection points: 2
#     Edge 60, Type (0, 1), BuildingBlock: KIFKEQ_clean_linker_1, # of connection points: 2
#     Edge 61, Type (0, 1), BuildingBlock: KIFKEQ_clean_linker_1, # of connection points: 2
#     Edge 62, Type (0, 1), BuildingBlock: KIFKEQ_clean_linker_1, # of connection points: 2
#     Edge 63, Type (0, 1), BuildingBlock: KIFKEQ_clean_linker_1, # of connection points: 2
#     Edge 64, Type (0, 1), BuildingBlock: KIFKEQ_clean_linker_1, # of connection points: 2
#     Edge 65, Type (0, 1), BuildingBlock: KIFKEQ_clean_linker_1, # of connection points: 2
#     Edge 66, Type (0, 1), BuildingBlock: KIFKEQ_clean_linker_1, # of connection points: 2
#     Edge 67, Type (0, 1), BuildingBlock: KIFKEQ_clean_linker_1, # of connection points: 2
#     Edge 68, Type (0, 1), BuildingBlock: KIFKEQ_clean_linker_1, # of connection points: 2
#     Edge 69, Type (0, 1), BuildingBlock: KIFKEQ_clean_linker_1, # of connection points: 2
#     Edge 70, Type (0, 1), BuildingBlock: KIFKEQ_clean_linker_1, # of connection points: 2
#     Edge 71, Type (0, 1), BuildingBlock: KIFKEQ_clean_linker_1, # of connection points: 2
#     Edge 72, Type (0, 1), BuildingBlock: KIFKEQ_clean_linker_1, # of connection points: 2
#     Edge 73, Type (0, 1), BuildingBlock: KIFKEQ_clean_linker_1, # of connection points: 2
#     Edge 74, Type (0, 1), BuildingBlock: KIFKEQ_clean_linker_1, # of connection points: 2
#     Edge 75, Type (0, 1), BuildingBlock: KIFKEQ_clean_linker_1, # of connection points: 2
#     Edge 76, Type (0, 1), BuildingBlock: KIFKEQ_clean_linker_1, # of connection points: 2
#     Edge 77, Type (0, 1), BuildingBlock: KIFKEQ_clean_linker_1, # of connection points: 2
#     Edge 78, Type (0, 1), BuildingBlock: KIFKEQ_clean_linker_1, # of connection points: 2
#     Edge 79, Type (0, 1), BuildingBlock: KIFKEQ_clean_linker_1, # of connection points: 2
#     Edge 80, Type (0, 1), BuildingBlock: KIFKEQ_clean_linker_1, # of connection points: 2
#     Edge 81, Type (0, 1), BuildingBlock: KIFKEQ_clean_linker_1, # of connection points: 2
#     Edge 82, Type (0, 1), BuildingBlock: KIFKEQ_clean_linker_1, # of connection points: 2
#     Edge 83, Type (0, 1), BuildingBlock: KIFKEQ_clean_linker_1, # of connection points: 2
#     Edge 84, Type (0, 1), BuildingBlock: KIFKEQ_clean_linker_1, # of connection points: 2
#     Edge 85, Type (0, 1), BuildingBlock: KIFKEQ_clean_linker_1, # of connection points: 2
#     Edge 86, Type (0, 1), BuildingBlock: KIFKEQ_clean_linker_1, # of connection points: 2
#     Edge 87, Type (0, 1), BuildingBlock: KIFKEQ_clean_linker_1, # of connection points: 2
#     Edge 88, Type (0, 1), BuildingBlock: KIFKEQ_clean_linker_1, # of connection points: 2
#     Edge 89, Type (0, 1), BuildingBlock: KIFKEQ_clean_linker_1, # of connection points: 2
#     Edge 90, Type (0, 1), BuildingBlock: KIFKEQ_clean_linker_1, # of connection points: 2
#     Edge 91, Type (0, 1), BuildingBlock: KIFKEQ_clean_linker_1, # of connection points: 2
#     Edge 92, Type (0, 1), BuildingBlock: KIFKEQ_clean_linker_1, # of connection points: 2
#     Edge 93, Type (0, 1), BuildingBlock: KIFKEQ_clean_linker_1, # of connection points: 2
#     Edge 94, Type (0, 1), BuildingBlock: KIFKEQ_clean_linker_1, # of connection points: 2
#     Edge 95, Type (0, 1), BuildingBlock: KIFKEQ_clean_linker_1, # of connection points: 2
#     Edge 96, Type (0, 1), BuildingBlock: KIFKEQ_clean_linker_1, # of connection points: 2
#     Edge 97, Type (0, 1), BuildingBlock: KIFKEQ_clean_linker_1, # of connection points: 2
#     Edge 98, Type (0, 1), BuildingBlock: KIFKEQ_clean_linker_1, # of connection points: 2
#     Edge 99, Type (0, 1), BuildingBlock: KIFKEQ_clean_linker_1, # of connection points: 2
#     Edge 100, Type (0, 1), BuildingBlock: KIFKEQ_clean_linker_1, # of connection points: 2
#     Edge 101, Type (0, 1), BuildingBlock: KIFKEQ_clean_linker_1, # of connection points: 2
#     Edge 102, Type (0, 1), BuildingBlock: KIFKEQ_clean_linker_1, # of connection points: 2
#     Edge 103, Type (0, 1), BuildingBlock: KIFKEQ_clean_linker_1, # of connection points: 2
#     Edge 104, Type (0, 1), BuildingBlock: KIFKEQ_clean_linker_1, # of connection points: 2
#     Edge 105, Type (0, 1), BuildingBlock: KIFKEQ_clean_linker_1, # of connection points: 2
#     Edge 106, Type (0, 1), BuildingBlock: KIFKEQ_clean_linker_1, # of connection points: 2
#     Edge 107, Type (0, 1), BuildingBlock: KIFKEQ_clean_linker_1, # of connection points: 2
# Relax obj value: 0.080
# Max RMSD: 0.221
# Mean RMSD: 0.104
data_MOF--net-ptr--node1-UXUYUI_clean_sbu_0--node2-MUDLON_clean_linker_0--edge1-KIFKEQ_clean_linker_1
_symmetry_space_group_name_H-M    P1
_symmetry_Int_Tables_number       1
_symmetry_cell_setting            triclinic
loop_
_symmetry_equiv_pos_as_xyz
'x, y, z'
_cell_length_a     125.62693
_cell_length_b     125.63353
_cell_length_c     70.926403
_cell_angle_alpha  90.011771
_cell_angle_beta   90.008468
_cell_angle_gamma 120.031
loop_
_atom_site_label
_atom_site_type_symbol
_atom_site_fract_x
_atom_site_fract_y
_atom_site_fract_z
_atom_type_partial_charge
Li0 Li 0.99302 0.35049 0.0093 0.0
Li1 Li 0.01511 0.36269 0.01246 0.0
Li2 Li 0.00134 0.36921 0.02673 0.0
Li3 Li 0.00443 0.37057 0.99309 0.0
C4 C 0.99733 0.34441 0.04373 0.0
N5 N 0.98583 0.3232 0.06511 0.0
C6 C 0.00312 0.33754 0.04698 0.0
C7 C 0.9858 0.3406 0.05164 0.0
C8 C 0.99713 0.32681 0.05775 0.0
C9 C 0.9801 0.32982 0.06233 0.0
C10 C 0.01336 0.35748 0.9742 0.0
C11 C 0.03204 0.37058 0.95715 0.0
N12 N 0.02903 0.36146 0.94433 0.0
C13 C 0.01045 0.34823 0.96088 0.0
C14 C 0.02424 0.36875 0.97236 0.0
C15 C 0.01849 0.35042 0.94587 0.0
C16 C 0.96854 0.33113 0.00239 0.0
N17 N 0.9802 0.33392 0.00665 0.0
C18 C 0.97446 0.31271 0.00546 0.0
C19 C 0.9833 0.32503 0.00812 0.0
C20 C 0.96235 0.30948 0.00062 0.0
C21 C 0.95943 0.31892 0.99924 0.0
H22 H 0.96639 0.33842 0.00095 0.0
H23 H 0.9927 0.32754 0.01113 0.0
C24 C 0.04027 0.36885 0.0213 0.0
N25 N 0.02906 0.36044 0.01441 0.0
C26 C 0.04939 0.36571 0.0239 0.0
C27 C 0.03558 0.34562 0.011 0.0
C28 C 0.0267 0.3491 0.0089 0.0
C29 C 0.04702 0.35385 0.01908 0.0
H30 H 0.04215 0.37791 0.02521 0.0
H31 H 0.01774 0.3426 0.00332 0.0
C32 C 0.98075 0.36738 0.01221 0.0
N33 N 0.96523 0.37575 0.02385 0.0
C34 C 0.98187 0.37814 0.00454 0.0
C35 C 0.97159 0.36075 0.02553 0.0
C36 C 0.97397 0.38225 0.01068 0.0
C37 C 0.96388 0.36517 0.03132 0.0
C38 C 0.02637 0.38729 0.02434 0.0
C39 C 0.02677 0.3838 0.04295 0.0
C40 C 0.03546 0.39881 0.01791 0.0
C41 C 0.03624 0.39194 0.05482 0.0
C42 C 0.04481 0.40666 0.03021 0.0
N43 N 0.04499 0.4031 0.04826 0.0
C44 C 0.99815 0.3739 0.06526 0.0
C45 C 1.00029 0.38892 0.04297 0.0
C46 C 0.99801 0.38118 0.08007 0.0
N47 N 0.99935 0.37792 0.04716 0.0
C48 C 0.99989 0.39633 0.05726 0.0
C49 C 0.99891 0.39254 0.07607 0.0
H50 H 0.99775 0.36527 0.06824 0.0
H51 H 0.00172 0.3921 0.02854 0.0
C52 C 0.99932 0.37431 0.95548 0.0
N53 N 0.00531 0.37993 0.97164 0.0
C54 C 0.99898 0.3813 0.94041 0.0
C55 C 0.01118 0.39969 0.95885 0.0
C56 C 0.01131 0.39235 0.9735 0.0
C57 C 0.00478 0.39416 0.94214 0.0
H58 H 0.99452 0.36438 0.95452 0.0
H59 H 0.01586 0.39653 0.98663 0.0
O60 O 0.00299 0.35485 0.03301 0.0
O61 O 0.00556 0.35541 0.98898 0.0
O62 O 0.98847 0.36327 0.0065 0.0
O63 O 0.01701 0.37966 0.01254 0.0
H64 H 0.01214 0.34044 0.04124 0.0
H65 H 0.98129 0.34591 0.04954 0.0
H66 H 0.00147 0.32137 0.06028 0.0
H67 H 0.97113 0.32673 0.06842 0.0
H68 H 0.04049 0.37926 0.95554 0.0
H69 H 0.00207 0.33944 0.96215 0.0
H70 H 0.02668 0.37602 0.98254 0.0
H71 H 0.01636 0.34334 0.93544 0.0
H72 H 0.97717 0.30582 0.00703 0.0
H73 H 0.95033 0.31698 0.99518 0.0
H74 H 0.05802 0.37237 0.03027 0.0
H75 H 0.03339 0.33649 0.00662 0.0
H76 H 0.98882 0.38334 0.9941 0.0
H77 H 0.9704 0.35227 0.0313 0.0
H78 H 0.97481 0.39062 0.00498 0.0
H79 H 0.95679 0.36016 0.0417 0.0
H80 H 0.01993 0.3749 0.04818 0.0
H81 H 0.03531 0.40165 0.00356 0.0
H82 H 0.03665 0.38936 0.06924 0.0
H83 H 0.05191 0.4156 0.02541 0.0
H84 H 0.99735 0.37805 0.09448 0.0
H85 H 0.00083 0.40515 0.05373 0.0
H86 H 0.99384 0.37666 0.92786 0.0
H87 H 0.01588 0.40957 0.9607 0.0
Li88 Li 0.65147 0.63924 0.00833 0.0
Li89 Li 0.63961 0.64932 0.0158 0.0
Li90 Li 0.63348 0.62869 0.02772 0.0
Li91 Li 0.63109 0.63208 0.99446 0.0
C92 C 0.66007 0.65002 0.04082 0.0
N93 N 0.684 0.66169 0.0539 0.0
C94 C 0.66709 0.66285 0.0408 0.0
C95 C 0.6652 0.64312 0.0476 0.0
C96 C 0.67918 0.66858 0.04747 0.0
C97 C 0.67732 0.64919 0.05411 0.0
C98 C 0.64646 0.65024 0.97239 0.0
C99 C 0.63855 0.65534 0.94497 0.0
N100 N 0.64621 0.65334 0.93387 0.0
C101 C 0.65429 0.64829 0.96073 0.0
C102 C 0.63857 0.65385 0.96448 0.0
C103 C 0.65402 0.64989 0.94128 0.0
C104 C 0.67059 0.63341 0.00319 0.0
N105 N 0.66775 0.64252 0.00357 0.0
C106 C 0.6886 0.65765 0.99716 0.0
C107 C 0.67643 0.65445 0.00055 0.0
C108 C 0.69188 0.64847 0.99673 0.0
C109 C 0.68267 0.6362 -0.00023 0.0
H110 H 0.66348 0.62399 0.00551 0.0
H111 H 0.67385 0.66148 0.00072 0.0
C112 C 0.63839 0.66672 0.03952 0.0
N113 N 0.64119 0.66481 0.02181 0.0
C114 C 0.64065 0.67835 0.04493 0.0
C115 C 0.64873 0.68587 0.01379 0.0
C116 C 0.64616 0.67404 0.00892 0.0
C117 C 0.64616 0.68821 0.03213 0.0
H118 H 0.63472 0.65929 0.04963 0.0
H119 H 0.64859 0.67235 0.99507 0.0
C120 C 0.63307 0.61019 0.0101 0.0
N121 N 0.62252 0.58593 0.02125 0.0
C122 C 0.62184 0.60134 0.00242 0.0
C123 C 0.63898 0.6067 0.02336 0.0
C124 C 0.61666 0.58911 0.00825 0.0
C125 C 0.63348 0.59439 0.02885 0.0
C126 C 0.61589 0.63915 0.02283 0.0
C127 C 0.61213 0.63742 0.04168 0.0
C128 C 0.61269 0.64597 0.01092 0.0
C129 C 0.6053 0.64264 0.04833 0.0
C130 C 0.60587 0.65105 0.01811 0.0
N131 N 0.60235 0.6493 0.03651 0.0
C132 C 0.63179 0.61856 0.06429 0.0
C133 C 0.61387 0.60841 0.04539 0.0
C134 C 0.62593 0.61022 0.07897 0.0
N135 N 0.62571 0.61747 0.04792 0.0
C136 C 0.60766 0.59987 0.05966 0.0
C137 C 0.61368 0.60072 0.07676 0.0
H138 H 0.64115 0.62595 0.06602 0.0
H139 H 0.60925 0.60784 0.03224 0.0
C140 C 0.62546 0.62148 0.95804 0.0
N141 N 0.62096 0.62476 0.97299 0.0
C142 C 0.61792 0.61544 0.94263 0.0
C143 C 0.60117 0.61596 0.95852 0.0
C144 C 0.60908 0.62215 0.9735 0.0
C145 C 0.60552 0.61245 0.9428 0.0
H146 H 0.63486 0.62341 0.95821 0.0
H147 H 0.60566 0.62458 0.98578 0.0
O148 O 0.64832 0.64423 0.03394 0.0
O149 O 0.64648 0.64859 0.99144 0.0
O150 O 0.63816 0.62225 0.00489 0.0
O151 O 0.62271 0.63425 0.0161 0.0
H152 H 0.66332 0.66834 0.03552 0.0
H153 H 0.65994 0.63318 0.04753 0.0
H154 H 0.68474 0.6785 0.04745 0.0
H155 H 0.68144 0.64397 0.05924 0.0
H156 H 0.63244 0.65806 0.93864 0.0
H157 H 0.66042 0.64544 0.9666 0.0
H158 H 0.63245 0.6554 0.97332 0.0
H159 H 0.65998 0.64836 0.93207 0.0
H160 H 0.69533 0.6672 0.99452 0.0
H161 H 0.68481 0.62885 -0.00036 0.0
H162 H 0.63836 0.67965 0.05914 0.0
H163 H 0.65318 0.69319 0.00355 0.0
H164 H 0.61711 0.60388 0.9922 0.0
H165 H 0.64761 0.61345 0.02959 0.0
H166 H 0.60794 0.58217 0.00248 0.0
H167 H 0.6379 0.59157 0.03922 0.0
H168 H 0.61457 0.63222 0.05112 0.0
H169 H 0.61554 0.64739 0.9963 0.0
H170 H 0.60238 0.64143 0.0629 0.0
H171 H 0.60339 0.65641 0.00908 0.0
H172 H 0.63086 0.61135 0.09202 0.0
H173 H 0.59828 0.59264 0.05725 0.0
H174 H 0.62177 0.61308 0.93078 0.0
H175 H 0.59165 0.61365 0.95953 0.0
Li176 Li 0.36768 0.99846 0.99242 0.0
Li177 Li 0.36958 0.00113 0.02639 0.0
Li178 Li 0.34882 0.98854 0.01055 0.0
Li179 Li 0.36004 0.01113 0.00833 0.0
C180 C 0.36682 0.97808 0.00463 0.0
N181 N 0.37523 0.96354 0.9889 0.0
C182 C 0.37815 0.97954 0.01015 0.0
C183 C 0.35967 0.96911 0.99134 0.0
C184 C 0.38226 0.97212 0.00197 0.0
C185 C 0.36411 0.96189 0.98348 0.0
C186 C 0.38669 0.025 0.01319 0.0
C187 C 0.39427 0.04285 0.03321 0.0
N188 N 0.40578 0.04706 0.02626 0.0
C189 C 0.39857 0.02955 0.00609 0.0
C190 C 0.3845 0.03175 0.02674 0.0
C191 C 0.40811 0.0407 0.01294 0.0
C192 C 0.37124 0.99411 0.95393 0.0
N193 N 0.37637 0.99724 0.97138 0.0
C194 C 0.39487 0.99844 0.96018 0.0
C195 C 0.38798 0.99953 0.97468 0.0
C196 C 0.3898 0.99511 0.94203 0.0
C197 C 0.37785 0.99301 0.93894 0.0
H198 H 0.36202 0.99243 0.95166 0.0
H199 H 0.39185 0.00209 0.98869 0.0
C200 C 0.37345 0.99582 0.06348 0.0
N201 N 0.37925 0.00179 0.04741 0.0
C202 C 0.38021 0.99509 0.07856 0.0
C203 C 0.39876 0.0067 0.06025 0.0
C204 C 0.39165 0.00719 0.04554 0.0
C205 C 0.39304 0.00047 0.07697 0.0
H206 H 0.36355 0.99141 0.06443 0.0
H207 H 0.39598 0.01146 0.03237 0.0
C208 C 0.34187 0.99395 0.97711 0.0
N209 N 0.32034 0.98367 0.95642 0.0
C210 C 0.33522 1.0001 0.97542 0.0
C211 C 0.33764 0.98264 0.96809 0.0
C212 C 0.32434 0.99473 0.96493 0.0
C213 C 0.32672 0.97757 0.95776 0.0
C214 C 0.34976 0.00428 0.04662 0.0
C215 C 0.33716 0.99945 0.04948 0.0
C216 C 0.35812 0.01242 0.05986 0.0
C217 C 0.33314 0.00308 0.06531 0.0
C218 C 0.35374 0.01581 0.07552 0.0
N219 N 0.34145 0.01112 0.07788 0.0
C220 C 0.33186 0.96395 0.02033 0.0
C221 C 0.32269 0.97555 0.01048 0.0
C222 C 0.32032 0.95384 0.02432 0.0
N223 N 0.33283 0.97455 0.01366 0.0
C224 C 0.31097 0.96562 0.01398 0.0
C225 C 0.3097 0.95465 0.02124 0.0
H226 H 0.34008 0.96347 0.02301 0.0
H227 H 0.32369 0.98418 0.00581 0.0
C228 C 0.36546 0.0343 0.99423 0.0
N229 N 0.35787 0.02504 0.00597 0.0
C230 C 0.36349 0.04413 0.99079 0.0
C231 C 0.34605 0.03481 0.01185 0.0
C232 C 0.34833 0.02516 0.01481 0.0
C233 C 0.35356 0.04439 -0.00054 0.0
H234 H 0.37286 0.03387 0.98713 0.0
H235 H 0.34223 0.01758 0.02369 0.0
O236 O 0.36276 0.98543 0.01217 0.0
O237 O 0.37726 0.01409 0.00662 0.0
O238 O 0.3525 0.99904 0.9874 0.0
O239 O 0.35383 0.0007 0.03128 0.0
H240 H 0.38377 0.9864 0.02048 0.0
H241 H 0.35081 0.96776 0.98712 0.0
H242 H 0.39106 0.97322 0.00599 0.0
H243 H 0.35871 0.95496 0.97308 0.0
H244 H 0.39269 0.04816 0.04372 0.0
H245 H 0.40041 0.02451 0.99546 0.0
H246 H 0.37533 0.02853 0.03203 0.0
H247 H 0.41736 0.04429 0.00765 0.0
H248 H 0.40411 1.00031 0.96311 0.0
H249 H 0.37358 0.99036 0.92517 0.0
H250 H 0.37544 0.99028 0.09125 0.0
H251 H 0.40859 0.01076 0.05828 0.0
H252 H 0.33839 0.00889 0.98217 0.0
H253 H 0.3427 0.9778 0.96915 0.0
H254 H 0.31908 0.99936 0.96358 0.0
H255 H 0.3233 0.96879 0.95081 0.0
H256 H 0.33054 0.99306 0.03951 0.0
H257 H 0.36788 0.01599 0.05824 0.0
H258 H 0.32342 0.99948 0.0676 0.0
H259 H 0.36012 0.02212 0.08584 0.0
H260 H 0.31969 0.94553 0.02994 0.0
H261 H 0.30303 0.96669 0.01179 0.0
H262 H 0.36941 0.0512 0.98089 0.0
H263 H 0.33835 0.03467 0.01897 0.0
Li264 Li 0.01034 0.65298 0.00986 0.0
Li265 Li 0.9968 0.63297 0.02471 0.0
Li266 Li 0.0009 0.6343 0.98979 0.0
Li267 Li 0.98766 0.64126 0.00382 0.0
C268 C 0.02434 0.64058 0.01166 0.0
N269 N 0.04809 0.64464 0.01258 0.0
C270 C 0.02963 0.64014 0.02876 0.0
C271 C 0.03106 0.64283 0.99497 0.0
C272 C 0.04167 0.6423 0.02896 0.0
C273 C 0.04307 0.64492 0.99574 0.0
C274 C 0.99502 0.64934 0.04664 0.0
C275 C 0.98263 0.6418 0.07476 0.0
N276 N 0.99209 0.65058 0.08505 0.0
C277 C 0.00458 0.65836 0.05748 0.0
C278 C 0.98392 0.64105 0.05531 0.0
C279 C 0.00293 0.65882 0.07688 0.0
C280 C 0.02431 0.67864 0.00487 0.0
N281 N 0.02417 0.66901 0.01382 0.0
C282 C 0.04272 0.68264 0.03023 0.0
C283 C 0.03314 0.67078 0.02629 0.0
C284 C 0.04304 0.6928 0.02135 0.0
C285 C 0.03374 0.69065 0.00833 0.0
H286 H 0.01695 0.67702 0.99527 0.0
H287 H 0.03261 0.66305 0.03375 0.0
C288 C 0.98645 0.61096 0.04574 0.0
N289 N 0.99474 0.6232 0.0464 0.0
C290 C 0.98528 0.60338 0.06095 0.0
C291 C 0.00107 0.62118 0.07731 0.0
C292 C 0.00198 0.62839 0.06177 0.0
C293 C 0.99274 0.60846 0.07696 0.0
H294 H 0.98093 0.60704 0.03323 0.0
H295 H 0.00861 0.63811 0.06186 0.0
C296 C 0.00714 0.65581 0.969 0.0
N297 N 0.0189 0.66722 0.93587 0.0
C298 C 1.0005 0.65704 0.95417 0.0
C299 C 0.01979 0.66057 0.96707 0.0
C300 C 0.0066 0.66278 0.9375 0.0
C301 C 0.02556 0.66625 0.9502 0.0
C302 C 0.9731 0.61754 0.99875 0.0
C303 C 0.96984 0.61402 0.97998 0.0
C304 C 0.96392 0.61423 0.01234 0.0
C305 C 0.9574 0.60737 0.97508 0.0
C306 C 0.95159 0.6076 0.00687 0.0
N307 N 0.94862 0.60434 0.9885 0.0
C308 C 0.00677 0.61758 0.97399 0.0
C309 C 0.00069 0.6273 0.95124 0.0
C310 C 0.00808 0.61049 0.96004 0.0
N311 N 0.00317 0.6258 0.96938 0.0
C312 C 0.00188 0.6204 0.93682 0.0
C313 C 0.00556 0.61179 0.94115 0.0
H314 H 0.00853 0.61647 0.98858 0.0
H315 H 0.99747 0.63361 0.94798 0.0
C316 C 0.96914 0.64703 0.01307 0.0
N317 N 0.97366 0.64301 0.99911 0.0
C318 C 0.95938 0.64908 0.00947 0.0
C319 C 0.95902 0.64268 0.97724 0.0
C320 C 0.96876 0.64072 0.98149 0.0
C321 C 0.95429 0.64707 0.99127 0.0
H322 H 0.97326 0.6489 0.02691 0.0
H323 H 0.97258 0.63759 0.97062 0.0
O324 O 0.01249 0.63836 0.01122 0.0
O325 O 0.9965 0.6487 0.02764 0.0
O326 O 0.00128 0.65018 0.9854 0.0
O327 O 0.98522 0.62424 0.00376 0.0
H328 H 0.02455 0.63827 0.04179 0.0
H329 H 0.02703 0.64282 0.98151 0.0
H330 H 0.04591 0.64209 0.04213 0.0
H331 H 0.04837 0.64671 0.98293 0.0
H332 H 0.97413 0.63539 0.08166 0.0
H333 H 0.01318 0.66493 0.051 0.0
H334 H 0.97641 0.63405 0.04714 0.0
H335 H 0.01027 0.66571 0.08545 0.0
H336 H 0.04952 0.68385 0.04068 0.0
H337 H 0.03365 0.69818 0.00103 0.0
H338 H 0.97886 0.59361 0.05993 0.0
H339 H 0.00688 0.62555 0.08944 0.0
H340 H 0.99073 0.65355 0.95546 0.0
H341 H 0.02514 0.66004 0.97856 0.0
H342 H 0.00156 0.66371 0.92587 0.0
H343 H 0.03535 0.66996 0.94853 0.0
H344 H 0.97682 0.61649 0.96929 0.0
H345 H 0.96629 0.61679 0.02694 0.0
H346 H 0.95474 0.60466 0.96059 0.0
H347 H 0.94439 0.60503 0.01722 0.0
H348 H 0.01104 0.60405 0.96401 0.0
H349 H 0.9996 0.62154 0.92251 0.0
H350 H 0.95595 0.65234 0.02078 0.0
H351 H 0.95554 0.64117 0.96294 0.0
Li352 Li 0.35116 0.36099 0.01658 0.0
Li353 Li 0.37083 0.3675 0.03181 0.0
Li354 Li 0.36979 0.37082 0.99764 0.0
Li355 Li 0.36253 0.35011 0.01001 0.0
C356 C 0.36293 0.38466 0.0322 0.0
N357 N 0.35813 0.39776 0.05884 0.0
C358 C 0.35739 0.37917 0.04931 0.0
C359 C 0.36603 0.39681 0.02864 0.0
C360 C 0.35504 0.38594 0.0626 0.0
C361 C 0.36353 0.40328 0.04228 0.0
C362 C 0.35354 0.34515 0.05051 0.0
C363 C 0.35864 0.3334 0.07179 0.0
N364 N 0.3499 0.33256 0.08401 0.0
C365 C 0.34453 0.34407 0.06318 0.0
C366 C 0.36059 0.33969 0.05476 0.0
C367 C 0.34286 0.33771 0.08008 0.0
C368 C 0.32589 0.34633 0.02153 0.0
N369 N 0.33494 0.35822 0.01953 0.0
C370 C 0.3204 0.3651 0.02258 0.0
C371 C 0.33241 0.36755 0.01965 0.0
C372 C 0.31084 0.3529 0.02507 0.0
C373 C 0.31373 0.34344 0.02423 0.0
H374 H 0.32817 0.33909 0.02113 0.0
H375 H 0.33972 0.37692 0.01766 0.0
C376 C 0.39188 0.38546 0.04919 0.0
N377 N 0.38104 0.37516 0.05323 0.0
C378 C 0.40015 0.39212 0.06357 0.0
C379 C 0.38599 0.3774 0.08607 0.0
C380 C 0.37793 0.3711 0.07127 0.0
C381 C 0.39726 0.38807 0.08229 0.0
H382 H 0.39407 0.38851 0.03472 0.0
H383 H 0.36918 0.36308 0.07429 0.0
C384 C 0.34789 0.35777 0.97796 0.0
N385 N 0.33502 0.36217 0.9504 0.0
C386 C 0.34108 0.34876 0.96452 0.0
C387 C 0.34816 0.36903 0.97738 0.0
C388 C 0.33464 0.35115 0.95069 0.0
C389 C 0.34158 0.37107 0.96335 0.0
C390 C 0.38843 0.36167 0.01109 0.0
C391 C 0.39491 0.36258 0.9946 0.0
C392 C 0.3915 0.35802 0.02787 0.0
C393 C 0.40418 0.35953 0.99506 0.0
C394 C 0.40084 0.35506 0.02777 0.0
N395 N 0.40692 0.35585 0.0115 0.0
C396 C 0.38411 0.39361 0.97915 0.0
C397 C 0.37901 0.37587 0.96091 0.0
C398 C 0.39128 0.40125 0.96446 0.0
N399 N 0.37829 0.3812 0.97714 0.0
C400 C 0.38612 0.38313 0.94592 0.0
C401 C 0.39252 0.396 0.9477 0.0
H402 H 0.38345 0.39756 0.99234 0.0
H403 H 0.3743 0.36595 0.95981 0.0
C404 C 0.35184 0.32426 0.0127 0.0
N405 N 0.36061 0.3345 0.0038 0.0
C406 C 0.34951 0.31262 0.00714 0.0
C407 C 0.36521 0.32226 0.98323 0.0
C408 C 0.36724 0.33371 0.98928 0.0
C409 C 0.35613 0.31151 0.99204 0.0
H410 H 0.34635 0.32508 0.0237 0.0
H411 H 0.37382 0.34194 0.98197 0.0
O412 O 0.36533 0.37822 0.01894 0.0
O413 O 0.35528 0.35137 0.03393 0.0
O414 O 0.35419 0.35549 0.9916 0.0
O415 O 0.37937 0.36469 0.01088 0.0
H416 H 0.35491 0.36979 0.0523 0.0
H417 H 0.37029 0.40119 0.01544 0.0
H418 H 0.35076 0.3818 0.0759 0.0
H419 H 0.36586 0.41269 0.0397 0.0
H420 H 0.36405 0.32915 0.07528 0.0
H421 H 0.3389 0.34813 0.06002 0.0
H422 H 0.36741 0.34021 0.04495 0.0
H423 H 0.33596 0.33685 0.09006 0.0
H424 H 0.31872 0.37274 0.02332 0.0
H425 H 0.30668 0.33388 0.02566 0.0
H426 H 0.40877 0.40026 0.06006 0.0
H427 H 0.38335 0.37408 0.10036 0.0
H428 H 0.34079 0.33999 0.96479 0.0
H429 H 0.35337 0.37612 0.98765 0.0
H430 H 0.32933 0.34426 0.9402 0.0
H431 H 0.3417 0.37973 0.96274 0.0
H432 H 0.39275 0.36554 0.98154 0.0
H433 H 0.38682 0.35759 0.04088 0.0
H434 H 0.40921 0.3601 0.98236 0.0
H435 H 0.40329 0.35219 0.04065 0.0
H436 H 0.39616 0.41112 0.96647 0.0
H437 H 0.38673 0.37873 0.93316 0.0
H438 H 0.34224 0.30458 0.01403 0.0
H439 H 0.37052 0.32183 0.97153 0.0
Li440 Li 0.63947 0.98703 0.01249 0.0
Li441 Li 0.63324 0.00108 0.02574 0.0
Li442 Li 0.63014 0.99576 0.99121 0.0
Li443 Li 0.65061 0.00949 0.00457 0.0
C444 C 0.61352 0.97292 0.01471 0.0
N445 N 0.59469 0.94878 0.01718 0.0
C446 C 0.60849 0.96779 0.03224 0.0
C447 C 0.60877 0.96584 0.9984 0.0
C448 C 0.59904 0.95554 0.03322 0.0
C449 C 0.5993 0.95364 -5e-05 0.0
C450 C 0.65192 0.00454 0.04778 0.0
C451 C 0.65728 0.01913 0.07318 0.0
N452 N 0.65709 0.0107 0.08541 0.0
C453 C 0.65189 0.99606 0.06057 0.0
C454 C 0.65474 0.0162 0.05409 0.0
C455 C 0.65449 0.99934 0.07954 0.0
C456 C 0.64968 0.97156 0.00763 0.0
N457 N 0.6416 0.97334 0.01803 0.0
C458 C 0.63831 0.957 0.03884 0.0
C459 C 0.63589 0.96626 0.03334 0.0
C460 C 0.64664 0.95501 0.0284 0.0
C461 C 0.65221 0.96228 0.01243 0.0
H462 H 0.65448 0.97761 0.99597 0.0
H463 H 0.62987 0.96814 0.0418 0.0
C464 C 0.62199 0.01232 0.04575 0.0
N465 N 0.62579 0.00394 0.04704 0.0
C466 C 0.6158 0.01401 0.06079 0.0
C467 C 0.61775 0.99856 0.07827 0.0
C468 C 0.62383 0.99713 0.06289 0.0
C469 C 0.61348 0.00697 0.07727 0.0
H470 H 0.62353 0.0175 0.03288 0.0
H471 H 0.62687 0.99047 0.06351 0.0
C472 C 0.64566 0.98936 0.9712 0.0
N473 N 0.64577 0.97766 0.93824 0.0
C474 C 0.65398 0.99596 0.9568 0.0
C475 C 0.63751 0.97678 0.96891 0.0
C476 C 0.65386 0.98989 0.94023 0.0
C477 C 0.63768 0.97104 0.95213 0.0
C478 C 0.64099 0.02366 0.99688 0.0
C479 C 0.64013 0.02559 0.97767 0.0
C480 C 0.64689 0.03374 0.00901 0.0
C481 C 0.64537 0.0376 0.97085 0.0
C482 C 0.65202 0.04561 0.00165 0.0
N483 N 0.65118 0.04728 0.98288 0.0
C484 C 0.60774 0.99061 0.97572 0.0
C485 C 0.62225 0.9929 0.95241 0.0
C486 C 0.59903 0.98861 0.96189 0.0
N487 N 0.61908 0.99268 0.9708 0.0
C488 C 0.61378 0.99082 0.93811 0.0
C489 C 0.60201 0.98869 0.94279 0.0
H490 H 0.60551 0.99059 0.99046 0.0
H491 H 0.6314 0.9949 0.94874 0.0
C492 C 0.67532 0.02754 0.01256 0.0
N493 N 0.66642 0.02318 0.99909 0.0
C494 C 0.68711 0.0372 0.00848 0.0
C495 C 0.68037 0.03767 0.97674 0.0
C496 C 0.66872 0.02803 0.98144 0.0
C497 C 0.68979 0.04232 0.99031 0.0
H498 H 0.67336 0.02338 0.02637 0.0
H499 H 0.66153 0.02431 0.97092 0.0
O500 O 0.6227 0.98495 0.01351 0.0
O501 O 0.64924 0.00144 0.02918 0.0
O502 O 0.64559 0.9952 0.98745 0.0
O503 O 0.63604 0.01196 0.00378 0.0
H504 H 0.61189 0.97316 0.045 0.0
H505 H 0.61224 0.96972 0.98465 0.0
H506 H 0.59515 0.95143 0.04672 0.0
H507 H 0.59559 0.94805 0.98744 0.0
H508 H 0.65939 0.02809 0.07826 0.0
H509 H 0.64988 0.98705 0.05592 0.0
H510 H 0.65489 0.02289 0.04437 0.0
H511 H 0.65445 0.99285 0.0896 0.0
H512 H 0.63391 0.95163 0.05133 0.0
H513 H 0.65889 0.96118 0.00428 0.0
H514 H 0.61255 0.02049 0.05929 0.0
H515 H 0.61635 0.99307 0.09078 0.0
H516 H 0.66043 0.00567 0.95838 0.0
H517 H 0.63126 0.97146 0.98007 0.0
H518 H 0.6602 0.9949 0.92894 0.0
H519 H 0.63142 0.9613 0.95019 0.0
H520 H 0.63559 0.0179 0.96808 0.0
H521 H 0.64749 0.03242 0.02394 0.0
H522 H 0.64485 0.03923 0.95599 0.0
H523 H 0.65667 0.0535 0.01086 0.0
H524 H 0.59003 0.98695 0.96608 0.0
H525 H 0.6165 0.99117 0.92354 0.0
H526 H 0.69414 0.04038 0.01929 0.0
H527 H 0.68199 0.04143 0.96261 0.0
Li528 Li 0.65688 0.68469 0.34238 0.0
Li529 Li 0.67863 0.69531 0.34811 0.0
Li530 Li 0.6664 0.70293 0.36249 0.0
Li531 Li 0.67072 0.70523 0.32787 0.0
C532 C 0.66418 0.67601 0.37292 0.0
N533 N 0.66195 0.65399 0.38452 0.0
C534 C 0.66597 0.66861 0.36009 0.0
C535 C 0.66128 0.67223 0.39166 0.0
C536 C 0.6648 0.65751 0.36622 0.0
C537 C 0.66018 0.66106 0.39725 0.0
C538 C 0.67519 0.68675 0.30878 0.0
C539 C 0.68933 0.69317 0.2826 0.0
N540 N 0.68532 0.68119 0.2784 0.0
C541 C 0.67113 0.67449 0.30409 0.0
C542 C 0.6843 0.69617 0.29786 0.0
C543 C 0.6764 0.67187 0.28873 0.0
C544 C 0.63948 0.66617 0.31913 0.0
N545 N 0.64258 0.66922 0.3375 0.0
C546 C 0.62613 0.64971 0.34755 0.0
C547 C 0.63601 0.66138 0.35168 0.0
C548 C 0.62292 0.64616 0.32867 0.0
C549 C 0.62963 0.65464 0.31437 0.0
H550 H 0.64486 0.67261 0.30816 0.0
H551 H 0.63854 0.66409 0.36619 0.0
C552 C 0.69519 0.69266 0.37153 0.0
N553 N 0.69243 0.69298 0.35306 0.0
C554 C 0.7047 0.69052 0.37658 0.0
C555 C 0.70856 0.68927 0.34353 0.0
C556 C 0.69902 0.6915 0.33912 0.0
C557 C 0.71143 0.68864 0.36248 0.0
H558 H 0.68988 0.69393 0.38238 0.0
H559 H 0.69691 0.69198 0.32457 0.0
C560 C 0.643 0.69595 0.34707 0.0
N561 N 0.6195 0.68912 0.35897 0.0
C562 C 0.63553 0.69882 0.33613 0.0
C563 C 0.63853 0.68959 0.36404 0.0
C564 C 0.62367 0.69529 0.3424 0.0
C565 C 0.62662 0.68622 0.36982 0.0
C566 C 0.69438 0.71838 0.35405 0.0
C567 C 0.69785 0.72071 0.37299 0.0
C568 C 0.70335 0.72153 0.34015 0.0
C569 C 0.71028 0.72606 0.37774 0.0
C570 C 0.71568 0.72685 0.34548 0.0
N571 N 0.71886 0.72898 0.364 0.0
C572 C 0.66659 0.70914 0.4011 0.0
C573 C 0.66037 0.71932 0.37938 0.0
C574 C 0.66532 0.71563 0.41611 0.0
N575 N 0.66416 0.71114 0.3832 0.0
C576 C 0.65887 0.72591 0.39395 0.0
C577 C 0.66145 0.72421 0.41263 0.0
H578 H 0.66969 0.70263 0.40366 0.0
H579 H 0.65854 0.72073 0.36497 0.0
C580 C 0.66613 0.71087 0.29133 0.0
N581 N 0.67323 0.71554 0.30697 0.0
C582 C 0.66768 0.71852 0.27604 0.0
C583 C 0.68385 0.73558 0.29325 0.0
C584 C 0.68197 0.72761 0.30821 0.0
C585 C 0.67661 0.73107 0.27692 0.0
H586 H 0.65924 0.70122 0.29081 0.0
H587 H 0.68739 0.73107 0.32093 0.0
O588 O 0.66526 0.68693 0.3673 0.0
O589 O 0.66997 0.68946 0.32358 0.0
O590 O 0.65459 0.69927 0.34104 0.0
O591 O 0.68223 0.71282 0.34917 0.0
H592 H 0.66827 0.67141 0.34559 0.0
H593 H 0.65987 0.67787 0.40176 0.0
H594 H 0.66616 0.65169 0.35643 0.0
H595 H 0.65792 0.65801 0.41171 0.0
H596 H 0.69643 0.70038 0.2741 0.0
H597 H 0.66396 0.66707 0.3122 0.0
H598 H 0.68755 0.7057 0.30121 0.0
H599 H 0.67338 0.66243 0.28499 0.0
H600 H 0.62111 0.64351 0.359 0.0
H601 H 0.62756 0.65224 0.29963 0.0
H602 H 0.70653 0.69001 0.39137 0.0
H603 H 0.71363 0.68803 0.33222 0.0
H604 H 0.63887 0.70371 0.32294 0.0
H605 H 0.64417 0.68726 0.37267 0.0
H606 H 0.61778 0.69745 0.33409 0.0
H607 H 0.62304 0.68129 0.38292 0.0
H608 H 0.69101 0.71829 0.38391 0.0
H609 H 0.70082 0.71978 0.32543 0.0
H610 H 0.71309 0.72784 0.39235 0.0
H611 H 0.72272 0.72926 0.33489 0.0
H612 H 0.66759 0.71412 0.43022 0.0
H613 H 0.65565 0.73224 0.39057 0.0
H614 H 0.662 0.71464 0.26363 0.0
H615 H 0.69072 0.74521 0.29463 0.0
Li616 Li 0.29394 0.96584 0.32709 0.0
Li617 Li 0.2967 0.96241 0.36014 0.0
Li618 Li 0.3032 0.98304 0.34825 0.0
Li619 Li 0.31444 0.97246 0.33994 0.0
C620 C 0.28003 0.97394 0.3564 0.0
N621 N 0.26834 0.98571 0.37126 0.0
C622 C 0.27724 0.97296 0.37563 0.0
C623 C 0.27683 0.98086 0.34472 0.0
C624 C 0.27133 0.97899 0.38287 0.0
C625 C 0.27095 0.98676 0.35251 0.0
C626 C 0.29541 0.94363 0.34247 0.0
C627 C 0.29616 0.92756 0.35996 0.0
N628 N 0.28453 0.91946 0.35422 0.0
C629 C 0.28348 0.93514 0.33669 0.0
C630 C 0.30184 0.93982 0.35414 0.0
C631 C 0.27813 0.92296 0.34279 0.0
C632 C 0.28765 0.95389 0.29197 0.0
N633 N 0.28357 0.9584 0.30587 0.0
C634 C 0.26415 0.95061 0.29052 0.0
C635 C 0.27209 0.9569 0.30544 0.0
C636 C 0.26806 0.94578 0.27593 0.0
C637 C 0.28005 0.94761 0.27673 0.0
H638 H 0.29675 0.95502 0.29288 0.0
H639 H 0.26899 0.96033 0.31692 0.0
C640 C 0.29567 0.95143 0.39578 0.0
N641 N 0.28908 0.95126 0.38048 0.0
C642 C 0.28989 0.94318 0.41058 0.0
C643 C 0.27066 0.93482 0.39362 0.0
C644 C 0.27682 0.9432 0.37914 0.0
C645 C 0.27719 0.93476 0.40966 0.0
H646 H 0.30538 0.95798 0.39654 0.0
H647 H 0.27181 0.94336 0.36683 0.0
C648 C 0.30917 0.98318 0.30431 0.0
N649 N 0.30803 0.98492 0.26562 0.0
C650 C 0.31667 0.98073 0.29267 0.0
C651 C 0.30115 0.98659 0.29629 0.0
C652 C 0.31594 0.98165 0.27314 0.0
C653 C 0.30069 0.98739 0.27669 0.0
C654 C 0.32365 0.98288 0.37288 0.0
C655 C 0.33083 0.99566 0.37459 0.0
C656 C 0.32851 0.97548 0.37831 0.0
C657 C 0.34278 0.00081 0.38167 0.0
C658 C 0.34051 0.98099 0.38529 0.0
N659 N 0.34734 0.99344 0.38681 0.0
C660 C 0.30421 0.00089 0.37322 0.0
C661 C 0.30832 0.00747 0.34139 0.0
C662 C 0.30663 0.01251 0.37896 0.0
N663 N 0.3052 0.99864 0.35475 0.0
C664 C 0.31083 0.01925 0.34651 0.0
C665 C 0.3102 0.02194 0.36557 0.0
H666 H 0.30186 0.99372 0.38356 0.0
H667 H 0.30921 0.00548 0.32685 0.0
C668 C 0.33132 0.96488 0.32917 0.0
N669 N 0.33024 0.97476 0.33407 0.0
C670 C 0.34275 0.96645 0.32405 0.0
C671 C 0.35177 0.9883 0.32941 0.0
C672 C 0.34013 0.98633 0.33409 0.0
C673 C 0.35314 0.97828 0.32416 0.0
H674 H 0.32327 0.95582 0.32892 0.0
H675 H 0.33894 0.99406 0.33753 0.0
O676 O 0.28605 0.96832 0.34911 0.0
O677 O 0.30068 0.95567 0.33709 0.0
O678 O 0.30958 0.98213 0.32345 0.0
O679 O 0.31197 0.97766 0.36581 0.0
H680 H 0.27975 0.96774 0.3849 0.0
H681 H 0.27901 0.98179 0.32984 0.0
H682 H 0.26916 0.97836 0.39773 0.0
H683 H 0.26848 0.99221 0.34366 0.0
H684 H 0.301 0.9245 0.36909 0.0
H685 H 0.27833 0.93795 0.32778 0.0
H686 H 0.31106 0.94629 0.35884 0.0
H687 H 0.26887 0.9163 0.3385 0.0
H688 H 0.25493 0.94924 0.2907 0.0
H689 H 0.28354 0.9442 0.26572 0.0
H690 H 0.29532 0.94338 0.42257 0.0
H691 H 0.26084 0.92865 0.39242 0.0
H692 H 0.3229 0.97805 0.29863 0.0
H693 H 0.29524 0.98845 0.3051 0.0
H694 H 0.32165 0.97973 0.26395 0.0
H695 H 0.29446 0.98993 0.27029 0.0
H696 H 0.32728 0.00155 0.37033 0.0
H697 H 0.32316 0.9656 0.37685 0.0
H698 H 0.34845 0.01068 0.38301 0.0
H699 H 0.34442 0.97538 0.38942 0.0
H700 H 0.3059 0.01414 0.39377 0.0
H701 H 0.31371 0.02628 0.33577 0.0
H702 H 0.34347 0.95852 0.32 0.0
H703 H 0.35955 0.99758 0.32934 0.0
Li704 Li 0.03519 0.33049 0.32581 0.0
Li705 Li 0.03675 0.33623 0.35956 0.0
Li706 Li 0.01625 0.32284 0.34561 0.0
Li707 Li 0.02908 0.34488 0.33754 0.0
C708 C 0.03301 0.31095 0.35259 0.0
N709 N 0.03931 0.29341 0.36158 0.0
C710 C 0.04482 0.31452 0.3592 0.0
C711 C 0.02441 0.29846 0.35057 0.0
C712 C 0.04782 0.30551 0.36366 0.0
C713 C 0.02778 0.28973 0.35517 0.0
C714 C 0.05297 0.35838 0.3312 0.0
C715 C 0.06301 0.38033 0.33576 0.0
N716 N 0.067 0.38206 0.3176 0.0
C717 C 0.05728 0.36037 0.31265 0.0
C718 C 0.05596 0.36844 0.34293 0.0
C719 C 0.06433 0.37241 0.30601 0.0
C720 C 0.04085 0.3295 0.28756 0.0
N721 N 0.04246 0.32647 0.30532 0.0
C722 C 0.05521 0.31881 0.29368 0.0
C723 C 0.04947 0.32121 0.30859 0.0
C724 C 0.05386 0.32201 0.27523 0.0
C725 C 0.04649 0.32734 0.27224 0.0
H726 H 0.03541 0.33387 0.28532 0.0
H727 H 0.05085 0.31911 0.32278 0.0
C728 C 0.04177 0.331 0.39647 0.0
N729 N 0.04648 0.33871 0.38146 0.0
C730 C 0.04924 0.33231 0.41191 0.0
C731 C 0.06627 0.34934 0.39601 0.0
C732 C 0.05845 0.34779 0.381 0.0
C733 C 0.0617 0.34148 0.41166 0.0
H734 H 0.03229 0.32367 0.39625 0.0
H735 H 0.06201 0.35366 0.36876 0.0
C736 C 0.01317 0.32231 0.30632 0.0
N737 N 0.99973 0.30524 0.27882 0.0
C738 C 0.0075 0.32529 0.29197 0.0
C739 C 0.01205 0.31067 0.30666 0.0
C740 C 0.00073 0.31653 0.27819 0.0
C741 C 0.00521 0.30216 0.29264 0.0
C742 C 0.02182 0.33999 0.38089 0.0
C743 C 0.01357 0.33097 0.39327 0.0
C744 C 0.03042 0.35155 0.3879 0.0
C745 C 0.01424 0.33359 0.41253 0.0
C746 C 0.03081 0.35381 0.40725 0.0
N747 N 0.02279 0.34486 0.41906 0.0
C748 C 0.99847 0.3018 0.36457 0.0
C749 C 0.99054 0.30779 0.33896 0.0
C750 C 0.98678 0.292 0.36868 0.0
N751 N 1.00012 0.30946 0.34996 0.0
C752 C 0.97875 0.29791 0.34224 0.0
C753 C 0.97667 0.28985 0.35737 0.0
H754 H 0.00623 0.30343 0.37323 0.0
H755 H 0.99204 0.31412 0.32761 0.0
C756 C 0.03105 0.36344 0.31301 0.0
N757 N 0.02784 0.35884 0.33074 0.0
C758 C 0.02972 0.37334 0.30734 0.0
C759 C 0.02147 0.37337 0.33811 0.0
C760 C 0.02314 0.36358 0.34327 0.0
C761 C 0.02471 0.37837 0.31987 0.0
H762 H 0.03454 0.35933 0.30321 0.0
H763 H 0.0204 0.35957 0.35714 0.0
O764 O 0.02977 0.3196 0.34848 0.0
O765 O 0.04592 0.34665 0.33788 0.0
O766 O 0.01985 0.33083 0.31985 0.0
O767 O 0.02144 0.33753 0.36202 0.0
H768 H 0.05166 0.32413 0.36059 0.0
H769 H 0.01523 0.29551 0.34547 0.0
H770 H 0.05694 0.30815 0.36873 0.0
H771 H 0.02121 0.28003 0.35366 0.0
H772 H 0.06532 0.3882 0.34465 0.0
H773 H 0.05519 0.35273 0.30343 0.0
H774 H 0.05286 0.36709 0.35738 0.0
H775 H 0.06766 0.37408 0.29164 0.0
H776 H 0.06098 0.31487 0.29663 0.0
H777 H 0.04516 0.32989 0.25822 0.0
H778 H 0.04542 0.32598 0.42364 0.0
H779 H 0.07581 0.35657 0.39534 0.0
H780 H 0.00832 0.33429 0.29149 0.0
H781 H 0.01644 0.30823 0.31759 0.0
H782 H 0.99627 0.3187 0.26701 0.0
H783 H 0.00426 0.29311 0.29273 0.0
H784 H 0.00674 0.32204 0.38811 0.0
H785 H 0.03677 0.35868 0.37853 0.0
H786 H 0.00796 0.32667 0.42227 0.0
H787 H 0.0375 0.36269 0.41286 0.0
H788 H 0.98572 0.28634 0.38081 0.0
H789 H 0.97138 0.29662 0.3329 0.0
H790 H 0.03253 0.37697 0.29323 0.0
H791 H 0.01736 0.37674 0.34816 0.0
Li792 Li 0.67669 0.98063 0.34752 0.0
Li793 Li 0.66278 0.96016 0.36054 0.0
Li794 Li 0.66809 0.96264 0.32614 0.0
Li795 Li 0.65409 0.969 0.33973 0.0
C796 C 0.69094 0.96872 0.34786 0.0
N797 N 0.71505 0.97388 0.34675 0.0
C798 C 0.6964 0.96709 0.36394 0.0
C799 C 0.69768 0.97278 0.33114 0.0
C800 C 0.70862 0.96981 0.36312 0.0
C801 C 0.70987 0.97539 0.33088 0.0
C802 C 0.66011 0.97546 0.38323 0.0
C803 C 0.64643 0.96729 0.40987 0.0
N804 N 0.65583 0.97478 0.42152 0.0
C805 C 0.66961 0.98315 0.39543 0.0
C806 C 0.6484 0.96754 0.39045 0.0
C807 C 0.66727 0.98265 0.41476 0.0
C808 C 0.68994 0.00635 0.34477 0.0
N809 N 0.69024 0.99659 0.35247 0.0
C810 C 0.70906 0.01001 0.36836 0.0
C811 C 0.69953 0.99819 0.3641 0.0
C812 C 0.70898 0.02029 0.3607 0.0
C813 C 0.69929 0.01833 0.34863 0.0
H814 H 0.68231 0.00482 0.33587 0.0
H815 H 0.69941 0.99033 0.37044 0.0
C816 C 0.65057 0.93781 0.38054 0.0
N817 N 0.6598 0.9497 0.38166 0.0
C818 C 0.64828 0.92976 0.39555 0.0
C819 C 0.665 0.94635 0.41266 0.0
C820 C 0.66706 0.95404 0.39722 0.0
C821 C 0.65554 0.93402 0.41188 0.0
H822 H 0.64505 0.93455 0.3679 0.0
H823 H 0.6745 0.96346 0.39759 0.0
C824 C 0.67301 0.9846 0.3062 0.0
N825 N 0.68238 0.99704 0.27269 0.0
C826 C 0.6651 0.98471 0.29243 0.0
C827 C 0.68569 0.99096 0.30303 0.0
C828 C 0.67002 0.99101 0.27555 0.0
C829 C 0.69025 0.99715 0.28597 0.0
C830 C 0.64017 0.94489 0.33233 0.0
C831 C 0.63797 0.94057 0.31377 0.0
C832 C 0.63026 0.94173 0.34448 0.0
C833 C 0.62585 0.93328 0.30758 0.0
C834 C 0.61829 0.93444 0.33774 0.0
N835 N 0.61635 0.93041 0.31959 0.0
C836 C 0.67367 0.94583 0.31015 0.0
C837 C 0.67085 0.95791 0.28724 0.0
C838 C 0.67573 0.93929 0.29609 0.0
N839 N 0.6713 0.95493 0.30553 0.0
C840 C 0.67293 0.95167 0.27272 0.0
C841 C 0.67534 0.94215 0.27703 0.0
H842 H 0.67383 0.94357 0.32483 0.0
H843 H 0.66874 0.96501 0.28383 0.0
C844 C 0.63737 0.97718 0.34754 0.0
N845 N 0.64024 0.97093 0.33479 0.0
C846 C 0.62754 0.97917 0.34419 0.0
C847 C 0.62372 0.96811 0.31478 0.0
C848 C 0.63372 0.96649 0.31857 0.0
C849 C 0.62059 0.9746 0.32763 0.0
H850 H 0.6428 0.98077 0.3602 0.0
H851 H 0.63638 0.96183 0.30844 0.0
O852 O 0.67898 0.96607 0.34846 0.0
O853 O 0.66226 0.97571 0.36429 0.0
O854 O 0.66833 0.97849 0.32281 0.0
O855 O 0.65196 0.9521 0.33861 0.0
H856 H 0.69128 0.96384 0.37696 0.0
H857 H 0.69353 0.9738 0.31844 0.0
H858 H 0.71299 0.96867 0.3755 0.0
H859 H 0.7152 0.97857 0.31803 0.0
H860 H 0.63743 0.96115 0.41568 0.0
H861 H 0.67871 0.98938 0.39006 0.0
H862 H 0.64093 0.9616 0.38117 0.0
H863 H 0.67455 0.98849 0.4244 0.0
H864 H 0.71637 0.01108 0.37766 0.0
H865 H 0.69872 0.02597 0.34269 0.0
H866 H 0.64087 0.92033 0.39444 0.0
H867 H 0.67092 0.94993 0.42489 0.0
H868 H 0.65528 0.97993 0.2947 0.0
H869 H 0.69197 0.99123 0.31367 0.0
H870 H 0.664 0.99111 0.26473 0.0
H871 H 0.70004 0.00209 0.28333 0.0
H872 H 0.64552 0.94289 0.3042 0.0
H873 H 0.63181 0.94493 0.35891 0.0
H874 H 0.62401 0.92992 0.29323 0.0
H875 H 0.61053 0.93199 0.34695 0.0
H876 H 0.67735 0.93191 0.30012 0.0
H877 H 0.67267 0.9543 0.25826 0.0
H878 H 0.6254 0.98423 0.35443 0.0
H879 H 0.61871 0.96464 0.30169 0.0
Li880 Li 0.03801 0.70598 0.36314 0.0
Li881 Li 0.01757 0.69741 0.34975 0.0
Li882 Li 0.03037 0.68854 0.34133 0.0
Li883 Li 0.0352 0.70884 0.32939 0.0
C884 C 0.02538 0.68266 0.38063 0.0
N885 N 0.02874 0.66975 0.4093 0.0
C886 C 0.01688 0.67774 0.39535 0.0
C887 C 0.03555 0.68097 0.38044 0.0
C888 C 0.01875 0.67126 0.40974 0.0
C889 C 0.0371 0.67442 0.39507 0.0
C890 C 0.02748 0.72069 0.36588 0.0
C891 C 0.02681 0.73823 0.37824 0.0
N892 N 0.02173 0.73191 0.39444 0.0
C893 C 0.02224 0.71437 0.38264 0.0
C894 C 0.02979 0.73271 0.36364 0.0
C895 C 0.0194 0.7202 0.39691 0.0
C896 C 0.0594 0.72446 0.3796 0.0
N897 N 0.04864 0.71414 0.38388 0.0
C898 C 0.05406 0.71629 0.41652 0.0
C899 C 0.04576 0.71006 0.40195 0.0
C900 C 0.06532 0.7269 0.41247 0.0
C901 C 0.06791 0.73104 0.39375 0.0
H902 H 0.06139 0.72753 0.36511 0.0
H903 H 0.03703 0.70204 0.40512 0.0
C904 C 0.99342 0.68117 0.35994 0.0
N905 N 0.00101 0.69302 0.3547 0.0
C906 C 0.98115 0.6771 0.36435 0.0
C907 C 0.98468 0.69748 0.3576 0.0
C908 C 0.9969 0.70116 0.35329 0.0
C909 C 0.97665 0.68532 0.36339 0.0
H910 H 0.99693 0.67489 0.36078 0.0
H911 H 0.00313 0.71052 0.34899 0.0
C912 C 0.05717 0.70454 0.33709 0.0
N913 N 0.07931 0.70588 0.32882 0.0
C914 C 0.06136 0.70618 0.31848 0.0
C915 C 0.06433 0.70377 0.35153 0.0
C916 C 0.07255 0.70677 0.31458 0.0
C917 C 0.07547 0.70442 0.34705 0.0
C918 C 0.01283 0.6938 0.31145 0.0
C919 C 0.00582 0.68427 0.29884 0.0
C920 C 0.01207 0.70453 0.31104 0.0
C921 C 0.99816 0.68564 0.28599 0.0
C922 C 0.0043 0.70554 0.29799 0.0
N923 N 0.99756 0.69615 0.28583 0.0
C924 C 0.02052 0.66301 0.34295 0.0
C925 C 0.03809 0.67312 0.32336 0.0
C926 C 0.01929 0.65159 0.33869 0.0
N927 N 0.02984 0.67347 0.33535 0.0
C928 C 0.0372 0.6619 0.31866 0.0
C929 C 0.02766 0.65093 0.32628 0.0
H930 H 0.01392 0.66351 0.35215 0.0
H931 H 0.04525 0.68149 0.31717 0.0
C932 C 0.04875 0.73214 0.31271 0.0
N933 N 0.0422 0.71991 0.30892 0.0
C934 C 0.05458 0.74058 0.29814 0.0
C935 C 0.0467 0.72364 0.27607 0.0
C936 C 0.04101 0.71554 0.29106 0.0
C937 C 0.05368 0.73635 0.27952 0.0
H938 H 0.04955 0.73532 0.32709 0.0
H939 H 0.03585 0.70574 0.28852 0.0
O940 O 0.02367 0.68908 0.36653 0.0
O941 O 0.03036 0.71521 0.35165 0.0
O942 O 0.04632 0.70412 0.3412 0.0
O943 O 0.02032 0.69253 0.32414 0.0
H944 H 0.00895 0.67898 0.39568 0.0
H945 H 0.04212 0.68457 0.36904 0.0
H946 H 0.01226 0.66744 0.42125 0.0
H947 H 0.04493 0.67304 0.39509 0.0
H948 H 0.02855 0.74753 0.3767 0.0
H949 H 0.02034 0.70505 0.38464 0.0
H950 H 0.03382 0.73771 0.35073 0.0
H951 H 0.01534 0.71542 0.40995 0.0
H952 H 0.05164 0.71292 0.43083 0.0
H953 H 0.07652 0.73915 0.39005 0.0
H954 H 0.97525 0.66759 0.3684 0.0
H955 H 0.98164 0.70415 0.35681 0.0
H956 H 0.05598 0.70684 0.30714 0.0
H957 H 0.06139 0.70276 0.36607 0.0
H958 H 0.07585 0.70795 0.30022 0.0
H959 H 0.08108 0.7038 0.35809 0.0
H960 H 0.0063 0.6759 0.29901 0.0
H961 H 0.01742 0.712 0.32068 0.0
H962 H 0.99268 0.67833 0.27615 0.0
H963 H 0.00363 0.71379 0.29752 0.0
H964 H 0.01166 0.64336 0.3446 0.0
H965 H 0.04387 0.66182 0.30909 0.0
H966 H 0.05974 0.75029 0.30143 0.0
H967 H 0.0459 0.71995 0.26202 0.0
Li968 Li 0.30044 0.33721 0.35952 0.0
Li969 Li 0.30636 0.32316 0.34621 0.0
Li970 Li 0.31892 0.34529 0.33966 0.0
Li971 Li 0.29882 0.33291 0.32537 0.0
C972 C 0.32254 0.34507 0.37816 0.0
N973 N 0.33652 0.36195 0.40558 0.0
C974 C 0.32924 0.34235 0.39106 0.0
C975 C 0.32293 0.35637 0.37921 0.0
C976 C 0.33626 0.351 0.40482 0.0
C977 C 0.33006 0.36478 0.39317 0.0
C978 C 0.28259 0.3093 0.35011 0.0
C979 C 0.26986 0.28835 0.3397 0.0
N980 N 0.26853 0.28449 0.35791 0.0
C981 C 0.28097 0.30514 0.36873 0.0
C982 C 0.2769 0.30086 0.33548 0.0
C983 C 0.27388 0.29255 0.37238 0.0
C984 C 0.28718 0.34686 0.37741 0.0
N985 N 0.29282 0.34018 0.38037 0.0
C986 C 0.28639 0.3369 0.41259 0.0
C987 C 0.29266 0.33531 0.39756 0.0
C988 C 0.28048 0.34376 0.4099 0.0
C989 C 0.28102 0.34889 0.39212 0.0
H990 H 0.2873 0.35044 0.36353 0.0
H991 H 0.29727 0.33007 0.39952 0.0
C992 C 0.30913 0.30221 0.33877 0.0
N993 N 0.30768 0.30907 0.35226 0.0
C994 C 0.31155 0.29288 0.34387 0.0
C995 C 0.31064 0.29767 0.37662 0.0
C996 C 0.30827 0.3069 0.37089 0.0
C997 C 0.31258 0.29067 0.36302 0.0
H998 H 0.30887 0.30423 0.32407 0.0
H999 H 0.3072 0.31258 0.38132 0.0
C1000 C 0.3077 0.35817 0.32509 0.0
N1001 N 0.31204 0.37596 0.29843 0.0
C1002 C 0.31512 0.35975 0.30948 0.0
C1003 C 0.30251 0.36569 0.32717 0.0
C1004 C 0.31721 0.36877 0.29615 0.0
C1005 C 0.30481 0.37462 0.31354 0.0
C1006 C 0.31382 0.32799 0.30374 0.0
C1007 C 0.32351 0.33567 0.29179 0.0
C1008 C 0.30422 0.31691 0.29679 0.0
C1009 C 0.32335 0.3322 0.27304 0.0
C1010 C 0.3044 0.31376 0.27795 0.0
N1011 N 0.31388 0.32141 0.26656 0.0
C1012 C 0.34364 0.35431 0.3323 0.0
C1013 C 0.33912 0.37025 0.33771 0.0
C1014 C 0.35589 0.36288 0.32847 0.0
N1015 N 0.33551 0.3581 0.33644 0.0
C1016 C 0.35132 0.37917 0.33391 0.0
C1017 C 0.35984 0.3755 0.32888 0.0
H1018 H 0.34052 0.34458 0.33165 0.0
H1019 H 0.33249 0.37302 0.34127 0.0
C1020 C 0.27648 0.32619 0.30781 0.0
N1021 N 0.28868 0.3312 0.30414 0.0
C1022 C 0.26841 0.32549 0.29369 0.0
C1023 C 0.28558 0.33501 0.27214 0.0
C1024 C 0.29332 0.33554 0.28669 0.0
C1025 C 0.27295 0.33005 0.2756 0.0
H1026 H 0.27305 0.32296 0.32186 0.0
H1027 H 0.30306 0.3397 0.28409 0.0
O1028 O 0.31566 0.33666 0.36462 0.0
O1029 O 0.2897 0.32158 0.34624 0.0
O1030 O 0.30548 0.34932 0.33828 0.0
O1031 O 0.31378 0.33129 0.32213 0.0
H1032 H 0.32903 0.33363 0.39042 0.0
H1033 H 0.3178 0.35866 0.36938 0.0
H1034 H 0.3415 0.34902 0.41489 0.0
H1035 H 0.33045 0.37357 0.39413 0.0
H1036 H 0.26545 0.28171 0.32851 0.0
H1037 H 0.28528 0.31154 0.38022 0.0
H1038 H 0.27784 0.30393 0.32102 0.0
H1039 H 0.27265 0.2892 0.38671 0.0
H1040 H 0.28622 0.33288 0.42618 0.0
H1041 H 0.27646 0.35413 0.38951 0.0
H1042 H 0.31315 0.28784 0.33291 0.0
H1043 H 0.31119 0.29619 0.39154 0.0
H1044 H 0.31923 0.35406 0.30763 0.0
H1045 H 0.29677 0.36467 0.33917 0.0
H1046 H 0.32293 0.37005 0.28399 0.0
H1047 H 0.30083 0.38048 0.31497 0.0
H1048 H 0.33105 0.34426 0.2969 0.0
H1049 H 0.29668 0.31086 0.30582 0.0
H1050 H 0.33076 0.33808 0.26363 0.0
H1051 H 0.29699 0.30524 0.27239 0.0
H1052 H 0.36218 0.35963 0.32507 0.0
H1053 H 0.35394 0.38879 0.33434 0.0
H1054 H 0.25873 0.32148 0.29694 0.0
H1055 H 0.28951 0.33881 0.2585 0.0
Li1056 Li 0.32322 0.01803 0.67405 0.0
Li1057 Li 0.34534 0.02921 0.68009 0.0
Li1058 Li 0.33192 0.03688 0.69371 0.0
Li1059 Li 0.33725 0.03902 0.66023 0.0
C1060 C 0.32527 0.01351 0.71339 0.0
N1061 N 0.31229 0.99818 0.74303 0.0
C1062 C 0.32875 0.00539 0.72082 0.0
C1063 C 0.31533 0.01398 0.72132 0.0
C1064 C 0.32202 0.99766 0.73572 0.0
C1065 C 0.30885 0.00613 0.73622 0.0
C1066 C 0.34295 0.01797 0.6475 0.0
C1067 C 0.36095 0.01974 0.6323 0.0
N1068 N 0.35569 0.00729 0.63255 0.0
C1069 C 0.33769 0.00519 0.64746 0.0
C1070 C 0.35463 0.02531 0.63972 0.0
C1071 C 0.34429 0.99997 0.63988 0.0
C1072 C 0.30162 0.00115 0.65507 0.0
N1073 N 0.30943 0.00217 0.66913 0.0
C1074 C 0.29858 0.98038 0.67358 0.0
C1075 C 0.30806 0.9921 0.67845 0.0
C1076 C 0.29051 0.979 0.65884 0.0
C1077 C 0.29202 0.9896 0.64972 0.0
H1078 H 0.30303 0.0093 0.64774 0.0
H1079 H 0.3146 0.99309 0.68914 0.0
C1080 C 0.37053 0.03611 0.68586 0.0
N1081 N 0.3588 0.02658 0.68466 0.0
C1082 C 0.38023 0.03388 0.68902 0.0
C1083 C 0.36555 0.0121 0.68971 0.0
C1084 C 0.35617 0.01475 0.68653 0.0
C1085 C 0.37779 0.02172 0.69101 0.0
H1086 H 0.37237 0.04544 0.68438 0.0
H1087 H 0.34675 0.00735 0.68552 0.0
C1088 C 0.30963 0.03194 0.67358 0.0
N1089 N 0.28719 0.03087 0.67704 0.0
C1090 C 0.30772 0.04089 0.66509 0.0
C1091 C 0.30002 0.02231 0.6835 0.0
C1092 C 0.29634 0.04024 0.6671 0.0
C1093 C 0.28878 0.02197 0.68518 0.0
C1094 C 0.35618 0.0582 0.67679 0.0
C1095 C 0.35496 0.06768 0.68488 0.0
C1096 C 0.36511 0.06095 0.66297 0.0
C1097 C 0.36259 0.07975 0.67878 0.0
C1098 C 0.37256 0.07313 0.65722 0.0
N1099 N 0.37115 0.0822 0.66517 0.0
C1100 C 0.33382 0.04436 0.73168 0.0
C1101 C 0.32375 0.05167 0.71172 0.0
C1102 C 0.33258 0.05062 0.74705 0.0
N1103 N 0.32938 0.04496 0.71449 0.0
C1104 C 0.32227 0.05803 0.72667 0.0
C1105 C 0.32676 0.05761 0.74464 0.0
H1106 H 0.33846 0.03913 0.7334 0.0
H1107 H 0.32061 0.05229 0.69783 0.0
C1108 C 0.34299 0.04685 0.62202 0.0
N1109 N 0.34018 0.04956 0.63921 0.0
C1110 C 0.34525 0.05475 0.60677 0.0
C1111 C 0.34166 0.06803 0.62723 0.0
C1112 C 0.33942 0.05986 0.64202 0.0
C1113 C 0.34461 0.06552 0.6093 0.0
H1114 H 0.34347 0.03857 0.62015 0.0
H1115 H 0.33708 0.06174 0.65581 0.0
O1116 O 0.33181 0.02117 0.69883 0.0
O1117 O 0.33673 0.02326 0.6552 0.0
O1118 O 0.32072 0.03242 0.6716 0.0
O1119 O 0.34864 0.04629 0.68237 0.0
H1120 H 0.33653 0.00501 0.71512 0.0
H1121 H 0.31275 0.02048 0.71626 0.0
H1122 H 0.32457 0.99127 0.74149 0.0
H1123 H 0.30113 0.0064 0.74244 0.0
H1124 H 0.37003 0.02532 0.62637 0.0
H1125 H 0.32865 0.99936 0.65334 0.0
H1126 H 0.35881 0.03521 0.63954 0.0
H1127 H 0.34036 0.99009 0.63986 0.0
H1128 H 0.29792 0.97246 0.68073 0.0
H1129 H 0.28597 0.98897 0.63836 0.0
H1130 H 0.38953 0.04158 0.68979 0.0
H1131 H 0.36317 0.0026 0.69149 0.0
H1132 H 0.31494 0.0483 0.65709 0.0
H1133 H 0.30113 0.01505 0.6896 0.0
H1134 H 0.29478 0.04716 0.66072 0.0
H1135 H 0.28129 0.01457 0.69285 0.0
H1136 H 0.34815 0.06574 0.69567 0.0
H1137 H 0.36621 0.05374 0.65661 0.0
H1138 H 0.3617 0.08717 0.68484 0.0
H1139 H 0.37944 0.07537 0.64643 0.0
H1140 H 0.33637 0.05019 0.76055 0.0
H1141 H 0.31764 0.06321 0.72416 0.0
H1142 H 0.34758 0.05251 0.5932 0.0
H1143 H 0.34088 0.07611 0.62975 0.0
Li1144 Li 0.98359 0.30322 0.67423 0.0
Li1145 Li 0.97071 0.31263 0.67931 0.0
Li1146 Li 0.9651 0.29206 0.69326 0.0
Li1147 Li 0.96235 0.29387 0.65958 0.0
C1148 C 0.98997 0.31442 0.70917 0.0
N1149 N 0.01117 0.32663 0.73045 0.0
C1150 C 0.99581 0.32719 0.7113 0.0
C1151 C 0.99481 0.30785 0.71808 0.0
C1152 C 0.00655 0.33319 0.72207 0.0
C1153 C 0.00556 0.31419 0.72871 0.0
C1154 C 0.98043 0.31905 0.64157 0.0
C1155 C 0.97493 0.32837 0.6165 0.0
N1156 N 0.987 0.3369 0.61416 0.0
C1157 C 0.99279 0.32782 0.63875 0.0
C1158 C 0.97143 0.31924 0.63022 0.0
C1159 C 0.99593 0.3368 0.62489 0.0
C1160 C 0.00198 0.29805 0.66206 0.0
N1161 N 1.00006 0.30677 0.6701 0.0
C1162 C 0.02168 0.32093 0.67101 0.0
C1163 C 0.0096 0.31807 0.67448 0.0
C1164 C 0.024 0.3122 0.66244 0.0
C1165 C 0.01392 0.30059 0.65804 0.0
H1166 H 0.99421 0.28921 0.65839 0.0
H1167 H 0.00786 0.32498 0.68034 0.0
C1168 C 0.96299 0.32734 0.69747 0.0
N1169 N 0.97095 0.32769 0.68418 0.0
C1170 C 0.96325 0.33813 0.70306 0.0
C1171 C 0.97978 0.34945 0.68095 0.0
C1172 C 0.97924 0.33845 0.67587 0.0
C1173 C 0.97183 0.3494 0.69491 0.0
H1174 H 0.95659 0.31868 0.70402 0.0
H1175 H 0.98573 0.3386 0.66579 0.0
C1176 C 0.96864 0.27451 0.67781 0.0
N1177 N 0.96447 0.25191 0.6903 0.0
C1178 C 0.95843 0.26372 0.67136 0.0
C1179 C 0.97684 0.27381 0.69036 0.0
C1180 C 0.95644 0.25238 0.67791 0.0
C1181 C 0.97454 0.2623 0.69658 0.0
C1182 C 0.94356 0.29686 0.6762 0.0
C1183 C 0.93241 0.28752 0.68339 0.0
C1184 C 0.94364 0.30581 0.66442 0.0
C1185 C 0.92149 0.28716 0.67835 0.0
C1186 C 0.93253 0.30514 0.65973 0.0
N1187 N 0.92177 0.2959 0.66671 0.0
C1188 C 0.96209 0.2846 0.73173 0.0
C1189 C 0.94714 0.27043 0.7105 0.0
C1190 C 0.95614 0.27673 0.74689 0.0
N1191 N 0.95753 0.28131 0.71399 0.0
C1192 C 0.94098 0.26224 0.72516 0.0
C1193 C 0.94539 0.26537 0.74372 0.0
H1194 H 0.97022 0.29341 0.73417 0.0
H1195 H 0.94359 0.26817 0.69628 0.0
C1196 C 0.95704 0.28722 0.62097 0.0
N1197 N 0.95233 0.28503 0.63871 0.0
C1198 C 0.94986 0.28006 0.60588 0.0
C1199 C 0.93316 0.26856 0.62765 0.0
C1200 C 0.94065 0.27591 0.64227 0.0
C1201 C 0.93777 0.27051 0.60916 0.0
H1202 H 0.96646 0.29434 0.6186 0.0
H1203 H 0.93726 0.27412 0.65658 0.0
O1204 O 0.97947 0.3084 0.69862 0.0
O1205 O 0.97722 0.31015 0.65502 0.0
O1206 O 0.97065 0.28571 0.67176 0.0
O1207 O 0.95434 0.29733 0.68102 0.0
H1208 H 0.99216 0.33241 0.70462 0.0
H1209 H 0.99031 0.29797 0.71681 0.0
H1210 H 0.01121 0.34307 0.72374 0.0
H1211 H 0.00945 0.30923 0.7356 0.0
H1212 H 0.96805 0.32864 0.60766 0.0
H1213 H 0.99989 0.32774 0.64727 0.0
H1214 H 0.96185 0.31234 0.63182 0.0
H1215 H 0.00545 0.3437 0.62266 0.0
H1216 H 0.02909 0.32995 0.67491 0.0
H1217 H 0.01517 0.29362 0.65108 0.0
H1218 H 0.95691 0.33767 0.71379 0.0
H1219 H 0.98668 0.35797 0.67457 0.0
H1220 H 0.95204 0.26409 0.66153 0.0
H1221 H 0.9849 0.28206 0.69521 0.0
H1222 H 0.94852 0.24395 0.67315 0.0
H1223 H 0.98078 0.26163 0.70637 0.0
H1224 H 0.9322 0.28059 0.69268 0.0
H1225 H 0.95219 0.31326 0.65911 0.0
H1226 H 0.91278 0.27994 0.68371 0.0
H1227 H 0.93246 0.312 0.65059 0.0
H1228 H 0.95976 0.27966 0.76097 0.0
H1229 H 0.93283 0.25355 0.72195 0.0
H1230 H 0.95387 0.28176 0.59192 0.0
H1231 H 0.92387 0.26138 0.63083 0.0
Li1232 Li 0.6972 0.67949 0.66947 0.0
Li1233 Li 0.68376 0.65846 0.67743 0.0
Li1234 Li 0.70528 0.67052 0.69166 0.0
Li1235 Li 0.70135 0.6639 0.65767 0.0
C1236 C 0.6875 0.68058 0.70296 0.0
N1237 N 0.68093 0.69659 0.71877 0.0
C1238 C 0.67805 0.68191 0.695 0.0
C1239 C 0.69361 0.6874 0.71898 0.0
C1240 C 0.67488 0.69006 0.70317 0.0
C1241 C 0.69014 0.69543 0.72677 0.0
C1242 C 0.67579 0.65938 0.64356 0.0
C1243 C 0.65971 0.64054 0.62996 0.0
N1244 N 0.65268 0.64587 0.62763 0.0
C1245 C 0.66839 0.66467 0.64101 0.0
C1246 C 0.67141 0.64722 0.63796 0.0
C1247 C 0.65674 0.65769 0.63293 0.0
C1248 C 0.69436 0.69579 0.64558 0.0
N1249 N 0.69828 0.69487 0.66303 0.0
C1250 C 0.70188 0.71488 0.67116 0.0
C1251 C 0.70251 0.70437 0.67549 0.0
C1252 C 0.69707 0.71572 0.6537 0.0
C1253 C 0.69358 0.70612 0.64064 0.0
H1254 H 0.69157 0.68835 0.63561 0.0
H1255 H 0.70612 0.70368 0.68897 0.0
C1256 C 0.66524 0.63489 0.68972 0.0
N1257 N 0.66726 0.64594 0.68329 0.0
C1258 C 0.65334 0.62558 0.69422 0.0
C1259 C 0.6458 0.63918 0.68531 0.0
C1260 C 0.65784 0.64824 0.68126 0.0
C1261 C 0.64339 0.62766 0.69202 0.0
H1262 H 0.67289 0.63333 0.69158 0.0
H1263 H 0.6596 0.6571 0.67641 0.0
C1264 C 0.72093 0.69147 0.66233 0.0
N1265 N 0.7357 0.71506 0.649 0.0
C1266 C 0.72172 0.6938 0.64297 0.0
C1267 C 0.7277 0.70109 0.67492 0.0
C1268 C 0.72922 0.70581 0.63651 0.0
C1269 C 0.7351 0.71297 0.66789 0.0
C1270 C 0.69978 0.64492 0.67661 0.0
C1271 C 0.71099 0.64652 0.68312 0.0
C1272 C 0.6922 0.63471 0.66547 0.0
C1273 C 0.71453 0.63799 0.67808 0.0
C1274 C 0.69607 0.62639 0.66072 0.0
N1275 N 0.70707 0.62819 0.66705 0.0
C1276 C 0.71069 0.67029 0.73036 0.0
C1277 C 0.72771 0.6774 0.70961 0.0
C1278 C 0.71825 0.67209 0.74588 0.0
N1279 N 0.71554 0.67303 0.71272 0.0
C1280 C 0.73557 0.67912 0.72468 0.0
C1281 C 0.73085 0.67649 0.74308 0.0
H1282 H 0.70094 0.66671 0.73235 0.0
H1283 H 0.73128 0.67944 0.69538 0.0
C1284 C 0.7024 0.65537 0.62078 0.0
N1285 N 0.70831 0.65935 0.63757 0.0
C1286 C 0.70779 0.65234 0.60609 0.0
C1287 C 0.72536 0.65777 0.6261 0.0
C1288 C 0.71962 0.6607 0.64039 0.0
C1289 C 0.71945 0.65354 0.60863 0.0
H1290 H 0.69359 0.65471 0.61866 0.0
H1291 H 0.72425 0.6642 0.65373 0.0
O1292 O 0.69079 0.67269 0.69513 0.0
O1293 O 0.68721 0.66603 0.65158 0.0
O1294 O 0.71339 0.67985 0.66894 0.0
O1295 O 0.69628 0.65333 0.68107 0.0
H1296 H 0.67348 0.67701 0.68231 0.0
H1297 H 0.70101 0.68659 0.72525 0.0
H1298 H 0.66767 0.69126 0.69703 0.0
H1299 H 0.69481 0.70078 0.73914 0.0
H1300 H 0.65622 0.63111 0.62564 0.0
H1301 H 0.67143 0.67396 0.64559 0.0
H1302 H 0.67695 0.64295 0.63986 0.0
H1303 H 0.65091 0.66166 0.63099 0.0
H1304 H 0.70499 0.72221 0.68146 0.0
H1305 H 0.68983 0.70634 0.62699 0.0
H1306 H 0.652 0.61696 0.69971 0.0
H1307 H 0.63847 0.64121 0.6831 0.0
H1308 H 0.71648 0.68643 0.63308 0.0
H1309 H 0.72711 0.69942 0.68996 0.0
H1310 H 0.72988 0.70778 0.62157 0.0
H1311 H 0.74034 0.72053 0.67746 0.0
H1312 H 0.71696 0.65432 0.6918 0.0
H1313 H 0.68341 0.63321 0.66055 0.0
H1314 H 0.72323 0.63917 0.6829 0.0
H1315 H 0.69031 0.61849 0.65203 0.0
H1316 H 0.71429 0.66987 0.75989 0.0
H1317 H 0.74524 0.68259 0.72201 0.0
H1318 H 0.70288 0.64907 0.59289 0.0
H1319 H 0.73445 0.65909 0.62857 0.0
Li1320 Li 0.34399 0.31503 0.67934 0.0
Li1321 Li 0.32886 0.29445 0.69062 0.0
Li1322 Li 0.33468 0.29792 0.65699 0.0
Li1323 Li 0.32224 0.30575 0.67067 0.0
C1324 C 0.3562 0.30088 0.68182 0.0
N1325 N 0.37887 0.30282 0.68756 0.0
C1326 C 0.35966 0.29926 0.69985 0.0
C1327 C 0.36417 0.30323 0.66664 0.0
C1328 C 0.37119 0.30036 0.70249 0.0
C1329 C 0.37561 0.30424 0.66985 0.0
C1330 C 0.32085 0.30869 0.70915 0.0
C1331 C 0.30058 0.29629 0.72234 0.0
N1332 N 0.30294 0.30541 0.73487 0.0
C1333 C 0.32308 0.31794 0.72215 0.0
C1334 C 0.30951 0.29777 0.70923 0.0
C1335 C 0.31391 0.31611 0.73505 0.0
C1336 C 0.36007 0.34065 0.67743 0.0
N1337 N 0.35813 0.3302 0.68619 0.0
C1338 C 0.3754 0.34178 0.70637 0.0
C1339 C 0.36549 0.33057 0.70052 0.0
C1340 C 0.37766 0.35273 0.69753 0.0
C1341 C 0.36989 0.35205 0.68277 0.0
H1342 H 0.35382 0.34018 0.66655 0.0
H1343 H 0.36351 0.32222 0.70773 0.0
C1344 C 0.3184 0.27101 0.7073 0.0
N1345 N 0.32506 0.28328 0.71082 0.0
C1346 C 0.31612 0.26257 0.72172 0.0
C1347 C 0.32755 0.27957 0.74309 0.0
C1348 C 0.32952 0.28768 0.72829 0.0
C1349 C 0.32086 0.26683 0.73984 0.0
H1350 H 0.31507 0.26781 0.69319 0.0
H1351 H 0.33482 0.2975 0.73062 0.0
C1352 C 0.34374 0.32107 0.63917 0.0
N1353 N 0.35766 0.33393 0.60832 0.0
C1354 C 0.33847 0.32443 0.62468 0.0
C1355 C 0.35611 0.32434 0.63805 0.0
C1356 C 0.34565 0.3309 0.60917 0.0
C1357 C 0.363 0.33082 0.62232 0.0
C1358 C 0.30945 0.28266 0.65385 0.0
C1359 C 0.31038 0.28916 0.63736 0.0
C1360 C 0.29995 0.27049 0.65571 0.0
C1361 C 0.3018 0.28335 0.62295 0.0
C1362 C 0.29155 0.265 0.64098 0.0
N1363 N 0.29264 0.27149 0.62504 0.0
C1364 C 0.33884 0.28039 0.63997 0.0
C1365 C 0.33809 0.29416 0.61788 0.0
C1366 C 0.341 0.27413 0.62558 0.0
N1367 N 0.33753 0.29026 0.63593 0.0
C1368 C 0.34037 0.28825 0.60308 0.0
C1369 C 0.34188 0.27811 0.60687 0.0
H1370 H 0.33825 0.27744 0.65445 0.0
H1371 H 0.33668 0.30177 0.61488 0.0
C1372 C 0.314 0.32173 0.66091 0.0
N1373 N 0.30988 0.30987 0.66591 0.0
C1374 C 0.30569 0.32564 0.65649 0.0
C1375 C 0.289 0.3051 0.66288 0.0
C1376 C 0.29766 0.30157 0.66716 0.0
C1377 C 0.293 0.31726 0.65725 0.0
H1378 H 0.32378 0.32814 0.66022 0.0
H1379 H 0.29464 0.29219 0.67126 0.0
O1380 O 0.34487 0.29968 0.67897 0.0
O1381 O 0.32975 0.3104 0.69642 0.0
O1382 O 0.33679 0.31466 0.65437 0.0
O1383 O 0.31772 0.28811 0.66821 0.0
H1384 H 0.35355 0.29729 0.71173 0.0
H1385 H 0.36153 0.30414 0.65249 0.0
H1386 H 0.37402 0.29924 0.7164 0.0
H1387 H 0.38189 0.3061 0.65823 0.0
H1388 H 0.29176 0.28789 0.72255 0.0
H1389 H 0.33181 0.32644 0.72225 0.0
H1390 H 0.3076 0.2905 0.69929 0.0
H1391 H 0.31551 0.32319 0.74519 0.0
H1392 H 0.38116 0.34188 0.71781 0.0
H1393 H 0.37113 0.36028 0.67585 0.0
H1394 H 0.31103 0.25282 0.7186 0.0
H1395 H 0.33125 0.28323 0.75691 0.0
H1396 H 0.3289 0.32199 0.62535 0.0
H1397 H 0.36039 0.32203 0.6493 0.0
H1398 H 0.34168 0.33352 0.59781 0.0
H1399 H 0.37258 0.33341 0.62128 0.0
H1400 H 0.31761 0.29859 0.63568 0.0
H1401 H 0.29907 0.26534 0.66841 0.0
H1402 H 0.30242 0.28828 0.61011 0.0
H1403 H 0.28415 0.25559 0.64222 0.0
H1404 H 0.34216 0.26638 0.62908 0.0
H1405 H 0.34078 0.29146 0.58878 0.0
H1406 H 0.30918 0.33515 0.65253 0.0
H1407 H 0.2793 0.29832 0.66352 0.0
Li1408 Li 0.68479 0.03052 0.6829 0.0
Li1409 Li 0.70528 0.03714 0.69545 0.0
Li1410 Li 0.70276 0.03979 0.66128 0.0
Li1411 Li 0.69649 0.0195 0.67492 0.0
C1412 C 0.69674 0.05664 0.67976 0.0
N1413 N 0.69172 0.07528 0.67233 0.0
C1414 C 0.70019 0.06625 0.69264 0.0
C1415 C 0.69087 0.05661 0.66301 0.0
C1416 C 0.69753 0.07556 0.68866 0.0
C1417 C 0.68839 0.06609 0.65953 0.0
C1418 C 0.69043 0.01997 0.71868 0.0
C1419 C 0.69809 0.01443 0.7459 0.0
N1420 N 0.69204 0.01837 0.7573 0.0
C1421 C 0.68422 0.02389 0.73063 0.0
C1422 C 0.69735 0.01513 0.72633 0.0
C1423 C 0.68518 0.02303 0.75013 0.0
C1424 C 0.65904 0.01709 0.68417 0.0
N1425 N 0.66891 0.02826 0.68819 0.0
C1426 C 0.65579 0.03537 0.70022 0.0
C1427 C 0.66751 0.03731 0.69622 0.0
C1428 C 0.64538 0.02391 0.69629 0.0
C1429 C 0.64715 0.0147 0.68813 0.0
H1430 H 0.66044 0.01 0.67802 0.0
H1431 H 0.67547 0.04601 0.69975 0.0
C1432 C 0.72657 0.04571 0.7187 0.0
N1433 N 0.71549 0.04504 0.71664 0.0
C1434 C 0.73438 0.05248 0.7335 0.0
C1435 C 0.71917 0.05763 0.74383 0.0
C1436 C 0.71164 0.05071 0.72891 0.0
C1437 C 0.73078 0.05873 0.74611 0.0
H1438 H 0.7295 0.04127 0.70859 0.0
H1439 H 0.7028 0.05005 0.72689 0.0
C1440 C 0.6805 0.02171 0.6416 0.0
N1441 N 0.66735 0.01613 0.60827 0.0
C1442 C 0.68204 0.01465 0.6278 0.0
C1443 C 0.67207 0.02572 0.63856 0.0
C1444 C 0.67537 0.01199 0.61101 0.0
C1445 C 0.66556 0.02286 0.6216 0.0
C1446 C 0.72096 0.02997 0.6686 0.0
C1447 C 0.72673 0.03297 0.651 0.0
C1448 C 0.72303 0.02251 0.68094 0.0
C1449 C 0.73437 0.02832 0.64594 0.0
C1450 C 0.73072 0.01804 0.67535 0.0
N1451 N 0.73618 0.021 0.6581 0.0
C1452 C 0.71734 0.06255 0.64339 0.0
C1453 C 0.70878 0.04556 0.62247 0.0
C1454 C 0.72328 0.07064 0.6285 0.0
N1455 N 0.71017 0.05029 0.64012 0.0
C1456 C 0.71463 0.05331 0.60717 0.0
C1457 C 0.72201 0.06603 0.61011 0.0
H1458 H 0.71858 0.06604 0.65764 0.0
H1459 H 0.70336 0.03578 0.62028 0.0
C1460 C 0.68764 0.99408 0.68092 0.0
N1461 N 0.69462 0.00375 0.66939 0.0
C1462 C 0.68559 0.98234 0.67655 0.0
C1463 C 0.69821 0.99081 0.64879 0.0
C1464 C 0.69989 0.00232 0.65358 0.0
C1465 C 0.69081 0.98055 0.66016 0.0
H1466 H 0.68344 0.99544 0.69331 0.0
H1467 H 0.70528 0.01009 0.64449 0.0
O1468 O 0.69927 0.04744 0.68349 0.0
O1469 O 0.68981 0.02098 0.69957 0.0
O1470 O 0.68683 0.02423 0.65828 0.0
O1471 O 0.71338 0.03436 0.67372 0.0
H1472 H 0.70486 0.06651 0.70559 0.0
H1473 H 0.68846 0.04946 0.65268 0.0
H1474 H 0.7001 0.08302 0.69854 0.0
H1475 H 0.68385 0.06617 0.6466 0.0
H1476 H 0.70346 0.01076 0.75204 0.0
H1477 H 0.67883 0.02767 0.72491 0.0
H1478 H 0.70213 0.01198 0.71726 0.0
H1479 H 0.68049 0.02609 0.75956 0.0
H1480 H 0.65494 0.0428 0.70634 0.0
H1481 H 0.63947 0.00563 0.6852 0.0
H1482 H 0.74331 0.05319 0.73466 0.0
H1483 H 0.71598 0.06217 0.75338 0.0
H1484 H 0.68841 0.01135 0.62992 0.0
H1485 H 0.67045 0.0309 0.64922 0.0
H1486 H 0.67657 0.00663 0.60016 0.0
H1487 H 0.65905 0.02595 0.61906 0.0
H1488 H 0.7253 0.03878 0.64132 0.0
H1489 H 0.71863 0.0201 0.69461 0.0
H1490 H 0.73886 0.03052 0.63232 0.0
H1491 H 0.73233 0.01219 0.68471 0.0
H1492 H 0.72907 0.08036 0.63142 0.0
H1493 H 0.71341 0.04938 0.5932 0.0
H1494 H 0.67968 0.97471 0.68562 0.0
H1495 H 0.7026 0.98997 0.6362 0.0
Li1496 Li 0.96629 0.67376 0.69305 0.0
Li1497 Li 0.97193 0.65834 0.6833 0.0
Li1498 Li 0.98314 0.67929 0.67285 0.0
Li1499 Li 0.9628 0.66691 0.66093 0.0
C1500 C 0.99241 0.68137 0.70626 0.0
N1501 N 0.01547 0.69867 0.71899 0.0
C1502 C 0.00172 0.67841 0.70767 0.0
C1503 C 0.99479 0.69309 0.71146 0.0
C1504 C 0.01333 0.6873 0.7141 0.0
C1505 C 0.00652 0.70172 0.71784 0.0
C1506 C 0.94649 0.65205 0.69729 0.0
C1507 C 0.92588 0.64527 0.70812 0.0
N1508 N 0.9292 0.64393 0.72582 0.0
C1509 C 0.94969 0.65051 0.71557 0.0
C1510 C 0.93448 0.64934 0.69349 0.0
C1511 C 0.94082 0.64643 0.7298 0.0
C1512 C 0.94958 0.67994 0.70851 0.0
N1513 N 0.95939 0.67861 0.71279 0.0
C1514 C 0.95803 0.68275 0.74529 0.0
C1515 C 0.96372 0.67999 0.73071 0.0
C1516 C 0.94771 0.68394 0.74137 0.0
C1517 C 0.94351 0.68255 0.72269 0.0
H1518 H 0.94631 0.6787 0.69412 0.0
H1519 H 0.97142 0.67867 0.73374 0.0
C1520 C 0.98429 0.64511 0.6851 0.0
N1521 N 0.97341 0.64439 0.68939 0.0
C1522 C 0.98615 0.63526 0.68897 0.0
C1523 C 0.96547 0.62402 0.70137 0.0
C1524 C 0.96398 0.63405 0.69709 0.0
C1525 C 0.9767 0.62458 0.69739 0.0
H1526 H 0.99154 0.65336 0.67864 0.0
H1527 H 0.95529 0.63355 0.69984 0.0
C1528 C 0.97285 0.69171 0.65526 0.0
N1529 N 0.97769 0.70719 0.6248 0.0
C1530 C 0.978 0.69006 0.63882 0.0
C1531 C 0.97014 0.70122 0.65618 0.0
C1532 C 0.98038 0.69799 0.62358 0.0
C1533 C 0.97267 0.70895 0.64064 0.0
C1534 C 0.97448 0.65474 0.64554 0.0
C1535 C 0.98296 0.65561 0.63201 0.0
C1536 C 0.96319 0.64383 0.64719 0.0
C1537 C 0.97999 0.64557 0.62027 0.0
C1538 C 0.96057 0.634 0.63519 0.0
N1539 N 0.96896 0.63507 0.62209 0.0
C1540 C 0.00714 0.68745 0.66109 0.0
C1541 C 0.00345 0.70382 0.66774 0.0
C1542 C 0.01932 0.69574 0.6564 0.0
N1543 N 0.9995 0.69159 0.66656 0.0
C1544 C 0.01559 0.71246 0.66314 0.0
C1545 C 0.02369 0.70844 0.65727 0.0
H1546 H 0.00376 0.67767 0.66054 0.0
H1547 H 0.99719 0.70686 0.6723 0.0
C1548 C 0.94188 0.66479 0.6435 0.0
N1549 N 0.95201 0.66382 0.64008 0.0
C1550 C 0.93357 0.66288 0.62903 0.0
C1551 C 0.94642 0.6593 0.60763 0.0
C1552 C 0.95453 0.66138 0.62248 0.0
C1553 C 0.93575 0.65998 0.61083 0.0
H1554 H 0.94032 0.66716 0.65749 0.0
H1555 H 0.96288 0.66119 0.61982 0.0
O1556 O 0.98108 0.67292 0.69952 0.0
O1557 O 0.95517 0.65643 0.68332 0.0
O1558 O 0.97034 0.68407 0.67042 0.0
O1559 O 0.97738 0.66449 0.65722 0.0
H1560 H 1.00002 0.66938 0.70372 0.0
H1561 H 0.98771 0.69557 0.71027 0.0
H1562 H 0.02065 0.68516 0.71516 0.0
H1563 H 0.00852 0.71086 0.72178 0.0
H1564 H 0.91655 0.64319 0.70539 0.0
H1565 H 0.95898 0.65267 0.71878 0.0
H1566 H 0.93181 0.65038 0.67942 0.0
H1567 H 0.9432 0.64531 0.74404 0.0
H1568 H 0.96144 0.6836 0.75956 0.0
H1569 H 0.93563 0.68346 0.71909 0.0
H1570 H 0.99496 0.6361 0.68577 0.0
H1571 H 0.95789 0.61587 0.70757 0.0
H1572 H 0.98017 0.68278 0.63776 0.0
H1573 H 0.96613 0.70259 0.6688 0.0
H1574 H 0.98437 0.69682 0.61078 0.0
H1575 H 0.97063 0.71635 0.64117 0.0
H1576 H 0.99175 0.66398 0.63059 0.0
H1577 H 0.95649 0.64293 0.65757 0.0
H1578 H 0.98647 0.64613 0.60972 0.0
H1579 H 0.95188 0.62552 0.6363 0.0
H1580 H 0.02529 0.69222 0.6523 0.0
H1581 H 0.01854 0.72216 0.66388 0.0
H1582 H 0.92546 0.66352 0.63208 0.0
H1583 H 0.9486 0.65739 0.59371 0.0
H1584 H 0.22587 0.35894 0.13945 0.0
N1585 N 0.2079 0.34158 0.11899 0.0
H1586 H 0.23507 0.35632 0.16822 0.0
H1587 H 0.19932 0.32018 0.13933 0.0
H1588 H 0.20825 0.31752 0.16813 0.0
H1589 H 0.21167 0.32245 0.11033 0.0
H1590 H 0.22644 0.32311 0.08762 0.0
H1591 H 0.21872 0.35805 0.09178 0.0
H1592 H 0.23289 0.35844 0.06784 0.0
H1593 H 0.19734 0.35518 0.12148 0.0
H1594 H 0.1895 0.31824 0.11054 0.0
H1595 H 0.17555 0.34854 0.11878 0.0
H1596 H 0.16753 0.31119 0.10935 0.0
H1597 H 0.11654 0.33246 0.12865 0.0
H1598 H 0.10642 0.33295 0.15747 0.0
H1599 H 0.09685 0.29546 0.16941 0.0
H1600 H 0.1068 0.29492 0.1399 0.0
H1601 H 0.09659 0.29967 0.09607 0.0
H1602 H 0.08715 0.3071 0.0735 0.0
H1603 H 0.12002 0.34292 0.07418 0.0
H1604 H 0.12913 0.33554 0.09736 0.0
H1605 H 0.13598 0.33179 0.13511 0.0
H1606 H 0.15751 0.33812 0.13542 0.0
H1607 H 0.15118 0.31075 0.09311 0.0
N1608 N 0.11769 0.31277 0.1143 0.0
H1609 H 0.12918 0.30377 0.09394 0.0
C1610 C 0.21191 0.33984 0.13721 0.0
C1611 C 0.22187 0.34993 0.14587 0.0
C1612 C 0.22708 0.3484 0.16231 0.0
C1613 C 0.22243 0.33668 0.17042 0.0
C1614 C 0.21215 0.32663 0.1621 0.0
C1615 C 0.20694 0.32818 0.14565 0.0
C1616 C 0.21437 0.34041 0.10309 0.0
C1617 C 0.21617 0.33029 0.10102 0.0
C1618 C 0.22458 0.33064 0.08779 0.0
C1619 C 0.23114 0.34097 0.07607 0.0
C1620 C 0.22837 0.35052 0.07702 0.0
C1621 C 0.22015 0.35027 0.09052 0.0
C1622 C 0.19499 0.3372 0.11662 0.0
C1623 C 0.19084 0.34559 0.11869 0.0
C1624 C 0.17835 0.34171 0.11733 0.0
C1625 C 0.16964 0.32924 0.11423 0.0
C1626 C 0.1739 0.32087 0.11166 0.0
C1627 C 0.18647 0.32484 0.11261 0.0
C1628 C 0.11238 0.31357 0.13198 0.0
C1629 C 0.11228 0.32431 0.13737 0.0
C1630 C 0.10657 0.32463 0.15404 0.0
C1631 C 0.10085 0.31426 0.16581 0.0
C1632 C 0.10108 0.30357 0.16056 0.0
C1633 C 0.10681 0.30326 0.14381 0.0
C1634 C 0.11352 0.31696 0.09844 0.0
C1635 C 0.10184 0.30904 0.091 0.0
C1636 C 0.09649 0.31332 0.07803 0.0
C1637 C 0.10278 0.32566 0.07208 0.0
C1638 C 0.11482 0.33342 0.07869 0.0
C1639 C 0.12012 0.32915 0.09182 0.0
C1640 C 0.13075 0.31705 0.11466 0.0
C1641 C 0.13904 0.32696 0.12602 0.0
C1642 C 0.15154 0.33075 0.12598 0.0
C1643 C 0.15622 0.32503 0.11422 0.0
C1644 C 0.14795 0.31527 0.10263 0.0
C1645 C 0.13537 0.31131 0.10296 0.0
H1646 H 0.70995 0.80797 0.13841 0.0
N1647 N 0.69234 0.8055 0.11497 0.0
H1648 H 0.70746 0.79665 0.16778 0.0
H1649 H 0.67054 0.79053 0.13317 0.0
H1650 H 0.66801 0.77955 0.16245 0.0
H1651 H 0.66896 0.79222 0.10081 0.0
H1652 H 0.66135 0.77375 0.08149 0.0
H1653 H 0.70594 0.79895 0.09503 0.0
H1654 H 0.69861 0.78104 0.07446 0.0
H1655 H 0.70955 0.82662 0.10079 0.0
H1656 H 0.67296 0.80894 0.12402 0.0
H1657 H 0.70942 0.84596 0.09851 0.0
H1658 H 0.67296 0.82828 0.12283 0.0
H1659 H 0.70838 0.90705 0.13072 0.0
H1660 H 0.7057 0.91499 0.16069 0.0
H1661 H 0.67297 0.88005 0.17157 0.0
H1662 H 0.67553 0.8724 0.14121 0.0
H1663 H 0.66902 0.87902 0.11197 0.0
H1664 H 0.66071 0.88879 0.09169 0.0
H1665 H 0.69652 0.91104 0.06657 0.0
H1666 H 0.70478 0.90104 0.0868 0.0
H1667 H 0.71159 0.88116 0.12003 0.0
H1668 H 0.71095 0.86145 0.11886 0.0
H1669 H 0.67243 0.84351 0.10392 0.0
N1670 N 0.6933 0.88555 0.11491 0.0
H1671 H 0.67304 0.86313 0.10605 0.0
C1672 C 0.69051 0.80019 0.13354 0.0
C1673 C 0.70079 0.80195 0.14383 0.0
C1674 C 0.69934 0.79549 0.16059 0.0
C1675 C 0.68752 0.7871 0.16733 0.0
C1676 C 0.67723 0.78579 0.15746 0.0
C1677 C 0.67869 0.79221 0.14073 0.0
C1678 C 0.688 0.79673 0.09978 0.0
C1679 C 0.67549 0.7899 0.09496 0.0
C1680 C 0.67116 0.77938 0.08371 0.0
C1681 C 0.67932 0.77568 0.07681 0.0
C1682 C 0.692 0.78335 0.08005 0.0
C1683 C 0.69625 0.79369 0.09158 0.0
C1684 C 0.69141 0.81639 0.11281 0.0
C1685 C 0.7015 0.82694 0.10541 0.0
C1686 C 0.70143 0.838 0.1043 0.0
C1687 C 0.69126 0.83878 0.11078 0.0
C1688 C 0.68094 0.82805 0.1176 0.0
C1689 C 0.68097 0.81694 0.11847 0.0
C1690 C 0.69223 0.88918 0.13377 0.0
C1691 C 0.70075 0.90107 0.13976 0.0
C1692 C 0.69922 0.90555 0.15694 0.0
C1693 C 0.68909 0.89817 0.16858 0.0
C1694 C 0.68077 0.88605 0.16284 0.0
C1695 C 0.68228 0.88161 0.14556 0.0
C1696 C 0.68756 0.88923 0.10075 0.0
C1697 C 0.675 0.88564 0.10163 0.0
C1698 C 0.67025 0.89126 0.09004 0.0
C1699 C 0.67799 0.90071 0.07764 0.0
C1700 C 0.69037 0.90382 0.07609 0.0
C1701 C 0.69508 0.89808 0.0875 0.0
C1702 C 0.69247 0.87373 0.11299 0.0
C1703 C 0.70304 0.87296 0.11641 0.0
C1704 C 0.70265 0.86168 0.11559 0.0
C1705 C 0.69165 0.85084 0.11114 0.0
C1706 C 0.68104 0.85162 0.10758 0.0
C1707 C 0.68141 0.86293 0.10861 0.0
H1708 H 0.11813 0.78882 0.13416 0.0
N1709 N 0.11475 0.80576 0.11476 0.0
H1710 H 0.10864 0.77917 0.16397 0.0
H1711 H 0.10135 0.81144 0.1372 0.0
H1712 H 0.092 0.80202 0.16753 0.0
H1713 H 0.0941 0.79729 0.09529 0.0
H1714 H 0.08498 0.7797 0.07387 0.0
H1715 H 0.12602 0.79332 0.10186 0.0
H1716 H 0.11699 0.77566 0.08032 0.0
H1717 H 0.13543 0.81048 0.13514 0.0
H1718 H 0.12228 0.82408 0.09028 0.0
H1719 H 0.15538 0.82898 0.13366 0.0
H1720 H 0.14261 0.8423 0.08762 0.0
H1721 H 0.21095 0.87736 0.13366 0.0
H1722 H 0.22137 0.88671 0.16332 0.0
H1723 H 0.2034 0.90838 0.1646 0.0
H1724 H 0.19306 0.89898 0.13481 0.0
H1725 H 0.20546 0.90467 0.09551 0.0
H1726 H 0.22324 0.91392 0.07465 0.0
H1727 H 0.22519 0.88053 0.07706 0.0
H1728 H 0.20782 0.87167 0.09866 0.0
H1729 H 0.19305 0.86054 0.12063 0.0
H1730 H 0.17386 0.84106 0.11851 0.0
H1731 H 0.15491 0.86057 0.10299 0.0
N1732 N 0.19624 0.88346 0.1135 0.0
H1733 H 0.17439 0.87989 0.10373 0.0
C1734 C 0.11039 0.80085 0.13338 0.0
C1735 C 0.11253 0.79184 0.14136 0.0
C1736 C 0.10715 0.78638 0.15854 0.0
C1737 C 0.09952 0.78979 0.16814 0.0
C1738 C 0.0977 0.79907 0.16038 0.0
C1739 C 0.10309 0.80453 0.14317 0.0
C1740 C 0.11065 0.79656 0.10017 0.0
C1741 C 0.09923 0.79275 0.09173 0.0
C1742 C 0.09408 0.78273 0.07946 0.0
C1743 C 0.10024 0.77625 0.07543 0.0
C1744 C 0.11196 0.78039 0.08331 0.0
C1745 C 0.11715 0.7905 0.09554 0.0
C1746 C 0.12716 0.81597 0.11307 0.0
C1747 C 0.13682 0.81734 0.12477 0.0
C1748 C 0.14839 0.82797 0.12374 0.0
C1749 C 0.15069 0.83733 0.11067 0.0
C1750 C 0.14117 0.83554 0.09828 0.0
C1751 C 0.12955 0.82505 0.09961 0.0
C1752 C 0.20119 0.88748 0.1321 0.0
C1753 C 0.20903 0.8839 0.14053 0.0
C1754 C 0.215 0.88927 0.15749 0.0
C1755 C 0.21328 0.89835 0.16622 0.0
C1756 C 0.20504 0.90153 0.15808 0.0
C1757 C 0.19906 0.89612 0.1412 0.0
C1758 C 0.20523 0.88749 0.09861 0.0
C1759 C 0.20959 0.89928 0.09118 0.0
C1760 C 0.21975 0.90452 0.07918 0.0
C1761 C 0.22575 0.89801 0.07415 0.0
C1762 C 0.22096 0.88591 0.08086 0.0
C1763 C 0.21087 0.88074 0.0931 0.0
C1764 C 0.18519 0.87168 0.11192 0.0
C1765 C 0.18485 0.86061 0.11628 0.0
C1766 C 0.17375 0.84943 0.11536 0.0
C1767 C 0.16271 0.84911 0.11054 0.0
C1768 C 0.16318 0.86029 0.10628 0.0
C1769 C 0.1743 0.8714 0.10684 0.0
H1770 H 0.3312 0.21254 0.88379 0.0
N1771 N 0.31049 0.1955 0.90232 0.0
H1772 H 0.33195 0.22218 0.85377 0.0
H1773 H 0.29197 0.1892 0.87832 0.0
H1774 H 0.29266 0.19856 0.84767 0.0
H1775 H 0.29757 0.20413 0.91922 0.0
H1776 H 0.30546 0.22264 0.93865 0.0
H1777 H 0.33376 0.20837 0.91693 0.0
H1778 H 0.34184 0.22712 0.93602 0.0
H1779 H 0.32763 0.19136 0.88436 0.0
H1780 H 0.29921 0.17724 0.92675 0.0
H1781 H 0.32949 0.17314 0.88717 0.0
H1782 H 0.30167 0.1593 0.93076 0.0
H1783 H 0.3367 0.12504 0.88797 0.0
H1784 H 0.33821 0.1157 0.85871 0.0
H1785 H 0.29854 0.09419 0.85586 0.0
H1786 H 0.29719 0.10331 0.88562 0.0
H1787 H 0.30251 0.09862 0.92771 0.0
H1788 H 0.31022 0.08893 0.94941 0.0
H1789 H 0.34697 0.11992 0.94311 0.0
H1790 H 0.3392 0.12938 0.92123 0.0
H1791 H 0.33552 0.14182 0.90226 0.0
H1792 H 0.33553 0.1612 0.9038 0.0
H1793 H 0.29645 0.14118 0.91527 0.0
N1794 N 0.31561 0.11876 0.90752 0.0
H1795 H 0.29683 0.12198 0.91508 0.0
C1796 C 0.31147 0.20015 0.88339 0.0
C1797 C 0.32275 0.20932 0.87598 0.0
C1798 C 0.32318 0.21478 0.85865 0.0
C1799 C 0.31235 0.21119 0.8483 0.0
C1800 C 0.30114 0.20167 0.8554 0.0
C1801 C 0.30073 0.19623 0.8728 0.0
C1802 C 0.31506 0.20495 0.91655 0.0
C1803 C 0.30718 0.20894 0.92328 0.0
C1804 C 0.31172 0.21956 0.9342 0.0
C1805 C 0.32431 0.22646 0.93857 0.0
C1806 C 0.33209 0.22199 0.93292 0.0
C1807 C 0.3275 0.2113 0.92197 0.0
C1808 C 0.313 0.18557 0.90506 0.0
C1809 C 0.32187 0.18445 0.89449 0.0
C1810 C 0.32304 0.17399 0.89629 0.0
C1811 C 0.3156 0.16455 0.90902 0.0
C1812 C 0.3073 0.16612 0.92038 0.0
C1813 C 0.30596 0.17644 0.91827 0.0
C1814 C 0.31679 0.11477 0.88903 0.0
C1815 C 0.32833 0.11844 0.88096 0.0
C1816 C 0.32917 0.11311 0.86413 0.0
C1817 C 0.31849 0.10408 0.855 0.0
C1818 C 0.30695 0.10091 0.8627 0.0
C1819 C 0.30614 0.10619 0.87957 0.0
C1820 C 0.32021 0.11468 0.92281 0.0
C1821 C 0.31217 0.10344 0.93142 0.0
C1822 C 0.31661 0.09795 0.94384 0.0
C1823 C 0.32925 0.10362 0.94791 0.0
C1824 C 0.33722 0.11524 0.94007 0.0
C1825 C 0.33275 0.12072 0.92761 0.0
C1826 C 0.31617 0.13045 0.90895 0.0
C1827 C 0.32704 0.14162 0.90562 0.0
C1828 C 0.32697 0.15273 0.90621 0.0
C1829 C 0.31599 0.15287 0.9097 0.0
C1830 C 0.30516 0.14159 0.91302 0.0
C1831 C 0.30531 0.13055 0.91277 0.0
H1832 H 0.7879 0.14024 0.87177 0.0
N1833 N 0.79601 0.13444 0.90241 0.0
H1834 H 0.77949 0.12791 0.84321 0.0
H1835 H 0.79651 0.11342 0.89362 0.0
H1836 H 0.78859 0.1013 0.86498 0.0
H1837 H 0.79903 0.11916 0.92664 0.0
H1838 H 0.78356 0.10479 0.94881 0.0
H1839 H 0.77561 0.13398 0.91295 0.0
H1840 H 0.76008 0.11967 0.93492 0.0
H1841 H 0.80551 0.1579 0.91142 0.0
H1842 H 0.81539 0.13007 0.90187 0.0
H1843 H 0.82719 0.17327 0.9158 0.0
H1844 H 0.83705 0.14539 0.90533 0.0
H1845 H 0.88728 0.21795 0.89671 0.0
H1846 H 0.89646 0.22794 0.86704 0.0
H1847 H 0.90293 0.19817 0.85288 0.0
H1848 H 0.89408 0.1884 0.88324 0.0
H1849 H 0.90752 0.20469 0.9256 0.0
H1850 H 0.91848 0.22189 0.94719 0.0
H1851 H 0.88596 0.22521 0.95237 0.0
H1852 H 0.87533 0.20847 0.93003 0.0
H1853 H 0.86655 0.19953 0.89698 0.0
H1854 H 0.8449 0.18409 0.89673 0.0
H1855 H 0.85306 0.15889 0.92623 0.0
N1856 N 0.88553 0.19672 0.91049 0.0
H1857 H 0.87498 0.17438 0.92565 0.0
C1858 C 0.79288 0.12784 0.88479 0.0
C1859 C 0.78827 0.13186 0.87016 0.0
C1860 C 0.78351 0.1248 0.85384 0.0
C1861 C 0.7833 0.11355 0.85182 0.0
C1862 C 0.78843 0.10981 0.86618 0.0
C1863 C 0.79312 0.11684 0.88254 0.0
C1864 C 0.78839 0.12759 0.91808 0.0
C1865 C 0.79067 0.1195 0.92869 0.0
C1866 C 0.7818 0.11125 0.94129 0.0
C1867 C 0.77055 0.11101 0.94353 0.0
C1868 C 0.76868 0.11968 0.93375 0.0
C1869 C 0.77752 0.12785 0.92115 0.0
C1870 C 0.80881 0.14291 0.90607 0.0
C1871 C 0.81238 0.15513 0.91028 0.0
C1872 C 0.82478 0.1639 0.91263 0.0
C1873 C 0.83392 0.16063 0.91066 0.0
C1874 C 0.83028 0.14824 0.90708 0.0
C1875 C 0.81784 0.13944 0.90491 0.0
C1876 C 0.89009 0.20242 0.89232 0.0
C1877 C 0.89064 0.21352 0.88728 0.0
C1878 C 0.89581 0.2192 0.87014 0.0
C1879 C 0.90046 0.21389 0.85752 0.0
C1880 C 0.89961 0.20262 0.86238 0.0
C1881 C 0.89449 0.19697 0.87962 0.0
C1882 C 0.89064 0.20522 0.9261 0.0
C1883 C 0.90269 0.20897 0.93174 0.0
C1884 C 0.90892 0.2188 0.94417 0.0
C1885 C 0.90316 0.22506 0.95148 0.0
C1886 C 0.89078 0.22079 0.94675 0.0
C1887 C 0.88461 0.21105 0.93408 0.0
C1888 C 0.87248 0.18806 0.91115 0.0
C1889 C 0.86377 0.19071 0.90335 0.0
C1890 C 0.85129 0.18186 0.90342 0.0
C1891 C 0.84718 0.1702 0.91145 0.0
C1892 C 0.85589 0.16769 0.91966 0.0
C1893 C 0.8684 0.17654 0.91947 0.0
H1894 H 0.79622 0.70701 0.89416 0.0
N1895 N 0.80532 0.69313 0.90583 0.0
H1896 H 0.7843 0.70446 0.86545 0.0
H1897 H 0.80126 0.67687 0.87716 0.0
H1898 H 0.78957 0.67446 0.84818 0.0
H1899 H 0.78702 0.66906 0.90736 0.0
H1900 H 0.76969 0.66049 0.92913 0.0
H1901 H 0.8036 0.70342 0.93756 0.0
H1902 H 0.7865 0.69477 0.96 0.0
H1903 H 0.82717 0.71055 0.89417 0.0
H1904 H 0.80846 0.67374 0.9167 0.0
H1905 H 0.84632 0.71013 0.89307 0.0
H1906 H 0.82772 0.67353 0.91697 0.0
H1907 H 0.90752 0.71033 0.89237 0.0
H1908 H 0.91819 0.7108 0.86317 0.0
H1909 H 0.88553 0.67825 0.84377 0.0
H1910 H 0.875 0.67781 0.87285 0.0
H1911 H 0.87981 0.66931 0.90195 0.0
H1912 H 0.88871 0.66007 0.9222 0.0
H1913 H 0.90587 0.69312 0.95608 0.0
H1914 H 0.89725 0.70242 0.93523 0.0
H1915 H 0.88141 0.71174 0.91026 0.0
H1916 H 0.86184 0.71136 0.91188 0.0
H1917 H 0.84275 0.67242 0.8993 0.0
N1918 N 0.88522 0.69327 0.90322 0.0
H1919 H 0.86237 0.67282 0.89923 0.0
C1920 C 0.79971 0.69224 0.88772 0.0
C1921 C 0.79495 0.70001 0.88403 0.0
C1922 C 0.7881 0.69849 0.86775 0.0
C1923 C 0.78601 0.68925 0.8547 0.0
C1924 C 0.79114 0.68172 0.858 0.0
C1925 C 0.79783 0.68311 0.8745 0.0
C1926 C 0.79654 0.68697 0.92074 0.0
C1927 C 0.7871 0.67464 0.91903 0.0
C1928 C 0.77721 0.66973 0.9316 0.0
C1929 C 0.77658 0.677 0.94617 0.0
C1930 C 0.78654 0.689 0.94869 0.0
C1931 C 0.79639 0.69393 0.93604 0.0
C1932 C 0.8164 0.69232 0.90573 0.0
C1933 C 0.82725 0.70244 0.89912 0.0
C1934 C 0.83823 0.70219 0.89869 0.0
C1935 C 0.83871 0.69186 0.90523 0.0
C1936 C 0.82775 0.68162 0.91167 0.0
C1937 C 0.81668 0.68178 0.91172 0.0
C1938 C 0.89046 0.69414 0.88482 0.0
C1939 C 0.90261 0.70345 0.88163 0.0
C1940 C 0.9087 0.70365 0.86505 0.0
C1941 C 0.9027 0.69453 0.85124 0.0
C1942 C 0.89035 0.68547 0.85408 0.0
C1943 C 0.8843 0.68522 0.87077 0.0
C1944 C 0.88802 0.68664 0.91701 0.0
C1945 C 0.88526 0.67446 0.91396 0.0
C1946 C 0.89034 0.66917 0.92563 0.0
C1947 C 0.89819 0.67593 0.94059 0.0
C1948 C 0.90009 0.68775 0.94442 0.0
C1949 C 0.89509 0.69305 0.93269 0.0
C1950 C 0.87338 0.69242 0.90429 0.0
C1951 C 0.87297 0.70314 0.90795 0.0
C1952 C 0.86175 0.70289 0.90867 0.0
C1953 C 0.85062 0.69189 0.90537 0.0
C1954 C 0.85106 0.68106 0.90202 0.0
C1955 C 0.86233 0.68129 0.9017 0.0
H1956 H 0.75956 0.62467 0.45936 0.0
N1957 N 0.78139 0.64251 0.44805 0.0
H1958 H 0.74885 0.62375 0.48872 0.0
H1959 H 0.79129 0.65812 0.47829 0.0
H1960 H 0.78065 0.65743 0.50728 0.0
H1961 H 0.7865 0.66638 0.4503 0.0
H1962 H 0.77735 0.67565 0.43084 0.0
H1963 H 0.76964 0.63385 0.41566 0.0
H1964 H 0.76097 0.64332 0.39532 0.0
H1965 H 0.78523 0.62415 0.44027 0.0
H1966 H 0.80421 0.66293 0.45242 0.0
H1967 H 0.80479 0.62451 0.43896 0.0
H1968 H 0.82383 0.66328 0.45265 0.0
H1969 H 0.86745 0.6268 0.46258 0.0
H1970 H 0.8788 0.62915 0.4918 0.0
H1971 H 0.87825 0.66256 0.50417 0.0
H1972 H 0.86677 0.66002 0.47495 0.0
H1973 H 0.87929 0.66625 0.44526 0.0
H1974 H 0.89707 0.67396 0.4245 0.0
H1975 H 0.88083 0.63857 0.39687 0.0
H1976 H 0.86322 0.63081 0.41829 0.0
H1977 H 0.83888 0.62486 0.4588 0.0
H1978 H 0.81981 0.62545 0.45878 0.0
H1979 H 0.83915 0.66219 0.43545 0.0
N1980 N 0.861 0.64223 0.44825 0.0
H1981 H 0.85832 0.66177 0.43678 0.0
C1982 C 0.77619 0.64141 0.46656 0.0
C1983 C 0.76428 0.63169 0.46999 0.0
C1984 C 0.75815 0.63125 0.48667 0.0
C1985 C 0.76386 0.64058 0.50027 0.0
C1986 C 0.77603 0.65003 0.4972 0.0
C1987 C 0.78214 0.65045 0.48051 0.0
C1988 C 0.77854 0.64929 0.43459 0.0
C1989 C 0.78111 0.66136 0.43818 0.0
C1990 C 0.7759 0.6667 0.4269 0.0
C1991 C 0.76818 0.66015 0.41168 0.0
C1992 C 0.76656 0.6485 0.40723 0.0
C1993 C 0.77162 0.64312 0.41867 0.0
C1994 C 0.79323 0.6434 0.4468 0.0
C1995 C 0.79366 0.63273 0.44284 0.0
C1996 C 0.80487 0.63295 0.44232 0.0
C1997 C 0.81597 0.64388 0.44611 0.0
C1998 C 0.81553 0.6547 0.4496 0.0
C1999 C 0.80427 0.65449 0.44974 0.0
C2000 C 0.86628 0.64319 0.46664 0.0
C2001 C 0.86962 0.6345 0.47179 0.0
C2002 C 0.87617 0.63593 0.48837 0.0
C2003 C 0.87952 0.64611 0.50017 0.0
C2004 C 0.87574 0.65458 0.4954 0.0
C2005 C 0.8692 0.65316 0.47872 0.0
C2006 C 0.86997 0.64787 0.43343 0.0
C2007 C 0.8794 0.66023 0.43445 0.0
C2008 C 0.88957 0.66465 0.42247 0.0
C2009 C 0.89049 0.65682 0.4092 0.0
C2010 C 0.88054 0.64477 0.40719 0.0
C2011 C 0.87041 0.64035 0.41926 0.0
C2012 C 0.85 0.64313 0.44759 0.0
C2013 C 0.83897 0.63304 0.45371 0.0
C2014 C 0.82805 0.63338 0.4535 0.0
C2015 C 0.82781 0.6438 0.4468 0.0
C2016 C 0.83894 0.65403 0.44083 0.0
C2017 C 0.84996 0.65375 0.4414 0.0
H2018 H 0.37373 0.13525 0.46273 0.0
N2019 N 0.35646 0.13906 0.44827 0.0
H2020 H 0.37271 0.12445 0.49202 0.0
H2021 H 0.33876 0.13212 0.47569 0.0
H2022 H 0.33775 0.12157 0.50496 0.0
H2023 H 0.33209 0.12157 0.44579 0.0
H2024 H 0.32358 0.10321 0.42613 0.0
H2025 H 0.3674 0.13529 0.41918 0.0
H2026 H 0.35885 0.11713 0.39884 0.0
H2027 H 0.37544 0.16104 0.44117 0.0
H2028 H 0.33635 0.14219 0.45073 0.0
H2029 H 0.37576 0.18056 0.43897 0.0
H2030 H 0.33665 0.16172 0.45019 0.0
H2031 H 0.37424 0.24257 0.45791 0.0
H2032 H 0.37246 0.25204 0.48705 0.0
H2033 H 0.34063 0.21762 0.50294 0.0
H2034 H 0.34248 0.20822 0.47372 0.0
H2035 H 0.33485 0.21421 0.44466 0.0
H2036 H 0.32622 0.22378 0.42472 0.0
H2037 H 0.36032 0.24237 0.39354 0.0
H2038 H 0.36905 0.23308 0.4142 0.0
H2039 H 0.3759 0.21493 0.45689 0.0
H2040 H 0.37485 0.19506 0.45759 0.0
H2041 H 0.33856 0.1782 0.43265 0.0
N2042 N 0.35898 0.22009 0.44529 0.0
H2043 H 0.33937 0.19794 0.43331 0.0
C2044 C 0.35639 0.13453 0.46696 0.0
C2045 C 0.36599 0.1325 0.47213 0.0
C2046 C 0.36539 0.12635 0.48886 0.0
C2047 C 0.35509 0.12206 0.50074 0.0
C2048 C 0.34572 0.12459 0.49596 0.0
C2049 C 0.34635 0.13075 0.47923 0.0
C2050 C 0.35046 0.12974 0.43408 0.0
C2051 C 0.33793 0.12083 0.4353 0.0
C2052 C 0.33304 0.11032 0.42394 0.0
C2053 C 0.34059 0.10858 0.41112 0.0
C2054 C 0.35285 0.11805 0.40886 0.0
C2055 C 0.35773 0.12848 0.4203 0.0
C2056 C 0.35598 0.15022 0.4465 0.0
C2057 C 0.36695 0.16117 0.44301 0.0
C2058 C 0.3671 0.17234 0.44197 0.0
C2059 C 0.35627 0.17285 0.4448 0.0
C2060 C 0.34518 0.16176 0.44785 0.0
C2061 C 0.34501 0.15053 0.44848 0.0
C2062 C 0.35856 0.22474 0.46369 0.0
C2063 C 0.36703 0.23704 0.46787 0.0
C2064 C 0.36594 0.24243 0.4844 0.0
C2065 C 0.35635 0.23558 0.49716 0.0
C2066 C 0.34815 0.22308 0.4934 0.0
C2067 C 0.3492 0.21771 0.47673 0.0
C2068 C 0.3527 0.22307 0.43103 0.0
C2069 C 0.34039 0.22012 0.43328 0.0
C2070 C 0.33542 0.22557 0.42175 0.0
C2071 C 0.34264 0.23402 0.4077 0.0
C2072 C 0.3546 0.23612 0.40449 0.0
C2073 C 0.35957 0.23072 0.41612 0.0
C2074 C 0.35784 0.20806 0.44492 0.0
C2075 C 0.36771 0.20692 0.45162 0.0
C2076 C 0.36712 0.19553 0.45181 0.0
C2077 C 0.35668 0.18495 0.44491 0.0
C2078 C 0.34672 0.18608 0.43826 0.0
C2079 C 0.34722 0.19747 0.43844 0.0
H2080 H 0.78183 0.11527 0.46106 0.0
N2081 N 0.78291 0.13583 0.44556 0.0
H2082 H 0.77246 0.10564 0.49075 0.0
H2083 H 0.77266 0.14362 0.47101 0.0
H2084 H 0.7634 0.13405 0.5014 0.0
H2085 H 0.76149 0.12724 0.42802 0.0
H2086 H 0.75143 0.10923 0.40756 0.0
H2087 H 0.79409 0.12401 0.42926 0.0
H2088 H 0.78427 0.1063 0.40835 0.0
H2089 H 0.80153 0.13479 0.46478 0.0
H2090 H 0.79407 0.15658 0.4257 0.0
H2091 H 0.82304 0.15006 0.46473 0.0
H2092 H 0.81605 0.17173 0.42452 0.0
H2093 H 0.89247 0.19886 0.46619 0.0
H2094 H 0.90218 0.20996 0.49528 0.0
H2095 H 0.87312 0.21856 0.50223 0.0
H2096 H 0.86374 0.2078 0.47302 0.0
H2097 H 0.87961 0.22172 0.44603 0.0
H2098 H 0.894 0.23626 0.42363 0.0
H2099 H 0.89326 0.20626 0.39235 0.0
H2100 H 0.87988 0.19193 0.41637 0.0
H2101 H 0.86263 0.17317 0.44969 0.0
H2102 H 0.84081 0.15801 0.44712 0.0
H2103 H 0.83255 0.18742 0.44137 0.0
N2104 N 0.87308 0.19739 0.44879 0.0
H2105 H 0.85457 0.20244 0.44255 0.0
C2106 C 0.77792 0.13022 0.46366 0.0
C2107 C 0.77785 0.1195 0.46965 0.0
C2108 C 0.77258 0.11403 0.48682 0.0
C2109 C 0.76724 0.11911 0.49851 0.0
C2110 C 0.76737 0.12987 0.49264 0.0
C2111 C 0.7727 0.13538 0.47537 0.0
C2112 C 0.77849 0.12701 0.43029 0.0
C2113 C 0.76662 0.1229 0.42334 0.0
C2114 C 0.7609 0.1126 0.4116 0.0
C2115 C 0.76699 0.10621 0.40648 0.0
C2116 C 0.77924 0.11087 0.41231 0.0
C2117 C 0.78493 0.12113 0.42414 0.0
C2118 C 0.79598 0.14458 0.44543 0.0
C2119 C 0.80445 0.14283 0.45608 0.0
C2120 C 0.81693 0.15158 0.45582 0.0
C2121 C 0.82141 0.16218 0.44455 0.0
C2122 C 0.81297 0.16381 0.43363 0.0
C2123 C 0.8004 0.15512 0.43416 0.0
C2124 C 0.87737 0.20239 0.4674 0.0
C2125 C 0.8881 0.20294 0.47423 0.0
C2126 C 0.8936 0.20928 0.49086 0.0
C2127 C 0.88846 0.21522 0.50104 0.0
C2128 C 0.87742 0.21424 0.49459 0.0
C2129 C 0.87193 0.20792 0.47793 0.0
C2130 C 0.87907 0.20574 0.43332 0.0
C2131 C 0.88252 0.21824 0.43438 0.0
C2132 C 0.8907 0.2266 0.42123 0.0
C2133 C 0.89524 0.2226 0.40626 0.0
C2134 C 0.89052 0.20986 0.40407 0.0
C2135 C 0.88268 0.20157 0.41763 0.0
C2136 C 0.86015 0.18886 0.44669 0.0
C2137 C 0.85607 0.17629 0.44776 0.0
C2138 C 0.84357 0.16766 0.44646 0.0
C2139 C 0.83481 0.17144 0.44442 0.0
C2140 C 0.83898 0.18412 0.44285 0.0
C2141 C 0.85156 0.19275 0.44376 0.0
H2142 H 0.01197 0.55796 0.21972 0.0
N2143 N 0.99242 0.53849 0.23714 0.0
H2144 H 0.01127 0.56854 0.19156 0.0
H2145 H 0.97313 0.53224 0.21475 0.0
H2146 H 0.97225 0.54315 0.18661 0.0
H2147 H 0.97933 0.54566 0.25718 0.0
H2148 H 0.9871 0.56326 0.27842 0.0
H2149 H 0.01592 0.55123 0.25127 0.0
H2150 H 0.02375 0.56867 0.27291 0.0
H2151 H 0.01145 0.53893 0.21678 0.0
H2152 H 0.9827 0.51781 0.25695 0.0
H2153 H 0.01687 0.52303 0.21579 0.0
H2154 H 0.98865 0.50202 0.25697 0.0
H2155 H 0.03275 0.47117 0.20909 0.0
H2156 H 0.02932 0.45849 0.18128 0.0
H2157 H 0.99135 0.44973 0.17988 0.0
H2158 H 0.99471 0.46172 0.20839 0.0
H2159 H 0.99523 0.45335 0.24204 0.0
H2160 H 0.99433 0.43821 0.26438 0.0
H2161 H 0.0338 0.45979 0.2714 0.0
H2162 H 0.03438 0.47527 0.25009 0.0
H2163 H 0.03123 0.49743 0.2281 0.0
H2164 H 0.02613 0.51369 0.2318 0.0
H2165 H 0.98782 0.48611 0.23882 0.0
N2166 N 0.01615 0.47338 0.22898 0.0
H2167 H 0.99319 0.47009 0.23643 0.0
C2168 C 0.99255 0.5442 0.21937 0.0
C2169 C 0.00328 0.5545 0.2125 0.0
C2170 C 0.00284 0.56065 0.19643 0.0
C2171 C 0.99167 0.55681 0.18695 0.0
C2172 C 0.98102 0.5463 0.19349 0.0
C2173 C 0.98149 0.54007 0.20956 0.0
C2174 C 0.99698 0.54713 0.25259 0.0
C2175 C 0.98898 0.55045 0.261 0.0
C2176 C 0.99345 0.56051 0.27317 0.0
C2177 C 0.00609 0.56748 0.27725 0.0
C2178 C 0.014 0.56363 0.26982 0.0
C2179 C 0.00951 0.55356 0.25757 0.0
C2180 C 0.99642 0.52951 0.23675 0.0
C2181 C 0.00629 0.53093 0.22553 0.0
C2182 C 0.00954 0.5218 0.22515 0.0
C2183 C 0.00321 0.51114 0.23627 0.0
C2184 C 0.99358 0.50994 0.24789 0.0
C2185 C 0.99022 0.51899 0.24803 0.0
C2186 C 0.01409 0.46754 0.21079 0.0
C2187 C 0.02375 0.46666 0.20254 0.0
C2188 C 0.02175 0.45943 0.18655 0.0
C2189 C 0.01002 0.45299 0.17821 0.0
C2190 C 1.00045 0.45433 0.18606 0.0
C2191 C 0.00242 0.46139 0.20231 0.0
C2192 C 0.01489 0.46555 0.24462 0.0
C2193 C 0.00359 0.4551 0.24905 0.0
C2194 C 0.00314 0.4463 0.26159 0.0
C2195 C 0.01402 0.44761 0.26955 0.0
C2196 C 0.0252 0.45846 0.26585 0.0
C2197 C 0.02558 0.46734 0.2536 0.0
C2198 C 0.01264 0.48256 0.23168 0.0
C2199 C 0.02176 0.49495 0.23057 0.0
C2200 C 0.01878 0.50422 0.23253 0.0
C2201 C 0.00651 0.50127 0.23538 0.0
C2202 C 0.99739 0.48879 0.23684 0.0
C2203 C 1.00043 0.47954 0.23521 0.0
H2204 H 0.57407 0.53459 0.22861 0.0
N2205 N 0.55252 0.53097 0.24074 0.0
H2206 H 0.58435 0.54397 0.19881 0.0
H2207 H 0.54257 0.53717 0.21122 0.0
H2208 H 0.5528 0.54675 0.18179 0.0
H2209 H 0.54733 0.54968 0.23949 0.0
H2210 H 0.55653 0.56791 0.25943 0.0
H2211 H 0.5645 0.53379 0.27281 0.0
H2212 H 0.57319 0.55168 0.29368 0.0
H2213 H 0.54907 0.50888 0.24831 0.0
H2214 H 0.52954 0.52817 0.23669 0.0
H2215 H 0.5297 0.48946 0.24946 0.0
H2216 H 0.51009 0.50869 0.2363 0.0
H2217 H 0.46727 0.4278 0.22847 0.0
H2218 H 0.45543 0.41786 0.19997 0.0
H2219 H 0.45583 0.45139 0.18501 0.0
H2220 H 0.4677 0.46126 0.21364 0.0
H2221 H 0.45493 0.45488 0.24388 0.0
H2222 H 0.43746 0.44474 0.26522 0.0
H2223 H 0.45537 0.42767 0.29412 0.0
H2224 H 0.47263 0.43753 0.27208 0.0
H2225 H 0.49601 0.45538 0.22987 0.0
H2226 H 0.5148 0.4753 0.22957 0.0
H2227 H 0.49493 0.49201 0.25332 0.0
N2228 N 0.47385 0.45008 0.24123 0.0
H2229 H 0.47601 0.47216 0.25229 0.0
C2230 C 0.55758 0.53514 0.22219 0.0
C2231 C 0.56932 0.53703 0.21825 0.0
C2232 C 0.57521 0.54248 0.20132 0.0
C2233 C 0.56944 0.5462 0.18797 0.0
C2234 C 0.55746 0.54388 0.19165 0.0
C2235 C 0.55158 0.53842 0.20859 0.0
C2236 C 0.55546 0.54047 0.25449 0.0
C2237 C 0.55282 0.54997 0.25141 0.0
C2238 C 0.55805 0.56039 0.26298 0.0
C2239 C 0.56585 0.56143 0.27801 0.0
C2240 C 0.56755 0.55139 0.28193 0.0
C2241 C 0.56247 0.54108 0.27019 0.0
C2242 C 0.54077 0.51989 0.24207 0.0
C2243 C 0.54055 0.50886 0.24583 0.0
C2244 C 0.52945 0.49776 0.24626 0.0
C2245 C 0.51825 0.49738 0.24254 0.0
C2246 C 0.51848 0.50856 0.23927 0.0
C2247 C 0.52963 0.51973 0.23923 0.0
C2248 C 0.46838 0.44522 0.22311 0.0
C2249 C 0.46498 0.43304 0.21885 0.0
C2250 C 0.45815 0.42738 0.20269 0.0
C2251 C 0.45463 0.43383 0.19038 0.0
C2252 C 0.45848 0.44623 0.19421 0.0
C2253 C 0.46525 0.45187 0.21053 0.0
C2254 C 0.46503 0.44681 0.25627 0.0
C2255 C 0.45524 0.44919 0.25507 0.0
C2256 C 0.44525 0.44341 0.26739 0.0
C2257 C 0.4449 0.4352 0.28121 0.0
C2258 C 0.45522 0.43372 0.28338 0.0
C2259 C 0.46515 0.43943 0.27096 0.0
C2260 C 0.48464 0.46217 0.24132 0.0
C2261 C 0.49573 0.46338 0.23493 0.0
C2262 C 0.5065 0.47479 0.23498 0.0
C2263 C 0.50652 0.48533 0.24178 0.0
C2264 C 0.49531 0.48416 0.24788 0.0
C2265 C 0.48444 0.47272 0.24748 0.0
H2266 H 0.54433 0.9911 0.21909 0.0
N2267 N 0.54513 0.01102 0.23659 0.0
H2268 H 0.55557 0.99143 0.19117 0.0
H2269 H 0.55869 0.03017 0.21419 0.0
H2270 H 0.57039 0.03062 0.18616 0.0
H2271 H 0.56487 0.02419 0.25783 0.0
H2272 H 0.57441 0.01642 0.27983 0.0
H2273 H 0.53456 0.98737 0.24987 0.0
H2274 H 0.5441 0.97953 0.27167 0.0
H2275 H 0.52633 0.99249 0.21567 0.0
H2276 H 0.53438 0.02048 0.2575 0.0
H2277 H 0.50492 0.98673 0.21615 0.0
H2278 H 0.51256 0.01421 0.25887 0.0
H2279 H 0.43661 0.96811 0.21475 0.0
H2280 H 0.42748 0.97066 0.18586 0.0
H2281 H 0.45685 0.00843 0.18213 0.0
H2282 H 0.46569 0.0059 0.2111 0.0
H2283 H 0.45504 0.00651 0.2406 0.0
H2284 H 0.44054 0.00828 0.26141 0.0
H2285 H 0.42758 0.97136 0.28153 0.0
H2286 H 0.44209 0.96961 0.26048 0.0
H2287 H 0.4653 0.97089 0.23183 0.0
H2288 H 0.48695 0.97674 0.23392 0.0
H2289 H 0.49659 0.01464 0.24221 0.0
N2290 N 0.45565 0.98534 0.23372 0.0
H2291 H 0.47488 0.00852 0.2413 0.0
C2292 C 0.55061 0.01067 0.21883 0.0
C2293 C 0.54983 0.99978 0.21197 0.0
C2294 C 0.55638 0.99998 0.196 0.0
C2295 C 0.56404 0.01108 0.18657 0.0
C2296 C 0.56452 0.02191 0.19303 0.0
C2297 C 0.55787 0.02168 0.20903 0.0
C2298 C 0.5491 0.00641 0.2521 0.0
C2299 C 0.56013 0.01448 0.26124 0.0
C2300 C 0.56554 0.01003 0.2738 0.0
C2301 C 0.56004 0.99735 0.27731 0.0
C2302 C 0.54859 0.98933 0.26906 0.0
C2303 C 0.54311 0.99381 0.25665 0.0
C2304 C 0.53217 0.00714 0.23643 0.0
C2305 C 0.52358 0.99743 0.22507 0.0
C2306 C 0.51116 0.99399 0.22552 0.0
C2307 C 0.50691 0.99995 0.23761 0.0
C2308 C 0.51548 0.00953 0.24914 0.0
C2309 C 0.52795 0.01309 0.24847 0.0
C2310 C 0.45182 0.98673 0.21514 0.0
C2311 C 0.44119 0.97685 0.20744 0.0
C2312 C 0.43601 0.97834 0.19093 0.0
C2313 C 0.44139 0.98979 0.18175 0.0
C2314 C 0.45237 0.99955 0.18902 0.0
C2315 C 0.45753 0.99806 0.20556 0.0
C2316 C 0.44956 0.98782 0.24886 0.0
C2317 C 0.44937 0.99892 0.24985 0.0
C2318 C 0.44102 0.99991 0.2617 0.0
C2319 C 0.43284 0.98991 0.2729 0.0
C2320 C 0.43381 0.97924 0.27312 0.0
C2321 C 0.44208 0.97822 0.26113 0.0
C2322 C 0.46847 0.98922 0.23617 0.0
C2323 C 0.47212 0.98043 0.2343 0.0
C2324 C 0.48452 0.98384 0.2353 0.0
C2325 C 0.49361 0.99622 0.23793 0.0
C2326 C 0.48988 0.00501 0.24032 0.0
C2327 C 0.47743 0.00153 0.2396 0.0
H2328 H 0.42922 0.96592 0.79635 0.0
N2329 N 0.45075 0.98176 0.78132 0.0
H2330 H 0.42034 0.96813 0.8258 0.0
H2331 H 0.46251 1.0001 0.80728 0.0
H2332 H 0.4537 0.00245 0.83679 0.0
H2333 H 0.45626 0.00573 0.7781 0.0
H2334 H 0.44661 0.01337 0.75648 0.0
H2335 H 0.43769 0.97033 0.75087 0.0
H2336 H 0.42845 0.9781 0.72833 0.0
H2337 H 0.45543 0.96456 0.79299 0.0
H2338 H 0.47298 0.00099 0.76912 0.0
H2339 H 0.47502 0.96503 0.79327 0.0
H2340 H 0.49249 0.00123 0.76799 0.0
H2341 H 0.53759 0.96576 0.79227 0.0
H2342 H 0.54776 0.96574 0.82161 0.0
H2343 H 0.54288 0.99529 0.84281 0.0
H2344 H 0.53333 0.99563 0.81323 0.0
H2345 H 0.55009 0.00467 0.78566 0.0
H2346 H 0.56831 0.0138 0.76577 0.0
H2347 H 0.55018 0.98326 0.72698 0.0
H2348 H 0.53231 0.9738 0.74784 0.0
H2349 H 0.50796 0.96296 0.77548 0.0
H2350 H 0.48884 0.96345 0.77396 0.0
H2351 H 0.50905 0.0026 0.78491 0.0
N2352 N 0.53037 0.98144 0.78189 0.0
H2353 H 0.52823 0.00205 0.78485 0.0
C2354 C 0.44644 0.98282 0.79965 0.0
C2355 C 0.43465 0.9738 0.8053 0.0
C2356 C 0.42963 0.97508 0.82212 0.0
C2357 C 0.43631 0.98549 0.83357 0.0
C2358 C 0.44829 0.9944 0.82814 0.0
C2359 C 0.45335 0.99305 0.81135 0.0
C2360 C 0.4475 0.98734 0.76629 0.0
C2361 C 0.45035 0.99968 0.76714 0.0
C2362 C 0.44487 0.00409 0.75459 0.0
C2363 C 0.43655 0.9963 0.74081 0.0
C2364 C 0.43455 0.98427 0.73906 0.0
C2365 C 0.43993 0.97984 0.75176 0.0
C2366 C 0.46263 0.98259 0.78084 0.0
C2367 C 0.46352 0.9726 0.78756 0.0
C2368 C 0.47474 0.97286 0.7875 0.0
C2369 C 0.48541 0.98309 0.78032 0.0
C2370 C 0.48454 0.99322 0.77376 0.0
C2371 C 0.4733 0.99304 0.7742 0.0
C2372 C 0.5346 0.98059 0.80047 0.0
C2373 C 0.53855 0.97208 0.80341 0.0
C2374 C 0.54432 0.97207 0.82024 0.0
C2375 C 0.54621 0.98056 0.83462 0.0
C2376 C 0.54179 0.98877 0.83194 0.0
C2377 C 0.53614 0.98886 0.81501 0.0
C2378 C 0.53996 0.98838 0.76842 0.0
C2379 C 0.54998 1.00002 0.77276 0.0
C2380 C 0.5604 0.00529 0.76121 0.0
C2381 C 0.56089 0.99915 0.74489 0.0
C2382 C 0.55033 0.98807 0.73973 0.0
C2383 C 0.54003 0.98271 0.75148 0.0
C2384 C 0.51943 0.98236 0.78064 0.0
C2385 C 0.50822 0.97163 0.77743 0.0
C2386 C 0.49729 0.97195 0.77677 0.0
C2387 C 0.49727 0.98303 0.77973 0.0
C2388 C 0.50864 0.9939 0.78249 0.0
C2389 C 0.51963 0.99359 0.78271 0.0
H2390 H 0.98788 0.54305 0.79864 0.0
N2391 N 0.00735 0.54218 0.78288 0.0
H2392 H 0.98813 0.55342 0.82775 0.0
H2393 H 0.02552 0.55249 0.80791 0.0
H2394 H 0.02582 0.56286 0.83739 0.0
H2395 H 0.022 0.56393 0.76757 0.0
H2396 H 0.01614 0.57575 0.74716 0.0
H2397 H 0.98518 0.53292 0.76386 0.0
H2398 H 0.97942 0.54442 0.74288 0.0
H2399 H 0.98446 0.52321 0.79267 0.0
H2400 H 0.02019 0.53164 0.77246 0.0
H2401 H 0.97777 0.50146 0.79247 0.0
H2402 H 0.01383 0.50979 0.77336 0.0
H2403 H 0.96451 0.43437 0.81197 0.0
H2404 H 0.96988 0.42646 0.83973 0.0
H2405 H 0.00806 0.4542 0.83255 0.0
H2406 H 0.00256 0.46204 0.80477 0.0
H2407 H 1.00023 0.45287 0.77411 0.0
H2408 H 1.00033 0.4378 0.75253 0.0
H2409 H 0.96086 0.42044 0.747 0.0
H2410 H 0.96088 0.43568 0.76852 0.0
H2411 H 0.97332 0.4651 0.81082 0.0
H2412 H 0.98003 0.48689 0.80916 0.0
H2413 H 0.00171 0.49032 0.75978 0.0
N2414 N 0.9797 0.45213 0.78888 0.0
H2415 H 0.99556 0.46875 0.76215 0.0
C2416 C 0.00672 0.54696 0.8011 0.0
C2417 C 0.99613 0.54711 0.80715 0.0
C2418 C 0.99628 0.55305 0.82387 0.0
C2419 C 0.00701 0.55901 0.83487 0.0
C2420 C 0.01746 0.55849 0.82911 0.0
C2421 C 0.01728 0.55251 0.81239 0.0
C2422 C 0.00413 0.54757 0.76746 0.0
C2423 C 0.01278 0.55953 0.76183 0.0
C2424 C 0.00939 0.56626 0.75009 0.0
C2425 C 0.99723 0.56111 0.74353 0.0
C2426 C 0.98878 0.54879 0.74803 0.0
C2427 C 0.99215 0.54211 0.75997 0.0
C2428 C 0.00285 0.52912 0.78233 0.0
C2429 C 0.9909 0.52041 0.78814 0.0
C2430 C 0.98711 0.5079 0.78825 0.0
C2431 C 0.99526 0.50377 0.78305 0.0
C2432 C 0.0072 0.51253 0.77718 0.0
C2433 C 0.0109 0.52504 0.77675 0.0
C2434 C 0.98309 0.44872 0.80633 0.0
C2435 C 0.974 0.43884 0.81661 0.0
C2436 C 0.97709 0.43437 0.83246 0.0
C2437 C 0.98941 0.43969 0.83828 0.0
C2438 C 0.99851 0.44983 0.82825 0.0
C2439 C 0.99538 0.45435 0.81245 0.0
C2440 C 0.98049 0.44537 0.77298 0.0
C2441 C 0.99163 0.44603 0.7679 0.0
C2442 C 0.99167 0.43735 0.75563 0.0
C2443 C 0.98058 0.42781 0.74827 0.0
C2444 C 0.96957 0.42771 0.7523 0.0
C2445 C 0.96955 0.43641 0.76458 0.0
C2446 C 0.98393 0.46513 0.78685 0.0
C2447 C 0.97959 0.47057 0.7997 0.0
C2448 C 0.98335 0.48305 0.79858 0.0
C2449 C 0.99138 0.49045 0.78424 0.0
C2450 C 0.99567 0.48499 0.77121 0.0
C2451 C 0.99206 0.47251 0.77253 0.0
H2452 H 0.46848 0.43997 0.81273 0.0
N2453 N 0.4699 0.45766 0.79067 0.0
H2454 H 0.45643 0.43188 0.84156 0.0
H2455 H 0.45694 0.4669 0.80843 0.0
H2456 H 0.44493 0.45899 0.83751 0.0
H2457 H 0.44919 0.45728 0.77765 0.0
H2458 H 0.43412 0.4421 0.75603 0.0
H2459 H 0.47289 0.44209 0.76911 0.0
H2460 H 0.45776 0.42668 0.74771 0.0
H2461 H 0.48999 0.4707 0.81105 0.0
H2462 H 0.46919 0.47425 0.76548 0.0
H2463 H 0.50478 0.49255 0.80912 0.0
H2464 H 0.48436 0.4959 0.76263 0.0
H2465 H 0.55204 0.54782 0.79729 0.0
H2466 H 0.56264 0.55754 0.82654 0.0
H2467 H 0.53623 0.56925 0.83728 0.0
H2468 H 0.52537 0.55913 0.80803 0.0
H2469 H 0.53872 0.56951 0.76764 0.0
H2470 H 0.55578 0.5811 0.74606 0.0
H2471 H 0.56056 0.54949 0.74012 0.0
H2472 H 0.54396 0.53822 0.76221 0.0
H2473 H 0.53589 0.52865 0.79092 0.0
H2474 H 0.5208 0.507 0.79123 0.0
H2475 H 0.49246 0.51545 0.77624 0.0
N2476 N 0.53179 0.54774 0.78272 0.0
H2477 H 0.50801 0.53729 0.77465 0.0
C2478 C 0.4636 0.45399 0.80852 0.0
C2479 C 0.46348 0.44424 0.81825 0.0
C2480 C 0.45663 0.43969 0.83474 0.0
C2481 C 0.44973 0.44481 0.84187 0.0
C2482 C 0.45005 0.45477 0.83228 0.0
C2483 C 0.45694 0.45934 0.81574 0.0
C2484 C 0.46219 0.45079 0.775 0.0
C2485 C 0.45128 0.45085 0.77078 0.0
C2486 C 0.44262 0.44211 0.75851 0.0
C2487 C 0.44465 0.43306 0.75034 0.0
C2488 C 0.45594 0.43357 0.7536 0.0
C2489 C 0.4646 0.44235 0.76583 0.0
C2490 C 0.47841 0.47069 0.78856 0.0
C2491 C 0.48866 0.47617 0.80052 0.0
C2492 C 0.4972 0.48868 0.79922 0.0
C2493 C 0.49591 0.49606 0.78555 0.0
C2494 C 0.48561 0.49058 0.7735 0.0
C2495 C 0.4769 0.47806 0.77506 0.0
C2496 C 0.53773 0.55256 0.80062 0.0
C2497 C 0.54827 0.55213 0.80614 0.0
C2498 C 0.55438 0.55776 0.82284 0.0
C2499 C 0.55023 0.56411 0.83416 0.0
C2500 C 0.53963 0.56443 0.82875 0.0
C2501 C 0.5334 0.55863 0.81217 0.0
C2502 C 0.53999 0.55302 0.76681 0.0
C2503 C 0.54327 0.56499 0.76132 0.0
C2504 C 0.55303 0.5716 0.7489 0.0
C2505 C 0.55969 0.5663 0.74149 0.0
C2506 C 0.55583 0.55397 0.74591 0.0
C2507 C 0.54617 0.54743 0.75853 0.0
C2508 C 0.52314 0.53469 0.78248 0.0
C2509 C 0.52652 0.52594 0.78738 0.0
C2510 C 0.51776 0.51345 0.78781 0.0
C2511 C 0.50531 0.50937 0.78395 0.0
C2512 C 0.50196 0.51816 0.77902 0.0
C2513 C 0.51081 0.53066 0.77821 0.0
H2514 H 0.66831 0.88084 0.55467 0.0
N2515 N 0.64845 0.865 0.57605 0.0
H2516 H 0.6678 0.89035 0.52503 0.0
H2517 H 0.62868 0.8606 0.55616 0.0
H2518 H 0.62811 0.87022 0.52629 0.0
H2519 H 0.63697 0.87349 0.59723 0.0
H2520 H 0.64632 0.89178 0.61725 0.0
H2521 H 0.67265 0.87772 0.58664 0.0
H2522 H 0.68216 0.89615 0.60661 0.0
H2523 H 0.66319 0.85964 0.55343 0.0
H2524 H 0.63886 0.84713 0.60146 0.0
H2525 H 0.66444 0.8411 0.55423 0.0
H2526 H 0.64082 0.82879 0.60329 0.0
H2527 H 0.67243 0.79194 0.55546 0.0
H2528 H 0.67367 0.78264 0.52607 0.0
H2529 H 0.6341 0.76435 0.52064 0.0
H2530 H 0.63296 0.77332 0.55068 0.0
H2531 H 0.64015 0.76524 0.59121 0.0
H2532 H 0.64953 0.75622 0.61086 0.0
H2533 H 0.68399 0.79059 0.60937 0.0
H2534 H 0.67462 0.79937 0.58935 0.0
H2535 H 0.67081 0.80957 0.56528 0.0
H2536 H 0.67147 0.8292 0.56817 0.0
H2537 H 0.63386 0.81022 0.58811 0.0
N2538 N 0.65132 0.78685 0.57414 0.0
H2539 H 0.63372 0.79077 0.58649 0.0
C2540 C 0.64848 0.86988 0.5576 0.0
C2541 C 0.65948 0.8783 0.54851 0.0
C2542 C 0.65919 0.88371 0.53149 0.0
C2543 C 0.64792 0.881 0.52334 0.0
C2544 C 0.63692 0.8725 0.53231 0.0
C2545 C 0.63723 0.86695 0.54925 0.0
C2546 C 0.65409 0.87433 0.59037 0.0
C2547 C 0.6468 0.87822 0.59966 0.0
C2548 C 0.65217 0.88865 0.61111 0.0
C2549 C 0.665 0.89547 0.6134 0.0
C2550 C 0.67226 0.89116 0.60493 0.0
C2551 C 0.66685 0.88062 0.59357 0.0
C2552 C 0.65066 0.85477 0.57723 0.0
C2553 C 0.65822 0.85305 0.56438 0.0
C2554 C 0.65906 0.84237 0.56499 0.0
C2555 C 0.65263 0.83326 0.5787 0.0
C2556 C 0.64564 0.83536 0.59216 0.0
C2557 C 0.6446 0.84592 0.59129 0.0
C2558 C 0.65254 0.7832 0.55537 0.0
C2559 C 0.66403 0.78608 0.54785 0.0
C2560 C 0.66473 0.78077 0.53092 0.0
C2561 C 0.65397 0.77259 0.52103 0.0
C2562 C 0.64255 0.77036 0.52807 0.0
C2563 C 0.64187 0.77558 0.5451 0.0
C2564 C 0.65659 0.78293 0.58875 0.0
C2565 C 0.64963 0.7709 0.59556 0.0
C2566 C 0.65503 0.76579 0.60683 0.0
C2567 C 0.66757 0.77265 0.61159 0.0
C2568 C 0.67437 0.78498 0.60571 0.0
C2569 C 0.66896 0.79007 0.59435 0.0
C2570 C 0.65224 0.79869 0.57601 0.0
C2571 C 0.66282 0.80966 0.5707 0.0
C2572 C 0.66311 0.82091 0.57211 0.0
C2573 C 0.65272 0.82141 0.5784 0.0
C2574 C 0.64216 0.81035 0.58365 0.0
C2575 C 0.64199 0.79917 0.58258 0.0
H2576 H 0.23338 0.85887 0.5493 0.0
N2577 N 0.21902 0.8622 0.5732 0.0
H2578 H 0.24181 0.86961 0.51944 0.0
H2579 H 0.21224 0.87713 0.55497 0.0
H2580 H 0.22012 0.88742 0.52498 0.0
H2581 H 0.20851 0.87479 0.58853 0.0
H2582 H 0.21934 0.89359 0.60741 0.0
H2583 H 0.24045 0.87052 0.59028 0.0
H2584 H 0.25123 0.88907 0.60958 0.0
H2585 H 0.21514 0.84146 0.58887 0.0
H2586 H 0.19612 0.85858 0.5641 0.0
H2587 H 0.19568 0.82213 0.59175 0.0
H2588 H 0.17679 0.83923 0.56595 0.0
H2589 H 0.13325 0.76026 0.5592 0.0
H2590 H 0.1225 0.75231 0.52933 0.0
H2591 H 0.12564 0.78758 0.51785 0.0
H2592 H 0.13595 0.79524 0.54812 0.0
H2593 H 0.12157 0.78723 0.57671 0.0
H2594 H 0.10352 0.77693 0.59687 0.0
H2595 H 0.1196 0.75788 0.62521 0.0
H2596 H 0.13753 0.76801 0.60445 0.0
H2597 H 0.16303 0.7866 0.57005 0.0
H2598 H 0.18198 0.80644 0.57128 0.0
H2599 H 0.16095 0.82406 0.58514 0.0
N2600 N 0.14023 0.78197 0.5747 0.0
H2601 H 0.14202 0.80423 0.58303 0.0
C2602 C 0.22214 0.86709 0.55435 0.0
C2603 C 0.23029 0.86492 0.54382 0.0
C2604 C 0.23507 0.87104 0.52675 0.0
C2605 C 0.23173 0.87947 0.51988 0.0
C2606 C 0.22306 0.88116 0.53002 0.0
C2607 C 0.21838 0.87511 0.54712 0.0
C2608 C 0.22378 0.87136 0.58784 0.0
C2609 C 0.21772 0.8777 0.59342 0.0
C2610 C 0.22392 0.88843 0.60428 0.0
C2611 C 0.23622 0.89293 0.60967 0.0
C2612 C 0.24184 0.88597 0.60532 0.0
C2613 C 0.23568 0.87532 0.59448 0.0
C2614 C 0.20718 0.85141 0.57604 0.0
C2615 C 0.20675 0.84104 0.58409 0.0
C2616 C 0.19563 0.82998 0.58555 0.0
C2617 C 0.18465 0.82902 0.57877 0.0
C2618 C 0.18502 0.83961 0.5714 0.0
C2619 C 0.19616 0.85072 0.57016 0.0
C2620 C 0.13546 0.77831 0.55586 0.0
C2621 C 0.13178 0.7663 0.55005 0.0
C2622 C 0.12568 0.76181 0.53293 0.0
C2623 C 0.12317 0.7693 0.52113 0.0
C2624 C 0.12726 0.78151 0.52669 0.0
C2625 C 0.13329 0.78596 0.54393 0.0
C2626 C 0.13088 0.77828 0.58899 0.0
C2627 C 0.12138 0.78109 0.58756 0.0
C2628 C 0.11104 0.7752 0.59918 0.0
C2629 C 0.11002 0.76643 0.61249 0.0
C2630 C 0.11998 0.7644 0.61485 0.0
C2631 C 0.13029 0.77026 0.60316 0.0
C2632 C 0.15114 0.79386 0.57659 0.0
C2633 C 0.16255 0.79476 0.57346 0.0
C2634 C 0.17338 0.80611 0.57432 0.0
C2635 C 0.17305 0.8169 0.57849 0.0
C2636 C 0.16156 0.81598 0.58174 0.0
C2637 C 0.1507 0.80459 0.58071 0.0
H2638 H 0.20828 0.33641 0.54459 0.0
N2639 N 0.21762 0.35584 0.56907 0.0
H2640 H 0.21829 0.33494 0.51608 0.0
H2641 H 0.23684 0.37406 0.55189 0.0
H2642 H 0.24644 0.37312 0.5225 0.0
H2643 H 0.23227 0.36885 0.59725 0.0
H2644 H 0.24289 0.36236 0.61939 0.0
H2645 H 0.21265 0.33215 0.57445 0.0
H2646 H 0.22346 0.32573 0.59578 0.0
H2647 H 0.19539 0.33463 0.57358 0.0
H2648 H 0.21266 0.37388 0.56677 0.0
H2649 H 0.17527 0.33314 0.57561 0.0
H2650 H 0.1926 0.37249 0.56789 0.0
H2651 H 0.12101 0.33152 0.5516 0.0
H2652 H 0.10985 0.33008 0.52267 0.0
H2653 H 0.12793 0.3697 0.52009 0.0
H2654 H 0.1392 0.37106 0.54909 0.0
H2655 H 0.12823 0.36494 0.59017 0.0
H2656 H 0.11098 0.35662 0.61206 0.0
H2657 H 0.10777 0.32079 0.60742 0.0
H2658 H 0.12496 0.32927 0.58506 0.0
H2659 H 0.14061 0.33447 0.55725 0.0
H2660 H 0.16017 0.33478 0.55752 0.0
H2661 H 0.1766 0.36893 0.58875 0.0
N2662 N 0.13649 0.35263 0.57073 0.0
H2663 H 0.15712 0.36883 0.58747 0.0
C2664 C 0.22203 0.35529 0.55057 0.0
C2665 C 0.21663 0.34443 0.53987 0.0
C2666 C 0.22231 0.34367 0.52337 0.0
C2667 C 0.23336 0.35385 0.51702 0.0
C2668 C 0.2382 0.36495 0.52718 0.0
C2669 C 0.23265 0.3656 0.54386 0.0
C2670 C 0.22176 0.35108 0.5841 0.0
C2671 C 0.23007 0.35934 0.5973 0.0
C2672 C 0.23621 0.35564 0.60978 0.0
C2673 C 0.2342 0.34357 0.60916 0.0
C2674 C 0.22519 0.33507 0.59679 0.0
C2675 C 0.21901 0.33877 0.58442 0.0
C2676 C 0.20556 0.35444 0.57029 0.0
C2677 C 0.19487 0.34293 0.57253 0.0
C2678 C 0.18333 0.34209 0.57352 0.0
C2679 C 0.18227 0.35271 0.57209 0.0
C2680 C 0.19303 0.36415 0.56955 0.0
C2681 C 0.20451 0.36497 0.56874 0.0
C2682 C 0.13107 0.35145 0.5524 0.0
C2683 C 0.12286 0.33991 0.54458 0.0
C2684 C 0.11644 0.33909 0.52804 0.0
C2685 C 0.11798 0.34978 0.51919 0.0
C2686 C 0.12648 0.36131 0.52672 0.0
C2687 C 0.13299 0.36211 0.54314 0.0
C2688 C 0.12784 0.34776 0.58602 0.0
C2689 C 0.12397 0.35536 0.59426 0.0
C2690 C 0.11413 0.35057 0.60683 0.0
C2691 C 0.10792 0.338 0.61151 0.0
C2692 C 0.11223 0.33048 0.60394 0.0
C2693 C 0.12211 0.33532 0.59126 0.0
C2694 C 0.14749 0.35181 0.57204 0.0
C2695 C 0.1484 0.34204 0.56411 0.0
C2696 C 0.15961 0.34217 0.56444 0.0
C2697 C 0.17006 0.35198 0.57292 0.0
C2698 C 0.16887 0.3614 0.58163 0.0
C2699 C 0.15773 0.36132 0.58108 0.0
H2700 H 0.98436 0.40266 0.08149 0.0
H2701 H 0.01537 0.40127 0.10482 0.0
H2702 H 0.98648 0.41742 0.10603 0.0
H2703 H 0.0177 0.41626 0.12898 0.0
H2704 H 0.02571 0.45533 0.14935 0.0
H2705 H 0.02256 0.44027 0.12508 0.0
H2706 H 0.98575 0.41641 0.14543 0.0
H2707 H 0.98903 0.43101 0.17055 0.0
C2708 C 0.99158 0.40549 0.09193 0.0
C2709 C 0.99967 0.40083 0.09142 0.0
C2710 C 0.99278 0.41389 0.1059 0.0
C2711 C 0.00229 0.41797 0.11923 0.0
C2712 C 0.01035 0.41327 0.11875 0.0
C2713 C 0.00897 0.40467 0.10507 0.0
C2714 C 0.01697 0.44684 0.14889 0.0
C2715 C 0.00768 0.44441 0.16215 0.0
C2716 C 0.01517 0.43827 0.13489 0.0
C2717 C 0.00395 0.42722 0.13353 0.0
C2718 C 0.99447 0.42493 0.1462 0.0
C2719 C 0.99635 0.43337 0.16048 0.0
H2720 H 0.62267 0.58987 0.10051 0.0
H2721 H 0.58991 0.59167 0.08831 0.0
H2722 H 0.61207 0.57587 0.12663 0.0
H2723 H 0.57932 0.57765 0.11432 0.0
H2724 H 0.56051 0.54389 0.15198 0.0
H2725 H 0.5712 0.55634 0.12446 0.0
H2726 H 0.60416 0.57672 0.15776 0.0
H2727 H 0.59349 0.56435 0.18523 0.0
C2728 C 0.61323 0.58732 0.10344 0.0
C2729 C 0.60715 0.59191 0.09234 0.0
C2730 C 0.60715 0.57928 0.11838 0.0
C2731 C 0.59485 0.57564 0.12255 0.0
C2732 C 0.58873 0.58011 0.1113 0.0
C2733 C 0.59481 0.58816 0.09638 0.0
C2734 C 0.57004 0.55103 0.15342 0.0
C2735 C 0.57613 0.55312 0.17082 0.0
C2736 C 0.57616 0.55816 0.13766 0.0
C2737 C 0.58852 0.56755 0.13894 0.0
C2738 C 0.59469 0.56945 0.15622 0.0
C2739 C 0.58857 0.56234 0.17197 0.0
H2740 H 0.41551 0.01792 0.09052 0.0
H2741 H 0.38717 0.98 0.09792 0.0
H2742 H 0.42781 0.01548 0.11495 0.0
H2743 H 0.39928 0.97769 0.12274 0.0
H2744 H 0.42973 0.97423 0.15209 0.0
H2745 H 0.41833 0.97698 0.12651 0.0
H2746 H 0.42738 0.01246 0.14913 0.0
H2747 H 0.43871 0.00971 0.17471 0.0
C2748 C 0.41191 0.00907 0.09737 0.0
C2749 C 0.40035 0.99916 0.0923 0.0
C2750 C 0.41891 0.0077 0.11147 0.0
C2751 C 0.41454 0.99638 0.12076 0.0
C2752 C 0.40298 0.98648 0.1157 0.0
C2753 C 0.39596 0.98786 0.10165 0.0
C2754 C 0.42927 0.98261 0.15161 0.0
C2755 C 0.43514 0.99175 0.16544 0.0
C2756 C 0.42273 0.98418 0.13697 0.0
C2757 C 0.42191 0.99492 0.13584 0.0
C2758 C 0.42797 0.00415 0.14946 0.0
C2759 C 0.43449 0.00258 0.1641 0.0
H2760 H 0.40365 0.9839 0.9431 0.0
H2761 H 0.39218 0.00347 0.90582 0.0
H2762 H 0.41567 0.98202 0.91761 0.0
H2763 H 0.40401 0.00137 0.88022 0.0
H2764 H 0.43659 0.00643 0.84477 0.0
H2765 H 0.42582 0.009 0.8715 0.0
H2766 H 0.41177 0.97104 0.88706 0.0
H2767 H 0.42274 0.96854 0.86056 0.0
C2768 C 0.40373 0.98783 0.92947 0.0
C2769 C 0.39698 0.99385 0.92646 0.0
C2770 C 0.41053 0.98667 0.91485 0.0
C2771 C 0.4108 0.99157 0.89693 0.0
C2772 C 0.40408 0.99762 0.89393 0.0
C2773 C 0.39721 0.9987 0.90852 0.0
C2774 C 0.43136 0.99869 0.85408 0.0
C2775 C 0.4305 0.98728 0.85057 0.0
C2776 C 0.42508 1.00013 0.86925 0.0
C2777 C 0.41789 0.9902 0.88131 0.0
C2778 C 0.41729 0.97888 0.87809 0.0
C2779 C 0.4235 0.97742 0.86284 0.0
H2780 H 1.00031 0.41318 0.94626 0.0
H2781 H 0.00649 0.39214 0.90392 0.0
H2782 H 0.99766 0.42517 0.92161 0.0
H2783 H 0.00349 0.40393 0.8792 0.0
H2784 H 0.00844 0.43504 0.8402 0.0
H2785 H 0.01309 0.42486 0.8656 0.0
H2786 H 0.9822 0.42143 0.89739 0.0
H2787 H 0.97775 0.43188 0.87224 0.0
C2788 C 0.00121 0.41119 0.93169 0.0
C2789 C 0.00363 0.40172 0.92704 0.0
C2790 C 0.99957 0.41797 0.91756 0.0
C2791 C 1.00033 0.41548 0.89846 0.0
C2792 C 0.00296 0.40615 0.89379 0.0
C2793 C 0.00455 0.39931 0.90794 0.0
C2794 C 0.00277 0.43229 0.85275 0.0
C2795 C 0.99273 0.43425 0.85422 0.0
C2796 C 0.00535 0.42633 0.86719 0.0
C2797 C 0.99798 0.42229 0.88346 0.0
C2798 C 0.98811 0.42452 0.8851 0.0
C2799 C 0.9855 0.43041 0.87064 0.0
H2800 H 0.5866 0.6148 0.92789 0.0
H2801 H 0.60526 0.59393 0.92196 0.0
H2802 H 0.5724 0.60266 0.90294 0.0
H2803 H 0.59169 0.58247 0.89611 0.0
H2804 H 0.55872 0.55562 0.86243 0.0
H2805 H 0.57146 0.56709 0.88924 0.0
H2806 H 0.57104 0.59956 0.87007 0.0
H2807 H 0.55788 0.58787 0.84374 0.0
C2808 C 0.58771 0.60765 0.92127 0.0
C2809 C 0.59711 0.60537 0.92702 0.0
C2810 C 0.57965 0.60078 0.90674 0.0
C2811 C 0.58086 0.59155 0.89745 0.0
C2812 C 0.59032 0.58935 0.90311 0.0
C2813 C 0.59828 0.59611 0.91776 0.0
C2814 C 0.56131 0.56519 0.86408 0.0
C2815 C 0.55733 0.57087 0.85105 0.0
C2816 C 0.56868 0.5718 0.87936 0.0
C2817 C 0.5724 0.58431 0.88179 0.0
C2818 C 0.56822 0.58991 0.86886 0.0
C2819 C 0.56071 0.58324 0.85372 0.0
H2820 H 0.01485 0.61862 0.90548 0.0
H2821 H 0.99814 0.58729 0.94287 0.0
H2822 H 0.01556 0.60562 0.88054 0.0
H2823 H 0.99925 0.57439 0.91815 0.0
H2824 H 0.98937 0.55295 0.862 0.0
H2825 H 0.98945 0.56569 0.888 0.0
H2826 H 0.02587 0.59423 0.87195 0.0
H2827 H 0.02561 0.58167 0.84556 0.0
C2828 C 0.01136 0.60896 0.90839 0.0
C2829 C 0.00642 0.60399 0.92616 0.0
C2830 C 0.01189 0.60154 0.89417 0.0
C2831 C 0.00748 0.58897 0.89736 0.0
C2832 C 0.00263 0.58402 0.91518 0.0
C2833 C 0.00212 0.59144 0.92941 0.0
C2834 C 0.99739 0.56195 0.86402 0.0
C2835 C 0.00747 0.5663 0.85167 0.0
C2836 C 0.99749 0.56921 0.87903 0.0
C2837 C 0.00765 0.581 0.88201 0.0
C2838 C 0.01784 0.58525 0.8699 0.0
C2839 C 0.01775 0.57798 0.85492 0.0
H2840 H 0.39516 0.41746 0.93332 0.0
H2841 H 0.409 0.3923 0.92803 0.0
H2842 H 0.40944 0.43048 0.90872 0.0
H2843 H 0.42301 0.40511 0.90332 0.0
H2844 H 0.45527 0.43673 0.87419 0.0
H2845 H 0.44158 0.42567 0.90034 0.0
H2846 H 0.41262 0.4294 0.87401 0.0
H2847 H 0.42629 0.44037 0.84768 0.0
C2848 C 0.40125 0.41473 0.92692 0.0
C2849 C 0.40094 0.40384 0.93255 0.0
C2850 C 0.40935 0.42212 0.91277 0.0
C2851 C 0.41738 0.41884 0.90417 0.0
C2852 C 0.41705 0.40796 0.90985 0.0
C2853 C 0.40892 0.40055 0.92384 0.0
C2854 C 0.44599 0.43521 0.87397 0.0
C2855 C 0.44183 0.43932 0.85875 0.0
C2856 C 0.43815 0.42888 0.88895 0.0
C2857 C 0.42599 0.42655 0.88911 0.0
C2858 C 0.42198 0.43113 0.87433 0.0
C2859 C 0.42982 0.43743 0.85927 0.0
H2860 H 0.58767 0.99929 0.94019 0.0
H2861 H 0.59611 0.97407 0.91156 0.0
H2862 H 0.57332 0.99683 0.91501 0.0
H2863 H 0.58184 0.97169 0.88629 0.0
H2864 H 0.54607 0.96166 0.85441 0.0
H2865 H 0.55902 0.9632 0.88114 0.0
H2866 H 0.57547 0.00269 0.88063 0.0
H2867 H 0.56287 0.00126 0.85363 0.0
C2868 C 0.58638 0.99315 0.92859 0.0
C2869 C 0.59302 0.98688 0.92781 0.0
C2870 C 0.57824 0.99181 0.91413 0.0
C2871 C 0.57647 0.98408 0.8987 0.0
C2872 C 0.58294 0.97763 0.89809 0.0
C2873 C 0.59118 0.97908 0.91245 0.0
C2874 C 0.55249 0.97068 0.85991 0.0
C2875 C 0.55341 0.98133 0.85179 0.0
C2876 C 0.55987 0.97155 0.87525 0.0
C2877 C 0.56824 0.98306 0.88295 0.0
C2878 C 0.56898 0.99368 0.87515 0.0
C2879 C 0.5617 0.99284 0.8597 0.0
H2880 H 0.59598 0.98846 0.09881 0.0
H2881 H 0.61457 0.02788 0.09141 0.0
H2882 H 0.58441 0.99007 0.12505 0.0
H2883 H 0.60279 0.02944 0.11765 0.0
H2884 H 0.56897 0.02389 0.15323 0.0
H2885 H 0.58117 0.02343 0.12664 0.0
H2886 H 0.58884 0.99836 0.15739 0.0
H2887 H 0.57684 0.9989 0.18388 0.0
C2888 C 0.59769 0.99749 0.10288 0.0
C2889 C 0.60631 0.00805 0.0931 0.0
C2890 C 0.59103 0.9984 0.1179 0.0
C2891 C 0.59275 0.00989 0.1235 0.0
C2892 C 0.6012 0.02045 0.11356 0.0
C2893 C 0.60793 0.01955 0.09853 0.0
C2894 C 0.57337 0.01838 0.15436 0.0
C2895 C 0.57179 0.0113 0.17057 0.0
C2896 C 0.58035 0.01812 0.13915 0.0
C2897 C 0.58584 0.01075 0.13986 0.0
C2898 C 0.5845 0.00392 0.15625 0.0
C2899 C 0.57759 0.00421 0.17142 0.0
H2900 H 0.01189 0.61018 0.09766 0.0
H2901 H 0.97235 0.58865 0.0923 0.0
H2902 H 0.0111 0.59748 0.1241 0.0
H2903 H 0.97162 0.57578 0.11867 0.0
H2904 H 0.97866 0.54836 0.15387 0.0
H2905 H 0.97842 0.56058 0.12717 0.0
H2906 H 0.00328 0.59389 0.15697 0.0
H2907 H 0.00339 0.58179 0.18364 0.0
C2908 C 0.00301 0.60281 0.10222 0.0
C2909 C 0.99217 0.60053 0.09294 0.0
C2910 C 0.00257 0.59551 0.11734 0.0
C2911 C 0.99129 0.58568 0.12352 0.0
C2912 C 0.98046 0.58323 0.11411 0.0
C2913 C 0.98089 0.5906 0.099 0.0
C2914 C 0.98397 0.55829 0.15478 0.0
C2915 C 0.99116 0.56409 0.1708 0.0
C2916 C 0.98383 0.56528 0.1395 0.0
C2917 C 0.99093 0.57818 0.13993 0.0
C2918 C 0.99792 0.58395 0.15607 0.0
C2919 C 0.998 0.577 0.17134 0.0
H2920 H 0.40959 0.41287 0.08843 0.0
H2921 H 0.40451 0.37875 0.11106 0.0
H2922 H 0.42352 0.42412 0.11432 0.0
H2923 H 0.4187 0.38995 0.13662 0.0
H2924 H 0.43369 0.41153 0.19071 0.0
H2925 H 0.41998 0.40073 0.16454 0.0
H2926 H 0.44333 0.43064 0.12724 0.0
H2927 H 0.45687 0.44161 0.15375 0.0
C2928 C 0.41157 0.4078 0.09885 0.0
C2929 C 0.40593 0.39494 0.09779 0.0
C2930 C 0.41959 0.41424 0.11366 0.0
C2931 C 0.42224 0.40796 0.12765 0.0
C2932 C 0.4167 0.39509 0.12636 0.0
C2933 C 0.40859 0.38865 0.11168 0.0
C2934 C 0.43593 0.41576 0.17689 0.0
C2935 C 0.44639 0.42737 0.17423 0.0
C2936 C 0.42809 0.40955 0.16184 0.0
C2937 C 0.43057 0.41474 0.14368 0.0
C2938 C 0.44104 0.42642 0.14105 0.0
C2939 C 0.44882 0.43269 0.1562 0.0
H2940 H 0.65309 0.71651 0.44861 0.0
H2941 H 0.66705 0.7483 0.41223 0.0
H2942 H 0.65139 0.72841 0.47428 0.0
H2943 H 0.6646 0.75996 0.43753 0.0
H2944 H 0.67133 0.78109 0.49285 0.0
H2945 H 0.6732 0.76945 0.4669 0.0
H2946 H 0.63958 0.73725 0.48461 0.0
H2947 H 0.63815 0.74864 0.5112 0.0
C2948 C 0.65579 0.72603 0.44605 0.0
C2949 C 0.66021 0.73142 0.4283 0.0
C2950 C 0.65464 0.73282 0.46073 0.0
C2951 C 0.6578 0.74515 0.458 0.0
C2952 C 0.6622 0.75053 0.44023 0.0
C2953 C 0.66344 0.74377 0.42561 0.0
C2954 C 0.66438 0.77151 0.4913 0.0
C2955 C 0.65461 0.76583 0.50421 0.0
C2956 C 0.66537 0.76485 0.47626 0.0
C2957 C 0.65656 0.75237 0.47366 0.0
C2958 C 0.64665 0.74678 0.48632 0.0
C2959 C 0.64571 0.7534 0.50143 0.0
H2960 H 0.25875 0.91065 0.40796 0.0
H2961 H 0.28095 0.93958 0.44744 0.0
H2962 H 0.24745 0.89709 0.43415 0.0
H2963 H 0.2701 0.92586 0.47355 0.0
H2964 H 0.23952 0.90384 0.51486 0.0
H2965 H 0.25019 0.91671 0.48794 0.0
H2966 H 0.24946 0.88572 0.46024 0.0
H2967 H 0.23818 0.87261 0.48692 0.0
C2968 C 0.26125 0.91411 0.42222 0.0
C2969 C 0.27073 0.92623 0.42558 0.0
C2970 C 0.25486 0.90628 0.43723 0.0
C2971 C 0.25782 0.9104 0.45596 0.0
C2972 C 0.26745 0.92245 0.4593 0.0
C2973 C 0.2738 0.93027 0.44431 0.0
C2974 C 0.24141 0.89968 0.50291 0.0
C2975 C 0.23792 0.88715 0.50304 0.0
C2976 C 0.24772 0.90713 0.48757 0.0
C2977 C 0.25079 0.90229 0.47199 0.0
C2978 C 0.24718 0.88973 0.47197 0.0
C2979 C 0.24081 0.88224 0.48734 0.0
H2980 H 0.05756 0.34146 0.44949 0.0
H2981 H 0.08456 0.34409 0.40922 0.0
H2982 H 0.07138 0.34351 0.47533 0.0
H2983 H 0.09839 0.34623 0.43503 0.0
H2984 H 0.11269 0.33527 0.48785 0.0
H2985 H 0.09901 0.33317 0.46174 0.0
H2986 H 0.09192 0.36006 0.48785 0.0
H2987 H 0.10548 0.36208 0.51397 0.0
C2988 C 0.06643 0.34244 0.44619 0.0
C2989 C 0.07001 0.34266 0.42737 0.0
C2990 C 0.07436 0.34371 0.46095 0.0
C2991 C 0.08596 0.34505 0.45717 0.0
C2992 C 0.08948 0.34513 0.43835 0.0
C2993 C 0.08161 0.34402 0.4236 0.0
C2994 C 0.1082 0.34073 0.48796 0.0
C2995 C 0.11017 0.34887 0.50289 0.0
C2996 C 0.10045 0.33958 0.473 0.0
C2997 C 0.09439 0.34643 0.47281 0.0
C2998 C 0.09639 0.35459 0.48771 0.0
C2999 C 0.10425 0.35584 0.50255 0.0
H3000 H 0.06652 0.33822 0.24706 0.0
H3001 H 0.05642 0.30202 0.26765 0.0
H3002 H 0.07799 0.33577 0.22134 0.0
H3003 H 0.06813 0.29965 0.24202 0.0
H3004 H 0.0787 0.29629 0.17974 0.0
H3005 H 0.06737 0.29769 0.20672 0.0
H3006 H 0.09701 0.33451 0.21789 0.0
H3007 H 0.1084 0.33308 0.19117 0.0
C3008 C 0.06669 0.32971 0.24601 0.0
C3009 C 0.06055 0.3203 0.25935 0.0
C3010 C 0.07337 0.32836 0.23142 0.0
C3011 C 0.07402 0.31755 0.22975 0.0
C3012 C 0.06775 0.30806 0.24292 0.0
C3013 C 0.06113 0.30945 0.25764 0.0
C3014 C 0.0829 0.3046 0.18815 0.0
C3015 C 0.09441 0.31462 0.18318 0.0
C3016 C 0.07639 0.30541 0.20358 0.0
C3017 C 0.08124 0.31627 0.21426 0.0
C3018 C 0.09292 0.32612 0.20967 0.0
C3019 C 0.09944 0.32529 0.19436 0.0
H3020 H 0.69818 0.74937 0.26209 0.0
H3021 H 0.65874 0.73181 0.25595 0.0
H3022 H 0.70082 0.76317 0.23605 0.0
H3023 H 0.66137 0.74563 0.23 0.0
H3024 H 0.67117 0.76262 0.17113 0.0
H3025 H 0.66859 0.74933 0.19774 0.0
H3026 H 0.69766 0.78021 0.22753 0.0
H3027 H 0.70028 0.79356 0.20075 0.0
C3028 C 0.69007 0.74853 0.25528 0.0
C3029 C 0.67825 0.73946 0.26104 0.0
C3030 C 0.69159 0.75645 0.24038 0.0
C3031 C 0.68131 0.7555 0.23093 0.0
C3032 C 0.66949 0.74648 0.23678 0.0
C3033 C 0.66798 0.73855 0.25164 0.0
C3034 C 0.67691 0.76662 0.18345 0.0
C3035 C 0.68587 0.77917 0.18388 0.0
C3036 C 0.67543 0.759 0.19871 0.0
C3037 C 0.68288 0.76371 0.2148 0.0
C3038 C 0.69187 0.77626 0.21525 0.0
C3039 C 0.69336 0.78391 0.19994 0.0
H3040 H 0.25138 0.95017 0.2577 0.0
H3041 H 0.26554 0.92512 0.25868 0.0
H3042 H 0.23742 0.93831 0.23229 0.0
H3043 H 0.25208 0.91367 0.2326 0.0
H3044 H 0.21825 0.88882 0.19756 0.0
H3045 H 0.23096 0.90005 0.22461 0.0
H3046 H 0.2379 0.93428 0.19948 0.0
H3047 H 0.22506 0.92305 0.17271 0.0
C3048 C 0.25152 0.94213 0.25252 0.0
C3049 C 0.25962 0.93863 0.26024 0.0
C3050 C 0.2436 0.9354 0.23778 0.0
C3051 C 0.24363 0.92504 0.23033 0.0
C3052 C 0.25169 0.92151 0.23811 0.0
C3053 C 0.25956 0.9282 0.25291 0.0
C3054 C 0.22249 0.89875 0.19787 0.0
C3055 C 0.22061 0.90504 0.18305 0.0
C3056 C 0.22981 0.90519 0.21333 0.0
C3057 C 0.23548 0.91809 0.21424 0.0
C3058 C 0.23351 0.92435 0.19944 0.0
C3059 C 0.22615 0.91791 0.18407 0.0
H3060 H 0.6634 0.93484 0.2431 0.0
H3061 H 0.69153 0.93348 0.27638 0.0
H3062 H 0.66676 0.92377 0.21786 0.0
H3063 H 0.69436 0.92174 0.25155 0.0
H3064 H 0.70609 0.91398 0.19413 0.0
H3065 H 0.70265 0.92424 0.22057 0.0
H3066 H 0.66358 0.90406 0.20948 0.0
H3067 H 0.66709 0.89437 0.18237 0.0
C3068 C 0.67031 0.93218 0.24506 0.0
C3069 C 0.67724 0.93513 0.26177 0.0
C3070 C 0.6721 0.92564 0.23068 0.0
C3071 C 0.68079 0.92179 0.23267 0.0
C3072 C 0.68767 0.92466 0.24944 0.0
C3073 C 0.68593 0.93127 0.26379 0.0
C3074 C 0.69676 0.91177 0.19727 0.0
C3075 C 0.68688 0.90341 0.18599 0.0
C3076 C 0.69477 0.91755 0.2126 0.0
C3077 C 0.68284 0.91505 0.21712 0.0
C3078 C 0.67292 0.90637 0.20623 0.0
C3079 C 0.67492 0.90066 0.19083 0.0
H3080 H 0.04547 0.73588 0.24358 0.0
H3081 H 0.0768 0.75657 0.27999 0.0
H3082 H 0.05668 0.74951 0.21746 0.0
H3083 H 0.0878 0.77053 0.25409 0.0
H3084 H 0.10856 0.78248 0.19749 0.0
H3085 H 0.09737 0.77015 0.22475 0.0
H3086 H 0.0647 0.77025 0.20599 0.0
H3087 H 0.07574 0.78213 0.1783 0.0
C3088 C 0.05473 0.74337 0.24604 0.0
C3089 C 0.06024 0.74509 0.26387 0.0
C3090 C 0.0611 0.75128 0.23112 0.0
C3091 C 0.07315 0.76113 0.23367 0.0
C3092 C 0.07859 0.76297 0.25158 0.0
C3093 C 0.07222 0.75505 0.2665 0.0
C3094 C 0.09898 0.77985 0.19916 0.0
C3095 C 0.09303 0.78324 0.18564 0.0
C3096 C 0.0926 0.7729 0.21491 0.0
C3097 C 0.08012 0.76917 0.21753 0.0
C3098 C 0.07426 0.77283 0.20427 0.0
C3099 C 0.08064 0.77978 0.18851 0.0
H3100 H 0.27269 0.32469 0.23812 0.0
H3101 H 0.25458 0.33558 0.27924 0.0
H3102 H 0.25984 0.32583 0.21333 0.0
H3103 H 0.24143 0.33628 0.25456 0.0
H3104 H 0.23184 0.35127 0.20171 0.0
H3105 H 0.24352 0.34907 0.22738 0.0
H3106 H 0.23867 0.31564 0.20209 0.0
H3107 H 0.22739 0.31808 0.17608 0.0
C3108 C 0.26593 0.32728 0.24188 0.0
C3109 C 0.26468 0.33007 0.26065 0.0
C3110 C 0.25847 0.32779 0.22771 0.0
C3111 C 0.24961 0.33114 0.23197 0.0
C3112 C 0.24825 0.33378 0.25078 0.0
C3113 C 0.25569 0.33324 0.26495 0.0
C3114 C 0.23328 0.34347 0.20162 0.0
C3115 C 0.22871 0.33487 0.18682 0.0
C3116 C 0.23987 0.34213 0.21643 0.0
C3117 C 0.24205 0.3322 0.21676 0.0
C3118 C 0.23727 0.32348 0.20215 0.0
C3119 C 0.23067 0.32479 0.18736 0.0
H3120 H 0.28276 0.36519 0.42296 0.0
H3121 H 0.26255 0.32592 0.43163 0.0
H3122 H 0.27115 0.36784 0.44853 0.0
H3123 H 0.25078 0.32855 0.45697 0.0
H3124 H 0.22387 0.33991 0.48479 0.0
H3125 H 0.23519 0.33734 0.45888 0.0
H3126 H 0.26948 0.36301 0.48541 0.0
H3127 H 0.25835 0.36512 0.51184 0.0
C3128 C 0.2758 0.35715 0.43031 0.0
C3129 C 0.27355 0.34537 0.42543 0.0
C3130 C 0.2692 0.35866 0.44492 0.0
C3131 C 0.26007 0.34839 0.45461 0.0
C3132 C 0.25772 0.3366 0.44959 0.0
C3133 C 0.2645 0.3351 0.43525 0.0
C3134 C 0.23382 0.34492 0.48529 0.0
C3135 C 0.24014 0.35275 0.50053 0.0
C3136 C 0.24028 0.34347 0.47038 0.0
C3137 C 0.25318 0.35001 0.4702 0.0
C3138 C 0.25952 0.35799 0.48515 0.0
C3139 C 0.25309 0.35925 0.50023 0.0
H3140 H 0.65193 0.91072 0.41041 0.0
H3141 H 0.65446 0.93832 0.44937 0.0
H3142 H 0.649 0.89701 0.43683 0.0
H3143 H 0.65165 0.92465 0.47579 0.0
H3144 H 0.63439 0.89215 0.51679 0.0
H3145 H 0.63534 0.90437 0.48932 0.0
H3146 H 0.66222 0.89707 0.46369 0.0
H3147 H 0.6612 0.88478 0.49108 0.0
C3148 C 0.65176 0.91381 0.42462 0.0
C3149 C 0.65343 0.92559 0.42786 0.0
C3150 C 0.65018 0.906 0.43972 0.0
C3151 C 0.6501 0.90977 0.45834 0.0
C3152 C 0.65156 0.92147 0.46156 0.0
C3153 C 0.65328 0.92933 0.44648 0.0
C3154 C 0.64036 0.89301 0.50515 0.0
C3155 C 0.64774 0.88754 0.50606 0.0
C3156 C 0.64098 0.90009 0.48953 0.0
C3157 C 0.64889 0.9017 0.47443 0.0
C3158 C 0.65598 0.89591 0.47508 0.0
C3159 C 0.65547 0.88896 0.49079 0.0
H3160 H 0.07283 0.71715 0.4403 0.0
H3161 H 0.07816 0.75167 0.41893 0.0
H3162 H 0.08753 0.72807 0.46558 0.0
H3163 H 0.09296 0.76261 0.44417 0.0
H3164 H 0.10544 0.77368 0.50684 0.0
H3165 H 0.09214 0.764 0.4797 0.0
H3166 H 0.11027 0.74309 0.46918 0.0
H3167 H 0.12384 0.75301 0.496 0.0
C3168 C 0.07713 0.72707 0.44104 0.0
C3169 C 0.07434 0.73356 0.42769 0.0
C3170 C 0.08563 0.73332 0.45539 0.0
C3171 C 0.09141 0.74619 0.4568 0.0
C3172 C 0.0886 0.75269 0.44346 0.0
C3173 C 0.0802 0.74644 0.42897 0.0
C3174 C 0.1068 0.76724 0.49852 0.0
C3175 C 0.11571 0.76411 0.5037 0.0
C3176 C 0.09913 0.76165 0.48301 0.0
C3177 C 0.10012 0.75274 0.47242 0.0
C3178 C 0.10918 0.7498 0.47728 0.0
C3179 C 0.11694 0.75547 0.49267 0.0
H3180 H 0.32143 0.05037 0.78152 0.0
H3181 H 0.3293 0.08059 0.74411 0.0
H3182 H 0.31963 0.06182 0.80782 0.0
H3183 H 0.32685 0.09177 0.77022 0.0
H3184 H 0.33463 0.11355 0.82531 0.0
H3185 H 0.33678 0.10239 0.79881 0.0
H3186 H 0.30619 0.0686 0.81977 0.0
H3187 H 0.30447 0.0796 0.84671 0.0
C3188 C 0.32278 0.05946 0.77889 0.0
C3189 C 0.32551 0.06454 0.76068 0.0
C3190 C 0.32158 0.06597 0.79394 0.0
C3191 C 0.32304 0.07771 0.79114 0.0
C3192 C 0.32578 0.0828 0.77293 0.0
C3193 C 0.32703 0.07631 0.7579 0.0
C3194 C 0.32842 0.10372 0.82432 0.0
C3195 C 0.31938 0.09749 0.83817 0.0
C3196 C 0.32956 0.09734 0.80901 0.0
C3197 C 0.32168 0.08458 0.80716 0.0
C3198 C 0.31253 0.07839 0.82087 0.0
C3199 C 0.31143 0.08475 0.83619 0.0
H3200 H 0.95498 0.26071 0.77539 0.0
H3201 H 0.92045 0.25105 0.74837 0.0
H3202 H 0.94388 0.24779 0.80216 0.0
H3203 H 0.90939 0.23753 0.77452 0.0
H3204 H 0.89369 0.22674 0.83391 0.0
H3205 H 0.90454 0.23874 0.80635 0.0
H3206 H 0.93144 0.22711 0.81243 0.0
H3207 H 0.921 0.21572 0.84076 0.0
C3208 C 0.94503 0.2558 0.7751 0.0
C3209 C 0.93864 0.25699 0.75971 0.0
C3210 C 0.93865 0.24823 0.79035 0.0
C3211 C 0.92571 0.24159 0.79054 0.0
C3212 C 0.91934 0.24262 0.775 0.0
C3213 C 0.92571 0.25026 0.75983 0.0
C3214 C 0.90197 0.22681 0.82948 0.0
C3215 C 0.90651 0.22033 0.83969 0.0
C3216 C 0.90811 0.23357 0.81347 0.0
C3217 C 0.9189 0.23394 0.80713 0.0
C3218 C 0.92327 0.22719 0.81705 0.0
C3219 C 0.91717 0.2205 0.83316 0.0
H3220 H 0.74702 0.66816 0.747 0.0
H3221 H 0.73309 0.68899 0.77555 0.0
H3222 H 0.76024 0.67086 0.77392 0.0
H3223 H 0.74669 0.69228 0.80212 0.0
H3224 H 0.76298 0.686 0.85471 0.0
H3225 H 0.7496 0.68255 0.82782 0.0
H3226 H 0.77788 0.68484 0.79042 0.0
H3227 H 0.79097 0.68766 0.81763 0.0
C3228 C 0.74692 0.67344 0.759 0.0
C3229 C 0.73902 0.67833 0.75928 0.0
C3230 C 0.75453 0.67506 0.77441 0.0
C3231 C 0.75457 0.68179 0.79031 0.0
C3232 C 0.74674 0.68681 0.79037 0.0
C3233 C 0.73898 0.685 0.77511 0.0
C3234 C 0.7663 0.68576 0.8407 0.0
C3235 C 0.778 0.68714 0.83818 0.0
C3236 C 0.75867 0.68387 0.82524 0.0
C3237 C 0.76265 0.68351 0.80682 0.0
C3238 C 0.7744 0.68487 0.80436 0.0
C3239 C 0.78195 0.68655 0.81991 0.0
H3240 H 0.71987 0.65904 0.57124 0.0
H3241 H 0.73296 0.64191 0.61059 0.0
H3242 H 0.73017 0.6549 0.54562 0.0
H3243 H 0.74335 0.63782 0.58486 0.0
H3244 H 0.77181 0.64667 0.53682 0.0
H3245 H 0.76078 0.64919 0.56323 0.0
H3246 H 0.72897 0.63778 0.52765 0.0
H3247 H 0.7401 0.6357 0.50115 0.0
C3248 C 0.72482 0.65425 0.5744 0.0
C3249 C 0.72556 0.65078 0.59297 0.0
C3250 C 0.73073 0.65188 0.55969 0.0
C3251 C 0.73755 0.64599 0.56319 0.0
C3252 C 0.73828 0.64249 0.58175 0.0
C3253 C 0.73234 0.64484 0.59648 0.0
C3254 C 0.76246 0.64469 0.53466 0.0
C3255 C 0.75685 0.64101 0.51686 0.0
C3256 C 0.7561 0.64603 0.54983 0.0
C3257 C 0.74402 0.64375 0.5475 0.0
C3258 C 0.73832 0.63976 0.52984 0.0
C3259 C 0.74465 0.63841 0.51471 0.0
H3260 H 0.35763 0.09068 0.60943 0.0
H3261 H 0.33639 0.05951 0.57302 0.0
H3262 H 0.36024 0.10459 0.58354 0.0
H3263 H 0.33933 0.07341 0.547 0.0
H3264 H 0.33449 0.10113 0.51207 0.0
H3265 H 0.3323 0.08776 0.5384 0.0
H3266 H 0.37053 0.11152 0.55275 0.0
H3267 H 0.37264 0.12515 0.52666 0.0
C3268 C 0.35354 0.08681 0.59589 0.0
C3269 C 0.34676 0.07399 0.5933 0.0
C3270 C 0.35514 0.09477 0.58102 0.0
C3271 C 0.34995 0.0901 0.56325 0.0
C3272 C 0.34331 0.07729 0.56059 0.0
C3273 C 0.34175 0.06933 0.57544 0.0
C3274 C 0.34239 0.10362 0.521 0.0
C3275 C 0.35373 0.11424 0.51731 0.0
C3276 C 0.34117 0.09585 0.53594 0.0
C3277 C 0.35126 0.09853 0.54759 0.0
C3278 C 0.36257 0.10924 0.54409 0.0
C3279 C 0.3638 0.117 0.52907 0.0
H3280 H 0.93593 0.27691 0.57285 0.0
H3281 H 0.92238 0.24558 0.6101 0.0
H3282 H 0.9238 0.26339 0.54713 0.0
H3283 H 0.90985 0.23215 0.58464 0.0
H3284 H 0.90045 0.21046 0.52921 0.0
H3285 H 0.91225 0.22385 0.55526 0.0
H3286 H 0.90271 0.2508 0.53684 0.0
H3287 H 0.89137 0.23766 0.51034 0.0
C3288 C 0.93035 0.26715 0.57556 0.0
C3289 C 0.93014 0.26234 0.59355 0.0
C3290 C 0.92328 0.25941 0.56088 0.0
C3291 C 0.91582 0.24668 0.56382 0.0
C3292 C 0.91558 0.24189 0.58183 0.0
C3293 C 0.92265 0.24962 0.5965 0.0
C3294 C 0.90092 0.21926 0.53068 0.0
C3295 C 0.89497 0.22298 0.51767 0.0
C3296 C 0.90758 0.22689 0.54572 0.0
C3297 C 0.90845 0.23842 0.54813 0.0
C3298 C 0.90235 0.24205 0.53528 0.0
C3299 C 0.8957 0.23443 0.52023 0.0
H3300 H 0.33093 0.25339 0.60047 0.0
H3301 H 0.35847 0.28851 0.57833 0.0
H3302 H 0.33456 0.24299 0.57431 0.0
H3303 H 0.36242 0.27818 0.55251 0.0
H3304 H 0.35656 0.25732 0.49773 0.0
H3305 H 0.35319 0.26738 0.52446 0.0
H3306 H 0.34874 0.23781 0.56084 0.0
H3307 H 0.35178 0.22756 0.53377 0.0
C3308 C 0.33787 0.25886 0.59011 0.0
C3309 C 0.34436 0.27175 0.59135 0.0
C3310 C 0.34 0.25291 0.57515 0.0
C3311 C 0.34876 0.25973 0.5612 0.0
C3312 C 0.35542 0.27263 0.56273 0.0
C3313 C 0.35319 0.27857 0.57755 0.0
C3314 C 0.35496 0.25302 0.51148 0.0
C3315 C 0.35451 0.24169 0.51371 0.0
C3316 C 0.35306 0.25881 0.52684 0.0
C3317 C 0.35077 0.25347 0.54489 0.0
C3318 C 0.35032 0.24211 0.54711 0.0
C3319 C 0.35211 0.23625 0.53165 0.0
H3320 H 0.7348 0.06248 0.58215 0.0
H3321 H 0.72439 0.08846 0.60223 0.0
H3322 H 0.74601 0.07622 0.55612 0.0
H3323 H 0.73584 0.10236 0.57628 0.0
H3324 H 0.74537 0.11519 0.51321 0.0
H3325 H 0.73463 0.10301 0.54097 0.0
H3326 H 0.76478 0.09659 0.55186 0.0
H3327 H 0.77557 0.10885 0.52432 0.0
C3328 C 0.73487 0.07111 0.58094 0.0
C3329 C 0.72869 0.07438 0.59419 0.0
C3330 C 0.7414 0.07904 0.56617 0.0
C3331 C 0.74186 0.0904 0.56424 0.0
C3332 C 0.7356 0.09364 0.57738 0.0
C3333 C 0.72913 0.08574 0.59228 0.0
C3334 C 0.74981 0.11138 0.52174 0.0
C3335 C 0.76126 0.11287 0.51644 0.0
C3336 C 0.74364 0.10438 0.53761 0.0
C3337 C 0.7488 0.09872 0.54842 0.0
C3338 C 0.76047 0.10063 0.54356 0.0
C3339 C 0.76664 0.10765 0.52779 0.0
H3340 H 0.92726 0.6417 0.58454 0.0
H3341 H 0.92447 0.67316 0.60191 0.0
H3342 H 0.91329 0.6382 0.55842 0.0
H3343 H 0.91064 0.66981 0.57554 0.0
H3344 H 0.87717 0.65307 0.53589 0.0
H3345 H 0.89034 0.65621 0.56318 0.0
H3346 H 0.91325 0.64729 0.52889 0.0
H3347 H 0.90002 0.64397 0.5019 0.0
C3348 C 0.92372 0.64792 0.58267 0.0
C3349 C 0.927 0.65774 0.59522 0.0
C3350 C 0.91573 0.64594 0.56768 0.0
C3351 C 0.9109 0.65377 0.56477 0.0
C3352 C 0.91406 0.66351 0.57748 0.0
C3353 C 0.922 0.66545 0.59258 0.0
C3354 C 0.88504 0.65182 0.53424 0.0
C3355 C 0.88749 0.64816 0.51682 0.0
C3356 C 0.89261 0.65364 0.54984 0.0
C3357 C 0.90282 0.65192 0.54828 0.0
C3358 C 0.90532 0.64842 0.53074 0.0
C3359 C 0.89774 0.64653 0.51524 0.0
H3360 H 0.95768 0.70083 0.76973 0.0
H3361 H 0.923 0.67227 0.74779 0.0
H3362 H 0.94696 0.70432 0.79554 0.0
H3363 H 0.91225 0.67546 0.77384 0.0
H3364 H 0.89528 0.69074 0.81434 0.0
H3365 H 0.90628 0.68903 0.78718 0.0
H3366 H 0.93631 0.69485 0.82367 0.0
H3367 H 0.92545 0.69688 0.85057 0.0
C3368 C 0.94776 0.69526 0.77052 0.0
C3369 C 0.94117 0.68628 0.75678 0.0
C3370 C 0.9416 0.69722 0.78533 0.0
C3371 C 0.92872 0.69014 0.78687 0.0
C3372 C 0.92214 0.68123 0.77297 0.0
C3373 C 0.92829 0.67936 0.75806 0.0
C3374 C 0.90426 0.69169 0.81648 0.0
C3375 C 0.90953 0.69399 0.83454 0.0
C3376 C 0.91055 0.69066 0.80095 0.0
C3377 C 0.92221 0.69178 0.80319 0.0
C3378 C 0.92748 0.69417 0.82129 0.0
C3379 C 0.92124 0.69531 0.83675 0.0
H3380 H 0.33811 0.26829 0.7647 0.0
H3381 H 0.29991 0.24552 0.74936 0.0
H3382 H 0.3355 0.25395 0.78986 0.0
H3383 H 0.29734 0.23102 0.77439 0.0
H3384 H 0.2959 0.21813 0.83676 0.0
H3385 H 0.29754 0.23082 0.80969 0.0
H3386 H 0.33148 0.23252 0.79345 0.0
H3387 H 0.32976 0.21964 0.82033 0.0
C3388 C 0.32914 0.26024 0.76675 0.0
C3389 C 0.3192 0.25806 0.75511 0.0
C3390 C 0.32769 0.25195 0.78101 0.0
C3391 C 0.31623 0.24133 0.78404 0.0
C3392 C 0.30626 0.23916 0.77244 0.0
C3393 C 0.30775 0.2474 0.75805 0.0
C3394 C 0.30357 0.22097 0.8272 0.0
C3395 C 0.31273 0.21791 0.8308 0.0
C3396 C 0.30453 0.22828 0.81172 0.0
C3397 C 0.31469 0.23275 0.79955 0.0
C3398 C 0.32365 0.22938 0.80278 0.0
C3399 C 0.32266 0.22202 0.81819 0.0
H3400 H 0.73573 0.08172 0.75603 0.0
H3401 H 0.74505 0.05389 0.76986 0.0
H3402 H 0.74936 0.09488 0.78089 0.0
H3403 H 0.75894 0.06721 0.79457 0.0
H3404 H 0.76859 0.08851 0.85177 0.0
H3405 H 0.75687 0.07528 0.8256 0.0
H3406 H 0.77157 0.10682 0.7887 0.0
H3407 H 0.7835 0.12009 0.81483 0.0
C3408 C 0.74068 0.07841 0.76442 0.0
C3409 C 0.73925 0.06674 0.76109 0.0
C3410 C 0.74861 0.08601 0.7785 0.0
C3411 C 0.75525 0.0821 0.78964 0.0
C3412 C 0.75388 0.07044 0.78627 0.0
C3413 C 0.74601 0.06286 0.77206 0.0
C3414 C 0.76956 0.09262 0.838 0.0
C3415 C 0.77698 0.10539 0.83544 0.0
C3416 C 0.7628 0.08502 0.823 0.0
C3417 C 0.76324 0.09002 0.80512 0.0
C3418 C 0.77091 0.10273 0.8024 0.0
C3419 C 0.77772 0.11033 0.81738 0.0
H3420 H 0.07232 0.36741 0.01746 0.0
H3421 H 0.04228 0.33117 0.03112 0.0
H3422 H 0.08696 0.36109 0.02743 0.0
H3423 H 0.0569 0.32486 0.04036 0.0
H3424 H 0.08643 0.31438 0.043 0.0
H3425 H 0.07372 0.32142 0.02743 0.0
H3426 H 0.09191 0.35524 0.05919 0.0
H3427 H 0.10434 0.34814 0.07517 0.0
C3428 C 0.06881 0.3581 0.02247 0.0
C3429 C 0.05607 0.34983 0.0235 0.0
C3430 C 0.07722 0.35448 0.02807 0.0
C3431 C 0.07306 0.34248 0.03459 0.0
C3432 C 0.06038 0.33411 0.03508 0.0
C3433 C 0.05199 0.33775 0.02972 0.0
C3434 C 0.08776 0.32334 0.04663 0.0
C3435 C 0.09635 0.33062 0.0605 0.0
C3436 C 0.08051 0.32738 0.03765 0.0
C3437 C 0.08179 0.33885 0.04218 0.0
C3438 C 0.09082 0.34642 0.05526 0.0
C3439 C 0.09797 0.34233 0.06438 0.0
H3440 H 0.64577 0.70673 0.01187 0.0
H3441 H 0.65559 0.69876 0.06635 0.0
H3442 H 0.65388 0.7281 0.02141 0.0
H3443 H 0.66292 0.71976 0.07617 0.0
H3444 H 0.68832 0.76008 0.08164 0.0
H3445 H 0.68014 0.7394 0.0698 0.0
H3446 H 0.65074 0.74173 0.04208 0.0
H3447 H 0.65945 0.76293 0.05303 0.0
C3448 C 0.64957 0.70949 0.02591 0.0
C3449 C 0.65006 0.70099 0.03829 0.0
C3450 C 0.65409 0.72171 0.03144 0.0
C3451 C 0.65918 0.7257 0.04949 0.0
C3452 C 0.6593 0.71709 0.06202 0.0
C3453 C 0.65489 0.70495 0.05648 0.0
C3454 C 0.6803 0.75638 0.07262 0.0
C3455 C 0.67461 0.76328 0.06825 0.0
C3456 C 0.67545 0.74437 0.06611 0.0
C3457 C 0.66465 0.7388 0.05524 0.0
C3458 C 0.65909 0.74575 0.0504 0.0
C3459 C 0.66402 0.75786 0.05683 0.0
H3460 H 0.30328 0.94217 0.05447 0.0
H3461 H 0.28841 0.94446 0.00077 0.0
H3462 H 0.28279 0.92712 0.0652 0.0
H3463 H 0.26786 0.92896 0.01112 0.0
H3464 H 0.23222 0.91484 0.04542 0.0
H3465 H 0.25239 0.92727 0.0314 0.0
H3466 H 0.26597 0.90719 0.06326 0.0
H3467 H 0.24609 0.89547 0.07845 0.0
C3468 C 0.29563 0.9392 0.0448 0.0
C3469 C 0.29741 0.9445 0.02683 0.0
C3470 C 0.28386 0.93052 0.0509 0.0
C3471 C 0.27358 0.92679 0.03908 0.0
C3472 C 0.27548 0.93176 0.02078 0.0
C3473 C 0.28725 0.94059 0.01478 0.0
C3474 C 0.23951 0.9131 0.04952 0.0
C3475 C 0.2375 0.90425 0.06333 0.0
C3476 C 0.25108 0.92012 0.04123 0.0
C3477 C 0.26092 0.91836 0.0463 0.0
C3478 C 0.25872 0.90902 0.05929 0.0
C3479 C 0.2472 0.90212 0.06779 0.0
H3480 H 0.36952 0.06906 0.99399 0.0
H3481 H 0.33085 0.0418 0.99389 0.0
H3482 H 0.36453 0.08469 0.98417 0.0
H3483 H 0.3259 0.05738 0.9843 0.0
H3484 H 0.31954 0.08941 0.97954 0.0
H3485 H 0.32608 0.07611 0.99448 0.0
H3486 H 0.35645 0.0891 0.95546 0.0
H3487 H 0.34991 0.1023 0.9405 0.0
C3488 C 0.35996 0.0664 0.99193 0.0
C3489 C 0.35059 0.05416 0.99473 0.0
C3490 C 0.35711 0.07536 0.98635 0.0
C3491 C 0.34482 0.07229 0.9835 0.0
C3492 C 0.33545 0.06012 0.98671 0.0
C3493 C 0.33829 0.05117 0.99223 0.0
C3494 C 0.32766 0.08949 0.97425 0.0
C3495 C 0.33415 0.09686 0.95875 0.0
C3496 C 0.33141 0.08187 0.9828 0.0
C3497 C 0.34172 0.08147 0.97605 0.0
C3498 C 0.34855 0.08929 0.96114 0.0
C3499 C 0.3448 0.09688 0.95258 0.0
H3500 H 0.93737 0.29729 0.00735 0.0
H3501 H 0.96611 0.29207 0.98339 0.0
H3502 H 0.92213 0.27636 0.99808 0.0
H3503 H 0.95096 0.27109 0.9751 0.0
H3504 H 0.92159 0.23061 0.97728 0.0
H3505 H 0.9354 0.2506 0.99142 0.0
H3506 H 0.91483 0.26568 0.96526 0.0
H3507 H 0.90135 0.24594 0.95042 0.0
C3508 C 0.94048 0.29173 0.0002 0.0
C3509 C 0.95304 0.29647 0.99615 0.0
C3510 C 0.93175 0.27971 0.99503 0.0
C3511 C 0.9354 0.27211 0.98601 0.0
C3512 C 0.94792 0.27669 0.98235 0.0
C3513 C 0.95662 0.28874 0.9872 0.0
C3514 C 0.91998 0.23816 0.97452 0.0
C3515 C 0.9104 0.23663 0.96249 0.0
C3516 C 0.92786 0.24958 0.98271 0.0
C3517 C 0.9262 0.25967 0.97934 0.0
C3518 C 0.91624 0.25801 0.96823 0.0
C3519 C 0.90847 0.24665 0.9598 0.0
H3520 H 0.71309 0.66806 0.01005 0.0
H3521 H 0.69978 0.63629 0.97378 0.0
H3522 H 0.73415 0.67452 0.00077 0.0
H3523 H 0.72085 0.64274 0.96452 0.0
H3524 H 0.7657 0.69017 0.95686 0.0
H3525 H 0.74583 0.6827 0.97174 0.0
H3526 H 0.74106 0.64623 0.97489 0.0
H3527 H 0.76115 0.65377 0.96007 0.0
C3528 C 0.71466 0.66244 0.00013 0.0
C3529 C 0.70475 0.65173 0.9925 0.0
C3530 C 0.72673 0.66613 0.99485 0.0
C3531 C 0.72918 0.65919 0.9818 0.0
C3532 C 0.7193 0.64821 0.97476 0.0
C3533 C 0.70722 0.64452 0.98006 0.0
C3534 C 0.76061 0.68063 0.96116 0.0
C3535 C 0.76507 0.67258 0.95726 0.0
C3536 C 0.74916 0.67633 0.96968 0.0
C3537 C 0.74184 0.66386 0.97447 0.0
C3538 C 0.74642 0.65586 0.97113 0.0
C3539 C 0.75793 0.66018 0.96265 0.0
H3540 H 0.95268 0.66685 0.00364 0.0
H3541 H 0.9342 0.63465 0.96817 0.0
H3542 H 0.93798 0.67306 0.99414 0.0
H3543 H 0.91981 0.64119 0.95798 0.0
H3544 H 0.8905 0.65236 0.9528 0.0
H3545 H 0.90303 0.64466 0.96727 0.0
H3546 H 0.93467 0.68126 0.96542 0.0
H3547 H 0.92228 0.68889 0.95105 0.0
C3548 C 0.94539 0.66099 0.994 0.0
C3549 C 0.94468 0.65027 0.9866 0.0
C3550 C 0.93704 0.66464 0.98838 0.0
C3551 C 0.92779 0.6577 0.97515 0.0
C3552 C 0.92677 0.64672 0.96828 0.0
C3553 C 0.93512 0.64305 0.97394 0.0
C3554 C 0.90012 0.65875 0.95558 0.0
C3555 C 0.90535 0.67126 0.95085 0.0
C3556 C 0.90729 0.65434 0.96385 0.0
C3557 C 0.91984 0.66235 0.96756 0.0
C3558 C 0.92498 0.67487 0.96314 0.0
C3559 C 0.91785 0.67926 0.95489 0.0
H3560 H 0.35397 0.30442 0.95523 0.0
H3561 H 0.35077 0.29068 0.01201 0.0
H3562 H 0.34719 0.28394 0.94284 0.0
H3563 H 0.34362 0.27002 -0.00046 0.0
H3564 H 0.34151 0.23673 0.9669 0.0
H3565 H 0.35025 0.25749 0.98014 0.0
H3566 H 0.32726 0.26464 0.94308 0.0
H3567 H 0.31879 0.24418 0.92968 0.0
C3568 C 0.35198 0.29706 0.96507 0.0
C3569 C 0.3529 0.29918 0.98462 0.0
C3570 C 0.34796 0.28529 0.95797 0.0
C3571 C 0.34476 0.27535 0.97023 0.0
C3572 C 0.34607 0.27752 0.98976 0.0
C3573 C 0.35005 0.28931 0.99689 0.0
C3574 C 0.33837 0.24278 0.9616 0.0
C3575 C 0.32941 0.2388 0.94733 0.0
C3576 C 0.34331 0.25461 0.96925 0.0
C3577 C 0.33949 0.26271 0.96257 0.0
C3578 C 0.33051 0.25868 0.94836 0.0
C3579 C 0.32553 0.24688 0.94085 0.0
H3580 H 0.70261 0.04454 0.95809 0.0
H3581 H 0.70549 0.06245 0.01138 0.0
H3582 H 0.72299 0.06104 0.94937 0.0
H3583 H 0.72612 0.07882 0.00287 0.0
H3584 H 0.75425 0.11277 0.96727 0.0
H3585 H 0.73533 0.09591 0.98029 0.0
H3586 H 0.74466 0.06978 0.95729 0.0
H3587 H 0.76332 0.08658 0.9437 0.0
C3588 C 0.70761 0.05201 0.96796 0.0
C3589 C 0.70239 0.05223 0.98536 0.0
C3590 C 0.71937 0.06138 0.96307 0.0
C3591 C 0.72621 0.07122 0.97547 0.0
C3592 C 0.72106 0.0714 0.99298 0.0
C3593 C 0.70928 0.06198 0.9979 0.0
C3594 C 0.75231 0.10342 0.96515 0.0
C3595 C 0.76024 0.10102 0.9543 0.0
C3596 C 0.74152 0.09377 0.97275 0.0
C3597 C 0.73842 0.08149 0.96962 0.0
C3598 C 0.74669 0.07913 0.95968 0.0
C3599 C 0.75748 0.08878 0.9521 0.0
H3600 H 0.648 0.93727 0.00787 0.0
H3601 H 0.6538 0.95294 0.0637 0.0
H3602 H 0.65542 0.92354 0.01864 0.0
H3603 H 0.6613 0.93937 0.07433 0.0
H3604 H 0.68897 0.92559 0.07729 0.0
H3605 H 0.68087 0.93818 0.06463 0.0
H3606 H 0.64871 0.90554 0.04433 0.0
H3607 H 0.6568 0.89283 0.05722 0.0
C3608 C 0.6508 0.93771 0.02243 0.0
C3609 C 0.65031 0.94612 0.03499 0.0
C3610 C 0.65498 0.92985 0.02858 0.0
C3611 C 0.65898 0.93048 0.04725 0.0
C3612 C 0.65835 0.93878 0.05982 0.0
C3613 C 0.65397 0.94646 0.05379 0.0
C3614 C 0.68027 0.92111 0.06986 0.0
C3615 C 0.67353 0.90824 0.06816 0.0
C3616 C 0.67559 0.9283 0.06278 0.0
C3617 C 0.66415 0.9228 0.05364 0.0
C3618 C 0.65757 0.90997 0.05131 0.0
C3619 C 0.66217 0.90273 0.0587 0.0
H3620 H 0.0676 0.70175 0.02823 0.0
H3621 H 0.04004 0.7127 0.02646 0.0
H3622 H 0.08283 0.72237 0.0388 0.0
H3623 H 0.05521 0.73322 0.03686 0.0
H3624 H 0.08659 0.77173 0.04324 0.0
H3625 H 0.07386 0.75195 0.02777 0.0
H3626 H 0.08672 0.73474 0.06735 0.0
H3627 H 0.09944 0.75449 0.08276 0.0
C3628 C 0.06479 0.70855 0.03005 0.0
C3629 C 0.05258 0.70555 0.0265 0.0
C3630 C 0.07352 0.72036 0.03608 0.0
C3631 C 0.07025 0.72945 0.03865 0.0
C3632 C 0.05811 0.72652 0.03469 0.0
C3633 C 0.0494 0.71473 0.02871 0.0
C3634 C 0.08677 0.76373 0.04852 0.0
C3635 C 0.09395 0.76467 0.06432 0.0
C3636 C 0.07947 0.7524 0.03968 0.0
C3637 C 0.07917 0.74174 0.04645 0.0
C3638 C 0.08682 0.74279 0.06165 0.0
C3639 C 0.09413 0.75413 0.07049 0.0
H3640 H 0.2988 0.36451 0.01134 0.0
H3641 H 0.29385 0.33502 0.04839 0.0
H3642 H 0.27865 0.36118 0.02066 0.0
H3643 H 0.27355 0.33143 0.05693 0.0
H3644 H 0.23359 0.32299 0.05745 0.0
H3645 H 0.2521 0.32514 0.04253 0.0
H3646 H 0.27097 0.36419 0.05302 0.0
H3647 H 0.25286 0.3621 0.06871 0.0
C3648 C 0.29344 0.35729 0.02137 0.0
C3649 C 0.29807 0.35013 0.02923 0.0
C3650 C 0.28186 0.35534 0.02657 0.0
C3651 C 0.27457 0.34605 0.03948 0.0
C3652 C 0.27893 0.33855 0.04674 0.0
C3653 C 0.29057 0.34061 0.04178 0.0
C3654 C 0.24167 0.33205 0.05661 0.0
C3655 C 0.24167 0.34235 0.06446 0.0
C3656 C 0.25223 0.33326 0.04796 0.0
C3657 C 0.26294 0.34482 0.04665 0.0
C3658 C 0.26278 0.35519 0.05362 0.0
C3659 C 0.25233 0.35397 0.06254 0.0
H3660 H 0.72923 0.69917 0.38966 0.0
H3661 H 0.71519 0.67094 0.34681 0.0
H3662 H 0.7439 0.69286 0.39952 0.0
H3663 H 0.72999 0.6648 0.35643 0.0
H3664 H 0.74446 0.64694 0.39909 0.0
H3665 H 0.73191 0.65457 0.38522 0.0
H3666 H 0.76243 0.69173 0.38865 0.0
H3667 H 0.77524 0.68408 0.40215 0.0
C3668 C 0.72934 0.69168 0.38227 0.0
C3669 C 0.72101 0.68551 0.36753 0.0
C3670 C 0.73782 0.68816 0.38778 0.0
C3671 C 0.73807 0.67831 0.37878 0.0
C3672 C 0.72995 0.67236 0.36373 0.0
C3673 C 0.72154 0.67594 0.35813 0.0
C3674 C 0.74867 0.65672 0.39646 0.0
C3675 C 0.76093 0.66487 0.40171 0.0
C3676 C 0.74142 0.66109 0.38856 0.0
C3677 C 0.74618 0.67375 0.38585 0.0
C3678 C 0.75848 0.68193 0.39076 0.0
C3679 C 0.7658 0.67753 0.39852 0.0
H3680 H 0.30509 0.03859 0.34871 0.0
H3681 H 0.3242 0.0342 0.39607 0.0
H3682 H 0.31245 0.05991 0.35815 0.0
H3683 H 0.33116 0.05523 0.40576 0.0
H3684 H 0.35322 0.09636 0.40634 0.0
H3685 H 0.34567 0.07577 0.39412 0.0
H3686 H 0.31013 0.07218 0.38389 0.0
H3687 H 0.31785 0.09313 0.39555 0.0
C3688 C 0.31082 0.04215 0.36115 0.0
C3689 C 0.31405 0.03469 0.37165 0.0
C3690 C 0.31494 0.05432 0.36662 0.0
C3691 C 0.32246 0.05928 0.38261 0.0
C3692 C 0.32554 0.05175 0.39321 0.0
C3693 C 0.3214 0.03963 0.38779 0.0
C3694 C 0.34388 0.09134 0.40108 0.0
C3695 C 0.33615 0.09644 0.4019 0.0
C3696 C 0.3395 0.07944 0.39433 0.0
C3697 C 0.32726 0.07228 0.38828 0.0
C3698 C 0.31962 0.07749 0.38843 0.0
C3699 C 0.32401 0.08944 0.39524 0.0
H3700 H 0.9703 0.26731 0.37258 0.0
H3701 H 0.95429 0.28851 0.35161 0.0
H3702 H 0.95022 0.25115 0.38193 0.0
H3703 H 0.93397 0.27164 0.3589 0.0
H3704 H 0.90133 0.24632 0.39631 0.0
H3705 H 0.9205 0.26208 0.38302 0.0
H3706 H 0.93172 0.23508 0.37375 0.0
H3707 H 0.9134 0.21977 0.38929 0.0
C3708 C 0.96252 0.26854 0.3698 0.0
C3709 C 0.96409 0.27941 0.36154 0.0
C3710 C 0.95085 0.25905 0.37479 0.0
C3711 C 0.94029 0.25993 0.37118 0.0
C3712 C 0.94181 0.27062 0.36228 0.0
C3713 C 0.95354 0.28027 0.35774 0.0
C3714 C 0.90793 0.24372 0.39172 0.0
C3715 C 0.90577 0.2317 0.39447 0.0
C3716 C 0.91892 0.25279 0.38367 0.0
C3717 C 0.92793 0.25002 0.37758 0.0
C3718 C 0.92529 0.23776 0.37886 0.0
C3719 C 0.9145 0.22881 0.38744 0.0
H3720 H 0.02687 0.39783 0.34077 0.0
H3721 H 0.01744 0.38177 0.28505 0.0
H3722 H 0.02274 0.41394 0.33076 0.0
H3723 H 0.01429 0.39834 0.27469 0.0
H3724 H 0.99948 0.42291 0.26278 0.0
H3725 H 0.00092 0.40612 0.27677 0.0
H3726 H 0.03075 0.43186 0.3122 0.0
H3727 H 0.02859 0.44862 0.29936 0.0
C3728 C 0.02393 0.39771 0.32639 0.0
C3729 C 0.02252 0.38846 0.31374 0.0
C3730 C 0.02171 0.40707 0.32057 0.0
C3731 C 0.01814 0.40747 0.30191 0.0
C3732 C 0.01678 0.39824 0.28928 0.0
C3733 C 0.01885 0.38883 0.29514 0.0
C3734 C 0.00609 0.42502 0.27398 0.0
C3735 C 0.01397 0.43722 0.2798 0.0
C3736 C 0.00709 0.41535 0.28176 0.0
C3737 C 0.01614 0.41761 0.29535 0.0
C3738 C 0.02365 0.42973 0.30181 0.0
C3739 C 0.02252 0.43939 0.29423 0.0
H3740 H 0.60484 0.63914 0.30201 0.0
H3741 H 0.61892 0.62457 0.34416 0.0
H3742 H 0.59001 0.61823 0.29198 0.0
H3743 H 0.60397 0.60369 0.33435 0.0
H3744 H 0.58958 0.57187 0.29059 0.0
H3745 H 0.60206 0.59186 0.30511 0.0
H3746 H 0.57149 0.59842 0.30253 0.0
H3747 H 0.55873 0.57813 0.2884 0.0
C3748 C 0.60469 0.63147 0.30924 0.0
C3749 C 0.6131 0.6335 0.3238 0.0
C3750 C 0.59612 0.6195 0.30363 0.0
C3751 C 0.59587 0.60933 0.31234 0.0
C3752 C 0.60402 0.61136 0.32728 0.0
C3753 C 0.61251 0.62331 0.333 0.0
C3754 C 0.58534 0.57736 0.29355 0.0
C3755 C 0.57308 0.57329 0.28834 0.0
C3756 C 0.59255 0.58888 0.30183 0.0
C3757 C 0.58776 0.59671 0.30496 0.0
C3758 C 0.57546 0.59262 0.30011 0.0
C3759 C 0.56817 0.581 0.29197 0.0
H3760 H 0.35815 0.96999 0.29189 0.0
H3761 H 0.37531 0.99111 0.34209 0.0
H3762 H 0.37815 0.97381 0.28064 0.0
H3763 H 0.39539 0.9948 0.33089 0.0
H3764 H 0.42431 0.98286 0.309 0.0
H3765 H 0.40528 0.98058 0.32255 0.0
H3766 H 0.39832 0.99415 0.27082 0.0
H3767 H 0.41727 0.99651 0.25738 0.0
C3768 C 0.3662 0.97535 0.30058 0.0
C3769 C 0.36522 0.98025 0.31784 0.0
C3770 C 0.37763 0.9776 0.29409 0.0
C3771 C 0.38828 0.98463 0.30489 0.0
C3772 C 0.38729 0.98934 0.32236 0.0
C3773 C 0.37586 0.98727 0.32869 0.0
C3774 C 0.41878 0.98551 0.30068 0.0
C3775 C 0.42227 0.9899 0.28219 0.0
C3776 C 0.40795 0.98425 0.30843 0.0
C3777 C 0.40035 0.98712 0.29763 0.0
C3778 C 0.40401 0.99181 0.27936 0.0
C3779 C 0.4149 0.99326 0.27176 0.0
H3780 H 0.62104 0.99647 0.32988 0.0
H3781 H 0.59741 0.95828 0.31544 0.0
H3782 H 0.60514 0.00097 0.32006 0.0
H3783 H 0.58124 0.96261 0.30625 0.0
H3784 H 0.56356 0.97853 0.26689 0.0
H3785 H 0.57713 0.97229 0.28125 0.0
H3786 H 0.5857 0.99893 0.32576 0.0
H3787 H 0.57235 0.00544 0.31085 0.0
C3788 C 0.61232 0.98899 0.32497 0.0
C3789 C 0.61047 0.97705 0.32329 0.0
C3790 C 0.60316 0.99154 0.31942 0.0
C3791 C 0.59187 0.98217 0.31226 0.0
C3792 C 0.58989 0.97011 0.31131 0.0
C3793 C 0.59912 0.9676 0.31663 0.0
C3794 C 0.56814 0.98287 0.27996 0.0
C3795 C 0.56691 0.99248 0.28774 0.0
C3796 C 0.57593 0.97928 0.28825 0.0
C3797 C 0.5826 0.98514 0.30466 0.0
C3798 C 0.58092 0.99438 0.31292 0.0
C3799 C 0.57322 0.99807 0.30447 0.0
H3800 H 0.02152 0.63085 0.34863 0.0
H3801 H 0.03001 0.64357 0.29106 0.0
H3802 H 0.01779 0.61062 0.33882 0.0
H3803 H 0.02623 0.62343 0.28126 0.0
H3804 H 0.02707 0.58913 0.26941 0.0
H3805 H 0.03377 0.60925 0.28309 0.0
H3806 H 0.00262 0.5932 0.32086 0.0
H3807 H 0.99624 0.57293 0.30782 0.0
C3808 C 0.02259 0.62933 0.33389 0.0
C3809 C 0.02606 0.63882 0.32062 0.0
C3810 C 0.02046 0.61774 0.32827 0.0
C3811 C 0.02173 0.61539 0.30926 0.0
C3812 C 0.0254 0.62497 0.29608 0.0
C3813 C 0.02756 0.63654 0.3017 0.0
C3814 C 0.02183 0.5898 0.28101 0.0
C3815 C 0.01106 0.57939 0.28743 0.0
C3816 C 0.02558 0.60139 0.28866 0.0
C3817 C 0.01864 0.60289 0.30287 0.0
C3818 C 0.00822 0.59239 0.30998 0.0
C3819 C 0.00448 0.58078 0.30237 0.0
H3820 H 0.37528 0.39807 0.34487 0.0
H3821 H 0.37329 0.37381 0.3001 0.0
H3822 H 0.39635 0.41296 0.33547 0.0
H3823 H 0.39421 0.38855 0.29087 0.0
H3824 H 0.43506 0.41084 0.28938 0.0
H3825 H 0.41506 0.3969 0.30284 0.0
H3826 H 0.40786 0.42693 0.30889 0.0
H3827 H 0.42823 0.4411 0.29606 0.0
C3828 C 0.37931 0.39593 0.333 0.0
C3829 C 0.37264 0.38469 0.32336 0.0
C3830 C 0.39137 0.40445 0.32764 0.0
C3831 C 0.397 0.40187 0.31257 0.0
C3832 C 0.39026 0.3907 0.30284 0.0
C3833 C 0.37825 0.38223 0.30815 0.0
C3834 C 0.4294 0.41459 0.29403 0.0
C3835 C 0.43329 0.42712 0.29159 0.0
C3836 C 0.41783 0.40654 0.3015 0.0
C3837 C 0.4098 0.41077 0.30666 0.0
C3838 C 0.41385 0.42339 0.30506 0.0
C3839 C 0.42547 0.43148 0.29757 0.0
H3840 H 0.30538 0.26782 0.34817 0.0
H3841 H 0.32884 0.29347 0.39074 0.0
H3842 H 0.31274 0.25377 0.35692 0.0
H3843 H 0.33579 0.27932 0.39988 0.0
H3844 H 0.35594 0.2585 0.39945 0.0
H3845 H 0.34855 0.27164 0.38714 0.0
H3846 H 0.31184 0.24036 0.38308 0.0
H3847 H 0.31937 0.227 0.39469 0.0
C3848 C 0.31207 0.27044 0.35941 0.0
C3849 C 0.3165 0.28176 0.36877 0.0
C3850 C 0.31621 0.26236 0.36451 0.0
C3851 C 0.32492 0.26546 0.379 0.0
C3852 C 0.32923 0.27672 0.38845 0.0
C3853 C 0.32509 0.28476 0.38339 0.0
C3854 C 0.34636 0.25432 0.39548 0.0
C3855 C 0.33826 0.24166 0.39809 0.0
C3856 C 0.34208 0.26191 0.38869 0.0
C3857 C 0.32957 0.25709 0.38441 0.0
C3858 C 0.32154 0.24436 0.38623 0.0
C3859 C 0.32583 0.23673 0.39303 0.0
H3860 H 0.72054 0.04065 0.33795 0.0
H3861 H 0.71904 0.02866 0.39548 0.0
H3862 H 0.73571 0.06162 0.34713 0.0
H3863 H 0.73412 0.04953 0.40461 0.0
H3864 H 0.76829 0.08554 0.41378 0.0
H3865 H 0.7555 0.06502 0.40098 0.0
H3866 H 0.73672 0.07848 0.36576 0.0
H3867 H 0.74994 0.09921 0.37795 0.0
C3868 C 0.72344 0.04249 0.35255 0.0
C3869 C 0.7186 0.03297 0.36597 0.0
C3870 C 0.73212 0.0545 0.3578 0.0
C3871 C 0.73617 0.05725 0.37659 0.0
C3872 C 0.73141 0.0477 0.38994 0.0
C3873 C 0.72274 0.03571 0.3847 0.0
C3874 C 0.76168 0.08423 0.40293 0.0
C3875 C 0.76014 0.09405 0.39694 0.0
C3876 C 0.75421 0.0724 0.3958 0.0
C3877 C 0.74498 0.07007 0.38254 0.0
C3878 C 0.74378 0.07997 0.37591 0.0
C3879 C 0.75128 0.09183 0.38303 0.0
H3880 H 0.96042 0.69102 0.34648 0.0
H3881 H 0.96368 0.6705 0.39283 0.0
H3882 H 0.93913 0.68402 0.35556 0.0
H3883 H 0.94251 0.6635 0.40175 0.0
H3884 H 0.90148 0.64315 0.40272 0.0
H3885 H 0.92181 0.64993 0.3899 0.0
H3886 H 0.92714 0.68633 0.38145 0.0
H3887 H 0.90648 0.67939 0.39366 0.0
C3888 C 0.95663 0.68508 0.35865 0.0
C3889 C 0.96373 0.68124 0.36884 0.0
C3890 C 0.94444 0.68106 0.36382 0.0
C3891 C 0.93909 0.6731 0.37925 0.0
C3892 C 0.94625 0.6694 0.38953 0.0
C3893 C 0.9584 0.67342 0.3844 0.0
C3894 C 0.90682 0.65251 0.39769 0.0
C3895 C 0.90232 0.66072 0.39925 0.0
C3896 C 0.91856 0.65645 0.39059 0.0
C3897 C 0.92616 0.66871 0.38492 0.0
C3898 C 0.9215 0.67681 0.38568 0.0
C3899 C 0.90971 0.67286 0.39281 0.0
H3900 H 0.38058 0.00295 0.67694 0.0
H3901 H 0.39771 0.03432 0.71428 0.0
H3902 H 0.39578 0.99724 0.6861 0.0
H3903 H 0.413 0.02869 0.72318 0.0
H3904 H 0.4436 0.01921 0.7261 0.0
H3905 H 0.43042 0.02607 0.71154 0.0
H3906 H 0.39938 0.98927 0.71602 0.0
H3907 H 0.41233 0.98248 0.73091 0.0
C3908 C 0.38761 0.00866 0.68704 0.0
C3909 C 0.38782 0.01901 0.69504 0.0
C3910 C 0.39633 0.00541 0.69223 0.0
C3911 C 0.40553 0.01247 0.70544 0.0
C3912 C 0.4061 0.02313 0.7128 0.0
C3913 C 0.39733 0.02636 0.70769 0.0
C3914 C 0.43397 0.01257 0.72393 0.0
C3915 C 0.42906 1.00028 0.72975 0.0
C3916 C 0.42644 0.01651 0.71556 0.0
C3917 C 0.41387 0.00821 0.71265 0.0
C3918 C 0.40907 0.99585 0.71779 0.0
C3919 C 0.41654 0.99194 0.72629 0.0
H3920 H 0.9747 0.36902 0.67397 0.0
H3921 H 0.97171 0.35626 0.73132 0.0
H3922 H 0.97741 0.3886 0.68559 0.0
H3923 H 0.9742 0.37565 0.74285 0.0
H3924 H 0.99295 0.41594 0.75778 0.0
H3925 H 0.99111 0.39741 0.74379 0.0
H3926 H 0.96532 0.39677 0.70293 0.0
H3927 H 0.96735 0.41558 0.71675 0.0
C3928 C 0.9746 0.3704 0.68903 0.0
C3929 C 0.97297 0.3611 0.70173 0.0
C3930 C 0.97607 0.38155 0.69566 0.0
C3931 C 0.97609 0.38367 0.71512 0.0
C3932 C 0.97437 0.37434 0.72778 0.0
C3933 C 0.9728 0.36318 0.72116 0.0
C3934 C 0.98708 0.41203 0.74556 0.0
C3935 C 0.98031 0.41726 0.73835 0.0
C3936 C 0.98591 0.40131 0.7377 0.0
C3937 C 0.97797 0.39557 0.7224 0.0
C3938 C 0.97153 0.40102 0.7147 0.0
C3939 C 0.97263 0.41173 0.72267 0.0
H3940 H 0.6324 0.60259 0.68752 0.0
H3941 H 0.62543 0.6309 0.70834 0.0
H3942 H 0.61171 0.58693 0.69705 0.0
H3943 H 0.6047 0.61527 0.71714 0.0
H3944 H 0.56475 0.58467 0.71584 0.0
H3945 H 0.58465 0.59903 0.70197 0.0
H3946 H 0.60078 0.57961 0.7288 0.0
H3947 H 0.58109 0.56553 0.7432 0.0
C3948 C 0.6265 0.6055 0.69411 0.0
C3949 C 0.63064 0.61805 0.69715 0.0
C3950 C 0.61463 0.59652 0.69944 0.0
C3951 C 0.60659 0.5999 0.7077 0.0
C3952 C 0.61063 0.61241 0.71047 0.0
C3953 C 0.62252 0.62137 0.70538 0.0
C3954 C 0.57252 0.58343 0.71877 0.0
C3955 C 0.57128 0.57396 0.73079 0.0
C3956 C 0.5839 0.59163 0.71077 0.0
C3957 C 0.59425 0.59045 0.7144 0.0
C3958 C 0.59291 0.58065 0.7256 0.0
C3959 C 0.58158 0.57254 0.73379 0.0
H3960 H 0.70077 0.72795 0.62022 0.0
H3961 H 0.68856 0.72697 0.67747 0.0
H3962 H 0.69495 0.74317 0.6122 0.0
H3963 H 0.68328 0.74266 0.66968 0.0
H3964 H 0.6587 0.75561 0.64013 0.0
H3965 H 0.66739 0.74335 0.65175 0.0
H3966 H 0.69926 0.76388 0.61631 0.0
H3967 H 0.69028 0.77568 0.60395 0.0
C3968 C 0.69698 0.7311 0.63116 0.0
C3969 C 0.69503 0.72615 0.64944 0.0
C3970 C 0.69378 0.73995 0.62663 0.0
C3971 C 0.68859 0.74412 0.64028 0.0
C3972 C 0.68711 0.73954 0.65876 0.0
C3973 C 0.69028 0.73065 0.66329 0.0
C3974 C 0.66759 0.75754 0.63487 0.0
C3975 C 0.67371 0.76655 0.62096 0.0
C3976 C 0.67265 0.7506 0.6417 0.0
C3977 C 0.68399 0.75255 0.63484 0.0
C3978 C 0.69042 0.762 0.62167 0.0
C3979 C 0.68533 0.7689 0.61478 0.0
H3980 H 0.27544 0.95861 0.67998 0.0
H3981 H 0.28472 0.97118 0.62245 0.0
H3982 H 0.26164 0.9377 0.66862 0.0
H3983 H 0.27077 0.95045 0.61118 0.0
H3984 H 0.25934 0.91047 0.59976 0.0
H3985 H 0.27153 0.93118 0.61216 0.0
H3986 H 0.24202 0.92474 0.65013 0.0
H3987 H 0.22978 0.90372 0.63786 0.0
C3988 C 0.27445 0.95693 0.66493 0.0
C3989 C 0.28122 0.96655 0.65212 0.0
C3990 C 0.26648 0.94499 0.65844 0.0
C3991 C 0.2652 0.94243 0.63902 0.0
C3992 C 0.27167 0.95211 0.62623 0.0
C3993 C 0.27957 0.96403 0.6327 0.0
C3994 C 0.25548 0.91338 0.61093 0.0
C3995 C 0.24363 0.90541 0.61795 0.0
C3996 C 0.26242 0.92532 0.61786 0.0
C3997 C 0.2577 0.92962 0.63201 0.0
C3998 C 0.2459 0.92164 0.63925 0.0
C3999 C 0.23888 0.90966 0.63218 0.0
H4000 H 0.04282 0.33442 0.65032 0.0
H4001 H 0.03424 0.29725 0.66274 0.0
H4002 H 0.06353 0.33966 0.64142 0.0
H4003 H 0.05497 0.30248 0.65294 0.0
H4004 H 0.08669 0.31598 0.6062 0.0
H4005 H 0.06679 0.30899 0.62116 0.0
H4006 H 0.08286 0.34127 0.65655 0.0
H4007 H 0.10288 0.34813 0.64208 0.0
C4008 C 0.04536 0.32739 0.65146 0.0
C4009 C 0.03679 0.3154 0.65739 0.0
C4010 C 0.05725 0.33041 0.64627 0.0
C4011 C 0.06086 0.32149 0.6466 0.0
C4012 C 0.05238 0.30951 0.6525 0.0
C4013 C 0.0405 0.30652 0.65799 0.0
C4014 C 0.0861 0.32142 0.61758 0.0
C4015 C 0.09638 0.33271 0.62275 0.0
C4016 C 0.07467 0.31742 0.62609 0.0
C4017 C 0.07327 0.32468 0.63981 0.0
C4018 C 0.08366 0.3356 0.64577 0.0
C4019 C 0.0951 0.33953 0.63744 0.0
H4020 H 0.27113 0.31158 0.67426 0.0
H4021 H 0.29462 0.33166 0.62742 0.0
H4022 H 0.25666 0.31828 0.66491 0.0
H4023 H 0.28024 0.33829 0.6181 0.0
H4024 H 0.25894 0.35777 0.61488 0.0
H4025 H 0.27282 0.35169 0.62852 0.0
H4026 H 0.24214 0.31544 0.63965 0.0
H4027 H 0.22809 0.32171 0.6268 0.0
C4028 C 0.27317 0.31736 0.66193 0.0
C4029 C 0.28407 0.32117 0.65166 0.0
C4030 C 0.26489 0.32121 0.65659 0.0
C4031 C 0.26735 0.32893 0.64088 0.0
C4032 C 0.2782 0.3326 0.63055 0.0
C4033 C 0.28644 0.32878 0.63588 0.0
C4034 C 0.25507 0.3486 0.62069 0.0
C4035 C 0.24237 0.34022 0.61966 0.0
C4036 C 0.26308 0.34506 0.62826 0.0
C4037 C 0.25862 0.33302 0.63488 0.0
C4038 C 0.24587 0.32479 0.63469 0.0
C4039 C 0.23783 0.32835 0.62716 0.0
H4040 H 0.68835 0.96165 0.68285 0.0
H4041 H 0.6871 0.97098 0.62453 0.0
H4042 H 0.68342 0.94098 0.67321 0.0
H4043 H 0.68253 0.95055 0.61502 0.0
H4044 H 0.68475 0.91689 0.60147 0.0
H4045 H 0.69226 0.93748 0.61413 0.0
H4046 H 0.66534 0.92236 0.65877 0.0
H4047 H 0.65796 0.90168 0.6463 0.0
C4048 C 0.68703 0.95932 0.66801 0.0
C4049 C 0.68819 0.96804 0.65448 0.0
C4050 C 0.68426 0.9475 0.6625 0.0
C4051 C 0.6827 0.94418 0.64335 0.0
C4052 C 0.68394 0.95291 0.62985 0.0
C4053 C 0.68659 0.96465 0.63534 0.0
C4054 C 0.68064 0.91791 0.61427 0.0
C4055 C 0.67073 0.90766 0.62284 0.0
C4056 C 0.68485 0.92972 0.62139 0.0
C4057 C 0.67929 0.93155 0.63731 0.0
C4058 C 0.66983 0.92124 0.64652 0.0
C4059 C 0.66555 0.90942 0.63931 0.0
H4060 H 0.03979 0.73037 0.67427 0.0
H4061 H 0.0367 0.70677 0.62775 0.0
H4062 H 0.06109 0.74475 0.66534 0.0
H4063 H 0.05789 0.72102 0.61898 0.0
H4064 H 0.09898 0.74173 0.6187 0.0
H4065 H 0.07856 0.72812 0.63115 0.0
H4066 H 0.07315 0.75914 0.63951 0.0
H4067 H 0.0939 0.77293 0.62765 0.0
C4068 C 0.04362 0.72829 0.66209 0.0
C4069 C 0.03657 0.71737 0.65181 0.0
C4070 C 0.05582 0.73651 0.657 0.0
C4071 C 0.06121 0.73396 0.64158 0.0
C4072 C 0.0541 0.72312 0.6312 0.0
C4073 C 0.04194 0.71495 0.63623 0.0
C4074 C 0.0936 0.74573 0.62362 0.0
C4075 C 0.0981 0.75844 0.62215 0.0
C4076 C 0.0818 0.73788 0.63051 0.0
C4077 C 0.07417 0.74252 0.63606 0.0
C4078 C 0.07882 0.75529 0.63537 0.0
C4079 C 0.09066 0.76317 0.62844 0.0
H4080 H 0.98746 0.61435 0.67609 0.0
H4081 H 0.97053 0.61157 0.73021 0.0
H4082 H 0.99142 0.59788 0.68506 0.0
H4083 H 0.97472 0.59537 0.7394 0.0
H4084 H 0.97528 0.56058 0.74741 0.0
H4085 H 0.96934 0.57466 0.7342 0.0
H4086 H 0.00431 0.59423 0.70553 0.0
H4087 H 0.00994 0.5796 0.71774 0.0
C4088 C 0.98462 0.61023 0.68993 0.0
C4089 C 0.97868 0.61424 0.70245 0.0
C4090 C 0.98691 0.60081 0.69509 0.0
C4091 C 0.98339 0.59526 0.71296 0.0
C4092 C 0.97733 0.59923 0.72538 0.0
C4093 C 0.97496 0.60856 0.72015 0.0
C4094 C 0.98159 0.56765 0.73786 0.0
C4095 C 0.99313 0.56895 0.73373 0.0
C4096 C 0.97825 0.57588 0.73052 0.0
C4097 C 0.98641 0.58572 0.71903 0.0
C4098 C 0.99775 0.58674 0.71426 0.0
C4099 C 0.00105 0.57842 0.72146 0.0
H4100 H 0.39385 0.37259 0.67642 0.0
H4101 H 0.38397 0.36027 0.73395 0.0
H4102 H 0.4098 0.39272 0.68781 0.0
H4103 H 0.40006 0.38017 0.74526 0.0
H4104 H 0.42042 0.42025 0.76011 0.0
H4105 H 0.4042 0.4014 0.74617 0.0
H4106 H 0.42982 0.40221 0.70479 0.0
H4107 H 0.44605 0.42141 0.7184 0.0
C4108 C 0.39509 0.37418 0.69148 0.0
C4109 C 0.38766 0.36483 0.70429 0.0
C4110 C 0.40428 0.38566 0.69798 0.0
C4111 C 0.40614 0.38805 0.71742 0.0
C4112 C 0.39875 0.37867 0.73019 0.0
C4113 C 0.38963 0.36721 0.72371 0.0
C4114 C 0.42256 0.4166 0.74776 0.0
C4115 C 0.43455 0.42236 0.74037 0.0
C4116 C 0.41329 0.40569 0.73993 0.0
C4117 C 0.41577 0.40023 0.72454 0.0
C4118 C 0.42762 0.40621 0.71663 0.0
C4119 C 0.43693 0.41715 0.7245 0.0
H4120 H 0.62379 0.00986 0.67694 0.0
H4121 H 0.63836 0.03226 0.72699 0.0
H4122 H 0.60305 0.00462 0.6864 0.0
H4123 H 0.61769 0.02735 0.73593 0.0
H4124 H 0.57925 0.02306 0.73825 0.0
H4125 H 0.59958 0.02993 0.72479 0.0
H4126 H 0.58958 0.99224 0.71423 0.0
H4127 H 0.56957 0.98528 0.72832 0.0
C4128 C 0.62262 0.0137 0.68991 0.0
C4129 C 0.6328 0.02142 0.70124 0.0
C4130 C 0.61074 0.01075 0.69524 0.0
C4131 C 0.60878 0.0156 0.71187 0.0
C4132 C 0.61895 0.02363 0.72289 0.0
C4133 C 0.63081 0.02645 0.71771 0.0
C4134 C 0.58136 0.01622 0.73308 0.0
C4135 C 0.5727 0.00359 0.73449 0.0
C4136 C 0.59299 0.02018 0.7253 0.0
C4137 C 0.59614 0.01161 0.71849 0.0
C4138 C 0.58735 0.99905 0.71914 0.0
C4139 C 0.57582 0.99508 0.72715 0.0
loop_
_geom_bond_atom_site_label_1
_geom_bond_atom_site_label_2
_geom_bond_distance
_geom_bond_site_symmetry_2
_ccdc_geom_bond_type
Li0 N17 1.990 . S
Li0 O60 1.956 . S
Li0 O61 1.970 1_654 S
Li0 O62 1.961 . S
Li1 N25 1.990 . S
Li1 O60 1.970 1_455 S
Li1 O61 1.956 1_554 S
Li1 O63 1.961 . S
Li2 N47 1.990 . S
Li2 O60 1.961 . S
Li2 O62 1.956 . S
Li2 O63 1.970 1_655 S
Li3 N53 1.990 . S
Li3 O61 1.961 . S
Li3 O62 1.970 1_456 S
Li3 O63 1.956 1_556 S
C4 C6 1.348 1_655 S
C4 C7 1.356 . S
C4 O60 1.325 . S
N5 C8 1.314 . S
N5 C9 1.279 . S
C6 C4 1.348 1_455 S
C6 C8 1.353 1_455 S
C6 H64 0.929 . S
C7 C4 1.356 . S
C7 C9 1.358 . S
C7 H65 0.930 . S
C8 N5 1.314 . S
C8 C6 1.353 1_655 S
C8 H66 0.930 1_655 S
C9 N5 1.279 . S
C9 C7 1.358 . S
C9 H67 0.930 . S
C10 C13 1.348 1_455 S
C10 C14 1.356 . S
C10 O61 1.325 . S
C11 N12 1.279 . S
C11 C14 1.358 . S
C11 H68 0.930 . S
N12 C11 1.279 . S
N12 C15 1.314 . S
C13 C10 1.348 1_655 S
C13 C15 1.326 1_655 S
C13 H69 0.959 . S
C14 C10 1.356 . S
C14 C11 1.358 . S
C14 H70 0.930 . S
C15 N12 1.314 . S
C15 C13 1.326 1_455 S
C15 H71 0.930 1_455 S
C16 N17 1.314 1_556 S
C16 C21 1.353 . S
C16 H22 0.930 . S
N17 Li0 1.990 . S
N17 C16 1.314 1_554 S
N17 C19 1.279 . S
C18 C19 1.358 . S
C18 C20 1.356 1_554 S
C18 H72 0.930 . S
C19 N17 1.279 . S
C19 C18 1.358 . S
C19 H23 0.930 . S
C20 C18 1.356 1_556 S
C20 C21 1.348 . S
C21 C16 1.353 . S
C21 C20 1.348 . S
C21 H73 0.929 . S
H22 C16 0.930 . S
H23 C19 0.930 . S
C24 N25 1.314 . S
C24 C26 1.353 . S
C24 H30 0.930 . S
N25 Li1 1.990 . S
N25 C24 1.314 . S
N25 C28 1.279 . S
C26 C24 1.353 . S
C26 C29 1.348 . S
C26 H74 0.929 . S
C27 C28 1.358 . S
C27 C29 1.356 . S
C27 H75 0.930 . S
C28 N25 1.279 . S
C28 C27 1.358 . S
C28 H31 0.930 1_554 S
C29 C26 1.348 . S
C29 C27 1.356 . S
H30 C24 0.930 . S
H31 C28 0.930 1_556 S
C32 C34 1.348 1_554 S
C32 C35 1.356 . S
C32 O62 1.325 . S
N33 C36 1.314 . S
N33 C37 1.279 1_556 S
C34 C32 1.348 1_556 S
C34 C36 1.353 . S
C34 H76 0.929 . S
C35 C32 1.356 . S
C35 C37 1.358 . S
C35 H77 0.930 . S
C36 N33 1.314 . S
C36 C34 1.353 . S
C36 H78 0.930 . S
C37 N33 1.279 1_554 S
C37 C35 1.358 . S
C37 H79 0.930 . S
C38 C39 1.348 . S
C38 C40 1.356 . S
C38 O63 1.325 . S
C39 C38 1.348 . S
C39 C41 1.353 . S
C39 H80 0.929 . S
C40 C38 1.356 . S
C40 C42 1.358 . S
C40 H81 0.930 . S
C41 C39 1.353 . S
C41 N43 1.314 . S
C41 H82 0.930 . S
C42 C40 1.358 . S
C42 N43 1.279 . S
C42 H83 0.930 . S
N43 C41 1.314 . S
N43 C42 1.279 . S
C44 C46 1.353 . S
C44 N47 1.314 . S
C44 H50 0.930 1_655 S
C45 N47 1.279 . S
C45 C48 1.358 . S
C45 H51 0.930 . S
C46 C44 1.353 . S
C46 C49 1.348 . S
C46 H84 0.930 1_655 S
N47 Li2 1.990 . S
N47 C44 1.314 . S
N47 C45 1.279 . S
C48 C45 1.358 . S
C48 C49 1.356 . S
C48 H85 0.930 . S
C49 C46 1.348 . S
C49 C48 1.356 . S
H50 C44 0.930 1_455 S
H51 C45 0.930 . S
C52 N53 1.314 . S
C52 C54 1.353 . S
C52 H58 0.930 1_455 S
N53 Li3 1.990 . S
N53 C52 1.314 . S
N53 C56 1.279 . S
C54 C52 1.353 . S
C54 C57 1.348 . S
C54 H86 0.949 . S
C55 C56 1.358 . S
C55 C57 1.356 . S
C55 H87 0.930 . S
C56 N53 1.279 . S
C56 C55 1.358 . S
C56 H59 0.930 . S
C57 C54 1.348 . S
C57 C55 1.356 . S
H58 C52 0.930 1_655 S
H59 C56 0.930 . S
O60 Li0 1.956 . S
O60 Li1 1.970 1_655 S
O60 Li2 1.961 . S
O60 C4 1.325 . S
O61 Li0 1.970 1_456 S
O61 Li1 1.956 1_556 S
O61 Li3 1.961 . S
O61 C10 1.325 . S
O62 Li0 1.961 . S
O62 Li2 1.956 . S
O62 Li3 1.970 1_654 S
O62 C32 1.325 . S
O63 Li1 1.961 . S
O63 Li2 1.970 1_455 S
O63 Li3 1.956 1_554 S
O63 C38 1.325 . S
H64 C6 0.929 . S
H65 C7 0.930 . S
H66 C8 0.930 1_455 S
H67 C9 0.930 . S
H68 C11 0.930 . S
H69 C13 0.959 . S
H70 C14 0.930 . S
H71 C15 0.930 1_655 S
H72 C18 0.930 . S
H73 C21 0.929 . S
H74 C26 0.929 . S
H75 C27 0.930 . S
H76 C34 0.929 . S
H77 C35 0.930 . S
H78 C36 0.930 . S
H79 C37 0.930 . S
H80 C39 0.929 . S
H81 C40 0.930 . S
H82 C41 0.930 . S
H83 C42 0.930 . S
H84 C46 0.930 1_455 S
H85 C48 0.930 . S
H86 C54 0.949 . S
H87 C55 0.930 . S
Li88 N105 1.990 . S
Li88 O148 1.956 . S
Li88 O149 1.970 1_554 S
Li88 O150 1.961 . S
Li89 N113 1.990 . S
Li89 O148 1.970 . S
Li89 O149 1.956 1_554 S
Li89 O151 1.961 . S
Li90 N135 1.990 . S
Li90 O148 1.961 . S
Li90 O150 1.956 . S
Li90 O151 1.970 . S
Li91 N141 1.990 . S
Li91 O149 1.961 . S
Li91 O150 1.970 1_556 S
Li91 O151 1.956 1_556 S
C92 C94 1.348 . S
C92 C95 1.356 . S
C92 O148 1.325 . S
N93 C96 1.314 . S
N93 C97 1.279 . S
C94 C92 1.348 . S
C94 C96 1.353 . S
C94 H152 0.929 . S
C95 C92 1.356 . S
C95 C97 1.358 . S
C95 H153 0.930 . S
C96 N93 1.314 . S
C96 C94 1.353 . S
C96 H154 0.930 . S
C97 N93 1.279 . S
C97 C95 1.358 . S
C97 H155 0.930 . S
C98 C101 1.348 . S
C98 C102 1.356 . S
C98 O149 1.325 . S
C99 N100 1.279 . S
C99 C102 1.358 . S
C99 H156 0.930 . S
N100 C99 1.279 . S
N100 C103 1.314 . S
C101 C98 1.348 . S
C101 C103 1.353 . S
C101 H157 0.929 . S
C102 C98 1.356 . S
C102 C99 1.358 . S
C102 H158 0.930 . S
C103 N100 1.314 . S
C103 C101 1.353 . S
C103 H159 0.930 . S
C104 N105 1.314 1_556 S
C104 C109 1.353 . S
C104 H110 0.930 . S
N105 Li88 1.990 . S
N105 C104 1.314 1_554 S
N105 C107 1.279 . S
C106 C107 1.358 . S
C106 C108 1.356 1_554 S
C106 H160 0.930 . S
C107 N105 1.279 . S
C107 C106 1.358 . S
C107 H111 0.930 . S
C108 C106 1.356 1_556 S
C108 C109 1.348 . S
C109 C104 1.353 . S
C109 C108 1.348 . S
C109 H161 0.929 . S
H110 C104 0.930 . S
H111 C107 0.930 . S
C112 N113 1.314 . S
C112 C114 1.353 . S
C112 H118 0.930 . S
N113 Li89 1.990 . S
N113 C112 1.314 . S
N113 C116 1.279 . S
C114 C112 1.353 . S
C114 C117 1.348 . S
C114 H162 0.929 . S
C115 C116 1.358 . S
C115 C117 1.356 . S
C115 H163 0.930 . S
C116 N113 1.279 . S
C116 C115 1.358 . S
C116 H119 0.940 . S
C117 C114 1.348 . S
C117 C115 1.356 . S
H118 C112 0.930 . S
H119 C116 0.940 . S
C120 C122 1.348 1_554 S
C120 C123 1.356 . S
C120 O150 1.325 . S
N121 C124 1.314 . S
N121 C125 1.279 1_556 S
C122 C120 1.348 1_556 S
C122 C124 1.353 . S
C122 H164 0.929 . S
C123 C120 1.356 . S
C123 C125 1.358 . S
C123 H165 0.930 . S
C124 N121 1.314 . S
C124 C122 1.353 . S
C124 H166 0.930 . S
C125 N121 1.279 1_554 S
C125 C123 1.358 . S
C125 H167 0.930 . S
C126 C127 1.348 . S
C126 C128 1.356 . S
C126 O151 1.325 . S
C127 C126 1.348 . S
C127 C129 1.353 . S
C127 H168 0.929 . S
C128 C126 1.356 . S
C128 C130 1.358 . S
C128 H169 0.930 . S
C129 C127 1.353 . S
C129 N131 1.314 . S
C129 H170 0.930 . S
C130 C128 1.358 . S
C130 N131 1.279 . S
C130 H171 0.930 . S
N131 C129 1.314 . S
N131 C130 1.279 . S
C132 C134 1.353 . S
C132 N135 1.314 . S
C132 H138 0.930 . S
C133 N135 1.279 . S
C133 C136 1.358 . S
C133 H139 0.930 . S
C134 C132 1.353 . S
C134 C137 1.348 . S
C134 H172 0.929 . S
N135 Li90 1.990 . S
N135 C132 1.314 . S
N135 C133 1.279 . S
C136 C133 1.358 . S
C136 C137 1.356 . S
C136 H173 0.930 . S
C137 C134 1.348 . S
C137 C136 1.356 . S
H138 C132 0.930 . S
H139 C133 0.930 . S
C140 N141 1.314 . S
C140 C142 1.353 . S
C140 H146 0.930 . S
N141 Li91 1.990 . S
N141 C140 1.314 . S
N141 C144 1.279 . S
C142 C140 1.353 . S
C142 C145 1.348 . S
C142 H174 0.929 . S
C143 C144 1.358 . S
C143 C145 1.356 . S
C143 H175 0.930 . S
C144 N141 1.279 . S
C144 C143 1.358 . S
C144 H147 0.930 . S
C145 C142 1.348 . S
C145 C143 1.356 . S
H146 C140 0.930 . S
H147 C144 0.930 . S
O148 Li88 1.956 . S
O148 Li89 1.970 . S
O148 Li90 1.961 . S
O148 C92 1.325 . S
O149 Li88 1.970 1_556 S
O149 Li89 1.956 1_556 S
O149 Li91 1.961 . S
O149 C98 1.325 . S
O150 Li88 1.961 . S
O150 Li90 1.956 . S
O150 Li91 1.970 1_554 S
O150 C120 1.325 . S
O151 Li89 1.961 . S
O151 Li90 1.970 . S
O151 Li91 1.956 1_554 S
O151 C126 1.325 . S
H152 C94 0.929 . S
H153 C95 0.930 . S
H154 C96 0.930 . S
H155 C97 0.930 . S
H156 C99 0.930 . S
H157 C101 0.929 . S
H158 C102 0.930 . S
H159 C103 0.930 . S
H160 C106 0.930 . S
H161 C109 0.929 . S
H162 C114 0.929 . S
H163 C115 0.930 . S
H164 C122 0.929 . S
H165 C123 0.930 . S
H166 C124 0.930 . S
H167 C125 0.930 . S
H168 C127 0.929 . S
H169 C128 0.930 . S
H170 C129 0.930 . S
H171 C130 0.930 . S
H172 C134 0.929 . S
H173 C136 0.930 . S
H174 C142 0.929 . S
H175 C143 0.930 . S
Li176 N193 1.990 . S
Li176 O236 1.956 1_556 S
Li176 O237 1.970 1_566 S
Li176 O238 1.961 . S
Li177 N201 1.990 . S
Li177 O236 1.970 1_545 S
Li177 O237 1.956 . S
Li177 O239 1.961 . S
Li178 N223 1.990 . S
Li178 O236 1.961 . S
Li178 O238 1.956 1_554 S
Li178 O239 1.970 1_565 S
Li179 N229 1.990 . S
Li179 O237 1.961 . S
Li179 O238 1.970 1_544 S
Li179 O239 1.956 . S
C180 C182 1.348 . S
C180 C183 1.356 . S
C180 O236 1.325 . S
N181 C184 1.314 . S
N181 C185 1.279 . S
C182 C180 1.348 . S
C182 C184 1.353 . S
C182 H240 0.929 . S
C183 C180 1.356 . S
C183 C185 1.358 . S
C183 H241 0.930 . S
C184 N181 1.314 . S
C184 C182 1.353 . S
C184 H242 0.930 . S
C185 N181 1.279 . S
C185 C183 1.358 . S
C185 H243 0.930 . S
C186 C189 1.348 1_554 S
C186 C190 1.356 . S
C186 O237 1.325 . S
C187 N188 1.279 1_554 S
C187 C190 1.358 . S
C187 H244 0.930 . S
N188 C187 1.279 1_556 S
N188 C191 1.314 . S
C189 C186 1.348 1_556 S
C189 C191 1.353 . S
C189 H245 0.929 . S
C190 C186 1.356 . S
C190 C187 1.358 . S
C190 H246 0.930 . S
C191 N188 1.314 . S
C191 C189 1.353 . S
C191 H247 0.930 . S
C192 N193 1.314 . S
C192 C197 1.353 . S
C192 H198 0.930 1_565 S
N193 Li176 1.990 . S
N193 C192 1.314 . S
N193 C195 1.279 . S
C194 C195 1.358 . S
C194 C196 1.356 . S
C194 H248 0.930 . S
C195 N193 1.279 . S
C195 C194 1.358 . S
C195 H199 0.930 . S
C196 C194 1.356 . S
C196 C197 1.348 . S
C197 C192 1.353 . S
C197 C196 1.348 . S
C197 H249 0.932 1_565 S
H198 C192 0.930 1_545 S
H199 C195 0.930 . S
C200 N201 1.314 . S
C200 C202 1.353 . S
C200 H206 0.930 1_545 S
N201 Li177 1.990 . S
N201 C200 1.314 . S
N201 C204 1.279 . S
C202 C200 1.353 . S
C202 C205 1.348 . S
C202 H250 0.948 . S
C203 C204 1.358 . S
C203 C205 1.356 . S
C203 H251 0.930 . S
C204 N201 1.279 . S
C204 C203 1.358 . S
C204 H207 0.930 . S
C205 C202 1.348 . S
C205 C203 1.356 . S
H206 C200 0.930 1_565 S
H207 C204 0.930 . S
C208 C210 1.348 1_565 S
C208 C211 1.356 . S
C208 O238 1.325 . S
N209 C212 1.314 . S
N209 C213 1.279 . S
C210 C208 1.348 1_545 S
C210 C212 1.353 1_545 S
C210 H252 0.929 . S
C211 C208 1.356 . S
C211 C213 1.358 . S
C211 H253 0.930 . S
C212 N209 1.314 . S
C212 C210 1.353 1_565 S
C212 H254 0.930 1_565 S
C213 N209 1.279 . S
C213 C211 1.358 . S
C213 H255 0.930 . S
C214 C215 1.349 1_545 S
C214 C216 1.356 . S
C214 O239 1.325 . S
C215 C214 1.349 1_565 S
C215 C217 1.324 1_565 S
C215 H256 0.962 . S
C216 C214 1.356 . S
C216 C218 1.358 . S
C216 H257 0.930 . S
C217 C215 1.324 1_545 S
C217 N219 1.314 . S
C217 H258 0.930 1_545 S
C218 C216 1.358 . S
C218 N219 1.279 . S
C218 H259 0.930 . S
N219 C217 1.314 . S
N219 C218 1.279 . S
C220 C222 1.353 . S
C220 N223 1.314 . S
C220 H226 0.930 . S
C221 N223 1.279 . S
C221 C224 1.358 . S
C221 H227 0.930 1_554 S
C222 C220 1.353 . S
C222 C225 1.348 . S
C222 H260 0.929 . S
N223 Li178 1.990 . S
N223 C220 1.314 . S
N223 C221 1.279 . S
C224 C221 1.358 . S
C224 C225 1.356 . S
C224 H261 0.930 . S
C225 C222 1.348 . S
C225 C224 1.356 . S
H226 C220 0.930 . S
H227 C221 0.930 1_556 S
C228 N229 1.314 1_556 S
C228 C230 1.353 . S
C228 H234 0.930 . S
N229 Li179 1.990 . S
N229 C228 1.314 1_554 S
N229 C232 1.279 . S
C230 C228 1.353 . S
C230 C233 1.348 . S
C230 H262 0.929 . S
C231 C232 1.358 . S
C231 C233 1.356 1_554 S
C231 H263 0.930 . S
C232 N229 1.279 . S
C232 C231 1.358 . S
C232 H235 0.930 . S
C233 C230 1.348 . S
C233 C231 1.356 1_556 S
H234 C228 0.930 . S
H235 C232 0.930 . S
O236 Li176 1.956 1_554 S
O236 Li177 1.970 1_565 S
O236 Li178 1.961 . S
O236 C180 1.325 . S
O237 Li176 1.970 1_544 S
O237 Li177 1.956 . S
O237 Li179 1.961 . S
O237 C186 1.325 . S
O238 Li176 1.961 . S
O238 Li178 1.956 1_556 S
O238 Li179 1.970 1_566 S
O238 C208 1.325 . S
O239 Li177 1.961 . S
O239 Li178 1.970 1_545 S
O239 Li179 1.956 . S
O239 C214 1.325 . S
H240 C182 0.929 . S
H241 C183 0.930 . S
H242 C184 0.930 . S
H243 C185 0.930 . S
H244 C187 0.930 . S
H245 C189 0.929 . S
H246 C190 0.930 . S
H247 C191 0.930 . S
H248 C194 0.930 . S
H249 C197 0.932 1_545 S
H250 C202 0.948 . S
H251 C203 0.930 . S
H252 C210 0.929 . S
H253 C211 0.930 . S
H254 C212 0.930 1_545 S
H255 C213 0.930 . S
H256 C215 0.962 . S
H257 C216 0.930 . S
H258 C217 0.930 1_565 S
H259 C218 0.930 . S
H260 C222 0.929 . S
H261 C224 0.930 . S
H262 C230 0.929 . S
H263 C231 0.930 . S
Li264 N281 1.990 . S
Li264 O324 1.956 . S
Li264 O325 1.970 1_455 S
Li264 O326 1.961 1_554 S
Li265 N289 1.990 . S
Li265 O324 1.970 1_655 S
Li265 O325 1.956 . S
Li265 O327 1.961 . S
Li266 N311 1.990 . S
Li266 O324 1.961 1_556 S
Li266 O326 1.956 . S
Li266 O327 1.970 1_456 S
Li267 N317 1.990 . S
Li267 O325 1.961 . S
Li267 O326 1.970 1_654 S
Li267 O327 1.956 . S
C268 C270 1.348 . S
C268 C271 1.356 . S
C268 O324 1.325 . S
N269 C272 1.314 . S
N269 C273 1.279 . S
C270 C268 1.348 . S
C270 C272 1.353 . S
C270 H328 0.929 . S
C271 C268 1.356 . S
C271 C273 1.358 . S
C271 H329 0.930 1_554 S
C272 N269 1.314 . S
C272 C270 1.353 . S
C272 H330 0.930 . S
C273 N269 1.279 . S
C273 C271 1.358 . S
C273 H331 0.915 1_554 S
C274 C277 1.348 1_655 S
C274 C278 1.356 . S
C274 O325 1.325 . S
C275 N276 1.279 . S
C275 C278 1.358 . S
C275 H332 0.930 . S
N276 C275 1.279 . S
N276 C279 1.251 1_655 S
C277 C274 1.348 1_455 S
C277 C279 1.391 . S
C277 H333 0.929 . S
C278 C274 1.356 . S
C278 C275 1.358 . S
C278 H334 0.930 . S
C279 N276 1.251 1_455 S
C279 C277 1.391 . S
C279 H335 0.963 . S
C280 N281 1.314 . S
C280 C285 1.353 . S
C280 H286 0.930 . S
N281 Li264 1.990 . S
N281 C280 1.314 . S
N281 C283 1.279 . S
C282 C283 1.358 . S
C282 C284 1.356 . S
C282 H336 0.930 . S
C283 N281 1.279 . S
C283 C282 1.358 . S
C283 H287 0.930 . S
C284 C282 1.356 . S
C284 C285 1.348 . S
C285 C280 1.353 . S
C285 C284 1.348 . S
C285 H337 0.929 . S
H286 C280 0.930 . S
H287 C283 0.930 . S
C288 N289 1.314 . S
C288 C290 1.353 . S
C288 H294 0.930 . S
N289 Li265 1.990 . S
N289 C288 1.314 . S
N289 C292 1.279 . S
C290 C288 1.353 . S
C290 C293 1.348 . S
C290 H338 0.929 . S
C291 C292 1.358 . S
C291 C293 1.356 . S
C291 H339 0.930 . S
C292 N289 1.279 . S
C292 C291 1.358 . S
C292 H295 0.930 . S
C293 C290 1.348 . S
C293 C291 1.356 . S
H294 C288 0.930 . S
H295 C292 0.930 . S
C296 C298 1.348 1_455 S
C296 C299 1.356 . S
C296 O326 1.325 . S
N297 C300 1.265 1_455 S
N297 C301 1.279 . S
C298 C296 1.348 1_655 S
C298 C300 1.351 . S
C298 H340 0.929 . S
C299 C296 1.356 . S
C299 C301 1.358 . S
C299 H341 0.930 . S
C300 N297 1.265 1_655 S
C300 C298 1.351 . S
C300 H342 0.991 . S
C301 N297 1.279 . S
C301 C299 1.358 . S
C301 H343 0.930 . S
C302 C303 1.348 1_554 S
C302 C304 1.356 . S
C302 O327 1.325 . S
C303 C302 1.348 1_556 S
C303 C305 1.353 . S
C303 H344 0.929 . S
C304 C302 1.356 . S
C304 C306 1.358 . S
C304 H345 0.930 . S
C305 C303 1.353 . S
C305 N307 1.314 . S
C305 H346 0.930 . S
C306 C304 1.358 . S
C306 N307 1.279 1_554 S
C306 H347 0.930 . S
N307 C305 1.314 . S
N307 C306 1.279 1_556 S
C308 C310 1.353 . S
C308 N311 1.314 . S
C308 H314 0.930 . S
C309 N311 1.279 . S
C309 C312 1.358 . S
C309 H315 0.930 . S
C310 C308 1.353 . S
C310 C313 1.348 . S
C310 H348 0.929 . S
N311 Li266 1.990 . S
N311 C308 1.314 . S
N311 C309 1.279 . S
C312 C309 1.358 . S
C312 C313 1.356 . S
C312 H349 0.930 . S
C313 C310 1.348 . S
C313 C312 1.356 . S
H314 C308 0.930 . S
H315 C309 0.930 . S
C316 N317 1.314 . S
C316 C318 1.353 . S
C316 H322 0.930 . S
N317 Li267 1.990 . S
N317 C316 1.314 . S
N317 C320 1.279 1_554 S
C318 C316 1.353 . S
C318 C321 1.348 1_554 S
C318 H350 0.929 . S
C319 C320 1.358 . S
C319 C321 1.356 . S
C319 H351 0.930 . S
C320 N317 1.279 1_556 S
C320 C319 1.358 . S
C320 H323 0.930 . S
C321 C318 1.348 1_556 S
C321 C319 1.356 . S
H322 C316 0.930 . S
H323 C320 0.930 . S
O324 Li264 1.956 . S
O324 Li265 1.970 1_455 S
O324 Li266 1.961 1_554 S
O324 C268 1.325 . S
O325 Li264 1.970 1_655 S
O325 Li265 1.956 . S
O325 Li267 1.961 . S
O325 C274 1.325 . S
O326 Li264 1.961 1_556 S
O326 Li266 1.956 . S
O326 Li267 1.970 1_456 S
O326 C296 1.325 . S
O327 Li265 1.961 . S
O327 Li266 1.970 1_654 S
O327 Li267 1.956 . S
O327 C302 1.325 . S
H328 C270 0.929 . S
H329 C271 0.930 1_556 S
H330 C272 0.930 . S
H331 C273 0.915 1_556 S
H332 C275 0.930 . S
H333 C277 0.929 . S
H334 C278 0.930 . S
H335 C279 0.963 . S
H336 C282 0.930 . S
H337 C285 0.929 . S
H338 C290 0.929 . S
H339 C291 0.930 . S
H340 C298 0.929 . S
H341 C299 0.930 . S
H342 C300 0.991 . S
H343 C301 0.930 . S
H344 C303 0.929 . S
H345 C304 0.930 . S
H346 C305 0.930 . S
H347 C306 0.930 . S
H348 C310 0.929 . S
H349 C312 0.930 . S
H350 C318 0.929 . S
H351 C319 0.930 . S
Li352 N369 1.990 . S
Li352 O412 1.956 . S
Li352 O413 1.970 . S
Li352 O414 1.961 1_554 S
Li353 N377 1.990 . S
Li353 O412 1.970 . S
Li353 O413 1.956 . S
Li353 O415 1.961 . S
Li354 N399 1.990 . S
Li354 O412 1.961 1_556 S
Li354 O414 1.956 . S
Li354 O415 1.970 1_556 S
Li355 N405 2.000 . S
Li355 O413 1.961 . S
Li355 O414 1.970 1_554 S
Li355 O415 1.956 . S
C356 C358 1.348 . S
C356 C359 1.356 . S
C356 O412 1.325 . S
N357 C360 1.314 . S
N357 C361 1.279 . S
C358 C356 1.348 . S
C358 C360 1.353 . S
C358 H416 0.929 . S
C359 C356 1.356 . S
C359 C361 1.358 . S
C359 H417 0.930 1_554 S
C360 N357 1.314 . S
C360 C358 1.353 . S
C360 H418 0.930 . S
C361 N357 1.279 . S
C361 C359 1.358 . S
C361 H419 0.930 . S
C362 C365 1.348 . S
C362 C366 1.356 . S
C362 O413 1.325 . S
C363 N364 1.279 . S
C363 C366 1.358 . S
C363 H420 0.930 . S
N364 C363 1.279 . S
N364 C367 1.314 . S
C365 C362 1.348 . S
C365 C367 1.353 . S
C365 H421 0.929 . S
C366 C362 1.356 . S
C366 C363 1.358 . S
C366 H422 0.930 . S
C367 N364 1.314 . S
C367 C365 1.353 . S
C367 H423 0.930 . S
C368 N369 1.314 . S
C368 C373 1.353 . S
C368 H374 0.930 . S
N369 Li352 1.990 . S
N369 C368 1.314 . S
N369 C371 1.279 . S
C370 C371 1.358 . S
C370 C372 1.356 . S
C370 H424 0.930 . S
C371 N369 1.279 . S
C371 C370 1.358 . S
C371 H375 0.930 . S
C372 C370 1.356 . S
C372 C373 1.348 . S
C373 C368 1.353 . S
C373 C372 1.348 . S
C373 H425 0.929 . S
H374 C368 0.930 . S
H375 C371 0.930 . S
C376 N377 1.314 . S
C376 C378 1.353 . S
C376 H382 0.930 . S
N377 Li353 1.990 . S
N377 C376 1.314 . S
N377 C380 1.279 . S
C378 C376 1.353 . S
C378 C381 1.348 . S
C378 H426 0.929 . S
C379 C380 1.358 . S
C379 C381 1.356 . S
C379 H427 0.930 . S
C380 N377 1.279 . S
C380 C379 1.358 . S
C380 H383 0.930 . S
C381 C378 1.348 . S
C381 C379 1.356 . S
H382 C376 0.930 . S
H383 C380 0.930 . S
C384 C386 1.348 . S
C384 C387 1.356 . S
C384 O414 1.325 . S
N385 C388 1.314 . S
N385 C389 1.279 . S
C386 C384 1.348 . S
C386 C388 1.353 . S
C386 H428 0.929 . S
C387 C384 1.356 . S
C387 C389 1.358 . S
C387 H429 0.930 . S
C388 N385 1.314 . S
C388 C386 1.353 . S
C388 H430 0.930 . S
C389 N385 1.279 . S
C389 C387 1.358 . S
C389 H431 0.930 . S
C390 C391 1.348 1_554 S
C390 C392 1.356 . S
C390 O415 1.325 . S
C391 C390 1.348 1_556 S
C391 C393 1.353 . S
C391 H432 0.929 . S
C392 C390 1.356 . S
C392 C394 1.358 . S
C392 H433 0.930 . S
C393 C391 1.353 . S
C393 N395 1.314 . S
C393 H434 0.930 . S
C394 C392 1.358 . S
C394 N395 1.279 1_554 S
C394 H435 0.930 . S
N395 C393 1.314 . S
N395 C394 1.279 1_556 S
C396 C398 1.353 . S
C396 N399 1.314 . S
C396 H402 0.930 . S
C397 N399 1.279 . S
C397 C400 1.358 . S
C397 H403 0.930 . S
C398 C396 1.353 . S
C398 C401 1.348 . S
C398 H436 0.929 . S
N399 Li354 1.990 . S
N399 C396 1.314 . S
N399 C397 1.279 . S
C400 C397 1.358 . S
C400 C401 1.356 . S
C400 H437 0.930 . S
C401 C398 1.348 . S
C401 C400 1.356 . S
H402 C396 0.930 . S
H403 C397 0.930 . S
C404 N405 1.326 . S
C404 C406 1.366 . S
C404 H410 0.930 . S
N405 Li355 2.000 . S
N405 C404 1.326 . S
N405 C408 1.256 1_554 S
C406 C404 1.366 . S
C406 C409 1.318 1_554 S
C406 H438 0.949 . S
C407 C408 1.358 . S
C407 C409 1.356 . S
C407 H439 0.930 . S
C408 N405 1.256 1_556 S
C408 C407 1.358 . S
C408 H411 0.930 . S
C409 C406 1.318 1_556 S
C409 C407 1.356 . S
H410 C404 0.930 . S
H411 C408 0.930 . S
O412 Li352 1.956 . S
O412 Li353 1.970 . S
O412 Li354 1.961 1_554 S
O412 C356 1.325 . S
O413 Li352 1.970 . S
O413 Li353 1.956 . S
O413 Li355 1.961 . S
O413 C362 1.325 . S
O414 Li352 1.961 1_556 S
O414 Li354 1.956 . S
O414 Li355 1.970 1_556 S
O414 C384 1.325 . S
O415 Li353 1.961 . S
O415 Li354 1.970 1_554 S
O415 Li355 1.956 . S
O415 C390 1.325 . S
H416 C358 0.929 . S
H417 C359 0.930 1_556 S
H418 C360 0.930 . S
H419 C361 0.930 . S
H420 C363 0.930 . S
H421 C365 0.929 . S
H422 C366 0.930 . S
H423 C367 0.930 . S
H424 C370 0.930 . S
H425 C373 0.929 . S
H426 C378 0.929 . S
H427 C379 0.930 . S
H428 C386 0.929 . S
H429 C387 0.930 . S
H430 C388 0.930 . S
H431 C389 0.930 . S
H432 C391 0.929 . S
H433 C392 0.930 . S
H434 C393 0.930 . S
H435 C394 0.930 . S
H436 C398 0.929 . S
H437 C400 0.930 . S
H438 C406 0.949 . S
H439 C407 0.930 . S
Li440 N457 1.990 . S
Li440 O500 1.956 . S
Li440 O501 1.970 1_565 S
Li440 O502 1.961 1_554 S
Li441 N465 1.990 . S
Li441 O500 1.970 1_545 S
Li441 O501 1.956 . S
Li441 O503 1.961 . S
Li442 N487 1.990 . S
Li442 O500 1.961 1_556 S
Li442 O502 1.956 . S
Li442 O503 1.970 1_566 S
Li443 N493 1.990 . S
Li443 O501 1.961 . S
Li443 O502 1.970 1_544 S
Li443 O503 1.956 . S
C444 C446 1.348 . S
C444 C447 1.356 . S
C444 O500 1.325 . S
N445 C448 1.314 . S
N445 C449 1.279 . S
C446 C444 1.348 . S
C446 C448 1.353 . S
C446 H504 0.929 . S
C447 C444 1.356 . S
C447 C449 1.358 . S
C447 H505 0.930 1_554 S
C448 N445 1.314 . S
C448 C446 1.353 . S
C448 H506 0.930 . S
C449 N445 1.279 . S
C449 C447 1.358 . S
C449 H507 0.958 . S
C450 C453 1.348 1_545 S
C450 C454 1.356 . S
C450 O501 1.325 . S
C451 N452 1.279 . S
C451 C454 1.358 . S
C451 H508 0.930 . S
N452 C451 1.279 . S
N452 C455 1.265 1_545 S
C453 C450 1.348 1_565 S
C453 C455 1.351 . S
C453 H509 0.929 . S
C454 C450 1.356 . S
C454 C451 1.358 . S
C454 H510 0.930 . S
C455 N452 1.265 1_565 S
C455 C453 1.351 . S
C455 H511 0.991 . S
C456 N457 1.314 . S
C456 C461 1.353 . S
C456 H462 0.930 . S
N457 Li440 1.990 . S
N457 C456 1.314 . S
N457 C459 1.279 . S
C458 C459 1.358 . S
C458 C460 1.356 . S
C458 H512 0.930 . S
C459 N457 1.279 . S
C459 C458 1.358 . S
C459 H463 0.930 . S
C460 C458 1.356 . S
C460 C461 1.348 . S
C461 C456 1.353 . S
C461 C460 1.348 . S
C461 H513 0.929 . S
H462 C456 0.930 . S
H463 C459 0.930 . S
C464 N465 1.314 . S
C464 C466 1.353 . S
C464 H470 0.930 . S
N465 Li441 1.990 . S
N465 C464 1.314 . S
N465 C468 1.279 . S
C466 C464 1.353 . S
C466 C469 1.348 . S
C466 H514 0.929 . S
C467 C468 1.358 . S
C467 C469 1.356 . S
C467 H515 0.930 . S
C468 N465 1.279 . S
C468 C467 1.358 . S
C468 H471 0.930 . S
C469 C466 1.348 . S
C469 C467 1.356 . S
H470 C464 0.930 . S
H471 C468 0.930 . S
C472 C474 1.348 1_565 S
C472 C475 1.356 . S
C472 O502 1.325 . S
N473 C476 1.251 1_565 S
N473 C477 1.279 . S
C474 C472 1.348 1_545 S
C474 C476 1.391 . S
C474 H516 0.929 . S
C475 C472 1.356 . S
C475 C477 1.358 . S
C475 H517 0.930 . S
C476 N473 1.251 1_545 S
C476 C474 1.391 . S
C476 H518 0.963 . S
C477 N473 1.279 . S
C477 C475 1.358 . S
C477 H519 0.930 . S
C478 C479 1.348 1_554 S
C478 C480 1.356 . S
C478 O503 1.325 . S
C479 C478 1.348 1_556 S
C479 C481 1.353 . S
C479 H520 0.929 . S
C480 C478 1.356 . S
C480 C482 1.358 . S
C480 H521 0.930 . S
C481 C479 1.353 . S
C481 N483 1.314 . S
C481 H522 0.930 . S
C482 C480 1.358 . S
C482 N483 1.279 1_554 S
C482 H523 0.930 . S
N483 C481 1.314 . S
N483 C482 1.279 1_556 S
C484 C486 1.353 . S
C484 N487 1.314 . S
C484 H490 0.930 . S
C485 N487 1.279 . S
C485 C488 1.358 . S
C485 H491 0.930 . S
C486 C484 1.353 . S
C486 C489 1.348 . S
C486 H524 0.929 . S
N487 Li442 1.990 . S
N487 C484 1.314 . S
N487 C485 1.279 . S
C488 C485 1.358 . S
C488 C489 1.356 . S
C488 H525 0.930 . S
C489 C486 1.348 . S
C489 C488 1.356 . S
H490 C484 0.930 . S
H491 C485 0.930 . S
C492 N493 1.314 . S
C492 C494 1.353 . S
C492 H498 0.930 . S
N493 Li443 1.990 . S
N493 C492 1.314 . S
N493 C496 1.279 1_554 S
C494 C492 1.353 . S
C494 C497 1.348 1_554 S
C494 H526 0.929 . S
C495 C496 1.358 . S
C495 C497 1.356 . S
C495 H527 0.930 . S
C496 N493 1.279 1_556 S
C496 C495 1.358 . S
C496 H499 0.930 . S
C497 C494 1.348 1_556 S
C497 C495 1.356 . S
H498 C492 0.930 . S
H499 C496 0.930 . S
O500 Li440 1.956 . S
O500 Li441 1.970 1_565 S
O500 Li442 1.961 1_554 S
O500 C444 1.325 . S
O501 Li440 1.970 1_545 S
O501 Li441 1.956 . S
O501 Li443 1.961 . S
O501 C450 1.325 . S
O502 Li440 1.961 1_556 S
O502 Li442 1.956 . S
O502 Li443 1.970 1_566 S
O502 C472 1.325 . S
O503 Li441 1.961 . S
O503 Li442 1.970 1_544 S
O503 Li443 1.956 . S
O503 C478 1.325 . S
H504 C446 0.929 . S
H505 C447 0.930 1_556 S
H506 C448 0.930 . S
H507 C449 0.958 . S
H508 C451 0.930 . S
H509 C453 0.929 . S
H510 C454 0.930 . S
H511 C455 0.991 . S
H512 C458 0.930 . S
H513 C461 0.929 . S
H514 C466 0.929 . S
H515 C467 0.930 . S
H516 C474 0.929 . S
H517 C475 0.930 . S
H518 C476 0.963 . S
H519 C477 0.930 . S
H520 C479 0.929 . S
H521 C480 0.930 . S
H522 C481 0.930 . S
H523 C482 0.930 . S
H524 C486 0.929 . S
H525 C488 0.930 . S
H526 C494 0.929 . S
H527 C495 0.930 . S
Li528 N545 1.990 . S
Li528 O588 1.956 . S
Li528 O589 1.970 . S
Li528 O590 1.961 . S
Li529 N553 1.990 . S
Li529 O588 1.970 . S
Li529 O589 1.956 . S
Li529 O591 1.961 . S
Li530 N575 1.990 . S
Li530 O588 1.961 . S
Li530 O590 1.956 . S
Li530 O591 1.970 . S
Li531 N581 1.990 . S
Li531 O589 1.961 . S
Li531 O590 1.970 . S
Li531 O591 1.956 . S
C532 C534 1.348 . S
C532 C535 1.356 . S
C532 O588 1.325 . S
N533 C536 1.314 . S
N533 C537 1.279 . S
C534 C532 1.348 . S
C534 C536 1.353 . S
C534 H592 0.929 . S
C535 C532 1.356 . S
C535 C537 1.358 . S
C535 H593 0.930 . S
C536 N533 1.314 . S
C536 C534 1.353 . S
C536 H594 0.930 . S
C537 N533 1.279 . S
C537 C535 1.358 . S
C537 H595 0.930 . S
C538 C541 1.348 . S
C538 C542 1.356 . S
C538 O589 1.325 . S
C539 N540 1.279 . S
C539 C542 1.358 . S
C539 H596 0.930 . S
N540 C539 1.279 . S
N540 C543 1.314 . S
C541 C538 1.348 . S
C541 C543 1.353 . S
C541 H597 0.929 . S
C542 C538 1.356 . S
C542 C539 1.358 . S
C542 H598 0.930 . S
C543 N540 1.314 . S
C543 C541 1.353 . S
C543 H599 0.930 . S
C544 N545 1.314 . S
C544 C549 1.353 . S
C544 H550 0.930 . S
N545 Li528 1.990 . S
N545 C544 1.314 . S
N545 C547 1.279 . S
C546 C547 1.358 . S
C546 C548 1.356 . S
C546 H600 0.930 . S
C547 N545 1.279 . S
C547 C546 1.358 . S
C547 H551 0.930 . S
C548 C546 1.356 . S
C548 C549 1.348 . S
C549 C544 1.353 . S
C549 C548 1.348 . S
C549 H601 0.929 . S
H550 C544 0.930 . S
H551 C547 0.930 . S
C552 N553 1.314 . S
C552 C554 1.353 . S
C552 H558 0.930 . S
N553 Li529 1.990 . S
N553 C552 1.314 . S
N553 C556 1.279 . S
C554 C552 1.353 . S
C554 C557 1.348 . S
C554 H602 0.929 . S
C555 C556 1.358 . S
C555 C557 1.356 . S
C555 H603 0.930 . S
C556 N553 1.279 . S
C556 C555 1.358 . S
C556 H559 0.930 . S
C557 C554 1.348 . S
C557 C555 1.356 . S
H558 C552 0.930 . S
H559 C556 0.930 . S
C560 C562 1.348 . S
C560 C563 1.356 . S
C560 O590 1.325 . S
N561 C564 1.314 . S
N561 C565 1.279 . S
C562 C560 1.348 . S
C562 C564 1.353 . S
C562 H604 0.929 . S
C563 C560 1.356 . S
C563 C565 1.358 . S
C563 H605 0.930 . S
C564 N561 1.314 . S
C564 C562 1.353 . S
C564 H606 0.930 . S
C565 N561 1.279 . S
C565 C563 1.358 . S
C565 H607 0.930 . S
C566 C567 1.348 . S
C566 C568 1.356 . S
C566 O591 1.325 . S
C567 C566 1.348 . S
C567 C569 1.353 . S
C567 H608 0.929 . S
C568 C566 1.356 . S
C568 C570 1.358 . S
C568 H609 0.930 . S
C569 C567 1.353 . S
C569 N571 1.314 . S
C569 H610 0.930 . S
C570 C568 1.358 . S
C570 N571 1.279 . S
C570 H611 0.930 . S
N571 C569 1.314 . S
N571 C570 1.279 . S
C572 C574 1.353 . S
C572 N575 1.314 . S
C572 H578 0.930 . S
C573 N575 1.279 . S
C573 C576 1.358 . S
C573 H579 0.930 . S
C574 C572 1.353 . S
C574 C577 1.348 . S
C574 H612 0.929 . S
N575 Li530 1.990 . S
N575 C572 1.314 . S
N575 C573 1.279 . S
C576 C573 1.358 . S
C576 C577 1.356 . S
C576 H613 0.930 . S
C577 C574 1.348 . S
C577 C576 1.356 . S
H578 C572 0.930 . S
H579 C573 0.930 . S
C580 N581 1.314 . S
C580 C582 1.353 . S
C580 H586 0.930 . S
N581 Li531 1.990 . S
N581 C580 1.314 . S
N581 C584 1.279 . S
C582 C580 1.353 . S
C582 C585 1.348 . S
C582 H614 0.929 . S
C583 C584 1.358 . S
C583 C585 1.356 . S
C583 H615 0.930 . S
C584 N581 1.279 . S
C584 C583 1.358 . S
C584 H587 0.930 . S
C585 C582 1.348 . S
C585 C583 1.356 . S
H586 C580 0.930 . S
H587 C584 0.930 . S
O588 Li528 1.956 . S
O588 Li529 1.970 . S
O588 Li530 1.961 . S
O588 C532 1.325 . S
O589 Li528 1.970 . S
O589 Li529 1.956 . S
O589 Li531 1.961 . S
O589 C538 1.325 . S
O590 Li528 1.961 . S
O590 Li530 1.956 . S
O590 Li531 1.970 . S
O590 C560 1.325 . S
O591 Li529 1.961 . S
O591 Li530 1.970 . S
O591 Li531 1.956 . S
O591 C566 1.325 . S
H592 C534 0.929 . S
H593 C535 0.930 . S
H594 C536 0.930 . S
H595 C537 0.930 . S
H596 C539 0.930 . S
H597 C541 0.929 . S
H598 C542 0.930 . S
H599 C543 0.930 . S
H600 C546 0.930 . S
H601 C549 0.929 . S
H602 C554 0.929 . S
H603 C555 0.930 . S
H604 C562 0.929 . S
H605 C563 0.930 . S
H606 C564 0.930 . S
H607 C565 0.930 . S
H608 C567 0.929 . S
H609 C568 0.930 . S
H610 C569 0.930 . S
H611 C570 0.930 . S
H612 C574 0.929 . S
H613 C576 0.930 . S
H614 C582 0.929 . S
H615 C583 0.930 . S
Li616 N633 1.990 . S
Li616 O676 1.956 . S
Li616 O677 1.970 . S
Li616 O678 1.961 . S
Li617 N641 1.990 . S
Li617 O676 1.970 . S
Li617 O677 1.956 . S
Li617 O679 1.961 . S
Li618 N663 1.990 1_565 S
Li618 O676 1.961 . S
Li618 O678 1.956 . S
Li618 O679 1.970 . S
Li619 N669 1.990 . S
Li619 O677 1.961 . S
Li619 O678 1.970 . S
Li619 O679 1.956 . S
C620 C622 1.348 . S
C620 C623 1.356 . S
C620 O676 1.325 . S
N621 C624 1.314 . S
N621 C625 1.279 . S
C622 C620 1.348 . S
C622 C624 1.353 . S
C622 H680 0.929 . S
C623 C620 1.356 . S
C623 C625 1.358 . S
C623 H681 0.930 . S
C624 N621 1.314 . S
C624 C622 1.353 . S
C624 H682 0.930 . S
C625 N621 1.279 . S
C625 C623 1.358 . S
C625 H683 0.930 . S
C626 C629 1.348 . S
C626 C630 1.356 . S
C626 O677 1.325 . S
C627 N628 1.279 . S
C627 C630 1.358 . S
C627 H684 0.930 . S
N628 C627 1.279 . S
N628 C631 1.314 . S
C629 C626 1.348 . S
C629 C631 1.353 . S
C629 H685 0.929 . S
C630 C626 1.356 . S
C630 C627 1.358 . S
C630 H686 0.930 . S
C631 N628 1.314 . S
C631 C629 1.353 . S
C631 H687 0.930 . S
C632 N633 1.314 . S
C632 C637 1.353 . S
C632 H638 0.930 . S
N633 Li616 1.990 . S
N633 C632 1.314 . S
N633 C635 1.279 . S
C634 C635 1.358 . S
C634 C636 1.356 . S
C634 H688 0.930 . S
C635 N633 1.279 . S
C635 C634 1.358 . S
C635 H639 0.930 . S
C636 C634 1.356 . S
C636 C637 1.348 . S
C637 C632 1.353 . S
C637 C636 1.348 . S
C637 H689 0.929 . S
H638 C632 0.930 . S
H639 C635 0.930 . S
C640 N641 1.314 . S
C640 C642 1.353 . S
C640 H646 0.930 . S
N641 Li617 1.990 . S
N641 C640 1.314 . S
N641 C644 1.279 . S
C642 C640 1.353 . S
C642 C645 1.348 . S
C642 H690 0.929 . S
C643 C644 1.358 . S
C643 C645 1.356 . S
C643 H691 0.930 . S
C644 N641 1.279 . S
C644 C643 1.358 . S
C644 H647 0.930 . S
C645 C642 1.348 . S
C645 C643 1.356 . S
H646 C640 0.930 . S
H647 C644 0.930 . S
C648 C650 1.348 . S
C648 C651 1.356 . S
C648 O678 1.325 . S
N649 C652 1.314 . S
N649 C653 1.279 . S
C650 C648 1.348 . S
C650 C652 1.353 1_565 S
C650 H692 0.929 . S
C651 C648 1.356 . S
C651 C653 1.358 1_565 S
C651 H693 0.930 . S
C652 N649 1.314 . S
C652 C650 1.353 1_545 S
C652 H694 0.930 . S
C653 N649 1.279 . S
C653 C651 1.358 1_545 S
C653 H695 0.930 . S
C654 C655 1.348 . S
C654 C656 1.356 . S
C654 O679 1.325 . S
C655 C654 1.348 . S
C655 C657 1.353 1_565 S
C655 H696 0.929 1_565 S
C656 C654 1.356 . S
C656 C658 1.358 . S
C656 H697 0.930 . S
C657 C655 1.353 1_545 S
C657 N659 1.298 1_545 S
C657 H698 0.948 . S
C658 C656 1.358 . S
C658 N659 1.279 . S
C658 H699 0.930 . S
N659 C657 1.298 1_565 S
N659 C658 1.279 . S
C660 C662 1.353 . S
C660 N663 1.314 . S
C660 H666 0.872 1_545 S
C661 N663 1.279 . S
C661 C664 1.358 . S
C661 H667 0.930 . S
C662 C660 1.353 . S
C662 C665 1.348 . S
C662 H700 0.929 . S
N663 Li618 1.990 1_545 S
N663 C660 1.314 . S
N663 C661 1.279 . S
C664 C661 1.358 . S
C664 C665 1.356 . S
C664 H701 0.930 . S
C665 C662 1.348 . S
C665 C664 1.356 . S
H666 C660 0.872 1_565 S
H667 C661 0.930 . S
C668 N669 1.314 . S
C668 C670 1.353 . S
C668 H674 0.930 . S
N669 Li619 1.990 . S
N669 C668 1.314 . S
N669 C672 1.279 . S
C670 C668 1.353 . S
C670 C673 1.348 . S
C670 H702 0.929 . S
C671 C672 1.358 . S
C671 C673 1.356 . S
C671 H703 0.930 . S
C672 N669 1.279 . S
C672 C671 1.358 . S
C672 H675 0.930 . S
C673 C670 1.348 . S
C673 C671 1.356 . S
H674 C668 0.930 . S
H675 C672 0.930 . S
O676 Li616 1.956 . S
O676 Li617 1.970 . S
O676 Li618 1.961 . S
O676 C620 1.325 . S
O677 Li616 1.970 . S
O677 Li617 1.956 . S
O677 Li619 1.961 . S
O677 C626 1.325 . S
O678 Li616 1.961 . S
O678 Li618 1.956 . S
O678 Li619 1.970 . S
O678 C648 1.325 . S
O679 Li617 1.961 . S
O679 Li618 1.970 . S
O679 Li619 1.956 . S
O679 C654 1.325 . S
H680 C622 0.929 . S
H681 C623 0.930 . S
H682 C624 0.930 . S
H683 C625 0.930 . S
H684 C627 0.930 . S
H685 C629 0.929 . S
H686 C630 0.930 . S
H687 C631 0.930 . S
H688 C634 0.930 . S
H689 C637 0.929 . S
H690 C642 0.929 . S
H691 C643 0.930 . S
H692 C650 0.929 . S
H693 C651 0.930 . S
H694 C652 0.930 . S
H695 C653 0.930 . S
H696 C655 0.929 1_545 S
H697 C656 0.930 . S
H698 C657 0.948 . S
H699 C658 0.930 . S
H700 C662 0.929 . S
H701 C664 0.930 . S
H702 C670 0.929 . S
H703 C671 0.930 . S
Li704 N721 1.990 . S
Li704 O764 1.956 . S
Li704 O765 1.970 . S
Li704 O766 1.961 . S
Li705 N729 1.990 . S
Li705 O764 1.970 . S
Li705 O765 1.956 . S
Li705 O767 1.961 . S
Li706 N751 1.990 1_455 S
Li706 O764 1.961 . S
Li706 O766 1.956 . S
Li706 O767 1.970 . S
Li707 N757 1.990 . S
Li707 O765 1.961 . S
Li707 O766 1.970 . S
Li707 O767 1.956 . S
C708 C710 1.348 . S
C708 C711 1.356 . S
C708 O764 1.325 . S
N709 C712 1.314 . S
N709 C713 1.279 . S
C710 C708 1.348 . S
C710 C712 1.353 . S
C710 H768 0.929 . S
C711 C708 1.356 . S
C711 C713 1.358 . S
C711 H769 0.930 . S
C712 N709 1.314 . S
C712 C710 1.353 . S
C712 H770 0.930 . S
C713 N709 1.279 . S
C713 C711 1.358 . S
C713 H771 0.930 . S
C714 C717 1.348 . S
C714 C718 1.356 . S
C714 O765 1.325 . S
C715 N716 1.279 . S
C715 C718 1.358 . S
C715 H772 0.930 . S
N716 C715 1.279 . S
N716 C719 1.314 . S
C717 C714 1.348 . S
C717 C719 1.353 . S
C717 H773 0.929 . S
C718 C714 1.356 . S
C718 C715 1.358 . S
C718 H774 0.930 . S
C719 N716 1.314 . S
C719 C717 1.353 . S
C719 H775 0.930 . S
C720 N721 1.314 . S
C720 C725 1.353 . S
C720 H726 0.930 . S
N721 Li704 1.990 . S
N721 C720 1.314 . S
N721 C723 1.279 . S
C722 C723 1.358 . S
C722 C724 1.356 . S
C722 H776 0.930 . S
C723 N721 1.279 . S
C723 C722 1.358 . S
C723 H727 0.930 . S
C724 C722 1.356 . S
C724 C725 1.348 . S
C725 C720 1.353 . S
C725 C724 1.348 . S
C725 H777 0.929 . S
H726 C720 0.930 . S
H727 C723 0.930 . S
C728 N729 1.314 . S
C728 C730 1.353 . S
C728 H734 0.930 . S
N729 Li705 1.990 . S
N729 C728 1.314 . S
N729 C732 1.279 . S
C730 C728 1.353 . S
C730 C733 1.348 . S
C730 H778 0.929 . S
C731 C732 1.358 . S
C731 C733 1.356 . S
C731 H779 0.930 . S
C732 N729 1.279 . S
C732 C731 1.358 . S
C732 H735 0.930 . S
C733 C730 1.348 . S
C733 C731 1.356 . S
H734 C728 0.930 . S
H735 C732 0.930 . S
C736 C738 1.348 . S
C736 C739 1.356 . S
C736 O766 1.325 . S
N737 C740 1.314 . S
N737 C741 1.279 . S
C738 C736 1.348 . S
C738 C740 1.353 1_455 S
C738 H780 0.929 . S
C739 C736 1.356 . S
C739 C741 1.358 1_455 S
C739 H781 0.930 . S
C740 N737 1.314 . S
C740 C738 1.353 1_655 S
C740 H782 0.930 . S
C741 N737 1.279 . S
C741 C739 1.358 1_655 S
C741 H783 0.930 . S
C742 C743 1.348 . S
C742 C744 1.356 . S
C742 O767 1.325 . S
C743 C742 1.348 . S
C743 C745 1.359 . S
C743 H784 0.929 1_455 S
C744 C742 1.356 . S
C744 C746 1.358 . S
C744 H785 0.930 . S
C745 C743 1.359 . S
C745 N747 1.316 . S
C745 H786 0.921 1_455 S
C746 C744 1.358 . S
C746 N747 1.279 . S
C746 H787 0.930 . S
N747 C745 1.316 . S
N747 C746 1.279 . S
C748 C750 1.353 . S
C748 N751 1.314 . S
C748 H754 0.930 1_655 S
C749 N751 1.279 . S
C749 C752 1.358 . S
C749 H755 0.930 . S
C750 C748 1.353 . S
C750 C753 1.348 . S
C750 H788 0.929 . S
N751 Li706 1.990 1_655 S
N751 C748 1.314 . S
N751 C749 1.279 . S
C752 C749 1.358 . S
C752 C753 1.356 . S
C752 H789 0.930 . S
C753 C750 1.348 . S
C753 C752 1.356 . S
H754 C748 0.930 1_455 S
H755 C749 0.930 . S
C756 N757 1.314 . S
C756 C758 1.353 . S
C756 H762 0.930 . S
N757 Li707 1.990 . S
N757 C756 1.314 . S
N757 C760 1.279 . S
C758 C756 1.353 . S
C758 C761 1.348 . S
C758 H790 0.929 . S
C759 C760 1.358 . S
C759 C761 1.356 . S
C759 H791 0.930 . S
C760 N757 1.279 . S
C760 C759 1.358 . S
C760 H763 0.930 . S
C761 C758 1.348 . S
C761 C759 1.356 . S
H762 C756 0.930 . S
H763 C760 0.930 . S
O764 Li704 1.956 . S
O764 Li705 1.970 . S
O764 Li706 1.961 . S
O764 C708 1.325 . S
O765 Li704 1.970 . S
O765 Li705 1.956 . S
O765 Li707 1.961 . S
O765 C714 1.325 . S
O766 Li704 1.961 . S
O766 Li706 1.956 . S
O766 Li707 1.970 . S
O766 C736 1.325 . S
O767 Li705 1.961 . S
O767 Li706 1.970 . S
O767 Li707 1.956 . S
O767 C742 1.325 . S
H768 C710 0.929 . S
H769 C711 0.930 . S
H770 C712 0.930 . S
H771 C713 0.930 . S
H772 C715 0.930 . S
H773 C717 0.929 . S
H774 C718 0.930 . S
H775 C719 0.930 . S
H776 C722 0.930 . S
H777 C725 0.929 . S
H778 C730 0.929 . S
H779 C731 0.930 . S
H780 C738 0.929 . S
H781 C739 0.930 . S
H782 C740 0.930 . S
H783 C741 0.930 . S
H784 C743 0.929 1_655 S
H785 C744 0.930 . S
H786 C745 0.921 1_655 S
H787 C746 0.930 . S
H788 C750 0.929 . S
H789 C752 0.930 . S
H790 C758 0.929 . S
H791 C759 0.930 . S
Li792 N809 1.990 1_565 S
Li792 O852 1.956 . S
Li792 O853 1.970 . S
Li792 O854 1.961 . S
Li793 N817 1.990 . S
Li793 O852 1.970 . S
Li793 O853 1.956 . S
Li793 O855 1.961 . S
Li794 N839 1.990 . S
Li794 O852 1.961 . S
Li794 O854 1.956 . S
Li794 O855 1.970 . S
Li795 N845 1.990 . S
Li795 O853 1.961 . S
Li795 O854 1.970 . S
Li795 O855 1.956 . S
C796 C798 1.348 . S
C796 C799 1.356 . S
C796 O852 1.325 . S
N797 C800 1.314 . S
N797 C801 1.279 . S
C798 C796 1.348 . S
C798 C800 1.353 . S
C798 H856 0.929 . S
C799 C796 1.356 . S
C799 C801 1.358 . S
C799 H857 0.930 . S
C800 N797 1.314 . S
C800 C798 1.353 . S
C800 H858 0.930 . S
C801 N797 1.279 . S
C801 C799 1.358 . S
C801 H859 0.930 . S
C802 C805 1.348 . S
C802 C806 1.356 . S
C802 O853 1.325 . S
C803 N804 1.279 . S
C803 C806 1.358 . S
C803 H860 0.930 . S
N804 C803 1.279 . S
N804 C807 1.314 . S
C805 C802 1.348 . S
C805 C807 1.353 . S
C805 H861 0.929 . S
C806 C802 1.356 . S
C806 C803 1.358 . S
C806 H862 0.930 . S
C807 N804 1.314 . S
C807 C805 1.353 . S
C807 H863 0.930 1_565 S
C808 N809 1.314 . S
C808 C813 1.353 . S
C808 H814 0.930 . S
N809 Li792 1.990 1_545 S
N809 C808 1.314 . S
N809 C811 1.279 . S
C810 C811 1.358 . S
C810 C812 1.356 . S
C810 H864 0.930 . S
C811 N809 1.279 . S
C811 C810 1.358 . S
C811 H815 0.930 1_545 S
C812 C810 1.356 . S
C812 C813 1.348 . S
C813 C808 1.353 . S
C813 C812 1.348 . S
C813 H865 0.929 . S
H814 C808 0.930 . S
H815 C811 0.930 1_565 S
C816 N817 1.314 . S
C816 C818 1.353 . S
C816 H822 0.930 . S
N817 Li793 1.990 . S
N817 C816 1.314 . S
N817 C820 1.279 . S
C818 C816 1.353 . S
C818 C821 1.348 . S
C818 H866 0.929 . S
C819 C820 1.358 . S
C819 C821 1.356 . S
C819 H867 0.930 . S
C820 N817 1.279 . S
C820 C819 1.358 . S
C820 H823 0.930 . S
C821 C818 1.348 . S
C821 C819 1.356 . S
H822 C816 0.930 . S
H823 C820 0.930 . S
C824 C826 1.348 . S
C824 C827 1.356 . S
C824 O854 1.325 . S
N825 C828 1.314 1_545 S
N825 C829 1.279 . S
C826 C824 1.348 . S
C826 C828 1.353 . S
C826 H868 0.929 . S
C827 C824 1.356 . S
C827 C829 1.358 1_565 S
C827 H869 0.930 . S
C828 N825 1.314 1_565 S
C828 C826 1.353 . S
C828 H870 0.930 . S
C829 N825 1.279 . S
C829 C827 1.358 1_545 S
C829 H871 0.930 . S
C830 C831 1.348 . S
C830 C832 1.356 . S
C830 O855 1.325 . S
C831 C830 1.348 . S
C831 C833 1.353 . S
C831 H872 0.929 . S
C832 C830 1.356 . S
C832 C834 1.358 . S
C832 H873 0.930 . S
C833 C831 1.353 . S
C833 N835 1.314 . S
C833 H874 0.930 . S
C834 C832 1.358 . S
C834 N835 1.279 . S
C834 H875 0.930 . S
N835 C833 1.314 . S
N835 C834 1.279 . S
C836 C838 1.353 . S
C836 N839 1.314 . S
C836 H842 0.930 . S
C837 N839 1.279 . S
C837 C840 1.358 . S
C837 H843 0.930 . S
C838 C836 1.353 . S
C838 C841 1.348 . S
C838 H876 0.929 . S
N839 Li794 1.990 . S
N839 C836 1.314 . S
N839 C837 1.279 . S
C840 C837 1.358 . S
C840 C841 1.356 . S
C840 H877 0.930 . S
C841 C838 1.348 . S
C841 C840 1.356 . S
H842 C836 0.930 . S
H843 C837 0.930 . S
C844 N845 1.314 . S
C844 C846 1.353 . S
C844 H850 0.930 . S
N845 Li795 1.990 . S
N845 C844 1.314 . S
N845 C848 1.279 . S
C846 C844 1.353 . S
C846 C849 1.348 . S
C846 H878 0.929 . S
C847 C848 1.358 . S
C847 C849 1.356 . S
C847 H879 0.930 . S
C848 N845 1.279 . S
C848 C847 1.358 . S
C848 H851 0.930 . S
C849 C846 1.348 . S
C849 C847 1.356 . S
H850 C844 0.930 . S
H851 C848 0.930 . S
O852 Li792 1.956 . S
O852 Li793 1.970 . S
O852 Li794 1.961 . S
O852 C796 1.325 . S
O853 Li792 1.970 . S
O853 Li793 1.956 . S
O853 Li795 1.961 . S
O853 C802 1.325 . S
O854 Li792 1.961 . S
O854 Li794 1.956 . S
O854 Li795 1.970 . S
O854 C824 1.325 . S
O855 Li793 1.961 . S
O855 Li794 1.970 . S
O855 Li795 1.956 . S
O855 C830 1.325 . S
H856 C798 0.929 . S
H857 C799 0.930 . S
H858 C800 0.930 . S
H859 C801 0.930 . S
H860 C803 0.930 . S
H861 C805 0.929 . S
H862 C806 0.930 . S
H863 C807 0.930 1_545 S
H864 C810 0.930 . S
H865 C813 0.929 . S
H866 C818 0.929 . S
H867 C819 0.930 . S
H868 C826 0.929 . S
H869 C827 0.930 . S
H870 C828 0.930 . S
H871 C829 0.930 . S
H872 C831 0.929 . S
H873 C832 0.930 . S
H874 C833 0.930 . S
H875 C834 0.930 . S
H876 C838 0.929 . S
H877 C840 0.930 . S
H878 C846 0.929 . S
H879 C847 0.930 . S
Li880 N897 1.990 . S
Li880 O940 1.956 . S
Li880 O941 1.970 . S
Li880 O942 1.961 . S
Li881 N905 1.990 1_455 S
Li881 O940 1.970 . S
Li881 O941 1.956 . S
Li881 O943 1.961 . S
Li882 N927 1.990 . S
Li882 O940 1.961 . S
Li882 O942 1.956 . S
Li882 O943 1.970 . S
Li883 N933 1.990 . S
Li883 O941 1.961 . S
Li883 O942 1.970 . S
Li883 O943 1.956 . S
C884 C886 1.348 . S
C884 C887 1.356 . S
C884 O940 1.325 . S
N885 C888 1.314 . S
N885 C889 1.279 . S
C886 C884 1.348 . S
C886 C888 1.353 . S
C886 H944 0.929 . S
C887 C884 1.356 . S
C887 C889 1.358 . S
C887 H945 0.930 . S
C888 N885 1.314 . S
C888 C886 1.353 . S
C888 H946 0.930 1_455 S
C889 N885 1.279 . S
C889 C887 1.358 . S
C889 H947 0.930 . S
C890 C893 1.348 . S
C890 C894 1.356 . S
C890 O941 1.325 . S
C891 N892 1.279 . S
C891 C894 1.358 . S
C891 H948 0.930 . S
N892 C891 1.279 . S
N892 C895 1.314 . S
C893 C890 1.348 . S
C893 C895 1.353 . S
C893 H949 0.929 . S
C894 C890 1.356 . S
C894 C891 1.358 . S
C894 H950 0.930 . S
C895 N892 1.314 . S
C895 C893 1.353 . S
C895 H951 0.930 . S
C896 N897 1.314 . S
C896 C901 1.353 . S
C896 H902 0.930 . S
N897 Li880 1.990 . S
N897 C896 1.314 . S
N897 C899 1.279 . S
C898 C899 1.358 . S
C898 C900 1.356 . S
C898 H952 0.930 . S
C899 N897 1.279 . S
C899 C898 1.358 . S
C899 H903 0.930 . S
C900 C898 1.356 . S
C900 C901 1.348 . S
C901 C896 1.353 . S
C901 C900 1.348 . S
C901 H953 0.929 . S
H902 C896 0.930 . S
H903 C899 0.930 . S
C904 N905 1.314 . S
C904 C906 1.353 . S
C904 H910 0.930 . S
N905 Li881 1.990 1_655 S
N905 C904 1.314 . S
N905 C908 1.279 . S
C906 C904 1.353 . S
C906 C909 1.348 . S
C906 H954 0.929 . S
C907 C908 1.358 . S
C907 C909 1.356 . S
C907 H955 0.930 . S
C908 N905 1.279 . S
C908 C907 1.358 . S
C908 H911 0.930 1_655 S
C909 C906 1.348 . S
C909 C907 1.356 . S
H910 C904 0.930 . S
H911 C908 0.930 1_455 S
C912 C914 1.348 . S
C912 C915 1.356 . S
C912 O942 1.325 . S
N913 C916 1.314 . S
N913 C917 1.279 . S
C914 C912 1.348 . S
C914 C916 1.353 . S
C914 H956 0.929 . S
C915 C912 1.356 . S
C915 C917 1.358 . S
C915 H957 0.930 . S
C916 N913 1.314 . S
C916 C914 1.353 . S
C916 H958 0.930 . S
C917 N913 1.279 . S
C917 C915 1.358 . S
C917 H959 0.930 . S
C918 C919 1.348 . S
C918 C920 1.356 . S
C918 O943 1.325 . S
C919 C918 1.348 . S
C919 C921 1.353 . S
C919 H960 0.929 . S
C920 C918 1.356 . S
C920 C922 1.358 1_455 S
C920 H961 0.930 . S
C921 C919 1.353 . S
C921 N923 1.314 1_455 S
C921 H962 0.930 . S
C922 C920 1.358 1_655 S
C922 N923 1.279 . S
C922 H963 0.930 . S
N923 C921 1.314 1_655 S
N923 C922 1.279 . S
C924 C926 1.353 . S
C924 N927 1.314 . S
C924 H930 0.930 . S
C925 N927 1.279 . S
C925 C928 1.358 . S
C925 H931 0.930 . S
C926 C924 1.353 . S
C926 C929 1.348 . S
C926 H964 0.929 . S
N927 Li882 1.990 . S
N927 C924 1.314 . S
N927 C925 1.279 . S
C928 C925 1.358 . S
C928 C929 1.356 . S
C928 H965 0.930 . S
C929 C926 1.348 . S
C929 C928 1.356 . S
H930 C924 0.930 . S
H931 C925 0.930 . S
C932 N933 1.314 . S
C932 C934 1.353 . S
C932 H938 0.930 . S
N933 Li883 1.990 . S
N933 C932 1.314 . S
N933 C936 1.279 . S
C934 C932 1.353 . S
C934 C937 1.348 . S
C934 H966 0.929 . S
C935 C936 1.358 . S
C935 C937 1.356 . S
C935 H967 0.930 . S
C936 N933 1.279 . S
C936 C935 1.358 . S
C936 H939 0.930 . S
C937 C934 1.348 . S
C937 C935 1.356 . S
H938 C932 0.930 . S
H939 C936 0.930 . S
O940 Li880 1.956 . S
O940 Li881 1.970 . S
O940 Li882 1.961 . S
O940 C884 1.325 . S
O941 Li880 1.970 . S
O941 Li881 1.956 . S
O941 Li883 1.961 . S
O941 C890 1.325 . S
O942 Li880 1.961 . S
O942 Li882 1.956 . S
O942 Li883 1.970 . S
O942 C912 1.325 . S
O943 Li881 1.961 . S
O943 Li882 1.970 . S
O943 Li883 1.956 . S
O943 C918 1.325 . S
H944 C886 0.929 . S
H945 C887 0.930 . S
H946 C888 0.930 1_655 S
H947 C889 0.930 . S
H948 C891 0.930 . S
H949 C893 0.929 . S
H950 C894 0.930 . S
H951 C895 0.930 . S
H952 C898 0.930 . S
H953 C901 0.929 . S
H954 C906 0.929 . S
H955 C907 0.930 . S
H956 C914 0.929 . S
H957 C915 0.930 . S
H958 C916 0.930 . S
H959 C917 0.930 . S
H960 C919 0.929 . S
H961 C920 0.930 . S
H962 C921 0.930 . S
H963 C922 0.930 . S
H964 C926 0.929 . S
H965 C928 0.930 . S
H966 C934 0.929 . S
H967 C935 0.930 . S
Li968 N985 1.990 . S
Li968 O1028 1.956 . S
Li968 O1029 1.970 . S
Li968 O1030 1.961 . S
Li969 N993 1.990 . S
Li969 O1028 1.970 . S
Li969 O1029 1.956 . S
Li969 O1031 1.961 . S
Li970 N1015 1.990 . S
Li970 O1028 1.961 . S
Li970 O1030 1.956 . S
Li970 O1031 1.970 . S
Li971 N1021 1.990 . S
Li971 O1029 1.961 . S
Li971 O1030 1.970 . S
Li971 O1031 1.956 . S
C972 C974 1.348 . S
C972 C975 1.356 . S
C972 O1028 1.325 . S
N973 C976 1.314 . S
N973 C977 1.279 . S
C974 C972 1.348 . S
C974 C976 1.353 . S
C974 H1032 0.929 . S
C975 C972 1.356 . S
C975 C977 1.358 . S
C975 H1033 0.930 . S
C976 N973 1.314 . S
C976 C974 1.353 . S
C976 H1034 0.930 . S
C977 N973 1.279 . S
C977 C975 1.358 . S
C977 H1035 0.930 . S
C978 C981 1.348 . S
C978 C982 1.356 . S
C978 O1029 1.325 . S
C979 N980 1.279 . S
C979 C982 1.358 . S
C979 H1036 0.930 . S
N980 C979 1.279 . S
N980 C983 1.314 . S
C981 C978 1.348 . S
C981 C983 1.353 . S
C981 H1037 0.929 . S
C982 C978 1.356 . S
C982 C979 1.358 . S
C982 H1038 0.930 . S
C983 N980 1.314 . S
C983 C981 1.353 . S
C983 H1039 0.930 . S
C984 N985 1.314 . S
C984 C989 1.353 . S
C984 H990 0.930 . S
N985 Li968 1.990 . S
N985 C984 1.314 . S
N985 C987 1.279 . S
C986 C987 1.358 . S
C986 C988 1.356 . S
C986 H1040 0.930 . S
C987 N985 1.279 . S
C987 C986 1.358 . S
C987 H991 0.930 . S
C988 C986 1.356 . S
C988 C989 1.348 . S
C989 C984 1.353 . S
C989 C988 1.348 . S
C989 H1041 0.929 . S
H990 C984 0.930 . S
H991 C987 0.930 . S
C992 N993 1.314 . S
C992 C994 1.353 . S
C992 H998 0.930 . S
N993 Li969 1.990 . S
N993 C992 1.314 . S
N993 C996 1.279 . S
C994 C992 1.353 . S
C994 C997 1.348 . S
C994 H1042 0.929 . S
C995 C996 1.358 . S
C995 C997 1.356 . S
C995 H1043 0.930 . S
C996 N993 1.279 . S
C996 C995 1.358 . S
C996 H999 0.930 . S
C997 C994 1.348 . S
C997 C995 1.356 . S
H998 C992 0.930 . S
H999 C996 0.930 . S
C1000 C1002 1.348 . S
C1000 C1003 1.356 . S
C1000 O1030 1.325 . S
N1001 C1004 1.314 . S
N1001 C1005 1.279 . S
C1002 C1000 1.348 . S
C1002 C1004 1.353 . S
C1002 H1044 0.929 . S
C1003 C1000 1.356 . S
C1003 C1005 1.358 . S
C1003 H1045 0.930 . S
C1004 N1001 1.314 . S
C1004 C1002 1.353 . S
C1004 H1046 0.930 . S
C1005 N1001 1.279 . S
C1005 C1003 1.358 . S
C1005 H1047 0.930 . S
C1006 C1007 1.348 . S
C1006 C1008 1.356 . S
C1006 O1031 1.325 . S
C1007 C1006 1.348 . S
C1007 C1009 1.353 . S
C1007 H1048 0.929 . S
C1008 C1006 1.356 . S
C1008 C1010 1.358 . S
C1008 H1049 0.930 . S
C1009 C1007 1.353 . S
C1009 N1011 1.314 . S
C1009 H1050 0.930 . S
C1010 C1008 1.358 . S
C1010 N1011 1.279 . S
C1010 H1051 0.930 . S
N1011 C1009 1.314 . S
N1011 C1010 1.279 . S
C1012 C1014 1.353 . S
C1012 N1015 1.314 . S
C1012 H1018 0.930 . S
C1013 N1015 1.279 . S
C1013 C1016 1.358 . S
C1013 H1019 0.930 . S
C1014 C1012 1.353 . S
C1014 C1017 1.348 . S
C1014 H1052 0.929 . S
N1015 Li970 1.990 . S
N1015 C1012 1.314 . S
N1015 C1013 1.279 . S
C1016 C1013 1.358 . S
C1016 C1017 1.356 . S
C1016 H1053 0.930 . S
C1017 C1014 1.348 . S
C1017 C1016 1.356 . S
H1018 C1012 0.930 . S
H1019 C1013 0.930 . S
C1020 N1021 1.314 . S
C1020 C1022 1.353 . S
C1020 H1026 0.930 . S
N1021 Li971 1.990 . S
N1021 C1020 1.314 . S
N1021 C1024 1.279 . S
C1022 C1020 1.353 . S
C1022 C1025 1.348 . S
C1022 H1054 0.929 . S
C1023 C1024 1.358 . S
C1023 C1025 1.356 . S
C1023 H1055 0.930 . S
C1024 N1021 1.279 . S
C1024 C1023 1.358 . S
C1024 H1027 0.930 . S
C1025 C1022 1.348 . S
C1025 C1023 1.356 . S
H1026 C1020 0.930 . S
H1027 C1024 0.930 . S
O1028 Li968 1.956 . S
O1028 Li969 1.970 . S
O1028 Li970 1.961 . S
O1028 C972 1.325 . S
O1029 Li968 1.970 . S
O1029 Li969 1.956 . S
O1029 Li971 1.961 . S
O1029 C978 1.325 . S
O1030 Li968 1.961 . S
O1030 Li970 1.956 . S
O1030 Li971 1.970 . S
O1030 C1000 1.325 . S
O1031 Li969 1.961 . S
O1031 Li970 1.970 . S
O1031 Li971 1.956 . S
O1031 C1006 1.325 . S
H1032 C974 0.929 . S
H1033 C975 0.930 . S
H1034 C976 0.930 . S
H1035 C977 0.930 . S
H1036 C979 0.930 . S
H1037 C981 0.929 . S
H1038 C982 0.930 . S
H1039 C983 0.930 . S
H1040 C986 0.930 . S
H1041 C989 0.929 . S
H1042 C994 0.929 . S
H1043 C995 0.930 . S
H1044 C1002 0.929 . S
H1045 C1003 0.930 . S
H1046 C1004 0.930 . S
H1047 C1005 0.930 . S
H1048 C1007 0.929 . S
H1049 C1008 0.930 . S
H1050 C1009 0.930 . S
H1051 C1010 0.930 . S
H1052 C1014 0.929 . S
H1053 C1016 0.930 . S
H1054 C1022 0.929 . S
H1055 C1023 0.930 . S
Li1056 N1073 1.990 1_545 S
Li1056 O1116 1.956 . S
Li1056 O1117 1.970 . S
Li1056 O1118 1.961 . S
Li1057 N1081 1.990 . S
Li1057 O1116 1.970 . S
Li1057 O1117 1.956 . S
Li1057 O1119 1.961 . S
Li1058 N1103 1.990 . S
Li1058 O1116 1.961 . S
Li1058 O1118 1.956 . S
Li1058 O1119 1.970 . S
Li1059 N1109 1.990 . S
Li1059 O1117 1.961 . S
Li1059 O1118 1.970 . S
Li1059 O1119 1.956 . S
C1060 C1062 1.348 . S
C1060 C1063 1.356 . S
C1060 O1116 1.325 . S
N1061 C1064 1.314 . S
N1061 C1065 1.279 . S
C1062 C1060 1.348 . S
C1062 C1064 1.353 1_545 S
C1062 H1120 0.929 . S
C1063 C1060 1.356 . S
C1063 C1065 1.358 1_545 S
C1063 H1121 0.930 . S
C1064 N1061 1.314 . S
C1064 C1062 1.353 1_565 S
C1064 H1122 0.930 . S
C1065 N1061 1.279 . S
C1065 C1063 1.358 1_565 S
C1065 H1123 0.930 . S
C1066 C1069 1.348 . S
C1066 C1070 1.356 . S
C1066 O1117 1.325 . S
C1067 N1068 1.279 . S
C1067 C1070 1.358 . S
C1067 H1124 0.930 . S
N1068 C1067 1.279 . S
N1068 C1071 1.316 . S
C1069 C1066 1.348 . S
C1069 C1071 1.358 . S
C1069 H1125 0.929 1_545 S
C1070 C1066 1.356 . S
C1070 C1067 1.358 . S
C1070 H1126 0.930 . S
C1071 N1068 1.316 . S
C1071 C1069 1.358 . S
C1071 H1127 0.922 1_545 S
C1072 N1073 1.314 . S
C1072 C1077 1.353 . S
C1072 H1078 0.930 1_565 S
N1073 Li1056 1.990 1_565 S
N1073 C1072 1.314 . S
N1073 C1075 1.279 . S
C1074 C1075 1.358 . S
C1074 C1076 1.356 . S
C1074 H1128 0.930 . S
C1075 N1073 1.279 . S
C1075 C1074 1.358 . S
C1075 H1079 0.930 . S
C1076 C1074 1.356 . S
C1076 C1077 1.348 . S
C1077 C1072 1.353 . S
C1077 C1076 1.348 . S
C1077 H1129 0.929 . S
H1078 C1072 0.930 1_545 S
H1079 C1075 0.930 . S
C1080 N1081 1.314 . S
C1080 C1082 1.353 . S
C1080 H1086 0.930 . S
N1081 Li1057 1.990 . S
N1081 C1080 1.314 . S
N1081 C1084 1.279 . S
C1082 C1080 1.353 . S
C1082 C1085 1.348 . S
C1082 H1130 0.929 . S
C1083 C1084 1.358 . S
C1083 C1085 1.356 . S
C1083 H1131 0.930 . S
C1084 N1081 1.279 . S
C1084 C1083 1.358 . S
C1084 H1087 0.930 . S
C1085 C1082 1.348 . S
C1085 C1083 1.356 . S
H1086 C1080 0.930 . S
H1087 C1084 0.930 . S
C1088 C1090 1.348 . S
C1088 C1091 1.356 . S
C1088 O1118 1.325 . S
N1089 C1092 1.314 . S
N1089 C1093 1.279 . S
C1090 C1088 1.348 . S
C1090 C1092 1.353 . S
C1090 H1132 0.929 . S
C1091 C1088 1.356 . S
C1091 C1093 1.358 . S
C1091 H1133 0.930 . S
C1092 N1089 1.314 . S
C1092 C1090 1.353 . S
C1092 H1134 0.930 . S
C1093 N1089 1.279 . S
C1093 C1091 1.358 . S
C1093 H1135 0.930 . S
C1094 C1095 1.348 . S
C1094 C1096 1.356 . S
C1094 O1119 1.325 . S
C1095 C1094 1.348 . S
C1095 C1097 1.353 . S
C1095 H1136 0.929 . S
C1096 C1094 1.356 . S
C1096 C1098 1.358 . S
C1096 H1137 0.930 . S
C1097 C1095 1.353 . S
C1097 N1099 1.314 . S
C1097 H1138 0.930 . S
C1098 C1096 1.358 . S
C1098 N1099 1.279 . S
C1098 H1139 0.930 . S
N1099 C1097 1.314 . S
N1099 C1098 1.279 . S
C1100 C1102 1.353 . S
C1100 N1103 1.314 . S
C1100 H1106 0.930 . S
C1101 N1103 1.279 . S
C1101 C1104 1.358 . S
C1101 H1107 0.930 . S
C1102 C1100 1.353 . S
C1102 C1105 1.348 . S
C1102 H1140 0.929 . S
N1103 Li1058 1.990 . S
N1103 C1100 1.314 . S
N1103 C1101 1.279 . S
C1104 C1101 1.358 . S
C1104 C1105 1.356 . S
C1104 H1141 0.930 . S
C1105 C1102 1.348 . S
C1105 C1104 1.356 . S
H1106 C1100 0.930 . S
H1107 C1101 0.930 . S
C1108 N1109 1.314 . S
C1108 C1110 1.353 . S
C1108 H1114 0.930 . S
N1109 Li1059 1.990 . S
N1109 C1108 1.314 . S
N1109 C1112 1.279 . S
C1110 C1108 1.353 . S
C1110 C1113 1.348 . S
C1110 H1142 0.929 . S
C1111 C1112 1.358 . S
C1111 C1113 1.356 . S
C1111 H1143 0.930 . S
C1112 N1109 1.279 . S
C1112 C1111 1.358 . S
C1112 H1115 0.930 . S
C1113 C1110 1.348 . S
C1113 C1111 1.356 . S
H1114 C1108 0.930 . S
H1115 C1112 0.930 . S
O1116 Li1056 1.956 . S
O1116 Li1057 1.970 . S
O1116 Li1058 1.961 . S
O1116 C1060 1.325 . S
O1117 Li1056 1.970 . S
O1117 Li1057 1.956 . S
O1117 Li1059 1.961 . S
O1117 C1066 1.325 . S
O1118 Li1056 1.961 . S
O1118 Li1058 1.956 . S
O1118 Li1059 1.970 . S
O1118 C1088 1.325 . S
O1119 Li1057 1.961 . S
O1119 Li1058 1.970 . S
O1119 Li1059 1.956 . S
O1119 C1094 1.325 . S
H1120 C1062 0.929 . S
H1121 C1063 0.930 . S
H1122 C1064 0.930 . S
H1123 C1065 0.930 . S
H1124 C1067 0.930 . S
H1125 C1069 0.929 1_565 S
H1126 C1070 0.930 . S
H1127 C1071 0.922 1_565 S
H1128 C1074 0.930 . S
H1129 C1077 0.929 . S
H1130 C1082 0.929 . S
H1131 C1083 0.930 . S
H1132 C1090 0.929 . S
H1133 C1091 0.930 . S
H1134 C1092 0.930 . S
H1135 C1093 0.930 . S
H1136 C1095 0.929 . S
H1137 C1096 0.930 . S
H1138 C1097 0.930 . S
H1139 C1098 0.930 . S
H1140 C1102 0.929 . S
H1141 C1104 0.930 . S
H1142 C1110 0.929 . S
H1143 C1111 0.930 . S
Li1144 N1161 1.990 1_655 S
Li1144 O1204 1.956 . S
Li1144 O1205 1.970 . S
Li1144 O1206 1.961 . S
Li1145 N1169 1.990 . S
Li1145 O1204 1.970 . S
Li1145 O1205 1.956 . S
Li1145 O1207 1.961 . S
Li1146 N1191 1.990 . S
Li1146 O1204 1.961 . S
Li1146 O1206 1.956 . S
Li1146 O1207 1.970 . S
Li1147 N1197 1.990 . S
Li1147 O1205 1.961 . S
Li1147 O1206 1.970 . S
Li1147 O1207 1.956 . S
C1148 C1150 1.348 . S
C1148 C1151 1.356 . S
C1148 O1204 1.325 . S
N1149 C1152 1.314 . S
N1149 C1153 1.279 . S
C1150 C1148 1.348 . S
C1150 C1152 1.353 1_655 S
C1150 H1208 0.929 . S
C1151 C1148 1.356 . S
C1151 C1153 1.358 1_655 S
C1151 H1209 0.930 . S
C1152 N1149 1.314 . S
C1152 C1150 1.353 1_455 S
C1152 H1210 0.930 . S
C1153 N1149 1.279 . S
C1153 C1151 1.358 1_455 S
C1153 H1211 0.930 . S
C1154 C1157 1.348 . S
C1154 C1158 1.356 . S
C1154 O1205 1.325 . S
C1155 N1156 1.279 . S
C1155 C1158 1.358 . S
C1155 H1212 0.930 . S
N1156 C1155 1.279 . S
N1156 C1159 1.297 1_655 S
C1157 C1154 1.348 . S
C1157 C1159 1.353 1_655 S
C1157 H1213 0.929 1_655 S
C1158 C1154 1.356 . S
C1158 C1155 1.358 . S
C1158 H1214 0.930 . S
C1159 N1156 1.297 1_455 S
C1159 C1157 1.353 1_455 S
C1159 H1215 0.949 . S
C1160 N1161 1.314 . S
C1160 C1165 1.353 . S
C1160 H1166 0.873 1_455 S
N1161 Li1144 1.990 1_455 S
N1161 C1160 1.314 . S
N1161 C1163 1.279 . S
C1162 C1163 1.358 . S
C1162 C1164 1.356 . S
C1162 H1216 0.930 . S
C1163 N1161 1.279 . S
C1163 C1162 1.358 . S
C1163 H1167 0.930 . S
C1164 C1162 1.356 . S
C1164 C1165 1.348 . S
C1165 C1160 1.353 . S
C1165 C1164 1.348 . S
C1165 H1217 0.929 . S
H1166 C1160 0.873 1_655 S
H1167 C1163 0.930 . S
C1168 N1169 1.314 . S
C1168 C1170 1.353 . S
C1168 H1174 0.930 . S
N1169 Li1145 1.990 . S
N1169 C1168 1.314 . S
N1169 C1172 1.279 . S
C1170 C1168 1.353 . S
C1170 C1173 1.348 . S
C1170 H1218 0.929 . S
C1171 C1172 1.358 . S
C1171 C1173 1.356 . S
C1171 H1219 0.930 . S
C1172 N1169 1.279 . S
C1172 C1171 1.358 . S
C1172 H1175 0.930 . S
C1173 C1170 1.348 . S
C1173 C1171 1.356 . S
H1174 C1168 0.930 . S
H1175 C1172 0.930 . S
C1176 C1178 1.348 . S
C1176 C1179 1.356 . S
C1176 O1206 1.325 . S
N1177 C1180 1.314 . S
N1177 C1181 1.279 . S
C1178 C1176 1.348 . S
C1178 C1180 1.353 . S
C1178 H1220 0.929 . S
C1179 C1176 1.356 . S
C1179 C1181 1.358 . S
C1179 H1221 0.930 . S
C1180 N1177 1.314 . S
C1180 C1178 1.353 . S
C1180 H1222 0.930 . S
C1181 N1177 1.279 . S
C1181 C1179 1.358 . S
C1181 H1223 0.930 . S
C1182 C1183 1.348 . S
C1182 C1184 1.356 . S
C1182 O1207 1.325 . S
C1183 C1182 1.348 . S
C1183 C1185 1.353 . S
C1183 H1224 0.929 . S
C1184 C1182 1.356 . S
C1184 C1186 1.358 . S
C1184 H1225 0.930 . S
C1185 C1183 1.353 . S
C1185 N1187 1.314 . S
C1185 H1226 0.930 . S
C1186 C1184 1.358 . S
C1186 N1187 1.279 . S
C1186 H1227 0.930 . S
N1187 C1185 1.314 . S
N1187 C1186 1.279 . S
C1188 C1190 1.353 . S
C1188 N1191 1.314 . S
C1188 H1194 0.930 . S
C1189 N1191 1.279 . S
C1189 C1192 1.358 . S
C1189 H1195 0.930 . S
C1190 C1188 1.353 . S
C1190 C1193 1.348 . S
C1190 H1228 0.929 . S
N1191 Li1146 1.990 . S
N1191 C1188 1.314 . S
N1191 C1189 1.279 . S
C1192 C1189 1.358 . S
C1192 C1193 1.356 . S
C1192 H1229 0.930 . S
C1193 C1190 1.348 . S
C1193 C1192 1.356 . S
H1194 C1188 0.930 . S
H1195 C1189 0.930 . S
C1196 N1197 1.314 . S
C1196 C1198 1.353 . S
C1196 H1202 0.930 . S
N1197 Li1147 1.990 . S
N1197 C1196 1.314 . S
N1197 C1200 1.279 . S
C1198 C1196 1.353 . S
C1198 C1201 1.348 . S
C1198 H1230 0.929 . S
C1199 C1200 1.358 . S
C1199 C1201 1.356 . S
C1199 H1231 0.930 . S
C1200 N1197 1.279 . S
C1200 C1199 1.358 . S
C1200 H1203 0.930 . S
C1201 C1198 1.348 . S
C1201 C1199 1.356 . S
H1202 C1196 0.930 . S
H1203 C1200 0.930 . S
O1204 Li1144 1.956 . S
O1204 Li1145 1.970 . S
O1204 Li1146 1.961 . S
O1204 C1148 1.325 . S
O1205 Li1144 1.970 . S
O1205 Li1145 1.956 . S
O1205 Li1147 1.961 . S
O1205 C1154 1.325 . S
O1206 Li1144 1.961 . S
O1206 Li1146 1.956 . S
O1206 Li1147 1.970 . S
O1206 C1176 1.325 . S
O1207 Li1145 1.961 . S
O1207 Li1146 1.970 . S
O1207 Li1147 1.956 . S
O1207 C1182 1.325 . S
H1208 C1150 0.929 . S
H1209 C1151 0.930 . S
H1210 C1152 0.930 . S
H1211 C1153 0.930 . S
H1212 C1155 0.930 . S
H1213 C1157 0.929 1_455 S
H1214 C1158 0.930 . S
H1215 C1159 0.949 . S
H1216 C1162 0.930 . S
H1217 C1165 0.929 . S
H1218 C1170 0.929 . S
H1219 C1171 0.930 . S
H1220 C1178 0.929 . S
H1221 C1179 0.930 . S
H1222 C1180 0.930 . S
H1223 C1181 0.930 . S
H1224 C1183 0.929 . S
H1225 C1184 0.930 . S
H1226 C1185 0.930 . S
H1227 C1186 0.930 . S
H1228 C1190 0.929 . S
H1229 C1192 0.930 . S
H1230 C1198 0.929 . S
H1231 C1199 0.930 . S
Li1232 N1249 1.990 . S
Li1232 O1292 1.956 . S
Li1232 O1293 1.970 . S
Li1232 O1294 1.961 . S
Li1233 N1257 1.990 . S
Li1233 O1292 1.970 . S
Li1233 O1293 1.956 . S
Li1233 O1295 1.961 . S
Li1234 N1279 1.990 . S
Li1234 O1292 1.961 . S
Li1234 O1294 1.956 . S
Li1234 O1295 1.970 . S
Li1235 N1285 1.990 . S
Li1235 O1293 1.961 . S
Li1235 O1294 1.970 . S
Li1235 O1295 1.956 . S
C1236 C1238 1.348 . S
C1236 C1239 1.356 . S
C1236 O1292 1.325 . S
N1237 C1240 1.314 . S
N1237 C1241 1.279 . S
C1238 C1236 1.348 . S
C1238 C1240 1.353 . S
C1238 H1296 0.929 . S
C1239 C1236 1.356 . S
C1239 C1241 1.358 . S
C1239 H1297 0.930 . S
C1240 N1237 1.314 . S
C1240 C1238 1.353 . S
C1240 H1298 0.930 . S
C1241 N1237 1.279 . S
C1241 C1239 1.358 . S
C1241 H1299 0.930 . S
C1242 C1245 1.348 . S
C1242 C1246 1.356 . S
C1242 O1293 1.325 . S
C1243 N1244 1.279 . S
C1243 C1246 1.358 . S
C1243 H1300 0.930 . S
N1244 C1243 1.279 . S
N1244 C1247 1.314 . S
C1245 C1242 1.348 . S
C1245 C1247 1.353 . S
C1245 H1301 0.929 . S
C1246 C1242 1.356 . S
C1246 C1243 1.358 . S
C1246 H1302 0.930 . S
C1247 N1244 1.314 . S
C1247 C1245 1.353 . S
C1247 H1303 0.930 . S
C1248 N1249 1.314 . S
C1248 C1253 1.353 . S
C1248 H1254 0.930 . S
N1249 Li1232 1.990 . S
N1249 C1248 1.314 . S
N1249 C1251 1.279 . S
C1250 C1251 1.358 . S
C1250 C1252 1.356 . S
C1250 H1304 0.930 . S
C1251 N1249 1.279 . S
C1251 C1250 1.358 . S
C1251 H1255 0.930 . S
C1252 C1250 1.356 . S
C1252 C1253 1.348 . S
C1253 C1248 1.353 . S
C1253 C1252 1.348 . S
C1253 H1305 0.929 . S
H1254 C1248 0.930 . S
H1255 C1251 0.930 . S
C1256 N1257 1.314 . S
C1256 C1258 1.353 . S
C1256 H1262 0.930 . S
N1257 Li1233 1.990 . S
N1257 C1256 1.314 . S
N1257 C1260 1.279 . S
C1258 C1256 1.353 . S
C1258 C1261 1.348 . S
C1258 H1306 0.929 . S
C1259 C1260 1.358 . S
C1259 C1261 1.356 . S
C1259 H1307 0.930 . S
C1260 N1257 1.279 . S
C1260 C1259 1.358 . S
C1260 H1263 0.930 . S
C1261 C1258 1.348 . S
C1261 C1259 1.356 . S
H1262 C1256 0.930 . S
H1263 C1260 0.930 . S
C1264 C1266 1.348 . S
C1264 C1267 1.356 . S
C1264 O1294 1.325 . S
N1265 C1268 1.314 . S
N1265 C1269 1.279 . S
C1266 C1264 1.348 . S
C1266 C1268 1.353 . S
C1266 H1308 0.929 . S
C1267 C1264 1.356 . S
C1267 C1269 1.358 . S
C1267 H1309 0.930 . S
C1268 N1265 1.314 . S
C1268 C1266 1.353 . S
C1268 H1310 0.930 . S
C1269 N1265 1.279 . S
C1269 C1267 1.358 . S
C1269 H1311 0.930 . S
C1270 C1271 1.348 . S
C1270 C1272 1.356 . S
C1270 O1295 1.325 . S
C1271 C1270 1.348 . S
C1271 C1273 1.353 . S
C1271 H1312 0.929 . S
C1272 C1270 1.356 . S
C1272 C1274 1.358 . S
C1272 H1313 0.930 . S
C1273 C1271 1.353 . S
C1273 N1275 1.314 . S
C1273 H1314 0.930 . S
C1274 C1272 1.358 . S
C1274 N1275 1.279 . S
C1274 H1315 0.930 . S
N1275 C1273 1.314 . S
N1275 C1274 1.279 . S
C1276 C1278 1.353 . S
C1276 N1279 1.314 . S
C1276 H1282 0.930 . S
C1277 N1279 1.279 . S
C1277 C1280 1.358 . S
C1277 H1283 0.930 . S
C1278 C1276 1.353 . S
C1278 C1281 1.348 . S
C1278 H1316 0.929 . S
N1279 Li1234 1.990 . S
N1279 C1276 1.314 . S
N1279 C1277 1.279 . S
C1280 C1277 1.358 . S
C1280 C1281 1.356 . S
C1280 H1317 0.930 . S
C1281 C1278 1.348 . S
C1281 C1280 1.356 . S
H1282 C1276 0.930 . S
H1283 C1277 0.930 . S
C1284 N1285 1.314 . S
C1284 C1286 1.353 . S
C1284 H1290 0.930 . S
N1285 Li1235 1.990 . S
N1285 C1284 1.314 . S
N1285 C1288 1.279 . S
C1286 C1284 1.353 . S
C1286 C1289 1.348 . S
C1286 H1318 0.929 . S
C1287 C1288 1.358 . S
C1287 C1289 1.356 . S
C1287 H1319 0.930 . S
C1288 N1285 1.279 . S
C1288 C1287 1.358 . S
C1288 H1291 0.930 . S
C1289 C1286 1.348 . S
C1289 C1287 1.356 . S
H1290 C1284 0.930 . S
H1291 C1288 0.930 . S
O1292 Li1232 1.956 . S
O1292 Li1233 1.970 . S
O1292 Li1234 1.961 . S
O1292 C1236 1.325 . S
O1293 Li1232 1.970 . S
O1293 Li1233 1.956 . S
O1293 Li1235 1.961 . S
O1293 C1242 1.325 . S
O1294 Li1232 1.961 . S
O1294 Li1234 1.956 . S
O1294 Li1235 1.970 . S
O1294 C1264 1.325 . S
O1295 Li1233 1.961 . S
O1295 Li1234 1.970 . S
O1295 Li1235 1.956 . S
O1295 C1270 1.325 . S
H1296 C1238 0.929 . S
H1297 C1239 0.930 . S
H1298 C1240 0.930 . S
H1299 C1241 0.930 . S
H1300 C1243 0.930 . S
H1301 C1245 0.929 . S
H1302 C1246 0.930 . S
H1303 C1247 0.930 . S
H1304 C1250 0.930 . S
H1305 C1253 0.929 . S
H1306 C1258 0.929 . S
H1307 C1259 0.930 . S
H1308 C1266 0.929 . S
H1309 C1267 0.930 . S
H1310 C1268 0.930 . S
H1311 C1269 0.930 . S
H1312 C1271 0.929 . S
H1313 C1272 0.930 . S
H1314 C1273 0.930 . S
H1315 C1274 0.930 . S
H1316 C1278 0.929 . S
H1317 C1280 0.930 . S
H1318 C1286 0.929 . S
H1319 C1287 0.930 . S
Li1320 N1337 1.990 . S
Li1320 O1380 1.956 . S
Li1320 O1381 1.970 . S
Li1320 O1382 1.961 . S
Li1321 N1345 1.990 . S
Li1321 O1380 1.970 . S
Li1321 O1381 1.956 . S
Li1321 O1383 1.961 . S
Li1322 N1367 1.990 . S
Li1322 O1380 1.961 . S
Li1322 O1382 1.956 . S
Li1322 O1383 1.970 . S
Li1323 N1373 1.990 . S
Li1323 O1381 1.961 . S
Li1323 O1382 1.970 . S
Li1323 O1383 1.956 . S
C1324 C1326 1.348 . S
C1324 C1327 1.356 . S
C1324 O1380 1.325 . S
N1325 C1328 1.314 . S
N1325 C1329 1.279 . S
C1326 C1324 1.348 . S
C1326 C1328 1.353 . S
C1326 H1384 0.929 . S
C1327 C1324 1.356 . S
C1327 C1329 1.358 . S
C1327 H1385 0.930 . S
C1328 N1325 1.314 . S
C1328 C1326 1.353 . S
C1328 H1386 0.930 . S
C1329 N1325 1.279 . S
C1329 C1327 1.358 . S
C1329 H1387 0.930 . S
C1330 C1333 1.348 . S
C1330 C1334 1.356 . S
C1330 O1381 1.325 . S
C1331 N1332 1.279 . S
C1331 C1334 1.358 . S
C1331 H1388 0.930 . S
N1332 C1331 1.279 . S
N1332 C1335 1.314 . S
C1333 C1330 1.348 . S
C1333 C1335 1.353 . S
C1333 H1389 0.929 . S
C1334 C1330 1.356 . S
C1334 C1331 1.358 . S
C1334 H1390 0.930 . S
C1335 N1332 1.314 . S
C1335 C1333 1.353 . S
C1335 H1391 0.930 . S
C1336 N1337 1.314 . S
C1336 C1341 1.353 . S
C1336 H1342 0.930 . S
N1337 Li1320 1.990 . S
N1337 C1336 1.314 . S
N1337 C1339 1.279 . S
C1338 C1339 1.358 . S
C1338 C1340 1.356 . S
C1338 H1392 0.930 . S
C1339 N1337 1.279 . S
C1339 C1338 1.358 . S
C1339 H1343 0.930 . S
C1340 C1338 1.356 . S
C1340 C1341 1.348 . S
C1341 C1336 1.353 . S
C1341 C1340 1.348 . S
C1341 H1393 0.929 . S
H1342 C1336 0.930 . S
H1343 C1339 0.930 . S
C1344 N1345 1.314 . S
C1344 C1346 1.353 . S
C1344 H1350 0.930 . S
N1345 Li1321 1.990 . S
N1345 C1344 1.314 . S
N1345 C1348 1.279 . S
C1346 C1344 1.353 . S
C1346 C1349 1.348 . S
C1346 H1394 0.929 . S
C1347 C1348 1.358 . S
C1347 C1349 1.356 . S
C1347 H1395 0.930 . S
C1348 N1345 1.279 . S
C1348 C1347 1.358 . S
C1348 H1351 0.930 . S
C1349 C1346 1.348 . S
C1349 C1347 1.356 . S
H1350 C1344 0.930 . S
H1351 C1348 0.930 . S
C1352 C1354 1.348 . S
C1352 C1355 1.356 . S
C1352 O1382 1.325 . S
N1353 C1356 1.314 . S
N1353 C1357 1.279 . S
C1354 C1352 1.348 . S
C1354 C1356 1.353 . S
C1354 H1396 0.929 . S
C1355 C1352 1.356 . S
C1355 C1357 1.358 . S
C1355 H1397 0.930 . S
C1356 N1353 1.314 . S
C1356 C1354 1.353 . S
C1356 H1398 0.930 . S
C1357 N1353 1.279 . S
C1357 C1355 1.358 . S
C1357 H1399 0.930 . S
C1358 C1359 1.348 . S
C1358 C1360 1.356 . S
C1358 O1383 1.325 . S
C1359 C1358 1.348 . S
C1359 C1361 1.353 . S
C1359 H1400 0.929 . S
C1360 C1358 1.356 . S
C1360 C1362 1.358 . S
C1360 H1401 0.930 . S
C1361 C1359 1.353 . S
C1361 N1363 1.314 . S
C1361 H1402 0.930 . S
C1362 C1360 1.358 . S
C1362 N1363 1.279 . S
C1362 H1403 0.930 . S
N1363 C1361 1.314 . S
N1363 C1362 1.279 . S
C1364 C1366 1.353 . S
C1364 N1367 1.314 . S
C1364 H1370 0.930 . S
C1365 N1367 1.279 . S
C1365 C1368 1.358 . S
C1365 H1371 0.930 . S
C1366 C1364 1.353 . S
C1366 C1369 1.348 . S
C1366 H1404 0.929 . S
N1367 Li1322 1.990 . S
N1367 C1364 1.314 . S
N1367 C1365 1.279 . S
C1368 C1365 1.358 . S
C1368 C1369 1.356 . S
C1368 H1405 0.930 . S
C1369 C1366 1.348 . S
C1369 C1368 1.356 . S
H1370 C1364 0.930 . S
H1371 C1365 0.930 . S
C1372 N1373 1.314 . S
C1372 C1374 1.353 . S
C1372 H1378 0.930 . S
N1373 Li1323 1.990 . S
N1373 C1372 1.314 . S
N1373 C1376 1.279 . S
C1374 C1372 1.353 . S
C1374 C1377 1.348 . S
C1374 H1406 0.929 . S
C1375 C1376 1.358 . S
C1375 C1377 1.356 . S
C1375 H1407 0.930 . S
C1376 N1373 1.279 . S
C1376 C1375 1.358 . S
C1376 H1379 0.930 . S
C1377 C1374 1.348 . S
C1377 C1375 1.356 . S
H1378 C1372 0.930 . S
H1379 C1376 0.930 . S
O1380 Li1320 1.956 . S
O1380 Li1321 1.970 . S
O1380 Li1322 1.961 . S
O1380 C1324 1.325 . S
O1381 Li1320 1.970 . S
O1381 Li1321 1.956 . S
O1381 Li1323 1.961 . S
O1381 C1330 1.325 . S
O1382 Li1320 1.961 . S
O1382 Li1322 1.956 . S
O1382 Li1323 1.970 . S
O1382 C1352 1.325 . S
O1383 Li1321 1.961 . S
O1383 Li1322 1.970 . S
O1383 Li1323 1.956 . S
O1383 C1358 1.325 . S
H1384 C1326 0.929 . S
H1385 C1327 0.930 . S
H1386 C1328 0.930 . S
H1387 C1329 0.930 . S
H1388 C1331 0.930 . S
H1389 C1333 0.929 . S
H1390 C1334 0.930 . S
H1391 C1335 0.930 . S
H1392 C1338 0.930 . S
H1393 C1341 0.929 . S
H1394 C1346 0.929 . S
H1395 C1347 0.930 . S
H1396 C1354 0.929 . S
H1397 C1355 0.930 . S
H1398 C1356 0.930 . S
H1399 C1357 0.930 . S
H1400 C1359 0.929 . S
H1401 C1360 0.930 . S
H1402 C1361 0.930 . S
H1403 C1362 0.930 . S
H1404 C1366 0.929 . S
H1405 C1368 0.930 . S
H1406 C1374 0.929 . S
H1407 C1375 0.930 . S
Li1408 N1425 1.990 . S
Li1408 O1468 1.956 . S
Li1408 O1469 1.970 . S
Li1408 O1470 1.961 . S
Li1409 N1433 1.990 . S
Li1409 O1468 1.970 . S
Li1409 O1469 1.956 . S
Li1409 O1471 1.961 . S
Li1410 N1455 1.990 . S
Li1410 O1468 1.961 . S
Li1410 O1470 1.956 . S
Li1410 O1471 1.970 . S
Li1411 N1461 1.990 1_545 S
Li1411 O1469 1.961 . S
Li1411 O1470 1.970 . S
Li1411 O1471 1.956 . S
C1412 C1414 1.348 . S
C1412 C1415 1.356 . S
C1412 O1468 1.325 . S
N1413 C1416 1.314 . S
N1413 C1417 1.279 . S
C1414 C1412 1.348 . S
C1414 C1416 1.353 . S
C1414 H1472 0.929 . S
C1415 C1412 1.356 . S
C1415 C1417 1.358 . S
C1415 H1473 0.930 . S
C1416 N1413 1.314 . S
C1416 C1414 1.353 . S
C1416 H1474 0.930 . S
C1417 N1413 1.279 . S
C1417 C1415 1.358 . S
C1417 H1475 0.930 . S
C1418 C1421 1.348 . S
C1418 C1422 1.356 . S
C1418 O1469 1.325 . S
C1419 N1420 1.279 . S
C1419 C1422 1.358 1_565 S
C1419 H1476 0.930 . S
N1420 C1419 1.279 . S
N1420 C1423 1.314 1_565 S
C1421 C1418 1.348 . S
C1421 C1423 1.353 . S
C1421 H1477 0.929 . S
C1422 C1418 1.356 . S
C1422 C1419 1.358 1_545 S
C1422 H1478 0.930 . S
C1423 N1420 1.314 1_545 S
C1423 C1421 1.353 . S
C1423 H1479 0.930 . S
C1424 N1425 1.314 . S
C1424 C1429 1.353 . S
C1424 H1430 0.930 . S
N1425 Li1408 1.990 . S
N1425 C1424 1.314 . S
N1425 C1427 1.279 . S
C1426 C1427 1.358 . S
C1426 C1428 1.356 . S
C1426 H1480 0.930 . S
C1427 N1425 1.279 . S
C1427 C1426 1.358 . S
C1427 H1431 0.930 . S
C1428 C1426 1.356 . S
C1428 C1429 1.348 . S
C1429 C1424 1.353 . S
C1429 C1428 1.348 . S
C1429 H1481 0.929 . S
H1430 C1424 0.930 . S
H1431 C1427 0.930 . S
C1432 N1433 1.314 . S
C1432 C1434 1.353 . S
C1432 H1438 0.930 . S
N1433 Li1409 1.990 . S
N1433 C1432 1.314 . S
N1433 C1436 1.279 . S
C1434 C1432 1.353 . S
C1434 C1437 1.348 . S
C1434 H1482 0.929 . S
C1435 C1436 1.358 . S
C1435 C1437 1.356 . S
C1435 H1483 0.930 . S
C1436 N1433 1.279 . S
C1436 C1435 1.358 . S
C1436 H1439 0.930 . S
C1437 C1434 1.348 . S
C1437 C1435 1.356 . S
H1438 C1432 0.930 . S
H1439 C1436 0.930 . S
C1440 C1442 1.348 . S
C1440 C1443 1.356 . S
C1440 O1470 1.325 . S
N1441 C1444 1.314 . S
N1441 C1445 1.279 . S
C1442 C1440 1.348 . S
C1442 C1444 1.353 . S
C1442 H1484 0.929 . S
C1443 C1440 1.356 . S
C1443 C1445 1.358 . S
C1443 H1485 0.930 . S
C1444 N1441 1.314 . S
C1444 C1442 1.353 . S
C1444 H1486 0.930 1_545 S
C1445 N1441 1.279 . S
C1445 C1443 1.358 . S
C1445 H1487 0.930 . S
C1446 C1447 1.348 . S
C1446 C1448 1.356 . S
C1446 O1471 1.325 . S
C1447 C1446 1.348 . S
C1447 C1449 1.353 . S
C1447 H1488 0.929 . S
C1448 C1446 1.356 . S
C1448 C1450 1.358 . S
C1448 H1489 0.930 . S
C1449 C1447 1.353 . S
C1449 N1451 1.314 . S
C1449 H1490 0.930 . S
C1450 C1448 1.358 . S
C1450 N1451 1.279 . S
C1450 H1491 0.930 . S
N1451 C1449 1.314 . S
N1451 C1450 1.279 . S
C1452 C1454 1.353 . S
C1452 N1455 1.314 . S
C1452 H1458 0.930 . S
C1453 N1455 1.279 . S
C1453 C1456 1.358 . S
C1453 H1459 0.930 . S
C1454 C1452 1.353 . S
C1454 C1457 1.348 . S
C1454 H1492 0.929 . S
N1455 Li1410 1.990 . S
N1455 C1452 1.314 . S
N1455 C1453 1.279 . S
C1456 C1453 1.358 . S
C1456 C1457 1.356 . S
C1456 H1493 0.930 . S
C1457 C1454 1.348 . S
C1457 C1456 1.356 . S
H1458 C1452 0.930 . S
H1459 C1453 0.930 . S
C1460 N1461 1.314 . S
C1460 C1462 1.353 . S
C1460 H1466 0.930 . S
N1461 Li1411 1.990 1_565 S
N1461 C1460 1.314 . S
N1461 C1464 1.279 . S
C1462 C1460 1.353 . S
C1462 C1465 1.348 . S
C1462 H1494 0.929 . S
C1463 C1464 1.358 . S
C1463 C1465 1.356 . S
C1463 H1495 0.930 . S
C1464 N1461 1.279 . S
C1464 C1463 1.358 . S
C1464 H1467 0.930 1_565 S
C1465 C1462 1.348 . S
C1465 C1463 1.356 . S
H1466 C1460 0.930 . S
H1467 C1464 0.930 1_545 S
O1468 Li1408 1.956 . S
O1468 Li1409 1.970 . S
O1468 Li1410 1.961 . S
O1468 C1412 1.325 . S
O1469 Li1408 1.970 . S
O1469 Li1409 1.956 . S
O1469 Li1411 1.961 . S
O1469 C1418 1.325 . S
O1470 Li1408 1.961 . S
O1470 Li1410 1.956 . S
O1470 Li1411 1.970 . S
O1470 C1440 1.325 . S
O1471 Li1409 1.961 . S
O1471 Li1410 1.970 . S
O1471 Li1411 1.956 . S
O1471 C1446 1.325 . S
H1472 C1414 0.929 . S
H1473 C1415 0.930 . S
H1474 C1416 0.930 . S
H1475 C1417 0.930 . S
H1476 C1419 0.930 . S
H1477 C1421 0.929 . S
H1478 C1422 0.930 . S
H1479 C1423 0.930 . S
H1480 C1426 0.930 . S
H1481 C1429 0.929 . S
H1482 C1434 0.929 . S
H1483 C1435 0.930 . S
H1484 C1442 0.929 . S
H1485 C1443 0.930 . S
H1486 C1444 0.930 1_565 S
H1487 C1445 0.930 . S
H1488 C1447 0.929 . S
H1489 C1448 0.930 . S
H1490 C1449 0.930 . S
H1491 C1450 0.930 . S
H1492 C1454 0.929 . S
H1493 C1456 0.930 . S
H1494 C1462 0.929 . S
H1495 C1463 0.930 . S
Li1496 N1513 1.990 . S
Li1496 O1556 1.956 . S
Li1496 O1557 1.970 . S
Li1496 O1558 1.961 . S
Li1497 N1521 1.990 . S
Li1497 O1556 1.970 . S
Li1497 O1557 1.956 . S
Li1497 O1559 1.961 . S
Li1498 N1543 1.990 1_655 S
Li1498 O1556 1.961 . S
Li1498 O1558 1.956 . S
Li1498 O1559 1.970 . S
Li1499 N1549 1.990 . S
Li1499 O1557 1.961 . S
Li1499 O1558 1.970 . S
Li1499 O1559 1.956 . S
C1500 C1502 1.348 . S
C1500 C1503 1.356 . S
C1500 O1556 1.325 . S
N1501 C1504 1.314 1_455 S
N1501 C1505 1.279 . S
C1502 C1500 1.348 . S
C1502 C1504 1.353 . S
C1502 H1560 0.929 . S
C1503 C1500 1.356 . S
C1503 C1505 1.358 1_655 S
C1503 H1561 0.930 . S
C1504 N1501 1.314 1_655 S
C1504 C1502 1.353 . S
C1504 H1562 0.930 . S
C1505 N1501 1.279 . S
C1505 C1503 1.358 1_455 S
C1505 H1563 0.930 . S
C1506 C1509 1.348 . S
C1506 C1510 1.356 . S
C1506 O1557 1.325 . S
C1507 N1508 1.279 . S
C1507 C1510 1.358 . S
C1507 H1564 0.930 . S
N1508 C1507 1.279 . S
N1508 C1511 1.314 . S
C1509 C1506 1.348 . S
C1509 C1511 1.353 . S
C1509 H1565 0.929 . S
C1510 C1506 1.356 . S
C1510 C1507 1.358 . S
C1510 H1566 0.930 . S
C1511 N1508 1.314 . S
C1511 C1509 1.353 . S
C1511 H1567 0.930 . S
C1512 N1513 1.314 . S
C1512 C1517 1.353 . S
C1512 H1518 0.930 . S
N1513 Li1496 1.990 . S
N1513 C1512 1.314 . S
N1513 C1515 1.279 . S
C1514 C1515 1.358 . S
C1514 C1516 1.356 . S
C1514 H1568 0.930 . S
C1515 N1513 1.279 . S
C1515 C1514 1.358 . S
C1515 H1519 0.930 . S
C1516 C1514 1.356 . S
C1516 C1517 1.348 . S
C1517 C1512 1.353 . S
C1517 C1516 1.348 . S
C1517 H1569 0.929 . S
H1518 C1512 0.930 . S
H1519 C1515 0.930 . S
C1520 N1521 1.314 . S
C1520 C1522 1.353 . S
C1520 H1526 0.930 . S
N1521 Li1497 1.990 . S
N1521 C1520 1.314 . S
N1521 C1524 1.279 . S
C1522 C1520 1.353 . S
C1522 C1525 1.348 . S
C1522 H1570 0.929 . S
C1523 C1524 1.358 . S
C1523 C1525 1.356 . S
C1523 H1571 0.930 . S
C1524 N1521 1.279 . S
C1524 C1523 1.358 . S
C1524 H1527 0.930 . S
C1525 C1522 1.348 . S
C1525 C1523 1.356 . S
H1526 C1520 0.930 . S
H1527 C1524 0.930 . S
C1528 C1530 1.348 . S
C1528 C1531 1.356 . S
C1528 O1558 1.325 . S
N1529 C1532 1.314 . S
N1529 C1533 1.279 . S
C1530 C1528 1.348 . S
C1530 C1532 1.353 . S
C1530 H1572 0.929 . S
C1531 C1528 1.356 . S
C1531 C1533 1.358 . S
C1531 H1573 0.930 . S
C1532 N1529 1.314 . S
C1532 C1530 1.353 . S
C1532 H1574 0.930 . S
C1533 N1529 1.279 . S
C1533 C1531 1.358 . S
C1533 H1575 0.930 . S
C1534 C1535 1.348 . S
C1534 C1536 1.356 . S
C1534 O1559 1.325 . S
C1535 C1534 1.348 . S
C1535 C1537 1.353 . S
C1535 H1576 0.929 . S
C1536 C1534 1.356 . S
C1536 C1538 1.358 . S
C1536 H1577 0.930 . S
C1537 C1535 1.353 . S
C1537 N1539 1.314 . S
C1537 H1578 0.930 1_655 S
C1538 C1536 1.358 . S
C1538 N1539 1.279 . S
C1538 H1579 0.930 . S
N1539 C1537 1.314 . S
N1539 C1538 1.279 . S
C1540 C1542 1.353 . S
C1540 N1543 1.314 . S
C1540 H1546 0.930 . S
C1541 N1543 1.279 . S
C1541 C1544 1.358 . S
C1541 H1547 0.930 1_455 S
C1542 C1540 1.353 . S
C1542 C1545 1.348 . S
C1542 H1580 0.929 . S
N1543 Li1498 1.990 1_455 S
N1543 C1540 1.314 . S
N1543 C1541 1.279 . S
C1544 C1541 1.358 . S
C1544 C1545 1.356 . S
C1544 H1581 0.930 . S
C1545 C1542 1.348 . S
C1545 C1544 1.356 . S
H1546 C1540 0.930 . S
H1547 C1541 0.930 1_655 S
C1548 N1549 1.314 . S
C1548 C1550 1.353 . S
C1548 H1554 0.930 . S
N1549 Li1499 1.990 . S
N1549 C1548 1.314 . S
N1549 C1552 1.279 . S
C1550 C1548 1.353 . S
C1550 C1553 1.348 . S
C1550 H1582 0.929 . S
C1551 C1552 1.358 . S
C1551 C1553 1.356 . S
C1551 H1583 0.930 . S
C1552 N1549 1.279 . S
C1552 C1551 1.358 . S
C1552 H1555 0.930 . S
C1553 C1550 1.348 . S
C1553 C1551 1.356 . S
H1554 C1548 0.930 . S
H1555 C1552 0.930 . S
O1556 Li1496 1.956 . S
O1556 Li1497 1.970 . S
O1556 Li1498 1.961 . S
O1556 C1500 1.325 . S
O1557 Li1496 1.970 . S
O1557 Li1497 1.956 . S
O1557 Li1499 1.961 . S
O1557 C1506 1.325 . S
O1558 Li1496 1.961 . S
O1558 Li1498 1.956 . S
O1558 Li1499 1.970 . S
O1558 C1528 1.325 . S
O1559 Li1497 1.961 . S
O1559 Li1498 1.970 . S
O1559 Li1499 1.956 . S
O1559 C1534 1.325 . S
H1560 C1502 0.929 . S
H1561 C1503 0.930 . S
H1562 C1504 0.930 . S
H1563 C1505 0.930 . S
H1564 C1507 0.930 . S
H1565 C1509 0.929 . S
H1566 C1510 0.930 . S
H1567 C1511 0.930 . S
H1568 C1514 0.930 . S
H1569 C1517 0.929 . S
H1570 C1522 0.929 . S
H1571 C1523 0.930 . S
H1572 C1530 0.929 . S
H1573 C1531 0.930 . S
H1574 C1532 0.930 . S
H1575 C1533 0.930 . S
H1576 C1535 0.929 . S
H1577 C1536 0.930 . S
H1578 C1537 0.930 1_455 S
H1579 C1538 0.930 . S
H1580 C1542 0.929 . S
H1581 C1544 0.930 . S
H1582 C1550 0.929 . S
H1583 C1551 0.930 . S
H1584 C1611 0.929 . S
N1585 C1610 1.433 . S
N1585 C1616 1.435 . S
N1585 C1622 1.423 . S
H1586 C1612 0.930 . S
H1587 C1615 0.931 . S
H1588 C1614 0.929 . S
H1589 C1617 0.930 . S
H1590 C1618 0.932 . S
H1591 C1621 0.929 . S
H1592 C1620 0.931 . S
H1593 C1623 0.929 . S
H1594 C1627 0.932 . S
H1595 C1624 0.931 . S
H1596 C1626 0.929 . S
H1597 C1629 0.929 . S
H1598 C1630 0.930 . S
H1599 C1632 0.929 . S
H1600 C1633 0.931 . S
H1601 C1635 0.930 . S
H1602 C1636 0.932 . S
H1603 C1638 0.931 . S
H1604 C1639 0.929 . S
H1605 C1641 0.929 . S
H1606 C1642 0.931 . S
H1607 C1644 0.929 . S
N1608 C1628 1.433 . S
N1608 C1634 1.435 . S
N1608 C1640 1.423 . S
H1609 C1645 0.932 . S
C1610 N1585 1.433 . S
C1610 C1611 1.363 . S
C1610 C1615 1.370 . S
C1611 H1584 0.929 . S
C1611 C1610 1.363 . S
C1611 C1612 1.385 . S
C1612 H1586 0.930 . S
C1612 C1611 1.385 . S
C1612 C1613 1.357 . S
C1613 C1612 1.357 . S
C1613 C1614 1.406 . S
C1614 H1588 0.929 . S
C1614 C1613 1.406 . S
C1614 C1615 1.391 . S
C1615 H1587 0.931 . S
C1615 C1610 1.370 . S
C1615 C1614 1.391 . S
C1616 N1585 1.435 . S
C1616 C1617 1.358 . S
C1616 C1621 1.371 . S
C1617 H1589 0.930 . S
C1617 C1616 1.358 . S
C1617 C1618 1.405 . S
C1618 H1590 0.932 . S
C1618 C1617 1.405 . S
C1618 C1619 1.383 . S
C1619 C1618 1.383 . S
C1619 C1620 1.393 . S
C1620 H1592 0.931 . S
C1620 C1619 1.393 . S
C1620 C1621 1.382 . S
C1621 H1591 0.929 . S
C1621 C1616 1.371 . S
C1621 C1620 1.382 . S
C1622 N1585 1.423 . S
C1622 C1623 1.362 . S
C1622 C1627 1.388 . S
C1623 H1593 0.929 . S
C1623 C1622 1.362 . S
C1623 C1624 1.376 . S
C1624 H1595 0.931 . S
C1624 C1623 1.376 . S
C1624 C1625 1.396 . S
C1625 C1624 1.396 . S
C1625 C1626 1.348 . S
C1625 C1643 1.472 . S
C1626 H1596 0.929 . S
C1626 C1625 1.348 . S
C1626 C1627 1.443 . S
C1627 H1594 0.932 . S
C1627 C1622 1.388 . S
C1627 C1626 1.443 . S
C1628 N1608 1.433 . S
C1628 C1629 1.363 . S
C1628 C1633 1.370 . S
C1629 H1597 0.929 . S
C1629 C1628 1.363 . S
C1629 C1630 1.385 . S
C1630 H1598 0.930 . S
C1630 C1629 1.385 . S
C1630 C1631 1.357 . S
C1631 C1630 1.357 . S
C1631 C1632 1.406 . S
C1632 H1599 0.929 . S
C1632 C1631 1.406 . S
C1632 C1633 1.391 . S
C1633 H1600 0.931 . S
C1633 C1628 1.370 . S
C1633 C1632 1.391 . S
C1634 N1608 1.435 . S
C1634 C1635 1.358 . S
C1634 C1639 1.371 . S
C1635 H1601 0.930 . S
C1635 C1634 1.358 . S
C1635 C1636 1.405 . S
C1636 H1602 0.932 . S
C1636 C1635 1.405 . S
C1636 C1637 1.383 . S
C1637 C1636 1.383 . S
C1637 C1638 1.393 . S
C1638 H1603 0.931 . S
C1638 C1637 1.393 . S
C1638 C1639 1.382 . S
C1639 H1604 0.929 . S
C1639 C1634 1.371 . S
C1639 C1638 1.382 . S
C1640 N1608 1.423 . S
C1640 C1641 1.362 . S
C1640 C1645 1.388 . S
C1641 H1605 0.929 . S
C1641 C1640 1.362 . S
C1641 C1642 1.376 . S
C1642 H1606 0.931 . S
C1642 C1641 1.376 . S
C1642 C1643 1.396 . S
C1643 C1625 1.472 . S
C1643 C1642 1.396 . S
C1643 C1644 1.348 . S
C1644 H1607 0.929 . S
C1644 C1643 1.348 . S
C1644 C1645 1.443 . S
C1645 H1609 0.932 . S
C1645 C1640 1.388 . S
C1645 C1644 1.443 . S
H1646 C1673 0.929 . S
N1647 C1672 1.433 . S
N1647 C1678 1.435 . S
N1647 C1684 1.423 . S
H1648 C1674 0.930 . S
H1649 C1677 0.931 . S
H1650 C1676 0.929 . S
H1651 C1679 0.930 . S
H1652 C1680 0.932 . S
H1653 C1683 0.929 . S
H1654 C1682 0.931 . S
H1655 C1685 0.929 . S
H1656 C1689 0.932 . S
H1657 C1686 0.931 . S
H1658 C1688 0.929 . S
H1659 C1691 0.929 . S
H1660 C1692 0.930 . S
H1661 C1694 0.929 . S
H1662 C1695 0.931 . S
H1663 C1697 0.930 . S
H1664 C1698 0.932 . S
H1665 C1700 0.931 . S
H1666 C1701 0.929 . S
H1667 C1703 0.929 . S
H1668 C1704 0.931 . S
H1669 C1706 0.929 . S
N1670 C1690 1.433 . S
N1670 C1696 1.435 . S
N1670 C1702 1.423 . S
H1671 C1707 0.932 . S
C1672 N1647 1.433 . S
C1672 C1673 1.363 . S
C1672 C1677 1.370 . S
C1673 H1646 0.929 . S
C1673 C1672 1.363 . S
C1673 C1674 1.385 . S
C1674 H1648 0.930 . S
C1674 C1673 1.385 . S
C1674 C1675 1.357 . S
C1675 C1674 1.357 . S
C1675 C1676 1.406 . S
C1676 H1650 0.929 . S
C1676 C1675 1.406 . S
C1676 C1677 1.391 . S
C1677 H1649 0.931 . S
C1677 C1672 1.370 . S
C1677 C1676 1.391 . S
C1678 N1647 1.435 . S
C1678 C1679 1.358 . S
C1678 C1683 1.371 . S
C1679 H1651 0.930 . S
C1679 C1678 1.358 . S
C1679 C1680 1.405 . S
C1680 H1652 0.932 . S
C1680 C1679 1.405 . S
C1680 C1681 1.383 . S
C1681 C1680 1.383 . S
C1681 C1682 1.393 . S
C1682 H1654 0.931 . S
C1682 C1681 1.393 . S
C1682 C1683 1.382 . S
C1683 H1653 0.929 . S
C1683 C1678 1.371 . S
C1683 C1682 1.382 . S
C1684 N1647 1.423 . S
C1684 C1685 1.362 . S
C1684 C1689 1.388 . S
C1685 H1655 0.929 . S
C1685 C1684 1.362 . S
C1685 C1686 1.376 . S
C1686 H1657 0.931 . S
C1686 C1685 1.376 . S
C1686 C1687 1.396 . S
C1687 C1686 1.396 . S
C1687 C1688 1.348 . S
C1687 C1705 1.472 . S
C1688 H1658 0.929 . S
C1688 C1687 1.348 . S
C1688 C1689 1.443 . S
C1689 H1656 0.932 . S
C1689 C1684 1.388 . S
C1689 C1688 1.443 . S
C1690 N1670 1.433 . S
C1690 C1691 1.363 . S
C1690 C1695 1.370 . S
C1691 H1659 0.929 . S
C1691 C1690 1.363 . S
C1691 C1692 1.385 . S
C1692 H1660 0.930 . S
C1692 C1691 1.385 . S
C1692 C1693 1.357 . S
C1693 C1692 1.357 . S
C1693 C1694 1.406 . S
C1694 H1661 0.929 . S
C1694 C1693 1.406 . S
C1694 C1695 1.391 . S
C1695 H1662 0.931 . S
C1695 C1690 1.370 . S
C1695 C1694 1.391 . S
C1696 N1670 1.435 . S
C1696 C1697 1.358 . S
C1696 C1701 1.371 . S
C1697 H1663 0.930 . S
C1697 C1696 1.358 . S
C1697 C1698 1.405 . S
C1698 H1664 0.932 . S
C1698 C1697 1.405 . S
C1698 C1699 1.383 . S
C1699 C1698 1.383 . S
C1699 C1700 1.393 . S
C1700 H1665 0.931 . S
C1700 C1699 1.393 . S
C1700 C1701 1.382 . S
C1701 H1666 0.929 . S
C1701 C1696 1.371 . S
C1701 C1700 1.382 . S
C1702 N1670 1.423 . S
C1702 C1703 1.362 . S
C1702 C1707 1.388 . S
C1703 H1667 0.929 . S
C1703 C1702 1.362 . S
C1703 C1704 1.376 . S
C1704 H1668 0.931 . S
C1704 C1703 1.376 . S
C1704 C1705 1.396 . S
C1705 C1687 1.472 . S
C1705 C1704 1.396 . S
C1705 C1706 1.348 . S
C1706 H1669 0.929 . S
C1706 C1705 1.348 . S
C1706 C1707 1.443 . S
C1707 H1671 0.932 . S
C1707 C1702 1.388 . S
C1707 C1706 1.443 . S
H1708 C1735 0.929 . S
N1709 C1734 1.433 . S
N1709 C1740 1.435 . S
N1709 C1746 1.423 . S
H1710 C1736 0.930 . S
H1711 C1739 0.931 . S
H1712 C1738 0.929 . S
H1713 C1741 0.930 . S
H1714 C1742 0.932 . S
H1715 C1745 0.929 . S
H1716 C1744 0.931 . S
H1717 C1747 0.929 . S
H1718 C1751 0.932 . S
H1719 C1748 0.931 . S
H1720 C1750 0.929 . S
H1721 C1753 0.929 . S
H1722 C1754 0.930 . S
H1723 C1756 0.929 . S
H1724 C1757 0.931 . S
H1725 C1759 0.930 . S
H1726 C1760 0.932 . S
H1727 C1762 0.931 . S
H1728 C1763 0.929 . S
H1729 C1765 0.929 . S
H1730 C1766 0.931 . S
H1731 C1768 0.929 . S
N1732 C1752 1.433 . S
N1732 C1758 1.435 . S
N1732 C1764 1.423 . S
H1733 C1769 0.932 . S
C1734 N1709 1.433 . S
C1734 C1735 1.363 . S
C1734 C1739 1.370 . S
C1735 H1708 0.929 . S
C1735 C1734 1.363 . S
C1735 C1736 1.385 . S
C1736 H1710 0.930 . S
C1736 C1735 1.385 . S
C1736 C1737 1.357 . S
C1737 C1736 1.357 . S
C1737 C1738 1.406 . S
C1738 H1712 0.929 . S
C1738 C1737 1.406 . S
C1738 C1739 1.391 . S
C1739 H1711 0.931 . S
C1739 C1734 1.370 . S
C1739 C1738 1.391 . S
C1740 N1709 1.435 . S
C1740 C1741 1.358 . S
C1740 C1745 1.371 . S
C1741 H1713 0.930 . S
C1741 C1740 1.358 . S
C1741 C1742 1.405 . S
C1742 H1714 0.932 . S
C1742 C1741 1.405 . S
C1742 C1743 1.383 . S
C1743 C1742 1.383 . S
C1743 C1744 1.393 . S
C1744 H1716 0.931 . S
C1744 C1743 1.393 . S
C1744 C1745 1.382 . S
C1745 H1715 0.929 . S
C1745 C1740 1.371 . S
C1745 C1744 1.382 . S
C1746 N1709 1.423 . S
C1746 C1747 1.362 . S
C1746 C1751 1.388 . S
C1747 H1717 0.929 . S
C1747 C1746 1.362 . S
C1747 C1748 1.376 . S
C1748 H1719 0.931 . S
C1748 C1747 1.376 . S
C1748 C1749 1.396 . S
C1749 C1748 1.396 . S
C1749 C1750 1.348 . S
C1749 C1767 1.472 . S
C1750 H1720 0.929 . S
C1750 C1749 1.348 . S
C1750 C1751 1.443 . S
C1751 H1718 0.932 . S
C1751 C1746 1.388 . S
C1751 C1750 1.443 . S
C1752 N1732 1.433 . S
C1752 C1753 1.363 . S
C1752 C1757 1.370 . S
C1753 H1721 0.929 . S
C1753 C1752 1.363 . S
C1753 C1754 1.385 . S
C1754 H1722 0.930 . S
C1754 C1753 1.385 . S
C1754 C1755 1.357 . S
C1755 C1754 1.357 . S
C1755 C1756 1.406 . S
C1756 H1723 0.929 . S
C1756 C1755 1.406 . S
C1756 C1757 1.391 . S
C1757 H1724 0.931 . S
C1757 C1752 1.370 . S
C1757 C1756 1.391 . S
C1758 N1732 1.435 . S
C1758 C1759 1.358 . S
C1758 C1763 1.371 . S
C1759 H1725 0.930 . S
C1759 C1758 1.358 . S
C1759 C1760 1.405 . S
C1760 H1726 0.932 . S
C1760 C1759 1.405 . S
C1760 C1761 1.383 . S
C1761 C1760 1.383 . S
C1761 C1762 1.393 . S
C1762 H1727 0.931 . S
C1762 C1761 1.393 . S
C1762 C1763 1.382 . S
C1763 H1728 0.929 . S
C1763 C1758 1.371 . S
C1763 C1762 1.382 . S
C1764 N1732 1.423 . S
C1764 C1765 1.362 . S
C1764 C1769 1.388 . S
C1765 H1729 0.929 . S
C1765 C1764 1.362 . S
C1765 C1766 1.376 . S
C1766 H1730 0.931 . S
C1766 C1765 1.376 . S
C1766 C1767 1.396 . S
C1767 C1749 1.472 . S
C1767 C1766 1.396 . S
C1767 C1768 1.348 . S
C1768 H1731 0.929 . S
C1768 C1767 1.348 . S
C1768 C1769 1.443 . S
C1769 H1733 0.932 . S
C1769 C1764 1.388 . S
C1769 C1768 1.443 . S
H1770 C1797 0.929 . S
N1771 C1796 1.433 . S
N1771 C1802 1.435 . S
N1771 C1808 1.423 . S
H1772 C1798 0.930 . S
H1773 C1801 0.931 . S
H1774 C1800 0.929 . S
H1775 C1803 0.930 . S
H1776 C1804 0.932 . S
H1777 C1807 0.929 . S
H1778 C1806 0.931 . S
H1779 C1809 0.929 . S
H1780 C1813 0.932 . S
H1781 C1810 0.931 . S
H1782 C1812 0.929 . S
H1783 C1815 0.929 . S
H1784 C1816 0.930 . S
H1785 C1818 0.929 . S
H1786 C1819 0.931 . S
H1787 C1821 0.930 . S
H1788 C1822 0.932 . S
H1789 C1824 0.931 . S
H1790 C1825 0.929 . S
H1791 C1827 0.929 . S
H1792 C1828 0.931 . S
H1793 C1830 0.929 . S
N1794 C1814 1.433 . S
N1794 C1820 1.435 . S
N1794 C1826 1.423 . S
H1795 C1831 0.932 . S
C1796 N1771 1.433 . S
C1796 C1797 1.363 . S
C1796 C1801 1.370 . S
C1797 H1770 0.929 . S
C1797 C1796 1.363 . S
C1797 C1798 1.385 . S
C1798 H1772 0.930 . S
C1798 C1797 1.385 . S
C1798 C1799 1.357 . S
C1799 C1798 1.357 . S
C1799 C1800 1.406 . S
C1800 H1774 0.929 . S
C1800 C1799 1.406 . S
C1800 C1801 1.391 . S
C1801 H1773 0.931 . S
C1801 C1796 1.370 . S
C1801 C1800 1.391 . S
C1802 N1771 1.435 . S
C1802 C1803 1.358 . S
C1802 C1807 1.371 . S
C1803 H1775 0.930 . S
C1803 C1802 1.358 . S
C1803 C1804 1.405 . S
C1804 H1776 0.932 . S
C1804 C1803 1.405 . S
C1804 C1805 1.383 . S
C1805 C1804 1.383 . S
C1805 C1806 1.393 . S
C1806 H1778 0.931 . S
C1806 C1805 1.393 . S
C1806 C1807 1.382 . S
C1807 H1777 0.929 . S
C1807 C1802 1.371 . S
C1807 C1806 1.382 . S
C1808 N1771 1.423 . S
C1808 C1809 1.362 . S
C1808 C1813 1.388 . S
C1809 H1779 0.929 . S
C1809 C1808 1.362 . S
C1809 C1810 1.376 . S
C1810 H1781 0.931 . S
C1810 C1809 1.376 . S
C1810 C1811 1.396 . S
C1811 C1810 1.396 . S
C1811 C1812 1.348 . S
C1811 C1829 1.472 . S
C1812 H1782 0.929 . S
C1812 C1811 1.348 . S
C1812 C1813 1.443 . S
C1813 H1780 0.932 . S
C1813 C1808 1.388 . S
C1813 C1812 1.443 . S
C1814 N1794 1.433 . S
C1814 C1815 1.363 . S
C1814 C1819 1.370 . S
C1815 H1783 0.929 . S
C1815 C1814 1.363 . S
C1815 C1816 1.385 . S
C1816 H1784 0.930 . S
C1816 C1815 1.385 . S
C1816 C1817 1.357 . S
C1817 C1816 1.357 . S
C1817 C1818 1.406 . S
C1818 H1785 0.929 . S
C1818 C1817 1.406 . S
C1818 C1819 1.391 . S
C1819 H1786 0.931 . S
C1819 C1814 1.370 . S
C1819 C1818 1.391 . S
C1820 N1794 1.435 . S
C1820 C1821 1.358 . S
C1820 C1825 1.371 . S
C1821 H1787 0.930 . S
C1821 C1820 1.358 . S
C1821 C1822 1.405 . S
C1822 H1788 0.932 . S
C1822 C1821 1.405 . S
C1822 C1823 1.383 . S
C1823 C1822 1.383 . S
C1823 C1824 1.393 . S
C1824 H1789 0.931 . S
C1824 C1823 1.393 . S
C1824 C1825 1.382 . S
C1825 H1790 0.929 . S
C1825 C1820 1.371 . S
C1825 C1824 1.382 . S
C1826 N1794 1.423 . S
C1826 C1827 1.362 . S
C1826 C1831 1.388 . S
C1827 H1791 0.929 . S
C1827 C1826 1.362 . S
C1827 C1828 1.376 . S
C1828 H1792 0.931 . S
C1828 C1827 1.376 . S
C1828 C1829 1.396 . S
C1829 C1811 1.472 . S
C1829 C1828 1.396 . S
C1829 C1830 1.348 . S
C1830 H1793 0.929 . S
C1830 C1829 1.348 . S
C1830 C1831 1.443 . S
C1831 H1795 0.932 . S
C1831 C1826 1.388 . S
C1831 C1830 1.443 . S
H1832 C1859 0.929 . S
N1833 C1858 1.433 . S
N1833 C1864 1.435 . S
N1833 C1870 1.423 . S
H1834 C1860 0.930 . S
H1835 C1863 0.931 . S
H1836 C1862 0.929 . S
H1837 C1865 0.930 . S
H1838 C1866 0.932 . S
H1839 C1869 0.929 . S
H1840 C1868 0.931 . S
H1841 C1871 0.929 . S
H1842 C1875 0.932 . S
H1843 C1872 0.931 . S
H1844 C1874 0.929 . S
H1845 C1877 0.929 . S
H1846 C1878 0.930 . S
H1847 C1880 0.929 . S
H1848 C1881 0.931 . S
H1849 C1883 0.930 . S
H1850 C1884 0.932 . S
H1851 C1886 0.931 . S
H1852 C1887 0.929 . S
H1853 C1889 0.929 . S
H1854 C1890 0.931 . S
H1855 C1892 0.929 . S
N1856 C1876 1.433 . S
N1856 C1882 1.435 . S
N1856 C1888 1.423 . S
H1857 C1893 0.932 . S
C1858 N1833 1.433 . S
C1858 C1859 1.363 . S
C1858 C1863 1.370 . S
C1859 H1832 0.929 . S
C1859 C1858 1.363 . S
C1859 C1860 1.385 . S
C1860 H1834 0.930 . S
C1860 C1859 1.385 . S
C1860 C1861 1.357 . S
C1861 C1860 1.357 . S
C1861 C1862 1.406 . S
C1862 H1836 0.929 . S
C1862 C1861 1.406 . S
C1862 C1863 1.391 . S
C1863 H1835 0.931 . S
C1863 C1858 1.370 . S
C1863 C1862 1.391 . S
C1864 N1833 1.435 . S
C1864 C1865 1.358 . S
C1864 C1869 1.371 . S
C1865 H1837 0.930 . S
C1865 C1864 1.358 . S
C1865 C1866 1.405 . S
C1866 H1838 0.932 . S
C1866 C1865 1.405 . S
C1866 C1867 1.383 . S
C1867 C1866 1.383 . S
C1867 C1868 1.393 . S
C1868 H1840 0.931 . S
C1868 C1867 1.393 . S
C1868 C1869 1.382 . S
C1869 H1839 0.929 . S
C1869 C1864 1.371 . S
C1869 C1868 1.382 . S
C1870 N1833 1.423 . S
C1870 C1871 1.362 . S
C1870 C1875 1.388 . S
C1871 H1841 0.929 . S
C1871 C1870 1.362 . S
C1871 C1872 1.376 . S
C1872 H1843 0.931 . S
C1872 C1871 1.376 . S
C1872 C1873 1.396 . S
C1873 C1872 1.396 . S
C1873 C1874 1.348 . S
C1873 C1891 1.472 . S
C1874 H1844 0.929 . S
C1874 C1873 1.348 . S
C1874 C1875 1.443 . S
C1875 H1842 0.932 . S
C1875 C1870 1.388 . S
C1875 C1874 1.443 . S
C1876 N1856 1.433 . S
C1876 C1877 1.363 . S
C1876 C1881 1.370 . S
C1877 H1845 0.929 . S
C1877 C1876 1.363 . S
C1877 C1878 1.385 . S
C1878 H1846 0.930 . S
C1878 C1877 1.385 . S
C1878 C1879 1.357 . S
C1879 C1878 1.357 . S
C1879 C1880 1.406 . S
C1880 H1847 0.929 . S
C1880 C1879 1.406 . S
C1880 C1881 1.391 . S
C1881 H1848 0.931 . S
C1881 C1876 1.370 . S
C1881 C1880 1.391 . S
C1882 N1856 1.435 . S
C1882 C1883 1.358 . S
C1882 C1887 1.371 . S
C1883 H1849 0.930 . S
C1883 C1882 1.358 . S
C1883 C1884 1.405 . S
C1884 H1850 0.932 . S
C1884 C1883 1.405 . S
C1884 C1885 1.383 . S
C1885 C1884 1.383 . S
C1885 C1886 1.393 . S
C1886 H1851 0.931 . S
C1886 C1885 1.393 . S
C1886 C1887 1.382 . S
C1887 H1852 0.929 . S
C1887 C1882 1.371 . S
C1887 C1886 1.382 . S
C1888 N1856 1.423 . S
C1888 C1889 1.362 . S
C1888 C1893 1.388 . S
C1889 H1853 0.929 . S
C1889 C1888 1.362 . S
C1889 C1890 1.376 . S
C1890 H1854 0.931 . S
C1890 C1889 1.376 . S
C1890 C1891 1.396 . S
C1891 C1873 1.472 . S
C1891 C1890 1.396 . S
C1891 C1892 1.348 . S
C1892 H1855 0.929 . S
C1892 C1891 1.348 . S
C1892 C1893 1.443 . S
C1893 H1857 0.932 . S
C1893 C1888 1.388 . S
C1893 C1892 1.443 . S
H1894 C1921 0.929 . S
N1895 C1920 1.433 . S
N1895 C1926 1.435 . S
N1895 C1932 1.423 . S
H1896 C1922 0.930 . S
H1897 C1925 0.931 . S
H1898 C1924 0.929 . S
H1899 C1927 0.930 . S
H1900 C1928 0.932 . S
H1901 C1931 0.929 . S
H1902 C1930 0.931 . S
H1903 C1933 0.929 . S
H1904 C1937 0.932 . S
H1905 C1934 0.931 . S
H1906 C1936 0.929 . S
H1907 C1939 0.929 . S
H1908 C1940 0.930 . S
H1909 C1942 0.929 . S
H1910 C1943 0.931 . S
H1911 C1945 0.930 . S
H1912 C1946 0.932 . S
H1913 C1948 0.931 . S
H1914 C1949 0.929 . S
H1915 C1951 0.929 . S
H1916 C1952 0.931 . S
H1917 C1954 0.929 . S
N1918 C1938 1.433 . S
N1918 C1944 1.435 . S
N1918 C1950 1.423 . S
H1919 C1955 0.932 . S
C1920 N1895 1.433 . S
C1920 C1921 1.363 . S
C1920 C1925 1.370 . S
C1921 H1894 0.929 . S
C1921 C1920 1.363 . S
C1921 C1922 1.385 . S
C1922 H1896 0.930 . S
C1922 C1921 1.385 . S
C1922 C1923 1.357 . S
C1923 C1922 1.357 . S
C1923 C1924 1.406 . S
C1924 H1898 0.929 . S
C1924 C1923 1.406 . S
C1924 C1925 1.391 . S
C1925 H1897 0.931 . S
C1925 C1920 1.370 . S
C1925 C1924 1.391 . S
C1926 N1895 1.435 . S
C1926 C1927 1.358 . S
C1926 C1931 1.371 . S
C1927 H1899 0.930 . S
C1927 C1926 1.358 . S
C1927 C1928 1.405 . S
C1928 H1900 0.932 . S
C1928 C1927 1.405 . S
C1928 C1929 1.383 . S
C1929 C1928 1.383 . S
C1929 C1930 1.393 . S
C1930 H1902 0.931 . S
C1930 C1929 1.393 . S
C1930 C1931 1.382 . S
C1931 H1901 0.929 . S
C1931 C1926 1.371 . S
C1931 C1930 1.382 . S
C1932 N1895 1.423 . S
C1932 C1933 1.362 . S
C1932 C1937 1.388 . S
C1933 H1903 0.929 . S
C1933 C1932 1.362 . S
C1933 C1934 1.376 . S
C1934 H1905 0.931 . S
C1934 C1933 1.376 . S
C1934 C1935 1.396 . S
C1935 C1934 1.396 . S
C1935 C1936 1.348 . S
C1935 C1953 1.472 . S
C1936 H1906 0.929 . S
C1936 C1935 1.348 . S
C1936 C1937 1.443 . S
C1937 H1904 0.932 . S
C1937 C1932 1.388 . S
C1937 C1936 1.443 . S
C1938 N1918 1.433 . S
C1938 C1939 1.363 . S
C1938 C1943 1.370 . S
C1939 H1907 0.929 . S
C1939 C1938 1.363 . S
C1939 C1940 1.385 . S
C1940 H1908 0.930 . S
C1940 C1939 1.385 . S
C1940 C1941 1.357 . S
C1941 C1940 1.357 . S
C1941 C1942 1.406 . S
C1942 H1909 0.929 . S
C1942 C1941 1.406 . S
C1942 C1943 1.391 . S
C1943 H1910 0.931 . S
C1943 C1938 1.370 . S
C1943 C1942 1.391 . S
C1944 N1918 1.435 . S
C1944 C1945 1.358 . S
C1944 C1949 1.371 . S
C1945 H1911 0.930 . S
C1945 C1944 1.358 . S
C1945 C1946 1.405 . S
C1946 H1912 0.932 . S
C1946 C1945 1.405 . S
C1946 C1947 1.383 . S
C1947 C1946 1.383 . S
C1947 C1948 1.393 . S
C1948 H1913 0.931 . S
C1948 C1947 1.393 . S
C1948 C1949 1.382 . S
C1949 H1914 0.929 . S
C1949 C1944 1.371 . S
C1949 C1948 1.382 . S
C1950 N1918 1.423 . S
C1950 C1951 1.362 . S
C1950 C1955 1.388 . S
C1951 H1915 0.929 . S
C1951 C1950 1.362 . S
C1951 C1952 1.376 . S
C1952 H1916 0.931 . S
C1952 C1951 1.376 . S
C1952 C1953 1.396 . S
C1953 C1935 1.472 . S
C1953 C1952 1.396 . S
C1953 C1954 1.348 . S
C1954 H1917 0.929 . S
C1954 C1953 1.348 . S
C1954 C1955 1.443 . S
C1955 H1919 0.932 . S
C1955 C1950 1.388 . S
C1955 C1954 1.443 . S
H1956 C1983 0.929 . S
N1957 C1982 1.433 . S
N1957 C1988 1.435 . S
N1957 C1994 1.423 . S
H1958 C1984 0.930 . S
H1959 C1987 0.931 . S
H1960 C1986 0.929 . S
H1961 C1989 0.930 . S
H1962 C1990 0.932 . S
H1963 C1993 0.929 . S
H1964 C1992 0.931 . S
H1965 C1995 0.929 . S
H1966 C1999 0.932 . S
H1967 C1996 0.931 . S
H1968 C1998 0.929 . S
H1969 C2001 0.929 . S
H1970 C2002 0.930 . S
H1971 C2004 0.929 . S
H1972 C2005 0.931 . S
H1973 C2007 0.930 . S
H1974 C2008 0.932 . S
H1975 C2010 0.931 . S
H1976 C2011 0.929 . S
H1977 C2013 0.929 . S
H1978 C2014 0.931 . S
H1979 C2016 0.929 . S
N1980 C2000 1.433 . S
N1980 C2006 1.435 . S
N1980 C2012 1.423 . S
H1981 C2017 0.932 . S
C1982 N1957 1.433 . S
C1982 C1983 1.363 . S
C1982 C1987 1.370 . S
C1983 H1956 0.929 . S
C1983 C1982 1.363 . S
C1983 C1984 1.385 . S
C1984 H1958 0.930 . S
C1984 C1983 1.385 . S
C1984 C1985 1.357 . S
C1985 C1984 1.357 . S
C1985 C1986 1.406 . S
C1986 H1960 0.929 . S
C1986 C1985 1.406 . S
C1986 C1987 1.391 . S
C1987 H1959 0.931 . S
C1987 C1982 1.370 . S
C1987 C1986 1.391 . S
C1988 N1957 1.435 . S
C1988 C1989 1.358 . S
C1988 C1993 1.371 . S
C1989 H1961 0.930 . S
C1989 C1988 1.358 . S
C1989 C1990 1.405 . S
C1990 H1962 0.932 . S
C1990 C1989 1.405 . S
C1990 C1991 1.383 . S
C1991 C1990 1.383 . S
C1991 C1992 1.393 . S
C1992 H1964 0.931 . S
C1992 C1991 1.393 . S
C1992 C1993 1.382 . S
C1993 H1963 0.929 . S
C1993 C1988 1.371 . S
C1993 C1992 1.382 . S
C1994 N1957 1.423 . S
C1994 C1995 1.362 . S
C1994 C1999 1.388 . S
C1995 H1965 0.929 . S
C1995 C1994 1.362 . S
C1995 C1996 1.376 . S
C1996 H1967 0.931 . S
C1996 C1995 1.376 . S
C1996 C1997 1.396 . S
C1997 C1996 1.396 . S
C1997 C1998 1.348 . S
C1997 C2015 1.472 . S
C1998 H1968 0.929 . S
C1998 C1997 1.348 . S
C1998 C1999 1.443 . S
C1999 H1966 0.932 . S
C1999 C1994 1.388 . S
C1999 C1998 1.443 . S
C2000 N1980 1.433 . S
C2000 C2001 1.363 . S
C2000 C2005 1.370 . S
C2001 H1969 0.929 . S
C2001 C2000 1.363 . S
C2001 C2002 1.385 . S
C2002 H1970 0.930 . S
C2002 C2001 1.385 . S
C2002 C2003 1.357 . S
C2003 C2002 1.357 . S
C2003 C2004 1.406 . S
C2004 H1971 0.929 . S
C2004 C2003 1.406 . S
C2004 C2005 1.391 . S
C2005 H1972 0.931 . S
C2005 C2000 1.370 . S
C2005 C2004 1.391 . S
C2006 N1980 1.435 . S
C2006 C2007 1.358 . S
C2006 C2011 1.371 . S
C2007 H1973 0.930 . S
C2007 C2006 1.358 . S
C2007 C2008 1.405 . S
C2008 H1974 0.932 . S
C2008 C2007 1.405 . S
C2008 C2009 1.383 . S
C2009 C2008 1.383 . S
C2009 C2010 1.393 . S
C2010 H1975 0.931 . S
C2010 C2009 1.393 . S
C2010 C2011 1.382 . S
C2011 H1976 0.929 . S
C2011 C2006 1.371 . S
C2011 C2010 1.382 . S
C2012 N1980 1.423 . S
C2012 C2013 1.362 . S
C2012 C2017 1.388 . S
C2013 H1977 0.929 . S
C2013 C2012 1.362 . S
C2013 C2014 1.376 . S
C2014 H1978 0.931 . S
C2014 C2013 1.376 . S
C2014 C2015 1.396 . S
C2015 C1997 1.472 . S
C2015 C2014 1.396 . S
C2015 C2016 1.348 . S
C2016 H1979 0.929 . S
C2016 C2015 1.348 . S
C2016 C2017 1.443 . S
C2017 H1981 0.932 . S
C2017 C2012 1.388 . S
C2017 C2016 1.443 . S
H2018 C2045 0.929 . S
N2019 C2044 1.433 . S
N2019 C2050 1.435 . S
N2019 C2056 1.423 . S
H2020 C2046 0.930 . S
H2021 C2049 0.931 . S
H2022 C2048 0.929 . S
H2023 C2051 0.930 . S
H2024 C2052 0.932 . S
H2025 C2055 0.929 . S
H2026 C2054 0.931 . S
H2027 C2057 0.929 . S
H2028 C2061 0.932 . S
H2029 C2058 0.931 . S
H2030 C2060 0.929 . S
H2031 C2063 0.929 . S
H2032 C2064 0.930 . S
H2033 C2066 0.929 . S
H2034 C2067 0.931 . S
H2035 C2069 0.930 . S
H2036 C2070 0.932 . S
H2037 C2072 0.931 . S
H2038 C2073 0.929 . S
H2039 C2075 0.929 . S
H2040 C2076 0.931 . S
H2041 C2078 0.929 . S
N2042 C2062 1.433 . S
N2042 C2068 1.435 . S
N2042 C2074 1.423 . S
H2043 C2079 0.932 . S
C2044 N2019 1.433 . S
C2044 C2045 1.363 . S
C2044 C2049 1.370 . S
C2045 H2018 0.929 . S
C2045 C2044 1.363 . S
C2045 C2046 1.385 . S
C2046 H2020 0.930 . S
C2046 C2045 1.385 . S
C2046 C2047 1.357 . S
C2047 C2046 1.357 . S
C2047 C2048 1.406 . S
C2048 H2022 0.929 . S
C2048 C2047 1.406 . S
C2048 C2049 1.391 . S
C2049 H2021 0.931 . S
C2049 C2044 1.370 . S
C2049 C2048 1.391 . S
C2050 N2019 1.435 . S
C2050 C2051 1.358 . S
C2050 C2055 1.371 . S
C2051 H2023 0.930 . S
C2051 C2050 1.358 . S
C2051 C2052 1.405 . S
C2052 H2024 0.932 . S
C2052 C2051 1.405 . S
C2052 C2053 1.383 . S
C2053 C2052 1.383 . S
C2053 C2054 1.393 . S
C2054 H2026 0.931 . S
C2054 C2053 1.393 . S
C2054 C2055 1.382 . S
C2055 H2025 0.929 . S
C2055 C2050 1.371 . S
C2055 C2054 1.382 . S
C2056 N2019 1.423 . S
C2056 C2057 1.362 . S
C2056 C2061 1.388 . S
C2057 H2027 0.929 . S
C2057 C2056 1.362 . S
C2057 C2058 1.376 . S
C2058 H2029 0.931 . S
C2058 C2057 1.376 . S
C2058 C2059 1.396 . S
C2059 C2058 1.396 . S
C2059 C2060 1.348 . S
C2059 C2077 1.472 . S
C2060 H2030 0.929 . S
C2060 C2059 1.348 . S
C2060 C2061 1.443 . S
C2061 H2028 0.932 . S
C2061 C2056 1.388 . S
C2061 C2060 1.443 . S
C2062 N2042 1.433 . S
C2062 C2063 1.363 . S
C2062 C2067 1.370 . S
C2063 H2031 0.929 . S
C2063 C2062 1.363 . S
C2063 C2064 1.385 . S
C2064 H2032 0.930 . S
C2064 C2063 1.385 . S
C2064 C2065 1.357 . S
C2065 C2064 1.357 . S
C2065 C2066 1.406 . S
C2066 H2033 0.929 . S
C2066 C2065 1.406 . S
C2066 C2067 1.391 . S
C2067 H2034 0.931 . S
C2067 C2062 1.370 . S
C2067 C2066 1.391 . S
C2068 N2042 1.435 . S
C2068 C2069 1.358 . S
C2068 C2073 1.371 . S
C2069 H2035 0.930 . S
C2069 C2068 1.358 . S
C2069 C2070 1.405 . S
C2070 H2036 0.932 . S
C2070 C2069 1.405 . S
C2070 C2071 1.383 . S
C2071 C2070 1.383 . S
C2071 C2072 1.393 . S
C2072 H2037 0.931 . S
C2072 C2071 1.393 . S
C2072 C2073 1.382 . S
C2073 H2038 0.929 . S
C2073 C2068 1.371 . S
C2073 C2072 1.382 . S
C2074 N2042 1.423 . S
C2074 C2075 1.362 . S
C2074 C2079 1.388 . S
C2075 H2039 0.929 . S
C2075 C2074 1.362 . S
C2075 C2076 1.376 . S
C2076 H2040 0.931 . S
C2076 C2075 1.376 . S
C2076 C2077 1.396 . S
C2077 C2059 1.472 . S
C2077 C2076 1.396 . S
C2077 C2078 1.348 . S
C2078 H2041 0.929 . S
C2078 C2077 1.348 . S
C2078 C2079 1.443 . S
C2079 H2043 0.932 . S
C2079 C2074 1.388 . S
C2079 C2078 1.443 . S
H2080 C2107 0.929 . S
N2081 C2106 1.433 . S
N2081 C2112 1.435 . S
N2081 C2118 1.423 . S
H2082 C2108 0.930 . S
H2083 C2111 0.931 . S
H2084 C2110 0.929 . S
H2085 C2113 0.930 . S
H2086 C2114 0.932 . S
H2087 C2117 0.929 . S
H2088 C2116 0.931 . S
H2089 C2119 0.929 . S
H2090 C2123 0.932 . S
H2091 C2120 0.931 . S
H2092 C2122 0.929 . S
H2093 C2125 0.929 . S
H2094 C2126 0.930 . S
H2095 C2128 0.929 . S
H2096 C2129 0.931 . S
H2097 C2131 0.930 . S
H2098 C2132 0.932 . S
H2099 C2134 0.931 . S
H2100 C2135 0.929 . S
H2101 C2137 0.929 . S
H2102 C2138 0.931 . S
H2103 C2140 0.929 . S
N2104 C2124 1.433 . S
N2104 C2130 1.435 . S
N2104 C2136 1.423 . S
H2105 C2141 0.932 . S
C2106 N2081 1.433 . S
C2106 C2107 1.363 . S
C2106 C2111 1.370 . S
C2107 H2080 0.929 . S
C2107 C2106 1.363 . S
C2107 C2108 1.385 . S
C2108 H2082 0.930 . S
C2108 C2107 1.385 . S
C2108 C2109 1.357 . S
C2109 C2108 1.357 . S
C2109 C2110 1.406 . S
C2110 H2084 0.929 . S
C2110 C2109 1.406 . S
C2110 C2111 1.391 . S
C2111 H2083 0.931 . S
C2111 C2106 1.370 . S
C2111 C2110 1.391 . S
C2112 N2081 1.435 . S
C2112 C2113 1.358 . S
C2112 C2117 1.371 . S
C2113 H2085 0.930 . S
C2113 C2112 1.358 . S
C2113 C2114 1.405 . S
C2114 H2086 0.932 . S
C2114 C2113 1.405 . S
C2114 C2115 1.383 . S
C2115 C2114 1.383 . S
C2115 C2116 1.393 . S
C2116 H2088 0.931 . S
C2116 C2115 1.393 . S
C2116 C2117 1.382 . S
C2117 H2087 0.929 . S
C2117 C2112 1.371 . S
C2117 C2116 1.382 . S
C2118 N2081 1.423 . S
C2118 C2119 1.362 . S
C2118 C2123 1.388 . S
C2119 H2089 0.929 . S
C2119 C2118 1.362 . S
C2119 C2120 1.376 . S
C2120 H2091 0.931 . S
C2120 C2119 1.376 . S
C2120 C2121 1.396 . S
C2121 C2120 1.396 . S
C2121 C2122 1.348 . S
C2121 C2139 1.472 . S
C2122 H2092 0.929 . S
C2122 C2121 1.348 . S
C2122 C2123 1.443 . S
C2123 H2090 0.932 . S
C2123 C2118 1.388 . S
C2123 C2122 1.443 . S
C2124 N2104 1.433 . S
C2124 C2125 1.363 . S
C2124 C2129 1.370 . S
C2125 H2093 0.929 . S
C2125 C2124 1.363 . S
C2125 C2126 1.385 . S
C2126 H2094 0.930 . S
C2126 C2125 1.385 . S
C2126 C2127 1.357 . S
C2127 C2126 1.357 . S
C2127 C2128 1.406 . S
C2128 H2095 0.929 . S
C2128 C2127 1.406 . S
C2128 C2129 1.391 . S
C2129 H2096 0.931 . S
C2129 C2124 1.370 . S
C2129 C2128 1.391 . S
C2130 N2104 1.435 . S
C2130 C2131 1.358 . S
C2130 C2135 1.371 . S
C2131 H2097 0.930 . S
C2131 C2130 1.358 . S
C2131 C2132 1.405 . S
C2132 H2098 0.932 . S
C2132 C2131 1.405 . S
C2132 C2133 1.383 . S
C2133 C2132 1.383 . S
C2133 C2134 1.393 . S
C2134 H2099 0.931 . S
C2134 C2133 1.393 . S
C2134 C2135 1.382 . S
C2135 H2100 0.929 . S
C2135 C2130 1.371 . S
C2135 C2134 1.382 . S
C2136 N2104 1.423 . S
C2136 C2137 1.362 . S
C2136 C2141 1.388 . S
C2137 H2101 0.929 . S
C2137 C2136 1.362 . S
C2137 C2138 1.376 . S
C2138 H2102 0.931 . S
C2138 C2137 1.376 . S
C2138 C2139 1.396 . S
C2139 C2121 1.472 . S
C2139 C2138 1.396 . S
C2139 C2140 1.348 . S
C2140 H2103 0.929 . S
C2140 C2139 1.348 . S
C2140 C2141 1.443 . S
C2141 H2105 0.932 . S
C2141 C2136 1.388 . S
C2141 C2140 1.443 . S
H2142 C2169 0.929 . S
N2143 C2168 1.433 . S
N2143 C2174 1.435 . S
N2143 C2180 1.423 . S
H2144 C2170 0.930 . S
H2145 C2173 0.931 . S
H2146 C2172 0.929 . S
H2147 C2175 0.930 . S
H2148 C2176 0.932 . S
H2149 C2179 0.929 . S
H2150 C2178 0.931 . S
H2151 C2181 0.929 . S
H2152 C2185 0.932 1_655 S
H2153 C2182 0.931 . S
H2154 C2184 0.944 . S
H2155 C2187 0.929 . S
H2156 C2188 0.930 . S
H2157 C2190 0.929 . S
H2158 C2191 0.931 . S
H2159 C2193 0.930 . S
H2160 C2194 0.932 . S
H2161 C2196 0.931 . S
H2162 C2197 0.929 . S
H2163 C2199 0.929 . S
H2164 C2200 0.931 . S
H2165 C2202 0.997 . S
N2166 C2186 1.433 . S
N2166 C2192 1.435 . S
N2166 C2198 1.423 . S
H2167 C2203 0.932 1_655 S
C2168 N2143 1.433 . S
C2168 C2169 1.363 . S
C2168 C2173 1.370 1_455 S
C2169 H2142 0.929 . S
C2169 C2168 1.363 . S
C2169 C2170 1.385 . S
C2170 H2144 0.930 . S
C2170 C2169 1.385 . S
C2170 C2171 1.357 1_455 S
C2171 C2170 1.357 1_655 S
C2171 C2172 1.406 . S
C2172 H2146 0.929 . S
C2172 C2171 1.406 . S
C2172 C2173 1.391 . S
C2173 H2145 0.931 . S
C2173 C2168 1.370 1_655 S
C2173 C2172 1.391 . S
C2174 N2143 1.435 . S
C2174 C2175 1.358 1_455 S
C2174 C2179 1.371 . S
C2175 H2147 0.930 . S
C2175 C2174 1.358 1_655 S
C2175 C2176 1.405 . S
C2176 H2148 0.932 . S
C2176 C2175 1.405 . S
C2176 C2177 1.383 1_655 S
C2177 C2176 1.383 1_455 S
C2177 C2178 1.393 . S
C2178 H2150 0.931 . S
C2178 C2177 1.393 . S
C2178 C2179 1.382 . S
C2179 H2149 0.929 . S
C2179 C2174 1.371 . S
C2179 C2178 1.382 . S
C2180 N2143 1.423 . S
C2180 C2181 1.362 . S
C2180 C2185 1.388 . S
C2181 H2151 0.929 . S
C2181 C2180 1.362 . S
C2181 C2182 1.376 . S
C2182 H2153 0.931 . S
C2182 C2181 1.376 . S
C2182 C2183 1.396 . S
C2183 C2182 1.396 . S
C2183 C2184 1.348 . S
C2183 C2201 1.472 . S
C2184 H2154 0.944 . S
C2184 C2183 1.348 . S
C2184 C2185 1.443 . S
C2185 H2152 0.932 1_455 S
C2185 C2180 1.388 . S
C2185 C2184 1.443 . S
C2186 N2166 1.433 . S
C2186 C2187 1.363 . S
C2186 C2191 1.370 1_455 S
C2187 H2155 0.929 . S
C2187 C2186 1.363 . S
C2187 C2188 1.385 . S
C2188 H2156 0.930 . S
C2188 C2187 1.385 . S
C2188 C2189 1.357 1_455 S
C2189 C2188 1.357 1_655 S
C2189 C2190 1.406 . S
C2190 H2157 0.929 . S
C2190 C2189 1.406 . S
C2190 C2191 1.391 . S
C2191 H2158 0.931 . S
C2191 C2186 1.370 1_655 S
C2191 C2190 1.391 . S
C2192 N2166 1.435 . S
C2192 C2193 1.358 1_455 S
C2192 C2197 1.371 . S
C2193 H2159 0.930 . S
C2193 C2192 1.358 1_655 S
C2193 C2194 1.405 . S
C2194 H2160 0.932 . S
C2194 C2193 1.405 . S
C2194 C2195 1.383 1_655 S
C2195 C2194 1.383 1_455 S
C2195 C2196 1.393 . S
C2196 H2161 0.931 . S
C2196 C2195 1.393 . S
C2196 C2197 1.382 . S
C2197 H2162 0.929 . S
C2197 C2192 1.371 . S
C2197 C2196 1.382 . S
C2198 N2166 1.423 . S
C2198 C2199 1.362 . S
C2198 C2203 1.388 . S
C2199 H2163 0.929 . S
C2199 C2198 1.362 . S
C2199 C2200 1.376 . S
C2200 H2164 0.931 . S
C2200 C2199 1.376 . S
C2200 C2201 1.396 . S
C2201 C2183 1.472 . S
C2201 C2200 1.396 . S
C2201 C2202 1.348 . S
C2202 H2165 0.997 . S
C2202 C2201 1.348 . S
C2202 C2203 1.443 . S
C2203 H2167 0.932 1_455 S
C2203 C2198 1.388 . S
C2203 C2202 1.443 . S
H2204 C2231 0.929 . S
N2205 C2230 1.433 . S
N2205 C2236 1.435 . S
N2205 C2242 1.423 . S
H2206 C2232 0.930 . S
H2207 C2235 0.931 . S
H2208 C2234 0.929 . S
H2209 C2237 0.930 . S
H2210 C2238 0.932 . S
H2211 C2241 0.929 . S
H2212 C2240 0.931 . S
H2213 C2243 0.929 . S
H2214 C2247 0.932 . S
H2215 C2244 0.931 . S
H2216 C2246 0.929 . S
H2217 C2249 0.929 . S
H2218 C2250 0.930 . S
H2219 C2252 0.929 . S
H2220 C2253 0.931 . S
H2221 C2255 0.930 . S
H2222 C2256 0.932 . S
H2223 C2258 0.931 . S
H2224 C2259 0.929 . S
H2225 C2261 0.929 . S
H2226 C2262 0.931 . S
H2227 C2264 0.929 . S
N2228 C2248 1.433 . S
N2228 C2254 1.435 . S
N2228 C2260 1.423 . S
H2229 C2265 0.932 . S
C2230 N2205 1.433 . S
C2230 C2231 1.363 . S
C2230 C2235 1.370 . S
C2231 H2204 0.929 . S
C2231 C2230 1.363 . S
C2231 C2232 1.385 . S
C2232 H2206 0.930 . S
C2232 C2231 1.385 . S
C2232 C2233 1.357 . S
C2233 C2232 1.357 . S
C2233 C2234 1.406 . S
C2234 H2208 0.929 . S
C2234 C2233 1.406 . S
C2234 C2235 1.391 . S
C2235 H2207 0.931 . S
C2235 C2230 1.370 . S
C2235 C2234 1.391 . S
C2236 N2205 1.435 . S
C2236 C2237 1.358 . S
C2236 C2241 1.371 . S
C2237 H2209 0.930 . S
C2237 C2236 1.358 . S
C2237 C2238 1.405 . S
C2238 H2210 0.932 . S
C2238 C2237 1.405 . S
C2238 C2239 1.383 . S
C2239 C2238 1.383 . S
C2239 C2240 1.393 . S
C2240 H2212 0.931 . S
C2240 C2239 1.393 . S
C2240 C2241 1.382 . S
C2241 H2211 0.929 . S
C2241 C2236 1.371 . S
C2241 C2240 1.382 . S
C2242 N2205 1.423 . S
C2242 C2243 1.362 . S
C2242 C2247 1.388 . S
C2243 H2213 0.929 . S
C2243 C2242 1.362 . S
C2243 C2244 1.376 . S
C2244 H2215 0.931 . S
C2244 C2243 1.376 . S
C2244 C2245 1.396 . S
C2245 C2244 1.396 . S
C2245 C2246 1.348 . S
C2245 C2263 1.472 . S
C2246 H2216 0.929 . S
C2246 C2245 1.348 . S
C2246 C2247 1.443 . S
C2247 H2214 0.932 . S
C2247 C2242 1.388 . S
C2247 C2246 1.443 . S
C2248 N2228 1.433 . S
C2248 C2249 1.363 . S
C2248 C2253 1.370 . S
C2249 H2217 0.929 . S
C2249 C2248 1.363 . S
C2249 C2250 1.385 . S
C2250 H2218 0.930 . S
C2250 C2249 1.385 . S
C2250 C2251 1.357 . S
C2251 C2250 1.357 . S
C2251 C2252 1.406 . S
C2252 H2219 0.929 . S
C2252 C2251 1.406 . S
C2252 C2253 1.391 . S
C2253 H2220 0.931 . S
C2253 C2248 1.370 . S
C2253 C2252 1.391 . S
C2254 N2228 1.435 . S
C2254 C2255 1.358 . S
C2254 C2259 1.371 . S
C2255 H2221 0.930 . S
C2255 C2254 1.358 . S
C2255 C2256 1.405 . S
C2256 H2222 0.932 . S
C2256 C2255 1.405 . S
C2256 C2257 1.383 . S
C2257 C2256 1.383 . S
C2257 C2258 1.393 . S
C2258 H2223 0.931 . S
C2258 C2257 1.393 . S
C2258 C2259 1.382 . S
C2259 H2224 0.929 . S
C2259 C2254 1.371 . S
C2259 C2258 1.382 . S
C2260 N2228 1.423 . S
C2260 C2261 1.362 . S
C2260 C2265 1.388 . S
C2261 H2225 0.929 . S
C2261 C2260 1.362 . S
C2261 C2262 1.376 . S
C2262 H2226 0.931 . S
C2262 C2261 1.376 . S
C2262 C2263 1.396 . S
C2263 C2245 1.472 . S
C2263 C2262 1.396 . S
C2263 C2264 1.348 . S
C2264 H2227 0.929 . S
C2264 C2263 1.348 . S
C2264 C2265 1.443 . S
C2265 H2229 0.932 . S
C2265 C2260 1.388 . S
C2265 C2264 1.443 . S
H2266 C2293 0.929 . S
N2267 C2292 1.433 . S
N2267 C2298 1.435 . S
N2267 C2304 1.423 . S
H2268 C2294 0.930 . S
H2269 C2297 0.931 . S
H2270 C2296 0.929 . S
H2271 C2299 0.930 . S
H2272 C2300 0.932 . S
H2273 C2303 0.929 . S
H2274 C2302 0.931 . S
H2275 C2305 0.929 . S
H2276 C2309 0.932 1_545 S
H2277 C2306 0.931 . S
H2278 C2308 0.929 . S
H2279 C2311 0.929 . S
H2280 C2312 0.930 . S
H2281 C2314 0.929 . S
H2282 C2315 0.931 . S
H2283 C2317 0.930 . S
H2284 C2318 0.932 . S
H2285 C2320 0.931 . S
H2286 C2321 0.929 . S
H2287 C2323 0.929 . S
H2288 C2324 0.931 . S
H2289 C2326 0.945 . S
N2290 C2310 1.433 . S
N2290 C2316 1.435 . S
N2290 C2322 1.423 . S
H2291 C2327 0.932 1_545 S
C2292 N2267 1.433 . S
C2292 C2293 1.363 . S
C2292 C2297 1.370 1_565 S
C2293 H2266 0.929 . S
C2293 C2292 1.363 . S
C2293 C2294 1.385 . S
C2294 H2268 0.930 . S
C2294 C2293 1.385 . S
C2294 C2295 1.357 1_565 S
C2295 C2294 1.357 1_545 S
C2295 C2296 1.406 . S
C2296 H2270 0.929 . S
C2296 C2295 1.406 . S
C2296 C2297 1.391 . S
C2297 H2269 0.931 . S
C2297 C2292 1.370 1_545 S
C2297 C2296 1.391 . S
C2298 N2267 1.435 . S
C2298 C2299 1.358 1_565 S
C2298 C2303 1.371 . S
C2299 H2271 0.930 . S
C2299 C2298 1.358 1_545 S
C2299 C2300 1.405 . S
C2300 H2272 0.932 . S
C2300 C2299 1.405 . S
C2300 C2301 1.383 1_545 S
C2301 C2300 1.383 1_565 S
C2301 C2302 1.393 . S
C2302 H2274 0.931 . S
C2302 C2301 1.393 . S
C2302 C2303 1.382 . S
C2303 H2273 0.929 . S
C2303 C2298 1.371 . S
C2303 C2302 1.382 . S
C2304 N2267 1.423 . S
C2304 C2305 1.362 . S
C2304 C2309 1.388 . S
C2305 H2275 0.929 . S
C2305 C2304 1.362 . S
C2305 C2306 1.376 . S
C2306 H2277 0.931 . S
C2306 C2305 1.376 . S
C2306 C2307 1.396 . S
C2307 C2306 1.396 . S
C2307 C2308 1.348 . S
C2307 C2325 1.472 . S
C2308 H2278 0.929 . S
C2308 C2307 1.348 . S
C2308 C2309 1.443 . S
C2309 H2276 0.932 1_565 S
C2309 C2304 1.388 . S
C2309 C2308 1.443 . S
C2310 N2290 1.433 . S
C2310 C2311 1.363 . S
C2310 C2315 1.370 1_565 S
C2311 H2279 0.929 . S
C2311 C2310 1.363 . S
C2311 C2312 1.385 . S
C2312 H2280 0.930 . S
C2312 C2311 1.385 . S
C2312 C2313 1.357 1_565 S
C2313 C2312 1.357 1_545 S
C2313 C2314 1.406 . S
C2314 H2281 0.929 . S
C2314 C2313 1.406 . S
C2314 C2315 1.391 . S
C2315 H2282 0.931 . S
C2315 C2310 1.370 1_545 S
C2315 C2314 1.391 . S
C2316 N2290 1.435 . S
C2316 C2317 1.358 1_565 S
C2316 C2321 1.371 . S
C2317 H2283 0.930 . S
C2317 C2316 1.358 1_545 S
C2317 C2318 1.405 . S
C2318 H2284 0.932 . S
C2318 C2317 1.405 . S
C2318 C2319 1.383 1_545 S
C2319 C2318 1.383 1_565 S
C2319 C2320 1.393 . S
C2320 H2285 0.931 . S
C2320 C2319 1.393 . S
C2320 C2321 1.382 . S
C2321 H2286 0.929 . S
C2321 C2316 1.371 . S
C2321 C2320 1.382 . S
C2322 N2290 1.423 . S
C2322 C2323 1.362 . S
C2322 C2327 1.388 . S
C2323 H2287 0.929 . S
C2323 C2322 1.362 . S
C2323 C2324 1.376 . S
C2324 H2288 0.931 . S
C2324 C2323 1.376 . S
C2324 C2325 1.396 . S
C2325 C2307 1.472 . S
C2325 C2324 1.396 . S
C2325 C2326 1.348 . S
C2326 H2289 0.945 . S
C2326 C2325 1.348 . S
C2326 C2327 1.443 . S
C2327 H2291 0.932 1_565 S
C2327 C2322 1.388 . S
C2327 C2326 1.443 . S
H2328 C2355 0.929 . S
N2329 C2354 1.433 . S
N2329 C2360 1.435 . S
N2329 C2366 1.423 . S
H2330 C2356 0.930 . S
H2331 C2359 0.930 . S
H2332 C2358 0.947 . S
H2333 C2361 0.930 . S
H2334 C2362 0.932 . S
H2335 C2365 0.929 . S
H2336 C2364 0.931 . S
H2337 C2367 0.929 . S
H2338 C2371 1.027 . S
H2339 C2368 0.931 . S
H2340 C2370 0.922 1_545 S
H2341 C2373 0.929 . S
H2342 C2374 0.930 . S
H2343 C2376 0.983 . S
H2344 C2377 0.977 . S
H2345 C2379 0.930 . S
H2346 C2380 0.932 . S
H2347 C2382 0.931 . S
H2348 C2383 0.929 . S
H2349 C2385 0.929 . S
H2350 C2386 0.931 . S
H2351 C2388 0.903 1_545 S
N2352 C2372 1.433 . S
N2352 C2378 1.435 . S
N2352 C2384 1.423 . S
H2353 C2389 0.973 . S
C2354 N2329 1.433 . S
C2354 C2355 1.363 . S
C2354 C2359 1.363 1_565 S
C2355 H2328 0.929 . S
C2355 C2354 1.363 . S
C2355 C2356 1.385 . S
C2356 H2330 0.930 . S
C2356 C2355 1.385 . S
C2356 C2357 1.357 . S
C2357 C2356 1.357 . S
C2357 C2358 1.413 1_565 S
C2358 H2332 0.947 . S
C2358 C2357 1.413 1_545 S
C2358 C2359 1.387 . S
C2359 H2331 0.930 . S
C2359 C2354 1.363 1_545 S
C2359 C2358 1.387 . S
C2360 N2329 1.435 . S
C2360 C2361 1.358 1_565 S
C2360 C2365 1.371 . S
C2361 H2333 0.930 . S
C2361 C2360 1.358 1_545 S
C2361 C2362 1.405 . S
C2362 H2334 0.932 . S
C2362 C2361 1.405 . S
C2362 C2363 1.383 . S
C2363 C2362 1.383 . S
C2363 C2364 1.393 1_545 S
C2364 H2336 0.931 . S
C2364 C2363 1.393 1_565 S
C2364 C2365 1.382 . S
C2365 H2335 0.929 . S
C2365 C2360 1.371 . S
C2365 C2364 1.382 . S
C2366 N2329 1.423 . S
C2366 C2367 1.362 . S
C2366 C2371 1.362 1_565 S
C2367 H2337 0.929 . S
C2367 C2366 1.362 . S
C2367 C2368 1.376 . S
C2368 H2339 0.931 . S
C2368 C2367 1.376 . S
C2368 C2369 1.396 . S
C2369 C2368 1.396 . S
C2369 C2370 1.375 . S
C2369 C2387 1.472 . S
C2370 H2340 0.922 1_565 S
C2370 C2369 1.375 . S
C2370 C2371 1.363 1_565 S
C2371 H2338 1.027 . S
C2371 C2366 1.362 1_545 S
C2371 C2370 1.363 1_545 S
C2372 N2352 1.433 . S
C2372 C2373 1.363 . S
C2372 C2377 1.334 1_565 S
C2373 H2341 0.929 . S
C2373 C2372 1.363 . S
C2373 C2374 1.385 . S
C2374 H2342 0.930 . S
C2374 C2373 1.385 . S
C2374 C2375 1.357 . S
C2375 C2374 1.357 . S
C2375 C2376 1.343 1_565 S
C2376 H2343 0.983 . S
C2376 C2375 1.343 1_545 S
C2376 C2377 1.395 . S
C2377 H2344 0.977 . S
C2377 C2372 1.334 1_545 S
C2377 C2376 1.395 . S
C2378 N2352 1.435 . S
C2378 C2379 1.358 1_565 S
C2378 C2383 1.371 . S
C2379 H2345 0.930 . S
C2379 C2378 1.358 1_545 S
C2379 C2380 1.405 . S
C2380 H2346 0.932 . S
C2380 C2379 1.405 . S
C2380 C2381 1.383 . S
C2381 C2380 1.383 . S
C2381 C2382 1.393 1_545 S
C2382 H2347 0.931 . S
C2382 C2381 1.393 1_565 S
C2382 C2383 1.382 . S
C2383 H2348 0.929 . S
C2383 C2378 1.371 . S
C2383 C2382 1.382 . S
C2384 N2352 1.423 . S
C2384 C2385 1.362 . S
C2384 C2389 1.310 1_565 S
C2385 H2349 0.929 . S
C2385 C2384 1.362 . S
C2385 C2386 1.376 . S
C2386 H2350 0.931 . S
C2386 C2385 1.376 . S
C2386 C2387 1.396 . S
C2387 C2369 1.472 . S
C2387 C2386 1.396 . S
C2387 C2388 1.359 . S
C2388 H2351 0.903 1_565 S
C2388 C2387 1.359 . S
C2388 C2389 1.507 1_565 S
C2389 H2353 0.973 . S
C2389 C2384 1.310 1_545 S
C2389 C2388 1.507 1_545 S
H2390 C2417 0.929 . S
N2391 C2416 1.433 . S
N2391 C2422 1.435 . S
N2391 C2428 1.423 . S
H2392 C2418 0.930 . S
H2393 C2421 0.931 . S
H2394 C2420 0.929 . S
H2395 C2423 0.930 . S
H2396 C2424 0.932 . S
H2397 C2427 0.929 . S
H2398 C2426 0.931 . S
H2399 C2429 0.929 . S
H2400 C2433 0.932 1_455 S
H2401 C2430 0.931 . S
H2402 C2432 0.929 . S
H2403 C2435 0.929 . S
H2404 C2436 0.930 . S
H2405 C2438 0.929 . S
H2406 C2439 0.931 . S
H2407 C2441 0.930 . S
H2408 C2442 0.932 . S
H2409 C2444 0.931 . S
H2410 C2445 0.929 . S
H2411 C2447 0.929 . S
H2412 C2448 0.931 . S
H2413 C2450 0.945 . S
N2414 C2434 1.433 . S
N2414 C2440 1.435 . S
N2414 C2446 1.423 . S
H2415 C2451 0.932 1_455 S
C2416 N2391 1.433 . S
C2416 C2417 1.363 . S
C2416 C2421 1.370 1_655 S
C2417 H2390 0.929 . S
C2417 C2416 1.363 . S
C2417 C2418 1.385 . S
C2418 H2392 0.930 . S
C2418 C2417 1.385 . S
C2418 C2419 1.357 1_655 S
C2419 C2418 1.357 1_455 S
C2419 C2420 1.406 . S
C2420 H2394 0.929 . S
C2420 C2419 1.406 . S
C2420 C2421 1.391 . S
C2421 H2393 0.931 . S
C2421 C2416 1.370 1_455 S
C2421 C2420 1.391 . S
C2422 N2391 1.435 . S
C2422 C2423 1.358 1_655 S
C2422 C2427 1.371 . S
C2423 H2395 0.930 . S
C2423 C2422 1.358 1_455 S
C2423 C2424 1.405 . S
C2424 H2396 0.932 . S
C2424 C2423 1.405 . S
C2424 C2425 1.383 1_455 S
C2425 C2424 1.383 1_655 S
C2425 C2426 1.393 . S
C2426 H2398 0.931 . S
C2426 C2425 1.393 . S
C2426 C2427 1.382 . S
C2427 H2397 0.929 . S
C2427 C2422 1.371 . S
C2427 C2426 1.382 . S
C2428 N2391 1.423 . S
C2428 C2429 1.362 . S
C2428 C2433 1.388 . S
C2429 H2399 0.929 . S
C2429 C2428 1.362 . S
C2429 C2430 1.376 . S
C2430 H2401 0.931 . S
C2430 C2429 1.376 . S
C2430 C2431 1.396 . S
C2431 C2430 1.396 . S
C2431 C2432 1.348 . S
C2431 C2449 1.472 . S
C2432 H2402 0.929 . S
C2432 C2431 1.348 . S
C2432 C2433 1.443 . S
C2433 H2400 0.932 1_655 S
C2433 C2428 1.388 . S
C2433 C2432 1.443 . S
C2434 N2414 1.433 . S
C2434 C2435 1.363 . S
C2434 C2439 1.370 1_655 S
C2435 H2403 0.929 . S
C2435 C2434 1.363 . S
C2435 C2436 1.385 . S
C2436 H2404 0.930 . S
C2436 C2435 1.385 . S
C2436 C2437 1.357 1_655 S
C2437 C2436 1.357 1_455 S
C2437 C2438 1.406 . S
C2438 H2405 0.929 . S
C2438 C2437 1.406 . S
C2438 C2439 1.391 . S
C2439 H2406 0.931 . S
C2439 C2434 1.370 1_455 S
C2439 C2438 1.391 . S
C2440 N2414 1.435 . S
C2440 C2441 1.358 1_655 S
C2440 C2445 1.371 . S
C2441 H2407 0.930 . S
C2441 C2440 1.358 1_455 S
C2441 C2442 1.405 . S
C2442 H2408 0.932 . S
C2442 C2441 1.405 . S
C2442 C2443 1.383 1_455 S
C2443 C2442 1.383 1_655 S
C2443 C2444 1.393 . S
C2444 H2409 0.931 . S
C2444 C2443 1.393 . S
C2444 C2445 1.382 . S
C2445 H2410 0.929 . S
C2445 C2440 1.371 . S
C2445 C2444 1.382 . S
C2446 N2414 1.423 . S
C2446 C2447 1.362 . S
C2446 C2451 1.388 . S
C2447 H2411 0.929 . S
C2447 C2446 1.362 . S
C2447 C2448 1.376 . S
C2448 H2412 0.931 . S
C2448 C2447 1.376 . S
C2448 C2449 1.396 . S
C2449 C2431 1.472 . S
C2449 C2448 1.396 . S
C2449 C2450 1.348 . S
C2450 H2413 0.945 . S
C2450 C2449 1.348 . S
C2450 C2451 1.443 . S
C2451 H2415 0.932 1_655 S
C2451 C2446 1.388 . S
C2451 C2450 1.443 . S
H2452 C2479 0.929 . S
N2453 C2478 1.433 . S
N2453 C2484 1.435 . S
N2453 C2490 1.423 . S
H2454 C2480 0.930 . S
H2455 C2483 0.931 . S
H2456 C2482 0.929 . S
H2457 C2485 0.930 . S
H2458 C2486 0.932 . S
H2459 C2489 0.929 . S
H2460 C2488 0.931 . S
H2461 C2491 0.929 . S
H2462 C2495 0.932 . S
H2463 C2492 0.931 . S
H2464 C2494 0.929 . S
H2465 C2497 0.929 . S
H2466 C2498 0.930 . S
H2467 C2500 0.929 . S
H2468 C2501 0.931 . S
H2469 C2503 0.930 . S
H2470 C2504 0.932 . S
H2471 C2506 0.931 . S
H2472 C2507 0.929 . S
H2473 C2509 0.929 . S
H2474 C2510 0.931 . S
H2475 C2512 0.929 . S
N2476 C2496 1.433 . S
N2476 C2502 1.435 . S
N2476 C2508 1.423 . S
H2477 C2513 0.932 . S
C2478 N2453 1.433 . S
C2478 C2479 1.363 . S
C2478 C2483 1.370 . S
C2479 H2452 0.929 . S
C2479 C2478 1.363 . S
C2479 C2480 1.385 . S
C2480 H2454 0.930 . S
C2480 C2479 1.385 . S
C2480 C2481 1.357 . S
C2481 C2480 1.357 . S
C2481 C2482 1.406 . S
C2482 H2456 0.929 . S
C2482 C2481 1.406 . S
C2482 C2483 1.391 . S
C2483 H2455 0.931 . S
C2483 C2478 1.370 . S
C2483 C2482 1.391 . S
C2484 N2453 1.435 . S
C2484 C2485 1.358 . S
C2484 C2489 1.371 . S
C2485 H2457 0.930 . S
C2485 C2484 1.358 . S
C2485 C2486 1.405 . S
C2486 H2458 0.932 . S
C2486 C2485 1.405 . S
C2486 C2487 1.383 . S
C2487 C2486 1.383 . S
C2487 C2488 1.393 . S
C2488 H2460 0.931 . S
C2488 C2487 1.393 . S
C2488 C2489 1.382 . S
C2489 H2459 0.929 . S
C2489 C2484 1.371 . S
C2489 C2488 1.382 . S
C2490 N2453 1.423 . S
C2490 C2491 1.362 . S
C2490 C2495 1.388 . S
C2491 H2461 0.929 . S
C2491 C2490 1.362 . S
C2491 C2492 1.376 . S
C2492 H2463 0.931 . S
C2492 C2491 1.376 . S
C2492 C2493 1.396 . S
C2493 C2492 1.396 . S
C2493 C2494 1.348 . S
C2493 C2511 1.472 . S
C2494 H2464 0.929 . S
C2494 C2493 1.348 . S
C2494 C2495 1.443 . S
C2495 H2462 0.932 . S
C2495 C2490 1.388 . S
C2495 C2494 1.443 . S
C2496 N2476 1.433 . S
C2496 C2497 1.363 . S
C2496 C2501 1.370 . S
C2497 H2465 0.929 . S
C2497 C2496 1.363 . S
C2497 C2498 1.385 . S
C2498 H2466 0.930 . S
C2498 C2497 1.385 . S
C2498 C2499 1.357 . S
C2499 C2498 1.357 . S
C2499 C2500 1.406 . S
C2500 H2467 0.929 . S
C2500 C2499 1.406 . S
C2500 C2501 1.391 . S
C2501 H2468 0.931 . S
C2501 C2496 1.370 . S
C2501 C2500 1.391 . S
C2502 N2476 1.435 . S
C2502 C2503 1.358 . S
C2502 C2507 1.371 . S
C2503 H2469 0.930 . S
C2503 C2502 1.358 . S
C2503 C2504 1.405 . S
C2504 H2470 0.932 . S
C2504 C2503 1.405 . S
C2504 C2505 1.383 . S
C2505 C2504 1.383 . S
C2505 C2506 1.393 . S
C2506 H2471 0.931 . S
C2506 C2505 1.393 . S
C2506 C2507 1.382 . S
C2507 H2472 0.929 . S
C2507 C2502 1.371 . S
C2507 C2506 1.382 . S
C2508 N2476 1.423 . S
C2508 C2509 1.362 . S
C2508 C2513 1.388 . S
C2509 H2473 0.929 . S
C2509 C2508 1.362 . S
C2509 C2510 1.376 . S
C2510 H2474 0.931 . S
C2510 C2509 1.376 . S
C2510 C2511 1.396 . S
C2511 C2493 1.472 . S
C2511 C2510 1.396 . S
C2511 C2512 1.348 . S
C2512 H2475 0.929 . S
C2512 C2511 1.348 . S
C2512 C2513 1.443 . S
C2513 H2477 0.932 . S
C2513 C2508 1.388 . S
C2513 C2512 1.443 . S
H2514 C2541 0.929 . S
N2515 C2540 1.433 . S
N2515 C2546 1.435 . S
N2515 C2552 1.423 . S
H2516 C2542 0.930 . S
H2517 C2545 0.931 . S
H2518 C2544 0.929 . S
H2519 C2547 0.930 . S
H2520 C2548 0.932 . S
H2521 C2551 0.929 . S
H2522 C2550 0.931 . S
H2523 C2553 0.929 . S
H2524 C2557 0.932 . S
H2525 C2554 0.931 . S
H2526 C2556 0.929 . S
H2527 C2559 0.929 . S
H2528 C2560 0.930 . S
H2529 C2562 0.929 . S
H2530 C2563 0.931 . S
H2531 C2565 0.930 . S
H2532 C2566 0.932 . S
H2533 C2568 0.931 . S
H2534 C2569 0.929 . S
H2535 C2571 0.929 . S
H2536 C2572 0.931 . S
H2537 C2574 0.929 . S
N2538 C2558 1.433 . S
N2538 C2564 1.435 . S
N2538 C2570 1.423 . S
H2539 C2575 0.932 . S
C2540 N2515 1.433 . S
C2540 C2541 1.363 . S
C2540 C2545 1.370 . S
C2541 H2514 0.929 . S
C2541 C2540 1.363 . S
C2541 C2542 1.385 . S
C2542 H2516 0.930 . S
C2542 C2541 1.385 . S
C2542 C2543 1.357 . S
C2543 C2542 1.357 . S
C2543 C2544 1.406 . S
C2544 H2518 0.929 . S
C2544 C2543 1.406 . S
C2544 C2545 1.391 . S
C2545 H2517 0.931 . S
C2545 C2540 1.370 . S
C2545 C2544 1.391 . S
C2546 N2515 1.435 . S
C2546 C2547 1.358 . S
C2546 C2551 1.371 . S
C2547 H2519 0.930 . S
C2547 C2546 1.358 . S
C2547 C2548 1.405 . S
C2548 H2520 0.932 . S
C2548 C2547 1.405 . S
C2548 C2549 1.383 . S
C2549 C2548 1.383 . S
C2549 C2550 1.393 . S
C2550 H2522 0.931 . S
C2550 C2549 1.393 . S
C2550 C2551 1.382 . S
C2551 H2521 0.929 . S
C2551 C2546 1.371 . S
C2551 C2550 1.382 . S
C2552 N2515 1.423 . S
C2552 C2553 1.362 . S
C2552 C2557 1.388 . S
C2553 H2523 0.929 . S
C2553 C2552 1.362 . S
C2553 C2554 1.376 . S
C2554 H2525 0.931 . S
C2554 C2553 1.376 . S
C2554 C2555 1.396 . S
C2555 C2554 1.396 . S
C2555 C2556 1.348 . S
C2555 C2573 1.472 . S
C2556 H2526 0.929 . S
C2556 C2555 1.348 . S
C2556 C2557 1.443 . S
C2557 H2524 0.932 . S
C2557 C2552 1.388 . S
C2557 C2556 1.443 . S
C2558 N2538 1.433 . S
C2558 C2559 1.363 . S
C2558 C2563 1.370 . S
C2559 H2527 0.929 . S
C2559 C2558 1.363 . S
C2559 C2560 1.385 . S
C2560 H2528 0.930 . S
C2560 C2559 1.385 . S
C2560 C2561 1.357 . S
C2561 C2560 1.357 . S
C2561 C2562 1.406 . S
C2562 H2529 0.929 . S
C2562 C2561 1.406 . S
C2562 C2563 1.391 . S
C2563 H2530 0.931 . S
C2563 C2558 1.370 . S
C2563 C2562 1.391 . S
C2564 N2538 1.435 . S
C2564 C2565 1.358 . S
C2564 C2569 1.371 . S
C2565 H2531 0.930 . S
C2565 C2564 1.358 . S
C2565 C2566 1.405 . S
C2566 H2532 0.932 . S
C2566 C2565 1.405 . S
C2566 C2567 1.383 . S
C2567 C2566 1.383 . S
C2567 C2568 1.393 . S
C2568 H2533 0.931 . S
C2568 C2567 1.393 . S
C2568 C2569 1.382 . S
C2569 H2534 0.929 . S
C2569 C2564 1.371 . S
C2569 C2568 1.382 . S
C2570 N2538 1.423 . S
C2570 C2571 1.362 . S
C2570 C2575 1.388 . S
C2571 H2535 0.929 . S
C2571 C2570 1.362 . S
C2571 C2572 1.376 . S
C2572 H2536 0.931 . S
C2572 C2571 1.376 . S
C2572 C2573 1.396 . S
C2573 C2555 1.472 . S
C2573 C2572 1.396 . S
C2573 C2574 1.348 . S
C2574 H2537 0.929 . S
C2574 C2573 1.348 . S
C2574 C2575 1.443 . S
C2575 H2539 0.932 . S
C2575 C2570 1.388 . S
C2575 C2574 1.443 . S
H2576 C2603 0.929 . S
N2577 C2602 1.433 . S
N2577 C2608 1.435 . S
N2577 C2614 1.423 . S
H2578 C2604 0.930 . S
H2579 C2607 0.931 . S
H2580 C2606 0.929 . S
H2581 C2609 0.930 . S
H2582 C2610 0.932 . S
H2583 C2613 0.929 . S
H2584 C2612 0.931 . S
H2585 C2615 0.929 . S
H2586 C2619 0.932 . S
H2587 C2616 0.931 . S
H2588 C2618 0.929 . S
H2589 C2621 0.929 . S
H2590 C2622 0.930 . S
H2591 C2624 0.929 . S
H2592 C2625 0.931 . S
H2593 C2627 0.930 . S
H2594 C2628 0.932 . S
H2595 C2630 0.931 . S
H2596 C2631 0.929 . S
H2597 C2633 0.929 . S
H2598 C2634 0.931 . S
H2599 C2636 0.929 . S
N2600 C2620 1.433 . S
N2600 C2626 1.435 . S
N2600 C2632 1.423 . S
H2601 C2637 0.932 . S
C2602 N2577 1.433 . S
C2602 C2603 1.363 . S
C2602 C2607 1.370 . S
C2603 H2576 0.929 . S
C2603 C2602 1.363 . S
C2603 C2604 1.385 . S
C2604 H2578 0.930 . S
C2604 C2603 1.385 . S
C2604 C2605 1.357 . S
C2605 C2604 1.357 . S
C2605 C2606 1.406 . S
C2606 H2580 0.929 . S
C2606 C2605 1.406 . S
C2606 C2607 1.391 . S
C2607 H2579 0.931 . S
C2607 C2602 1.370 . S
C2607 C2606 1.391 . S
C2608 N2577 1.435 . S
C2608 C2609 1.358 . S
C2608 C2613 1.371 . S
C2609 H2581 0.930 . S
C2609 C2608 1.358 . S
C2609 C2610 1.405 . S
C2610 H2582 0.932 . S
C2610 C2609 1.405 . S
C2610 C2611 1.383 . S
C2611 C2610 1.383 . S
C2611 C2612 1.393 . S
C2612 H2584 0.931 . S
C2612 C2611 1.393 . S
C2612 C2613 1.382 . S
C2613 H2583 0.929 . S
C2613 C2608 1.371 . S
C2613 C2612 1.382 . S
C2614 N2577 1.423 . S
C2614 C2615 1.362 . S
C2614 C2619 1.388 . S
C2615 H2585 0.929 . S
C2615 C2614 1.362 . S
C2615 C2616 1.376 . S
C2616 H2587 0.931 . S
C2616 C2615 1.376 . S
C2616 C2617 1.396 . S
C2617 C2616 1.396 . S
C2617 C2618 1.348 . S
C2617 C2635 1.472 . S
C2618 H2588 0.929 . S
C2618 C2617 1.348 . S
C2618 C2619 1.443 . S
C2619 H2586 0.932 . S
C2619 C2614 1.388 . S
C2619 C2618 1.443 . S
C2620 N2600 1.433 . S
C2620 C2621 1.363 . S
C2620 C2625 1.370 . S
C2621 H2589 0.929 . S
C2621 C2620 1.363 . S
C2621 C2622 1.385 . S
C2622 H2590 0.930 . S
C2622 C2621 1.385 . S
C2622 C2623 1.357 . S
C2623 C2622 1.357 . S
C2623 C2624 1.406 . S
C2624 H2591 0.929 . S
C2624 C2623 1.406 . S
C2624 C2625 1.391 . S
C2625 H2592 0.931 . S
C2625 C2620 1.370 . S
C2625 C2624 1.391 . S
C2626 N2600 1.435 . S
C2626 C2627 1.358 . S
C2626 C2631 1.371 . S
C2627 H2593 0.930 . S
C2627 C2626 1.358 . S
C2627 C2628 1.405 . S
C2628 H2594 0.932 . S
C2628 C2627 1.405 . S
C2628 C2629 1.383 . S
C2629 C2628 1.383 . S
C2629 C2630 1.393 . S
C2630 H2595 0.931 . S
C2630 C2629 1.393 . S
C2630 C2631 1.382 . S
C2631 H2596 0.929 . S
C2631 C2626 1.371 . S
C2631 C2630 1.382 . S
C2632 N2600 1.423 . S
C2632 C2633 1.362 . S
C2632 C2637 1.388 . S
C2633 H2597 0.929 . S
C2633 C2632 1.362 . S
C2633 C2634 1.376 . S
C2634 H2598 0.931 . S
C2634 C2633 1.376 . S
C2634 C2635 1.396 . S
C2635 C2617 1.472 . S
C2635 C2634 1.396 . S
C2635 C2636 1.348 . S
C2636 H2599 0.929 . S
C2636 C2635 1.348 . S
C2636 C2637 1.443 . S
C2637 H2601 0.932 . S
C2637 C2632 1.388 . S
C2637 C2636 1.443 . S
H2638 C2665 0.929 . S
N2639 C2664 1.433 . S
N2639 C2670 1.435 . S
N2639 C2676 1.423 . S
H2640 C2666 0.930 . S
H2641 C2669 0.931 . S
H2642 C2668 0.929 . S
H2643 C2671 0.930 . S
H2644 C2672 0.932 . S
H2645 C2675 0.929 . S
H2646 C2674 0.931 . S
H2647 C2677 0.929 . S
H2648 C2681 0.932 . S
H2649 C2678 0.931 . S
H2650 C2680 0.929 . S
H2651 C2683 0.929 . S
H2652 C2684 0.930 . S
H2653 C2686 0.929 . S
H2654 C2687 0.931 . S
H2655 C2689 0.930 . S
H2656 C2690 0.932 . S
H2657 C2692 0.931 . S
H2658 C2693 0.929 . S
H2659 C2695 0.929 . S
H2660 C2696 0.931 . S
H2661 C2698 0.929 . S
N2662 C2682 1.433 . S
N2662 C2688 1.435 . S
N2662 C2694 1.423 . S
H2663 C2699 0.932 . S
C2664 N2639 1.433 . S
C2664 C2665 1.363 . S
C2664 C2669 1.370 . S
C2665 H2638 0.929 . S
C2665 C2664 1.363 . S
C2665 C2666 1.385 . S
C2666 H2640 0.930 . S
C2666 C2665 1.385 . S
C2666 C2667 1.357 . S
C2667 C2666 1.357 . S
C2667 C2668 1.406 . S
C2668 H2642 0.929 . S
C2668 C2667 1.406 . S
C2668 C2669 1.391 . S
C2669 H2641 0.931 . S
C2669 C2664 1.370 . S
C2669 C2668 1.391 . S
C2670 N2639 1.435 . S
C2670 C2671 1.358 . S
C2670 C2675 1.371 . S
C2671 H2643 0.930 . S
C2671 C2670 1.358 . S
C2671 C2672 1.405 . S
C2672 H2644 0.932 . S
C2672 C2671 1.405 . S
C2672 C2673 1.383 . S
C2673 C2672 1.383 . S
C2673 C2674 1.393 . S
C2674 H2646 0.931 . S
C2674 C2673 1.393 . S
C2674 C2675 1.382 . S
C2675 H2645 0.929 . S
C2675 C2670 1.371 . S
C2675 C2674 1.382 . S
C2676 N2639 1.423 . S
C2676 C2677 1.362 . S
C2676 C2681 1.388 . S
C2677 H2647 0.929 . S
C2677 C2676 1.362 . S
C2677 C2678 1.376 . S
C2678 H2649 0.931 . S
C2678 C2677 1.376 . S
C2678 C2679 1.396 . S
C2679 C2678 1.396 . S
C2679 C2680 1.348 . S
C2679 C2697 1.472 . S
C2680 H2650 0.929 . S
C2680 C2679 1.348 . S
C2680 C2681 1.443 . S
C2681 H2648 0.932 . S
C2681 C2676 1.388 . S
C2681 C2680 1.443 . S
C2682 N2662 1.433 . S
C2682 C2683 1.363 . S
C2682 C2687 1.370 . S
C2683 H2651 0.929 . S
C2683 C2682 1.363 . S
C2683 C2684 1.385 . S
C2684 H2652 0.930 . S
C2684 C2683 1.385 . S
C2684 C2685 1.357 . S
C2685 C2684 1.357 . S
C2685 C2686 1.406 . S
C2686 H2653 0.929 . S
C2686 C2685 1.406 . S
C2686 C2687 1.391 . S
C2687 H2654 0.931 . S
C2687 C2682 1.370 . S
C2687 C2686 1.391 . S
C2688 N2662 1.435 . S
C2688 C2689 1.358 . S
C2688 C2693 1.371 . S
C2689 H2655 0.930 . S
C2689 C2688 1.358 . S
C2689 C2690 1.405 . S
C2690 H2656 0.932 . S
C2690 C2689 1.405 . S
C2690 C2691 1.383 . S
C2691 C2690 1.383 . S
C2691 C2692 1.393 . S
C2692 H2657 0.931 . S
C2692 C2691 1.393 . S
C2692 C2693 1.382 . S
C2693 H2658 0.929 . S
C2693 C2688 1.371 . S
C2693 C2692 1.382 . S
C2694 N2662 1.423 . S
C2694 C2695 1.362 . S
C2694 C2699 1.388 . S
C2695 H2659 0.929 . S
C2695 C2694 1.362 . S
C2695 C2696 1.376 . S
C2696 H2660 0.931 . S
C2696 C2695 1.376 . S
C2696 C2697 1.396 . S
C2697 C2679 1.472 . S
C2697 C2696 1.396 . S
C2697 C2698 1.348 . S
C2698 H2661 0.929 . S
C2698 C2697 1.348 . S
C2698 C2699 1.443 . S
C2699 H2663 0.932 . S
C2699 C2694 1.388 . S
C2699 C2698 1.443 . S
H2700 C2708 0.950 . S
H2701 C2713 0.950 1_455 S
H2702 C2710 0.950 . S
H2703 C2712 0.950 1_455 S
H2704 C2714 0.950 . S
H2705 C2716 0.950 . S
H2706 C2718 0.950 . S
H2707 C2719 0.950 . S
C2708 H2700 0.950 . S
C2708 C2709 1.386 . S
C2708 C2710 1.391 . S
C2709 C2708 1.386 . S
C2709 C2713 1.393 . S
C2710 H2702 0.950 . S
C2710 C2708 1.391 . S
C2710 C2711 1.400 . S
C2711 C2710 1.400 . S
C2711 C2712 1.398 . S
C2711 C2717 1.491 . S
C2712 H2703 0.950 1_655 S
C2712 C2711 1.398 . S
C2712 C2713 1.391 . S
C2713 H2701 0.950 1_655 S
C2713 C2709 1.393 . S
C2713 C2712 1.391 . S
C2714 H2704 0.950 . S
C2714 C2715 1.386 1_455 S
C2714 C2716 1.391 . S
C2715 C2714 1.386 1_655 S
C2715 C2719 1.393 . S
C2716 H2705 0.950 . S
C2716 C2714 1.391 . S
C2716 C2717 1.400 1_455 S
C2717 C2711 1.491 . S
C2717 C2716 1.400 1_655 S
C2717 C2718 1.398 . S
C2718 H2706 0.950 . S
C2718 C2717 1.398 . S
C2718 C2719 1.391 . S
C2719 H2707 0.950 . S
C2719 C2715 1.393 . S
C2719 C2718 1.391 . S
H2720 C2728 0.950 . S
H2721 C2733 0.950 . S
H2722 C2730 0.950 . S
H2723 C2732 0.950 . S
H2724 C2734 0.950 . S
H2725 C2736 0.950 . S
H2726 C2738 0.950 . S
H2727 C2739 0.950 . S
C2728 H2720 0.950 . S
C2728 C2729 1.386 . S
C2728 C2730 1.391 . S
C2729 C2728 1.386 . S
C2729 C2733 1.393 . S
C2730 H2722 0.950 . S
C2730 C2728 1.391 . S
C2730 C2731 1.400 . S
C2731 C2730 1.400 . S
C2731 C2732 1.398 . S
C2731 C2737 1.491 . S
C2732 H2723 0.950 . S
C2732 C2731 1.398 . S
C2732 C2733 1.391 . S
C2733 H2721 0.950 . S
C2733 C2729 1.393 . S
C2733 C2732 1.391 . S
C2734 H2724 0.950 . S
C2734 C2735 1.386 . S
C2734 C2736 1.391 . S
C2735 C2734 1.386 . S
C2735 C2739 1.393 . S
C2736 H2725 0.950 . S
C2736 C2734 1.391 . S
C2736 C2737 1.400 . S
C2737 C2731 1.491 . S
C2737 C2736 1.400 . S
C2737 C2738 1.398 . S
C2738 H2726 0.950 . S
C2738 C2737 1.398 . S
C2738 C2739 1.391 . S
C2739 H2727 0.950 . S
C2739 C2735 1.393 . S
C2739 C2738 1.391 . S
H2740 C2748 0.950 . S
H2741 C2753 0.950 1_565 S
H2742 C2750 0.950 . S
H2743 C2752 0.950 1_565 S
H2744 C2754 0.950 . S
H2745 C2756 0.963 . S
H2746 C2758 0.950 . S
H2747 C2759 0.950 . S
C2748 H2740 0.950 . S
C2748 C2749 1.386 . S
C2748 C2750 1.391 . S
C2749 C2748 1.386 . S
C2749 C2753 1.393 . S
C2750 H2742 0.950 . S
C2750 C2748 1.391 . S
C2750 C2751 1.400 . S
C2751 C2750 1.400 . S
C2751 C2752 1.398 . S
C2751 C2757 1.491 . S
C2752 H2743 0.950 1_545 S
C2752 C2751 1.398 . S
C2752 C2753 1.391 . S
C2753 H2741 0.950 1_545 S
C2753 C2749 1.393 . S
C2753 C2752 1.391 . S
C2754 H2744 0.950 . S
C2754 C2755 1.386 1_565 S
C2754 C2756 1.438 . S
C2755 C2754 1.386 1_545 S
C2755 C2759 1.393 . S
C2756 H2745 0.963 . S
C2756 C2754 1.438 . S
C2756 C2757 1.350 1_565 S
C2757 C2751 1.491 . S
C2757 C2756 1.350 1_545 S
C2757 C2758 1.398 . S
C2758 H2746 0.950 . S
C2758 C2757 1.398 . S
C2758 C2759 1.391 . S
C2759 H2747 0.950 . S
C2759 C2755 1.393 . S
C2759 C2758 1.391 . S
H2760 C2768 0.950 . S
H2761 C2773 1.020 . S
H2762 C2770 0.950 . S
H2763 C2772 0.950 . S
H2764 C2774 0.950 . S
H2765 C2776 0.950 . S
H2766 C2778 0.950 . S
H2767 C2779 0.950 . S
C2768 H2760 0.950 . S
C2768 C2769 1.386 . S
C2768 C2770 1.391 . S
C2769 C2768 1.386 . S
C2769 C2773 1.347 1_565 S
C2770 H2762 0.950 . S
C2770 C2768 1.391 . S
C2770 C2771 1.400 . S
C2771 C2770 1.400 . S
C2771 C2772 1.398 1_565 S
C2771 C2777 1.491 . S
C2772 H2763 0.950 . S
C2772 C2771 1.398 1_545 S
C2772 C2773 1.369 . S
C2773 H2761 1.020 . S
C2773 C2769 1.347 1_545 S
C2773 C2772 1.369 . S
C2774 H2764 0.950 . S
C2774 C2775 1.386 1_545 S
C2774 C2776 1.391 . S
C2775 C2774 1.386 1_565 S
C2775 C2779 1.393 . S
C2776 H2765 0.950 . S
C2776 C2774 1.391 . S
C2776 C2777 1.400 1_545 S
C2777 C2771 1.491 . S
C2777 C2776 1.400 1_565 S
C2777 C2778 1.398 . S
C2778 H2766 0.950 . S
C2778 C2777 1.398 . S
C2778 C2779 1.391 . S
C2779 H2767 0.950 . S
C2779 C2775 1.393 . S
C2779 C2778 1.391 . S
H2780 C2788 0.950 . S
H2781 C2793 0.950 . S
H2782 C2790 0.950 . S
H2783 C2792 0.950 . S
H2784 C2794 0.950 . S
H2785 C2796 0.950 . S
H2786 C2798 0.950 . S
H2787 C2799 0.950 . S
C2788 H2780 0.950 . S
C2788 C2789 1.386 . S
C2788 C2790 1.391 . S
C2789 C2788 1.386 . S
C2789 C2793 1.393 . S
C2790 H2782 0.950 . S
C2790 C2788 1.391 . S
C2790 C2791 1.400 . S
C2791 C2790 1.400 . S
C2791 C2792 1.398 . S
C2791 C2797 1.491 . S
C2792 H2783 0.950 . S
C2792 C2791 1.398 . S
C2792 C2793 1.391 . S
C2793 H2781 0.950 . S
C2793 C2789 1.393 . S
C2793 C2792 1.391 . S
C2794 H2784 0.950 . S
C2794 C2795 1.386 . S
C2794 C2796 1.391 . S
C2795 C2794 1.386 . S
C2795 C2799 1.393 . S
C2796 H2785 0.950 . S
C2796 C2794 1.391 . S
C2796 C2797 1.400 . S
C2797 C2791 1.491 . S
C2797 C2796 1.400 . S
C2797 C2798 1.398 . S
C2798 H2786 0.950 . S
C2798 C2797 1.398 . S
C2798 C2799 1.391 . S
C2799 H2787 0.950 . S
C2799 C2795 1.393 . S
C2799 C2798 1.391 . S
H2800 C2808 0.950 . S
H2801 C2813 0.950 . S
H2802 C2810 0.950 . S
H2803 C2812 0.950 . S
H2804 C2814 0.950 . S
H2805 C2816 0.950 . S
H2806 C2818 0.950 . S
H2807 C2819 0.950 . S
C2808 H2800 0.950 . S
C2808 C2809 1.386 . S
C2808 C2810 1.391 . S
C2809 C2808 1.386 . S
C2809 C2813 1.393 . S
C2810 H2802 0.950 . S
C2810 C2808 1.391 . S
C2810 C2811 1.400 . S
C2811 C2810 1.400 . S
C2811 C2812 1.398 . S
C2811 C2817 1.491 . S
C2812 H2803 0.950 . S
C2812 C2811 1.398 . S
C2812 C2813 1.391 . S
C2813 H2801 0.950 . S
C2813 C2809 1.393 . S
C2813 C2812 1.391 . S
C2814 H2804 0.950 . S
C2814 C2815 1.386 . S
C2814 C2816 1.391 . S
C2815 C2814 1.386 . S
C2815 C2819 1.393 . S
C2816 H2805 0.950 . S
C2816 C2814 1.391 . S
C2816 C2817 1.400 . S
C2817 C2811 1.491 . S
C2817 C2816 1.400 . S
C2817 C2818 1.398 . S
C2818 H2806 0.950 . S
C2818 C2817 1.398 . S
C2818 C2819 1.391 . S
C2819 H2807 0.950 . S
C2819 C2815 1.393 . S
C2819 C2818 1.391 . S
H2820 C2828 0.950 . S
H2821 C2833 0.950 . S
H2822 C2830 0.950 . S
H2823 C2832 0.950 . S
H2824 C2834 0.957 1_655 S
H2825 C2836 0.950 1_655 S
H2826 C2838 0.950 . S
H2827 C2839 0.950 . S
C2828 H2820 0.950 . S
C2828 C2829 1.386 . S
C2828 C2830 1.391 . S
C2829 C2828 1.386 . S
C2829 C2833 1.393 . S
C2830 H2822 0.950 . S
C2830 C2828 1.391 . S
C2830 C2831 1.400 . S
C2831 C2830 1.400 . S
C2831 C2832 1.398 . S
C2831 C2837 1.491 . S
C2832 H2823 0.950 . S
C2832 C2831 1.398 . S
C2832 C2833 1.391 . S
C2833 H2821 0.950 . S
C2833 C2829 1.393 . S
C2833 C2832 1.391 . S
C2834 H2824 0.957 1_455 S
C2834 C2835 1.411 . S
C2834 C2836 1.368 . S
C2835 C2834 1.411 . S
C2835 C2839 1.393 . S
C2836 H2825 0.950 1_455 S
C2836 C2834 1.368 . S
C2836 C2837 1.400 . S
C2837 C2831 1.491 . S
C2837 C2836 1.400 . S
C2837 C2838 1.398 . S
C2838 H2826 0.950 . S
C2838 C2837 1.398 . S
C2838 C2839 1.391 . S
C2839 H2827 0.950 . S
C2839 C2835 1.393 . S
C2839 C2838 1.391 . S
H2840 C2848 0.950 . S
H2841 C2853 0.950 . S
H2842 C2850 0.950 . S
H2843 C2852 0.950 . S
H2844 C2854 0.950 . S
H2845 C2856 0.950 . S
H2846 C2858 0.950 . S
H2847 C2859 0.950 . S
C2848 H2840 0.950 . S
C2848 C2849 1.386 . S
C2848 C2850 1.391 . S
C2849 C2848 1.386 . S
C2849 C2853 1.393 . S
C2850 H2842 0.950 . S
C2850 C2848 1.391 . S
C2850 C2851 1.400 . S
C2851 C2850 1.400 . S
C2851 C2852 1.398 . S
C2851 C2857 1.491 . S
C2852 H2843 0.950 . S
C2852 C2851 1.398 . S
C2852 C2853 1.391 . S
C2853 H2841 0.950 . S
C2853 C2849 1.393 . S
C2853 C2852 1.391 . S
C2854 H2844 0.950 . S
C2854 C2855 1.386 . S
C2854 C2856 1.391 . S
C2855 C2854 1.386 . S
C2855 C2859 1.393 . S
C2856 H2845 0.950 . S
C2856 C2854 1.391 . S
C2856 C2857 1.400 . S
C2857 C2851 1.491 . S
C2857 C2856 1.400 . S
C2857 C2858 1.398 . S
C2858 H2846 0.950 . S
C2858 C2857 1.398 . S
C2858 C2859 1.391 . S
C2859 H2847 0.950 . S
C2859 C2855 1.393 . S
C2859 C2858 1.391 . S
H2860 C2868 0.977 . S
H2861 C2873 0.950 . S
H2862 C2870 0.950 . S
H2863 C2872 0.950 . S
H2864 C2874 0.950 . S
H2865 C2876 0.950 . S
H2866 C2878 0.950 . S
H2867 C2879 0.950 . S
C2868 H2860 0.977 . S
C2868 C2869 1.336 1_545 S
C2868 C2870 1.415 . S
C2869 C2868 1.336 1_565 S
C2869 C2873 1.393 . S
C2870 H2862 0.950 . S
C2870 C2868 1.415 . S
C2870 C2871 1.400 1_545 S
C2871 C2870 1.400 1_565 S
C2871 C2872 1.398 . S
C2871 C2877 1.491 . S
C2872 H2863 0.950 . S
C2872 C2871 1.398 . S
C2872 C2873 1.391 . S
C2873 H2861 0.950 . S
C2873 C2869 1.393 . S
C2873 C2872 1.391 . S
C2874 H2864 0.950 . S
C2874 C2875 1.386 . S
C2874 C2876 1.391 . S
C2875 C2874 1.386 . S
C2875 C2879 1.393 1_565 S
C2876 H2865 0.950 . S
C2876 C2874 1.391 . S
C2876 C2877 1.400 . S
C2877 C2871 1.491 . S
C2877 C2876 1.400 . S
C2877 C2878 1.398 1_565 S
C2878 H2866 0.950 . S
C2878 C2877 1.398 1_545 S
C2878 C2879 1.391 . S
C2879 H2867 0.950 . S
C2879 C2875 1.393 1_545 S
C2879 C2878 1.391 . S
H2880 C2888 0.950 . S
H2881 C2893 0.950 . S
H2882 C2890 0.950 . S
H2883 C2892 0.950 . S
H2884 C2894 0.950 . S
H2885 C2896 0.950 . S
H2886 C2898 0.950 . S
H2887 C2899 0.950 . S
C2888 H2880 0.950 . S
C2888 C2889 1.386 . S
C2888 C2890 1.391 . S
C2889 C2888 1.386 . S
C2889 C2893 1.393 . S
C2890 H2882 0.950 . S
C2890 C2888 1.391 . S
C2890 C2891 1.400 . S
C2891 C2890 1.400 . S
C2891 C2892 1.398 . S
C2891 C2897 1.491 . S
C2892 H2883 0.950 . S
C2892 C2891 1.398 . S
C2892 C2893 1.391 . S
C2893 H2881 0.950 . S
C2893 C2889 1.393 . S
C2893 C2892 1.391 . S
C2894 H2884 0.950 . S
C2894 C2895 1.386 . S
C2894 C2896 1.391 . S
C2895 C2894 1.386 . S
C2895 C2899 1.393 . S
C2896 H2885 0.950 . S
C2896 C2894 1.391 . S
C2896 C2897 1.400 . S
C2897 C2891 1.491 . S
C2897 C2896 1.400 . S
C2897 C2898 1.398 . S
C2898 H2886 0.950 . S
C2898 C2897 1.398 . S
C2898 C2899 1.391 . S
C2899 H2887 0.950 . S
C2899 C2895 1.393 . S
C2899 C2898 1.391 . S
H2900 C2908 0.950 . S
H2901 C2913 0.950 . S
H2902 C2910 0.950 . S
H2903 C2912 0.950 . S
H2904 C2914 0.950 . S
H2905 C2916 0.950 . S
H2906 C2918 0.950 . S
H2907 C2919 0.968 . S
C2908 H2900 0.950 . S
C2908 C2909 1.386 . S
C2908 C2910 1.391 . S
C2909 C2908 1.386 . S
C2909 C2913 1.393 . S
C2910 H2902 0.950 . S
C2910 C2908 1.391 . S
C2910 C2911 1.400 . S
C2911 C2910 1.400 . S
C2911 C2912 1.398 . S
C2911 C2917 1.491 . S
C2912 H2903 0.950 . S
C2912 C2911 1.398 . S
C2912 C2913 1.391 . S
C2913 H2901 0.950 . S
C2913 C2909 1.393 . S
C2913 C2912 1.391 . S
C2914 H2904 0.950 . S
C2914 C2915 1.386 . S
C2914 C2916 1.391 . S
C2915 C2914 1.386 . S
C2915 C2919 1.393 . S
C2916 H2905 0.950 . S
C2916 C2914 1.391 . S
C2916 C2917 1.400 . S
C2917 C2911 1.491 . S
C2917 C2916 1.400 . S
C2917 C2918 1.398 . S
C2918 H2906 0.950 . S
C2918 C2917 1.398 . S
C2918 C2919 1.391 . S
C2919 H2907 0.968 . S
C2919 C2915 1.393 . S
C2919 C2918 1.391 . S
H2920 C2928 0.950 . S
H2921 C2933 0.950 . S
H2922 C2930 0.950 . S
H2923 C2932 0.950 . S
H2924 C2934 0.950 . S
H2925 C2936 0.950 . S
H2926 C2938 0.950 . S
H2927 C2939 0.950 . S
C2928 H2920 0.950 . S
C2928 C2929 1.386 . S
C2928 C2930 1.391 . S
C2929 C2928 1.386 . S
C2929 C2933 1.393 . S
C2930 H2922 0.950 . S
C2930 C2928 1.391 . S
C2930 C2931 1.400 . S
C2931 C2930 1.400 . S
C2931 C2932 1.398 . S
C2931 C2937 1.491 . S
C2932 H2923 0.950 . S
C2932 C2931 1.398 . S
C2932 C2933 1.391 . S
C2933 H2921 0.950 . S
C2933 C2929 1.393 . S
C2933 C2932 1.391 . S
C2934 H2924 0.950 . S
C2934 C2935 1.386 . S
C2934 C2936 1.391 . S
C2935 C2934 1.386 . S
C2935 C2939 1.393 . S
C2936 H2925 0.950 . S
C2936 C2934 1.391 . S
C2936 C2937 1.400 . S
C2937 C2931 1.491 . S
C2937 C2936 1.400 . S
C2937 C2938 1.398 . S
C2938 H2926 0.950 . S
C2938 C2937 1.398 . S
C2938 C2939 1.391 . S
C2939 H2927 0.950 . S
C2939 C2935 1.393 . S
C2939 C2938 1.391 . S
H2940 C2948 0.950 . S
H2941 C2953 0.950 . S
H2942 C2950 0.950 . S
H2943 C2952 0.950 . S
H2944 C2954 0.950 . S
H2945 C2956 0.950 . S
H2946 C2958 0.950 . S
H2947 C2959 0.950 . S
C2948 H2940 0.950 . S
C2948 C2949 1.386 . S
C2948 C2950 1.391 . S
C2949 C2948 1.386 . S
C2949 C2953 1.393 . S
C2950 H2942 0.950 . S
C2950 C2948 1.391 . S
C2950 C2951 1.400 . S
C2951 C2950 1.400 . S
C2951 C2952 1.398 . S
C2951 C2957 1.491 . S
C2952 H2943 0.950 . S
C2952 C2951 1.398 . S
C2952 C2953 1.391 . S
C2953 H2941 0.950 . S
C2953 C2949 1.393 . S
C2953 C2952 1.391 . S
C2954 H2944 0.950 . S
C2954 C2955 1.386 . S
C2954 C2956 1.391 . S
C2955 C2954 1.386 . S
C2955 C2959 1.393 . S
C2956 H2945 0.950 . S
C2956 C2954 1.391 . S
C2956 C2957 1.400 . S
C2957 C2951 1.491 . S
C2957 C2956 1.400 . S
C2957 C2958 1.398 . S
C2958 H2946 0.950 . S
C2958 C2957 1.398 . S
C2958 C2959 1.391 . S
C2959 H2947 0.950 . S
C2959 C2955 1.393 . S
C2959 C2958 1.391 . S
H2960 C2968 0.950 . S
H2961 C2973 0.950 . S
H2962 C2970 0.950 . S
H2963 C2972 0.950 . S
H2964 C2974 0.950 . S
H2965 C2976 0.950 . S
H2966 C2978 0.950 . S
H2967 C2979 0.950 . S
C2968 H2960 0.950 . S
C2968 C2969 1.386 . S
C2968 C2970 1.391 . S
C2969 C2968 1.386 . S
C2969 C2973 1.393 . S
C2970 H2962 0.950 . S
C2970 C2968 1.391 . S
C2970 C2971 1.400 . S
C2971 C2970 1.400 . S
C2971 C2972 1.398 . S
C2971 C2977 1.491 . S
C2972 H2963 0.950 . S
C2972 C2971 1.398 . S
C2972 C2973 1.391 . S
C2973 H2961 0.950 . S
C2973 C2969 1.393 . S
C2973 C2972 1.391 . S
C2974 H2964 0.950 . S
C2974 C2975 1.386 . S
C2974 C2976 1.391 . S
C2975 C2974 1.386 . S
C2975 C2979 1.393 . S
C2976 H2965 0.950 . S
C2976 C2974 1.391 . S
C2976 C2977 1.400 . S
C2977 C2971 1.491 . S
C2977 C2976 1.400 . S
C2977 C2978 1.398 . S
C2978 H2966 0.950 . S
C2978 C2977 1.398 . S
C2978 C2979 1.391 . S
C2979 H2967 0.950 . S
C2979 C2975 1.393 . S
C2979 C2978 1.391 . S
H2980 C2988 0.950 . S
H2981 C2993 0.950 . S
H2982 C2990 0.950 . S
H2983 C2992 0.950 . S
H2984 C2994 0.950 . S
H2985 C2996 0.950 . S
H2986 C2998 0.950 . S
H2987 C2999 0.950 . S
C2988 H2980 0.950 . S
C2988 C2989 1.386 . S
C2988 C2990 1.391 . S
C2989 C2988 1.386 . S
C2989 C2993 1.393 . S
C2990 H2982 0.950 . S
C2990 C2988 1.391 . S
C2990 C2991 1.400 . S
C2991 C2990 1.400 . S
C2991 C2992 1.398 . S
C2991 C2997 1.491 . S
C2992 H2983 0.950 . S
C2992 C2991 1.398 . S
C2992 C2993 1.391 . S
C2993 H2981 0.950 . S
C2993 C2989 1.393 . S
C2993 C2992 1.391 . S
C2994 H2984 0.950 . S
C2994 C2995 1.386 . S
C2994 C2996 1.391 . S
C2995 C2994 1.386 . S
C2995 C2999 1.393 . S
C2996 H2985 0.950 . S
C2996 C2994 1.391 . S
C2996 C2997 1.400 . S
C2997 C2991 1.491 . S
C2997 C2996 1.400 . S
C2997 C2998 1.398 . S
C2998 H2986 0.950 . S
C2998 C2997 1.398 . S
C2998 C2999 1.391 . S
C2999 H2987 0.950 . S
C2999 C2995 1.393 . S
C2999 C2998 1.391 . S
H3000 C3008 0.950 . S
H3001 C3013 0.950 . S
H3002 C3010 0.950 . S
H3003 C3012 0.950 . S
H3004 C3014 0.950 . S
H3005 C3016 0.950 . S
H3006 C3018 0.950 . S
H3007 C3019 0.950 . S
C3008 H3000 0.950 . S
C3008 C3009 1.386 . S
C3008 C3010 1.391 . S
C3009 C3008 1.386 . S
C3009 C3013 1.393 . S
C3010 H3002 0.950 . S
C3010 C3008 1.391 . S
C3010 C3011 1.400 . S
C3011 C3010 1.400 . S
C3011 C3012 1.398 . S
C3011 C3017 1.491 . S
C3012 H3003 0.950 . S
C3012 C3011 1.398 . S
C3012 C3013 1.391 . S
C3013 H3001 0.950 . S
C3013 C3009 1.393 . S
C3013 C3012 1.391 . S
C3014 H3004 0.950 . S
C3014 C3015 1.386 . S
C3014 C3016 1.391 . S
C3015 C3014 1.386 . S
C3015 C3019 1.393 . S
C3016 H3005 0.950 . S
C3016 C3014 1.391 . S
C3016 C3017 1.400 . S
C3017 C3011 1.491 . S
C3017 C3016 1.400 . S
C3017 C3018 1.398 . S
C3018 H3006 0.950 . S
C3018 C3017 1.398 . S
C3018 C3019 1.391 . S
C3019 H3007 0.950 . S
C3019 C3015 1.393 . S
C3019 C3018 1.391 . S
H3020 C3028 0.950 . S
H3021 C3033 0.950 . S
H3022 C3030 0.950 . S
H3023 C3032 0.950 . S
H3024 C3034 0.950 . S
H3025 C3036 0.950 . S
H3026 C3038 0.950 . S
H3027 C3039 0.950 . S
C3028 H3020 0.950 . S
C3028 C3029 1.386 . S
C3028 C3030 1.391 . S
C3029 C3028 1.386 . S
C3029 C3033 1.393 . S
C3030 H3022 0.950 . S
C3030 C3028 1.391 . S
C3030 C3031 1.400 . S
C3031 C3030 1.400 . S
C3031 C3032 1.398 . S
C3031 C3037 1.491 . S
C3032 H3023 0.950 . S
C3032 C3031 1.398 . S
C3032 C3033 1.391 . S
C3033 H3021 0.950 . S
C3033 C3029 1.393 . S
C3033 C3032 1.391 . S
C3034 H3024 0.950 . S
C3034 C3035 1.386 . S
C3034 C3036 1.391 . S
C3035 C3034 1.386 . S
C3035 C3039 1.393 . S
C3036 H3025 0.950 . S
C3036 C3034 1.391 . S
C3036 C3037 1.400 . S
C3037 C3031 1.491 . S
C3037 C3036 1.400 . S
C3037 C3038 1.398 . S
C3038 H3026 0.950 . S
C3038 C3037 1.398 . S
C3038 C3039 1.391 . S
C3039 H3027 0.950 . S
C3039 C3035 1.393 . S
C3039 C3038 1.391 . S
H3040 C3048 0.950 . S
H3041 C3053 0.950 . S
H3042 C3050 0.950 . S
H3043 C3052 0.950 . S
H3044 C3054 0.950 . S
H3045 C3056 0.950 . S
H3046 C3058 0.950 . S
H3047 C3059 0.950 . S
C3048 H3040 0.950 . S
C3048 C3049 1.386 . S
C3048 C3050 1.391 . S
C3049 C3048 1.386 . S
C3049 C3053 1.393 . S
C3050 H3042 0.950 . S
C3050 C3048 1.391 . S
C3050 C3051 1.400 . S
C3051 C3050 1.400 . S
C3051 C3052 1.398 . S
C3051 C3057 1.491 . S
C3052 H3043 0.950 . S
C3052 C3051 1.398 . S
C3052 C3053 1.391 . S
C3053 H3041 0.950 . S
C3053 C3049 1.393 . S
C3053 C3052 1.391 . S
C3054 H3044 0.950 . S
C3054 C3055 1.386 . S
C3054 C3056 1.391 . S
C3055 C3054 1.386 . S
C3055 C3059 1.393 . S
C3056 H3045 0.950 . S
C3056 C3054 1.391 . S
C3056 C3057 1.400 . S
C3057 C3051 1.491 . S
C3057 C3056 1.400 . S
C3057 C3058 1.398 . S
C3058 H3046 0.950 . S
C3058 C3057 1.398 . S
C3058 C3059 1.391 . S
C3059 H3047 0.950 . S
C3059 C3055 1.393 . S
C3059 C3058 1.391 . S
H3060 C3068 0.950 . S
H3061 C3073 0.950 . S
H3062 C3070 0.950 . S
H3063 C3072 0.950 . S
H3064 C3074 0.950 . S
H3065 C3076 0.950 . S
H3066 C3078 0.950 . S
H3067 C3079 0.950 . S
C3068 H3060 0.950 . S
C3068 C3069 1.386 . S
C3068 C3070 1.391 . S
C3069 C3068 1.386 . S
C3069 C3073 1.393 . S
C3070 H3062 0.950 . S
C3070 C3068 1.391 . S
C3070 C3071 1.400 . S
C3071 C3070 1.400 . S
C3071 C3072 1.398 . S
C3071 C3077 1.491 . S
C3072 H3063 0.950 . S
C3072 C3071 1.398 . S
C3072 C3073 1.391 . S
C3073 H3061 0.950 . S
C3073 C3069 1.393 . S
C3073 C3072 1.391 . S
C3074 H3064 0.950 . S
C3074 C3075 1.386 . S
C3074 C3076 1.391 . S
C3075 C3074 1.386 . S
C3075 C3079 1.393 . S
C3076 H3065 0.950 . S
C3076 C3074 1.391 . S
C3076 C3077 1.400 . S
C3077 C3071 1.491 . S
C3077 C3076 1.400 . S
C3077 C3078 1.398 . S
C3078 H3066 0.950 . S
C3078 C3077 1.398 . S
C3078 C3079 1.391 . S
C3079 H3067 0.950 . S
C3079 C3075 1.393 . S
C3079 C3078 1.391 . S
H3080 C3088 0.950 . S
H3081 C3093 0.950 . S
H3082 C3090 0.950 . S
H3083 C3092 0.950 . S
H3084 C3094 0.950 . S
H3085 C3096 0.950 . S
H3086 C3098 0.950 . S
H3087 C3099 0.950 . S
C3088 H3080 0.950 . S
C3088 C3089 1.386 . S
C3088 C3090 1.391 . S
C3089 C3088 1.386 . S
C3089 C3093 1.393 . S
C3090 H3082 0.950 . S
C3090 C3088 1.391 . S
C3090 C3091 1.400 . S
C3091 C3090 1.400 . S
C3091 C3092 1.398 . S
C3091 C3097 1.491 . S
C3092 H3083 0.950 . S
C3092 C3091 1.398 . S
C3092 C3093 1.391 . S
C3093 H3081 0.950 . S
C3093 C3089 1.393 . S
C3093 C3092 1.391 . S
C3094 H3084 0.950 . S
C3094 C3095 1.386 . S
C3094 C3096 1.391 . S
C3095 C3094 1.386 . S
C3095 C3099 1.393 . S
C3096 H3085 0.950 . S
C3096 C3094 1.391 . S
C3096 C3097 1.400 . S
C3097 C3091 1.491 . S
C3097 C3096 1.400 . S
C3097 C3098 1.398 . S
C3098 H3086 0.950 . S
C3098 C3097 1.398 . S
C3098 C3099 1.391 . S
C3099 H3087 0.950 . S
C3099 C3095 1.393 . S
C3099 C3098 1.391 . S
H3100 C3108 0.950 . S
H3101 C3113 0.950 . S
H3102 C3110 0.950 . S
H3103 C3112 0.950 . S
H3104 C3114 0.950 . S
H3105 C3116 0.950 . S
H3106 C3118 0.950 . S
H3107 C3119 0.950 . S
C3108 H3100 0.950 . S
C3108 C3109 1.386 . S
C3108 C3110 1.391 . S
C3109 C3108 1.386 . S
C3109 C3113 1.393 . S
C3110 H3102 0.950 . S
C3110 C3108 1.391 . S
C3110 C3111 1.400 . S
C3111 C3110 1.400 . S
C3111 C3112 1.398 . S
C3111 C3117 1.491 . S
C3112 H3103 0.950 . S
C3112 C3111 1.398 . S
C3112 C3113 1.391 . S
C3113 H3101 0.950 . S
C3113 C3109 1.393 . S
C3113 C3112 1.391 . S
C3114 H3104 0.950 . S
C3114 C3115 1.386 . S
C3114 C3116 1.391 . S
C3115 C3114 1.386 . S
C3115 C3119 1.393 . S
C3116 H3105 0.950 . S
C3116 C3114 1.391 . S
C3116 C3117 1.400 . S
C3117 C3111 1.491 . S
C3117 C3116 1.400 . S
C3117 C3118 1.398 . S
C3118 H3106 0.950 . S
C3118 C3117 1.398 . S
C3118 C3119 1.391 . S
C3119 H3107 0.950 . S
C3119 C3115 1.393 . S
C3119 C3118 1.391 . S
H3120 C3128 0.950 . S
H3121 C3133 0.950 . S
H3122 C3130 0.950 . S
H3123 C3132 0.950 . S
H3124 C3134 0.950 . S
H3125 C3136 0.950 . S
H3126 C3138 0.950 . S
H3127 C3139 0.950 . S
C3128 H3120 0.950 . S
C3128 C3129 1.386 . S
C3128 C3130 1.391 . S
C3129 C3128 1.386 . S
C3129 C3133 1.393 . S
C3130 H3122 0.950 . S
C3130 C3128 1.391 . S
C3130 C3131 1.400 . S
C3131 C3130 1.400 . S
C3131 C3132 1.398 . S
C3131 C3137 1.491 . S
C3132 H3123 0.950 . S
C3132 C3131 1.398 . S
C3132 C3133 1.391 . S
C3133 H3121 0.950 . S
C3133 C3129 1.393 . S
C3133 C3132 1.391 . S
C3134 H3124 0.950 . S
C3134 C3135 1.386 . S
C3134 C3136 1.391 . S
C3135 C3134 1.386 . S
C3135 C3139 1.393 . S
C3136 H3125 0.950 . S
C3136 C3134 1.391 . S
C3136 C3137 1.400 . S
C3137 C3131 1.491 . S
C3137 C3136 1.400 . S
C3137 C3138 1.398 . S
C3138 H3126 0.950 . S
C3138 C3137 1.398 . S
C3138 C3139 1.391 . S
C3139 H3127 0.950 . S
C3139 C3135 1.393 . S
C3139 C3138 1.391 . S
H3140 C3148 0.950 . S
H3141 C3153 0.950 . S
H3142 C3150 0.950 . S
H3143 C3152 0.950 . S
H3144 C3154 0.950 . S
H3145 C3156 0.950 . S
H3146 C3158 0.950 . S
H3147 C3159 0.950 . S
C3148 H3140 0.950 . S
C3148 C3149 1.386 . S
C3148 C3150 1.391 . S
C3149 C3148 1.386 . S
C3149 C3153 1.393 . S
C3150 H3142 0.950 . S
C3150 C3148 1.391 . S
C3150 C3151 1.400 . S
C3151 C3150 1.400 . S
C3151 C3152 1.398 . S
C3151 C3157 1.491 . S
C3152 H3143 0.950 . S
C3152 C3151 1.398 . S
C3152 C3153 1.391 . S
C3153 H3141 0.950 . S
C3153 C3149 1.393 . S
C3153 C3152 1.391 . S
C3154 H3144 0.950 . S
C3154 C3155 1.386 . S
C3154 C3156 1.391 . S
C3155 C3154 1.386 . S
C3155 C3159 1.393 . S
C3156 H3145 0.950 . S
C3156 C3154 1.391 . S
C3156 C3157 1.400 . S
C3157 C3151 1.491 . S
C3157 C3156 1.400 . S
C3157 C3158 1.398 . S
C3158 H3146 0.950 . S
C3158 C3157 1.398 . S
C3158 C3159 1.391 . S
C3159 H3147 0.950 . S
C3159 C3155 1.393 . S
C3159 C3158 1.391 . S
H3160 C3168 0.950 . S
H3161 C3173 0.950 . S
H3162 C3170 0.950 . S
H3163 C3172 0.950 . S
H3164 C3174 0.950 . S
H3165 C3176 0.950 . S
H3166 C3178 0.950 . S
H3167 C3179 0.950 . S
C3168 H3160 0.950 . S
C3168 C3169 1.386 . S
C3168 C3170 1.391 . S
C3169 C3168 1.386 . S
C3169 C3173 1.393 . S
C3170 H3162 0.950 . S
C3170 C3168 1.391 . S
C3170 C3171 1.400 . S
C3171 C3170 1.400 . S
C3171 C3172 1.398 . S
C3171 C3177 1.491 . S
C3172 H3163 0.950 . S
C3172 C3171 1.398 . S
C3172 C3173 1.391 . S
C3173 H3161 0.950 . S
C3173 C3169 1.393 . S
C3173 C3172 1.391 . S
C3174 H3164 0.950 . S
C3174 C3175 1.386 . S
C3174 C3176 1.391 . S
C3175 C3174 1.386 . S
C3175 C3179 1.393 . S
C3176 H3165 0.950 . S
C3176 C3174 1.391 . S
C3176 C3177 1.400 . S
C3177 C3171 1.491 . S
C3177 C3176 1.400 . S
C3177 C3178 1.398 . S
C3178 H3166 0.950 . S
C3178 C3177 1.398 . S
C3178 C3179 1.391 . S
C3179 H3167 0.950 . S
C3179 C3175 1.393 . S
C3179 C3178 1.391 . S
H3180 C3188 0.950 . S
H3181 C3193 0.950 . S
H3182 C3190 0.950 . S
H3183 C3192 0.950 . S
H3184 C3194 0.950 . S
H3185 C3196 0.950 . S
H3186 C3198 0.950 . S
H3187 C3199 0.950 . S
C3188 H3180 0.950 . S
C3188 C3189 1.386 . S
C3188 C3190 1.391 . S
C3189 C3188 1.386 . S
C3189 C3193 1.393 . S
C3190 H3182 0.950 . S
C3190 C3188 1.391 . S
C3190 C3191 1.400 . S
C3191 C3190 1.400 . S
C3191 C3192 1.398 . S
C3191 C3197 1.491 . S
C3192 H3183 0.950 . S
C3192 C3191 1.398 . S
C3192 C3193 1.391 . S
C3193 H3181 0.950 . S
C3193 C3189 1.393 . S
C3193 C3192 1.391 . S
C3194 H3184 0.950 . S
C3194 C3195 1.386 . S
C3194 C3196 1.391 . S
C3195 C3194 1.386 . S
C3195 C3199 1.393 . S
C3196 H3185 0.950 . S
C3196 C3194 1.391 . S
C3196 C3197 1.400 . S
C3197 C3191 1.491 . S
C3197 C3196 1.400 . S
C3197 C3198 1.398 . S
C3198 H3186 0.950 . S
C3198 C3197 1.398 . S
C3198 C3199 1.391 . S
C3199 H3187 0.950 . S
C3199 C3195 1.393 . S
C3199 C3198 1.391 . S
H3200 C3208 0.950 . S
H3201 C3213 0.950 . S
H3202 C3210 0.950 . S
H3203 C3212 0.950 . S
H3204 C3214 0.950 . S
H3205 C3216 0.950 . S
H3206 C3218 0.950 . S
H3207 C3219 0.950 . S
C3208 H3200 0.950 . S
C3208 C3209 1.386 . S
C3208 C3210 1.391 . S
C3209 C3208 1.386 . S
C3209 C3213 1.393 . S
C3210 H3202 0.950 . S
C3210 C3208 1.391 . S
C3210 C3211 1.400 . S
C3211 C3210 1.400 . S
C3211 C3212 1.398 . S
C3211 C3217 1.491 . S
C3212 H3203 0.950 . S
C3212 C3211 1.398 . S
C3212 C3213 1.391 . S
C3213 H3201 0.950 . S
C3213 C3209 1.393 . S
C3213 C3212 1.391 . S
C3214 H3204 0.950 . S
C3214 C3215 1.386 . S
C3214 C3216 1.391 . S
C3215 C3214 1.386 . S
C3215 C3219 1.393 . S
C3216 H3205 0.950 . S
C3216 C3214 1.391 . S
C3216 C3217 1.400 . S
C3217 C3211 1.491 . S
C3217 C3216 1.400 . S
C3217 C3218 1.398 . S
C3218 H3206 0.950 . S
C3218 C3217 1.398 . S
C3218 C3219 1.391 . S
C3219 H3207 0.950 . S
C3219 C3215 1.393 . S
C3219 C3218 1.391 . S
H3220 C3228 0.950 . S
H3221 C3233 0.950 . S
H3222 C3230 0.950 . S
H3223 C3232 0.950 . S
H3224 C3234 0.950 . S
H3225 C3236 0.950 . S
H3226 C3238 0.950 . S
H3227 C3239 0.950 . S
C3228 H3220 0.950 . S
C3228 C3229 1.386 . S
C3228 C3230 1.391 . S
C3229 C3228 1.386 . S
C3229 C3233 1.393 . S
C3230 H3222 0.950 . S
C3230 C3228 1.391 . S
C3230 C3231 1.400 . S
C3231 C3230 1.400 . S
C3231 C3232 1.398 . S
C3231 C3237 1.491 . S
C3232 H3223 0.950 . S
C3232 C3231 1.398 . S
C3232 C3233 1.391 . S
C3233 H3221 0.950 . S
C3233 C3229 1.393 . S
C3233 C3232 1.391 . S
C3234 H3224 0.950 . S
C3234 C3235 1.386 . S
C3234 C3236 1.391 . S
C3235 C3234 1.386 . S
C3235 C3239 1.393 . S
C3236 H3225 0.950 . S
C3236 C3234 1.391 . S
C3236 C3237 1.400 . S
C3237 C3231 1.491 . S
C3237 C3236 1.400 . S
C3237 C3238 1.398 . S
C3238 H3226 0.950 . S
C3238 C3237 1.398 . S
C3238 C3239 1.391 . S
C3239 H3227 0.950 . S
C3239 C3235 1.393 . S
C3239 C3238 1.391 . S
H3240 C3248 0.950 . S
H3241 C3253 0.950 . S
H3242 C3250 0.950 . S
H3243 C3252 0.950 . S
H3244 C3254 0.950 . S
H3245 C3256 0.950 . S
H3246 C3258 0.950 . S
H3247 C3259 0.950 . S
C3248 H3240 0.950 . S
C3248 C3249 1.386 . S
C3248 C3250 1.391 . S
C3249 C3248 1.386 . S
C3249 C3253 1.393 . S
C3250 H3242 0.950 . S
C3250 C3248 1.391 . S
C3250 C3251 1.400 . S
C3251 C3250 1.400 . S
C3251 C3252 1.398 . S
C3251 C3257 1.491 . S
C3252 H3243 0.950 . S
C3252 C3251 1.398 . S
C3252 C3253 1.391 . S
C3253 H3241 0.950 . S
C3253 C3249 1.393 . S
C3253 C3252 1.391 . S
C3254 H3244 0.950 . S
C3254 C3255 1.386 . S
C3254 C3256 1.391 . S
C3255 C3254 1.386 . S
C3255 C3259 1.393 . S
C3256 H3245 0.950 . S
C3256 C3254 1.391 . S
C3256 C3257 1.400 . S
C3257 C3251 1.491 . S
C3257 C3256 1.400 . S
C3257 C3258 1.398 . S
C3258 H3246 0.950 . S
C3258 C3257 1.398 . S
C3258 C3259 1.391 . S
C3259 H3247 0.950 . S
C3259 C3255 1.393 . S
C3259 C3258 1.391 . S
H3260 C3268 0.950 . S
H3261 C3273 0.950 . S
H3262 C3270 0.950 . S
H3263 C3272 0.950 . S
H3264 C3274 0.950 . S
H3265 C3276 0.950 . S
H3266 C3278 0.950 . S
H3267 C3279 0.950 . S
C3268 H3260 0.950 . S
C3268 C3269 1.386 . S
C3268 C3270 1.391 . S
C3269 C3268 1.386 . S
C3269 C3273 1.393 . S
C3270 H3262 0.950 . S
C3270 C3268 1.391 . S
C3270 C3271 1.400 . S
C3271 C3270 1.400 . S
C3271 C3272 1.398 . S
C3271 C3277 1.491 . S
C3272 H3263 0.950 . S
C3272 C3271 1.398 . S
C3272 C3273 1.391 . S
C3273 H3261 0.950 . S
C3273 C3269 1.393 . S
C3273 C3272 1.391 . S
C3274 H3264 0.950 . S
C3274 C3275 1.386 . S
C3274 C3276 1.391 . S
C3275 C3274 1.386 . S
C3275 C3279 1.393 . S
C3276 H3265 0.950 . S
C3276 C3274 1.391 . S
C3276 C3277 1.400 . S
C3277 C3271 1.491 . S
C3277 C3276 1.400 . S
C3277 C3278 1.398 . S
C3278 H3266 0.950 . S
C3278 C3277 1.398 . S
C3278 C3279 1.391 . S
C3279 H3267 0.950 . S
C3279 C3275 1.393 . S
C3279 C3278 1.391 . S
H3280 C3288 0.950 . S
H3281 C3293 0.950 . S
H3282 C3290 0.950 . S
H3283 C3292 0.950 . S
H3284 C3294 0.950 . S
H3285 C3296 0.950 . S
H3286 C3298 0.950 . S
H3287 C3299 0.950 . S
C3288 H3280 0.950 . S
C3288 C3289 1.386 . S
C3288 C3290 1.391 . S
C3289 C3288 1.386 . S
C3289 C3293 1.393 . S
C3290 H3282 0.950 . S
C3290 C3288 1.391 . S
C3290 C3291 1.400 . S
C3291 C3290 1.400 . S
C3291 C3292 1.398 . S
C3291 C3297 1.491 . S
C3292 H3283 0.950 . S
C3292 C3291 1.398 . S
C3292 C3293 1.391 . S
C3293 H3281 0.950 . S
C3293 C3289 1.393 . S
C3293 C3292 1.391 . S
C3294 H3284 0.950 . S
C3294 C3295 1.386 . S
C3294 C3296 1.391 . S
C3295 C3294 1.386 . S
C3295 C3299 1.393 . S
C3296 H3285 0.950 . S
C3296 C3294 1.391 . S
C3296 C3297 1.400 . S
C3297 C3291 1.491 . S
C3297 C3296 1.400 . S
C3297 C3298 1.398 . S
C3298 H3286 0.950 . S
C3298 C3297 1.398 . S
C3298 C3299 1.391 . S
C3299 H3287 0.950 . S
C3299 C3295 1.393 . S
C3299 C3298 1.391 . S
H3300 C3308 0.950 . S
H3301 C3313 0.950 . S
H3302 C3310 0.950 . S
H3303 C3312 0.950 . S
H3304 C3314 0.950 . S
H3305 C3316 0.950 . S
H3306 C3318 0.950 . S
H3307 C3319 0.950 . S
C3308 H3300 0.950 . S
C3308 C3309 1.386 . S
C3308 C3310 1.391 . S
C3309 C3308 1.386 . S
C3309 C3313 1.393 . S
C3310 H3302 0.950 . S
C3310 C3308 1.391 . S
C3310 C3311 1.400 . S
C3311 C3310 1.400 . S
C3311 C3312 1.398 . S
C3311 C3317 1.491 . S
C3312 H3303 0.950 . S
C3312 C3311 1.398 . S
C3312 C3313 1.391 . S
C3313 H3301 0.950 . S
C3313 C3309 1.393 . S
C3313 C3312 1.391 . S
C3314 H3304 0.950 . S
C3314 C3315 1.386 . S
C3314 C3316 1.391 . S
C3315 C3314 1.386 . S
C3315 C3319 1.393 . S
C3316 H3305 0.950 . S
C3316 C3314 1.391 . S
C3316 C3317 1.400 . S
C3317 C3311 1.491 . S
C3317 C3316 1.400 . S
C3317 C3318 1.398 . S
C3318 H3306 0.950 . S
C3318 C3317 1.398 . S
C3318 C3319 1.391 . S
C3319 H3307 0.950 . S
C3319 C3315 1.393 . S
C3319 C3318 1.391 . S
H3320 C3328 0.950 . S
H3321 C3333 0.950 . S
H3322 C3330 0.950 . S
H3323 C3332 0.950 . S
H3324 C3334 0.950 . S
H3325 C3336 0.950 . S
H3326 C3338 0.950 . S
H3327 C3339 0.950 . S
C3328 H3320 0.950 . S
C3328 C3329 1.386 . S
C3328 C3330 1.391 . S
C3329 C3328 1.386 . S
C3329 C3333 1.393 . S
C3330 H3322 0.950 . S
C3330 C3328 1.391 . S
C3330 C3331 1.400 . S
C3331 C3330 1.400 . S
C3331 C3332 1.398 . S
C3331 C3337 1.491 . S
C3332 H3323 0.950 . S
C3332 C3331 1.398 . S
C3332 C3333 1.391 . S
C3333 H3321 0.950 . S
C3333 C3329 1.393 . S
C3333 C3332 1.391 . S
C3334 H3324 0.950 . S
C3334 C3335 1.386 . S
C3334 C3336 1.391 . S
C3335 C3334 1.386 . S
C3335 C3339 1.393 . S
C3336 H3325 0.950 . S
C3336 C3334 1.391 . S
C3336 C3337 1.400 . S
C3337 C3331 1.491 . S
C3337 C3336 1.400 . S
C3337 C3338 1.398 . S
C3338 H3326 0.950 . S
C3338 C3337 1.398 . S
C3338 C3339 1.391 . S
C3339 H3327 0.950 . S
C3339 C3335 1.393 . S
C3339 C3338 1.391 . S
H3340 C3348 0.950 . S
H3341 C3353 0.950 . S
H3342 C3350 0.950 . S
H3343 C3352 0.950 . S
H3344 C3354 0.950 . S
H3345 C3356 0.950 . S
H3346 C3358 0.950 . S
H3347 C3359 0.950 . S
C3348 H3340 0.950 . S
C3348 C3349 1.386 . S
C3348 C3350 1.391 . S
C3349 C3348 1.386 . S
C3349 C3353 1.393 . S
C3350 H3342 0.950 . S
C3350 C3348 1.391 . S
C3350 C3351 1.400 . S
C3351 C3350 1.400 . S
C3351 C3352 1.398 . S
C3351 C3357 1.491 . S
C3352 H3343 0.950 . S
C3352 C3351 1.398 . S
C3352 C3353 1.391 . S
C3353 H3341 0.950 . S
C3353 C3349 1.393 . S
C3353 C3352 1.391 . S
C3354 H3344 0.950 . S
C3354 C3355 1.386 . S
C3354 C3356 1.391 . S
C3355 C3354 1.386 . S
C3355 C3359 1.393 . S
C3356 H3345 0.950 . S
C3356 C3354 1.391 . S
C3356 C3357 1.400 . S
C3357 C3351 1.491 . S
C3357 C3356 1.400 . S
C3357 C3358 1.398 . S
C3358 H3346 0.950 . S
C3358 C3357 1.398 . S
C3358 C3359 1.391 . S
C3359 H3347 0.950 . S
C3359 C3355 1.393 . S
C3359 C3358 1.391 . S
H3360 C3368 0.950 . S
H3361 C3373 0.950 . S
H3362 C3370 0.950 . S
H3363 C3372 0.950 . S
H3364 C3374 0.950 . S
H3365 C3376 0.950 . S
H3366 C3378 0.950 . S
H3367 C3379 0.950 . S
C3368 H3360 0.950 . S
C3368 C3369 1.386 . S
C3368 C3370 1.391 . S
C3369 C3368 1.386 . S
C3369 C3373 1.393 . S
C3370 H3362 0.950 . S
C3370 C3368 1.391 . S
C3370 C3371 1.400 . S
C3371 C3370 1.400 . S
C3371 C3372 1.398 . S
C3371 C3377 1.491 . S
C3372 H3363 0.950 . S
C3372 C3371 1.398 . S
C3372 C3373 1.391 . S
C3373 H3361 0.950 . S
C3373 C3369 1.393 . S
C3373 C3372 1.391 . S
C3374 H3364 0.950 . S
C3374 C3375 1.386 . S
C3374 C3376 1.391 . S
C3375 C3374 1.386 . S
C3375 C3379 1.393 . S
C3376 H3365 0.950 . S
C3376 C3374 1.391 . S
C3376 C3377 1.400 . S
C3377 C3371 1.491 . S
C3377 C3376 1.400 . S
C3377 C3378 1.398 . S
C3378 H3366 0.950 . S
C3378 C3377 1.398 . S
C3378 C3379 1.391 . S
C3379 H3367 0.950 . S
C3379 C3375 1.393 . S
C3379 C3378 1.391 . S
H3380 C3388 0.950 . S
H3381 C3393 0.950 . S
H3382 C3390 0.950 . S
H3383 C3392 0.950 . S
H3384 C3394 0.950 . S
H3385 C3396 0.950 . S
H3386 C3398 0.950 . S
H3387 C3399 0.950 . S
C3388 H3380 0.950 . S
C3388 C3389 1.386 . S
C3388 C3390 1.391 . S
C3389 C3388 1.386 . S
C3389 C3393 1.393 . S
C3390 H3382 0.950 . S
C3390 C3388 1.391 . S
C3390 C3391 1.400 . S
C3391 C3390 1.400 . S
C3391 C3392 1.398 . S
C3391 C3397 1.491 . S
C3392 H3383 0.950 . S
C3392 C3391 1.398 . S
C3392 C3393 1.391 . S
C3393 H3381 0.950 . S
C3393 C3389 1.393 . S
C3393 C3392 1.391 . S
C3394 H3384 0.950 . S
C3394 C3395 1.386 . S
C3394 C3396 1.391 . S
C3395 C3394 1.386 . S
C3395 C3399 1.393 . S
C3396 H3385 0.950 . S
C3396 C3394 1.391 . S
C3396 C3397 1.400 . S
C3397 C3391 1.491 . S
C3397 C3396 1.400 . S
C3397 C3398 1.398 . S
C3398 H3386 0.950 . S
C3398 C3397 1.398 . S
C3398 C3399 1.391 . S
C3399 H3387 0.950 . S
C3399 C3395 1.393 . S
C3399 C3398 1.391 . S
H3400 C3408 0.950 . S
H3401 C3413 0.950 . S
H3402 C3410 0.950 . S
H3403 C3412 0.950 . S
H3404 C3414 0.950 . S
H3405 C3416 0.950 . S
H3406 C3418 0.950 . S
H3407 C3419 0.950 . S
C3408 H3400 0.950 . S
C3408 C3409 1.386 . S
C3408 C3410 1.391 . S
C3409 C3408 1.386 . S
C3409 C3413 1.393 . S
C3410 H3402 0.950 . S
C3410 C3408 1.391 . S
C3410 C3411 1.400 . S
C3411 C3410 1.400 . S
C3411 C3412 1.398 . S
C3411 C3417 1.491 . S
C3412 H3403 0.950 . S
C3412 C3411 1.398 . S
C3412 C3413 1.391 . S
C3413 H3401 0.950 . S
C3413 C3409 1.393 . S
C3413 C3412 1.391 . S
C3414 H3404 0.950 . S
C3414 C3415 1.386 . S
C3414 C3416 1.391 . S
C3415 C3414 1.386 . S
C3415 C3419 1.393 . S
C3416 H3405 0.950 . S
C3416 C3414 1.391 . S
C3416 C3417 1.400 . S
C3417 C3411 1.491 . S
C3417 C3416 1.400 . S
C3417 C3418 1.398 . S
C3418 H3406 0.950 . S
C3418 C3417 1.398 . S
C3418 C3419 1.391 . S
C3419 H3407 0.950 . S
C3419 C3415 1.393 . S
C3419 C3418 1.391 . S
H3420 C3428 0.950 . S
H3421 C3433 0.950 . S
H3422 C3430 0.950 . S
H3423 C3432 0.950 . S
H3424 C3434 0.950 . S
H3425 C3436 0.950 . S
H3426 C3438 0.950 . S
H3427 C3439 0.950 . S
C3428 H3420 0.950 . S
C3428 C3429 1.386 . S
C3428 C3430 1.391 . S
C3429 C3428 1.386 . S
C3429 C3433 1.393 . S
C3430 H3422 0.950 . S
C3430 C3428 1.391 . S
C3430 C3431 1.400 . S
C3431 C3430 1.400 . S
C3431 C3432 1.398 . S
C3431 C3437 1.491 . S
C3432 H3423 0.950 . S
C3432 C3431 1.398 . S
C3432 C3433 1.391 . S
C3433 H3421 0.950 . S
C3433 C3429 1.393 . S
C3433 C3432 1.391 . S
C3434 H3424 0.950 . S
C3434 C3435 1.386 . S
C3434 C3436 1.391 . S
C3435 C3434 1.386 . S
C3435 C3439 1.393 . S
C3436 H3425 0.950 . S
C3436 C3434 1.391 . S
C3436 C3437 1.400 . S
C3437 C3431 1.491 . S
C3437 C3436 1.400 . S
C3437 C3438 1.398 . S
C3438 H3426 0.950 . S
C3438 C3437 1.398 . S
C3438 C3439 1.391 . S
C3439 H3427 0.950 . S
C3439 C3435 1.393 . S
C3439 C3438 1.391 . S
H3440 C3448 0.950 . S
H3441 C3453 0.950 . S
H3442 C3450 0.950 . S
H3443 C3452 0.950 . S
H3444 C3454 0.950 . S
H3445 C3456 0.950 . S
H3446 C3458 0.950 . S
H3447 C3459 0.950 . S
C3448 H3440 0.950 . S
C3448 C3449 1.386 . S
C3448 C3450 1.391 . S
C3449 C3448 1.386 . S
C3449 C3453 1.393 . S
C3450 H3442 0.950 . S
C3450 C3448 1.391 . S
C3450 C3451 1.400 . S
C3451 C3450 1.400 . S
C3451 C3452 1.398 . S
C3451 C3457 1.491 . S
C3452 H3443 0.950 . S
C3452 C3451 1.398 . S
C3452 C3453 1.391 . S
C3453 H3441 0.950 . S
C3453 C3449 1.393 . S
C3453 C3452 1.391 . S
C3454 H3444 0.950 . S
C3454 C3455 1.386 . S
C3454 C3456 1.391 . S
C3455 C3454 1.386 . S
C3455 C3459 1.393 . S
C3456 H3445 0.950 . S
C3456 C3454 1.391 . S
C3456 C3457 1.400 . S
C3457 C3451 1.491 . S
C3457 C3456 1.400 . S
C3457 C3458 1.398 . S
C3458 H3446 0.950 . S
C3458 C3457 1.398 . S
C3458 C3459 1.391 . S
C3459 H3447 0.950 . S
C3459 C3455 1.393 . S
C3459 C3458 1.391 . S
H3460 C3468 0.950 . S
H3461 C3473 0.950 . S
H3462 C3470 0.950 . S
H3463 C3472 0.950 . S
H3464 C3474 0.950 . S
H3465 C3476 0.950 . S
H3466 C3478 0.950 . S
H3467 C3479 0.950 . S
C3468 H3460 0.950 . S
C3468 C3469 1.386 . S
C3468 C3470 1.391 . S
C3469 C3468 1.386 . S
C3469 C3473 1.393 . S
C3470 H3462 0.950 . S
C3470 C3468 1.391 . S
C3470 C3471 1.400 . S
C3471 C3470 1.400 . S
C3471 C3472 1.398 . S
C3471 C3477 1.491 . S
C3472 H3463 0.950 . S
C3472 C3471 1.398 . S
C3472 C3473 1.391 . S
C3473 H3461 0.950 . S
C3473 C3469 1.393 . S
C3473 C3472 1.391 . S
C3474 H3464 0.950 . S
C3474 C3475 1.386 . S
C3474 C3476 1.391 . S
C3475 C3474 1.386 . S
C3475 C3479 1.393 . S
C3476 H3465 0.950 . S
C3476 C3474 1.391 . S
C3476 C3477 1.400 . S
C3477 C3471 1.491 . S
C3477 C3476 1.400 . S
C3477 C3478 1.398 . S
C3478 H3466 0.950 . S
C3478 C3477 1.398 . S
C3478 C3479 1.391 . S
C3479 H3467 0.950 . S
C3479 C3475 1.393 . S
C3479 C3478 1.391 . S
H3480 C3488 0.950 . S
H3481 C3493 0.950 1_554 S
H3482 C3490 0.950 . S
H3483 C3492 0.950 . S
H3484 C3494 0.950 . S
H3485 C3496 0.950 . S
H3486 C3498 0.950 . S
H3487 C3499 0.950 . S
C3488 H3480 0.950 . S
C3488 C3489 1.386 . S
C3488 C3490 1.391 . S
C3489 C3488 1.386 . S
C3489 C3493 1.393 . S
C3490 H3482 0.950 . S
C3490 C3488 1.391 . S
C3490 C3491 1.400 . S
C3491 C3490 1.400 . S
C3491 C3492 1.398 . S
C3491 C3497 1.491 . S
C3492 H3483 0.950 . S
C3492 C3491 1.398 . S
C3492 C3493 1.391 . S
C3493 H3481 0.950 1_556 S
C3493 C3489 1.393 . S
C3493 C3492 1.391 . S
C3494 H3484 0.950 . S
C3494 C3495 1.386 . S
C3494 C3496 1.391 . S
C3495 C3494 1.386 . S
C3495 C3499 1.393 . S
C3496 H3485 0.950 . S
C3496 C3494 1.391 . S
C3496 C3497 1.400 . S
C3497 C3491 1.491 . S
C3497 C3496 1.400 . S
C3497 C3498 1.398 . S
C3498 H3486 0.950 . S
C3498 C3497 1.398 . S
C3498 C3499 1.391 . S
C3499 H3487 0.950 . S
C3499 C3495 1.393 . S
C3499 C3498 1.391 . S
H3500 C3508 0.950 . S
H3501 C3513 0.950 1_554 S
H3502 C3510 0.950 . S
H3503 C3512 0.950 . S
H3504 C3514 0.950 . S
H3505 C3516 0.950 . S
H3506 C3518 0.950 . S
H3507 C3519 0.950 . S
C3508 H3500 0.950 . S
C3508 C3509 1.386 . S
C3508 C3510 1.391 . S
C3509 C3508 1.386 . S
C3509 C3513 1.393 . S
C3510 H3502 0.950 . S
C3510 C3508 1.391 . S
C3510 C3511 1.400 . S
C3511 C3510 1.400 . S
C3511 C3512 1.398 . S
C3511 C3517 1.491 . S
C3512 H3503 0.950 . S
C3512 C3511 1.398 . S
C3512 C3513 1.391 . S
C3513 H3501 0.950 1_556 S
C3513 C3509 1.393 . S
C3513 C3512 1.391 . S
C3514 H3504 0.950 . S
C3514 C3515 1.386 . S
C3514 C3516 1.391 . S
C3515 C3514 1.386 . S
C3515 C3519 1.393 . S
C3516 H3505 0.950 . S
C3516 C3514 1.391 . S
C3516 C3517 1.400 . S
C3517 C3511 1.491 . S
C3517 C3516 1.400 . S
C3517 C3518 1.398 . S
C3518 H3506 0.950 . S
C3518 C3517 1.398 . S
C3518 C3519 1.391 . S
C3519 H3507 0.950 . S
C3519 C3515 1.393 . S
C3519 C3518 1.391 . S
H3520 C3528 0.950 1_554 S
H3521 C3533 0.950 . S
H3522 C3530 0.950 1_554 S
H3523 C3532 0.950 . S
H3524 C3534 0.950 . S
H3525 C3536 0.950 . S
H3526 C3538 0.950 . S
H3527 C3539 0.950 . S
C3528 H3520 0.950 1_556 S
C3528 C3529 1.386 . S
C3528 C3530 1.391 . S
C3529 C3528 1.386 . S
C3529 C3533 1.393 . S
C3530 H3522 0.950 1_556 S
C3530 C3528 1.391 . S
C3530 C3531 1.400 . S
C3531 C3530 1.400 . S
C3531 C3532 1.398 . S
C3531 C3537 1.491 . S
C3532 H3523 0.950 . S
C3532 C3531 1.398 . S
C3532 C3533 1.391 . S
C3533 H3521 0.950 . S
C3533 C3529 1.393 . S
C3533 C3532 1.391 . S
C3534 H3524 0.950 . S
C3534 C3535 1.386 . S
C3534 C3536 1.391 . S
C3535 C3534 1.386 . S
C3535 C3539 1.393 . S
C3536 H3525 0.950 . S
C3536 C3534 1.391 . S
C3536 C3537 1.400 . S
C3537 C3531 1.491 . S
C3537 C3536 1.400 . S
C3537 C3538 1.398 . S
C3538 H3526 0.950 . S
C3538 C3537 1.398 . S
C3538 C3539 1.391 . S
C3539 H3527 0.950 . S
C3539 C3535 1.393 . S
C3539 C3538 1.391 . S
H3540 C3548 0.950 . S
H3541 C3553 0.950 . S
H3542 C3550 0.950 . S
H3543 C3552 0.950 . S
H3544 C3554 0.950 . S
H3545 C3556 0.950 . S
H3546 C3558 0.950 . S
H3547 C3559 0.950 . S
C3548 H3540 0.950 . S
C3548 C3549 1.386 . S
C3548 C3550 1.391 . S
C3549 C3548 1.386 . S
C3549 C3553 1.393 . S
C3550 H3542 0.950 . S
C3550 C3548 1.391 . S
C3550 C3551 1.400 . S
C3551 C3550 1.400 . S
C3551 C3552 1.398 . S
C3551 C3557 1.491 . S
C3552 H3543 0.950 . S
C3552 C3551 1.398 . S
C3552 C3553 1.391 . S
C3553 H3541 0.950 . S
C3553 C3549 1.393 . S
C3553 C3552 1.391 . S
C3554 H3544 0.950 . S
C3554 C3555 1.386 . S
C3554 C3556 1.391 . S
C3555 C3554 1.386 . S
C3555 C3559 1.393 . S
C3556 H3545 0.950 . S
C3556 C3554 1.391 . S
C3556 C3557 1.400 . S
C3557 C3551 1.491 . S
C3557 C3556 1.400 . S
C3557 C3558 1.398 . S
C3558 H3546 0.950 . S
C3558 C3557 1.398 . S
C3558 C3559 1.391 . S
C3559 H3547 0.950 . S
C3559 C3555 1.393 . S
C3559 C3558 1.391 . S
H3560 C3568 0.950 . S
H3561 C3573 0.966 . S
H3562 C3570 0.950 . S
H3563 C3572 0.950 1_554 S
H3564 C3574 0.950 . S
H3565 C3576 0.950 . S
H3566 C3578 0.950 . S
H3567 C3579 0.950 . S
C3568 H3560 0.950 . S
C3568 C3569 1.386 . S
C3568 C3570 1.391 . S
C3569 C3568 1.386 . S
C3569 C3573 1.380 1_556 S
C3570 H3562 0.950 . S
C3570 C3568 1.391 . S
C3570 C3571 1.400 . S
C3571 C3570 1.400 . S
C3571 C3572 1.398 . S
C3571 C3577 1.491 . S
C3572 H3563 0.950 1_556 S
C3572 C3571 1.398 . S
C3572 C3573 1.387 1_556 S
C3573 H3561 0.966 . S
C3573 C3569 1.380 1_554 S
C3573 C3572 1.387 1_554 S
C3574 H3564 0.950 . S
C3574 C3575 1.386 . S
C3574 C3576 1.391 . S
C3575 C3574 1.386 . S
C3575 C3579 1.393 . S
C3576 H3565 0.950 . S
C3576 C3574 1.391 . S
C3576 C3577 1.400 . S
C3577 C3571 1.491 . S
C3577 C3576 1.400 . S
C3577 C3578 1.398 . S
C3578 H3566 0.950 . S
C3578 C3577 1.398 . S
C3578 C3579 1.391 . S
C3579 H3567 0.950 . S
C3579 C3575 1.393 . S
C3579 C3578 1.391 . S
H3580 C3588 0.950 . S
H3581 C3593 0.950 . S
H3582 C3590 0.950 . S
H3583 C3592 0.950 1_554 S
H3584 C3594 0.950 . S
H3585 C3596 0.950 . S
H3586 C3598 0.950 . S
H3587 C3599 0.950 . S
C3588 H3580 0.950 . S
C3588 C3589 1.386 . S
C3588 C3590 1.391 . S
C3589 C3588 1.386 . S
C3589 C3593 1.393 1_556 S
C3590 H3582 0.950 . S
C3590 C3588 1.391 . S
C3590 C3591 1.400 . S
C3591 C3590 1.400 . S
C3591 C3592 1.398 . S
C3591 C3597 1.491 . S
C3592 H3583 0.950 1_556 S
C3592 C3591 1.398 . S
C3592 C3593 1.391 1_556 S
C3593 H3581 0.950 . S
C3593 C3589 1.393 1_554 S
C3593 C3592 1.391 1_554 S
C3594 H3584 0.950 . S
C3594 C3595 1.386 . S
C3594 C3596 1.391 . S
C3595 C3594 1.386 . S
C3595 C3599 1.393 . S
C3596 H3585 0.950 . S
C3596 C3594 1.391 . S
C3596 C3597 1.400 . S
C3597 C3591 1.491 . S
C3597 C3596 1.400 . S
C3597 C3598 1.398 . S
C3598 H3586 0.950 . S
C3598 C3597 1.398 . S
C3598 C3599 1.391 . S
C3599 H3587 0.950 . S
C3599 C3595 1.393 . S
C3599 C3598 1.391 . S
H3600 C3608 0.950 . S
H3601 C3613 0.950 . S
H3602 C3610 0.950 . S
H3603 C3612 0.950 . S
H3604 C3614 0.950 . S
H3605 C3616 0.950 . S
H3606 C3618 0.950 . S
H3607 C3619 0.950 . S
C3608 H3600 0.950 . S
C3608 C3609 1.386 . S
C3608 C3610 1.391 . S
C3609 C3608 1.386 . S
C3609 C3613 1.393 . S
C3610 H3602 0.950 . S
C3610 C3608 1.391 . S
C3610 C3611 1.400 . S
C3611 C3610 1.400 . S
C3611 C3612 1.398 . S
C3611 C3617 1.491 . S
C3612 H3603 0.950 . S
C3612 C3611 1.398 . S
C3612 C3613 1.391 . S
C3613 H3601 0.950 . S
C3613 C3609 1.393 . S
C3613 C3612 1.391 . S
C3614 H3604 0.950 . S
C3614 C3615 1.386 . S
C3614 C3616 1.391 . S
C3615 C3614 1.386 . S
C3615 C3619 1.393 . S
C3616 H3605 0.950 . S
C3616 C3614 1.391 . S
C3616 C3617 1.400 . S
C3617 C3611 1.491 . S
C3617 C3616 1.400 . S
C3617 C3618 1.398 . S
C3618 H3606 0.950 . S
C3618 C3617 1.398 . S
C3618 C3619 1.391 . S
C3619 H3607 0.950 . S
C3619 C3615 1.393 . S
C3619 C3618 1.391 . S
H3620 C3628 0.950 . S
H3621 C3633 0.950 . S
H3622 C3630 0.950 . S
H3623 C3632 0.950 . S
H3624 C3634 0.950 . S
H3625 C3636 0.950 . S
H3626 C3638 0.950 . S
H3627 C3639 0.950 . S
C3628 H3620 0.950 . S
C3628 C3629 1.386 . S
C3628 C3630 1.391 . S
C3629 C3628 1.386 . S
C3629 C3633 1.393 . S
C3630 H3622 0.950 . S
C3630 C3628 1.391 . S
C3630 C3631 1.400 . S
C3631 C3630 1.400 . S
C3631 C3632 1.398 . S
C3631 C3637 1.491 . S
C3632 H3623 0.950 . S
C3632 C3631 1.398 . S
C3632 C3633 1.391 . S
C3633 H3621 0.950 . S
C3633 C3629 1.393 . S
C3633 C3632 1.391 . S
C3634 H3624 0.950 . S
C3634 C3635 1.386 . S
C3634 C3636 1.391 . S
C3635 C3634 1.386 . S
C3635 C3639 1.393 . S
C3636 H3625 0.950 . S
C3636 C3634 1.391 . S
C3636 C3637 1.400 . S
C3637 C3631 1.491 . S
C3637 C3636 1.400 . S
C3637 C3638 1.398 . S
C3638 H3626 0.950 . S
C3638 C3637 1.398 . S
C3638 C3639 1.391 . S
C3639 H3627 0.950 . S
C3639 C3635 1.393 . S
C3639 C3638 1.391 . S
H3640 C3648 0.950 . S
H3641 C3653 0.950 . S
H3642 C3650 0.950 . S
H3643 C3652 0.950 . S
H3644 C3654 0.950 . S
H3645 C3656 0.950 . S
H3646 C3658 0.950 . S
H3647 C3659 0.950 . S
C3648 H3640 0.950 . S
C3648 C3649 1.386 . S
C3648 C3650 1.391 . S
C3649 C3648 1.386 . S
C3649 C3653 1.393 . S
C3650 H3642 0.950 . S
C3650 C3648 1.391 . S
C3650 C3651 1.400 . S
C3651 C3650 1.400 . S
C3651 C3652 1.398 . S
C3651 C3657 1.491 . S
C3652 H3643 0.950 . S
C3652 C3651 1.398 . S
C3652 C3653 1.391 . S
C3653 H3641 0.950 . S
C3653 C3649 1.393 . S
C3653 C3652 1.391 . S
C3654 H3644 0.950 . S
C3654 C3655 1.386 . S
C3654 C3656 1.391 . S
C3655 C3654 1.386 . S
C3655 C3659 1.393 . S
C3656 H3645 0.950 . S
C3656 C3654 1.391 . S
C3656 C3657 1.400 . S
C3657 C3651 1.491 . S
C3657 C3656 1.400 . S
C3657 C3658 1.398 . S
C3658 H3646 0.950 . S
C3658 C3657 1.398 . S
C3658 C3659 1.391 . S
C3659 H3647 0.950 . S
C3659 C3655 1.393 . S
C3659 C3658 1.391 . S
H3660 C3668 0.950 . S
H3661 C3673 0.950 . S
H3662 C3670 0.950 . S
H3663 C3672 0.950 . S
H3664 C3674 0.950 . S
H3665 C3676 0.950 . S
H3666 C3678 0.950 . S
H3667 C3679 0.950 . S
C3668 H3660 0.950 . S
C3668 C3669 1.386 . S
C3668 C3670 1.391 . S
C3669 C3668 1.386 . S
C3669 C3673 1.393 . S
C3670 H3662 0.950 . S
C3670 C3668 1.391 . S
C3670 C3671 1.400 . S
C3671 C3670 1.400 . S
C3671 C3672 1.398 . S
C3671 C3677 1.491 . S
C3672 H3663 0.950 . S
C3672 C3671 1.398 . S
C3672 C3673 1.391 . S
C3673 H3661 0.950 . S
C3673 C3669 1.393 . S
C3673 C3672 1.391 . S
C3674 H3664 0.950 . S
C3674 C3675 1.386 . S
C3674 C3676 1.391 . S
C3675 C3674 1.386 . S
C3675 C3679 1.393 . S
C3676 H3665 0.950 . S
C3676 C3674 1.391 . S
C3676 C3677 1.400 . S
C3677 C3671 1.491 . S
C3677 C3676 1.400 . S
C3677 C3678 1.398 . S
C3678 H3666 0.950 . S
C3678 C3677 1.398 . S
C3678 C3679 1.391 . S
C3679 H3667 0.950 . S
C3679 C3675 1.393 . S
C3679 C3678 1.391 . S
H3680 C3688 0.950 . S
H3681 C3693 0.950 . S
H3682 C3690 0.950 . S
H3683 C3692 0.950 . S
H3684 C3694 0.950 . S
H3685 C3696 0.950 . S
H3686 C3698 0.950 . S
H3687 C3699 0.950 . S
C3688 H3680 0.950 . S
C3688 C3689 1.386 . S
C3688 C3690 1.391 . S
C3689 C3688 1.386 . S
C3689 C3693 1.393 . S
C3690 H3682 0.950 . S
C3690 C3688 1.391 . S
C3690 C3691 1.400 . S
C3691 C3690 1.400 . S
C3691 C3692 1.398 . S
C3691 C3697 1.491 . S
C3692 H3683 0.950 . S
C3692 C3691 1.398 . S
C3692 C3693 1.391 . S
C3693 H3681 0.950 . S
C3693 C3689 1.393 . S
C3693 C3692 1.391 . S
C3694 H3684 0.950 . S
C3694 C3695 1.386 . S
C3694 C3696 1.391 . S
C3695 C3694 1.386 . S
C3695 C3699 1.393 . S
C3696 H3685 0.950 . S
C3696 C3694 1.391 . S
C3696 C3697 1.400 . S
C3697 C3691 1.491 . S
C3697 C3696 1.400 . S
C3697 C3698 1.398 . S
C3698 H3686 0.950 . S
C3698 C3697 1.398 . S
C3698 C3699 1.391 . S
C3699 H3687 0.950 . S
C3699 C3695 1.393 . S
C3699 C3698 1.391 . S
H3700 C3708 0.950 . S
H3701 C3713 0.950 . S
H3702 C3710 0.950 . S
H3703 C3712 0.950 . S
H3704 C3714 0.950 . S
H3705 C3716 0.950 . S
H3706 C3718 0.950 . S
H3707 C3719 0.950 . S
C3708 H3700 0.950 . S
C3708 C3709 1.386 . S
C3708 C3710 1.391 . S
C3709 C3708 1.386 . S
C3709 C3713 1.393 . S
C3710 H3702 0.950 . S
C3710 C3708 1.391 . S
C3710 C3711 1.400 . S
C3711 C3710 1.400 . S
C3711 C3712 1.398 . S
C3711 C3717 1.491 . S
C3712 H3703 0.950 . S
C3712 C3711 1.398 . S
C3712 C3713 1.391 . S
C3713 H3701 0.950 . S
C3713 C3709 1.393 . S
C3713 C3712 1.391 . S
C3714 H3704 0.950 . S
C3714 C3715 1.386 . S
C3714 C3716 1.391 . S
C3715 C3714 1.386 . S
C3715 C3719 1.393 . S
C3716 H3705 0.950 . S
C3716 C3714 1.391 . S
C3716 C3717 1.400 . S
C3717 C3711 1.491 . S
C3717 C3716 1.400 . S
C3717 C3718 1.398 . S
C3718 H3706 0.950 . S
C3718 C3717 1.398 . S
C3718 C3719 1.391 . S
C3719 H3707 0.950 . S
C3719 C3715 1.393 . S
C3719 C3718 1.391 . S
H3720 C3728 0.950 . S
H3721 C3733 0.950 . S
H3722 C3730 0.950 . S
H3723 C3732 0.950 . S
H3724 C3734 1.006 . S
H3725 C3736 0.950 1_655 S
H3726 C3738 0.950 . S
H3727 C3739 0.950 . S
C3728 H3720 0.950 . S
C3728 C3729 1.386 . S
C3728 C3730 1.391 . S
C3729 C3728 1.386 . S
C3729 C3733 1.393 . S
C3730 H3722 0.950 . S
C3730 C3728 1.391 . S
C3730 C3731 1.400 . S
C3731 C3730 1.400 . S
C3731 C3732 1.398 . S
C3731 C3737 1.491 . S
C3732 H3723 0.950 . S
C3732 C3731 1.398 . S
C3732 C3733 1.391 . S
C3733 H3721 0.950 . S
C3733 C3729 1.393 . S
C3733 C3732 1.391 . S
C3734 H3724 1.006 . S
C3734 C3735 1.384 1_655 S
C3734 C3736 1.341 1_655 S
C3735 C3734 1.384 1_455 S
C3735 C3739 1.393 . S
C3736 H3725 0.950 1_455 S
C3736 C3734 1.341 1_455 S
C3736 C3737 1.400 . S
C3737 C3731 1.491 . S
C3737 C3736 1.400 . S
C3737 C3738 1.398 . S
C3738 H3726 0.950 . S
C3738 C3737 1.398 . S
C3738 C3739 1.391 . S
C3739 H3727 0.950 . S
C3739 C3735 1.393 . S
C3739 C3738 1.391 . S
H3740 C3748 0.950 . S
H3741 C3753 0.950 . S
H3742 C3750 0.950 . S
H3743 C3752 0.950 . S
H3744 C3754 0.950 . S
H3745 C3756 0.950 . S
H3746 C3758 0.950 . S
H3747 C3759 0.950 . S
C3748 H3740 0.950 . S
C3748 C3749 1.386 . S
C3748 C3750 1.391 . S
C3749 C3748 1.386 . S
C3749 C3753 1.393 . S
C3750 H3742 0.950 . S
C3750 C3748 1.391 . S
C3750 C3751 1.400 . S
C3751 C3750 1.400 . S
C3751 C3752 1.398 . S
C3751 C3757 1.491 . S
C3752 H3743 0.950 . S
C3752 C3751 1.398 . S
C3752 C3753 1.391 . S
C3753 H3741 0.950 . S
C3753 C3749 1.393 . S
C3753 C3752 1.391 . S
C3754 H3744 0.950 . S
C3754 C3755 1.386 . S
C3754 C3756 1.391 . S
C3755 C3754 1.386 . S
C3755 C3759 1.393 . S
C3756 H3745 0.950 . S
C3756 C3754 1.391 . S
C3756 C3757 1.400 . S
C3757 C3751 1.491 . S
C3757 C3756 1.400 . S
C3757 C3758 1.398 . S
C3758 H3746 0.950 . S
C3758 C3757 1.398 . S
C3758 C3759 1.391 . S
C3759 H3747 0.950 . S
C3759 C3755 1.393 . S
C3759 C3758 1.391 . S
H3760 C3768 0.950 . S
H3761 C3773 0.950 . S
H3762 C3770 1.010 . S
H3763 C3772 0.950 . S
H3764 C3774 0.950 . S
H3765 C3776 0.950 . S
H3766 C3778 0.950 1_545 S
H3767 C3779 0.994 . S
C3768 H3760 0.950 . S
C3768 C3769 1.386 . S
C3768 C3770 1.391 . S
C3769 C3768 1.386 . S
C3769 C3773 1.393 . S
C3770 H3762 1.010 . S
C3770 C3768 1.391 . S
C3770 C3771 1.400 . S
C3771 C3770 1.400 . S
C3771 C3772 1.398 . S
C3771 C3777 1.491 . S
C3772 H3763 0.950 . S
C3772 C3771 1.398 . S
C3772 C3773 1.391 . S
C3773 H3761 0.950 . S
C3773 C3769 1.393 . S
C3773 C3772 1.391 . S
C3774 H3764 0.950 . S
C3774 C3775 1.386 . S
C3774 C3776 1.391 . S
C3775 C3774 1.386 . S
C3775 C3779 1.330 1_565 S
C3776 H3765 0.950 . S
C3776 C3774 1.391 . S
C3776 C3777 1.400 . S
C3777 C3771 1.491 . S
C3777 C3776 1.400 . S
C3777 C3778 1.398 . S
C3778 H3766 0.950 1_565 S
C3778 C3777 1.398 . S
C3778 C3779 1.413 1_565 S
C3779 H3767 0.994 . S
C3779 C3775 1.330 1_545 S
C3779 C3778 1.413 1_545 S
H3780 C3788 0.950 . S
H3781 C3793 0.950 . S
H3782 C3790 0.950 1_545 S
H3783 C3792 0.950 . S
H3784 C3794 0.950 . S
H3785 C3796 0.950 . S
H3786 C3798 0.971 . S
H3787 C3799 0.950 . S
C3788 H3780 0.950 . S
C3788 C3789 1.386 . S
C3788 C3790 1.391 . S
C3789 C3788 1.386 . S
C3789 C3793 1.393 . S
C3790 H3782 0.950 1_565 S
C3790 C3788 1.391 . S
C3790 C3791 1.400 . S
C3791 C3790 1.400 . S
C3791 C3792 1.398 . S
C3791 C3797 1.491 . S
C3792 H3783 0.950 . S
C3792 C3791 1.398 . S
C3792 C3793 1.391 . S
C3793 H3781 0.950 . S
C3793 C3789 1.393 . S
C3793 C3792 1.391 . S
C3794 H3784 0.950 . S
C3794 C3795 1.386 . S
C3794 C3796 1.391 . S
C3795 C3794 1.386 . S
C3795 C3799 1.393 1_565 S
C3796 H3785 0.950 . S
C3796 C3794 1.391 . S
C3796 C3797 1.400 . S
C3797 C3791 1.491 . S
C3797 C3796 1.400 . S
C3797 C3798 1.341 1_565 S
C3798 H3786 0.971 . S
C3798 C3797 1.341 1_545 S
C3798 C3799 1.430 . S
C3799 H3787 0.950 . S
C3799 C3795 1.393 1_545 S
C3799 C3798 1.430 . S
H3800 C3808 0.950 . S
H3801 C3813 0.950 . S
H3802 C3810 0.950 . S
H3803 C3812 0.950 . S
H3804 C3814 0.950 . S
H3805 C3816 0.950 . S
H3806 C3818 0.950 1_655 S
H3807 C3819 0.953 . S
C3808 H3800 0.950 . S
C3808 C3809 1.386 . S
C3808 C3810 1.391 . S
C3809 C3808 1.386 . S
C3809 C3813 1.393 . S
C3810 H3802 0.950 . S
C3810 C3808 1.391 . S
C3810 C3811 1.400 . S
C3811 C3810 1.400 . S
C3811 C3812 1.398 . S
C3811 C3817 1.491 . S
C3812 H3803 0.950 . S
C3812 C3811 1.398 . S
C3812 C3813 1.391 . S
C3813 H3801 0.950 . S
C3813 C3809 1.393 . S
C3813 C3812 1.391 . S
C3814 H3804 0.950 . S
C3814 C3815 1.386 . S
C3814 C3816 1.391 . S
C3815 C3814 1.386 . S
C3815 C3819 1.387 1_455 S
C3816 H3805 0.950 . S
C3816 C3814 1.391 . S
C3816 C3817 1.400 . S
C3817 C3811 1.491 . S
C3817 C3816 1.400 . S
C3817 C3818 1.398 . S
C3818 H3806 0.950 1_455 S
C3818 C3817 1.398 . S
C3818 C3819 1.393 1_455 S
C3819 H3807 0.953 . S
C3819 C3815 1.387 1_655 S
C3819 C3818 1.393 1_655 S
H3820 C3828 0.950 . S
H3821 C3833 0.950 . S
H3822 C3830 0.950 . S
H3823 C3832 0.950 . S
H3824 C3834 0.950 . S
H3825 C3836 0.950 . S
H3826 C3838 0.950 . S
H3827 C3839 0.950 . S
C3828 H3820 0.950 . S
C3828 C3829 1.386 . S
C3828 C3830 1.391 . S
C3829 C3828 1.386 . S
C3829 C3833 1.393 . S
C3830 H3822 0.950 . S
C3830 C3828 1.391 . S
C3830 C3831 1.400 . S
C3831 C3830 1.400 . S
C3831 C3832 1.398 . S
C3831 C3837 1.491 . S
C3832 H3823 0.950 . S
C3832 C3831 1.398 . S
C3832 C3833 1.391 . S
C3833 H3821 0.950 . S
C3833 C3829 1.393 . S
C3833 C3832 1.391 . S
C3834 H3824 0.950 . S
C3834 C3835 1.386 . S
C3834 C3836 1.391 . S
C3835 C3834 1.386 . S
C3835 C3839 1.393 . S
C3836 H3825 0.950 . S
C3836 C3834 1.391 . S
C3836 C3837 1.400 . S
C3837 C3831 1.491 . S
C3837 C3836 1.400 . S
C3837 C3838 1.398 . S
C3838 H3826 0.950 . S
C3838 C3837 1.398 . S
C3838 C3839 1.391 . S
C3839 H3827 0.950 . S
C3839 C3835 1.393 . S
C3839 C3838 1.391 . S
H3840 C3848 0.950 . S
H3841 C3853 0.950 . S
H3842 C3850 0.950 . S
H3843 C3852 0.950 . S
H3844 C3854 0.950 . S
H3845 C3856 0.950 . S
H3846 C3858 0.950 . S
H3847 C3859 0.950 . S
C3848 H3840 0.950 . S
C3848 C3849 1.386 . S
C3848 C3850 1.391 . S
C3849 C3848 1.386 . S
C3849 C3853 1.393 . S
C3850 H3842 0.950 . S
C3850 C3848 1.391 . S
C3850 C3851 1.400 . S
C3851 C3850 1.400 . S
C3851 C3852 1.398 . S
C3851 C3857 1.491 . S
C3852 H3843 0.950 . S
C3852 C3851 1.398 . S
C3852 C3853 1.391 . S
C3853 H3841 0.950 . S
C3853 C3849 1.393 . S
C3853 C3852 1.391 . S
C3854 H3844 0.950 . S
C3854 C3855 1.386 . S
C3854 C3856 1.391 . S
C3855 C3854 1.386 . S
C3855 C3859 1.393 . S
C3856 H3845 0.950 . S
C3856 C3854 1.391 . S
C3856 C3857 1.400 . S
C3857 C3851 1.491 . S
C3857 C3856 1.400 . S
C3857 C3858 1.398 . S
C3858 H3846 0.950 . S
C3858 C3857 1.398 . S
C3858 C3859 1.391 . S
C3859 H3847 0.950 . S
C3859 C3855 1.393 . S
C3859 C3858 1.391 . S
H3860 C3868 0.950 . S
H3861 C3873 0.950 . S
H3862 C3870 0.950 . S
H3863 C3872 0.950 . S
H3864 C3874 0.950 . S
H3865 C3876 0.950 . S
H3866 C3878 0.950 . S
H3867 C3879 0.950 . S
C3868 H3860 0.950 . S
C3868 C3869 1.386 . S
C3868 C3870 1.391 . S
C3869 C3868 1.386 . S
C3869 C3873 1.393 . S
C3870 H3862 0.950 . S
C3870 C3868 1.391 . S
C3870 C3871 1.400 . S
C3871 C3870 1.400 . S
C3871 C3872 1.398 . S
C3871 C3877 1.491 . S
C3872 H3863 0.950 . S
C3872 C3871 1.398 . S
C3872 C3873 1.391 . S
C3873 H3861 0.950 . S
C3873 C3869 1.393 . S
C3873 C3872 1.391 . S
C3874 H3864 0.950 . S
C3874 C3875 1.386 . S
C3874 C3876 1.391 . S
C3875 C3874 1.386 . S
C3875 C3879 1.393 . S
C3876 H3865 0.950 . S
C3876 C3874 1.391 . S
C3876 C3877 1.400 . S
C3877 C3871 1.491 . S
C3877 C3876 1.400 . S
C3877 C3878 1.398 . S
C3878 H3866 0.950 . S
C3878 C3877 1.398 . S
C3878 C3879 1.391 . S
C3879 H3867 0.950 . S
C3879 C3875 1.393 . S
C3879 C3878 1.391 . S
H3880 C3888 0.950 . S
H3881 C3893 0.950 . S
H3882 C3890 0.950 . S
H3883 C3892 0.950 . S
H3884 C3894 0.950 . S
H3885 C3896 0.950 . S
H3886 C3898 0.950 . S
H3887 C3899 0.950 . S
C3888 H3880 0.950 . S
C3888 C3889 1.386 . S
C3888 C3890 1.391 . S
C3889 C3888 1.386 . S
C3889 C3893 1.393 . S
C3890 H3882 0.950 . S
C3890 C3888 1.391 . S
C3890 C3891 1.400 . S
C3891 C3890 1.400 . S
C3891 C3892 1.398 . S
C3891 C3897 1.491 . S
C3892 H3883 0.950 . S
C3892 C3891 1.398 . S
C3892 C3893 1.391 . S
C3893 H3881 0.950 . S
C3893 C3889 1.393 . S
C3893 C3892 1.391 . S
C3894 H3884 0.950 . S
C3894 C3895 1.386 . S
C3894 C3896 1.391 . S
C3895 C3894 1.386 . S
C3895 C3899 1.393 . S
C3896 H3885 0.950 . S
C3896 C3894 1.391 . S
C3896 C3897 1.400 . S
C3897 C3891 1.491 . S
C3897 C3896 1.400 . S
C3897 C3898 1.398 . S
C3898 H3886 0.950 . S
C3898 C3897 1.398 . S
C3898 C3899 1.391 . S
C3899 H3887 0.950 . S
C3899 C3895 1.393 . S
C3899 C3898 1.391 . S
H3900 C3908 0.950 . S
H3901 C3913 0.950 . S
H3902 C3910 0.950 . S
H3903 C3912 0.950 . S
H3904 C3914 0.950 . S
H3905 C3916 0.950 . S
H3906 C3918 0.937 1_565 S
H3907 C3919 0.935 1_565 S
C3908 H3900 0.950 . S
C3908 C3909 1.386 . S
C3908 C3910 1.391 . S
C3909 C3908 1.386 . S
C3909 C3913 1.393 . S
C3910 H3902 0.950 . S
C3910 C3908 1.391 . S
C3910 C3911 1.400 . S
C3911 C3910 1.400 . S
C3911 C3912 1.398 . S
C3911 C3917 1.491 . S
C3912 H3903 0.950 . S
C3912 C3911 1.398 . S
C3912 C3913 1.391 . S
C3913 H3901 0.950 . S
C3913 C3909 1.393 . S
C3913 C3912 1.391 . S
C3914 H3904 0.950 . S
C3914 C3915 1.386 . S
C3914 C3916 1.391 . S
C3915 C3914 1.386 . S
C3915 C3919 1.396 . S
C3916 H3905 0.950 . S
C3916 C3914 1.391 . S
C3916 C3917 1.400 . S
C3917 C3911 1.491 . S
C3917 C3916 1.400 . S
C3917 C3918 1.398 . S
C3918 H3906 0.937 1_545 S
C3918 C3917 1.398 . S
C3918 C3919 1.403 . S
C3919 H3907 0.935 1_545 S
C3919 C3915 1.396 . S
C3919 C3918 1.403 . S
H3920 C3928 0.950 . S
H3921 C3933 0.950 . S
H3922 C3930 0.950 . S
H3923 C3932 0.950 . S
H3924 C3934 0.940 1_455 S
H3925 C3936 0.950 . S
H3926 C3938 0.950 . S
H3927 C3939 0.950 . S
C3928 H3920 0.950 . S
C3928 C3929 1.386 . S
C3928 C3930 1.391 . S
C3929 C3928 1.386 . S
C3929 C3933 1.393 . S
C3930 H3922 0.950 . S
C3930 C3928 1.391 . S
C3930 C3931 1.400 . S
C3931 C3930 1.400 . S
C3931 C3932 1.398 . S
C3931 C3937 1.491 . S
C3932 H3923 0.950 . S
C3932 C3931 1.398 . S
C3932 C3933 1.391 . S
C3933 H3921 0.950 . S
C3933 C3929 1.393 . S
C3933 C3932 1.391 . S
C3934 H3924 0.940 1_655 S
C3934 C3935 1.386 . S
C3934 C3936 1.391 . S
C3935 C3934 1.386 . S
C3935 C3939 1.393 . S
C3936 H3925 0.950 . S
C3936 C3934 1.391 . S
C3936 C3937 1.400 . S
C3937 C3931 1.491 . S
C3937 C3936 1.400 . S
C3937 C3938 1.398 . S
C3938 H3926 0.950 . S
C3938 C3937 1.398 . S
C3938 C3939 1.391 . S
C3939 H3927 0.950 . S
C3939 C3935 1.393 . S
C3939 C3938 1.391 . S
H3940 C3948 0.950 . S
H3941 C3953 0.950 . S
H3942 C3950 0.950 . S
H3943 C3952 0.950 . S
H3944 C3954 0.950 . S
H3945 C3956 0.950 . S
H3946 C3958 0.950 . S
H3947 C3959 0.950 . S
C3948 H3940 0.950 . S
C3948 C3949 1.386 . S
C3948 C3950 1.391 . S
C3949 C3948 1.386 . S
C3949 C3953 1.393 . S
C3950 H3942 0.950 . S
C3950 C3948 1.391 . S
C3950 C3951 1.400 . S
C3951 C3950 1.400 . S
C3951 C3952 1.398 . S
C3951 C3957 1.491 . S
C3952 H3943 0.950 . S
C3952 C3951 1.398 . S
C3952 C3953 1.391 . S
C3953 H3941 0.950 . S
C3953 C3949 1.393 . S
C3953 C3952 1.391 . S
C3954 H3944 0.950 . S
C3954 C3955 1.386 . S
C3954 C3956 1.391 . S
C3955 C3954 1.386 . S
C3955 C3959 1.393 . S
C3956 H3945 0.950 . S
C3956 C3954 1.391 . S
C3956 C3957 1.400 . S
C3957 C3951 1.491 . S
C3957 C3956 1.400 . S
C3957 C3958 1.398 . S
C3958 H3946 0.950 . S
C3958 C3957 1.398 . S
C3958 C3959 1.391 . S
C3959 H3947 0.950 . S
C3959 C3955 1.393 . S
C3959 C3958 1.391 . S
H3960 C3968 0.950 . S
H3961 C3973 0.950 . S
H3962 C3970 0.950 . S
H3963 C3972 0.950 . S
H3964 C3974 0.950 . S
H3965 C3976 0.950 . S
H3966 C3978 0.950 . S
H3967 C3979 0.950 . S
C3968 H3960 0.950 . S
C3968 C3969 1.386 . S
C3968 C3970 1.391 . S
C3969 C3968 1.386 . S
C3969 C3973 1.393 . S
C3970 H3962 0.950 . S
C3970 C3968 1.391 . S
C3970 C3971 1.400 . S
C3971 C3970 1.400 . S
C3971 C3972 1.398 . S
C3971 C3977 1.491 . S
C3972 H3963 0.950 . S
C3972 C3971 1.398 . S
C3972 C3973 1.391 . S
C3973 H3961 0.950 . S
C3973 C3969 1.393 . S
C3973 C3972 1.391 . S
C3974 H3964 0.950 . S
C3974 C3975 1.386 . S
C3974 C3976 1.391 . S
C3975 C3974 1.386 . S
C3975 C3979 1.393 . S
C3976 H3965 0.950 . S
C3976 C3974 1.391 . S
C3976 C3977 1.400 . S
C3977 C3971 1.491 . S
C3977 C3976 1.400 . S
C3977 C3978 1.398 . S
C3978 H3966 0.950 . S
C3978 C3977 1.398 . S
C3978 C3979 1.391 . S
C3979 H3967 0.950 . S
C3979 C3975 1.393 . S
C3979 C3978 1.391 . S
H3980 C3988 0.950 . S
H3981 C3993 0.950 . S
H3982 C3990 0.950 . S
H3983 C3992 0.950 . S
H3984 C3994 0.950 . S
H3985 C3996 0.950 . S
H3986 C3998 0.950 . S
H3987 C3999 0.950 . S
C3988 H3980 0.950 . S
C3988 C3989 1.386 . S
C3988 C3990 1.391 . S
C3989 C3988 1.386 . S
C3989 C3993 1.393 . S
C3990 H3982 0.950 . S
C3990 C3988 1.391 . S
C3990 C3991 1.400 . S
C3991 C3990 1.400 . S
C3991 C3992 1.398 . S
C3991 C3997 1.491 . S
C3992 H3983 0.950 . S
C3992 C3991 1.398 . S
C3992 C3993 1.391 . S
C3993 H3981 0.950 . S
C3993 C3989 1.393 . S
C3993 C3992 1.391 . S
C3994 H3984 0.950 . S
C3994 C3995 1.386 . S
C3994 C3996 1.391 . S
C3995 C3994 1.386 . S
C3995 C3999 1.393 . S
C3996 H3985 0.950 . S
C3996 C3994 1.391 . S
C3996 C3997 1.400 . S
C3997 C3991 1.491 . S
C3997 C3996 1.400 . S
C3997 C3998 1.398 . S
C3998 H3986 0.950 . S
C3998 C3997 1.398 . S
C3998 C3999 1.391 . S
C3999 H3987 0.950 . S
C3999 C3995 1.393 . S
C3999 C3998 1.391 . S
H4000 C4008 0.950 . S
H4001 C4013 0.950 . S
H4002 C4010 0.950 . S
H4003 C4012 0.950 . S
H4004 C4014 0.950 . S
H4005 C4016 0.950 . S
H4006 C4018 0.950 . S
H4007 C4019 0.950 . S
C4008 H4000 0.950 . S
C4008 C4009 1.386 . S
C4008 C4010 1.391 . S
C4009 C4008 1.386 . S
C4009 C4013 1.393 . S
C4010 H4002 0.950 . S
C4010 C4008 1.391 . S
C4010 C4011 1.400 . S
C4011 C4010 1.400 . S
C4011 C4012 1.398 . S
C4011 C4017 1.491 . S
C4012 H4003 0.950 . S
C4012 C4011 1.398 . S
C4012 C4013 1.391 . S
C4013 H4001 0.950 . S
C4013 C4009 1.393 . S
C4013 C4012 1.391 . S
C4014 H4004 0.950 . S
C4014 C4015 1.386 . S
C4014 C4016 1.391 . S
C4015 C4014 1.386 . S
C4015 C4019 1.393 . S
C4016 H4005 0.950 . S
C4016 C4014 1.391 . S
C4016 C4017 1.400 . S
C4017 C4011 1.491 . S
C4017 C4016 1.400 . S
C4017 C4018 1.398 . S
C4018 H4006 0.950 . S
C4018 C4017 1.398 . S
C4018 C4019 1.391 . S
C4019 H4007 0.950 . S
C4019 C4015 1.393 . S
C4019 C4018 1.391 . S
H4020 C4028 0.950 . S
H4021 C4033 0.950 . S
H4022 C4030 0.950 . S
H4023 C4032 0.950 . S
H4024 C4034 0.950 . S
H4025 C4036 0.950 . S
H4026 C4038 0.950 . S
H4027 C4039 0.950 . S
C4028 H4020 0.950 . S
C4028 C4029 1.386 . S
C4028 C4030 1.391 . S
C4029 C4028 1.386 . S
C4029 C4033 1.393 . S
C4030 H4022 0.950 . S
C4030 C4028 1.391 . S
C4030 C4031 1.400 . S
C4031 C4030 1.400 . S
C4031 C4032 1.398 . S
C4031 C4037 1.491 . S
C4032 H4023 0.950 . S
C4032 C4031 1.398 . S
C4032 C4033 1.391 . S
C4033 H4021 0.950 . S
C4033 C4029 1.393 . S
C4033 C4032 1.391 . S
C4034 H4024 0.950 . S
C4034 C4035 1.386 . S
C4034 C4036 1.391 . S
C4035 C4034 1.386 . S
C4035 C4039 1.393 . S
C4036 H4025 0.950 . S
C4036 C4034 1.391 . S
C4036 C4037 1.400 . S
C4037 C4031 1.491 . S
C4037 C4036 1.400 . S
C4037 C4038 1.398 . S
C4038 H4026 0.950 . S
C4038 C4037 1.398 . S
C4038 C4039 1.391 . S
C4039 H4027 0.950 . S
C4039 C4035 1.393 . S
C4039 C4038 1.391 . S
H4040 C4048 0.950 . S
H4041 C4053 0.950 . S
H4042 C4050 0.950 . S
H4043 C4052 0.950 . S
H4044 C4054 0.950 . S
H4045 C4056 0.950 . S
H4046 C4058 0.950 . S
H4047 C4059 0.950 . S
C4048 H4040 0.950 . S
C4048 C4049 1.386 . S
C4048 C4050 1.391 . S
C4049 C4048 1.386 . S
C4049 C4053 1.393 . S
C4050 H4042 0.950 . S
C4050 C4048 1.391 . S
C4050 C4051 1.400 . S
C4051 C4050 1.400 . S
C4051 C4052 1.398 . S
C4051 C4057 1.491 . S
C4052 H4043 0.950 . S
C4052 C4051 1.398 . S
C4052 C4053 1.391 . S
C4053 H4041 0.950 . S
C4053 C4049 1.393 . S
C4053 C4052 1.391 . S
C4054 H4044 0.950 . S
C4054 C4055 1.386 . S
C4054 C4056 1.391 . S
C4055 C4054 1.386 . S
C4055 C4059 1.393 . S
C4056 H4045 0.950 . S
C4056 C4054 1.391 . S
C4056 C4057 1.400 . S
C4057 C4051 1.491 . S
C4057 C4056 1.400 . S
C4057 C4058 1.398 . S
C4058 H4046 0.950 . S
C4058 C4057 1.398 . S
C4058 C4059 1.391 . S
C4059 H4047 0.950 . S
C4059 C4055 1.393 . S
C4059 C4058 1.391 . S
H4060 C4068 0.950 . S
H4061 C4073 0.950 . S
H4062 C4070 0.950 . S
H4063 C4072 0.950 . S
H4064 C4074 0.950 . S
H4065 C4076 0.950 . S
H4066 C4078 0.950 . S
H4067 C4079 0.950 . S
C4068 H4060 0.950 . S
C4068 C4069 1.386 . S
C4068 C4070 1.391 . S
C4069 C4068 1.386 . S
C4069 C4073 1.393 . S
C4070 H4062 0.950 . S
C4070 C4068 1.391 . S
C4070 C4071 1.400 . S
C4071 C4070 1.400 . S
C4071 C4072 1.398 . S
C4071 C4077 1.491 . S
C4072 H4063 0.950 . S
C4072 C4071 1.398 . S
C4072 C4073 1.391 . S
C4073 H4061 0.950 . S
C4073 C4069 1.393 . S
C4073 C4072 1.391 . S
C4074 H4064 0.950 . S
C4074 C4075 1.386 . S
C4074 C4076 1.391 . S
C4075 C4074 1.386 . S
C4075 C4079 1.393 . S
C4076 H4065 0.950 . S
C4076 C4074 1.391 . S
C4076 C4077 1.400 . S
C4077 C4071 1.491 . S
C4077 C4076 1.400 . S
C4077 C4078 1.398 . S
C4078 H4066 0.950 . S
C4078 C4077 1.398 . S
C4078 C4079 1.391 . S
C4079 H4067 0.950 . S
C4079 C4075 1.393 . S
C4079 C4078 1.391 . S
H4080 C4088 0.950 . S
H4081 C4093 0.950 . S
H4082 C4090 0.950 . S
H4083 C4092 0.950 . S
H4084 C4094 0.950 . S
H4085 C4096 0.950 . S
H4086 C4098 0.950 1_455 S
H4087 C4099 0.952 . S
C4088 H4080 0.950 . S
C4088 C4089 1.386 . S
C4088 C4090 1.391 . S
C4089 C4088 1.386 . S
C4089 C4093 1.393 . S
C4090 H4082 0.950 . S
C4090 C4088 1.391 . S
C4090 C4091 1.400 . S
C4091 C4090 1.400 . S
C4091 C4092 1.398 . S
C4091 C4097 1.491 . S
C4092 H4083 0.950 . S
C4092 C4091 1.398 . S
C4092 C4093 1.391 . S
C4093 H4081 0.950 . S
C4093 C4089 1.393 . S
C4093 C4092 1.391 . S
C4094 H4084 0.950 . S
C4094 C4095 1.386 . S
C4094 C4096 1.391 . S
C4095 C4094 1.386 . S
C4095 C4099 1.392 1_655 S
C4096 H4085 0.950 . S
C4096 C4094 1.391 . S
C4096 C4097 1.400 . S
C4097 C4091 1.491 . S
C4097 C4096 1.400 . S
C4097 C4098 1.398 . S
C4098 H4086 0.950 1_655 S
C4098 C4097 1.398 . S
C4098 C4099 1.389 1_655 S
C4099 H4087 0.952 . S
C4099 C4095 1.392 1_455 S
C4099 C4098 1.389 1_455 S
H4100 C4108 0.950 . S
H4101 C4113 0.950 . S
H4102 C4110 0.950 . S
H4103 C4112 0.950 . S
H4104 C4114 0.950 . S
H4105 C4116 0.950 . S
H4106 C4118 0.950 . S
H4107 C4119 0.950 . S
C4108 H4100 0.950 . S
C4108 C4109 1.386 . S
C4108 C4110 1.391 . S
C4109 C4108 1.386 . S
C4109 C4113 1.393 . S
C4110 H4102 0.950 . S
C4110 C4108 1.391 . S
C4110 C4111 1.400 . S
C4111 C4110 1.400 . S
C4111 C4112 1.398 . S
C4111 C4117 1.491 . S
C4112 H4103 0.950 . S
C4112 C4111 1.398 . S
C4112 C4113 1.391 . S
C4113 H4101 0.950 . S
C4113 C4109 1.393 . S
C4113 C4112 1.391 . S
C4114 H4104 0.950 . S
C4114 C4115 1.386 . S
C4114 C4116 1.391 . S
C4115 C4114 1.386 . S
C4115 C4119 1.393 . S
C4116 H4105 0.950 . S
C4116 C4114 1.391 . S
C4116 C4117 1.400 . S
C4117 C4111 1.491 . S
C4117 C4116 1.400 . S
C4117 C4118 1.398 . S
C4118 H4106 0.950 . S
C4118 C4117 1.398 . S
C4118 C4119 1.391 . S
C4119 H4107 0.950 . S
C4119 C4115 1.393 . S
C4119 C4118 1.391 . S
H4120 C4128 0.950 . S
H4121 C4133 0.950 . S
H4122 C4130 0.950 . S
H4123 C4132 0.950 . S
H4124 C4134 0.950 . S
H4125 C4136 0.950 . S
H4126 C4138 0.950 1_565 S
H4127 C4139 0.976 . S
C4128 H4120 0.950 . S
C4128 C4129 1.386 . S
C4128 C4130 1.391 . S
C4129 C4128 1.386 . S
C4129 C4133 1.393 . S
C4130 H4122 0.950 . S
C4130 C4128 1.391 . S
C4130 C4131 1.400 . S
C4131 C4130 1.400 . S
C4131 C4132 1.398 . S
C4131 C4137 1.491 . S
C4132 H4123 0.950 . S
C4132 C4131 1.398 . S
C4132 C4133 1.391 . S
C4133 H4121 0.950 . S
C4133 C4129 1.393 . S
C4133 C4132 1.391 . S
C4134 H4124 0.950 . S
C4134 C4135 1.386 . S
C4134 C4136 1.391 . S
C4135 C4134 1.386 . S
C4135 C4139 1.352 1_545 S
C4136 H4125 0.950 . S
C4136 C4134 1.391 . S
C4136 C4137 1.400 . S
C4137 C4131 1.491 . S
C4137 C4136 1.400 . S
C4137 C4138 1.398 . S
C4138 H4126 0.950 1_545 S
C4138 C4137 1.398 . S
C4138 C4139 1.409 1_545 S
C4139 H4127 0.976 . S
C4139 C4135 1.352 1_565 S
C4139 C4138 1.409 1_565 S
C2709 C49 1.675 . S
C2715 C2189 1.621 . S
C2729 C137 1.693 . S
C2735 C2233 1.643 . S
C2755 C2313 1.630 . S
C2749 C205 1.685 . S
C2769 C196 1.673 . S
C2775 C2357 1.625 . S
C2789 C57 1.680 . S
C2795 C2437 1.628 . S
C2809 C145 1.699 . S
C2815 C2499 1.635 . S
C2829 C313 1.671 . S
C2835 C2419 1.603 . S
C2855 C2481 1.616 . S
C2849 C401 1.692 . S
C2875 C2375 1.637 . S
C2869 C489 1.682 . S
C2889 C469 1.675 . S
C2895 C2295 1.609 . S
C2915 C2171 1.621 . S
C2909 C293 1.683 . S
C2929 C381 1.696 . S
C2935 C2251 1.644 . S
C2949 C577 1.732 . S
C2955 C2561 1.667 . S
C2969 C645 1.731 . S
C2975 C2605 1.685 . S
C2995 C2685 1.631 . S
C2989 C733 1.700 . S
C3009 C724 1.696 . S
C3015 C1631 1.621 . S
C3029 C585 1.728 . S
C3035 C1675 1.679 . S
C3049 C636 1.738 . S
C3055 C1755 1.672 . S
C3069 C841 1.707 . S
C3075 C1693 1.660 . S
C3089 C937 1.739 . S
C3095 C1737 1.649 . S
C3115 C1613 1.636 . S
C3109 C1025 1.725 . S
C3135 C2667 1.654 . S
C3129 C988 1.730 . S
C3155 C2543 1.639 . S
C3149 C821 1.706 . S
C3175 C2623 1.665 . S
C3169 C900 1.726 . S
C3189 C1105 1.701 . S
C3195 C1817 1.640 . S
C3209 C1193 1.734 . S
C3215 C1879 1.670 . S
C3229 C1281 1.726 . S
C3235 C1923 1.674 . S
C3249 C1289 1.726 . S
C3255 C1985 1.670 . S
C3275 C2047 1.662 . S
C3269 C1113 1.707 . S
C3295 C2127 1.660 . S
C3289 C1201 1.727 . S
C3315 C2065 1.687 . S
C3309 C1369 1.735 . S
C3335 C2109 1.657 . S
C3329 C1457 1.734 . S
C3349 C1553 1.703 . S
C3355 C2003 1.643 . S
C3375 C1941 1.642 . S
C3369 C1516 1.702 . S
C3389 C1349 1.730 . S
C3395 C1799 1.656 . S
C3415 C1861 1.673 . S
C3409 C1437 1.742 . S
C3435 C1637 1.358 . S
C3429 C29 1.425 . S
C3449 C117 1.405 . S
C3455 C1681 1.348 . S
C3475 C1761 1.360 . S
C3469 C225 1.443 . S
C3495 C1823 1.348 . S
C3489 C233 1.420 . S
C3515 C1885 1.372 . S
C3509 C20 1.445 . S
C3535 C1929 1.343 . S
C3529 C108 1.407 . S
C3549 C321 1.431 . S
C3555 C1947 1.395 . S
C3569 C409 1.411 . S
C3575 C1805 1.317 . S
C3589 C497 1.459 . S
C3595 C1867 1.371 . S
C3609 C460 1.428 . S
C3615 C1699 1.375 . S
C3635 C1743 1.344 . S
C3629 C284 1.450 . S
C3649 C372 1.402 . S
C3655 C1619 1.291 . S
C3675 C1991 1.355 . S
C3669 C557 1.408 . S
C3689 C665 1.469 . S
C3695 C2053 1.408 . S
C3709 C753 1.475 . S
C3715 C2133 1.392 . S
C3735 C2195 1.193 . S
C3729 C761 1.241 . S
C3749 C548 1.390 . S
C3755 C2239 1.339 . S
C3769 C673 1.245 . S
C3775 C2319 1.160 . S
C3789 C849 1.247 . S
C3795 C2301 1.189 . S
C3809 C929 1.252 . S
C3815 C2177 1.197 . S
C3835 C2257 1.314 . S
C3829 C1017 1.395 . S
C3849 C997 1.412 . S
C3855 C2071 1.340 . S
C3869 C812 1.475 . S
C3875 C2115 1.385 . S
C3895 C2009 1.382 . S
C3889 C909 1.467 . S
C3915 C2363 1.175 . S
C3909 C1085 1.243 . S
C3929 C1173 1.250 . S
C3935 C2443 1.193 . S
C3949 C1261 1.390 . S
C3955 C2505 1.316 . S
C3975 C2567 1.332 . S
C3969 C1252 1.408 . S
C3995 C2611 1.417 . S
C3989 C1076 1.480 . S
C4009 C1164 1.465 . S
C4015 C2691 1.352 . S
C4029 C1377 1.414 . S
C4035 C2673 1.306 . S
C4049 C1465 1.466 . S
C4055 C2549 1.384 . S
C4075 C2629 1.387 . S
C4069 C1545 1.478 . S
C4095 C2425 1.188 . S
C4089 C1525 1.236 . S
C4115 C2487 1.296 . S
C4109 C1340 1.393 . S
C4129 C1428 1.251 . S
C4135 C2381 1.209 . S
