# Generated by pormake.
# Topology anh, (6,3)-cn, num edge types: 1
# Building blocks:
#     Node 0, Type 0, BuildingBlock: MIFKUJ_clean_sbu_0, # of connection points: 6
#     Node 1, Type 0, BuildingBlock: MIFKUJ_clean_sbu_0, # of connection points: 6
#     Node 2, Type 0, BuildingBlock: MIFKUJ_clean_sbu_0, # of connection points: 6
#     Node 3, Type 1, BuildingBlock: QEWDON_clean_linker_0, # of connection points: 3
#     Node 4, Type 1, BuildingBlock: QEWDON_clean_linker_0, # of connection points: 3
#     Node 5, Type 1, BuildingBlock: QEWDON_clean_linker_0, # of connection points: 3
#     Node 6, Type 1, BuildingBlock: QEWDON_clean_linker_0, # of connection points: 3
#     Node 7, Type 1, BuildingBlock: QEWDON_clean_linker_0, # of connection points: 3
#     Node 8, Type 1, BuildingBlock: QEWDON_clean_linker_0, # of connection points: 3
#     Edge 9, Type (0, 1), BuildingBlock: XIVTED_clean_linker_0, # of connection points: 2
#     Edge 10, Type (0, 1), BuildingBlock: XIVTED_clean_linker_0, # of connection points: 2
#     Edge 11, Type (0, 1), BuildingBlock: XIVTED_clean_linker_0, # of connection points: 2
#     Edge 12, Type (0, 1), BuildingBlock: XIVTED_clean_linker_0, # of connection points: 2
#     Edge 13, Type (0, 1), BuildingBlock: XIVTED_clean_linker_0, # of connection points: 2
#     Edge 14, Type (0, 1), BuildingBlock: XIVTED_clean_linker_0, # of connection points: 2
#     Edge 15, Type (0, 1), BuildingBlock: XIVTED_clean_linker_0, # of connection points: 2
#     Edge 16, Type (0, 1), BuildingBlock: XIVTED_clean_linker_0, # of connection points: 2
#     Edge 17, Type (0, 1), BuildingBlock: XIVTED_clean_linker_0, # of connection points: 2
#     Edge 18, Type (0, 1), BuildingBlock: XIVTED_clean_linker_0, # of connection points: 2
#     Edge 19, Type (0, 1), BuildingBlock: XIVTED_clean_linker_0, # of connection points: 2
#     Edge 20, Type (0, 1), BuildingBlock: XIVTED_clean_linker_0, # of connection points: 2
#     Edge 21, Type (0, 1), BuildingBlock: XIVTED_clean_linker_0, # of connection points: 2
#     Edge 22, Type (0, 1), BuildingBlock: XIVTED_clean_linker_0, # of connection points: 2
#     Edge 23, Type (0, 1), BuildingBlock: XIVTED_clean_linker_0, # of connection points: 2
#     Edge 24, Type (0, 1), BuildingBlock: XIVTED_clean_linker_0, # of connection points: 2
#     Edge 25, Type (0, 1), BuildingBlock: XIVTED_clean_linker_0, # of connection points: 2
#     Edge 26, Type (0, 1), BuildingBlock: XIVTED_clean_linker_0, # of connection points: 2
# Relax obj value: 0.064
# Max RMSD: 0.126
# Mean RMSD: 0.114
data_MOF--net-anh--node1-MIFKUJ_clean_sbu_0--node2-QEWDON_clean_linker_0--edge1-XIVTED_clean_linker_0
_symmetry_space_group_name_H-M    P1
_symmetry_Int_Tables_number       1
_symmetry_cell_setting            triclinic
loop_
_symmetry_equiv_pos_as_xyz
'x, y, z'
_cell_length_a     33.740097
_cell_length_b     33.507832
_cell_length_c     45.875572
_cell_angle_alpha  98.132694
_cell_angle_beta   94.933184
_cell_angle_gamma 120.5681
loop_
_atom_site_label
_atom_site_type_symbol
_atom_site_fract_x
_atom_site_fract_y
_atom_site_fract_z
_atom_type_partial_charge
Zn0 Zn 0.08032 0.59261 0.15992 0.0
Zn1 Zn 0.93711 0.48294 0.14935 0.0
C2 C 0.17165 0.61295 0.17216 0.0
O3 O 0.17311 0.64743 0.19085 0.0
C4 C 0.84762 0.47488 0.14007 0.0
O5 O 0.83342 0.43084 0.12772 0.0
O6 O 0.10114 0.65932 0.15581 0.0
O7 O 0.02092 0.54227 0.13386 0.0
O8 O 0.95505 0.4844 0.10786 0.0
C9 C 0.12999 0.67848 0.13868 0.0
O10 O 0.14143 0.65254 0.12149 0.0
O11 O 0.13298 0.58149 0.15519 0.0
C12 C 0.8847 0.40889 0.17807 0.0
O13 O 0.8947 0.44583 0.19862 0.0
O14 O 0.9028 0.41591 0.15474 0.0
O15 O 0.99207 0.52748 0.18459 0.0
O16 O 0.06591 0.58582 0.20114 0.0
O17 O 0.89099 0.50433 0.15032 0.0
C18 C 0.99658 0.51758 0.10844 0.0
C19 C 0.02622 0.55513 0.20626 0.0
Zn20 Zn 0.56802 0.11554 0.51104 0.0
Zn21 Zn 0.51845 0.98446 0.49648 0.0
C22 C 0.66609 0.1653 0.52152 0.0
O23 O 0.65742 0.16896 0.54883 0.0
C24 C 0.43424 0.89083 0.47672 0.0
O25 O 0.46212 0.88317 0.4618 0.0
O26 O 0.56915 0.17557 0.51413 0.0
O27 O 0.51248 0.06946 0.4786 0.0
O28 O 0.52743 0.01533 0.46056 0.0
C29 C 0.57358 0.19074 0.49004 0.0
O30 O 0.57377 0.16506 0.46568 0.0
O31 O 0.63197 0.13728 0.50005 0.0
C32 C 0.55213 0.93026 0.51602 0.0
O33 O 0.53122 0.9345 0.53807 0.0
O34 O 0.55351 0.95139 0.49492 0.0
O35 O 0.53583 0.02229 0.53892 0.0
O36 O 0.5628 0.09917 0.5513 0.0
O37 O 0.44976 0.93232 0.49204 0.0
C38 C 0.5182 0.04668 0.45664 0.0
C39 C 0.55027 0.05983 0.55857 0.0
Zn40 Zn 0.61133 0.53195 0.83396 0.0
Zn41 Zn 0.50538 0.54815 0.82624 0.0
C42 C 0.59346 0.44625 0.85545 0.0
O43 O 0.60675 0.4734 0.88237 0.0
C44 C 0.51758 0.63536 0.81858 0.0
O45 O 0.49363 0.60681 0.79246 0.0
O46 O 0.68082 0.56364 0.83845 0.0
O47 O 0.58989 0.5378 0.79325 0.0
O48 O 0.52539 0.54054 0.78711 0.0
C49 C 0.69635 0.54848 0.81823 0.0
O50 O 0.66653 0.51494 0.79514 0.0
O51 O 0.58994 0.46284 0.8327 0.0
C52 C 0.41322 0.50746 0.8391 0.0
O53 O 0.4368 0.52051 0.8665 0.0
O54 O 0.43532 0.51449 0.81746 0.0
O55 O 0.52277 0.52252 0.85915 0.0
O56 O 0.59954 0.56214 0.87079 0.0
O57 O 0.5286 0.6186 0.83894 0.0
C58 C 0.55859 0.53934 0.77682 0.0
C59 C 0.5602 0.54999 0.87821 0.0
H60 H 0.50554 0.12813 0.23826 0.0
C61 C 0.47189 0.09657 0.228 0.0
C62 C 0.44559 0.06525 0.24571 0.0
C63 C 0.45418 0.08774 0.19731 0.0
H64 H 0.38249 0.99976 0.24626 0.0
C65 C 0.40185 0.02464 0.23264 0.0
C66 C 0.38428 0.01458 0.20194 0.0
C67 C 0.4105 0.04651 0.18452 0.0
C68 C 0.48113 0.12089 0.1783 0.0
H69 H 0.39711 0.03886 0.16078 0.0
C70 C 0.52981 0.14119 0.1812 0.0
C71 C 0.55506 0.17153 0.16258 0.0
C72 C 0.458 0.13162 0.15663 0.0
H73 H 0.42068 0.11718 0.15417 0.0
C74 C 0.48286 0.16151 0.13804 0.0
H75 H 0.54794 0.13261 0.19746 0.0
C76 C 0.53106 0.18133 0.14091 0.0
H77 H 0.5497 0.20519 0.12661 0.0
H78 H 0.46474 0.16964 0.1215 0.0
H79 H 0.53947 0.57178 0.54748 0.0
C80 C 0.55204 0.54918 0.53906 0.0
C81 C 0.5702 0.5321 0.55925 0.0
C82 C 0.54971 0.5368 0.50803 0.0
H83 H 0.59687 0.48663 0.56345 0.0
C84 C 0.58543 0.50211 0.54808 0.0
C85 C 0.58309 0.48926 0.51725 0.0
C86 C 0.56555 0.50707 0.49736 0.0
C87 C 0.53105 0.55512 0.4867 0.0
H88 H 0.56436 0.49787 0.47355 0.0
C89 C 0.54452 0.6029 0.49317 0.0
C90 C 0.52725 0.62109 0.47333 0.0
C91 C 0.50035 0.5254 0.45972 0.0
H92 H 0.48906 0.48821 0.45427 0.0
C93 C 0.48344 0.54341 0.43969 0.0
H94 H 0.56924 0.62624 0.51353 0.0
C95 C 0.49673 0.59101 0.44641 0.0
H96 H 0.48246 0.60401 0.43085 0.0
H97 H 0.45963 0.5203 0.41904 0.0
H98 H 0.11548 0.58093 0.89751 0.0
C99 C 0.08595 0.58359 0.88941 0.0
C100 C 0.05607 0.58323 0.90891 0.0
C101 C 0.07822 0.58843 0.85978 0.0
H102 H 0.99463 0.58582 0.91392 0.0
C103 C 0.01824 0.5874 0.89887 0.0
C104 C 0.00946 0.5913 0.8693 0.0
C105 C 0.03964 0.59188 0.84993 0.0
C106 C 0.11019 0.59003 0.83901 0.0
H107 H 0.03283 0.5947 0.82703 0.0
C108 C 0.12824 0.56028 0.83861 0.0
C109 C 0.1591 0.56229 0.81925 0.0
C110 C 0.1229 0.62151 0.81941 0.0
H111 H 0.11032 0.64551 0.81951 0.0
C112 C 0.15274 0.62306 0.7998 0.0
H113 H 0.11798 0.53526 0.8532 0.0
C114 C 0.17088 0.59383 0.79972 0.0
H115 H 0.19529 0.59709 0.78499 0.0
H116 H 0.16252 0.64763 0.78495 0.0
H117 H 0.9735 0.52627 0.43649 0.0
C118 C 0.01052 0.55225 0.44423 0.0
C119 C 0.03835 0.57446 0.42362 0.0
C120 C 0.03006 0.56579 0.47504 0.0
H121 H 0.10747 0.62548 0.41757 0.0
C122 C 0.08601 0.60858 0.43361 0.0
C123 C 0.10629 0.62206 0.46392 0.0
C124 C 0.07818 0.60104 0.48468 0.0
C125 C 6e-05 0.54534 0.49741 0.0
H126 H 0.09393 0.61168 0.50821 0.0
C127 C 0.96632 0.49622 0.49257 0.0
C128 C 0.93947 0.4776 0.5146 0.0
C129 C 0.00538 0.57549 0.52408 0.0
H130 H 0.03018 0.6134 0.5282 0.0
C131 C 0.97836 0.55729 0.54563 0.0
H132 H 0.96206 0.47243 0.47226 0.0
C133 C 0.94582 0.50879 0.54104 0.0
H134 H 0.9252 0.49565 0.55815 0.0
H135 H 0.98268 0.58092 0.56601 0.0
H136 H 0.54106 0.00501 0.78603 0.0
C137 C 0.55193 0.0413 0.79553 0.0
C138 C 0.55359 0.07076 0.7761 0.0
C139 C 0.56168 0.05795 0.82695 0.0
H140 H 0.56601 0.13931 0.77285 0.0
C141 C 0.56558 0.11712 0.78803 0.0
C142 C 0.57606 0.13504 0.81896 0.0
C143 C 0.57449 0.10544 0.83832 0.0
C144 C 0.55579 0.02535 0.84785 0.0
H145 H 0.58355 0.11975 0.86223 0.0
C146 C 0.56328 0.98734 0.84077 0.0
C147 C 0.55629 0.95648 0.86057 0.0
C148 C 0.54088 0.03133 0.87503 0.0
H149 H 0.53281 0.05847 0.88098 0.0
C150 C 0.53475 1.00152 0.89477 0.0
H151 H 0.57501 0.98193 0.82017 0.0
C152 C 0.54233 0.96447 0.88769 0.0
H153 H 0.5358 0.94111 0.90315 0.0
H154 H 0.52316 0.00665 0.91549 0.0
H155 H 0.5224 0.60653 0.11118 0.0
C156 C 0.54663 0.59573 0.11744 0.0
C157 C 0.57361 0.59231 0.09668 0.0
C158 C 0.55274 0.58743 0.1464 0.0
H159 H 0.62822 0.57875 0.08896 0.0
C160 C 0.6072 0.58126 0.10492 0.0
C161 C 0.61293 0.57167 0.13306 0.0
C162 C 0.5849 0.57341 0.15339 0.0
C163 C 0.52854 0.59659 0.17 0.0
H164 H 0.58924 0.5649 0.17489 0.0
C165 C 0.48446 0.59178 0.1627 0.0
C166 C 0.46457 0.60476 0.18511 0.0
C167 C 0.55117 0.61324 0.20032 0.0
H168 H 0.58565 0.6193 0.20704 0.0
C169 C 0.53048 0.62406 0.22259 0.0
H170 H 0.46609 0.57929 0.13969 0.0
C171 C 0.48765 0.62013 0.21509 0.0
H172 H 0.47275 0.62977 0.23275 0.0
H173 H 0.54832 0.6367 0.24573 0.0
H174 H 0.26078 0.6833 0.19771 0.0
H175 H 0.37839 0.53349 0.15199 0.0
H176 H 0.18108 0.54132 0.14286 0.0
H177 H 0.45322 0.6786 0.20155 0.0
H178 H 0.30615 0.53545 0.14519 0.0
H179 H 0.33194 0.6821 0.19662 0.0
C180 C 0.25823 0.65174 0.18542 0.0
C181 C 0.21484 0.61218 0.17059 0.0
C182 C 0.33853 0.56693 0.15731 0.0
C183 C 0.2967 0.61044 0.16926 0.0
C184 C 0.37965 0.56585 0.16107 0.0
C185 C 0.42152 0.60576 0.17768 0.0
C186 C 0.33969 0.6083 0.17016 0.0
C187 C 0.42146 0.64681 0.18904 0.0
C188 C 0.29903 0.65111 0.1847 0.0
C189 C 0.21387 0.57252 0.15472 0.0
N190 N 0.38124 0.6469 0.18522 0.0
N191 N 0.25423 0.57248 0.15465 0.0
H192 H 0.74959 0.2144 0.56016 0.0
H193 H 0.87024 0.41538 0.46601 0.0
H194 H 0.68653 0.20129 0.47071 0.0
H195 H 0.92992 0.42235 0.55493 0.0
H196 H 0.80757 0.33293 0.46387 0.0
H197 H 0.82077 0.28563 0.55515 0.0
C198 C 0.7511 0.22603 0.53919 0.0
C199 C 0.71203 0.20185 0.51586 0.0
C200 C 0.83474 0.35235 0.48368 0.0
C201 C 0.79333 0.28453 0.51015 0.0
C202 C 0.87059 0.39929 0.48484 0.0
C203 C 0.90497 0.42591 0.51084 0.0
C204 C 0.83353 0.33196 0.50864 0.0
C205 C 0.90366 0.40342 0.53465 0.0
C206 C 0.79174 0.26694 0.53636 0.0
C207 C 0.71597 0.21865 0.4892 0.0
N208 N 0.86845 0.35807 0.53305 0.0
N209 N 0.75565 0.2594 0.48722 0.0
H210 H 0.50048 0.68003 0.77838 0.0
H211 H 0.59604 0.92299 0.89719 0.0
H212 H 0.56228 0.70515 0.87055 0.0
H213 H 0.5258 0.89293 0.80656 0.0
H214 H 0.59187 0.84723 0.88648 0.0
H215 H 0.51673 0.76081 0.78712 0.0
C216 C 0.51766 0.70257 0.8005 0.0
C217 C 0.52972 0.68545 0.82383 0.0
C218 C 0.57771 0.85733 0.86884 0.0
C219 C 0.54852 0.77867 0.834 0.0
C220 C 0.58003 0.90062 0.87493 0.0
C221 C 0.56071 0.91425 0.85285 0.0
C222 C 0.55584 0.82712 0.84043 0.0
C223 C 0.54129 0.88412 0.82427 0.0
C224 C 0.52697 0.74886 0.80545 0.0
C225 C 0.55217 0.71666 0.85193 0.0
N226 N 0.53895 0.84185 0.81899 0.0
N227 N 0.56062 0.76164 0.85626 0.0
H228 H 0.75234 0.41792 0.13195 0.0
H229 H 0.70671 0.62841 0.13668 0.0
H230 H 0.86466 0.56515 0.15417 0.0
H231 H 0.6006 0.4892 0.14568 0.0
H232 H 0.76527 0.60609 0.14237 0.0
H233 H 0.69585 0.44276 0.13536 0.0
C234 C 0.76513 0.45549 0.13755 0.0
C235 C 0.81328 0.48955 0.14258 0.0
C236 C 0.72935 0.58059 0.14352 0.0
C237 C 0.74879 0.51814 0.14648 0.0
C238 C 0.69605 0.59333 0.14031 0.0
C239 C 0.64905 0.5605 0.14077 0.0
C240 C 0.71526 0.53432 0.14654 0.0
C241 C 0.63667 0.51546 0.14539 0.0
C242 C 0.73287 0.4696 0.1397 0.0
C243 C 0.82786 0.53771 0.15004 0.0
N244 N 0.66953 0.50339 0.14769 0.0
N245 N 0.79571 0.55059 0.15148 0.0
H246 H 0.39388 0.79777 0.44919 0.0
H247 H 0.14787 0.70859 0.503 0.0
H248 H 0.36626 0.8919 0.50573 0.0
H249 H 0.17876 0.62015 0.44397 0.0
H250 H 0.22961 0.7747 0.50906 0.0
H251 H 0.31679 0.73141 0.45078 0.0
C252 C 0.37155 0.8046 0.4619 0.0
C253 C 0.38662 0.85069 0.47718 0.0
C254 C 0.21864 0.74062 0.49514 0.0
C255 C 0.29769 0.77421 0.47924 0.0
C256 C 0.17222 0.70286 0.49195 0.0
C257 C 0.15679 0.65905 0.47295 0.0
C258 C 0.24956 0.73423 0.47923 0.0
C259 C 0.18936 0.65348 0.45875 0.0
C260 C 0.32743 0.76651 0.4629 0.0
C261 C 0.35603 0.85703 0.49346 0.0
N262 N 0.23398 0.69063 0.46201 0.0
N263 N 0.31294 0.81924 0.49399 0.0
H264 H 0.59812 0.39602 0.80493 0.0
H265 H 0.54411 0.16635 0.86501 0.0
H266 H 0.58101 0.3905 0.89671 0.0
H267 H 0.62965 0.21519 0.79792 0.0
H268 H 0.54931 0.2431 0.87606 0.0
H269 H 0.59828 0.32256 0.79939 0.0
C270 C 0.59386 0.3791 0.82385 0.0
C271 C 0.58947 0.39949 0.85133 0.0
C272 C 0.56726 0.23697 0.85915 0.0
C273 C 0.58975 0.31516 0.8451 0.0
C274 C 0.56466 0.19338 0.85299 0.0
C275 C 0.5858 0.18386 0.83011 0.0
C276 C 0.59056 0.27084 0.84201 0.0
C277 C 0.6117 0.22028 0.81517 0.0
C278 C 0.59442 0.33737 0.82075 0.0
C279 C 0.58453 0.37602 0.87514 0.0
N280 N 0.61268 0.26167 0.82102 0.0
N281 N 0.5845 0.33489 0.87144 0.0
H282 H 0.57873 0.89873 0.46762 0.0
H283 H 0.53363 0.67048 0.52799 0.0
H284 H 0.55258 0.87807 0.55643 0.0
H285 H 0.5506 0.68547 0.43718 0.0
H286 H 0.55344 0.75224 0.54102 0.0
H287 H 0.58288 0.82749 0.45877 0.0
C288 C 0.57474 0.87972 0.48547 0.0
C289 C 0.56435 0.89372 0.5126 0.0
C290 C 0.5532 0.73785 0.51828 0.0
C291 C 0.56854 0.81212 0.50249 0.0
C292 C 0.54203 0.69118 0.51084 0.0
C293 C 0.54028 0.6711 0.4814 0.0
C294 C 0.56233 0.76464 0.49609 0.0
C295 C 0.55081 0.69937 0.46001 0.0
C296 C 0.57688 0.83894 0.48033 0.0
C297 C 0.55987 0.86805 0.535 0.0
N298 N 0.56113 0.74472 0.46775 0.0
N299 N 0.56137 0.82808 0.52929 0.0
H300 H 0.76718 0.61567 0.86386 0.0
H301 H 0.94805 0.54362 0.81591 0.0
H302 H 0.73938 0.51631 0.78234 0.0
H303 H 0.97514 0.64143 0.89802 0.0
H304 H 0.87565 0.541 0.80018 0.0
H305 H 0.8474 0.63343 0.87357 0.0
C306 C 0.77807 0.59793 0.84784 0.0
C307 C 0.74635 0.56396 0.82246 0.0
C308 C 0.89761 0.56338 0.82152 0.0
C309 C 0.838 0.58386 0.83356 0.0
C310 C 0.93911 0.56511 0.83044 0.0
C311 C 0.96751 0.59253 0.85842 0.0
C312 C 0.88429 0.58913 0.84075 0.0
C313 C 0.95386 0.61916 0.87649 0.0
C314 C 0.82389 0.60806 0.85341 0.0
C315 C 0.76252 0.54241 0.80234 0.0
N316 N 0.91305 0.61653 0.86744 0.0
N317 N 0.8071 0.55236 0.80849 0.0
H318 H 0.12821 0.74513 0.17995 0.0
H319 H 0.36618 0.95502 0.14848 0.0
H320 H 0.1948 0.73076 0.10629 0.0
H321 H 0.30219 0.97029 0.2234 0.0
H322 H 0.29678 0.87656 0.12818 0.0
H323 H 0.18417 0.83081 0.19144 0.0
C324 C 0.15403 0.76005 0.16584 0.0
C325 C 0.1573 0.73064 0.1424 0.0
C326 C 0.29762 0.89722 0.14889 0.0
C327 C 0.22169 0.82853 0.15563 0.0
C328 C 0.33718 0.94223 0.16042 0.0
C329 C 0.3402 0.96914 0.18784 0.0
C330 C 0.26085 0.87872 0.16497 0.0
C331 C 0.30171 0.95036 0.20248 0.0
C332 C 0.1861 0.80898 0.1725 0.0
C333 C 0.19135 0.75198 0.12482 0.0
N334 N 0.26381 0.90611 0.19102 0.0
N335 N 0.22257 0.79954 0.13203 0.0
H336 H 0.55314 0.22221 0.44271 0.0
H337 H 0.65603 0.48188 0.54052 0.0
H338 H 0.6143 0.26673 0.5368 0.0
H339 H 0.53579 0.41461 0.46883 0.0
H340 H 0.66237 0.41202 0.52943 0.0
H341 H 0.5665 0.30168 0.44357 0.0
C342 C 0.56966 0.24885 0.46344 0.0
C343 C 0.58198 0.23806 0.48987 0.0
C344 C 0.63524 0.41316 0.51581 0.0
C345 C 0.59846 0.32834 0.4907 0.0
C346 C 0.63151 0.45281 0.52212 0.0
C347 C 0.59452 0.45341 0.50611 0.0
C348 C 0.6021 0.37426 0.49318 0.0
C349 C 0.56464 0.4155 0.48188 0.0
C350 C 0.57735 0.29395 0.46385 0.0
C351 C 0.60353 0.27358 0.51612 0.0
N352 N 0.56862 0.37695 0.4764 0.0
N353 N 0.61111 0.31728 0.51588 0.0
H354 H 0.35514 0.48402 0.78573 0.0
H355 H 0.1908 0.54315 0.86931 0.0
H356 H 0.35822 0.49921 0.88108 0.0
H357 H 0.17983 0.51809 0.77316 0.0
H358 H 0.23969 0.50952 0.87264 0.0
H359 H 0.27985 0.47855 0.77929 0.0
C360 C 0.3396 0.48535 0.80527 0.0
C361 C 0.36364 0.49354 0.8341 0.0
C362 C 0.22602 0.51064 0.85073 0.0
C363 C 0.27781 0.48784 0.82692 0.0
C364 C 0.19776 0.52965 0.84878 0.0
C365 C 0.18194 0.53449 0.82094 0.0
C366 C 0.2392 0.497 0.82474 0.0
C367 C 0.19249 0.5165 0.7952 0.0
C368 C 0.29657 0.48223 0.80157 0.0
C369 C 0.34144 0.49404 0.85851 0.0
N370 N 0.22115 0.49935 0.79777 0.0
N371 N 0.3002 0.49225 0.85443 0.0
H372 H 0.83554 0.33138 0.13144 0.0
H373 H 0.61901 0.21242 0.21502 0.0
H374 H 0.8399 0.37981 0.22468 0.0
H375 H 0.60848 0.18338 0.11904 0.0
H376 H 0.7043 0.25903 0.22078 0.0
H377 H 0.75762 0.26236 0.12895 0.0
C378 C 0.82066 0.32691 0.15161 0.0
C379 C 0.84382 0.36188 0.17819 0.0
C380 C 0.68334 0.24194 0.19848 0.0
C381 C 0.75459 0.2833 0.17535 0.0
C382 C 0.63467 0.21515 0.19517 0.0
C383 C 0.60663 0.19465 0.16648 0.0
C384 C 0.70409 0.24826 0.17291 0.0
C385 C 0.62881 0.19952 0.14155 0.0
C386 C 0.77602 0.28763 0.15009 0.0
C387 C 0.8229 0.3541 0.20361 0.0
N388 N 0.67624 0.22625 0.14532 0.0
N389 N 0.77914 0.31597 0.20145 0.0
H390 H 0.97997 0.45319 0.05807 0.0
H391 H 0.08744 0.64926 0.96074 0.0
H392 H 0.05288 0.60321 0.09543 0.0
H393 H 0.03628 0.50179 0.92632 0.0
H394 H 0.08268 0.63429 0.01146 0.0
H395 H 0.00587 0.47034 0.01057 0.0
C396 C 0.0021 0.48977 0.05632 0.0
C397 C 0.01514 0.52701 0.08068 0.0
C398 C 0.07326 0.60528 0.99296 0.0
C399 C 0.04422 0.54701 0.02654 0.0
C400 C 0.0762 0.61394 0.96412 0.0
C401 C 0.06237 0.57667 0.93966 0.0
C402 C 0.05525 0.55875 0.99713 0.0
C403 C 0.04753 0.53138 0.94484 0.0
C404 C 0.017 0.49959 0.02932 0.0
C405 C 0.04351 0.57373 0.07739 0.0
N406 N 0.04368 0.52347 0.97302 0.0
N407 N 0.05674 0.58248 0.05071 0.0
H408 H 0.47307 0.08919 0.43727 0.0
H409 H 0.52441 0.06939 0.27056 0.0
H410 H 0.54826 0.02349 0.40698 0.0
H411 H 0.40685 0.07724 0.29315 0.0
H412 H 0.54693 0.0702 0.32322 0.0
H413 H 0.46134 0.10185 0.38687 0.0
C414 C 0.48722 0.07751 0.42003 0.0
C415 C 0.51132 0.05482 0.42625 0.0
C416 C 0.51656 0.07232 0.31666 0.0
C417 C 0.4984 0.06972 0.36865 0.0
C418 C 0.504 0.07227 0.2868 0.0
C419 C 0.46378 0.07318 0.27776 0.0
C420 C 0.48897 0.07399 0.3375 0.0
C421 C 0.43805 0.07638 0.2994 0.0
C422 C 0.48049 0.08477 0.3913 0.0
C423 C 0.52903 0.04063 0.40305 0.0
N424 N 0.45105 0.07662 0.3283 0.0
N425 N 0.52226 0.04836 0.37524 0.0
H426 H 0.62862 0.54634 0.74758 0.0
H427 H 0.50121 0.53082 0.58756 0.0
H428 H 0.49602 0.53783 0.7336 0.0
H429 H 0.6408 0.55632 0.60514 0.0
H430 H 0.49956 0.53685 0.64123 0.0
H431 H 0.63381 0.55132 0.69543 0.0
C432 C 0.6005 0.54539 0.73356 0.0
C433 C 0.56171 0.54142 0.74503 0.0
C434 C 0.53071 0.54157 0.63336 0.0
C435 C 0.56758 0.54736 0.68516 0.0
C436 C 0.5318 0.53853 0.60278 0.0
C437 C 0.57101 0.54258 0.59187 0.0
C438 C 0.56904 0.54857 0.65308 0.0
C439 C 0.60952 0.55211 0.61255 0.0
C440 C 0.60362 0.54849 0.70377 0.0
C441 C 0.52653 0.5407 0.72574 0.0
N442 N 0.6074 0.55433 0.64208 0.0
N443 N 0.53023 0.54346 0.69673 0.0
H444 H 0.56622 0.00215 0.58791 0.0
H445 H 0.49256 0.07639 0.73682 0.0
H446 H 0.5315 0.10996 0.60118 0.0
H447 H 0.59049 0.02986 0.74031 0.0
H448 H 0.48871 0.06869 0.68278 0.0
H449 H 0.56062 0.99529 0.64028 0.0
C450 C 0.5572 0.02415 0.6018 0.0
C451 C 0.54921 0.05662 0.59027 0.0
C452 C 0.51061 0.0596 0.69529 0.0
C453 C 0.54196 0.04831 0.64961 0.0
C454 C 0.5126 0.06367 0.72604 0.0
C455 C 0.54253 0.05454 0.74305 0.0
C456 C 0.5384 0.04585 0.68129 0.0
C457 C 0.56714 0.0374 0.72795 0.0
C458 C 0.55416 0.02029 0.6316 0.0
C459 C 0.53822 0.08474 0.60926 0.0
N460 N 0.56497 0.03408 0.69782 0.0
N461 N 0.53454 0.07965 0.63792 0.0
H462 H 0.48578 0.50622 0.90674 0.0
H463 H 0.63898 0.65417 0.06876 0.0
H464 H 0.63024 0.62106 0.92245 0.0
H465 H 0.49358 0.54268 0.05427 0.0
H466 H 0.63266 0.65039 0.01487 0.0
H467 H 0.48453 0.52527 0.95994 0.0
C468 C 0.51701 0.53596 0.92126 0.0
C469 C 0.55814 0.56221 0.91008 0.0
C470 C 0.60182 0.62725 0.0234 0.0
C471 C 0.55717 0.58379 0.97115 0.0
C472 C 0.60539 0.62967 0.05416 0.0
C473 C 0.56679 0.59851 0.06577 0.0
C474 C 0.55949 0.59289 0.00406 0.0
C475 C 0.52405 0.56736 0.04607 0.0
C476 C 0.51633 0.54669 0.9517 0.0
C477 C 0.59786 0.59968 0.93012 0.0
N478 N 0.5217 0.56474 0.01604 0.0
N479 N 0.59644 0.60916 0.95967 0.0
H480 H 0.06086 0.63184 0.25163 0.0
H481 H -0.00272 0.49073 0.38178 0.0
H482 H 0.97685 0.47896 0.23198 0.0
H483 H 0.03812 0.63726 0.39274 0.0
H484 H 0.98531 0.48265 0.327 0.0
H485 H 0.05188 0.63295 0.30383 0.0
C486 C 0.04022 0.59846 0.25836 0.0
C487 C 0.01917 0.55526 0.23753 0.0
C488 C 0.99582 0.51622 0.34143 0.0
C489 C 0.00895 0.55606 0.29737 0.0
C490 C 0.00227 0.52067 0.37257 0.0
C491 C 0.01896 0.56478 0.39155 0.0
C492 C 0.00672 0.55636 0.32954 0.0
C493 C 0.02553 0.60277 0.37873 0.0
C494 C 0.03479 0.59906 0.28812 0.0
C495 C 0.99278 0.51298 0.24735 0.0
N496 N 0.0201 0.59789 0.34857 0.0
N497 N 0.98881 0.51435 0.27674 0.0
loop_
_geom_bond_atom_site_label_1
_geom_bond_atom_site_label_2
_geom_bond_distance
_geom_bond_site_symmetry_2
_ccdc_geom_bond_type
Zn0 O6 1.969 . S
Zn0 O7 1.965 . S
Zn0 O11 2.024 . S
Zn0 O16 1.969 . S
Zn1 O8 1.969 . S
Zn1 O14 1.969 . S
Zn1 O15 1.960 1_655 S
Zn1 O17 2.024 . S
C2 O3 1.229 . S
C2 O11 1.058 . S
O3 C2 1.229 . S
C4 O5 1.229 . S
C4 O17 1.058 . S
O5 C4 1.229 . S
O6 Zn0 1.969 . S
O6 C9 1.267 . S
O7 Zn0 1.965 . S
O7 C18 1.260 . S
O8 Zn1 1.969 . S
O8 C18 1.258 1_655 S
C9 O6 1.267 . S
C9 O10 1.228 . S
O10 C9 1.228 . S
O11 Zn0 2.024 . S
O11 C2 1.058 . S
C12 O13 1.228 . S
C12 O14 1.267 . S
O13 C12 1.228 . S
O14 Zn1 1.969 . S
O14 C12 1.267 . S
O15 Zn1 1.960 1_455 S
O15 C19 1.262 . S
O16 Zn0 1.969 . S
O16 C19 1.258 . S
O17 Zn1 2.024 . S
O17 C4 1.058 . S
C18 O7 1.260 . S
C18 O8 1.258 1_455 S
C19 O15 1.262 . S
C19 O16 1.258 . S
Zn20 O26 1.969 . S
Zn20 O27 1.965 . S
Zn20 O31 2.024 . S
Zn20 O36 1.969 . S
Zn21 O28 1.969 . S
Zn21 O34 1.969 . S
Zn21 O35 1.965 1_565 S
Zn21 O37 2.024 . S
C22 O23 1.229 . S
C22 O31 1.058 . S
O23 C22 1.229 . S
C24 O25 1.229 . S
C24 O37 1.058 . S
O25 C24 1.229 . S
O26 Zn20 1.969 . S
O26 C29 1.267 . S
O27 Zn20 1.965 . S
O27 C38 1.260 . S
O28 Zn21 1.969 . S
O28 C38 1.258 1_565 S
C29 O26 1.267 . S
C29 O30 1.228 . S
O30 C29 1.228 . S
O31 Zn20 2.024 . S
O31 C22 1.058 . S
C32 O33 1.228 . S
C32 O34 1.267 . S
O33 C32 1.228 . S
O34 Zn21 1.969 . S
O34 C32 1.267 . S
O35 Zn21 1.965 1_545 S
O35 C39 1.260 . S
O36 Zn20 1.969 . S
O36 C39 1.258 . S
O37 Zn21 2.024 . S
O37 C24 1.058 . S
C38 O27 1.260 . S
C38 O28 1.258 1_545 S
C39 O35 1.260 . S
C39 O36 1.258 . S
Zn40 O46 1.969 . S
Zn40 O47 1.965 . S
Zn40 O51 2.024 . S
Zn40 O56 1.969 . S
Zn41 O48 1.969 . S
Zn41 O54 1.969 . S
Zn41 O55 1.965 . S
Zn41 O57 2.024 . S
C42 O43 1.229 . S
C42 O51 1.058 . S
O43 C42 1.229 . S
C44 O45 1.229 . S
C44 O57 1.058 . S
O45 C44 1.229 . S
O46 Zn40 1.969 . S
O46 C49 1.267 . S
O47 Zn40 1.965 . S
O47 C58 1.260 . S
O48 Zn41 1.969 . S
O48 C58 1.258 . S
C49 O46 1.267 . S
C49 O50 1.228 . S
O50 C49 1.228 . S
O51 Zn40 2.024 . S
O51 C42 1.058 . S
C52 O53 1.228 . S
C52 O54 1.267 . S
O53 C52 1.228 . S
O54 Zn41 1.969 . S
O54 C52 1.267 . S
O55 Zn41 1.965 . S
O55 C59 1.260 . S
O56 Zn40 1.969 . S
O56 C59 1.258 . S
O57 Zn41 2.024 . S
O57 C44 1.058 . S
C58 O47 1.260 . S
C58 O48 1.258 . S
C59 O55 1.260 . S
C59 O56 1.258 . S
H60 C61 0.949 . S
C61 H60 0.949 . S
C61 C62 1.395 . S
C61 C63 1.391 . S
C62 C61 1.395 . S
C62 C65 1.390 . S
C63 C61 1.391 . S
C63 C67 1.387 . S
C63 C68 1.491 . S
H64 C65 0.950 1_565 S
C65 C62 1.390 . S
C65 H64 0.950 1_545 S
C65 C66 1.378 1_545 S
C66 C65 1.378 1_565 S
C66 C67 1.409 1_565 S
C67 C63 1.387 . S
C67 C66 1.409 1_545 S
C67 H69 0.951 . S
C68 C63 1.491 . S
C68 C70 1.382 . S
C68 C72 1.404 . S
H69 C67 0.951 . S
C70 C68 1.382 . S
C70 C71 1.390 . S
C70 H75 0.949 . S
C71 C70 1.390 . S
C71 C76 1.399 . S
C72 C68 1.404 . S
C72 H73 0.950 . S
C72 C74 1.375 . S
H73 C72 0.950 . S
C74 C72 1.375 . S
C74 C76 1.382 . S
C74 H78 0.950 . S
H75 C70 0.949 . S
C76 C71 1.399 . S
C76 C74 1.382 . S
C76 H77 0.952 . S
H77 C76 0.952 . S
H78 C74 0.950 . S
H79 C80 0.949 . S
C80 H79 0.949 . S
C80 C81 1.395 . S
C80 C82 1.391 . S
C81 C80 1.395 . S
C81 C84 1.390 . S
C82 C80 1.391 . S
C82 C86 1.387 . S
C82 C87 1.491 . S
H83 C84 0.950 . S
C84 C81 1.390 . S
C84 H83 0.950 . S
C84 C85 1.378 . S
C85 C84 1.378 . S
C85 C86 1.409 . S
C86 C82 1.387 . S
C86 C85 1.409 . S
C86 H88 0.951 . S
C87 C82 1.491 . S
C87 C89 1.382 . S
C87 C91 1.404 . S
H88 C86 0.951 . S
C89 C87 1.382 . S
C89 C90 1.390 . S
C89 H94 0.949 . S
C90 C89 1.390 . S
C90 C95 1.399 . S
C91 C87 1.404 . S
C91 H92 0.950 . S
C91 C93 1.375 . S
H92 C91 0.950 . S
C93 C91 1.375 . S
C93 C95 1.382 . S
C93 H97 0.950 . S
H94 C89 0.949 . S
C95 C90 1.399 . S
C95 C93 1.382 . S
C95 H96 0.952 . S
H96 C95 0.952 . S
H97 C93 0.950 . S
H98 C99 0.949 . S
C99 H98 0.949 . S
C99 C100 1.395 . S
C99 C101 1.391 . S
C100 C99 1.395 . S
C100 C103 1.390 1_455 S
C101 C99 1.391 . S
C101 C105 1.387 . S
C101 C106 1.491 . S
H102 C103 0.950 . S
C103 C100 1.390 1_655 S
C103 H102 0.950 . S
C103 C104 1.378 . S
C104 C103 1.378 . S
C104 C105 1.409 1_655 S
C105 C101 1.387 . S
C105 C104 1.409 1_455 S
C105 H107 0.951 . S
C106 C101 1.491 . S
C106 C108 1.382 . S
C106 C110 1.404 . S
H107 C105 0.951 . S
C108 C106 1.382 . S
C108 C109 1.390 . S
C108 H113 0.949 . S
C109 C108 1.390 . S
C109 C114 1.399 . S
C110 C106 1.404 . S
C110 H111 0.950 . S
C110 C112 1.375 . S
H111 C110 0.950 . S
C112 C110 1.375 . S
C112 C114 1.382 . S
C112 H116 0.950 . S
H113 C108 0.949 . S
C114 C109 1.399 . S
C114 C112 1.382 . S
C114 H115 0.952 . S
H115 C114 0.952 . S
H116 C112 0.950 . S
H117 C118 0.949 1_655 S
C118 H117 0.949 1_455 S
C118 C119 1.395 . S
C118 C120 1.391 . S
C119 C118 1.395 . S
C119 C122 1.390 . S
C120 C118 1.391 . S
C120 C124 1.387 . S
C120 C125 1.491 1_455 S
H121 C122 0.950 . S
C122 C119 1.390 . S
C122 H121 0.950 . S
C122 C123 1.378 . S
C123 C122 1.378 . S
C123 C124 1.409 . S
C124 C120 1.387 . S
C124 C123 1.409 . S
C124 H126 0.951 . S
C125 C120 1.491 1_655 S
C125 C127 1.382 . S
C125 C129 1.404 . S
H126 C124 0.951 . S
C127 C125 1.382 . S
C127 C128 1.390 . S
C127 H132 0.949 . S
C128 C127 1.390 . S
C128 C133 1.399 . S
C129 C125 1.404 . S
C129 H130 0.950 1_655 S
C129 C131 1.375 . S
H130 C129 0.950 1_455 S
C131 C129 1.375 . S
C131 C133 1.382 . S
C131 H135 0.950 . S
H132 C127 0.949 . S
C133 C128 1.399 . S
C133 C131 1.382 . S
C133 H134 0.952 . S
H134 C133 0.952 . S
H135 C131 0.950 . S
H136 C137 0.949 . S
C137 H136 0.949 . S
C137 C138 1.395 . S
C137 C139 1.391 . S
C138 C137 1.395 . S
C138 C141 1.390 . S
C139 C137 1.391 . S
C139 C143 1.387 . S
C139 C144 1.491 . S
H140 C141 0.950 . S
C141 C138 1.390 . S
C141 H140 0.950 . S
C141 C142 1.378 . S
C142 C141 1.378 . S
C142 C143 1.409 . S
C143 C139 1.387 . S
C143 C142 1.409 . S
C143 H145 0.951 . S
C144 C139 1.491 . S
C144 C146 1.382 1_545 S
C144 C148 1.404 1_545 S
H145 C143 0.951 . S
C146 C144 1.382 1_565 S
C146 C147 1.390 . S
C146 H151 0.949 . S
C147 C146 1.390 . S
C147 C152 1.399 . S
C148 C144 1.404 1_565 S
C148 H149 0.950 1_565 S
C148 C150 1.375 . S
H149 C148 0.950 1_545 S
C150 C148 1.375 . S
C150 C152 1.382 . S
C150 H154 0.950 . S
H151 C146 0.949 . S
C152 C147 1.399 . S
C152 C150 1.382 . S
C152 H153 0.952 . S
H153 C152 0.952 . S
H154 C150 0.950 . S
H155 C156 0.949 . S
C156 H155 0.949 . S
C156 C157 1.395 . S
C156 C158 1.391 . S
C157 C156 1.395 . S
C157 C160 1.390 . S
C158 C156 1.391 . S
C158 C162 1.387 . S
C158 C163 1.491 . S
H159 C160 0.950 . S
C160 C157 1.390 . S
C160 H159 0.950 . S
C160 C161 1.378 . S
C161 C160 1.378 . S
C161 C162 1.409 . S
C162 C158 1.387 . S
C162 C161 1.409 . S
C162 H164 0.951 . S
C163 C158 1.491 . S
C163 C165 1.382 . S
C163 C167 1.404 . S
H164 C162 0.951 . S
C165 C163 1.382 . S
C165 C166 1.390 . S
C165 H170 0.949 . S
C166 C165 1.390 . S
C166 C171 1.399 . S
C167 C163 1.404 . S
C167 H168 0.950 . S
C167 C169 1.375 . S
H168 C167 0.950 . S
C169 C167 1.375 . S
C169 C171 1.382 . S
C169 H173 0.950 . S
H170 C165 0.949 . S
C171 C166 1.399 . S
C171 C169 1.382 . S
C171 H172 0.952 . S
H172 C171 0.952 . S
H173 C169 0.950 . S
H174 C180 0.930 . S
H175 C184 0.930 . S
H176 C189 0.929 . S
H177 C187 0.929 . S
H178 C182 0.929 . S
H179 C188 0.929 . S
C180 H174 0.930 . S
C180 C181 1.367 . S
C180 C188 1.378 . S
C181 C180 1.367 . S
C181 C189 1.433 . S
C182 H178 0.929 . S
C182 C184 1.378 . S
C182 C186 1.350 . S
C183 C186 1.463 . S
C183 C188 1.350 . S
C183 N191 1.427 . S
C184 H175 0.930 . S
C184 C182 1.378 . S
C184 C185 1.367 . S
C185 C184 1.367 . S
C185 C187 1.433 . S
C186 C182 1.350 . S
C186 C183 1.463 . S
C186 N190 1.427 . S
C187 H177 0.929 . S
C187 C185 1.433 . S
C187 N190 1.384 . S
C188 H179 0.929 . S
C188 C180 1.378 . S
C188 C183 1.350 . S
C189 H176 0.929 . S
C189 C181 1.433 . S
C189 N191 1.384 . S
N190 C186 1.427 . S
N190 C187 1.384 . S
N191 C183 1.427 . S
N191 C189 1.384 . S
H192 C198 0.930 . S
H193 C202 0.930 . S
H194 C207 0.929 . S
H195 C205 0.929 . S
H196 C200 0.929 . S
H197 C206 0.929 . S
C198 H192 0.930 . S
C198 C199 1.367 . S
C198 C206 1.378 . S
C199 C198 1.367 . S
C199 C207 1.433 . S
C200 H196 0.929 . S
C200 C202 1.378 . S
C200 C204 1.350 . S
C201 C204 1.463 . S
C201 C206 1.350 . S
C201 N209 1.427 . S
C202 H193 0.930 . S
C202 C200 1.378 . S
C202 C203 1.367 . S
C203 C202 1.367 . S
C203 C205 1.433 . S
C204 C200 1.350 . S
C204 C201 1.463 . S
C204 N208 1.427 . S
C205 H195 0.929 . S
C205 C203 1.433 . S
C205 N208 1.384 . S
C206 H197 0.929 . S
C206 C198 1.378 . S
C206 C201 1.350 . S
C207 H194 0.929 . S
C207 C199 1.433 . S
C207 N209 1.384 . S
N208 C204 1.427 . S
N208 C205 1.384 . S
N209 C201 1.427 . S
N209 C207 1.384 . S
H210 C216 0.930 . S
H211 C220 0.930 . S
H212 C225 0.929 . S
H213 C223 0.929 . S
H214 C218 0.929 . S
H215 C224 0.929 . S
C216 H210 0.930 . S
C216 C217 1.367 . S
C216 C224 1.378 . S
C217 C216 1.367 . S
C217 C225 1.433 . S
C218 H214 0.929 . S
C218 C220 1.378 . S
C218 C222 1.350 . S
C219 C222 1.463 . S
C219 C224 1.350 . S
C219 N227 1.427 . S
C220 H211 0.930 . S
C220 C218 1.378 . S
C220 C221 1.367 . S
C221 C220 1.367 . S
C221 C223 1.433 . S
C222 C218 1.350 . S
C222 C219 1.463 . S
C222 N226 1.427 . S
C223 H213 0.929 . S
C223 C221 1.433 . S
C223 N226 1.384 . S
C224 H215 0.929 . S
C224 C216 1.378 . S
C224 C219 1.350 . S
C225 H212 0.929 . S
C225 C217 1.433 . S
C225 N227 1.384 . S
N226 C222 1.427 . S
N226 C223 1.384 . S
N227 C219 1.427 . S
N227 C225 1.384 . S
H228 C234 0.930 . S
H229 C238 0.930 . S
H230 C243 0.929 . S
H231 C241 0.929 . S
H232 C236 0.929 . S
H233 C242 0.929 . S
C234 H228 0.930 . S
C234 C235 1.367 . S
C234 C242 1.378 . S
C235 C234 1.367 . S
C235 C243 1.433 . S
C236 H232 0.929 . S
C236 C238 1.378 . S
C236 C240 1.350 . S
C237 C240 1.463 . S
C237 C242 1.350 . S
C237 N245 1.427 . S
C238 H229 0.930 . S
C238 C236 1.378 . S
C238 C239 1.367 . S
C239 C238 1.367 . S
C239 C241 1.433 . S
C240 C236 1.350 . S
C240 C237 1.463 . S
C240 N244 1.427 . S
C241 H231 0.929 . S
C241 C239 1.433 . S
C241 N244 1.384 . S
C242 H233 0.929 . S
C242 C234 1.378 . S
C242 C237 1.350 . S
C243 H230 0.929 . S
C243 C235 1.433 . S
C243 N245 1.384 . S
N244 C240 1.427 . S
N244 C241 1.384 . S
N245 C237 1.427 . S
N245 C243 1.384 . S
H246 C252 0.930 . S
H247 C256 0.930 . S
H248 C261 0.929 . S
H249 C259 0.929 . S
H250 C254 0.929 . S
H251 C260 0.929 . S
C252 H246 0.930 . S
C252 C253 1.367 . S
C252 C260 1.378 . S
C253 C252 1.367 . S
C253 C261 1.433 . S
C254 H250 0.929 . S
C254 C256 1.378 . S
C254 C258 1.350 . S
C255 C258 1.463 . S
C255 C260 1.350 . S
C255 N263 1.427 . S
C256 H247 0.930 . S
C256 C254 1.378 . S
C256 C257 1.367 . S
C257 C256 1.367 . S
C257 C259 1.433 . S
C258 C254 1.350 . S
C258 C255 1.463 . S
C258 N262 1.427 . S
C259 H249 0.929 . S
C259 C257 1.433 . S
C259 N262 1.384 . S
C260 H251 0.929 . S
C260 C252 1.378 . S
C260 C255 1.350 . S
C261 H248 0.929 . S
C261 C253 1.433 . S
C261 N263 1.384 . S
N262 C258 1.427 . S
N262 C259 1.384 . S
N263 C255 1.427 . S
N263 C261 1.384 . S
H264 C270 0.930 . S
H265 C274 0.930 . S
H266 C279 0.929 . S
H267 C277 0.929 . S
H268 C272 0.929 . S
H269 C278 0.929 . S
C270 H264 0.930 . S
C270 C271 1.367 . S
C270 C278 1.378 . S
C271 C270 1.367 . S
C271 C279 1.433 . S
C272 H268 0.929 . S
C272 C274 1.378 . S
C272 C276 1.350 . S
C273 C276 1.463 . S
C273 C278 1.350 . S
C273 N281 1.427 . S
C274 H265 0.930 . S
C274 C272 1.378 . S
C274 C275 1.367 . S
C275 C274 1.367 . S
C275 C277 1.433 . S
C276 C272 1.350 . S
C276 C273 1.463 . S
C276 N280 1.427 . S
C277 H267 0.929 . S
C277 C275 1.433 . S
C277 N280 1.384 . S
C278 H269 0.929 . S
C278 C270 1.378 . S
C278 C273 1.350 . S
C279 H266 0.929 . S
C279 C271 1.433 . S
C279 N281 1.384 . S
N280 C276 1.427 . S
N280 C277 1.384 . S
N281 C273 1.427 . S
N281 C279 1.384 . S
H282 C288 0.930 . S
H283 C292 0.930 . S
H284 C297 0.929 . S
H285 C295 0.929 . S
H286 C290 0.929 . S
H287 C296 0.929 . S
C288 H282 0.930 . S
C288 C289 1.367 . S
C288 C296 1.378 . S
C289 C288 1.367 . S
C289 C297 1.433 . S
C290 H286 0.929 . S
C290 C292 1.378 . S
C290 C294 1.350 . S
C291 C294 1.463 . S
C291 C296 1.350 . S
C291 N299 1.427 . S
C292 H283 0.930 . S
C292 C290 1.378 . S
C292 C293 1.367 . S
C293 C292 1.367 . S
C293 C295 1.433 . S
C294 C290 1.350 . S
C294 C291 1.463 . S
C294 N298 1.427 . S
C295 H285 0.929 . S
C295 C293 1.433 . S
C295 N298 1.384 . S
C296 H287 0.929 . S
C296 C288 1.378 . S
C296 C291 1.350 . S
C297 H284 0.929 . S
C297 C289 1.433 . S
C297 N299 1.384 . S
N298 C294 1.427 . S
N298 C295 1.384 . S
N299 C291 1.427 . S
N299 C297 1.384 . S
H300 C306 0.930 . S
H301 C310 0.930 . S
H302 C315 0.929 . S
H303 C313 0.929 . S
H304 C308 0.929 . S
H305 C314 0.929 . S
C306 H300 0.930 . S
C306 C307 1.367 . S
C306 C314 1.378 . S
C307 C306 1.367 . S
C307 C315 1.433 . S
C308 H304 0.929 . S
C308 C310 1.378 . S
C308 C312 1.350 . S
C309 C312 1.463 . S
C309 C314 1.350 . S
C309 N317 1.427 . S
C310 H301 0.930 . S
C310 C308 1.378 . S
C310 C311 1.367 . S
C311 C310 1.367 . S
C311 C313 1.433 . S
C312 C308 1.350 . S
C312 C309 1.463 . S
C312 N316 1.427 . S
C313 H303 0.929 . S
C313 C311 1.433 . S
C313 N316 1.384 . S
C314 H305 0.929 . S
C314 C306 1.378 . S
C314 C309 1.350 . S
C315 H302 0.929 . S
C315 C307 1.433 . S
C315 N317 1.384 . S
N316 C312 1.427 . S
N316 C313 1.384 . S
N317 C309 1.427 . S
N317 C315 1.384 . S
H318 C324 0.930 . S
H319 C328 0.930 . S
H320 C333 0.929 . S
H321 C331 0.929 . S
H322 C326 0.929 . S
H323 C332 0.929 . S
C324 H318 0.930 . S
C324 C325 1.367 . S
C324 C332 1.378 . S
C325 C324 1.367 . S
C325 C333 1.433 . S
C326 H322 0.929 . S
C326 C328 1.378 . S
C326 C330 1.350 . S
C327 C330 1.463 . S
C327 C332 1.350 . S
C327 N335 1.427 . S
C328 H319 0.930 . S
C328 C326 1.378 . S
C328 C329 1.367 . S
C329 C328 1.367 . S
C329 C331 1.433 . S
C330 C326 1.350 . S
C330 C327 1.463 . S
C330 N334 1.427 . S
C331 H321 0.929 . S
C331 C329 1.433 . S
C331 N334 1.384 . S
C332 H323 0.929 . S
C332 C324 1.378 . S
C332 C327 1.350 . S
C333 H320 0.929 . S
C333 C325 1.433 . S
C333 N335 1.384 . S
N334 C330 1.427 . S
N334 C331 1.384 . S
N335 C327 1.427 . S
N335 C333 1.384 . S
H336 C342 0.930 . S
H337 C346 0.930 . S
H338 C351 0.929 . S
H339 C349 0.929 . S
H340 C344 0.929 . S
H341 C350 0.929 . S
C342 H336 0.930 . S
C342 C343 1.367 . S
C342 C350 1.378 . S
C343 C342 1.367 . S
C343 C351 1.433 . S
C344 H340 0.929 . S
C344 C346 1.378 . S
C344 C348 1.350 . S
C345 C348 1.463 . S
C345 C350 1.350 . S
C345 N353 1.427 . S
C346 H337 0.930 . S
C346 C344 1.378 . S
C346 C347 1.367 . S
C347 C346 1.367 . S
C347 C349 1.433 . S
C348 C344 1.350 . S
C348 C345 1.463 . S
C348 N352 1.427 . S
C349 H339 0.929 . S
C349 C347 1.433 . S
C349 N352 1.384 . S
C350 H341 0.929 . S
C350 C342 1.378 . S
C350 C345 1.350 . S
C351 H338 0.929 . S
C351 C343 1.433 . S
C351 N353 1.384 . S
N352 C348 1.427 . S
N352 C349 1.384 . S
N353 C345 1.427 . S
N353 C351 1.384 . S
H354 C360 0.930 . S
H355 C364 0.930 . S
H356 C369 0.929 . S
H357 C367 0.929 . S
H358 C362 0.929 . S
H359 C368 0.929 . S
C360 H354 0.930 . S
C360 C361 1.367 . S
C360 C368 1.378 . S
C361 C360 1.367 . S
C361 C369 1.433 . S
C362 H358 0.929 . S
C362 C364 1.378 . S
C362 C366 1.350 . S
C363 C366 1.463 . S
C363 C368 1.350 . S
C363 N371 1.427 . S
C364 H355 0.930 . S
C364 C362 1.378 . S
C364 C365 1.367 . S
C365 C364 1.367 . S
C365 C367 1.433 . S
C366 C362 1.350 . S
C366 C363 1.463 . S
C366 N370 1.427 . S
C367 H357 0.929 . S
C367 C365 1.433 . S
C367 N370 1.384 . S
C368 H359 0.929 . S
C368 C360 1.378 . S
C368 C363 1.350 . S
C369 H356 0.929 . S
C369 C361 1.433 . S
C369 N371 1.384 . S
N370 C366 1.427 . S
N370 C367 1.384 . S
N371 C363 1.427 . S
N371 C369 1.384 . S
H372 C378 0.930 . S
H373 C382 0.930 . S
H374 C387 0.929 . S
H375 C385 0.929 . S
H376 C380 0.929 . S
H377 C386 0.929 . S
C378 H372 0.930 . S
C378 C379 1.367 . S
C378 C386 1.378 . S
C379 C378 1.367 . S
C379 C387 1.433 . S
C380 H376 0.929 . S
C380 C382 1.378 . S
C380 C384 1.350 . S
C381 C384 1.463 . S
C381 C386 1.350 . S
C381 N389 1.427 . S
C382 H373 0.930 . S
C382 C380 1.378 . S
C382 C383 1.367 . S
C383 C382 1.367 . S
C383 C385 1.433 . S
C384 C380 1.350 . S
C384 C381 1.463 . S
C384 N388 1.427 . S
C385 H375 0.929 . S
C385 C383 1.433 . S
C385 N388 1.384 . S
C386 H377 0.929 . S
C386 C378 1.378 . S
C386 C381 1.350 . S
C387 H374 0.929 . S
C387 C379 1.433 . S
C387 N389 1.384 . S
N388 C384 1.427 . S
N388 C385 1.384 . S
N389 C381 1.427 . S
N389 C387 1.384 . S
H390 C396 0.930 . S
H391 C400 0.930 . S
H392 C405 0.929 . S
H393 C403 0.929 . S
H394 C398 0.929 . S
H395 C404 0.929 . S
C396 H390 0.930 . S
C396 C397 1.367 . S
C396 C404 1.378 . S
C397 C396 1.367 . S
C397 C405 1.433 . S
C398 H394 0.929 . S
C398 C400 1.378 . S
C398 C402 1.350 . S
C399 C402 1.463 1_554 S
C399 C404 1.350 . S
C399 N407 1.427 . S
C400 H391 0.930 . S
C400 C398 1.378 . S
C400 C401 1.367 . S
C401 C400 1.367 . S
C401 C403 1.433 . S
C402 C398 1.350 . S
C402 C399 1.463 1_556 S
C402 N406 1.427 . S
C403 H393 0.929 . S
C403 C401 1.433 . S
C403 N406 1.384 . S
C404 H395 0.929 . S
C404 C396 1.378 . S
C404 C399 1.350 . S
C405 H392 0.929 . S
C405 C397 1.433 . S
C405 N407 1.384 . S
N406 C402 1.427 . S
N406 C403 1.384 . S
N407 C399 1.427 . S
N407 C405 1.384 . S
H408 C414 0.930 1_565 S
H409 C418 0.930 . S
H410 C423 0.929 . S
H411 C421 0.929 1_565 S
H412 C416 0.929 . S
H413 C422 0.929 1_565 S
C414 H408 0.930 1_545 S
C414 C415 1.367 . S
C414 C422 1.378 . S
C415 C414 1.367 . S
C415 C423 1.433 . S
C416 H412 0.929 . S
C416 C418 1.378 . S
C416 C420 1.350 . S
C417 C420 1.463 . S
C417 C422 1.350 . S
C417 N425 1.427 . S
C418 H409 0.930 . S
C418 C416 1.378 . S
C418 C419 1.367 . S
C419 C418 1.367 . S
C419 C421 1.433 . S
C420 C416 1.350 . S
C420 C417 1.463 . S
C420 N424 1.427 . S
C421 H411 0.929 1_545 S
C421 C419 1.433 . S
C421 N424 1.384 . S
C422 H413 0.929 1_545 S
C422 C414 1.378 . S
C422 C417 1.350 . S
C423 H410 0.929 . S
C423 C415 1.433 . S
C423 N425 1.384 . S
N424 C420 1.427 . S
N424 C421 1.384 . S
N425 C417 1.427 . S
N425 C423 1.384 . S
H426 C432 0.930 . S
H427 C436 0.930 . S
H428 C441 0.929 . S
H429 C439 0.929 . S
H430 C434 0.929 . S
H431 C440 0.929 . S
C432 H426 0.930 . S
C432 C433 1.367 . S
C432 C440 1.378 . S
C433 C432 1.367 . S
C433 C441 1.433 . S
C434 H430 0.929 . S
C434 C436 1.378 . S
C434 C438 1.350 . S
C435 C438 1.463 . S
C435 C440 1.350 . S
C435 N443 1.427 . S
C436 H427 0.930 . S
C436 C434 1.378 . S
C436 C437 1.367 . S
C437 C436 1.367 . S
C437 C439 1.433 . S
C438 C434 1.350 . S
C438 C435 1.463 . S
C438 N442 1.427 . S
C439 H429 0.929 . S
C439 C437 1.433 . S
C439 N442 1.384 . S
C440 H431 0.929 . S
C440 C432 1.378 . S
C440 C435 1.350 . S
C441 H428 0.929 . S
C441 C433 1.433 . S
C441 N443 1.384 . S
N442 C438 1.427 . S
N442 C439 1.384 . S
N443 C435 1.427 . S
N443 C441 1.384 . S
H444 C450 0.930 . S
H445 C454 0.930 . S
H446 C459 0.929 . S
H447 C457 0.929 . S
H448 C452 0.929 . S
H449 C458 0.929 . S
C450 H444 0.930 . S
C450 C451 1.367 . S
C450 C458 1.378 . S
C451 C450 1.367 . S
C451 C459 1.433 . S
C452 H448 0.929 . S
C452 C454 1.378 . S
C452 C456 1.350 . S
C453 C456 1.463 . S
C453 C458 1.350 . S
C453 N461 1.427 . S
C454 H445 0.930 . S
C454 C452 1.378 . S
C454 C455 1.367 . S
C455 C454 1.367 . S
C455 C457 1.433 . S
C456 C452 1.350 . S
C456 C453 1.463 . S
C456 N460 1.427 . S
C457 H447 0.929 . S
C457 C455 1.433 . S
C457 N460 1.384 . S
C458 H449 0.929 . S
C458 C450 1.378 . S
C458 C453 1.350 . S
C459 H446 0.929 . S
C459 C451 1.433 . S
C459 N461 1.384 . S
N460 C456 1.427 . S
N460 C457 1.384 . S
N461 C453 1.427 . S
N461 C459 1.384 . S
H462 C468 0.930 . S
H463 C472 0.930 . S
H464 C477 0.929 . S
H465 C475 0.929 . S
H466 C470 0.929 . S
H467 C476 0.929 . S
C468 H462 0.930 . S
C468 C469 1.367 . S
C468 C476 1.378 . S
C469 C468 1.367 . S
C469 C477 1.433 . S
C470 H466 0.929 . S
C470 C472 1.378 . S
C470 C474 1.353 . S
C471 C474 1.454 1_556 S
C471 C476 1.350 . S
C471 N479 1.427 . S
C472 H463 0.930 . S
C472 C470 1.378 . S
C472 C473 1.367 . S
C473 C472 1.367 . S
C473 C475 1.433 . S
C474 C470 1.353 . S
C474 C471 1.454 1_554 S
C474 N478 1.433 . S
C475 H465 0.929 . S
C475 C473 1.433 . S
C475 N478 1.384 . S
C476 H467 0.929 . S
C476 C468 1.378 . S
C476 C471 1.350 . S
C477 H464 0.929 . S
C477 C469 1.433 . S
C477 N479 1.384 . S
N478 C474 1.433 . S
N478 C475 1.384 . S
N479 C471 1.427 . S
N479 C477 1.384 . S
H480 C486 0.930 . S
H481 C490 0.930 . S
H482 C495 0.929 . S
H483 C493 0.929 . S
H484 C488 0.929 . S
H485 C494 0.929 . S
C486 H480 0.930 . S
C486 C487 1.367 . S
C486 C494 1.378 . S
C487 C486 1.367 . S
C487 C495 1.433 . S
C488 H484 0.929 . S
C488 C490 1.378 . S
C488 C492 1.350 . S
C489 C492 1.463 . S
C489 C494 1.350 . S
C489 N497 1.427 . S
C490 H481 0.930 . S
C490 C488 1.378 . S
C490 C491 1.367 . S
C491 C490 1.367 . S
C491 C493 1.433 . S
C492 C488 1.350 . S
C492 C489 1.463 . S
C492 N496 1.427 . S
C493 H483 0.929 . S
C493 C491 1.433 . S
C493 N496 1.384 . S
C494 H485 0.929 . S
C494 C486 1.378 . S
C494 C489 1.350 . S
C495 H482 0.929 . S
C495 C487 1.433 . S
C495 N497 1.384 . S
N496 C492 1.427 . S
N496 C493 1.384 . S
N497 C489 1.427 . S
N497 C495 1.384 . S
C181 C2 1.493 . S
C185 C166 1.525 . S
C199 C22 1.504 . S
C203 C128 1.516 . S
C217 C44 1.511 . S
C221 C147 1.541 . S
C235 C4 1.416 . S
C239 C161 1.515 . S
C257 C123 1.521 . S
C253 C24 1.432 . S
C275 C142 1.493 . S
C271 C42 1.396 . S
C289 C32 1.490 . S
C293 C90 1.424 . S
C307 C49 1.150 . S
C311 C104 1.165 . S
C325 C9 1.136 . S
C329 C66 1.164 . S
C347 C85 1.174 . S
C343 C29 1.141 . S
C365 C109 1.372 . S
C361 C52 1.364 . S
C379 C12 1.377 . S
C383 C71 1.368 . S
C401 C100 1.539 . S
C397 C18 1.557 . S
C415 C38 1.516 . S
C419 C62 1.509 . S
C433 C58 1.503 . S
C437 C81 1.535 . S
C455 C138 1.541 . S
C451 C39 1.539 . S
C473 C157 1.556 . S
C469 C59 1.558 . S
C487 C19 1.555 . S
C491 C119 1.571 . S
