# Generated by pormake.
# Topology rtl, (3,6)-cn, num edge types: 1
# Building blocks:
#     Node 0, Type 0, BuildingBlock: KAKCAD_clean_linker_0, # of connection points: 3
#     Node 1, Type 0, BuildingBlock: KAKCAD_clean_linker_0, # of connection points: 3
#     Node 2, Type 0, BuildingBlock: KAKCAD_clean_linker_0, # of connection points: 3
#     Node 3, Type 0, BuildingBlock: KAKCAD_clean_linker_0, # of connection points: 3
#     Node 4, Type 1, BuildingBlock: LEVNOQ01_clean_sbu_1, # of connection points: 6
#     Node 5, Type 1, BuildingBlock: LEVNOQ01_clean_sbu_1, # of connection points: 6
#     Edge 6, Type (0, 1), BuildingBlock: OJICUG_clean_linker_0, # of connection points: 2
#     Edge 7, Type (0, 1), BuildingBlock: OJICUG_clean_linker_0, # of connection points: 2
#     Edge 8, Type (0, 1), BuildingBlock: OJICUG_clean_linker_0, # of connection points: 2
#     Edge 9, Type (0, 1), BuildingBlock: OJICUG_clean_linker_0, # of connection points: 2
#     Edge 10, Type (0, 1), BuildingBlock: OJICUG_clean_linker_0, # of connection points: 2
#     Edge 11, Type (0, 1), BuildingBlock: OJICUG_clean_linker_0, # of connection points: 2
#     Edge 12, Type (0, 1), BuildingBlock: OJICUG_clean_linker_0, # of connection points: 2
#     Edge 13, Type (0, 1), BuildingBlock: OJICUG_clean_linker_0, # of connection points: 2
#     Edge 14, Type (0, 1), BuildingBlock: OJICUG_clean_linker_0, # of connection points: 2
#     Edge 15, Type (0, 1), BuildingBlock: OJICUG_clean_linker_0, # of connection points: 2
#     Edge 16, Type (0, 1), BuildingBlock: OJICUG_clean_linker_0, # of connection points: 2
#     Edge 17, Type (0, 1), BuildingBlock: OJICUG_clean_linker_0, # of connection points: 2
# Relax obj value: 0.026
# Max RMSD: 0.060
# Mean RMSD: 0.045
data_MOF--net-rtl--node1-LEVNOQ01_clean_sbu_1--node2-KAKCAD_clean_linker_0--edge1-OJICUG_clean_linker_0
_symmetry_space_group_name_H-M    P1
_symmetry_Int_Tables_number       1
_symmetry_cell_setting            triclinic
loop_
_symmetry_equiv_pos_as_xyz
'x, y, z'
_cell_length_a     29.975777
_cell_length_b     33.225825
_cell_length_c     23.10064
_cell_angle_alpha  90.091575
_cell_angle_beta   98.89016
_cell_angle_gamma 89.768951
loop_
_atom_site_label
_atom_site_type_symbol
_atom_site_fract_x
_atom_site_fract_y
_atom_site_fract_z
_atom_type_partial_charge
C0 C 0.1711 0.90343 0.88532 0.0
C1 C 0.15851 0.94418 0.8783 0.0
C2 C 0.19396 0.88926 0.93898 0.0
C3 C 0.20523 0.91556 0.98689 0.0
C4 C 0.1925 0.95623 0.97976 0.0
C5 C 0.16916 0.97021 0.92657 0.0
C6 C 0.23039 0.90104 0.04402 0.0
C7 C 0.26363 0.87092 0.04577 0.0
C8 C 0.28765 0.85781 0.09937 0.0
C9 C 0.2794 0.8755 0.15173 0.0
C10 C 0.24497 0.90446 0.15164 0.0
C11 C 0.22075 0.91695 0.09734 0.0
C12 C 0.23112 0.91853 0.20785 0.0
C13 C 0.23363 0.89226 0.25601 0.0
C14 C 0.21167 0.95687 0.21247 0.0
C15 C 0.19157 0.96707 0.26137 0.0
C16 C 0.19117 0.93944 0.30734 0.0
C17 C 0.31807 0.8227 0.10106 0.0
C18 C 0.29983 0.78474 0.08529 0.0
C19 C 0.36479 0.82656 0.11874 0.0
C20 C 0.39312 0.79292 0.11864 0.0
C21 C 0.37483 0.7549 0.10241 0.0
C22 C 0.3279 0.75108 0.08644 0.0
C23 C 0.21458 0.90284 0.30532 0.0
H24 H 0.16382 0.88246 0.84921 0.0
H25 H 0.20246 0.85759 0.94288 0.0
H26 H 0.20095 0.9776 0.01515 0.0
H27 H 0.15923 0.00159 0.92364 0.0
H28 H 0.27119 0.85756 0.00556 0.0
H29 H 0.19286 0.93784 0.09648 0.0
H30 H 0.29875 0.86528 0.19259 0.0
H31 H 0.24792 0.86238 0.25473 0.0
H32 H 0.21029 0.97854 0.17729 0.0
H33 H 0.17398 0.9956 0.26131 0.0
H34 H 0.26378 0.78121 0.07189 0.0
H35 H 0.37936 0.85567 0.13128 0.0
H36 H 0.21604 0.88121 0.34059 0.0
H37 H 0.31305 0.72225 0.07276 0.0
H38 H 0.42926 0.79659 0.13067 0.0
C39 C 0.68647 0.61271 0.8112 0.0
C40 C 0.67834 0.57109 0.80871 0.0
C41 C 0.70433 0.63196 0.76623 0.0
C42 C 0.7148 0.60993 0.71801 0.0
C43 C 0.7097 0.56783 0.71783 0.0
C44 C 0.69139 0.54866 0.76252 0.0
C45 C 0.72718 0.63107 0.66599 0.0
C46 C 0.75457 0.6655 0.67252 0.0
C47 C 0.76316 0.68716 0.62331 0.0
C48 C 0.74522 0.67342 0.56687 0.0
C49 C 0.71835 0.63868 0.55927 0.0
C50 C 0.70911 0.61813 0.60923 0.0
C51 C 0.69956 0.62368 0.49957 0.0
C52 C 0.68347 0.65037 0.4537 0.0
C53 C 0.69667 0.5821 0.48847 0.0
C54 C 0.6772 0.56753 0.43375 0.0
C55 C 0.66064 0.59405 0.3879 0.0
C56 C 0.7904 0.72451 0.63066 0.0
C57 C 0.77532 0.75917 0.59872 0.0
C58 C 0.83194 0.72558 0.66839 0.0
C59 C 0.8589 0.76007 0.67181 0.0
C60 C 0.84451 0.79427 0.63814 0.0
C61 C 0.80197 0.79369 0.60257 0.0
C62 C 0.6643 0.63573 0.3985 0.0
H63 H 0.67615 0.63087 0.84585 0.0
H64 H 0.70735 0.66443 0.76766 0.0
H65 H 0.71844 0.5498 0.68209 0.0
H66 H 0.68579 0.51647 0.75981 0.0
H67 H 0.76858 0.67597 0.71597 0.0
H68 H 0.6864 0.59266 0.60392 0.0
H69 H 0.75303 0.68943 0.52887 0.0
H70 H 0.68477 0.6826 0.46072 0.0
H71 H 0.70933 0.56057 0.52226 0.0
H72 H 0.6743 0.53526 0.42802 0.0
H73 H 0.74316 0.75933 0.5699 0.0
H74 H 0.84437 0.69925 0.69352 0.0
H75 H 0.65231 0.65711 0.36422 0.0
H76 H 0.7902 0.81924 0.57527 0.0
H77 H 0.89156 0.75962 0.69947 0.0
C78 C 0.77929 0.11766 0.19913 0.0
C79 C 0.82551 0.10843 0.21293 0.0
C80 C 0.76145 0.13225 0.14352 0.0
C81 C 0.78937 0.13704 0.10047 0.0
C82 C 0.83567 0.12839 0.1146 0.0
C83 C 0.85363 0.11453 0.17044 0.0
C84 C 0.77032 0.15018 0.04044 0.0
C85 C 0.74399 0.18522 0.03159 0.0
C86 C 0.72716 0.19854 0.97463 0.0
C87 C 0.73669 0.17613 0.92636 0.0
C88 C 0.76273 0.14061 0.93434 0.0
C89 C 0.77913 0.12786 0.99181 0.0
C90 C 0.77469 0.11808 0.88287 0.0
C91 C 0.74474 0.11653 0.82949 0.0
C92 C 0.81737 0.09968 0.88578 0.0
C93 C 0.83037 0.0817 0.83633 0.0
C94 C 0.80141 0.08226 0.78245 0.0
C95 C 0.69943 0.23579 0.96593 0.0
C96 C 0.65862 0.23633 0.92668 0.0
C97 C 0.7123 0.27032 0.99941 0.0
C98 C 0.68371 0.30378 0.99647 0.0
C99 C 0.64147 0.30337 0.96019 0.0
C100 C 0.62983 0.26976 0.92401 0.0
C101 C 0.75818 0.09922 0.77964 0.0
H102 H 0.75694 0.11315 0.23117 0.0
H103 H 0.72562 0.13867 0.13358 0.0
H104 H 0.85792 0.13214 0.08225 0.0
H105 H 0.88927 0.10721 0.17974 0.0
H106 H 0.73679 0.20223 0.06918 0.0
H107 H 0.79847 0.10023 0.99911 0.0
H108 H 0.72498 0.18728 0.88259 0.0
H109 H 0.71121 0.12947 0.82576 0.0
H110 H 0.84183 0.10077 0.92546 0.0
H111 H 0.86426 0.06956 0.83944 0.0
H112 H 0.64786 0.21014 0.90028 0.0
H113 H 0.74391 0.27099 0.02933 0.0
H114 H 0.73527 0.10003 0.7385 0.0
H115 H 0.59757 0.26861 0.89551 0.0
H116 H 0.69352 0.32892 0.0255 0.0
C117 C 0.25464 0.44175 0.29906 0.0
C118 C 0.29768 0.45889 0.30256 0.0
C119 C 0.24155 0.42318 0.34805 0.0
C120 C 0.27164 0.42062 0.4012 0.0
C121 C 0.31365 0.44003 0.40536 0.0
C122 C 0.32636 0.45916 0.35673 0.0
C123 C 0.26099 0.39516 0.45037 0.0
C124 C 0.23772 0.35862 0.43861 0.0
C125 C 0.22948 0.33319 0.48427 0.0
C126 C 0.24518 0.34448 0.54254 0.0
C127 C 0.26918 0.38039 0.55522 0.0
C128 C 0.27644 0.40577 0.50902 0.0
C129 C 0.28784 0.39093 0.61662 0.0
C130 C 0.26086 0.3889 0.66119 0.0
C131 C 0.33302 0.40312 0.63095 0.0
C132 C 0.35074 0.41359 0.68848 0.0
C133 C 0.32354 0.41252 0.73284 0.0
C134 C 0.20433 0.29491 0.47124 0.0
C135 C 0.16581 0.29348 0.42797 0.0
C136 C 0.21742 0.25997 0.50378 0.0
C137 C 0.19101 0.22528 0.49601 0.0
C138 C 0.15091 0.22462 0.45533 0.0
C139 C 0.13945 0.2587 0.42003 0.0
C140 C 0.27845 0.39991 0.71869 0.0
H141 H 0.23186 0.44126 0.2578 0.0
H142 H 0.20844 0.40957 0.34359 0.0
H143 H 0.33804 0.4384 0.44508 0.0
H144 H 0.36008 0.47152 0.36048 0.0
H145 H 0.22731 0.34912 0.3937 0.0
H146 H 0.29399 0.43398 0.51904 0.0
H147 H 0.23908 0.32515 0.57822 0.0
H148 H 0.22589 0.37968 0.65128 0.0
H149 H 0.35469 0.40456 0.59758 0.0
H150 H 0.38542 0.4237 0.6979 0.0
H151 H 0.15476 0.31985 0.40208 0.0
H152 H 0.24746 0.25976 0.53654 0.0
H153 H 0.25675 0.39882 0.75204 0.0
H154 H 0.10902 0.25909 0.38793 0.0
H155 H 0.2007 0.19983 0.52448 0.0
O156 O 0.93588 0.09336 0.61311 0.0
Mg157 Mg 0.00341 0.08146 0.60838 0.0
O158 O 0.93022 0.02922 0.59152 0.0
Mg159 Mg -0.01099 0.01182 0.53792 0.0
O160 O 0.02224 0.07579 0.52756 0.0
O161 O 0.03289 0.13119 0.58452 0.0
O162 O 0.04652 0.99106 0.48447 0.0
O163 O 0.94028 0.03316 0.45332 0.0
Mg164 Mg 0.95576 0.9469 0.45794 0.0
O165 O 0.95724 0.94752 0.54695 0.0
O166 O 0.01792 0.94016 0.42963 0.0
O167 O 0.90556 0.98133 0.4075 0.0
O168 O 0.93375 0.89529 0.48771 0.0
C169 C 0.05385 0.01295 0.67021 0.0
C170 C 0.91374 0.06116 0.6106 0.0
C171 C 0.03692 0.11253 0.53661 0.0
C172 C 0.05053 0.96331 0.44723 0.0
C173 C 0.91083 0.0189 0.41272 0.0
C174 C 0.94041 0.91141 0.53914 0.0
O175 O 0.04428 0.04977 0.67579 0.0
O176 O 0.03779 0.99365 0.62381 0.0
O177 O 0.55414 0.47903 0.19811 0.0
Mg178 Mg 0.50853 0.44031 0.14632 0.0
O179 O 0.53792 0.53243 0.14082 0.0
Mg180 Mg 0.49014 0.51067 0.05608 0.0
O181 O 0.5172 0.4451 0.06119 0.0
O182 O 0.5325 0.38895 0.11387 0.0
O183 O 0.4428 0.48226 0.97258 0.0
O184 O 0.54974 0.52292 1.00455 0.0
Mg185 Mg 0.45519 0.55555 0.9712 0.0
O186 O 0.46527 0.57938 0.05413 0.0
O187 O 0.39241 0.52875 0.9451 0.0
O188 O 0.50727 0.54042 0.92261 0.0
O189 O 0.45004 0.6158 0.97117 0.0
C190 C 0.41597 0.47208 0.13952 0.0
C191 C 0.55898 0.51605 0.1873 0.0
C192 C 0.53213 0.4083 0.06542 0.0
C193 C 0.40509 0.49271 0.94257 0.0
C194 C 0.54547 0.53065 0.9501 0.0
C195 C 0.45576 0.61367 0.02751 0.0
O196 O 0.44028 0.44176 0.15577 0.0
O197 O 0.42992 0.49987 0.10874 0.0
C198 C 0.13271 0.15141 0.46845 0.0
C199 C 0.11803 0.19138 0.45708 0.0
H200 H 0.11693 0.09354 0.50127 0.0
C201 C 0.07236 0.20081 0.45784 0.0
H202 H 0.16753 0.14305 0.46733 0.0
C203 C 0.04362 0.17247 0.47666 0.0
C204 C 0.05978 0.1341 0.49442 0.0
H205 H 0.05981 0.23122 0.44982 0.0
H206 H 0.00998 0.18182 0.48283 0.0
C207 C 0.10366 0.12288 0.48699 0.0
C208 C 0.39563 0.68222 0.1193 0.0
C209 C 0.40427 0.71989 0.09573 0.0
H210 H 0.40703 0.61842 0.1175 0.0
C211 C 0.43666 0.72266 0.05813 0.0
H212 H 0.37079 0.67945 0.14849 0.0
C213 C 0.45672 0.68787 0.0398 0.0
C214 C 0.44549 0.64989 0.05981 0.0
H215 H 0.44368 0.75129 0.03911 0.0
H216 H 0.47885 0.69042 0.00707 0.0
C217 C 0.41657 0.64743 0.10197 0.0
C218 C 0.91955 0.81978 0.62113 0.0
C219 C 0.8758 0.82812 0.63277 0.0
H220 H 0.97555 0.84121 0.5828 0.0
C221 C 0.85988 0.8681 0.6281 0.0
H222 H 0.93272 0.78932 0.62396 0.0
C223 C 0.88496 0.89803 0.60536 0.0
C224 C 0.92598 0.88817 0.58673 0.0
H225 H 0.82647 0.87545 0.63743 0.0
H226 H 0.86995 0.92752 0.59624 0.0
C227 C 0.94426 0.84953 0.59783 0.0
C228 C 0.61963 0.37522 0.97742 0.0
C229 C 0.6073 0.33457 0.96819 0.0
H230 H 0.60352 0.43193 0.01417 0.0
C231 C 0.56418 0.3224 0.97772 0.0
H232 H 0.65247 0.38553 0.96985 0.0
C233 C 0.53651 0.34883 1.00301 0.0
C234 C 0.55106 0.38801 0.01826 0.0
H235 H 0.55368 0.29134 0.97149 0.0
H236 H 0.5056 0.33746 0.01575 0.0
C237 C 0.59146 0.40191 1.00207 0.0
C238 C 0.15316 0.98424 0.37456 0.0
C239 C 0.16096 0.94576 0.35213 0.0
H240 H 0.11224 0.02019 0.42383 0.0
C241 C 0.13579 0.91311 0.36808 0.0
H242 H 0.17223 0.00998 0.36359 0.0
C243 C 0.10214 0.91893 0.40242 0.0
C244 C 0.09238 0.95755 0.42183 0.0
H245 H 0.13999 0.88317 0.35112 0.0
H246 H 0.08218 0.89323 0.41153 0.0
C247 C 0.1192 0.99007 0.40949 0.0
C248 C 0.65719 0.56156 0.90909 0.0
C249 C 0.65004 0.55274 0.84877 0.0
H250 H 0.62969 0.56014 0.98963 0.0
C251 C 0.61158 0.53081 0.82498 0.0
H252 H 0.68668 0.57832 0.92848 0.0
C253 C 0.579 0.52101 0.85954 0.0
C254 C 0.58459 0.53225 0.91877 0.0
H255 H 0.60494 0.52389 0.77861 0.0
H256 H 0.5482 0.5065 0.83914 0.0
C257 C 0.62483 0.55096 0.94408 0.0
C258 C 0.8842 0.10316 0.30283 0.0
C259 C 0.84396 0.08927 0.2695 0.0
H260 H 0.93647 0.0922 0.37572 0.0
C261 C 0.8235 0.05455 0.28764 0.0
H262 H 0.9005 0.12999 0.28981 0.0
C263 C 0.84431 0.03269 0.33604 0.0
C264 C 0.88557 0.04552 0.3679 0.0
H265 H 0.79264 0.04308 0.26254 0.0
H266 H 0.8288 0.00499 0.34741 0.0
C267 C 0.90459 0.08169 0.35208 0.0
C268 C 0.38495 0.41646 0.82001 0.0
C269 C 0.3415 0.42753 0.7924 0.0
H270 H 0.43887 0.42772 0.89054 0.0
C271 C 0.31695 0.45614 0.81949 0.0
H272 H 0.40441 0.39415 0.80035 0.0
C273 C 0.3367 0.47549 0.87077 0.0
C274 C 0.3812 0.46628 0.89641 0.0
H275 H 0.28349 0.46538 0.79914 0.0
H276 H 0.31786 0.49904 0.88885 0.0
C277 C 0.4045 0.43544 0.87186 0.0
C278 C 0.65325 0.54122 0.30905 0.0
C279 C 0.63827 0.57774 0.33043 0.0
H280 H 0.63968 0.49323 0.24706 0.0
C281 C 0.5998 0.59654 0.29875 0.0
H282 H 0.68348 0.52644 0.33085 0.0
C283 C 0.57544 0.57791 0.2492 0.0
C284 C 0.58872 0.53993 0.23119 0.0
H285 H 0.58705 0.62454 0.31389 0.0
H286 H 0.54472 0.59195 0.22737 0.0
C287 C 0.62844 0.52232 0.2606 0.0
C288 C 0.84396 0.03485 0.72607 0.0
C289 C 0.81935 0.07077 0.72853 0.0
H290 H 0.89238 0.00278 0.68409 0.0
C291 C 0.81886 0.09923 0.68359 0.0
H292 H 0.84471 0.01244 0.76021 0.0
C293 C 0.84653 0.09402 0.64079 0.0
C294 C 0.87437 0.05989 0.64154 0.0
H295 H 0.80042 0.12727 0.68465 0.0
H296 H 0.84877 0.11811 0.60982 0.0
C297 C 0.87092 0.02921 0.68233 0.0
C298 C 0.34259 0.50447 0.24711 0.0
C299 C 0.31625 0.46969 0.24886 0.0
H300 H 0.39439 0.53336 0.20783 0.0
C301 C 0.3154 0.44088 0.20414 0.0
H302 H 0.3437 0.52713 0.28106 0.0
C303 C 0.34467 0.44421 0.16297 0.0
C304 C 0.37439 0.47684 0.16505 0.0
H305 H 0.29571 0.41364 0.20464 0.0
H306 H 0.347 0.4195 0.13289 0.0
C307 C 0.37124 0.50821 0.20497 0.0
C308 C 0.14245 -0.00069 0.80354 0.0
C309 C 0.13435 0.95988 0.82132 0.0
H310 H 0.12331 0.04671 0.74216 0.0
C311 C 0.10193 0.93656 0.78531 0.0
H312 H 0.16809 0.01783 0.82871 0.0
C313 C 0.07706 0.95294 0.73425 0.0
C314 C 0.08363 0.99311 0.71889 0.0
H315 H 0.09448 0.90618 0.79759 0.0
H316 H 0.05129 0.93487 0.70841 0.0
C317 C 0.11707 0.01582 0.75349 0.0
loop_
_geom_bond_atom_site_label_1
_geom_bond_atom_site_label_2
_geom_bond_distance
_geom_bond_site_symmetry_2
_ccdc_geom_bond_type
C0 C1 1.386 . S
C0 C2 1.397 . S
C0 H24 0.931 . S
C1 C0 1.386 . S
C1 C5 1.397 . S
C2 C0 1.397 . S
C2 C3 1.384 . S
C2 H25 0.930 . S
C3 C2 1.384 . S
C3 C4 1.377 . S
C3 C6 1.481 1_556 S
C4 C3 1.377 . S
C4 C5 1.389 . S
C4 H26 0.929 1_556 S
C5 C1 1.397 . S
C5 C4 1.389 . S
C5 H27 0.931 1_565 S
C6 C3 1.481 1_554 S
C6 C7 1.387 . S
C6 C11 1.390 . S
C7 C6 1.387 . S
C7 C8 1.401 . S
C7 H28 0.930 . S
C8 C7 1.401 . S
C8 C9 1.376 . S
C8 C17 1.511 . S
C9 C8 1.376 . S
C9 C10 1.392 . S
C9 H30 0.931 . S
C10 C9 1.392 . S
C10 C11 1.361 . S
C10 C12 1.500 . S
C11 C6 1.390 . S
C11 C10 1.361 . S
C11 H29 0.931 . S
C12 C10 1.500 . S
C12 C13 1.371 . S
C12 C14 1.365 . S
C13 C12 1.371 . S
C13 C23 1.386 . S
C13 H31 0.931 . S
C14 C12 1.365 . S
C14 C15 1.409 . S
C14 H32 0.929 . S
C15 C14 1.409 . S
C15 C16 1.380 . S
C15 H33 0.930 1_565 S
C16 C15 1.380 . S
C16 C23 1.357 . S
C17 C8 1.511 . S
C17 C18 1.341 . S
C17 C19 1.371 . S
C18 C17 1.341 . S
C18 C22 1.394 . S
C18 H34 0.930 . S
C19 C17 1.371 . S
C19 C20 1.392 . S
C19 H35 0.931 . S
C20 C19 1.392 . S
C20 C21 1.331 . S
C20 H38 0.932 . S
C21 C20 1.331 . S
C21 C22 1.336 . S
C22 C18 1.394 . S
C22 C21 1.336 . S
C22 H37 0.929 . S
C23 C13 1.386 . S
C23 C16 1.357 . S
C23 H36 0.928 . S
H24 C0 0.931 . S
H25 C2 0.930 . S
H26 C4 0.929 1_554 S
H27 C5 0.931 1_545 S
H28 C7 0.930 . S
H29 C11 0.931 . S
H30 C9 0.931 . S
H31 C13 0.931 . S
H32 C14 0.929 . S
H33 C15 0.930 1_545 S
H34 C18 0.930 . S
H35 C19 0.931 . S
H36 C23 0.928 . S
H37 C22 0.929 . S
H38 C20 0.932 . S
C39 C40 1.386 . S
C39 C41 1.397 . S
C39 H63 0.931 . S
C40 C39 1.386 . S
C40 C44 1.397 . S
C41 C39 1.397 . S
C41 C42 1.384 . S
C41 H64 0.930 . S
C42 C41 1.384 . S
C42 C43 1.377 . S
C42 C45 1.481 . S
C43 C42 1.377 . S
C43 C44 1.389 . S
C43 H65 0.929 . S
C44 C40 1.397 . S
C44 C43 1.389 . S
C44 H66 0.931 . S
C45 C42 1.481 . S
C45 C46 1.387 . S
C45 C50 1.390 . S
C46 C45 1.387 . S
C46 C47 1.401 . S
C46 H67 0.930 . S
C47 C46 1.401 . S
C47 C48 1.376 . S
C47 C56 1.511 . S
C48 C47 1.376 . S
C48 C49 1.392 . S
C48 H69 0.931 . S
C49 C48 1.392 . S
C49 C50 1.361 . S
C49 C51 1.500 . S
C50 C45 1.390 . S
C50 C49 1.361 . S
C50 H68 0.931 . S
C51 C49 1.500 . S
C51 C52 1.371 . S
C51 C53 1.365 . S
C52 C51 1.371 . S
C52 C62 1.386 . S
C52 H70 0.931 . S
C53 C51 1.365 . S
C53 C54 1.409 . S
C53 H71 0.929 . S
C54 C53 1.409 . S
C54 C55 1.380 . S
C54 H72 0.930 . S
C55 C54 1.380 . S
C55 C62 1.357 . S
C56 C47 1.511 . S
C56 C57 1.341 . S
C56 C58 1.371 . S
C57 C56 1.341 . S
C57 C61 1.394 . S
C57 H73 0.930 . S
C58 C56 1.371 . S
C58 C59 1.392 . S
C58 H74 0.931 . S
C59 C58 1.392 . S
C59 C60 1.331 . S
C59 H77 0.932 . S
C60 C59 1.331 . S
C60 C61 1.336 . S
C61 C57 1.394 . S
C61 C60 1.336 . S
C61 H76 0.929 . S
C62 C52 1.386 . S
C62 C55 1.357 . S
C62 H75 0.928 . S
H63 C39 0.931 . S
H64 C41 0.930 . S
H65 C43 0.929 . S
H66 C44 0.931 . S
H67 C46 0.930 . S
H68 C50 0.931 . S
H69 C48 0.931 . S
H70 C52 0.931 . S
H71 C53 0.929 . S
H72 C54 0.930 . S
H73 C57 0.930 . S
H74 C58 0.931 . S
H75 C62 0.928 . S
H76 C61 0.929 . S
H77 C59 0.932 . S
C78 C79 1.386 . S
C78 C80 1.397 . S
C78 H102 0.931 . S
C79 C78 1.386 . S
C79 C83 1.397 . S
C80 C78 1.397 . S
C80 C81 1.384 . S
C80 H103 0.930 . S
C81 C80 1.384 . S
C81 C82 1.377 . S
C81 C84 1.481 . S
C82 C81 1.377 . S
C82 C83 1.389 . S
C82 H104 0.929 . S
C83 C79 1.397 . S
C83 C82 1.389 . S
C83 H105 0.931 . S
C84 C81 1.481 . S
C84 C85 1.387 . S
C84 C89 1.390 . S
C85 C84 1.387 . S
C85 C86 1.401 1_554 S
C85 H106 0.930 . S
C86 C85 1.401 1_556 S
C86 C87 1.376 . S
C86 C95 1.511 . S
C87 C86 1.376 . S
C87 C88 1.392 . S
C87 H108 0.931 . S
C88 C87 1.392 . S
C88 C89 1.361 1_556 S
C88 C90 1.500 . S
C89 C84 1.390 . S
C89 C88 1.361 1_554 S
C89 H107 0.931 . S
C90 C88 1.500 . S
C90 C91 1.371 . S
C90 C92 1.365 . S
C91 C90 1.371 . S
C91 C101 1.386 . S
C91 H109 0.931 . S
C92 C90 1.365 . S
C92 C93 1.409 . S
C92 H110 0.929 . S
C93 C92 1.409 . S
C93 C94 1.380 . S
C93 H111 0.930 . S
C94 C93 1.380 . S
C94 C101 1.357 . S
C95 C86 1.511 . S
C95 C96 1.341 1_556 S
C95 C97 1.371 . S
C96 C95 1.341 1_554 S
C96 C100 1.394 . S
C96 H112 0.930 . S
C97 C95 1.371 . S
C97 C98 1.392 . S
C97 H113 0.931 . S
C98 C97 1.392 . S
C98 C99 1.331 . S
C98 H116 0.932 . S
C99 C98 1.331 . S
C99 C100 1.336 1_556 S
C100 C96 1.394 . S
C100 C99 1.336 1_554 S
C100 H115 0.929 . S
C101 C91 1.386 . S
C101 C94 1.357 . S
C101 H114 0.928 . S
H102 C78 0.931 . S
H103 C80 0.930 . S
H104 C82 0.929 . S
H105 C83 0.931 . S
H106 C85 0.930 . S
H107 C89 0.931 . S
H108 C87 0.931 . S
H109 C91 0.931 . S
H110 C92 0.929 . S
H111 C93 0.930 . S
H112 C96 0.930 . S
H113 C97 0.931 . S
H114 C101 0.928 . S
H115 C100 0.929 . S
H116 C98 0.932 . S
C117 C118 1.386 . S
C117 C119 1.397 . S
C117 H141 0.931 . S
C118 C117 1.386 . S
C118 C122 1.397 . S
C119 C117 1.397 . S
C119 C120 1.384 . S
C119 H142 0.930 . S
C120 C119 1.384 . S
C120 C121 1.377 . S
C120 C123 1.481 . S
C121 C120 1.377 . S
C121 C122 1.389 . S
C121 H143 0.929 . S
C122 C118 1.397 . S
C122 C121 1.389 . S
C122 H144 0.931 . S
C123 C120 1.481 . S
C123 C124 1.387 . S
C123 C128 1.390 . S
C124 C123 1.387 . S
C124 C125 1.401 . S
C124 H145 0.930 . S
C125 C124 1.401 . S
C125 C126 1.376 . S
C125 C134 1.511 . S
C126 C125 1.376 . S
C126 C127 1.392 . S
C126 H147 0.931 . S
C127 C126 1.392 . S
C127 C128 1.361 . S
C127 C129 1.500 . S
C128 C123 1.390 . S
C128 C127 1.361 . S
C128 H146 0.931 . S
C129 C127 1.500 . S
C129 C130 1.371 . S
C129 C131 1.365 . S
C130 C129 1.371 . S
C130 C140 1.386 . S
C130 H148 0.931 . S
C131 C129 1.365 . S
C131 C132 1.409 . S
C131 H149 0.929 . S
C132 C131 1.409 . S
C132 C133 1.380 . S
C132 H150 0.930 . S
C133 C132 1.380 . S
C133 C140 1.357 . S
C134 C125 1.511 . S
C134 C135 1.341 . S
C134 C136 1.371 . S
C135 C134 1.341 . S
C135 C139 1.394 . S
C135 H151 0.930 . S
C136 C134 1.371 . S
C136 C137 1.392 . S
C136 H152 0.931 . S
C137 C136 1.392 . S
C137 C138 1.331 . S
C137 H155 0.932 . S
C138 C137 1.331 . S
C138 C139 1.336 . S
C139 C135 1.394 . S
C139 C138 1.336 . S
C139 H154 0.929 . S
C140 C130 1.386 . S
C140 C133 1.357 . S
C140 H153 0.928 . S
H141 C117 0.931 . S
H142 C119 0.930 . S
H143 C121 0.929 . S
H144 C122 0.931 . S
H145 C124 0.930 . S
H146 C128 0.931 . S
H147 C126 0.931 . S
H148 C130 0.931 . S
H149 C131 0.929 . S
H150 C132 0.930 . S
H151 C135 0.930 . S
H152 C136 0.931 . S
H153 C140 0.928 . S
H154 C139 0.929 . S
H155 C137 0.932 . S
O156 Mg157 1.990 1_655 S
O156 C170 1.253 . S
Mg157 O156 1.990 1_455 S
Mg157 O160 2.180 . S
Mg157 O161 2.117 . S
Mg157 O175 2.030 . S
O158 Mg159 2.072 1_655 S
O158 C170 1.260 . S
Mg159 O158 2.072 1_455 S
Mg159 O160 2.099 . S
Mg159 O162 2.079 1_545 S
Mg159 O163 2.072 1_455 S
Mg159 O165 2.099 1_445 S
Mg159 O176 2.079 1_545 S
O160 Mg157 2.180 . S
O160 Mg159 2.099 . S
O160 C171 1.279 . S
O161 Mg157 2.117 . S
O161 C171 1.250 . S
O162 Mg159 2.079 1_565 S
O162 C172 1.264 . S
O163 Mg159 2.072 1_655 S
O163 C173 1.260 . S
Mg164 O165 2.180 . S
Mg164 O166 2.030 1_655 S
Mg164 O167 2.005 . S
Mg164 O168 2.117 . S
O165 Mg159 2.099 1_665 S
O165 Mg164 2.180 . S
O165 C174 1.279 . S
O166 Mg164 2.030 1_455 S
O166 C172 1.248 . S
O167 Mg164 2.005 . S
O167 C173 1.238 1_565 S
O168 Mg164 2.117 . S
O168 C174 1.250 . S
C169 O175 1.248 1_565 S
C169 O176 1.264 . S
C170 O156 1.253 . S
C170 O158 1.260 . S
C171 O160 1.279 . S
C171 O161 1.250 . S
C172 O162 1.264 . S
C172 O166 1.248 . S
C173 O163 1.260 . S
C173 O167 1.238 1_545 S
C174 O165 1.279 . S
C174 O168 1.250 . S
O175 Mg157 2.030 . S
O175 C169 1.248 1_545 S
O176 Mg159 2.079 1_565 S
O176 C169 1.264 . S
O177 Mg178 1.990 . S
O177 C191 1.253 . S
Mg178 O177 1.990 . S
Mg178 O181 2.180 . S
Mg178 O182 2.117 . S
Mg178 O196 2.030 . S
O179 Mg180 2.072 . S
O179 C191 1.260 . S
Mg180 O179 2.072 . S
Mg180 O181 2.099 . S
Mg180 O183 2.079 1_554 S
Mg180 O184 2.072 1_554 S
Mg180 O186 2.099 . S
Mg180 O197 2.079 . S
O181 Mg178 2.180 . S
O181 Mg180 2.099 . S
O181 C192 1.279 . S
O182 Mg178 2.117 . S
O182 C192 1.250 . S
O183 Mg180 2.079 1_556 S
O183 C193 1.264 . S
O184 Mg180 2.072 1_556 S
O184 C194 1.260 . S
Mg185 O186 2.180 1_556 S
Mg185 O187 2.030 . S
Mg185 O188 1.990 . S
Mg185 O189 2.117 . S
O186 Mg180 2.099 . S
O186 Mg185 2.180 1_554 S
O186 C195 1.279 . S
O187 Mg185 2.030 . S
O187 C193 1.248 . S
O188 Mg185 1.990 . S
O188 C194 1.253 . S
O189 Mg185 2.117 . S
O189 C195 1.250 1_556 S
C190 O196 1.248 . S
C190 O197 1.264 . S
C191 O177 1.253 . S
C191 O179 1.260 . S
C192 O181 1.279 . S
C192 O182 1.250 . S
C193 O183 1.264 . S
C193 O187 1.248 . S
C194 O184 1.260 . S
C194 O188 1.253 . S
C195 O186 1.279 . S
C195 O189 1.250 1_554 S
O196 Mg178 2.030 . S
O196 C190 1.248 . S
O197 Mg180 2.079 . S
O197 C190 1.264 . S
C198 C199 1.387 . S
C198 H202 0.950 . S
C198 C207 1.390 . S
C199 C198 1.387 . S
C199 C201 1.387 . S
H200 C207 0.950 . S
C201 C199 1.387 . S
C201 C203 1.390 . S
C201 H205 0.950 . S
H202 C198 0.950 . S
C203 C201 1.390 . S
C203 C204 1.387 . S
C203 H206 0.950 . S
C204 C203 1.387 . S
C204 C207 1.387 . S
H205 C201 0.950 . S
H206 C203 0.950 . S
C207 C198 1.390 . S
C207 H200 0.950 . S
C207 C204 1.387 . S
C208 C209 1.387 . S
C208 H212 0.950 . S
C208 C217 1.390 . S
C209 C208 1.387 . S
C209 C211 1.387 . S
H210 C217 0.950 . S
C211 C209 1.387 . S
C211 C213 1.390 . S
C211 H215 0.950 . S
H212 C208 0.950 . S
C213 C211 1.390 . S
C213 C214 1.387 . S
C213 H216 0.950 1_554 S
C214 C213 1.387 . S
C214 C217 1.387 . S
H215 C211 0.950 . S
H216 C213 0.950 1_556 S
C217 C208 1.390 . S
C217 H210 0.950 . S
C217 C214 1.387 . S
C218 C219 1.387 . S
C218 H222 0.950 . S
C218 C227 1.390 . S
C219 C218 1.387 . S
C219 C221 1.387 . S
H220 C227 0.950 . S
C221 C219 1.387 . S
C221 C223 1.390 . S
C221 H225 0.950 . S
H222 C218 0.950 . S
C223 C221 1.390 . S
C223 C224 1.387 . S
C223 H226 0.950 . S
C224 C223 1.387 . S
C224 C227 1.387 . S
H225 C221 0.950 . S
H226 C223 0.950 . S
C227 C218 1.390 . S
C227 H220 0.950 . S
C227 C224 1.387 . S
C228 C229 1.387 . S
C228 H232 0.950 . S
C228 C237 1.390 . S
C229 C228 1.387 . S
C229 C231 1.387 1_556 S
H230 C237 0.950 . S
C231 C229 1.387 1_554 S
C231 C233 1.390 . S
C231 H235 0.950 . S
H232 C228 0.950 . S
C233 C231 1.390 . S
C233 C234 1.387 . S
C233 H236 0.950 . S
C234 C233 1.387 . S
C234 C237 1.387 1_554 S
H235 C231 0.950 . S
H236 C233 0.950 . S
C237 C228 1.390 . S
C237 H230 0.950 . S
C237 C234 1.387 1_556 S
C238 C239 1.375 1_545 S
C238 H242 0.960 . S
C238 C247 1.392 . S
C239 C238 1.375 1_565 S
C239 C241 1.387 . S
H240 C247 0.950 . S
C241 C239 1.387 . S
C241 C243 1.390 . S
C241 H245 0.950 . S
H242 C238 0.960 . S
C243 C241 1.390 . S
C243 C244 1.387 . S
C243 H246 0.950 . S
C244 C243 1.387 . S
C244 C247 1.387 1_565 S
H245 C241 0.950 . S
H246 C243 0.950 . S
C247 C238 1.392 . S
C247 H240 0.950 . S
C247 C244 1.387 1_545 S
C248 C249 1.387 . S
C248 H252 0.950 . S
C248 C257 1.390 . S
C249 C248 1.387 . S
C249 C251 1.387 . S
H250 C257 0.950 . S
C251 C249 1.387 . S
C251 C253 1.390 . S
C251 H255 0.950 . S
H252 C248 0.950 . S
C253 C251 1.390 . S
C253 C254 1.387 . S
C253 H256 0.950 . S
C254 C253 1.387 . S
C254 C257 1.387 . S
H255 C251 0.950 . S
H256 C253 0.950 . S
C257 C248 1.390 . S
C257 H250 0.950 . S
C257 C254 1.387 . S
C258 C259 1.387 . S
C258 H262 0.950 . S
C258 C267 1.390 . S
C259 C258 1.387 . S
C259 C261 1.387 . S
H260 C267 0.950 . S
C261 C259 1.387 . S
C261 C263 1.390 . S
C261 H265 0.950 . S
H262 C258 0.950 . S
C263 C261 1.390 . S
C263 C264 1.387 . S
C263 H266 0.950 1_545 S
C264 C263 1.387 . S
C264 C267 1.387 . S
H265 C261 0.950 . S
H266 C263 0.950 1_565 S
C267 C258 1.390 . S
C267 H260 0.950 . S
C267 C264 1.387 . S
C268 C269 1.387 . S
C268 H272 0.950 . S
C268 C277 1.390 . S
C269 C268 1.387 . S
C269 C271 1.387 . S
H270 C277 0.950 . S
C271 C269 1.387 . S
C271 C273 1.390 . S
C271 H275 0.950 . S
H272 C268 0.950 . S
C273 C271 1.390 . S
C273 C274 1.387 . S
C273 H276 0.950 . S
C274 C273 1.387 . S
C274 C277 1.387 . S
H275 C271 0.950 . S
H276 C273 0.950 . S
C277 C268 1.390 . S
C277 H270 0.950 . S
C277 C274 1.387 . S
C278 C279 1.387 . S
C278 H282 0.950 . S
C278 C287 1.390 . S
C279 C278 1.387 . S
C279 C281 1.387 . S
H280 C287 0.950 . S
C281 C279 1.387 . S
C281 C283 1.390 . S
C281 H285 0.950 . S
H282 C278 0.950 . S
C283 C281 1.390 . S
C283 C284 1.387 . S
C283 H286 0.950 . S
C284 C283 1.387 . S
C284 C287 1.387 . S
H285 C281 0.950 . S
H286 C283 0.950 . S
C287 C278 1.390 . S
C287 H280 0.950 . S
C287 C284 1.387 . S
C288 C289 1.387 . S
C288 H292 0.950 . S
C288 C297 1.390 . S
C289 C288 1.387 . S
C289 C291 1.387 . S
H290 C297 0.950 1_565 S
C291 C289 1.387 . S
C291 C293 1.390 . S
C291 H295 0.950 . S
H292 C288 0.950 . S
C293 C291 1.390 . S
C293 C294 1.387 . S
C293 H296 0.950 . S
C294 C293 1.387 . S
C294 C297 1.387 . S
H295 C291 0.950 . S
H296 C293 0.950 . S
C297 C288 1.390 . S
C297 H290 0.950 1_545 S
C297 C294 1.387 . S
C298 C299 1.387 . S
C298 H302 0.950 . S
C298 C307 1.390 . S
C299 C298 1.387 . S
C299 C301 1.387 . S
H300 C307 0.950 . S
C301 C299 1.387 . S
C301 C303 1.390 . S
C301 H305 0.950 . S
H302 C298 0.950 . S
C303 C301 1.390 . S
C303 C304 1.387 . S
C303 H306 0.950 . S
C304 C303 1.387 . S
C304 C307 1.387 . S
H305 C301 0.950 . S
H306 C303 0.950 . S
C307 C298 1.390 . S
C307 H300 0.950 . S
C307 C304 1.387 . S
C308 C309 1.387 1_545 S
C308 H312 0.950 . S
C308 C317 1.390 . S
C309 C308 1.387 1_565 S
C309 C311 1.387 . S
H310 C317 0.950 . S
C311 C309 1.387 . S
C311 C313 1.390 . S
C311 H315 0.950 . S
H312 C308 0.950 . S
C313 C311 1.390 . S
C313 C314 1.387 . S
C313 H316 0.950 . S
C314 C313 1.387 . S
C314 C317 1.387 1_565 S
H315 C311 0.950 . S
H316 C313 0.950 . S
C317 C308 1.390 . S
C317 H310 0.950 . S
C317 C314 1.387 1_545 S
C204 C171 1.433 . S
C199 C138 1.574 . S
C209 C21 1.563 . S
C214 C195 1.432 . S
C219 C60 1.663 . S
C224 C174 1.507 . S
C229 C99 1.678 . S
C234 C192 1.505 . S
C244 C172 1.686 . S
C239 C16 1.635 . S
C254 C194 1.623 . S
C249 C40 1.623 . S
C259 C79 1.610 . S
C264 C173 1.520 . S
C269 C133 1.616 . S
C274 C193 1.545 . S
C284 C191 1.522 . S
C279 C55 1.610 . S
C294 C170 1.624 . S
C289 C94 1.621 . S
C304 C190 1.688 . S
C299 C118 1.639 . S
C309 C1 1.612 . S
C314 C169 1.545 . S
