# Generated by pormake.
# Topology zzz, (3,6)-cn, num edge types: 1
# Building blocks:
#     Node 0, Type 0, BuildingBlock: BETDAH_clean_linker_0, # of connection points: 3
#     Node 1, Type 0, BuildingBlock: BETDAH_clean_linker_0, # of connection points: 3
#     Node 2, Type 0, BuildingBlock: BETDAH_clean_linker_0, # of connection points: 3
#     Node 3, Type 0, BuildingBlock: BETDAH_clean_linker_0, # of connection points: 3
#     Node 4, Type 0, BuildingBlock: BETDAH_clean_linker_0, # of connection points: 3
#     Node 5, Type 0, BuildingBlock: BETDAH_clean_linker_0, # of connection points: 3
#     Node 6, Type 0, BuildingBlock: BETDAH_clean_linker_0, # of connection points: 3
#     Node 7, Type 0, BuildingBlock: BETDAH_clean_linker_0, # of connection points: 3
#     Node 8, Type 1, BuildingBlock: GEDQOX_clean_sbu_0, # of connection points: 6
#     Node 9, Type 1, BuildingBlock: GEDQOX_clean_sbu_0, # of connection points: 6
#     Node 10, Type 1, BuildingBlock: GEDQOX_clean_sbu_0, # of connection points: 6
#     Node 11, Type 1, BuildingBlock: GEDQOX_clean_sbu_0, # of connection points: 6
#     Edge 12, Type (0, 1), BuildingBlock: UVAHIK_clean_linker_0, # of connection points: 2
#     Edge 13, Type (0, 1), BuildingBlock: UVAHIK_clean_linker_0, # of connection points: 2
#     Edge 14, Type (0, 1), BuildingBlock: UVAHIK_clean_linker_0, # of connection points: 2
#     Edge 15, Type (0, 1), BuildingBlock: UVAHIK_clean_linker_0, # of connection points: 2
#     Edge 16, Type (0, 1), BuildingBlock: UVAHIK_clean_linker_0, # of connection points: 2
#     Edge 17, Type (0, 1), BuildingBlock: UVAHIK_clean_linker_0, # of connection points: 2
#     Edge 18, Type (0, 1), BuildingBlock: UVAHIK_clean_linker_0, # of connection points: 2
#     Edge 19, Type (0, 1), BuildingBlock: UVAHIK_clean_linker_0, # of connection points: 2
#     Edge 20, Type (0, 1), BuildingBlock: UVAHIK_clean_linker_0, # of connection points: 2
#     Edge 21, Type (0, 1), BuildingBlock: UVAHIK_clean_linker_0, # of connection points: 2
#     Edge 22, Type (0, 1), BuildingBlock: UVAHIK_clean_linker_0, # of connection points: 2
#     Edge 23, Type (0, 1), BuildingBlock: UVAHIK_clean_linker_0, # of connection points: 2
#     Edge 24, Type (0, 1), BuildingBlock: UVAHIK_clean_linker_0, # of connection points: 2
#     Edge 25, Type (0, 1), BuildingBlock: UVAHIK_clean_linker_0, # of connection points: 2
#     Edge 26, Type (0, 1), BuildingBlock: UVAHIK_clean_linker_0, # of connection points: 2
#     Edge 27, Type (0, 1), BuildingBlock: UVAHIK_clean_linker_0, # of connection points: 2
#     Edge 28, Type (0, 1), BuildingBlock: UVAHIK_clean_linker_0, # of connection points: 2
#     Edge 29, Type (0, 1), BuildingBlock: UVAHIK_clean_linker_0, # of connection points: 2
#     Edge 30, Type (0, 1), BuildingBlock: UVAHIK_clean_linker_0, # of connection points: 2
#     Edge 31, Type (0, 1), BuildingBlock: UVAHIK_clean_linker_0, # of connection points: 2
#     Edge 32, Type (0, 1), BuildingBlock: UVAHIK_clean_linker_0, # of connection points: 2
#     Edge 33, Type (0, 1), BuildingBlock: UVAHIK_clean_linker_0, # of connection points: 2
#     Edge 34, Type (0, 1), BuildingBlock: UVAHIK_clean_linker_0, # of connection points: 2
#     Edge 35, Type (0, 1), BuildingBlock: UVAHIK_clean_linker_0, # of connection points: 2
# Relax obj value: 0.124
# Max RMSD: 0.173
# Mean RMSD: 0.093
data_MOF--net-zzz--node1-GEDQOX_clean_sbu_0--node2-BETDAH_clean_linker_0--edge1-UVAHIK_clean_linker_0
_symmetry_space_group_name_H-M    P1
_symmetry_Int_Tables_number       1
_symmetry_cell_setting            triclinic
loop_
_symmetry_equiv_pos_as_xyz
'x, y, z'
_cell_length_a     69.456882
_cell_length_b     69.401154
_cell_length_c     21.254685
_cell_angle_alpha  81.126134
_cell_angle_beta   88.850618
_cell_angle_gamma 98.141652
loop_
_atom_site_label
_atom_site_type_symbol
_atom_site_fract_x
_atom_site_fract_y
_atom_site_fract_z
_atom_type_partial_charge
H0 H 0.81449 0.53999 0.13333 0.0
H1 H 0.766 0.55329 0.02055 0.0
H2 H 0.77775 0.57999 0.18842 0.0
C3 C 0.80167 0.54725 0.12647 0.0
C4 C 0.79728 0.55989 0.16843 0.0
C5 C 0.79058 0.54485 0.07313 0.0
C6 C 0.77442 0.55483 0.06231 0.0
C7 C 0.76968 0.56737 0.10469 0.0
C8 C 0.78136 0.5701 0.15662 0.0
N9 N 0.75385 0.57818 0.09507 0.0
C10 C 0.73663 0.57157 0.06782 0.0
H11 H 0.00905 0.81275 0.21538 0.0
H12 H 0.01635 0.76002 0.14047 0.0
H13 H 0.99112 0.75631 0.33044 0.0
C14 C 0.00742 0.79677 0.22141 0.0
C15 C 0.99911 0.78571 0.27836 0.0
C16 C 0.01384 0.7877 0.17212 0.0
C17 C 0.01153 0.76701 0.17892 0.0
C18 C 0.0033 0.75554 0.23646 0.0
C19 C 0.99743 0.76505 0.28626 0.0
N20 N 1.00087 0.73454 0.24684 0.0
C21 C 0.00245 0.72241 0.20086 0.0
H22 H 0.69387 0.9772 0.14346 0.0
H23 H 0.74637 0.96524 0.05677 0.0
H24 H 0.73199 0.94351 0.25586 0.0
C25 C 0.70732 0.97092 0.148 0.0
C26 C 0.71157 0.96057 0.20673 0.0
C27 C 0.71967 0.97259 0.09401 0.0
C28 C 0.73689 0.96413 0.09868 0.0
C29 C 0.74139 0.95369 0.15762 0.0
C30 C 0.72851 0.95167 0.21086 0.0
N31 N 0.75832 0.94443 0.16487 0.0
C32 C 0.77561 0.95073 0.1288 0.0
H33 H 0.47129 0.71566 0.38544 0.0
H34 H 0.45757 0.77346 0.31648 0.0
H35 H 0.48026 0.7608 0.50353 0.0
C36 C 0.47059 0.7307 0.39263 0.0
C37 C 0.47691 0.73678 0.44944 0.0
C38 C 0.46333 0.74371 0.34503 0.0
C39 C 0.46301 0.76332 0.35352 0.0
C40 C 0.46902 0.76948 0.41123 0.0
C41 C 0.47554 0.75603 0.45939 0.0
N42 N 0.46859 0.78901 0.42256 0.0
C43 C 0.47028 0.80518 0.37432 0.0
H44 H 0.19676 0.48582 0.59401 0.0
H45 H 0.24837 0.47883 0.69814 0.0
H46 H 0.24406 0.46362 0.50919 0.0
C47 C 0.21133 0.48186 0.59611 0.0
C48 C 0.2193 0.47505 0.54417 0.0
C49 C 0.22161 0.48312 0.65164 0.0
C50 C 0.24044 0.47796 0.65504 0.0
C51 C 0.24852 0.47081 0.60333 0.0
C52 C 0.23776 0.46911 0.54875 0.0
N53 N 0.2671 0.46457 0.60503 0.0
C54 C 0.28222 0.47163 0.64099 0.0
H55 H 0.99539 0.22685 0.49738 0.0
H56 H 0.00488 0.27856 0.58744 0.0
H57 H 0.01639 0.283 0.3848 0.0
C58 C 0.99918 0.24273 0.4935 0.0
C59 C 0.00548 0.25384 0.43433 0.0
C60 C 0.99914 0.25141 0.54872 0.0
C61 C 0.00465 0.27188 0.54458 0.0
C62 C 0.01046 0.28348 0.48484 0.0
C63 C 0.01134 0.27424 0.43034 0.0
N64 N 0.01632 0.30424 0.47769 0.0
C65 C 0.01246 0.31657 0.52107 0.0
H66 H 0.32516 0.07425 0.57437 0.0
H67 H 0.26849 0.07025 0.66415 0.0
H68 H 0.28009 0.09999 0.47066 0.0
C69 C 0.31042 0.07772 0.57218 0.0
C70 C 0.30427 0.0879 0.51581 0.0
C71 C 0.29764 0.07139 0.6255 0.0
C72 C 0.27832 0.07512 0.62275 0.0
C73 C 0.272 0.0856 0.5666 0.0
C74 C 0.28504 0.09195 0.51369 0.0
N75 N 0.25284 0.0904 0.56164 0.0
C76 C 0.23684 0.08068 0.59984 0.0
H77 H 0.54214 0.31582 0.34587 0.0
H78 H 0.55662 0.25858 0.41875 0.0
H79 H 0.53339 0.26963 0.23191 0.0
C80 C 0.54307 0.30072 0.33985 0.0
C81 C 0.53668 0.29413 0.28391 0.0
C82 C 0.55061 0.28816 0.38814 0.0
C83 C 0.55103 0.26842 0.38119 0.0
C84 C 0.54491 0.26174 0.32433 0.0
C85 C 0.53817 0.27479 0.27542 0.0
N86 N 0.54542 0.24206 0.31469 0.0
C87 C 0.54359 0.22621 0.36407 0.0
Nd88 Nd 0.99573 0.01013 0.80354 0.0
Nd89 Nd 0.01602 0.02388 0.92766 0.0
C90 C 0.97152 0.99044 0.73372 0.0
C91 C 0.97271 0.97323 0.70159 0.0
C92 C 0.95634 0.96448 0.67343 0.0
C93 C 0.95731 0.94784 0.6442 0.0
C94 C 0.97471 0.9396 0.64249 0.0
C95 C 0.99107 0.94845 0.67118 0.0
C96 C 0.99006 0.96505 0.7005 0.0
C97 C 0.0357 0.01886 0.78249 0.0
C98 C 0.0179 0.97971 0.9029 0.0
C99 C 0.03552 0.04418 0.008 0.0
C100 C 0.0332 0.06229 0.03404 0.0
C101 C 0.04783 0.07085 0.06986 0.0
C102 C 0.04566 0.08804 0.0947 0.0
C103 C 0.02882 0.09707 0.08401 0.0
C104 C 0.01427 0.08844 0.04745 0.0
C105 C 0.01642 0.07122 0.02297 0.0
C106 C 0.97775 0.00686 0.94261 0.0
C107 C 0.99649 0.05594 0.8224 0.0
O108 O 0.97094 0.98683 0.7962 0.0
O109 O 0.98309 0.00672 0.7102 0.0
O110 O 0.02397 0.01323 0.73987 0.0
O111 O 0.02582 0.01966 0.83182 0.0
O112 O 0.00327 0.9821 0.86482 0.0
O113 O 0.02765 0.99456 0.92689 0.0
O114 O 0.04015 0.04653 0.94701 0.0
O115 O 0.02215 0.02892 0.02632 0.0
O116 O 0.99036 0.00435 0.98646 0.0
O117 O 0.98529 0.01882 0.89481 0.0
O118 O 0.00623 0.05218 0.87478 0.0
O119 O 0.99014 0.04233 0.78722 0.0
H120 H 0.94277 0.97045 0.67437 0.0
H121 H 0.94432 0.9413 0.62364 0.0
H122 H 0.00477 0.94274 0.67023 0.0
H123 H 0.00284 0.97153 0.72237 0.0
H124 H 0.06089 0.06417 0.07899 0.0
H125 H 0.05705 0.09404 0.12328 0.0
H126 H 0.00123 0.09506 0.03729 0.0
H127 H 0.00495 0.06481 0.99549 0.0
Nd128 Nd 0.50391 1.00119 0.8315 0.0
Nd129 Nd 0.50811 0.03218 0.91743 0.0
C130 C 0.50781 0.97066 0.77432 0.0
C131 C 0.52413 0.96672 0.73562 0.0
C132 C 0.52321 0.94912 0.71046 0.0
C133 C 0.53864 0.946 0.67153 0.0
C134 C 0.55513 0.96051 0.65723 0.0
C135 C 0.55609 0.9779 0.68407 0.0
C136 C 0.54073 0.98099 0.72266 0.0
C137 C 0.5084 0.03923 0.76835 0.0
C138 C 0.54764 0.01842 0.87658 0.0
C139 C 0.50455 0.06295 0.97395 0.0
C140 C 0.48806 0.06891 0.00668 0.0
C141 C 0.48996 0.08716 0.02811 0.0
C142 C 0.47419 0.09272 0.05944 0.0
C143 C 0.45627 0.08011 0.06946 0.0
C144 C 0.45447 0.06188 0.04735 0.0
C145 C 0.47023 0.05633 0.0164 0.0
C146 C 0.50383 0.99405 0.97992 0.0
C147 C 0.46451 0.01515 0.87146 0.0
O148 O 0.51114 0.97094 0.83457 0.0
O149 O 0.49915 0.98536 0.749 0.0
O150 O 0.49694 0.02485 0.75036 0.0
O151 O 0.51771 0.03316 0.81574 0.0
O152 O 0.53612 1.00343 0.85943 0.0
O153 O 0.54049 0.03365 0.89294 0.0
O154 O 0.50306 0.06319 0.9126 0.0
O155 O 0.5109 0.04712 0.00239 0.0
O156 O 0.51551 0.00836 0.9975 0.0
O157 O 0.49433 1.0002 0.93315 0.0
O158 O 0.47609 0.0302 0.88798 0.0
O159 O 0.47158 0.99967 0.85669 0.0
H160 H 0.51048 0.93796 0.72009 0.0
H161 H 0.53743 0.93252 0.65123 0.0
H162 H 0.56871 0.98921 0.67491 0.0
H163 H 0.5417 0.99468 0.74174 0.0
H164 H 0.50361 0.09707 0.02075 0.0
H165 H 0.47598 0.10692 0.07541 0.0
H166 H 0.441 0.05169 0.05514 0.0
H167 H 0.46855 0.04211 0.00048 0.0
Nd168 Nd 0.49542 0.51972 0.92893 0.0
Nd169 Nd 0.51982 0.51303 0.8164 0.0
C170 C 0.46917 0.53173 0.99941 0.0
C171 C 0.4652 0.55139 0.00843 0.0
C172 C 0.44634 0.55419 0.0256 0.0
C173 C 0.44239 0.573 0.03234 0.0
C174 C 0.45728 0.58934 0.02213 0.0
C175 C 0.47614 0.58641 0.00415 0.0
C176 C 0.48002 0.56765 0.99706 0.0
C177 C 0.53466 0.5235 0.94708 0.0
C178 C 0.51135 0.55696 0.81373 0.0
C179 C 0.54535 0.50055 0.74444 0.0
C180 C 0.5478 0.48061 0.73386 0.0
C181 C 0.56555 0.47686 0.70955 0.0
C182 C 0.56788 0.45771 0.70087 0.0
C183 C 0.55243 0.44208 0.71629 0.0
C184 C 0.53476 0.44593 0.74155 0.0
C185 C 0.53249 0.465 0.75039 0.0
C186 C 0.48053 0.50932 0.79904 0.0
C187 C 0.50415 0.47582 0.93206 0.0
O188 O 0.4658 0.52719 0.94278 0.0
O189 O 0.48548 0.52661 0.02148 0.0
O190 O 0.52159 0.51577 0.99187 0.0
O191 O 0.52687 0.52991 0.89657 0.0
O192 O 0.49801 0.54911 0.85919 0.0
O193 O 0.52405 0.54656 0.79369 0.0
O194 O 0.54888 0.50429 0.8019 0.0
O195 O 0.52954 0.50695 0.72251 0.0
O196 O 0.49348 0.51736 0.75427 0.0
O197 O 0.48848 0.50275 0.84895 0.0
O198 O 0.51733 0.48367 0.88613 0.0
O199 O 0.49155 0.48621 0.95268 0.0
H200 H 0.43466 0.54184 0.03353 0.0
H201 H 0.42765 0.57474 0.04518 0.0
H202 H 0.48803 0.59853 0.99673 0.0
H203 H 0.49464 0.56582 0.98286 0.0
H204 H 0.57757 0.48872 0.69713 0.0
H205 H 0.5816 0.45521 0.68086 0.0
H206 H 0.5227 0.43416 0.75471 0.0
H207 H 0.51875 0.46757 0.77016 0.0
Nd208 Nd 0.00599 0.53446 0.80279 0.0
Nd209 Nd 0.00513 0.50383 0.92835 0.0
C210 C 1.00002 0.56589 0.72329 0.0
C211 C 0.98452 0.56793 0.67778 0.0
C212 C 0.98433 0.58533 0.63464 0.0
C213 C 0.96909 0.58693 0.59268 0.0
C214 C 0.95382 0.57114 0.5936 0.0
C215 C 0.95419 0.55381 0.6374 0.0
C216 C 0.96943 0.55218 0.67854 0.0
C217 C 0.00261 0.49683 0.77076 0.0
C218 C 0.96431 0.50957 0.8678 0.0
C219 C 0.01234 0.47608 0.02093 0.0
C220 C 0.02991 0.47213 0.05604 0.0
C221 C 0.04608 0.46673 0.02572 0.0
C222 C 0.0632 0.46484 0.05818 0.0
C223 C 0.06452 0.46849 0.12123 0.0
C224 C 0.04819 0.4733 0.15207 0.0
C225 C 0.03102 0.47497 0.11993 0.0
C226 C 1.00084 0.54169 0.94384 0.0
C227 C 0.0476 0.52561 0.85794 0.0
O228 O 0.99397 0.56252 0.78333 0.0
O229 O 0.01259 0.55444 0.71055 0.0
O230 O 0.00337 0.51278 0.72945 0.0
O231 O 0.00354 0.50148 0.82571 0.0
O232 O 0.97361 0.52619 0.8353 0.0
O233 O 0.97365 0.49643 0.90124 0.0
O234 O 0.01222 0.47383 0.96089 0.0
O235 O 0.0051 0.49178 0.03114 0.0
O236 O 0.99094 0.52597 0.97692 0.0
O237 O 0.01276 0.5371 0.90486 0.0
O238 O 0.0379 0.51223 0.90283 0.0
O239 O 0.03886 0.53699 0.81531 0.0
H240 H 0.9959 0.59763 0.63342 0.0
H241 H 0.96936 0.60042 0.5592 0.0
H242 H 0.94254 0.5415 0.64067 0.0
H243 H 0.96933 0.5386 0.71146 0.0
H244 H 0.04574 0.46444 0.97647 0.0
H245 H 0.07564 0.46122 0.03326 0.0
H246 H 0.04876 0.47596 0.20094 0.0
H247 H 0.01875 0.47901 0.14456 0.0
C248 C 0.21144 0.07708 0.68584 0.0
C249 C 0.21832 0.0715 0.62987 0.0
C250 C 0.19228 0.07015 0.70924 0.0
C251 C 0.14471 0.05393 0.64958 0.0
H252 H 0.12849 0.03416 0.82611 0.0
C253 C 0.06583 0.01974 0.71674 0.0
C254 C 0.05703 0.02375 0.77231 0.0
C255 C 0.08583 0.02493 0.70419 0.0
C256 C 0.13277 0.03989 0.77675 0.0
H257 H 0.21128 0.05408 0.55522 0.0
H258 H 0.17788 0.04191 0.59586 0.0
H259 H 0.16318 0.04407 0.79646 0.0
H260 H 0.06228 0.03584 0.85935 0.0
H261 H 0.09737 0.04555 0.8367 0.0
H262 H 0.11458 0.05028 0.62943 0.0
C263 C 0.18709 0.05164 0.62171 0.0
C264 C 0.15263 0.04549 0.75981 0.0
C265 C 0.2062 0.05846 0.5987 0.0
C266 C 0.06871 0.03269 0.81601 0.0
C267 C 0.08881 0.03811 0.80314 0.0
C268 C 0.12497 0.04854 0.66646 0.0
C269 C 0.17976 0.05777 0.67635 0.0
C270 C 0.15879 0.05229 0.69583 0.0
C271 C 0.09757 0.03454 0.74651 0.0
C272 C 0.1187 0.04114 0.73006 0.0
H273 H 0.22061 0.0873 0.71013 0.0
H274 H 0.18701 0.07519 0.75123 0.0
H275 H 0.14897 0.05957 0.60012 0.0
H276 H 0.05723 0.01261 0.68255 0.0
H277 H 0.09207 0.02142 0.66101 0.0
C278 C 0.55173 0.20636 0.46408 0.0
C279 C 0.53998 0.20881 0.41154 0.0
C280 C 0.54818 0.18911 0.50907 0.0
C281 C 0.51004 0.14661 0.56697 0.0
H282 H 0.55351 0.12035 0.62647 0.0
C283 C 0.50047 0.06498 0.68141 0.0
C284 C 0.51163 0.05959 0.73377 0.0
C285 C 0.50372 0.08415 0.64765 0.0
C286 C 0.54123 0.12765 0.61104 0.0
H287 H 0.51543 0.19576 0.36379 0.0
H288 H 0.50927 0.16555 0.44161 0.0
H289 H 0.55965 0.15233 0.55753 0.0
H290 H 0.53475 0.06999 0.7927 0.0
H291 H 0.54048 0.10358 0.73349 0.0
H292 H 0.49161 0.12175 0.61935 0.0
C293 C 0.52102 0.17688 0.44914 0.0
C294 C 0.54475 0.14598 0.57159 0.0
C295 C 0.5246 0.19407 0.40437 0.0
C296 C 0.52599 0.07376 0.75227 0.0
C297 C 0.52932 0.09294 0.71827 0.0
C298 C 0.50653 0.12829 0.60622 0.0
C299 C 0.53278 0.17416 0.50199 0.0
C300 C 0.52918 0.15552 0.54824 0.0
C301 C 0.51825 0.09832 0.66547 0.0
C302 C 0.52207 0.11846 0.62787 0.0
H303 H 0.56366 0.21771 0.4702 0.0
H304 H 0.55739 0.18753 0.5495 0.0
H305 H 0.49773 0.15375 0.55087 0.0
H306 H 0.4893 0.05433 0.6662 0.0
H307 H 0.49512 0.08776 0.60671 0.0
C308 C 0.31366 0.49305 0.63388 0.0
C309 C 0.30004 0.47846 0.66951 0.0
C310 C 0.33212 0.49797 0.65683 0.0
C311 C 0.367 0.47666 0.76581 0.0
H312 H 0.39583 0.52947 0.72733 0.0
C313 C 0.44645 0.49579 0.83949 0.0
C314 C 0.4593 0.50703 0.79129 0.0
C315 C 0.42636 0.49329 0.83139 0.0
C316 C 0.38797 0.51463 0.73823 0.0
H317 H 0.2944 0.45781 0.75725 0.0
H318 H 0.32663 0.46667 0.79864 0.0
H319 H 0.36147 0.52377 0.70346 0.0
H320 H 0.46127 0.52477 0.6975 0.0
H321 H 0.4262 0.52044 0.68331 0.0
H322 H 0.3936 0.46754 0.80011 0.0
C323 C 0.32324 0.47418 0.75257 0.0
C324 C 0.36829 0.51135 0.72451 0.0
C325 C 0.30476 0.46922 0.72934 0.0
C326 C 0.45169 0.51599 0.73535 0.0
C327 C 0.43161 0.51363 0.72745 0.0
C328 C 0.38666 0.47998 0.77992 0.0
C329 C 0.33729 0.48836 0.71599 0.0
C330 C 0.35763 0.49225 0.73697 0.0
C331 C 0.41872 0.50214 0.77518 0.0
C332 C 0.39746 0.49894 0.76519 0.0
H333 H 0.31029 0.50014 0.58714 0.0
H334 H 0.34259 0.50871 0.62682 0.0
H335 H 0.35938 0.46172 0.77523 0.0
H336 H 0.45194 0.48877 0.88323 0.0
H337 H 0.41678 0.48449 0.86921 0.0
C338 C 0.00407 0.34986 0.51923 0.0
C339 C 0.00951 0.3328 0.55417 0.0
C340 C 0.00289 0.36653 0.54787 0.0
C341 C 0.9988 0.38468 0.70209 0.0
H342 H 0.02078 0.43461 0.60108 0.0
C343 C 0.00519 0.46041 0.79738 0.0
C344 C 0.0021 0.47684 0.75318 0.0
C345 C 0.00596 0.44205 0.77761 0.0
C346 C 0.01432 0.42087 0.62984 0.0
H347 H 0.01768 0.31945 0.64667 0.0
H348 H 0.01549 0.34871 0.69755 0.0
H349 H 0.02203 0.4042 0.55895 0.0
H350 H 0.99662 0.4867 0.65428 0.0
H351 H 0.99748 0.455 0.62037 0.0
H352 H 0.99091 0.40154 0.77281 0.0
C353 C 0.01203 0.34918 0.64794 0.0
C354 C 0.01508 0.40336 0.60559 0.0
C355 C 0.01332 0.33245 0.61893 0.0
C356 C 0.99923 0.4744 0.6895 0.0
C357 C 0.99989 0.45618 0.6699 0.0
C358 C 0.99794 0.40231 0.72638 0.0
C359 C 0.00714 0.36658 0.61235 0.0
C360 C 0.00709 0.38502 0.64081 0.0
C361 C 0.00362 0.43978 0.71323 0.0
C362 C 0.00542 0.42071 0.69008 0.0
H363 H 1.00111 0.35047 0.46914 0.0
H364 H 0.99876 0.37949 0.51921 0.0
H365 H 0.99247 0.37083 0.73051 0.0
H366 H 0.00747 0.46183 0.84675 0.0
H367 H 0.00893 0.42981 0.8124 0.0
C368 C 0.79992 0.97008 0.04751 0.0
C369 C 0.79524 0.95579 0.10189 0.0
C370 C 0.81937 0.97549 0.02489 0.0
C371 C 0.86911 0.97628 0.08182 0.0
H372 H 0.88545 0.98222 0.90353 0.0
C373 C 0.94999 0.98596 0.00734 0.0
C374 C 0.9567 0.99971 0.95317 0.0
C375 C 0.93007 0.98031 0.02105 0.0
C376 C 0.88111 0.98084 0.95341 0.0
H377 H 0.8066 0.93567 0.17489 0.0
H378 H 0.84045 0.94498 0.13569 0.0
H379 H 0.85085 0.97337 0.93541 0.0
H380 H 0.94791 0.01785 0.86948 0.0
H381 H 0.91296 0.0083 0.89409 0.0
H382 H 0.89908 0.98394 0.10028 0.0
C383 C 0.82934 0.95218 0.11059 0.0
C384 C 0.86129 0.97576 0.97162 0.0
C385 C 0.81 0.94676 0.13282 0.0
C386 C 0.9431 0.00723 0.91167 0.0
C387 C 0.92309 1.00168 0.92567 0.0
C388 C 0.88881 0.98145 0.06369 0.0
C389 C 0.83431 0.96678 0.05687 0.0
C390 C 0.85513 0.97316 0.03619 0.0
C391 C 0.91633 0.98842 0.98126 0.0
C392 C 0.89514 0.98353 0.9994 0.0
H393 H 0.78865 0.97725 0.02326 0.0
H394 H 0.82277 0.98685 0.98361 0.0
H395 H 0.8648 0.97482 0.13179 0.0
H396 H 0.96016 0.97975 0.03978 0.0
H397 H 0.92544 0.96967 0.06334 0.0
C398 C 0.46187 0.82563 0.27588 0.0
C399 C 0.47371 0.82289 0.32808 0.0
C400 C 0.46525 0.84315 0.2321 0.0
C401 C 0.50309 0.88612 0.17643 0.0
H402 H 0.45934 0.91232 0.11962 0.0
C403 C 0.51206 0.9681 0.06574 0.0
C404 C 0.50076 0.9736 0.01387 0.0
C405 C 0.50896 0.94883 0.09881 0.0
C406 C 0.47169 0.90505 0.13431 0.0
H407 H 0.49823 0.83569 0.37647 0.0
H408 H 0.5041 0.86639 0.30075 0.0
H409 H 0.45346 0.88002 0.18674 0.0
H410 H 0.47754 0.96333 0.95509 0.0
H411 H 0.47207 0.92959 0.01304 0.0
H412 H 0.52132 0.9113 0.12507 0.0
C413 C 0.49241 0.85508 0.29255 0.0
C414 C 0.46833 0.88654 0.17272 0.0
C415 C 0.489 0.83761 0.33613 0.0
C416 C 0.48641 0.95947 0.99517 0.0
C417 C 0.48323 0.9402 0.02845 0.0
C418 C 0.50644 0.90462 0.13822 0.0
C419 C 0.48056 0.8581 0.24005 0.0
C420 C 0.48401 0.877 0.19504 0.0
C421 C 0.49444 0.93469 0.08076 0.0
C422 C 0.4908 0.91443 0.11752 0.0
H423 H 0.45001 0.8143 0.26909 0.0
H424 H 0.45597 0.84496 0.19189 0.0
H425 H 0.51547 0.87899 0.19176 0.0
H426 H 0.52323 0.97871 0.08109 0.0
H427 H 0.51767 0.94512 0.13938 0.0
C428 C 0.71157 0.54882 0.02388 0.0
C429 C 0.71718 0.56648 0.04731 0.0
C430 C 0.69213 0.54346 0.00935 0.0
C431 C 0.64278 0.55202 0.05215 0.0
H432 H 0.62755 0.53021 0.90018 0.0
C433 C 0.56311 0.52082 0.01635 0.0
C434 C 0.55582 0.52665 0.95638 0.0
C435 C 0.58306 0.5245 0.02593 0.0
C436 C 0.6316 0.53633 0.94275 0.0
H437 H 0.70751 0.5926 0.07311 0.0
H438 H 0.67363 0.58339 0.04758 0.0
H439 H 0.66213 0.53946 0.91815 0.0
H440 H 0.56366 0.54042 0.85891 0.0
H441 H 0.59856 0.5469 0.87565 0.0
H442 H 0.61238 0.54918 0.07656 0.0
C443 C 0.68401 0.57355 0.04081 0.0
C444 C 0.65138 0.54146 0.95327 0.0
C445 C 0.70338 0.5789 0.05496 0.0
C446 C 0.56889 0.53581 0.90572 0.0
C447 C 0.58888 0.5394 0.91521 0.0
C448 C 0.62307 0.54677 0.0419 0.0
C449 C 0.67808 0.55564 0.01873 0.0
C450 C 0.65717 0.54954 0.00785 0.0
C451 C 0.59616 0.53401 0.97564 0.0
C452 C 0.61722 0.53896 0.98696 0.0
H453 H 0.72209 0.53901 0.0181 0.0
H454 H 0.68797 0.52952 0.99277 0.0
H455 H 0.64676 0.55797 0.09507 0.0
H456 H 0.55337 0.51362 0.05614 0.0
H457 H 0.58824 0.51993 0.07284 0.0
C458 C 0.01786 0.70486 0.12379 0.0
C459 C 0.00203 0.70643 0.16384 0.0
C460 C 0.0179 0.68809 0.09405 0.0
C461 C 0.99622 0.63549 0.1157 0.0
H462 H 0.01379 0.63709 0.94047 0.0
C463 C 0.98588 0.56504 0.00143 0.0
C464 C 1.00064 0.56177 0.9599 0.0
C465 C 0.98618 0.58334 0.02162 0.0
C466 C 0.00905 0.63632 0.98974 0.0
H467 H 0.97377 0.69215 0.20358 0.0
H468 H 0.9737 0.66304 0.15186 0.0
H469 H 0.01429 0.66786 0.98388 0.0
H470 H 0.02704 0.57541 0.90539 0.0
H471 H 0.02787 0.60738 0.94172 0.0
H472 H 0.99129 0.60415 0.12261 0.0
C473 C 0.98618 0.67454 0.14343 0.0
C474 C 0.00931 0.65401 0.01459 0.0
C475 C 0.98612 0.69128 0.17267 0.0
C476 C 0.01545 0.57748 0.93743 0.0
C477 C 0.01587 0.59584 0.95816 0.0
C478 C 0.99609 0.61789 0.09116 0.0
C479 C 0.00219 0.67251 0.10456 0.0
C480 C 0.00266 0.65383 0.07774 0.0
C481 C 0.00139 0.59893 0.00154 0.0
C482 C 0.00225 0.61797 0.02755 0.0
H483 H 0.03038 0.71632 0.11678 0.0
H484 H 0.03051 0.68699 0.06475 0.0
H485 H 0.99143 0.6347 0.16497 0.0
H486 H 0.97413 0.55333 0.01907 0.0
H487 H 0.97445 0.58518 0.05345 0.0
C488 C 0.01202 0.23236 0.64229 0.0
C489 C 0.99576 0.23785 0.60985 0.0
C490 C 0.01073 0.21395 0.68098 0.0
C491 C 0.97848 0.16912 0.75723 0.0
H492 H 0.01606 0.14161 0.68368 0.0
C493 C 0.99172 0.08873 0.8498 0.0
C494 C 0.99284 0.07648 0.80332 0.0
C495 C 0.99031 0.10871 0.83215 0.0
C496 C 0.00547 0.14909 0.70457 0.0
H497 H 0.96505 0.22956 0.59721 0.0
H498 H 0.96257 0.19769 0.66682 0.0
H499 H 0.01758 0.17714 0.65197 0.0
H500 H 0.99284 0.07542 0.70201 0.0
H501 H 0.99084 0.1106 0.67092 0.0
H502 H 0.96643 0.14088 0.80997 0.0
C503 C 0.97632 0.20747 0.66217 0.0
C504 C 0.00649 0.16945 0.68713 0.0
C505 C 0.97767 0.22577 0.62279 0.0
C506 C 0.99193 0.08449 0.73882 0.0
C507 C 0.99091 0.1046 0.72107 0.0
C508 C 0.97769 0.14873 0.77568 0.0
C509 C 0.9931 0.20091 0.6883 0.0
C510 C 0.99294 0.17967 0.71285 0.0
C511 C 0.99035 0.11693 0.76759 0.0
C512 C 0.99104 0.13851 0.7488 0.0
H513 H 0.02618 0.24126 0.63207 0.0
H514 H 0.02384 0.2093 0.70112 0.0
H515 H 0.96778 0.17664 0.77738 0.0
H516 H 0.99222 0.08294 0.89993 0.0
H517 H 0.98997 0.11789 0.86891 0.0
C518 C 0.30455 0.04036 0.69018 0.0
C519 C 0.30528 0.06087 0.68297 0.0
C520 C 0.31713 0.03095 0.73095 0.0
C521 C 0.35485 0.03858 0.8512 0.0
H522 H 0.38308 0.00813 0.75303 0.0
C523 C 0.43598 0.03306 0.88047 0.0
C524 C 0.44336 0.01608 0.86838 0.0
C525 C 0.41635 0.03476 0.87271 0.0
C526 C 0.37518 0.01616 0.78211 0.0
H527 H 0.31858 0.08756 0.71482 0.0
H528 H 0.34045 0.07126 0.78637 0.0
H529 H 0.35231 0.01735 0.71664 0.0
H530 H 0.43562 0.9871 0.84194 0.0
H531 H 0.40124 0.98996 0.82917 0.0
H532 H 0.3782 0.03797 0.91546 0.0
C533 C 0.33009 0.06228 0.76163 0.0
C534 C 0.35745 0.02146 0.76119 0.0
C535 C 0.31755 0.07165 0.72079 0.0
C536 C 0.43046 1.00047 0.851 0.0
C537 C 0.41076 1.00214 0.84348 0.0
C538 C 0.37258 0.0332 0.87234 0.0
C539 C 0.3307 0.04197 0.76474 0.0
C540 C 0.34736 0.03324 0.79437 0.0
C541 C 0.40354 0.01948 0.85295 0.0
C542 C 0.38328 0.02246 0.83689 0.0
H543 H 0.2954 0.03186 0.66054 0.0
H544 H 0.31709 0.01526 0.73292 0.0
H545 H 0.34731 0.04747 0.87822 0.0
H546 H 0.44548 0.04537 0.89413 0.0
H547 H 0.41144 0.04845 0.87961 0.0
C548 C 0.57109 0.3138 0.43653 0.0
C549 C 0.55778 0.29632 0.44499 0.0
C550 C 0.57427 0.32472 0.48604 0.0
C551 C 0.54633 0.3343 0.62231 0.0
H552 H 0.59166 0.37356 0.62746 0.0
C553 C 0.53942 0.41125 0.67455 0.0
C554 C 0.55439 0.42198 0.70378 0.0
C555 C 0.54139 0.39269 0.66002 0.0
C556 C 0.57895 0.36252 0.62797 0.0
H557 H 0.53872 0.27547 0.51314 0.0
H558 H 0.54454 0.29443 0.60098 0.0
H559 H 0.5944 0.34512 0.57575 0.0
H560 H 0.58294 0.42139 0.74266 0.0
H561 H 0.58634 0.38873 0.71801 0.0
H562 H 0.53086 0.3517 0.67435 0.0
C563 C 0.55225 0.29991 0.55554 0.0
C564 C 0.58048 0.34628 0.5976 0.0
C565 C 0.54906 0.28893 0.50562 0.0
C566 C 0.57125 0.41354 0.71942 0.0
C567 C 0.57318 0.39484 0.70531 0.0
C568 C 0.54486 0.3504 0.65335 0.0
C569 C 0.5642 0.3184 0.54538 0.0
C570 C 0.56396 0.33249 0.5916 0.0
C571 C 0.55834 0.38425 0.6748 0.0
C572 C 0.56091 0.36522 0.65383 0.0
H573 H 0.57804 0.31972 0.39011 0.0
H574 H 0.58343 0.33891 0.47584 0.0
H575 H 0.53325 0.32407 0.61871 0.0
H576 H 0.52637 0.41749 0.66101 0.0
H577 H 0.52986 0.38528 0.63507 0.0
C578 C 0.21402 0.5085 0.71583 0.0
C579 C 0.21148 0.48881 0.70598 0.0
C580 C 0.20016 0.51524 0.75258 0.0
C581 C 0.16097 0.52797 0.77533 0.0
H582 H 0.12618 0.49351 0.9028 0.0
C583 C 0.07961 0.53418 0.79646 0.0
C584 C 0.06906 0.52701 0.85433 0.0
C585 C 0.09947 0.53287 0.79098 0.0
C586 C 0.13583 0.50363 0.8682 0.0
H587 H 0.19344 0.46044 0.72912 0.0
H588 H 0.16926 0.47196 0.79231 0.0
H589 H 0.15776 0.48478 0.87864 0.0
H590 H 0.07132 0.51416 0.95314 0.0
H591 H 0.10604 0.51269 0.94446 0.0
H592 H 0.13916 0.54696 0.7655 0.0
C593 C 0.18195 0.48231 0.77344 0.0
C594 C 0.15393 0.49844 0.85366 0.0
C595 C 0.19582 0.47562 0.73717 0.0
C596 C 0.07901 0.5196 0.9076 0.0
C597 C 0.09893 0.51863 0.90246 0.0
C598 C 0.14299 0.53334 0.79062 0.0
C599 C 0.18345 0.5024 0.77932 0.0
C600 C 0.1664 0.51008 0.80506 0.0
C601 C 0.10935 0.52467 0.84357 0.0
C602 C 0.12982 0.52084 0.83536 0.0
H603 H 0.22588 0.51896 0.69133 0.0
H604 H 0.202 0.53072 0.75704 0.0
H605 H 0.17006 0.53734 0.73744 0.0
H606 H 0.07234 0.53985 0.75446 0.0
H607 H 0.10679 0.53741 0.74452 0.0
C608 C 0.04112 0.81187 0.11925 0.0
C609 C 0.02275 0.80088 0.11473 0.0
C610 C 0.04643 0.83016 0.08066 0.0
C611 C 0.03156 0.86566 0.94723 0.0
H612 H 0.04374 0.90339 0.06286 0.0
C613 C 0.0115 0.9437 0.89672 0.0
C614 C 0.023 0.9595 0.91861 0.0
C615 C 0.01575 0.92452 0.91148 0.0
C616 C 0.0408 0.8932 0.02927 0.0
H617 H 0.99626 0.79937 0.06297 0.0
H618 H 0.0056 0.83113 0.9944 0.0
H619 H 0.04472 0.86864 0.09945 0.0
H620 H 0.0484 0.96746 0.97194 0.0
H621 H 0.05602 0.93383 0.99721 0.0
H622 H 0.02722 0.89021 0.87741 0.0
C623 C 0.01601 0.82567 0.02739 0.0
C624 C 0.04137 0.87319 0.05032 0.0
C625 C 0.01068 0.80738 0.06624 0.0
C626 C 0.03914 0.95563 0.95478 0.0
C627 C 0.04347 0.93633 0.96934 0.0
C628 C 0.03117 0.88572 0.92592 0.0
C629 C 0.03341 0.83776 0.03697 0.0
C630 C 0.03622 0.85912 0.01016 0.0
C631 C 0.03173 0.92049 0.94821 0.0
C632 C 0.03516 0.89968 0.96735 0.0
H633 H 0.0505 0.80728 0.15713 0.0
H634 H 0.06004 0.83901 0.0885 0.0
H635 H 0.02769 0.85521 0.91501 0.0
H636 H 0.99893 0.94603 0.86872 0.0
H637 H 0.00608 0.91276 0.89546 0.0
C638 C 0.71261 1.00247 0.02389 0.0
C639 C 0.71295 0.98207 0.03322 0.0
C640 C 0.69922 0.01069 0.98363 0.0
C641 C 0.65903 0.99932 0.8741 0.0
H642 H 0.63166 0.02906 0.97737 0.0
C643 C 0.57647 1.00111 0.86429 0.0
C644 C 0.56891 0.01794 0.87694 0.0
C645 C 0.59638 1.0001 0.86799 0.0
C646 C 0.63923 0.02119 0.94686 0.0
H647 H 0.70102 0.95451 0.00401 0.0
H648 H 0.67759 0.96872 0.93383 0.0
H649 H 0.66381 0.02205 0.00537 0.0
H650 H 0.57654 0.04733 0.90025 0.0
H651 H 0.61132 0.04571 0.90579 0.0
H652 H 0.63394 0.99788 0.817 0.0
C653 C 0.68775 0.97853 0.95652 0.0
C654 C 0.6578 0.01718 0.96289 0.0
C655 C 0.70125 0.97035 0.99647 0.0
C656 C 0.58183 0.03405 0.89101 0.0
C657 C 0.60178 0.03309 0.89434 0.0
C658 C 0.64041 1.0034 0.85786 0.0
C659 C 0.68576 0.99857 0.95288 0.0
C660 C 0.66775 0.00576 0.92778 0.0
C661 C 0.60927 0.01596 0.88405 0.0
C662 C 0.63007 0.01393 0.89515 0.0
H663 H 0.72133 0.01172 0.05252 0.0
H664 H 0.69834 0.02626 0.98078 0.0
H665 H 0.66637 0.99064 0.84571 0.0
H666 H 0.56696 0.98844 0.85303 0.0
H667 H 0.60151 0.98657 0.86062 0.0
C668 C 0.46608 0.74236 0.22831 0.0
C669 C 0.45609 0.73606 0.28753 0.0
C670 C 0.46251 0.7314 0.17855 0.0
C671 C 0.43055 0.68797 0.1321 0.0
H672 H 0.47935 0.67538 0.06969 0.0
C673 C 0.44097 0.61114 0.0836 0.0
C674 C 0.45342 0.6092 0.03268 0.0
C675 C 0.43859 0.62975 0.09705 0.0
C676 C 0.46555 0.67897 0.08539 0.0
H677 H 0.43354 0.71461 0.34015 0.0
H678 H 0.42727 0.69552 0.25427 0.0
H679 H 0.47944 0.70392 0.12315 0.0
H680 H 0.47228 0.62551 0.95375 0.0
H681 H 0.46849 0.65802 0.97854 0.0
H682 H 0.41687 0.66214 0.09787 0.0
C683 C 0.43773 0.70887 0.24517 0.0
C684 C 0.46557 0.69543 0.1159 0.0
C685 C 0.44135 0.71975 0.29465 0.0
C686 C 0.4629 0.62641 0.99418 0.0
C687 C 0.46065 0.64505 0.00805 0.0
C688 C 0.43055 0.67143 0.10201 0.0
C689 C 0.44885 0.71403 0.18745 0.0
C690 C 0.44816 0.69967 0.14193 0.0
C691 C 0.4487 0.64689 0.06025 0.0
C692 C 0.44814 0.66635 0.08051 0.0
H693 H 0.4776 0.75486 0.22206 0.0
H694 H 0.47114 0.73591 0.13438 0.0
H695 H 0.41684 0.69105 0.15044 0.0
H696 H 0.43366 0.59828 0.1149 0.0
H697 H 0.42953 0.63067 0.13827 0.0
C698 C 0.80735 0.54391 0.96969 0.0
C699 C 0.79791 0.53363 0.0265 0.0
C700 C 0.82079 0.53537 0.93719 0.0
C701 C 0.8551 0.50108 0.98387 0.0
H702 H 0.8732 0.51515 0.80688 0.0
C703 C 0.93198 0.48999 0.9083 0.0
C704 C 0.94272 0.50655 0.87032 0.0
C705 C 0.91173 0.48843 0.91603 0.0
C706 C 0.86832 0.51107 0.85648 0.0
H707 H 0.79328 0.50577 0.0902 0.0
H708 H 0.81608 0.49046 0.03213 0.0
H709 H 0.8406 0.52059 0.83847 0.0
H710 H 0.94037 0.53387 0.80747 0.0
H711 H 0.90534 0.53136 0.82209 0.0
H712 H 0.88299 0.49252 0.00281 0.0
C713 C 0.81361 0.50529 0.01345 0.0
C714 C 0.84962 0.51415 0.87452 0.0
C715 C 0.80035 0.51392 0.04625 0.0
C716 C 0.93263 0.52096 0.83753 0.0
C717 C 0.91243 0.51943 0.84541 0.0
C718 C 0.87373 0.49804 0.96592 0.0
C719 C 0.82492 0.51636 0.96099 0.0
C720 C 0.843 0.50971 0.93881 0.0
C721 C 0.90176 0.50341 0.88608 0.0
C722 C 0.88082 0.50355 0.90236 0.0
H723 H 0.80589 0.55924 0.95417 0.0
H724 H 0.82924 0.54438 0.89714 0.0
H725 H 0.85074 0.49783 0.03402 0.0
H726 H 0.93925 0.47851 0.9337 0.0
H727 H 0.90393 0.47573 0.94686 0.0
C728 C 0.99069 0.23024 0.36503 0.0
C729 C 0.00687 0.24321 0.37916 0.0
C730 C 0.99276 0.21653 0.32456 0.0
C731 C 0.02615 0.20113 0.20841 0.0
H732 H 0.99902 0.14903 0.27579 0.0
C733 C 0.04207 0.12996 0.11553 0.0
C734 C 0.02623 0.11512 0.11194 0.0
C735 C 0.03965 0.14659 0.14328 0.0
C736 C 0.0065 0.1635 0.25555 0.0
H737 H 0.03771 0.25273 0.35925 0.0
H738 H 0.04142 0.22867 0.28825 0.0
H739 H 0.99471 0.1767 0.32919 0.0
H740 H 0.99534 0.10638 0.13498 0.0
H741 H 0.99105 0.13542 0.18161 0.0
H742 H 0.03807 0.18771 0.13492 0.0
C743 C 0.02706 0.22921 0.30807 0.0
C744 C 0.004 0.17945 0.28627 0.0
C745 C 0.02495 0.24307 0.34851 0.0
C746 C 0.00786 0.11753 0.13616 0.0
C747 C 0.00544 0.13413 0.16377 0.0
C748 C 0.02863 0.18511 0.17746 0.0
C749 C 0.01111 0.21527 0.29754 0.0
C750 C 0.01372 0.19851 0.26311 0.0
C751 C 0.02132 0.14883 0.16829 0.0
C752 C 0.01878 0.16606 0.20058 0.0
H753 H 0.97658 0.23006 0.38796 0.0
H754 H 0.98005 0.2064 0.3163 0.0
H755 H 0.03379 0.2156 0.18902 0.0
H756 H 0.05638 0.1288 0.0967 0.0
H757 H 0.05225 0.15749 0.14629 0.0
C758 C 0.31194 0.08906 0.39922 0.0
C759 C 0.31787 0.09333 0.459 0.0
C760 C 0.32552 0.09141 0.34809 0.0
C761 C 0.37624 0.11325 0.29233 0.0
H762 H 0.37371 0.06785 0.20533 0.0
C763 C 0.44262 0.09416 0.15988 0.0
C764 C 0.43963 0.08558 0.10449 0.0
C765 C 0.42683 0.09793 0.19554 0.0
C766 C 0.37448 0.08083 0.22819 0.0
H767 H 0.34237 0.10469 0.51088 0.0
H768 H 0.36607 0.10857 0.4222 0.0
H769 H 0.34745 0.07002 0.28011 0.0
H770 H 0.41775 0.07514 0.04137 0.0
H771 H 0.39019 0.08174 0.10352 0.0
H772 H 0.40358 0.12378 0.24149 0.0
C773 C 0.35097 0.10347 0.4145 0.0
C774 C 0.35938 0.08209 0.27109 0.0
C775 C 0.33742 0.10106 0.46555 0.0
C776 C 0.42052 0.08144 0.08446 0.0
C777 C 0.40473 0.08522 0.12005 0.0
C778 C 0.39136 0.112 0.24935 0.0
C779 C 0.34529 0.09817 0.35564 0.0
C780 C 0.36024 0.09813 0.30456 0.0
C781 C 0.40767 0.09323 0.17657 0.0
C782 C 0.39082 0.09559 0.21762 0.0
H783 H 0.29699 0.08301 0.39279 0.0
H784 H 0.32064 0.08745 0.30309 0.0
H785 H 0.37721 0.12594 0.31667 0.0
H786 H 0.45713 0.09731 0.17706 0.0
H787 H 0.42961 0.10384 0.23929 0.0
C788 C 0.53768 0.31485 0.17637 0.0
C789 C 0.52814 0.30774 0.23591 0.0
C790 C 0.53167 0.33072 0.13655 0.0
C791 C 0.50753 0.37359 0.15244 0.0
H792 H 0.51053 0.38265 0.96771 0.0
C793 C 0.49028 0.446 0.01038 0.0
C794 C 0.50367 0.45489 0.96033 0.0
C795 C 0.49059 0.42653 0.03899 0.0
C796 C 0.50969 0.38032 0.01932 0.0
H797 H 0.50413 0.31033 0.29898 0.0
H798 H 0.49318 0.33755 0.22887 0.0
H799 H 0.51549 0.35055 0.02576 0.0
H800 H 0.52747 0.45002 0.89956 0.0
H801 H 0.52816 0.41623 0.95005 0.0
H802 H 0.50221 0.40335 0.14647 0.0
C803 C 0.5056 0.33137 0.21337 0.0
C804 C 0.51252 0.36196 0.05251 0.0
C805 C 0.51173 0.31571 0.25325 0.0
C806 C 0.51698 0.44368 0.93822 0.0
C807 C 0.51728 0.42422 0.9668 0.0
C808 C 0.50468 0.39186 0.1194 0.0
C809 C 0.51597 0.33959 0.15574 0.0
C810 C 0.51162 0.35845 0.11951 0.0
C811 C 0.50429 0.41551 0.01816 0.0
C812 C 0.50591 0.39553 0.05251 0.0
H813 H 0.55048 0.30896 0.16249 0.0
H814 H 0.54004 0.33677 0.09265 0.0
H815 H 0.50719 0.37159 0.20403 0.0
H816 H 0.47973 0.45416 0.0282 0.0
H817 H 0.4802 0.42014 0.07789 0.0
C818 C 0.20554 0.45705 0.45725 0.0
C819 C 0.208 0.47412 0.48599 0.0
C820 C 0.19306 0.45563 0.40668 0.0
C821 C 0.16603 0.48557 0.28804 0.0
H822 H 0.12852 0.43788 0.30313 0.0
C823 C 0.09039 0.48401 0.1851 0.0
C824 C 0.08312 0.46823 0.154 0.0
C825 C 0.10784 0.48394 0.21638 0.0
C826 C 0.1391 0.45115 0.2976 0.0
H827 H 0.20025 0.50343 0.48223 0.0
H828 H 0.17838 0.5009 0.39519 0.0
H829 H 0.15588 0.43925 0.37354 0.0
H830 H 0.08839 0.44004 0.13093 0.0
H831 H 0.11895 0.43977 0.18687 0.0
H832 H 0.14873 0.49775 0.2141 0.0
C833 C 0.18609 0.48863 0.41101 0.0
C834 C 0.1548 0.45194 0.33779 0.0
C835 C 0.19846 0.49001 0.46143 0.0
C836 C 0.09372 0.4524 0.15446 0.0
C837 C 0.11111 0.45221 0.1866 0.0
C838 C 0.15029 0.48482 0.24826 0.0
C839 C 0.18295 0.4713 0.3837 0.0
C840 C 0.16814 0.46936 0.33466 0.0
C841 C 0.11834 0.46802 0.21777 0.0
C842 C 0.13638 0.4678 0.25381 0.0
H843 H 0.21267 0.44455 0.47542 0.0
H844 H 0.19107 0.44215 0.38627 0.0
H845 H 0.17627 0.49906 0.28347 0.0
H846 H 0.0826 0.49648 0.18492 0.0
H847 H 0.11294 0.49622 0.24063 0.0
C848 C 0.97899 0.80976 0.31116 0.0
C849 C 0.99223 0.79647 0.32768 0.0
C850 C 0.97554 0.82334 0.35067 0.0
C851 C 0.98245 0.83745 0.51142 0.0
H852 H 0.98255 0.8901 0.41812 0.0
C853 C 0.98674 0.9072 0.6353 0.0
C854 C 0.97584 0.92205 0.61024 0.0
C855 C 0.98809 0.89101 0.60413 0.0
C856 C 0.98219 0.87548 0.44512 0.0
H857 H 0.01153 0.78629 0.40001 0.0
H858 H 0.00552 0.81014 0.46977 0.0
H859 H 0.98526 0.86298 0.36031 0.0
H860 H 0.95781 0.93125 0.53226 0.0
H861 H 0.95973 0.90293 0.47916 0.0
H862 H 0.97942 0.85011 0.59641 0.0
C863 C 0.99768 0.80994 0.4263 0.0
C864 C 0.98375 0.85986 0.41184 0.0
C865 C 1.00108 0.79622 0.38659 0.0
C866 C 0.96618 0.92009 0.55353 0.0
C867 C 0.9675 0.90391 0.52249 0.0
C868 C 0.98082 0.85314 0.54488 0.0
C869 C 0.98538 0.82413 0.40764 0.0
C870 C 0.98376 0.84059 0.44437 0.0
C871 C 0.9786 0.8892 0.54699 0.0
C872 C 0.98055 0.87237 0.5121 0.0
H873 H 0.97196 0.81024 0.266 0.0
H874 H 0.96561 0.83368 0.33547 0.0
H875 H 0.98233 0.82281 0.53802 0.0
H876 H 0.99419 0.90803 0.67929 0.0
H877 H 0.9969 0.8801 0.62427 0.0
C878 C 0.69156 0.94072 0.30125 0.0
C879 C 0.69779 0.95894 0.2623 0.0
C880 C 0.67647 0.93892 0.34758 0.0
C881 C 0.63373 0.96204 0.37723 0.0
H882 H 0.63396 0.93623 0.55247 0.0
C883 C 0.57905 0.97408 0.5663 0.0
C884 C 0.57098 0.95809 0.61243 0.0
C885 C 0.59414 0.97222 0.52448 0.0
C886 C 0.63357 0.94321 0.50338 0.0
H887 H 0.6942 0.98982 0.24478 0.0
H888 H 0.66794 0.98665 0.32487 0.0
H889 H 0.66189 0.93665 0.47952 0.0
H890 H 0.5724 0.92753 0.65068 0.0
H891 H 0.59879 0.92418 0.57658 0.0
H892 H 0.6056 0.96867 0.40035 0.0
C893 C 0.67437 0.97368 0.31884 0.0
C894 C 0.64956 0.94348 0.46178 0.0
C895 C 0.68943 0.97549 0.27307 0.0
C896 C 0.57826 0.94008 0.61538 0.0
C897 C 0.59347 0.93822 0.57341 0.0
C898 C 0.61779 0.96167 0.41846 0.0
C899 C 0.66736 0.95529 0.35535 0.0
C900 C 0.64996 0.95333 0.39872 0.0
C901 C 0.60154 0.95428 0.52738 0.0
C902 C 0.61769 0.95269 0.48243 0.0
H903 H 0.69769 0.92769 0.29387 0.0
H904 H 0.67135 0.92458 0.37522 0.0
H905 H 0.63344 0.96932 0.32842 0.0
H906 H 0.57362 0.98808 0.56217 0.0
H907 H 0.60018 0.98497 0.49024 0.0
C908 C 0.47627 0.71651 0.55782 0.0
C909 C 0.48521 0.72278 0.49694 0.0
C910 C 0.48223 0.70073 0.59826 0.0
C911 C 0.50529 0.65685 0.58534 0.0
H912 H 0.50467 0.65037 0.76986 0.0
C913 C 0.52466 0.58634 0.73295 0.0
C914 C 0.51172 0.5778 0.78456 0.0
C915 C 0.52398 0.60557 0.70268 0.0
C916 C 0.50485 0.65198 0.71833 0.0
H917 H 0.50818 0.71878 0.432 0.0
H918 H 0.51905 0.69176 0.50305 0.0
H919 H 0.49916 0.68185 0.70869 0.0
H920 H 0.48844 0.58308 0.84666 0.0
H921 H 0.48713 0.61649 0.79335 0.0
H922 H 0.51059 0.62701 0.59462 0.0
C923 C 0.50707 0.69846 0.51914 0.0
C924 C 0.50168 0.66998 0.68335 0.0
C925 C 0.50098 0.71401 0.47864 0.0
C926 C 0.49857 0.58916 0.80676 0.0
C927 C 0.49791 0.60839 0.77655 0.0
C928 C 0.5085 0.63896 0.62016 0.0
C929 C 0.49732 0.69114 0.57844 0.0
C930 C 0.50176 0.67257 0.6164 0.0
C931 C 0.51035 0.61668 0.7234 0.0
C932 C 0.50819 0.63624 0.68703 0.0
H933 H 0.464 0.72305 0.57259 0.0
H934 H 0.47434 0.69539 0.64346 0.0
H935 H 0.50497 0.65812 0.53396 0.0
H936 H 0.53507 0.57806 0.71497 0.0
H937 H 0.53395 0.61167 0.6624 0.0
C938 C 0.81713 0.54663 0.25762 0.0
C939 C 0.81004 0.56282 0.22249 0.0
C940 C 0.83092 0.5494 0.30338 0.0
C941 C 0.86926 0.58702 0.34628 0.0
H942 H 0.87118 0.54729 0.49495 0.0
C943 C 0.92928 0.59006 0.53535 0.0
C944 C 0.93742 0.57251 0.54983 0.0
C945 C 0.91296 0.59068 0.4978 0.0
C946 C 0.87082 0.55851 0.4536 0.0
H947 H 0.81131 0.59458 0.20981 0.0
H948 H 0.8351 0.5994 0.29132 0.0
H949 H 0.84288 0.54527 0.4291 0.0
H950 H 0.93535 0.54223 0.53286 0.0
H951 H 0.9067 0.54324 0.46924 0.0
H952 H 0.89734 0.60019 0.37142 0.0
C953 C 0.83023 0.58457 0.28244 0.0
C954 C 0.85465 0.55733 0.41573 0.0
C955 C 0.81642 0.5818 0.23631 0.0
C956 C 0.92919 0.55584 0.5243 0.0
C957 C 0.9128 0.5564 0.48765 0.0
C958 C 0.88538 0.58831 0.38473 0.0
C959 C 0.8379 0.56842 0.31573 0.0
C960 C 0.85388 0.57125 0.36057 0.0
C961 C 0.90436 0.57373 0.47472 0.0
C962 C 0.88651 0.57376 0.43776 0.0
H963 H 0.81232 0.53179 0.24866 0.0
H964 H 0.83663 0.53661 0.32735 0.0
H965 H 0.86928 0.5979 0.30386 0.0
H966 H 0.93514 0.60314 0.55457 0.0
H967 H 0.90671 0.60423 0.48841 0.0
loop_
_geom_bond_atom_site_label_1
_geom_bond_atom_site_label_2
_geom_bond_distance
_geom_bond_site_symmetry_2
_ccdc_geom_bond_type
H0 C3 0.929 . S
H1 C6 0.929 . S
H2 C8 0.930 . S
C3 H0 0.929 . S
C3 C4 1.398 . S
C3 C5 1.396 1_554 S
C4 C3 1.398 . S
C4 C8 1.407 . S
C5 C3 1.396 1_556 S
C5 C6 1.394 . S
C6 H1 0.929 . S
C6 C5 1.394 . S
C6 C7 1.382 1_556 S
C7 C6 1.382 1_554 S
C7 C8 1.392 . S
C7 N9 1.420 . S
C8 H2 0.930 . S
C8 C4 1.407 . S
C8 C7 1.392 . S
N9 C7 1.420 . S
N9 C10 1.244 1_554 S
C10 N9 1.244 1_556 S
H11 C14 0.929 . S
H12 C17 0.922 1_455 S
H13 C19 0.928 1_455 S
C14 H11 0.929 . S
C14 C15 1.398 . S
C14 C16 1.396 . S
C15 C14 1.398 . S
C15 C19 1.410 . S
C16 C14 1.396 . S
C16 C17 1.413 . S
C17 H12 0.922 1_655 S
C17 C16 1.413 . S
C17 C18 1.371 1_655 S
C18 C17 1.371 1_455 S
C18 C19 1.391 1_455 S
C18 N20 1.424 . S
C19 H13 0.928 1_655 S
C19 C15 1.410 . S
C19 C18 1.391 1_655 S
N20 C18 1.424 . S
N20 C21 1.244 1_455 S
C21 N20 1.244 1_655 S
H22 C25 0.929 . S
H23 C28 0.929 . S
H24 C30 0.930 . S
C25 H22 0.929 . S
C25 C26 1.398 . S
C25 C27 1.396 . S
C26 C25 1.398 . S
C26 C30 1.407 . S
C27 C25 1.396 . S
C27 C28 1.394 . S
C28 H23 0.929 . S
C28 C27 1.394 . S
C28 C29 1.382 . S
C29 C28 1.382 . S
C29 C30 1.392 . S
C29 N31 1.420 . S
C30 H24 0.930 . S
C30 C26 1.407 . S
C30 C29 1.392 . S
N31 C29 1.420 . S
N31 C32 1.244 . S
C32 N31 1.244 . S
H33 C36 0.929 . S
H34 C39 0.929 . S
H35 C41 0.930 . S
C36 H33 0.929 . S
C36 C37 1.398 . S
C36 C38 1.396 . S
C37 C36 1.398 . S
C37 C41 1.407 . S
C38 C36 1.396 . S
C38 C39 1.394 . S
C39 H34 0.929 . S
C39 C38 1.394 . S
C39 C40 1.382 . S
C40 C39 1.382 . S
C40 C41 1.392 . S
C40 N42 1.420 . S
C41 H35 0.930 . S
C41 C37 1.407 . S
C41 C40 1.392 . S
N42 C40 1.420 . S
N42 C43 1.244 . S
C43 N42 1.244 . S
H44 C47 0.929 . S
H45 C50 0.929 . S
H46 C52 0.930 . S
C47 H44 0.929 . S
C47 C48 1.398 . S
C47 C49 1.396 . S
C48 C47 1.398 . S
C48 C52 1.407 . S
C49 C47 1.396 . S
C49 C50 1.394 . S
C50 H45 0.929 . S
C50 C49 1.394 . S
C50 C51 1.382 . S
C51 C50 1.382 . S
C51 C52 1.392 . S
C51 N53 1.420 . S
C52 H46 0.930 . S
C52 C48 1.407 . S
C52 C51 1.392 . S
N53 C51 1.420 . S
N53 C54 1.244 . S
C54 N53 1.244 . S
H55 C58 0.929 . S
H56 C61 0.929 . S
H57 C63 0.930 . S
C58 H55 0.929 . S
C58 C59 1.398 . S
C58 C60 1.396 . S
C59 C58 1.398 . S
C59 C63 1.407 . S
C60 C58 1.396 . S
C60 C61 1.394 . S
C61 H56 0.929 . S
C61 C60 1.394 . S
C61 C62 1.382 . S
C62 C61 1.382 . S
C62 C63 1.392 . S
C62 N64 1.420 . S
C63 H57 0.930 . S
C63 C59 1.407 . S
C63 C62 1.392 . S
N64 C62 1.420 . S
N64 C65 1.244 . S
C65 N64 1.244 . S
H66 C69 0.929 . S
H67 C72 0.929 . S
H68 C74 0.930 . S
C69 H66 0.929 . S
C69 C70 1.398 . S
C69 C71 1.396 . S
C70 C69 1.398 . S
C70 C74 1.407 . S
C71 C69 1.396 . S
C71 C72 1.394 . S
C72 H67 0.929 . S
C72 C71 1.394 . S
C72 C73 1.382 . S
C73 C72 1.382 . S
C73 C74 1.392 . S
C73 N75 1.420 . S
C74 H68 0.930 . S
C74 C70 1.407 . S
C74 C73 1.392 . S
N75 C73 1.420 . S
N75 C76 1.244 . S
C76 N75 1.244 . S
H77 C80 0.929 . S
H78 C83 0.929 . S
H79 C85 0.930 . S
C80 H77 0.929 . S
C80 C81 1.398 . S
C80 C82 1.396 . S
C81 C80 1.398 . S
C81 C85 1.407 . S
C82 C80 1.396 . S
C82 C83 1.394 . S
C83 H78 0.929 . S
C83 C82 1.394 . S
C83 C84 1.382 . S
C84 C83 1.382 . S
C84 C85 1.392 . S
C84 N86 1.420 . S
C85 H79 0.930 . S
C85 C81 1.407 . S
C85 C84 1.392 . S
N86 C84 1.420 . S
N86 C87 1.244 . S
C87 N86 1.244 . S
Nd88 C90 2.836 1_445 S
Nd88 O108 2.500 1_445 S
Nd88 O109 2.492 1_545 S
Nd88 O110 2.487 . S
Nd88 O111 2.682 . S
Nd88 O112 2.410 1_545 S
Nd88 O117 2.414 1_455 S
Nd88 O119 2.424 . S
Nd89 C99 2.836 1_556 S
Nd89 O111 2.414 . S
Nd89 O113 2.424 1_545 S
Nd89 O114 2.500 . S
Nd89 O115 2.492 1_456 S
Nd89 O116 2.487 1_455 S
Nd89 O117 2.682 1_455 S
Nd89 O118 2.410 1_455 S
C90 Nd88 2.836 1_665 S
C90 C91 1.498 . S
C90 O108 1.258 . S
C90 O109 1.239 1_655 S
C91 C90 1.498 . S
C91 C92 1.366 . S
C91 C96 1.407 1_655 S
C92 C91 1.366 . S
C92 C93 1.392 . S
C92 H120 0.930 . S
C93 C92 1.392 . S
C93 C94 1.398 . S
C93 H121 0.929 . S
C94 C93 1.398 . S
C94 C95 1.352 1_655 S
C95 C94 1.352 1_455 S
C95 C96 1.384 . S
C95 H122 0.930 . S
C96 C91 1.407 1_455 S
C96 C95 1.384 . S
C96 H123 0.929 . S
C97 O110 1.241 . S
C97 O111 1.273 . S
C98 O112 1.251 . S
C98 O113 1.268 . S
C99 Nd89 2.836 1_554 S
C99 C100 1.498 . S
C99 O114 1.258 1_554 S
C99 O115 1.239 1_455 S
C100 C99 1.498 . S
C100 C101 1.366 . S
C100 C105 1.407 1_455 S
C101 C100 1.366 . S
C101 C102 1.392 . S
C101 H124 0.929 1_554 S
C102 C101 1.392 . S
C102 C103 1.398 . S
C102 H125 0.929 . S
C103 C102 1.398 . S
C103 C104 1.376 . S
C104 C103 1.376 . S
C104 C105 1.384 1_455 S
C104 H126 0.907 1_455 S
C105 C100 1.407 1_655 S
C105 C104 1.384 1_655 S
C105 H127 0.929 . S
C106 O116 1.241 . S
C106 O117 1.273 . S
C107 O118 1.251 1_455 S
C107 O119 1.268 . S
O108 Nd88 2.500 1_665 S
O108 C90 1.258 . S
O109 Nd88 2.492 1_565 S
O109 C90 1.239 1_455 S
O110 Nd88 2.487 . S
O110 C97 1.241 . S
O111 Nd88 2.682 . S
O111 Nd89 2.414 . S
O111 C97 1.273 . S
O112 Nd88 2.410 1_565 S
O112 C98 1.251 . S
O113 Nd89 2.424 1_565 S
O113 C98 1.268 . S
O114 Nd89 2.500 . S
O114 C99 1.258 1_556 S
O115 Nd89 2.492 1_654 S
O115 C99 1.239 1_655 S
O116 Nd89 2.487 1_655 S
O116 C106 1.241 . S
O117 Nd88 2.414 1_655 S
O117 Nd89 2.682 1_655 S
O117 C106 1.273 . S
O118 Nd89 2.410 1_655 S
O118 C107 1.251 1_655 S
O119 Nd88 2.424 . S
O119 C107 1.268 . S
H120 C92 0.930 . S
H121 C93 0.929 . S
H122 C95 0.930 . S
H123 C96 0.929 . S
H124 C101 0.929 1_556 S
H125 C102 0.929 . S
H126 C104 0.907 1_655 S
H127 C105 0.929 . S
Nd128 C130 2.836 1_545 S
Nd128 O148 2.500 1_545 S
Nd128 O149 2.492 . S
Nd128 O150 2.487 . S
Nd128 O151 2.682 . S
Nd128 O152 2.410 . S
Nd128 O157 2.414 1_545 S
Nd128 O159 2.424 . S
Nd129 C139 2.836 1_556 S
Nd129 O151 2.414 . S
Nd129 O153 2.424 . S
Nd129 O154 2.500 . S
Nd129 O155 2.492 1_556 S
Nd129 O156 2.487 1_545 S
Nd129 O157 2.682 1_545 S
Nd129 O158 2.410 . S
C130 Nd128 2.836 1_565 S
C130 C131 1.498 . S
C130 O148 1.258 . S
C130 O149 1.239 1_565 S
C131 C130 1.498 . S
C131 C132 1.366 . S
C131 C136 1.407 . S
C132 C131 1.366 . S
C132 C133 1.392 . S
C132 H160 0.930 . S
C133 C132 1.392 . S
C133 C134 1.398 . S
C133 H161 0.929 . S
C134 C133 1.398 . S
C134 C135 1.352 . S
C135 C134 1.352 . S
C135 C136 1.384 . S
C135 H162 0.930 . S
C136 C131 1.407 . S
C136 C135 1.384 . S
C136 H163 0.929 1_565 S
C137 O150 1.241 . S
C137 O151 1.273 . S
C138 O152 1.251 . S
C138 O153 1.268 . S
C139 Nd129 2.836 1_554 S
C139 C140 1.498 . S
C139 O154 1.258 1_554 S
C139 O155 1.239 . S
C140 C139 1.498 . S
C140 C141 1.366 . S
C140 C145 1.407 . S
C141 C140 1.366 . S
C141 C142 1.392 . S
C141 H164 0.930 1_554 S
C142 C141 1.392 . S
C142 C143 1.398 . S
C142 H165 0.929 . S
C143 C142 1.398 . S
C143 C144 1.352 . S
C144 C143 1.352 . S
C144 C145 1.384 . S
C144 H166 0.930 . S
C145 C140 1.407 . S
C145 C144 1.384 . S
C145 H167 0.929 . S
C146 O156 1.241 . S
C146 O157 1.273 . S
C147 O158 1.251 . S
C147 O159 1.268 . S
O148 Nd128 2.500 1_565 S
O148 C130 1.258 . S
O149 Nd128 2.492 . S
O149 C130 1.239 1_545 S
O150 Nd128 2.487 . S
O150 C137 1.241 . S
O151 Nd128 2.682 . S
O151 Nd129 2.414 . S
O151 C137 1.273 . S
O152 Nd128 2.410 . S
O152 C138 1.251 . S
O153 Nd129 2.424 . S
O153 C138 1.268 . S
O154 Nd129 2.500 . S
O154 C139 1.258 1_556 S
O155 Nd129 2.492 1_554 S
O155 C139 1.239 . S
O156 Nd129 2.487 1_565 S
O156 C146 1.241 . S
O157 Nd128 2.414 1_565 S
O157 Nd129 2.682 1_565 S
O157 C146 1.273 . S
O158 Nd129 2.410 . S
O158 C147 1.251 . S
O159 Nd128 2.424 . S
O159 C147 1.268 . S
H160 C132 0.930 . S
H161 C133 0.929 . S
H162 C135 0.930 . S
H163 C136 0.929 1_545 S
H164 C141 0.930 1_556 S
H165 C142 0.929 . S
H166 C144 0.930 . S
H167 C145 0.929 . S
Nd168 C170 2.836 . S
Nd168 O188 2.500 . S
Nd168 O189 2.492 . S
Nd168 O190 2.487 . S
Nd168 O191 2.682 . S
Nd168 O192 2.410 . S
Nd168 O197 2.414 . S
Nd168 O199 2.424 . S
Nd169 C179 2.836 . S
Nd169 O191 2.414 . S
Nd169 O193 2.424 . S
Nd169 O194 2.500 . S
Nd169 O195 2.492 . S
Nd169 O196 2.487 . S
Nd169 O197 2.682 . S
Nd169 O198 2.410 . S
C170 Nd168 2.836 . S
C170 C171 1.498 1_556 S
C170 O188 1.258 . S
C170 O189 1.239 . S
C171 C170 1.498 1_554 S
C171 C172 1.366 1_554 S
C171 C176 1.407 . S
C172 C171 1.366 1_556 S
C172 C173 1.392 1_556 S
C172 H200 0.930 . S
C173 C172 1.392 1_554 S
C173 C174 1.398 . S
C173 H201 0.929 1_554 S
C174 C173 1.398 . S
C174 C175 1.352 . S
C175 C174 1.352 . S
C175 C176 1.384 . S
C175 H202 0.930 . S
C176 C171 1.407 . S
C176 C175 1.384 . S
C176 H203 0.929 . S
C177 O190 1.241 . S
C177 O191 1.273 . S
C178 O192 1.251 . S
C178 O193 1.268 . S
C179 Nd169 2.836 . S
C179 C180 1.498 . S
C179 O194 1.258 . S
C179 O195 1.239 . S
C180 C179 1.498 . S
C180 C181 1.366 . S
C180 C185 1.407 . S
C181 C180 1.366 . S
C181 C182 1.392 . S
C181 H204 0.930 . S
C182 C181 1.392 . S
C182 C183 1.398 . S
C182 H205 0.929 . S
C183 C182 1.398 . S
C183 C184 1.352 . S
C184 C183 1.352 . S
C184 C185 1.384 . S
C184 H206 0.930 . S
C185 C180 1.407 . S
C185 C184 1.384 . S
C185 H207 0.929 . S
C186 O196 1.241 . S
C186 O197 1.273 . S
C187 O198 1.251 . S
C187 O199 1.268 . S
O188 Nd168 2.500 . S
O188 C170 1.258 . S
O189 Nd168 2.492 . S
O189 C170 1.239 . S
O190 Nd168 2.487 . S
O190 C177 1.241 . S
O191 Nd168 2.682 . S
O191 Nd169 2.414 . S
O191 C177 1.273 . S
O192 Nd168 2.410 . S
O192 C178 1.251 . S
O193 Nd169 2.424 . S
O193 C178 1.268 . S
O194 Nd169 2.500 . S
O194 C179 1.258 . S
O195 Nd169 2.492 . S
O195 C179 1.239 . S
O196 Nd169 2.487 . S
O196 C186 1.241 . S
O197 Nd168 2.414 . S
O197 Nd169 2.682 . S
O197 C186 1.273 . S
O198 Nd169 2.410 . S
O198 C187 1.251 . S
O199 Nd168 2.424 . S
O199 C187 1.268 . S
H200 C172 0.930 . S
H201 C173 0.929 1_556 S
H202 C175 0.930 . S
H203 C176 0.929 . S
H204 C181 0.930 . S
H205 C182 0.929 . S
H206 C184 0.930 . S
H207 C185 0.929 . S
Nd208 C210 2.836 1_455 S
Nd208 O228 2.500 1_455 S
Nd208 O229 2.492 1_455 S
Nd208 O230 2.487 1_455 S
Nd208 O231 2.682 . S
Nd208 O232 2.410 1_455 S
Nd208 O237 2.414 . S
Nd208 O239 2.424 . S
Nd209 C219 2.836 1_556 S
Nd209 O231 2.414 . S
Nd209 O233 2.424 1_455 S
Nd209 O234 2.500 1_556 S
Nd209 O235 2.492 1_556 S
Nd209 O236 2.487 . S
Nd209 O237 2.682 . S
Nd209 O238 2.410 . S
C210 Nd208 2.836 1_655 S
C210 C211 1.498 . S
C210 O228 1.258 . S
C210 O229 1.239 . S
C211 C210 1.498 . S
C211 C212 1.366 . S
C211 C216 1.407 . S
C212 C211 1.366 . S
C212 C213 1.392 . S
C212 H240 0.930 . S
C213 C212 1.392 . S
C213 C214 1.398 . S
C213 H241 0.929 . S
C214 C213 1.398 . S
C214 C215 1.352 . S
C215 C214 1.352 . S
C215 C216 1.384 . S
C215 H242 0.930 . S
C216 C211 1.407 . S
C216 C215 1.384 . S
C216 H243 0.929 . S
C217 O230 1.241 1_455 S
C217 O231 1.273 . S
C218 O232 1.251 . S
C218 O233 1.268 . S
C219 Nd209 2.836 1_554 S
C219 C220 1.498 . S
C219 O234 1.258 . S
C219 O235 1.239 . S
C220 C219 1.498 . S
C220 C221 1.366 . S
C220 C225 1.407 . S
C221 C220 1.366 . S
C221 C222 1.392 . S
C221 H244 0.930 . S
C222 C221 1.392 . S
C222 C223 1.398 . S
C222 H245 0.929 . S
C223 C222 1.398 . S
C223 C224 1.352 . S
C224 C223 1.352 . S
C224 C225 1.384 . S
C224 H246 0.930 . S
C225 C220 1.407 . S
C225 C224 1.384 . S
C225 H247 0.929 . S
C226 O236 1.241 . S
C226 O237 1.273 . S
C227 O238 1.251 . S
C227 O239 1.268 . S
O228 Nd208 2.500 1_655 S
O228 C210 1.258 . S
O229 Nd208 2.492 1_655 S
O229 C210 1.239 . S
O230 Nd208 2.487 1_655 S
O230 C217 1.241 1_655 S
O231 Nd208 2.682 . S
O231 Nd209 2.414 . S
O231 C217 1.273 . S
O232 Nd208 2.410 1_655 S
O232 C218 1.251 . S
O233 Nd209 2.424 1_655 S
O233 C218 1.268 . S
O234 Nd209 2.500 1_554 S
O234 C219 1.258 . S
O235 Nd209 2.492 1_554 S
O235 C219 1.239 . S
O236 Nd209 2.487 . S
O236 C226 1.241 . S
O237 Nd208 2.414 . S
O237 Nd209 2.682 . S
O237 C226 1.273 . S
O238 Nd209 2.410 . S
O238 C227 1.251 . S
O239 Nd208 2.424 . S
O239 C227 1.268 . S
H240 C212 0.930 . S
H241 C213 0.929 . S
H242 C215 0.930 . S
H243 C216 0.929 . S
H244 C221 0.930 . S
H245 C222 0.929 . S
H246 C224 0.930 . S
H247 C225 0.929 . S
C248 C249 1.349 . S
C248 C250 1.327 . S
C248 H273 0.950 . S
C249 C248 1.349 . S
C249 C265 1.349 . S
C250 C248 1.327 . S
C250 C269 1.429 . S
C250 H274 0.950 . S
C251 C268 1.574 . S
C251 C270 1.368 . S
C251 H275 0.949 . S
H252 C256 0.949 . S
C253 C254 1.349 . S
C253 C255 1.327 . S
C253 H276 0.950 . S
C254 C253 1.349 . S
C254 C266 1.349 . S
C255 C253 1.327 . S
C255 C271 1.429 . S
C255 H277 0.950 . S
C256 H252 0.949 . S
C256 C264 1.574 . S
C256 C272 1.368 . S
H257 C265 0.950 . S
H258 C263 0.950 . S
H259 C264 0.949 . S
H260 C266 0.950 . S
H261 C267 0.950 . S
H262 C268 0.949 . S
C263 H258 0.950 . S
C263 C265 1.327 . S
C263 C269 1.429 . S
C264 C256 1.574 . S
C264 H259 0.949 . S
C264 C270 1.368 . S
C265 C249 1.349 . S
C265 H257 0.950 . S
C265 C263 1.327 . S
C266 C254 1.349 . S
C266 H260 0.950 . S
C266 C267 1.327 . S
C267 H261 0.950 . S
C267 C266 1.327 . S
C267 C271 1.429 . S
C268 C251 1.574 . S
C268 H262 0.949 . S
C268 C272 1.368 . S
C269 C250 1.429 . S
C269 C263 1.429 . S
C269 C270 1.523 . S
C270 C251 1.368 . S
C270 C264 1.368 . S
C270 C269 1.523 . S
C271 C255 1.429 . S
C271 C267 1.429 . S
C271 C272 1.523 . S
C272 C256 1.368 . S
C272 C268 1.368 . S
C272 C271 1.523 . S
H273 C248 0.950 . S
H274 C250 0.950 . S
H275 C251 0.949 . S
H276 C253 0.950 . S
H277 C255 0.950 . S
C278 C279 1.349 . S
C278 C280 1.327 . S
C278 H303 0.950 . S
C279 C278 1.349 . S
C279 C295 1.349 . S
C280 C278 1.327 . S
C280 C299 1.429 . S
C280 H304 0.950 . S
C281 C298 1.574 . S
C281 C300 1.368 . S
C281 H305 0.949 . S
H282 C286 0.949 . S
C283 C284 1.349 . S
C283 C285 1.327 . S
C283 H306 0.950 . S
C284 C283 1.349 . S
C284 C296 1.349 . S
C285 C283 1.327 . S
C285 C301 1.429 . S
C285 H307 0.950 . S
C286 H282 0.949 . S
C286 C294 1.574 . S
C286 C302 1.368 . S
H287 C295 0.950 . S
H288 C293 0.950 . S
H289 C294 0.949 . S
H290 C296 0.950 . S
H291 C297 0.950 . S
H292 C298 0.949 . S
C293 H288 0.950 . S
C293 C295 1.327 . S
C293 C299 1.429 . S
C294 C286 1.574 . S
C294 H289 0.949 . S
C294 C300 1.368 . S
C295 C279 1.349 . S
C295 H287 0.950 . S
C295 C293 1.327 . S
C296 C284 1.349 . S
C296 H290 0.950 . S
C296 C297 1.327 . S
C297 H291 0.950 . S
C297 C296 1.327 . S
C297 C301 1.429 . S
C298 C281 1.574 . S
C298 H292 0.949 . S
C298 C302 1.368 . S
C299 C280 1.429 . S
C299 C293 1.429 . S
C299 C300 1.523 . S
C300 C281 1.368 . S
C300 C294 1.368 . S
C300 C299 1.523 . S
C301 C285 1.429 . S
C301 C297 1.429 . S
C301 C302 1.523 . S
C302 C286 1.368 . S
C302 C298 1.368 . S
C302 C301 1.523 . S
H303 C278 0.950 . S
H304 C280 0.950 . S
H305 C281 0.949 . S
H306 C283 0.950 . S
H307 C285 0.950 . S
C308 C309 1.349 . S
C308 C310 1.327 . S
C308 H333 0.950 . S
C309 C308 1.349 . S
C309 C325 1.349 . S
C310 C308 1.327 . S
C310 C329 1.429 . S
C310 H334 0.950 . S
C311 C328 1.574 . S
C311 C330 1.368 . S
C311 H335 0.949 . S
H312 C316 0.949 . S
C313 C314 1.349 . S
C313 C315 1.327 . S
C313 H336 0.950 . S
C314 C313 1.349 . S
C314 C326 1.349 . S
C315 C313 1.327 . S
C315 C331 1.429 . S
C315 H337 0.950 . S
C316 H312 0.949 . S
C316 C324 1.574 . S
C316 C332 1.368 . S
H317 C325 0.950 . S
H318 C323 0.950 . S
H319 C324 0.949 . S
H320 C326 0.950 . S
H321 C327 0.950 . S
H322 C328 0.949 . S
C323 H318 0.950 . S
C323 C325 1.327 . S
C323 C329 1.429 . S
C324 C316 1.574 . S
C324 H319 0.949 . S
C324 C330 1.368 . S
C325 C309 1.349 . S
C325 H317 0.950 . S
C325 C323 1.327 . S
C326 C314 1.349 . S
C326 H320 0.950 . S
C326 C327 1.327 . S
C327 H321 0.950 . S
C327 C326 1.327 . S
C327 C331 1.429 . S
C328 C311 1.574 . S
C328 H322 0.949 . S
C328 C332 1.368 . S
C329 C310 1.429 . S
C329 C323 1.429 . S
C329 C330 1.523 . S
C330 C311 1.368 . S
C330 C324 1.368 . S
C330 C329 1.523 . S
C331 C315 1.429 . S
C331 C327 1.429 . S
C331 C332 1.523 . S
C332 C316 1.368 . S
C332 C328 1.368 . S
C332 C331 1.523 . S
H333 C308 0.950 . S
H334 C310 0.950 . S
H335 C311 0.949 . S
H336 C313 0.950 . S
H337 C315 0.950 . S
C338 C339 1.349 . S
C338 C340 1.321 1_455 S
C338 H363 0.950 1_455 S
C339 C338 1.349 . S
C339 C355 1.349 . S
C340 C338 1.321 1_655 S
C340 C359 1.412 1_655 S
C340 H364 0.974 . S
C341 C358 1.574 . S
C341 C360 1.368 . S
C341 H365 0.949 . S
H342 C346 0.949 . S
C343 C344 1.349 . S
C343 C345 1.327 . S
C343 H366 0.950 . S
C344 C343 1.349 . S
C344 C356 1.349 1_455 S
C345 C343 1.327 . S
C345 C361 1.429 . S
C345 H367 0.950 . S
C346 H342 0.949 . S
C346 C354 1.574 . S
C346 C362 1.368 1_655 S
H347 C355 0.950 . S
H348 C353 0.950 . S
H349 C354 0.949 . S
H350 C356 0.950 . S
H351 C357 0.950 . S
H352 C358 0.949 . S
C353 H348 0.950 . S
C353 C355 1.327 . S
C353 C359 1.429 . S
C354 C346 1.574 . S
C354 H349 0.949 . S
C354 C360 1.368 1_655 S
C355 C339 1.349 . S
C355 H347 0.950 . S
C355 C353 1.327 . S
C356 C344 1.349 1_655 S
C356 H350 0.950 . S
C356 C357 1.327 . S
C357 H351 0.950 . S
C357 C356 1.327 . S
C357 C361 1.429 1_655 S
C358 C341 1.574 . S
C358 H352 0.949 . S
C358 C362 1.368 . S
C359 C340 1.412 1_455 S
C359 C353 1.429 . S
C359 C360 1.523 . S
C360 C341 1.368 . S
C360 C354 1.368 1_455 S
C360 C359 1.523 . S
C361 C345 1.429 . S
C361 C357 1.429 1_455 S
C361 C362 1.523 . S
C362 C346 1.368 1_455 S
C362 C358 1.368 . S
C362 C361 1.523 . S
H363 C338 0.950 1_655 S
H364 C340 0.974 . S
H365 C341 0.949 . S
H366 C343 0.950 . S
H367 C345 0.950 . S
C368 C369 1.349 1_556 S
C368 C370 1.327 . S
C368 H393 0.950 . S
C369 C368 1.349 1_554 S
C369 C385 1.349 . S
C370 C368 1.327 . S
C370 C389 1.429 1_556 S
C370 H394 0.950 . S
C371 C388 1.574 . S
C371 C390 1.368 1_554 S
C371 H395 0.949 . S
H372 C376 0.949 . S
C373 C374 1.349 . S
C373 C375 1.327 . S
C373 H396 0.950 . S
C374 C373 1.349 . S
C374 C386 1.349 . S
C375 C373 1.327 . S
C375 C391 1.429 . S
C375 H397 0.950 1_556 S
C376 H372 0.949 . S
C376 C384 1.574 . S
C376 C392 1.368 . S
H377 C385 0.950 . S
H378 C383 0.950 . S
H379 C384 0.949 . S
H380 C386 0.950 1_545 S
H381 C387 0.950 . S
H382 C388 0.949 . S
C383 H378 0.950 . S
C383 C385 1.327 . S
C383 C389 1.429 . S
C384 C376 1.574 . S
C384 H379 0.949 . S
C384 C390 1.368 . S
C385 C369 1.349 . S
C385 H377 0.950 . S
C385 C383 1.327 . S
C386 C374 1.349 . S
C386 H380 0.950 1_565 S
C386 C387 1.327 . S
C387 H381 0.950 . S
C387 C386 1.327 . S
C387 C391 1.429 . S
C388 C371 1.574 . S
C388 H382 0.949 . S
C388 C392 1.368 1_554 S
C389 C370 1.429 1_554 S
C389 C383 1.429 . S
C389 C390 1.523 1_554 S
C390 C371 1.368 1_556 S
C390 C384 1.368 . S
C390 C389 1.523 1_556 S
C391 C375 1.429 . S
C391 C387 1.429 . S
C391 C392 1.523 . S
C392 C376 1.368 . S
C392 C388 1.368 1_556 S
C392 C391 1.523 . S
H393 C368 0.950 . S
H394 C370 0.950 . S
H395 C371 0.949 . S
H396 C373 0.950 . S
H397 C375 0.950 1_554 S
C398 C399 1.349 . S
C398 C400 1.327 . S
C398 H423 0.950 . S
C399 C398 1.349 . S
C399 C415 1.349 . S
C400 C398 1.327 . S
C400 C419 1.429 . S
C400 H424 0.950 . S
C401 C418 1.574 . S
C401 C420 1.368 . S
C401 H425 0.949 . S
H402 C406 0.949 . S
C403 C404 1.349 . S
C403 C405 1.327 . S
C403 H426 0.950 . S
C404 C403 1.349 . S
C404 C416 1.349 1_556 S
C405 C403 1.327 . S
C405 C421 1.429 1_556 S
C405 H427 0.950 . S
C406 H402 0.949 . S
C406 C414 1.574 . S
C406 C422 1.368 . S
H407 C415 0.950 . S
H408 C413 0.950 . S
H409 C414 0.949 . S
H410 C416 0.950 . S
H411 C417 0.950 . S
H412 C418 0.949 . S
C413 H408 0.950 . S
C413 C415 1.327 . S
C413 C419 1.429 . S
C414 C406 1.574 . S
C414 H409 0.949 . S
C414 C420 1.368 . S
C415 C399 1.349 . S
C415 H407 0.950 . S
C415 C413 1.327 . S
C416 C404 1.349 1_554 S
C416 H410 0.950 . S
C416 C417 1.327 . S
C417 H411 0.950 . S
C417 C416 1.327 . S
C417 C421 1.429 . S
C418 C401 1.574 . S
C418 H412 0.949 . S
C418 C422 1.368 . S
C419 C400 1.429 . S
C419 C413 1.429 . S
C419 C420 1.523 . S
C420 C401 1.368 . S
C420 C414 1.368 . S
C420 C419 1.523 . S
C421 C405 1.429 1_554 S
C421 C417 1.429 . S
C421 C422 1.523 . S
C422 C406 1.368 . S
C422 C418 1.368 . S
C422 C421 1.523 . S
H423 C398 0.950 . S
H424 C400 0.950 . S
H425 C401 0.949 . S
H426 C403 0.950 . S
H427 C405 0.950 . S
C428 C429 1.349 . S
C428 C430 1.327 . S
C428 H453 0.950 . S
C429 C428 1.349 . S
C429 C445 1.349 1_556 S
C430 C428 1.327 . S
C430 C449 1.429 . S
C430 H454 0.950 . S
C431 C448 1.574 . S
C431 C450 1.368 . S
C431 H455 0.949 1_556 S
H432 C436 0.949 . S
C433 C434 1.349 . S
C433 C435 1.327 . S
C433 H456 0.950 . S
C434 C433 1.349 . S
C434 C446 1.349 . S
C435 C433 1.327 . S
C435 C451 1.429 . S
C435 H457 0.950 . S
C436 H432 0.949 . S
C436 C444 1.574 . S
C436 C452 1.368 . S
H437 C445 0.950 . S
H438 C443 0.950 1_554 S
H439 C444 0.949 . S
H440 C446 0.950 . S
H441 C447 0.950 . S
H442 C448 0.949 1_554 S
C443 H438 0.950 1_556 S
C443 C445 1.327 1_556 S
C443 C449 1.429 . S
C444 C436 1.574 . S
C444 H439 0.949 . S
C444 C450 1.368 . S
C445 C429 1.349 1_554 S
C445 H437 0.950 . S
C445 C443 1.327 1_554 S
C446 C434 1.349 . S
C446 H440 0.950 . S
C446 C447 1.327 . S
C447 H441 0.950 . S
C447 C446 1.327 . S
C447 C451 1.429 . S
C448 C431 1.574 . S
C448 H442 0.949 1_556 S
C448 C452 1.368 . S
C449 C430 1.429 . S
C449 C443 1.429 . S
C449 C450 1.523 . S
C450 C431 1.368 . S
C450 C444 1.368 . S
C450 C449 1.523 . S
C451 C435 1.429 . S
C451 C447 1.429 . S
C451 C452 1.523 . S
C452 C436 1.368 . S
C452 C448 1.368 . S
C452 C451 1.523 . S
H453 C428 0.950 . S
H454 C430 0.950 . S
H455 C431 0.949 1_554 S
H456 C433 0.950 . S
H457 C435 0.950 . S
C458 C459 1.349 1_455 S
C458 C460 1.327 . S
C458 H483 0.950 . S
C459 C458 1.349 1_655 S
C459 C475 1.349 . S
C460 C458 1.327 . S
C460 C479 1.399 1_455 S
C460 H484 0.950 1_554 S
C461 C478 1.574 1_554 S
C461 C480 1.337 1_655 S
C461 H485 0.949 . S
H462 C466 0.949 . S
C463 C464 1.349 1_655 S
C463 C465 1.327 . S
C463 H486 0.950 . S
C464 C463 1.349 1_455 S
C464 C476 1.349 . S
C465 C463 1.327 . S
C465 C481 1.429 1_655 S
C465 H487 0.950 . S
C466 H462 0.949 . S
C466 C474 1.574 . S
C466 C482 1.368 . S
H467 C475 0.950 . S
H468 C473 0.950 . S
H469 C474 0.949 . S
H470 C476 0.950 . S
H471 C477 0.950 . S
H472 C478 0.949 1_554 S
C473 H468 0.950 . S
C473 C475 1.327 . S
C473 C479 1.470 . S
C474 C466 1.574 . S
C474 H469 0.949 . S
C474 C480 1.407 1_556 S
C475 C459 1.349 . S
C475 H467 0.950 . S
C475 C473 1.327 . S
C476 C464 1.349 . S
C476 H470 0.950 . S
C476 C477 1.327 . S
C477 H471 0.950 . S
C477 C476 1.327 . S
C477 C481 1.429 . S
C478 C461 1.574 1_556 S
C478 H472 0.949 1_556 S
C478 C482 1.368 1_655 S
C479 C460 1.399 1_655 S
C479 C473 1.470 . S
C479 C480 1.507 1_655 S
C480 C461 1.337 1_455 S
C480 C474 1.407 1_554 S
C480 C479 1.507 1_455 S
C481 C465 1.429 1_455 S
C481 C477 1.429 . S
C481 C482 1.523 . S
C482 C466 1.368 . S
C482 C478 1.368 1_455 S
C482 C481 1.523 . S
H483 C458 0.950 . S
H484 C460 0.950 1_556 S
H485 C461 0.949 . S
H486 C463 0.950 . S
H487 C465 0.950 . S
C488 C489 1.349 . S
C488 C490 1.327 . S
C488 H513 0.950 . S
C489 C488 1.349 . S
C489 C505 1.349 1_455 S
C490 C488 1.327 . S
C490 C509 1.429 . S
C490 H514 0.950 . S
C491 C508 1.574 . S
C491 C510 1.368 1_655 S
C491 H515 0.949 . S
H492 C496 0.949 . S
C493 C494 1.349 1_655 S
C493 C495 1.327 . S
C493 H516 0.950 . S
C494 C493 1.349 1_455 S
C494 C506 1.349 . S
C495 C493 1.327 . S
C495 C511 1.429 1_655 S
C495 H517 0.950 . S
C496 H492 0.949 . S
C496 C504 1.574 . S
C496 C512 1.368 . S
H497 C505 0.950 . S
H498 C503 0.950 . S
H499 C504 0.949 . S
H500 C506 0.950 . S
H501 C507 0.950 . S
H502 C508 0.949 . S
C503 H498 0.950 . S
C503 C505 1.327 . S
C503 C509 1.429 1_655 S
C504 C496 1.574 . S
C504 H499 0.949 . S
C504 C510 1.368 . S
C505 C489 1.349 1_655 S
C505 H497 0.950 . S
C505 C503 1.327 . S
C506 C494 1.349 . S
C506 H500 0.950 . S
C506 C507 1.327 . S
C507 H501 0.950 . S
C507 C506 1.327 . S
C507 C511 1.429 . S
C508 C491 1.574 . S
C508 H502 0.949 . S
C508 C512 1.368 1_655 S
C509 C490 1.429 . S
C509 C503 1.429 1_455 S
C509 C510 1.523 . S
C510 C491 1.368 1_455 S
C510 C504 1.368 . S
C510 C509 1.523 . S
C511 C495 1.429 1_455 S
C511 C507 1.429 . S
C511 C512 1.523 . S
C512 C496 1.368 . S
C512 C508 1.368 1_455 S
C512 C511 1.523 . S
H513 C488 0.950 . S
H514 C490 0.950 . S
H515 C491 0.949 . S
H516 C493 0.950 . S
H517 C495 0.950 . S
C518 C519 1.349 . S
C518 C520 1.327 . S
C518 H543 0.950 . S
C519 C518 1.349 . S
C519 C535 1.349 . S
C520 C518 1.327 . S
C520 C539 1.429 . S
C520 H544 0.950 . S
C521 C538 1.574 . S
C521 C540 1.368 . S
C521 H545 0.949 . S
H522 C526 0.949 . S
C523 C524 1.349 . S
C523 C525 1.327 . S
C523 H546 0.950 . S
C524 C523 1.349 . S
C524 C536 1.349 . S
C525 C523 1.327 . S
C525 C541 1.429 . S
C525 H547 0.950 . S
C526 H522 0.949 . S
C526 C534 1.574 . S
C526 C542 1.368 . S
H527 C535 0.950 . S
H528 C533 0.950 . S
H529 C534 0.949 . S
H530 C536 0.950 . S
H531 C537 0.950 . S
H532 C538 0.949 . S
C533 H528 0.950 . S
C533 C535 1.327 . S
C533 C539 1.429 . S
C534 C526 1.574 . S
C534 H529 0.949 . S
C534 C540 1.368 . S
C535 C519 1.349 . S
C535 H527 0.950 . S
C535 C533 1.327 . S
C536 C524 1.349 . S
C536 H530 0.950 . S
C536 C537 1.327 . S
C537 H531 0.950 . S
C537 C536 1.327 . S
C537 C541 1.429 . S
C538 C521 1.574 . S
C538 H532 0.949 . S
C538 C542 1.368 . S
C539 C520 1.429 . S
C539 C533 1.429 . S
C539 C540 1.523 . S
C540 C521 1.368 . S
C540 C534 1.368 . S
C540 C539 1.523 . S
C541 C525 1.429 . S
C541 C537 1.429 . S
C541 C542 1.523 . S
C542 C526 1.368 . S
C542 C538 1.368 . S
C542 C541 1.523 . S
H543 C518 0.950 . S
H544 C520 0.950 . S
H545 C521 0.949 . S
H546 C523 0.950 . S
H547 C525 0.950 . S
C548 C549 1.349 . S
C548 C550 1.327 . S
C548 H573 0.950 . S
C549 C548 1.349 . S
C549 C565 1.349 . S
C550 C548 1.327 . S
C550 C569 1.429 . S
C550 H574 0.950 . S
C551 C568 1.574 . S
C551 C570 1.368 . S
C551 H575 0.949 . S
H552 C556 0.949 . S
C553 C554 1.349 . S
C553 C555 1.327 . S
C553 H576 0.950 . S
C554 C553 1.349 . S
C554 C566 1.349 . S
C555 C553 1.327 . S
C555 C571 1.429 . S
C555 H577 0.950 . S
C556 H552 0.949 . S
C556 C564 1.574 . S
C556 C572 1.368 . S
H557 C565 0.950 . S
H558 C563 0.950 . S
H559 C564 0.949 . S
H560 C566 0.950 . S
H561 C567 0.950 . S
H562 C568 0.949 . S
C563 H558 0.950 . S
C563 C565 1.327 . S
C563 C569 1.429 . S
C564 C556 1.574 . S
C564 H559 0.949 . S
C564 C570 1.368 . S
C565 C549 1.349 . S
C565 H557 0.950 . S
C565 C563 1.327 . S
C566 C554 1.349 . S
C566 H560 0.950 . S
C566 C567 1.327 . S
C567 H561 0.950 . S
C567 C566 1.327 . S
C567 C571 1.429 . S
C568 C551 1.574 . S
C568 H562 0.949 . S
C568 C572 1.368 . S
C569 C550 1.429 . S
C569 C563 1.429 . S
C569 C570 1.523 . S
C570 C551 1.368 . S
C570 C564 1.368 . S
C570 C569 1.523 . S
C571 C555 1.429 . S
C571 C567 1.429 . S
C571 C572 1.523 . S
C572 C556 1.368 . S
C572 C568 1.368 . S
C572 C571 1.523 . S
H573 C548 0.950 . S
H574 C550 0.950 . S
H575 C551 0.949 . S
H576 C553 0.950 . S
H577 C555 0.950 . S
C578 C579 1.349 . S
C578 C580 1.327 . S
C578 H603 0.950 . S
C579 C578 1.349 . S
C579 C595 1.349 . S
C580 C578 1.327 . S
C580 C599 1.429 . S
C580 H604 0.950 . S
C581 C598 1.574 . S
C581 C600 1.368 . S
C581 H605 0.949 . S
H582 C586 0.949 . S
C583 C584 1.349 . S
C583 C585 1.327 . S
C583 H606 0.950 . S
C584 C583 1.349 . S
C584 C596 1.349 . S
C585 C583 1.327 . S
C585 C601 1.429 . S
C585 H607 0.950 . S
C586 H582 0.949 . S
C586 C594 1.574 . S
C586 C602 1.368 . S
H587 C595 0.950 . S
H588 C593 0.950 . S
H589 C594 0.949 . S
H590 C596 0.950 . S
H591 C597 0.950 . S
H592 C598 0.949 . S
C593 H588 0.950 . S
C593 C595 1.327 . S
C593 C599 1.429 . S
C594 C586 1.574 . S
C594 H589 0.949 . S
C594 C600 1.368 . S
C595 C579 1.349 . S
C595 H587 0.950 . S
C595 C593 1.327 . S
C596 C584 1.349 . S
C596 H590 0.950 . S
C596 C597 1.327 . S
C597 H591 0.950 . S
C597 C596 1.327 . S
C597 C601 1.429 . S
C598 C581 1.574 . S
C598 H592 0.949 . S
C598 C602 1.368 . S
C599 C580 1.429 . S
C599 C593 1.429 . S
C599 C600 1.523 . S
C600 C581 1.368 . S
C600 C594 1.368 . S
C600 C599 1.523 . S
C601 C585 1.429 . S
C601 C597 1.429 . S
C601 C602 1.523 . S
C602 C586 1.368 . S
C602 C598 1.368 . S
C602 C601 1.523 . S
H603 C578 0.950 . S
H604 C580 0.950 . S
H605 C581 0.949 . S
H606 C583 0.950 . S
H607 C585 0.950 . S
C608 C609 1.349 1_455 S
C608 C610 1.327 . S
C608 H633 0.950 . S
C609 C608 1.349 1_655 S
C609 C625 1.349 1_554 S
C610 C608 1.327 . S
C610 C629 1.429 1_455 S
C610 H634 0.950 . S
C611 C628 1.574 . S
C611 C630 1.375 . S
C611 H635 0.949 . S
H612 C616 0.949 . S
C613 C614 1.349 1_655 S
C613 C615 1.327 . S
C613 H636 0.950 . S
C614 C613 1.349 1_455 S
C614 C626 1.349 . S
C615 C613 1.327 . S
C615 C631 1.429 1_655 S
C615 H637 0.950 . S
C616 H612 0.949 . S
C616 C624 1.574 . S
C616 C632 1.368 1_554 S
H617 C625 0.950 . S
H618 C623 0.950 . S
H619 C624 0.949 . S
H620 C626 0.950 . S
H621 C627 0.950 1_554 S
H622 C628 0.949 . S
C623 H618 0.950 . S
C623 C625 1.327 . S
C623 C629 1.429 1_556 S
C624 C616 1.574 . S
C624 H619 0.949 . S
C624 C630 1.363 1_454 S
C625 C609 1.349 1_556 S
C625 H617 0.950 . S
C625 C623 1.327 . S
C626 C614 1.349 . S
C626 H620 0.950 . S
C626 C627 1.327 . S
C627 H621 0.950 1_556 S
C627 C626 1.327 . S
C627 C631 1.429 . S
C628 C611 1.574 . S
C628 H622 0.949 . S
C628 C632 1.368 1_655 S
C629 C610 1.429 1_655 S
C629 C623 1.429 1_554 S
C629 C630 1.522 1_554 S
C630 C611 1.375 . S
C630 C624 1.363 1_656 S
C630 C629 1.522 1_556 S
C631 C615 1.429 1_455 S
C631 C627 1.429 . S
C631 C632 1.523 . S
C632 C616 1.368 1_556 S
C632 C628 1.368 1_455 S
C632 C631 1.523 . S
H633 C608 0.950 . S
H634 C610 0.950 . S
H635 C611 0.949 . S
H636 C613 0.950 . S
H637 C615 0.950 . S
C638 C639 1.349 . S
C638 C640 1.327 . S
C638 H663 0.950 . S
C639 C638 1.349 . S
C639 C655 1.349 . S
C640 C638 1.327 . S
C640 C659 1.429 1_554 S
C640 H664 0.950 1_554 S
C641 C658 1.574 . S
C641 C660 1.368 . S
C641 H665 0.949 . S
H642 C646 0.949 . S
C643 C644 1.348 . S
C643 C645 1.327 . S
C643 H666 0.950 . S
C644 C643 1.348 . S
C644 C656 1.349 1_565 S
C645 C643 1.327 . S
C645 C661 1.429 . S
C645 H667 0.950 . S
C646 H642 0.949 . S
C646 C654 1.574 . S
C646 C662 1.368 . S
H647 C655 0.950 . S
H648 C653 0.950 . S
H649 C654 0.949 . S
H650 C656 0.950 . S
H651 C657 0.950 . S
H652 C658 0.949 . S
C653 H648 0.950 . S
C653 C655 1.327 1_556 S
C653 C659 1.429 . S
C654 C646 1.574 . S
C654 H649 0.949 . S
C654 C660 1.368 . S
C655 C639 1.349 . S
C655 H647 0.950 . S
C655 C653 1.327 1_554 S
C656 C644 1.349 1_545 S
C656 H650 0.950 . S
C656 C657 1.327 . S
C657 H651 0.950 . S
C657 C656 1.327 . S
C657 C661 1.429 1_545 S
C658 C641 1.574 . S
C658 H652 0.949 . S
C658 C662 1.368 . S
C659 C640 1.429 1_556 S
C659 C653 1.429 . S
C659 C660 1.523 . S
C660 C641 1.368 . S
C660 C654 1.368 . S
C660 C659 1.523 . S
C661 C645 1.429 . S
C661 C657 1.429 1_565 S
C661 C662 1.523 . S
C662 C646 1.368 . S
C662 C658 1.368 . S
C662 C661 1.523 . S
H663 C638 0.950 . S
H664 C640 0.950 1_556 S
H665 C641 0.949 . S
H666 C643 0.950 . S
H667 C645 0.950 . S
C668 C669 1.349 . S
C668 C670 1.327 . S
C668 H693 0.950 . S
C669 C668 1.349 . S
C669 C685 1.349 . S
C670 C668 1.327 . S
C670 C689 1.429 . S
C670 H694 0.950 . S
C671 C688 1.574 . S
C671 C690 1.368 . S
C671 H695 0.949 . S
H672 C676 0.949 . S
C673 C674 1.349 . S
C673 C675 1.327 . S
C673 H696 0.950 . S
C674 C673 1.349 . S
C674 C686 1.349 . S
C675 C673 1.327 . S
C675 C691 1.429 . S
C675 H697 0.950 . S
C676 H672 0.949 . S
C676 C684 1.574 . S
C676 C692 1.368 . S
H677 C685 0.950 . S
H678 C683 0.950 . S
H679 C684 0.949 . S
H680 C686 0.950 . S
H681 C687 0.950 . S
H682 C688 0.949 . S
C683 H678 0.950 . S
C683 C685 1.327 . S
C683 C689 1.429 . S
C684 C676 1.574 . S
C684 H679 0.949 . S
C684 C690 1.368 . S
C685 C669 1.349 . S
C685 H677 0.950 . S
C685 C683 1.327 . S
C686 C674 1.349 . S
C686 H680 0.950 . S
C686 C687 1.327 . S
C687 H681 0.950 . S
C687 C686 1.327 . S
C687 C691 1.429 . S
C688 C671 1.574 . S
C688 H682 0.949 . S
C688 C692 1.368 . S
C689 C670 1.429 . S
C689 C683 1.429 . S
C689 C690 1.523 . S
C690 C671 1.368 . S
C690 C684 1.368 . S
C690 C689 1.523 . S
C691 C675 1.429 . S
C691 C687 1.429 . S
C691 C692 1.523 . S
C692 C676 1.368 . S
C692 C688 1.368 . S
C692 C691 1.523 . S
H693 C668 0.950 . S
H694 C670 0.950 . S
H695 C671 0.949 . S
H696 C673 0.950 . S
H697 C675 0.950 . S
C698 C699 1.349 . S
C698 C700 1.327 . S
C698 H723 0.950 . S
C699 C698 1.349 . S
C699 C715 1.349 . S
C700 C698 1.327 . S
C700 C719 1.429 . S
C700 H724 0.950 . S
C701 C718 1.574 . S
C701 C720 1.368 . S
C701 H725 0.949 . S
H702 C706 0.949 . S
C703 C704 1.349 . S
C703 C705 1.327 . S
C703 H726 0.950 . S
C704 C703 1.349 . S
C704 C716 1.349 . S
C705 C703 1.327 . S
C705 C721 1.429 . S
C705 H727 0.950 . S
C706 H702 0.949 . S
C706 C714 1.574 . S
C706 C722 1.368 . S
H707 C715 0.950 1_554 S
H708 C713 0.950 . S
H709 C714 0.949 . S
H710 C716 0.950 . S
H711 C717 0.950 . S
H712 C718 0.949 . S
C713 H708 0.950 . S
C713 C715 1.327 . S
C713 C719 1.429 . S
C714 C706 1.574 . S
C714 H709 0.949 . S
C714 C720 1.368 . S
C715 C699 1.349 . S
C715 H707 0.950 1_556 S
C715 C713 1.327 . S
C716 C704 1.349 . S
C716 H710 0.950 . S
C716 C717 1.327 . S
C717 H711 0.950 . S
C717 C716 1.327 . S
C717 C721 1.429 . S
C718 C701 1.574 . S
C718 H712 0.949 . S
C718 C722 1.368 . S
C719 C700 1.429 . S
C719 C713 1.429 . S
C719 C720 1.523 . S
C720 C701 1.368 . S
C720 C714 1.368 . S
C720 C719 1.523 . S
C721 C705 1.429 . S
C721 C717 1.429 . S
C721 C722 1.523 . S
C722 C706 1.368 . S
C722 C718 1.368 . S
C722 C721 1.523 . S
H723 C698 0.950 . S
H724 C700 0.950 . S
H725 C701 0.949 . S
H726 C703 0.950 . S
H727 C705 0.950 . S
C728 C729 1.349 . S
C728 C730 1.327 . S
C728 H753 0.951 1_455 S
C729 C728 1.349 . S
C729 C745 1.349 . S
C730 C728 1.327 . S
C730 C749 1.429 . S
C730 H754 0.950 1_455 S
C731 C748 1.574 . S
C731 C750 1.368 . S
C731 H755 0.949 . S
H732 C736 0.961 . S
C733 C734 1.349 . S
C733 C735 1.327 . S
C733 H756 0.950 . S
C734 C733 1.349 . S
C734 C746 1.349 . S
C735 C733 1.327 . S
C735 C751 1.429 . S
C735 H757 0.950 . S
C736 H732 0.961 . S
C736 C744 1.574 . S
C736 C752 1.368 . S
H737 C745 0.950 . S
H738 C743 0.950 . S
H739 C744 0.951 . S
H740 C746 0.950 . S
H741 C747 0.950 . S
H742 C748 0.949 . S
C743 H738 0.950 . S
C743 C745 1.327 . S
C743 C749 1.429 . S
C744 C736 1.574 . S
C744 H739 0.951 . S
C744 C750 1.368 . S
C745 C729 1.349 . S
C745 H737 0.950 . S
C745 C743 1.327 . S
C746 C734 1.349 . S
C746 H740 0.950 . S
C746 C747 1.327 . S
C747 H741 0.950 . S
C747 C746 1.327 . S
C747 C751 1.429 . S
C748 C731 1.574 . S
C748 H742 0.949 . S
C748 C752 1.368 . S
C749 C730 1.429 . S
C749 C743 1.429 . S
C749 C750 1.523 . S
C750 C731 1.368 . S
C750 C744 1.368 . S
C750 C749 1.523 . S
C751 C735 1.429 . S
C751 C747 1.429 . S
C751 C752 1.523 . S
C752 C736 1.368 . S
C752 C748 1.368 . S
C752 C751 1.523 . S
H753 C728 0.951 1_655 S
H754 C730 0.950 1_655 S
H755 C731 0.949 . S
H756 C733 0.950 . S
H757 C735 0.950 . S
C758 C759 1.349 . S
C758 C760 1.327 . S
C758 H783 0.950 . S
C759 C758 1.349 . S
C759 C775 1.349 . S
C760 C758 1.327 . S
C760 C779 1.429 . S
C760 H784 0.950 . S
C761 C778 1.574 . S
C761 C780 1.368 . S
C761 H785 0.949 . S
H762 C766 0.949 . S
C763 C764 1.349 . S
C763 C765 1.327 . S
C763 H786 0.950 . S
C764 C763 1.349 . S
C764 C776 1.349 . S
C765 C763 1.327 . S
C765 C781 1.429 . S
C765 H787 0.950 . S
C766 H762 0.949 . S
C766 C774 1.574 . S
C766 C782 1.368 . S
H767 C775 0.950 . S
H768 C773 0.950 . S
H769 C774 0.949 . S
H770 C776 0.950 . S
H771 C777 0.950 . S
H772 C778 0.949 . S
C773 H768 0.950 . S
C773 C775 1.327 . S
C773 C779 1.429 . S
C774 C766 1.574 . S
C774 H769 0.949 . S
C774 C780 1.368 . S
C775 C759 1.349 . S
C775 H767 0.950 . S
C775 C773 1.327 . S
C776 C764 1.349 . S
C776 H770 0.950 . S
C776 C777 1.327 . S
C777 H771 0.950 . S
C777 C776 1.327 . S
C777 C781 1.429 . S
C778 C761 1.574 . S
C778 H772 0.949 . S
C778 C782 1.368 . S
C779 C760 1.429 . S
C779 C773 1.429 . S
C779 C780 1.523 . S
C780 C761 1.368 . S
C780 C774 1.368 . S
C780 C779 1.523 . S
C781 C765 1.429 . S
C781 C777 1.429 . S
C781 C782 1.523 . S
C782 C766 1.368 . S
C782 C778 1.368 . S
C782 C781 1.523 . S
H783 C758 0.950 . S
H784 C760 0.950 . S
H785 C761 0.949 . S
H786 C763 0.950 . S
H787 C765 0.950 . S
C788 C789 1.349 . S
C788 C790 1.327 . S
C788 H813 0.950 . S
C789 C788 1.349 . S
C789 C805 1.349 . S
C790 C788 1.327 . S
C790 C809 1.429 . S
C790 H814 0.950 . S
C791 C808 1.574 . S
C791 C810 1.368 . S
C791 H815 0.949 . S
H792 C796 0.949 1_556 S
C793 C794 1.349 1_554 S
C793 C795 1.327 . S
C793 H816 0.950 . S
C794 C793 1.349 1_556 S
C794 C806 1.349 . S
C795 C793 1.327 . S
C795 C811 1.429 . S
C795 H817 0.950 . S
C796 H792 0.949 1_554 S
C796 C804 1.574 . S
C796 C812 1.368 . S
H797 C805 0.950 . S
H798 C803 0.950 . S
H799 C804 0.949 . S
H800 C806 0.950 . S
H801 C807 0.950 . S
H802 C808 0.949 . S
C803 H798 0.950 . S
C803 C805 1.327 . S
C803 C809 1.429 . S
C804 C796 1.574 . S
C804 H799 0.949 . S
C804 C810 1.368 . S
C805 C789 1.349 . S
C805 H797 0.950 . S
C805 C803 1.327 . S
C806 C794 1.349 . S
C806 H800 0.950 . S
C806 C807 1.327 . S
C807 H801 0.950 . S
C807 C806 1.327 . S
C807 C811 1.429 1_556 S
C808 C791 1.574 . S
C808 H802 0.949 . S
C808 C812 1.368 . S
C809 C790 1.429 . S
C809 C803 1.429 . S
C809 C810 1.523 . S
C810 C791 1.368 . S
C810 C804 1.368 . S
C810 C809 1.523 . S
C811 C795 1.429 . S
C811 C807 1.429 1_554 S
C811 C812 1.523 . S
C812 C796 1.368 . S
C812 C808 1.368 . S
C812 C811 1.523 . S
H813 C788 0.950 . S
H814 C790 0.950 . S
H815 C791 0.949 . S
H816 C793 0.950 . S
H817 C795 0.950 . S
C818 C819 1.349 . S
C818 C820 1.327 . S
C818 H843 0.950 . S
C819 C818 1.349 . S
C819 C835 1.349 . S
C820 C818 1.327 . S
C820 C839 1.429 . S
C820 H844 0.950 . S
C821 C838 1.574 . S
C821 C840 1.368 . S
C821 H845 0.949 . S
H822 C826 0.949 . S
C823 C824 1.349 . S
C823 C825 1.327 . S
C823 H846 0.950 . S
C824 C823 1.349 . S
C824 C836 1.349 . S
C825 C823 1.327 . S
C825 C841 1.429 . S
C825 H847 0.950 . S
C826 H822 0.949 . S
C826 C834 1.574 . S
C826 C842 1.368 . S
H827 C835 0.950 . S
H828 C833 0.950 . S
H829 C834 0.949 . S
H830 C836 0.950 . S
H831 C837 0.950 . S
H832 C838 0.949 . S
C833 H828 0.950 . S
C833 C835 1.327 . S
C833 C839 1.429 . S
C834 C826 1.574 . S
C834 H829 0.949 . S
C834 C840 1.368 . S
C835 C819 1.349 . S
C835 H827 0.950 . S
C835 C833 1.327 . S
C836 C824 1.349 . S
C836 H830 0.950 . S
C836 C837 1.327 . S
C837 H831 0.950 . S
C837 C836 1.327 . S
C837 C841 1.429 . S
C838 C821 1.574 . S
C838 H832 0.949 . S
C838 C842 1.368 . S
C839 C820 1.429 . S
C839 C833 1.429 . S
C839 C840 1.523 . S
C840 C821 1.368 . S
C840 C834 1.368 . S
C840 C839 1.523 . S
C841 C825 1.429 . S
C841 C837 1.429 . S
C841 C842 1.523 . S
C842 C826 1.368 . S
C842 C838 1.368 . S
C842 C841 1.523 . S
H843 C818 0.950 . S
H844 C820 0.950 . S
H845 C821 0.949 . S
H846 C823 0.950 . S
H847 C825 0.950 . S
C848 C849 1.349 . S
C848 C850 1.327 . S
C848 H873 0.950 . S
C849 C848 1.349 . S
C849 C865 1.349 1_655 S
C850 C848 1.327 . S
C850 C869 1.429 . S
C850 H874 0.950 . S
C851 C868 1.574 . S
C851 C870 1.368 1_455 S
C851 H875 0.949 . S
H852 C856 0.949 . S
C853 C854 1.349 1_455 S
C853 C855 1.327 . S
C853 H876 0.950 . S
C854 C853 1.349 1_655 S
C854 C866 1.349 . S
C855 C853 1.327 . S
C855 C871 1.429 1_455 S
C855 H877 0.950 . S
C856 H852 0.949 . S
C856 C864 1.574 . S
C856 C872 1.368 . S
H857 C865 0.950 . S
H858 C863 0.950 . S
H859 C864 0.949 . S
H860 C866 0.950 . S
H861 C867 0.950 . S
H862 C868 0.949 . S
C863 H858 0.950 . S
C863 C865 1.327 . S
C863 C869 1.429 1_455 S
C864 C856 1.574 . S
C864 H859 0.949 . S
C864 C870 1.368 . S
C865 C849 1.349 1_455 S
C865 H857 0.950 . S
C865 C863 1.327 . S
C866 C854 1.349 . S
C866 H860 0.950 . S
C866 C867 1.327 . S
C867 H861 0.950 . S
C867 C866 1.327 . S
C867 C871 1.429 . S
C868 C851 1.574 . S
C868 H862 0.949 . S
C868 C872 1.368 1_455 S
C869 C850 1.429 . S
C869 C863 1.429 1_655 S
C869 C870 1.523 . S
C870 C851 1.368 1_655 S
C870 C864 1.368 . S
C870 C869 1.523 . S
C871 C855 1.429 1_655 S
C871 C867 1.429 . S
C871 C872 1.523 . S
C872 C856 1.368 . S
C872 C868 1.368 1_655 S
C872 C871 1.523 . S
H873 C848 0.950 . S
H874 C850 0.950 . S
H875 C851 0.949 . S
H876 C853 0.950 . S
H877 C855 0.950 . S
C878 C879 1.349 . S
C878 C880 1.327 . S
C878 H903 0.950 . S
C879 C878 1.349 . S
C879 C895 1.349 . S
C880 C878 1.327 . S
C880 C899 1.429 . S
C880 H904 0.950 . S
C881 C898 1.574 . S
C881 C900 1.368 . S
C881 H905 0.949 . S
H882 C886 0.949 . S
C883 C884 1.349 . S
C883 C885 1.327 . S
C883 H906 0.950 . S
C884 C883 1.349 . S
C884 C896 1.349 . S
C885 C883 1.327 . S
C885 C901 1.429 . S
C885 H907 0.950 . S
C886 H882 0.949 . S
C886 C894 1.574 . S
C886 C902 1.368 . S
H887 C895 0.950 . S
H888 C893 0.950 . S
H889 C894 0.949 . S
H890 C896 0.950 . S
H891 C897 0.950 . S
H892 C898 0.949 . S
C893 H888 0.950 . S
C893 C895 1.327 . S
C893 C899 1.429 . S
C894 C886 1.574 . S
C894 H889 0.949 . S
C894 C900 1.368 . S
C895 C879 1.349 . S
C895 H887 0.950 . S
C895 C893 1.327 . S
C896 C884 1.349 . S
C896 H890 0.950 . S
C896 C897 1.327 . S
C897 H891 0.950 . S
C897 C896 1.327 . S
C897 C901 1.429 . S
C898 C881 1.574 . S
C898 H892 0.949 . S
C898 C902 1.368 . S
C899 C880 1.429 . S
C899 C893 1.429 . S
C899 C900 1.523 . S
C900 C881 1.368 . S
C900 C894 1.368 . S
C900 C899 1.523 . S
C901 C885 1.429 . S
C901 C897 1.429 . S
C901 C902 1.523 . S
C902 C886 1.368 . S
C902 C898 1.368 . S
C902 C901 1.523 . S
H903 C878 0.950 . S
H904 C880 0.950 . S
H905 C881 0.949 . S
H906 C883 0.950 . S
H907 C885 0.950 . S
C908 C909 1.349 . S
C908 C910 1.327 . S
C908 H933 0.950 . S
C909 C908 1.349 . S
C909 C925 1.349 . S
C910 C908 1.327 . S
C910 C929 1.429 . S
C910 H934 0.950 . S
C911 C928 1.574 . S
C911 C930 1.368 . S
C911 H935 0.949 . S
H912 C916 0.949 . S
C913 C914 1.349 . S
C913 C915 1.327 . S
C913 H936 0.950 . S
C914 C913 1.349 . S
C914 C926 1.349 . S
C915 C913 1.327 . S
C915 C931 1.429 . S
C915 H937 0.950 . S
C916 H912 0.949 . S
C916 C924 1.574 . S
C916 C932 1.368 . S
H917 C925 0.950 . S
H918 C923 0.950 . S
H919 C924 0.949 . S
H920 C926 0.950 . S
H921 C927 0.950 . S
H922 C928 0.949 . S
C923 H918 0.950 . S
C923 C925 1.327 . S
C923 C929 1.429 . S
C924 C916 1.574 . S
C924 H919 0.949 . S
C924 C930 1.368 . S
C925 C909 1.349 . S
C925 H917 0.950 . S
C925 C923 1.327 . S
C926 C914 1.349 . S
C926 H920 0.950 . S
C926 C927 1.327 . S
C927 H921 0.950 . S
C927 C926 1.327 . S
C927 C931 1.429 . S
C928 C911 1.574 . S
C928 H922 0.949 . S
C928 C932 1.368 . S
C929 C910 1.429 . S
C929 C923 1.429 . S
C929 C930 1.523 . S
C930 C911 1.368 . S
C930 C924 1.368 . S
C930 C929 1.523 . S
C931 C915 1.429 . S
C931 C927 1.429 . S
C931 C932 1.523 . S
C932 C916 1.368 . S
C932 C928 1.368 . S
C932 C931 1.523 . S
H933 C908 0.950 . S
H934 C910 0.950 . S
H935 C911 0.949 . S
H936 C913 0.950 . S
H937 C915 0.950 . S
C938 C939 1.349 . S
C938 C940 1.327 . S
C938 H963 0.950 . S
C939 C938 1.349 . S
C939 C955 1.349 . S
C940 C938 1.327 . S
C940 C959 1.429 . S
C940 H964 0.950 . S
C941 C958 1.574 . S
C941 C960 1.368 . S
C941 H965 0.949 . S
H942 C946 0.949 . S
C943 C944 1.349 . S
C943 C945 1.327 . S
C943 H966 0.950 . S
C944 C943 1.349 . S
C944 C956 1.349 . S
C945 C943 1.327 . S
C945 C961 1.429 . S
C945 H967 0.950 . S
C946 H942 0.949 . S
C946 C954 1.574 . S
C946 C962 1.368 . S
H947 C955 0.950 . S
H948 C953 0.950 . S
H949 C954 0.949 . S
H950 C956 0.950 . S
H951 C957 0.950 . S
H952 C958 0.949 . S
C953 H948 0.950 . S
C953 C955 1.327 . S
C953 C959 1.429 . S
C954 C946 1.574 . S
C954 H949 0.949 . S
C954 C960 1.368 . S
C955 C939 1.349 . S
C955 H947 0.950 . S
C955 C953 1.327 . S
C956 C944 1.349 . S
C956 H950 0.950 . S
C956 C957 1.327 . S
C957 H951 0.950 . S
C957 C956 1.327 . S
C957 C961 1.429 . S
C958 C941 1.574 . S
C958 H952 0.949 . S
C958 C962 1.368 . S
C959 C940 1.429 . S
C959 C953 1.429 . S
C959 C960 1.523 . S
C960 C941 1.368 . S
C960 C954 1.368 . S
C960 C959 1.523 . S
C961 C945 1.429 . S
C961 C957 1.429 . S
C961 C962 1.523 . S
C962 C946 1.368 . S
C962 C958 1.368 . S
C962 C961 1.523 . S
H963 C938 0.950 . S
H964 C940 0.950 . S
H965 C941 0.949 . S
H966 C943 0.950 . S
H967 C945 0.950 . S
C249 C76 1.734 . S
C254 C97 1.715 . S
C284 C137 1.320 . S
C279 C87 1.353 . S
C314 C186 1.301 . S
C309 C54 1.341 . S
C344 C217 1.538 . S
C339 C65 1.610 . S
C374 C106 1.716 1_565 S
C369 C32 1.747 . S
C399 C43 1.348 . S
C404 C146 1.321 . S
C429 C10 1.347 . S
C434 C177 1.301 . S
C459 C21 1.612 . S
C464 C226 1.538 . S
C494 C107 0.704 . S
C489 C60 0.717 . S
C524 C147 1.314 . S
C519 C71 1.199 . S
C554 C183 0.605 . S
C549 C82 0.615 . S
C579 C49 0.864 . S
C584 C227 0.907 . S
C609 C16 0.717 . S
C614 C98 0.704 . S
C644 C138 1.315 1_565 S
C639 C27 1.189 . S
C674 C174 0.605 . S
C669 C38 0.613 . S
C699 C5 0.861 . S
C704 C218 0.907 . S
C729 C59 1.619 . S
C734 C103 1.661 . S
C759 C70 1.398 . S
C764 C143 1.413 . S
C794 C187 1.934 . S
C789 C81 1.794 . S
C824 C223 1.431 . S
C819 C48 1.420 . S
C849 C15 1.619 . S
C854 C94 1.660 . S
C884 C134 1.413 . S
C879 C26 1.390 . S
C914 C178 1.934 . S
C909 C37 1.808 . S
C939 C4 1.417 . S
C944 C214 1.429 . S
