# Generated by pormake.
# Topology anh, (6,3)-cn, num edge types: 1
# Building blocks:
#     Node 0, Type 0, BuildingBlock: PAMTOO_clean_sbu_0, # of connection points: 6
#     Node 1, Type 0, BuildingBlock: PAMTOO_clean_sbu_0, # of connection points: 6
#     Node 2, Type 0, BuildingBlock: PAMTOO_clean_sbu_0, # of connection points: 6
#     Node 3, Type 1, BuildingBlock: QEWDON_clean_linker_0, # of connection points: 3
#     Node 4, Type 1, BuildingBlock: QEWDON_clean_linker_0, # of connection points: 3
#     Node 5, Type 1, BuildingBlock: QEWDON_clean_linker_0, # of connection points: 3
#     Node 6, Type 1, BuildingBlock: QEWDON_clean_linker_0, # of connection points: 3
#     Node 7, Type 1, BuildingBlock: QEWDON_clean_linker_0, # of connection points: 3
#     Node 8, Type 1, BuildingBlock: QEWDON_clean_linker_0, # of connection points: 3
#     Edge 9, Type (0, 1), BuildingBlock: KIFKEQ_clean_linker_1, # of connection points: 2
#     Edge 10, Type (0, 1), BuildingBlock: KIFKEQ_clean_linker_1, # of connection points: 2
#     Edge 11, Type (0, 1), BuildingBlock: KIFKEQ_clean_linker_1, # of connection points: 2
#     Edge 12, Type (0, 1), BuildingBlock: KIFKEQ_clean_linker_1, # of connection points: 2
#     Edge 13, Type (0, 1), BuildingBlock: KIFKEQ_clean_linker_1, # of connection points: 2
#     Edge 14, Type (0, 1), BuildingBlock: KIFKEQ_clean_linker_1, # of connection points: 2
#     Edge 15, Type (0, 1), BuildingBlock: KIFKEQ_clean_linker_1, # of connection points: 2
#     Edge 16, Type (0, 1), BuildingBlock: KIFKEQ_clean_linker_1, # of connection points: 2
#     Edge 17, Type (0, 1), BuildingBlock: KIFKEQ_clean_linker_1, # of connection points: 2
#     Edge 18, Type (0, 1), BuildingBlock: KIFKEQ_clean_linker_1, # of connection points: 2
#     Edge 19, Type (0, 1), BuildingBlock: KIFKEQ_clean_linker_1, # of connection points: 2
#     Edge 20, Type (0, 1), BuildingBlock: KIFKEQ_clean_linker_1, # of connection points: 2
#     Edge 21, Type (0, 1), BuildingBlock: KIFKEQ_clean_linker_1, # of connection points: 2
#     Edge 22, Type (0, 1), BuildingBlock: KIFKEQ_clean_linker_1, # of connection points: 2
#     Edge 23, Type (0, 1), BuildingBlock: KIFKEQ_clean_linker_1, # of connection points: 2
#     Edge 24, Type (0, 1), BuildingBlock: KIFKEQ_clean_linker_1, # of connection points: 2
#     Edge 25, Type (0, 1), BuildingBlock: KIFKEQ_clean_linker_1, # of connection points: 2
#     Edge 26, Type (0, 1), BuildingBlock: KIFKEQ_clean_linker_1, # of connection points: 2
# Relax obj value: 0.127
# Max RMSD: 0.150
# Mean RMSD: 0.118
data_MOF--net-anh--node1-PAMTOO_clean_sbu_0--node2-QEWDON_clean_linker_0--edge1-KIFKEQ_clean_linker_1
_symmetry_space_group_name_H-M    P1
_symmetry_Int_Tables_number       1
_symmetry_cell_setting            triclinic
loop_
_symmetry_equiv_pos_as_xyz
'x, y, z'
_cell_length_a     32.272634
_cell_length_b     31.335336
_cell_length_c     49.232818
_cell_angle_alpha  94.062713
_cell_angle_beta   99.100487
_cell_angle_gamma 102.37345
loop_
_atom_site_label
_atom_site_type_symbol
_atom_site_fract_x
_atom_site_fract_y
_atom_site_fract_z
_atom_type_partial_charge
Dy0 Dy 0.11723 0.63004 0.16102 0.0
Dy1 Dy 0.09413 0.52224 0.14542 0.0
C2 C 0.11299 0.58883 0.09859 0.0
O3 O 1.04461 0.61516 0.15105 0.0
O4 O 1.03018 0.53967 0.14892 0.0
O5 O 0.11603 0.6969 0.15364 0.0
O6 O 0.15079 0.68322 0.19224 0.0
O7 O 0.11283 0.53472 0.19144 0.0
O8 O 0.09273 0.59976 0.19663 0.0
O9 O 0.16521 0.53865 0.1447 0.0
O10 O 0.18211 0.61163 0.16233 0.0
O11 O 0.09823 0.457 0.15533 0.0
O12 O 1.05686 0.46561 0.1179 0.0
C13 C 1.01707 0.57687 0.14918 0.0
O14 O 0.11495 0.62343 0.11571 0.0
O15 O 0.10712 0.54867 0.1058 0.0
C16 C 0.18062 0.74724 0.17383 0.0
C17 C 0.25593 0.81098 0.17166 0.0
C18 C 0.24693 0.76979 0.15586 0.0
C19 C 0.20959 0.73813 0.15699 0.0
C20 C 0.18903 0.78832 0.18927 0.0
C21 C 0.22635 0.81992 0.18824 0.0
C22 C 0.14282 0.71337 0.17652 0.0
C23 C 0.10175 0.56474 0.20681 0.0
C24 C 0.19379 0.57583 0.15349 0.0
C25 C 1.0314 0.40531 0.14118 0.0
C26 C 0.9556 0.34891 0.15061 0.0
C27 C 0.98156 0.37978 0.17199 0.0
C28 C 1.019 0.40801 0.16726 0.0
C29 C 1.00641 0.37336 0.12019 0.0
C30 C 0.96875 0.3455 0.12481 0.0
C31 C 1.06771 0.43791 0.1347 0.0
H32 H 0.26878 0.76196 0.14271 0.0
H33 H 0.20359 0.70636 0.14501 0.0
H34 H 0.16714 0.79566 0.20256 0.0
H35 H 0.23261 0.85091 0.2011 0.0
H36 H 0.97189 0.38341 0.19196 0.0
H37 H 1.03745 0.4328 0.18371 0.0
H38 H 1.0153 0.3709 0.09991 0.0
H39 H 0.94943 0.32181 0.10804 0.0
Dy40 Dy 0.59295 0.05292 0.50054 0.0
Dy41 Dy 0.69884 0.07465 0.51602 0.0
C42 C 0.63965 0.05063 0.5619 0.0
O43 O 0.61284 0.12397 0.51763 0.0
O44 O 0.68235 0.1395 0.5095 0.0
O45 O 0.53057 0.05314 0.51108 0.0
O46 O 0.53553 0.02739 0.46992 0.0
O47 O 0.6809 0.0655 0.46965 0.0
O48 O 0.61742 0.08741 0.46639 0.0
O49 O 0.67774 1.00245 0.5188 0.0
O50 O 0.61312 0.99076 0.48913 0.0
O51 O 0.76051 0.06799 0.50649 0.0
O52 O 0.7575 0.1073 0.54378 0.0
C53 C 0.64803 0.15239 0.51489 0.0
O54 O 0.60735 0.03118 0.54228 0.0
O55 O 0.67483 0.07557 0.55628 0.0
C56 C 0.47583 0.99313 0.48838 0.0
C57 C 0.4112 0.91646 0.48778 0.0
C58 C 0.45138 0.92287 0.50541 0.0
C59 C 0.4835 0.96084 0.50562 0.0
C60 C 0.43583 0.98718 0.47101 0.0
C61 C 0.40381 0.94919 0.47066 0.0
C62 C 0.50985 0.0321 0.48732 0.0
C63 C 0.65025 0.08075 0.45551 0.0
C64 C 0.64427 0.9757 0.50301 0.0
C65 C 0.81441 0.13364 0.52088 0.0
C66 C 0.87027 0.21221 0.51274 0.0
C67 C 0.83598 0.19079 0.49162 0.0
C68 C 0.80802 0.15197 0.49573 0.0
C69 C 0.84965 0.15401 0.5415 0.0
C70 C 0.87727 0.19304 0.53752 0.0
C71 C 0.78214 0.09655 0.52717 0.0
H72 H 0.45803 0.8986 0.51906 0.0
H73 H 0.51441 0.96482 0.51906 0.0
H74 H 0.4296 0.01163 0.45737 0.0
H75 H 0.37362 0.94503 0.45645 0.0
H76 H 0.82961 0.20513 0.47244 0.0
H77 H 0.7806 0.1372 0.47967 0.0
H78 H 0.85488 0.14057 0.56111 0.0
H79 H 0.90363 0.20877 0.55406 0.0
Dy80 Dy 0.64895 0.54655 0.83667 0.0
Dy81 Dy 0.54375 0.51989 0.81905 0.0
C82 C 0.60536 0.53497 0.77479 0.0
O83 O 0.63065 0.60971 0.82728 0.0
O84 O 0.56007 0.59193 0.83302 0.0
O85 O 0.71088 0.58181 0.83008 0.0
O86 O 0.70647 0.54262 0.86461 0.0
O87 O 0.55831 0.50778 0.86349 0.0
O88 O 0.62164 0.55992 0.87425 0.0
O89 O 0.56201 0.45521 0.81451 0.0
O90 O 0.63212 0.47379 0.83786 0.0
O91 O 0.47964 0.51879 0.82683 0.0
O92 O 0.48865 0.49165 0.78703 0.0
C93 C 0.59474 0.62116 0.83053 0.0
O94 O 0.6343 0.52225 0.79202 0.0
O95 O 0.57211 0.54585 0.78322 0.0
C96 C 0.76503 0.5433 0.84167 0.0
C97 C 0.83174 0.50783 0.82593 0.0
C98 C 0.79243 0.50213 0.80761 0.0
C99 C 0.75914 0.51951 0.81551 0.0
C100 C 0.80345 0.54751 0.86033 0.0
C101 C 0.83652 0.5299 0.85257 0.0
C102 C 0.73174 0.56442 0.84962 0.0
C103 C 0.58919 0.53349 0.88186 0.0
C104 C 0.59748 0.4443 0.82576 0.0
C105 C 0.43685 0.53366 0.78705 0.0
C106 C 0.38848 0.58952 0.76153 0.0
C107 C 0.42886 0.60697 0.77848 0.0
C108 C 0.45285 0.57934 0.79092 0.0
C109 C 0.39757 0.51576 0.76929 0.0
C110 C 0.37357 0.54348 0.75653 0.0
C111 C 0.46201 0.50517 0.80106 0.0
H112 H 0.78788 0.48527 0.78701 0.0
H113 H 0.72927 0.51537 0.80095 0.0
H114 H 0.80835 0.56551 0.88064 0.0
H115 H 0.86671 0.53566 0.86699 0.0
H116 H 0.44121 0.6421 0.78333 0.0
H117 H 0.48348 0.59384 0.80418 0.0
H118 H 0.38521 0.48048 0.76563 0.0
H119 H 0.34291 0.52889 0.74331 0.0
H120 H 0.63313 0.13557 0.23979 0.0
C121 C 0.60751 0.10688 0.23187 0.0
C122 C 0.59041 0.07898 0.2505 0.0
C123 C 0.5891 0.09969 0.20349 0.0
H124 H 0.54163 0.02229 0.25493 0.0
C125 C 0.55536 0.04348 0.24057 0.0
C126 C 0.5368 0.03576 0.2125 0.0
C127 C 0.55453 0.06308 0.19396 0.0
C128 C 0.60243 0.13256 0.18423 0.0
H129 H 0.53982 0.05706 0.17227 0.0
C130 C 0.64595 0.15446 0.18592 0.0
C131 C 0.65764 0.18613 0.16782 0.0
C132 C 0.57086 0.14312 0.1643 0.0
H133 H 0.53698 0.12813 0.16291 0.0
C134 C 0.58235 0.17379 0.14612 0.0
H135 H 0.67056 0.14709 0.20134 0.0
C136 C 0.62533 0.19501 0.14773 0.0
H137 H 0.63326 0.21828 0.13305 0.0
H138 H 0.55776 0.1813 0.13077 0.0
H139 H 0.61906 0.58647 0.56176 0.0
C140 C 0.62581 0.5555 0.55485 0.0
C141 C 0.63648 0.5274 0.57456 0.0
C142 C 0.62216 0.54309 0.52632 0.0
H143 H 0.64995 0.46382 0.58033 0.0
C144 C 0.64387 0.48666 0.56547 0.0
C145 C 0.64076 0.47348 0.53732 0.0
C146 C 0.63004 0.50184 0.51782 0.0
C147 C 0.60662 0.57142 0.50547 0.0
H148 H 0.62779 0.49157 0.49606 0.0
C149 C 0.61727 0.618 0.51045 0.0
C150 C 0.5992 0.64371 0.49147 0.0
C151 C 0.57853 0.55152 0.48084 0.0
H152 H 0.56854 0.51612 0.47648 0.0
C153 C 0.56158 0.5769 0.46179 0.0
H154 H 0.63882 0.63425 0.52919 0.0
C155 C 0.57158 0.62252 0.46707 0.0
H156 H 0.55764 0.64138 0.45197 0.0
H157 H 0.53997 0.56104 0.44299 0.0
H158 H 0.19503 0.70865 0.91017 0.0
C159 C 0.1724 0.68428 0.89516 0.0
C160 C 0.14982 0.64548 0.90384 0.0
C161 C 0.16632 0.69142 0.86703 0.0
H162 H 0.10182 0.58514 0.89048 0.0
C163 C 0.12136 0.61386 0.88393 0.0
C164 C 0.11507 0.62034 0.85585 0.0
C165 C 0.13753 0.65919 0.84759 0.0
C166 C 0.18999 0.7321 0.85751 0.0
H167 H 0.13179 0.66473 0.82597 0.0
C168 C 0.20658 0.72928 0.83295 0.0
C169 C 0.22893 0.76687 0.82315 0.0
C170 C 0.19609 0.7736 0.87241 0.0
H171 H 0.18327 0.77697 0.89128 0.0
C172 C 0.21851 0.81127 0.86279 0.0
H173 H 0.20361 0.69728 0.82188 0.0
C174 C 0.23522 0.80799 0.83836 0.0
H175 H 0.25316 0.83729 0.83144 0.0
H176 H 0.22319 0.84308 0.87442 0.0
H177 H 1.07012 0.54939 0.42186 0.0
C178 C 0.09911 0.57452 0.42989 0.0
C179 C 0.12796 0.58961 0.41219 0.0
C180 C 0.10706 0.5926 0.45771 0.0
H181 H 0.18578 0.63637 0.40853 0.0
C182 C 0.16477 0.62314 0.42253 0.0
C183 C 0.17322 0.64167 0.4502 0.0
C184 C 0.14446 0.62572 0.4677 0.0
C185 C 1.07584 0.57837 0.4763 0.0
H186 H 0.1512 0.63915 0.48925 0.0
C187 C 1.05705 0.53356 0.47679 0.0
C188 C 1.02948 0.52047 0.49563 0.0
C189 C 1.06545 0.6099 0.49425 0.0
H190 H 1.07869 0.64466 0.49398 0.0
C191 C 1.03771 0.59698 0.5127 0.0
H192 H 1.06505 0.50882 0.46331 0.0
C193 C 1.02005 0.55254 0.51357 0.0
H194 H 0.99866 0.54318 0.52811 0.0
H195 H 1.03 0.62151 0.52643 0.0
H196 H 0.58736 1.00028 0.769 0.0
C197 C 0.59281 0.03429 0.77748 0.0
C198 C 0.6046 0.06765 0.76072 0.0
C199 C 0.58476 0.0447 0.80418 0.0
H200 H 0.61752 0.13712 0.75748 0.0
C201 C 0.60955 0.11168 0.77088 0.0
C202 C 0.60247 0.12307 0.79752 0.0
C203 C 0.59028 0.08942 0.81411 0.0
C204 C 0.56655 1.00906 0.82053 0.0
H205 H 0.58475 0.09816 0.83471 0.0
C206 C 0.5798 0.96878 0.82055 0.0
C207 C 0.56068 0.93483 0.83523 0.0
C208 C 0.53389 0.01467 0.83537 0.0
H209 H 0.52197 0.04445 0.83526 0.0
C210 C 0.515 0.98141 0.84985 0.0
H211 H 0.60526 0.96411 0.80953 0.0
C212 C 0.52803 0.94183 0.84972 0.0
H213 H 0.5117 0.91631 0.86058 0.0
H214 H 0.48959 0.98607 0.86091 0.0
H215 H 0.56784 0.54786 0.09878 0.0
C216 C 0.602 0.55386 0.10679 0.0
C217 C 0.62983 0.5491 0.08808 0.0
C218 C 0.61757 0.56401 0.1355 0.0
H219 H 0.69544 0.55113 0.08351 0.0
C220 C 0.674 0.55409 0.09807 0.0
C221 C 0.69145 0.56328 0.12631 0.0
C222 C 0.66321 0.56957 0.14492 0.0
C223 C 0.58578 0.56541 0.15536 0.0
H224 H 0.67703 0.5779 0.16662 0.0
C225 C 0.54321 0.57299 0.1473 0.0
C226 C 0.51426 0.57242 0.16655 0.0
C227 C 0.59737 0.55667 0.18287 0.0
H228 H 0.62788 0.54868 0.1901 0.0
C229 C 0.56934 0.55648 0.20168 0.0
H230 H 0.53264 0.58013 0.12651 0.0
C231 C 0.52853 0.56427 0.19372 0.0
H232 H 0.50756 0.563 0.20894 0.0
H233 H 0.57918 0.54956 0.22266 0.0
H234 H 0.2639 0.64679 0.16783 0.0
H235 H 0.23195 0.50879 0.13827 0.0
H236 H 0.3399 0.6494 0.1674 0.0
H237 H 0.30806 0.51108 0.1384 0.0
H238 H 0.44752 0.53116 0.12371 0.0
H239 H 0.37104 0.5335 0.11858 0.0
H240 H 0.40109 0.62956 0.19034 0.0
H241 H 0.47681 0.62782 0.19482 0.0
C242 C 0.27292 0.61682 0.16135 0.0
C243 C 0.24108 0.5775 0.15328 0.0
C244 C 0.31695 0.61824 0.16119 0.0
C245 C 0.33113 0.58041 0.15295 0.0
C246 C 0.29911 0.54122 0.14456 0.0
C247 C 0.25507 0.53981 0.14472 0.0
C248 C 0.4379 0.5536 0.13792 0.0
C249 C 0.46883 0.57938 0.15963 0.0
C250 C 0.3937 0.55449 0.1353 0.0
C251 C 0.37889 0.58146 0.15418 0.0
C252 C 0.41039 0.60858 0.17509 0.0
C253 C 0.45424 0.60749 0.17776 0.0
H254 H 0.90959 0.23791 0.46925 0.0
H255 H 0.88949 0.28543 0.54944 0.0
H256 H 0.95198 0.31087 0.46457 0.0
H257 H 0.93002 0.35842 0.54451 0.0
H258 H 1.0337 0.47645 0.54113 0.0
H259 H 0.99908 0.40049 0.54476 0.0
H260 H 0.94651 0.38331 0.4572 0.0
H261 H 0.9832 0.45898 0.45358 0.0
C262 C 0.91417 0.26408 0.4858 0.0
C263 C 0.89667 0.25601 0.50981 0.0
C264 C 0.93824 0.30592 0.48311 0.0
C265 C 0.94476 0.3407 0.50422 0.0
C266 C 0.9268 0.33238 0.52811 0.0
C267 C 0.90335 0.29053 0.53094 0.0
C268 C 1.01499 0.45618 0.52267 0.0
C269 C 1.01081 0.47346 0.49713 0.0
C270 C 0.99486 0.41274 0.52473 0.0
C271 C 0.96934 0.38573 0.50136 0.0
C272 C 0.96621 0.40284 0.4756 0.0
C273 C 0.98702 0.44622 0.47348 0.0
H274 H 0.65038 0.68908 0.81349 0.0
H275 H 0.53473 0.65985 0.84908 0.0
H276 H 0.64639 0.76644 0.81447 0.0
H277 H 0.53128 0.73694 0.85036 0.0
H278 H 0.56854 0.88437 0.87818 0.0
H279 H 0.57875 0.80957 0.87673 0.0
H280 H 0.59317 0.81197 0.7912 0.0
H281 H 0.58125 0.8867 0.79218 0.0
C282 C 0.62427 0.69913 0.82164 0.0
C283 C 0.59298 0.66824 0.83133 0.0
C284 C 0.6219 0.74336 0.82204 0.0
C285 C 0.58867 0.75775 0.83262 0.0
C286 C 0.55752 0.7269 0.84235 0.0
C287 C 0.55943 0.68267 0.84151 0.0
C288 C 0.57364 0.86907 0.85895 0.0
C289 C 0.57319 0.89151 0.83513 0.0
C290 C 0.57966 0.82619 0.8582 0.0
C291 C 0.58618 0.80472 0.83377 0.0
C292 C 0.58824 0.82778 0.81034 0.0
C293 C 0.5816 0.87067 0.81096 0.0
H294 H 0.95044 0.50461 0.1483 0.0
H295 H 0.97478 0.64537 0.148 0.0
H296 H 0.87408 0.5013 0.14676 0.0
H297 H 0.89783 0.64203 0.14573 0.0
H298 H 0.75715 0.62696 0.15987 0.0
H299 H 0.8352 0.63075 0.16733 0.0
H300 H 0.81109 0.50562 0.11791 0.0
H301 H 0.73418 0.50161 0.11132 0.0
C302 C 0.93964 0.53501 0.14775 0.0
C303 C 0.96951 0.57525 0.1481 0.0
C304 C 0.89532 0.53311 0.14672 0.0
C305 C 0.87871 0.57134 0.14589 0.0
C306 C 0.90873 0.61173 0.14662 0.0
C307 C 0.9532 0.61363 0.1477 0.0
C308 C 0.76857 0.59988 0.15115 0.0
C309 C 0.7389 0.56394 0.135 0.0
C310 C 0.81358 0.60226 0.15507 0.0
C311 C 0.83043 0.56859 0.14317 0.0
C312 C 0.8003 0.53213 0.12785 0.0
C313 C 0.75572 0.52988 0.1239 0.0
H314 H 0.32394 0.9075 0.48265 0.0
H315 H 0.42204 0.83222 0.48996 0.0
H316 H 0.26837 0.83991 0.47638 0.0
H317 H 0.36645 0.76463 0.48536 0.0
H318 H 0.25469 0.65435 0.43793 0.0
H319 H 0.31277 0.71999 0.44984 0.0
H320 H 0.23512 0.77968 0.49809 0.0
H321 H 0.17608 0.71516 0.48476 0.0
C322 C 0.33369 0.87653 0.48313 0.0
C323 C 0.3775 0.87536 0.48653 0.0
C324 C 0.30179 0.83772 0.47995 0.0
C325 C 0.31284 0.79669 0.4803 0.0
C326 C 0.35672 0.79558 0.48459 0.0
C327 C 0.38866 0.83443 0.48759 0.0
C328 C 0.24995 0.68153 0.45102 0.0
C329 C 0.2105 0.67956 0.46014 0.0
C330 C 0.28352 0.719 0.45818 0.0
C331 C 0.27861 0.75533 0.47482 0.0
C332 C 0.23979 0.75263 0.48487 0.0
C333 C 0.2061 0.7153 0.47753 0.0
H334 H 0.53095 0.37244 0.80714 0.0
H335 H 0.66699 0.40877 0.84168 0.0
H336 H 0.53375 0.29512 0.80386 0.0
H337 H 0.66954 0.33141 0.83864 0.0
H338 H 0.66503 0.19497 0.79291 0.0
H339 H 0.66419 0.27228 0.80205 0.0
H340 H 0.54416 0.23487 0.83197 0.0
H341 H 0.54464 0.15732 0.82227 0.0
C342 C 0.56141 0.36401 0.81419 0.0
C343 C 0.59876 0.39702 0.82457 0.0
C344 C 0.56293 0.31958 0.8125 0.0
C345 C 0.60187 0.30699 0.821 0.0
C346 C 0.6391 0.33995 0.83167 0.0
C347 C 0.63756 0.38436 0.83351 0.0
C348 C 0.63866 0.20327 0.80167 0.0
C349 C 0.60482 0.16999 0.80675 0.0
C350 C 0.6383 0.24761 0.80708 0.0
C351 C 0.60395 0.25984 0.81758 0.0
C352 C 0.57082 0.22658 0.82356 0.0
C353 C 0.57135 0.18216 0.81832 0.0
H354 H 0.69435 0.93024 0.53464 0.0
H355 H 0.58498 0.91117 0.46832 0.0
H356 H 0.68461 0.85068 0.5341 0.0
H357 H 0.57615 0.83208 0.46711 0.0
H358 H 0.53997 0.69397 0.48846 0.0
H359 H 0.55229 0.77366 0.49238 0.0
H360 H 0.68985 0.78402 0.50943 0.0
H361 H 0.67706 0.70367 0.50631 0.0
C362 C 0.66852 0.90914 0.51972 0.0
C363 C 0.64036 0.92729 0.50159 0.0
C364 C 0.66302 0.86339 0.51934 0.0
C365 C 0.62929 0.83457 0.50075 0.0
C366 C 0.60185 0.85294 0.48221 0.0
C367 C 0.60715 0.89852 0.48273 0.0
C368 C 0.57286 0.7133 0.49322 0.0
C369 C 0.60755 0.69251 0.49684 0.0
C370 C 0.58001 0.7591 0.49526 0.0
C371 C 0.62215 0.78566 0.50068 0.0
C372 C 0.65693 0.76485 0.50534 0.0
C373 C 0.64969 0.71878 0.50355 0.0
H374 H 0.89122 0.46892 0.85373 0.0
H375 H 0.85919 0.52309 0.77703 0.0
H376 H 0.96543 0.47958 0.84739 0.0
H377 H 0.93331 0.53182 0.76983 0.0
H378 H 1.0537 0.63987 0.81729 0.0
H379 H 0.98577 0.5915 0.79624 0.0
H380 H 1.02938 0.48097 0.82879 0.0
H381 H 0.09795 0.53026 0.85033 0.0
C382 C 0.89973 0.48129 0.83487 0.0
C383 C 0.87001 0.497 0.81653 0.0
C384 C 0.94233 0.48697 0.83098 0.0
C385 C 0.95577 0.50833 0.80859 0.0
C386 C 0.92421 0.51662 0.78775 0.0
C387 C 0.8816 0.51131 0.79179 0.0
C388 C 1.04966 0.605 0.81898 0.0
C389 C 1.08057 0.58906 0.83616 0.0
C390 C 1.01053 0.57693 0.80671 0.0
C391 C 1.00152 0.53236 0.81146 0.0
C392 C 1.03489 0.51534 0.82536 0.0
C393 C 1.07407 0.54354 0.83775 0.0
H394 H 0.33683 0.79639 0.1717 0.0
H395 H 0.2677 0.90025 0.17251 0.0
H396 H 0.40484 0.85124 0.17761 0.0
H397 H 0.33579 0.95483 0.17911 0.0
H398 H 0.46463 0.02739 0.23497 0.0
H399 H 0.39655 0.97336 0.22084 0.0
H400 H 0.44771 0.91535 0.1551 0.0
H401 H 0.51644 0.97004 0.16935 0.0
C402 C 0.33599 0.83082 0.17259 0.0
C403 C 0.2968 0.84392 0.17201 0.0
C404 C 0.37498 0.86218 0.17601 0.0
C405 C 0.37552 0.90719 0.17912 0.0
C406 C 0.33628 0.92029 0.1772 0.0
C407 C 0.29734 0.88902 0.17356 0.0
C408 C 0.4614 1.00302 0.21755 0.0
C409 C 0.49581 1.00255 0.20337 0.0
C410 C 0.42233 0.97242 0.20929 0.0
C411 C 0.41684 0.94037 0.1868 0.0
C412 C 0.45123 0.93973 0.17255 0.0
C413 C 0.49033 0.97095 0.1806 0.0
H414 H 0.58021 0.19136 0.51809 0.0
H415 H 0.71625 0.22172 0.51466 0.0
H416 H 0.58048 0.26943 0.51991 0.0
H417 H 0.71632 0.29976 0.5163 0.0
H418 H 0.70603 0.43525 0.55736 0.0
H419 H 0.70861 0.3581 0.55 0.0
H420 H 0.58891 0.33226 0.49165 0.0
H421 H 0.58623 0.40972 0.49933 0.0
C422 C 0.6102 0.21461 0.51771 0.0
C423 C 0.64826 0.20009 0.51638 0.0
C424 C 0.61024 0.25941 0.51848 0.0
C425 C 0.64838 0.29094 0.51814 0.0
C426 C 0.68643 0.27643 0.51678 0.0
C427 C 0.68634 0.23161 0.5158 0.0
C428 C 0.68064 0.41321 0.54262 0.0
C429 C 0.64589 0.42853 0.52895 0.0
C430 C 0.68217 0.36899 0.53832 0.0
C431 C 0.64877 0.33882 0.52042 0.0
C432 C 0.61487 0.35452 0.50586 0.0
C433 C 0.61358 0.39896 0.50997 0.0
H434 H 0.41103 0.67201 0.7445 0.0
H435 H 0.30144 0.57551 0.75908 0.0
H436 H 0.36909 0.72823 0.74523 0.0
H437 H 0.25973 0.63074 0.75887 0.0
H438 H 0.19043 0.72509 0.77216 0.0
H439 H 0.22668 0.68896 0.7406 0.0
H440 H 0.34999 0.75668 0.78892 0.0
H441 H 0.31368 0.79301 0.82003 0.0
C442 C 0.37769 0.66243 0.74702 0.0
C443 C 0.36009 0.6195 0.75267 0.0
C444 C 0.35363 0.6946 0.7472 0.0
C445 C 0.31139 0.68416 0.75259 0.0
C446 C 0.29211 0.64 0.75448 0.0
C447 C 0.31623 0.60806 0.75464 0.0
C448 C 0.22532 0.73384 0.77511 0.0
C449 C 0.24941 0.76087 0.79881 0.0
C450 C 0.24605 0.71311 0.75711 0.0
C451 C 0.29108 0.71891 0.76278 0.0
C452 C 0.31523 0.75136 0.78397 0.0
C453 C 0.29446 0.77224 0.80191 0.0
H454 H 0.93722 0.30091 0.19345 0.0
H455 H 0.87848 0.33882 0.11662 0.0
H456 H 0.86604 0.26062 0.20024 0.0
H457 H 0.80784 0.29897 0.12344 0.0
H458 H 0.6875 0.27295 0.16259 0.0
H459 H 0.76059 0.31082 0.15971 0.0
H460 H 0.80487 0.1927 0.17484 0.0
H461 H 0.73108 0.15393 0.17688 0.0
C462 C 0.90913 0.30048 0.17804 0.0
C463 C 0.91328 0.32281 0.15447 0.0
C464 C 0.86859 0.27734 0.18185 0.0
C465 C 0.83156 0.27697 0.16244 0.0
C466 C 0.83586 0.29906 0.13884 0.0
C467 C 0.87629 0.32153 0.13482 0.0
C468 C 0.71266 0.25484 0.16518 0.0
C469 C 0.70321 0.21012 0.16944 0.0
C470 C 0.75454 0.27663 0.16364 0.0
C471 C 0.78816 0.25449 0.1667 0.0
C472 C 0.77943 0.21049 0.17244 0.0
C473 C 0.73725 0.1884 0.17369 0.0
H474 H 0.1522 0.54301 0.06545 0.0
H475 H 0.09015 0.65188 0.0682 0.0
H476 H 0.16846 0.55882 0.02003 0.0
H477 H 0.10357 0.66614 0.02212 0.0
H478 H 0.15833 0.70685 0.94835 0.0
H479 H 0.15444 0.69376 -0.004 0.0
H480 H 0.13995 0.55456 0.97393 0.0
H481 H 0.14824 0.56833 0.92714 0.0
C482 C 0.14132 0.56982 0.05603 0.0
C483 C 0.1198 0.59612 0.07021 0.0
C484 C 0.15055 0.57893 0.02994 0.0
C485 C 0.13753 0.61395 0.01719 0.0
C486 C 0.11524 0.63967 0.03139 0.0
C487 C 0.10699 0.6312 0.05771 0.0
C488 C 0.15564 0.67364 0.95383 0.0
C489 C 0.15298 0.6386 0.93368 0.0
C490 C 0.1525 0.66593 0.98114 0.0
C491 C 0.14583 0.6229 0.98892 0.0
C492 C 0.14524 0.5882 0.969 0.0
C493 C 0.14932 0.59604 0.9419 0.0
H494 H 0.69262 0.04611 0.41827 0.0
H495 H 0.61024 0.1362 0.42737 0.0
H496 H 0.68435 0.05348 0.36857 0.0
H497 H 0.60307 0.14456 0.37829 0.0
H498 H 0.54148 0.08651 0.2895 0.0
H499 H 0.56295 0.09356 0.33939 0.0
H500 H 0.69521 0.10067 0.33026 0.0
H501 H 0.67303 0.09261 0.27961 0.0
C502 C 0.67357 0.06818 0.40977 0.0
C503 C 0.65129 0.0898 0.42654 0.0
C504 C 0.66901 0.0726 0.38137 0.0
C505 C 0.6424 0.099 0.36941 0.0
C506 C 0.6229 0.1231 0.38671 0.0
C507 C 0.62705 0.11833 0.41486 0.0
C508 C 0.57521 0.08993 0.29813 0.0
C509 C 0.60556 0.08865 0.28077 0.0
C510 C 0.58765 0.09438 0.32675 0.0
C511 C 0.63087 0.09782 0.33886 0.0
C512 C 0.66164 0.09782 0.32152 0.0
C513 C 0.64909 0.09359 0.29264 0.0
H514 H 0.68117 0.54998 0.75562 0.0
H515 H 0.54379 0.53061 0.7292 0.0
H516 H 0.692 0.55741 0.70827 0.0
H517 H 0.554 0.53498 0.68143 0.0
H518 H 0.58167 0.56804 0.59867 0.0
H519 H 0.57711 0.57709 0.64751 0.0
H520 H 0.68494 0.51614 0.66683 0.0
H521 H 0.69186 0.511 0.61859 0.0
C522 C 0.65321 0.54682 0.73955 0.0
C523 C 0.61161 0.53938 0.746 0.0
C524 C 0.65935 0.55088 0.71231 0.0
C525 C 0.6239 0.54645 0.69072 0.0
C526 C 0.58225 0.53943 0.69739 0.0
C527 C 0.57624 0.53644 0.72477 0.0
C528 C 0.60523 0.55784 0.61345 0.0
C529 C 0.63683 0.53829 0.60457 0.0
C530 C 0.60212 0.56226 0.6415 0.0
C531 C 0.63012 0.54665 0.66131 0.0
C532 C 0.66291 0.52897 0.65246 0.0
C533 C 0.66652 0.52535 0.62458 0.0
H534 H 0.56691 0.01487 0.58162 0.0
H535 H 0.70229 0.07551 0.60829 0.0
H536 H 0.55801 0.01224 0.62975 0.0
H537 H 0.69313 0.07258 0.65656 0.0
H538 H 0.6628 0.02783 0.74065 0.0
H539 H 0.67199 0.01774 0.69207 0.0
H540 H 0.56298 0.07445 0.66724 0.0
H541 H 0.55437 0.08489 0.7155 0.0
C542 C 0.5949 0.0272 0.5977 0.0
C543 C 0.63527 0.0458 0.59109 0.0
C544 C 0.58971 0.02573 0.62527 0.0
C545 C 0.62483 0.04234 0.64684 0.0
C546 C 0.66559 0.05926 0.6403 0.0
C547 C 0.67072 0.06121 0.61268 0.0
C548 C 0.64063 0.0375 0.72463 0.0
C549 C 0.60792 0.05709 0.73156 0.0
C550 C 0.64598 0.03202 0.69699 0.0
C551 C 0.61814 0.04528 0.67595 0.0
C552 C 0.58461 0.06351 0.68298 0.0
C553 C 0.57975 0.06963 0.71052 0.0
H554 H 0.65856 0.55558 0.92316 0.0
H555 H 0.5201 0.50818 0.90828 0.0
H556 H 0.66048 0.55337 0.97263 0.0
H557 H 0.52221 0.50702 0.95851 0.0
H558 H 0.57132 0.58415 0.05515 0.0
H559 H 0.55442 0.57529 0.00436 0.0
H560 H 0.63578 0.48293 0.00195 0.0
H561 H 0.65152 0.49033 0.05237 0.0
C562 C 0.62845 0.54492 0.93047 0.0
C563 C 0.58914 0.53207 0.91182 0.0
C564 C 0.62964 0.54349 0.95878 0.0
C565 C 0.59153 0.5299 0.96923 0.0
C566 C 0.55198 0.51761 0.95081 0.0
C567 C 0.55084 0.51813 0.9222 0.0
C568 C 0.58455 0.56099 0.04379 0.0
C569 C 0.61349 0.53865 0.05778 0.0
C570 C 0.57488 0.55598 0.01478 0.0
C571 C 0.59422 0.52879 -0.00057 0.0
C572 C 0.62082 0.50437 0.0134 0.0
C573 C 0.63003 0.50892 0.04224 0.0
H574 H 0.13135 0.50533 0.2387 0.0
H575 H 1.06774 0.6133 0.24173 0.0
H576 H 0.13236 0.50162 0.2883 0.0
H577 H 1.06907 0.60973 0.29097 0.0
H578 H 1.05205 0.57888 0.37601 0.0
H579 H 1.04035 0.56401 0.32563 0.0
H580 H 0.17179 0.55088 0.33054 0.0
H581 H 0.18314 0.56487 0.38086 0.0
C582 C 0.11725 0.52796 0.24985 0.0
C583 C 0.09984 0.55987 0.23631 0.0
C584 C 0.11793 0.5259 0.27824 0.0
C585 C 0.10077 0.55536 0.29354 0.0
C586 C 0.08203 0.58617 0.27974 0.0
C587 C 1.08167 0.58848 0.25151 0.0
C588 C 1.07803 0.57162 0.36635 0.0
C589 C 0.11861 0.57338 0.38231 0.0
C590 C 1.07148 0.56352 0.33751 0.0
C591 C 0.1053 0.55674 0.3241 0.0
C592 C 0.14503 0.55572 0.34022 0.0
C593 C 0.15164 0.56408 0.36902 0.0
loop_
_geom_bond_atom_site_label_1
_geom_bond_atom_site_label_2
_geom_bond_distance
_geom_bond_site_symmetry_2
_ccdc_geom_bond_type
Dy0 O3 2.307 1_455 S
Dy0 O5 2.395 . S
Dy0 O6 2.379 . S
Dy0 O8 2.339 . S
Dy0 O10 2.298 . S
Dy0 O14 2.275 . S
Dy0 C22 2.738 . S
Dy1 O4 2.298 1_455 S
Dy1 O7 2.275 . S
Dy1 O9 2.307 . S
Dy1 O11 2.395 1_455 S
Dy1 O12 2.379 1_455 S
Dy1 O15 2.339 . S
Dy1 C31 2.738 1_455 S
C2 O14 1.254 . S
C2 O15 1.257 . S
O3 Dy0 2.307 1_655 S
O3 C13 1.266 . S
O4 Dy1 2.298 1_655 S
O4 C13 1.236 . S
O5 Dy0 2.395 . S
O5 C22 1.255 . S
O6 Dy0 2.379 . S
O6 C22 1.249 . S
O7 Dy1 2.275 . S
O7 C23 1.254 . S
O8 Dy0 2.339 . S
O8 C23 1.257 . S
O9 Dy1 2.307 . S
O9 C24 1.266 . S
O10 Dy0 2.298 . S
O10 C24 1.236 . S
O11 Dy1 2.395 1_655 S
O11 C31 1.255 . S
O12 Dy1 2.379 1_655 S
O12 C31 1.249 . S
C13 O3 1.266 . S
C13 O4 1.236 . S
O14 Dy0 2.275 . S
O14 C2 1.254 . S
O15 Dy1 2.339 . S
O15 C2 1.257 . S
C16 C19 1.344 . S
C16 C20 1.328 . S
C16 C22 1.516 . S
C17 C18 1.304 . S
C17 C21 1.323 . S
C18 C17 1.304 . S
C18 C19 1.371 . S
C18 H32 0.930 . S
C19 C16 1.344 . S
C19 C18 1.371 . S
C19 H33 0.931 . S
C20 C16 1.328 . S
C20 C21 1.433 . S
C20 H34 0.931 . S
C21 C17 1.323 . S
C21 C20 1.433 . S
C21 H35 0.933 . S
C22 Dy0 2.738 . S
C22 O5 1.255 . S
C22 O6 1.249 . S
C22 C16 1.516 . S
C23 O7 1.254 . S
C23 O8 1.257 . S
C24 O9 1.266 . S
C24 O10 1.236 . S
C25 C28 1.344 . S
C25 C29 1.328 . S
C25 C31 1.516 . S
C26 C27 1.304 . S
C26 C30 1.323 . S
C27 C26 1.304 . S
C27 C28 1.371 . S
C27 H36 0.930 . S
C28 C25 1.344 . S
C28 C27 1.371 . S
C28 H37 0.931 . S
C29 C25 1.328 . S
C29 C30 1.433 . S
C29 H38 0.931 . S
C30 C26 1.323 . S
C30 C29 1.433 . S
C30 H39 0.933 . S
C31 Dy1 2.738 1_655 S
C31 O11 1.255 . S
C31 O12 1.249 . S
C31 C25 1.516 . S
H32 C18 0.930 . S
H33 C19 0.931 . S
H34 C20 0.931 . S
H35 C21 0.933 . S
H36 C27 0.930 . S
H37 C28 0.931 . S
H38 C29 0.931 . S
H39 C30 0.933 . S
Dy40 O43 2.307 . S
Dy40 O45 2.395 1_545 S
Dy40 O46 2.379 1_545 S
Dy40 O48 2.339 . S
Dy40 O50 2.298 1_545 S
Dy40 O54 2.275 . S
Dy40 C62 2.738 1_545 S
Dy41 O44 2.298 . S
Dy41 O47 2.275 . S
Dy41 O49 2.307 . S
Dy41 O51 2.395 . S
Dy41 O52 2.379 . S
Dy41 O55 2.339 . S
Dy41 C71 2.738 . S
C42 O54 1.254 . S
C42 O55 1.257 . S
O43 Dy40 2.307 . S
O43 C53 1.266 . S
O44 Dy41 2.298 . S
O44 C53 1.236 . S
O45 Dy40 2.395 1_565 S
O45 C62 1.255 . S
O46 Dy40 2.379 1_565 S
O46 C62 1.249 . S
O47 Dy41 2.275 . S
O47 C63 1.254 . S
O48 Dy40 2.339 . S
O48 C63 1.257 . S
O49 Dy41 2.307 . S
O49 C64 1.266 1_545 S
O50 Dy40 2.298 1_565 S
O50 C64 1.236 . S
O51 Dy41 2.395 . S
O51 C71 1.255 . S
O52 Dy41 2.379 . S
O52 C71 1.249 . S
C53 O43 1.266 . S
C53 O44 1.236 . S
O54 Dy40 2.275 . S
O54 C42 1.254 . S
O55 Dy41 2.339 . S
O55 C42 1.257 . S
C56 C59 1.344 . S
C56 C60 1.328 . S
C56 C62 1.516 . S
C57 C58 1.304 . S
C57 C61 1.323 . S
C58 C57 1.304 . S
C58 C59 1.371 . S
C58 H72 0.930 . S
C59 C56 1.344 . S
C59 C58 1.371 . S
C59 H73 0.931 . S
C60 C56 1.328 . S
C60 C61 1.433 . S
C60 H74 0.931 . S
C61 C57 1.323 . S
C61 C60 1.433 . S
C61 H75 0.933 . S
C62 Dy40 2.738 1_565 S
C62 O45 1.255 . S
C62 O46 1.249 . S
C62 C56 1.516 . S
C63 O47 1.254 . S
C63 O48 1.257 . S
C64 O49 1.266 1_565 S
C64 O50 1.236 . S
C65 C68 1.344 . S
C65 C69 1.328 . S
C65 C71 1.516 . S
C66 C67 1.304 . S
C66 C70 1.323 . S
C67 C66 1.304 . S
C67 C68 1.371 . S
C67 H76 0.930 . S
C68 C65 1.344 . S
C68 C67 1.371 . S
C68 H77 0.931 . S
C69 C65 1.328 . S
C69 C70 1.433 . S
C69 H78 0.931 . S
C70 C66 1.323 . S
C70 C69 1.433 . S
C70 H79 0.933 . S
C71 Dy41 2.738 . S
C71 O51 1.255 . S
C71 O52 1.249 . S
C71 C65 1.516 . S
H72 C58 0.930 . S
H73 C59 0.931 . S
H74 C60 0.931 . S
H75 C61 0.933 . S
H76 C67 0.930 . S
H77 C68 0.931 . S
H78 C69 0.931 . S
H79 C70 0.933 . S
Dy80 O83 2.307 . S
Dy80 O85 2.395 . S
Dy80 O86 2.379 . S
Dy80 O88 2.339 . S
Dy80 O90 2.298 . S
Dy80 O94 2.275 . S
Dy80 C102 2.738 . S
Dy81 O84 2.298 . S
Dy81 O87 2.275 . S
Dy81 O89 2.307 . S
Dy81 O91 2.395 . S
Dy81 O92 2.379 . S
Dy81 O95 2.339 . S
Dy81 C111 2.738 . S
C82 O94 1.254 . S
C82 O95 1.257 . S
O83 Dy80 2.307 . S
O83 C93 1.266 . S
O84 Dy81 2.298 . S
O84 C93 1.236 . S
O85 Dy80 2.395 . S
O85 C102 1.255 . S
O86 Dy80 2.379 . S
O86 C102 1.249 . S
O87 Dy81 2.275 . S
O87 C103 1.254 . S
O88 Dy80 2.339 . S
O88 C103 1.257 . S
O89 Dy81 2.307 . S
O89 C104 1.266 . S
O90 Dy80 2.298 . S
O90 C104 1.236 . S
O91 Dy81 2.395 . S
O91 C111 1.255 . S
O92 Dy81 2.379 . S
O92 C111 1.249 . S
C93 O83 1.266 . S
C93 O84 1.236 . S
O94 Dy80 2.275 . S
O94 C82 1.254 . S
O95 Dy81 2.339 . S
O95 C82 1.257 . S
C96 C99 1.344 . S
C96 C100 1.328 . S
C96 C102 1.516 . S
C97 C98 1.304 . S
C97 C101 1.323 . S
C98 C97 1.304 . S
C98 C99 1.371 . S
C98 H112 0.930 . S
C99 C96 1.344 . S
C99 C98 1.371 . S
C99 H113 0.931 . S
C100 C96 1.328 . S
C100 C101 1.433 . S
C100 H114 0.931 . S
C101 C97 1.323 . S
C101 C100 1.433 . S
C101 H115 0.933 . S
C102 Dy80 2.738 . S
C102 O85 1.255 . S
C102 O86 1.249 . S
C102 C96 1.516 . S
C103 O87 1.254 . S
C103 O88 1.257 . S
C104 O89 1.266 . S
C104 O90 1.236 . S
C105 C108 1.344 . S
C105 C109 1.328 . S
C105 C111 1.516 . S
C106 C107 1.304 . S
C106 C110 1.323 . S
C107 C106 1.304 . S
C107 C108 1.371 . S
C107 H116 0.930 . S
C108 C105 1.344 . S
C108 C107 1.371 . S
C108 H117 0.931 . S
C109 C105 1.328 . S
C109 C110 1.433 . S
C109 H118 0.931 . S
C110 C106 1.323 . S
C110 C109 1.433 . S
C110 H119 0.933 . S
C111 Dy81 2.738 . S
C111 O91 1.255 . S
C111 O92 1.249 . S
C111 C105 1.516 . S
H112 C98 0.930 . S
H113 C99 0.931 . S
H114 C100 0.931 . S
H115 C101 0.933 . S
H116 C107 0.930 . S
H117 C108 0.931 . S
H118 C109 0.931 . S
H119 C110 0.933 . S
H120 C121 0.949 . S
C121 H120 0.949 . S
C121 C122 1.395 . S
C121 C123 1.391 . S
C122 C121 1.395 . S
C122 C125 1.390 . S
C123 C121 1.391 . S
C123 C127 1.387 . S
C123 C128 1.491 . S
H124 C125 0.950 . S
C125 C122 1.390 . S
C125 H124 0.950 . S
C125 C126 1.378 . S
C126 C125 1.378 . S
C126 C127 1.409 . S
C127 C123 1.387 . S
C127 C126 1.409 . S
C127 H129 0.951 . S
C128 C123 1.491 . S
C128 C130 1.382 . S
C128 C132 1.404 . S
H129 C127 0.951 . S
C130 C128 1.382 . S
C130 C131 1.390 . S
C130 H135 0.949 . S
C131 C130 1.390 . S
C131 C136 1.399 . S
C132 C128 1.404 . S
C132 H133 0.950 . S
C132 C134 1.375 . S
H133 C132 0.950 . S
C134 C132 1.375 . S
C134 C136 1.382 . S
C134 H138 0.950 . S
H135 C130 0.949 . S
C136 C131 1.399 . S
C136 C134 1.382 . S
C136 H137 0.952 . S
H137 C136 0.952 . S
H138 C134 0.950 . S
H139 C140 0.949 . S
C140 H139 0.949 . S
C140 C141 1.395 . S
C140 C142 1.391 . S
C141 C140 1.395 . S
C141 C144 1.390 . S
C142 C140 1.391 . S
C142 C146 1.387 . S
C142 C147 1.491 . S
H143 C144 0.950 . S
C144 C141 1.390 . S
C144 H143 0.950 . S
C144 C145 1.378 . S
C145 C144 1.378 . S
C145 C146 1.409 . S
C146 C142 1.387 . S
C146 C145 1.409 . S
C146 H148 0.951 . S
C147 C142 1.491 . S
C147 C149 1.382 . S
C147 C151 1.404 . S
H148 C146 0.951 . S
C149 C147 1.382 . S
C149 C150 1.390 . S
C149 H154 0.949 . S
C150 C149 1.390 . S
C150 C155 1.399 . S
C151 C147 1.404 . S
C151 H152 0.950 . S
C151 C153 1.375 . S
H152 C151 0.950 . S
C153 C151 1.375 . S
C153 C155 1.382 . S
C153 H157 0.950 . S
H154 C149 0.949 . S
C155 C150 1.399 . S
C155 C153 1.382 . S
C155 H156 0.952 . S
H156 C155 0.952 . S
H157 C153 0.950 . S
H158 C159 0.949 . S
C159 H158 0.949 . S
C159 C160 1.395 . S
C159 C161 1.391 . S
C160 C159 1.395 . S
C160 C163 1.390 1_455 S
C161 C159 1.391 . S
C161 C165 1.387 . S
C161 C166 1.491 . S
H162 C163 0.950 . S
C163 C160 1.390 1_655 S
C163 H162 0.950 . S
C163 C164 1.378 . S
C164 C163 1.378 . S
C164 C165 1.409 1_655 S
C165 C161 1.387 . S
C165 C164 1.409 1_455 S
C165 H167 0.951 . S
C166 C161 1.491 . S
C166 C168 1.382 . S
C166 C170 1.404 . S
H167 C165 0.951 . S
C168 C166 1.382 . S
C168 C169 1.390 . S
C168 H173 0.949 . S
C169 C168 1.390 . S
C169 C174 1.399 . S
C170 C166 1.404 . S
C170 H171 0.950 . S
C170 C172 1.375 . S
H171 C170 0.950 . S
C172 C170 1.375 . S
C172 C174 1.382 . S
C172 H176 0.950 . S
H173 C168 0.949 . S
C174 C169 1.399 . S
C174 C172 1.382 . S
C174 H175 0.952 . S
H175 C174 0.952 . S
H176 C172 0.950 . S
H177 C178 0.949 1_655 S
C178 H177 0.949 1_455 S
C178 C179 1.395 . S
C178 C180 1.391 . S
C179 C178 1.395 . S
C179 C182 1.390 . S
C180 C178 1.391 . S
C180 C184 1.387 . S
C180 C185 1.491 1_455 S
H181 C182 0.950 . S
C182 C179 1.390 . S
C182 H181 0.950 . S
C182 C183 1.378 . S
C183 C182 1.378 . S
C183 C184 1.409 . S
C184 C180 1.387 . S
C184 C183 1.409 . S
C184 H186 0.951 . S
C185 C180 1.491 1_655 S
C185 C187 1.382 . S
C185 C189 1.404 . S
H186 C184 0.951 . S
C187 C185 1.382 . S
C187 C188 1.390 . S
C187 H192 0.949 . S
C188 C187 1.390 . S
C188 C193 1.399 . S
C189 C185 1.404 . S
C189 H190 0.950 1_655 S
C189 C191 1.375 . S
H190 C189 0.950 1_455 S
C191 C189 1.375 . S
C191 C193 1.382 . S
C191 H195 0.950 . S
H192 C187 0.949 . S
C193 C188 1.399 . S
C193 C191 1.382 . S
C193 H194 0.952 . S
H194 C193 0.952 . S
H195 C191 0.950 . S
H196 C197 0.949 1_565 S
C197 H196 0.949 1_545 S
C197 C198 1.395 . S
C197 C199 1.391 . S
C198 C197 1.395 . S
C198 C201 1.390 . S
C199 C197 1.391 . S
C199 C203 1.387 . S
C199 C204 1.491 1_545 S
H200 C201 0.950 . S
C201 C198 1.390 . S
C201 H200 0.950 . S
C201 C202 1.378 . S
C202 C201 1.378 . S
C202 C203 1.409 . S
C203 C199 1.387 . S
C203 C202 1.409 . S
C203 H205 0.951 . S
C204 C199 1.491 1_565 S
C204 C206 1.382 . S
C204 C208 1.404 . S
H205 C203 0.951 . S
C206 C204 1.382 . S
C206 C207 1.390 . S
C206 H211 0.949 . S
C207 C206 1.390 . S
C207 C212 1.399 . S
C208 C204 1.404 . S
C208 H209 0.950 . S
C208 C210 1.375 . S
H209 C208 0.950 . S
C210 C208 1.375 . S
C210 C212 1.382 . S
C210 H214 0.950 . S
H211 C206 0.949 . S
C212 C207 1.399 . S
C212 C210 1.382 . S
C212 H213 0.952 . S
H213 C212 0.952 . S
H214 C210 0.950 . S
H215 C216 0.949 . S
C216 H215 0.949 . S
C216 C217 1.395 . S
C216 C218 1.391 . S
C217 C216 1.395 . S
C217 C220 1.390 . S
C218 C216 1.391 . S
C218 C222 1.387 . S
C218 C223 1.491 . S
H219 C220 0.950 . S
C220 C217 1.390 . S
C220 H219 0.950 . S
C220 C221 1.378 . S
C221 C220 1.378 . S
C221 C222 1.409 . S
C222 C218 1.387 . S
C222 C221 1.409 . S
C222 H224 0.951 . S
C223 C218 1.491 . S
C223 C225 1.382 . S
C223 C227 1.404 . S
H224 C222 0.951 . S
C225 C223 1.382 . S
C225 C226 1.390 . S
C225 H230 0.949 . S
C226 C225 1.390 . S
C226 C231 1.399 . S
C227 C223 1.404 . S
C227 H228 0.950 . S
C227 C229 1.375 . S
H228 C227 0.950 . S
C229 C227 1.375 . S
C229 C231 1.382 . S
C229 H233 0.950 . S
H230 C225 0.949 . S
C231 C226 1.399 . S
C231 C229 1.382 . S
C231 H232 0.952 . S
H232 C231 0.952 . S
H233 C229 0.950 . S
H234 C242 0.950 . S
H235 C247 0.950 . S
H236 C244 0.950 . S
H237 C246 0.950 . S
H238 C248 0.950 . S
H239 C250 0.950 . S
H240 C252 0.950 . S
H241 C253 0.950 . S
C242 H234 0.950 . S
C242 C243 1.386 . S
C242 C244 1.391 . S
C243 C242 1.386 . S
C243 C247 1.393 . S
C244 H236 0.950 . S
C244 C242 1.391 . S
C244 C245 1.400 . S
C245 C244 1.400 . S
C245 C246 1.398 . S
C245 C251 1.491 . S
C246 H237 0.950 . S
C246 C245 1.398 . S
C246 C247 1.391 . S
C247 H235 0.950 . S
C247 C243 1.393 . S
C247 C246 1.391 . S
C248 H238 0.950 . S
C248 C249 1.386 . S
C248 C250 1.391 . S
C249 C248 1.386 . S
C249 C253 1.393 . S
C250 H239 0.950 . S
C250 C248 1.391 . S
C250 C251 1.400 . S
C251 C245 1.491 . S
C251 C250 1.400 . S
C251 C252 1.398 . S
C252 H240 0.950 . S
C252 C251 1.398 . S
C252 C253 1.391 . S
C253 H241 0.950 . S
C253 C249 1.393 . S
C253 C252 1.391 . S
H254 C262 0.950 . S
H255 C267 0.950 . S
H256 C264 0.950 . S
H257 C266 0.950 . S
H258 C268 0.950 . S
H259 C270 0.950 . S
H260 C272 0.950 . S
H261 C273 0.950 . S
C262 H254 0.950 . S
C262 C263 1.386 . S
C262 C264 1.391 . S
C263 C262 1.386 . S
C263 C267 1.393 . S
C264 H256 0.950 . S
C264 C262 1.391 . S
C264 C265 1.400 . S
C265 C264 1.400 . S
C265 C266 1.398 . S
C265 C271 1.491 . S
C266 H257 0.950 . S
C266 C265 1.398 . S
C266 C267 1.391 . S
C267 H255 0.950 . S
C267 C263 1.393 . S
C267 C266 1.391 . S
C268 H258 0.950 . S
C268 C269 1.386 . S
C268 C270 1.391 . S
C269 C268 1.386 . S
C269 C273 1.393 . S
C270 H259 0.950 . S
C270 C268 1.391 . S
C270 C271 1.400 . S
C271 C265 1.491 . S
C271 C270 1.400 . S
C271 C272 1.398 . S
C272 H260 0.950 . S
C272 C271 1.398 . S
C272 C273 1.391 . S
C273 H261 0.950 . S
C273 C269 1.393 . S
C273 C272 1.391 . S
H274 C282 0.950 . S
H275 C287 0.950 . S
H276 C284 0.950 . S
H277 C286 0.950 . S
H278 C288 0.950 . S
H279 C290 0.950 . S
H280 C292 0.950 . S
H281 C293 0.950 . S
C282 H274 0.950 . S
C282 C283 1.386 . S
C282 C284 1.391 . S
C283 C282 1.386 . S
C283 C287 1.393 . S
C284 H276 0.950 . S
C284 C282 1.391 . S
C284 C285 1.400 . S
C285 C284 1.400 . S
C285 C286 1.398 . S
C285 C291 1.491 . S
C286 H277 0.950 . S
C286 C285 1.398 . S
C286 C287 1.391 . S
C287 H275 0.950 . S
C287 C283 1.393 . S
C287 C286 1.391 . S
C288 H278 0.950 . S
C288 C289 1.386 . S
C288 C290 1.391 . S
C289 C288 1.386 . S
C289 C293 1.393 . S
C290 H279 0.950 . S
C290 C288 1.391 . S
C290 C291 1.400 . S
C291 C285 1.491 . S
C291 C290 1.400 . S
C291 C292 1.398 . S
C292 H280 0.950 . S
C292 C291 1.398 . S
C292 C293 1.391 . S
C293 H281 0.950 . S
C293 C289 1.393 . S
C293 C292 1.391 . S
H294 C302 0.950 . S
H295 C307 0.950 . S
H296 C304 0.950 . S
H297 C306 0.950 . S
H298 C308 0.950 . S
H299 C310 0.950 . S
H300 C312 0.950 . S
H301 C313 0.950 . S
C302 H294 0.950 . S
C302 C303 1.386 . S
C302 C304 1.391 . S
C303 C302 1.386 . S
C303 C307 1.393 . S
C304 H296 0.950 . S
C304 C302 1.391 . S
C304 C305 1.400 . S
C305 C304 1.400 . S
C305 C306 1.398 . S
C305 C311 1.491 . S
C306 H297 0.950 . S
C306 C305 1.398 . S
C306 C307 1.391 . S
C307 H295 0.950 . S
C307 C303 1.393 . S
C307 C306 1.391 . S
C308 H298 0.950 . S
C308 C309 1.386 . S
C308 C310 1.391 . S
C309 C308 1.386 . S
C309 C313 1.393 . S
C310 H299 0.950 . S
C310 C308 1.391 . S
C310 C311 1.400 . S
C311 C305 1.491 . S
C311 C310 1.400 . S
C311 C312 1.398 . S
C312 H300 0.950 . S
C312 C311 1.398 . S
C312 C313 1.391 . S
C313 H301 0.950 . S
C313 C309 1.393 . S
C313 C312 1.391 . S
H314 C322 0.950 . S
H315 C327 0.950 . S
H316 C324 0.950 . S
H317 C326 0.950 . S
H318 C328 0.950 . S
H319 C330 0.950 . S
H320 C332 0.950 . S
H321 C333 0.950 . S
C322 H314 0.950 . S
C322 C323 1.386 . S
C322 C324 1.391 . S
C323 C322 1.386 . S
C323 C327 1.393 . S
C324 H316 0.950 . S
C324 C322 1.391 . S
C324 C325 1.400 . S
C325 C324 1.400 . S
C325 C326 1.398 . S
C325 C331 1.491 . S
C326 H317 0.950 . S
C326 C325 1.398 . S
C326 C327 1.391 . S
C327 H315 0.950 . S
C327 C323 1.393 . S
C327 C326 1.391 . S
C328 H318 0.950 . S
C328 C329 1.386 . S
C328 C330 1.391 . S
C329 C328 1.386 . S
C329 C333 1.393 . S
C330 H319 0.950 . S
C330 C328 1.391 . S
C330 C331 1.400 . S
C331 C325 1.491 . S
C331 C330 1.400 . S
C331 C332 1.398 . S
C332 H320 0.950 . S
C332 C331 1.398 . S
C332 C333 1.391 . S
C333 H321 0.950 . S
C333 C329 1.393 . S
C333 C332 1.391 . S
H334 C342 0.950 . S
H335 C347 0.950 . S
H336 C344 0.950 . S
H337 C346 0.950 . S
H338 C348 0.950 . S
H339 C350 0.950 . S
H340 C352 0.950 . S
H341 C353 0.950 . S
C342 H334 0.950 . S
C342 C343 1.386 . S
C342 C344 1.391 . S
C343 C342 1.386 . S
C343 C347 1.393 . S
C344 H336 0.950 . S
C344 C342 1.391 . S
C344 C345 1.400 . S
C345 C344 1.400 . S
C345 C346 1.398 . S
C345 C351 1.491 . S
C346 H337 0.950 . S
C346 C345 1.398 . S
C346 C347 1.391 . S
C347 H335 0.950 . S
C347 C343 1.393 . S
C347 C346 1.391 . S
C348 H338 0.950 . S
C348 C349 1.386 . S
C348 C350 1.391 . S
C349 C348 1.386 . S
C349 C353 1.393 . S
C350 H339 0.950 . S
C350 C348 1.391 . S
C350 C351 1.400 . S
C351 C345 1.491 . S
C351 C350 1.400 . S
C351 C352 1.398 . S
C352 H340 0.950 . S
C352 C351 1.398 . S
C352 C353 1.391 . S
C353 H341 0.950 . S
C353 C349 1.393 . S
C353 C352 1.391 . S
H354 C362 0.950 . S
H355 C367 0.950 . S
H356 C364 0.950 . S
H357 C366 0.950 . S
H358 C368 0.950 . S
H359 C370 0.950 . S
H360 C372 0.950 . S
H361 C373 0.950 . S
C362 H354 0.950 . S
C362 C363 1.386 . S
C362 C364 1.391 . S
C363 C362 1.386 . S
C363 C367 1.393 . S
C364 H356 0.950 . S
C364 C362 1.391 . S
C364 C365 1.400 . S
C365 C364 1.400 . S
C365 C366 1.398 . S
C365 C371 1.491 . S
C366 H357 0.950 . S
C366 C365 1.398 . S
C366 C367 1.391 . S
C367 H355 0.950 . S
C367 C363 1.393 . S
C367 C366 1.391 . S
C368 H358 0.950 . S
C368 C369 1.386 . S
C368 C370 1.391 . S
C369 C368 1.386 . S
C369 C373 1.393 . S
C370 H359 0.950 . S
C370 C368 1.391 . S
C370 C371 1.400 . S
C371 C365 1.491 . S
C371 C370 1.400 . S
C371 C372 1.398 . S
C372 H360 0.950 . S
C372 C371 1.398 . S
C372 C373 1.391 . S
C373 H361 0.950 . S
C373 C369 1.393 . S
C373 C372 1.391 . S
H374 C382 0.950 . S
H375 C387 0.950 . S
H376 C384 0.950 . S
H377 C386 0.950 . S
H378 C388 0.950 . S
H379 C390 0.950 . S
H380 C392 0.950 . S
H381 C393 0.950 . S
C382 H374 0.950 . S
C382 C383 1.386 . S
C382 C384 1.391 . S
C383 C382 1.386 . S
C383 C387 1.393 . S
C384 H376 0.950 . S
C384 C382 1.391 . S
C384 C385 1.400 . S
C385 C384 1.400 . S
C385 C386 1.398 . S
C385 C391 1.491 . S
C386 H377 0.950 . S
C386 C385 1.398 . S
C386 C387 1.391 . S
C387 H375 0.950 . S
C387 C383 1.393 . S
C387 C386 1.391 . S
C388 H378 0.950 . S
C388 C389 1.386 . S
C388 C390 1.391 . S
C389 C388 1.386 . S
C389 C393 1.393 . S
C390 H379 0.950 . S
C390 C388 1.391 . S
C390 C391 1.400 . S
C391 C385 1.491 . S
C391 C390 1.400 . S
C391 C392 1.398 . S
C392 H380 0.950 . S
C392 C391 1.398 . S
C392 C393 1.391 . S
C393 H381 0.950 . S
C393 C389 1.393 . S
C393 C392 1.391 . S
H394 C402 0.950 . S
H395 C407 0.950 . S
H396 C404 0.950 . S
H397 C406 0.950 . S
H398 C408 0.950 . S
H399 C410 0.950 1_545 S
H400 C412 0.950 . S
H401 C413 0.950 . S
C402 H394 0.950 . S
C402 C403 1.386 . S
C402 C404 1.391 . S
C403 C402 1.386 . S
C403 C407 1.393 . S
C404 H396 0.950 . S
C404 C402 1.391 . S
C404 C405 1.400 . S
C405 C404 1.400 . S
C405 C406 1.398 . S
C405 C411 1.491 . S
C406 H397 0.950 . S
C406 C405 1.398 . S
C406 C407 1.391 . S
C407 H395 0.950 . S
C407 C403 1.393 . S
C407 C406 1.391 . S
C408 H398 0.950 . S
C408 C409 1.386 . S
C408 C410 1.391 1_545 S
C409 C408 1.386 . S
C409 C413 1.393 1_545 S
C410 H399 0.950 1_565 S
C410 C408 1.391 1_565 S
C410 C411 1.400 . S
C411 C405 1.491 . S
C411 C410 1.400 . S
C411 C412 1.398 . S
C412 H400 0.950 . S
C412 C411 1.398 . S
C412 C413 1.391 . S
C413 H401 0.950 . S
C413 C409 1.393 1_565 S
C413 C412 1.391 . S
H414 C422 0.950 . S
H415 C427 0.950 . S
H416 C424 0.950 . S
H417 C426 0.950 . S
H418 C428 0.950 . S
H419 C430 0.950 . S
H420 C432 0.950 . S
H421 C433 0.950 . S
C422 H414 0.950 . S
C422 C423 1.386 . S
C422 C424 1.391 . S
C423 C422 1.386 . S
C423 C427 1.393 . S
C424 H416 0.950 . S
C424 C422 1.391 . S
C424 C425 1.400 . S
C425 C424 1.400 . S
C425 C426 1.398 . S
C425 C431 1.491 . S
C426 H417 0.950 . S
C426 C425 1.398 . S
C426 C427 1.391 . S
C427 H415 0.950 . S
C427 C423 1.393 . S
C427 C426 1.391 . S
C428 H418 0.950 . S
C428 C429 1.386 . S
C428 C430 1.391 . S
C429 C428 1.386 . S
C429 C433 1.393 . S
C430 H419 0.950 . S
C430 C428 1.391 . S
C430 C431 1.400 . S
C431 C425 1.491 . S
C431 C430 1.400 . S
C431 C432 1.398 . S
C432 H420 0.950 . S
C432 C431 1.398 . S
C432 C433 1.391 . S
C433 H421 0.950 . S
C433 C429 1.393 . S
C433 C432 1.391 . S
H434 C442 0.950 . S
H435 C447 0.950 . S
H436 C444 0.950 . S
H437 C446 0.950 . S
H438 C448 0.950 . S
H439 C450 0.950 . S
H440 C452 0.950 . S
H441 C453 0.950 . S
C442 H434 0.950 . S
C442 C443 1.386 . S
C442 C444 1.391 . S
C443 C442 1.386 . S
C443 C447 1.393 . S
C444 H436 0.950 . S
C444 C442 1.391 . S
C444 C445 1.400 . S
C445 C444 1.400 . S
C445 C446 1.398 . S
C445 C451 1.491 . S
C446 H437 0.950 . S
C446 C445 1.398 . S
C446 C447 1.391 . S
C447 H435 0.950 . S
C447 C443 1.393 . S
C447 C446 1.391 . S
C448 H438 0.950 . S
C448 C449 1.386 . S
C448 C450 1.391 . S
C449 C448 1.386 . S
C449 C453 1.393 . S
C450 H439 0.950 . S
C450 C448 1.391 . S
C450 C451 1.400 . S
C451 C445 1.491 . S
C451 C450 1.400 . S
C451 C452 1.398 . S
C452 H440 0.950 . S
C452 C451 1.398 . S
C452 C453 1.391 . S
C453 H441 0.950 . S
C453 C449 1.393 . S
C453 C452 1.391 . S
H454 C462 0.950 . S
H455 C467 0.950 . S
H456 C464 0.950 . S
H457 C466 0.950 . S
H458 C468 0.950 . S
H459 C470 0.950 . S
H460 C472 0.950 . S
H461 C473 0.950 . S
C462 H454 0.950 . S
C462 C463 1.386 . S
C462 C464 1.391 . S
C463 C462 1.386 . S
C463 C467 1.393 . S
C464 H456 0.950 . S
C464 C462 1.391 . S
C464 C465 1.400 . S
C465 C464 1.400 . S
C465 C466 1.398 . S
C465 C471 1.491 . S
C466 H457 0.950 . S
C466 C465 1.398 . S
C466 C467 1.391 . S
C467 H455 0.950 . S
C467 C463 1.393 . S
C467 C466 1.391 . S
C468 H458 0.950 . S
C468 C469 1.386 . S
C468 C470 1.391 . S
C469 C468 1.386 . S
C469 C473 1.393 . S
C470 H459 0.950 . S
C470 C468 1.391 . S
C470 C471 1.400 . S
C471 C465 1.491 . S
C471 C470 1.400 . S
C471 C472 1.398 . S
C472 H460 0.950 . S
C472 C471 1.398 . S
C472 C473 1.391 . S
C473 H461 0.950 . S
C473 C469 1.393 . S
C473 C472 1.391 . S
H474 C482 0.950 . S
H475 C487 0.950 . S
H476 C484 0.950 . S
H477 C486 0.950 . S
H478 C488 0.950 . S
H479 C490 0.950 . S
H480 C492 0.950 1_554 S
H481 C493 0.950 . S
C482 H474 0.950 . S
C482 C483 1.386 . S
C482 C484 1.391 . S
C483 C482 1.386 . S
C483 C487 1.393 . S
C484 H476 0.950 . S
C484 C482 1.391 . S
C484 C485 1.400 . S
C485 C484 1.400 . S
C485 C486 1.398 . S
C485 C491 1.519 . S
C486 H477 0.950 . S
C486 C485 1.398 . S
C486 C487 1.391 . S
C487 H475 0.950 . S
C487 C483 1.393 . S
C487 C486 1.391 . S
C488 H478 0.950 . S
C488 C489 1.386 . S
C488 C490 1.391 . S
C489 C488 1.386 . S
C489 C493 1.393 . S
C490 H479 0.950 . S
C490 C488 1.391 . S
C490 C491 1.379 1_556 S
C491 C485 1.519 . S
C491 C490 1.379 1_554 S
C491 C492 1.391 1_554 S
C492 H480 0.950 1_556 S
C492 C491 1.391 1_556 S
C492 C493 1.391 . S
C493 H481 0.950 . S
C493 C489 1.393 . S
C493 C492 1.391 . S
H494 C502 0.950 . S
H495 C507 0.950 . S
H496 C504 0.950 . S
H497 C506 0.950 . S
H498 C508 0.950 . S
H499 C510 0.950 . S
H500 C512 0.950 . S
H501 C513 0.950 . S
C502 H494 0.950 . S
C502 C503 1.386 . S
C502 C504 1.391 . S
C503 C502 1.386 . S
C503 C507 1.393 . S
C504 H496 0.950 . S
C504 C502 1.391 . S
C504 C505 1.400 . S
C505 C504 1.400 . S
C505 C506 1.398 . S
C505 C511 1.491 . S
C506 H497 0.950 . S
C506 C505 1.398 . S
C506 C507 1.391 . S
C507 H495 0.950 . S
C507 C503 1.393 . S
C507 C506 1.391 . S
C508 H498 0.950 . S
C508 C509 1.386 . S
C508 C510 1.391 . S
C509 C508 1.386 . S
C509 C513 1.393 . S
C510 H499 0.950 . S
C510 C508 1.391 . S
C510 C511 1.400 . S
C511 C505 1.491 . S
C511 C510 1.400 . S
C511 C512 1.398 . S
C512 H500 0.950 . S
C512 C511 1.398 . S
C512 C513 1.391 . S
C513 H501 0.950 . S
C513 C509 1.393 . S
C513 C512 1.391 . S
H514 C522 0.950 . S
H515 C527 0.950 . S
H516 C524 0.950 . S
H517 C526 0.950 . S
H518 C528 0.950 . S
H519 C530 0.950 . S
H520 C532 0.950 . S
H521 C533 0.950 . S
C522 H514 0.950 . S
C522 C523 1.386 . S
C522 C524 1.391 . S
C523 C522 1.386 . S
C523 C527 1.393 . S
C524 H516 0.950 . S
C524 C522 1.391 . S
C524 C525 1.400 . S
C525 C524 1.400 . S
C525 C526 1.398 . S
C525 C531 1.491 . S
C526 H517 0.950 . S
C526 C525 1.398 . S
C526 C527 1.391 . S
C527 H515 0.950 . S
C527 C523 1.393 . S
C527 C526 1.391 . S
C528 H518 0.950 . S
C528 C529 1.386 . S
C528 C530 1.391 . S
C529 C528 1.386 . S
C529 C533 1.393 . S
C530 H519 0.950 . S
C530 C528 1.391 . S
C530 C531 1.400 . S
C531 C525 1.491 . S
C531 C530 1.400 . S
C531 C532 1.398 . S
C532 H520 0.950 . S
C532 C531 1.398 . S
C532 C533 1.391 . S
C533 H521 0.950 . S
C533 C529 1.393 . S
C533 C532 1.391 . S
H534 C542 0.950 . S
H535 C547 0.950 . S
H536 C544 0.950 . S
H537 C546 0.950 . S
H538 C548 0.950 . S
H539 C550 0.950 . S
H540 C552 0.950 . S
H541 C553 0.950 . S
C542 H534 0.950 . S
C542 C543 1.386 . S
C542 C544 1.391 . S
C543 C542 1.386 . S
C543 C547 1.393 . S
C544 H536 0.950 . S
C544 C542 1.391 . S
C544 C545 1.400 . S
C545 C544 1.400 . S
C545 C546 1.398 . S
C545 C551 1.491 . S
C546 H537 0.950 . S
C546 C545 1.398 . S
C546 C547 1.391 . S
C547 H535 0.950 . S
C547 C543 1.393 . S
C547 C546 1.391 . S
C548 H538 0.950 . S
C548 C549 1.386 . S
C548 C550 1.391 . S
C549 C548 1.386 . S
C549 C553 1.393 . S
C550 H539 0.950 . S
C550 C548 1.391 . S
C550 C551 1.400 . S
C551 C545 1.491 . S
C551 C550 1.400 . S
C551 C552 1.398 . S
C552 H540 0.950 . S
C552 C551 1.398 . S
C552 C553 1.391 . S
C553 H541 0.950 . S
C553 C549 1.393 . S
C553 C552 1.391 . S
H554 C562 0.950 . S
H555 C567 0.950 . S
H556 C564 0.950 . S
H557 C566 0.950 . S
H558 C568 0.950 . S
H559 C570 0.950 1_556 S
H560 C572 0.950 . S
H561 C573 0.950 . S
C562 H554 0.950 . S
C562 C563 1.386 . S
C562 C564 1.391 . S
C563 C562 1.386 . S
C563 C567 1.393 . S
C564 H556 0.950 . S
C564 C562 1.391 . S
C564 C565 1.400 . S
C565 C564 1.400 . S
C565 C566 1.398 . S
C565 C571 1.491 1_556 S
C566 H557 0.950 . S
C566 C565 1.398 . S
C566 C567 1.391 . S
C567 H555 0.950 . S
C567 C563 1.393 . S
C567 C566 1.391 . S
C568 H558 0.950 . S
C568 C569 1.386 . S
C568 C570 1.391 . S
C569 C568 1.386 . S
C569 C573 1.393 . S
C570 H559 0.950 1_554 S
C570 C568 1.391 . S
C570 C571 1.400 . S
C571 C565 1.491 1_554 S
C571 C570 1.400 . S
C571 C572 1.398 . S
C572 H560 0.950 . S
C572 C571 1.398 . S
C572 C573 1.391 . S
C573 H561 0.950 . S
C573 C569 1.393 . S
C573 C572 1.391 . S
H574 C582 0.950 . S
H575 C587 0.950 . S
H576 C584 0.950 . S
H577 C586 0.950 . S
H578 C588 0.950 . S
H579 C590 0.950 . S
H580 C592 0.950 . S
H581 C593 0.950 . S
C582 H574 0.950 . S
C582 C583 1.386 . S
C582 C584 1.391 . S
C583 C582 1.386 . S
C583 C587 1.393 . S
C584 H576 0.950 . S
C584 C582 1.391 . S
C584 C585 1.400 . S
C585 C584 1.400 . S
C585 C586 1.398 . S
C585 C591 1.491 . S
C586 H577 0.950 . S
C586 C585 1.398 . S
C586 C587 1.391 . S
C587 H575 0.950 . S
C587 C583 1.393 . S
C587 C586 1.391 . S
C588 H578 0.950 . S
C588 C589 1.386 . S
C588 C590 1.391 . S
C589 C588 1.386 . S
C589 C593 1.393 . S
C590 H579 0.950 . S
C590 C588 1.391 . S
C590 C591 1.400 . S
C591 C585 1.491 . S
C591 C590 1.400 . S
C591 C592 1.398 . S
C592 H580 0.950 . S
C592 C591 1.398 . S
C592 C593 1.391 . S
C593 H581 0.950 . S
C593 C589 1.393 . S
C593 C592 1.391 . S
C243 C24 3.092 . S
C249 C226 3.004 . S
C263 C66 1.212 . S
C269 C188 1.174 . S
C283 C93 1.887 . S
C289 C207 1.834 . S
C303 C13 3.016 . S
C309 C221 2.970 . S
C329 C183 1.050 . S
C323 C57 1.051 . S
C349 C202 1.850 . S
C343 C104 1.881 . S
C363 C64 2.059 . S
C369 C150 1.979 . S
C383 C97 0.267 . S
C389 C164 0.216 . S
C403 C17 1.179 . S
C409 C126 1.170 . S
C429 C145 1.699 . S
C423 C53 1.725 . S
C449 C169 0.512 . S
C443 C106 0.339 . S
C463 C26 1.218 . S
C469 C131 1.190 . S
C489 C160 1.350 . S
C483 C2 1.305 . S
C503 C63 1.512 . S
C509 C122 1.517 . S
C523 C82 1.512 . S
C529 C141 1.551 . S
C549 C198 1.504 . S
C543 C42 1.481 . S
C569 C217 1.737 . S
C563 C103 1.725 . S
C583 C23 1.593 . S
C589 C179 1.593 . S
