# Generated by pormake.
# Topology apo, (3,6)-cn, num edge types: 1
# Building blocks:
#     Node 0, Type 0, BuildingBlock: CUQRIR_clean_linker_1, # of connection points: 3
#     Node 1, Type 0, BuildingBlock: CUQRIR_clean_linker_1, # of connection points: 3
#     Node 2, Type 0, BuildingBlock: CUQRIR_clean_linker_1, # of connection points: 3
#     Node 3, Type 0, BuildingBlock: CUQRIR_clean_linker_1, # of connection points: 3
#     Node 4, Type 0, BuildingBlock: CUQRIR_clean_linker_1, # of connection points: 3
#     Node 5, Type 0, BuildingBlock: CUQRIR_clean_linker_1, # of connection points: 3
#     Node 6, Type 0, BuildingBlock: CUQRIR_clean_linker_1, # of connection points: 3
#     Node 7, Type 0, BuildingBlock: CUQRIR_clean_linker_1, # of connection points: 3
#     Node 8, Type 1, BuildingBlock: MIDCAF_clean_sbu_0, # of connection points: 6
#     Node 9, Type 1, BuildingBlock: MIDCAF_clean_sbu_0, # of connection points: 6
#     Node 10, Type 1, BuildingBlock: MIDCAF_clean_sbu_0, # of connection points: 6
#     Node 11, Type 1, BuildingBlock: MIDCAF_clean_sbu_0, # of connection points: 6
#     Edge 12, Type (0, 1), BuildingBlock: XUDNAN_clean_linker_2, # of connection points: 2
#     Edge 13, Type (0, 1), BuildingBlock: XUDNAN_clean_linker_2, # of connection points: 2
#     Edge 14, Type (0, 1), BuildingBlock: XUDNAN_clean_linker_2, # of connection points: 2
#     Edge 15, Type (0, 1), BuildingBlock: XUDNAN_clean_linker_2, # of connection points: 2
#     Edge 16, Type (0, 1), BuildingBlock: XUDNAN_clean_linker_2, # of connection points: 2
#     Edge 17, Type (0, 1), BuildingBlock: XUDNAN_clean_linker_2, # of connection points: 2
#     Edge 18, Type (0, 1), BuildingBlock: XUDNAN_clean_linker_2, # of connection points: 2
#     Edge 19, Type (0, 1), BuildingBlock: XUDNAN_clean_linker_2, # of connection points: 2
#     Edge 20, Type (0, 1), BuildingBlock: XUDNAN_clean_linker_2, # of connection points: 2
#     Edge 21, Type (0, 1), BuildingBlock: XUDNAN_clean_linker_2, # of connection points: 2
#     Edge 22, Type (0, 1), BuildingBlock: XUDNAN_clean_linker_2, # of connection points: 2
#     Edge 23, Type (0, 1), BuildingBlock: XUDNAN_clean_linker_2, # of connection points: 2
#     Edge 24, Type (0, 1), BuildingBlock: XUDNAN_clean_linker_2, # of connection points: 2
#     Edge 25, Type (0, 1), BuildingBlock: XUDNAN_clean_linker_2, # of connection points: 2
#     Edge 26, Type (0, 1), BuildingBlock: XUDNAN_clean_linker_2, # of connection points: 2
#     Edge 27, Type (0, 1), BuildingBlock: XUDNAN_clean_linker_2, # of connection points: 2
#     Edge 28, Type (0, 1), BuildingBlock: XUDNAN_clean_linker_2, # of connection points: 2
#     Edge 29, Type (0, 1), BuildingBlock: XUDNAN_clean_linker_2, # of connection points: 2
#     Edge 30, Type (0, 1), BuildingBlock: XUDNAN_clean_linker_2, # of connection points: 2
#     Edge 31, Type (0, 1), BuildingBlock: XUDNAN_clean_linker_2, # of connection points: 2
#     Edge 32, Type (0, 1), BuildingBlock: XUDNAN_clean_linker_2, # of connection points: 2
#     Edge 33, Type (0, 1), BuildingBlock: XUDNAN_clean_linker_2, # of connection points: 2
#     Edge 34, Type (0, 1), BuildingBlock: XUDNAN_clean_linker_2, # of connection points: 2
#     Edge 35, Type (0, 1), BuildingBlock: XUDNAN_clean_linker_2, # of connection points: 2
# Relax obj value: 0.008
# Max RMSD: 0.061
# Mean RMSD: 0.060
data_MOF--net-apo--node1-MIDCAF_clean_sbu_0--node2-CUQRIR_clean_linker_1--edge1-XUDNAN_clean_linker_2
_symmetry_space_group_name_H-M    P1
_symmetry_Int_Tables_number       1
_symmetry_cell_setting            triclinic
loop_
_symmetry_equiv_pos_as_xyz
'x, y, z'
_cell_length_a     34.21663
_cell_length_b     38.766139
_cell_length_c     30.9773
_cell_angle_alpha  90.397564
_cell_angle_beta   91.016078
_cell_angle_gamma 90.373191
loop_
_atom_site_label
_atom_site_type_symbol
_atom_site_fract_x
_atom_site_fract_y
_atom_site_fract_z
_atom_type_partial_charge
C0 C 0.31173 0.29827 0.42899 0.0
N1 N 0.33772 0.32273 0.44299 0.0
N2 N 0.30469 0.30105 0.38588 0.0
C3 C 0.29173 0.27269 0.45771 0.0
C4 C 0.3276 0.32796 0.3741 0.0
N5 N 0.34798 0.34097 0.40864 0.0
C6 C 0.32882 0.34257 0.32917 0.0
H7 H 0.28558 0.24806 0.44057 0.0
H8 H 0.26339 0.28353 0.46788 0.0
H9 H 0.30983 0.26723 0.4869 0.0
H10 H 0.32603 0.37107 0.33046 0.0
H11 H 0.30575 0.33167 0.30753 0.0
H12 H 0.35739 0.33644 0.31474 0.0
C13 C 0.20618 0.21243 0.92293 0.0
N14 N 0.17975 0.18656 0.92665 0.0
N15 N 0.21288 0.21909 0.88099 0.0
C16 C 0.22467 0.23183 0.9604 0.0
C17 C 0.18947 0.19663 0.8591 0.0
N18 N 0.16842 0.17711 0.88684 0.0
C19 C 0.18917 0.19292 0.81067 0.0
H20 H 0.20245 0.23743 0.98512 0.0
H21 H 0.2386 0.25627 0.9502 0.0
H22 H 0.2475 0.21548 0.97558 0.0
H23 H 0.21793 0.20027 0.79745 0.0
H24 H 0.167 0.21051 0.79659 0.0
H25 H 0.18225 0.16603 0.80057 0.0
C26 C 0.80609 0.22607 0.62479 0.0
N27 N 0.83389 0.20151 0.62075 0.0
N28 N 0.78872 0.22379 0.66368 0.0
C29 C 0.79785 0.25381 0.59226 0.0
C30 C 0.80687 0.19694 0.68298 0.0
N31 N 0.83509 0.18396 0.65753 0.0
C32 C 0.7943 0.18148 0.72507 0.0
H33 H 0.82229 0.25699 0.56955 0.0
H34 H 0.79234 0.27874 0.60881 0.0
H35 H 0.77111 0.24665 0.5734 0.0
H36 H 0.76266 0.1858 0.73004 0.0
H37 H 0.8107 0.19396 0.75221 0.0
H38 H 0.80013 0.15336 0.72569 0.0
C39 C 0.70698 0.27777 0.15878 0.0
N40 N 0.67731 0.30037 0.15272 0.0
N41 N 0.70807 0.26637 0.19996 0.0
C42 C 0.73607 0.26807 0.12511 0.0
C43 C 0.67779 0.28246 0.21849 0.0
N44 N 0.65951 0.30411 0.19046 0.0
C45 C 0.66595 0.27619 0.2644 0.0
H46 H 0.7212 0.26454 0.09324 0.0
H47 H 0.7517 0.24408 0.13396 0.0
H48 H 0.75776 0.28928 0.12221 0.0
H49 H 0.68662 0.28965 0.28689 0.0
H50 H 0.6678 0.24822 0.27152 0.0
H51 H 0.63576 0.28521 0.27014 0.0
C52 C 0.68505 0.71239 0.61485 0.0
N53 N 0.65403 0.69115 0.60678 0.0
N54 N 0.69743 0.70971 0.65668 0.0
C55 C 0.70298 0.73591 0.5822 0.0
C56 C 0.67255 0.68632 0.67359 0.0
N57 N 0.64609 0.6754 0.64356 0.0
C58 C 0.67354 0.67433 0.7197 0.0
H59 H 0.6993 0.72538 0.54902 0.0
H60 H 0.73455 0.74004 0.58943 0.0
H61 H 0.68812 0.76123 0.58351 0.0
H62 H 0.68525 0.69482 0.7416 0.0
H63 H 0.69268 0.65142 0.72225 0.0
H64 H 0.6439 0.66671 0.73022 0.0
C65 C 0.79287 0.80397 0.12118 0.0
N66 N 0.8261 0.82262 0.11672 0.0
N67 N 0.78127 0.8042 0.16272 0.0
C68 C 0.77212 0.78501 0.08488 0.0
C69 C 0.80882 0.82361 0.1836 0.0
N70 N 0.83662 0.83441 0.15577 0.0
C71 C 0.80903 0.83129 0.23143 0.0
H72 H 0.77488 0.79933 0.05418 0.0
H73 H 0.74072 0.78118 0.092 0.0
H74 H 0.78583 0.75938 0.08062 0.0
H75 H 0.82644 0.81137 0.24847 0.0
H76 H 0.77937 0.83077 0.2449 0.0
H77 H 0.82213 0.85701 0.23843 0.0
C78 C 0.19935 0.7684 0.41156 0.0
N79 N 0.17361 0.79425 0.41826 0.0
N80 N 0.21031 0.76745 0.36974 0.0
C81 C 0.21175 0.74273 0.44525 0.0
C82 C 0.1905 0.79378 0.35128 0.0
N83 N 0.16742 0.80963 0.38044 0.0
C84 C 0.19819 0.80707 0.30655 0.0
H85 H 0.23848 0.75245 0.46222 0.0
H86 H 0.21839 0.71742 0.43025 0.0
H87 H 0.18857 0.73922 0.46948 0.0
H88 H 0.17795 0.79417 0.28309 0.0
H89 H 0.22858 0.80145 0.29692 0.0
H90 H 0.19365 0.83534 0.30482 0.0
C91 C 0.29875 0.70846 0.88506 0.0
N92 N 0.33087 0.68945 0.89502 0.0
N93 N 0.29286 0.70989 0.84173 0.0
C94 C 0.27057 0.72256 0.91745 0.0
C95 C 0.32221 0.69086 0.82551 0.0
N96 N 0.34522 0.6782 0.85774 0.0
C97 C 0.32985 0.68666 0.77807 0.0
H98 H 0.27095 0.70703 0.94741 0.0
H99 H 0.24037 0.72274 0.90381 0.0
H100 H 0.27894 0.74952 0.92576 0.0
H101 H 0.3197 0.70958 0.7599 0.0
H102 H 0.31349 0.66378 0.76557 0.0
H103 H 0.36143 0.68277 0.77228 0.0
Zn104 Zn 0.06232 0.10381 0.35247 0.0
Zn105 Zn 0.97895 0.10866 0.22053 0.0
Zn106 Zn 0.01897 0.10567 0.28655 0.0
C107 C 0.04489 0.13863 0.19378 0.0
C108 C 0.98238 0.03916 0.23558 0.0
O109 O 0.98674 0.13284 0.33979 0.0
O110 O 0.02954 0.12848 0.39369 0.0
C111 C 0.10478 0.14279 0.29681 0.0
O112 O 0.05362 0.13091 0.23335 0.0
O113 O 0.01085 0.13284 0.17935 0.0
O114 O 0.96948 0.06022 0.20816 0.0
O115 O 0.00318 0.05046 0.26808 0.0
O116 O 0.10832 0.12921 0.33347 0.0
O117 O 0.07353 0.13709 0.27366 0.0
O118 O 0.03356 0.05001 0.30105 0.0
O119 O 0.07017 0.05472 0.36028 0.0
C120 C 0.05486 0.03606 0.33108 0.0
O121 O 0.96273 0.13311 0.30275 0.0
O122 O 0.9325 0.13174 0.2392 0.0
C123 C 0.99701 0.13895 0.37946 0.0
C124 C 0.93258 0.1398 0.27859 0.0
Zn125 Zn 0.54895 0.3782 0.6728 0.0
Zn126 Zn 0.48041 0.41435 0.86829 0.0
Zn127 Zn 0.50577 0.39774 0.79675 0.0
C128 C 0.49993 0.47536 0.82514 0.0
C129 C 0.41861 0.38073 0.82788 0.0
O130 O 0.5583 0.36727 0.80615 0.0
O131 O 0.54798 0.37018 0.73771 0.0
C132 C 0.53824 0.45075 0.71359 0.0
O133 O 0.50488 0.45411 0.79368 0.0
O134 O 0.49242 0.46424 0.8623 0.0
O135 O 0.42479 0.39971 0.86058 0.0
O136 O 0.44603 0.3755 0.80067 0.0
O137 O 0.54901 0.43037 0.68318 0.0
O138 O 0.52396 0.44049 0.75022 0.0
O139 O 0.4602 0.36833 0.76042 0.0
O140 O 0.50805 0.36917 0.71722 0.0
C141 C 0.4722 0.3627 0.72231 0.0
O142 O 0.54724 0.37625 0.84812 0.0
O143 O 0.51414 0.38677 0.90734 0.0
C144 C 0.56988 0.35999 0.76832 0.0
C145 C 0.5436 0.37395 0.8895 0.0
Zn146 Zn 0.02918 0.89361 0.83193 0.0
Zn147 Zn 0.9572 0.89851 0.6916 0.0
Zn148 Zn 0.99421 0.896 0.76165 0.0
C149 C 0.96168 0.96618 0.71668 0.0
C150 C 0.90939 0.85987 0.74215 0.0
O151 O 0.04928 0.86608 0.75064 0.0
O152 O 0.07088 0.86161 0.81799 0.0
C153 C 0.0336 0.9619 0.81248 0.0
O154 O 0.98108 0.95206 0.74811 0.0
O155 O 0.94862 0.94771 0.68603 0.0
O156 O 0.91046 0.87197 0.70458 0.0
O157 O 0.93791 0.86594 0.76915 0.0
O158 O 0.04695 0.94081 0.83959 0.0
O159 O 0.01056 0.95089 0.78164 0.0
O160 O 0.95603 0.86889 0.81008 0.0
O161 O 0.9892 0.87749 0.87117 0.0
C162 C 0.95915 0.86629 0.85158 0.0
O163 O 0.03114 0.87144 0.71011 0.0
O164 O 0.99373 0.87718 0.65185 0.0
C165 C 0.0745 0.85466 0.77849 0.0
C166 C 0.02529 0.8672 0.66904 0.0
Zn167 Zn 0.53758 0.58438 0.18026 0.0
Zn168 Zn 0.43913 0.61632 0.37948 0.0
Zn169 Zn 0.50426 0.59796 0.25026 0.0
C170 C 0.52045 0.63379 0.33386 0.0
C171 C 0.47293 0.55381 0.32008 0.0
O172 O 0.46371 0.61826 0.19926 0.0
O173 O 0.49447 0.60009 0.14127 0.0
C174 C 0.5838 0.63361 0.22935 0.0
O175 O 0.53854 0.62963 0.29833 0.0
O176 O 0.48609 0.62074 0.33533 0.0
O177 O 0.4661 0.585 0.33139 0.0
O178 O 0.49138 0.54984 0.28479 0.0
O179 O 0.58272 0.61673 0.19419 0.0
O180 O 0.55664 0.62961 0.25701 0.0
O181 O 0.51432 0.54175 0.24914 0.0
O182 O 0.54366 0.53385 0.18685 0.0
C183 C 0.5303 0.52172 0.22132 0.0
O184 O 0.44754 0.623 0.24104 0.0
O185 O 0.44819 0.61737 0.31103 0.0
C186 C 0.4656 0.61499 0.15787 0.0
C187 C 0.43086 0.62863 0.27705 0.0
H188 H 0.15839 0.86965 0.42621 0.0
H189 H 0.11607 0.81285 0.31364 0.0
H190 H 0.08064 0.86441 0.28838 0.0
H191 H 0.06263 0.91605 0.44078 0.0
H192 H 0.08744 0.95405 0.46132 0.0
H193 H 0.10811 0.91204 0.47066 0.0
H194 H 0.17252 0.93264 0.43615 0.0
H195 H 0.15174 0.97431 0.42567 0.0
H196 H 0.17132 0.94929 0.38193 0.0
H197 H 0.06384 0.92601 0.26822 0.0
H198 H 0.0497 0.98849 0.26455 0.0
H199 H 0.08671 1.0002 0.39832 0.0
C200 C 0.1405 0.8676 0.39716 0.0
C201 C 0.14078 0.83752 0.37125 0.0
C202 C 0.11723 0.8361 0.33316 0.0
C203 C 0.09687 0.86514 0.31869 0.0
C204 C 0.09865 0.89492 0.34391 0.0
C205 C 0.11831 0.89585 0.38333 0.0
C206 C 0.11457 0.93086 0.40471 0.0
C207 C 0.09182 0.92807 0.44688 0.0
C208 C 0.15494 0.94775 0.41255 0.0
C209 C 0.09123 0.94974 0.37032 0.0
C210 C 0.0831 0.92883 0.33504 0.0
C211 C 0.06764 0.94214 0.29666 0.0
C212 C 0.05907 0.97751 0.29497 0.0
C213 C 0.06363 0.99865 0.33208 0.0
C214 C 0.08063 0.98443 0.36996 0.0
H215 H 0.34174 0.61797 0.81457 0.0
H216 H 0.41986 0.6844 0.88901 0.0
H217 H 0.4736 0.64227 0.87925 0.0
H218 H 0.37463 0.53955 0.85417 0.0
H219 H 0.36922 0.51674 0.80348 0.0
H220 H 0.3391 0.55345 0.81439 0.0
H221 H 0.36299 0.58219 0.74402 0.0
H222 H 0.39374 0.54561 0.73336 0.0
H223 H 0.41465 0.58838 0.73618 0.0
H224 H 0.51638 0.58945 0.86645 0.0
H225 H 0.54232 0.53043 0.85588 0.0
H226 H 0.43679 0.50148 0.78553 0.0
C227 C 0.37044 0.62391 0.82798 0.0
C228 C 0.37695 0.65433 0.85228 0.0
C229 C 0.41449 0.66107 0.87039 0.0
C230 C 0.44512 0.63748 0.86461 0.0
C231 C 0.43776 0.60773 0.83993 0.0
C232 C 0.40124 0.60106 0.82185 0.0
C233 C 0.39977 0.56652 0.79896 0.0
C234 C 0.36888 0.54267 0.81896 0.0
C235 C 0.39235 0.57096 0.75024 0.0
C236 C 0.44081 0.55402 0.80809 0.0
C237 C 0.4626 0.57824 0.83128 0.0
C238 C 0.5 0.57076 0.84722 0.0
C239 C 0.51472 0.53735 0.84072 0.0
C240 C 0.49227 0.51212 0.81806 0.0
C241 C 0.45536 0.52095 0.80078 0.0
H242 H 0.66495 0.60927 0.63359 0.0
H243 H 0.57072 0.67707 0.66805 0.0
H244 H 0.53024 0.62639 0.68871 0.0
H245 H 0.60469 0.53668 0.59193 0.0
H246 H 0.63766 0.50513 0.61425 0.0
H247 H 0.65609 0.54653 0.59771 0.0
H248 H 0.68643 0.55599 0.67422 0.0
H249 H 0.66749 0.51498 0.69128 0.0
H250 H 0.65549 0.55368 0.72064 0.0
H251 H 0.50192 0.56703 0.70896 0.0
H252 H 0.48851 0.50527 0.72474 0.0
H253 H 0.60414 0.47864 0.68203 0.0
C254 C 0.63528 0.61307 0.64419 0.0
C255 C 0.62018 0.64651 0.6483 0.0
C256 C 0.58198 0.65127 0.66374 0.0
C257 C 0.5591 0.62274 0.67577 0.0
C258 C 0.57524 0.58986 0.67233 0.0
C259 C 0.61245 0.58501 0.65661 0.0
C260 C 0.62431 0.5476 0.65849 0.0
C261 C 0.63107 0.53313 0.61289 0.0
C262 C 0.66056 0.54281 0.68792 0.0
C263 C 0.58825 0.53205 0.67819 0.0
C264 C 0.56003 0.5566 0.68579 0.0
C265 C 0.52409 0.54776 0.70356 0.0
C266 C 0.51692 0.51289 0.71337 0.0
C267 C 0.54581 0.48772 0.70634 0.0
C268 C 0.58173 0.49755 0.68835 0.0
H269 H 0.86076 0.89312 0.11667 0.0
H270 H 0.88942 0.82332 0.2207 0.0
H271 H 0.9343 0.86716 0.25269 0.0
H272 H 0.9665 0.92658 0.1095 0.0
H273 H 0.94905 0.96834 0.09305 0.0
H274 H 0.92218 0.92993 0.07756 0.0
H275 H 0.86028 0.95578 0.11158 0.0
H276 H 0.88702 0.99365 0.12859 0.0
H277 H 0.86148 0.96827 0.16779 0.0
H278 H 0.95975 0.92554 0.28215 0.0
H279 H 0.98091 0.98608 0.29531 0.0
H280 H 0.95199 0.01021 0.16223 0.0
C281 C 0.87804 0.88612 0.14465 0.0
C282 C 0.87072 0.85515 0.16675 0.0
C283 C 0.8935 0.84751 0.20413 0.0
C284 C 0.91924 0.87214 0.22238 0.0
C285 C 0.92387 0.90342 0.20119 0.0
C286 C 0.90561 0.90956 0.1618 0.0
C287 C 0.91585 0.94502 0.14524 0.0
C288 C 0.93984 0.94231 0.10389 0.0
C289 C 0.87896 0.96694 0.13791 0.0
C290 C 0.94052 0.95866 0.18274 0.0
C291 C 0.94431 0.93464 0.21518 0.0
C292 C 0.95943 0.94384 0.25593 0.0
C293 C 0.97186 0.97817 0.26308 0.0
C294 C 0.97121 0.00231 0.22906 0.0
C295 C 0.95502 0.99209 0.18851 0.0
H296 H 0.85885 0.12799 0.61145 0.0
H297 H 0.87668 0.18279 0.73255 0.0
H298 H 0.91525 0.13411 0.76105 0.0
H299 H 0.84921 0.0464 0.64819 0.0
H300 H 0.87785 0.02508 0.60779 0.0
H301 H 0.85443 0.0653 0.59554 0.0
H302 H 0.92086 0.09274 0.57511 0.0
H303 H 0.94425 0.05208 0.5859 0.0
H304 H 0.96156 0.09083 0.61268 0.0
H305 H 0.93895 0.0742 0.78061 0.0
H306 H 0.95879 0.01291 0.78442 0.0
H307 H 0.93828 0.00266 0.64636 0.0
C308 C 0.8721 0.13031 0.64328 0.0
C309 C 0.86385 0.15868 0.67025 0.0
C310 C 0.88146 0.16061 0.71199 0.0
C311 C 0.90369 0.13326 0.72831 0.0
C312 C 0.90972 0.10484 0.70167 0.0
C313 C 0.89581 0.10383 0.65943 0.0
C314 C 0.90653 0.0703 0.63754 0.0
C315 C 0.86981 0.05063 0.62135 0.0
C316 C 0.935 0.07687 0.60062 0.0
C317 C 0.9265 0.05191 0.67478 0.0
C318 C 0.92784 0.07207 0.71166 0.0
C319 C 0.93992 0.0587 0.75146 0.0
C320 C 0.95139 0.02395 0.75336 0.0
C321 C 0.95229 0.00347 0.71543 0.0
C322 C 0.93954 0.01792 0.67578 0.0
H323 H 0.59457 0.33466 0.15238 0.0
H324 H 0.67864 0.34549 0.2582 0.0
H325 H 0.64189 0.39433 0.28662 0.0
H326 H 0.59904 0.42589 0.13413 0.0
H327 H 0.5495 0.42741 0.11342 0.0
H328 H 0.57744 0.38849 0.10832 0.0
H329 H 0.52096 0.35598 0.14696 0.0
H330 H 0.49472 0.39573 0.15414 0.0
H331 H 0.50713 0.36967 0.20029 0.0
H332 H 0.59765 0.44261 0.30338 0.0
H333 H 0.56393 0.49835 0.2949 0.0
H334 H 0.51921 0.46524 0.16948 0.0
C335 C 0.60562 0.34712 0.18126 0.0
C336 C 0.63859 0.33457 0.20418 0.0
C337 C 0.65191 0.35277 0.24164 0.0
C338 C 0.63132 0.38078 0.25802 0.0
C339 C 0.59847 0.39186 0.23532 0.0
C340 C 0.58686 0.37673 0.19661 0.0
C341 C 0.5564 0.3985 0.17369 0.0
C342 C 0.57147 0.41081 0.1298 0.0
C343 C 0.51749 0.37877 0.16848 0.0
C344 C 0.55305 0.4282 0.20557 0.0
C345 C 0.57628 0.42293 0.24181 0.0
C346 C 0.57931 0.44714 0.27521 0.0
C347 C 0.55988 0.47857 0.27031 0.0
C348 C 0.53904 0.48572 0.23171 0.0
C349 C 0.53454 0.45992 0.19956 0.0
H350 H 0.40883 0.35808 0.3575 0.0
H351 H 0.33596 0.39641 0.45988 0.0
H352 H 0.36761 0.45365 0.4548 0.0
H353 H 0.49707 0.41311 0.37978 0.0
H354 H 0.50533 0.41986 0.32314 0.0
H355 H 0.4832 0.38022 0.34092 0.0
H356 H 0.42424 0.39048 0.28903 0.0
H357 H 0.44628 0.43007 0.27137 0.0
H358 H 0.39759 0.43033 0.29271 0.0
H359 H 0.40098 0.50803 0.43297 0.0
H360 H 0.43181 0.55626 0.39485 0.0
H361 H 0.47889 0.48438 0.3015 0.0
C362 C 0.40002 0.37847 0.37918 0.0
C363 C 0.37024 0.37279 0.40944 0.0
C364 C 0.35942 0.39999 0.43734 0.0
C365 C 0.37709 0.43262 0.43445 0.0
C366 C 0.40531 0.43774 0.40316 0.0
C367 C 0.41674 0.41143 0.37592 0.0
C368 C 0.44418 0.42475 0.34172 0.0
C369 C 0.48486 0.40852 0.34671 0.0
C370 C 0.42703 0.41855 0.29602 0.0
C371 C 0.44534 0.46285 0.35315 0.0
C372 C 0.4234 0.4696 0.38926 0.0
C373 C 0.41857 0.50301 0.40495 0.0
C374 C 0.43616 0.53031 0.38292 0.0
C375 C 0.45792 0.52422 0.34515 0.0
C376 C 0.4629 0.4899 0.33052 0.0
H377 H 0.15771 0.11348 0.92249 0.0
H378 H 0.11122 0.1828 0.82548 0.0
H379 H 0.07063 0.13551 0.7948 0.0
H380 H 0.16055 0.03797 0.86525 0.0
H381 H 0.1417 0.01027 0.90659 0.0
H382 H 0.16677 0.04963 0.92143 0.0
H383 H 0.10686 0.07005 0.96452 0.0
H384 H 0.08179 0.03035 0.95061 0.0
H385 H 0.05944 0.07119 0.93833 0.0
H386 H 0.04769 0.07648 0.76581 0.0
H387 H 0.02814 0.01545 0.75383 0.0
H388 H 0.07344 0.99025 0.88111 0.0
C389 C 0.13811 0.11912 0.89574 0.0
C390 C 0.13903 0.15149 0.87517 0.0
C391 C 0.11263 0.15765 0.84028 0.0
C392 C 0.08914 0.13107 0.82288 0.0
C393 C 0.0905 0.09892 0.84246 0.0
C394 C 0.11276 0.0934 0.87947 0.0
C395 C 0.1073 0.05699 0.89562 0.0
C396 C 0.14641 0.03759 0.89729 0.0
C397 C 0.08767 0.05716 0.93989 0.0
C398 C 0.08017 0.04249 0.86068 0.0
C399 C 0.07142 0.06679 0.82975 0.0
C400 C 0.05209 0.05774 0.79114 0.0
C401 C 0.04037 0.02317 0.7848 0.0
C402 C 0.04592 0.99859 0.81778 0.0
C403 C 0.0667 0.00861 0.85592 0.0
H404 H 0.10631 0.19109 0.957 0.0
H405 H 0.22251 0.15447 0.98767 0.0
H406 H 0.2026 0.14204 0.06262 0.0
H407 H 0.08927 0.23308 0.05657 0.0
H408 H 0.03846 0.22086 0.05925 0.0
H409 H 0.06127 0.22519 1.0076 0.0
H410 H 0.04133 0.1625 0.98687 0.0
H411 H 0.01751 0.15826 0.03795 0.0
H412 H 0.05435 0.12773 0.02255 0.0
H413 H 0.17 0.13626 0.13571 0.0
H414 H 0.12494 0.12972 0.19704 0.0
H415 H 0.03077 0.17118 0.11784 0.0
C416 C 0.12708 0.17967 0.97938 0.0
C417 C 0.16578 0.17351 0.96698 0.0
C418 C 0.19266 0.15916 0.997 0.0
C419 C 0.18168 0.15229 0.03954 0.0
C420 C 0.1436 0.15988 0.05144 0.0
C421 C 0.11653 0.17267 0.02198 0.0
C422 C 0.07746 0.17838 0.04277 0.0
C423 C 0.06596 0.21665 0.04146 0.0
C424 C 0.04579 0.15534 0.02128 0.0
C425 C 0.08678 0.16702 0.08848 0.0
C426 C 0.12511 0.15662 0.09311 0.0
C427 C 0.13989 0.14434 0.13244 0.0
C428 C 0.11426 0.14111 0.16732 0.0
C429 C 0.0744 0.15003 0.16237 0.0
C430 C 0.06113 0.16423 0.1228 0.0
H431 H 0.4125 0.32879 0.47357 0.0
H432 H 0.29159 0.33273 0.51198 0.0
H433 H 0.31268 0.34136 0.58813 0.0
H434 H 0.45071 0.28447 0.56641 0.0
H435 H 0.49548 0.3092 0.5697 0.0
H436 H 0.47089 0.30289 0.51832 0.0
H437 H 0.46827 0.36903 0.5073 0.0
H438 H 0.49312 0.37555 0.55851 0.0
H439 H 0.44671 0.39588 0.54808 0.0
H440 H 0.34716 0.34822 0.66062 0.0
H441 H 0.39223 0.35723 0.72298 0.0
H442 H 0.49105 0.35101 0.63741 0.0
C443 C 0.39062 0.33157 0.49814 0.0
C444 C 0.35041 0.32928 0.48717 0.0
C445 C 0.32249 0.33341 0.51998 0.0
C446 C 0.33423 0.33852 0.56323 0.0
C447 C 0.3741 0.33995 0.5732 0.0
C448 C 0.4019 0.33701 0.54153 0.0
C449 C 0.44284 0.34037 0.56082 0.0
C450 C 0.46636 0.30726 0.55337 0.0
C451 C 0.46398 0.37209 0.5426 0.0
C452 C 0.43373 0.34533 0.60826 0.0
C453 C 0.3939 0.34488 0.61474 0.0
C454 C 0.37842 0.34876 0.65586 0.0
C455 C 0.40427 0.35374 0.69118 0.0
C456 C 0.44522 0.35493 0.68525 0.0
C457 C 0.45995 0.35034 0.64315 0.0
H458 H 0.61115 0.28462 0.10808 0.0
H459 H 0.71679 0.3461 0.10379 0.0
H460 H 0.698 0.36617 0.03021 0.0
H461 H 0.60456 0.26038 0.99573 0.0
H462 H 0.55219 0.26472 0.99206 0.0
H463 H 0.57526 0.25352 0.04275 0.0
H464 H 0.54353 0.30638 0.0808 0.0
H465 H 0.51897 0.31577 0.03042 0.0
H466 H 0.54855 0.3484 0.0569 0.0
H467 H 0.6665 0.3792 0.95607 0.0
H468 H 0.62107 0.39167 0.89483 0.0
H469 H 0.53362 0.3256 0.95145 0.0
C470 C 0.62993 0.30271 0.0917 0.0
C471 C 0.66493 0.31452 0.1117 0.0
C472 C 0.68951 0.33736 0.0891 0.0
C473 C 0.67915 0.34862 0.0473 0.0
C474 C 0.64401 0.33681 0.02861 0.0
C475 C 0.61943 0.31489 0.0506 0.0
C476 C 0.58207 0.3078 0.02497 0.0
C477 C 0.57832 0.26931 1.01319 0.0
C478 C 0.54619 0.32034 0.04977 0.0
C479 C 0.58913 0.32943 0.98524 0.0
C480 C 0.62544 0.34529 0.98729 0.0
C481 C 0.63807 0.36683 0.95422 0.0
C482 C 0.61231 0.37347 0.91926 0.0
C483 C 0.57418 0.35915 0.91812 0.0
C484 C 0.56293 0.33634 0.95114 0.0
H485 H 0.82362 0.16622 0.54546 0.0
H486 H 0.90514 0.23033 0.61857 0.0
H487 H 0.95209 0.2274 0.55855 0.0
H488 H 0.8955 0.10934 0.50262 0.0
H489 H 0.87096 0.10374 0.45111 0.0
H490 H 0.84316 0.1137 0.49834 0.0
H491 H 0.81414 0.16661 0.45817 0.0
H492 H 0.84313 0.15713 0.41154 0.0
H493 H 0.84667 0.19893 0.43715 0.0
H494 H 0.99056 0.21582 0.49342 0.0
H495 H 0.02304 0.19052 0.43059 0.0
H496 H 0.91832 0.13155 0.39828 0.0
C497 C 0.85135 0.1797 0.54831 0.0
C498 C 0.86123 0.19859 0.5862 0.0
C499 C 0.89758 0.21578 0.58962 0.0
C500 C 0.92407 0.21441 0.55565 0.0
C501 C 0.91364 0.19562 0.51857 0.0
C502 C 0.87841 0.17815 0.51476 0.0
C503 C 0.87606 0.15754 0.47277 0.0
C504 C 0.87113 0.11879 0.48177 0.0
C505 C 0.84302 0.17085 0.44317 0.0
C506 C 0.91587 0.16552 0.4541 0.0
C507 C 0.93654 0.18817 0.48082 0.0
C508 C 0.97461 0.19831 0.4721 0.0
C509 C 0.99276 0.18387 0.43625 0.0
C510 C 0.97307 0.15939 0.40943 0.0
C511 C 0.93366 0.15084 0.41766 0.0
H512 H 0.82603 0.87273 0.05612 0.0
H513 H 0.87372 0.77304 0.08854 0.0
H514 H 0.90405 0.76934 1.01643 0.0
H515 H 0.80705 0.85786 0.94326 0.0
H516 H 0.82296 0.90006 0.92658 0.0
H517 H 0.80314 0.89418 0.97957 0.0
H518 H 0.86601 0.92019 1.01539 0.0
H519 H 0.88496 0.92747 0.96239 0.0
H520 H 0.9129 0.90293 1.00115 0.0
H521 H 0.92885 0.77673 0.94098 0.0
H522 H 0.95831 0.7994 0.87452 0.0
H523 H 0.89875 0.89634 0.89306 0.0
C524 C 0.84392 0.8507 0.04835 0.0
C525 C 0.84881 0.82357 0.07808 0.0
C526 C 0.87076 0.79434 0.06633 0.0
C527 C 0.88749 0.7919 0.02536 0.0
C528 C 0.88203 0.81904 0.99658 0.0
C529 C 0.86166 0.8483 1.00798 0.0
C530 C 0.86277 0.87499 0.97246 0.0
C531 C 0.82152 0.88218 0.95442 0.0
C532 C 0.88287 0.90836 0.98882 0.0
C533 C 0.88732 0.85635 0.93942 0.0
C534 C 0.89717 0.8237 0.95351 0.0
C535 C 0.92105 0.80211 0.92947 0.0
C536 C 0.9372 0.81496 0.89141 0.0
C537 C 0.92971 0.84911 0.87805 0.0
C538 C 0.90352 0.86963 0.90164 0.0
H539 H 0.67443 0.66384 0.52903 0.0
H540 H 0.58011 0.71231 0.59748 0.0
H541 H 0.53755 0.70743 0.53215 0.0
H542 H 0.65328 0.70289 0.4229 0.0
H543 H 0.6652 0.66441 0.39304 0.0
H544 H 0.68909 0.67337 0.44429 0.0
H545 H 0.6666 0.61396 0.47282 0.0
H546 H 0.64287 0.60474 0.42165 0.0
H547 H 0.61537 0.60276 0.47068 0.0
H548 H 0.50444 0.69461 0.46179 0.0
H549 H 0.4812 0.67262 0.39101 0.0
H550 H 0.59683 0.63317 0.3652 0.0
C551 C 0.64496 0.6738 0.52972 0.0
C552 C 0.63033 0.68877 0.56789 0.0
C553 C 0.59153 0.7009 0.56835 0.0
C554 C 0.56738 0.69837 0.53141 0.0
C555 C 0.58255 0.68364 0.49413 0.0
C556 C 0.6204 0.67147 0.49287 0.0
C557 C 0.62858 0.65526 0.44909 0.0
C558 C 0.66097 0.67518 0.42597 0.0
C559 C 0.63896 0.6169 0.45386 0.0
C560 C 0.58925 0.65974 0.42624 0.0
C561 C 0.56331 0.67641 0.45292 0.0
C562 C 0.52458 0.68189 0.44044 0.0
C563 C 0.51165 0.66931 0.40014 0.0
C564 C 0.53729 0.65157 0.37245 0.0
C565 C 0.57687 0.64738 0.3853 0.0
H566 H 0.35591 0.6285 0.93001 0.0
H567 H 0.34365 0.73767 0.95717 0.0
H568 H 0.36789 0.72859 0.03176 0.0
H569 H 0.33558 0.59431 0.03547 0.0
H570 H 0.37402 0.56279 0.03385 0.0
H571 H 0.35075 0.5768 0.98441 0.0
H572 H 0.41791 0.59452 0.95394 0.0
H573 H 0.4415 0.58007 1.0029 0.0
H574 H 0.44909 0.62362 0.98461 0.0
H575 H 0.39339 0.70729 0.10422 0.0
H576 H 0.43078 0.67832 0.16287 0.0
H577 H 0.43558 0.58541 0.08458 0.0
C578 C 0.35858 0.65054 0.9515 0.0
C579 C 0.34705 0.68375 0.93793 0.0
C580 C 0.35108 0.71183 0.96727 0.0
C581 C 0.36493 0.70694 1.00968 0.0
C582 C 0.37578 0.67387 0.02214 0.0
C583 C 0.37383 0.64634 0.99349 0.0
C584 C 0.39177 0.61436 1.01325 0.0
C585 C 0.36119 0.58535 1.01696 0.0
C586 C 0.42717 0.60245 0.98714 0.0
C587 C 0.40407 0.62822 0.05741 0.0
C588 C 0.39361 0.66234 0.06241 0.0
C589 C 0.40187 0.6806 0.10062 0.0
C590 C 0.42278 0.66393 0.13391 0.0
C591 C 0.43594 0.62975 0.12817 0.0
C592 C 0.42567 0.61157 0.08981 0.0
H593 H 0.09764 0.79918 0.44116 0.0
H594 H 0.21651 0.81339 0.48809 0.0
H595 H 0.19223 0.82989 0.56024 0.0
H596 H 0.05613 0.87107 0.49966 0.0
H597 H 0.01101 0.84832 0.50861 0.0
H598 H 0.03955 0.83825 0.46195 0.0
H599 H 0.03968 0.77395 0.48661 0.0
H600 H 0.01287 0.78504 0.53422 0.0
H601 H 0.05917 0.76341 0.53931 0.0
H602 H 0.15415 0.84652 0.62714 0.0
H603 H 0.10551 0.86461 0.68108 0.0
H604 H 0.01204 0.83777 0.59029 0.0
C605 C 0.11834 0.80589 0.46675 0.0
C606 C 0.15884 0.80494 0.45951 0.0
C607 C 0.18534 0.81374 0.4935 0.0
C608 C 0.17182 0.82312 0.53442 0.0
C609 C 0.13163 0.82347 0.54084 0.0
C610 C 0.10529 0.81524 0.50784 0.0
C611 C 0.06363 0.81822 0.52284 0.0
C612 C 0.04127 0.84558 0.49668 0.0
C613 C 0.04261 0.78306 0.52061 0.0
C614 C 0.07062 0.82983 0.56915 0.0
C615 C 0.10998 0.83254 0.57919 0.0
C616 C 0.12321 0.84416 0.61975 0.0
C617 C 0.09543 0.85405 0.6504 0.0
C618 C 0.05499 0.85219 0.64023 0.0
C619 C 0.04274 0.83931 0.59928 0.0
H620 H 0.30072 0.23261 0.36755 0.0
H621 H 0.24098 0.32931 0.3479 0.0
H622 H 0.18818 0.29881 0.30675 0.0
H623 H 0.26999 0.18857 0.26509 0.0
H624 H 0.26298 0.14779 0.29157 0.0
H625 H 0.29943 0.17784 0.31188 0.0
H626 H 0.26788 0.17699 0.38741 0.0
H627 H 0.23204 0.1465 0.36749 0.0
H628 H 0.21657 0.18636 0.39193 0.0
H629 H 0.13866 0.2567 0.2739 0.0
H630 H 0.09289 0.20734 0.26413 0.0
H631 H 0.18304 0.138 0.30962 0.0
C632 C 0.27672 0.24727 0.35397 0.0
C633 C 0.27502 0.28329 0.36024 0.0
C634 C 0.243 0.30174 0.34264 0.0
C635 C 0.21305 0.28463 0.31914 0.0
C636 C 0.21534 0.24892 0.31378 0.0
C637 C 0.24621 0.23043 0.33124 0.0
C638 C 0.23921 0.19197 0.32646 0.0
C639 C 0.26973 0.17558 0.29699 0.0
C640 C 0.23887 0.17444 0.37095 0.0
C641 C 0.19902 0.1916 0.30501 0.0
C642 C 0.18618 0.22465 0.29662 0.0
C643 C 0.14866 0.2307 0.27978 0.0
C644 C 0.12292 0.20248 0.27379 0.0
C645 C 0.13462 0.16888 0.28561 0.0
C646 C 0.17368 0.16336 0.29943 0.0
H647 H 0.28383 0.21624 0.84453 0.0
H648 H 0.19112 0.28523 0.8808 0.0
H649 H 0.23115 0.33546 0.85887 0.0
H650 H 0.36018 0.26482 0.88447 0.0
H651 H 0.39405 0.25584 0.84198 0.0
H652 H 0.35582 0.22543 0.85341 0.0
H653 H 0.33158 0.22808 0.77375 0.0
H654 H 0.36986 0.25865 0.76208 0.0
H655 H 0.31959 0.26919 0.75028 0.0
H656 H 0.28441 0.3773 0.84579 0.0
H657 H 0.34724 0.40861 0.84046 0.0
H658 H 0.40522 0.31315 0.8079 0.0
C659 C 0.27186 0.24197 0.84645 0.0
C660 C 0.23464 0.24739 0.86383 0.0
C661 C 0.21963 0.2811 0.86712 0.0
C662 C 0.24204 0.30954 0.85461 0.0
C663 C 0.27911 0.30359 0.83828 0.0
C664 C 0.29382 0.27062 0.83364 0.0
C665 C 0.33586 0.27158 0.81905 0.0
C666 C 0.36306 0.25336 0.85169 0.0
C667 C 0.33942 0.25594 0.77358 0.0
C668 C 0.34315 0.31017 0.81863 0.0
C669 C 0.30982 0.32814 0.82924 0.0
C670 C 0.3104 0.36369 0.83618 0.0
C671 C 0.34613 0.38123 0.83321 0.0
C672 C 0.38058 0.36325 0.82297 0.0
C673 C 0.37888 0.32751 0.81435 0.0
H674 H 0.71833 0.24579 0.63258 0.0
H675 H 0.80019 0.25594 0.74018 0.0
H676 H 0.75336 0.29267 0.77892 0.0
H677 H 0.68223 0.33504 0.63871 0.0
H678 H 0.63287 0.32278 0.62386 0.0
H679 H 0.67336 0.29802 0.60427 0.0
H680 H 0.64307 0.24264 0.63647 0.0
H681 H 0.60268 0.26726 0.6564 0.0
H682 H 0.63169 0.24166 0.69306 0.0
H683 H 0.69564 0.3244 0.80824 0.0
H684 H 0.63312 0.35364 0.82318 0.0
H685 H 0.59047 0.32625 0.69467 0.0
C686 C 0.72646 0.25629 0.66395 0.0
C687 C 0.76251 0.24775 0.6838 0.0
C688 C 0.77228 0.2617 0.72499 0.0
C689 C 0.74601 0.28268 0.74707 0.0
C690 C 0.71027 0.29 0.72717 0.0
C691 C 0.70067 0.27771 0.68626 0.0
C692 C 0.66024 0.28944 0.67233 0.0
C693 C 0.66232 0.31271 0.63243 0.0
C694 C 0.63281 0.2584 0.66409 0.0
C695 C 0.6485 0.30972 0.71202 0.0
C696 C 0.67767 0.30957 0.74339 0.0
C697 C 0.67277 0.32514 0.78369 0.0
C698 C 0.63719 0.34156 0.79198 0.0
C699 C 0.60727 0.34258 0.75993 0.0
C700 C 0.61314 0.32643 0.71951 0.0
H701 H 0.72855 0.19916 0.20249 0.0
H702 H 0.76057 0.3009 0.24927 0.0
H703 H 0.8167 0.27641 0.29037 0.0
H704 H 0.75847 0.15139 0.30199 0.0
H705 H 0.77662 0.11542 0.27126 0.0
H706 H 0.73634 0.14044 0.2504 0.0
H707 H 0.77425 0.1525 0.18015 0.0
H708 H 0.81385 0.12677 0.20041 0.0
H709 H 0.82286 0.17061 0.18408 0.0
H710 H 0.87383 0.24149 0.31869 0.0
H711 H 0.92951 0.20097 0.32373 0.0
H712 H 0.8583 0.12168 0.26187 0.0
C713 C 0.7473 0.21597 0.22186 0.0
C714 C 0.74074 0.25172 0.22297 0.0
C715 C 0.76561 0.27335 0.24829 0.0
C716 C 0.79716 0.25963 0.27196 0.0
C717 C 0.80304 0.22409 0.27041 0.0
C718 C 0.77877 0.20259 0.24589 0.0
C719 C 0.79343 0.16591 0.24622 0.0
C720 C 0.76448 0.14187 0.26882 0.0
C721 C 0.80161 0.15323 0.2 0.0
C722 C 0.83074 0.17041 0.27282 0.0
C723 C 0.83547 0.20395 0.28747 0.0
C724 C 0.87006 0.21496 0.30828 0.0
C725 C 0.90145 0.19172 0.31156 0.0
C726 C 0.89784 0.15822 0.29371 0.0
C727 C 0.86132 0.14697 0.27671 0.0
H728 H 0.71149 0.77863 0.66011 0.0
H729 H 0.75626 0.68009 0.70229 0.0
H730 H 0.81034 0.70978 0.74209 0.0
H731 H 0.80351 0.81491 0.63803 0.0
H732 H 0.79049 0.8579 0.65474 0.0
H733 H 0.7533 0.82861 0.63492 0.0
H734 H 0.71516 0.83777 0.70571 0.0
H735 H 0.75293 0.86647 0.72611 0.0
H736 H 0.73888 0.82927 0.75694 0.0
H737 H 0.86241 0.75057 0.77321 0.0
H738 H 0.91205 0.79711 0.7826 0.0
H739 H 0.83398 0.8683 0.71792 0.0
C740 C 0.73268 0.76342 0.67783 0.0
C741 C 0.72958 0.72715 0.6786 0.0
C742 C 0.75784 0.70798 0.70205 0.0
C743 C 0.78853 0.72464 0.72481 0.0
C744 C 0.79064 0.76055 0.72373 0.0
C745 C 0.76367 0.77964 0.70035 0.0
C746 C 0.77452 0.81752 0.70061 0.0
C747 C 0.78086 0.83048 0.65435 0.0
C748 C 0.74352 0.83902 0.72373 0.0
C749 C 0.81244 0.81669 0.72659 0.0
C750 C 0.82088 0.78378 0.74068 0.0
C751 C 0.85584 0.77652 0.7628 0.0
C752 C 0.88374 0.80314 0.76848 0.0
C753 C 0.87659 0.83626 0.75137 0.0
C754 C 0.83982 0.84331 0.73199 0.0
H755 H 0.77303 0.73511 0.15722 0.0
H756 H 0.71944 0.82733 0.20784 0.0
H757 H 0.66774 0.79168 0.24113 0.0
H758 H 0.68339 0.6963 0.12464 0.0
H759 H 0.69909 0.6529 0.13569 0.0
H760 H 0.73442 0.68539 0.12195 0.0
H761 H 0.77313 0.67264 0.19274 0.0
H762 H 0.73747 0.64044 0.207 0.0
H763 H 0.74877 0.67549 0.24377 0.0
H764 H 0.62112 0.74553 0.26726 0.0
H765 H 0.57682 0.69505 0.27231 0.0
H766 H 0.65752 0.6342 0.19744 0.0
C767 C 0.75051 0.74762 0.17566 0.0
C768 C 0.7507 0.78372 0.18135 0.0
C769 C 0.72042 0.79952 0.20469 0.0
C770 C 0.69103 0.7795 0.22355 0.0
C771 C 0.69197 0.74379 0.21786 0.0
C772 C 0.7205 0.7281 0.19365 0.0
C773 C 0.71241 0.68994 0.18782 0.0
C774 C 0.70699 0.6806 0.13968 0.0
C775 C 0.74488 0.66836 0.20911 0.0
C776 C 0.6745 0.68662 0.2119 0.0
C777 C 0.66373 0.71772 0.23011 0.0
C778 C 0.62929 0.72105 0.25319 0.0
C779 C 0.60445 0.6922 0.25616 0.0
C780 C 0.61382 0.66083 0.23522 0.0
C781 C 0.64977 0.65787 0.21388 0.0
H782 H 0.28277 0.75054 0.39904 0.0
H783 H 0.1995 0.73301 0.29418 0.0
H784 H 0.24794 0.69711 0.25627 0.0
H785 H 0.36929 0.75421 0.33727 0.0
H786 H 0.39874 0.73092 0.37593 0.0
H787 H 0.35793 0.75602 0.39385 0.0
H788 H 0.32853 0.70208 0.43058 0.0
H789 H 0.36948 0.67693 0.41312 0.0
H790 H 0.32037 0.66326 0.39923 0.0
H791 H 0.30757 0.66504 0.22862 0.0
H792 H 0.37002 0.63386 0.21813 0.0
H793 H 0.41063 0.66883 0.34448 0.0
C794 C 0.27457 0.73867 0.36847 0.0
C795 C 0.2376 0.74465 0.3493 0.0
C796 C 0.22802 0.72911 0.30893 0.0
C797 C 0.25525 0.70866 0.2873 0.0
C798 C 0.2917 0.70356 0.3069 0.0
C799 C 0.30107 0.71766 0.34695 0.0
C800 C 0.34156 0.70727 0.36189 0.0
C801 C 0.36845 0.739 0.36755 0.0
C802 C 0.33986 0.68612 0.40367 0.0
C803 C 0.35356 0.68525 0.32399 0.0
C804 C 0.32478 0.68373 0.2922 0.0
C805 C 0.33013 0.6657 0.25354 0.0
C806 C 0.3656 0.64823 0.24774 0.0
C807 C 0.3946 0.64853 0.28082 0.0
C808 C 0.38852 0.66757 0.31905 0.0
H809 H 0.27497 0.77707 0.85017 0.0
H810 H 0.24206 0.68342 0.78185 0.0
H811 H 0.18692 0.71406 0.74606 0.0
H812 H 0.1814 0.80187 0.87497 0.0
H813 H 0.19025 0.84751 0.86948 0.0
H814 H 0.22993 0.81934 0.88329 0.0
H815 H 0.26827 0.84165 0.81743 0.0
H816 H 0.22829 0.86964 0.80313 0.0
H817 H 0.24618 0.83906 0.76423 0.0
H818 H 0.13019 0.75396 0.72517 0.0
H819 H 0.0766 0.797 0.72589 0.0
H820 H 0.14791 0.86367 0.80814 0.0
C821 C 0.25643 0.7633 0.82711 0.0
C822 C 0.26262 0.7281 0.81845 0.0
C823 C 0.23788 0.7106 0.78832 0.0
C824 C 0.20662 0.72783 0.7679 0.0
C825 C 0.20084 0.76262 0.7777 0.0
C826 C 0.22528 0.78009 0.80661 0.0
C827 C 0.21094 0.8162 0.81527 0.0
C828 C 0.20262 0.82151 0.86359 0.0
C829 C 0.24017 0.84323 0.79903 0.0
C830 C 0.17376 0.816 0.78816 0.0
C831 C 0.16858 0.78524 0.7659 0.0
C832 C 0.13436 0.77838 0.74181 0.0
C833 C 0.10417 0.80298 0.74206 0.0
C834 C 0.10851 0.83368 0.76662 0.0
C835 C 0.14425 0.84062 0.78846 0.0
loop_
_geom_bond_atom_site_label_1
_geom_bond_atom_site_label_2
_geom_bond_distance
_geom_bond_site_symmetry_2
_ccdc_geom_bond_type
C0 N1 1.317 . S
C0 N2 1.348 . S
C0 C3 1.485 . S
N1 C0 1.317 . S
N1 N5 1.370 . S
N2 C0 1.348 . S
N2 C4 1.346 . S
C3 C0 1.485 . S
C3 H7 0.960 . S
C3 H8 0.961 . S
C3 H9 0.960 . S
C4 N2 1.346 . S
C4 N5 1.307 . S
C4 C6 1.486 . S
N5 N1 1.370 . S
N5 C4 1.307 . S
C6 C4 1.486 . S
C6 H10 0.960 . S
C6 H11 0.960 . S
C6 H12 0.959 . S
H7 C3 0.960 . S
H8 C3 0.961 . S
H9 C3 0.960 . S
H10 C6 0.960 . S
H11 C6 0.960 . S
H12 C6 0.959 . S
C13 N14 1.317 . S
C13 N15 1.348 . S
C13 C16 1.485 . S
N14 C13 1.317 . S
N14 N18 1.370 . S
N15 C13 1.348 . S
N15 C17 1.346 . S
C16 C13 1.485 . S
C16 H20 0.960 . S
C16 H21 0.961 . S
C16 H22 0.960 . S
C17 N15 1.346 . S
C17 N18 1.307 . S
C17 C19 1.486 . S
N18 N14 1.370 . S
N18 C17 1.307 . S
C19 C17 1.486 . S
C19 H23 0.960 . S
C19 H24 0.960 . S
C19 H25 0.959 . S
H20 C16 0.960 . S
H21 C16 0.961 . S
H22 C16 0.960 . S
H23 C19 0.960 . S
H24 C19 0.960 . S
H25 C19 0.959 . S
C26 N27 1.317 . S
C26 N28 1.348 . S
C26 C29 1.485 . S
N27 C26 1.317 . S
N27 N31 1.370 . S
N28 C26 1.348 . S
N28 C30 1.346 . S
C29 C26 1.485 . S
C29 H33 0.960 . S
C29 H34 0.961 . S
C29 H35 0.960 . S
C30 N28 1.346 . S
C30 N31 1.307 . S
C30 C32 1.486 . S
N31 N27 1.370 . S
N31 C30 1.307 . S
C32 C30 1.486 . S
C32 H36 0.960 . S
C32 H37 0.960 . S
C32 H38 0.959 . S
H33 C29 0.960 . S
H34 C29 0.961 . S
H35 C29 0.960 . S
H36 C32 0.960 . S
H37 C32 0.960 . S
H38 C32 0.959 . S
C39 N40 1.317 . S
C39 N41 1.348 . S
C39 C42 1.485 . S
N40 C39 1.317 . S
N40 N44 1.370 . S
N41 C39 1.348 . S
N41 C43 1.346 . S
C42 C39 1.485 . S
C42 H46 0.960 . S
C42 H47 0.961 . S
C42 H48 0.960 . S
C43 N41 1.346 . S
C43 N44 1.307 . S
C43 C45 1.486 . S
N44 N40 1.370 . S
N44 C43 1.307 . S
C45 C43 1.486 . S
C45 H49 0.960 . S
C45 H50 0.960 . S
C45 H51 0.959 . S
H46 C42 0.960 . S
H47 C42 0.961 . S
H48 C42 0.960 . S
H49 C45 0.960 . S
H50 C45 0.960 . S
H51 C45 0.959 . S
C52 N53 1.317 . S
C52 N54 1.348 . S
C52 C55 1.485 . S
N53 C52 1.317 . S
N53 N57 1.370 . S
N54 C52 1.348 . S
N54 C56 1.346 . S
C55 C52 1.485 . S
C55 H59 0.960 . S
C55 H60 0.961 . S
C55 H61 0.960 . S
C56 N54 1.346 . S
C56 N57 1.307 . S
C56 C58 1.486 . S
N57 N53 1.370 . S
N57 C56 1.307 . S
C58 C56 1.486 . S
C58 H62 0.960 . S
C58 H63 0.960 . S
C58 H64 0.959 . S
H59 C55 0.960 . S
H60 C55 0.961 . S
H61 C55 0.960 . S
H62 C58 0.960 . S
H63 C58 0.960 . S
H64 C58 0.959 . S
C65 N66 1.317 . S
C65 N67 1.348 . S
C65 C68 1.485 . S
N66 C65 1.317 . S
N66 N70 1.370 . S
N67 C65 1.348 . S
N67 C69 1.346 . S
C68 C65 1.485 . S
C68 H72 0.960 . S
C68 H73 0.961 . S
C68 H74 0.960 . S
C69 N67 1.346 . S
C69 N70 1.307 . S
C69 C71 1.486 . S
N70 N66 1.370 . S
N70 C69 1.307 . S
C71 C69 1.486 . S
C71 H75 0.960 . S
C71 H76 0.960 . S
C71 H77 0.959 . S
H72 C68 0.960 . S
H73 C68 0.961 . S
H74 C68 0.960 . S
H75 C71 0.960 . S
H76 C71 0.960 . S
H77 C71 0.959 . S
C78 N79 1.317 . S
C78 N80 1.348 . S
C78 C81 1.485 . S
N79 C78 1.317 . S
N79 N83 1.370 . S
N80 C78 1.348 . S
N80 C82 1.346 . S
C81 C78 1.485 . S
C81 H85 0.960 . S
C81 H86 0.961 . S
C81 H87 0.960 . S
C82 N80 1.346 . S
C82 N83 1.307 . S
C82 C84 1.486 . S
N83 N79 1.370 . S
N83 C82 1.307 . S
C84 C82 1.486 . S
C84 H88 0.960 . S
C84 H89 0.960 . S
C84 H90 0.959 . S
H85 C81 0.960 . S
H86 C81 0.961 . S
H87 C81 0.960 . S
H88 C84 0.960 . S
H89 C84 0.960 . S
H90 C84 0.959 . S
C91 N92 1.317 . S
C91 N93 1.348 . S
C91 C94 1.485 . S
N92 C91 1.317 . S
N92 N96 1.370 . S
N93 C91 1.348 . S
N93 C95 1.346 . S
C94 C91 1.485 . S
C94 H98 0.960 . S
C94 H99 0.961 . S
C94 H100 0.960 . S
C95 N93 1.346 . S
C95 N96 1.307 . S
C95 C97 1.486 . S
N96 N92 1.370 . S
N96 C95 1.307 . S
C97 C95 1.486 . S
C97 H101 0.960 . S
C97 H102 0.960 . S
C97 H103 0.959 . S
H98 C94 0.960 . S
H99 C94 0.961 . S
H100 C94 0.960 . S
H101 C97 0.960 . S
H102 C97 0.960 . S
H103 C97 0.959 . S
Zn104 O110 1.920 1_455 S
Zn104 O116 1.898 . S
Zn104 O119 1.905 . S
Zn105 O113 1.905 1_655 S
Zn105 O114 1.898 . S
Zn105 O122 1.920 . S
Zn106 O109 2.080 1_455 S
Zn106 O112 2.114 . S
Zn106 O115 2.120 1_455 S
Zn106 O117 2.120 . S
Zn106 O118 2.114 . S
Zn106 O121 2.080 1_455 S
C107 O112 1.166 . S
C107 O113 1.182 . S
C108 O114 1.167 . S
C108 O115 1.299 . S
O109 Zn106 2.080 1_655 S
O109 C123 1.305 . S
O110 Zn104 1.920 1_655 S
O110 C123 1.234 . S
C111 O116 1.167 . S
C111 O117 1.299 . S
O112 Zn106 2.114 . S
O112 C107 1.166 . S
O113 Zn105 1.905 1_455 S
O113 C107 1.182 . S
O114 Zn105 1.898 . S
O114 C108 1.167 . S
O115 Zn106 2.120 1_655 S
O115 C108 1.299 . S
O116 Zn104 1.898 . S
O116 C111 1.167 . S
O117 Zn106 2.120 . S
O117 C111 1.299 . S
O118 Zn106 2.114 . S
O118 C120 1.166 . S
O119 Zn104 1.905 . S
O119 C120 1.182 . S
C120 O118 1.166 . S
C120 O119 1.182 . S
O121 Zn106 2.080 1_655 S
O121 C124 1.305 . S
O122 Zn105 1.920 . S
O122 C124 1.234 . S
C123 O109 1.305 . S
C123 O110 1.234 . S
C124 O121 1.305 . S
C124 O122 1.234 . S
Zn125 O131 1.920 . S
Zn125 O137 1.898 . S
Zn125 O140 1.905 . S
Zn126 O134 1.905 . S
Zn126 O135 1.898 . S
Zn126 O143 1.920 . S
Zn127 O130 2.080 . S
Zn127 O133 2.114 . S
Zn127 O136 2.120 . S
Zn127 O138 2.120 . S
Zn127 O139 2.114 . S
Zn127 O142 2.080 . S
C128 O133 1.166 . S
C128 O134 1.182 . S
C129 O135 1.167 . S
C129 O136 1.299 . S
O130 Zn127 2.080 . S
O130 C144 1.305 . S
O131 Zn125 1.920 . S
O131 C144 1.234 . S
C132 O137 1.167 . S
C132 O138 1.299 . S
O133 Zn127 2.114 . S
O133 C128 1.166 . S
O134 Zn126 1.905 . S
O134 C128 1.182 . S
O135 Zn126 1.898 . S
O135 C129 1.167 . S
O136 Zn127 2.120 . S
O136 C129 1.299 . S
O137 Zn125 1.898 . S
O137 C132 1.167 . S
O138 Zn127 2.120 . S
O138 C132 1.299 . S
O139 Zn127 2.114 . S
O139 C141 1.166 . S
O140 Zn125 1.905 . S
O140 C141 1.182 . S
C141 O139 1.166 . S
C141 O140 1.182 . S
O142 Zn127 2.080 . S
O142 C145 1.305 . S
O143 Zn126 1.920 . S
O143 C145 1.234 . S
C144 O130 1.305 . S
C144 O131 1.234 . S
C145 O142 1.305 . S
C145 O143 1.234 . S
Zn146 O152 1.920 . S
Zn146 O158 1.898 . S
Zn146 O161 1.905 1_455 S
Zn147 O155 1.905 . S
Zn147 O156 1.898 . S
Zn147 O164 1.920 1_655 S
Zn148 O151 2.080 . S
Zn148 O154 2.114 1_455 S
Zn148 O157 2.120 1_455 S
Zn148 O159 2.120 . S
Zn148 O160 2.114 1_455 S
Zn148 O163 2.080 . S
C149 O154 1.166 . S
C149 O155 1.182 . S
C150 O156 1.167 . S
C150 O157 1.299 . S
O151 Zn148 2.080 . S
O151 C165 1.305 . S
O152 Zn146 1.920 . S
O152 C165 1.234 . S
C153 O158 1.167 . S
C153 O159 1.299 . S
O154 Zn148 2.114 1_655 S
O154 C149 1.166 . S
O155 Zn147 1.905 . S
O155 C149 1.182 . S
O156 Zn147 1.898 . S
O156 C150 1.167 . S
O157 Zn148 2.120 1_655 S
O157 C150 1.299 . S
O158 Zn146 1.898 . S
O158 C153 1.167 . S
O159 Zn148 2.120 . S
O159 C153 1.299 . S
O160 Zn148 2.114 1_655 S
O160 C162 1.166 . S
O161 Zn146 1.905 1_655 S
O161 C162 1.182 . S
C162 O160 1.166 . S
C162 O161 1.182 . S
O163 Zn148 2.080 . S
O163 C166 1.305 . S
O164 Zn147 1.920 1_455 S
O164 C166 1.234 . S
C165 O151 1.305 . S
C165 O152 1.234 . S
C166 O163 1.305 . S
C166 O164 1.234 . S
Zn167 O173 1.920 . S
Zn167 O179 1.898 . S
Zn167 O182 1.905 . S
Zn168 O176 1.905 . S
Zn168 O177 1.898 . S
Zn168 O185 1.920 . S
Zn169 O172 2.080 . S
Zn169 O175 2.114 . S
Zn169 O178 2.120 . S
Zn169 O180 2.120 . S
Zn169 O181 2.114 . S
Zn169 O184 2.080 . S
C170 O175 1.166 . S
C170 O176 1.182 . S
C171 O177 1.167 . S
C171 O178 1.299 . S
O172 Zn169 2.080 . S
O172 C186 1.305 . S
O173 Zn167 1.920 . S
O173 C186 1.234 . S
C174 O179 1.167 . S
C174 O180 1.299 . S
O175 Zn169 2.114 . S
O175 C170 1.166 . S
O176 Zn168 1.905 . S
O176 C170 1.182 . S
O177 Zn168 1.898 . S
O177 C171 1.167 . S
O178 Zn169 2.120 . S
O178 C171 1.299 . S
O179 Zn167 1.898 . S
O179 C174 1.167 . S
O180 Zn169 2.120 . S
O180 C174 1.299 . S
O181 Zn169 2.114 . S
O181 C183 1.166 . S
O182 Zn167 1.905 . S
O182 C183 1.182 . S
C183 O181 1.166 . S
C183 O182 1.182 . S
O184 Zn169 2.080 . S
O184 C187 1.305 . S
O185 Zn168 1.920 . S
O185 C187 1.234 . S
C186 O172 1.305 . S
C186 O173 1.234 . S
C187 O184 1.305 . S
C187 O185 1.234 . S
H188 C200 0.930 . S
H189 C202 0.930 . S
H190 C203 0.930 . S
H191 C207 0.959 . S
H192 C207 0.959 . S
H193 C207 0.961 . S
H194 C208 0.960 . S
H195 C208 0.961 . S
H196 C208 0.959 . S
H197 C211 0.929 . S
H198 C212 0.931 . S
H199 C214 0.930 . S
C200 H188 0.930 . S
C200 C201 1.399 . S
C200 C205 1.399 . S
C201 C200 1.399 . S
C201 C202 1.376 . S
C202 H189 0.930 . S
C202 C201 1.376 . S
C202 C203 1.388 . S
C203 H190 0.930 . S
C203 C202 1.388 . S
C203 C204 1.390 . S
C204 C203 1.390 . S
C204 C205 1.394 . S
C204 C210 1.465 . S
C205 C200 1.399 . S
C205 C204 1.394 . S
C205 C206 1.516 . S
C206 C205 1.516 . S
C206 C207 1.502 . S
C206 C208 1.561 . S
C206 C209 1.526 . S
C207 H191 0.959 . S
C207 H192 0.959 . S
C207 H193 0.961 . S
C207 C206 1.502 . S
C208 H194 0.960 . S
C208 H195 0.961 . S
C208 H196 0.959 . S
C208 C206 1.561 . S
C209 C206 1.526 . S
C209 C210 1.396 . S
C209 C214 1.390 1_565 S
C210 C204 1.465 . S
C210 C209 1.396 . S
C210 C211 1.399 . S
C211 H197 0.929 . S
C211 C210 1.399 . S
C211 C212 1.385 1_565 S
C212 H198 0.931 . S
C212 C211 1.385 1_545 S
C212 C213 1.389 . S
C213 C212 1.389 . S
C213 C214 1.387 . S
C214 H199 0.930 . S
C214 C209 1.390 1_545 S
C214 C213 1.387 . S
H215 C227 0.930 . S
H216 C229 0.930 . S
H217 C230 0.930 . S
H218 C234 0.959 . S
H219 C234 0.959 . S
H220 C234 0.961 . S
H221 C235 0.960 . S
H222 C235 0.961 . S
H223 C235 0.959 . S
H224 C238 0.929 . S
H225 C239 0.931 . S
H226 C241 0.930 . S
C227 H215 0.930 . S
C227 C228 1.399 . S
C227 C232 1.399 . S
C228 C227 1.399 . S
C228 C229 1.376 . S
C229 H216 0.930 . S
C229 C228 1.376 . S
C229 C230 1.388 . S
C230 H217 0.930 . S
C230 C229 1.388 . S
C230 C231 1.390 . S
C231 C230 1.390 . S
C231 C232 1.394 . S
C231 C237 1.465 . S
C232 C227 1.399 . S
C232 C231 1.394 . S
C232 C233 1.516 . S
C233 C232 1.516 . S
C233 C234 1.502 . S
C233 C235 1.561 . S
C233 C236 1.526 . S
C234 H218 0.959 . S
C234 H219 0.959 . S
C234 H220 0.961 . S
C234 C233 1.502 . S
C235 H221 0.960 . S
C235 H222 0.961 . S
C235 H223 0.959 . S
C235 C233 1.561 . S
C236 C233 1.526 . S
C236 C237 1.396 . S
C236 C241 1.390 . S
C237 C231 1.465 . S
C237 C236 1.396 . S
C237 C238 1.399 . S
C238 H224 0.929 . S
C238 C237 1.399 . S
C238 C239 1.385 . S
C239 H225 0.931 . S
C239 C238 1.385 . S
C239 C240 1.389 . S
C240 C239 1.389 . S
C240 C241 1.387 . S
C241 H226 0.930 . S
C241 C236 1.390 . S
C241 C240 1.387 . S
H242 C254 0.930 . S
H243 C256 0.930 . S
H244 C257 0.930 . S
H245 C261 0.959 . S
H246 C261 0.959 . S
H247 C261 0.961 . S
H248 C262 0.960 . S
H249 C262 0.961 . S
H250 C262 0.959 . S
H251 C265 0.929 . S
H252 C266 0.931 . S
H253 C268 0.930 . S
C254 H242 0.930 . S
C254 C255 1.399 . S
C254 C259 1.399 . S
C255 C254 1.399 . S
C255 C256 1.376 . S
C256 H243 0.930 . S
C256 C255 1.376 . S
C256 C257 1.388 . S
C257 H244 0.930 . S
C257 C256 1.388 . S
C257 C258 1.390 . S
C258 C257 1.390 . S
C258 C259 1.394 . S
C258 C264 1.465 . S
C259 C254 1.399 . S
C259 C258 1.394 . S
C259 C260 1.516 . S
C260 C259 1.516 . S
C260 C261 1.502 . S
C260 C262 1.561 . S
C260 C263 1.526 . S
C261 H245 0.959 . S
C261 H246 0.959 . S
C261 H247 0.961 . S
C261 C260 1.502 . S
C262 H248 0.960 . S
C262 H249 0.961 . S
C262 H250 0.959 . S
C262 C260 1.561 . S
C263 C260 1.526 . S
C263 C264 1.396 . S
C263 C268 1.390 . S
C264 C258 1.465 . S
C264 C263 1.396 . S
C264 C265 1.399 . S
C265 H251 0.929 . S
C265 C264 1.399 . S
C265 C266 1.385 . S
C266 H252 0.931 . S
C266 C265 1.385 . S
C266 C267 1.389 . S
C267 C266 1.389 . S
C267 C268 1.387 . S
C268 H253 0.930 . S
C268 C263 1.390 . S
C268 C267 1.387 . S
H269 C281 0.930 . S
H270 C283 0.930 . S
H271 C284 0.930 . S
H272 C288 0.959 . S
H273 C288 0.959 . S
H274 C288 0.961 . S
H275 C289 0.960 . S
H276 C289 0.961 1_545 S
H277 C289 0.959 . S
H278 C292 0.929 . S
H279 C293 0.931 . S
H280 C295 0.930 . S
C281 H269 0.930 . S
C281 C282 1.399 . S
C281 C286 1.399 . S
C282 C281 1.399 . S
C282 C283 1.376 . S
C283 H270 0.930 . S
C283 C282 1.376 . S
C283 C284 1.388 . S
C284 H271 0.930 . S
C284 C283 1.388 . S
C284 C285 1.390 . S
C285 C284 1.390 . S
C285 C286 1.394 . S
C285 C291 1.465 . S
C286 C281 1.399 . S
C286 C285 1.394 . S
C286 C287 1.516 . S
C287 C286 1.516 . S
C287 C288 1.502 . S
C287 C289 1.561 . S
C287 C290 1.526 . S
C288 H272 0.959 . S
C288 H273 0.959 . S
C288 H274 0.961 . S
C288 C287 1.502 . S
C289 H275 0.960 . S
C289 H276 0.961 1_565 S
C289 H277 0.959 . S
C289 C287 1.561 . S
C290 C287 1.526 . S
C290 C291 1.396 . S
C290 C295 1.390 1_565 S
C291 C285 1.465 . S
C291 C290 1.396 . S
C291 C292 1.399 . S
C292 H278 0.929 . S
C292 C291 1.399 . S
C292 C293 1.385 1_565 S
C293 H279 0.931 . S
C293 C292 1.385 1_545 S
C293 C294 1.389 . S
C294 C293 1.389 . S
C294 C295 1.387 . S
C295 H280 0.930 . S
C295 C290 1.390 1_545 S
C295 C294 1.387 . S
H296 C308 0.930 . S
H297 C310 0.930 . S
H298 C311 0.930 . S
H299 C315 0.959 . S
H300 C315 0.959 1_565 S
H301 C315 0.961 . S
H302 C316 0.960 . S
H303 C316 0.961 . S
H304 C316 0.959 . S
H305 C319 0.929 . S
H306 C320 0.931 1_565 S
H307 C322 0.930 . S
C308 H296 0.930 . S
C308 C309 1.399 . S
C308 C313 1.399 . S
C309 C308 1.399 . S
C309 C310 1.376 . S
C310 H297 0.930 . S
C310 C309 1.376 . S
C310 C311 1.388 . S
C311 H298 0.930 . S
C311 C310 1.388 . S
C311 C312 1.390 . S
C312 C311 1.390 . S
C312 C313 1.394 . S
C312 C318 1.465 . S
C313 C308 1.399 . S
C313 C312 1.394 . S
C313 C314 1.516 . S
C314 C313 1.516 . S
C314 C315 1.502 . S
C314 C316 1.561 . S
C314 C317 1.526 . S
C315 H299 0.959 . S
C315 H300 0.959 1_545 S
C315 H301 0.961 . S
C315 C314 1.502 . S
C316 H302 0.960 . S
C316 H303 0.961 . S
C316 H304 0.959 . S
C316 C314 1.561 . S
C317 C314 1.526 . S
C317 C318 1.396 . S
C317 C322 1.390 1_545 S
C318 C312 1.465 . S
C318 C317 1.396 . S
C318 C319 1.399 . S
C319 H305 0.929 . S
C319 C318 1.399 . S
C319 C320 1.385 . S
C320 H306 0.931 1_545 S
C320 C319 1.385 . S
C320 C321 1.389 1_545 S
C321 C320 1.389 1_565 S
C321 C322 1.387 . S
C322 H307 0.930 . S
C322 C317 1.390 1_565 S
C322 C321 1.387 . S
H323 C335 0.930 . S
H324 C337 0.930 . S
H325 C338 0.930 . S
H326 C342 0.959 . S
H327 C342 0.959 . S
H328 C342 0.961 . S
H329 C343 0.960 . S
H330 C343 0.961 . S
H331 C343 0.959 . S
H332 C346 0.929 . S
H333 C347 0.931 . S
H334 C349 0.930 . S
C335 H323 0.930 . S
C335 C336 1.399 . S
C335 C340 1.399 . S
C336 C335 1.399 . S
C336 C337 1.376 . S
C337 H324 0.930 . S
C337 C336 1.376 . S
C337 C338 1.388 . S
C338 H325 0.930 . S
C338 C337 1.388 . S
C338 C339 1.390 . S
C339 C338 1.390 . S
C339 C340 1.394 . S
C339 C345 1.465 . S
C340 C335 1.399 . S
C340 C339 1.394 . S
C340 C341 1.516 . S
C341 C340 1.516 . S
C341 C342 1.502 . S
C341 C343 1.561 . S
C341 C344 1.526 . S
C342 H326 0.959 . S
C342 H327 0.959 . S
C342 H328 0.961 . S
C342 C341 1.502 . S
C343 H329 0.960 . S
C343 H330 0.961 . S
C343 H331 0.959 . S
C343 C341 1.561 . S
C344 C341 1.526 . S
C344 C345 1.396 . S
C344 C349 1.390 . S
C345 C339 1.465 . S
C345 C344 1.396 . S
C345 C346 1.399 . S
C346 H332 0.929 . S
C346 C345 1.399 . S
C346 C347 1.385 . S
C347 H333 0.931 . S
C347 C346 1.385 . S
C347 C348 1.389 . S
C348 C347 1.389 . S
C348 C349 1.387 . S
C349 H334 0.930 . S
C349 C344 1.390 . S
C349 C348 1.387 . S
H350 C362 0.930 . S
H351 C364 0.930 . S
H352 C365 0.930 . S
H353 C369 0.959 . S
H354 C369 0.959 . S
H355 C369 0.961 . S
H356 C370 0.960 . S
H357 C370 0.961 . S
H358 C370 0.959 . S
H359 C373 0.929 . S
H360 C374 0.931 . S
H361 C376 0.930 . S
C362 H350 0.930 . S
C362 C363 1.399 . S
C362 C367 1.399 . S
C363 C362 1.399 . S
C363 C364 1.376 . S
C364 H351 0.930 . S
C364 C363 1.376 . S
C364 C365 1.388 . S
C365 H352 0.930 . S
C365 C364 1.388 . S
C365 C366 1.390 . S
C366 C365 1.390 . S
C366 C367 1.394 . S
C366 C372 1.465 . S
C367 C362 1.399 . S
C367 C366 1.394 . S
C367 C368 1.516 . S
C368 C367 1.516 . S
C368 C369 1.502 . S
C368 C370 1.561 . S
C368 C371 1.526 . S
C369 H353 0.959 . S
C369 H354 0.959 . S
C369 H355 0.961 . S
C369 C368 1.502 . S
C370 H356 0.960 . S
C370 H357 0.961 . S
C370 H358 0.959 . S
C370 C368 1.561 . S
C371 C368 1.526 . S
C371 C372 1.396 . S
C371 C376 1.390 . S
C372 C366 1.465 . S
C372 C371 1.396 . S
C372 C373 1.399 . S
C373 H359 0.929 . S
C373 C372 1.399 . S
C373 C374 1.385 . S
C374 H360 0.931 . S
C374 C373 1.385 . S
C374 C375 1.389 . S
C375 C374 1.389 . S
C375 C376 1.387 . S
C376 H361 0.930 . S
C376 C371 1.390 . S
C376 C375 1.387 . S
H377 C389 0.930 . S
H378 C391 0.930 . S
H379 C392 0.930 . S
H380 C396 0.959 . S
H381 C396 0.959 1_565 S
H382 C396 0.961 . S
H383 C397 0.960 . S
H384 C397 0.961 . S
H385 C397 0.959 . S
H386 C400 0.929 . S
H387 C401 0.936 . S
H388 C403 0.930 . S
C389 H377 0.930 . S
C389 C390 1.399 . S
C389 C394 1.399 . S
C390 C389 1.399 . S
C390 C391 1.376 . S
C391 H378 0.930 . S
C391 C390 1.376 . S
C391 C392 1.388 . S
C392 H379 0.930 . S
C392 C391 1.388 . S
C392 C393 1.390 . S
C393 C392 1.390 . S
C393 C394 1.394 . S
C393 C399 1.465 . S
C394 C389 1.399 . S
C394 C393 1.394 . S
C394 C395 1.516 . S
C395 C394 1.516 . S
C395 C396 1.502 . S
C395 C397 1.561 . S
C395 C398 1.526 . S
C396 H380 0.959 . S
C396 H381 0.959 1_545 S
C396 H382 0.961 . S
C396 C395 1.502 . S
C397 H383 0.960 . S
C397 H384 0.961 . S
C397 H385 0.959 . S
C397 C395 1.561 . S
C398 C395 1.526 . S
C398 C399 1.396 . S
C398 C403 1.390 1_545 S
C399 C393 1.465 . S
C399 C398 1.396 . S
C399 C400 1.399 . S
C400 H386 0.929 . S
C400 C399 1.399 . S
C400 C401 1.385 . S
C401 H387 0.936 . S
C401 C400 1.385 . S
C401 C402 1.389 1_545 S
C402 C401 1.389 1_565 S
C402 C403 1.387 . S
C403 H388 0.930 . S
C403 C398 1.390 1_565 S
C403 C402 1.387 . S
H404 C416 0.930 . S
H405 C418 0.930 . S
H406 C419 0.930 . S
H407 C423 0.959 . S
H408 C423 0.959 . S
H409 C423 0.961 . S
H410 C424 0.960 . S
H411 C424 0.961 . S
H412 C424 0.959 . S
H413 C427 0.929 . S
H414 C428 0.931 . S
H415 C430 0.930 . S
C416 H404 0.930 . S
C416 C417 1.399 . S
C416 C421 1.399 1_556 S
C417 C416 1.399 . S
C417 C418 1.376 . S
C418 H405 0.930 . S
C418 C417 1.376 . S
C418 C419 1.388 . S
C419 H406 0.930 . S
C419 C418 1.388 . S
C419 C420 1.390 1_556 S
C420 C419 1.390 1_554 S
C420 C421 1.394 . S
C420 C426 1.465 . S
C421 C416 1.399 1_554 S
C421 C420 1.394 . S
C421 C422 1.516 . S
C422 C421 1.516 . S
C422 C423 1.502 . S
C422 C424 1.561 . S
C422 C425 1.526 . S
C423 H407 0.959 . S
C423 H408 0.959 . S
C423 H409 0.961 . S
C423 C422 1.502 . S
C424 H410 0.960 . S
C424 H411 0.961 . S
C424 H412 0.959 . S
C424 C422 1.561 . S
C425 C422 1.526 . S
C425 C426 1.396 . S
C425 C430 1.390 . S
C426 C420 1.465 . S
C426 C425 1.396 . S
C426 C427 1.399 . S
C427 H413 0.929 . S
C427 C426 1.399 . S
C427 C428 1.385 . S
C428 H414 0.931 . S
C428 C427 1.385 . S
C428 C429 1.389 . S
C429 C428 1.389 . S
C429 C430 1.387 . S
C430 H415 0.930 . S
C430 C425 1.390 . S
C430 C429 1.387 . S
H431 C443 0.930 . S
H432 C445 0.930 . S
H433 C446 0.930 . S
H434 C450 0.959 . S
H435 C450 0.959 . S
H436 C450 0.961 . S
H437 C451 0.960 . S
H438 C451 0.961 . S
H439 C451 0.959 . S
H440 C454 0.929 . S
H441 C455 0.931 . S
H442 C457 0.930 . S
C443 H431 0.930 . S
C443 C444 1.399 . S
C443 C448 1.399 . S
C444 C443 1.399 . S
C444 C445 1.376 . S
C445 H432 0.930 . S
C445 C444 1.376 . S
C445 C446 1.388 . S
C446 H433 0.930 . S
C446 C445 1.388 . S
C446 C447 1.390 . S
C447 C446 1.390 . S
C447 C448 1.394 . S
C447 C453 1.465 . S
C448 C443 1.399 . S
C448 C447 1.394 . S
C448 C449 1.516 . S
C449 C448 1.516 . S
C449 C450 1.502 . S
C449 C451 1.561 . S
C449 C452 1.526 . S
C450 H434 0.959 . S
C450 H435 0.959 . S
C450 H436 0.961 . S
C450 C449 1.502 . S
C451 H437 0.960 . S
C451 H438 0.961 . S
C451 H439 0.959 . S
C451 C449 1.561 . S
C452 C449 1.526 . S
C452 C453 1.396 . S
C452 C457 1.390 . S
C453 C447 1.465 . S
C453 C452 1.396 . S
C453 C454 1.399 . S
C454 H440 0.929 . S
C454 C453 1.399 . S
C454 C455 1.385 . S
C455 H441 0.931 . S
C455 C454 1.385 . S
C455 C456 1.389 . S
C456 C455 1.389 . S
C456 C457 1.387 . S
C457 H442 0.930 . S
C457 C452 1.390 . S
C457 C456 1.387 . S
H458 C470 0.930 . S
H459 C472 0.930 . S
H460 C473 0.930 . S
H461 C477 0.959 . S
H462 C477 0.959 . S
H463 C477 0.961 . S
H464 C478 0.960 . S
H465 C478 0.961 . S
H466 C478 0.959 . S
H467 C481 0.929 . S
H468 C482 0.931 . S
H469 C484 0.930 . S
C470 H458 0.930 . S
C470 C471 1.399 . S
C470 C475 1.399 1_554 S
C471 C470 1.399 . S
C471 C472 1.376 . S
C472 H459 0.930 . S
C472 C471 1.376 . S
C472 C473 1.388 . S
C473 H460 0.930 . S
C473 C472 1.388 . S
C473 C474 1.390 1_554 S
C474 C473 1.390 1_556 S
C474 C475 1.394 . S
C474 C480 1.465 . S
C475 C470 1.399 1_556 S
C475 C474 1.394 . S
C475 C476 1.516 . S
C476 C475 1.516 . S
C476 C477 1.502 . S
C476 C478 1.561 . S
C476 C479 1.526 . S
C477 H461 0.959 . S
C477 H462 0.959 . S
C477 H463 0.961 . S
C477 C476 1.502 . S
C478 H464 0.960 . S
C478 H465 0.961 . S
C478 H466 0.959 . S
C478 C476 1.561 . S
C479 C476 1.526 . S
C479 C480 1.396 . S
C479 C484 1.390 . S
C480 C474 1.465 . S
C480 C479 1.396 . S
C480 C481 1.399 . S
C481 H467 0.929 . S
C481 C480 1.399 . S
C481 C482 1.385 . S
C482 H468 0.931 . S
C482 C481 1.385 . S
C482 C483 1.389 . S
C483 C482 1.389 . S
C483 C484 1.387 . S
C484 H469 0.930 . S
C484 C479 1.390 . S
C484 C483 1.387 . S
H485 C497 0.930 . S
H486 C499 0.930 . S
H487 C500 0.930 . S
H488 C504 0.959 . S
H489 C504 0.959 . S
H490 C504 0.961 . S
H491 C505 0.960 . S
H492 C505 0.961 . S
H493 C505 0.959 . S
H494 C508 0.929 . S
H495 C509 0.931 . S
H496 C511 0.930 . S
C497 H485 0.930 . S
C497 C498 1.399 . S
C497 C502 1.399 . S
C498 C497 1.399 . S
C498 C499 1.376 . S
C499 H486 0.930 . S
C499 C498 1.376 . S
C499 C500 1.388 . S
C500 H487 0.930 . S
C500 C499 1.388 . S
C500 C501 1.390 . S
C501 C500 1.390 . S
C501 C502 1.394 . S
C501 C507 1.465 . S
C502 C497 1.399 . S
C502 C501 1.394 . S
C502 C503 1.516 . S
C503 C502 1.516 . S
C503 C504 1.502 . S
C503 C505 1.561 . S
C503 C506 1.526 . S
C504 H488 0.959 . S
C504 H489 0.959 . S
C504 H490 0.961 . S
C504 C503 1.502 . S
C505 H491 0.960 . S
C505 H492 0.961 . S
C505 H493 0.959 . S
C505 C503 1.561 . S
C506 C503 1.526 . S
C506 C507 1.396 . S
C506 C511 1.390 . S
C507 C501 1.465 . S
C507 C506 1.396 . S
C507 C508 1.399 . S
C508 H494 0.929 . S
C508 C507 1.399 . S
C508 C509 1.385 . S
C509 H495 0.931 . S
C509 C508 1.385 . S
C509 C510 1.389 . S
C510 C509 1.389 . S
C510 C511 1.387 . S
C511 H496 0.930 . S
C511 C506 1.390 . S
C511 C510 1.387 . S
H512 C524 0.930 . S
H513 C526 0.930 . S
H514 C527 0.930 1_556 S
H515 C531 0.959 . S
H516 C531 0.959 . S
H517 C531 0.961 . S
H518 C532 0.960 1_554 S
H519 C532 0.961 . S
H520 C532 0.959 . S
H521 C535 0.929 . S
H522 C536 0.931 . S
H523 C538 0.930 . S
C524 H512 0.930 . S
C524 C525 1.399 . S
C524 C529 1.399 1_554 S
C525 C524 1.399 . S
C525 C526 1.376 . S
C526 H513 0.930 . S
C526 C525 1.376 . S
C526 C527 1.388 . S
C527 H514 0.930 1_554 S
C527 C526 1.388 . S
C527 C528 1.390 1_554 S
C528 C527 1.390 1_556 S
C528 C529 1.394 . S
C528 C534 1.465 . S
C529 C524 1.399 1_556 S
C529 C528 1.394 . S
C529 C530 1.516 . S
C530 C529 1.516 . S
C530 C531 1.502 . S
C530 C532 1.561 . S
C530 C533 1.526 . S
C531 H515 0.959 . S
C531 H516 0.959 . S
C531 H517 0.961 . S
C531 C530 1.502 . S
C532 H518 0.960 1_556 S
C532 H519 0.961 . S
C532 H520 0.959 . S
C532 C530 1.561 . S
C533 C530 1.526 . S
C533 C534 1.396 . S
C533 C538 1.390 . S
C534 C528 1.465 . S
C534 C533 1.396 . S
C534 C535 1.399 . S
C535 H521 0.929 . S
C535 C534 1.399 . S
C535 C536 1.385 . S
C536 H522 0.931 . S
C536 C535 1.385 . S
C536 C537 1.389 . S
C537 C536 1.389 . S
C537 C538 1.387 . S
C538 H523 0.930 . S
C538 C533 1.390 . S
C538 C537 1.387 . S
H539 C551 0.930 . S
H540 C553 0.930 . S
H541 C554 0.930 . S
H542 C558 0.959 . S
H543 C558 0.959 . S
H544 C558 0.961 . S
H545 C559 0.960 . S
H546 C559 0.961 . S
H547 C559 0.959 . S
H548 C562 0.929 . S
H549 C563 0.931 . S
H550 C565 0.930 . S
C551 H539 0.930 . S
C551 C552 1.399 . S
C551 C556 1.399 . S
C552 C551 1.399 . S
C552 C553 1.376 . S
C553 H540 0.930 . S
C553 C552 1.376 . S
C553 C554 1.388 . S
C554 H541 0.930 . S
C554 C553 1.388 . S
C554 C555 1.390 . S
C555 C554 1.390 . S
C555 C556 1.394 . S
C555 C561 1.465 . S
C556 C551 1.399 . S
C556 C555 1.394 . S
C556 C557 1.516 . S
C557 C556 1.516 . S
C557 C558 1.502 . S
C557 C559 1.561 . S
C557 C560 1.526 . S
C558 H542 0.959 . S
C558 H543 0.959 . S
C558 H544 0.961 . S
C558 C557 1.502 . S
C559 H545 0.960 . S
C559 H546 0.961 . S
C559 H547 0.959 . S
C559 C557 1.561 . S
C560 C557 1.526 . S
C560 C561 1.396 . S
C560 C565 1.390 . S
C561 C555 1.465 . S
C561 C560 1.396 . S
C561 C562 1.399 . S
C562 H548 0.929 . S
C562 C561 1.399 . S
C562 C563 1.385 . S
C563 H549 0.931 . S
C563 C562 1.385 . S
C563 C564 1.389 . S
C564 C563 1.389 . S
C564 C565 1.387 . S
C565 H550 0.930 . S
C565 C560 1.390 . S
C565 C564 1.387 . S
H566 C578 0.930 . S
H567 C580 0.930 . S
H568 C581 0.930 1_554 S
H569 C585 0.959 . S
H570 C585 0.959 . S
H571 C585 0.961 . S
H572 C586 0.960 1_556 S
H573 C586 0.961 . S
H574 C586 0.959 . S
H575 C589 0.929 . S
H576 C590 0.931 . S
H577 C592 0.930 . S
C578 H566 0.930 . S
C578 C579 1.399 . S
C578 C583 1.399 1_556 S
C579 C578 1.399 . S
C579 C580 1.376 . S
C580 H567 0.930 . S
C580 C579 1.376 . S
C580 C581 1.388 . S
C581 H568 0.930 1_556 S
C581 C580 1.388 . S
C581 C582 1.390 1_556 S
C582 C581 1.390 1_554 S
C582 C583 1.394 . S
C582 C588 1.465 . S
C583 C578 1.399 1_554 S
C583 C582 1.394 . S
C583 C584 1.516 . S
C584 C583 1.516 . S
C584 C585 1.502 . S
C584 C586 1.561 . S
C584 C587 1.526 . S
C585 H569 0.959 . S
C585 H570 0.959 . S
C585 H571 0.961 . S
C585 C584 1.502 . S
C586 H572 0.960 1_554 S
C586 H573 0.961 . S
C586 H574 0.959 . S
C586 C584 1.561 . S
C587 C584 1.526 . S
C587 C588 1.396 . S
C587 C592 1.390 . S
C588 C582 1.465 . S
C588 C587 1.396 . S
C588 C589 1.399 . S
C589 H575 0.929 . S
C589 C588 1.399 . S
C589 C590 1.385 . S
C590 H576 0.931 . S
C590 C589 1.385 . S
C590 C591 1.389 . S
C591 C590 1.389 . S
C591 C592 1.387 . S
C592 H577 0.930 . S
C592 C587 1.390 . S
C592 C591 1.387 . S
H593 C605 0.930 . S
H594 C607 0.930 . S
H595 C608 0.930 . S
H596 C612 0.959 . S
H597 C612 0.959 . S
H598 C612 0.961 . S
H599 C613 0.960 . S
H600 C613 0.961 . S
H601 C613 0.959 . S
H602 C616 0.929 . S
H603 C617 0.931 . S
H604 C619 0.930 . S
C605 H593 0.930 . S
C605 C606 1.399 . S
C605 C610 1.399 . S
C606 C605 1.399 . S
C606 C607 1.376 . S
C607 H594 0.930 . S
C607 C606 1.376 . S
C607 C608 1.388 . S
C608 H595 0.930 . S
C608 C607 1.388 . S
C608 C609 1.390 . S
C609 C608 1.390 . S
C609 C610 1.394 . S
C609 C615 1.465 . S
C610 C605 1.399 . S
C610 C609 1.394 . S
C610 C611 1.516 . S
C611 C610 1.516 . S
C611 C612 1.502 . S
C611 C613 1.561 . S
C611 C614 1.526 . S
C612 H596 0.959 . S
C612 H597 0.959 . S
C612 H598 0.961 . S
C612 C611 1.502 . S
C613 H599 0.960 . S
C613 H600 0.961 . S
C613 H601 0.959 . S
C613 C611 1.561 . S
C614 C611 1.526 . S
C614 C615 1.396 . S
C614 C619 1.390 . S
C615 C609 1.465 . S
C615 C614 1.396 . S
C615 C616 1.399 . S
C616 H602 0.929 . S
C616 C615 1.399 . S
C616 C617 1.385 . S
C617 H603 0.931 . S
C617 C616 1.385 . S
C617 C618 1.389 . S
C618 C617 1.389 . S
C618 C619 1.387 . S
C619 H604 0.930 . S
C619 C614 1.390 . S
C619 C618 1.387 . S
H620 C632 0.930 . S
H621 C634 0.930 . S
H622 C635 0.930 . S
H623 C639 0.959 . S
H624 C639 0.959 . S
H625 C639 0.961 . S
H626 C640 0.960 . S
H627 C640 0.961 . S
H628 C640 0.959 . S
H629 C643 0.929 . S
H630 C644 0.931 . S
H631 C646 0.930 . S
C632 H620 0.930 . S
C632 C633 1.399 . S
C632 C637 1.399 . S
C633 C632 1.399 . S
C633 C634 1.376 . S
C634 H621 0.930 . S
C634 C633 1.376 . S
C634 C635 1.388 . S
C635 H622 0.930 . S
C635 C634 1.388 . S
C635 C636 1.390 . S
C636 C635 1.390 . S
C636 C637 1.394 . S
C636 C642 1.465 . S
C637 C632 1.399 . S
C637 C636 1.394 . S
C637 C638 1.516 . S
C638 C637 1.516 . S
C638 C639 1.502 . S
C638 C640 1.561 . S
C638 C641 1.526 . S
C639 H623 0.959 . S
C639 H624 0.959 . S
C639 H625 0.961 . S
C639 C638 1.502 . S
C640 H626 0.960 . S
C640 H627 0.961 . S
C640 H628 0.959 . S
C640 C638 1.561 . S
C641 C638 1.526 . S
C641 C642 1.396 . S
C641 C646 1.390 . S
C642 C636 1.465 . S
C642 C641 1.396 . S
C642 C643 1.399 . S
C643 H629 0.929 . S
C643 C642 1.399 . S
C643 C644 1.385 . S
C644 H630 0.931 . S
C644 C643 1.385 . S
C644 C645 1.389 . S
C645 C644 1.389 . S
C645 C646 1.387 . S
C646 H631 0.930 . S
C646 C641 1.390 . S
C646 C645 1.387 . S
H647 C659 0.930 . S
H648 C661 0.930 . S
H649 C662 0.930 . S
H650 C666 0.959 . S
H651 C666 0.959 . S
H652 C666 0.961 . S
H653 C667 0.960 . S
H654 C667 0.961 . S
H655 C667 0.959 . S
H656 C670 0.929 . S
H657 C671 0.931 . S
H658 C673 0.930 . S
C659 H647 0.930 . S
C659 C660 1.399 . S
C659 C664 1.399 . S
C660 C659 1.399 . S
C660 C661 1.376 . S
C661 H648 0.930 . S
C661 C660 1.376 . S
C661 C662 1.388 . S
C662 H649 0.930 . S
C662 C661 1.388 . S
C662 C663 1.390 . S
C663 C662 1.390 . S
C663 C664 1.394 . S
C663 C669 1.465 . S
C664 C659 1.399 . S
C664 C663 1.394 . S
C664 C665 1.516 . S
C665 C664 1.516 . S
C665 C666 1.502 . S
C665 C667 1.561 . S
C665 C668 1.526 . S
C666 H650 0.959 . S
C666 H651 0.959 . S
C666 H652 0.961 . S
C666 C665 1.502 . S
C667 H653 0.960 . S
C667 H654 0.961 . S
C667 H655 0.959 . S
C667 C665 1.561 . S
C668 C665 1.526 . S
C668 C669 1.396 . S
C668 C673 1.390 . S
C669 C663 1.465 . S
C669 C668 1.396 . S
C669 C670 1.399 . S
C670 H656 0.929 . S
C670 C669 1.399 . S
C670 C671 1.385 . S
C671 H657 0.931 . S
C671 C670 1.385 . S
C671 C672 1.389 . S
C672 C671 1.389 . S
C672 C673 1.387 . S
C673 H658 0.930 . S
C673 C668 1.390 . S
C673 C672 1.387 . S
H674 C686 0.930 . S
H675 C688 0.930 . S
H676 C689 0.930 . S
H677 C693 0.959 . S
H678 C693 0.959 . S
H679 C693 0.961 . S
H680 C694 0.960 . S
H681 C694 0.961 . S
H682 C694 0.959 . S
H683 C697 0.929 . S
H684 C698 0.931 . S
H685 C700 0.930 . S
C686 H674 0.930 . S
C686 C687 1.399 . S
C686 C691 1.399 . S
C687 C686 1.399 . S
C687 C688 1.376 . S
C688 H675 0.930 . S
C688 C687 1.376 . S
C688 C689 1.388 . S
C689 H676 0.930 . S
C689 C688 1.388 . S
C689 C690 1.390 . S
C690 C689 1.390 . S
C690 C691 1.394 . S
C690 C696 1.465 . S
C691 C686 1.399 . S
C691 C690 1.394 . S
C691 C692 1.516 . S
C692 C691 1.516 . S
C692 C693 1.502 . S
C692 C694 1.561 . S
C692 C695 1.526 . S
C693 H677 0.959 . S
C693 H678 0.959 . S
C693 H679 0.961 . S
C693 C692 1.502 . S
C694 H680 0.960 . S
C694 H681 0.961 . S
C694 H682 0.959 . S
C694 C692 1.561 . S
C695 C692 1.526 . S
C695 C696 1.396 . S
C695 C700 1.390 . S
C696 C690 1.465 . S
C696 C695 1.396 . S
C696 C697 1.399 . S
C697 H683 0.929 . S
C697 C696 1.399 . S
C697 C698 1.385 . S
C698 H684 0.931 . S
C698 C697 1.385 . S
C698 C699 1.389 . S
C699 C698 1.389 . S
C699 C700 1.387 . S
C700 H685 0.930 . S
C700 C695 1.390 . S
C700 C699 1.387 . S
H701 C713 0.930 . S
H702 C715 0.930 . S
H703 C716 0.930 . S
H704 C720 0.959 . S
H705 C720 0.959 . S
H706 C720 0.961 . S
H707 C721 0.960 . S
H708 C721 0.961 . S
H709 C721 0.959 . S
H710 C724 0.929 . S
H711 C725 0.931 . S
H712 C727 0.930 . S
C713 H701 0.930 . S
C713 C714 1.399 . S
C713 C718 1.399 . S
C714 C713 1.399 . S
C714 C715 1.376 . S
C715 H702 0.930 . S
C715 C714 1.376 . S
C715 C716 1.388 . S
C716 H703 0.930 . S
C716 C715 1.388 . S
C716 C717 1.390 . S
C717 C716 1.390 . S
C717 C718 1.394 . S
C717 C723 1.465 . S
C718 C713 1.399 . S
C718 C717 1.394 . S
C718 C719 1.516 . S
C719 C718 1.516 . S
C719 C720 1.502 . S
C719 C721 1.561 . S
C719 C722 1.526 . S
C720 H704 0.959 . S
C720 H705 0.959 . S
C720 H706 0.961 . S
C720 C719 1.502 . S
C721 H707 0.960 . S
C721 H708 0.961 . S
C721 H709 0.959 . S
C721 C719 1.561 . S
C722 C719 1.526 . S
C722 C723 1.396 . S
C722 C727 1.390 . S
C723 C717 1.465 . S
C723 C722 1.396 . S
C723 C724 1.399 . S
C724 H710 0.929 . S
C724 C723 1.399 . S
C724 C725 1.385 . S
C725 H711 0.931 . S
C725 C724 1.385 . S
C725 C726 1.389 . S
C726 C725 1.389 . S
C726 C727 1.387 . S
C727 H712 0.930 . S
C727 C722 1.390 . S
C727 C726 1.387 . S
H728 C740 0.930 . S
H729 C742 0.930 . S
H730 C743 0.930 . S
H731 C747 0.959 . S
H732 C747 0.959 . S
H733 C747 0.961 . S
H734 C748 0.960 . S
H735 C748 0.961 . S
H736 C748 0.959 . S
H737 C751 0.929 . S
H738 C752 0.931 . S
H739 C754 0.930 . S
C740 H728 0.930 . S
C740 C741 1.399 . S
C740 C745 1.399 . S
C741 C740 1.399 . S
C741 C742 1.376 . S
C742 H729 0.930 . S
C742 C741 1.376 . S
C742 C743 1.388 . S
C743 H730 0.930 . S
C743 C742 1.388 . S
C743 C744 1.390 . S
C744 C743 1.390 . S
C744 C745 1.394 . S
C744 C750 1.465 . S
C745 C740 1.399 . S
C745 C744 1.394 . S
C745 C746 1.516 . S
C746 C745 1.516 . S
C746 C747 1.502 . S
C746 C748 1.561 . S
C746 C749 1.526 . S
C747 H731 0.959 . S
C747 H732 0.959 . S
C747 H733 0.961 . S
C747 C746 1.502 . S
C748 H734 0.960 . S
C748 H735 0.961 . S
C748 H736 0.959 . S
C748 C746 1.561 . S
C749 C746 1.526 . S
C749 C750 1.396 . S
C749 C754 1.390 . S
C750 C744 1.465 . S
C750 C749 1.396 . S
C750 C751 1.399 . S
C751 H737 0.929 . S
C751 C750 1.399 . S
C751 C752 1.385 . S
C752 H738 0.931 . S
C752 C751 1.385 . S
C752 C753 1.389 . S
C753 C752 1.389 . S
C753 C754 1.387 . S
C754 H739 0.930 . S
C754 C749 1.390 . S
C754 C753 1.387 . S
H755 C767 0.930 . S
H756 C769 0.930 . S
H757 C770 0.930 . S
H758 C774 0.959 . S
H759 C774 0.959 . S
H760 C774 0.961 . S
H761 C775 0.960 . S
H762 C775 0.961 . S
H763 C775 0.959 . S
H764 C778 0.929 . S
H765 C779 0.931 . S
H766 C781 0.930 . S
C767 H755 0.930 . S
C767 C768 1.399 . S
C767 C772 1.399 . S
C768 C767 1.399 . S
C768 C769 1.376 . S
C769 H756 0.930 . S
C769 C768 1.376 . S
C769 C770 1.388 . S
C770 H757 0.930 . S
C770 C769 1.388 . S
C770 C771 1.390 . S
C771 C770 1.390 . S
C771 C772 1.394 . S
C771 C777 1.465 . S
C772 C767 1.399 . S
C772 C771 1.394 . S
C772 C773 1.516 . S
C773 C772 1.516 . S
C773 C774 1.502 . S
C773 C775 1.561 . S
C773 C776 1.526 . S
C774 H758 0.959 . S
C774 H759 0.959 . S
C774 H760 0.961 . S
C774 C773 1.502 . S
C775 H761 0.960 . S
C775 H762 0.961 . S
C775 H763 0.959 . S
C775 C773 1.561 . S
C776 C773 1.526 . S
C776 C777 1.396 . S
C776 C781 1.390 . S
C777 C771 1.465 . S
C777 C776 1.396 . S
C777 C778 1.399 . S
C778 H764 0.929 . S
C778 C777 1.399 . S
C778 C779 1.385 . S
C779 H765 0.931 . S
C779 C778 1.385 . S
C779 C780 1.389 . S
C780 C779 1.389 . S
C780 C781 1.387 . S
C781 H766 0.930 . S
C781 C776 1.390 . S
C781 C780 1.387 . S
H782 C794 0.930 . S
H783 C796 0.930 . S
H784 C797 0.930 . S
H785 C801 0.959 . S
H786 C801 0.959 . S
H787 C801 0.961 . S
H788 C802 0.960 . S
H789 C802 0.961 . S
H790 C802 0.959 . S
H791 C805 0.929 . S
H792 C806 0.931 . S
H793 C808 0.930 . S
C794 H782 0.930 . S
C794 C795 1.399 . S
C794 C799 1.399 . S
C795 C794 1.399 . S
C795 C796 1.376 . S
C796 H783 0.930 . S
C796 C795 1.376 . S
C796 C797 1.388 . S
C797 H784 0.930 . S
C797 C796 1.388 . S
C797 C798 1.390 . S
C798 C797 1.390 . S
C798 C799 1.394 . S
C798 C804 1.465 . S
C799 C794 1.399 . S
C799 C798 1.394 . S
C799 C800 1.516 . S
C800 C799 1.516 . S
C800 C801 1.502 . S
C800 C802 1.561 . S
C800 C803 1.526 . S
C801 H785 0.959 . S
C801 H786 0.959 . S
C801 H787 0.961 . S
C801 C800 1.502 . S
C802 H788 0.960 . S
C802 H789 0.961 . S
C802 H790 0.959 . S
C802 C800 1.561 . S
C803 C800 1.526 . S
C803 C804 1.396 . S
C803 C808 1.390 . S
C804 C798 1.465 . S
C804 C803 1.396 . S
C804 C805 1.399 . S
C805 H791 0.929 . S
C805 C804 1.399 . S
C805 C806 1.385 . S
C806 H792 0.931 . S
C806 C805 1.385 . S
C806 C807 1.389 . S
C807 C806 1.389 . S
C807 C808 1.387 . S
C808 H793 0.930 . S
C808 C803 1.390 . S
C808 C807 1.387 . S
H809 C821 0.930 . S
H810 C823 0.930 . S
H811 C824 0.930 . S
H812 C828 0.959 . S
H813 C828 0.959 . S
H814 C828 0.961 . S
H815 C829 0.960 . S
H816 C829 0.961 . S
H817 C829 0.959 . S
H818 C832 0.929 . S
H819 C833 0.931 . S
H820 C835 0.930 . S
C821 H809 0.930 . S
C821 C822 1.399 . S
C821 C826 1.399 . S
C822 C821 1.399 . S
C822 C823 1.376 . S
C823 H810 0.930 . S
C823 C822 1.376 . S
C823 C824 1.388 . S
C824 H811 0.930 . S
C824 C823 1.388 . S
C824 C825 1.390 . S
C825 C824 1.390 . S
C825 C826 1.394 . S
C825 C831 1.465 . S
C826 C821 1.399 . S
C826 C825 1.394 . S
C826 C827 1.516 . S
C827 C826 1.516 . S
C827 C828 1.502 . S
C827 C829 1.561 . S
C827 C830 1.526 . S
C828 H812 0.959 . S
C828 H813 0.959 . S
C828 H814 0.961 . S
C828 C827 1.502 . S
C829 H815 0.960 . S
C829 H816 0.961 . S
C829 H817 0.959 . S
C829 C827 1.561 . S
C830 C827 1.526 . S
C830 C831 1.396 . S
C830 C835 1.390 . S
C831 C825 1.465 . S
C831 C830 1.396 . S
C831 C832 1.399 . S
C832 H818 0.929 . S
C832 C831 1.399 . S
C832 C833 1.385 . S
C833 H819 0.931 . S
C833 C832 1.385 . S
C833 C834 1.389 . S
C834 C833 1.389 . S
C834 C835 1.387 . S
C835 H820 0.930 . S
C835 C830 1.390 . S
C835 C834 1.387 . S
C201 N83 1.438 . S
C213 C120 1.380 . S
C240 C128 1.350 . S
C228 N96 1.452 . S
C267 C132 1.385 . S
C255 N57 1.446 . S
C282 N70 1.435 . S
C294 C108 1.380 . S
C321 C149 1.404 . S
C309 N31 1.449 . S
C348 C183 1.364 . S
C336 N44 1.438 . S
C363 N5 1.430 . S
C375 C171 1.295 . S
C390 N18 1.447 . S
C402 C153 1.397 . S
C429 C107 1.306 . S
C417 N14 1.485 . S
C456 C141 1.309 . S
C444 N1 1.484 . S
C483 C145 1.300 . S
C471 N40 1.486 . S
C510 C123 1.284 . S
C498 N27 1.489 . S
C537 C162 1.331 . S
C525 N66 1.479 . S
C552 N53 1.487 . S
C564 C170 1.288 . S
C591 C186 1.344 . S
C579 N92 1.474 . S
C606 N79 1.483 . S
C618 C166 1.354 . S
C645 C111 1.311 . S
C633 N2 1.524 . S
C672 C129 1.301 . S
C660 N15 1.532 . S
C687 N28 1.527 . S
C699 C144 1.308 . S
C726 C124 1.388 . S
C714 N41 1.514 . S
C753 C150 1.318 . S
C741 N54 1.529 . S
C768 N67 1.529 . S
C780 C174 1.310 . S
C795 N80 1.526 . S
C807 C187 1.397 . S
C822 N93 1.524 . S
C834 C165 1.306 . S
