# Generated by pormake.
# Topology ctn, (3,4)-cn, num edge types: 1
# Building blocks:
#     Node 0, Type 0, BuildingBlock: MIDCAF_clean_linker_0, # of connection points: 3
#     Node 1, Type 0, BuildingBlock: MIDCAF_clean_linker_0, # of connection points: 3
#     Node 2, Type 0, BuildingBlock: MIDCAF_clean_linker_0, # of connection points: 3
#     Node 3, Type 0, BuildingBlock: MIDCAF_clean_linker_0, # of connection points: 3
#     Node 4, Type 0, BuildingBlock: MIDCAF_clean_linker_0, # of connection points: 3
#     Node 5, Type 0, BuildingBlock: MIDCAF_clean_linker_0, # of connection points: 3
#     Node 6, Type 0, BuildingBlock: MIDCAF_clean_linker_0, # of connection points: 3
#     Node 7, Type 0, BuildingBlock: MIDCAF_clean_linker_0, # of connection points: 3
#     Node 8, Type 0, BuildingBlock: MIDCAF_clean_linker_0, # of connection points: 3
#     Node 9, Type 0, BuildingBlock: MIDCAF_clean_linker_0, # of connection points: 3
#     Node 10, Type 0, BuildingBlock: MIDCAF_clean_linker_0, # of connection points: 3
#     Node 11, Type 0, BuildingBlock: MIDCAF_clean_linker_0, # of connection points: 3
#     Node 12, Type 0, BuildingBlock: MIDCAF_clean_linker_0, # of connection points: 3
#     Node 13, Type 0, BuildingBlock: MIDCAF_clean_linker_0, # of connection points: 3
#     Node 14, Type 0, BuildingBlock: MIDCAF_clean_linker_0, # of connection points: 3
#     Node 15, Type 0, BuildingBlock: MIDCAF_clean_linker_0, # of connection points: 3
#     Node 16, Type 1, BuildingBlock: AZAVOO_clean_sbu_0, # of connection points: 4
#     Node 17, Type 1, BuildingBlock: AZAVOO_clean_sbu_0, # of connection points: 4
#     Node 18, Type 1, BuildingBlock: AZAVOO_clean_sbu_0, # of connection points: 4
#     Node 19, Type 1, BuildingBlock: AZAVOO_clean_sbu_0, # of connection points: 4
#     Node 20, Type 1, BuildingBlock: AZAVOO_clean_sbu_0, # of connection points: 4
#     Node 21, Type 1, BuildingBlock: AZAVOO_clean_sbu_0, # of connection points: 4
#     Node 22, Type 1, BuildingBlock: AZAVOO_clean_sbu_0, # of connection points: 4
#     Node 23, Type 1, BuildingBlock: AZAVOO_clean_sbu_0, # of connection points: 4
#     Node 24, Type 1, BuildingBlock: AZAVOO_clean_sbu_0, # of connection points: 4
#     Node 25, Type 1, BuildingBlock: AZAVOO_clean_sbu_0, # of connection points: 4
#     Node 26, Type 1, BuildingBlock: AZAVOO_clean_sbu_0, # of connection points: 4
#     Node 27, Type 1, BuildingBlock: AZAVOO_clean_sbu_0, # of connection points: 4
#     Edge 28, Type (0, 1), BuildingBlock: AJUNOK_clean_linker_0, # of connection points: 2
#     Edge 29, Type (0, 1), BuildingBlock: AJUNOK_clean_linker_0, # of connection points: 2
#     Edge 30, Type (0, 1), BuildingBlock: AJUNOK_clean_linker_0, # of connection points: 2
#     Edge 31, Type (0, 1), BuildingBlock: AJUNOK_clean_linker_0, # of connection points: 2
#     Edge 32, Type (0, 1), BuildingBlock: AJUNOK_clean_linker_0, # of connection points: 2
#     Edge 33, Type (0, 1), BuildingBlock: AJUNOK_clean_linker_0, # of connection points: 2
#     Edge 34, Type (0, 1), BuildingBlock: AJUNOK_clean_linker_0, # of connection points: 2
#     Edge 35, Type (0, 1), BuildingBlock: AJUNOK_clean_linker_0, # of connection points: 2
#     Edge 36, Type (0, 1), BuildingBlock: AJUNOK_clean_linker_0, # of connection points: 2
#     Edge 37, Type (0, 1), BuildingBlock: AJUNOK_clean_linker_0, # of connection points: 2
#     Edge 38, Type (0, 1), BuildingBlock: AJUNOK_clean_linker_0, # of connection points: 2
#     Edge 39, Type (0, 1), BuildingBlock: AJUNOK_clean_linker_0, # of connection points: 2
#     Edge 40, Type (0, 1), BuildingBlock: AJUNOK_clean_linker_0, # of connection points: 2
#     Edge 41, Type (0, 1), BuildingBlock: AJUNOK_clean_linker_0, # of connection points: 2
#     Edge 42, Type (0, 1), BuildingBlock: AJUNOK_clean_linker_0, # of connection points: 2
#     Edge 43, Type (0, 1), BuildingBlock: AJUNOK_clean_linker_0, # of connection points: 2
#     Edge 44, Type (0, 1), BuildingBlock: AJUNOK_clean_linker_0, # of connection points: 2
#     Edge 45, Type (0, 1), BuildingBlock: AJUNOK_clean_linker_0, # of connection points: 2
#     Edge 46, Type (0, 1), BuildingBlock: AJUNOK_clean_linker_0, # of connection points: 2
#     Edge 47, Type (0, 1), BuildingBlock: AJUNOK_clean_linker_0, # of connection points: 2
#     Edge 48, Type (0, 1), BuildingBlock: AJUNOK_clean_linker_0, # of connection points: 2
#     Edge 49, Type (0, 1), BuildingBlock: AJUNOK_clean_linker_0, # of connection points: 2
#     Edge 50, Type (0, 1), BuildingBlock: AJUNOK_clean_linker_0, # of connection points: 2
#     Edge 51, Type (0, 1), BuildingBlock: AJUNOK_clean_linker_0, # of connection points: 2
#     Edge 52, Type (0, 1), BuildingBlock: AJUNOK_clean_linker_0, # of connection points: 2
#     Edge 53, Type (0, 1), BuildingBlock: AJUNOK_clean_linker_0, # of connection points: 2
#     Edge 54, Type (0, 1), BuildingBlock: AJUNOK_clean_linker_0, # of connection points: 2
#     Edge 55, Type (0, 1), BuildingBlock: AJUNOK_clean_linker_0, # of connection points: 2
#     Edge 56, Type (0, 1), BuildingBlock: AJUNOK_clean_linker_0, # of connection points: 2
#     Edge 57, Type (0, 1), BuildingBlock: AJUNOK_clean_linker_0, # of connection points: 2
#     Edge 58, Type (0, 1), BuildingBlock: AJUNOK_clean_linker_0, # of connection points: 2
#     Edge 59, Type (0, 1), BuildingBlock: AJUNOK_clean_linker_0, # of connection points: 2
#     Edge 60, Type (0, 1), BuildingBlock: AJUNOK_clean_linker_0, # of connection points: 2
#     Edge 61, Type (0, 1), BuildingBlock: AJUNOK_clean_linker_0, # of connection points: 2
#     Edge 62, Type (0, 1), BuildingBlock: AJUNOK_clean_linker_0, # of connection points: 2
#     Edge 63, Type (0, 1), BuildingBlock: AJUNOK_clean_linker_0, # of connection points: 2
#     Edge 64, Type (0, 1), BuildingBlock: AJUNOK_clean_linker_0, # of connection points: 2
#     Edge 65, Type (0, 1), BuildingBlock: AJUNOK_clean_linker_0, # of connection points: 2
#     Edge 66, Type (0, 1), BuildingBlock: AJUNOK_clean_linker_0, # of connection points: 2
#     Edge 67, Type (0, 1), BuildingBlock: AJUNOK_clean_linker_0, # of connection points: 2
#     Edge 68, Type (0, 1), BuildingBlock: AJUNOK_clean_linker_0, # of connection points: 2
#     Edge 69, Type (0, 1), BuildingBlock: AJUNOK_clean_linker_0, # of connection points: 2
#     Edge 70, Type (0, 1), BuildingBlock: AJUNOK_clean_linker_0, # of connection points: 2
#     Edge 71, Type (0, 1), BuildingBlock: AJUNOK_clean_linker_0, # of connection points: 2
#     Edge 72, Type (0, 1), BuildingBlock: AJUNOK_clean_linker_0, # of connection points: 2
#     Edge 73, Type (0, 1), BuildingBlock: AJUNOK_clean_linker_0, # of connection points: 2
#     Edge 74, Type (0, 1), BuildingBlock: AJUNOK_clean_linker_0, # of connection points: 2
#     Edge 75, Type (0, 1), BuildingBlock: AJUNOK_clean_linker_0, # of connection points: 2
# Relax obj value: 0.002
# Max RMSD: 0.042
# Mean RMSD: 0.024
data_MOF--net-ctn--node1-AZAVOO_clean_sbu_0--node2-MIDCAF_clean_linker_0--edge1-AJUNOK_clean_linker_0
_symmetry_space_group_name_H-M    P1
_symmetry_Int_Tables_number       1
_symmetry_cell_setting            triclinic
loop_
_symmetry_equiv_pos_as_xyz
'x, y, z'
_cell_length_a     51.726772
_cell_length_b     52.620093
_cell_length_c     52.572001
_cell_angle_alpha  90.067541
_cell_angle_beta   92.982045
_cell_angle_gamma 93.283354
loop_
_atom_site_label
_atom_site_type_symbol
_atom_site_fract_x
_atom_site_fract_y
_atom_site_fract_z
_atom_type_partial_charge
C0 C 0.9651 0.03237 0.0856 0.0
C1 C 0.96836 0.01263 0.10321 0.0
C2 C 0.98549 0.99371 0.09802 0.0
C3 C 0.99935 0.99475 0.07582 0.0
H4 H 0.05563 0.95986 0.03754 0.0
H5 H 0.08977 0.93079 0.03141 0.0
H6 H 0.11724 0.97696 0.96949 0.0
H7 H 0.0833 0.00641 0.9757 0.0
H8 H 0.06037 0.06137 0.96683 0.0
H9 H 0.05947 0.10255 0.94544 0.0
H10 H 0.98578 0.11516 0.97678 0.0
H11 H 0.98677 0.07442 0.99859 0.0
H12 H 0.97607 0.0492 0.05062 0.0
H13 H 0.95257 0.0476 0.08934 0.0
H14 H 0.98838 0.97827 0.11129 0.0
H15 H 0.0127 0.98009 0.07259 0.0
N16 N 0.03067 0.00045 0.03137 0.0
N17 N 0.04389 0.02444 0.99619 0.0
N18 N 0.01021 0.0377 0.02023 0.0
C19 C 0.04638 0.00379 0.01151 0.0
C20 C 0.02571 0.0414 0.00038 0.0
C21 C 0.0125 0.01736 0.03584 0.0
C22 C 0.06669 0.98562 0.00721 0.0
C23 C 0.06888 0.96391 0.02259 0.0
C24 C 0.08839 0.94717 0.01904 0.0
C25 C 0.10627 0.95174 1.00012 0.0
C26 C 0.10398 0.97321 0.9845 0.0
C27 C 0.0844 0.98997 0.98799 0.0
C28 C 0.02386 0.06475 0.98479 0.0
C29 C 0.04383 0.07277 0.96896 0.0
C30 C 0.04331 0.09632 0.95665 0.0
C31 C 0.02281 0.11222 0.95989 0.0
C32 C 0.00215 0.10356 0.9745 0.0
C33 C 0.00272 0.08015 0.9869 0.0
C34 C 0.99644 0.01482 0.05842 0.0
C35 C 0.97884 0.03339 0.06345 0.0
C36 C 0.26039 0.64531 0.25917 0.0
C37 C 0.23656 0.64323 0.24511 0.0
C38 C 0.23 0.66277 0.22824 0.0
C39 C 0.2473 0.68387 0.22517 0.0
H40 H 0.25857 0.75026 0.18527 0.0
H41 H 0.25112 0.77753 0.14868 0.0
H42 H 0.33096 0.80643 0.15518 0.0
H43 H 0.33872 0.77888 0.19205 0.0
H44 H 0.36782 0.7692 0.25094 0.0
H45 H 0.40371 0.77477 0.28326 0.0
H46 H 0.37983 0.70324 0.31724 0.0
H47 H 0.34424 0.69751 0.28549 0.0
H48 H 0.29584 0.66716 0.26733 0.0
H49 H 0.2658 0.6305 0.27239 0.0
H50 H 0.2118 0.66144 0.21704 0.0
H51 H 0.24188 0.69852 0.21179 0.0
N52 N 0.28632 0.72461 0.21647 0.0
N53 N 0.32568 0.74702 0.22857 0.0
N54 N 0.31196 0.7106 0.25096 0.0
C55 C 0.30392 0.74431 0.21283 0.0
C56 C 0.32975 0.73016 0.24779 0.0
C57 C 0.29023 0.70764 0.23547 0.0
C58 C 0.29932 0.76221 0.19154 0.0
C59 C 0.27462 0.76242 0.17906 0.0
C60 C 0.27025 0.77816 0.15817 0.0
C61 C 0.29049 0.79394 0.14907 0.0
C62 C 0.31511 0.79421 0.16171 0.0
C63 C 0.31947 0.77855 0.18287 0.0
C64 C 0.35284 0.73309 0.26577 0.0
C65 C 0.37034 0.75458 0.26519 0.0
C66 C 0.3909 0.75777 0.2836 0.0
C67 C 0.39415 0.73962 0.3029 0.0
C68 C 0.37739 0.71773 0.30283 0.0
C69 C 0.357 0.7145 0.28454 0.0
C70 C 0.27137 0.68582 0.23907 0.0
C71 C 0.27755 0.66638 0.25628 0.0
C72 C 0.01909 0.41007 0.99822 0.0
C73 C 0.99977 0.40222 0.97969 0.0
C74 C 0.97738 0.41603 0.97668 0.0
C75 C 0.97419 0.43712 0.99219 0.0
H76 H 0.92925 0.4991 0.00094 0.0
H77 H 0.89509 0.52852 0.99197 0.0
H78 H 0.92175 0.57298 0.05822 0.0
H79 H 0.95604 0.54397 0.06717 0.0
H80 H 0.01167 0.53166 0.0958 0.0
H81 H 0.04243 0.53754 0.13267 0.0
H82 H 0.06114 0.45895 0.12745 0.0
H83 H 0.03078 0.45297 0.09047 0.0
H84 H 0.03095 0.43619 0.02826 0.0
H85 H 0.03632 0.39946 0.00126 0.0
H86 H 0.96216 0.41024 0.96257 0.0
H87 H 0.95653 0.44714 0.98966 0.0
N88 N 0.97004 0.48197 0.02404 0.0
N89 N 0.98246 0.50469 0.06159 0.0
N90 N 0.00485 0.46921 0.05039 0.0
C91 C 0.96651 0.50149 0.04026 0.0
C92 C 0.00158 0.48852 0.06683 0.0
C93 C 0.98928 0.46584 0.02892 0.0
C94 C 0.9455 0.51911 0.0348 0.0
C95 C 0.92786 0.51512 0.01365 0.0
C96 C 0.90816 0.53185 0.00856 0.0
C97 C 0.90571 0.55293 0.02448 0.0
C98 C 0.92328 0.55693 0.04557 0.0
C99 C 0.94289 0.54022 0.05071 0.0
C100 C 0.01893 0.4919 0.09006 0.0
C101 C 0.02218 0.51558 0.10261 0.0
C102 C 0.03978 0.51899 0.12364 0.0
C103 C 0.05408 0.49869 0.13272 0.0
C104 C 0.05022 0.47484 0.12079 0.0
C105 C 0.03298 0.47151 0.09954 0.0
C106 C 0.9932 0.44456 0.01128 0.0
C107 C 0.01584 0.43097 0.01387 0.0
C108 C 0.75672 0.75837 0.14852 0.0
C109 C 0.73916 0.7371 0.14567 0.0
C110 C 0.7173 0.73545 0.16046 0.0
C111 C 0.71298 0.75489 0.17767 0.0
H112 H 0.66898 0.77233 0.2363 0.0
H113 H 0.6369 0.76512 0.26809 0.0
H114 H 0.65562 0.84026 0.29903 0.0
H115 H 0.68807 0.84777 0.26716 0.0
H116 H 0.7443 0.87528 0.2532 0.0
H117 H 0.77919 0.90871 0.25845 0.0
H118 H 0.81419 0.88091 0.19192 0.0
H119 H 0.77986 0.84761 0.18659 0.0
H120 H 0.76636 0.79394 0.16712 0.0
H121 H 0.77362 0.7602 0.13718 0.0
H122 H 0.70361 0.71909 0.1588 0.0
H123 H 0.69594 0.75307 0.1888 0.0
N124 N 0.7061 0.79518 0.21417 0.0
N125 N 0.71969 0.83452 0.23304 0.0
N126 N 0.74289 0.81787 0.20034 0.0
C127 C 0.70264 0.8138 0.23142 0.0
C128 C 0.73986 0.8367 0.21741 0.0
C129 C 0.72617 0.79708 0.19855 0.0
C130 C 0.6814 0.81057 0.24927 0.0
C131 C 0.66619 0.78754 0.2496 0.0
C132 C 0.64776 0.78334 0.2678 0.0
C133 C 0.64387 0.80213 0.28591 0.0
C134 C 0.65815 0.82558 0.28505 0.0
C135 C 0.67683 0.82976 0.26692 0.0
C136 C 0.7594 0.85847 0.21968 0.0
C137 C 0.75933 0.8764 0.23958 0.0
C138 C 0.77923 0.89555 0.2426 0.0
C139 C 0.79957 0.897 0.22587 0.0
C140 C 0.79904 0.87981 0.20542 0.0
C141 C 0.77926 0.86078 0.20237 0.0
C142 C 0.73046 0.77637 0.18034 0.0
C143 C 0.75241 0.77779 0.16559 0.0
C144 C 0.05514 0.90989 0.5437 0.0
C145 C 0.03343 0.89302 0.53865 0.0
C146 C 0.01384 0.90014 0.52105 0.0
C147 C 0.01627 0.92327 0.50811 0.0
H148 H 0.98409 0.96041 0.44728 0.0
H149 H 0.95805 0.96473 0.40766 0.0
H150 H 0.00258 0.03391 0.39072 0.0
H151 H 0.02843 0.03003 0.43048 0.0
H152 H 0.06573 0.05403 0.48577 0.0
H153 H 0.10293 0.08426 0.49198 0.0
H154 H 0.15237 0.02209 0.50809 0.0
H155 H 0.11457 0.99203 0.50367 0.0
H156 H 0.07474 0.94548 0.53489 0.0
H157 H 0.07036 0.90504 0.55747 0.0
H158 H 0.99694 0.88745 0.51672 0.0
H159 H 0.00095 0.92786 0.49434 0.0
N160 N 0.02392 0.96888 0.47846 0.0
N161 N 0.04704 0.00725 0.47006 0.0
N162 N 0.062 0.98072 0.50288 0.0
C163 C 0.02661 0.99046 0.46445 0.0
C164 C 0.06477 0.00253 0.4892 0.0
C165 C 0.04138 0.9639 0.4978 0.0
C166 C 0.0087 0.99465 0.44198 0.0
C167 C 0.9882 0.97674 0.43533 0.0
C168 C 0.9733 0.97913 0.41257 0.0
C169 C 0.97861 0.9994 0.39592 0.0
C170 C 0.99807 0.01808 0.4032 0.0
C171 C 0.01297 0.01574 0.42596 0.0
C172 C 0.08728 0.02073 0.4943 0.0
C173 C 0.08451 0.04689 0.49097 0.0
C174 C 0.1059 0.06418 0.49439 0.0
C175 C 0.13078 0.05572 0.50057 0.0
C176 C 0.13349 0.02945 0.50403 0.0
C177 C 0.11187 0.01217 0.50129 0.0
C178 C 0.03833 0.93992 0.51256 0.0
C179 C 0.05757 0.93311 0.53081 0.0
C180 C 0.22755 0.74012 0.86858 0.0
C181 C 0.21734 0.76426 0.86937 0.0
C182 C 0.20137 0.772 0.84868 0.0
C183 C 0.19616 0.75602 0.82744 0.0
H184 H 0.14654 0.74207 0.76191 0.0
H185 H 0.11298 0.74881 0.72858 0.0
H186 H 0.1345 0.68198 0.68891 0.0
H187 H 0.16831 0.67541 0.72174 0.0
H188 H 0.22254 0.65303 0.73612 0.0
H189 H 0.25699 0.6248 0.72781 0.0
H190 H 0.29207 0.64047 0.80283 0.0
H191 H 0.2576 0.66855 0.81147 0.0
H192 H 0.23108 0.706 0.84744 0.0
H193 H 0.23958 0.73344 0.8844 0.0
H194 H 0.1935 0.79063 0.8486 0.0
H195 H 0.18424 0.76267 0.81154 0.0
N196 N 0.18409 0.71934 0.7855 0.0
N197 N 0.19839 0.68606 0.76098 0.0
N198 N 0.2202 0.69729 0.79981 0.0
C199 C 0.18132 0.70438 0.76427 0.0
C200 C 0.2179 0.68239 0.77867 0.0
C201 C 0.20346 0.71577 0.80343 0.0
C202 C 0.16026 0.70821 0.74456 0.0
C203 C 0.14406 0.72871 0.74617 0.0
C204 C 0.12469 0.7325 0.72716 0.0
C205 C 0.12099 0.71581 0.70623 0.0
C206 C 0.13699 0.69523 0.70475 0.0
C207 C 0.15636 0.69147 0.72365 0.0
C208 C 0.2374 0.66338 0.77436 0.0
C209 C 0.23741 0.65033 0.75099 0.0
C210 C 0.25719 0.63422 0.74616 0.0
C211 C 0.27735 0.63079 0.76456 0.0
C212 C 0.27675 0.64283 0.78833 0.0
C213 C 0.25704 0.65902 0.79316 0.0
C214 C 0.20708 0.73217 0.82643 0.0
C215 C 0.22259 0.72435 0.84739 0.0
C216 C 0.00165 0.59393 0.51198 0.0
C217 C 0.98169 0.6026 0.52625 0.0
C218 C 0.95814 0.58792 0.52661 0.0
C219 C 0.95431 0.56548 0.51228 0.0
H220 H 0.90464 0.50259 0.49994 0.0
H221 H 0.86769 0.47294 0.50622 0.0
H222 H 0.89066 0.42583 0.44503 0.0
H223 H 0.92804 0.45521 0.43888 0.0
H224 H 0.97509 0.48333 0.40152 0.0
H225 H 0.00633 0.48044 0.36823 0.0
H226 H 0.065 0.52004 0.41726 0.0
H227 H 0.03389 0.52366 0.44992 0.0
H228 H 0.01353 0.56571 0.48649 0.0
H229 H 0.02022 0.60453 0.51183 0.0
H230 H 0.9424 0.59417 0.53743 0.0
H231 H 0.93572 0.55495 0.51256 0.0
N232 N 0.94759 0.51899 0.48211 0.0
N233 N 0.96067 0.49355 0.44888 0.0
N234 N 0.98687 0.52906 0.46331 0.0
C235 C 0.94307 0.49846 0.4664 0.0
C236 C 0.98268 0.50878 0.44734 0.0
C237 C 0.96943 0.5344 0.48066 0.0
C238 C 0.91951 0.4813 0.46896 0.0
C239 C 0.90179 0.48607 0.4876 0.0
C240 C 0.88042 0.46918 0.4911 0.0
C241 C 0.87616 0.44718 0.47598 0.0
C242 C 0.89351 0.44264 0.45699 0.0
C243 C 0.91491 0.45952 0.45347 0.0
C244 C 0.00192 0.50403 0.42821 0.0
C245 C 0.99477 0.49109 0.40525 0.0
C246 C 0.01268 0.48932 0.38624 0.0
C247 C 0.03808 0.50016 0.39007 0.0
C248 C 0.04545 0.51188 0.41356 0.0
C249 C 0.0276 0.51392 0.43231 0.0
C250 C 0.97396 0.55725 0.49724 0.0
C251 C 0.99781 0.57158 0.49756 0.0
C252 C 0.86473 0.75151 0.72976 0.0
C253 C 0.86733 0.76929 0.70998 0.0
C254 C 0.84973 0.78855 0.7075 0.0
C255 C 0.82957 0.78973 0.72398 0.0
H256 H 0.75346 0.81469 0.72481 0.0
H257 H 0.72904 0.85265 0.71833 0.0
H258 H 0.71262 0.85294 0.79799 0.0
H259 H 0.73619 0.81424 0.80435 0.0
H260 H 0.73603 0.74178 0.81629 0.0
H261 H 0.73111 0.72029 0.85689 0.0
H262 H 0.81411 0.71598 0.86639 0.0
H263 H 0.81911 0.73694 0.82508 0.0
H264 H 0.84268 0.73845 0.76113 0.0
H265 H 0.87781 0.73622 0.73187 0.0
H266 H 0.85137 0.80259 0.69252 0.0
H267 H 0.81628 0.80477 0.72118 0.0
N268 N 0.78586 0.78974 0.75497 0.0
N269 N 0.76298 0.77549 0.78991 0.0
N270 N 0.8015 0.75667 0.78029 0.0
C271 C 0.76536 0.79139 0.76981 0.0
C272 C 0.7808 0.75795 0.79516 0.0
C273 C 0.80404 0.77254 0.75999 0.0
C274 C 0.74716 0.81178 0.76518 0.0
C275 C 0.74426 0.82258 0.74086 0.0
C276 C 0.73034 0.84433 0.73716 0.0
C277 C 0.71957 0.85612 0.75782 0.0
C278 C 0.7208 0.84429 0.78176 0.0
C279 C 0.73438 0.8222 0.78539 0.0
C280 C 0.778 0.74149 0.81776 0.0
C281 C 0.75325 0.73595 0.82683 0.0
C282 C 0.75041 0.72367 0.85007 0.0
C283 C 0.77228 0.7171 0.86504 0.0
C284 C 0.79696 0.72097 0.85523 0.0
C285 C 0.7998 0.733 0.83167 0.0
C286 C 0.82641 0.77163 0.74344 0.0
C287 C 0.84447 0.75269 0.74638 0.0
C288 C 0.36572 0.25291 0.22009 0.0
C289 C 0.36985 0.27328 0.20323 0.0
C290 C 0.35467 0.29444 0.2047 0.0
C291 C 0.33488 0.29471 0.22172 0.0
H292 H 0.25868 0.31907 0.2226 0.0
H293 H 0.23437 0.35731 0.21866 0.0
H294 H 0.21407 0.35003 0.297 0.0
H295 H 0.23785 0.31112 0.30086 0.0
H296 H 0.2391 0.2354 0.30544 0.0
H297 H 0.23341 0.21052 0.34399 0.0
H298 H 0.31649 0.21312 0.35865 0.0
H299 H 0.32217 0.23694 0.31918 0.0
H300 H 0.34274 0.23692 0.24955 0.0
H301 H 0.3772 0.23636 0.21934 0.0
H302 H 0.35785 0.31067 0.19237 0.0
H303 H 0.32329 0.3112 0.22191 0.0
N304 N 0.2895 0.29129 0.25077 0.0
N305 N 0.26618 0.27433 0.28435 0.0
N306 N 0.30478 0.25637 0.2735 0.0
C307 C 0.26882 0.29177 0.26555 0.0
C308 C 0.28397 0.25649 0.28833 0.0
C309 C 0.30757 0.27375 0.25453 0.0
C310 C 0.25062 0.31236 0.26219 0.0
C311 C 0.2487 0.32534 0.23889 0.0
C312 C 0.2348 0.34723 0.23663 0.0
C313 C 0.22291 0.35692 0.25772 0.0
C314 C 0.22314 0.34298 0.28048 0.0
C315 C 0.23682 0.32078 0.28268 0.0
C316 C 0.28105 0.23833 0.30952 0.0
C317 C 0.25616 0.23017 0.31661 0.0
C318 C 0.25292 0.21593 0.33869 0.0
C319 C 0.27448 0.21001 0.35453 0.0
C320 C 0.29949 0.21697 0.34669 0.0
C321 C 0.30275 0.23079 0.3242 0.0
C322 C 0.32991 0.2739 0.2379 0.0
C323 C 0.34594 0.25321 0.2373 0.0
C324 C 0.51514 0.90896 0.49955 0.0
C325 C 0.49524 0.90115 0.48161 0.0
C326 C 0.47349 0.91585 0.47832 0.0
C327 C 0.47114 0.93731 0.49356 0.0
H328 H 0.42382 0.99491 0.50654 0.0
H329 H 0.38533 0.01938 0.50153 0.0
H330 H 0.40899 0.06155 0.57007 0.0
H331 H 0.44744 0.0369 0.57548 0.0
H332 H 0.49917 0.02143 0.60846 0.0
H333 H 0.53188 0.02845 0.64363 0.0
H334 H 0.57961 0.97427 0.60997 0.0
H335 H 0.54749 0.96728 0.57498 0.0
H336 H 0.52824 0.93539 0.52894 0.0
H337 H 0.53208 0.89792 0.50249 0.0
H338 H 0.45806 0.91044 0.4643 0.0
H339 H 0.45381 0.94784 0.49097 0.0
N340 N 0.46594 0.9799 0.52766 0.0
N341 N 0.47995 0.00333 0.56437 0.0
N342 N 0.50453 0.97064 0.55 0.0
C343 C 0.46222 0.99876 0.54456 0.0
C344 C 0.50122 0.98931 0.56717 0.0
C345 C 0.48706 0.96577 0.53022 0.0
C346 C 0.43889 0.01391 0.54142 0.0
C347 C 0.42096 0.00941 0.52058 0.0
C348 C 0.39893 0.02353 0.51757 0.0
C349 C 0.3943 0.04251 0.53527 0.0
C350 C 0.41206 0.04697 0.55617 0.0
C351 C 0.43414 0.03288 0.55919 0.0
C352 C 0.52069 0.9939 0.58872 0.0
C353 C 0.51668 0.01107 0.60851 0.0
C354 C 0.5353 0.01504 0.62869 0.0
C355 C 0.55836 0.00213 0.62928 0.0
C356 C 0.56221 0.98481 0.60973 0.0
C357 C 0.54366 0.98074 0.58972 0.0
C358 C 0.49051 0.94448 0.5124 0.0
C359 C 0.5128 0.93036 0.51482 0.0
C360 C 0.25449 0.26518 0.63991 0.0
C361 C 0.23774 0.24339 0.63664 0.0
C362 C 0.21828 0.23852 0.6539 0.0
C363 C 0.21514 0.25571 0.67373 0.0
H364 H 0.16372 0.27644 0.72604 0.0
H365 H 0.13042 0.26744 0.75635 0.0
H366 H 0.16056 0.3313 0.80251 0.0
H367 H 0.19403 0.34066 0.77214 0.0
H368 H 0.23812 0.38327 0.73351 0.0
H369 H 0.27204 0.41792 0.73553 0.0
H370 H 0.32911 0.3641 0.71939 0.0
H371 H 0.29525 0.3301 0.71596 0.0
H372 H 0.26473 0.29891 0.66144 0.0
H373 H 0.26988 0.26911 0.627 0.0
H374 H 0.20521 0.22173 0.65171 0.0
H375 H 0.19974 0.25169 0.68658 0.0
N376 N 0.2073 0.29481 0.71165 0.0
N377 N 0.22243 0.33183 0.73416 0.0
N378 N 0.24644 0.31593 0.70165 0.0
C379 C 0.20417 0.31232 0.73016 0.0
C380 C 0.24367 0.3336 0.71994 0.0
C381 C 0.22834 0.29658 0.69723 0.0
C382 C 0.18194 0.30903 0.74684 0.0
C383 C 0.16319 0.28883 0.74245 0.0
C384 C 0.14407 0.28363 0.75978 0.0
C385 C 0.14325 0.29846 0.78188 0.0
C386 C 0.16086 0.3196 0.78557 0.0
C387 C 0.18008 0.32484 0.76822 0.0
C388 C 0.26405 0.35415 0.72418 0.0
C389 C 0.25797 0.37897 0.7305 0.0
C390 C 0.27735 0.39874 0.73165 0.0
C391 C 0.30314 0.39388 0.72685 0.0
C392 C 0.3093 0.36871 0.72208 0.0
C393 C 0.28994 0.34918 0.72038 0.0
C394 C 0.23167 0.27784 0.67675 0.0
C395 C 0.25154 0.28218 0.65973 0.0
C396 C 0.75623 0.1514 0.76965 0.0
C397 C 0.73497 0.14579 0.75253 0.0
C398 C 0.72947 0.16284 0.73275 0.0
C399 C 0.74583 0.1846 0.72941 0.0
H400 H 0.75509 0.25171 0.68924 0.0
H401 H 0.74747 0.27806 0.652 0.0
H402 H 0.82692 0.30814 0.65843 0.0
H403 H 0.83487 0.2815 0.69592 0.0
H404 H 0.86516 0.27235 0.75441 0.0
H405 H 0.90211 0.27747 0.78567 0.0
H406 H 0.87859 0.20606 0.82012 0.0
H407 H 0.84203 0.2008 0.78948 0.0
H408 H 0.78904 0.17639 0.77971 0.0
H409 H 0.76059 0.13867 0.78529 0.0
H410 H 0.7131 0.15885 0.71937 0.0
H411 H 0.74157 0.19704 0.71353 0.0
N412 N 0.78264 0.22769 0.72189 0.0
N413 N 0.82248 0.24991 0.73266 0.0
N414 N 0.80868 0.21449 0.75645 0.0
C415 C 0.80039 0.24703 0.71736 0.0
C416 C 0.82669 0.2336 0.75233 0.0
C417 C 0.78664 0.21135 0.74143 0.0
C418 C 0.79568 0.26431 0.69554 0.0
C419 C 0.77102 0.26394 0.68288 0.0
C420 C 0.76655 0.27915 0.66159 0.0
C421 C 0.78663 0.295 0.65229 0.0
C422 C 0.81119 0.29584 0.66509 0.0
C423 C 0.81566 0.2807 0.68661 0.0
C424 C 0.85032 0.23637 0.76961 0.0
C425 C 0.86799 0.25767 0.76854 0.0
C426 C 0.88914 0.2606 0.78633 0.0
C427 C 0.89281 0.24235 0.80547 0.0
C428 C 0.87585 0.22063 0.80583 0.0
C429 C 0.85488 0.21768 0.78819 0.0
C430 C 0.76787 0.18965 0.74591 0.0
C431 C 0.77249 0.17305 0.7664 0.0
C432 C 0.46113 0.53141 0.5776 0.0
C433 C 0.46418 0.51187 0.59547 0.0
C434 C 0.4809 0.49254 0.59041 0.0
C435 C 0.49476 0.49311 0.56821 0.0
H436 H 0.55185 0.45794 0.53134 0.0
H437 H 0.5864 0.42907 0.52645 0.0
H438 H 0.61588 0.47538 0.46555 0.0
H439 H 0.58151 0.50466 0.47051 0.0
H440 H 0.55915 0.56024 0.46179 0.0
H441 H 0.55924 0.60208 0.44158 0.0
H442 H 0.48359 0.61329 0.4692 0.0
H443 H 0.48353 0.57187 0.48976 0.0
H444 H 0.47234 0.54769 0.54245 0.0
H445 H 0.44891 0.54693 0.5812 0.0
H446 H 0.4836 0.47721 0.60385 0.0
H447 H 0.5079 0.47822 0.56517 0.0
N448 N 0.52702 0.49852 0.52443 0.0
N449 N 0.54122 0.52248 0.4896 0.0
N450 N 0.50679 0.53569 0.51264 0.0
C451 C 0.5433 0.50185 0.50501 0.0
C452 C 0.52286 0.5394 0.49323 0.0
C453 C 0.50868 0.51539 0.52835 0.0
C454 C 0.56386 0.48377 0.50141 0.0
C455 C 0.56562 0.46207 0.51687 0.0
C456 C 0.58538 0.44543 0.51403 0.0
C457 C 0.60393 0.4501 0.49576 0.0
C458 C 0.60208 0.47156 0.48007 0.0
C459 C 0.58226 0.48822 0.48284 0.0
C460 C 0.52155 0.56288 0.47781 0.0
C461 C 0.54238 0.57145 0.46327 0.0
C462 C 0.54243 0.59538 0.45166 0.0
C463 C 0.52166 0.61108 0.45433 0.0
C464 C 0.50014 0.60182 0.46742 0.0
C465 C 0.50012 0.57804 0.47911 0.0
C466 C 0.49223 0.51309 0.55065 0.0
C467 C 0.47484 0.53194 0.55543 0.0
C468 C 0.55702 0.40963 0.0372 0.0
C469 C 0.53547 0.3927 0.03166 0.0
C470 C 0.51621 0.3998 0.01367 0.0
C471 C 0.51892 0.42292 0.00073 0.0
H472 H 0.48547 0.46414 0.94053 0.0
H473 H 0.4601 0.46953 0.90032 0.0
H474 H 0.51561 0.52853 0.87812 0.0
H475 H 0.54079 0.52364 0.91801 0.0
H476 H 0.58166 0.54548 0.957 0.0
H477 H 0.61815 0.57577 0.96603 0.0
H478 H 0.64507 0.52918 0.02834 0.0
H479 H 0.60848 0.49832 0.01923 0.0
H480 H 0.57682 0.44518 0.02877 0.0
H481 H 0.57195 0.40478 0.05128 0.0
H482 H 0.49942 0.38707 0.00901 0.0
H483 H 0.50394 0.42748 0.98658 0.0
N484 N 0.52819 0.4679 0.97023 0.0
N485 N 0.55278 0.50533 0.96157 0.0
N486 N 0.56529 0.47997 0.99614 0.0
C487 C 0.53215 0.48893 0.95564 0.0
C488 C 0.5694 0.50113 0.98175 0.0
C489 C 0.54466 0.46328 0.99055 0.0
C490 C 0.51531 0.49331 0.93249 0.0
C491 C 0.4921 0.47849 0.92723 0.0
C492 C 0.47748 0.48164 0.90435 0.0
C493 C 0.48599 0.49945 0.88631 0.0
C494 C 0.50869 0.51471 0.89183 0.0
C495 C 0.52308 0.51183 0.91471 0.0
C496 C 0.59198 0.51938 0.98743 0.0
C497 C 0.5953 0.54147 0.97261 0.0
C498 C 0.61622 0.55893 0.97778 0.0
C499 C 0.63446 0.55479 0.99781 0.0
C500 C 0.63145 0.53265 0.01255 0.0
C501 C 0.61038 0.51511 0.00743 0.0
C502 C 0.5409 0.43958 0.00561 0.0
C503 C 0.5597 0.43283 0.02435 0.0
C504 C 0.72197 0.23736 0.37031 0.0
C505 C 0.7137 0.26228 0.37131 0.0
C506 C 0.69974 0.27182 0.35006 0.0
C507 C 0.69487 0.25691 0.32802 0.0
H508 H 0.63339 0.22316 0.26685 0.0
H509 H 0.59988 0.22859 0.23317 0.0
H510 H 0.65459 0.21261 0.17664 0.0
H511 H 0.68741 0.20548 0.21041 0.0
H512 H 0.72688 0.15985 0.23305 0.0
H513 H 0.76062 0.13023 0.22646 0.0
H514 H 0.78868 0.14025 0.30477 0.0
H515 H 0.75493 0.16952 0.31163 0.0
H516 H 0.72457 0.2037 0.34811 0.0
H517 H 0.7324 0.22932 0.3865 0.0
H518 H 0.69341 0.29108 0.35013 0.0
H519 H 0.68476 0.26499 0.31166 0.0
N520 N 0.68372 0.22214 0.28402 0.0
N521 N 0.70048 0.19127 0.25805 0.0
N522 N 0.71915 0.19946 0.29894 0.0
C523 C 0.68286 0.209 0.26164 0.0
C524 C 0.71862 0.18627 0.27673 0.0
C525 C 0.70194 0.21744 0.30275 0.0
C526 C 0.66298 0.21387 0.24124 0.0
C527 C 0.63823 0.22096 0.24719 0.0
C528 C 0.61909 0.2243 0.22784 0.0
C529 C 0.62454 0.22137 0.20207 0.0
C530 C 0.64955 0.21474 0.19624 0.0
C531 C 0.66843 0.21077 0.21558 0.0
C532 C 0.73816 0.16721 0.27285 0.0
C533 C 0.74003 0.15557 0.24896 0.0
C534 C 0.75937 0.13863 0.24515 0.0
C535 C 0.77712 0.13281 0.26516 0.0
C536 C 0.77497 0.14401 0.28913 0.0
C537 C 0.75573 0.161 0.29295 0.0
C538 C 0.70417 0.23236 0.32676 0.0
C539 C 0.71739 0.22264 0.34831 0.0
C540 C 0.50132 0.09821 0.00334 0.0
C541 C 0.48285 0.10494 0.02043 0.0
C542 C 0.45959 0.08988 0.02136 0.0
C543 C 0.45498 0.06844 0.00571 0.0
H544 H 0.39546 0.01289 0.97415 0.0
H545 H 0.35854 0.98343 0.98161 0.0
H546 H 0.40489 0.92007 0.96549 0.0
H547 H 0.44106 0.9498 0.95603 0.0
H548 H 0.48329 0.97146 0.90738 0.0
H549 H 0.50957 0.96707 0.87024 0.0
H550 H 0.53919 0.04497 0.87965 0.0
H551 H 0.51338 0.04952 0.91662 0.0
H552 H 0.51134 0.07223 0.9746 0.0
H553 H 0.51943 0.10946 0.0022 0.0
H554 H 0.44464 0.09497 0.03379 0.0
H555 H 0.43676 0.0574 0.00686 0.0
N556 N 0.44785 0.02245 0.9753 0.0
N557 N 0.45941 0.99738 0.94113 0.0
N558 N 0.48398 0.03499 0.95231 0.0
C559 C 0.44338 0.00151 0.96024 0.0
C560 C 0.47964 0.01425 0.93689 0.0
C561 C 0.46831 0.03915 0.97164 0.0
C562 C 0.42109 0.98356 0.96461 0.0
C563 C 0.39765 0.99263 0.97216 0.0
C564 C 0.37659 0.97571 0.97673 0.0
C565 C 0.37881 0.94925 0.97475 0.0
C566 C 0.40235 0.94029 0.96704 0.0
C567 C 0.42313 0.95727 0.96171 0.0
C568 C 0.49613 0.01088 0.91498 0.0
C569 C 0.49543 0.98764 0.90155 0.0
C570 C 0.51046 0.98507 0.88036 0.0
C571 C 0.52604 0.0058 0.87198 0.0
C572 C 0.52699 0.02884 0.88553 0.0
C573 C 0.51231 0.03134 0.90683 0.0
C574 C 0.47339 0.06173 0.9885 0.0
C575 C 0.49665 0.07686 0.98753 0.0
Mg576 Mg 0.23743 0.85452 0.01257 0.0
O577 O 0.27445 0.87828 0.00278 0.0
O578 O 0.30597 0.85083 0.00137 0.0
Mg579 Mg 0.29033 0.81135 0.01308 0.0
C580 C 0.29784 0.8732 0.999 0.0
C581 C 0.18715 0.87944 0.99777 0.0
O582 O 0.18008 0.8552 0.00019 0.0
O583 O 0.2341 0.8366 0.97279 0.0
O584 O 0.26538 0.80905 0.97574 0.0
O585 O 0.24549 0.862 0.05391 0.0
O586 O 0.26006 0.82944 0.03359 0.0
C587 C 0.24658 0.8189 0.96337 0.0
C588 C 0.25917 0.84216 0.0545 0.0
O589 O 0.21115 0.88611 0.00031 0.0
Mg590 Mg 0.15474 0.50643 0.2743 0.0
O591 O 0.13085 0.50527 0.236 0.0
O592 O 0.1591 0.51216 0.20558 0.0
Mg593 Mg 0.20033 0.51603 0.22339 0.0
C594 C 0.13596 0.50827 0.21262 0.0
C595 C 0.11718 0.5078 0.31518 0.0
O596 O 0.1348 0.52655 0.31918 0.0
O597 O 0.16784 0.46596 0.26751 0.0
O598 O 0.19681 0.47522 0.23832 0.0
O599 O 0.15398 0.54926 0.27557 0.0
O600 O 0.18455 0.52861 0.25852 0.0
C601 C 0.18552 0.45938 0.25309 0.0
C602 C 0.17517 0.54998 0.26356 0.0
O603 O 0.11933 0.49303 0.29632 0.0
Mg604 Mg 0.7787 0.65487 0.02157 0.0
O605 O 0.7403 0.63027 0.01701 0.0
O606 O 0.70869 0.65752 0.01658 0.0
Mg607 Mg 0.7258 0.6983 0.02186 0.0
C608 C 0.71624 0.63486 0.01543 0.0
C609 C 0.82716 0.62753 0.0132 0.0
O610 O 0.8349 0.65143 0.01762 0.0
O611 O 0.7743 0.66779 0.97988 0.0
O612 O 0.74401 0.69593 0.98327 0.0
O613 O 0.7783 0.65316 0.0642 0.0
O614 O 0.7598 0.68243 0.04067 0.0
C615 C 0.76023 0.68488 0.9702 0.0
C616 C 0.76431 0.67276 0.0628 0.0
O617 O 0.80294 0.62172 0.01182 0.0
Mg618 Mg 0.90608 0.03351 0.24427 0.0
O619 O 0.88217 0.99536 0.24045 0.0
O620 O 0.9096 0.96537 0.23278 0.0
Mg621 Mg 0.95069 0.98366 0.23252 0.0
C622 C 0.88673 0.97216 0.23618 0.0
C623 C 0.86554 0.07279 0.24627 0.0
O624 O 0.88046 0.08037 0.22794 0.0
O625 O 0.9209 0.02258 0.28444 0.0
O626 O 0.94834 0.99302 0.27505 0.0
O627 O 0.90196 0.03863 0.20218 0.0
O628 O 0.93443 0.01983 0.22162 0.0
C629 C 0.93741 0.00638 0.29126 0.0
C630 C 0.92275 0.02632 0.2006 0.0
O631 O 0.87107 0.05284 0.25855 0.0
Mg632 Mg 0.27695 0.15512 0.51467 0.0
O633 O 0.23882 0.12989 0.51196 0.0
O634 O 0.20697 0.1567 0.50586 0.0
Mg635 Mg 0.22341 0.19785 0.50803 0.0
C636 C 0.21486 0.13423 0.50809 0.0
C637 C 0.30586 0.10641 0.52828 0.0
O638 O 0.29336 0.10975 0.54903 0.0
O639 O 0.27358 0.16331 0.4716 0.0
O640 O 0.24291 0.19152 0.47074 0.0
O641 O 0.27473 0.15912 0.55714 0.0
O642 O 0.25782 0.18523 0.52911 0.0
C643 C 0.25957 0.1791 0.45957 0.0
C644 C 0.26169 0.17901 0.55253 0.0
O645 O 0.30176 0.12106 0.50945 0.0
Mg646 Mg 0.40605 0.53385 0.73847 0.0
O647 O 0.38211 0.49582 0.73507 0.0
O648 O 0.40908 0.46614 0.72464 0.0
Mg649 Mg 0.45022 0.48435 0.72372 0.0
C650 C 0.38651 0.47294 0.72935 0.0
C651 C 0.36696 0.57368 0.7424 0.0
O652 O 0.38265 0.5815 0.72481 0.0
O653 O 0.42237 0.52226 0.7779 0.0
O654 O 0.45018 0.49384 0.76643 0.0
O655 O 0.40052 0.5395 0.69635 0.0
O656 O 0.43354 0.52059 0.71453 0.0
C657 C 0.43992 0.50672 0.78349 0.0
C658 C 0.42127 0.5273 0.69397 0.0
O659 O 0.37162 0.55314 0.75409 0.0
Mg660 Mg 0.7346 0.35306 0.51408 0.0
O661 O 0.77218 0.37561 0.50361 0.0
O662 O 0.80327 0.34779 0.50497 0.0
Mg663 Mg 0.78649 0.30873 0.51671 0.0
C664 C 0.79574 0.37024 0.50111 0.0
C665 C 0.68517 0.37803 0.49672 0.0
O666 O 0.67803 0.35377 0.49875 0.0
O667 O 0.73125 0.33399 0.47495 0.0
O668 O 0.76205 0.30602 0.47892 0.0
O669 O 0.74254 0.36164 0.55533 0.0
O670 O 0.75642 0.32809 0.53611 0.0
C671 C 0.74351 0.31585 0.4661 0.0
C672 C 0.75572 0.34147 0.55661 0.0
O673 O 0.70906 0.38475 0.50051 0.0
Mg674 Mg 0.65392 0.00641 0.7737 0.0
O675 O 0.63225 0.00821 0.73427 0.0
O676 O 0.66245 0.01464 0.70583 0.0
Mg677 Mg 0.70265 0.01739 0.726 0.0
C678 C 0.63875 0.0114 0.7113 0.0
C679 C 0.59819 0.00712 0.79122 0.0
O680 O 0.60024 0.02737 0.77671 0.0
O681 O 0.66629 0.966 0.76519 0.0
O682 O 0.69735 0.97588 0.73834 0.0
O683 O 0.65454 0.04913 0.77786 0.0
O684 O 0.68521 0.02848 0.76089 0.0
C685 C 0.68462 0.95957 0.75148 0.0
C686 C 0.67644 0.04984 0.767 0.0
O687 O 0.61692 0.99247 0.79261 0.0
Mg688 Mg 0.03765 0.25994 0.90256 0.0
O689 O 0.99809 0.25522 0.88019 0.0
O690 O 0.969 0.24403 0.90864 0.0
Mg691 Mg 0.98891 0.24153 0.94816 0.0
C692 C 0.97475 0.24941 0.88588 0.0
C693 C 0.07798 0.26799 0.86457 0.0
O694 O 0.08578 0.25046 0.88052 0.0
O695 O 0.02628 0.29801 0.91831 0.0
O696 O 0.99775 0.28476 0.94668 0.0
O697 O 0.04388 0.21854 0.8977 0.0
O698 O 0.02517 0.23449 0.93036 0.0
C699 C 0.01066 0.30257 0.93559 0.0
C700 C 0.03245 0.21478 0.91878 0.0
O701 O 0.05681 0.27817 0.8684 0.0
Mg702 Mg 0.53601 0.76129 0.40387 0.0
O703 O 0.49717 0.75551 0.3804 0.0
O704 O 0.46774 0.74216 0.40775 0.0
Mg705 Mg 0.4868 0.7393 0.44761 0.0
C706 C 0.47388 0.74849 0.38533 0.0
C707 C 0.57813 0.77418 0.36899 0.0
O708 O 0.58684 0.75773 0.38568 0.0
O709 O 0.52247 0.79817 0.42032 0.0
O710 O 0.49376 0.78281 0.44758 0.0
O711 O 0.54434 0.72056 0.3979 0.0
O712 O 0.52386 0.73445 0.43044 0.0
C713 C 0.50608 0.80148 0.43723 0.0
C714 C 0.5323 0.71554 0.41842 0.0
O715 O 0.55532 0.7815 0.37095 0.0
Mg716 Mg 0.98533 0.74298 0.60062 0.0
O717 O 0.02199 0.73564 0.62559 0.0
O718 O 0.05318 0.72769 0.59945 0.0
Mg719 Mg 0.03673 0.72945 0.55831 0.0
C720 C 0.0453 0.73037 0.62186 0.0
C721 C 0.94071 0.75659 0.63117 0.0
O722 O 0.93079 0.74992 0.60845 0.0
O723 O 0.00231 0.78257 0.59027 0.0
O724 O 0.03197 0.77244 0.56309 0.0
O725 O 0.97354 0.70161 0.59996 0.0
O726 O 0.99753 0.7205 0.57127 0.0
C727 C 0.01985 0.78899 0.57486 0.0
C728 C 0.98655 0.69984 0.57972 0.0
O729 O 0.9652 0.7573 0.63497 0.0
Mg730 Mg 0.48793 0.24396 0.09637 0.0
O731 O 0.52485 0.23802 0.12156 0.0
O732 O 0.55563 0.22762 0.09568 0.0
Mg733 Mg 0.53921 0.22893 0.05446 0.0
C734 C 0.5479 0.23181 0.11789 0.0
C735 C 0.44351 0.26204 0.12445 0.0
O736 O 0.43464 0.25729 0.10095 0.0
O737 O 0.50447 0.28308 0.08458 0.0
O738 O 0.5345 0.2722 0.05813 0.0
O739 O 0.47657 0.20251 0.09731 0.0
O740 O 0.5002 0.22054 0.06783 0.0
C741 C 0.52215 0.28907 0.0692 0.0
C742 C 0.48959 0.20012 0.07716 0.0
O743 O 0.46746 0.25954 0.1299 0.0
C744 C 0.25031 0.78365 0.90108 0.0
C745 C 0.22434 0.78121 0.89162 0.0
C746 C 0.25736 0.79682 0.92371 0.0
C747 C 0.2388 0.80839 0.93777 0.0
H748 H 0.2653 0.77474 0.89119 0.0
H749 H 0.27752 0.79746 0.93054 0.0
S750 S 0.16835 0.80895 0.92056 0.0
N751 N 0.18006 0.79236 0.89753 0.0
N752 N 0.19344 0.8177 0.93994 0.0
C753 C 0.21293 0.80729 0.9279 0.0
C754 C 0.20567 0.79359 0.90486 0.0
C755 C 0.07036 0.52451 0.36463 0.0
C756 C 0.05661 0.5013 0.3693 0.0
C757 C 0.08936 0.52629 0.3467 0.0
C758 C 0.09537 0.50501 0.33239 0.0
H759 H 0.06658 0.54151 0.37513 0.0
H760 H 0.09957 0.5446 0.34421 0.0
S761 S 0.06441 0.4399 0.33659 0.0
N762 N 0.04987 0.45656 0.35774 0.0
N763 N 0.08545 0.46005 0.32347 0.0
C764 C 0.08118 0.48181 0.33612 0.0
C765 C 0.06183 0.47993 0.35468 0.0
C766 C 0.78046 0.68678 0.90129 0.0
C767 C 0.76931 0.70884 0.89177 0.0
C768 C 0.7774 0.67899 0.92661 0.0
C769 C 0.76316 0.69306 0.94332 0.0
H770 H 0.79137 0.67534 0.88901 0.0
H771 H 0.78617 0.66178 0.93307 0.0
S772 S 0.73229 0.75377 0.92796 0.0
N773 N 0.7451 0.74556 0.90129 0.0
N774 N 0.73907 0.73112 0.94849 0.0
C775 C 0.75237 0.71548 0.93397 0.0
C776 C 0.75553 0.72332 0.90834 0.0
C777 C 0.95481 0.02247 0.36086 0.0
C778 C 0.96555 6e-05 0.37009 0.0
C779 C 0.9446 0.02406 0.33565 0.0
C780 C 0.94519 0.00344 0.31864 0.0
H781 H 0.95469 0.03902 0.37312 0.0
H782 H 0.93714 0.04189 0.32919 0.0
S783 S 0.97016 0.94011 0.33381 0.0
N784 N 0.97535 0.95657 0.3605 0.0
N785 N 0.95616 0.95944 0.31333 0.0
C786 C 0.95516 0.98068 0.32792 0.0
C787 C 0.96533 0.97902 0.35357 0.0
C788 C 0.24613 0.20066 0.61876 0.0
C789 C 0.24062 0.22624 0.6148 0.0
C790 C 0.25218 0.18517 0.59837 0.0
C791 C 0.25258 0.19469 0.57335 0.0
H792 H 0.24677 0.19291 0.63785 0.0
H793 H 0.2571 0.16579 0.60235 0.0
S794 S 0.23765 0.26014 0.55309 0.0
N795 N 0.23441 0.26006 0.58415 0.0
N796 N 0.24585 0.23125 0.54587 0.0
C797 C 0.24604 0.22003 0.56914 0.0
C798 C 0.24005 0.23573 0.58987 0.0
C799 C 0.46672 0.5102 0.64308 0.0
C800 C 0.45173 0.51304 0.62027 0.0
C801 C 0.4564 0.51411 0.66679 0.0
C802 C 0.43071 0.52114 0.66866 0.0
H803 H 0.48692 0.5059 0.64262 0.0
H804 H 0.46901 0.51245 0.68374 0.0
S805 S 0.38239 0.52787 0.61473 0.0
N806 N 0.40914 0.52084 0.60109 0.0
N807 N 0.38983 0.52864 0.64567 0.0
C808 C 0.41516 0.523 0.64605 0.0
C809 C 0.42564 0.51885 0.62188 0.0
C810 C 0.75998 0.32474 0.62651 0.0
C811 C 0.78167 0.3098 0.62873 0.0
C812 C 0.75272 0.33612 0.60335 0.0
C813 C 0.76661 0.33264 0.58143 0.0
H814 H 0.74811 0.32704 0.64265 0.0
H815 H 0.7353 0.34665 0.60234 0.0
S816 S 0.82661 0.29772 0.57795 0.0
N817 N 0.8182 0.29383 0.60763 0.0
N818 N 0.80462 0.31544 0.56413 0.0
C819 C 0.78911 0.31889 0.58373 0.0
C820 C 0.79666 0.30746 0.6074 0.0
C821 C 0.57256 0.00341 0.67569 0.0
C822 C 0.57863 0.00657 0.65009 0.0
C823 C 0.59201 0.00539 0.69539 0.0
C824 C 0.61826 0.01075 0.69023 0.0
H825 H 0.55275 0.99862 0.68046 0.0
H826 H 0.5864 0.00225 0.71475 0.0
S827 S 0.64356 0.02328 0.62617 0.0
N828 N 0.61214 0.01713 0.62062 0.0
N829 N 0.64872 0.02093 0.6573 0.0
C830 C 0.62431 0.01488 0.66462 0.0
C831 C 0.60451 0.01277 0.64467 0.0
C832 C 0.93965 0.24936 0.82019 0.0
C833 C 0.91345 0.24612 0.82595 0.0
C834 C 0.95938 0.2507 0.83965 0.0
C835 C 0.95357 0.24894 0.86555 0.0
H836 H 0.94495 0.25014 0.80053 0.0
H837 H 0.97933 0.25267 0.83428 0.0
S838 S 0.8874 0.24319 0.8903 0.0
N839 N 0.88246 0.24316 0.85905 0.0
N840 N 0.91916 0.24571 0.89562 0.0
C841 C 0.92723 0.24663 0.87141 0.0
C842 C 0.90728 0.24522 0.85162 0.0
C843 C 0.51886 0.87118 0.45526 0.0
C844 C 0.49648 0.87667 0.46787 0.0
C845 C 0.52139 0.84714 0.44439 0.0
C846 C 0.50181 0.8276 0.44611 0.0
H847 H 0.5347 0.88546 0.4542 0.0
H848 H 0.53924 0.84358 0.43543 0.0
S849 S 0.43885 0.8328 0.47613 0.0
N850 N 0.45404 0.861 0.48069 0.0
N851 N 0.45863 0.81593 0.46023 0.0
C852 C 0.47898 0.83317 0.45798 0.0
C853 C 0.47636 0.85767 0.46885 0.0
C854 C 0.10845 0.30707 0.81186 0.0
C855 C 0.12581 0.29034 0.80218 0.0
C856 C 0.09244 0.29956 0.83165 0.0
C857 C 0.09373 0.27528 0.84272 0.0
H858 H 0.10723 0.32604 0.80406 0.0
H859 H 0.07943 0.31305 0.8387 0.0
S860 S 0.13612 0.22452 0.82398 0.0
N861 N 0.14332 0.24852 0.80495 0.0
N862 N 0.11353 0.23442 0.84206 0.0
C863 C 0.11097 0.2584 0.83303 0.0
C864 C 0.12695 0.26593 0.81278 0.0
C865 C 0.52996 0.64322 0.42005 0.0
C866 C 0.52321 0.63771 0.44509 0.0
C867 C 0.53241 0.66843 0.41143 0.0
C868 C 0.52827 0.68904 0.42757 0.0
H869 H 0.53337 0.62793 0.40704 0.0
H870 H 0.53772 0.67177 0.392 0.0
S871 S 0.51198 0.68467 0.49547 0.0
N872 N 0.51353 0.65483 0.48625 0.0
N873 N 0.51813 0.7021 0.47018 0.0
C874 C 0.52162 0.68372 0.45271 0.0
C875 C 0.51909 0.65809 0.46143 0.0
C876 C 0.87906 0.76714 0.66464 0.0
C877 C 0.88698 0.76686 0.69062 0.0
C878 C 0.89673 0.76435 0.64573 0.0
C879 C 0.92317 0.76131 0.65194 0.0
H880 H 0.85885 0.76904 0.65884 0.0
H881 H 0.88946 0.76435 0.62603 0.0
S882 S 0.95407 0.76039 0.71728 0.0
N883 N 0.92313 0.76413 0.72172 0.0
N884 N 0.95655 0.75885 0.68612 0.0
C885 C 0.93152 0.76149 0.67789 0.0
C886 C 0.91337 0.76418 0.69723 0.0
C887 C 0.00874 0.85872 0.56202 0.0
C888 C 0.03159 0.86743 0.55059 0.0
C889 C 0.00561 0.83369 0.57108 0.0
C890 C 0.02506 0.81631 0.56867 0.0
H891 H 0.99296 0.87122 0.56354 0.0
H892 H 0.98736 0.82766 0.57903 0.0
S893 S 0.08919 0.83022 0.54147 0.0
N894 N 0.07442 0.85711 0.53837 0.0
N895 N 0.06867 0.81019 0.55537 0.0
C896 C 0.04839 0.82512 0.55811 0.0
C897 C 0.05163 0.85063 0.54909 0.0
C898 C 0.10821 0.7193 0.65991 0.0
C899 C 0.10122 0.72016 0.68536 0.0
C900 C 0.09005 0.72276 0.6397 0.0
C901 C 0.06401 0.7272 0.64401 0.0
H902 H 0.12799 0.71606 0.65552 0.0
H903 H 0.09662 0.7219 0.62051 0.0
S904 S 0.03571 0.73075 0.70742 0.0
N905 N 0.06648 0.72539 0.71396 0.0
N906 N 0.03224 0.73215 0.67606 0.0
C907 C 0.05677 0.72823 0.66949 0.0
C908 C 0.07538 0.72469 0.69011 0.0
C909 C 0.97785 0.629 0.56548 0.0
C910 C 0.98499 0.6273 0.54011 0.0
C911 C 0.97925 0.65241 0.57839 0.0
C912 C 0.98783 0.67507 0.56644 0.0
H913 H 0.97092 0.6121 0.57538 0.0
H914 H 0.97316 0.65276 0.59779 0.0
S915 S 0.0082 0.68094 0.49988 0.0
N916 N 1.00063 0.65028 0.50336 0.0
N917 N 0.00344 0.69423 0.52758 0.0
C918 C 0.99544 0.67356 0.54118 0.0
C919 C 0.99397 0.6497 0.52803 0.0
C920 C 0.81788 0.94189 0.23209 0.0
C921 C 0.82185 0.9158 0.22996 0.0
C922 C 0.83893 0.95995 0.23438 0.0
C923 C 0.86475 0.95257 0.23475 0.0
H924 H 0.79837 0.94842 0.23135 0.0
H925 H 0.83486 0.97987 0.23547 0.0
S926 S 0.88517 0.88601 0.23245 0.0
N927 N 0.8532 0.88319 0.23024 0.0
N928 N 0.89278 0.91685 0.23453 0.0
C929 C 0.86885 0.92634 0.23346 0.0
C930 C 0.84741 0.90805 0.23107 0.0
C931 C 0.81458 0.12186 0.23998 0.0
C932 C 0.79889 0.11646 0.26054 0.0
C933 C 0.83597 0.10761 0.23569 0.0
C934 C 0.84255 0.08723 0.25167 0.0
H935 H 0.81057 0.13757 0.22735 0.0
H936 H 0.84746 0.11276 0.21964 0.0
S937 S 0.80682 0.06465 0.3076 0.0
N938 N 0.79073 0.08892 0.29666 0.0
N939 N 0.83101 0.06202 0.28864 0.0
C940 C 0.82676 0.08139 0.27216 0.0
C941 C 0.80497 0.09605 0.2766 0.0
C942 C 0.35154 0.90894 0.96542 0.0
C943 C 0.35681 0.93093 0.98059 0.0
C944 C 0.33205 0.8906 0.97125 0.0
C945 C 0.3166 0.89382 0.99206 0.0
H946 H 0.36267 0.90573 0.94894 0.0
H947 H 0.32908 0.8737 0.95941 0.0
S948 S 0.32244 0.94718 0.03831 0.0
N949 N 0.34522 0.95411 0.01815 0.0
N950 N 0.30763 0.92019 0.02802 0.0
C951 C 0.32106 0.91582 0.00706 0.0
C952 C 0.34136 0.93425 0.00157 0.0
C953 C 0.18822 0.3878 0.26421 0.0
C954 C 0.21319 0.38292 0.25668 0.0
C955 C 0.17921 0.41256 0.2631 0.0
C956 C 0.19491 0.43321 0.25443 0.0
H957 H 0.1755 0.37236 0.27072 0.0
H958 H 0.15978 0.41548 0.26881 0.0
S959 S 0.2631 0.43068 0.23569 0.0
N960 N 0.25421 0.40098 0.24252 0.0
N961 N 0.23753 0.44715 0.24018 0.0
C962 C 0.22021 0.42851 0.24754 0.0
C963 C 0.22928 0.40348 0.24875 0.0
C964 C 0.15521 0.09449 0.48458 0.0
C965 C 0.15366 0.07442 0.50227 0.0
C966 C 0.17536 0.11341 0.48642 0.0
C967 C 0.19522 0.11276 0.50561 0.0
H968 H 0.14058 0.09577 0.4692 0.0
H969 H 0.17537 0.12876 0.47269 0.0
S970 S 0.20082 0.06462 0.55665 0.0
N971 N 0.17396 0.05542 0.53997 0.0
N972 N 0.21259 0.09046 0.54249 0.0
C973 C 0.19458 0.09249 0.52295 0.0
C974 C 0.17366 0.07344 0.52148 0.0
C975 C 0.69294 0.12056 0.75786 0.0
C976 C 0.71977 0.12128 0.75459 0.0
C977 C 0.67886 0.09734 0.76164 0.0
C978 C 0.69113 0.07412 0.76185 0.0
H979 H 0.68294 0.13808 0.75816 0.0
H980 H 0.6583 0.09761 0.76455 0.0
S981 S 0.76102 0.06605 0.75298 0.0
N982 N 0.75791 0.09702 0.75083 0.0
N983 N 0.73178 0.05352 0.75805 0.0
C984 C 0.71791 0.0747 0.75799 0.0
C985 C 0.73214 0.09825 0.75433 0.0
C986 C 0.35504 0.06022 0.55289 0.0
C987 C 0.37087 0.05754 0.53224 0.0
C988 C 0.3335 0.07521 0.55101 0.0
C989 C 0.32699 0.08835 0.52844 0.0
H990 H 0.35945 0.05075 0.57076 0.0
H991 H 0.32227 0.07695 0.56768 0.0
S992 S 0.36201 0.08703 0.46855 0.0
N993 N 0.3784 0.06876 0.48831 0.0
N994 N 0.33787 0.0969 0.48462 0.0
C995 C 0.34233 0.0853 0.50738 0.0
C996 C 0.36426 0.06991 0.50932 0.0
C997 C 0.61915 0.4061 0.49185 0.0
C998 C 0.6251 0.43246 0.4934 0.0
C999 C 0.63874 0.38881 0.49181 0.0
C1000 C 0.66516 0.39713 0.49352 0.0
H1001 H 0.59912 0.39873 0.49104 0.0
H1002 H 0.63301 0.36868 0.49115 0.0
S1003 S 0.69099 0.46447 0.49682 0.0
N1004 N 0.65918 0.46626 0.49578 0.0
N1005 N 0.69613 0.43382 0.4956 0.0
C1006 C 0.67138 0.42356 0.49416 0.0
C1007 C 0.65134 0.4412 0.49412 0.0
C1008 C 0.74652 0.27858 0.40477 0.0
C1009 C 0.72096 0.2783 0.39418 0.0
C1010 C 0.75372 0.29149 0.42754 0.0
C1011 C 0.73573 0.30491 0.44063 0.0
H1012 H 0.76109 0.26837 0.39557 0.0
H1013 H 0.77353 0.2906 0.43511 0.0
S1014 S 0.66651 0.31102 0.42048 0.0
N1015 N 0.6777 0.29315 0.39815 0.0
N1016 N 0.69134 0.31793 0.44082 0.0
C1017 C 0.71032 0.30571 0.42975 0.0
C1018 C 0.70291 0.29231 0.40657 0.0
C1019 C 0.56062 0.98574 0.8485 0.0
C1020 C 0.5416 0.00371 0.84926 0.0
C1021 C 0.57802 0.98602 0.82884 0.0
C1022 C 0.57691 0.00422 0.80919 0.0
H1023 H 0.56287 0.97219 0.86385 0.0
H1024 H 0.59312 0.97257 0.82972 0.0
S1025 S 0.52772 0.05273 0.80069 0.0
N1026 N 0.52067 0.03824 0.82749 0.0
N1027 N 0.55299 0.03875 0.7904 0.0
C1028 C 0.55673 0.02114 0.80892 0.0
C1029 C 0.5392 0.02091 0.82902 0.0
C1030 C 0.25217 0.21115 0.39529 0.0
C1031 C 0.27043 0.19999 0.38058 0.0
C1032 C 0.24852 0.20366 0.42034 0.0
C1033 C 0.26312 0.18473 0.43215 0.0
H1034 H 0.24096 0.22643 0.38763 0.0
H1035 H 0.23439 0.21339 0.43065 0.0
S1036 S 0.3125 0.14829 0.40139 0.0
N1037 N 0.30248 0.16805 0.37906 0.0
N1038 N 0.29599 0.15412 0.42662 0.0
C1039 C 0.28118 0.17294 0.41753 0.0
C1040 C 0.28481 0.18058 0.39173 0.0
C1041 C 0.48688 0.49492 0.83938 0.0
C1042 C 0.47295 0.50061 0.86066 0.0
C1043 C 0.47575 0.4966 0.81468 0.0
C1044 C 0.45032 0.50443 0.81019 0.0
H1045 H 0.50663 0.48914 0.84187 0.0
H1046 H 0.48747 0.49217 0.79895 0.0
S1047 S 0.40561 0.52115 0.85979 0.0
N1048 N 0.43237 0.51388 0.87604 0.0
N1049 N 0.41137 0.51755 0.8294 0.0
C1050 C 0.43609 0.51009 0.8314 0.0
C1051 C 0.4474 0.50798 0.85669 0.0
C1052 C 0.76813 0.70705 0.12594 0.0
C1053 C 0.74362 0.71729 0.12658 0.0
C1054 C 0.77406 0.69104 0.10599 0.0
C1055 C 0.75581 0.68508 0.08585 0.0
H1056 H 0.78309 0.71211 0.14055 0.0
H1057 H 0.79352 0.68451 0.10559 0.0
S1058 S 0.68794 0.70426 0.08019 0.0
N1059 N 0.70028 0.71845 0.10649 0.0
N1060 N 0.71144 0.6881 0.06918 0.0
C1061 C 0.73079 0.69389 0.08704 0.0
C1062 C 0.72467 0.71004 0.10742 0.0
C1063 C 0.96989 0.01027 0.15084 0.0
C1064 C 0.95534 0.01303 0.12775 0.0
C1065 C 0.95888 0.01368 0.17434 0.0
C1066 C 0.93294 0.02012 0.17564 0.0
H1067 H 0.99025 0.00648 0.15078 0.0
H1068 H 0.97114 0.01221 0.19156 0.0
S1069 S 0.88557 0.02597 0.12073 0.0
N1070 N 0.9129 0.01979 0.10769 0.0
N1071 N 0.89229 0.02667 0.15179 0.0
C1072 C 0.91783 0.02171 0.15272 0.0
C1073 C 0.929 0.01806 0.12881 0.0
C1074 C 0.26426 0.82462 0.12417 0.0
C1075 C 0.28561 0.80924 0.12585 0.0
C1076 C 0.25688 0.83639 0.10126 0.0
C1077 C 0.27031 0.83286 0.07904 0.0
H1078 H 0.25269 0.82696 0.14053 0.0
H1079 H 0.2397 0.84726 0.10068 0.0
S1080 S 0.32941 0.79679 0.0742 0.0
N1081 N 0.32141 0.79278 0.10399 0.0
N1082 N 0.30762 0.81507 0.06093 0.0
C1083 C 0.29254 0.81866 0.08082 0.0
C1084 C 0.3002 0.80684 0.10426 0.0
C1085 C 0.07287 0.48792 0.17601 0.0
C1086 C 0.07413 0.50258 0.15371 0.0
C1087 C 0.09257 0.49041 0.19542 0.0
C1088 C 0.11447 0.50717 0.19285 0.0
H1089 H 0.05662 0.47437 0.17837 0.0
H1090 H 0.09101 0.47859 0.21219 0.0
S1091 S 0.12654 0.55013 0.13824 0.0
N1092 N 0.0985 0.53481 0.13038 0.0
N1093 N 0.13576 0.5392 0.16651 0.0
C1094 C 0.11574 0.52211 0.17071 0.0
C1095 C 0.0955 0.51989 0.15122 0.0
C1096 C 0.44052 0.74759 0.31886 0.0
C1097 C 0.41418 0.7437 0.32391 0.0
C1098 C 0.45972 0.74945 0.33879 0.0
C1099 C 0.45323 0.74758 0.36449 0.0
H1100 H 0.44635 0.7485 0.29937 0.0
H1101 H 0.47981 0.75189 0.33397 0.0
S1102 S 0.3864 0.74034 0.38748 0.0
N1103 N 0.38229 0.74009 0.35615 0.0
N1104 N 0.41802 0.74361 0.39362 0.0
C1105 C 0.42673 0.74463 0.36966 0.0
C1106 C 0.40732 0.7427 0.34938 0.0
C1107 C 0.98206 0.35895 0.9664 0.0
C1108 C 0.00192 0.37821 0.96541 0.0
C1109 C 0.98482 0.33486 0.95596 0.0
C1110 C 0.00747 0.32911 0.94386 0.0
H1111 H 0.96466 0.36219 0.97627 0.0
H1112 H 0.96923 0.32045 0.95786 0.0
S1113 S 0.0642 0.37387 0.93424 0.0
N1114 N 0.04425 0.39069 0.95001 0.0
N1115 N 0.04948 0.34535 0.93012 0.0
C1116 C 0.02699 0.34862 0.94166 0.0
C1117 C 0.02425 0.37315 0.95256 0.0
C1118 C 0.63132 0.7747 0.32219 0.0
C1119 C 0.62672 0.79607 0.30701 0.0
C1120 C 0.61559 0.76809 0.34223 0.0
C1121 C 0.59437 0.78239 0.34775 0.0
H1122 H 0.64738 0.76306 0.31863 0.0
H1123 H 0.62 0.75138 0.35329 0.0
S1124 S 0.57409 0.84017 0.31345 0.0
N1125 N 0.59971 0.83169 0.29869 0.0
N1126 N 0.56968 0.81909 0.33632 0.0
C1127 C 0.5895 0.80386 0.33266 0.0
C1128 C 0.60583 0.81078 0.31235 0.0
C1129 C 0.02939 0.14263 0.92377 0.0
C1130 C 0.02374 0.13839 0.94934 0.0
C1131 C 0.03156 0.16737 0.91388 0.0
C1132 C 0.02821 0.18879 0.92921 0.0
H1133 H 0.03224 0.12671 0.91133 0.0
H1134 H 0.03613 0.16971 0.89411 0.0
S1135 S 0.01453 0.18785 0.99788 0.0
N1136 N 0.01569 0.15758 0.99003 0.0
N1137 N 0.01969 0.20398 0.97155 0.0
C1138 C 0.02246 0.18474 0.95482 0.0
C1139 C 0.02025 0.15957 0.96485 0.0
C1140 C 0.41453 0.26561 0.18935 0.0
C1141 C 0.38891 0.27191 0.18316 0.0
C1142 C 0.43245 0.26345 0.17038 0.0
C1143 C 0.42526 0.26718 0.14449 0.0
H1144 H 0.42074 0.26224 0.209 0.0
H1145 H 0.45183 0.25811 0.17601 0.0
S1146 S 0.36045 0.28436 0.11843 0.0
N1147 N 0.35728 0.28205 0.14943 0.0
N1148 N 0.3908 0.27823 0.11387 0.0
C1149 C 0.39977 0.27393 0.13816 0.0
C1150 C 0.38164 0.27623 0.15746 0.0
C1151 C 0.51063 0.35845 0.05489 0.0
C1152 C 0.53352 0.36711 0.04354 0.0
C1153 C 0.50758 0.33354 0.06427 0.0
C1154 C 0.52716 0.31622 0.06226 0.0
H1155 H 0.49478 0.37092 0.05619 0.0
H1156 H 0.48933 0.32757 0.07225 0.0
S1157 S 0.59134 0.33001 0.03514 0.0
N1158 N 0.57646 0.3568 0.03164 0.0
N1159 N 0.57084 0.31007 0.04918 0.0
C1160 C 0.55047 0.32495 0.05162 0.0
C1161 C 0.55363 0.35036 0.04231 0.0
C1162 C 0.60225 0.20719 0.16047 0.0
C1163 C 0.6042 0.22431 0.18122 0.0
C1164 C 0.58394 0.20975 0.14017 0.0
C1165 C 0.56643 0.2292 0.14 0.0
H1166 H 0.61492 0.19154 0.15988 0.0
H1167 H 0.58334 0.19622 0.12457 0.0
S1168 S 0.56377 0.27968 0.18888 0.0
N1169 N 0.58752 0.26222 0.19955 0.0
N1170 N 0.5523 0.26619 0.16192 0.0
C1171 C 0.56782 0.24629 0.16065 0.0
C1172 C 0.58686 0.24404 0.18112 0.0
C1173 C 0.49565 0.15143 0.02492 0.0
C1174 C 0.48714 0.12843 0.03622 0.0
C1175 C 0.49752 0.17434 0.0387 0.0
C1176 C 0.49081 0.17518 0.06428 0.0
H1177 H 0.49996 0.15195 0.00498 0.0
H1178 H 0.50327 0.19166 0.02886 0.0
S1179 S 0.47092 0.11965 0.10369 0.0
N1180 N 0.47468 0.10744 0.07527 0.0
N1181 N 0.47767 0.15056 0.10106 0.0
C1182 C 0.48346 0.15212 0.07617 0.0
C1183 C 0.48172 0.12876 0.06216 0.0
C1184 C 0.3258 0.43368 0.74564 0.0
C1185 C 0.32365 0.41488 0.72644 0.0
C1186 C 0.34588 0.45283 0.7462 0.0
C1187 C 0.36469 0.45358 0.7278 0.0
H1188 H 0.31225 0.43327 0.76068 0.0
H1189 H 0.34713 0.46669 0.76154 0.0
S1190 S 0.36587 0.41109 0.67166 0.0
N1191 N 0.34049 0.40014 0.68695 0.0
N1192 N 0.37876 0.4354 0.68874 0.0
C1193 C 0.36235 0.43544 0.70812 0.0
C1194 C 0.3417 0.41628 0.70725 0.0
C1195 C 0.30802 0.59638 0.77462 0.0
C1196 C 0.29983 0.61598 0.75846 0.0
C1197 C 0.32962 0.58263 0.76926 0.0
C1198 C 0.34403 0.58825 0.74774 0.0
H1199 H 0.29756 0.59155 0.79143 0.0
H1200 H 0.33516 0.56765 0.78219 0.0
S1201 S 0.33079 0.63856 0.69994 0.0
N1202 N 0.30796 0.64074 0.72049 0.0
N1203 N 0.34839 0.61513 0.71028 0.0
C1204 C 0.33601 0.60799 0.73155 0.0
C1205 C 0.31396 0.62177 0.73693 0.0
C1206 C 0.86028 0.40236 0.48411 0.0
C1207 C 0.85482 0.42807 0.48119 0.0
C1208 C 0.84102 0.38398 0.49031 0.0
C1209 C 0.81534 0.39044 0.49382 0.0
H1210 H 0.8798 0.39644 0.48213 0.0
H1211 H 0.84652 0.36453 0.49257 0.0
S1212 S 0.79071 0.45518 0.48683 0.0
N1213 N 0.82178 0.45908 0.48114 0.0
N1214 N 0.78543 0.42461 0.49294 0.0
C1215 C 0.8095 0.41612 0.49048 0.0
C1216 C 0.82925 0.43489 0.4842 0.0
C1217 C 0.68612 0.88821 0.76446 0.0
C1218 C 0.70999 0.88211 0.75503 0.0
C1219 C 0.67771 0.91316 0.76288 0.0
C1220 C 0.69292 0.93291 0.75188 0.0
H1221 H 0.6739 0.87362 0.77315 0.0
H1222 H 0.65926 0.91699 0.77049 0.0
S1223 S 0.75802 0.92688 0.72609 0.0
N1224 N 0.7493 0.89796 0.73561 0.0
N1225 N 0.73366 0.94443 0.73221 0.0
C1226 C 0.71692 0.92688 0.74247 0.0
C1227 C 0.72541 0.90163 0.74417 0.0
C1228 C 0.65008 0.59991 0.00598 0.0
C1229 C 0.65586 0.57428 0.00363 0.0
C1230 C 0.6697 0.61909 0.0101 0.0
C1231 C 0.69609 0.61356 0.01194 0.0
H1232 H 0.63012 0.60522 0.00456 0.0
H1233 H 0.66397 0.63849 0.0116 0.0
S1234 S 0.72146 0.54913 0.00722 0.0
N1235 N 0.68967 0.54411 0.00356 0.0
N1236 N 0.7268 0.58013 0.0114 0.0
C1237 C 0.70214 0.58785 0.00997 0.0
C1238 C 0.682 0.56824 0.00584 0.0
C1239 C 0.22943 0.5961 0.24433 0.0
C1240 C 0.21933 0.62002 0.24755 0.0
C1241 C 0.21456 0.57366 0.24863 0.0
C1242 C 0.189 0.57421 0.25654 0.0
H1243 H 0.24921 0.59473 0.23883 0.0
H1244 H 0.2236 0.55578 0.24653 0.0
S1245 S 0.15315 0.63222 0.26654 0.0
N1246 N 0.18201 0.64318 0.25809 0.0
N1247 N 0.15385 0.60087 0.26634 0.0
C1248 C 0.17836 0.59806 0.2591 0.0
C1249 C 0.19355 0.621 0.25451 0.0
C1250 C 0.89207 0.59741 0.01887 0.0
C1251 C 0.88527 0.57119 0.01911 0.0
C1252 C 0.87316 0.61531 0.01587 0.0
C1253 C 0.84658 0.60777 0.01314 0.0
H1254 H 0.91222 0.6042 0.02137 0.0
H1255 H 0.87952 0.63529 0.01635 0.0
S1256 S 0.81869 0.5411 0.0115 0.0
N1257 N 0.85028 0.53834 0.01555 0.0
N1258 N 0.81457 0.57196 0.00982 0.0
C1259 C 0.83955 0.58149 0.01248 0.0
C1260 C 0.85892 0.56322 0.01548 0.0
C1261 C 0.12118 0.90767 0.99561 0.0
C1262 C 0.12724 0.93402 0.997 0.0
C1263 C 0.14067 0.89033 0.99477 0.0
C1264 C 0.1671 0.89859 0.99549 0.0
H1265 H 0.10116 0.90035 0.99551 0.0
H1266 H 0.13488 0.87022 0.99424 0.0
S1267 S 0.19315 0.96588 0.99816 0.0
N1268 N 0.1614 0.96774 0.99829 0.0
N1269 N 0.19816 0.93521 0.99661 0.0
C1270 C 0.1734 0.92501 0.99602 0.0
C1271 C 0.15346 0.94269 0.9968 0.0
loop_
_geom_bond_atom_site_label_1
_geom_bond_atom_site_label_2
_geom_bond_distance
_geom_bond_site_symmetry_2
_ccdc_geom_bond_type
C0 C1 1.384 . S
C0 H13 0.947 . S
C0 C35 1.382 . S
C1 C0 1.384 . S
C1 C2 1.378 . S
C2 C1 1.378 . S
C2 C3 1.378 1_655 S
C2 H14 0.952 1_545 S
C3 C2 1.378 1_455 S
C3 H15 0.950 . S
C3 C34 1.383 . S
H4 C23 0.947 . S
H5 C24 0.946 . S
H6 C26 0.953 . S
H7 C27 0.945 1_556 S
H8 C29 0.952 . S
H9 C30 0.949 . S
H10 C32 0.950 1_655 S
H11 C33 0.948 . S
H12 C35 0.951 . S
H13 C0 0.947 . S
H14 C2 0.952 1_565 S
H15 C3 0.950 . S
N16 C19 1.382 . S
N16 C21 1.363 . S
N17 C19 1.371 . S
N17 C20 1.372 . S
N18 C20 1.361 . S
N18 C21 1.377 . S
C19 N16 1.382 . S
C19 N17 1.371 . S
C19 C22 1.480 . S
C20 N17 1.372 . S
C20 N18 1.361 . S
C20 C28 1.457 1_554 S
C21 N16 1.363 . S
C21 N18 1.377 . S
C21 C34 1.479 . S
C22 C19 1.480 . S
C22 C23 1.383 1_545 S
C22 C27 1.385 . S
C23 H4 0.947 . S
C23 C22 1.383 1_565 S
C23 C24 1.388 . S
C24 H5 0.946 . S
C24 C23 1.388 . S
C24 C25 1.384 . S
C25 C24 1.384 . S
C25 C26 1.377 1_554 S
C26 H6 0.953 . S
C26 C25 1.377 1_556 S
C26 C27 1.369 1_566 S
C27 H7 0.945 1_554 S
C27 C22 1.385 . S
C27 C26 1.369 1_544 S
C28 C20 1.457 1_556 S
C28 C29 1.372 . S
C28 C33 1.364 1_556 S
C29 H8 0.952 . S
C29 C28 1.372 . S
C29 C30 1.389 . S
C30 H9 0.949 . S
C30 C29 1.389 . S
C30 C31 1.387 . S
C31 C30 1.387 . S
C31 C32 1.372 . S
C32 H10 0.950 1_455 S
C32 C31 1.372 . S
C32 C33 1.379 1_556 S
C33 H11 0.948 . S
C33 C28 1.364 1_554 S
C33 C32 1.379 1_554 S
C34 C3 1.383 . S
C34 C21 1.479 . S
C34 C35 1.398 1_455 S
C35 C0 1.382 . S
C35 H12 0.951 . S
C35 C34 1.398 1_655 S
C36 C37 1.384 . S
C36 H49 0.947 . S
C36 C71 1.382 . S
C37 C36 1.384 . S
C37 C38 1.378 . S
C38 C37 1.378 . S
C38 C39 1.378 . S
C38 H50 0.952 . S
C39 C38 1.378 . S
C39 H51 0.950 . S
C39 C70 1.383 . S
H40 C59 0.947 . S
H41 C60 0.946 . S
H42 C62 0.953 . S
H43 C63 0.945 . S
H44 C65 0.952 . S
H45 C66 0.949 . S
H46 C68 0.950 . S
H47 C69 0.948 . S
H48 C71 0.951 . S
H49 C36 0.947 . S
H50 C38 0.952 . S
H51 C39 0.950 . S
N52 C55 1.382 . S
N52 C57 1.363 . S
N53 C55 1.371 . S
N53 C56 1.372 . S
N54 C56 1.361 . S
N54 C57 1.377 . S
C55 N52 1.382 . S
C55 N53 1.371 . S
C55 C58 1.480 . S
C56 N53 1.372 . S
C56 N54 1.361 . S
C56 C64 1.457 . S
C57 N52 1.363 . S
C57 N54 1.377 . S
C57 C70 1.479 . S
C58 C55 1.480 . S
C58 C59 1.383 . S
C58 C63 1.385 . S
C59 H40 0.947 . S
C59 C58 1.383 . S
C59 C60 1.388 . S
C60 H41 0.946 . S
C60 C59 1.388 . S
C60 C61 1.384 . S
C61 C60 1.384 . S
C61 C62 1.377 . S
C62 H42 0.953 . S
C62 C61 1.377 . S
C62 C63 1.369 . S
C63 H43 0.945 . S
C63 C58 1.385 . S
C63 C62 1.369 . S
C64 C56 1.457 . S
C64 C65 1.372 . S
C64 C69 1.364 . S
C65 H44 0.952 . S
C65 C64 1.372 . S
C65 C66 1.389 . S
C66 H45 0.949 . S
C66 C65 1.389 . S
C66 C67 1.387 . S
C67 C66 1.387 . S
C67 C68 1.372 . S
C68 H46 0.950 . S
C68 C67 1.372 . S
C68 C69 1.379 . S
C69 H47 0.948 . S
C69 C64 1.364 . S
C69 C68 1.379 . S
C70 C39 1.383 . S
C70 C57 1.479 . S
C70 C71 1.398 . S
C71 C36 1.382 . S
C71 H48 0.951 . S
C71 C70 1.398 . S
C72 C73 1.384 1_454 S
C72 H85 0.947 . S
C72 C107 1.382 . S
C73 C72 1.384 1_656 S
C73 C74 1.378 . S
C74 C73 1.378 . S
C74 C75 1.378 . S
C74 H86 0.952 . S
C75 C74 1.378 . S
C75 H87 0.950 . S
C75 C106 1.383 1_556 S
H76 C95 0.947 . S
H77 C96 0.946 . S
H78 C98 0.953 . S
H79 C99 0.945 . S
H80 C101 0.952 1_655 S
H81 C102 0.949 . S
H82 C104 0.950 . S
H83 C105 0.948 . S
H84 C107 0.951 . S
H85 C72 0.947 . S
H86 C74 0.952 . S
H87 C75 0.950 . S
N88 C91 1.382 . S
N88 C93 1.363 . S
N89 C91 1.371 . S
N89 C92 1.372 . S
N90 C92 1.361 1_455 S
N90 C93 1.377 1_455 S
C91 N88 1.382 . S
C91 N89 1.371 . S
C91 C94 1.480 . S
C92 N89 1.372 . S
C92 N90 1.361 1_655 S
C92 C100 1.457 1_655 S
C93 N88 1.363 . S
C93 N90 1.377 1_655 S
C93 C106 1.479 . S
C94 C91 1.480 . S
C94 C95 1.383 . S
C94 C99 1.385 . S
C95 H76 0.947 . S
C95 C94 1.383 . S
C95 C96 1.388 . S
C96 H77 0.946 . S
C96 C95 1.388 . S
C96 C97 1.384 . S
C97 C96 1.384 . S
C97 C98 1.377 . S
C98 H78 0.953 . S
C98 C97 1.377 . S
C98 C99 1.369 . S
C99 H79 0.945 . S
C99 C94 1.385 . S
C99 C98 1.369 . S
C100 C92 1.457 1_455 S
C100 C101 1.372 . S
C100 C105 1.364 . S
C101 H80 0.952 1_455 S
C101 C100 1.372 . S
C101 C102 1.389 . S
C102 H81 0.949 . S
C102 C101 1.389 . S
C102 C103 1.387 . S
C103 C102 1.387 . S
C103 C104 1.372 . S
C104 H82 0.950 . S
C104 C103 1.372 . S
C104 C105 1.379 . S
C105 H83 0.948 . S
C105 C100 1.364 . S
C105 C104 1.379 . S
C106 C75 1.383 1_554 S
C106 C93 1.479 . S
C106 C107 1.398 1_655 S
C107 C72 1.382 . S
C107 H84 0.951 . S
C107 C106 1.398 1_455 S
C108 C109 1.384 . S
C108 H121 0.947 . S
C108 C143 1.382 . S
C109 C108 1.384 . S
C109 C110 1.378 . S
C110 C109 1.378 . S
C110 C111 1.378 . S
C110 H122 0.952 . S
C111 C110 1.378 . S
C111 H123 0.950 . S
C111 C142 1.383 . S
H112 C131 0.947 . S
H113 C132 0.946 . S
H114 C134 0.953 . S
H115 C135 0.945 . S
H116 C137 0.952 . S
H117 C138 0.949 . S
H118 C140 0.950 . S
H119 C141 0.948 . S
H120 C143 0.951 . S
H121 C108 0.947 . S
H122 C110 0.952 . S
H123 C111 0.950 . S
N124 C127 1.382 . S
N124 C129 1.363 . S
N125 C127 1.371 . S
N125 C128 1.372 . S
N126 C128 1.361 . S
N126 C129 1.377 . S
C127 N124 1.382 . S
C127 N125 1.371 . S
C127 C130 1.480 . S
C128 N125 1.372 . S
C128 N126 1.361 . S
C128 C136 1.457 . S
C129 N124 1.363 . S
C129 N126 1.377 . S
C129 C142 1.479 . S
C130 C127 1.480 . S
C130 C131 1.383 . S
C130 C135 1.385 . S
C131 H112 0.947 . S
C131 C130 1.383 . S
C131 C132 1.388 . S
C132 H113 0.946 . S
C132 C131 1.388 . S
C132 C133 1.384 . S
C133 C132 1.384 . S
C133 C134 1.377 . S
C134 H114 0.953 . S
C134 C133 1.377 . S
C134 C135 1.369 . S
C135 H115 0.945 . S
C135 C130 1.385 . S
C135 C134 1.369 . S
C136 C128 1.457 . S
C136 C137 1.372 . S
C136 C141 1.364 . S
C137 H116 0.952 . S
C137 C136 1.372 . S
C137 C138 1.389 . S
C138 H117 0.949 . S
C138 C137 1.389 . S
C138 C139 1.387 . S
C139 C138 1.387 . S
C139 C140 1.372 . S
C140 H118 0.950 . S
C140 C139 1.372 . S
C140 C141 1.379 . S
C141 H119 0.948 . S
C141 C136 1.364 . S
C141 C140 1.379 . S
C142 C111 1.383 . S
C142 C129 1.479 . S
C142 C143 1.398 . S
C143 C108 1.382 . S
C143 H120 0.951 . S
C143 C142 1.398 . S
C144 C145 1.384 . S
C144 H157 0.947 . S
C144 C179 1.382 . S
C145 C144 1.384 . S
C145 C146 1.378 . S
C146 C145 1.378 . S
C146 C147 1.378 . S
C146 H158 0.952 . S
C147 C146 1.378 . S
C147 H159 0.950 . S
C147 C178 1.383 . S
H148 C167 0.947 . S
H149 C168 0.946 . S
H150 C170 0.953 . S
H151 C171 0.939 1_545 S
H152 C173 0.952 . S
H153 C174 0.949 . S
H154 C176 0.950 . S
H155 C177 0.948 . S
H156 C179 0.951 . S
H157 C144 0.947 . S
H158 C146 0.952 . S
H159 C147 0.950 . S
N160 C163 1.382 . S
N160 C165 1.363 . S
N161 C163 1.371 . S
N161 C164 1.372 . S
N162 C164 1.361 . S
N162 C165 1.377 . S
C163 N160 1.382 . S
C163 N161 1.371 . S
C163 C166 1.480 . S
C164 N161 1.372 . S
C164 N162 1.361 . S
C164 C172 1.457 1_565 S
C165 N160 1.363 . S
C165 N162 1.377 . S
C165 C178 1.479 . S
C166 C163 1.480 . S
C166 C167 1.383 1_455 S
C166 C171 1.394 . S
C167 H148 0.947 . S
C167 C166 1.383 1_655 S
C167 C168 1.388 . S
C168 H149 0.946 . S
C168 C167 1.388 . S
C168 C169 1.384 . S
C169 C168 1.384 . S
C169 C170 1.377 1_665 S
C170 H150 0.953 . S
C170 C169 1.377 1_445 S
C170 C171 1.366 1_545 S
C171 H151 0.939 1_565 S
C171 C166 1.394 . S
C171 C170 1.366 1_565 S
C172 C164 1.457 1_545 S
C172 C173 1.372 . S
C172 C177 1.364 1_545 S
C173 H152 0.952 . S
C173 C172 1.372 . S
C173 C174 1.389 . S
C174 H153 0.949 . S
C174 C173 1.389 . S
C174 C175 1.387 . S
C175 C174 1.387 . S
C175 C176 1.372 . S
C176 H154 0.950 . S
C176 C175 1.372 . S
C176 C177 1.379 1_545 S
C177 H155 0.948 . S
C177 C172 1.364 1_565 S
C177 C176 1.379 1_565 S
C178 C147 1.383 . S
C178 C165 1.479 . S
C178 C179 1.398 . S
C179 C144 1.382 . S
C179 H156 0.951 . S
C179 C178 1.398 . S
C180 C181 1.384 . S
C180 H193 0.947 . S
C180 C215 1.382 . S
C181 C180 1.384 . S
C181 C182 1.378 . S
C182 C181 1.378 . S
C182 C183 1.378 . S
C182 H194 0.952 . S
C183 C182 1.378 . S
C183 H195 0.950 . S
C183 C214 1.383 . S
H184 C203 0.947 . S
H185 C204 0.946 . S
H186 C206 0.953 . S
H187 C207 0.945 . S
H188 C209 0.952 . S
H189 C210 0.949 . S
H190 C212 0.950 . S
H191 C213 0.948 . S
H192 C215 0.951 . S
H193 C180 0.947 . S
H194 C182 0.952 . S
H195 C183 0.950 . S
N196 C199 1.382 . S
N196 C201 1.363 . S
N197 C199 1.371 . S
N197 C200 1.372 . S
N198 C200 1.361 . S
N198 C201 1.377 . S
C199 N196 1.382 . S
C199 N197 1.371 . S
C199 C202 1.480 . S
C200 N197 1.372 . S
C200 N198 1.361 . S
C200 C208 1.457 . S
C201 N196 1.363 . S
C201 N198 1.377 . S
C201 C214 1.479 . S
C202 C199 1.480 . S
C202 C203 1.383 . S
C202 C207 1.385 . S
C203 H184 0.947 . S
C203 C202 1.383 . S
C203 C204 1.388 . S
C204 H185 0.946 . S
C204 C203 1.388 . S
C204 C205 1.384 . S
C205 C204 1.384 . S
C205 C206 1.377 . S
C206 H186 0.953 . S
C206 C205 1.377 . S
C206 C207 1.369 . S
C207 H187 0.945 . S
C207 C202 1.385 . S
C207 C206 1.369 . S
C208 C200 1.457 . S
C208 C209 1.372 . S
C208 C213 1.364 . S
C209 H188 0.952 . S
C209 C208 1.372 . S
C209 C210 1.389 . S
C210 H189 0.949 . S
C210 C209 1.389 . S
C210 C211 1.387 . S
C211 C210 1.387 . S
C211 C212 1.372 . S
C212 H190 0.950 . S
C212 C211 1.372 . S
C212 C213 1.379 . S
C213 H191 0.948 . S
C213 C208 1.364 . S
C213 C212 1.379 . S
C214 C183 1.383 . S
C214 C201 1.479 . S
C214 C215 1.398 . S
C215 C180 1.382 . S
C215 H192 0.951 . S
C215 C214 1.398 . S
C216 C217 1.384 . S
C216 H229 0.947 1_655 S
C216 C251 1.382 . S
C217 C216 1.384 . S
C217 C218 1.378 . S
C218 C217 1.378 . S
C218 C219 1.378 . S
C218 H230 0.952 . S
C219 C218 1.378 . S
C219 H231 0.950 . S
C219 C250 1.383 . S
H220 C239 0.947 . S
H221 C240 0.946 . S
H222 C242 0.953 . S
H223 C243 0.945 . S
H224 C245 0.952 . S
H225 C246 0.949 . S
H226 C248 0.950 . S
H227 C249 0.948 . S
H228 C251 0.951 1_455 S
H229 C216 0.947 1_455 S
H230 C218 0.952 . S
H231 C219 0.950 . S
N232 C235 1.382 . S
N232 C237 1.363 . S
N233 C235 1.371 . S
N233 C236 1.372 . S
N234 C236 1.361 . S
N234 C237 1.377 . S
C235 N232 1.382 . S
C235 N233 1.371 . S
C235 C238 1.480 . S
C236 N233 1.372 . S
C236 N234 1.361 . S
C236 C244 1.457 1_655 S
C237 N232 1.363 . S
C237 N234 1.377 . S
C237 C250 1.479 . S
C238 C235 1.480 . S
C238 C239 1.383 . S
C238 C243 1.385 . S
C239 H220 0.947 . S
C239 C238 1.383 . S
C239 C240 1.388 . S
C240 H221 0.946 . S
C240 C239 1.388 . S
C240 C241 1.384 . S
C241 C240 1.384 . S
C241 C242 1.377 . S
C242 H222 0.953 . S
C242 C241 1.377 . S
C242 C243 1.369 . S
C243 H223 0.945 . S
C243 C238 1.385 . S
C243 C242 1.369 . S
C244 C236 1.457 1_455 S
C244 C245 1.372 1_455 S
C244 C249 1.364 . S
C245 H224 0.952 . S
C245 C244 1.372 1_655 S
C245 C246 1.389 1_655 S
C246 H225 0.949 . S
C246 C245 1.389 1_455 S
C246 C247 1.387 . S
C247 C246 1.387 . S
C247 C248 1.372 . S
C248 H226 0.950 . S
C248 C247 1.372 . S
C248 C249 1.379 . S
C249 H227 0.948 . S
C249 C244 1.364 . S
C249 C248 1.379 . S
C250 C219 1.383 . S
C250 C237 1.479 . S
C250 C251 1.398 . S
C251 C216 1.382 . S
C251 H228 0.951 1_655 S
C251 C250 1.398 . S
C252 C253 1.384 . S
C252 H265 0.947 . S
C252 C287 1.382 . S
C253 C252 1.384 . S
C253 C254 1.378 . S
C254 C253 1.378 . S
C254 C255 1.378 . S
C254 H266 0.952 . S
C255 C254 1.378 . S
C255 H267 0.950 . S
C255 C286 1.383 . S
H256 C275 0.947 . S
H257 C276 0.946 . S
H258 C278 0.953 . S
H259 C279 0.945 . S
H260 C281 0.952 . S
H261 C282 0.949 . S
H262 C284 0.950 . S
H263 C285 0.948 . S
H264 C287 0.951 . S
H265 C252 0.947 . S
H266 C254 0.952 . S
H267 C255 0.950 . S
N268 C271 1.382 . S
N268 C273 1.363 . S
N269 C271 1.371 . S
N269 C272 1.372 . S
N270 C272 1.361 . S
N270 C273 1.377 . S
C271 N268 1.382 . S
C271 N269 1.371 . S
C271 C274 1.480 . S
C272 N269 1.372 . S
C272 N270 1.361 . S
C272 C280 1.457 . S
C273 N268 1.363 . S
C273 N270 1.377 . S
C273 C286 1.479 . S
C274 C271 1.480 . S
C274 C275 1.383 . S
C274 C279 1.385 . S
C275 H256 0.947 . S
C275 C274 1.383 . S
C275 C276 1.388 . S
C276 H257 0.946 . S
C276 C275 1.388 . S
C276 C277 1.384 . S
C277 C276 1.384 . S
C277 C278 1.377 . S
C278 H258 0.953 . S
C278 C277 1.377 . S
C278 C279 1.369 . S
C279 H259 0.945 . S
C279 C274 1.385 . S
C279 C278 1.369 . S
C280 C272 1.457 . S
C280 C281 1.372 . S
C280 C285 1.364 . S
C281 H260 0.952 . S
C281 C280 1.372 . S
C281 C282 1.389 . S
C282 H261 0.949 . S
C282 C281 1.389 . S
C282 C283 1.387 . S
C283 C282 1.387 . S
C283 C284 1.372 . S
C284 H262 0.950 . S
C284 C283 1.372 . S
C284 C285 1.379 . S
C285 H263 0.948 . S
C285 C280 1.364 . S
C285 C284 1.379 . S
C286 C255 1.383 . S
C286 C273 1.479 . S
C286 C287 1.398 . S
C287 C252 1.382 . S
C287 H264 0.951 . S
C287 C286 1.398 . S
C288 C289 1.384 . S
C288 H301 0.947 . S
C288 C323 1.382 . S
C289 C288 1.384 . S
C289 C290 1.378 . S
C290 C289 1.378 . S
C290 C291 1.378 . S
C290 H302 0.952 . S
C291 C290 1.378 . S
C291 H303 0.950 . S
C291 C322 1.383 . S
H292 C311 0.947 . S
H293 C312 0.946 . S
H294 C314 0.953 . S
H295 C315 0.945 . S
H296 C317 0.952 . S
H297 C318 0.949 . S
H298 C320 0.950 . S
H299 C321 0.948 . S
H300 C323 0.951 . S
H301 C288 0.947 . S
H302 C290 0.952 . S
H303 C291 0.950 . S
N304 C307 1.382 . S
N304 C309 1.363 . S
N305 C307 1.371 . S
N305 C308 1.372 . S
N306 C308 1.361 . S
N306 C309 1.377 . S
C307 N304 1.382 . S
C307 N305 1.371 . S
C307 C310 1.480 . S
C308 N305 1.372 . S
C308 N306 1.361 . S
C308 C316 1.457 . S
C309 N304 1.363 . S
C309 N306 1.377 . S
C309 C322 1.479 . S
C310 C307 1.480 . S
C310 C311 1.383 . S
C310 C315 1.385 . S
C311 H292 0.947 . S
C311 C310 1.383 . S
C311 C312 1.388 . S
C312 H293 0.946 . S
C312 C311 1.388 . S
C312 C313 1.384 . S
C313 C312 1.384 . S
C313 C314 1.377 . S
C314 H294 0.953 . S
C314 C313 1.377 . S
C314 C315 1.369 . S
C315 H295 0.945 . S
C315 C310 1.385 . S
C315 C314 1.369 . S
C316 C308 1.457 . S
C316 C317 1.372 . S
C316 C321 1.364 . S
C317 H296 0.952 . S
C317 C316 1.372 . S
C317 C318 1.389 . S
C318 H297 0.949 . S
C318 C317 1.389 . S
C318 C319 1.387 . S
C319 C318 1.387 . S
C319 C320 1.372 . S
C320 H298 0.950 . S
C320 C319 1.372 . S
C320 C321 1.379 . S
C321 H299 0.948 . S
C321 C316 1.364 . S
C321 C320 1.379 . S
C322 C291 1.383 . S
C322 C309 1.479 . S
C322 C323 1.398 . S
C323 C288 1.382 . S
C323 H300 0.951 . S
C323 C322 1.398 . S
C324 C325 1.384 . S
C324 H337 0.947 . S
C324 C359 1.382 . S
C325 C324 1.384 . S
C325 C326 1.378 . S
C326 C325 1.378 . S
C326 C327 1.378 . S
C326 H338 0.952 . S
C327 C326 1.378 . S
C327 H339 0.950 . S
C327 C358 1.383 . S
H328 C347 0.947 . S
H329 C348 0.946 . S
H330 C350 0.953 . S
H331 C351 0.945 . S
H332 C353 0.952 1_545 S
H333 C354 0.949 1_545 S
H334 C356 0.950 . S
H335 C357 0.948 . S
H336 C359 0.951 . S
H337 C324 0.947 . S
H338 C326 0.952 . S
H339 C327 0.950 . S
N340 C343 1.382 . S
N340 C345 1.363 . S
N341 C343 1.371 . S
N341 C344 1.372 . S
N342 C344 1.361 . S
N342 C345 1.377 . S
C343 N340 1.382 . S
C343 N341 1.371 . S
C343 C346 1.480 1_565 S
C344 N341 1.372 . S
C344 N342 1.361 . S
C344 C352 1.457 . S
C345 N340 1.363 . S
C345 N342 1.377 . S
C345 C358 1.479 . S
C346 C343 1.480 1_545 S
C346 C347 1.383 1_545 S
C346 C351 1.385 . S
C347 H328 0.947 . S
C347 C346 1.383 1_565 S
C347 C348 1.388 1_565 S
C348 H329 0.946 . S
C348 C347 1.388 1_545 S
C348 C349 1.384 . S
C349 C348 1.384 . S
C349 C350 1.377 . S
C350 H330 0.953 . S
C350 C349 1.377 . S
C350 C351 1.369 . S
C351 H331 0.945 . S
C351 C346 1.385 . S
C351 C350 1.369 . S
C352 C344 1.457 . S
C352 C353 1.372 . S
C352 C357 1.364 . S
C353 H332 0.952 1_565 S
C353 C352 1.372 . S
C353 C354 1.389 . S
C354 H333 0.949 1_565 S
C354 C353 1.389 . S
C354 C355 1.387 . S
C355 C354 1.387 . S
C355 C356 1.372 . S
C356 H334 0.950 . S
C356 C355 1.372 . S
C356 C357 1.379 . S
C357 H335 0.948 . S
C357 C352 1.364 . S
C357 C356 1.379 . S
C358 C327 1.383 . S
C358 C345 1.479 . S
C358 C359 1.398 . S
C359 C324 1.382 . S
C359 H336 0.951 . S
C359 C358 1.398 . S
C360 C361 1.384 . S
C360 H373 0.947 . S
C360 C395 1.382 . S
C361 C360 1.384 . S
C361 C362 1.378 . S
C362 C361 1.378 . S
C362 C363 1.378 . S
C362 H374 0.952 . S
C363 C362 1.378 . S
C363 H375 0.950 . S
C363 C394 1.383 . S
H364 C383 0.947 . S
H365 C384 0.946 . S
H366 C386 0.953 . S
H367 C387 0.945 . S
H368 C389 0.952 . S
H369 C390 0.949 . S
H370 C392 0.950 . S
H371 C393 0.948 . S
H372 C395 0.951 . S
H373 C360 0.947 . S
H374 C362 0.952 . S
H375 C363 0.950 . S
N376 C379 1.382 . S
N376 C381 1.363 . S
N377 C379 1.371 . S
N377 C380 1.372 . S
N378 C380 1.361 . S
N378 C381 1.377 . S
C379 N376 1.382 . S
C379 N377 1.371 . S
C379 C382 1.480 . S
C380 N377 1.372 . S
C380 N378 1.361 . S
C380 C388 1.457 . S
C381 N376 1.363 . S
C381 N378 1.377 . S
C381 C394 1.479 . S
C382 C379 1.480 . S
C382 C383 1.383 . S
C382 C387 1.385 . S
C383 H364 0.947 . S
C383 C382 1.383 . S
C383 C384 1.388 . S
C384 H365 0.946 . S
C384 C383 1.388 . S
C384 C385 1.384 . S
C385 C384 1.384 . S
C385 C386 1.377 . S
C386 H366 0.953 . S
C386 C385 1.377 . S
C386 C387 1.369 . S
C387 H367 0.945 . S
C387 C382 1.385 . S
C387 C386 1.369 . S
C388 C380 1.457 . S
C388 C389 1.372 . S
C388 C393 1.364 . S
C389 H368 0.952 . S
C389 C388 1.372 . S
C389 C390 1.389 . S
C390 H369 0.949 . S
C390 C389 1.389 . S
C390 C391 1.387 . S
C391 C390 1.387 . S
C391 C392 1.372 . S
C392 H370 0.950 . S
C392 C391 1.372 . S
C392 C393 1.379 . S
C393 H371 0.948 . S
C393 C388 1.364 . S
C393 C392 1.379 . S
C394 C363 1.383 . S
C394 C381 1.479 . S
C394 C395 1.398 . S
C395 C360 1.382 . S
C395 H372 0.951 . S
C395 C394 1.398 . S
C396 C397 1.384 . S
C396 H409 0.947 . S
C396 C431 1.382 . S
C397 C396 1.384 . S
C397 C398 1.378 . S
C398 C397 1.378 . S
C398 C399 1.378 . S
C398 H410 0.952 . S
C399 C398 1.378 . S
C399 H411 0.950 . S
C399 C430 1.383 . S
H400 C419 0.947 . S
H401 C420 0.946 . S
H402 C422 0.953 . S
H403 C423 0.945 . S
H404 C425 0.952 . S
H405 C426 0.949 . S
H406 C428 0.950 . S
H407 C429 0.948 . S
H408 C431 0.951 . S
H409 C396 0.947 . S
H410 C398 0.952 . S
H411 C399 0.950 . S
N412 C415 1.382 . S
N412 C417 1.363 . S
N413 C415 1.371 . S
N413 C416 1.372 . S
N414 C416 1.361 . S
N414 C417 1.377 . S
C415 N412 1.382 . S
C415 N413 1.371 . S
C415 C418 1.480 . S
C416 N413 1.372 . S
C416 N414 1.361 . S
C416 C424 1.457 . S
C417 N412 1.363 . S
C417 N414 1.377 . S
C417 C430 1.479 . S
C418 C415 1.480 . S
C418 C419 1.383 . S
C418 C423 1.385 . S
C419 H400 0.947 . S
C419 C418 1.383 . S
C419 C420 1.388 . S
C420 H401 0.946 . S
C420 C419 1.388 . S
C420 C421 1.384 . S
C421 C420 1.384 . S
C421 C422 1.377 . S
C422 H402 0.953 . S
C422 C421 1.377 . S
C422 C423 1.369 . S
C423 H403 0.945 . S
C423 C418 1.385 . S
C423 C422 1.369 . S
C424 C416 1.457 . S
C424 C425 1.372 . S
C424 C429 1.364 . S
C425 H404 0.952 . S
C425 C424 1.372 . S
C425 C426 1.389 . S
C426 H405 0.949 . S
C426 C425 1.389 . S
C426 C427 1.387 . S
C427 C426 1.387 . S
C427 C428 1.372 . S
C428 H406 0.950 . S
C428 C427 1.372 . S
C428 C429 1.379 . S
C429 H407 0.948 . S
C429 C424 1.364 . S
C429 C428 1.379 . S
C430 C399 1.383 . S
C430 C417 1.479 . S
C430 C431 1.398 . S
C431 C396 1.382 . S
C431 H408 0.951 . S
C431 C430 1.398 . S
C432 C433 1.384 . S
C432 H445 0.947 . S
C432 C467 1.382 . S
C433 C432 1.384 . S
C433 C434 1.378 . S
C434 C433 1.378 . S
C434 C435 1.378 . S
C434 H446 0.952 . S
C435 C434 1.378 . S
C435 H447 0.950 . S
C435 C466 1.383 . S
H436 C455 0.947 . S
H437 C456 0.946 . S
H438 C458 0.953 . S
H439 C459 0.945 . S
H440 C461 0.952 . S
H441 C462 0.949 . S
H442 C464 0.950 . S
H443 C465 0.948 . S
H444 C467 0.951 . S
H445 C432 0.947 . S
H446 C434 0.952 . S
H447 C435 0.950 . S
N448 C451 1.382 . S
N448 C453 1.363 . S
N449 C451 1.371 . S
N449 C452 1.372 . S
N450 C452 1.361 . S
N450 C453 1.377 . S
C451 N448 1.382 . S
C451 N449 1.371 . S
C451 C454 1.480 . S
C452 N449 1.372 . S
C452 N450 1.361 . S
C452 C460 1.457 . S
C453 N448 1.363 . S
C453 N450 1.377 . S
C453 C466 1.479 . S
C454 C451 1.480 . S
C454 C455 1.383 . S
C454 C459 1.385 . S
C455 H436 0.947 . S
C455 C454 1.383 . S
C455 C456 1.388 . S
C456 H437 0.946 . S
C456 C455 1.388 . S
C456 C457 1.384 . S
C457 C456 1.384 . S
C457 C458 1.377 . S
C458 H438 0.953 . S
C458 C457 1.377 . S
C458 C459 1.369 . S
C459 H439 0.945 . S
C459 C454 1.385 . S
C459 C458 1.369 . S
C460 C452 1.457 . S
C460 C461 1.372 . S
C460 C465 1.364 . S
C461 H440 0.952 . S
C461 C460 1.372 . S
C461 C462 1.389 . S
C462 H441 0.949 . S
C462 C461 1.389 . S
C462 C463 1.387 . S
C463 C462 1.387 . S
C463 C464 1.372 . S
C464 H442 0.950 . S
C464 C463 1.372 . S
C464 C465 1.379 . S
C465 H443 0.948 . S
C465 C460 1.364 . S
C465 C464 1.379 . S
C466 C435 1.383 . S
C466 C453 1.479 . S
C466 C467 1.398 . S
C467 C432 1.382 . S
C467 H444 0.951 . S
C467 C466 1.398 . S
C468 C469 1.384 . S
C468 H481 0.947 . S
C468 C503 1.382 . S
C469 C468 1.384 . S
C469 C470 1.378 . S
C470 C469 1.378 . S
C470 C471 1.378 1_554 S
C470 H482 0.954 . S
C471 C470 1.378 1_556 S
C471 H483 0.950 . S
C471 C502 1.383 . S
H472 C491 0.947 . S
H473 C492 0.946 . S
H474 C494 0.953 . S
H475 C495 0.945 . S
H476 C497 0.952 . S
H477 C498 0.949 . S
H478 C500 0.950 1_554 S
H479 C501 0.956 . S
H480 C503 0.951 . S
H481 C468 0.947 . S
H482 C470 0.954 . S
H483 C471 0.950 . S
N484 C487 1.382 . S
N484 C489 1.363 . S
N485 C487 1.371 . S
N485 C488 1.372 . S
N486 C488 1.361 . S
N486 C489 1.377 . S
C487 N484 1.382 . S
C487 N485 1.371 . S
C487 C490 1.480 . S
C488 N485 1.372 . S
C488 N486 1.361 . S
C488 C496 1.457 . S
C489 N484 1.363 . S
C489 N486 1.377 . S
C489 C502 1.479 . S
C490 C487 1.480 . S
C490 C491 1.383 . S
C490 C495 1.385 . S
C491 H472 0.947 . S
C491 C490 1.383 . S
C491 C492 1.388 . S
C492 H473 0.946 . S
C492 C491 1.388 . S
C492 C493 1.384 . S
C493 C492 1.384 . S
C493 C494 1.377 . S
C494 H474 0.953 . S
C494 C493 1.377 . S
C494 C495 1.369 . S
C495 H475 0.945 . S
C495 C490 1.385 . S
C495 C494 1.369 . S
C496 C488 1.457 . S
C496 C497 1.372 . S
C496 C501 1.364 . S
C497 H476 0.952 . S
C497 C496 1.372 . S
C497 C498 1.389 . S
C498 H477 0.949 . S
C498 C497 1.389 . S
C498 C499 1.387 . S
C499 C498 1.387 . S
C499 C500 1.372 . S
C500 H478 0.950 1_556 S
C500 C499 1.372 . S
C500 C501 1.379 . S
C501 H479 0.956 . S
C501 C496 1.364 . S
C501 C500 1.379 . S
C502 C471 1.383 . S
C502 C489 1.479 . S
C502 C503 1.398 1_556 S
C503 C468 1.382 . S
C503 H480 0.951 . S
C503 C502 1.398 1_554 S
C504 C505 1.384 . S
C504 H517 0.947 . S
C504 C539 1.382 . S
C505 C504 1.384 . S
C505 C506 1.378 . S
C506 C505 1.378 . S
C506 C507 1.378 . S
C506 H518 0.952 . S
C507 C506 1.378 . S
C507 H519 0.950 . S
C507 C538 1.383 . S
H508 C527 0.947 . S
H509 C528 0.946 . S
H510 C530 0.953 . S
H511 C531 0.945 . S
H512 C533 0.952 . S
H513 C534 0.949 . S
H514 C536 0.950 . S
H515 C537 0.948 . S
H516 C539 0.951 . S
H517 C504 0.947 . S
H518 C506 0.952 . S
H519 C507 0.950 . S
N520 C523 1.382 . S
N520 C525 1.363 . S
N521 C523 1.371 . S
N521 C524 1.372 . S
N522 C524 1.361 . S
N522 C525 1.377 . S
C523 N520 1.382 . S
C523 N521 1.371 . S
C523 C526 1.480 . S
C524 N521 1.372 . S
C524 N522 1.361 . S
C524 C532 1.457 . S
C525 N520 1.363 . S
C525 N522 1.377 . S
C525 C538 1.479 . S
C526 C523 1.480 . S
C526 C527 1.383 . S
C526 C531 1.385 . S
C527 H508 0.947 . S
C527 C526 1.383 . S
C527 C528 1.388 . S
C528 H509 0.946 . S
C528 C527 1.388 . S
C528 C529 1.384 . S
C529 C528 1.384 . S
C529 C530 1.377 . S
C530 H510 0.953 . S
C530 C529 1.377 . S
C530 C531 1.369 . S
C531 H511 0.945 . S
C531 C526 1.385 . S
C531 C530 1.369 . S
C532 C524 1.457 . S
C532 C533 1.372 . S
C532 C537 1.364 . S
C533 H512 0.952 . S
C533 C532 1.372 . S
C533 C534 1.389 . S
C534 H513 0.949 . S
C534 C533 1.389 . S
C534 C535 1.387 . S
C535 C534 1.387 . S
C535 C536 1.372 . S
C536 H514 0.950 . S
C536 C535 1.372 . S
C536 C537 1.379 . S
C537 H515 0.948 . S
C537 C532 1.364 . S
C537 C536 1.379 . S
C538 C507 1.383 . S
C538 C525 1.479 . S
C538 C539 1.398 . S
C539 C504 1.382 . S
C539 H516 0.951 . S
C539 C538 1.398 . S
C540 C541 1.384 . S
C540 H553 0.947 . S
C540 C575 1.385 . S
C541 C540 1.384 . S
C541 C542 1.378 . S
C542 C541 1.378 . S
C542 C543 1.378 . S
C542 H554 0.952 . S
C543 C542 1.378 . S
C543 H555 0.950 . S
C543 C574 1.383 . S
H544 C563 0.947 1_554 S
H545 C564 0.945 1_554 S
H546 C566 0.953 . S
H547 C567 0.945 . S
H548 C569 0.952 1_565 S
H549 C570 0.979 . S
H550 C572 0.950 . S
H551 C573 0.948 . S
H552 C575 0.947 1_556 S
H553 C540 0.947 . S
H554 C542 0.952 . S
H555 C543 0.950 . S
N556 C559 1.382 . S
N556 C561 1.363 . S
N557 C559 1.371 . S
N557 C560 1.372 . S
N558 C560 1.361 . S
N558 C561 1.377 . S
C559 N556 1.382 . S
C559 N557 1.371 . S
C559 C562 1.480 1_545 S
C560 N557 1.372 . S
C560 N558 1.361 . S
C560 C568 1.457 . S
C561 N556 1.363 . S
C561 N558 1.377 . S
C561 C574 1.479 1_556 S
C562 C559 1.480 1_565 S
C562 C563 1.383 1_565 S
C562 C567 1.385 . S
C563 H544 0.947 1_556 S
C563 C562 1.383 1_545 S
C563 C564 1.388 1_545 S
C564 H545 0.945 1_556 S
C564 C563 1.388 1_565 S
C564 C565 1.384 . S
C565 C564 1.384 . S
C565 C566 1.377 . S
C566 H546 0.953 . S
C566 C565 1.377 . S
C566 C567 1.369 . S
C567 H547 0.945 . S
C567 C562 1.385 . S
C567 C566 1.369 . S
C568 C560 1.457 . S
C568 C569 1.372 . S
C568 C573 1.364 . S
C569 H548 0.952 1_545 S
C569 C568 1.372 . S
C569 C570 1.382 1_545 S
C570 H549 0.979 . S
C570 C569 1.382 1_565 S
C570 C571 1.364 1_565 S
C571 C570 1.364 1_545 S
C571 C572 1.372 . S
C572 H550 0.950 . S
C572 C571 1.372 . S
C572 C573 1.379 . S
C573 H551 0.948 . S
C573 C568 1.364 . S
C573 C572 1.379 . S
C574 C543 1.383 . S
C574 C561 1.479 1_554 S
C574 C575 1.400 . S
C575 C540 1.385 . S
C575 H552 0.947 1_554 S
C575 C574 1.400 . S
Mg576 O577 2.032 . S
Mg576 O583 1.986 1_554 S
Mg576 O585 2.114 . S
Mg576 O586 2.251 . S
Mg576 O589 2.010 . S
O577 Mg576 2.032 . S
O577 C580 1.247 1_554 S
O578 Mg579 2.028 . S
O578 C580 1.248 . S
Mg579 O578 2.028 . S
Mg579 O584 2.032 . S
Mg579 O586 2.079 1_556 S
C580 O577 1.247 1_556 S
C580 O578 1.248 . S
C581 O582 1.264 . S
C581 O589 1.249 . S
O582 C581 1.264 . S
O583 Mg576 1.986 1_556 S
O583 C587 1.246 . S
O584 Mg579 2.032 . S
O584 C587 1.259 . S
O585 Mg576 2.114 . S
O585 C588 1.252 . S
O586 Mg576 2.251 . S
O586 Mg579 2.079 1_554 S
O586 C588 1.273 . S
C587 O583 1.246 . S
C587 O584 1.259 . S
C588 O585 1.252 . S
C588 O586 1.273 . S
O589 Mg576 2.010 . S
O589 C581 1.249 . S
Mg590 O591 2.028 . S
Mg590 O597 1.986 . S
Mg590 O599 2.114 . S
Mg590 O600 2.251 . S
Mg590 O603 2.010 . S
O591 Mg590 2.028 . S
O591 C594 1.250 . S
O592 Mg593 2.028 . S
O592 C594 1.248 . S
Mg593 O592 2.028 . S
Mg593 O598 2.032 . S
Mg593 O600 2.079 . S
C594 O591 1.250 . S
C594 O592 1.248 . S
C595 O596 1.264 . S
C595 O603 1.249 . S
O596 C595 1.264 . S
O597 Mg590 1.986 . S
O597 C601 1.246 . S
O598 Mg593 2.032 . S
O598 C601 1.259 . S
O599 Mg590 2.114 . S
O599 C602 1.252 . S
O600 Mg590 2.251 . S
O600 Mg593 2.079 . S
O600 C602 1.273 . S
C601 O597 1.246 . S
C601 O598 1.259 . S
C602 O599 1.252 . S
C602 O600 1.273 . S
O603 Mg590 2.010 . S
O603 C595 1.249 . S
Mg604 O605 2.028 . S
Mg604 O611 1.986 1_554 S
Mg604 O613 2.114 . S
Mg604 O614 2.251 . S
Mg604 O617 2.010 . S
O605 Mg604 2.028 . S
O605 C608 1.247 1_554 S
O606 Mg607 2.028 . S
O606 C608 1.251 . S
Mg607 O606 2.028 . S
Mg607 O612 2.032 . S
Mg607 O614 2.079 1_556 S
C608 O605 1.247 1_556 S
C608 O606 1.251 . S
C609 O610 1.264 . S
C609 O617 1.249 . S
O610 C609 1.264 . S
O611 Mg604 1.986 1_556 S
O611 C615 1.246 . S
O612 Mg607 2.032 . S
O612 C615 1.259 . S
O613 Mg604 2.114 . S
O613 C616 1.252 . S
O614 Mg604 2.251 . S
O614 Mg607 2.079 1_554 S
O614 C616 1.273 . S
C615 O611 1.246 . S
C615 O612 1.259 . S
C616 O613 1.252 . S
C616 O614 1.273 . S
O617 Mg604 2.010 . S
O617 C609 1.249 . S
Mg618 O619 2.029 . S
Mg618 O625 1.986 . S
Mg618 O627 2.114 . S
Mg618 O628 2.251 . S
Mg618 O631 2.010 . S
O619 Mg618 2.029 . S
O619 C622 1.249 1_545 S
O620 Mg621 2.028 . S
O620 C622 1.248 . S
Mg621 O620 2.028 . S
Mg621 O626 2.032 . S
Mg621 O628 2.079 1_565 S
C622 O619 1.249 1_565 S
C622 O620 1.248 . S
C623 O624 1.264 . S
C623 O631 1.249 . S
O624 C623 1.264 . S
O625 Mg618 1.986 . S
O625 C629 1.246 . S
O626 Mg621 2.032 . S
O626 C629 1.259 1_565 S
O627 Mg618 2.114 . S
O627 C630 1.252 . S
O628 Mg618 2.251 . S
O628 Mg621 2.079 1_545 S
O628 C630 1.273 . S
C629 O625 1.246 . S
C629 O626 1.259 1_545 S
C630 O627 1.252 . S
C630 O628 1.273 . S
O631 Mg618 2.010 . S
O631 C623 1.249 . S
Mg632 O633 2.028 . S
Mg632 O639 1.986 . S
Mg632 O641 2.114 . S
Mg632 O642 2.251 . S
Mg632 O645 2.010 . S
O633 Mg632 2.028 . S
O633 C636 1.250 . S
O634 Mg635 2.028 . S
O634 C636 1.248 . S
Mg635 O634 2.028 . S
Mg635 O640 2.032 . S
Mg635 O642 2.079 . S
C636 O633 1.250 . S
C636 O634 1.248 . S
C637 O638 1.264 . S
C637 O645 1.249 . S
O638 C637 1.264 . S
O639 Mg632 1.986 . S
O639 C643 1.246 . S
O640 Mg635 2.032 . S
O640 C643 1.259 . S
O641 Mg632 2.114 . S
O641 C644 1.252 . S
O642 Mg632 2.251 . S
O642 Mg635 2.079 . S
O642 C644 1.273 . S
C643 O639 1.246 . S
C643 O640 1.259 . S
C644 O641 1.252 . S
C644 O642 1.273 . S
O645 Mg632 2.010 . S
O645 C637 1.249 . S
Mg646 O647 2.028 . S
Mg646 O653 1.986 . S
Mg646 O655 2.114 . S
Mg646 O656 2.251 . S
Mg646 O659 2.010 . S
O647 Mg646 2.028 . S
O647 C650 1.250 . S
O648 Mg649 2.028 . S
O648 C650 1.248 . S
Mg649 O648 2.028 . S
Mg649 O654 2.032 . S
Mg649 O656 2.079 . S
C650 O647 1.250 . S
C650 O648 1.248 . S
C651 O652 1.264 . S
C651 O659 1.249 . S
O652 C651 1.264 . S
O653 Mg646 1.986 . S
O653 C657 1.246 . S
O654 Mg649 2.032 . S
O654 C657 1.259 . S
O655 Mg646 2.114 . S
O655 C658 1.252 . S
O656 Mg646 2.251 . S
O656 Mg649 2.079 . S
O656 C658 1.273 . S
C657 O653 1.246 . S
C657 O654 1.259 . S
C658 O655 1.252 . S
C658 O656 1.273 . S
O659 Mg646 2.010 . S
O659 C651 1.249 . S
Mg660 O661 2.028 . S
Mg660 O667 1.986 . S
Mg660 O669 2.114 . S
Mg660 O670 2.251 . S
Mg660 O673 2.010 . S
O661 Mg660 2.028 . S
O661 C664 1.250 . S
O662 Mg663 2.028 . S
O662 C664 1.248 . S
Mg663 O662 2.028 . S
Mg663 O668 2.032 . S
Mg663 O670 2.079 . S
C664 O661 1.250 . S
C664 O662 1.248 . S
C665 O666 1.264 . S
C665 O673 1.249 . S
O666 C665 1.264 . S
O667 Mg660 1.986 . S
O667 C671 1.246 . S
O668 Mg663 2.032 . S
O668 C671 1.259 . S
O669 Mg660 2.114 . S
O669 C672 1.252 . S
O670 Mg660 2.251 . S
O670 Mg663 2.079 . S
O670 C672 1.273 . S
C671 O667 1.246 . S
C671 O668 1.259 . S
C672 O669 1.252 . S
C672 O670 1.273 . S
O673 Mg660 2.010 . S
O673 C665 1.249 . S
Mg674 O675 2.028 1_545 S
Mg674 O681 1.986 1_545 S
Mg674 O683 2.114 . S
Mg674 O684 2.251 . S
Mg674 O687 2.010 . S
O675 Mg674 2.028 1_565 S
O675 C678 1.250 . S
O676 Mg677 2.028 . S
O676 C678 1.248 . S
Mg677 O676 2.028 . S
Mg677 O682 2.032 . S
Mg677 O684 2.079 1_565 S
C678 O675 1.250 . S
C678 O676 1.248 . S
C679 O680 1.264 . S
C679 O687 1.249 . S
O680 C679 1.264 . S
O681 Mg674 1.986 1_565 S
O681 C685 1.246 . S
O682 Mg677 2.032 . S
O682 C685 1.259 . S
O683 Mg674 2.114 . S
O683 C686 1.252 . S
O684 Mg674 2.251 . S
O684 Mg677 2.079 1_545 S
O684 C686 1.273 . S
C685 O681 1.246 . S
C685 O682 1.259 . S
C686 O683 1.252 . S
C686 O684 1.273 . S
O687 Mg674 2.010 . S
O687 C679 1.249 . S
Mg688 O689 2.031 1_455 S
Mg688 O695 1.986 . S
Mg688 O697 2.114 . S
Mg688 O698 2.251 . S
Mg688 O701 2.010 . S
O689 Mg688 2.031 1_655 S
O689 C692 1.247 . S
O690 Mg691 2.028 . S
O690 C692 1.248 . S
Mg691 O690 2.028 . S
Mg691 O696 2.032 . S
Mg691 O698 2.079 1_655 S
C692 O689 1.247 . S
C692 O690 1.248 . S
C693 O694 1.264 . S
C693 O701 1.249 . S
O694 C693 1.264 . S
O695 Mg688 1.986 . S
O695 C699 1.246 . S
O696 Mg691 2.032 . S
O696 C699 1.259 1_655 S
O697 Mg688 2.114 . S
O697 C700 1.252 . S
O698 Mg688 2.251 . S
O698 Mg691 2.079 1_455 S
O698 C700 1.273 . S
C699 O695 1.246 . S
C699 O696 1.259 1_455 S
C700 O697 1.252 . S
C700 O698 1.273 . S
O701 Mg688 2.010 . S
O701 C693 1.249 . S
Mg702 O703 2.028 . S
Mg702 O709 1.986 . S
Mg702 O711 2.114 . S
Mg702 O712 2.251 . S
Mg702 O715 2.010 . S
O703 Mg702 2.028 . S
O703 C706 1.250 . S
O704 Mg705 2.028 . S
O704 C706 1.248 . S
Mg705 O704 2.028 . S
Mg705 O710 2.032 . S
Mg705 O712 2.079 . S
C706 O703 1.250 . S
C706 O704 1.248 . S
C707 O708 1.264 . S
C707 O715 1.249 . S
O708 C707 1.264 . S
O709 Mg702 1.986 . S
O709 C713 1.246 . S
O710 Mg705 2.032 . S
O710 C713 1.259 . S
O711 Mg702 2.114 . S
O711 C714 1.252 . S
O712 Mg702 2.251 . S
O712 Mg705 2.079 . S
O712 C714 1.273 . S
C713 O709 1.246 . S
C713 O710 1.259 . S
C714 O711 1.252 . S
C714 O712 1.273 . S
O715 Mg702 2.010 . S
O715 C707 1.249 . S
Mg716 O717 2.028 1_655 S
Mg716 O723 1.986 . S
Mg716 O725 2.114 . S
Mg716 O726 2.251 1_655 S
Mg716 O729 2.010 . S
O717 Mg716 2.028 1_455 S
O717 C720 1.250 . S
O718 Mg719 2.028 . S
O718 C720 1.248 . S
Mg719 O718 2.028 . S
Mg719 O724 2.032 . S
Mg719 O726 2.079 . S
C720 O717 1.250 . S
C720 O718 1.248 . S
C721 O722 1.264 . S
C721 O729 1.249 . S
O722 C721 1.264 . S
O723 Mg716 1.986 . S
O723 C727 1.246 1_655 S
O724 Mg719 2.032 . S
O724 C727 1.259 . S
O725 Mg716 2.114 . S
O725 C728 1.252 . S
O726 Mg716 2.251 1_455 S
O726 Mg719 2.079 . S
O726 C728 1.273 1_455 S
C727 O723 1.246 1_455 S
C727 O724 1.259 . S
C728 O725 1.252 . S
C728 O726 1.273 1_655 S
O729 Mg716 2.010 . S
O729 C721 1.249 . S
Mg730 O731 2.028 . S
Mg730 O737 1.986 . S
Mg730 O739 2.114 . S
Mg730 O740 2.251 . S
Mg730 O743 2.010 . S
O731 Mg730 2.028 . S
O731 C734 1.250 . S
O732 Mg733 2.028 . S
O732 C734 1.248 . S
Mg733 O732 2.028 . S
Mg733 O738 2.032 . S
Mg733 O740 2.079 . S
C734 O731 1.250 . S
C734 O732 1.248 . S
C735 O736 1.264 . S
C735 O743 1.249 . S
O736 C735 1.264 . S
O737 Mg730 1.986 . S
O737 C741 1.246 . S
O738 Mg733 2.032 . S
O738 C741 1.259 . S
O739 Mg730 2.114 . S
O739 C742 1.252 . S
O740 Mg730 2.251 . S
O740 Mg733 2.079 . S
O740 C742 1.273 . S
C741 O737 1.246 . S
C741 O738 1.259 . S
C742 O739 1.252 . S
C742 O740 1.273 . S
O743 Mg730 2.010 . S
O743 C735 1.249 . S
C744 C745 1.369 . S
C744 C746 1.419 . S
C744 H748 0.930 . S
C745 C744 1.369 . S
C745 C754 1.429 . S
C746 C744 1.419 . S
C746 C747 1.363 . S
C746 H749 0.929 . S
C747 C746 1.363 . S
C747 C753 1.428 . S
H748 C744 0.930 . S
H749 C746 0.929 . S
S750 N751 1.613 . S
S750 N752 1.610 . S
N751 S750 1.613 . S
N751 C754 1.350 . S
N752 S750 1.610 . S
N752 C753 1.351 . S
C753 C747 1.428 . S
C753 N752 1.351 . S
C753 C754 1.434 . S
C754 C745 1.429 . S
C754 N751 1.350 . S
C754 C753 1.434 . S
C755 C756 1.369 . S
C755 C757 1.419 . S
C755 H759 0.930 . S
C756 C755 1.369 . S
C756 C765 1.429 . S
C757 C755 1.419 . S
C757 C758 1.363 . S
C757 H760 0.929 . S
C758 C757 1.363 . S
C758 C764 1.428 . S
H759 C755 0.930 . S
H760 C757 0.929 . S
S761 N762 1.613 . S
S761 N763 1.610 . S
N762 S761 1.613 . S
N762 C765 1.350 . S
N763 S761 1.610 . S
N763 C764 1.351 . S
C764 C758 1.428 . S
C764 N763 1.351 . S
C764 C765 1.434 . S
C765 C756 1.429 . S
C765 N762 1.350 . S
C765 C764 1.434 . S
C766 C767 1.369 . S
C766 C768 1.419 . S
C766 H770 0.930 . S
C767 C766 1.369 . S
C767 C776 1.429 . S
C768 C766 1.419 . S
C768 C769 1.363 . S
C768 H771 0.929 . S
C769 C768 1.363 . S
C769 C775 1.428 . S
H770 C766 0.930 . S
H771 C768 0.929 . S
S772 N773 1.613 . S
S772 N774 1.610 . S
N773 S772 1.613 . S
N773 C776 1.350 . S
N774 S772 1.610 . S
N774 C775 1.351 . S
C775 C769 1.428 . S
C775 N774 1.351 . S
C775 C776 1.434 . S
C776 C767 1.429 . S
C776 N773 1.350 . S
C776 C775 1.434 . S
C777 C778 1.369 1_545 S
C777 C779 1.419 . S
C777 H781 0.930 . S
C778 C777 1.369 1_565 S
C778 C787 1.429 . S
C779 C777 1.419 . S
C779 C780 1.363 . S
C779 H782 0.929 . S
C780 C779 1.363 . S
C780 C786 1.428 1_545 S
H781 C777 0.930 . S
H782 C779 0.929 . S
S783 N784 1.613 . S
S783 N785 1.610 . S
N784 S783 1.613 . S
N784 C787 1.350 . S
N785 S783 1.610 . S
N785 C786 1.351 . S
C786 C780 1.428 1_565 S
C786 N785 1.351 . S
C786 C787 1.434 . S
C787 C778 1.429 . S
C787 N784 1.350 . S
C787 C786 1.434 . S
C788 C789 1.369 . S
C788 C790 1.419 . S
C788 H792 0.930 . S
C789 C788 1.369 . S
C789 C798 1.429 . S
C790 C788 1.419 . S
C790 C791 1.363 . S
C790 H793 0.929 . S
C791 C790 1.363 . S
C791 C797 1.428 . S
H792 C788 0.930 . S
H793 C790 0.929 . S
S794 N795 1.613 . S
S794 N796 1.610 . S
N795 S794 1.613 . S
N795 C798 1.350 . S
N796 S794 1.610 . S
N796 C797 1.351 . S
C797 C791 1.428 . S
C797 N796 1.351 . S
C797 C798 1.434 . S
C798 C789 1.429 . S
C798 N795 1.350 . S
C798 C797 1.434 . S
C799 C800 1.369 . S
C799 C801 1.419 . S
C799 H803 0.930 . S
C800 C799 1.369 . S
C800 C809 1.429 . S
C801 C799 1.419 . S
C801 C802 1.363 . S
C801 H804 0.929 . S
C802 C801 1.363 . S
C802 C808 1.428 . S
H803 C799 0.930 . S
H804 C801 0.929 . S
S805 N806 1.613 . S
S805 N807 1.610 . S
N806 S805 1.613 . S
N806 C809 1.350 . S
N807 S805 1.610 . S
N807 C808 1.351 . S
C808 C802 1.428 . S
C808 N807 1.351 . S
C808 C809 1.434 . S
C809 C800 1.429 . S
C809 N806 1.350 . S
C809 C808 1.434 . S
C810 C811 1.369 . S
C810 C812 1.419 . S
C810 H814 0.930 . S
C811 C810 1.369 . S
C811 C820 1.429 . S
C812 C810 1.419 . S
C812 C813 1.363 . S
C812 H815 0.929 . S
C813 C812 1.363 . S
C813 C819 1.428 . S
H814 C810 0.930 . S
H815 C812 0.929 . S
S816 N817 1.613 . S
S816 N818 1.610 . S
N817 S816 1.613 . S
N817 C820 1.350 . S
N818 S816 1.610 . S
N818 C819 1.351 . S
C819 C813 1.428 . S
C819 N818 1.351 . S
C819 C820 1.434 . S
C820 C811 1.429 . S
C820 N817 1.350 . S
C820 C819 1.434 . S
C821 C822 1.369 . S
C821 C823 1.419 . S
C821 H825 0.930 . S
C822 C821 1.369 . S
C822 C831 1.429 . S
C823 C821 1.419 . S
C823 C824 1.363 . S
C823 H826 0.929 . S
C824 C823 1.363 . S
C824 C830 1.428 . S
H825 C821 0.930 . S
H826 C823 0.929 . S
S827 N828 1.613 . S
S827 N829 1.610 . S
N828 S827 1.613 . S
N828 C831 1.350 . S
N829 S827 1.610 . S
N829 C830 1.351 . S
C830 C824 1.428 . S
C830 N829 1.351 . S
C830 C831 1.434 . S
C831 C822 1.429 . S
C831 N828 1.350 . S
C831 C830 1.434 . S
C832 C833 1.369 . S
C832 C834 1.419 . S
C832 H836 0.930 . S
C833 C832 1.369 . S
C833 C842 1.429 . S
C834 C832 1.419 . S
C834 C835 1.363 . S
C834 H837 0.929 . S
C835 C834 1.363 . S
C835 C841 1.428 . S
H836 C832 0.930 . S
H837 C834 0.929 . S
S838 N839 1.613 . S
S838 N840 1.610 . S
N839 S838 1.613 . S
N839 C842 1.350 . S
N840 S838 1.610 . S
N840 C841 1.351 . S
C841 C835 1.428 . S
C841 N840 1.351 . S
C841 C842 1.434 . S
C842 C833 1.429 . S
C842 N839 1.350 . S
C842 C841 1.434 . S
C843 C844 1.369 . S
C843 C845 1.419 . S
C843 H847 0.930 . S
C844 C843 1.369 . S
C844 C853 1.429 . S
C845 C843 1.419 . S
C845 C846 1.363 . S
C845 H848 0.929 . S
C846 C845 1.363 . S
C846 C852 1.428 . S
H847 C843 0.930 . S
H848 C845 0.929 . S
S849 N850 1.613 . S
S849 N851 1.610 . S
N850 S849 1.613 . S
N850 C853 1.350 . S
N851 S849 1.610 . S
N851 C852 1.351 . S
C852 C846 1.428 . S
C852 N851 1.351 . S
C852 C853 1.434 . S
C853 C844 1.429 . S
C853 N850 1.350 . S
C853 C852 1.434 . S
C854 C855 1.369 . S
C854 C856 1.419 . S
C854 H858 0.930 . S
C855 C854 1.369 . S
C855 C864 1.429 . S
C856 C854 1.419 . S
C856 C857 1.363 . S
C856 H859 0.929 . S
C857 C856 1.363 . S
C857 C863 1.428 . S
H858 C854 0.930 . S
H859 C856 0.929 . S
S860 N861 1.613 . S
S860 N862 1.610 . S
N861 S860 1.613 . S
N861 C864 1.350 . S
N862 S860 1.610 . S
N862 C863 1.351 . S
C863 C857 1.428 . S
C863 N862 1.351 . S
C863 C864 1.434 . S
C864 C855 1.429 . S
C864 N861 1.350 . S
C864 C863 1.434 . S
C865 C866 1.369 . S
C865 C867 1.419 . S
C865 H869 0.930 . S
C866 C865 1.369 . S
C866 C875 1.429 . S
C867 C865 1.419 . S
C867 C868 1.363 . S
C867 H870 0.929 . S
C868 C867 1.363 . S
C868 C874 1.428 . S
H869 C865 0.930 . S
H870 C867 0.929 . S
S871 N872 1.613 . S
S871 N873 1.610 . S
N872 S871 1.613 . S
N872 C875 1.350 . S
N873 S871 1.610 . S
N873 C874 1.351 . S
C874 C868 1.428 . S
C874 N873 1.351 . S
C874 C875 1.434 . S
C875 C866 1.429 . S
C875 N872 1.350 . S
C875 C874 1.434 . S
C876 C877 1.369 . S
C876 C878 1.419 . S
C876 H880 0.930 . S
C877 C876 1.369 . S
C877 C886 1.429 . S
C878 C876 1.419 . S
C878 C879 1.363 . S
C878 H881 0.929 . S
C879 C878 1.363 . S
C879 C885 1.428 . S
H880 C876 0.930 . S
H881 C878 0.929 . S
S882 N883 1.613 . S
S882 N884 1.610 . S
N883 S882 1.613 . S
N883 C886 1.350 . S
N884 S882 1.610 . S
N884 C885 1.351 . S
C885 C879 1.428 . S
C885 N884 1.351 . S
C885 C886 1.434 . S
C886 C877 1.429 . S
C886 N883 1.350 . S
C886 C885 1.434 . S
C887 C888 1.369 . S
C887 C889 1.419 . S
C887 H891 0.955 . S
C888 C887 1.369 . S
C888 C897 1.429 . S
C889 C887 1.419 . S
C889 C890 1.363 . S
C889 H892 0.929 1_455 S
C890 C889 1.363 . S
C890 C896 1.428 . S
H891 C887 0.955 . S
H892 C889 0.929 1_655 S
S893 N894 1.613 . S
S893 N895 1.610 . S
N894 S893 1.613 . S
N894 C897 1.350 . S
N895 S893 1.610 . S
N895 C896 1.351 . S
C896 C890 1.428 . S
C896 N895 1.351 . S
C896 C897 1.434 . S
C897 C888 1.429 . S
C897 N894 1.350 . S
C897 C896 1.434 . S
C898 C899 1.369 . S
C898 C900 1.419 . S
C898 H902 0.930 . S
C899 C898 1.369 . S
C899 C908 1.429 . S
C900 C898 1.419 . S
C900 C901 1.363 . S
C900 H903 0.929 . S
C901 C900 1.363 . S
C901 C907 1.428 . S
H902 C898 0.930 . S
H903 C900 0.929 . S
S904 N905 1.613 . S
S904 N906 1.610 . S
N905 S904 1.613 . S
N905 C908 1.350 . S
N906 S904 1.610 . S
N906 C907 1.351 . S
C907 C901 1.428 . S
C907 N906 1.351 . S
C907 C908 1.434 . S
C908 C899 1.429 . S
C908 N905 1.350 . S
C908 C907 1.434 . S
C909 C910 1.363 1_455 S
C909 C911 1.419 . S
C909 H913 0.937 . S
C910 C909 1.363 1_655 S
C910 C919 1.429 . S
C911 C909 1.419 . S
C911 C912 1.363 1_455 S
C911 H914 0.929 . S
C912 C911 1.363 1_655 S
C912 C918 1.428 . S
H913 C909 0.937 . S
H914 C911 0.929 . S
S915 N916 1.613 . S
S915 N917 1.610 . S
N916 S915 1.613 . S
N916 C919 1.350 . S
N917 S915 1.610 . S
N917 C918 1.351 . S
C918 C912 1.428 . S
C918 N917 1.351 . S
C918 C919 1.434 . S
C919 C910 1.429 . S
C919 N916 1.350 . S
C919 C918 1.434 . S
C920 C921 1.369 . S
C920 C922 1.419 . S
C920 H924 0.930 . S
C921 C920 1.369 . S
C921 C930 1.429 . S
C922 C920 1.419 . S
C922 C923 1.363 . S
C922 H925 0.929 . S
C923 C922 1.363 . S
C923 C929 1.428 . S
H924 C920 0.930 . S
H925 C922 0.929 . S
S926 N927 1.613 . S
S926 N928 1.610 . S
N927 S926 1.613 . S
N927 C930 1.350 . S
N928 S926 1.610 . S
N928 C929 1.351 . S
C929 C923 1.428 . S
C929 N928 1.351 . S
C929 C930 1.434 . S
C930 C921 1.429 . S
C930 N927 1.350 . S
C930 C929 1.434 . S
C931 C932 1.369 . S
C931 C933 1.419 . S
C931 H935 0.930 . S
C932 C931 1.369 . S
C932 C941 1.429 . S
C933 C931 1.419 . S
C933 C934 1.363 . S
C933 H936 0.929 . S
C934 C933 1.363 . S
C934 C940 1.428 . S
H935 C931 0.930 . S
H936 C933 0.929 . S
S937 N938 1.613 . S
S937 N939 1.610 . S
N938 S937 1.613 . S
N938 C941 1.350 . S
N939 S937 1.610 . S
N939 C940 1.351 . S
C940 C934 1.428 . S
C940 N939 1.351 . S
C940 C941 1.434 . S
C941 C932 1.429 . S
C941 N938 1.350 . S
C941 C940 1.434 . S
C942 C943 1.369 . S
C942 C944 1.419 . S
C942 H946 0.930 . S
C943 C942 1.369 . S
C943 C952 1.429 1_556 S
C944 C942 1.419 . S
C944 C945 1.363 . S
C944 H947 0.929 . S
C945 C944 1.363 . S
C945 C951 1.428 1_556 S
H946 C942 0.930 . S
H947 C944 0.929 . S
S948 N949 1.613 . S
S948 N950 1.610 . S
N949 S948 1.613 . S
N949 C952 1.350 . S
N950 S948 1.610 . S
N950 C951 1.351 . S
C951 C945 1.428 1_554 S
C951 N950 1.351 . S
C951 C952 1.434 . S
C952 C943 1.429 1_554 S
C952 N949 1.350 . S
C952 C951 1.434 . S
C953 C954 1.369 . S
C953 C955 1.419 . S
C953 H957 0.930 . S
C954 C953 1.369 . S
C954 C963 1.429 . S
C955 C953 1.419 . S
C955 C956 1.363 . S
C955 H958 0.929 . S
C956 C955 1.363 . S
C956 C962 1.428 . S
H957 C953 0.930 . S
H958 C955 0.929 . S
S959 N960 1.613 . S
S959 N961 1.610 . S
N960 S959 1.613 . S
N960 C963 1.350 . S
N961 S959 1.610 . S
N961 C962 1.351 . S
C962 C956 1.428 . S
C962 N961 1.351 . S
C962 C963 1.434 . S
C963 C954 1.429 . S
C963 N960 1.350 . S
C963 C962 1.434 . S
C964 C965 1.369 . S
C964 C966 1.419 . S
C964 H968 0.930 . S
C965 C964 1.369 . S
C965 C974 1.429 . S
C966 C964 1.419 . S
C966 C967 1.363 . S
C966 H969 0.929 . S
C967 C966 1.363 . S
C967 C973 1.428 . S
H968 C964 0.930 . S
H969 C966 0.929 . S
S970 N971 1.613 . S
S970 N972 1.610 . S
N971 S970 1.613 . S
N971 C974 1.350 . S
N972 S970 1.610 . S
N972 C973 1.351 . S
C973 C967 1.428 . S
C973 N972 1.351 . S
C973 C974 1.434 . S
C974 C965 1.429 . S
C974 N971 1.350 . S
C974 C973 1.434 . S
C975 C976 1.369 . S
C975 C977 1.419 . S
C975 H979 0.930 . S
C976 C975 1.369 . S
C976 C985 1.429 . S
C977 C975 1.419 . S
C977 C978 1.363 . S
C977 H980 0.929 . S
C978 C977 1.363 . S
C978 C984 1.428 . S
H979 C975 0.930 . S
H980 C977 0.929 . S
S981 N982 1.613 . S
S981 N983 1.610 . S
N982 S981 1.613 . S
N982 C985 1.350 . S
N983 S981 1.610 . S
N983 C984 1.351 . S
C984 C978 1.428 . S
C984 N983 1.351 . S
C984 C985 1.434 . S
C985 C976 1.429 . S
C985 N982 1.350 . S
C985 C984 1.434 . S
C986 C987 1.369 . S
C986 C988 1.419 . S
C986 H990 0.930 . S
C987 C986 1.369 . S
C987 C996 1.429 . S
C988 C986 1.419 . S
C988 C989 1.363 . S
C988 H991 0.929 . S
C989 C988 1.363 . S
C989 C995 1.428 . S
H990 C986 0.930 . S
H991 C988 0.929 . S
S992 N993 1.613 . S
S992 N994 1.610 . S
N993 S992 1.613 . S
N993 C996 1.350 . S
N994 S992 1.610 . S
N994 C995 1.351 . S
C995 C989 1.428 . S
C995 N994 1.351 . S
C995 C996 1.434 . S
C996 C987 1.429 . S
C996 N993 1.350 . S
C996 C995 1.434 . S
C997 C998 1.369 . S
C997 C999 1.419 . S
C997 H1001 0.930 . S
C998 C997 1.369 . S
C998 C1007 1.429 . S
C999 C997 1.419 . S
C999 C1000 1.363 . S
C999 H1002 0.929 . S
C1000 C999 1.363 . S
C1000 C1006 1.428 . S
H1001 C997 0.930 . S
H1002 C999 0.929 . S
S1003 N1004 1.613 . S
S1003 N1005 1.610 . S
N1004 S1003 1.613 . S
N1004 C1007 1.350 . S
N1005 S1003 1.610 . S
N1005 C1006 1.351 . S
C1006 C1000 1.428 . S
C1006 N1005 1.351 . S
C1006 C1007 1.434 . S
C1007 C998 1.429 . S
C1007 N1004 1.350 . S
C1007 C1006 1.434 . S
C1008 C1009 1.369 . S
C1008 C1010 1.419 . S
C1008 H1012 0.930 . S
C1009 C1008 1.369 . S
C1009 C1018 1.429 . S
C1010 C1008 1.419 . S
C1010 C1011 1.363 . S
C1010 H1013 0.929 . S
C1011 C1010 1.363 . S
C1011 C1017 1.428 . S
H1012 C1008 0.930 . S
H1013 C1010 0.929 . S
S1014 N1015 1.613 . S
S1014 N1016 1.610 . S
N1015 S1014 1.613 . S
N1015 C1018 1.350 . S
N1016 S1014 1.610 . S
N1016 C1017 1.351 . S
C1017 C1011 1.428 . S
C1017 N1016 1.351 . S
C1017 C1018 1.434 . S
C1018 C1009 1.429 . S
C1018 N1015 1.350 . S
C1018 C1017 1.434 . S
C1019 C1020 1.369 1_565 S
C1019 C1021 1.419 . S
C1019 H1023 0.930 . S
C1020 C1019 1.369 1_545 S
C1020 C1029 1.429 . S
C1021 C1019 1.419 . S
C1021 C1022 1.363 1_565 S
C1021 H1024 0.929 . S
C1022 C1021 1.363 1_545 S
C1022 C1028 1.428 . S
H1023 C1019 0.930 . S
H1024 C1021 0.929 . S
S1025 N1026 1.613 . S
S1025 N1027 1.610 . S
N1026 S1025 1.613 . S
N1026 C1029 1.350 . S
N1027 S1025 1.610 . S
N1027 C1028 1.351 . S
C1028 C1022 1.428 . S
C1028 N1027 1.351 . S
C1028 C1029 1.434 . S
C1029 C1020 1.429 . S
C1029 N1026 1.350 . S
C1029 C1028 1.434 . S
C1030 C1031 1.369 . S
C1030 C1032 1.419 . S
C1030 H1034 0.930 . S
C1031 C1030 1.369 . S
C1031 C1040 1.429 . S
C1032 C1030 1.419 . S
C1032 C1033 1.363 . S
C1032 H1035 0.929 . S
C1033 C1032 1.363 . S
C1033 C1039 1.428 . S
H1034 C1030 0.930 . S
H1035 C1032 0.929 . S
S1036 N1037 1.613 . S
S1036 N1038 1.610 . S
N1037 S1036 1.613 . S
N1037 C1040 1.350 . S
N1038 S1036 1.610 . S
N1038 C1039 1.351 . S
C1039 C1033 1.428 . S
C1039 N1038 1.351 . S
C1039 C1040 1.434 . S
C1040 C1031 1.429 . S
C1040 N1037 1.350 . S
C1040 C1039 1.434 . S
C1041 C1042 1.369 . S
C1041 C1043 1.419 . S
C1041 H1045 0.930 . S
C1042 C1041 1.369 . S
C1042 C1051 1.429 . S
C1043 C1041 1.419 . S
C1043 C1044 1.363 . S
C1043 H1046 0.929 . S
C1044 C1043 1.363 . S
C1044 C1050 1.428 . S
H1045 C1041 0.930 . S
H1046 C1043 0.929 . S
S1047 N1048 1.613 . S
S1047 N1049 1.610 . S
N1048 S1047 1.613 . S
N1048 C1051 1.350 . S
N1049 S1047 1.610 . S
N1049 C1050 1.351 . S
C1050 C1044 1.428 . S
C1050 N1049 1.351 . S
C1050 C1051 1.434 . S
C1051 C1042 1.429 . S
C1051 N1048 1.350 . S
C1051 C1050 1.434 . S
C1052 C1053 1.369 . S
C1052 C1054 1.419 . S
C1052 H1056 0.930 . S
C1053 C1052 1.369 . S
C1053 C1062 1.429 . S
C1054 C1052 1.419 . S
C1054 C1055 1.363 . S
C1054 H1057 0.929 . S
C1055 C1054 1.363 . S
C1055 C1061 1.428 . S
H1056 C1052 0.930 . S
H1057 C1054 0.929 . S
S1058 N1059 1.613 . S
S1058 N1060 1.610 . S
N1059 S1058 1.613 . S
N1059 C1062 1.350 . S
N1060 S1058 1.610 . S
N1060 C1061 1.351 . S
C1061 C1055 1.428 . S
C1061 N1060 1.351 . S
C1061 C1062 1.434 . S
C1062 C1053 1.429 . S
C1062 N1059 1.350 . S
C1062 C1061 1.434 . S
C1063 C1064 1.369 . S
C1063 C1065 1.419 . S
C1063 H1067 0.930 . S
C1064 C1063 1.369 . S
C1064 C1073 1.429 . S
C1065 C1063 1.419 . S
C1065 C1066 1.363 . S
C1065 H1068 0.929 . S
C1066 C1065 1.363 . S
C1066 C1072 1.428 . S
H1067 C1063 0.930 . S
H1068 C1065 0.929 . S
S1069 N1070 1.612 1_565 S
S1069 N1071 1.621 . S
N1070 S1069 1.612 1_545 S
N1070 C1073 1.351 . S
N1071 S1069 1.621 . S
N1071 C1072 1.336 1_565 S
C1072 C1066 1.428 . S
C1072 N1071 1.336 1_545 S
C1072 C1073 1.434 . S
C1073 C1064 1.429 . S
C1073 N1070 1.351 . S
C1073 C1072 1.434 . S
C1074 C1075 1.369 . S
C1074 C1076 1.419 . S
C1074 H1078 0.930 . S
C1075 C1074 1.369 . S
C1075 C1084 1.429 . S
C1076 C1074 1.419 . S
C1076 C1077 1.363 . S
C1076 H1079 0.929 . S
C1077 C1076 1.363 . S
C1077 C1083 1.428 . S
H1078 C1074 0.930 . S
H1079 C1076 0.929 . S
S1080 N1081 1.613 . S
S1080 N1082 1.610 . S
N1081 S1080 1.613 . S
N1081 C1084 1.350 . S
N1082 S1080 1.610 . S
N1082 C1083 1.351 . S
C1083 C1077 1.428 . S
C1083 N1082 1.351 . S
C1083 C1084 1.434 . S
C1084 C1075 1.429 . S
C1084 N1081 1.350 . S
C1084 C1083 1.434 . S
C1085 C1086 1.369 . S
C1085 C1087 1.419 . S
C1085 H1089 0.930 . S
C1086 C1085 1.369 . S
C1086 C1095 1.429 . S
C1087 C1085 1.419 . S
C1087 C1088 1.363 . S
C1087 H1090 0.929 . S
C1088 C1087 1.363 . S
C1088 C1094 1.428 . S
H1089 C1085 0.930 . S
H1090 C1087 0.929 . S
S1091 N1092 1.613 . S
S1091 N1093 1.610 . S
N1092 S1091 1.613 . S
N1092 C1095 1.350 . S
N1093 S1091 1.610 . S
N1093 C1094 1.351 . S
C1094 C1088 1.428 . S
C1094 N1093 1.351 . S
C1094 C1095 1.434 . S
C1095 C1086 1.429 . S
C1095 N1092 1.350 . S
C1095 C1094 1.434 . S
C1096 C1097 1.369 . S
C1096 C1098 1.419 . S
C1096 H1100 0.930 . S
C1097 C1096 1.369 . S
C1097 C1106 1.429 . S
C1098 C1096 1.419 . S
C1098 C1099 1.363 . S
C1098 H1101 0.929 . S
C1099 C1098 1.363 . S
C1099 C1105 1.428 . S
H1100 C1096 0.930 . S
H1101 C1098 0.929 . S
S1102 N1103 1.613 . S
S1102 N1104 1.610 . S
N1103 S1102 1.613 . S
N1103 C1106 1.350 . S
N1104 S1102 1.610 . S
N1104 C1105 1.351 . S
C1105 C1099 1.428 . S
C1105 N1104 1.351 . S
C1105 C1106 1.434 . S
C1106 C1097 1.429 . S
C1106 N1103 1.350 . S
C1106 C1105 1.434 . S
C1107 C1108 1.369 . S
C1107 C1109 1.419 . S
C1107 H1111 0.930 . S
C1108 C1107 1.369 . S
C1108 C1117 1.429 1_655 S
C1109 C1107 1.419 . S
C1109 C1110 1.363 1_655 S
C1109 H1112 0.929 . S
C1110 C1109 1.363 1_455 S
C1110 C1116 1.428 . S
H1111 C1107 0.930 . S
H1112 C1109 0.929 . S
S1113 N1114 1.613 . S
S1113 N1115 1.610 . S
N1114 S1113 1.613 . S
N1114 C1117 1.350 . S
N1115 S1113 1.610 . S
N1115 C1116 1.351 . S
C1116 C1110 1.428 . S
C1116 N1115 1.351 . S
C1116 C1117 1.434 . S
C1117 C1108 1.429 1_455 S
C1117 N1114 1.350 . S
C1117 C1116 1.434 . S
C1118 C1119 1.369 . S
C1118 C1120 1.419 . S
C1118 H1122 0.930 . S
C1119 C1118 1.369 . S
C1119 C1128 1.429 . S
C1120 C1118 1.419 . S
C1120 C1121 1.363 . S
C1120 H1123 0.929 . S
C1121 C1120 1.363 . S
C1121 C1127 1.428 . S
H1122 C1118 0.930 . S
H1123 C1120 0.929 . S
S1124 N1125 1.613 . S
S1124 N1126 1.610 . S
N1125 S1124 1.613 . S
N1125 C1128 1.350 . S
N1126 S1124 1.610 . S
N1126 C1127 1.351 . S
C1127 C1121 1.428 . S
C1127 N1126 1.351 . S
C1127 C1128 1.434 . S
C1128 C1119 1.429 . S
C1128 N1125 1.350 . S
C1128 C1127 1.434 . S
C1129 C1130 1.369 . S
C1129 C1131 1.419 . S
C1129 H1133 0.930 . S
C1130 C1129 1.369 . S
C1130 C1139 1.429 . S
C1131 C1129 1.419 . S
C1131 C1132 1.363 . S
C1131 H1134 0.929 . S
C1132 C1131 1.363 . S
C1132 C1138 1.428 . S
H1133 C1129 0.930 . S
H1134 C1131 0.929 . S
S1135 N1136 1.613 . S
S1135 N1137 1.610 . S
N1136 S1135 1.613 . S
N1136 C1139 1.350 . S
N1137 S1135 1.610 . S
N1137 C1138 1.351 . S
C1138 C1132 1.428 . S
C1138 N1137 1.351 . S
C1138 C1139 1.434 . S
C1139 C1130 1.429 . S
C1139 N1136 1.350 . S
C1139 C1138 1.434 . S
C1140 C1141 1.369 . S
C1140 C1142 1.419 . S
C1140 H1144 0.930 . S
C1141 C1140 1.369 . S
C1141 C1150 1.429 . S
C1142 C1140 1.419 . S
C1142 C1143 1.363 . S
C1142 H1145 0.929 . S
C1143 C1142 1.363 . S
C1143 C1149 1.428 . S
H1144 C1140 0.930 . S
H1145 C1142 0.929 . S
S1146 N1147 1.613 . S
S1146 N1148 1.610 . S
N1147 S1146 1.613 . S
N1147 C1150 1.350 . S
N1148 S1146 1.610 . S
N1148 C1149 1.351 . S
C1149 C1143 1.428 . S
C1149 N1148 1.351 . S
C1149 C1150 1.434 . S
C1150 C1141 1.429 . S
C1150 N1147 1.350 . S
C1150 C1149 1.434 . S
C1151 C1152 1.369 . S
C1151 C1153 1.419 . S
C1151 H1155 0.930 . S
C1152 C1151 1.369 . S
C1152 C1161 1.429 . S
C1153 C1151 1.419 . S
C1153 C1154 1.363 . S
C1153 H1156 0.929 . S
C1154 C1153 1.363 . S
C1154 C1160 1.428 . S
H1155 C1151 0.930 . S
H1156 C1153 0.929 . S
S1157 N1158 1.613 . S
S1157 N1159 1.610 . S
N1158 S1157 1.613 . S
N1158 C1161 1.350 . S
N1159 S1157 1.610 . S
N1159 C1160 1.351 . S
C1160 C1154 1.428 . S
C1160 N1159 1.351 . S
C1160 C1161 1.434 . S
C1161 C1152 1.429 . S
C1161 N1158 1.350 . S
C1161 C1160 1.434 . S
C1162 C1163 1.369 . S
C1162 C1164 1.419 . S
C1162 H1166 0.930 . S
C1163 C1162 1.369 . S
C1163 C1172 1.429 . S
C1164 C1162 1.419 . S
C1164 C1165 1.363 . S
C1164 H1167 0.929 . S
C1165 C1164 1.363 . S
C1165 C1171 1.428 . S
H1166 C1162 0.930 . S
H1167 C1164 0.929 . S
S1168 N1169 1.613 . S
S1168 N1170 1.610 . S
N1169 S1168 1.613 . S
N1169 C1172 1.350 . S
N1170 S1168 1.610 . S
N1170 C1171 1.351 . S
C1171 C1165 1.428 . S
C1171 N1170 1.351 . S
C1171 C1172 1.434 . S
C1172 C1163 1.429 . S
C1172 N1169 1.350 . S
C1172 C1171 1.434 . S
C1173 C1174 1.369 . S
C1173 C1175 1.419 . S
C1173 H1177 0.930 . S
C1174 C1173 1.369 . S
C1174 C1183 1.429 . S
C1175 C1173 1.419 . S
C1175 C1176 1.363 . S
C1175 H1178 0.929 . S
C1176 C1175 1.363 . S
C1176 C1182 1.428 . S
H1177 C1173 0.930 . S
H1178 C1175 0.929 . S
S1179 N1180 1.613 . S
S1179 N1181 1.610 . S
N1180 S1179 1.613 . S
N1180 C1183 1.350 . S
N1181 S1179 1.610 . S
N1181 C1182 1.351 . S
C1182 C1176 1.428 . S
C1182 N1181 1.351 . S
C1182 C1183 1.434 . S
C1183 C1174 1.429 . S
C1183 N1180 1.350 . S
C1183 C1182 1.434 . S
C1184 C1185 1.369 . S
C1184 C1186 1.419 . S
C1184 H1188 0.930 . S
C1185 C1184 1.369 . S
C1185 C1194 1.429 . S
C1186 C1184 1.419 . S
C1186 C1187 1.363 . S
C1186 H1189 0.929 . S
C1187 C1186 1.363 . S
C1187 C1193 1.428 . S
H1188 C1184 0.930 . S
H1189 C1186 0.929 . S
S1190 N1191 1.613 . S
S1190 N1192 1.610 . S
N1191 S1190 1.613 . S
N1191 C1194 1.350 . S
N1192 S1190 1.610 . S
N1192 C1193 1.351 . S
C1193 C1187 1.428 . S
C1193 N1192 1.351 . S
C1193 C1194 1.434 . S
C1194 C1185 1.429 . S
C1194 N1191 1.350 . S
C1194 C1193 1.434 . S
C1195 C1196 1.369 . S
C1195 C1197 1.419 . S
C1195 H1199 0.930 . S
C1196 C1195 1.369 . S
C1196 C1205 1.429 . S
C1197 C1195 1.419 . S
C1197 C1198 1.363 . S
C1197 H1200 0.929 . S
C1198 C1197 1.363 . S
C1198 C1204 1.428 . S
H1199 C1195 0.930 . S
H1200 C1197 0.929 . S
S1201 N1202 1.613 . S
S1201 N1203 1.610 . S
N1202 S1201 1.613 . S
N1202 C1205 1.350 . S
N1203 S1201 1.610 . S
N1203 C1204 1.351 . S
C1204 C1198 1.428 . S
C1204 N1203 1.351 . S
C1204 C1205 1.434 . S
C1205 C1196 1.429 . S
C1205 N1202 1.350 . S
C1205 C1204 1.434 . S
C1206 C1207 1.369 . S
C1206 C1208 1.419 . S
C1206 H1210 0.930 . S
C1207 C1206 1.369 . S
C1207 C1216 1.429 . S
C1208 C1206 1.419 . S
C1208 C1209 1.363 . S
C1208 H1211 0.929 . S
C1209 C1208 1.363 . S
C1209 C1215 1.428 . S
H1210 C1206 0.930 . S
H1211 C1208 0.929 . S
S1212 N1213 1.613 . S
S1212 N1214 1.610 . S
N1213 S1212 1.613 . S
N1213 C1216 1.350 . S
N1214 S1212 1.610 . S
N1214 C1215 1.351 . S
C1215 C1209 1.428 . S
C1215 N1214 1.351 . S
C1215 C1216 1.434 . S
C1216 C1207 1.429 . S
C1216 N1213 1.350 . S
C1216 C1215 1.434 . S
C1217 C1218 1.369 . S
C1217 C1219 1.419 . S
C1217 H1221 0.930 . S
C1218 C1217 1.369 . S
C1218 C1227 1.429 . S
C1219 C1217 1.419 . S
C1219 C1220 1.363 . S
C1219 H1222 0.929 . S
C1220 C1219 1.363 . S
C1220 C1226 1.428 . S
H1221 C1217 0.930 . S
H1222 C1219 0.929 . S
S1223 N1224 1.613 . S
S1223 N1225 1.610 . S
N1224 S1223 1.613 . S
N1224 C1227 1.350 . S
N1225 S1223 1.610 . S
N1225 C1226 1.351 . S
C1226 C1220 1.428 . S
C1226 N1225 1.351 . S
C1226 C1227 1.434 . S
C1227 C1218 1.429 . S
C1227 N1224 1.350 . S
C1227 C1226 1.434 . S
C1228 C1229 1.369 . S
C1228 C1230 1.419 . S
C1228 H1232 0.930 . S
C1229 C1228 1.369 . S
C1229 C1238 1.429 . S
C1230 C1228 1.419 . S
C1230 C1231 1.363 . S
C1230 H1233 0.933 . S
C1231 C1230 1.363 . S
C1231 C1237 1.428 . S
H1232 C1228 0.930 . S
H1233 C1230 0.933 . S
S1234 N1235 1.613 . S
S1234 N1236 1.610 . S
N1235 S1234 1.613 . S
N1235 C1238 1.350 . S
N1236 S1234 1.610 . S
N1236 C1237 1.351 . S
C1237 C1231 1.428 . S
C1237 N1236 1.351 . S
C1237 C1238 1.434 . S
C1238 C1229 1.429 . S
C1238 N1235 1.350 . S
C1238 C1237 1.434 . S
C1239 C1240 1.369 . S
C1239 C1241 1.419 . S
C1239 H1243 0.930 . S
C1240 C1239 1.369 . S
C1240 C1249 1.429 . S
C1241 C1239 1.419 . S
C1241 C1242 1.363 . S
C1241 H1244 0.929 . S
C1242 C1241 1.363 . S
C1242 C1248 1.428 . S
H1243 C1239 0.930 . S
H1244 C1241 0.929 . S
S1245 N1246 1.613 . S
S1245 N1247 1.610 . S
N1246 S1245 1.613 . S
N1246 C1249 1.350 . S
N1247 S1245 1.610 . S
N1247 C1248 1.351 . S
C1248 C1242 1.428 . S
C1248 N1247 1.351 . S
C1248 C1249 1.434 . S
C1249 C1240 1.429 . S
C1249 N1246 1.350 . S
C1249 C1248 1.434 . S
C1250 C1251 1.369 . S
C1250 C1252 1.419 . S
C1250 H1254 0.930 . S
C1251 C1250 1.369 . S
C1251 C1260 1.429 . S
C1252 C1250 1.419 . S
C1252 C1253 1.363 . S
C1252 H1255 0.929 . S
C1253 C1252 1.363 . S
C1253 C1259 1.428 . S
H1254 C1250 0.930 . S
H1255 C1252 0.929 . S
S1256 N1257 1.613 . S
S1256 N1258 1.610 . S
N1257 S1256 1.613 . S
N1257 C1260 1.350 . S
N1258 S1256 1.610 . S
N1258 C1259 1.351 . S
C1259 C1253 1.428 . S
C1259 N1258 1.351 . S
C1259 C1260 1.434 . S
C1260 C1251 1.429 . S
C1260 N1257 1.350 . S
C1260 C1259 1.434 . S
C1261 C1262 1.369 . S
C1261 C1263 1.419 . S
C1261 H1265 0.930 . S
C1262 C1261 1.369 . S
C1262 C1271 1.429 . S
C1263 C1261 1.419 . S
C1263 C1264 1.363 . S
C1263 H1266 0.929 . S
C1264 C1263 1.363 . S
C1264 C1270 1.428 . S
H1265 C1261 0.930 . S
H1266 C1263 0.929 . S
S1267 N1268 1.613 . S
S1267 N1269 1.610 . S
N1268 S1267 1.613 . S
N1268 C1271 1.350 1_556 S
N1269 S1267 1.610 . S
N1269 C1270 1.351 1_556 S
C1270 C1264 1.428 . S
C1270 N1269 1.351 1_554 S
C1270 C1271 1.434 . S
C1271 C1262 1.429 . S
C1271 N1268 1.350 1_554 S
C1271 C1270 1.434 . S
C747 C587 1.448 . S
C745 C181 1.459 . S
C758 C595 1.269 . S
C756 C247 1.542 . S
C767 C283 1.445 . S
C769 C615 1.432 . S
C780 C629 1.497 . S
C778 C169 1.508 . S
C791 C644 1.524 . S
C789 C361 1.521 . S
C802 C658 1.522 . S
C800 C433 1.506 . S
C811 C421 1.547 . S
C813 C672 1.557 . S
C824 C678 1.444 . S
C822 C355 1.494 . S
C833 C427 1.527 . S
C835 C692 1.496 . S
C846 C713 1.521 . S
C844 C325 1.544 . S
C855 C385 1.467 . S
C857 C693 1.245 . S
C868 C714 1.544 . S
C866 C463 1.521 . S
C877 C253 1.488 . S
C879 C721 1.230 . S
C888 C145 1.504 . S
C890 C727 1.496 . S
C899 C205 1.488 . S
C901 C720 1.451 . S
C910 C217 1.482 . S
C912 C728 1.482 . S
C921 C139 1.505 . S
C923 C622 1.463 . S
C932 C535 1.488 . S
C934 C623 1.245 . S
C945 C580 1.487 . S
C943 C565 1.541 . S
C956 C601 1.449 . S
C954 C313 1.459 . S
C965 C175 1.499 . S
C967 C636 1.465 . S
C978 C686 1.522 . S
C976 C397 1.517 . S
C989 C637 1.221 . S
C987 C349 1.459 . S
C1000 C665 1.274 . S
C998 C457 1.542 . S
C1011 C671 1.448 . S
C1009 C505 1.458 . S
C1020 C571 1.542 . S
C1022 C679 1.274 . S
C1031 C319 1.448 . S
C1033 C643 1.433 . S
C1044 C657 1.498 . S
C1042 C493 1.510 . S
C1053 C109 1.520 . S
C1055 C616 1.524 . S
C1066 C630 1.521 . S
C1064 C1 1.508 . S
C1077 C588 1.557 . S
C1075 C61 1.547 . S
C1088 C594 1.446 . S
C1086 C103 1.494 . S
C1097 C67 1.527 . S
C1099 C706 1.496 . S
C1108 C73 1.543 . S
C1110 C699 1.524 . S
C1119 C133 1.464 . S
C1121 C707 1.246 . S
C1130 C31 1.522 . S
C1132 C700 1.543 . S
C1143 C735 1.215 . S
C1141 C289 1.491 . S
C1154 C741 1.495 . S
C1152 C469 1.505 . S
C1165 C734 1.450 . S
C1163 C529 1.489 . S
C1174 C541 1.482 . S
C1176 C742 1.481 . S
C1185 C391 1.504 . S
C1187 C650 1.463 . S
C1198 C651 1.245 . S
C1196 C211 1.491 . S
C1209 C664 1.489 . S
C1207 C241 1.541 . S
C1220 C685 1.446 . S
C1218 C277 1.460 . S
C1229 C499 1.497 . S
C1231 C608 1.470 . S
C1242 C602 1.523 . S
C1240 C37 1.518 . S
C1251 C97 1.459 . S
C1253 C609 1.226 . S
C1264 C581 1.273 . S
C1262 C25 1.543 . S
