# Generated by pormake.
# Topology cml, (3,6)-cn, num edge types: 1
# Building blocks:
#     Node 0, Type 0, BuildingBlock: BETDIP_clean_linker_0, # of connection points: 3
#     Node 1, Type 0, BuildingBlock: BETDIP_clean_linker_0, # of connection points: 3
#     Node 2, Type 0, BuildingBlock: BETDIP_clean_linker_0, # of connection points: 3
#     Node 3, Type 0, BuildingBlock: BETDIP_clean_linker_0, # of connection points: 3
#     Node 4, Type 0, BuildingBlock: BETDIP_clean_linker_0, # of connection points: 3
#     Node 5, Type 0, BuildingBlock: BETDIP_clean_linker_0, # of connection points: 3
#     Node 6, Type 0, BuildingBlock: BETDIP_clean_linker_0, # of connection points: 3
#     Node 7, Type 0, BuildingBlock: BETDIP_clean_linker_0, # of connection points: 3
#     Node 8, Type 1, BuildingBlock: OJICUG_clean_sbu_0, # of connection points: 6
#     Node 9, Type 1, BuildingBlock: OJICUG_clean_sbu_0, # of connection points: 6
#     Node 10, Type 1, BuildingBlock: OJICUG_clean_sbu_0, # of connection points: 6
#     Node 11, Type 1, BuildingBlock: OJICUG_clean_sbu_0, # of connection points: 6
#     Edge 12, Type (0, 1), BuildingBlock: OJICUG_clean_linker_0, # of connection points: 2
#     Edge 13, Type (0, 1), BuildingBlock: OJICUG_clean_linker_0, # of connection points: 2
#     Edge 14, Type (0, 1), BuildingBlock: OJICUG_clean_linker_0, # of connection points: 2
#     Edge 15, Type (0, 1), BuildingBlock: OJICUG_clean_linker_0, # of connection points: 2
#     Edge 16, Type (0, 1), BuildingBlock: OJICUG_clean_linker_0, # of connection points: 2
#     Edge 17, Type (0, 1), BuildingBlock: OJICUG_clean_linker_0, # of connection points: 2
#     Edge 18, Type (0, 1), BuildingBlock: OJICUG_clean_linker_0, # of connection points: 2
#     Edge 19, Type (0, 1), BuildingBlock: OJICUG_clean_linker_0, # of connection points: 2
#     Edge 20, Type (0, 1), BuildingBlock: OJICUG_clean_linker_0, # of connection points: 2
#     Edge 21, Type (0, 1), BuildingBlock: OJICUG_clean_linker_0, # of connection points: 2
#     Edge 22, Type (0, 1), BuildingBlock: OJICUG_clean_linker_0, # of connection points: 2
#     Edge 23, Type (0, 1), BuildingBlock: OJICUG_clean_linker_0, # of connection points: 2
#     Edge 24, Type (0, 1), BuildingBlock: OJICUG_clean_linker_0, # of connection points: 2
#     Edge 25, Type (0, 1), BuildingBlock: OJICUG_clean_linker_0, # of connection points: 2
#     Edge 26, Type (0, 1), BuildingBlock: OJICUG_clean_linker_0, # of connection points: 2
#     Edge 27, Type (0, 1), BuildingBlock: OJICUG_clean_linker_0, # of connection points: 2
#     Edge 28, Type (0, 1), BuildingBlock: OJICUG_clean_linker_0, # of connection points: 2
#     Edge 29, Type (0, 1), BuildingBlock: OJICUG_clean_linker_0, # of connection points: 2
#     Edge 30, Type (0, 1), BuildingBlock: OJICUG_clean_linker_0, # of connection points: 2
#     Edge 31, Type (0, 1), BuildingBlock: OJICUG_clean_linker_0, # of connection points: 2
#     Edge 32, Type (0, 1), BuildingBlock: OJICUG_clean_linker_0, # of connection points: 2
#     Edge 33, Type (0, 1), BuildingBlock: OJICUG_clean_linker_0, # of connection points: 2
#     Edge 34, Type (0, 1), BuildingBlock: OJICUG_clean_linker_0, # of connection points: 2
#     Edge 35, Type (0, 1), BuildingBlock: OJICUG_clean_linker_0, # of connection points: 2
# Relax obj value: 0.006
# Max RMSD: 0.046
# Mean RMSD: 0.042
data_MOF--net-cml--node1-OJICUG_clean_sbu_0--node2-BETDIP_clean_linker_0--edge1-OJICUG_clean_linker_0
_symmetry_space_group_name_H-M    P1
_symmetry_Int_Tables_number       1
_symmetry_cell_setting            triclinic
loop_
_symmetry_equiv_pos_as_xyz
'x, y, z'
_cell_length_a     29.755457
_cell_length_b     29.375214
_cell_length_c     26.743327
_cell_angle_alpha  89.997414
_cell_angle_beta   89.99752
_cell_angle_gamma 89.993951
loop_
_atom_site_label
_atom_site_type_symbol
_atom_site_fract_x
_atom_site_fract_y
_atom_site_fract_z
_atom_type_partial_charge
H0 H 0.27278 0.33643 0.05252 0.0
H1 H 0.27063 0.42832 0.9268 0.0
H2 H 0.36569 0.44795 0.0454 0.0
H3 H 0.22936 0.37598 0.89021 0.0
C4 C 0.21463 0.3538 0.91816 0.0
C5 C 0.28566 0.36628 0.03345 0.0
C6 C 0.32055 0.39153 0.05491 0.0
C7 C 0.26741 0.37899 -0.01276 0.0
C8 C 0.28444 0.4176 0.96226 0.0
C9 C 0.31976 0.44292 0.98335 0.0
C10 C 0.33724 0.42976 0.02979 0.0
N11 N 0.23217 0.35183 0.96751 0.0
H12 H 0.73367 0.64523 0.55251 0.0
H13 H 0.7358 0.55336 0.4268 0.0
H14 H 0.64074 0.53374 0.5454 0.0
H15 H 0.77711 0.60566 0.39021 0.0
C16 C 0.79183 0.62786 0.41816 0.0
C17 C 0.72078 0.61539 0.53344 0.0
C18 C 0.68589 0.59015 0.5549 0.0
C19 C 0.73903 0.60268 0.48723 0.0
C20 C 0.72199 0.56408 0.46226 0.0
C21 C 0.68667 0.53876 0.48334 0.0
C22 C 0.66919 0.55192 0.52979 0.0
N23 N 0.77427 0.62984 0.46751 0.0
H24 H 0.73371 0.33649 0.05261 0.0
H25 H 0.73587 0.42837 0.92689 0.0
H26 H 0.64078 0.448 0.04546 0.0
H27 H 0.77705 0.37598 0.89027 0.0
C28 C 0.79182 0.35382 0.91823 0.0
C29 C 0.72082 0.36633 0.03353 0.0
C30 C 0.68593 0.39158 0.05498 0.0
C31 C 0.73908 0.37904 -0.01268 0.0
C32 C 0.72206 0.41765 0.96234 0.0
C33 C 0.68672 0.44297 0.98342 0.0
C34 C 0.66924 0.42982 0.02986 0.0
N35 N 0.77432 0.35188 0.9676 0.0
H36 H 0.27275 0.64524 0.55259 0.0
H37 H 0.27057 0.55335 0.42689 0.0
H38 H 0.36567 0.53371 0.54545 0.0
H39 H 0.22941 0.60577 0.39026 0.0
C40 C 0.21463 0.62792 0.41822 0.0
C41 C 0.28563 0.61539 0.53353 0.0
C42 C 0.32052 0.59014 0.55497 0.0
C43 C 0.26737 0.60268 0.48732 0.0
C44 C 0.28439 0.56407 0.46234 0.0
C45 C 0.31972 0.53875 0.48342 0.0
C46 C 0.33721 0.5519 0.52985 0.0
N47 N 0.23213 0.62985 0.4676 0.0
H48 H 0.77273 0.83648 0.05256 0.0
H49 H 0.7706 0.92836 0.92684 0.0
H50 H 0.86565 0.94798 0.04544 0.0
H51 H 0.72931 0.87605 0.89026 0.0
C52 C 0.71458 0.85385 0.91821 0.0
C53 C 0.78562 0.86632 0.03349 0.0
C54 C 0.8205 0.89157 0.05495 0.0
C55 C 0.76737 0.87904 -0.01272 0.0
C56 C 0.7844 0.91764 0.9623 0.0
C57 C 0.81972 0.94296 0.98339 0.0
C58 C 0.8372 0.9298 0.02983 0.0
N59 N 0.73213 0.85188 0.96756 0.0
H60 H 0.23369 0.1452 0.55256 0.0
H61 H 0.23582 0.05334 0.42682 0.0
H62 H 0.14076 0.03371 0.54543 0.0
H63 H 0.2771 0.10567 0.39024 0.0
C64 C 0.29183 0.12785 0.41819 0.0
C65 C 0.2208 0.11536 0.53348 0.0
C66 C 0.18591 0.09011 0.55494 0.0
C67 C 0.23905 0.10265 0.48727 0.0
C68 C 0.22202 0.06405 0.46229 0.0
C69 C 0.18669 0.03874 0.48337 0.0
C70 C 0.16921 0.05189 0.52982 0.0
N71 N 0.2743 0.12981 0.46755 0.0
H72 H 0.23375 0.83654 0.05265 0.0
H73 H 0.23591 0.92841 0.92693 0.0
H74 H 0.14081 0.94805 0.0455 0.0
H75 H 0.27707 0.876 0.89031 0.0
C76 C 0.29185 0.85385 0.91827 0.0
C77 C 0.22086 0.86638 0.03358 0.0
C78 C 0.18597 0.89163 0.05503 0.0
C79 C 0.23912 0.87909 -0.01263 0.0
C80 C 0.2221 0.91769 0.96239 0.0
C81 C 0.18676 0.94301 -0.01654 0.0
C82 C 0.16928 0.92986 0.0299 0.0
N83 N 0.27436 0.85192 0.96764 0.0
H84 H 0.77271 0.14519 0.55265 0.0
H85 H 0.77054 0.05331 0.42694 0.0
H86 H 0.86564 0.03367 0.54549 0.0
H87 H 0.72938 0.10572 0.39032 0.0
C88 C 0.7146 0.12787 0.41828 0.0
C89 C 0.78559 0.11535 0.53358 0.0
C90 C 0.82049 0.09009 0.55502 0.0
C91 C 0.76733 0.10264 0.48737 0.0
C92 C 0.78435 0.06403 0.46239 0.0
C93 C 0.81969 0.03871 0.48346 0.0
C94 C 0.83718 0.05186 0.5299 0.0
N95 N 0.73209 0.12981 0.46765 0.0
Sc96 Sc 0.00322 0.78127 0.27421 0.0
Sc97 Sc 0.00318 0.8999 0.29365 0.0
Sc98 Sc 0.0032 0.8267 0.39701 0.0
O99 O 0.0032 0.83581 0.32163 0.0
C100 C 0.93608 0.74863 0.36024 0.0
C101 C 0.93563 0.84935 0.21969 0.0
C102 C 0.93563 0.91052 0.38516 0.0
C103 C 0.07077 0.84938 0.2197 0.0
C104 C 0.07035 0.74865 0.36025 0.0
C105 C 0.07072 0.91054 0.38515 0.0
O106 O 0.95127 0.74679 0.31582 0.0
O107 O 0.95146 0.8844 0.24106 0.0
O108 O 0.95099 0.87665 0.4094 0.0
O109 O 0.05542 0.80952 0.22714 0.0
O110 O 0.05491 0.77577 0.39308 0.0
O111 O 0.05498 0.92276 0.34316 0.0
O112 O 0.05517 0.74681 0.31582 0.0
O113 O 0.0549 0.88442 0.24106 0.0
O114 O 0.05539 0.87667 0.4094 0.0
O115 O 0.95101 0.8095 0.22712 0.0
O116 O 0.9515 0.77576 0.39307 0.0
O117 O 0.95136 0.92274 0.34317 0.0
Sc118 Sc 0.00322 0.20044 0.77421 0.0
Sc119 Sc 0.00325 0.0818 0.79366 0.0
Sc120 Sc 0.00323 0.15499 0.89702 0.0
O121 O 0.00323 0.14589 0.82163 0.0
C122 C 0.07036 0.23306 0.86024 0.0
C123 C 0.0708 0.13235 0.7197 0.0
C124 C 0.07079 0.07118 0.88517 0.0
C125 C 0.93566 0.13233 0.71971 0.0
C126 C 0.93608 0.23306 0.86025 0.0
C127 C 0.93569 0.07116 0.88516 0.0
O128 O 0.05517 0.2349 0.81582 0.0
O129 O 0.05496 0.0973 0.74107 0.0
O130 O 0.05543 0.10504 0.90941 0.0
O131 O 0.95102 0.17219 0.72714 0.0
O132 O 0.95151 0.20593 0.89308 0.0
O133 O 0.95144 0.05895 0.84318 0.0
O134 O 0.95127 0.2349 0.81583 0.0
O135 O 0.95153 0.09729 0.74107 0.0
O136 O 0.95103 0.10503 0.90941 0.0
O137 O 0.05542 0.17219 0.72713 0.0
O138 O 0.05493 0.20593 0.89308 0.0
O139 O 0.05506 0.05896 0.84318 0.0
Sc140 Sc 0.50322 0.28124 0.27422 0.0
Sc141 Sc 0.50318 0.39988 0.29363 0.0
Sc142 Sc 0.5032 0.3267 0.39701 0.0
O143 O 0.5032 0.3358 0.32163 0.0
C144 C 0.43608 0.24863 0.36025 0.0
C145 C 0.43564 0.34932 0.21968 0.0
C146 C 0.43563 0.41052 0.38514 0.0
C147 C 0.57078 0.34934 0.2197 0.0
C148 C 0.57035 0.24864 0.36027 0.0
C149 C 0.57073 0.41054 0.38514 0.0
O150 O 0.45127 0.24678 0.31583 0.0
O151 O 0.45147 0.38437 0.24104 0.0
O152 O 0.45099 0.37665 0.40939 0.0
O153 O 0.55543 0.30949 0.22714 0.0
O154 O 0.55491 0.27577 0.39309 0.0
O155 O 0.55498 0.42274 0.34315 0.0
O156 O 0.55517 0.24679 0.31585 0.0
O157 O 0.55491 0.38439 0.24105 0.0
O158 O 0.55539 0.37667 0.40939 0.0
O159 O 0.45102 0.30947 0.22712 0.0
O160 O 0.4515 0.27576 0.39308 0.0
O161 O 0.45137 0.42273 0.34315 0.0
Sc162 Sc 0.50322 0.70046 0.77421 0.0
Sc163 Sc 0.50325 0.58182 0.79363 0.0
Sc164 Sc 0.50322 0.655 0.897 0.0
O165 O 0.50323 0.6459 0.82162 0.0
C166 C 0.57035 0.73307 0.86025 0.0
C167 C 0.5708 0.63238 0.71968 0.0
C168 C 0.57079 0.57118 0.88514 0.0
C169 C 0.43567 0.63237 0.71969 0.0
C170 C 0.43608 0.73306 0.86026 0.0
C171 C 0.43569 0.57116 0.88513 0.0
O172 O 0.55516 0.73492 0.81583 0.0
O173 O 0.55496 0.59733 0.74104 0.0
O174 O 0.55543 0.60504 0.90939 0.0
O175 O 0.45102 0.67222 0.72713 0.0
O176 O 0.45151 0.70593 0.89308 0.0
O177 O 0.45144 0.55896 0.84315 0.0
O178 O 0.45127 0.73492 0.81583 0.0
O179 O 0.45153 0.59732 0.74104 0.0
O180 O 0.45103 0.60503 0.90939 0.0
O181 O 0.55543 0.67223 0.72712 0.0
O182 O 0.55493 0.70594 0.89308 0.0
O183 O 0.55506 0.55897 0.84315 0.0
C184 C 0.16118 0.32373 0.85431 0.0
C185 C 0.17766 0.32306 0.90344 0.0
H186 H 0.11436 0.29582 0.80185 0.0
C187 C 0.15878 0.29272 0.93815 0.0
H188 H 0.17526 0.34685 0.8269 0.0
C189 C 0.12411 0.26353 0.92398 0.0
C190 C 0.10743 0.26402 0.87478 0.0
H191 H 0.1707 0.29134 0.97638 0.0
H192 H 0.11039 0.24061 0.9518 0.0
C193 C 0.12636 0.2945 0.84005 0.0
C194 C 0.84764 0.68897 0.43814 0.0
C195 C 0.82879 0.65861 0.40344 0.0
H196 H 0.89601 0.74111 0.45178 0.0
C197 C 0.84529 0.65792 0.35432 0.0
H198 H 0.8357 0.69036 0.47636 0.0
C199 C 0.8801 0.68717 0.34006 0.0
C200 C 0.89901 0.71766 0.37478 0.0
H201 H 0.83123 0.63479 0.32692 0.0
H202 H 0.89213 0.68583 0.30186 0.0
C203 C 0.88231 0.71817 0.42397 0.0
C204 C 0.84523 0.32372 0.85434 0.0
C205 C 0.82879 0.32307 0.90349 0.0
H206 H 0.89203 0.29579 0.80186 0.0
C207 C 0.8477 0.29275 0.9382 0.0
H208 H 0.83113 0.34683 0.82694 0.0
C209 C 0.88236 0.26355 0.92402 0.0
C210 C 0.89901 0.26402 0.8748 0.0
H211 H 0.8358 0.29139 0.97644 0.0
H212 H 0.89611 0.24064 0.95183 0.0
C213 C 0.88005 0.29448 0.84007 0.0
C214 C 0.15874 0.68896 0.43821 0.0
C215 C 0.17766 0.65865 0.40349 0.0
H216 H 0.11031 0.74105 0.45184 0.0
C217 C 0.16123 0.65801 0.35434 0.0
H218 H 0.17063 0.69032 0.47645 0.0
C219 C 0.12641 0.68725 0.34007 0.0
C220 C 0.10742 0.71769 0.3748 0.0
H221 H 0.17534 0.63492 0.32693 0.0
H222 H 0.11443 0.68594 0.30185 0.0
C223 C 0.12407 0.71815 0.42402 0.0
C224 C 0.65877 0.79273 0.93818 0.0
C225 C 0.67763 0.8231 0.90348 0.0
H226 H 0.6104 0.74059 0.9518 0.0
C227 C 0.66114 0.82378 0.85435 0.0
H228 H 0.6707 0.79134 0.9764 0.0
C229 C 0.62633 0.79454 0.84008 0.0
C230 C 0.60741 0.76404 0.8748 0.0
H231 H 0.6752 0.84692 0.82695 0.0
H232 H 0.61432 0.79588 0.80189 0.0
C233 C 0.62411 0.76353 0.924 0.0
C234 C 0.34527 0.15794 0.35433 0.0
C235 C 0.32879 0.1586 0.40347 0.0
H236 H 0.39208 0.18586 0.30186 0.0
C237 C 0.34767 0.18894 0.43818 0.0
H238 H 0.33119 0.13482 0.32692 0.0
C239 C 0.38234 0.21814 0.424 0.0
C240 C 0.39901 0.21765 0.3748 0.0
H241 H 0.33575 0.19031 0.47641 0.0
H242 H 0.39605 0.24105 0.45181 0.0
C243 C 0.38008 0.18718 0.34007 0.0
C244 C 0.34524 0.82374 0.85437 0.0
C245 C 0.32881 0.8231 0.90352 0.0
H246 H 0.39202 0.79579 0.80187 0.0
C247 C 0.34772 0.79277 0.93823 0.0
H248 H 0.33113 0.84684 0.82696 0.0
C249 C 0.38238 0.76357 0.92404 0.0
C250 C 0.39902 0.76403 0.87482 0.0
H251 H 0.33584 0.79142 0.97648 0.0
H252 H 0.39613 0.74067 0.95185 0.0
C253 C 0.38005 0.79449 0.84009 0.0
C254 C 0.6612 0.15798 0.35439 0.0
C255 C 0.67764 0.15862 0.40354 0.0
H256 H 0.61442 0.18591 0.30189 0.0
C257 C 0.65872 0.18894 0.43825 0.0
H258 H 0.67531 0.13487 0.32698 0.0
C259 C 0.62405 0.21814 0.42405 0.0
C260 C 0.60741 0.21767 0.37483 0.0
H261 H 0.67061 0.1903 0.47649 0.0
H262 H 0.6103 0.24104 0.45186 0.0
C263 C 0.62639 0.18722 0.34011 0.0
C264 C 0.35403 0.4741 0.90519 0.0
C265 C 0.342 0.48029 0.95546 0.0
H266 H 0.39285 0.49803 0.84346 0.0
C267 C 0.35659 0.51969 0.98055 0.0
H268 H 0.34356 0.44398 0.88494 0.0
C269 C 0.38534 0.55057 0.95699 0.0
C270 C 0.40005 0.54264 0.90783 0.0
H271 H 0.34725 0.52566 0.01915 0.0
H272 H 0.39751 0.57953 0.97809 0.0
C273 C 0.38272 0.50495 0.88161 0.0
C274 C 0.64982 0.462 0.48055 0.0
C275 C 0.66442 0.5014 0.45546 0.0
H276 H 0.6089 0.40217 0.47809 0.0
C277 C 0.65239 0.50759 0.40519 0.0
H278 H 0.65916 0.45603 0.51916 0.0
C279 C 0.6237 0.47675 0.38161 0.0
C280 C 0.60637 0.43906 0.40783 0.0
H281 H 0.66287 0.53771 0.38494 0.0
H282 H 0.61358 0.48367 0.34346 0.0
C283 C 0.62107 0.43112 0.45699 0.0
C284 C 0.64987 0.51973 0.98059 0.0
C285 C 0.66448 0.48033 0.95551 0.0
H286 H 0.60894 0.57957 0.9781 0.0
C287 C 0.65247 0.47413 0.90524 0.0
H288 H 0.65919 0.52571 0.0192 0.0
C289 C 0.62378 0.50497 0.88165 0.0
C290 C 0.60643 0.54266 0.90785 0.0
H291 H 0.66295 0.444 0.88501 0.0
H292 H 0.61366 0.49804 0.84349 0.0
C293 C 0.62113 0.55061 0.95701 0.0
C294 C 0.35656 0.46198 0.4806 0.0
C295 C 0.34195 0.50138 0.45551 0.0
H296 H 0.39748 0.40214 0.47811 0.0
C297 C 0.35396 0.50757 0.40524 0.0
H298 H 0.34724 0.45601 0.51921 0.0
C299 C 0.38265 0.47673 0.38164 0.0
C300 C 0.39999 0.43904 0.40785 0.0
H301 H 0.34348 0.5377 0.385 0.0
H302 H 0.39276 0.48365 0.34348 0.0
C303 C 0.3853 0.4311 0.45702 0.0
C304 C 0.85658 0.01972 0.98058 0.0
C305 C 0.84197 0.98031 0.95549 0.0
H306 H 0.8975 0.07954 0.97811 0.0
C307 C 0.85401 0.97412 0.90523 0.0
H308 H 0.84724 0.02569 0.01918 0.0
C309 C 0.88271 0.00496 0.88165 0.0
C310 C 0.90004 0.04265 0.90786 0.0
H311 H 0.84353 0.944 0.88498 0.0
H312 H 0.89284 -0.00197 0.84349 0.0
C313 C 0.88533 0.05059 0.95702 0.0
C314 C 0.14983 0.96198 0.48056 0.0
C315 C 0.16444 0.00138 0.45548 0.0
H316 H 0.10891 0.90215 0.4781 0.0
C317 C 0.1524 0.00758 0.40521 0.0
H318 H 0.15917 0.956 0.51916 0.0
C319 C 0.1237 0.97675 0.38163 0.0
C320 C 0.10637 0.93906 0.40784 0.0
H321 H 0.16288 0.03771 0.38497 0.0
H322 H 0.11357 0.98368 0.34348 0.0
C323 C 0.12108 0.93111 0.457 0.0
C324 C 0.15249 0.97415 0.90528 0.0
C325 C 0.16452 0.98036 0.95555 0.0
H326 H 0.11367 -0.00196 0.84353 0.0
C327 C 0.1499 0.01977 0.98062 0.0
H328 H 0.16298 0.94402 0.88506 0.0
C329 C 0.12114 0.05063 0.95704 0.0
C330 C 0.10645 0.04267 0.90788 0.0
H331 H 0.15923 0.02576 0.01922 0.0
H332 H 0.10896 0.0796 0.97812 0.0
C333 C 0.12379 0.00498 0.88168 0.0
C334 C 0.85655 0.96195 0.48062 0.0
C335 C 0.84193 0.00135 0.45555 0.0
H336 H 0.89748 0.90212 0.47812 0.0
C337 C 0.85394 0.00755 0.40528 0.0
H338 H 0.84723 0.95597 0.51923 0.0
C339 C 0.88263 0.97672 0.38167 0.0
C340 C 0.89998 0.93903 0.40787 0.0
H341 H 0.84345 0.03769 0.38505 0.0
H342 H 0.89274 0.98365 0.34352 0.0
C343 C 0.88529 0.93108 0.45704 0.0
C344 C 0.35014 0.40944 0.13948 0.0
C345 C 0.34223 0.37715 0.10194 0.0
H346 H 0.38519 0.42564 0.20659 0.0
C347 C 0.36039 0.33323 0.10681 0.0
H348 H 0.33603 0.44336 0.13674 0.0
C349 C 0.38899 0.32294 0.14681 0.0
C350 C 0.39968 0.35652 0.18235 0.0
H351 H 0.35481 0.30784 0.07809 0.0
H352 H 0.40458 0.28965 0.14829 0.0
C353 C 0.37845 0.39923 0.17933 0.0
C354 C 0.64605 0.64846 0.6068 0.0
C355 C 0.6642 0.60453 0.60194 0.0
H356 H 0.60187 0.69204 0.64827 0.0
C357 C 0.65629 0.57225 0.63949 0.0
H358 H 0.65164 0.67383 0.57807 0.0
C359 C 0.62799 0.58246 0.67934 0.0
C360 C 0.60676 0.62517 0.68236 0.0
H361 H 0.6704 0.53832 0.63675 0.0
H362 H 0.62125 0.55606 0.70661 0.0
C363 C 0.61746 0.65875 0.6468 0.0
C364 C 0.65628 0.40949 0.13954 0.0
C365 C 0.66423 0.3772 0.10201 0.0
H366 H 0.62119 0.42568 0.20663 0.0
C367 C 0.64609 0.33327 0.10687 0.0
H368 H 0.67038 0.44342 0.13681 0.0
C369 C 0.61748 0.32298 0.14685 0.0
C370 C 0.60675 0.35656 0.18239 0.0
H371 H 0.6517 0.30789 0.07815 0.0
H372 H 0.60191 0.28969 0.14833 0.0
C373 C 0.62796 0.39927 0.17937 0.0
C374 C 0.35017 0.57223 0.63953 0.0
C375 C 0.34223 0.60452 0.602 0.0
H376 H 0.38525 0.55603 0.70662 0.0
C377 C 0.36036 0.64844 0.60685 0.0
H378 H 0.33607 0.5383 0.6368 0.0
C379 C 0.38897 0.65873 0.64684 0.0
C380 C 0.3997 0.62515 0.68238 0.0
H381 H 0.35476 0.67383 0.57813 0.0
H382 H 0.40455 0.69203 0.64831 0.0
C383 C 0.37848 0.58244 0.67936 0.0
C384 C 0.85011 0.90947 0.13952 0.0
C385 C 0.8422 0.87719 0.10198 0.0
H386 H 0.88517 0.92567 0.20662 0.0
C387 C 0.86035 0.83326 0.10684 0.0
H388 H 0.836 0.9434 0.13679 0.0
C389 C 0.88896 0.82298 0.14683 0.0
C390 C 0.89966 0.85656 0.18237 0.0
H391 H 0.85477 0.80788 0.07811 0.0
H392 H 0.90456 0.78969 0.1483 0.0
C393 C 0.87843 0.89926 0.17936 0.0
C394 C 0.1563 0.07221 0.63951 0.0
C395 C 0.16422 0.1045 0.60197 0.0
H396 H 0.12123 0.05601 0.70662 0.0
C397 C 0.14608 0.14842 0.60684 0.0
H398 H 0.1704 0.03828 0.63677 0.0
C399 C 0.11748 0.15871 0.64683 0.0
C400 C 0.10676 0.12513 0.68238 0.0
H401 H 0.15167 0.1738 0.57811 0.0
H402 H 0.10189 0.192 0.64831 0.0
C403 C 0.12799 0.08242 0.67935 0.0
C404 C 0.1563 0.90953 0.13958 0.0
C405 C 0.16425 0.87725 0.10205 0.0
H406 H 0.12118 0.92572 0.20665 0.0
C407 C 0.14612 0.83332 0.1069 0.0
H408 H 0.17039 0.94346 0.13685 0.0
C409 C 0.11749 0.82302 0.14687 0.0
C410 C 0.10675 0.8566 0.1824 0.0
H411 H 0.15174 0.80794 0.07818 0.0
H412 H 0.10192 0.78973 0.14833 0.0
C413 C 0.12796 0.89931 0.1794 0.0
C414 C 0.86034 0.1484 0.60689 0.0
C415 C 0.8422 0.10447 0.60204 0.0
H416 H 0.90453 0.19199 0.64833 0.0
C417 C 0.85015 0.07218 0.63958 0.0
H418 H 0.85472 0.17378 0.57817 0.0
C419 C 0.87848 0.0824 0.6794 0.0
C420 C 0.89969 0.12512 0.68241 0.0
H421 H 0.83605 0.03826 0.63685 0.0
H422 H 0.88525 0.056 0.70666 0.0
C423 C 0.88895 0.15869 0.64687 0.0
loop_
_geom_bond_atom_site_label_1
_geom_bond_atom_site_label_2
_geom_bond_distance
_geom_bond_site_symmetry_2
_ccdc_geom_bond_type
H0 C5 0.930 . S
H1 C8 0.930 . S
H2 C10 0.930 . S
H3 C4 1.016 . S
C4 H3 1.016 . S
C4 N11 1.286 . S
C5 H0 0.930 . S
C5 C6 1.397 . S
C5 C7 1.361 . S
C6 C5 1.397 . S
C6 C10 1.390 . S
C7 C5 1.361 . S
C7 C8 1.393 1_554 S
C7 N11 1.413 1_554 S
C8 H1 0.930 . S
C8 C7 1.393 1_556 S
C8 C9 1.399 . S
C9 C8 1.399 . S
C9 C10 1.381 1_556 S
C10 H2 0.930 . S
C10 C6 1.390 . S
C10 C9 1.381 1_554 S
N11 C4 1.286 . S
N11 C7 1.413 1_556 S
H12 C17 0.930 . S
H13 C20 0.930 . S
H14 C22 0.930 . S
H15 C16 1.016 . S
C16 H15 1.016 . S
C16 N23 1.286 . S
C17 H12 0.930 . S
C17 C18 1.397 . S
C17 C19 1.361 . S
C18 C17 1.397 . S
C18 C22 1.390 . S
C19 C17 1.361 . S
C19 C20 1.393 . S
C19 N23 1.413 . S
C20 H13 0.930 . S
C20 C19 1.393 . S
C20 C21 1.399 . S
C21 C20 1.399 . S
C21 C22 1.381 . S
C22 H14 0.930 . S
C22 C18 1.390 . S
C22 C21 1.381 . S
N23 C16 1.286 . S
N23 C19 1.413 . S
H24 C29 0.930 . S
H25 C32 0.930 . S
H26 C34 0.930 . S
H27 C28 1.016 . S
C28 H27 1.016 . S
C28 N35 1.286 1_556 S
C29 H24 0.930 . S
C29 C30 1.397 . S
C29 C31 1.361 . S
C30 C29 1.397 . S
C30 C34 1.390 . S
C31 C29 1.361 . S
C31 C32 1.393 1_554 S
C31 N35 1.413 . S
C32 H25 0.930 . S
C32 C31 1.393 1_556 S
C32 C33 1.399 . S
C33 C32 1.399 . S
C33 C34 1.381 1_556 S
C34 H26 0.930 . S
C34 C30 1.390 . S
C34 C33 1.381 1_554 S
N35 C28 1.286 1_554 S
N35 C31 1.413 . S
H36 C41 0.930 . S
H37 C44 0.930 . S
H38 C46 0.930 . S
H39 C40 1.016 . S
C40 H39 1.016 . S
C40 N47 1.286 . S
C41 H36 0.930 . S
C41 C42 1.397 . S
C41 C43 1.361 . S
C42 C41 1.397 . S
C42 C46 1.390 . S
C43 C41 1.361 . S
C43 C44 1.393 . S
C43 N47 1.413 . S
C44 H37 0.930 . S
C44 C43 1.393 . S
C44 C45 1.399 . S
C45 C44 1.399 . S
C45 C46 1.381 . S
C46 H38 0.930 . S
C46 C42 1.390 . S
C46 C45 1.381 . S
N47 C40 1.286 . S
N47 C43 1.413 . S
H48 C53 0.930 . S
H49 C56 0.930 . S
H50 C58 0.930 . S
H51 C52 1.016 . S
C52 H51 1.016 . S
C52 N59 1.286 . S
C53 H48 0.930 . S
C53 C54 1.397 . S
C53 C55 1.361 . S
C54 C53 1.397 . S
C54 C58 1.390 . S
C55 C53 1.361 . S
C55 C56 1.393 1_554 S
C55 N59 1.413 1_554 S
C56 H49 0.930 . S
C56 C55 1.393 1_556 S
C56 C57 1.399 . S
C57 C56 1.399 . S
C57 C58 1.381 1_556 S
C58 H50 0.930 . S
C58 C54 1.390 . S
C58 C57 1.381 1_554 S
N59 C52 1.286 . S
N59 C55 1.413 1_556 S
H60 C65 0.930 . S
H61 C68 0.930 . S
H62 C70 0.930 . S
H63 C64 1.016 . S
C64 H63 1.016 . S
C64 N71 1.286 . S
C65 H60 0.930 . S
C65 C66 1.397 . S
C65 C67 1.361 . S
C66 C65 1.397 . S
C66 C70 1.390 . S
C67 C65 1.361 . S
C67 C68 1.393 . S
C67 N71 1.413 . S
C68 H61 0.930 . S
C68 C67 1.393 . S
C68 C69 1.399 . S
C69 C68 1.399 . S
C69 C70 1.381 . S
C70 H62 0.930 . S
C70 C66 1.390 . S
C70 C69 1.381 . S
N71 C64 1.286 . S
N71 C67 1.413 . S
H72 C77 0.930 . S
H73 C80 0.930 . S
H74 C82 0.930 . S
H75 C76 1.016 . S
C76 H75 1.016 . S
C76 N83 1.286 1_556 S
C77 H72 0.930 . S
C77 C78 1.397 . S
C77 C79 1.361 . S
C78 C77 1.397 . S
C78 C82 1.390 . S
C79 C77 1.361 . S
C79 C80 1.393 1_554 S
C79 N83 1.413 . S
C80 H73 0.930 . S
C80 C79 1.393 1_556 S
C80 C81 1.399 . S
C81 C80 1.399 . S
C81 C82 1.381 1_556 S
C82 H74 0.930 . S
C82 C78 1.390 . S
C82 C81 1.381 1_554 S
N83 C76 1.286 1_554 S
N83 C79 1.413 . S
H84 C89 0.930 . S
H85 C92 0.930 . S
H86 C94 0.930 . S
H87 C88 1.016 . S
C88 H87 1.016 . S
C88 N95 1.286 . S
C89 H84 0.930 . S
C89 C90 1.397 . S
C89 C91 1.361 . S
C90 C89 1.397 . S
C90 C94 1.390 . S
C91 C89 1.361 . S
C91 C92 1.393 . S
C91 N95 1.413 . S
C92 H85 0.930 . S
C92 C91 1.393 . S
C92 C93 1.399 . S
C93 C92 1.399 . S
C93 C94 1.381 . S
C94 H86 0.930 . S
C94 C90 1.390 . S
C94 C93 1.381 . S
N95 C88 1.286 . S
N95 C91 1.413 . S
Sc96 O99 2.025 . S
Sc96 O106 2.105 1_455 S
Sc96 O109 2.105 . S
Sc96 O112 2.105 . S
Sc96 O115 2.105 1_455 S
Sc97 O99 2.025 . S
Sc97 O107 2.105 1_455 S
Sc97 O111 2.105 . S
Sc97 O113 2.105 . S
Sc97 O117 2.105 1_455 S
Sc98 O99 2.025 . S
Sc98 O108 2.105 1_455 S
Sc98 O110 2.105 . S
Sc98 O114 2.105 . S
Sc98 O116 2.105 1_455 S
O99 Sc96 2.025 . S
O99 Sc97 2.025 . S
O99 Sc98 2.025 . S
C100 O106 1.268 . S
C100 O116 1.268 . S
C101 O107 1.268 . S
C101 O115 1.268 . S
C102 O108 1.268 . S
C102 O117 1.268 . S
C103 O109 1.268 . S
C103 O113 1.268 . S
C104 O110 1.268 . S
C104 O112 1.268 . S
C105 O111 1.268 . S
C105 O114 1.268 . S
O106 Sc96 2.105 1_655 S
O106 C100 1.268 . S
O107 Sc97 2.105 1_655 S
O107 C101 1.268 . S
O108 Sc98 2.105 1_655 S
O108 C102 1.268 . S
O109 Sc96 2.105 . S
O109 C103 1.268 . S
O110 Sc98 2.105 . S
O110 C104 1.268 . S
O111 Sc97 2.105 . S
O111 C105 1.268 . S
O112 Sc96 2.105 . S
O112 C104 1.268 . S
O113 Sc97 2.105 . S
O113 C103 1.268 . S
O114 Sc98 2.105 . S
O114 C105 1.268 . S
O115 Sc96 2.105 1_655 S
O115 C101 1.268 . S
O116 Sc98 2.105 1_655 S
O116 C100 1.268 . S
O117 Sc97 2.105 1_655 S
O117 C102 1.268 . S
Sc118 O121 2.025 . S
Sc118 O128 2.105 . S
Sc118 O131 2.105 1_455 S
Sc118 O134 2.105 1_455 S
Sc118 O137 2.105 . S
Sc119 O121 2.025 . S
Sc119 O129 2.105 . S
Sc119 O133 2.105 1_455 S
Sc119 O135 2.105 1_455 S
Sc119 O139 2.105 . S
Sc120 O121 2.025 . S
Sc120 O130 2.105 . S
Sc120 O132 2.105 1_455 S
Sc120 O136 2.105 1_455 S
Sc120 O138 2.105 . S
O121 Sc118 2.025 . S
O121 Sc119 2.025 . S
O121 Sc120 2.025 . S
C122 O128 1.268 . S
C122 O138 1.268 . S
C123 O129 1.268 . S
C123 O137 1.268 . S
C124 O130 1.268 . S
C124 O139 1.268 . S
C125 O131 1.268 . S
C125 O135 1.268 . S
C126 O132 1.268 . S
C126 O134 1.268 . S
C127 O133 1.268 . S
C127 O136 1.268 . S
O128 Sc118 2.105 . S
O128 C122 1.268 . S
O129 Sc119 2.105 . S
O129 C123 1.268 . S
O130 Sc120 2.105 . S
O130 C124 1.268 . S
O131 Sc118 2.105 1_655 S
O131 C125 1.268 . S
O132 Sc120 2.105 1_655 S
O132 C126 1.268 . S
O133 Sc119 2.105 1_655 S
O133 C127 1.268 . S
O134 Sc118 2.105 1_655 S
O134 C126 1.268 . S
O135 Sc119 2.105 1_655 S
O135 C125 1.268 . S
O136 Sc120 2.105 1_655 S
O136 C127 1.268 . S
O137 Sc118 2.105 . S
O137 C123 1.268 . S
O138 Sc120 2.105 . S
O138 C122 1.268 . S
O139 Sc119 2.105 . S
O139 C124 1.268 . S
Sc140 O143 2.025 . S
Sc140 O150 2.105 . S
Sc140 O153 2.105 . S
Sc140 O156 2.105 . S
Sc140 O159 2.105 . S
Sc141 O143 2.025 . S
Sc141 O151 2.105 . S
Sc141 O155 2.105 . S
Sc141 O157 2.105 . S
Sc141 O161 2.105 . S
Sc142 O143 2.025 . S
Sc142 O152 2.105 . S
Sc142 O154 2.105 . S
Sc142 O158 2.105 . S
Sc142 O160 2.105 . S
O143 Sc140 2.025 . S
O143 Sc141 2.025 . S
O143 Sc142 2.025 . S
C144 O150 1.268 . S
C144 O160 1.268 . S
C145 O151 1.268 . S
C145 O159 1.268 . S
C146 O152 1.268 . S
C146 O161 1.268 . S
C147 O153 1.268 . S
C147 O157 1.268 . S
C148 O154 1.268 . S
C148 O156 1.268 . S
C149 O155 1.268 . S
C149 O158 1.268 . S
O150 Sc140 2.105 . S
O150 C144 1.268 . S
O151 Sc141 2.105 . S
O151 C145 1.268 . S
O152 Sc142 2.105 . S
O152 C146 1.268 . S
O153 Sc140 2.105 . S
O153 C147 1.268 . S
O154 Sc142 2.105 . S
O154 C148 1.268 . S
O155 Sc141 2.105 . S
O155 C149 1.268 . S
O156 Sc140 2.105 . S
O156 C148 1.268 . S
O157 Sc141 2.105 . S
O157 C147 1.268 . S
O158 Sc142 2.105 . S
O158 C149 1.268 . S
O159 Sc140 2.105 . S
O159 C145 1.268 . S
O160 Sc142 2.105 . S
O160 C144 1.268 . S
O161 Sc141 2.105 . S
O161 C146 1.268 . S
Sc162 O165 2.025 . S
Sc162 O172 2.105 . S
Sc162 O175 2.105 . S
Sc162 O178 2.105 . S
Sc162 O181 2.105 . S
Sc163 O165 2.025 . S
Sc163 O173 2.105 . S
Sc163 O177 2.105 . S
Sc163 O179 2.105 . S
Sc163 O183 2.105 . S
Sc164 O165 2.025 . S
Sc164 O174 2.105 . S
Sc164 O176 2.105 . S
Sc164 O180 2.105 . S
Sc164 O182 2.105 . S
O165 Sc162 2.025 . S
O165 Sc163 2.025 . S
O165 Sc164 2.025 . S
C166 O172 1.268 . S
C166 O182 1.268 . S
C167 O173 1.268 . S
C167 O181 1.268 . S
C168 O174 1.268 . S
C168 O183 1.268 . S
C169 O175 1.268 . S
C169 O179 1.268 . S
C170 O176 1.268 . S
C170 O178 1.268 . S
C171 O177 1.268 . S
C171 O180 1.268 . S
O172 Sc162 2.105 . S
O172 C166 1.268 . S
O173 Sc163 2.105 . S
O173 C167 1.268 . S
O174 Sc164 2.105 . S
O174 C168 1.268 . S
O175 Sc162 2.105 . S
O175 C169 1.268 . S
O176 Sc164 2.105 . S
O176 C170 1.268 . S
O177 Sc163 2.105 . S
O177 C171 1.268 . S
O178 Sc162 2.105 . S
O178 C170 1.268 . S
O179 Sc163 2.105 . S
O179 C169 1.268 . S
O180 Sc164 2.105 . S
O180 C171 1.268 . S
O181 Sc162 2.105 . S
O181 C167 1.268 . S
O182 Sc164 2.105 . S
O182 C166 1.268 . S
O183 Sc163 2.105 . S
O183 C168 1.268 . S
C184 C185 1.387 . S
C184 H188 0.950 . S
C184 C193 1.390 . S
C185 C184 1.387 . S
C185 C187 1.387 . S
H186 C193 0.950 . S
C187 C185 1.387 . S
C187 C189 1.390 . S
C187 H191 0.950 1_556 S
H188 C184 0.950 . S
C189 C187 1.390 . S
C189 C190 1.387 . S
C189 H192 0.950 . S
C190 C189 1.387 . S
C190 C193 1.387 . S
H191 C187 0.950 1_554 S
H192 C189 0.950 . S
C193 C184 1.390 . S
C193 H186 0.950 . S
C193 C190 1.387 . S
C194 C195 1.387 . S
C194 H198 0.950 . S
C194 C203 1.390 . S
C195 C194 1.387 . S
C195 C197 1.387 . S
H196 C203 0.950 . S
C197 C195 1.387 . S
C197 C199 1.390 . S
C197 H201 0.950 . S
H198 C194 0.950 . S
C199 C197 1.390 . S
C199 C200 1.387 . S
C199 H202 0.950 . S
C200 C199 1.387 . S
C200 C203 1.387 . S
H201 C197 0.950 . S
H202 C199 0.950 . S
C203 C194 1.390 . S
C203 H196 0.950 . S
C203 C200 1.387 . S
C204 C205 1.387 . S
C204 H208 0.950 . S
C204 C213 1.390 . S
C205 C204 1.387 . S
C205 C207 1.387 . S
H206 C213 0.950 . S
C207 C205 1.387 . S
C207 C209 1.390 . S
C207 H211 0.950 1_556 S
H208 C204 0.950 . S
C209 C207 1.390 . S
C209 C210 1.387 . S
C209 H212 0.950 . S
C210 C209 1.387 . S
C210 C213 1.387 . S
H211 C207 0.950 1_554 S
H212 C209 0.950 . S
C213 C204 1.390 . S
C213 H206 0.950 . S
C213 C210 1.387 . S
C214 C215 1.387 . S
C214 H218 0.950 . S
C214 C223 1.390 . S
C215 C214 1.387 . S
C215 C217 1.387 . S
H216 C223 0.950 . S
C217 C215 1.387 . S
C217 C219 1.390 . S
C217 H221 0.950 . S
H218 C214 0.950 . S
C219 C217 1.390 . S
C219 C220 1.387 . S
C219 H222 0.950 . S
C220 C219 1.387 . S
C220 C223 1.387 . S
H221 C217 0.950 . S
H222 C219 0.950 . S
C223 C214 1.390 . S
C223 H216 0.950 . S
C223 C220 1.387 . S
C224 C225 1.387 . S
C224 H228 0.950 1_556 S
C224 C233 1.390 . S
C225 C224 1.387 . S
C225 C227 1.387 . S
H226 C233 0.950 . S
C227 C225 1.387 . S
C227 C229 1.390 . S
C227 H231 0.950 . S
H228 C224 0.950 1_554 S
C229 C227 1.390 . S
C229 C230 1.387 . S
C229 H232 0.950 . S
C230 C229 1.387 . S
C230 C233 1.387 . S
H231 C227 0.950 . S
H232 C229 0.950 . S
C233 C224 1.390 . S
C233 H226 0.950 . S
C233 C230 1.387 . S
C234 C235 1.387 . S
C234 H238 0.950 . S
C234 C243 1.390 . S
C235 C234 1.387 . S
C235 C237 1.387 . S
H236 C243 0.950 . S
C237 C235 1.387 . S
C237 C239 1.390 . S
C237 H241 0.950 . S
H238 C234 0.950 . S
C239 C237 1.390 . S
C239 C240 1.387 . S
C239 H242 0.950 . S
C240 C239 1.387 . S
C240 C243 1.387 . S
H241 C237 0.950 . S
H242 C239 0.950 . S
C243 C234 1.390 . S
C243 H236 0.950 . S
C243 C240 1.387 . S
C244 C245 1.387 . S
C244 H248 0.950 . S
C244 C253 1.390 . S
C245 C244 1.387 . S
C245 C247 1.387 . S
H246 C253 0.950 . S
C247 C245 1.387 . S
C247 C249 1.390 . S
C247 H251 0.950 1_556 S
H248 C244 0.950 . S
C249 C247 1.390 . S
C249 C250 1.387 . S
C249 H252 0.950 . S
C250 C249 1.387 . S
C250 C253 1.387 . S
H251 C247 0.950 1_554 S
H252 C249 0.950 . S
C253 C244 1.390 . S
C253 H246 0.950 . S
C253 C250 1.387 . S
C254 C255 1.387 . S
C254 H258 0.950 . S
C254 C263 1.390 . S
C255 C254 1.387 . S
C255 C257 1.387 . S
H256 C263 0.950 . S
C257 C255 1.387 . S
C257 C259 1.390 . S
C257 H261 0.950 . S
H258 C254 0.950 . S
C259 C257 1.390 . S
C259 C260 1.387 . S
C259 H262 0.950 . S
C260 C259 1.387 . S
C260 C263 1.387 . S
H261 C257 0.950 . S
H262 C259 0.950 . S
C263 C254 1.390 . S
C263 H256 0.950 . S
C263 C260 1.387 . S
C264 C265 1.387 . S
C264 H268 0.950 . S
C264 C273 1.390 . S
C265 C264 1.387 . S
C265 C267 1.387 . S
H266 C273 0.950 . S
C267 C265 1.387 . S
C267 C269 1.390 . S
C267 H271 0.950 . S
H268 C264 0.950 . S
C269 C267 1.390 . S
C269 C270 1.387 . S
C269 H272 0.950 . S
C270 C269 1.387 . S
C270 C273 1.387 . S
H271 C267 0.950 . S
H272 C269 0.950 . S
C273 C264 1.390 . S
C273 H266 0.950 . S
C273 C270 1.387 . S
C274 C275 1.387 . S
C274 H278 0.950 . S
C274 C283 1.390 . S
C275 C274 1.387 . S
C275 C277 1.387 . S
H276 C283 0.950 . S
C277 C275 1.387 . S
C277 C279 1.390 . S
C277 H281 0.950 . S
H278 C274 0.950 . S
C279 C277 1.390 . S
C279 C280 1.387 . S
C279 H282 0.950 . S
C280 C279 1.387 . S
C280 C283 1.387 . S
H281 C277 0.950 . S
H282 C279 0.950 . S
C283 C274 1.390 . S
C283 H276 0.950 . S
C283 C280 1.387 . S
C284 C285 1.387 . S
C284 H288 0.950 . S
C284 C293 1.390 . S
C285 C284 1.387 . S
C285 C287 1.387 . S
H286 C293 0.950 . S
C287 C285 1.387 . S
C287 C289 1.390 . S
C287 H291 0.950 . S
H288 C284 0.950 . S
C289 C287 1.390 . S
C289 C290 1.387 . S
C289 H292 0.950 . S
C290 C289 1.387 . S
C290 C293 1.387 . S
H291 C287 0.950 . S
H292 C289 0.950 . S
C293 C284 1.390 . S
C293 H286 0.950 . S
C293 C290 1.387 . S
C294 C295 1.387 . S
C294 H298 0.950 . S
C294 C303 1.390 . S
C295 C294 1.387 . S
C295 C297 1.387 . S
H296 C303 0.950 . S
C297 C295 1.387 . S
C297 C299 1.390 . S
C297 H301 0.950 . S
H298 C294 0.950 . S
C299 C297 1.390 . S
C299 C300 1.387 . S
C299 H302 0.950 . S
C300 C299 1.387 . S
C300 C303 1.387 . S
H301 C297 0.950 . S
H302 C299 0.950 . S
C303 C294 1.390 . S
C303 H296 0.950 . S
C303 C300 1.387 . S
C304 C305 1.376 1_545 S
C304 H308 0.953 1_556 S
C304 C313 1.399 . S
C305 C304 1.376 1_565 S
C305 C307 1.387 . S
H306 C313 0.950 . S
C307 C305 1.387 . S
C307 C309 1.390 . S
C307 H311 0.950 . S
H308 C304 0.953 1_554 S
C309 C307 1.390 . S
C309 C310 1.387 1_565 S
C309 H312 0.950 . S
C310 C309 1.387 1_545 S
C310 C313 1.387 . S
H311 C307 0.950 . S
H312 C309 0.950 . S
C313 C304 1.399 . S
C313 H306 0.950 . S
C313 C310 1.387 . S
C314 C315 1.387 1_565 S
C314 H318 0.950 . S
C314 C323 1.390 . S
C315 C314 1.387 1_545 S
C315 C317 1.387 . S
H316 C323 0.950 . S
C317 C315 1.387 . S
C317 C319 1.390 . S
C317 H321 0.950 . S
H318 C314 0.950 . S
C319 C317 1.390 . S
C319 C320 1.387 1_545 S
C319 H322 0.950 . S
C320 C319 1.387 1_565 S
C320 C323 1.387 . S
H321 C317 0.950 . S
H322 C319 0.950 . S
C323 C314 1.390 . S
C323 H316 0.950 . S
C323 C320 1.387 . S
C324 C325 1.387 . S
C324 H328 0.950 . S
C324 C333 1.390 . S
C325 C324 1.387 . S
C325 C327 1.387 1_565 S
H326 C333 0.950 . S
C327 C325 1.387 1_545 S
C327 C329 1.390 . S
C327 H331 0.950 . S
H328 C324 0.950 . S
C329 C327 1.390 . S
C329 C330 1.387 . S
C329 H332 0.950 . S
C330 C329 1.387 . S
C330 C333 1.387 1_545 S
H331 C327 0.950 . S
H332 C329 0.950 . S
C333 C324 1.390 . S
C333 H326 0.950 . S
C333 C330 1.387 1_565 S
C334 C335 1.387 1_565 S
C334 H338 0.950 . S
C334 C343 1.390 . S
C335 C334 1.387 1_545 S
C335 C337 1.387 . S
H336 C343 0.950 . S
C337 C335 1.387 . S
C337 C339 1.390 . S
C337 H341 0.950 . S
H338 C334 0.950 . S
C339 C337 1.390 . S
C339 C340 1.387 1_545 S
C339 H342 0.950 . S
C340 C339 1.387 1_565 S
C340 C343 1.387 . S
H341 C337 0.950 . S
H342 C339 0.950 . S
C343 C334 1.390 . S
C343 H336 0.950 . S
C343 C340 1.387 . S
C344 C345 1.387 . S
C344 H348 0.950 . S
C344 C353 1.390 . S
C345 C344 1.387 . S
C345 C347 1.387 . S
H346 C353 0.950 . S
C347 C345 1.387 . S
C347 C349 1.390 . S
C347 H351 0.950 . S
H348 C344 0.950 . S
C349 C347 1.390 . S
C349 C350 1.387 . S
C349 H352 0.950 . S
C350 C349 1.387 . S
C350 C353 1.387 . S
H351 C347 0.950 . S
H352 C349 0.950 . S
C353 C344 1.390 . S
C353 H346 0.950 . S
C353 C350 1.387 . S
C354 C355 1.387 . S
C354 H358 0.950 . S
C354 C363 1.390 . S
C355 C354 1.387 . S
C355 C357 1.387 . S
H356 C363 0.950 . S
C357 C355 1.387 . S
C357 C359 1.390 . S
C357 H361 0.950 . S
H358 C354 0.950 . S
C359 C357 1.390 . S
C359 C360 1.387 . S
C359 H362 0.950 . S
C360 C359 1.387 . S
C360 C363 1.387 . S
H361 C357 0.950 . S
H362 C359 0.950 . S
C363 C354 1.390 . S
C363 H356 0.950 . S
C363 C360 1.387 . S
C364 C365 1.387 . S
C364 H368 0.950 . S
C364 C373 1.390 . S
C365 C364 1.387 . S
C365 C367 1.387 . S
H366 C373 0.950 . S
C367 C365 1.387 . S
C367 C369 1.390 . S
C367 H371 0.950 . S
H368 C364 0.950 . S
C369 C367 1.390 . S
C369 C370 1.387 . S
C369 H372 0.950 . S
C370 C369 1.387 . S
C370 C373 1.387 . S
H371 C367 0.950 . S
H372 C369 0.950 . S
C373 C364 1.390 . S
C373 H366 0.950 . S
C373 C370 1.387 . S
C374 C375 1.387 . S
C374 H378 0.950 . S
C374 C383 1.390 . S
C375 C374 1.387 . S
C375 C377 1.387 . S
H376 C383 0.950 . S
C377 C375 1.387 . S
C377 C379 1.390 . S
C377 H381 0.950 . S
H378 C374 0.950 . S
C379 C377 1.390 . S
C379 C380 1.387 . S
C379 H382 0.950 . S
C380 C379 1.387 . S
C380 C383 1.387 . S
H381 C377 0.950 . S
H382 C379 0.950 . S
C383 C374 1.390 . S
C383 H376 0.950 . S
C383 C380 1.387 . S
C384 C385 1.387 . S
C384 H388 0.950 . S
C384 C393 1.390 . S
C385 C384 1.387 . S
C385 C387 1.387 . S
H386 C393 0.950 . S
C387 C385 1.387 . S
C387 C389 1.390 . S
C387 H391 0.950 . S
H388 C384 0.950 . S
C389 C387 1.390 . S
C389 C390 1.387 . S
C389 H392 0.950 . S
C390 C389 1.387 . S
C390 C393 1.387 . S
H391 C387 0.950 . S
H392 C389 0.950 . S
C393 C384 1.390 . S
C393 H386 0.950 . S
C393 C390 1.387 . S
C394 C395 1.387 . S
C394 H398 0.950 . S
C394 C403 1.390 . S
C395 C394 1.387 . S
C395 C397 1.387 . S
H396 C403 0.950 . S
C397 C395 1.387 . S
C397 C399 1.390 . S
C397 H401 0.950 . S
H398 C394 0.950 . S
C399 C397 1.390 . S
C399 C400 1.387 . S
C399 H402 0.950 . S
C400 C399 1.387 . S
C400 C403 1.387 . S
H401 C397 0.950 . S
H402 C399 0.950 . S
C403 C394 1.390 . S
C403 H396 0.950 . S
C403 C400 1.387 . S
C404 C405 1.387 . S
C404 H408 0.950 . S
C404 C413 1.390 . S
C405 C404 1.387 . S
C405 C407 1.387 . S
H406 C413 0.950 . S
C407 C405 1.387 . S
C407 C409 1.390 . S
C407 H411 0.950 . S
H408 C404 0.950 . S
C409 C407 1.390 . S
C409 C410 1.387 . S
C409 H412 0.950 . S
C410 C409 1.387 . S
C410 C413 1.387 . S
H411 C407 0.950 . S
H412 C409 0.950 . S
C413 C404 1.390 . S
C413 H406 0.950 . S
C413 C410 1.387 . S
C414 C415 1.387 . S
C414 H418 0.950 . S
C414 C423 1.390 . S
C415 C414 1.387 . S
C415 C417 1.387 . S
H416 C423 0.950 . S
C417 C415 1.387 . S
C417 C419 1.390 . S
C417 H421 0.950 . S
H418 C414 0.950 . S
C419 C417 1.390 . S
C419 C420 1.387 . S
C419 H422 0.950 . S
C420 C419 1.387 . S
C420 C423 1.387 . S
H421 C417 0.950 . S
H422 C419 0.950 . S
C423 C414 1.390 . S
C423 H416 0.950 . S
C423 C420 1.387 . S
C185 C4 1.538 . S
C190 C122 1.514 . S
C200 C100 1.513 . S
C195 C16 1.538 . S
C210 C126 1.513 . S
C205 C28 1.527 . S
C220 C104 1.515 . S
C215 C40 1.527 . S
C230 C166 1.513 . S
C225 C52 1.537 . S
C240 C144 1.515 . S
C235 C64 1.538 . S
C245 C76 1.526 . S
C250 C170 1.513 . S
C260 C148 1.513 . S
C255 C88 1.527 . S
C265 C9 1.496 . S
C270 C171 1.529 . S
C280 C149 1.527 . S
C275 C21 1.498 . S
C285 C33 1.505 . S
C290 C168 1.529 . S
C295 C45 1.505 . S
C300 C146 1.529 . S
C310 C127 1.527 . S
C305 C57 1.499 . S
C315 C69 1.499 . S
C320 C105 1.526 . S
C330 C124 1.527 . S
C325 C81 1.506 . S
C340 C102 1.529 . S
C335 C93 1.505 . S
C350 C145 1.488 . S
C345 C6 1.479 . S
C360 C167 1.486 . S
C355 C18 1.481 . S
C365 C30 1.496 . S
C370 C147 1.486 . S
C380 C169 1.486 . S
C375 C42 1.496 . S
C390 C101 1.488 . S
C385 C54 1.480 . S
C395 C66 1.479 . S
C400 C123 1.487 . S
C405 C78 1.496 . S
C410 C103 1.485 . S
C415 C90 1.494 . S
C420 C125 1.489 . S
