# Generated by pormake.
# Topology zzz, (3,6)-cn, num edge types: 1
# Building blocks:
#     Node 0, Type 0, BuildingBlock: VETTIZ_charged_linker_0, # of connection points: 3
#     Node 1, Type 0, BuildingBlock: VETTIZ_charged_linker_0, # of connection points: 3
#     Node 2, Type 0, BuildingBlock: VETTIZ_charged_linker_0, # of connection points: 3
#     Node 3, Type 0, BuildingBlock: VETTIZ_charged_linker_0, # of connection points: 3
#     Node 4, Type 0, BuildingBlock: VETTIZ_charged_linker_0, # of connection points: 3
#     Node 5, Type 0, BuildingBlock: VETTIZ_charged_linker_0, # of connection points: 3
#     Node 6, Type 0, BuildingBlock: VETTIZ_charged_linker_0, # of connection points: 3
#     Node 7, Type 0, BuildingBlock: VETTIZ_charged_linker_0, # of connection points: 3
#     Node 8, Type 1, BuildingBlock: BETDEL_clean_sbu_0, # of connection points: 6
#     Node 9, Type 1, BuildingBlock: BETDEL_clean_sbu_0, # of connection points: 6
#     Node 10, Type 1, BuildingBlock: BETDEL_clean_sbu_0, # of connection points: 6
#     Node 11, Type 1, BuildingBlock: BETDEL_clean_sbu_0, # of connection points: 6
#     Edge 12, Type (0, 1), BuildingBlock: CIFDUS_clean_linker_0, # of connection points: 2
#     Edge 13, Type (0, 1), BuildingBlock: CIFDUS_clean_linker_0, # of connection points: 2
#     Edge 14, Type (0, 1), BuildingBlock: CIFDUS_clean_linker_0, # of connection points: 2
#     Edge 15, Type (0, 1), BuildingBlock: CIFDUS_clean_linker_0, # of connection points: 2
#     Edge 16, Type (0, 1), BuildingBlock: CIFDUS_clean_linker_0, # of connection points: 2
#     Edge 17, Type (0, 1), BuildingBlock: CIFDUS_clean_linker_0, # of connection points: 2
#     Edge 18, Type (0, 1), BuildingBlock: CIFDUS_clean_linker_0, # of connection points: 2
#     Edge 19, Type (0, 1), BuildingBlock: CIFDUS_clean_linker_0, # of connection points: 2
#     Edge 20, Type (0, 1), BuildingBlock: CIFDUS_clean_linker_0, # of connection points: 2
#     Edge 21, Type (0, 1), BuildingBlock: CIFDUS_clean_linker_0, # of connection points: 2
#     Edge 22, Type (0, 1), BuildingBlock: CIFDUS_clean_linker_0, # of connection points: 2
#     Edge 23, Type (0, 1), BuildingBlock: CIFDUS_clean_linker_0, # of connection points: 2
#     Edge 24, Type (0, 1), BuildingBlock: CIFDUS_clean_linker_0, # of connection points: 2
#     Edge 25, Type (0, 1), BuildingBlock: CIFDUS_clean_linker_0, # of connection points: 2
#     Edge 26, Type (0, 1), BuildingBlock: CIFDUS_clean_linker_0, # of connection points: 2
#     Edge 27, Type (0, 1), BuildingBlock: CIFDUS_clean_linker_0, # of connection points: 2
#     Edge 28, Type (0, 1), BuildingBlock: CIFDUS_clean_linker_0, # of connection points: 2
#     Edge 29, Type (0, 1), BuildingBlock: CIFDUS_clean_linker_0, # of connection points: 2
#     Edge 30, Type (0, 1), BuildingBlock: CIFDUS_clean_linker_0, # of connection points: 2
#     Edge 31, Type (0, 1), BuildingBlock: CIFDUS_clean_linker_0, # of connection points: 2
#     Edge 32, Type (0, 1), BuildingBlock: CIFDUS_clean_linker_0, # of connection points: 2
#     Edge 33, Type (0, 1), BuildingBlock: CIFDUS_clean_linker_0, # of connection points: 2
#     Edge 34, Type (0, 1), BuildingBlock: CIFDUS_clean_linker_0, # of connection points: 2
#     Edge 35, Type (0, 1), BuildingBlock: CIFDUS_clean_linker_0, # of connection points: 2
# Relax obj value: 0.348
# Max RMSD: 0.231
# Mean RMSD: 0.213
data_MOF--net-zzz--node1-BETDEL_clean_sbu_0--node2-VETTIZ_charged_linker_0--edge1-CIFDUS_clean_linker_0
_symmetry_space_group_name_H-M    P1
_symmetry_Int_Tables_number       1
_symmetry_cell_setting            triclinic
loop_
_symmetry_equiv_pos_as_xyz
'x, y, z'
_cell_length_a     50.035259
_cell_length_b     50.374419
_cell_length_c     17.789331
_cell_angle_alpha  91.0452
_cell_angle_beta   89.236911
_cell_angle_gamma 95.633253
loop_
_atom_site_label
_atom_site_type_symbol
_atom_site_fract_x
_atom_site_fract_y
_atom_site_fract_z
_atom_type_partial_charge
C0 C 0.82212 0.50812 0.16807 0.0
C1 C 0.83475 0.49398 0.22447 0.0
C2 C 0.82414 0.46751 0.2396 0.0
C3 C 0.79593 0.46731 0.13144 0.0
C4 C 0.80138 0.49433 0.1243 0.0
C5 C 0.78359 0.50402 0.06304 0.0
H6 H 0.70148 0.46522 0.76422 0.0
C7 C 0.78041 0.4565 0.06745 0.0
C8 C 0.76862 0.47752 0.03412 0.0
H9 H 0.68143 0.52508 0.92655 0.0
H10 H 0.71897 0.51437 0.00579 0.0
H11 H 0.76404 0.47559 0.76577 0.0
H12 H 0.70726 0.42209 0.88298 0.0
H13 H 0.73393 0.40398 0.85195 0.0
H14 H 0.71519 0.42037 0.78428 0.0
H15 H 0.75511 0.44252 0.73033 0.0
H16 H 0.78321 0.44998 0.79252 0.0
C17 C 0.80119 0.51762 1.00042 0.0
C18 C 0.76466 0.52326 0.09783 0.0
C19 C 0.82704 0.38512 0.93221 0.0
C20 C 0.83055 0.3822 0.85406 0.0
C21 C 0.80935 0.38771 0.80712 0.0
C22 C 0.78774 0.40046 0.83633 0.0
C23 C 0.78795 0.40876 0.9122 0.0
C24 C 0.80691 0.40031 0.95973 0.0
C25 C 0.80773 0.4151 0.03425 0.0
C26 C 0.78569 0.43375 0.02335 0.0
C27 C 0.77479 0.43019 0.95121 0.0
C28 C 0.83598 0.43063 0.04228 0.0
C29 C 0.80137 0.39495 0.09816 0.0
C30 C 0.70538 0.47676 0.81554 0.0
C31 C 0.68846 0.49618 0.83816 0.0
C32 C 0.69448 0.51052 0.9063 0.0
C33 C 0.71647 0.5049 0.9513 0.0
C34 C 0.7332 0.48555 0.92664 0.0
C35 C 0.72682 0.47132 0.86086 0.0
C36 C 0.74325 0.44815 0.84962 0.0
C37 C 0.75828 0.44901 0.92323 0.0
C38 C 0.75427 0.47215 0.96554 0.0
C39 C 0.76232 0.45415 0.781 0.0
C40 C 0.72404 0.42219 0.84129 0.0
H41 H 0.79662 0.43409 0.20585 0.0
H42 H 0.82854 0.52889 0.15775 0.0
H43 H 0.7485 0.51228 0.13177 0.0
H44 H 0.7556 0.53463 0.05371 0.0
H45 H 0.77594 0.53825 0.13507 0.0
H46 H 0.81547 0.5039 0.97721 0.0
H47 H 0.81293 0.53593 0.02237 0.0
H48 H 0.7885 0.52335 0.95373 0.0
H49 H 0.84233 0.3797 0.96993 0.0
H50 H 0.81079 0.38508 0.74673 0.0
H51 H 0.77301 0.40547 0.79724 0.0
H52 H 0.84014 0.4447 0.99513 0.0
H53 H 0.85197 0.41686 0.04253 0.0
H54 H 0.83846 0.44214 0.09526 0.0
H55 H 0.77962 0.39296 0.11298 0.0
H56 H 0.81314 0.40072 0.14919 0.0
H57 H 0.80693 0.37476 0.0821 0.0
H58 H 0.8323 0.45638 0.28394 0.0
C59 C 0.80439 0.45428 0.19388 0.0
C60 C 0.90759 0.79322 0.8202 0.0
C61 C 0.89802 0.8179 0.83902 0.0
C62 C 0.88182 0.81998 0.90382 0.0
C63 C 0.89562 0.77834 0.94472 0.0
C64 C 0.9054 0.7731 0.87398 0.0
C65 C 0.91778 0.74703 0.87166 0.0
H66 H 0.99885 0.66894 0.9987 0.0
C67 C 0.90777 0.76135 0.99784 0.0
C68 C 0.91702 0.74036 0.95559 0.0
H69 H 0.93192 0.6434 0.85321 0.0
H70 H 0.90914 0.68185 0.8964 0.0
H71 H 1.00058 0.73717 0.97774 0.0
H72 H 0.95437 0.68777 0.14088 0.0
H73 H 0.97337 0.71588 0.18164 0.0
H74 H 0.99047 0.68971 0.1383 0.0
H75 H 0.01697 0.71767 0.04367 0.0
H76 H 1.00492 0.74878 0.07198 0.0
C77 C 0.94687 0.75098 0.84047 0.0
C78 C 0.90018 0.72693 0.82264 0.0
C79 C 0.95024 0.81591 0.21338 0.0
C80 C 0.97461 0.81595 0.25092 0.0
C81 C 0.98937 0.79354 0.24177 0.0
C82 C 0.98047 0.77227 0.1922 0.0
C83 C 0.95682 0.77367 0.15081 0.0
C84 C 0.94227 0.79541 0.16223 0.0
C85 C 0.9192 0.79573 0.10977 0.0
C86 C 0.92167 0.77008 0.06471 0.0
C87 C 0.94363 0.75686 0.08943 0.0
C88 C 0.92365 0.82152 0.0621 0.0
C89 C 0.8929 0.79399 0.15657 0.0
C90 C 0.97966 0.67194 0.97445 0.0
C91 C 0.96769 0.65364 0.92004 0.0
C92 C 0.94196 0.65744 0.89295 0.0
C93 C 0.92933 0.67993 0.91446 0.0
C94 C 0.94291 0.69906 0.96115 0.0
C95 C 0.9662 0.69429 0.99623 0.0
C96 C 0.97313 0.71538 0.0574 0.0
C97 C 0.94988 0.733 0.05093 0.0
C98 C 0.93402 0.72376 0.99004 0.0
C99 C 1.00043 0.73062 0.03714 0.0
C100 C 0.97297 0.70156 0.13396 0.0
H101 H 0.86977 0.80254 0.00934 0.0
H102 H 0.91915 0.791 0.76902 0.0
H103 H 0.89393 0.73654 0.77078 0.0
H104 H 0.88174 0.71904 0.85363 0.0
H105 H 0.91143 0.71019 0.80304 0.0
H106 H 0.95913 0.76649 0.87384 0.0
H107 H 0.94722 0.7571 0.78078 0.0
H108 H 0.95662 0.73216 0.84246 0.0
H109 H 0.93807 0.83243 0.22076 0.0
H110 H 1.00814 0.79288 0.27096 0.0
H111 H 0.9926 0.75593 0.18629 0.0
H112 H 0.9378 0.83734 0.08788 0.0
H113 H 0.90485 0.83116 0.05609 0.0
H114 H 0.93238 0.81744 0.00581 0.0
H115 H 0.89284 0.77826 0.19971 0.0
H116 H 0.87508 0.78862 0.12143 0.0
H117 H 0.89049 0.81328 0.18593 0.0
H118 H 0.87347 0.83851 0.91798 0.0
C119 C 0.8803 0.79977 0.95712 0.0
C120 C 0.82815 0.00564 0.93526 0.0
C121 C 0.83767 0.01049 0.8602 0.0
C122 C 0.82221 0.02481 0.81276 0.0
C123 C 0.79027 0.03118 0.91289 0.0
C124 C 0.80374 0.01572 0.95998 0.0
C125 C 0.7889 0.01266 0.03596 0.0
H126 H 0.68844 0.05972 0.25956 0.0
C127 C 0.76832 0.04219 0.9551 0.0
C128 C 0.76582 0.03053 0.02645 0.0
H129 H 0.70579 0.97755 0.25667 0.0
H130 H 0.73777 0.98713 0.15205 0.0
H131 H 0.74928 0.09213 0.20251 0.0
H132 H 0.67347 0.05959 0.12819 0.0
H133 H 0.68591 0.07244 0.04293 0.0
H134 H 0.68162 0.09454 0.1225 0.0
H135 H 0.71694 0.1044 0.21489 0.0
H136 H 0.73802 0.11349 0.13444 0.0
C137 C 0.80754 0.02339 0.09996 0.0
C138 C 0.77899 0.98304 0.04714 0.0
C139 C 0.71289 0.10788 0.83554 0.0
C140 C 0.69258 0.12233 0.86661 0.0
C141 C 0.69352 0.1291 0.94391 0.0
C142 C 0.71086 0.11721 0.99126 0.0
C143 C 0.72681 0.09822 0.9607 0.0
C144 C 0.72974 0.09586 0.88387 0.0
C145 C 0.74941 0.07626 0.86212 0.0
C146 C 0.75434 0.06444 0.93828 0.0
C147 C 0.74029 0.07681 0.99516 0.0
C148 C 0.77491 0.09225 0.82896 0.0
C149 C 0.73557 0.05487 0.80772 0.0
C150 C 0.70028 0.04392 0.24075 0.0
C151 C 0.69512 0.01818 0.26964 0.0
C152 C 0.7097 0.99786 0.2376 0.0
C153 C 0.72881 0.00345 0.17842 0.0
C154 C 0.73349 0.02952 0.15054 0.0
C155 C 0.71795 0.04872 0.17961 0.0
C156 C 0.71787 0.0723 0.12955 0.0
C157 C 0.73576 0.0642 0.06536 0.0
C158 C 0.74679 0.04008 0.07965 0.0
C159 C 0.73108 0.09705 0.17247 0.0
C160 C 0.68842 0.07506 0.10451 0.0
H161 H 0.78834 0.04561 0.79861 0.0
H162 H 0.8393 0.99438 0.97305 0.0
H163 H 0.76003 0.97743 0.01634 0.0
H164 H 0.77599 0.97849 0.10746 0.0
H165 H 0.79419 0.96989 0.02641 0.0
H166 H 0.81552 0.04442 0.08972 0.0
H167 H 0.82478 0.01121 0.10462 0.0
H168 H 0.79642 0.02275 0.1545 0.0
H169 H 0.71335 0.10293 0.7761 0.0
H170 H 0.67893 0.14127 0.96877 0.0
H171 H 0.70991 0.1217 0.05026 0.0
H172 H 0.77498 0.11414 0.83885 0.0
H173 H 0.77655 0.08908 0.76718 0.0
H174 H 0.79356 0.08694 0.85544 0.0
H175 H 0.71454 0.04899 0.82635 0.0
H176 H 0.74543 0.03617 0.80579 0.0
H177 H 0.73499 0.06255 0.7497 0.0
H178 H 0.8287 0.02903 0.75548 0.0
C179 C 0.79884 0.03498 0.83836 0.0
C180 C 0.55049 0.7133 0.26503 0.0
C181 C 0.56555 0.69441 0.29949 0.0
C182 C 0.59384 0.6977 0.29393 0.0
C183 C 0.5908 0.73102 0.20104 0.0
C184 C 0.56413 0.7325 0.21731 0.0
C185 C 0.55351 0.75401 0.16986 0.0
H186 H 0.57081 0.82844 0.8543 0.0
C187 C 0.59761 0.74481 0.13153 0.0
C188 C 0.57824 0.7626 0.11998 0.0
H189 H 0.54278 0.86046 0.06478 0.0
H190 H 0.55569 0.82083 0.12966 0.0
H191 H 0.6241 0.81162 0.92349 0.0
H192 H 0.54878 0.77009 0.86573 0.0
H193 H 0.56971 0.74411 0.87084 0.0
H194 H 0.57682 0.77002 0.8026 0.0
H195 H 0.61158 0.80483 0.83014 0.0
H196 H 0.63026 0.78142 0.87716 0.0
C197 C 0.54504 0.77656 0.2216 0.0
C198 C 0.52979 0.74191 0.12194 0.0
C199 C 0.62931 0.6809 0.9372 0.0
C200 C 0.62348 0.67927 0.86059 0.0
C201 C 0.61945 0.70261 0.82197 0.0
C202 C 0.61789 0.7267 0.86161 0.0
C203 C 0.61887 0.72686 0.94059 0.0
C204 C 0.62548 0.70444 0.97719 0.0
C205 C 0.6204 0.70604 0.0606 0.0
C206 C 0.61062 0.73386 0.06836 0.0
C207 C 0.60863 0.74518 0.99734 0.0
C208 C 0.64685 0.70325 0.10254 0.0
C209 C 0.59799 0.68358 0.08069 0.0
C210 C 0.56599 0.82658 0.91363 0.0
C211 C 0.55467 0.84719 0.95341 0.0
C212 C 0.55058 0.84454 0.03206 0.0
C213 C 0.55704 0.82142 0.06928 0.0
C214 C 0.56698 0.80061 0.02724 0.0
C215 C 0.57252 0.80403 0.95151 0.0
C216 C 0.58827 0.78255 0.91889 0.0
C217 C 0.59321 0.7671 0.98902 0.0
C218 C 0.57895 0.77646 0.05085 0.0
C219 C 0.61496 0.79566 0.88509 0.0
C220 C 0.57017 0.76584 0.86138 0.0
H221 H 0.62823 0.71853 0.2396 0.0
H222 H 0.52886 0.71202 0.27133 0.0
H223 H 0.53576 0.72493 0.08681 0.0
H224 H 0.52303 0.75712 0.08392 0.0
H225 H 0.5125 0.73457 0.1583 0.0
H226 H 0.56289 0.78893 0.244 0.0
H227 H 0.5329 0.76822 0.27001 0.0
H228 H 0.53211 0.78941 0.19155 0.0
H229 H 0.6322 0.6629 0.96718 0.0
H230 H 0.6149 0.70161 0.76255 0.0
H231 H 0.61361 0.74363 0.82996 0.0
H232 H 0.66101 0.69229 0.06806 0.0
H233 H 0.64324 0.69148 0.15434 0.0
H234 H 0.65735 0.72309 0.11732 0.0
H235 H 0.57941 0.68587 0.04877 0.0
H236 H 0.5926 0.68311 0.14074 0.0
H237 H 0.6044 0.66352 0.06771 0.0
H238 H 0.60582 0.68445 0.32313 0.0
C239 C 0.60666 0.7165 0.24534 0.0
C240 C 0.33898 0.51513 0.179 0.0
C241 C 0.35693 0.53016 0.22959 0.0
C242 C 0.35346 0.55742 0.24165 0.0
C243 C 0.31337 0.55329 0.16762 0.0
C244 C 0.31751 0.52762 0.14668 0.0
C245 C 0.29749 0.51776 0.08509 0.0
H246 H 0.18456 0.54756 0.88976 0.0
C247 C 0.2894 0.5611 0.13188 0.0
C248 C 0.28022 0.54142 0.07869 0.0
H249 H 0.22506 0.47676 0.8547 0.0
H250 H 0.25845 0.49271 0.95032 0.0
H251 H 0.17844 0.54776 0.03503 0.0
H252 H 0.23634 0.59024 0.90408 0.0
H253 H 0.229 0.61191 0.9789 0.0
H254 H 0.20197 0.59597 0.92288 0.0
H255 H 0.17925 0.58283 0.03928 0.0
H256 H 0.1952 0.56477 0.11052 0.0
C257 C 0.28071 0.49234 0.11143 0.0
C258 C 0.31324 0.51319 0.01186 0.0
C259 C 0.22822 0.61391 0.28457 0.0
C260 C 0.20137 0.618 0.26887 0.0
C261 C 0.19469 0.62213 0.19332 0.0
C262 C 0.21226 0.61611 0.1351 0.0
C263 C 0.23568 0.60463 0.15293 0.0
C264 C 0.24485 0.60628 0.22557 0.0
C265 C 0.27138 0.5948 0.23216 0.0
C266 C 0.27361 0.58181 0.15367 0.0
C267 C 0.2517 0.58655 0.10969 0.0
C268 C 0.26972 0.5739 0.29519 0.0
C269 C 0.29312 0.61823 0.24802 0.0
C270 C 0.20073 0.53549 0.90188 0.0
C271 C 0.20217 0.51107 0.86473 0.0
C272 C 0.22349 0.49581 0.88274 0.0
C273 C 0.24283 0.50508 0.93786 0.0
C274 C 0.24076 0.5298 0.97525 0.0
C275 C 0.21964 0.54421 0.95647 0.0
C276 C 0.21846 0.569 1.00285 0.0
C277 C 0.24321 0.56834 0.05079 0.0
C278 C 0.25666 0.54531 0.03568 0.0
C279 C 0.19164 0.56618 0.04934 0.0
C280 C 0.22141 0.59317 0.94967 0.0
H281 H 0.33202 0.5902 0.21398 0.0
H282 H 0.34179 0.49461 0.16464 0.0
H283 H 0.32697 0.53123 0.99833 0.0
H284 H 0.29983 0.50906 0.96344 0.0
H285 H 0.32555 0.49615 0.01756 0.0
H286 H 0.27097 0.49601 0.16671 0.0
H287 H 0.29361 0.4758 0.11774 0.0
H288 H 0.26464 0.48574 0.07131 0.0
H289 H 0.23483 0.61313 0.34205 0.0
H290 H 0.17487 0.6268 0.17797 0.0
H291 H 0.20597 0.61833 0.07843 0.0
H292 H 0.25299 0.5581 0.2848 0.0
H293 H 0.26647 0.58334 0.35101 0.0
H294 H 0.28854 0.5642 0.29914 0.0
H295 H 0.28449 0.63558 0.27525 0.0
H296 H 0.30331 0.62541 0.19525 0.0
H297 H 0.30826 0.61267 0.28836 0.0
H298 H 0.36682 0.57 0.27763 0.0
C299 C 0.33249 0.56907 0.20882 0.0
C300 C 0.11291 0.21381 0.31934 0.0
C301 C 0.11982 0.18753 0.30827 0.0
C302 C 0.13829 0.18252 0.25023 0.0
C303 C 0.13033 0.22413 0.1957 0.0
C304 C 0.11904 0.23227 0.262 0.0
C305 C 0.1096 0.25956 0.25469 0.0
H306 H 0.03607 0.33628 0.10485 0.0
C307 C 0.12188 0.24067 0.1353 0.0
C308 C 0.11358 0.26368 0.16967 0.0
H309 H 0.10032 0.3617 0.25956 0.0
H310 H 0.12388 0.32338 0.21942 0.0
H311 H 0.08649 0.31741 0.97189 0.0
H312 H 0.03251 0.26805 0.11783 0.0
H313 H 0.03082 0.25895 0.02051 0.0
H314 H 0.0196 0.29005 0.05156 0.0
H315 H 0.05066 0.31625 0.96168 0.0
H316 H 0.06895 0.28971 0.92535 0.0
C317 C 0.12759 0.27936 0.30365 0.0
C318 C 0.07974 0.25923 0.27882 0.0
C319 C 0.08183 0.18385 0.92035 0.0
C320 C 0.06201 0.18641 0.86648 0.0
C321 C 0.05082 0.21124 0.86412 0.0
C322 C 0.05881 0.23232 0.91535 0.0
C323 C 0.0783 0.22879 0.96963 0.0
C324 C 0.08958 0.20484 0.97028 0.0
C325 C 0.11014 0.2038 0.03017 0.0
C326 C 0.10957 0.2313 0.06667 0.0
C327 C 0.09064 0.24605 0.03151 0.0
C328 C 0.13758 0.20081 0.99165 0.0
C329 C 0.10083 0.18036 0.08352 0.0
C330 C 0.05486 0.33334 0.13142 0.0
C331 C 0.0657 0.3514 0.18819 0.0
C332 C 0.09108 0.34782 0.21808 0.0
C333 C 0.10412 0.32546 0.19818 0.0
C334 C 0.0913 0.30635 0.15009 0.0
C335 C 0.06886 0.31115 0.11117 0.0
C336 C 0.06346 0.2901 0.04887 0.0
C337 C 0.08542 0.27144 0.06313 0.0
C338 C 0.09987 0.28095 0.12647 0.0
C339 C 0.06745 0.30399 0.97253 0.0
C340 C 0.03501 0.27596 0.05992 0.0
H341 H 0.15548 0.1958 0.14519 0.0
H342 H 0.09997 0.2187 0.36567 0.0
H343 H 0.06705 0.24405 0.24554 0.0
H344 H 0.0722 0.27893 0.27063 0.0
H345 H 0.07698 0.25471 0.33943 0.0
H346 H 0.13173 0.27041 0.35848 0.0
H347 H 0.11758 0.29747 0.31801 0.0
H348 H 0.14716 0.2851 0.27518 0.0
H349 H 0.09079 0.16539 0.92667 0.0
H350 H 0.03591 0.21457 0.82278 0.0
H351 H 0.04947 0.2505 0.9113 0.0
H352 H 0.14075 0.21427 0.94272 0.0
H353 H 0.13876 0.18 0.97103 0.0
H354 H 0.15455 0.20637 0.02967 0.0
H355 H 0.08584 0.1653 0.05783 0.0
H356 H 0.091 0.18752 0.13539 0.0
H357 H 0.1177 0.16886 0.09852 0.0
H358 H 0.14542 0.16298 0.24337 0.0
C359 C 0.14363 0.20103 0.19304 0.0
C360 C 0.31428 0.99194 0.88625 0.0
C361 C 0.33055 0.97655 0.83914 0.0
C362 C 0.32648 0.94851 0.84322 0.0
C363 C 0.29627 0.95156 0.94881 0.0
C364 C 0.29615 0.97858 0.93918 0.0
C365 C 0.27557 0.9894 0.99349 0.0
H366 H 0.20408 0.96781 0.32237 0.0
C367 C 0.28111 0.94355 0.01703 0.0
C368 C 0.26571 0.96441 0.03906 0.0
H369 H 0.1667 0.99818 0.12929 0.0
H370 H 0.20689 0.99046 0.05201 0.0
H371 H 0.23963 0.90508 0.25414 0.0
H372 H 0.26945 0.98504 0.28751 0.0
H373 H 0.28633 0.95623 0.29205 0.0
H374 H 0.25842 0.9603 0.35532 0.0
H375 H 0.2101 0.91989 0.23845 0.0
H376 H 0.22575 0.92444 0.32857 0.0
C377 C 0.25294 1.00003 0.94877 0.0
C378 C 0.28945 0.01138 0.04468 0.0
C379 C 0.33062 0.88318 0.17821 0.0
C380 C 0.33361 0.88362 0.25672 0.0
C381 C 0.31309 0.89301 0.30201 0.0
C382 C 0.29231 0.90531 0.26977 0.0
C383 C 0.29224 0.90877 0.19158 0.0
C384 C 0.3108 0.89726 0.14676 0.0
C385 C 0.30887 0.9046 0.06539 0.0
C386 C 0.28758 0.9245 0.07044 0.0
C387 C 0.27762 0.92611 0.14418 0.0
C388 C 0.29851 0.87901 0.02142 0.0
C389 C 0.33673 0.91719 0.03651 0.0
C390 C 0.20485 0.97436 0.2646 0.0
C391 C 0.18235 0.98423 0.23306 0.0
C392 C 0.18403 0.99141 0.15619 0.0
C393 C 0.20734 0.98742 0.11178 0.0
C394 C 0.22918 0.9764 0.1446 0.0
C395 C 0.22678 0.96896 0.21922 0.0
C396 C 0.24608 0.94932 0.2391 0.0
C397 C 0.25939 0.94495 0.16369 0.0
C398 C 0.25168 0.96271 0.10999 0.0
C399 C 0.2298 0.92335 0.26712 0.0
C400 C 0.26608 0.96317 0.29686 0.0
H401 H 0.30661 0.9147 0.89717 0.0
H402 H 0.31572 0.01344 0.88198 0.0
H403 H 0.30624 0.00375 0.07549 0.0
H404 H 0.27496 0.01838 0.08669 0.0
H405 H 0.29769 0.02876 0.01109 0.0
H406 H 0.24037 0.98341 0.92069 0.0
H407 H 0.26143 0.01398 0.90491 0.0
H408 H 0.24006 0.01137 0.98593 0.0
H409 H 0.34545 0.87492 0.14221 0.0
H410 H 0.31447 0.8935 0.36272 0.0
H411 H 0.27825 0.9133 0.30782 0.0
H412 H 0.28174 0.86769 0.05243 0.0
H413 H 0.31483 0.86574 0.01308 0.0
H414 H 0.29036 0.88328 0.9661 0.0
H415 H 0.35385 0.91083 0.06818 0.0
H416 H 0.33844 0.93931 0.04137 0.0
H417 H 0.34079 0.91111 0.9777 0.0
H418 H 0.33761 0.93601 0.80667 0.0
C419 C 0.30911 0.93607 0.8966 0.0
C420 C 0.49359 0.29132 0.84859 0.0
C421 C 0.47888 0.30937 0.80924 0.0
C422 C 0.45059 0.3061 0.81267 0.0
C423 C 0.45265 0.27518 0.91255 0.0
C424 C 0.47943 0.27335 0.89899 0.0
C425 C 0.48878 0.25112 0.94644 0.0
H426 H 0.45992 0.17741 0.26743 0.0
C427 C 0.44487 0.26203 0.98252 0.0
C428 C 0.46488 0.24572 1.00145 0.0
H429 H 0.52097 0.16312 0.10224 0.0
H430 H 0.50895 0.20095 0.02971 0.0
H431 H 0.47702 0.23513 0.27596 0.0
H432 H 0.4106 0.19265 0.16601 0.0
H433 H 0.39995 0.22062 0.21642 0.0
H434 H 0.4165 0.19614 0.26543 0.0
H435 H 0.44427 0.23457 0.31651 0.0
H436 H 0.4573 0.26094 0.25448 0.0
C437 C 0.51496 0.26083 0.98719 0.0
C438 C 0.49188 0.22708 0.89322 0.0
C439 C 0.39957 0.32186 0.15988 0.0
C440 C 0.40269 0.32371 0.23774 0.0
C441 C 0.40505 0.30038 0.27824 0.0
C442 C 0.40858 0.27636 0.23986 0.0
C443 C 0.41181 0.27653 0.16122 0.0
C444 C 0.40608 0.29873 0.12205 0.0
C445 C 0.41502 0.29773 0.04118 0.0
C446 C 0.42759 0.27121 0.03883 0.0
C447 C 0.42641 0.25947 0.10975 0.0
C448 C 0.43622 0.32193 0.02731 0.0
C449 C 0.39014 0.29799 0.9904 0.0
C450 C 0.47014 0.18178 0.21436 0.0
C451 C 0.49065 0.1666 0.18924 0.0
C452 C 0.50463 0.1741 0.12202 0.0
C453 C 0.4974 0.1957 0.07935 0.0
C454 C 0.47615 0.21007 0.10434 0.0
C455 C 0.46344 0.20331 0.17197 0.0
C456 C 0.44386 0.22265 0.19567 0.0
C457 C 0.44325 0.23915 0.12527 0.0
C458 C 0.46277 0.2324 0.07213 0.0
C459 C 0.45602 0.23916 0.26412 0.0
C460 C 0.41619 0.20726 0.21215 0.0
H461 H 0.41573 0.28604 0.86571 0.0
H462 H 0.51521 0.29215 0.8429 0.0
H463 H 0.47382 0.2229 0.85749 0.0
H464 H 0.49404 0.20857 0.92341 0.0
H465 H 0.50961 0.23121 0.85542 0.0
H466 H 0.51229 0.27914 0.02121 0.0
H467 H 0.5316 0.26552 0.94614 0.0
H468 H 0.52107 0.24554 0.02555 0.0
H469 H 0.39746 0.33979 0.12867 0.0
H470 H 0.40709 0.30137 0.3388 0.0
H471 H 0.41101 0.25922 0.27284 0.0
H472 H 0.45302 0.32202 0.0677 0.0
H473 H 0.42721 0.34112 0.03356 0.0
H474 H 0.445 0.32221 0.97033 0.0
H475 H 0.37283 0.30565 0.02081 0.0
H476 H 0.38328 0.27763 0.96896 0.0
H477 H 0.3943 0.31148 0.94217 0.0
H478 H 0.43888 0.31846 0.77943 0.0
C479 C 0.4373 0.28841 0.86333 0.0
Dy480 Dy 0.01543 0.98332 0.62136 0.0
C481 C 0.01461 0.06325 0.39206 0.0
C482 C 0.99147 0.94601 0.71417 0.0
Dy483 Dy 1.00366 0.02243 0.48896 0.0
O484 O 0.01704 0.95464 0.71727 0.0
O485 O 0.97967 0.95825 0.66257 0.0
O486 O 0.05747 0.97479 0.57946 0.0
O487 O 0.03548 1.00115 0.52604 0.0
C488 C 0.05736 0.99085 0.52236 0.0
C489 C 0.96115 0.00506 0.57513 0.0
O490 O 1.00108 0.98346 0.42439 0.0
O491 O 1.00154 0.95533 0.5271 0.0
O492 O 1.00064 0.06446 0.45385 0.0
O493 O 0.02083 0.03905 0.38068 0.0
O494 O 0.95928 0.01126 0.50442 0.0
O495 O 0.98516 0.01059 0.59632 0.0
O496 O 0.02711 0.02201 0.68225 0.0
O497 O 0.02429 0.04944 0.57775 0.0
C498 C 0.99938 0.95928 0.45404 0.0
C499 C 0.02989 0.04573 0.64949 0.0
Dy500 Dy 0.49938 0.98216 0.51209 0.0
C501 C 0.56165 0.05479 0.69137 0.0
C502 C 0.46594 0.9488 0.4253 0.0
Dy503 Dy 0.52675 0.02088 0.60993 0.0
O504 O 0.48529 0.96532 0.39982 0.0
O505 O 0.46438 0.95104 0.49779 0.0
O506 O 0.53706 0.96316 0.48579 0.0
O507 O 0.53985 0.00444 0.50146 0.0
C508 C 0.55337 0.98476 0.48848 0.0
C509 C 0.47265 0.01759 0.6343 0.0
O510 O 0.5209 0.04777 0.51337 0.0
O511 O 0.48669 0.01976 0.46245 0.0
O512 O 0.54032 0.04145 0.7184 0.0
O513 O 0.56429 0.04905 0.62065 0.0
O514 O 0.48874 0.0394 0.63798 0.0
O515 O 0.48654 0.99825 0.62073 0.0
O516 O 0.50482 0.95499 0.60636 0.0
O517 O 0.53721 0.98303 0.66593 0.0
C518 C 0.5012 0.04316 0.4648 0.0
C519 C 0.52332 0.95931 0.65841 0.0
Dy520 Dy 0.51695 0.51828 0.61496 0.0
C521 C 0.49508 0.45335 0.35649 0.0
C522 C 0.53439 0.54855 0.73606 0.0
Dy523 Dy 0.51778 0.48316 0.47188 0.0
O524 O 0.50977 0.54609 0.7121 0.0
O525 O 0.5486 0.53315 0.69658 0.0
O526 O 0.4808 0.53644 0.57226 0.0
O527 O 0.48653 0.49719 0.54282 0.0
C528 C 0.47212 0.51596 0.53065 0.0
C529 C 0.56287 0.48554 0.5538 0.0
O530 O 0.52582 0.52395 0.42014 0.0
O531 O 0.53233 0.54891 0.53115 0.0
O532 O 0.52083 0.45643 0.36957 0.0
O533 O 0.48257 0.46778 0.40353 0.0
O534 O 0.5545 0.46528 0.51072 0.0
O535 O 0.54844 0.50447 0.54349 0.0
O536 O 0.51033 0.47771 0.66745 0.0
O537 O 0.50607 0.45179 0.55773 0.0
C538 C 0.5316 0.54709 0.45673 0.0
C539 C 0.50636 0.45417 0.63212 0.0
Dy540 Dy 1.0008 0.47796 0.60421 0.0
C541 C 0.06466 0.55138 0.43305 0.0
C542 C 0.96734 0.44513 0.69196 0.0
Dy543 Dy 0.02786 0.5208 0.51643 0.0
O544 O 0.97117 0.44181 0.62041 0.0
O545 O 0.98163 0.46646 0.71545 0.0
O546 O 0.02486 0.44806 0.54772 0.0
O547 O 0.01363 0.47993 0.48493 0.0
C548 C 0.02706 0.45995 0.48358 0.0
C549 C 1.00264 0.5397 0.6375 0.0
O550 O 0.98936 0.51419 0.44956 0.0
O551 O 0.96613 0.49558 0.55085 0.0
O552 O 0.04149 0.55853 0.45431 0.0
O553 O 0.06706 0.52729 0.45443 0.0
O554 O 1.00603 0.55199 0.57429 0.0
O555 O 0.01525 0.51912 0.63555 0.0
O556 O 0.03927 0.48039 0.66797 0.0
O557 O 0.06292 0.50864 0.58486 0.0
C558 C 0.96617 0.50607 0.48306 0.0
C559 C 0.06215 0.49332 0.64505 0.0
H560 H 0.14615 0.02193 0.26827 0.0
H561 H 0.16025 0.93983 0.30135 0.0
H562 H 0.1237 0.93477 0.39276 0.0
H563 H 0.08934 0.95389 0.47061 0.0
H564 H 0.07179 0.0346 0.4349 0.0
H565 H 0.10747 0.03993 0.33833 0.0
C566 C 0.14088 0.00285 0.29452 0.0
C567 C 0.15654 0.98146 0.27846 0.0
C568 C 0.11925 0.99985 0.34772 0.0
C569 C 0.1491 0.95684 0.31324 0.0
C570 C 0.1281 0.95387 0.36587 0.0
C571 C 0.09325 0.97263 0.4415 0.0
C572 C 0.07803 0.99387 0.46062 0.0
C573 C 0.11342 0.97533 0.38497 0.0
C574 C 0.08314 0.01787 0.42132 0.0
C575 C 0.10366 0.02094 0.3661 0.0
H576 H 0.45672 0.12578 0.24455 0.0
H577 H 0.54021 0.15636 0.23887 0.0
H578 H 0.55087 0.12149 0.32495 0.0
H579 H 0.53609 0.0829 0.40546 0.0
H580 H 0.45293 0.05089 0.40397 0.0
H581 H 0.4425 0.08565 0.31793 0.0
C582 C 0.47728 0.12471 0.26185 0.0
C583 C 0.49763 0.14376 0.23541 0.0
C584 C 0.48328 0.10441 0.31076 0.0
C585 C 0.52421 0.14189 0.25783 0.0
C586 C 0.53027 0.12204 0.30753 0.0
C587 C 0.51567 0.0836 0.38641 0.0
C588 C 0.49525 0.06442 0.41196 0.0
C589 C 0.50992 0.10333 0.33507 0.0
C590 C 0.46902 0.06536 0.38551 0.0
C591 C 0.46303 0.08527 0.33622 0.0
H592 H 0.40767 0.55354 0.25561 0.0
H593 H 0.35654 0.48163 0.30161 0.0
H594 H 0.38909 0.46895 0.39371 0.0
H595 H 0.42969 0.48162 0.47413 0.0
H596 H 0.47593 0.5571 0.4356 0.0
H597 H 0.44761 0.56528 0.33012 0.0
C598 C 0.40345 0.53502 0.2856 0.0
C599 C 0.37915 0.5189 0.27209 0.0
C600 C 0.42139 0.52873 0.34153 0.0
C601 C 0.3749 0.49454 0.31016 0.0
C602 C 0.39342 0.48747 0.36386 0.0
C603 C 0.43368 0.49966 0.4419 0.0
C604 C 0.45522 0.51865 0.46278 0.0
C605 C 0.41635 0.50488 0.38212 0.0
C606 C 0.45978 0.54208 0.42092 0.0
C607 C 0.44349 0.54682 0.36038 0.0
H608 H 0.0822 0.40407 0.21212 0.0
H609 H 0.01543 0.3448 0.2492 0.0
H610 H 0.99611 0.37439 0.34132 0.0
H611 H 1.00193 0.41432 0.42503 0.0
H612 H 0.06834 0.47383 0.38711 0.0
H613 H 0.08425 0.44706 0.28204 0.0
C614 C 0.06301 0.398 0.23881 0.0
C615 C 0.05031 0.3722 0.22408 0.0
C616 C 0.05233 0.41494 0.29285 0.0
C617 C 0.02545 0.36459 0.25891 0.0
C618 C 0.01461 0.38138 0.31246 0.0
C619 C 0.01961 0.42155 0.39269 0.0
C620 C 0.03418 0.4458 0.4138 0.0
C621 C 0.02844 0.40612 0.33208 0.0
C622 C 0.05691 0.45519 0.37163 0.0
C623 C 0.066 0.43985 0.31178 0.0
H624 H 0.84604 0.98577 0.7259 0.0
H625 H 0.88851 0.01893 0.9202 0.0
H626 H 0.9314 0.01768 0.85173 0.0
H627 H 0.95626 0.0131 0.72941 0.0
H628 H 0.91186 0.98346 0.5341 0.0
H629 H 0.87066 0.97763 0.60932 0.0
C630 C 0.86473 0.99224 0.75399 0.0
C631 C 0.86385 0.00258 0.82833 0.0
C632 C 0.88911 0.99265 0.71305 0.0
C633 C 0.8884 0.01065 0.86358 0.0
C634 C 0.91297 0.0103 0.82382 0.0
C635 C 0.93762 0.005 0.70372 0.0
C636 C 0.93721 0.99893 0.62562 0.0
C637 C 0.91352 1.0023 0.74745 0.0
C638 C 0.91281 0.98853 0.59352 0.0
C639 C 0.88917 0.98515 0.63667 0.0
H640 H 0.53128 0.84912 0.81704 0.0
H641 H 0.56494 0.90025 0.99575 0.0
H642 H 0.55905 0.93967 0.92082 0.0
H643 H 0.5454 0.95967 0.80102 0.0
H644 H 0.51183 0.90694 0.62491 0.0
H645 H 0.51717 0.86845 0.70131 0.0
C646 C 0.5374 0.86887 0.83979 0.0
C647 C 0.54869 0.87157 0.91197 0.0
C648 C 0.53424 0.89135 0.79616 0.0
C649 C 0.55598 0.89746 0.94074 0.0
C650 C 0.55284 0.92005 0.89749 0.0
C651 C 0.53943 0.93975 0.77937 0.0
C652 C 0.52825 0.9364 0.70686 0.0
C653 C 0.54225 0.91727 0.82453 0.0
C654 C 0.52037 0.91034 0.6803 0.0
C655 C 0.5234 0.88817 0.72407 0.0
H656 H 0.65326 0.45731 0.77663 0.0
H657 H 0.66829 0.54286 0.79525 0.0
H658 H 0.63087 0.5477 0.70998 0.0
H659 H 0.59452 0.52719 0.62491 0.0
H660 H 0.58097 0.44136 0.60907 0.0
H661 H 0.61706 0.43721 0.69708 0.0
C662 C 0.64843 0.4771 0.76223 0.0
C663 C 0.66397 0.49967 0.79215 0.0
C664 C 0.62697 0.47971 0.7131 0.0
C665 C 0.65679 0.52508 0.77367 0.0
C666 C 0.63537 0.52785 0.72451 0.0
C667 C 0.59924 0.50762 0.64163 0.0
C668 C 0.58476 0.48459 0.6102 0.0
C669 C 0.62037 0.50528 0.69316 0.0
C670 C 0.59167 0.45943 0.63167 0.0
C671 C 0.61234 0.457 0.68241 0.0
H672 H 0.94942 0.60108 0.90107 0.0
H673 H 0.01773 0.65792 0.85712 0.0
H674 H 0.03629 0.62612 0.7701 0.0
H675 H 0.02951 0.58488 0.69237 0.0
H676 H 0.96161 0.52775 0.73663 0.0
H677 H 0.94638 0.55677 0.83767 0.0
C678 C 0.96872 0.6062 0.87384 0.0
C679 C 0.9821 0.63193 0.88511 0.0
C680 C 0.97905 0.58791 0.823 0.0
C681 C 1.00714 0.63824 0.84988 0.0
C682 C 0.01759 0.62016 0.79938 0.0
C683 C 0.01172 0.5786 0.72548 0.0
C684 C 0.99654 0.55438 0.70725 0.0
C685 C 1.00321 0.59537 0.78335 0.0
C686 C 0.97357 0.54629 0.75013 0.0
C687 C 0.96484 0.56295 0.80752 0.0
H688 H 0.09884 0.14373 0.23231 0.0
H689 H 0.09902 0.18173 0.45193 0.0
H690 H 0.06348 0.14812 0.49388 0.0
H691 H 0.03261 0.10803 0.46752 0.0
H692 H 0.03496 0.06876 0.25044 0.0
H693 H 0.06921 0.1034 0.20706 0.0
C694 C 0.09175 0.14436 0.29012 0.0
C695 C 0.10198 0.16502 0.33939 0.0
C696 C 0.07131 0.12524 0.31334 0.0
C697 C 0.09168 0.16594 0.41315 0.0
C698 C 0.07124 0.14687 0.43688 0.0
C699 C 0.04019 0.10746 0.41013 0.0
C700 C 0.03093 0.08637 0.36127 0.0
C701 C 0.06072 0.12665 0.3871 0.0
C702 C 0.04149 0.0852 0.2881 0.0
C703 C 0.06125 0.10475 0.26382 0.0
H704 H 0.38136 0.90219 0.1948 0.0
H705 H 0.3468 0.86405 0.39393 0.0
H706 H 0.38752 0.87886 0.46352 0.0
H707 H 0.42847 0.91022 0.47297 0.0
H708 H 0.46173 0.94887 0.27349 0.0
H709 H 0.42588 0.92582 0.19815 0.0
C710 C 0.38295 0.89597 0.25246 0.0
C711 C 0.36064 0.8826 0.28957 0.0
C712 C 0.40594 0.90526 0.29249 0.0
C713 C 0.3634 0.8749 0.36448 0.0
C714 C 0.3866 0.88352 0.40443 0.0
C715 C 0.42806 0.91318 0.41276 0.0
C716 C 0.44715 0.93164 0.37879 0.0
C717 C 0.40725 0.90007 0.37005 0.0
C718 C 0.4469 0.93502 0.30077 0.0
C719 C 0.42645 0.92185 0.25776 0.0
H720 H 0.45413 0.34088 0.2253 0.0
H721 H 0.37866 0.36407 0.31 0.0
H722 H 0.40062 0.4084 0.34536 0.0
H723 H 0.44165 0.43946 0.35473 0.0
H724 H 0.51719 0.4154 0.27134 0.0
H725 H 0.49457 0.37248 0.22949 0.0
C726 C 0.44265 0.35565 0.25237 0.0
C727 C 0.41512 0.34938 0.26705 0.0
C728 C 0.45525 0.38087 0.27073 0.0
C729 C 0.40002 0.36854 0.30011 0.0
C730 C 0.41252 0.39381 0.31936 0.0
C731 C 0.45309 0.42501 0.32614 0.0
C732 C 0.48106 0.43048 0.31597 0.0
C733 C 0.44013 0.40012 0.30491 0.0
C734 C 0.49565 0.41163 0.27919 0.0
C735 C 0.48279 0.38703 0.2562 0.0
H736 H 0.15023 0.6344 0.28188 0.0
H737 H 0.20266 0.58131 0.38033 0.0
H738 H 0.16486 0.55736 0.44181 0.0
H739 H 0.11667 0.54642 0.45213 0.0
H740 H 0.06278 0.59721 0.35316 0.0
H741 H 0.10131 0.62621 0.30443 0.0
C742 C 0.15351 0.61774 0.31712 0.0
C743 C 0.17957 0.60962 0.3242 0.0
C744 C 0.13128 0.60286 0.35006 0.0
C745 C 0.18323 0.58856 0.37315 0.0
C746 C 0.16141 0.57428 0.40766 0.0
C747 C 0.11335 0.56383 0.41971 0.0
C748 C 0.08714 0.56938 0.40409 0.0
C749 C 0.13537 0.58043 0.39346 0.0
C750 C 0.08296 0.59239 0.36439 0.0
C751 C 0.10493 0.60899 0.33706 0.0
H752 H 0.95052 0.83382 0.84301 0.0
H753 H 0.87488 0.8578 0.76962 0.0
H754 H 0.89738 0.90094 0.73018 0.0
H755 H 0.93851 0.9312 0.71626 0.0
H756 H 0.01413 0.9077 0.79225 0.0
H757 H 0.9915 0.86492 0.83357 0.0
C758 C 0.93912 0.84837 0.81696 0.0
C759 C 0.91131 0.84257 0.80675 0.0
C760 C 0.95204 0.87319 0.79683 0.0
C761 C 0.89641 0.86178 0.77605 0.0
C762 C 0.90922 0.8864 0.75434 0.0
C763 C 0.95002 0.91682 0.74263 0.0
C764 C 0.97794 0.92244 0.75127 0.0
C765 C 0.93698 0.89229 0.76474 0.0
C766 C 0.9926 0.9038 0.78571 0.0
C767 C 0.97972 0.8793 0.80845 0.0
H768 H 0.64256 0.10996 0.9218 0.0
H769 H 0.68538 0.133 0.71727 0.0
H770 H 0.64629 0.11597 0.64349 0.0
H771 H 0.60363 0.08708 0.63728 0.0
H772 H 0.56208 0.06292 0.84263 0.0
H773 H 0.59711 0.08812 0.91639 0.0
C774 C 0.64309 0.1124 0.86134 0.0
C775 C 0.66708 0.12235 0.82502 0.0
C776 C 0.62103 0.10167 0.81944 0.0
C777 C 0.66729 0.12507 0.74648 0.0
C778 C 0.64504 0.11511 0.70429 0.0
C779 C 0.60211 0.0877 0.69817 0.0
C780 C 0.58076 0.07277 0.73485 0.0
C781 C 0.62243 0.10203 0.74008 0.0
C782 C 0.57862 0.074 0.81347 0.0
C783 C 0.59859 0.08843 0.85556 0.0
H784 H 0.57147 0.66416 0.84916 0.0
H785 H 0.64938 0.6361 0.81546 0.0
H786 H 0.62812 0.59123 0.78388 0.0
H787 H 0.58713 0.56088 0.76248 0.0
H788 H 0.50933 0.58941 0.79808 0.0
H789 H 0.53079 0.63325 0.83579 0.0
C790 C 0.58369 0.64824 0.83337 0.0
C791 C 0.61178 0.65331 0.83148 0.0
C792 C 0.57137 0.62265 0.81793 0.0
C793 C 0.62768 0.63257 0.81454 0.0
C794 C 0.61553 0.60699 0.79757 0.0
C795 C 0.5749 0.57656 0.77997 0.0
C796 C 0.54672 0.57206 0.77735 0.0
C797 C 0.58738 0.60186 0.7991 0.0
C798 C 0.53105 0.59243 0.80012 0.0
C799 C 0.5433 0.61755 0.8206 0.0
H800 H 0.87647 0.40589 0.91496 0.0
H801 H 0.84734 0.3604 0.71926 0.0
H802 H 0.88958 0.37374 0.6531 0.0
H803 H 0.93129 0.40449 0.64502 0.0
H804 H 0.95833 0.45051 0.84141 0.0
H805 H 0.92038 0.43005 0.9141 0.0
C806 C 0.87943 0.39775 0.85903 0.0
C807 C 0.85829 0.38238 0.82206 0.0
C808 C 0.90332 0.40601 0.82099 0.0
C809 C 0.86294 0.37267 0.74882 0.0
C810 C 0.88708 0.38037 0.71084 0.0
C811 C 0.92908 0.40957 0.70413 0.0
C812 C 0.9472 0.42927 0.73773 0.0
C813 C 0.90685 0.3981 0.74526 0.0
C814 C 0.94439 0.43563 0.81429 0.0
C815 C 0.92271 0.42395 0.85581 0.0
H816 H 0.08982 0.14372 0.82139 0.0
H817 H 0.0127 0.17462 0.79725 0.0
H818 H 0.99667 0.13463 0.72603 0.0
H819 H 1.00356 0.08948 0.67577 0.0
H820 H 0.07772 0.05615 0.71999 0.0
H821 H 0.09528 0.09794 0.78257 0.0
C822 C 0.06916 0.14179 0.80323 0.0
C823 C 0.05259 0.16268 0.81697 0.0
C824 C 0.0593 0.11786 0.76684 0.0
C825 C 0.02639 0.15954 0.78767 0.0
C826 C 0.01694 0.13633 0.74755 0.0
C827 C 0.02346 0.09138 0.69998 0.0
C828 C 0.03936 0.06982 0.69392 0.0
C829 C 0.03307 0.11519 0.7378 0.0
C830 C 0.06508 0.07239 0.725 0.0
C831 C 0.07514 0.09633 0.76014 0.0
H832 H 0.37456 0.01282 0.86818 0.0
H833 H 0.33642 0.96436 0.69043 0.0
H834 H 0.37668 0.97201 0.61179 0.0
H835 H 0.42469 0.98921 0.59669 0.0
H836 H 0.46206 0.04013 0.77036 0.0
H837 H 0.42082 0.03475 0.84642 0.0
C838 C 0.37474 0.00466 0.81137 0.0
C839 C 0.35224 0.98795 0.78579 0.0
C840 C 0.39831 0.00907 0.76584 0.0
C841 C 0.35327 0.97728 0.71202 0.0
C842 C 0.37649 0.98144 0.667 0.0
C843 C 0.42371 0.99923 0.651 0.0
C844 C 0.44667 0.01482 0.6779 0.0
C845 C 0.39948 0.99666 0.69396 0.0
C846 C 0.44482 0.02795 0.74811 0.0
C847 C 0.42114 0.02489 0.79181 0.0
H848 H 0.4818 0.35983 0.86206 0.0
H849 H 0.50182 0.31294 0.66847 0.0
H850 H 0.51245 0.35387 0.59622 0.0
H851 H 0.51251 0.40288 0.58586 0.0
H852 H 0.49223 0.44945 0.78081 0.0
H853 H 0.48516 0.40888 0.85464 0.0
C854 C 0.48925 0.3587 0.80463 0.0
C855 C 0.49156 0.33348 0.77091 0.0
C856 C 0.4947 0.38225 0.76333 0.0
C857 C 0.50052 0.33213 0.69601 0.0
C858 C 0.50623 0.35553 0.65456 0.0
C859 C 0.50652 0.4042 0.64451 0.0
C860 C 0.50255 0.42932 0.67727 0.0
C861 C 0.50276 0.38069 0.68711 0.0
C862 C 0.49529 0.43052 0.75379 0.0
C863 C 0.49127 0.40728 0.79619 0.0
H864 H 0.15223 0.48629 0.89157 0.0
H865 H 0.20317 0.52006 0.714 0.0
H866 H 0.16473 0.5173 0.62886 0.0
H867 H 0.11543 0.50874 0.60816 0.0
H868 H 0.06503 0.47434 0.78716 0.0
H869 H 0.10403 0.47384 0.86738 0.0
C870 C 0.15505 0.49217 0.83344 0.0
C871 C 0.18076 0.5027 0.80868 0.0
C872 C 0.13266 0.49091 0.78514 0.0
C873 C 0.18384 0.51115 0.73388 0.0
C874 C 0.16171 0.50991 0.68547 0.0
C875 C 0.11298 0.50094 0.6645 0.0
C876 C 0.08697 0.49177 0.69116 0.0
C877 C 0.13582 0.50041 0.7109 0.0
C878 C 0.08453 0.48158 0.76446 0.0
C879 C 0.10694 0.48128 0.81079 0.0
H880 H 0.97566 0.86756 0.20909 0.0
H881 H 0.99513 0.8189 0.39376 0.0
H882 H 1.00514 0.85915 0.47221 0.0
H883 H 1.0054 0.90778 0.49031 0.0
H884 H 0.98538 0.95623 0.30523 0.0
H885 H 0.97818 0.91628 0.22509 0.0
C886 C 0.98217 0.86574 0.26654 0.0
C887 C 0.98434 0.84019 0.2959 0.0
C888 C 0.98744 0.88888 0.31136 0.0
C889 C 0.99337 0.83826 0.36978 0.0
C890 C 0.99885 0.86127 0.41475 0.0
C891 C 0.99942 0.90971 0.43245 0.0
C892 C 0.99561 0.93512 0.40425 0.0
C893 C 0.99543 0.88663 0.38654 0.0
C894 C 0.98831 0.93706 0.32871 0.0
C895 C 0.98421 0.91418 0.2828 0.0
H896 H 0.65624 0.97513 0.27854 0.0
H897 H 0.68195 0.05014 0.38855 0.0
H898 H 0.64085 0.04715 0.46431 0.0
H899 H 0.5956 0.02463 0.49482 0.0
H900 H 0.57164 0.94805 0.39146 0.0
H901 H 0.61351 0.95028 0.31929 0.0
C902 C 0.65324 0.99055 0.32023 0.0
C903 C 0.67234 0.01308 0.32611 0.0
C904 C 0.62938 0.98864 0.3648 0.0
C905 C 0.6676 0.0328 0.38088 0.0
C906 C 0.64396 0.03113 0.42462 0.0
C907 C 0.59962 0.00839 0.45679 0.0
C908 C 0.58011 0.98636 0.44839 0.0
C909 C 0.62432 0.00946 0.416 0.0
C910 C 0.58602 0.96537 0.39932 0.0
C911 C 0.61011 0.96659 0.35769 0.0
H912 H 0.56506 0.64444 0.24264 0.0
H913 H 0.53926 0.68868 0.43522 0.0
H914 H 0.52611 0.64674 0.50061 0.0
H915 H 0.52494 0.59763 0.50565 0.0
H916 H 0.54973 0.55337 0.31126 0.0
H917 H 0.56027 0.59511 0.24368 0.0
C918 C 0.55602 0.64479 0.2984 0.0
C919 C 0.55289 0.66955 0.33407 0.0
C920 C 0.54874 0.62062 0.3355 0.0
C921 C 0.54148 0.66987 0.40645 0.0
C922 C 0.53423 0.6459 0.44393 0.0
C923 C 0.53267 0.59707 0.44846 0.0
C924 C 0.53698 0.57231 0.41404 0.0
C925 C 0.5383 0.62118 0.40958 0.0
C926 C 0.5464 0.57204 0.33933 0.0
C927 C 0.55242 0.59594 0.30066 0.0
H928 H 0.84523 0.4926 0.37458 0.0
H929 H 0.88168 0.51833 0.16426 0.0
H930 H 0.92566 0.5259 0.22499 0.0
H931 H 0.95481 0.52057 0.33652 0.0
H932 H 0.91663 0.49396 0.54485 0.0
H933 H 0.87297 0.49124 0.48641 0.0
C934 C 0.8627 0.50031 0.34212 0.0
C935 C 0.85995 0.50481 0.26462 0.0
C936 C 0.88801 0.50401 0.37707 0.0
C937 C 0.88295 0.51497 0.22402 0.0
C938 C 0.90826 0.51896 0.2587 0.0
C939 C 0.93694 0.51446 0.36934 0.0
C940 C 0.9395 0.5072 0.44536 0.0
C941 C 0.91125 0.51283 0.33495 0.0
C942 C 0.91579 0.49944 0.4864 0.0
C943 C 0.89055 0.49789 0.45297 0.0
loop_
_geom_bond_atom_site_label_1
_geom_bond_atom_site_label_2
_geom_bond_distance
_geom_bond_site_symmetry_2
_ccdc_geom_bond_type
C0 C1 1.391 . S
C0 C4 1.391 . S
C0 H42 0.948 . S
C1 C0 1.391 . S
C1 C2 1.391 . S
C2 C1 1.391 . S
C2 H58 0.947 . S
C2 C59 1.392 . S
C3 C4 1.391 . S
C3 C7 1.397 . S
C3 C59 1.419 . S
C4 C0 1.391 . S
C4 C3 1.391 . S
C4 C5 1.399 . S
C5 C4 1.399 . S
C5 C8 1.396 . S
C5 C17 1.453 . S
C5 C18 1.684 . S
H6 C30 0.948 . S
C7 C3 1.397 . S
C7 C8 1.394 . S
C7 C26 1.723 . S
C8 C5 1.396 . S
C8 C7 1.394 . S
C8 C38 1.723 . S
H9 C32 0.947 . S
H10 C33 0.948 . S
H11 C39 0.982 . S
H12 C40 0.979 . S
H13 C40 0.980 . S
H14 C40 0.983 . S
H15 C39 0.979 . S
H16 C39 0.977 . S
C17 C5 1.453 . S
C17 H46 0.982 . S
C17 H47 0.979 . S
C17 H48 0.977 . S
C18 C5 1.684 . S
C18 H43 0.979 . S
C18 H44 0.980 . S
C18 H45 0.983 . S
C19 C20 1.391 . S
C19 C24 1.391 . S
C19 H49 0.948 . S
C20 C19 1.391 . S
C20 C21 1.391 . S
C21 C20 1.391 . S
C21 C22 1.392 . S
C21 H50 0.947 . S
C22 C21 1.392 . S
C22 C23 1.419 . S
C22 H51 0.948 . S
C23 C22 1.419 . S
C23 C24 1.391 . S
C23 C27 1.397 . S
C24 C19 1.391 . S
C24 C23 1.391 . S
C24 C25 1.399 . S
C25 C24 1.399 . S
C25 C26 1.396 1_556 S
C25 C28 1.453 1_556 S
C25 C29 1.684 1_556 S
C26 C7 1.723 . S
C26 C25 1.396 1_554 S
C26 C27 1.394 1_554 S
C27 C23 1.397 . S
C27 C26 1.394 1_556 S
C27 C37 1.723 . S
C28 C25 1.453 1_554 S
C28 H52 0.982 . S
C28 H53 0.979 . S
C28 H54 0.977 . S
C29 C25 1.684 1_554 S
C29 H55 0.979 . S
C29 H56 0.980 . S
C29 H57 0.983 . S
C30 H6 0.948 . S
C30 C31 1.391 . S
C30 C35 1.391 . S
C31 C30 1.391 . S
C31 C32 1.391 1_556 S
C32 H9 0.947 . S
C32 C31 1.391 1_554 S
C32 C33 1.392 . S
C33 H10 0.948 . S
C33 C32 1.392 . S
C33 C34 1.419 . S
C34 C33 1.419 . S
C34 C35 1.391 1_554 S
C34 C38 1.397 . S
C35 C30 1.391 . S
C35 C34 1.391 1_556 S
C35 C36 1.399 . S
C36 C35 1.399 . S
C36 C37 1.396 . S
C36 C39 1.453 . S
C36 C40 1.684 . S
C37 C27 1.723 . S
C37 C36 1.396 . S
C37 C38 1.394 1_556 S
C38 C8 1.723 . S
C38 C34 1.397 . S
C38 C37 1.394 1_554 S
C39 H11 0.982 . S
C39 H15 0.979 . S
C39 H16 0.977 . S
C39 C36 1.453 . S
C40 H12 0.979 . S
C40 H13 0.980 . S
C40 H14 0.983 . S
C40 C36 1.684 . S
H41 C59 0.948 . S
H42 C0 0.948 . S
H43 C18 0.979 . S
H44 C18 0.980 . S
H45 C18 0.983 . S
H46 C17 0.982 . S
H47 C17 0.979 . S
H48 C17 0.977 . S
H49 C19 0.948 . S
H50 C21 0.947 . S
H51 C22 0.948 . S
H52 C28 0.982 . S
H53 C28 0.979 . S
H54 C28 0.977 . S
H55 C29 0.979 . S
H56 C29 0.980 . S
H57 C29 0.983 . S
H58 C2 0.947 . S
C59 C2 1.392 . S
C59 C3 1.419 . S
C59 H41 0.948 . S
C60 C61 1.391 . S
C60 C64 1.391 . S
C60 H102 0.948 . S
C61 C60 1.391 . S
C61 C62 1.391 . S
C62 C61 1.391 . S
C62 H118 0.947 . S
C62 C119 1.392 . S
C63 C64 1.391 . S
C63 C67 1.397 . S
C63 C119 1.419 . S
C64 C60 1.391 . S
C64 C63 1.391 . S
C64 C65 1.399 . S
C65 C64 1.399 . S
C65 C68 1.396 . S
C65 C77 1.453 . S
C65 C78 1.684 . S
H66 C90 0.938 1_554 S
C67 C63 1.397 . S
C67 C68 1.394 . S
C67 C86 1.723 1_556 S
C68 C65 1.396 . S
C68 C67 1.394 . S
C68 C98 1.723 . S
H69 C92 0.947 . S
H70 C93 0.948 . S
H71 C99 0.982 . S
H72 C100 0.979 . S
H73 C100 0.980 . S
H74 C100 0.983 . S
H75 C99 0.979 . S
H76 C99 0.977 . S
C77 C65 1.453 . S
C77 H106 0.982 . S
C77 H107 0.979 . S
C77 H108 0.977 . S
C78 C65 1.684 . S
C78 H103 0.979 . S
C78 H104 0.980 . S
C78 H105 0.983 . S
C79 C80 1.391 . S
C79 C84 1.391 . S
C79 H109 0.948 . S
C80 C79 1.391 . S
C80 C81 1.391 . S
C81 C80 1.391 . S
C81 C82 1.392 . S
C81 H110 0.947 . S
C82 C81 1.392 . S
C82 C83 1.419 . S
C82 H111 0.948 . S
C83 C82 1.419 . S
C83 C84 1.391 . S
C83 C87 1.397 . S
C84 C79 1.391 . S
C84 C83 1.391 . S
C84 C85 1.399 . S
C85 C84 1.399 . S
C85 C86 1.396 . S
C85 C88 1.453 . S
C85 C89 1.684 . S
C86 C67 1.723 1_554 S
C86 C85 1.396 . S
C86 C87 1.394 . S
C87 C83 1.397 . S
C87 C86 1.394 . S
C87 C97 1.723 . S
C88 C85 1.453 . S
C88 H112 0.982 . S
C88 H113 0.979 . S
C88 H114 0.977 . S
C89 C85 1.684 . S
C89 H115 0.979 . S
C89 H116 0.980 . S
C89 H117 0.983 . S
C90 H66 0.938 1_556 S
C90 C91 1.402 . S
C90 C95 1.390 1_556 S
C91 C90 1.402 . S
C91 C92 1.391 . S
C92 H69 0.947 . S
C92 C91 1.391 . S
C92 C93 1.392 . S
C93 H70 0.948 . S
C93 C92 1.392 . S
C93 C94 1.419 . S
C94 C93 1.419 . S
C94 C95 1.391 1_556 S
C94 C98 1.397 . S
C95 C90 1.390 1_554 S
C95 C94 1.391 1_554 S
C95 C96 1.399 . S
C96 C95 1.399 . S
C96 C97 1.396 . S
C96 C99 1.453 . S
C96 C100 1.684 . S
C97 C87 1.723 . S
C97 C96 1.396 . S
C97 C98 1.394 1_554 S
C98 C68 1.723 . S
C98 C94 1.397 . S
C98 C97 1.394 1_556 S
C99 H71 0.982 . S
C99 H75 0.979 . S
C99 H76 0.977 . S
C99 C96 1.453 . S
C100 H72 0.979 . S
C100 H73 0.980 . S
C100 H74 0.983 . S
C100 C96 1.684 . S
H101 C119 0.948 . S
H102 C60 0.948 . S
H103 C78 0.979 . S
H104 C78 0.980 . S
H105 C78 0.983 . S
H106 C77 0.982 . S
H107 C77 0.979 . S
H108 C77 0.977 . S
H109 C79 0.948 . S
H110 C81 0.947 . S
H111 C82 0.948 . S
H112 C88 0.982 . S
H113 C88 0.979 . S
H114 C88 0.977 . S
H115 C89 0.979 . S
H116 C89 0.980 . S
H117 C89 0.983 . S
H118 C62 0.947 . S
C119 C62 1.392 . S
C119 C63 1.419 . S
C119 H101 0.948 . S
C120 C121 1.391 1_554 S
C120 C124 1.391 . S
C120 H162 0.948 . S
C121 C120 1.391 1_556 S
C121 C122 1.391 . S
C122 C121 1.391 . S
C122 H178 0.947 . S
C122 C179 1.392 . S
C123 C124 1.391 1_556 S
C123 C127 1.397 1_566 S
C123 C179 1.419 . S
C124 C120 1.391 . S
C124 C123 1.391 1_554 S
C124 C125 1.399 . S
C125 C124 1.399 . S
C125 C128 1.396 1_565 S
C125 C137 1.453 1_565 S
C125 C138 1.684 . S
H126 C150 0.948 . S
C127 C123 1.397 1_544 S
C127 C128 1.394 . S
C127 C146 1.723 1_554 S
C128 C125 1.396 1_545 S
C128 C127 1.394 . S
C128 C158 1.723 . S
H129 C152 0.947 . S
H130 C153 0.948 . S
H131 C159 0.982 . S
H132 C160 0.979 . S
H133 C160 0.980 . S
H134 C160 0.983 . S
H135 C159 0.979 . S
H136 C159 0.977 . S
C137 C125 1.453 1_545 S
C137 H166 0.982 . S
C137 H167 0.979 . S
C137 H168 0.977 . S
C138 C125 1.684 . S
C138 H163 0.979 . S
C138 H164 0.980 . S
C138 H165 0.983 . S
C139 C140 1.391 . S
C139 C144 1.391 . S
C139 H169 0.948 . S
C140 C139 1.391 . S
C140 C141 1.391 . S
C141 C140 1.391 . S
C141 C142 1.392 . S
C141 H170 0.947 . S
C142 C141 1.392 . S
C142 C143 1.419 . S
C142 H171 0.948 . S
C143 C142 1.419 . S
C143 C144 1.391 . S
C143 C147 1.397 1_565 S
C144 C139 1.391 . S
C144 C143 1.391 . S
C144 C145 1.399 . S
C145 C144 1.399 . S
C145 C146 1.396 1_565 S
C145 C148 1.453 1_565 S
C145 C149 1.684 . S
C146 C127 1.723 1_556 S
C146 C145 1.396 1_545 S
C146 C147 1.394 . S
C147 C143 1.397 1_545 S
C147 C146 1.394 . S
C147 C157 1.723 1_556 S
C148 C145 1.453 1_545 S
C148 H172 0.982 . S
C148 H173 0.979 . S
C148 H174 0.977 . S
C149 C145 1.684 . S
C149 H175 0.979 . S
C149 H176 0.980 . S
C149 H177 0.983 . S
C150 H126 0.948 . S
C150 C151 1.391 . S
C150 C155 1.391 . S
C151 C150 1.391 . S
C151 C152 1.391 . S
C152 H129 0.947 . S
C152 C151 1.391 . S
C152 C153 1.392 . S
C153 H130 0.948 . S
C153 C152 1.392 . S
C153 C154 1.419 . S
C154 C153 1.419 . S
C154 C155 1.391 . S
C154 C158 1.397 1_565 S
C155 C150 1.391 . S
C155 C154 1.391 . S
C155 C156 1.399 . S
C156 C155 1.399 . S
C156 C157 1.396 1_565 S
C156 C159 1.453 1_565 S
C156 C160 1.684 . S
C157 C147 1.723 1_554 S
C157 C156 1.396 1_545 S
C157 C158 1.394 . S
C158 C128 1.723 . S
C158 C154 1.397 1_545 S
C158 C157 1.394 . S
C159 H131 0.982 . S
C159 H135 0.979 . S
C159 H136 0.977 . S
C159 C156 1.453 1_545 S
C160 H132 0.979 . S
C160 H133 0.980 . S
C160 H134 0.983 . S
C160 C156 1.684 . S
H161 C179 0.948 . S
H162 C120 0.948 . S
H163 C138 0.979 . S
H164 C138 0.980 . S
H165 C138 0.983 . S
H166 C137 0.982 . S
H167 C137 0.979 . S
H168 C137 0.977 . S
H169 C139 0.948 . S
H170 C141 0.947 . S
H171 C142 0.948 . S
H172 C148 0.982 . S
H173 C148 0.979 . S
H174 C148 0.977 . S
H175 C149 0.979 . S
H176 C149 0.980 . S
H177 C149 0.983 . S
H178 C122 0.947 . S
C179 C122 1.392 . S
C179 C123 1.419 . S
C179 H161 0.948 . S
C180 C181 1.391 . S
C180 C184 1.391 . S
C180 H222 0.948 . S
C181 C180 1.391 . S
C181 C182 1.391 . S
C182 C181 1.391 . S
C182 H238 0.947 . S
C182 C239 1.392 . S
C183 C184 1.391 . S
C183 C187 1.397 . S
C183 C239 1.419 . S
C184 C180 1.391 . S
C184 C183 1.391 . S
C184 C185 1.399 . S
C185 C184 1.399 . S
C185 C188 1.396 . S
C185 C197 1.453 . S
C185 C198 1.684 . S
H186 C210 0.948 . S
C187 C183 1.397 . S
C187 C188 1.394 . S
C187 C206 1.723 . S
C188 C185 1.396 . S
C188 C187 1.394 . S
C188 C218 1.723 . S
H189 C212 0.947 . S
H190 C213 0.948 . S
H191 C219 0.982 . S
H192 C220 0.979 . S
H193 C220 0.980 . S
H194 C220 0.983 . S
H195 C219 0.979 . S
H196 C219 0.977 . S
C197 C185 1.453 . S
C197 H226 0.982 . S
C197 H227 0.979 . S
C197 H228 0.977 . S
C198 C185 1.684 . S
C198 H223 0.979 . S
C198 H224 0.980 . S
C198 H225 0.983 . S
C199 C200 1.391 . S
C199 C204 1.391 . S
C199 H229 0.948 . S
C200 C199 1.391 . S
C200 C201 1.391 . S
C201 C200 1.391 . S
C201 C202 1.392 . S
C201 H230 0.947 . S
C202 C201 1.392 . S
C202 C203 1.419 . S
C202 H231 0.948 . S
C203 C202 1.419 . S
C203 C204 1.391 . S
C203 C207 1.397 . S
C204 C199 1.391 . S
C204 C203 1.391 . S
C204 C205 1.399 1_556 S
C205 C204 1.399 1_554 S
C205 C206 1.396 . S
C205 C208 1.453 . S
C205 C209 1.684 . S
C206 C187 1.723 . S
C206 C205 1.396 . S
C206 C207 1.394 1_554 S
C207 C203 1.397 . S
C207 C206 1.394 1_556 S
C207 C217 1.723 . S
C208 C205 1.453 . S
C208 H232 0.982 . S
C208 H233 0.979 . S
C208 H234 0.977 . S
C209 C205 1.684 . S
C209 H235 0.979 . S
C209 H236 0.980 . S
C209 H237 0.983 . S
C210 H186 0.948 . S
C210 C211 1.391 1_556 S
C210 C215 1.391 . S
C211 C210 1.391 1_554 S
C211 C212 1.391 . S
C212 H189 0.947 . S
C212 C211 1.391 . S
C212 C213 1.392 . S
C213 H190 0.948 . S
C213 C212 1.392 . S
C213 C214 1.419 . S
C214 C213 1.419 . S
C214 C215 1.391 1_554 S
C214 C218 1.397 . S
C215 C210 1.391 . S
C215 C214 1.391 1_556 S
C215 C216 1.399 . S
C216 C215 1.399 . S
C216 C217 1.396 . S
C216 C219 1.453 . S
C216 C220 1.684 . S
C217 C207 1.723 . S
C217 C216 1.396 . S
C217 C218 1.394 1_556 S
C218 C188 1.723 . S
C218 C214 1.397 . S
C218 C217 1.394 1_554 S
C219 H191 0.982 . S
C219 H195 0.979 . S
C219 H196 0.977 . S
C219 C216 1.453 . S
C220 H192 0.979 . S
C220 H193 0.980 . S
C220 H194 0.983 . S
C220 C216 1.684 . S
H221 C239 0.948 . S
H222 C180 0.948 . S
H223 C198 0.979 . S
H224 C198 0.980 . S
H225 C198 0.983 . S
H226 C197 0.982 . S
H227 C197 0.979 . S
H228 C197 0.977 . S
H229 C199 0.948 . S
H230 C201 0.947 . S
H231 C202 0.948 . S
H232 C208 0.982 . S
H233 C208 0.979 . S
H234 C208 0.977 . S
H235 C209 0.979 . S
H236 C209 0.980 . S
H237 C209 0.983 . S
H238 C182 0.947 . S
C239 C182 1.392 . S
C239 C183 1.419 . S
C239 H221 0.948 . S
C240 C241 1.391 . S
C240 C244 1.391 . S
C240 H282 0.948 . S
C241 C240 1.391 . S
C241 C242 1.391 . S
C242 C241 1.391 . S
C242 H298 0.947 . S
C242 C299 1.392 . S
C243 C244 1.391 . S
C243 C247 1.397 . S
C243 C299 1.419 . S
C244 C240 1.391 . S
C244 C243 1.391 . S
C244 C245 1.399 . S
C245 C244 1.399 . S
C245 C248 1.396 . S
C245 C257 1.453 1_554 S
C245 C258 1.684 1_554 S
H246 C270 0.948 . S
C247 C243 1.397 . S
C247 C248 1.394 . S
C247 C266 1.723 . S
C248 C245 1.396 . S
C248 C247 1.394 . S
C248 C278 1.723 1_554 S
H249 C272 0.947 . S
H250 C273 0.948 . S
H251 C279 0.982 . S
H252 C280 0.979 . S
H253 C280 0.980 1_554 S
H254 C280 0.983 . S
H255 C279 0.979 . S
H256 C279 0.977 1_554 S
C257 C245 1.453 1_556 S
C257 H286 0.982 . S
C257 H287 0.979 . S
C257 H288 0.977 . S
C258 C245 1.684 1_556 S
C258 H283 0.979 . S
C258 H284 0.980 . S
C258 H285 0.983 . S
C259 C260 1.391 . S
C259 C264 1.391 . S
C259 H289 0.948 . S
C260 C259 1.391 . S
C260 C261 1.391 . S
C261 C260 1.391 . S
C261 C262 1.392 . S
C261 H290 0.947 . S
C262 C261 1.392 . S
C262 C263 1.419 . S
C262 H291 0.948 . S
C263 C262 1.419 . S
C263 C264 1.391 . S
C263 C267 1.397 . S
C264 C259 1.391 . S
C264 C263 1.391 . S
C264 C265 1.399 . S
C265 C264 1.399 . S
C265 C266 1.396 . S
C265 C268 1.453 . S
C265 C269 1.684 . S
C266 C247 1.723 . S
C266 C265 1.396 . S
C266 C267 1.394 . S
C267 C263 1.397 . S
C267 C266 1.394 . S
C267 C277 1.723 . S
C268 C265 1.453 . S
C268 H292 0.982 . S
C268 H293 0.979 . S
C268 H294 0.977 . S
C269 C265 1.684 . S
C269 H295 0.979 . S
C269 H296 0.980 . S
C269 H297 0.983 . S
C270 H246 0.948 . S
C270 C271 1.391 . S
C270 C275 1.391 . S
C271 C270 1.391 . S
C271 C272 1.391 . S
C272 H249 0.947 . S
C272 C271 1.391 . S
C272 C273 1.392 . S
C273 H250 0.948 . S
C273 C272 1.392 . S
C273 C274 1.419 . S
C274 C273 1.419 . S
C274 C275 1.391 . S
C274 C278 1.397 . S
C275 C270 1.391 . S
C275 C274 1.391 . S
C275 C276 1.399 . S
C276 C275 1.399 . S
C276 C277 1.396 1_556 S
C276 C279 1.453 . S
C276 C280 1.684 . S
C277 C267 1.723 . S
C277 C276 1.396 1_554 S
C277 C278 1.394 1_554 S
C278 C248 1.723 1_556 S
C278 C274 1.397 . S
C278 C277 1.394 1_556 S
C279 H251 0.982 . S
C279 H255 0.979 . S
C279 H256 0.977 1_556 S
C279 C276 1.453 . S
C280 H252 0.979 . S
C280 H253 0.980 1_556 S
C280 H254 0.983 . S
C280 C276 1.684 . S
H281 C299 0.948 . S
H282 C240 0.948 . S
H283 C258 0.979 . S
H284 C258 0.980 . S
H285 C258 0.983 . S
H286 C257 0.982 . S
H287 C257 0.979 . S
H288 C257 0.977 . S
H289 C259 0.948 . S
H290 C261 0.947 . S
H291 C262 0.948 . S
H292 C268 0.982 . S
H293 C268 0.979 . S
H294 C268 0.977 . S
H295 C269 0.979 . S
H296 C269 0.980 . S
H297 C269 0.983 . S
H298 C242 0.947 . S
C299 C242 1.392 . S
C299 C243 1.419 . S
C299 H281 0.948 . S
C300 C301 1.391 . S
C300 C304 1.391 . S
C300 H342 0.948 . S
C301 C300 1.391 . S
C301 C302 1.391 . S
C302 C301 1.391 . S
C302 H358 0.947 . S
C302 C359 1.392 . S
C303 C304 1.391 . S
C303 C307 1.397 . S
C303 C359 1.419 . S
C304 C300 1.391 . S
C304 C303 1.391 . S
C304 C305 1.399 . S
C305 C304 1.399 . S
C305 C308 1.396 . S
C305 C317 1.453 . S
C305 C318 1.684 . S
H306 C330 0.948 . S
C307 C303 1.397 . S
C307 C308 1.394 . S
C307 C326 1.723 . S
C308 C305 1.396 . S
C308 C307 1.394 . S
C308 C338 1.723 . S
H309 C332 0.947 . S
H310 C333 0.948 . S
H311 C339 0.982 . S
H312 C340 0.979 . S
H313 C340 0.980 . S
H314 C340 0.983 . S
H315 C339 0.979 . S
H316 C339 0.977 . S
C317 C305 1.453 . S
C317 H346 0.982 . S
C317 H347 0.979 . S
C317 H348 0.977 . S
C318 C305 1.684 . S
C318 H343 0.979 . S
C318 H344 0.980 . S
C318 H345 0.983 . S
C319 C320 1.391 . S
C319 C324 1.391 . S
C319 H349 0.948 . S
C320 C319 1.391 . S
C320 C321 1.391 . S
C321 C320 1.391 . S
C321 C322 1.392 . S
C321 H350 0.947 . S
C322 C321 1.392 . S
C322 C323 1.419 . S
C322 H351 0.948 . S
C323 C322 1.419 . S
C323 C324 1.391 . S
C323 C327 1.397 1_556 S
C324 C319 1.391 . S
C324 C323 1.391 . S
C324 C325 1.399 . S
C325 C324 1.399 . S
C325 C326 1.396 1_556 S
C325 C328 1.452 1_556 S
C325 C329 1.684 . S
C326 C307 1.723 . S
C326 C325 1.396 1_554 S
C326 C327 1.394 . S
C327 C323 1.397 1_554 S
C327 C326 1.394 . S
C327 C337 1.723 . S
C328 C325 1.452 1_554 S
C328 H352 0.982 1_554 S
C328 H353 0.976 1_554 S
C328 H354 0.981 . S
C329 C325 1.684 . S
C329 H355 0.979 . S
C329 H356 0.978 1_556 S
C329 H357 0.985 . S
C330 H306 0.948 . S
C330 C331 1.391 . S
C330 C335 1.391 . S
C331 C330 1.391 . S
C331 C332 1.391 . S
C332 H309 0.947 . S
C332 C331 1.391 . S
C332 C333 1.392 . S
C333 H310 0.948 . S
C333 C332 1.392 . S
C333 C334 1.419 . S
C334 C333 1.419 . S
C334 C335 1.391 . S
C334 C338 1.397 . S
C335 C330 1.391 . S
C335 C334 1.391 . S
C335 C336 1.399 . S
C336 C335 1.399 . S
C336 C337 1.396 . S
C336 C339 1.453 1_554 S
C336 C340 1.684 1_554 S
C337 C327 1.723 . S
C337 C336 1.396 . S
C337 C338 1.394 . S
C338 C308 1.723 . S
C338 C334 1.397 . S
C338 C337 1.394 . S
C339 H311 0.982 . S
C339 H315 0.979 . S
C339 H316 0.977 . S
C339 C336 1.453 1_556 S
C340 H312 0.979 . S
C340 H313 0.980 . S
C340 H314 0.983 . S
C340 C336 1.684 1_556 S
H341 C359 0.948 . S
H342 C300 0.948 . S
H343 C318 0.979 . S
H344 C318 0.980 . S
H345 C318 0.983 . S
H346 C317 0.982 . S
H347 C317 0.979 . S
H348 C317 0.977 . S
H349 C319 0.948 . S
H350 C321 0.947 . S
H351 C322 0.948 . S
H352 C328 0.982 1_556 S
H353 C328 0.976 1_556 S
H354 C328 0.981 . S
H355 C329 0.979 . S
H356 C329 0.978 1_554 S
H357 C329 0.985 . S
H358 C302 0.947 . S
C359 C302 1.392 . S
C359 C303 1.419 . S
C359 H341 0.948 . S
C360 C361 1.391 . S
C360 C364 1.391 . S
C360 H402 0.948 . S
C361 C360 1.391 . S
C361 C362 1.391 . S
C362 C361 1.391 . S
C362 H418 0.947 . S
C362 C419 1.392 . S
C363 C364 1.391 . S
C363 C367 1.397 1_545 S
C363 C419 1.419 . S
C364 C360 1.391 . S
C364 C363 1.391 . S
C364 C365 1.399 . S
C365 C364 1.399 . S
C365 C368 1.396 1_545 S
C365 C377 1.453 1_545 S
C365 C378 1.684 . S
H366 C390 0.948 . S
C367 C363 1.397 1_565 S
C367 C368 1.394 . S
C367 C386 1.723 1_556 S
C368 C365 1.396 1_565 S
C368 C367 1.394 . S
C368 C398 1.723 1_556 S
H369 C392 0.947 . S
H370 C393 0.948 1_556 S
H371 C399 0.982 . S
H372 C400 0.979 . S
H373 C400 0.980 . S
H374 C400 0.983 . S
H375 C399 0.979 . S
H376 C399 0.977 . S
C377 C365 1.453 1_565 S
C377 H406 0.982 . S
C377 H407 0.979 . S
C377 H408 0.977 . S
C378 C365 1.684 . S
C378 H403 0.979 . S
C378 H404 0.980 . S
C378 H405 0.983 . S
C379 C380 1.391 . S
C379 C384 1.391 . S
C379 H409 0.948 . S
C380 C379 1.391 . S
C380 C381 1.391 . S
C381 C380 1.391 . S
C381 C382 1.392 . S
C381 H410 0.947 . S
C382 C381 1.392 . S
C382 C383 1.419 . S
C382 H411 0.948 . S
C383 C382 1.419 . S
C383 C384 1.391 . S
C383 C387 1.397 1_545 S
C384 C379 1.391 . S
C384 C383 1.391 . S
C384 C385 1.399 . S
C385 C384 1.399 . S
C385 C386 1.396 1_545 S
C385 C388 1.453 1_545 S
C385 C389 1.684 . S
C386 C367 1.723 1_554 S
C386 C385 1.396 1_565 S
C386 C387 1.394 . S
C387 C383 1.397 1_565 S
C387 C386 1.394 . S
C387 C397 1.723 . S
C388 C385 1.453 1_565 S
C388 H412 0.982 . S
C388 H413 0.979 . S
C388 H414 0.977 . S
C389 C385 1.684 . S
C389 H415 0.979 . S
C389 H416 0.984 . S
C389 H417 0.983 . S
C390 H366 0.948 . S
C390 C391 1.391 . S
C390 C395 1.391 . S
C391 C390 1.391 . S
C391 C392 1.391 . S
C392 H369 0.947 . S
C392 C391 1.391 . S
C392 C393 1.392 . S
C393 H370 0.948 1_554 S
C393 C392 1.392 . S
C393 C394 1.419 . S
C394 C393 1.419 . S
C394 C395 1.391 . S
C394 C398 1.397 1_545 S
C395 C390 1.391 . S
C395 C394 1.391 . S
C395 C396 1.399 . S
C396 C395 1.399 . S
C396 C397 1.396 1_545 S
C396 C399 1.453 1_545 S
C396 C400 1.684 . S
C397 C387 1.723 . S
C397 C396 1.396 1_565 S
C397 C398 1.394 . S
C398 C368 1.723 1_554 S
C398 C394 1.397 1_565 S
C398 C397 1.394 . S
C399 H371 0.982 . S
C399 H375 0.979 . S
C399 H376 0.977 . S
C399 C396 1.453 1_565 S
C400 H372 0.979 . S
C400 H373 0.980 . S
C400 H374 0.983 . S
C400 C396 1.684 . S
H401 C419 0.948 . S
H402 C360 0.948 . S
H403 C378 0.979 . S
H404 C378 0.980 . S
H405 C378 0.983 . S
H406 C377 0.982 . S
H407 C377 0.979 . S
H408 C377 0.977 . S
H409 C379 0.948 . S
H410 C381 0.947 . S
H411 C382 0.948 . S
H412 C388 0.982 . S
H413 C388 0.979 . S
H414 C388 0.977 . S
H415 C389 0.979 . S
H416 C389 0.984 . S
H417 C389 0.983 . S
H418 C362 0.947 . S
C419 C362 1.392 . S
C419 C363 1.419 . S
C419 H401 0.948 . S
C420 C421 1.391 . S
C420 C424 1.391 . S
C420 H462 0.948 . S
C421 C420 1.391 . S
C421 C422 1.391 . S
C422 C421 1.391 . S
C422 H478 0.947 . S
C422 C479 1.392 . S
C423 C424 1.391 . S
C423 C427 1.397 . S
C423 C479 1.419 . S
C424 C420 1.391 . S
C424 C423 1.391 . S
C424 C425 1.399 . S
C425 C424 1.399 . S
C425 C428 1.396 . S
C425 C437 1.453 . S
C425 C438 1.684 . S
H426 C450 0.948 . S
C427 C423 1.397 . S
C427 C428 1.394 . S
C427 C446 1.723 1_556 S
C428 C425 1.396 . S
C428 C427 1.394 . S
C428 C458 1.723 1_556 S
H429 C452 0.947 1_556 S
H430 C453 0.948 . S
H431 C459 0.982 . S
H432 C460 0.979 . S
H433 C460 0.980 . S
H434 C460 0.983 . S
H435 C459 0.979 . S
H436 C459 0.977 . S
C437 C425 1.453 . S
C437 H466 0.982 . S
C437 H467 0.979 . S
C437 H468 0.977 . S
C438 C425 1.684 . S
C438 H463 0.979 . S
C438 H464 0.980 . S
C438 H465 0.983 . S
C439 C440 1.391 . S
C439 C444 1.391 . S
C439 H469 0.948 . S
C440 C439 1.391 . S
C440 C441 1.391 . S
C441 C440 1.391 . S
C441 C442 1.392 . S
C441 H470 0.947 . S
C442 C441 1.392 . S
C442 C443 1.419 . S
C442 H471 0.948 . S
C443 C442 1.419 . S
C443 C444 1.391 . S
C443 C447 1.397 . S
C444 C439 1.391 . S
C444 C443 1.391 . S
C444 C445 1.399 . S
C445 C444 1.399 . S
C445 C446 1.396 . S
C445 C448 1.453 . S
C445 C449 1.684 . S
C446 C427 1.723 1_554 S
C446 C445 1.396 . S
C446 C447 1.394 . S
C447 C443 1.397 . S
C447 C446 1.394 . S
C447 C457 1.723 . S
C448 C445 1.453 . S
C448 H472 0.982 . S
C448 H473 0.979 . S
C448 H474 0.977 1_554 S
C449 C445 1.684 . S
C449 H475 0.979 . S
C449 H476 0.980 1_554 S
C449 H477 0.983 . S
C450 H426 0.948 . S
C450 C451 1.391 . S
C450 C455 1.391 . S
C451 C450 1.391 . S
C451 C452 1.391 . S
C452 H429 0.947 1_554 S
C452 C451 1.391 . S
C452 C453 1.392 1_554 S
C453 H430 0.948 . S
C453 C452 1.392 1_556 S
C453 C454 1.419 1_556 S
C454 C453 1.419 1_554 S
C454 C455 1.391 . S
C454 C458 1.397 . S
C455 C450 1.391 . S
C455 C454 1.391 . S
C455 C456 1.399 . S
C456 C455 1.399 . S
C456 C457 1.396 . S
C456 C459 1.453 . S
C456 C460 1.684 . S
C457 C447 1.723 . S
C457 C456 1.396 . S
C457 C458 1.394 . S
C458 C428 1.723 1_554 S
C458 C454 1.397 . S
C458 C457 1.394 . S
C459 H431 0.982 . S
C459 H435 0.979 . S
C459 H436 0.977 . S
C459 C456 1.453 . S
C460 H432 0.979 . S
C460 H433 0.980 . S
C460 H434 0.983 . S
C460 C456 1.684 . S
H461 C479 0.948 . S
H462 C420 0.948 . S
H463 C438 0.979 . S
H464 C438 0.980 . S
H465 C438 0.983 . S
H466 C437 0.982 . S
H467 C437 0.979 . S
H468 C437 0.977 . S
H469 C439 0.948 . S
H470 C441 0.947 . S
H471 C442 0.948 . S
H472 C448 0.982 . S
H473 C448 0.979 . S
H474 C448 0.977 1_556 S
H475 C449 0.979 . S
H476 C449 0.980 1_556 S
H477 C449 0.983 . S
H478 C422 0.947 . S
C479 C422 1.392 . S
C479 C423 1.419 . S
C479 H461 0.948 . S
Dy480 O484 2.398 . S
Dy480 O485 2.491 1_455 S
Dy480 O486 2.403 . S
Dy480 O487 2.664 1_565 S
Dy480 O491 2.326 . S
Dy480 O495 2.310 1_455 S
Dy480 O496 2.351 1_565 S
C481 O492 1.185 1_455 S
C481 O493 1.355 . S
C482 O484 1.185 . S
C482 O485 1.355 1_455 S
Dy483 O487 2.310 1_655 S
Dy483 O490 2.351 1_545 S
Dy483 O492 2.398 . S
Dy483 O493 2.491 1_655 S
Dy483 O494 2.403 . S
Dy483 O495 2.664 1_545 S
Dy483 O497 2.326 1_655 S
O484 Dy480 2.398 . S
O484 C482 1.185 . S
O485 Dy480 2.491 1_655 S
O485 C482 1.355 1_655 S
O486 Dy480 2.403 . S
O486 C488 1.254 . S
O487 Dy480 2.664 1_545 S
O487 Dy483 2.310 1_455 S
O487 C488 1.268 1_545 S
C488 O486 1.254 . S
C488 O487 1.268 1_565 S
C489 O494 1.254 . S
C489 O495 1.268 1_545 S
O490 Dy483 2.351 1_565 S
O490 C498 1.249 . S
O491 Dy480 2.326 . S
O491 C498 1.267 1_455 S
O492 C481 1.185 1_655 S
O492 Dy483 2.398 . S
O493 C481 1.355 . S
O493 Dy483 2.491 1_455 S
O494 Dy483 2.403 . S
O494 C489 1.254 . S
O495 Dy480 2.310 1_655 S
O495 Dy483 2.664 1_565 S
O495 C489 1.268 1_565 S
O496 Dy480 2.351 1_545 S
O496 C499 1.249 . S
O497 Dy483 2.326 1_455 S
O497 C499 1.267 . S
C498 O490 1.249 . S
C498 O491 1.267 1_655 S
C499 O496 1.249 . S
C499 O497 1.267 . S
Dy500 O504 2.398 . S
Dy500 O505 2.491 . S
Dy500 O506 2.403 . S
Dy500 O507 2.664 . S
Dy500 O511 2.326 1_565 S
Dy500 O515 2.310 1_565 S
Dy500 O516 2.351 . S
C501 O512 1.185 . S
C501 O513 1.355 . S
C502 O504 1.185 . S
C502 O505 1.355 . S
Dy503 O507 2.310 1_545 S
Dy503 O510 2.351 . S
Dy503 O512 2.398 . S
Dy503 O513 2.491 . S
Dy503 O514 2.403 . S
Dy503 O515 2.664 . S
Dy503 O517 2.326 1_545 S
O504 Dy500 2.398 . S
O504 C502 1.185 . S
O505 Dy500 2.491 . S
O505 C502 1.355 . S
O506 Dy500 2.403 . S
O506 C508 1.254 . S
O507 Dy500 2.664 . S
O507 Dy503 2.310 1_565 S
O507 C508 1.268 . S
C508 O506 1.254 . S
C508 O507 1.268 . S
C509 O514 1.254 . S
C509 O515 1.268 . S
O510 Dy503 2.351 . S
O510 C518 1.249 . S
O511 Dy500 2.326 1_545 S
O511 C518 1.267 . S
O512 C501 1.185 . S
O512 Dy503 2.398 . S
O513 C501 1.355 . S
O513 Dy503 2.491 . S
O514 Dy503 2.403 . S
O514 C509 1.254 . S
O515 Dy500 2.310 1_545 S
O515 Dy503 2.664 . S
O515 C509 1.268 . S
O516 Dy500 2.351 . S
O516 C519 1.249 . S
O517 Dy503 2.326 1_565 S
O517 C519 1.267 . S
C518 O510 1.249 . S
C518 O511 1.267 . S
C519 O516 1.249 . S
C519 O517 1.267 . S
Dy520 O524 2.398 . S
Dy520 O525 2.491 . S
Dy520 O526 2.403 . S
Dy520 O527 2.664 . S
Dy520 O531 2.326 . S
Dy520 O535 2.310 . S
Dy520 O536 2.351 . S
C521 O532 1.185 . S
C521 O533 1.355 . S
C522 O524 1.185 . S
C522 O525 1.355 . S
Dy523 O527 2.310 . S
Dy523 O530 2.351 . S
Dy523 O532 2.398 . S
Dy523 O533 2.491 . S
Dy523 O534 2.403 . S
Dy523 O535 2.664 . S
Dy523 O537 2.326 . S
O524 Dy520 2.398 . S
O524 C522 1.185 . S
O525 Dy520 2.491 . S
O525 C522 1.355 . S
O526 Dy520 2.403 . S
O526 C528 1.254 . S
O527 Dy520 2.664 . S
O527 Dy523 2.310 . S
O527 C528 1.268 . S
C528 O526 1.254 . S
C528 O527 1.268 . S
C529 O534 1.254 . S
C529 O535 1.268 . S
O530 Dy523 2.351 . S
O530 C538 1.249 . S
O531 Dy520 2.326 . S
O531 C538 1.267 . S
O532 C521 1.185 . S
O532 Dy523 2.398 . S
O533 C521 1.355 . S
O533 Dy523 2.491 . S
O534 Dy523 2.403 . S
O534 C529 1.254 . S
O535 Dy520 2.310 . S
O535 Dy523 2.664 . S
O535 C529 1.268 . S
O536 Dy520 2.351 . S
O536 C539 1.249 . S
O537 Dy523 2.326 . S
O537 C539 1.267 . S
C538 O530 1.249 . S
C538 O531 1.267 . S
C539 O536 1.249 . S
C539 O537 1.267 . S
Dy540 O544 2.398 . S
Dy540 O545 2.491 . S
Dy540 O546 2.403 1_655 S
Dy540 O547 2.664 1_655 S
Dy540 O551 2.326 . S
Dy540 O555 2.310 . S
Dy540 O556 2.351 1_655 S
C541 O552 1.185 . S
C541 O553 1.355 . S
C542 O544 1.185 . S
C542 O545 1.355 . S
Dy543 O547 2.310 . S
Dy543 O550 2.351 1_455 S
Dy543 O552 2.398 . S
Dy543 O553 2.491 . S
Dy543 O554 2.403 . S
Dy543 O555 2.664 1_455 S
Dy543 O557 2.326 . S
O544 Dy540 2.398 . S
O544 C542 1.185 . S
O545 Dy540 2.491 . S
O545 C542 1.355 . S
O546 Dy540 2.403 1_455 S
O546 C548 1.254 . S
O547 Dy540 2.664 1_455 S
O547 Dy543 2.310 . S
O547 C548 1.268 . S
C548 O546 1.254 . S
C548 O547 1.268 . S
C549 O554 1.254 1_655 S
C549 O555 1.268 . S
O550 Dy543 2.351 1_655 S
O550 C558 1.249 . S
O551 Dy540 2.326 . S
O551 C558 1.267 . S
O552 C541 1.185 . S
O552 Dy543 2.398 . S
O553 C541 1.355 . S
O553 Dy543 2.491 . S
O554 Dy543 2.403 . S
O554 C549 1.254 1_455 S
O555 Dy540 2.310 . S
O555 Dy543 2.664 1_655 S
O555 C549 1.268 . S
O556 Dy540 2.351 1_455 S
O556 C559 1.249 . S
O557 Dy543 2.326 . S
O557 C559 1.267 . S
C558 O550 1.249 . S
C558 O551 1.267 . S
C559 O556 1.249 . S
C559 O557 1.267 . S
H560 C566 0.930 . S
H561 C569 0.930 . S
H562 C570 0.930 . S
H563 C571 0.930 . S
H564 C574 0.930 . S
H565 C575 0.930 . S
C566 H560 0.930 . S
C566 C567 1.355 1_545 S
C566 C568 1.415 . S
C567 C566 1.355 1_565 S
C567 C569 1.419 . S
C568 C566 1.415 . S
C568 C573 1.425 1_545 S
C568 C575 1.409 . S
C569 H561 0.930 . S
C569 C567 1.419 . S
C569 C570 1.362 . S
C570 H562 0.930 . S
C570 C569 1.362 . S
C570 C573 1.409 . S
C571 H563 0.930 . S
C571 C572 1.355 . S
C571 C573 1.415 . S
C572 C571 1.355 . S
C572 C574 1.419 1_565 S
C573 C568 1.425 1_565 S
C573 C570 1.409 . S
C573 C571 1.415 . S
C574 H564 0.930 . S
C574 C572 1.419 1_545 S
C574 C575 1.362 . S
C575 H565 0.930 . S
C575 C568 1.409 . S
C575 C574 1.362 . S
H576 C582 0.930 . S
H577 C585 0.930 . S
H578 C586 0.930 . S
H579 C587 0.930 . S
H580 C590 0.930 . S
H581 C591 0.930 . S
C582 H576 0.930 . S
C582 C583 1.355 . S
C582 C584 1.415 . S
C583 C582 1.355 . S
C583 C585 1.419 . S
C584 C582 1.415 . S
C584 C589 1.425 . S
C584 C591 1.409 . S
C585 H577 0.930 . S
C585 C583 1.419 . S
C585 C586 1.362 . S
C586 H578 0.930 . S
C586 C585 1.362 . S
C586 C589 1.409 . S
C587 H579 0.930 . S
C587 C588 1.355 . S
C587 C589 1.415 . S
C588 C587 1.355 . S
C588 C590 1.419 . S
C589 C584 1.425 . S
C589 C586 1.409 . S
C589 C587 1.415 . S
C590 H580 0.930 . S
C590 C588 1.419 . S
C590 C591 1.362 . S
C591 H581 0.930 . S
C591 C584 1.409 . S
C591 C590 1.362 . S
H592 C598 0.930 . S
H593 C601 0.930 . S
H594 C602 0.930 . S
H595 C603 0.930 . S
H596 C606 0.930 . S
H597 C607 0.930 . S
C598 H592 0.930 . S
C598 C599 1.355 . S
C598 C600 1.415 . S
C599 C598 1.355 . S
C599 C601 1.419 . S
C600 C598 1.415 . S
C600 C605 1.425 . S
C600 C607 1.409 . S
C601 H593 0.930 . S
C601 C599 1.419 . S
C601 C602 1.362 . S
C602 H594 0.930 . S
C602 C601 1.362 . S
C602 C605 1.409 . S
C603 H595 0.930 . S
C603 C604 1.355 . S
C603 C605 1.415 . S
C604 C603 1.355 . S
C604 C606 1.419 . S
C605 C600 1.425 . S
C605 C602 1.409 . S
C605 C603 1.415 . S
C606 H596 0.930 . S
C606 C604 1.419 . S
C606 C607 1.362 . S
C607 H597 0.930 . S
C607 C600 1.409 . S
C607 C606 1.362 . S
H608 C614 0.930 . S
H609 C617 0.930 . S
H610 C618 0.930 . S
H611 C619 0.930 . S
H612 C622 0.930 . S
H613 C623 0.930 . S
C614 H608 0.930 . S
C614 C615 1.355 . S
C614 C616 1.415 . S
C615 C614 1.355 . S
C615 C617 1.419 . S
C616 C614 1.415 . S
C616 C621 1.425 . S
C616 C623 1.409 . S
C617 H609 0.930 . S
C617 C615 1.419 . S
C617 C618 1.362 . S
C618 H610 0.930 . S
C618 C617 1.362 . S
C618 C621 1.409 . S
C619 H611 0.930 . S
C619 C620 1.355 . S
C619 C621 1.415 . S
C620 C619 1.355 . S
C620 C622 1.419 . S
C621 C616 1.425 . S
C621 C618 1.409 . S
C621 C619 1.415 . S
C622 H612 0.930 . S
C622 C620 1.419 . S
C622 C623 1.362 . S
C623 H613 0.930 . S
C623 C616 1.409 . S
C623 C622 1.362 . S
H624 C630 0.930 . S
H625 C633 0.930 . S
H626 C634 0.930 . S
H627 C635 0.930 . S
H628 C638 0.930 . S
H629 C639 0.930 . S
C630 H624 0.930 . S
C630 C631 1.355 1_565 S
C630 C632 1.415 . S
C631 C630 1.355 1_545 S
C631 C633 1.419 . S
C632 C630 1.415 . S
C632 C637 1.425 1_565 S
C632 C639 1.409 . S
C633 H625 0.930 . S
C633 C631 1.419 . S
C633 C634 1.362 . S
C634 H626 0.930 . S
C634 C633 1.362 . S
C634 C637 1.409 . S
C635 H627 0.930 . S
C635 C636 1.355 . S
C635 C637 1.415 . S
C636 C635 1.355 . S
C636 C638 1.419 1_545 S
C637 C632 1.425 1_545 S
C637 C634 1.409 . S
C637 C635 1.415 . S
C638 H628 0.930 . S
C638 C636 1.419 1_565 S
C638 C639 1.362 . S
C639 H629 0.930 . S
C639 C632 1.409 . S
C639 C638 1.362 . S
H640 C646 0.930 . S
H641 C649 0.930 . S
H642 C650 0.930 . S
H643 C651 0.930 . S
H644 C654 0.930 . S
H645 C655 0.930 . S
C646 H640 0.930 . S
C646 C647 1.355 . S
C646 C648 1.415 . S
C647 C646 1.355 . S
C647 C649 1.419 . S
C648 C646 1.415 . S
C648 C653 1.425 . S
C648 C655 1.409 . S
C649 H641 0.930 . S
C649 C647 1.419 . S
C649 C650 1.362 . S
C650 H642 0.930 . S
C650 C649 1.362 . S
C650 C653 1.409 . S
C651 H643 0.930 . S
C651 C652 1.355 . S
C651 C653 1.415 . S
C652 C651 1.355 . S
C652 C654 1.419 . S
C653 C648 1.425 . S
C653 C650 1.409 . S
C653 C651 1.415 . S
C654 H644 0.930 . S
C654 C652 1.419 . S
C654 C655 1.362 . S
C655 H645 0.930 . S
C655 C648 1.409 . S
C655 C654 1.362 . S
H656 C662 0.930 . S
H657 C665 0.930 . S
H658 C666 0.930 . S
H659 C667 0.930 . S
H660 C670 0.930 . S
H661 C671 0.930 . S
C662 H656 0.930 . S
C662 C663 1.355 . S
C662 C664 1.415 . S
C663 C662 1.355 . S
C663 C665 1.419 . S
C664 C662 1.415 . S
C664 C669 1.425 . S
C664 C671 1.409 . S
C665 H657 0.930 . S
C665 C663 1.419 . S
C665 C666 1.362 . S
C666 H658 0.930 . S
C666 C665 1.362 . S
C666 C669 1.409 . S
C667 H659 0.930 . S
C667 C668 1.355 . S
C667 C669 1.415 . S
C668 C667 1.355 . S
C668 C670 1.419 . S
C669 C664 1.425 . S
C669 C666 1.409 . S
C669 C667 1.415 . S
C670 H660 0.930 . S
C670 C668 1.419 . S
C670 C671 1.362 . S
C671 H661 0.930 . S
C671 C664 1.409 . S
C671 C670 1.362 . S
H672 C678 0.930 . S
H673 C681 0.930 . S
H674 C682 0.930 . S
H675 C683 0.930 . S
H676 C686 0.930 . S
H677 C687 0.930 . S
C678 H672 0.930 . S
C678 C679 1.355 . S
C678 C680 1.415 . S
C679 C678 1.355 . S
C679 C681 1.419 . S
C680 C678 1.415 . S
C680 C685 1.425 . S
C680 C687 1.409 . S
C681 H673 0.930 . S
C681 C679 1.419 . S
C681 C682 1.362 . S
C682 H674 0.930 . S
C682 C681 1.362 . S
C682 C685 1.409 . S
C683 H675 0.930 . S
C683 C684 1.355 . S
C683 C685 1.415 . S
C684 C683 1.355 . S
C684 C686 1.419 . S
C685 C680 1.425 . S
C685 C682 1.409 . S
C685 C683 1.415 . S
C686 H676 0.930 . S
C686 C684 1.419 . S
C686 C687 1.362 . S
C687 H677 0.930 . S
C687 C680 1.409 . S
C687 C686 1.362 . S
H688 C694 0.930 . S
H689 C697 0.930 . S
H690 C698 0.930 . S
H691 C699 0.930 . S
H692 C702 0.930 . S
H693 C703 0.930 . S
C694 H688 0.930 . S
C694 C695 1.355 . S
C694 C696 1.415 . S
C695 C694 1.355 . S
C695 C697 1.419 . S
C696 C694 1.415 . S
C696 C701 1.425 . S
C696 C703 1.409 . S
C697 H689 0.930 . S
C697 C695 1.419 . S
C697 C698 1.362 . S
C698 H690 0.930 . S
C698 C697 1.362 . S
C698 C701 1.409 . S
C699 H691 0.930 . S
C699 C700 1.355 . S
C699 C701 1.415 . S
C700 C699 1.355 . S
C700 C702 1.419 . S
C701 C696 1.425 . S
C701 C698 1.409 . S
C701 C699 1.415 . S
C702 H692 0.930 . S
C702 C700 1.419 . S
C702 C703 1.362 . S
C703 H693 0.930 . S
C703 C696 1.409 . S
C703 C702 1.362 . S
H704 C710 0.930 . S
H705 C713 0.930 . S
H706 C714 0.930 . S
H707 C715 0.930 . S
H708 C718 0.930 . S
H709 C719 0.930 . S
C710 H704 0.930 . S
C710 C711 1.348 1_545 S
C710 C712 1.415 . S
C711 C710 1.348 1_565 S
C711 C713 1.437 . S
C712 C710 1.415 . S
C712 C717 1.425 1_545 S
C712 C719 1.409 . S
C713 H705 0.930 . S
C713 C711 1.437 . S
C713 C714 1.362 . S
C714 H706 0.930 . S
C714 C713 1.362 . S
C714 C717 1.409 . S
C715 H707 0.930 . S
C715 C716 1.355 . S
C715 C717 1.415 . S
C716 C715 1.355 . S
C716 C718 1.419 1_565 S
C717 C712 1.425 1_565 S
C717 C714 1.409 . S
C717 C715 1.415 . S
C718 H708 0.930 . S
C718 C716 1.419 1_545 S
C718 C719 1.362 . S
C719 H709 0.930 . S
C719 C712 1.409 . S
C719 C718 1.362 . S
H720 C726 0.930 . S
H721 C729 0.930 . S
H722 C730 0.930 . S
H723 C731 0.930 . S
H724 C734 0.930 . S
H725 C735 0.930 . S
C726 H720 0.930 . S
C726 C727 1.355 . S
C726 C728 1.415 . S
C727 C726 1.355 . S
C727 C729 1.419 . S
C728 C726 1.415 . S
C728 C733 1.425 . S
C728 C735 1.409 . S
C729 H721 0.930 . S
C729 C727 1.419 . S
C729 C730 1.362 . S
C730 H722 0.930 . S
C730 C729 1.362 . S
C730 C733 1.409 . S
C731 H723 0.930 . S
C731 C732 1.355 . S
C731 C733 1.415 . S
C732 C731 1.355 . S
C732 C734 1.419 . S
C733 C728 1.425 . S
C733 C730 1.409 . S
C733 C731 1.415 . S
C734 H724 0.930 . S
C734 C732 1.419 . S
C734 C735 1.362 . S
C735 H725 0.930 . S
C735 C728 1.409 . S
C735 C734 1.362 . S
H736 C742 0.930 . S
H737 C745 0.930 . S
H738 C746 0.930 . S
H739 C747 0.930 . S
H740 C750 0.930 . S
H741 C751 0.930 . S
C742 H736 0.930 . S
C742 C743 1.355 . S
C742 C744 1.415 . S
C743 C742 1.355 . S
C743 C745 1.419 . S
C744 C742 1.415 . S
C744 C749 1.425 . S
C744 C751 1.409 . S
C745 H737 0.930 . S
C745 C743 1.419 . S
C745 C746 1.362 . S
C746 H738 0.930 . S
C746 C745 1.362 . S
C746 C749 1.409 . S
C747 H739 0.930 . S
C747 C748 1.355 . S
C747 C749 1.415 . S
C748 C747 1.355 . S
C748 C750 1.419 . S
C749 C744 1.425 . S
C749 C746 1.409 . S
C749 C747 1.415 . S
C750 H740 0.930 . S
C750 C748 1.419 . S
C750 C751 1.362 . S
C751 H741 0.930 . S
C751 C744 1.409 . S
C751 C750 1.362 . S
H752 C758 0.930 . S
H753 C761 0.930 . S
H754 C762 0.930 . S
H755 C763 0.930 . S
H756 C766 0.930 . S
H757 C767 0.930 . S
C758 H752 0.930 . S
C758 C759 1.355 . S
C758 C760 1.415 . S
C759 C758 1.355 . S
C759 C761 1.419 . S
C760 C758 1.415 . S
C760 C765 1.425 . S
C760 C767 1.409 . S
C761 H753 0.930 . S
C761 C759 1.419 . S
C761 C762 1.362 . S
C762 H754 0.930 . S
C762 C761 1.362 . S
C762 C765 1.409 . S
C763 H755 0.930 . S
C763 C764 1.352 . S
C763 C765 1.415 . S
C764 C763 1.352 . S
C764 C766 1.420 1_655 S
C765 C760 1.425 . S
C765 C762 1.409 . S
C765 C763 1.415 . S
C766 H756 0.930 . S
C766 C764 1.420 1_455 S
C766 C767 1.362 1_455 S
C767 H757 0.930 . S
C767 C760 1.409 . S
C767 C766 1.362 1_655 S
H768 C774 0.930 . S
H769 C777 0.930 . S
H770 C778 0.930 . S
H771 C779 0.930 . S
H772 C782 0.930 . S
H773 C783 0.931 . S
C774 H768 0.930 . S
C774 C775 1.355 . S
C774 C776 1.415 1_565 S
C775 C774 1.355 . S
C775 C777 1.419 1_565 S
C776 C774 1.415 1_545 S
C776 C781 1.425 . S
C776 C783 1.409 1_545 S
C777 H769 0.930 . S
C777 C775 1.419 1_545 S
C777 C778 1.362 . S
C778 H770 0.930 . S
C778 C777 1.362 . S
C778 C781 1.409 . S
C779 H771 0.930 . S
C779 C780 1.355 . S
C779 C781 1.415 . S
C780 C779 1.355 . S
C780 C782 1.419 . S
C781 C776 1.425 . S
C781 C778 1.409 . S
C781 C779 1.415 . S
C782 H772 0.930 . S
C782 C780 1.419 . S
C782 C783 1.361 1_545 S
C783 H773 0.931 . S
C783 C776 1.409 1_565 S
C783 C782 1.361 1_565 S
H784 C790 0.930 . S
H785 C793 0.930 . S
H786 C794 0.930 . S
H787 C795 0.930 . S
H788 C798 0.930 . S
H789 C799 0.930 . S
C790 H784 0.930 . S
C790 C791 1.355 . S
C790 C792 1.415 . S
C791 C790 1.355 . S
C791 C793 1.419 . S
C792 C790 1.415 . S
C792 C797 1.425 . S
C792 C799 1.409 . S
C793 H785 0.930 . S
C793 C791 1.419 . S
C793 C794 1.362 . S
C794 H786 0.930 . S
C794 C793 1.362 . S
C794 C797 1.409 . S
C795 H787 0.930 . S
C795 C796 1.355 . S
C795 C797 1.415 . S
C796 C795 1.355 . S
C796 C798 1.419 . S
C797 C792 1.425 . S
C797 C794 1.409 . S
C797 C795 1.415 . S
C798 H788 0.930 . S
C798 C796 1.419 . S
C798 C799 1.362 . S
C799 H789 0.930 . S
C799 C792 1.409 . S
C799 C798 1.362 . S
H800 C806 0.930 . S
H801 C809 0.930 . S
H802 C810 0.930 . S
H803 C811 0.930 . S
H804 C814 0.930 . S
H805 C815 0.930 . S
C806 H800 0.930 . S
C806 C807 1.355 . S
C806 C808 1.415 . S
C807 C806 1.355 . S
C807 C809 1.419 . S
C808 C806 1.415 . S
C808 C813 1.425 . S
C808 C815 1.409 . S
C809 H801 0.930 . S
C809 C807 1.419 . S
C809 C810 1.362 . S
C810 H802 0.930 . S
C810 C809 1.362 . S
C810 C813 1.409 . S
C811 H803 0.930 . S
C811 C812 1.355 . S
C811 C813 1.415 . S
C812 C811 1.355 . S
C812 C814 1.419 . S
C813 C808 1.425 . S
C813 C810 1.409 . S
C813 C811 1.415 . S
C814 H804 0.930 . S
C814 C812 1.419 . S
C814 C815 1.362 . S
C815 H805 0.930 . S
C815 C808 1.409 . S
C815 C814 1.362 . S
H816 C822 0.930 . S
H817 C825 0.930 . S
H818 C826 0.930 . S
H819 C827 0.930 . S
H820 C830 0.930 . S
H821 C831 0.930 . S
C822 H816 0.930 . S
C822 C823 1.355 . S
C822 C824 1.415 . S
C823 C822 1.355 . S
C823 C825 1.419 . S
C824 C822 1.415 . S
C824 C829 1.425 . S
C824 C831 1.409 . S
C825 H817 0.930 . S
C825 C823 1.419 . S
C825 C826 1.362 . S
C826 H818 0.930 . S
C826 C825 1.362 . S
C826 C829 1.409 . S
C827 H819 0.930 . S
C827 C828 1.355 . S
C827 C829 1.415 . S
C828 C827 1.355 . S
C828 C830 1.419 . S
C829 C824 1.425 . S
C829 C826 1.409 . S
C829 C827 1.415 . S
C830 H820 0.930 . S
C830 C828 1.419 . S
C830 C831 1.362 . S
C831 H821 0.930 . S
C831 C824 1.409 . S
C831 C830 1.362 . S
H832 C838 0.930 . S
H833 C841 0.930 . S
H834 C842 0.930 . S
H835 C843 0.930 . S
H836 C846 0.930 . S
H837 C847 0.930 . S
C838 H832 0.930 . S
C838 C839 1.340 1_545 S
C838 C840 1.415 . S
C839 C838 1.340 1_565 S
C839 C841 1.439 . S
C840 C838 1.415 . S
C840 C845 1.425 1_545 S
C840 C847 1.409 . S
C841 H833 0.930 . S
C841 C839 1.439 . S
C841 C842 1.362 . S
C842 H834 0.930 . S
C842 C841 1.362 . S
C842 C845 1.409 . S
C843 H835 0.930 . S
C843 C844 1.355 1_565 S
C843 C845 1.415 . S
C844 C843 1.355 1_545 S
C844 C846 1.419 . S
C845 C840 1.425 1_565 S
C845 C842 1.409 . S
C845 C843 1.415 . S
C846 H836 0.930 . S
C846 C844 1.419 . S
C846 C847 1.362 . S
C847 H837 0.930 . S
C847 C840 1.409 . S
C847 C846 1.362 . S
H848 C854 0.930 . S
H849 C857 0.930 . S
H850 C858 0.930 . S
H851 C859 0.930 . S
H852 C862 0.930 . S
H853 C863 0.930 . S
C854 H848 0.930 . S
C854 C855 1.355 . S
C854 C856 1.415 . S
C855 C854 1.355 . S
C855 C857 1.419 . S
C856 C854 1.415 . S
C856 C861 1.425 . S
C856 C863 1.409 . S
C857 H849 0.930 . S
C857 C855 1.419 . S
C857 C858 1.362 . S
C858 H850 0.930 . S
C858 C857 1.362 . S
C858 C861 1.409 . S
C859 H851 0.930 . S
C859 C860 1.355 . S
C859 C861 1.415 . S
C860 C859 1.355 . S
C860 C862 1.419 . S
C861 C856 1.425 . S
C861 C858 1.409 . S
C861 C859 1.415 . S
C862 H852 0.930 . S
C862 C860 1.419 . S
C862 C863 1.362 . S
C863 H853 0.930 . S
C863 C856 1.409 . S
C863 C862 1.362 . S
H864 C870 0.930 . S
H865 C873 0.930 . S
H866 C874 0.930 . S
H867 C875 0.930 . S
H868 C878 0.930 . S
H869 C879 0.930 . S
C870 H864 0.930 . S
C870 C871 1.355 . S
C870 C872 1.415 . S
C871 C870 1.355 . S
C871 C873 1.419 . S
C872 C870 1.415 . S
C872 C877 1.425 . S
C872 C879 1.409 . S
C873 H865 0.930 . S
C873 C871 1.419 . S
C873 C874 1.362 . S
C874 H866 0.930 . S
C874 C873 1.362 . S
C874 C877 1.409 . S
C875 H867 0.930 . S
C875 C876 1.355 . S
C875 C877 1.415 . S
C876 C875 1.355 . S
C876 C878 1.419 . S
C877 C872 1.425 . S
C877 C874 1.409 . S
C877 C875 1.415 . S
C878 H868 0.930 . S
C878 C876 1.419 . S
C878 C879 1.362 . S
C879 H869 0.930 . S
C879 C872 1.409 . S
C879 C878 1.362 . S
H880 C886 0.930 . S
H881 C889 0.930 . S
H882 C890 0.930 . S
H883 C891 0.930 . S
H884 C894 0.930 . S
H885 C895 0.930 . S
C886 H880 0.930 . S
C886 C887 1.355 . S
C886 C888 1.415 . S
C887 C886 1.355 . S
C887 C889 1.419 . S
C888 C886 1.415 . S
C888 C893 1.425 . S
C888 C895 1.409 . S
C889 H881 0.930 . S
C889 C887 1.419 . S
C889 C890 1.362 . S
C890 H882 0.930 . S
C890 C889 1.362 . S
C890 C893 1.409 . S
C891 H883 0.930 . S
C891 C892 1.355 . S
C891 C893 1.415 . S
C892 C891 1.355 . S
C892 C894 1.419 . S
C893 C888 1.425 . S
C893 C890 1.409 . S
C893 C891 1.415 . S
C894 H884 0.930 . S
C894 C892 1.419 . S
C894 C895 1.362 . S
C895 H885 0.930 . S
C895 C888 1.409 . S
C895 C894 1.362 . S
H896 C902 0.930 . S
H897 C905 0.930 . S
H898 C906 0.930 . S
H899 C907 0.930 . S
H900 C910 0.930 . S
H901 C911 0.930 . S
C902 H896 0.930 . S
C902 C903 1.347 1_565 S
C902 C904 1.415 . S
C903 C902 1.347 1_545 S
C903 C905 1.432 . S
C904 C902 1.415 . S
C904 C909 1.425 1_565 S
C904 C911 1.409 . S
C905 H897 0.930 . S
C905 C903 1.432 . S
C905 C906 1.362 . S
C906 H898 0.930 . S
C906 C905 1.362 . S
C906 C909 1.409 . S
C907 H899 0.930 . S
C907 C908 1.355 1_545 S
C907 C909 1.415 . S
C908 C907 1.355 1_565 S
C908 C910 1.419 . S
C909 C904 1.425 1_545 S
C909 C906 1.409 . S
C909 C907 1.415 . S
C910 H900 0.930 . S
C910 C908 1.419 . S
C910 C911 1.362 . S
C911 H901 0.930 . S
C911 C904 1.409 . S
C911 C910 1.362 . S
H912 C918 0.930 . S
H913 C921 0.930 . S
H914 C922 0.930 . S
H915 C923 0.930 . S
H916 C926 0.930 . S
H917 C927 0.930 . S
C918 H912 0.930 . S
C918 C919 1.355 . S
C918 C920 1.415 . S
C919 C918 1.355 . S
C919 C921 1.419 . S
C920 C918 1.415 . S
C920 C925 1.425 . S
C920 C927 1.409 . S
C921 H913 0.930 . S
C921 C919 1.419 . S
C921 C922 1.362 . S
C922 H914 0.930 . S
C922 C921 1.362 . S
C922 C925 1.409 . S
C923 H915 0.930 . S
C923 C924 1.355 . S
C923 C925 1.415 . S
C924 C923 1.355 . S
C924 C926 1.419 . S
C925 C920 1.425 . S
C925 C922 1.409 . S
C925 C923 1.415 . S
C926 H916 0.930 . S
C926 C924 1.419 . S
C926 C927 1.362 . S
C927 H917 0.930 . S
C927 C920 1.409 . S
C927 C926 1.362 . S
H928 C934 0.930 . S
H929 C937 0.930 . S
H930 C938 0.930 . S
H931 C939 0.930 . S
H932 C942 0.930 . S
H933 C943 0.930 . S
C934 H928 0.930 . S
C934 C935 1.355 . S
C934 C936 1.415 . S
C935 C934 1.355 . S
C935 C937 1.419 . S
C936 C934 1.415 . S
C936 C941 1.425 . S
C936 C943 1.409 . S
C937 H929 0.930 . S
C937 C935 1.419 . S
C937 C938 1.362 . S
C938 H930 0.930 . S
C938 C937 1.362 . S
C938 C941 1.409 . S
C939 H931 0.930 . S
C939 C940 1.355 . S
C939 C941 1.415 . S
C940 C939 1.355 . S
C940 C942 1.419 . S
C941 C936 1.425 . S
C941 C938 1.409 . S
C941 C939 1.415 . S
C942 H932 0.930 . S
C942 C940 1.419 . S
C942 C943 1.362 . S
C943 H933 0.930 . S
C943 C936 1.409 . S
C943 C942 1.362 . S
C567 C391 1.834 1_565 S
C572 C488 1.878 . S
C588 C518 2.405 . S
C583 C451 2.398 . S
C604 C528 1.960 . S
C599 C241 1.791 . S
C620 C548 1.875 . S
C615 C331 1.525 . S
C636 C489 1.890 . S
C631 C121 1.696 1_545 S
C647 C211 2.348 1_556 S
C652 C519 2.423 . S
C663 C31 1.969 . S
C668 C529 1.957 . S
C679 C91 1.583 . S
C684 C549 1.871 . S
C700 C481 0.950 . S
C695 C301 0.762 . S
C716 C502 0.549 . S
C711 C380 0.466 1_565 S
C732 C521 1.241 . S
C727 C440 1.236 . S
C743 C260 0.791 . S
C748 C541 0.649 . S
C759 C61 0.994 . S
C764 C482 0.994 1_655 S
C780 C501 0.571 . S
C775 C140 0.753 . S
C796 C522 1.245 . S
C791 C200 1.145 . S
C807 C20 0.675 . S
C812 C542 0.675 . S
C823 C320 2.362 . S
C828 C499 2.559 . S
C839 C361 1.755 1_565 S
C844 C509 2.185 . S
C860 C539 2.776 . S
C855 C421 2.325 . S
C876 C559 2.647 . S
C871 C271 2.535 . S
C887 C80 2.472 . S
C892 C498 2.568 . S
C908 C508 2.185 . S
C903 C151 2.056 1_545 S
C924 C538 2.777 . S
C919 C181 2.247 . S
C935 C1 2.204 . S
C940 C558 2.625 . S
