# Generated by pormake.
# Topology cml, (3,6)-cn, num edge types: 1
# Building blocks:
#     Node 0, Type 0, BuildingBlock: INOVEN_clean_linker_0, # of connection points: 3
#     Node 1, Type 0, BuildingBlock: INOVEN_clean_linker_0, # of connection points: 3
#     Node 2, Type 0, BuildingBlock: INOVEN_clean_linker_0, # of connection points: 3
#     Node 3, Type 0, BuildingBlock: INOVEN_clean_linker_0, # of connection points: 3
#     Node 4, Type 0, BuildingBlock: INOVEN_clean_linker_0, # of connection points: 3
#     Node 5, Type 0, BuildingBlock: INOVEN_clean_linker_0, # of connection points: 3
#     Node 6, Type 0, BuildingBlock: INOVEN_clean_linker_0, # of connection points: 3
#     Node 7, Type 0, BuildingBlock: INOVEN_clean_linker_0, # of connection points: 3
#     Node 8, Type 1, BuildingBlock: OJICUG_clean_sbu_0, # of connection points: 6
#     Node 9, Type 1, BuildingBlock: OJICUG_clean_sbu_0, # of connection points: 6
#     Node 10, Type 1, BuildingBlock: OJICUG_clean_sbu_0, # of connection points: 6
#     Node 11, Type 1, BuildingBlock: OJICUG_clean_sbu_0, # of connection points: 6
#     Edge 12, Type (0, 1), BuildingBlock: OJICUG_clean_linker_0, # of connection points: 2
#     Edge 13, Type (0, 1), BuildingBlock: OJICUG_clean_linker_0, # of connection points: 2
#     Edge 14, Type (0, 1), BuildingBlock: OJICUG_clean_linker_0, # of connection points: 2
#     Edge 15, Type (0, 1), BuildingBlock: OJICUG_clean_linker_0, # of connection points: 2
#     Edge 16, Type (0, 1), BuildingBlock: OJICUG_clean_linker_0, # of connection points: 2
#     Edge 17, Type (0, 1), BuildingBlock: OJICUG_clean_linker_0, # of connection points: 2
#     Edge 18, Type (0, 1), BuildingBlock: OJICUG_clean_linker_0, # of connection points: 2
#     Edge 19, Type (0, 1), BuildingBlock: OJICUG_clean_linker_0, # of connection points: 2
#     Edge 20, Type (0, 1), BuildingBlock: OJICUG_clean_linker_0, # of connection points: 2
#     Edge 21, Type (0, 1), BuildingBlock: OJICUG_clean_linker_0, # of connection points: 2
#     Edge 22, Type (0, 1), BuildingBlock: OJICUG_clean_linker_0, # of connection points: 2
#     Edge 23, Type (0, 1), BuildingBlock: OJICUG_clean_linker_0, # of connection points: 2
#     Edge 24, Type (0, 1), BuildingBlock: OJICUG_clean_linker_0, # of connection points: 2
#     Edge 25, Type (0, 1), BuildingBlock: OJICUG_clean_linker_0, # of connection points: 2
#     Edge 26, Type (0, 1), BuildingBlock: OJICUG_clean_linker_0, # of connection points: 2
#     Edge 27, Type (0, 1), BuildingBlock: OJICUG_clean_linker_0, # of connection points: 2
#     Edge 28, Type (0, 1), BuildingBlock: OJICUG_clean_linker_0, # of connection points: 2
#     Edge 29, Type (0, 1), BuildingBlock: OJICUG_clean_linker_0, # of connection points: 2
#     Edge 30, Type (0, 1), BuildingBlock: OJICUG_clean_linker_0, # of connection points: 2
#     Edge 31, Type (0, 1), BuildingBlock: OJICUG_clean_linker_0, # of connection points: 2
#     Edge 32, Type (0, 1), BuildingBlock: OJICUG_clean_linker_0, # of connection points: 2
#     Edge 33, Type (0, 1), BuildingBlock: OJICUG_clean_linker_0, # of connection points: 2
#     Edge 34, Type (0, 1), BuildingBlock: OJICUG_clean_linker_0, # of connection points: 2
#     Edge 35, Type (0, 1), BuildingBlock: OJICUG_clean_linker_0, # of connection points: 2
# Relax obj value: 0.008
# Max RMSD: 0.047
# Mean RMSD: 0.042
data_MOF--net-cml--node1-OJICUG_clean_sbu_0--node2-INOVEN_clean_linker_0--edge1-OJICUG_clean_linker_0
_symmetry_space_group_name_H-M    P1
_symmetry_Int_Tables_number       1
_symmetry_cell_setting            triclinic
loop_
_symmetry_equiv_pos_as_xyz
'x, y, z'
_cell_length_a     29.051265
_cell_length_b     29.848768
_cell_length_c     26.981527
_cell_angle_alpha  89.223607
_cell_angle_beta   90.934389
_cell_angle_gamma 90.822379
loop_
_atom_site_label
_atom_site_type_symbol
_atom_site_fract_x
_atom_site_fract_y
_atom_site_fract_z
_atom_type_partial_charge
H0 H 0.29017 0.31461 0.04488 0.0
H1 H 0.37994 0.42941 0.03131 0.0
H2 H 0.28333 0.39848 0.91387 0.0
N3 N 0.24687 0.32468 0.95974 0.0
N4 N 0.22775 0.33004 0.91842 0.0
C5 C 0.30202 0.34378 0.02411 0.0
C6 C 0.3367 0.37149 0.04391 0.0
C7 C 0.28229 0.35353 -0.02238 0.0
C8 C 0.29802 0.39106 0.95016 0.0
C9 C 0.33296 0.41899 0.96974 0.0
C10 C 0.35175 0.40904 0.01672 0.0
H11 H 0.74857 0.65236 0.54876 0.0
H12 H 0.65655 0.53953 0.53203 0.0
H13 H 0.75417 0.57084 0.41838 0.0
N14 N 0.79224 0.64294 0.46512 0.0
N15 N 0.81124 0.63765 0.42454 0.0
C16 C 0.7362 0.62385 0.52764 0.0
C17 C 0.70083 0.59638 0.54622 0.0
C18 C 0.75599 0.61461 0.48191 0.0
C19 C 0.73953 0.57794 0.45404 0.0
C20 C 0.70403 0.5503 0.47245 0.0
C21 C 0.68518 0.55972 0.51854 0.0
H22 H 0.75028 0.32376 0.04379 0.0
H23 H 0.66018 0.43582 0.0289 0.0
H24 H 0.74916 0.40294 0.90903 0.0
N25 N 0.78793 0.33062 0.95711 0.0
N26 N 0.80452 0.33316 0.9148 0.0
C27 C 0.73733 0.35199 0.0223 0.0
C28 C 0.70397 0.37951 0.04229 0.0
C29 C 0.75412 0.36023 0.97464 0.0
C30 C 0.73684 0.39663 0.94617 0.0
C31 C 0.70342 0.42486 0.9662 0.0
C32 C 0.68752 0.4158 0.01417 0.0
H33 H 0.28508 0.54951 0.40649 0.0
H34 H 0.37602 0.52507 0.53091 0.0
H35 H 0.284 0.63627 0.5324 0.0
N36 N 0.24767 0.62124 0.44063 0.0
N37 N 0.23682 0.65893 0.45515 0.0
C38 C 0.29756 0.55778 0.44339 0.0
C39 C 0.33225 0.53249 0.46615 0.0
C40 C 0.28033 0.59515 0.46677 0.0
C41 C 0.29699 0.60701 0.51417 0.0
C42 C 0.33068 0.58101 0.538 0.0
C43 C 0.34804 0.5437 0.51382 0.0
H44 H 0.7903 0.81444 0.0447 0.0
H45 H 0.88005 0.92926 0.03119 0.0
H46 H 0.7835 0.89832 0.91368 0.0
N47 N 0.74703 0.82453 0.95955 0.0
N48 N 0.72789 0.8299 0.91825 0.0
C49 C 0.80216 0.84361 0.02393 0.0
C50 C 0.83682 0.87133 0.04376 0.0
C51 C 0.78245 0.85337 -0.02257 0.0
C52 C 0.79819 0.8909 0.94999 0.0
C53 C 0.83311 0.91884 0.96958 0.0
C54 C 0.85188 0.90889 0.01658 0.0
H55 H 0.2485 0.15248 0.5486 0.0
H56 H 0.15646 0.03966 0.53192 0.0
H57 H 0.25403 0.07097 0.41821 0.0
N58 N 0.29213 0.14305 0.46495 0.0
N59 N 0.31114 0.13776 0.42437 0.0
C60 C 0.23612 0.12398 0.52748 0.0
C61 C 0.20075 0.09651 0.54608 0.0
C62 C 0.25587 0.11474 0.48174 0.0
C63 C 0.2394 0.07807 0.45388 0.0
C64 C 0.20391 0.05044 0.4723 0.0
C65 C 0.18508 0.05985 0.51841 0.0
H66 H 0.25026 0.82377 0.04381 0.0
H67 H 0.16017 0.93583 0.02892 0.0
H68 H 0.24922 0.90299 0.90909 0.0
N69 N 0.28795 0.83065 0.95716 0.0
N70 N 0.30456 0.8332 0.91485 0.0
C71 C 0.23732 0.852 0.02233 0.0
C72 C 0.20395 0.87952 0.04231 0.0
C73 C 0.25414 0.86025 0.97468 0.0
C74 C 0.23688 0.89667 0.94622 0.0
C75 C 0.20344 0.92489 0.96624 0.0
C76 C 0.18752 0.91582 0.0142 0.0
H77 H 0.785 0.04945 0.40654 0.0
H78 H 0.87602 0.02505 0.5309 0.0
H79 H 0.78403 0.13627 0.53241 0.0
N80 N 0.74764 0.12121 0.44067 0.0
N81 N 0.73681 0.15891 0.45517 0.0
C82 C 0.79752 0.05773 0.44343 0.0
C83 C 0.83221 0.03245 0.46617 0.0
C84 C 0.78031 0.09512 0.4668 0.0
C85 C 0.797 0.107 0.51418 0.0
C86 C 0.8307 0.081 0.538 0.0
C87 C 0.84804 0.04368 0.51382 0.0
Sc88 Sc 0.02618 0.78286 0.27355 0.0
Sc89 Sc 0.02305 0.90096 0.28153 0.0
Sc90 Sc 0.02371 0.83553 0.38987 0.0
O91 O 0.02433 0.83967 0.31485 0.0
C92 C 0.95808 0.75309 0.35992 0.0
C93 C 0.95506 0.84372 0.21251 0.0
C94 C 0.95282 0.91309 0.36983 0.0
C95 C 0.09287 0.84879 0.21337 0.0
C96 C 0.09607 0.76184 0.36304 0.0
C97 C 0.09082 0.92004 0.3723 0.0
O98 O 0.97341 0.74933 0.31632 0.0
O99 O 0.96986 0.88012 0.23109 0.0
O100 O 0.96818 0.88073 0.39571 0.0
O101 O 0.07886 0.80964 0.22545 0.0
O102 O 0.0789 0.79015 0.39164 0.0
O103 O 0.07637 0.92839 0.32856 0.0
O104 O 0.08037 0.75421 0.31956 0.0
O105 O 0.07565 0.88411 0.23053 0.0
O106 O 0.07422 0.88848 0.39891 0.0
O107 O 0.97233 0.80574 0.2232 0.0
O108 O 0.97349 0.78217 0.39009 0.0
O109 O 0.96995 0.92507 0.32862 0.0
Sc110 Sc 0.01174 0.1849 0.76659 0.0
Sc111 Sc 0.01305 0.06706 0.7798 0.0
Sc112 Sc 0.01364 0.13368 0.88573 0.0
O113 O 0.01274 0.12867 0.81071 0.0
C114 C 0.08173 0.21331 0.85355 0.0
C115 C 0.08099 0.12264 0.70941 0.0
C116 C 0.08329 0.05237 0.87003 0.0
C117 C 0.94278 0.11916 0.70857 0.0
C118 C 0.94402 0.212 0.85314 0.0
C119 C 0.94491 0.05056 0.86982 0.0
O120 O 0.06506 0.21787 0.8099 0.0
O121 O 0.06524 0.08652 0.72838 0.0
O122 O 0.06742 0.08405 0.8957 0.0
O123 O 0.9583 0.15828 0.71791 0.0
O124 O 0.96051 0.18404 0.88459 0.0
O125 O 0.96093 0.04049 0.82796 0.0
O126 O 0.95867 0.21565 0.80907 0.0
O127 O 0.95925 0.08399 0.72844 0.0
O128 O 0.96025 0.08346 0.89494 0.0
O129 O 0.06506 0.16094 0.71912 0.0
O130 O 0.06681 0.18422 0.88438 0.0
O131 O 0.06706 0.04269 0.82753 0.0
Sc132 Sc 0.52621 0.28289 0.27353 0.0
Sc133 Sc 0.52314 0.40099 0.28156 0.0
Sc134 Sc 0.52373 0.33553 0.38988 0.0
O135 O 0.52438 0.3397 0.31486 0.0
C136 C 0.45807 0.25313 0.35987 0.0
C137 C 0.45512 0.34381 0.21252 0.0
C138 C 0.4529 0.41314 0.36985 0.0
C139 C 0.59293 0.34881 0.21338 0.0
C140 C 0.59607 0.26182 0.36303 0.0
C141 C 0.59091 0.42001 0.37235 0.0
O142 O 0.47342 0.24937 0.31627 0.0
O143 O 0.46994 0.3802 0.23111 0.0
O144 O 0.46822 0.38076 0.39571 0.0
O145 O 0.5789 0.30966 0.22545 0.0
O146 O 0.5789 0.29013 0.39165 0.0
O147 O 0.57647 0.42838 0.32861 0.0
O148 O 0.58038 0.25422 0.31955 0.0
O149 O 0.57573 0.38414 0.23056 0.0
O150 O 0.57427 0.38845 0.39895 0.0
O151 O 0.47237 0.30583 0.22319 0.0
O152 O 0.47348 0.2822 0.39005 0.0
O153 O 0.47005 0.42513 0.32865 0.0
Sc154 Sc 0.5117 0.68487 0.76659 0.0
Sc155 Sc 0.51296 0.56703 0.77984 0.0
Sc156 Sc 0.51363 0.63368 0.88575 0.0
O157 O 0.51269 0.62865 0.81073 0.0
C158 C 0.58175 0.71326 0.8535 0.0
C159 C 0.58091 0.62255 0.70942 0.0
C160 C 0.58322 0.55233 0.87004 0.0
C161 C 0.4427 0.61914 0.70861 0.0
C162 C 0.44403 0.71203 0.85316 0.0
C163 C 0.44484 0.5506 0.86988 0.0
O164 O 0.56505 0.71782 0.80987 0.0
O165 O 0.56514 0.58645 0.7284 0.0
O166 O 0.56739 0.58402 0.89571 0.0
O167 O 0.45824 0.65827 0.71794 0.0
O168 O 0.46053 0.68406 0.88462 0.0
O169 O 0.46083 0.54051 0.82802 0.0
O170 O 0.45866 0.71565 0.80908 0.0
O171 O 0.45916 0.58397 0.72849 0.0
O172 O 0.46021 0.58349 0.895 0.0
O173 O 0.56499 0.66087 0.71911 0.0
O174 O 0.56683 0.68419 0.88434 0.0
O175 O 0.56696 0.54263 0.82756 0.0
C176 C 0.17161 0.30701 0.8555 0.0
C177 C 0.19206 0.30048 0.90232 0.0
H178 H 0.12059 0.28458 0.80288 0.0
C179 C 0.17652 0.26493 0.93272 0.0
H180 H 0.18324 0.33425 0.83169 0.0
C181 C 0.14094 0.23668 0.9166 0.0
C182 C 0.12005 0.2432 0.86973 0.0
H183 H 0.19165 0.25897 0.96911 0.0
H184 H 0.12983 0.20975 0.94112 0.0
C185 C 0.13591 0.27859 0.83919 0.0
C186 C 0.86507 0.70073 0.43953 0.0
C187 C 0.84773 0.66641 0.40899 0.0
H188 H 0.91329 0.7547 0.44802 0.0
C189 C 0.86695 0.66045 0.36233 0.0
H190 H 0.851 0.70614 0.47583 0.0
C191 C 0.90289 0.68845 0.34611 0.0
C192 C 0.92029 0.72287 0.37658 0.0
H193 H 0.85398 0.63411 0.33842 0.0
H194 H 0.91698 0.68309 0.30979 0.0
C195 C 0.90093 0.72856 0.42351 0.0
C196 C 0.85517 0.26865 0.93217 0.0
C197 C 0.83849 0.30234 0.89978 0.0
H198 H 0.90115 0.21389 0.94291 0.0
C199 C 0.85603 0.30557 0.85183 0.0
H200 H 0.84235 0.26514 0.96948 0.0
C201 C 0.88984 0.27599 0.8364 0.0
C202 C 0.90695 0.2425 0.86884 0.0
H203 H 0.84363 0.3312 0.82635 0.0
H204 H 0.90282 0.2797 0.79915 0.0
C205 C 0.88897 0.23916 0.91687 0.0
C206 C 0.1816 0.66952 0.38577 0.0
C207 C 0.20407 0.68497 0.42907 0.0
H208 H 0.12956 0.68225 0.33033 0.0
C209 C 0.19331 0.72668 0.44789 0.0
H210 H 0.18969 0.63734 0.37033 0.0
C211 C 0.15928 0.75227 0.42512 0.0
C212 C 0.13531 0.73639 0.38296 0.0
H213 H 0.21073 0.73897 0.48092 0.0
H214 H 0.15119 0.78421 0.44123 0.0
C215 C 0.14743 0.69523 0.36275 0.0
C216 C 0.67168 0.80691 0.85537 0.0
C217 C 0.69218 0.80035 0.90216 0.0
H218 H 0.62058 0.78453 0.80281 0.0
C219 C 0.67666 0.76479 0.93256 0.0
H220 H 0.68329 0.83416 0.83156 0.0
C221 C 0.64105 0.73657 0.91648 0.0
C222 C 0.6201 0.74312 0.86964 0.0
H223 H 0.69183 0.75881 0.96893 0.0
H224 H 0.62995 0.70962 0.94099 0.0
C225 C 0.63594 0.77852 0.83909 0.0
C226 C 0.36498 0.20081 0.4394 0.0
C227 C 0.34765 0.16651 0.40884 0.0
H228 H 0.41323 0.25475 0.44793 0.0
C229 C 0.36689 0.16054 0.36219 0.0
H230 H 0.3509 0.20623 0.47569 0.0
C231 C 0.40285 0.18853 0.346 0.0
C232 C 0.42025 0.22293 0.3765 0.0
H233 H 0.35392 0.13422 0.33827 0.0
H234 H 0.41695 0.18316 0.30969 0.0
C235 C 0.40087 0.22863 0.42341 0.0
C236 C 0.35607 0.80561 0.85188 0.0
C237 C 0.33852 0.80239 0.89983 0.0
H238 H 0.40283 0.77974 0.79919 0.0
C239 C 0.35521 0.7687 0.93222 0.0
H240 H 0.34366 0.83124 0.8264 0.0
C241 C 0.38901 0.73921 0.91691 0.0
C242 C 0.40698 0.74253 0.86887 0.0
H243 H 0.3424 0.76519 0.96953 0.0
H244 H 0.40119 0.71393 0.94295 0.0
C245 C 0.38987 0.77603 0.83644 0.0
C246 C 0.6933 0.22665 0.44789 0.0
C247 C 0.70405 0.18494 0.42909 0.0
H248 H 0.65119 0.28419 0.44121 0.0
C249 C 0.68158 0.16948 0.38579 0.0
H250 H 0.71072 0.23896 0.48092 0.0
C251 C 0.64741 0.19519 0.36277 0.0
C252 C 0.6353 0.23636 0.38296 0.0
H253 H 0.68966 0.13729 0.37037 0.0
H254 H 0.62953 0.18221 0.33036 0.0
C255 C 0.65928 0.25225 0.42512 0.0
C256 C 0.36469 0.49717 0.96335 0.0
C257 C 0.35326 0.45642 0.94041 0.0
H258 H 0.40231 0.5591 0.95905 0.0
C259 C 0.36708 0.44955 0.89154 0.0
H260 H 0.35386 0.50359 0.0008 0.0
C261 C 0.39486 0.48136 0.8675 0.0
C262 C 0.40936 0.52063 0.89193 0.0
H263 H 0.35894 0.41838 0.87303 0.0
H264 H 0.40679 0.47404 0.8307 0.0
C265 C 0.39246 0.52895 0.9394 0.0
C266 C 0.67258 0.47228 0.46617 0.0
C267 C 0.68347 0.51342 0.44299 0.0
H268 H 0.63506 0.41038 0.46203 0.0
C269 C 0.66861 0.52116 0.39391 0.0
H270 H 0.68419 0.46527 0.50382 0.0
C271 C 0.64034 0.48971 0.36984 0.0
C272 C 0.62643 0.45002 0.39452 0.0
H273 H 0.67635 0.55269 0.37528 0.0
H274 H 0.62755 0.4976 0.33286 0.0
C275 C 0.64434 0.44093 0.44224 0.0
C276 C 0.67074 0.50224 0.96018 0.0
C277 C 0.6812 0.46164 0.93708 0.0
H278 H 0.63165 0.56255 0.95756 0.0
C279 C 0.66371 0.45395 0.88912 0.0
H280 H 0.68426 0.50947 -0.00309 0.0
C281 C 0.63361 0.48452 0.86643 0.0
C282 C 0.6202 0.52343 0.89125 0.0
H283 H 0.67083 0.42297 0.87044 0.0
H284 H 0.61915 0.47643 0.83034 0.0
C285 C 0.64047 0.53266 0.93768 0.0
C286 C 0.37139 0.50801 0.38996 0.0
C287 C 0.35619 0.49813 0.43809 0.0
H288 H 0.41387 0.48867 0.3303 0.0
C289 C 0.36851 0.45755 0.46103 0.0
H290 H 0.36262 0.53932 0.3716 0.0
C291 C 0.39804 0.42863 0.43754 0.0
C292 C 0.41595 0.43998 0.3908 0.0
H293 H 0.35668 0.44902 0.49789 0.0
H294 H 0.40833 0.39834 0.45704 0.0
C295 C 0.40101 0.47915 0.36646 0.0
C296 C 0.86479 -0.00296 0.96324 0.0
C297 C 0.8534 0.95628 0.94028 0.0
H298 H 0.90236 0.05899 0.95898 0.0
C299 C 0.86724 0.94944 0.89141 0.0
H300 H 0.85394 0.00343 0.00069 0.0
C301 C 0.895 0.98129 0.86739 0.0
C302 C 0.90946 0.02055 0.89184 0.0
H303 H 0.85913 0.91827 0.87289 0.0
H304 H 0.90695 0.97398 0.83059 0.0
C305 C 0.89254 0.02885 0.93931 0.0
C306 C 0.17249 0.9724 0.46607 0.0
C307 C 0.18334 0.01354 0.44287 0.0
H308 H 0.13501 0.91048 0.46197 0.0
C309 C 0.16846 0.02125 0.39379 0.0
H310 H 0.18412 0.9654 0.50371 0.0
C311 C 0.1402 -0.01022 0.36975 0.0
C312 C 0.12633 0.95009 0.39444 0.0
H313 H 0.17617 0.05278 0.37516 0.0
H314 H 0.12739 -0.00234 0.33277 0.0
C315 C 0.14426 0.94102 0.44216 0.0
C316 C 0.16379 0.95401 0.88914 0.0
C317 C 0.18124 0.96168 0.93711 0.0
H318 H 0.11928 0.9765 0.83033 0.0
C319 C 0.17075 0.00227 0.96023 0.0
H320 H 0.17093 0.92304 0.87045 0.0
C321 C 0.14049 0.0327 0.93771 0.0
C322 C 0.12027 0.02349 0.89126 0.0
H323 H 0.18425 0.00949 -0.00303 0.0
H324 H 0.13166 0.06258 0.95759 0.0
C325 C 0.13371 -0.01542 0.86643 0.0
C326 C 0.87129 0.00794 0.38995 0.0
C327 C 0.85613 -0.00192 0.4381 0.0
H328 H 0.91373 -0.01142 0.33027 0.0
C329 C 0.86847 0.95751 0.46105 0.0
H330 H 0.8625 0.03924 0.37159 0.0
C331 C 0.89799 0.92857 0.43755 0.0
C332 C 0.91587 0.93991 0.39079 0.0
H333 H 0.85667 0.94899 0.49793 0.0
H334 H 0.90829 0.8983 0.45706 0.0
C335 C 0.9009 0.97907 0.36644 0.0
C336 C 0.37975 0.31885 0.10015 0.0
C337 C 0.35946 0.36077 0.09179 0.0
H338 H 0.42633 0.2803 0.14539 0.0
C339 C 0.36588 0.39456 0.12687 0.0
H340 H 0.37528 0.29234 0.07339 0.0
C341 C 0.39482 0.38782 0.16777 0.0
C342 C 0.41824 0.34717 0.17432 0.0
H343 H 0.35004 0.42695 0.12146 0.0
H344 H 0.40038 0.41531 0.19309 0.0
C345 C 0.40902 0.31206 0.14121 0.0
C346 C 0.66952 0.57154 0.62747 0.0
C347 C 0.6778 0.60632 0.59316 0.0
H348 H 0.63292 0.54957 0.69135 0.0
C349 C 0.6586 0.64852 0.60084 0.0
H350 H 0.68443 0.53884 0.62261 0.0
C351 C 0.62873 0.65479 0.64029 0.0
C352 C 0.61772 0.61887 0.67248 0.0
H353 H 0.66438 0.6758 0.57468 0.0
H354 H 0.6125 0.68699 0.64395 0.0
C355 C 0.63986 0.57772 0.6667 0.0
C356 C 0.66641 0.32601 0.1021 0.0
C357 C 0.68334 0.36927 0.09102 0.0
H358 H 0.62442 0.28538 0.14988 0.0
C359 C 0.67547 0.40405 0.12417 0.0
H360 H 0.67187 0.29863 0.07702 0.0
C361 C 0.64823 0.39663 0.16556 0.0
C362 C 0.62824 0.3542 0.17476 0.0
H363 H 0.6888 0.43755 0.11688 0.0
H364 H 0.6413 0.42472 0.1892 0.0
C365 C 0.63909 0.31851 0.14371 0.0
C366 C 0.35741 0.56151 0.62349 0.0
C367 C 0.35104 0.59411 0.58625 0.0
H368 H 0.39054 0.54425 0.692 0.0
C369 C 0.36945 0.63743 0.59306 0.0
H370 H 0.34298 0.52806 0.61932 0.0
C371 C 0.39706 0.64684 0.63473 0.0
C372 C 0.40653 0.61299 0.67003 0.0
H373 H 0.36505 0.66309 0.56466 0.0
H374 H 0.41317 0.67966 0.63766 0.0
C375 C 0.38473 0.57086 0.66501 0.0
C376 C 0.87982 0.81871 0.10006 0.0
C377 C 0.85954 0.86063 0.09167 0.0
H378 H 0.92636 0.78019 0.14537 0.0
C379 C 0.86589 0.89442 0.12675 0.0
H380 H 0.8754 0.7922 0.07329 0.0
C381 C 0.89478 0.88769 0.1677 0.0
C382 C 0.91821 0.84705 0.17427 0.0
H383 H 0.85005 0.92681 0.12131 0.0
H384 H 0.9003 0.91518 0.19301 0.0
C385 C 0.90905 0.81194 0.14115 0.0
C386 C 0.16953 0.07165 0.62737 0.0
C387 C 0.17776 0.10644 0.59305 0.0
H388 H 0.13301 0.04967 0.6913 0.0
C389 C 0.15857 0.14864 0.60076 0.0
H390 H 0.18445 0.03896 0.62248 0.0
C391 C 0.12874 0.1549 0.64025 0.0
C392 C 0.11777 0.11897 0.67245 0.0
H393 H 0.16432 0.17591 0.57459 0.0
H394 H 0.11251 0.18709 0.64393 0.0
C395 C 0.13992 0.07783 0.66664 0.0
C396 C 0.16637 0.82601 0.1021 0.0
C397 C 0.1833 0.86927 0.09103 0.0
H398 H 0.12437 0.78537 0.14986 0.0
C399 C 0.17542 0.90405 0.12418 0.0
H400 H 0.17184 0.79863 0.07701 0.0
C401 C 0.14816 0.89662 0.16556 0.0
C402 C 0.12818 0.85419 0.17475 0.0
H403 H 0.18875 0.93755 0.1169 0.0
H404 H 0.14123 0.9247 0.18921 0.0
C405 C 0.13903 0.8185 0.14369 0.0
C406 C 0.85748 0.06151 0.62348 0.0
C407 C 0.8511 0.09411 0.58624 0.0
H408 H 0.89063 0.04426 0.69197 0.0
C409 C 0.86952 0.13742 0.59302 0.0
H410 H 0.84304 0.02806 0.61932 0.0
C411 C 0.89714 0.14684 0.63468 0.0
C412 C 0.90661 0.113 0.66999 0.0
H413 H 0.86511 0.16308 0.56463 0.0
H414 H 0.91325 0.17967 0.6376 0.0
C415 C 0.88481 0.07087 0.66499 0.0
loop_
_geom_bond_atom_site_label_1
_geom_bond_atom_site_label_2
_geom_bond_distance
_geom_bond_site_symmetry_2
_ccdc_geom_bond_type
H0 C5 0.929 . S
H1 C10 0.931 . S
H2 C8 0.930 . S
N3 N4 1.234 . S
N3 C7 1.453 1_556 S
N4 N3 1.234 . S
C5 H0 0.929 . S
C5 C6 1.373 . S
C5 C7 1.368 . S
C6 C5 1.373 . S
C6 C10 1.397 . S
C7 N3 1.453 1_554 S
C7 C5 1.368 . S
C7 C8 1.373 1_554 S
C8 H2 0.930 . S
C8 C7 1.373 1_556 S
C8 C9 1.371 . S
C9 C8 1.371 . S
C9 C10 1.383 1_556 S
C10 H1 0.931 . S
C10 C6 1.397 . S
C10 C9 1.383 1_554 S
H11 C16 0.929 . S
H12 C21 0.931 . S
H13 C19 0.930 . S
N14 N15 1.234 . S
N14 C18 1.453 . S
N15 N14 1.234 . S
C16 H11 0.929 . S
C16 C17 1.373 . S
C16 C18 1.368 . S
C17 C16 1.373 . S
C17 C21 1.397 . S
C18 N14 1.453 . S
C18 C16 1.368 . S
C18 C19 1.373 . S
C19 H13 0.930 . S
C19 C18 1.373 . S
C19 C20 1.371 . S
C20 C19 1.371 . S
C20 C21 1.383 . S
C21 H12 0.931 . S
C21 C17 1.397 . S
C21 C20 1.383 . S
H22 C27 0.929 . S
H23 C32 0.931 . S
H24 C30 0.930 . S
N25 N26 1.234 1_554 S
N25 C29 1.453 . S
N26 N25 1.234 1_556 S
C27 H22 0.929 . S
C27 C28 1.373 . S
C27 C29 1.368 . S
C28 C27 1.373 . S
C28 C32 1.397 . S
C29 N25 1.453 . S
C29 C27 1.368 . S
C29 C30 1.373 1_554 S
C30 H24 0.930 . S
C30 C29 1.373 1_556 S
C30 C31 1.371 . S
C31 C30 1.371 . S
C31 C32 1.383 1_556 S
C32 H23 0.931 . S
C32 C28 1.397 . S
C32 C31 1.383 1_554 S
H33 C38 0.929 . S
H34 C43 0.931 . S
H35 C41 0.930 . S
N36 N37 1.234 . S
N36 C40 1.453 . S
N37 N36 1.234 . S
C38 H33 0.929 . S
C38 C39 1.373 . S
C38 C40 1.368 . S
C39 C38 1.373 . S
C39 C43 1.397 . S
C40 N36 1.453 . S
C40 C38 1.368 . S
C40 C41 1.373 . S
C41 H35 0.930 . S
C41 C40 1.373 . S
C41 C42 1.371 . S
C42 C41 1.371 . S
C42 C43 1.383 . S
C43 H34 0.931 . S
C43 C39 1.397 . S
C43 C42 1.383 . S
H44 C49 0.929 . S
H45 C54 0.931 . S
H46 C52 0.930 . S
N47 N48 1.234 . S
N47 C51 1.453 1_556 S
N48 N47 1.234 . S
C49 H44 0.929 . S
C49 C50 1.373 . S
C49 C51 1.368 . S
C50 C49 1.373 . S
C50 C54 1.397 . S
C51 N47 1.453 1_554 S
C51 C49 1.368 . S
C51 C52 1.373 1_554 S
C52 H46 0.930 . S
C52 C51 1.373 1_556 S
C52 C53 1.371 . S
C53 C52 1.371 . S
C53 C54 1.383 1_556 S
C54 H45 0.931 . S
C54 C50 1.397 . S
C54 C53 1.383 1_554 S
H55 C60 0.929 . S
H56 C65 0.931 . S
H57 C63 0.930 . S
N58 N59 1.234 . S
N58 C62 1.453 . S
N59 N58 1.234 . S
C60 H55 0.929 . S
C60 C61 1.373 . S
C60 C62 1.368 . S
C61 C60 1.373 . S
C61 C65 1.397 . S
C62 N58 1.453 . S
C62 C60 1.368 . S
C62 C63 1.373 . S
C63 H57 0.930 . S
C63 C62 1.373 . S
C63 C64 1.371 . S
C64 C63 1.371 . S
C64 C65 1.383 . S
C65 H56 0.931 . S
C65 C61 1.397 . S
C65 C64 1.383 . S
H66 C71 0.929 . S
H67 C76 0.931 . S
H68 C74 0.930 . S
N69 N70 1.234 1_554 S
N69 C73 1.453 . S
N70 N69 1.234 1_556 S
C71 H66 0.929 . S
C71 C72 1.373 . S
C71 C73 1.368 . S
C72 C71 1.373 . S
C72 C76 1.397 . S
C73 N69 1.453 . S
C73 C71 1.368 . S
C73 C74 1.373 1_554 S
C74 H68 0.930 . S
C74 C73 1.373 1_556 S
C74 C75 1.371 . S
C75 C74 1.371 . S
C75 C76 1.383 1_556 S
C76 H67 0.931 . S
C76 C72 1.397 . S
C76 C75 1.383 1_554 S
H77 C82 0.929 . S
H78 C87 0.931 . S
H79 C85 0.930 . S
N80 N81 1.234 . S
N80 C84 1.453 . S
N81 N80 1.234 . S
C82 H77 0.929 . S
C82 C83 1.373 . S
C82 C84 1.368 . S
C83 C82 1.373 . S
C83 C87 1.397 . S
C84 N80 1.453 . S
C84 C82 1.368 . S
C84 C85 1.373 . S
C85 H79 0.930 . S
C85 C84 1.373 . S
C85 C86 1.371 . S
C86 C85 1.371 . S
C86 C87 1.383 . S
C87 H78 0.931 . S
C87 C83 1.397 . S
C87 C86 1.383 . S
Sc88 O91 2.025 . S
Sc88 O98 2.105 1_455 S
Sc88 O101 2.105 . S
Sc88 O104 2.105 . S
Sc88 O107 2.105 1_455 S
Sc89 O91 2.025 . S
Sc89 O99 2.105 1_455 S
Sc89 O103 2.105 . S
Sc89 O105 2.105 . S
Sc89 O109 2.105 1_455 S
Sc90 O91 2.025 . S
Sc90 O100 2.105 1_455 S
Sc90 O102 2.105 . S
Sc90 O106 2.105 . S
Sc90 O108 2.105 1_455 S
O91 Sc88 2.025 . S
O91 Sc89 2.025 . S
O91 Sc90 2.025 . S
C92 O98 1.268 . S
C92 O108 1.268 . S
C93 O99 1.268 . S
C93 O107 1.268 . S
C94 O100 1.268 . S
C94 O109 1.268 . S
C95 O101 1.268 . S
C95 O105 1.268 . S
C96 O102 1.268 . S
C96 O104 1.268 . S
C97 O103 1.268 . S
C97 O106 1.268 . S
O98 Sc88 2.105 1_655 S
O98 C92 1.268 . S
O99 Sc89 2.105 1_655 S
O99 C93 1.268 . S
O100 Sc90 2.105 1_655 S
O100 C94 1.268 . S
O101 Sc88 2.105 . S
O101 C95 1.268 . S
O102 Sc90 2.105 . S
O102 C96 1.268 . S
O103 Sc89 2.105 . S
O103 C97 1.268 . S
O104 Sc88 2.105 . S
O104 C96 1.268 . S
O105 Sc89 2.105 . S
O105 C95 1.268 . S
O106 Sc90 2.105 . S
O106 C97 1.268 . S
O107 Sc88 2.105 1_655 S
O107 C93 1.268 . S
O108 Sc90 2.105 1_655 S
O108 C92 1.268 . S
O109 Sc89 2.105 1_655 S
O109 C94 1.268 . S
Sc110 O113 2.025 . S
Sc110 O120 2.105 . S
Sc110 O123 2.105 1_455 S
Sc110 O126 2.105 1_455 S
Sc110 O129 2.105 . S
Sc111 O113 2.025 . S
Sc111 O121 2.105 . S
Sc111 O125 2.105 1_455 S
Sc111 O127 2.105 1_455 S
Sc111 O131 2.105 . S
Sc112 O113 2.025 . S
Sc112 O122 2.105 . S
Sc112 O124 2.105 1_455 S
Sc112 O128 2.105 1_455 S
Sc112 O130 2.105 . S
O113 Sc110 2.025 . S
O113 Sc111 2.025 . S
O113 Sc112 2.025 . S
C114 O120 1.268 . S
C114 O130 1.268 . S
C115 O121 1.268 . S
C115 O129 1.268 . S
C116 O122 1.268 . S
C116 O131 1.268 . S
C117 O123 1.268 . S
C117 O127 1.268 . S
C118 O124 1.268 . S
C118 O126 1.268 . S
C119 O125 1.268 . S
C119 O128 1.268 . S
O120 Sc110 2.105 . S
O120 C114 1.268 . S
O121 Sc111 2.105 . S
O121 C115 1.268 . S
O122 Sc112 2.105 . S
O122 C116 1.268 . S
O123 Sc110 2.105 1_655 S
O123 C117 1.268 . S
O124 Sc112 2.105 1_655 S
O124 C118 1.268 . S
O125 Sc111 2.105 1_655 S
O125 C119 1.268 . S
O126 Sc110 2.105 1_655 S
O126 C118 1.268 . S
O127 Sc111 2.105 1_655 S
O127 C117 1.268 . S
O128 Sc112 2.105 1_655 S
O128 C119 1.268 . S
O129 Sc110 2.105 . S
O129 C115 1.268 . S
O130 Sc112 2.105 . S
O130 C114 1.268 . S
O131 Sc111 2.105 . S
O131 C116 1.268 . S
Sc132 O135 2.025 . S
Sc132 O142 2.105 . S
Sc132 O145 2.105 . S
Sc132 O148 2.105 . S
Sc132 O151 2.105 . S
Sc133 O135 2.025 . S
Sc133 O143 2.105 . S
Sc133 O147 2.105 . S
Sc133 O149 2.105 . S
Sc133 O153 2.105 . S
Sc134 O135 2.025 . S
Sc134 O144 2.105 . S
Sc134 O146 2.105 . S
Sc134 O150 2.105 . S
Sc134 O152 2.105 . S
O135 Sc132 2.025 . S
O135 Sc133 2.025 . S
O135 Sc134 2.025 . S
C136 O142 1.268 . S
C136 O152 1.268 . S
C137 O143 1.268 . S
C137 O151 1.268 . S
C138 O144 1.268 . S
C138 O153 1.268 . S
C139 O145 1.268 . S
C139 O149 1.268 . S
C140 O146 1.268 . S
C140 O148 1.268 . S
C141 O147 1.268 . S
C141 O150 1.268 . S
O142 Sc132 2.105 . S
O142 C136 1.268 . S
O143 Sc133 2.105 . S
O143 C137 1.268 . S
O144 Sc134 2.105 . S
O144 C138 1.268 . S
O145 Sc132 2.105 . S
O145 C139 1.268 . S
O146 Sc134 2.105 . S
O146 C140 1.268 . S
O147 Sc133 2.105 . S
O147 C141 1.268 . S
O148 Sc132 2.105 . S
O148 C140 1.268 . S
O149 Sc133 2.105 . S
O149 C139 1.268 . S
O150 Sc134 2.105 . S
O150 C141 1.268 . S
O151 Sc132 2.105 . S
O151 C137 1.268 . S
O152 Sc134 2.105 . S
O152 C136 1.268 . S
O153 Sc133 2.105 . S
O153 C138 1.268 . S
Sc154 O157 2.025 . S
Sc154 O164 2.105 . S
Sc154 O167 2.105 . S
Sc154 O170 2.105 . S
Sc154 O173 2.105 . S
Sc155 O157 2.025 . S
Sc155 O165 2.105 . S
Sc155 O169 2.105 . S
Sc155 O171 2.105 . S
Sc155 O175 2.105 . S
Sc156 O157 2.025 . S
Sc156 O166 2.105 . S
Sc156 O168 2.105 . S
Sc156 O172 2.105 . S
Sc156 O174 2.105 . S
O157 Sc154 2.025 . S
O157 Sc155 2.025 . S
O157 Sc156 2.025 . S
C158 O164 1.268 . S
C158 O174 1.268 . S
C159 O165 1.268 . S
C159 O173 1.268 . S
C160 O166 1.268 . S
C160 O175 1.268 . S
C161 O167 1.268 . S
C161 O171 1.268 . S
C162 O168 1.268 . S
C162 O170 1.268 . S
C163 O169 1.268 . S
C163 O172 1.268 . S
O164 Sc154 2.105 . S
O164 C158 1.268 . S
O165 Sc155 2.105 . S
O165 C159 1.268 . S
O166 Sc156 2.105 . S
O166 C160 1.268 . S
O167 Sc154 2.105 . S
O167 C161 1.268 . S
O168 Sc156 2.105 . S
O168 C162 1.268 . S
O169 Sc155 2.105 . S
O169 C163 1.268 . S
O170 Sc154 2.105 . S
O170 C162 1.268 . S
O171 Sc155 2.105 . S
O171 C161 1.268 . S
O172 Sc156 2.105 . S
O172 C163 1.268 . S
O173 Sc154 2.105 . S
O173 C159 1.268 . S
O174 Sc156 2.105 . S
O174 C158 1.268 . S
O175 Sc155 2.105 . S
O175 C160 1.268 . S
C176 C177 1.387 . S
C176 H180 0.950 . S
C176 C185 1.390 . S
C177 C176 1.387 . S
C177 C179 1.387 . S
H178 C185 0.950 . S
C179 C177 1.387 . S
C179 C181 1.390 . S
C179 H183 0.950 1_556 S
H180 C176 0.950 . S
C181 C179 1.390 . S
C181 C182 1.387 . S
C181 H184 0.950 . S
C182 C181 1.387 . S
C182 C185 1.387 . S
H183 C179 0.950 1_554 S
H184 C181 0.950 . S
C185 C176 1.390 . S
C185 H178 0.950 . S
C185 C182 1.387 . S
C186 C187 1.387 . S
C186 H190 0.950 . S
C186 C195 1.390 . S
C187 C186 1.387 . S
C187 C189 1.387 . S
H188 C195 0.950 . S
C189 C187 1.387 . S
C189 C191 1.390 . S
C189 H193 0.950 . S
H190 C186 0.950 . S
C191 C189 1.390 . S
C191 C192 1.387 . S
C191 H194 0.950 . S
C192 C191 1.387 . S
C192 C195 1.387 . S
H193 C189 0.950 . S
H194 C191 0.950 . S
C195 C186 1.390 . S
C195 H188 0.950 . S
C195 C192 1.387 . S
C196 C197 1.387 . S
C196 H200 0.950 . S
C196 C205 1.390 . S
C197 C196 1.387 . S
C197 C199 1.387 . S
H198 C205 0.950 . S
C199 C197 1.387 . S
C199 C201 1.390 . S
C199 H203 0.950 . S
H200 C196 0.950 . S
C201 C199 1.390 . S
C201 C202 1.387 . S
C201 H204 0.950 . S
C202 C201 1.387 . S
C202 C205 1.387 . S
H203 C199 0.950 . S
H204 C201 0.950 . S
C205 C196 1.390 . S
C205 H198 0.950 . S
C205 C202 1.387 . S
C206 C207 1.387 . S
C206 H210 0.950 . S
C206 C215 1.390 . S
C207 C206 1.387 . S
C207 C209 1.387 . S
H208 C215 0.950 . S
C209 C207 1.387 . S
C209 C211 1.390 . S
C209 H213 0.950 . S
H210 C206 0.950 . S
C211 C209 1.390 . S
C211 C212 1.387 . S
C211 H214 0.950 . S
C212 C211 1.387 . S
C212 C215 1.387 . S
H213 C209 0.950 . S
H214 C211 0.950 . S
C215 C206 1.390 . S
C215 H208 0.950 . S
C215 C212 1.387 . S
C216 C217 1.387 . S
C216 H220 0.950 . S
C216 C225 1.390 . S
C217 C216 1.387 . S
C217 C219 1.387 . S
H218 C225 0.950 . S
C219 C217 1.387 . S
C219 C221 1.390 . S
C219 H223 0.950 1_556 S
H220 C216 0.950 . S
C221 C219 1.390 . S
C221 C222 1.387 . S
C221 H224 0.950 . S
C222 C221 1.387 . S
C222 C225 1.387 . S
H223 C219 0.950 1_554 S
H224 C221 0.950 . S
C225 C216 1.390 . S
C225 H218 0.950 . S
C225 C222 1.387 . S
C226 C227 1.387 . S
C226 H230 0.950 . S
C226 C235 1.390 . S
C227 C226 1.387 . S
C227 C229 1.387 . S
H228 C235 0.950 . S
C229 C227 1.387 . S
C229 C231 1.390 . S
C229 H233 0.950 . S
H230 C226 0.950 . S
C231 C229 1.390 . S
C231 C232 1.387 . S
C231 H234 0.950 . S
C232 C231 1.387 . S
C232 C235 1.387 . S
H233 C229 0.950 . S
H234 C231 0.950 . S
C235 C226 1.390 . S
C235 H228 0.950 . S
C235 C232 1.387 . S
C236 C237 1.387 . S
C236 H240 0.950 . S
C236 C245 1.390 . S
C237 C236 1.387 . S
C237 C239 1.387 . S
H238 C245 0.950 . S
C239 C237 1.387 . S
C239 C241 1.390 . S
C239 H243 0.950 1_556 S
H240 C236 0.950 . S
C241 C239 1.390 . S
C241 C242 1.387 . S
C241 H244 0.950 . S
C242 C241 1.387 . S
C242 C245 1.387 . S
H243 C239 0.950 1_554 S
H244 C241 0.950 . S
C245 C236 1.390 . S
C245 H238 0.950 . S
C245 C242 1.387 . S
C246 C247 1.387 . S
C246 H250 0.950 . S
C246 C255 1.390 . S
C247 C246 1.387 . S
C247 C249 1.387 . S
H248 C255 0.950 . S
C249 C247 1.387 . S
C249 C251 1.390 . S
C249 H253 0.950 . S
H250 C246 0.950 . S
C251 C249 1.390 . S
C251 C252 1.387 . S
C251 H254 0.950 . S
C252 C251 1.387 . S
C252 C255 1.387 . S
H253 C249 0.950 . S
H254 C251 0.950 . S
C255 C246 1.390 . S
C255 H248 0.950 . S
C255 C252 1.387 . S
C256 C257 1.387 . S
C256 H260 0.950 1_556 S
C256 C265 1.390 . S
C257 C256 1.387 . S
C257 C259 1.387 . S
H258 C265 0.950 . S
C259 C257 1.387 . S
C259 C261 1.390 . S
C259 H263 0.950 . S
H260 C256 0.950 1_554 S
C261 C259 1.390 . S
C261 C262 1.387 . S
C261 H264 0.950 . S
C262 C261 1.387 . S
C262 C265 1.387 . S
H263 C259 0.950 . S
H264 C261 0.950 . S
C265 C256 1.390 . S
C265 H258 0.950 . S
C265 C262 1.387 . S
C266 C267 1.387 . S
C266 H270 0.950 . S
C266 C275 1.390 . S
C267 C266 1.387 . S
C267 C269 1.387 . S
H268 C275 0.950 . S
C269 C267 1.387 . S
C269 C271 1.390 . S
C269 H273 0.950 . S
H270 C266 0.950 . S
C271 C269 1.390 . S
C271 C272 1.387 . S
C271 H274 0.950 . S
C272 C271 1.387 . S
C272 C275 1.387 . S
H273 C269 0.950 . S
H274 C271 0.950 . S
C275 C266 1.390 . S
C275 H268 0.950 . S
C275 C272 1.387 . S
C276 C277 1.387 . S
C276 H280 0.950 1_556 S
C276 C285 1.390 . S
C277 C276 1.387 . S
C277 C279 1.387 . S
H278 C285 0.950 . S
C279 C277 1.387 . S
C279 C281 1.390 . S
C279 H283 0.950 . S
H280 C276 0.950 1_554 S
C281 C279 1.390 . S
C281 C282 1.387 . S
C281 H284 0.950 . S
C282 C281 1.387 . S
C282 C285 1.387 . S
H283 C279 0.950 . S
H284 C281 0.950 . S
C285 C276 1.390 . S
C285 H278 0.950 . S
C285 C282 1.387 . S
C286 C287 1.387 . S
C286 H290 0.950 . S
C286 C295 1.390 . S
C287 C286 1.387 . S
C287 C289 1.387 . S
H288 C295 0.950 . S
C289 C287 1.387 . S
C289 C291 1.390 . S
C289 H293 0.950 . S
H290 C286 0.950 . S
C291 C289 1.390 . S
C291 C292 1.387 . S
C291 H294 0.950 . S
C292 C291 1.387 . S
C292 C295 1.387 . S
H293 C289 0.950 . S
H294 C291 0.950 . S
C295 C286 1.390 . S
C295 H288 0.950 . S
C295 C292 1.387 . S
C296 C297 1.387 1_545 S
C296 H300 0.950 1_556 S
C296 C305 1.390 . S
C297 C296 1.387 1_565 S
C297 C299 1.387 . S
H298 C305 0.950 . S
C299 C297 1.387 . S
C299 C301 1.390 . S
C299 H303 0.950 . S
H300 C296 0.950 1_554 S
C301 C299 1.390 . S
C301 C302 1.387 1_565 S
C301 H304 0.950 . S
C302 C301 1.387 1_545 S
C302 C305 1.387 . S
H303 C299 0.950 . S
H304 C301 0.950 . S
C305 C296 1.390 . S
C305 H298 0.950 . S
C305 C302 1.387 . S
C306 C307 1.387 . S
C306 H310 0.950 . S
C306 C315 1.390 1_545 S
C307 C306 1.387 . S
C307 C309 1.387 . S
H308 C315 0.950 . S
C309 C307 1.387 . S
C309 C311 1.390 . S
C309 H313 0.950 . S
H310 C306 0.950 . S
C311 C309 1.390 . S
C311 C312 1.387 1_545 S
C311 H314 0.950 1_545 S
C312 C311 1.387 1_565 S
C312 C315 1.387 . S
H313 C309 0.950 . S
H314 C311 0.950 1_565 S
C315 C306 1.390 1_565 S
C315 H308 0.950 . S
C315 C312 1.387 . S
C316 C317 1.387 . S
C316 H320 0.950 . S
C316 C325 1.390 . S
C317 C316 1.387 . S
C317 C319 1.387 . S
H318 C325 0.950 . S
C319 C317 1.387 . S
C319 C321 1.390 1_565 S
C319 H323 0.950 1_556 S
H320 C316 0.950 . S
C321 C319 1.390 1_545 S
C321 C322 1.387 . S
C321 H324 0.950 . S
C322 C321 1.387 . S
C322 C325 1.387 1_545 S
H323 C319 0.950 1_554 S
H324 C321 0.950 . S
C325 C316 1.390 . S
C325 H318 0.950 . S
C325 C322 1.387 1_565 S
C326 C327 1.387 . S
C326 H330 0.950 . S
C326 C335 1.390 . S
C327 C326 1.387 . S
C327 C329 1.387 1_545 S
H328 C335 0.950 . S
C329 C327 1.387 1_565 S
C329 C331 1.390 . S
C329 H333 0.950 . S
H330 C326 0.950 . S
C331 C329 1.390 . S
C331 C332 1.387 . S
C331 H334 0.950 . S
C332 C331 1.387 . S
C332 C335 1.387 1_565 S
H333 C329 0.950 . S
H334 C331 0.950 . S
C335 C326 1.390 . S
C335 H328 0.950 . S
C335 C332 1.387 1_545 S
C336 C337 1.387 . S
C336 H340 0.950 . S
C336 C345 1.390 . S
C337 C336 1.387 . S
C337 C339 1.387 . S
H338 C345 0.950 . S
C339 C337 1.387 . S
C339 C341 1.390 . S
C339 H343 0.950 . S
H340 C336 0.950 . S
C341 C339 1.390 . S
C341 C342 1.387 . S
C341 H344 0.950 . S
C342 C341 1.387 . S
C342 C345 1.387 . S
H343 C339 0.950 . S
H344 C341 0.950 . S
C345 C336 1.390 . S
C345 H338 0.950 . S
C345 C342 1.387 . S
C346 C347 1.387 . S
C346 H350 0.950 . S
C346 C355 1.390 . S
C347 C346 1.387 . S
C347 C349 1.387 . S
H348 C355 0.950 . S
C349 C347 1.387 . S
C349 C351 1.390 . S
C349 H353 0.950 . S
H350 C346 0.950 . S
C351 C349 1.390 . S
C351 C352 1.387 . S
C351 H354 0.950 . S
C352 C351 1.387 . S
C352 C355 1.387 . S
H353 C349 0.950 . S
H354 C351 0.950 . S
C355 C346 1.390 . S
C355 H348 0.950 . S
C355 C352 1.387 . S
C356 C357 1.387 . S
C356 H360 0.950 . S
C356 C365 1.390 . S
C357 C356 1.387 . S
C357 C359 1.387 . S
H358 C365 0.950 . S
C359 C357 1.387 . S
C359 C361 1.390 . S
C359 H363 0.950 . S
H360 C356 0.950 . S
C361 C359 1.390 . S
C361 C362 1.387 . S
C361 H364 0.950 . S
C362 C361 1.387 . S
C362 C365 1.387 . S
H363 C359 0.950 . S
H364 C361 0.950 . S
C365 C356 1.390 . S
C365 H358 0.950 . S
C365 C362 1.387 . S
C366 C367 1.387 . S
C366 H370 0.950 . S
C366 C375 1.390 . S
C367 C366 1.387 . S
C367 C369 1.387 . S
H368 C375 0.950 . S
C369 C367 1.387 . S
C369 C371 1.390 . S
C369 H373 0.950 . S
H370 C366 0.950 . S
C371 C369 1.390 . S
C371 C372 1.387 . S
C371 H374 0.950 . S
C372 C371 1.387 . S
C372 C375 1.387 . S
H373 C369 0.950 . S
H374 C371 0.950 . S
C375 C366 1.390 . S
C375 H368 0.950 . S
C375 C372 1.387 . S
C376 C377 1.387 . S
C376 H380 0.950 . S
C376 C385 1.390 . S
C377 C376 1.387 . S
C377 C379 1.387 . S
H378 C385 0.950 . S
C379 C377 1.387 . S
C379 C381 1.390 . S
C379 H383 0.950 . S
H380 C376 0.950 . S
C381 C379 1.390 . S
C381 C382 1.387 . S
C381 H384 0.950 . S
C382 C381 1.387 . S
C382 C385 1.387 . S
H383 C379 0.950 . S
H384 C381 0.950 . S
C385 C376 1.390 . S
C385 H378 0.950 . S
C385 C382 1.387 . S
C386 C387 1.387 . S
C386 H390 0.950 . S
C386 C395 1.390 . S
C387 C386 1.387 . S
C387 C389 1.387 . S
H388 C395 0.950 . S
C389 C387 1.387 . S
C389 C391 1.390 . S
C389 H393 0.950 . S
H390 C386 0.950 . S
C391 C389 1.390 . S
C391 C392 1.387 . S
C391 H394 0.950 . S
C392 C391 1.387 . S
C392 C395 1.387 . S
H393 C389 0.950 . S
H394 C391 0.950 . S
C395 C386 1.390 . S
C395 H388 0.950 . S
C395 C392 1.387 . S
C396 C397 1.387 . S
C396 H400 0.950 . S
C396 C405 1.390 . S
C397 C396 1.387 . S
C397 C399 1.387 . S
H398 C405 0.950 . S
C399 C397 1.387 . S
C399 C401 1.390 . S
C399 H403 0.950 . S
H400 C396 0.950 . S
C401 C399 1.390 . S
C401 C402 1.387 . S
C401 H404 0.950 . S
C402 C401 1.387 . S
C402 C405 1.387 . S
H403 C399 0.950 . S
H404 C401 0.950 . S
C405 C396 1.390 . S
C405 H398 0.950 . S
C405 C402 1.387 . S
C406 C407 1.387 . S
C406 H410 0.950 . S
C406 C415 1.390 . S
C407 C406 1.387 . S
C407 C409 1.387 . S
H408 C415 0.950 . S
C409 C407 1.387 . S
C409 C411 1.390 . S
C409 H413 0.950 . S
H410 C406 0.950 . S
C411 C409 1.390 . S
C411 C412 1.387 . S
C411 H414 0.950 . S
C412 C411 1.387 . S
C412 C415 1.387 . S
H413 C409 0.950 . S
H414 C411 0.950 . S
C415 C406 1.390 . S
C415 H408 0.950 . S
C415 C412 1.387 . S
C177 N4 1.531 . S
C182 C114 1.509 . S
C192 C92 1.510 . S
C187 N15 1.531 . S
C202 C118 1.571 . S
C197 N26 1.589 . S
C212 C96 1.462 . S
C207 N37 1.489 . S
C222 C158 1.509 . S
C217 N48 1.531 . S
C232 C136 1.510 . S
C227 N59 1.531 . S
C237 N70 1.588 . S
C242 C162 1.570 . S
C252 C140 1.464 . S
C247 N81 1.490 . S
C257 C9 1.504 . S
C262 C163 1.532 . S
C272 C141 1.505 . S
C267 C20 1.479 . S
C277 C31 1.554 . S
C282 C160 1.588 . S
C287 C39 1.431 . S
C292 C138 1.443 . S
C302 C119 1.532 . S
C297 C53 1.504 . S
C307 C64 1.478 . S
C312 C97 1.506 . S
C322 C116 1.587 . S
C317 C75 1.556 . S
C332 C94 1.443 . S
C327 C83 1.430 . S
C342 C137 1.488 . S
C337 C6 1.485 . S
C352 C159 1.492 . S
C347 C17 1.477 . S
C357 C28 1.499 . S
C362 C139 1.487 . S
C372 C161 1.490 . S
C367 C42 1.469 . S
C382 C93 1.489 . S
C377 C50 1.485 . S
C387 C61 1.477 . S
C392 C115 1.492 . S
C397 C72 1.499 . S
C402 C95 1.487 . S
C407 C86 1.469 . S
C412 C117 1.490 . S
