# Generated by pormake.
# Topology apo, (3,6)-cn, num edge types: 1
# Building blocks:
#     Node 0, Type 0, BuildingBlock: PAMTOO_clean_linker_0, # of connection points: 3
#     Node 1, Type 0, BuildingBlock: PAMTOO_clean_linker_0, # of connection points: 3
#     Node 2, Type 0, BuildingBlock: PAMTOO_clean_linker_0, # of connection points: 3
#     Node 3, Type 0, BuildingBlock: PAMTOO_clean_linker_0, # of connection points: 3
#     Node 4, Type 0, BuildingBlock: PAMTOO_clean_linker_0, # of connection points: 3
#     Node 5, Type 0, BuildingBlock: PAMTOO_clean_linker_0, # of connection points: 3
#     Node 6, Type 0, BuildingBlock: PAMTOO_clean_linker_0, # of connection points: 3
#     Node 7, Type 0, BuildingBlock: PAMTOO_clean_linker_0, # of connection points: 3
#     Node 8, Type 1, BuildingBlock: KUMBUR_clean_sbu_1, # of connection points: 6
#     Node 9, Type 1, BuildingBlock: KUMBUR_clean_sbu_1, # of connection points: 6
#     Node 10, Type 1, BuildingBlock: KUMBUR_clean_sbu_1, # of connection points: 6
#     Node 11, Type 1, BuildingBlock: KUMBUR_clean_sbu_1, # of connection points: 6
#     Edge 12, Type (0, 1), BuildingBlock: CIFDUS_clean_linker_0, # of connection points: 2
#     Edge 13, Type (0, 1), BuildingBlock: CIFDUS_clean_linker_0, # of connection points: 2
#     Edge 14, Type (0, 1), BuildingBlock: CIFDUS_clean_linker_0, # of connection points: 2
#     Edge 15, Type (0, 1), BuildingBlock: CIFDUS_clean_linker_0, # of connection points: 2
#     Edge 16, Type (0, 1), BuildingBlock: CIFDUS_clean_linker_0, # of connection points: 2
#     Edge 17, Type (0, 1), BuildingBlock: CIFDUS_clean_linker_0, # of connection points: 2
#     Edge 18, Type (0, 1), BuildingBlock: CIFDUS_clean_linker_0, # of connection points: 2
#     Edge 19, Type (0, 1), BuildingBlock: CIFDUS_clean_linker_0, # of connection points: 2
#     Edge 20, Type (0, 1), BuildingBlock: CIFDUS_clean_linker_0, # of connection points: 2
#     Edge 21, Type (0, 1), BuildingBlock: CIFDUS_clean_linker_0, # of connection points: 2
#     Edge 22, Type (0, 1), BuildingBlock: CIFDUS_clean_linker_0, # of connection points: 2
#     Edge 23, Type (0, 1), BuildingBlock: CIFDUS_clean_linker_0, # of connection points: 2
#     Edge 24, Type (0, 1), BuildingBlock: CIFDUS_clean_linker_0, # of connection points: 2
#     Edge 25, Type (0, 1), BuildingBlock: CIFDUS_clean_linker_0, # of connection points: 2
#     Edge 26, Type (0, 1), BuildingBlock: CIFDUS_clean_linker_0, # of connection points: 2
#     Edge 27, Type (0, 1), BuildingBlock: CIFDUS_clean_linker_0, # of connection points: 2
#     Edge 28, Type (0, 1), BuildingBlock: CIFDUS_clean_linker_0, # of connection points: 2
#     Edge 29, Type (0, 1), BuildingBlock: CIFDUS_clean_linker_0, # of connection points: 2
#     Edge 30, Type (0, 1), BuildingBlock: CIFDUS_clean_linker_0, # of connection points: 2
#     Edge 31, Type (0, 1), BuildingBlock: CIFDUS_clean_linker_0, # of connection points: 2
#     Edge 32, Type (0, 1), BuildingBlock: CIFDUS_clean_linker_0, # of connection points: 2
#     Edge 33, Type (0, 1), BuildingBlock: CIFDUS_clean_linker_0, # of connection points: 2
#     Edge 34, Type (0, 1), BuildingBlock: CIFDUS_clean_linker_0, # of connection points: 2
#     Edge 35, Type (0, 1), BuildingBlock: CIFDUS_clean_linker_0, # of connection points: 2
# Relax obj value: 0.039
# Max RMSD: 0.232
# Mean RMSD: 0.166
data_MOF--net-apo--node1-KUMBUR_clean_sbu_1--node2-PAMTOO_clean_linker_0--edge1-CIFDUS_clean_linker_0
_symmetry_space_group_name_H-M    P1
_symmetry_Int_Tables_number       1
_symmetry_cell_setting            triclinic
loop_
_symmetry_equiv_pos_as_xyz
'x, y, z'
_cell_length_a     24.246431
_cell_length_b     36.716133
_cell_length_c     45.527432
_cell_angle_alpha  90.081559
_cell_angle_beta   89.676461
_cell_angle_gamma 90.418024
loop_
_atom_site_label
_atom_site_type_symbol
_atom_site_fract_x
_atom_site_fract_y
_atom_site_fract_z
_atom_type_partial_charge
H0 H 0.3664 0.43182 0.43684 0.0
H1 H 0.27801 0.40172 0.35824 0.0
H2 H 0.24953 0.34336 0.43838 0.0
H3 H 0.27649 0.30053 0.38324 0.0
C4 C 0.24961 0.31572 0.36779 0.0
O5 O 0.22813 0.34574 0.38204 0.0
H6 H 0.27526 0.32493 0.34884 0.0
C7 C 0.3369 0.41478 0.42538 0.0
C8 C 0.30866 0.38757 0.44124 0.0
C9 C 0.32588 0.42105 0.39544 0.0
C10 C 0.28787 0.39783 0.38117 0.0
C11 C 0.26169 0.3693 0.39646 0.0
C12 C 0.27118 0.36475 0.42655 0.0
H13 H 0.17191 0.08599 0.92465 0.0
H14 H 0.24978 0.19041 0.93773 0.0
H15 H 0.26276 0.13669 0.85402 0.0
H16 H 0.36501 0.17181 0.88594 0.0
C17 C 0.34462 0.19878 0.88822 0.0
O18 O 0.28861 0.19534 0.88398 0.0
H19 H 0.35239 0.20891 0.91086 0.0
C20 C 0.1966 0.1085 0.9163 0.0
C21 C 0.21621 0.10767 0.88729 0.0
C22 C 0.20913 0.13803 0.93467 0.0
C23 C 0.24035 0.16731 0.92375 0.0
C24 C 0.2596 0.16676 0.89467 0.0
C25 C 0.24812 0.13678 0.87656 0.0
H26 H 0.85705 0.08295 0.59824 0.0
H27 H 0.77081 0.13513 0.66941 0.0
H28 H 0.77334 0.18423 0.58397 0.0
H29 H 0.80041 0.22565 0.65021 0.0
C30 C 0.76058 0.21487 0.65899 0.0
O31 O 0.73815 0.19049 0.63905 0.0
H32 H 0.76975 0.2004 0.67983 0.0
C33 C 0.83291 0.10534 0.60672 0.0
C34 C 0.81702 0.13303 0.58732 0.0
C35 C 0.81747 0.10571 0.63652 0.0
C36 C 0.7836 0.13402 0.64663 0.0
C37 C 0.76861 0.16266 0.62802 0.0
C38 C 0.78596 0.16244 0.59841 0.0
H39 H 0.6493 0.43107 0.10056 0.0
H40 H 0.74658 0.33408 0.08892 0.0
H41 H 0.73823 0.3856 0.17319 0.0
H42 H 0.85053 0.35248 0.15237 0.0
C43 C 0.83216 0.3276 0.14227 0.0
O44 O 0.77548 0.32955 0.14368 0.0
H45 H 0.84579 0.32622 0.11892 0.0
C46 C 0.67805 0.41116 0.10889 0.0
C47 C 0.69321 0.41234 0.13862 0.0
C48 C 0.69667 0.38288 0.0906 0.0
C49 C 0.73172 0.35628 0.10244 0.0
C50 C 0.74692 0.35742 0.13201 0.0
C51 C 0.7281 0.38563 0.15003 0.0
H52 H 0.67106 0.58415 0.60443 0.0
H53 H 0.77745 0.67471 0.58178 0.0
H54 H 0.78537 0.62716 0.66764 0.0
H55 H 0.76725 0.71413 0.65129 0.0
C56 C 0.80703 0.71441 0.63886 0.0
O57 O 0.82346 0.67913 0.63325 0.0
H58 H 0.80029 0.72854 0.6176 0.0
C59 C 0.70258 0.60396 0.61016 0.0
C60 C 0.72616 0.60248 0.63824 0.0
C61 C 0.72076 0.62976 0.58928 0.0
C62 C 0.76326 0.65411 0.59712 0.0
C63 C 0.78602 0.65344 0.62537 0.0
C64 C 0.76772 0.6275 0.64583 0.0
H65 H 0.87931 0.92799 0.09917 0.0
H66 H 0.80044 0.87645 0.17279 0.0
H67 H 0.76926 0.83593 0.08619 0.0
H68 H 0.67124 0.8378 0.12667 0.0
C69 C 0.69303 0.83361 0.14782 0.0
O70 O 0.74813 0.82695 0.14213 0.0
H71 H 0.68927 0.85889 0.1612 0.0
C72 C 0.85094 0.90744 0.10734 0.0
C73 C 0.82624 0.88206 0.088 0.0
C74 C 0.84109 0.90589 0.13773 0.0
C75 C 0.80749 0.87817 0.1493 0.0
C76 C 0.78175 0.85304 0.13064 0.0
C77 C 0.79065 0.8552 0.10016 0.0
H78 H 0.16325 0.94208 0.42466 0.0
H79 H 0.26816 0.85062 0.43987 0.0
H80 H 0.26046 0.89785 0.35361 0.0
H81 H 0.23865 0.81084 0.37091 0.0
C82 C 0.28056 0.80975 0.38078 0.0
O83 O 0.30114 0.84445 0.38531 0.0
H84 H 0.27636 0.79567 0.40232 0.0
C85 C 0.19363 0.92296 0.4165 0.0
C86 C 0.2112 0.9245 0.38712 0.0
C87 C 0.2142 0.89669 0.43548 0.0
C88 C 0.25271 0.87143 0.42525 0.0
C89 C 0.26829 0.87126 0.39557 0.0
C90 C 0.24758 0.8978 0.37644 0.0
H91 H 0.36832 0.58694 0.92182 0.0
H92 H 0.28294 0.64394 0.85391 0.0
H93 H 0.27996 0.6858 0.94198 0.0
H94 H 0.17519 0.69359 0.90922 0.0
C95 C 0.19231 0.69634 0.88659 0.0
O96 O 0.2492 0.69736 0.88773 0.0
H97 H 0.17842 0.67215 0.87376 0.0
C98 C 0.34265 0.60957 0.91537 0.0
C99 C 0.32614 0.63575 0.93619 0.0
C100 C 0.32648 0.61202 0.88599 0.0
C101 C 0.29518 0.64172 0.87669 0.0
C102 C 0.27905 0.66851 0.8969 0.0
C103 C 0.29416 0.66539 0.92656 0.0
Tb104 Tb 0.08028 0.11481 0.22769 0.0
C105 C 0.83994 0.09397 0.27557 0.0
N106 N 0.87097 0.12492 0.27462 0.0
C107 C 0.79333 0.15842 0.25713 0.0
C108 C 0.78437 0.09388 0.26673 0.0
C109 C 0.84847 0.15707 0.26591 0.0
C110 C 0.76117 0.12667 0.25742 0.0
C111 C 0.83406 0.02938 0.28612 0.0
C112 C 0.86462 0.06217 0.28501 0.0
C113 C 0.77876 0.02899 0.27705 0.0
C114 C 0.75394 0.06118 0.26743 0.0
Tb115 Tb 0.96027 0.11964 0.28919 0.0
N116 N 0.91844 0.06357 0.29331 0.0
C117 C 0.85975 0.99811 0.29675 0.0
C118 C 0.94208 0.03377 0.30586 0.0
C119 C 0.91373 1.00048 0.30708 0.0
H120 H 0.87278 0.18183 0.2661 0.0
H121 H 0.9332 0.97683 0.31654 0.0
H122 H 0.16476 0.05032 0.25152 0.0
H123 H 0.11112 0.25838 0.20646 0.0
H124 H 0.98195 0.03549 0.31596 0.0
H125 H 0.83777 0.97234 0.29792 0.0
H126 H 0.06081 0.20022 0.20501 0.0
H127 H 0.77563 0.18396 0.25019 0.0
H128 H 0.75469 1.00402 0.27766 0.0
H129 H 0.71117 0.06051 0.26066 0.0
H130 H 0.25982 0.04683 0.27009 0.0
H131 H 0.71851 0.1278 0.25053 0.0
H132 H 0.20566 0.2609 0.22653 0.0
N133 N 0.16732 0.10776 0.24546 0.0
C134 C 0.19902 0.13848 0.24588 0.0
C135 C 0.24304 0.07284 0.26362 0.0
C136 C 0.25395 0.13762 0.25573 0.0
C137 C 0.18877 0.07501 0.25361 0.0
C138 C 0.27575 0.10428 0.26479 0.0
N139 N 0.12171 0.17092 0.22836 0.0
C140 C 0.09974 0.20135 0.21606 0.0
C141 C 0.20694 0.20349 0.23726 0.0
C142 C 0.1754 0.1711 0.23715 0.0
C143 C 0.18274 0.23546 0.22697 0.0
C144 C 0.12921 0.23423 0.21587 0.0
H145 H 0.31784 0.10247 0.27248 0.0
H146 H 0.32753 0.16987 0.26376 0.0
H147 H 0.28661 0.22744 0.24731 0.0
O148 O 0.0812 0.12762 0.18243 0.0
O149 O 0.09974 0.1337 0.27234 0.0
O150 O 0.02226 0.16326 0.28779 0.0
O151 O 0.13416 0.08641 0.19998 0.0
O152 O 0.00546 0.14625 0.21718 0.0
O153 O 0.97526 0.16756 0.26219 0.0
O154 O 0.96369 0.11068 0.33518 0.0
O155 O 0.93794 0.09747 0.24549 0.0
O156 O 0.01718 0.07194 0.22542 0.0
O157 O 0.92025 0.15617 0.31723 0.0
O158 O 0.03437 0.08675 0.29688 0.0
O159 O 0.06406 0.06448 0.25176 0.0
C160 C 0.07571 0.15881 0.28823 0.0
C161 C 0.11691 0.08369 0.14913 0.0
C162 C 0.14182 0.08061 0.0974 0.0
C163 C 0.12706 0.04361 0.09702 0.0
C164 C 0.10169 0.04673 0.14851 0.0
C165 C 0.10679 0.02683 0.12245 0.0
C166 C 0.13638 0.10063 0.12343 0.0
C167 C 0.97589 0.1687 0.23341 0.0
C168 C 0.11974 0.10417 0.17672 0.0
C169 C 0.28517 0.16997 0.25631 0.0
C170 C 0.26178 0.20279 0.24704 0.0
C171 C 0.96317 0.07331 0.2288 0.0
C172 C 0.8895 0.13542 0.3634 0.0
C173 C 0.86014 0.14013 0.41467 0.0
C174 C 0.805 0.13733 0.40567 0.0
C175 C 0.834 0.13238 0.35497 0.0
C176 C 0.90253 0.13925 0.39343 0.0
C177 C 0.79209 0.13349 0.37603 0.0
C178 C 0.05914 0.06195 0.2805 0.0
C179 C 0.93336 0.13894 0.34102 0.0
H180 H 0.13171 0.02771 0.0771 0.0
H181 H 0.0873 0.03312 0.16824 0.0
H182 H 0.09591 0.99819 0.12209 0.0
H183 H 0.14902 0.12904 0.1239 0.0
H184 H 0.77182 0.13829 0.4217 0.0
H185 H 0.82289 0.13009 0.33206 0.0
H186 H 0.94518 0.14194 0.40019 0.0
H187 H 0.7494 0.13171 0.36934 0.0
Tb188 Tb 0.44914 0.40886 0.73458 0.0
C189 C 0.69588 0.42994 0.77654 0.0
N190 N 0.66417 0.39933 0.77527 0.0
C191 C 0.73979 0.36656 0.75396 0.0
C192 C 0.75046 0.43041 0.76575 0.0
C193 C 0.68575 0.36753 0.76491 0.0
C194 C 0.77214 0.39822 0.75411 0.0
C195 C 0.70492 0.49303 0.79148 0.0
C196 C 0.67331 0.46082 0.78898 0.0
C197 C 0.75888 0.49406 0.78006 0.0
C198 C 0.7816 0.4628 0.7672 0.0
Tb199 Tb 0.57569 0.40452 0.79241 0.0
N200 N 0.62072 0.45884 0.79934 0.0
C201 C 0.68178 0.52286 0.80606 0.0
C202 C 0.59981 0.48676 0.81563 0.0
C203 C 0.6294 0.51942 0.81872 0.0
H204 H 0.66172 0.34269 0.76539 0.0
H205 H 0.61205 0.54174 0.83119 0.0
H206 H 0.36422 0.47385 0.75814 0.0
H207 H 0.41886 0.26547 0.71417 0.0
H208 H 0.56089 0.48378 0.82691 0.0
H209 H 0.70469 0.54811 0.80856 0.0
H210 H 0.46891 0.32397 0.71236 0.0
H211 H 0.75653 0.34135 0.74554 0.0
H212 H 0.78368 0.51866 0.78153 0.0
H213 H 0.82352 0.46381 0.75884 0.0
H214 H 0.2693 0.47734 0.77748 0.0
H215 H 0.81397 0.39737 0.74565 0.0
H216 H 0.32505 0.26264 0.73579 0.0
N217 N 0.36232 0.41616 0.7531 0.0
C218 C 0.33129 0.38522 0.75476 0.0
C219 C 0.28638 0.45122 0.77138 0.0
C220 C 0.2765 0.38607 0.76514 0.0
C221 C 0.34051 0.44906 0.76082 0.0
C222 C 0.25427 0.4196 0.77365 0.0
N223 N 0.40844 0.35278 0.73658 0.0
C224 C 0.43029 0.32249 0.72391 0.0
C225 C 0.32377 0.32004 0.74674 0.0
C226 C 0.35504 0.35251 0.74613 0.0
C227 C 0.34785 0.28813 0.73599 0.0
C228 C 0.40099 0.28953 0.72402 0.0
H229 H 0.21224 0.42141 0.7817 0.0
H230 H 0.20341 0.35366 0.77437 0.0
H231 H 0.24452 0.29596 0.75793 0.0
O232 O 0.45013 0.39639 0.68908 0.0
O233 O 0.43342 0.38856 0.77923 0.0
O234 O 0.51466 0.36101 0.78865 0.0
O235 O 0.39222 0.4344 0.70728 0.0
O236 O 0.52506 0.37993 0.72087 0.0
O237 O 0.56164 0.35749 0.76384 0.0
O238 O 0.57079 0.40986 0.83896 0.0
O239 O 0.59217 0.43364 0.75053 0.0
O240 O 0.50811 0.45383 0.73203 0.0
O241 O 0.61766 0.36732 0.81836 0.0
O242 O 0.50237 0.43769 0.80348 0.0
O243 O 0.46261 0.45865 0.76003 0.0
C244 C 0.46238 0.3653 0.79414 0.0
C245 C 0.40766 0.43818 0.65593 0.0
C246 C 0.39156 0.43676 0.6031 0.0
C247 C 0.38317 0.47452 0.60349 0.0
C248 C 0.40035 0.47613 0.65578 0.0
C249 C 0.38815 0.49411 0.62964 0.0
C250 C 0.40428 0.41867 0.62933 0.0
C251 C 0.55803 0.35772 0.73507 0.0
C252 C 0.40887 0.4178 0.68375 0.0
C253 C 0.24567 0.35358 0.7665 0.0
C254 C 0.26916 0.32068 0.75723 0.0
C255 C 0.56212 0.45653 0.73509 0.0
C256 C 0.64436 0.38269 0.86689 0.0
C257 C 0.66464 0.38576 0.91942 0.0
C258 C 0.71565 0.36917 0.91402 0.0
C259 C 0.6964 0.36681 0.86213 0.0
C260 C 0.62897 0.39275 0.89578 0.0
C261 C 0.73154 0.36006 0.88556 0.0
C262 C 0.47376 0.46169 0.78829 0.0
C263 C 0.60289 0.38204 0.84308 0.0
H264 H 0.37265 0.48881 0.5835 0.0
H265 H 0.40204 0.49172 0.67598 0.0
H266 H 0.38134 0.52321 0.62977 0.0
H267 H 0.40891 0.38931 0.62925 0.0
H268 H 0.74319 0.36306 0.932 0.0
H269 H 0.70929 0.35814 0.84042 0.0
H270 H 0.58862 0.40419 0.90003 0.0
H271 H 0.77076 0.34694 0.88173 0.0
Tb272 Tb 0.0931 0.90864 0.73304 0.0
C273 C 0.84207 0.8875 0.7805 0.0
N274 N 0.87331 0.91815 0.78268 0.0
C275 C 0.79412 0.95452 0.7718 0.0
C276 C 0.78592 0.88895 0.77281 0.0
C277 C 0.84979 0.95153 0.77936 0.0
C278 C 0.76219 0.92305 0.7681 0.0
C279 C 0.83603 0.82193 0.78478 0.0
C280 C 0.86663 0.85463 0.78638 0.0
C281 C 0.78043 0.82293 0.77628 0.0
C282 C 0.75541 0.85642 0.77029 0.0
Tb283 Tb 0.96524 0.91037 0.79177 0.0
N284 N 0.92094 0.85486 0.79356 0.0
C285 C 0.86216 0.78935 0.79203 0.0
C286 C 0.94545 0.82347 0.8025 0.0
C287 C 0.91686 0.79024 0.80145 0.0
H288 H 0.87393 0.97602 0.78277 0.0
H289 H 0.93692 0.76539 0.80815 0.0
H290 H 0.18179 0.84758 0.75843 0.0
H291 H 0.10484 0.05582 0.72334 0.0
H292 H 0.98649 0.82379 0.81107 0.0
H293 H 0.84014 0.76359 0.79116 0.0
H294 H 0.05712 0.997 0.72452 0.0
H295 H 0.77595 0.98108 0.76883 0.0
H296 H 0.75632 0.79807 0.77461 0.0
H297 H 0.71234 0.85689 0.76408 0.0
H298 H 0.27978 0.84683 0.77249 0.0
H299 H 0.71918 0.9254 0.76212 0.0
H300 H 0.20467 0.05943 0.73373 0.0
N301 N 0.1804 0.90454 0.75067 0.0
C302 C 0.21007 0.93612 0.74941 0.0
C303 C 0.26052 0.87219 0.76637 0.0
C304 C 0.26647 0.93685 0.7567 0.0
C305 C 0.20464 0.87277 0.75902 0.0
C306 C 0.29163 0.90432 0.76512 0.0
N307 N 0.12817 0.96659 0.73569 0.0
C308 C 0.10019 0.99764 0.72917 0.0
C309 C 0.21238 1.00146 0.74112 0.0
C310 C 0.18325 0.96809 0.74157 0.0
C311 C 0.18376 0.03326 0.73433 0.0
C312 C 0.12739 0.03133 0.72851 0.0
H313 H 0.33501 0.90371 0.77067 0.0
H314 H 0.33936 0.97096 0.76073 0.0
H315 H 0.29201 0.02747 0.74723 0.0
O316 O 0.09907 0.92303 0.68818 0.0
O317 O 0.10616 0.93289 0.77681 0.0
O318 O 0.0207 0.95449 0.78161 0.0
O319 O 0.15084 0.88185 0.70668 0.0
O320 O 0.01735 0.93444 0.71802 0.0
O321 O 0.96026 0.95256 0.75706 0.0
O322 O 0.9682 0.89848 0.8374 0.0
O323 O 0.94975 0.88063 0.75146 0.0
O324 O 0.03116 0.86459 0.72668 0.0
O325 O 0.93892 0.94978 0.82201 0.0
O326 O 0.04277 0.88052 0.8013 0.0
O327 O 0.07823 0.85881 0.75729 0.0
C328 C 0.07137 0.9543 0.79027 0.0
C329 C 0.13229 0.87692 0.65632 0.0
C330 C 0.14538 0.87154 0.60349 0.0
C331 C 0.1355 0.83385 0.60561 0.0
C332 C 0.12167 0.83929 0.65799 0.0
C333 C 0.12362 0.81791 0.6327 0.0
C334 C 0.14393 0.893 0.629 0.0
C335 C 0.9751 0.95263 0.72886 0.0
C336 C 0.13722 0.89907 0.68302 0.0
C337 C 0.29585 0.96992 0.75546 0.0
C338 C 0.26888 1.00212 0.74774 0.0
C339 C 0.97704 0.86273 0.73109 0.0
C340 C 0.8999 0.92862 0.86666 0.0
C341 C 0.86778 0.92556 0.9177 0.0
C342 C 0.81478 0.93523 0.90854 0.0
C343 C 0.84613 0.93803 0.85823 0.0
C344 C 0.91055 0.9222 0.89671 0.0
C345 C 0.80407 0.94132 0.87899 0.0
C346 C 0.07034 0.856 0.78577 0.0
C347 C 0.94565 0.92921 0.84483 0.0
H348 H 0.13802 0.81659 0.58633 0.0
H349 H 0.11323 0.82628 0.67889 0.0
H350 H 0.11673 0.78881 0.63414 0.0
H351 H 0.15262 0.92198 0.62766 0.0
H352 H 0.78171 0.93849 0.92442 0.0
H353 H 0.83647 0.94381 0.83571 0.0
H354 H 0.9519 0.91564 0.90379 0.0
H355 H 0.76316 0.94918 0.87217 0.0
Tb356 Tb 0.46094 0.62214 0.2335 0.0
C357 C 0.70186 0.63476 0.28376 0.0
N358 N 0.66898 0.60462 0.28306 0.0
C359 C 0.74614 0.56783 0.26926 0.0
C360 C 0.75808 0.63275 0.27598 0.0
C361 C 0.69045 0.57122 0.27684 0.0
C362 C 0.78001 0.59876 0.26857 0.0
C363 C 0.71108 0.69997 0.29142 0.0
C364 C 0.67864 0.66796 0.29172 0.0
C365 C 0.76701 0.69812 0.28338 0.0
C366 C 0.79049 0.6646 0.27581 0.0
Tb367 Tb 0.57994 0.61357 0.29676 0.0
N368 N 0.62392 0.66893 0.2988 0.0
C369 C 0.68627 0.73296 0.299 0.0
C370 C 0.60011 0.70095 0.30715 0.0
C371 C 0.63067 0.73338 0.30706 0.0
H372 H 0.66487 0.54703 0.27785 0.0
H373 H 0.61135 0.75871 0.31339 0.0
H374 H 0.36724 0.68411 0.25225 0.0
H375 H 0.42581 0.48638 0.19188 0.0
H376 H 0.55795 0.70204 0.31423 0.0
H377 H 0.70973 0.75819 0.29893 0.0
H378 H 0.47663 0.54459 0.1981 0.0
H379 H 0.76292 0.54135 0.26401 0.0
H380 H 0.79252 0.72247 0.28299 0.0
H381 H 0.83374 0.66363 0.26977 0.0
H382 H 0.27259 0.68524 0.27209 0.0
H383 H 0.82309 0.59605 0.26256 0.0
H384 H 0.33316 0.47851 0.21433 0.0
N385 N 0.37098 0.62647 0.24967 0.0
C386 C 0.34038 0.59539 0.24923 0.0
C387 C 0.29158 0.65954 0.2665 0.0
C388 C 0.28518 0.5946 0.25914 0.0
C389 C 0.34599 0.65876 0.25613 0.0
C390 C 0.26142 0.62713 0.26875 0.0
N391 N 0.41473 0.56846 0.22495 0.0
C392 C 0.43659 0.54115 0.20822 0.0
C393 C 0.33189 0.53293 0.23273 0.0
C394 C 0.36279 0.56531 0.23589 0.0
C395 C 0.35545 0.50393 0.21723 0.0
C396 C 0.40772 0.50829 0.20451 0.0
H397 H 0.21901 0.62783 0.27636 0.0
H398 H 0.21256 0.56059 0.26545 0.0
H399 H 0.25387 0.50626 0.2426 0.0
O400 O 0.47368 0.61842 0.18739 0.0
O401 O 0.46231 0.57369 0.26176 0.0
O402 O 0.49477 0.59572 0.30551 0.0
O403 O 0.42233 0.65948 0.20582 0.0
O404 O 0.53927 0.59501 0.22261 0.0
O405 O 0.57034 0.56814 0.26591 0.0
O406 O 0.60588 0.62444 0.34011 0.0
O407 O 0.60153 0.63847 0.2543 0.0
O408 O 0.52016 0.66552 0.24356 0.0
O409 O 0.6024 0.5688 0.32294 0.0
O410 O 0.50801 0.64526 0.30966 0.0
O411 O 0.45797 0.66415 0.26851 0.0
C412 C 0.46645 0.57164 0.29043 0.0
C413 C 0.39584 0.63723 0.15982 0.0
C414 C 0.3634 0.63947 0.10924 0.0
C415 C 0.31009 0.63037 0.11901 0.0
C416 C 0.34213 0.62785 0.16904 0.0
C417 C 0.29959 0.62461 0.14875 0.0
C418 C 0.40642 0.643 0.12971 0.0
C419 C 0.56736 0.57005 0.23703 0.0
C420 C 0.43915 0.6443 0.18177 0.0
C421 C 0.25478 0.5619 0.25757 0.0
C422 C 0.2782 0.53102 0.24444 0.0
C423 C 0.57348 0.66286 0.23979 0.0
C424 C 0.63364 0.57611 0.37358 0.0
C425 C 0.66088 0.58563 0.42458 0.0
C426 C 0.66872 0.54801 0.42756 0.0
C427 C 0.64207 0.53855 0.37707 0.0
C428 C 0.6435 0.59979 0.3975 0.0
C429 C 0.65954 0.52468 0.40391 0.0
C430 C 0.47082 0.66581 0.29678 0.0
C431 C 0.61376 0.59 0.34514 0.0
H432 H 0.27643 0.62798 0.10354 0.0
H433 H 0.33262 0.6239 0.19203 0.0
H434 H 0.25822 0.61797 0.15614 0.0
H435 H 0.44751 0.65055 0.12231 0.0
H436 H 0.68244 0.53674 0.44823 0.0
H437 H 0.635 0.5198 0.35908 0.0
H438 H 0.63741 0.62887 0.39522 0.0
H439 H 0.66597 0.49571 0.40641 0.0
H440 H 0.16999 0.92041 0.33129 0.0
H441 H 0.20657 0.99585 0.40145 0.0
H442 H 0.16208 0.04474 0.37474 0.0
H443 H 0.10945 0.06567 0.33276 0.0
H444 H 0.07477 0.99231 0.26114 0.0
H445 H 0.12218 0.94299 0.28691 0.0
C446 C 0.16901 0.94771 0.34039 0.0
C447 C 0.19084 0.95444 0.36845 0.0
C448 C 0.14334 0.97593 0.32482 0.0
C449 C 0.18918 0.9899 0.38009 0.0
C450 C 0.16381 0.01789 0.36486 0.0
C451 C 0.11215 0.03883 0.32286 0.0
C452 C 0.08829 0.03231 0.29541 0.0
C453 C 0.13993 1.01106 0.33751 0.0
C454 C 0.09289 0.99773 0.28242 0.0
C455 C 0.11993 0.96963 0.29711 0.0
H456 H 0.4168 0.60974 0.85124 0.0
H457 H 0.27193 0.54858 0.87626 0.0
H458 H 0.30478 0.49575 0.84821 0.0
H459 H 0.37899 0.46568 0.81976 0.0
H460 H 0.51792 0.52943 0.78974 0.0
H461 H 0.48494 0.58216 0.81757 0.0
C462 C 0.39221 0.58499 0.85002 0.0
C463 C 0.34224 0.58271 0.86554 0.0
C464 C 0.41131 0.55497 0.83384 0.0
C465 C 0.31055 0.55063 0.86426 0.0
C466 C 0.32949 0.52047 0.84846 0.0
C467 C 0.40153 0.4913 0.81918 0.0
C468 C 0.4517 0.49363 0.80375 0.0
C469 C 0.38044 0.52207 0.83371 0.0
C470 C 0.4802 0.52693 0.80245 0.0
C471 C 0.46103 0.55711 0.81804 0.0
H472 H 0.62563 0.59764 0.66351 0.0
H473 H 0.78343 0.54491 0.65977 0.0
H474 H 0.74832 0.49547 0.69122 0.0
H475 H 0.67005 0.46536 0.71712 0.0
H476 H 0.51309 0.5201 0.72094 0.0
H477 H 0.55058 0.57062 0.69267 0.0
C478 C 0.65232 0.57546 0.6699 0.0
C479 C 0.70678 0.57464 0.65945 0.0
C480 C 0.63192 0.5474 0.68795 0.0
C481 C 0.74134 0.54599 0.66781 0.0
C482 C 0.72121 0.51773 0.68566 0.0
C483 C 0.64439 0.48855 0.71206 0.0
C484 C 0.58855 0.48844 0.72066 0.0
C485 C 0.66622 0.51784 0.69554 0.0
C486 C 0.55588 0.5189 0.71403 0.0
C487 C 0.57726 0.54799 0.69789 0.0
H488 H 0.81397 0.9769 0.1454 0.0
H489 H 0.92657 0.89437 0.17438 0.0
H490 H 0.97353 0.93883 0.20594 0.0
H491 H 0.98464 1.00173 0.22372 0.0
H492 H 0.86833 0.08369 0.19794 0.0
H493 H 0.82019 0.03908 0.16681 0.0
C494 C 0.84867 0.96884 0.15878 0.0
C495 C 0.86744 0.93271 0.15753 0.0
C496 C 0.87459 0.99441 0.17733 0.0
C497 C 0.91191 0.92217 0.17503 0.0
C498 C 0.93863 0.94754 0.19301 0.0
C499 C 0.94849 1.00967 0.2114 0.0
C500 C 0.93025 0.04589 0.21272 0.0
C501 C 0.92067 0.98378 0.19411 0.0
C502 C 0.88293 0.05588 0.19717 0.0
C503 C 0.85567 0.03045 0.17931 0.0
H504 H 0.91547 0.06956 0.63361 0.0
H505 H 0.7666 0.07682 0.68602 0.0
H506 H 0.80283 0.03154 0.71978 0.0
H507 H 0.87672 0.98961 0.73388 0.0
H508 H 0.01715 0.97608 0.67638 0.0
H509 H 0.98256 0.02301 0.64434 0.0
C510 C 0.88967 0.06074 0.65179 0.0
C511 C 0.83806 0.077 0.65692 0.0
C512 C 0.90914 0.03327 0.67021 0.0
C513 C 0.80698 0.06567 0.68157 0.0
C514 C 0.82739 0.03937 0.70081 0.0
C515 C 0.89971 0.9966 0.71449 0.0
C516 C 0.95011 0.9794 0.70835 0.0
C517 C 0.87853 0.02299 0.69533 0.0
C518 C 0.97846 0.98878 0.68225 0.0
C519 C 0.95883 0.01584 0.66377 0.0
H520 H 0.72837 0.47916 0.15679 0.0
H521 H 0.59522 0.40147 0.1648 0.0
H522 H 0.54537 0.44267 0.1977 0.0
H523 H 0.53917 0.5012 0.2236 0.0
H524 H 0.66756 0.5816 0.21226 0.0
H525 H 0.72109 0.53883 0.18216 0.0
C526 C 0.68855 0.47147 0.16592 0.0
C527 C 0.66512 0.4376 0.15871 0.0
C528 C 0.65981 0.4956 0.18439 0.0
C529 C 0.61361 0.42755 0.17035 0.0
C530 C 0.58528 0.45101 0.1891 0.0
C531 C 0.57873 0.50923 0.21432 0.0
C532 C 0.59973 0.54415 0.21979 0.0
C533 C 0.60783 0.48513 0.19616 0.0
C534 C 0.65101 0.5546 0.20806 0.0
C535 C 0.68138 0.53027 0.19086 0.0
H536 H 0.35621 0.42598 0.33711 0.0
H537 H 0.35582 0.48791 0.41798 0.0
H538 H 0.40166 0.53829 0.39331 0.0
H539 H 0.43988 0.5662 0.34853 0.0
H540 H 0.43542 0.50612 0.26715 0.0
H541 H 0.39132 0.45469 0.29195 0.0
C542 C 0.36523 0.4506 0.34939 0.0
C543 C 0.3528 0.45241 0.37967 0.0
C544 C 0.39012 0.48035 0.33481 0.0
C545 C 0.36603 0.48475 0.39496 0.0
C546 C 0.39181 0.51402 0.38076 0.0
C547 C 0.42937 0.54182 0.33624 0.0
C548 C 0.44036 0.5403 0.3059 0.0
C549 C 0.40399 0.5122 0.3507 0.0
C550 C 0.42637 0.50844 0.29035 0.0
C551 C 0.40154 0.47881 0.3046 0.0
H552 H 0.11465 0.09382 0.86758 0.0
H553 H 0.28122 0.05428 0.8641 0.0
H554 H 0.25137 1.00237 0.83371 0.0
H555 H 0.17669 0.96795 0.80906 0.0
H556 H 0.01068 1.00995 0.81217 0.0
H557 H 0.04146 0.06115 0.8417 0.0
C558 C 0.14426 0.07381 0.86001 0.0
C559 C 0.19973 0.07747 0.86786 0.0
C560 C 0.12688 0.04451 0.84261 0.0
C561 C 0.23823 0.05178 0.85801 0.0
C562 C 0.22114 0.02218 0.8408 0.0
C563 C 0.14735 0.98832 0.8162 0.0
C564 C 0.09142 0.98485 0.80856 0.0
C565 C 0.1654 0.01816 0.83309 0.0
C566 C 0.0539 0.01159 0.81793 0.0
C567 C 0.07141 0.04106 0.83478 0.0
H568 H 0.27013 0.12312 0.98228 0.0
H569 H 0.10569 0.15006 0.95501 0.0
H570 H 0.07087 0.13926 1.00495 0.0
H571 H 0.08573 0.11447 0.05458 0.0
H572 H 0.24918 0.0839 0.08095 0.0
H573 H 0.28648 0.10394 0.0334 0.0
C574 C 0.22696 0.1273 0.98762 0.0
C575 C 0.19027 0.13735 0.96541 0.0
C576 C 0.2072 0.11992 0.01605 0.0
C577 C 0.13432 0.14237 0.97207 0.0
C578 C 0.11452 0.13604 1.00048 0.0
C579 C 0.12957 0.11286 0.0499 0.0
C580 C 0.16487 0.09765 0.07076 0.0
C581 C 0.15025 0.12365 0.02238 0.0
C582 C 0.22158 0.09552 0.0649 0.0
C583 C 0.24275 0.10685 0.03778 0.0
H584 H 0.40365 0.38317 0.47269 0.0
H585 H 0.22701 0.38953 0.4822 0.0
H586 H 0.23674 0.40083 0.53486 0.0
H587 H 0.29624 0.41831 0.57645 0.0
H588 H 0.47269 0.41171 0.56729 0.0
H589 H 0.46266 0.39063 0.51641 0.0
C590 C 0.36737 0.38629 0.48649 0.0
C591 C 0.31473 0.38601 0.47362 0.0
C592 C 0.37337 0.39311 0.51671 0.0
C593 C 0.26791 0.3896 0.49166 0.0
C594 C 0.27349 0.39637 0.52172 0.0
C595 C 0.33227 0.41136 0.56341 0.0
C596 C 0.3851 0.41675 0.57519 0.0
C597 C 0.32605 0.39958 0.53423 0.0
C598 C 0.43171 0.40772 0.55842 0.0
C599 C 0.42594 0.39591 0.52936 0.0
H600 H 0.68303 0.43672 0.04945 0.0
H601 H 0.66362 0.3209 0.06282 0.0
H602 H 0.64094 0.31268 1.01127 0.0
H603 H 0.63969 0.33689 0.96123 0.0
H604 H 0.66036 0.45194 0.94666 0.0
H605 H 0.6669 0.46233 0.99985 0.0
C606 C 0.67286 0.4098 0.04118 0.0
C607 C 0.67677 0.37931 0.05984 0.0
C608 C 0.65968 0.40518 1.01128 0.0
C609 C 0.66299 0.34467 0.04876 0.0
C610 C 0.64944 0.33994 0.01931 0.0
C611 C 0.64377 0.36434 0.96987 0.0
C612 C 0.64974 0.39361 0.95031 0.0
C613 C 0.64953 0.36977 1.00019 0.0
C614 C 0.65531 0.42909 0.96148 0.0
C615 C 0.65983 0.4349 0.99182 0.0
H616 H 0.85525 0.18489 0.54794 0.0
H617 H 0.80916 0.07131 0.55472 0.0
H618 H 0.83015 0.0622 0.50317 0.0
H619 H 0.85031 0.08732 0.45475 0.0
H620 H 0.89151 0.20086 0.44548 0.0
H621 H 0.88463 0.20914 0.49902 0.0
C622 C 0.84966 0.15825 0.53805 0.0
C623 C 0.83039 0.12892 0.5554 0.0
C624 C 0.86102 0.15312 0.50783 0.0
C625 C 0.82435 0.09439 0.54221 0.0
C626 C 0.83615 0.08907 0.51258 0.0
C627 C 0.85917 0.11363 0.46463 0.0
C628 C 0.87134 0.1434 0.44647 0.0
C629 C 0.85325 0.1183 0.49506 0.0
C630 C 0.8825 0.17749 0.45925 0.0
C631 C 0.87784 0.18228 0.48977 0.0
H632 H 0.85375 0.94172 0.05387 0.0
H633 H 0.82665 0.82535 0.04789 0.0
H634 H 0.84225 0.82791 0.99515 0.0
H635 H 0.85876 0.86373 0.94987 0.0
H636 H 0.89222 0.97871 0.95667 0.0
H637 H 0.88243 0.97564 1.01019 0.0
C638 C 0.8526 0.91653 0.04149 0.0
C639 C 0.83814 0.88343 0.0555 0.0
C640 C 0.86384 0.91781 1.01114 0.0
C641 C 0.83578 0.85158 0.03815 0.0
C642 C 0.84555 0.85283 1.00783 0.0
C643 C 0.86561 0.88777 0.96328 0.0
C644 C 0.8769 0.92131 0.94958 0.0
C645 C 0.85906 0.88584 0.99402 0.0
C646 C 0.88446 0.95254 0.96693 0.0
C647 C 0.87813 0.95083 0.99744 0.0
H648 H 0.7734 0.64359 0.53705 0.0
H649 H 0.61297 0.61779 0.57349 0.0
H650 H 0.57677 0.60825 0.5242 0.0
H651 H 0.59507 0.59734 0.47156 0.0
H652 H 0.75465 0.6238 0.43526 0.0
H653 H 0.78622 0.6446 0.48354 0.0
C654 C 0.73013 0.63686 0.53433 0.0
C655 C 0.69658 0.63023 0.55917 0.0
C656 C 0.70938 0.63159 0.50585 0.0
C657 C 0.64049 0.62162 0.55491 0.0
C658 C 0.61953 0.61646 0.52668 0.0
C659 C 0.63604 0.60894 0.47415 0.0
C660 C 0.6727 0.60906 0.45017 0.0
C661 C 0.6542 0.61985 0.50209 0.0
C662 C 0.72583 0.62378 0.45353 0.0
C663 C 0.744 0.6352 0.48117 0.0
H664 H 0.34918 0.6885 0.9776 0.0
H665 H 0.33571 0.57172 0.96673 0.0
H666 H 0.35715 0.56296 0.01808 0.0
H667 H 0.36836 0.58796 0.06757 0.0
H668 H 0.37393 0.70404 0.08034 0.0
H669 H 0.36617 0.7136 0.02713 0.0
C670 C 0.35051 0.66112 0.98641 0.0
C671 C 0.3407 0.63095 0.96787 0.0
C672 C 0.36113 0.65609 0.01653 0.0
C673 C 0.34394 0.59567 0.97992 0.0
C674 C 0.35575 0.59049 1.00954 0.0
C675 C 0.36932 0.61527 0.05848 0.0
C676 C 0.37222 0.64525 0.0775 0.0
C677 C 0.36316 0.62043 0.02816 0.0
C678 C 0.37267 0.68062 0.06585 0.0
C679 C 0.3676 0.68602 0.03552 0.0
H680 H 0.2603 0.92045 0.48605 0.0
H681 H 0.11606 0.86772 0.45051 0.0
H682 H 0.07742 0.86033 0.49995 0.0
H683 H 0.08935 0.86329 0.55314 0.0
H684 H 0.23375 0.91508 0.58946 0.0
H685 H 0.26706 0.92982 0.53988 0.0
C686 C 0.22042 0.90748 0.48939 0.0
C687 C 0.19125 0.89384 0.46521 0.0
C688 C 0.19856 0.90347 0.51781 0.0
C689 C 0.13918 0.87776 0.46919 0.0
C690 C 0.11714 0.8737 0.4973 0.0
C691 C 0.12779 0.87818 0.55012 0.0
C692 C 0.15974 0.88739 0.57463 0.0
C693 C 0.14709 0.88563 0.52176 0.0
C694 C 0.20874 0.90752 0.57074 0.0
C695 C 0.228 0.91561 0.54246 0.0
H696 H 0.25875 0.24378 0.35837 0.0
H697 H 0.14313 0.33153 0.34927 0.0
H698 H 0.0773 0.29007 0.32544 0.0
H699 H 0.05528 0.22918 0.30452 0.0
H700 H 0.17467 0.14311 0.31192 0.0
H701 H 0.23631 0.18348 0.33899 0.0
C702 C 0.2187 0.25365 0.35163 0.0
C703 C 0.20533 0.29036 0.35626 0.0
C704 C 0.18197 0.22998 0.33734 0.0
C705 C 0.15395 0.30315 0.34662 0.0
C706 C 0.11647 0.2795 0.33281 0.0
C707 C 0.09454 0.21926 0.31241 0.0
C708 C 0.11058 0.18326 0.30615 0.0
C709 C 0.13035 0.2429 0.32771 0.0
C710 C 0.1617 0.1708 0.3162 0.0
C711 C 0.19691 0.19383 0.33176 0.0
H712 H 0.32799 0.27181 0.88605 0.0
H713 H 0.41273 0.1849 0.84139 0.0
H714 H 0.45606 0.22878 0.80788 0.0
H715 H 0.47376 0.29231 0.79316 0.0
H716 H 0.38508 0.37908 0.83567 0.0
H717 H 0.33947 0.33504 0.86841 0.0
C718 C 0.35586 0.26267 0.86889 0.0
C719 C 0.36832 0.22547 0.86649 0.0
C720 C 0.38019 0.28801 0.84962 0.0
C721 C 0.40351 0.21356 0.8439 0.0
C722 C 0.42822 0.23859 0.82479 0.0
C723 C 0.44444 0.3014 0.80966 0.0
C724 C 0.43323 0.33866 0.81261 0.0
C725 C 0.41767 0.27592 0.82781 0.0
C726 C 0.39429 0.35037 0.83336 0.0
C727 C 0.36836 0.32527 0.852 0.0
H728 H 0.65866 0.21134 0.68563 0.0
H729 H 0.77783 0.28756 0.65059 0.0
H730 H 0.72356 0.33849 0.66906 0.0
H731 H 0.64487 0.36172 0.69772 0.0
H732 H 0.53257 0.28563 0.73855 0.0
H733 H 0.5793 0.23471 0.71448 0.0
C734 C 0.67184 0.23916 0.68147 0.0
C735 C 0.72171 0.2457 0.66627 0.0
C736 C 0.64111 0.26846 0.693 0.0
C737 C 0.7391 0.28184 0.66168 0.0
C738 C 0.70823 0.31101 0.6724 0.0
C739 C 0.63025 0.33399 0.70082 0.0
C740 C 0.58427 0.32743 0.71891 0.0
C741 C 0.65953 0.30471 0.68838 0.0
C742 C 0.56694 0.29134 0.72393 0.0
C743 C 0.59401 0.2622 0.7104 0.0
H744 H 0.90664 0.32262 0.18666 0.0
H745 H 0.80037 0.25697 0.13222 0.0
H746 H 0.83476 0.20143 0.15558 0.0
H747 H 0.89881 0.17155 0.19032 0.0
H748 H 1.00009 0.23835 0.24655 0.0
H749 H 0.96498 0.29343 0.22338 0.0
C750 C 0.8909 0.29615 0.18003 0.0
C751 C 0.85128 0.29374 0.15775 0.0
C752 C 0.91069 0.26458 0.19357 0.0
C753 C 0.83109 0.25931 0.14932 0.0
C754 C 0.8508 0.22764 0.1626 0.0
C755 C 0.91302 0.19827 0.19729 0.0
C756 C 0.95265 0.20121 0.21953 0.0
C757 C 0.89126 0.2299 0.18447 0.0
C758 C 0.96984 0.23573 0.22922 0.0
C759 C 0.94982 0.26714 0.21601 0.0
H760 H 0.78886 0.77759 0.66553 0.0
H761 H 0.9192 0.70095 0.6493 0.0
H762 H 0.98451 0.74051 0.67562 0.0
H763 H 0.00397 0.79782 0.70369 0.0
H764 H 0.87093 0.87382 0.71725 0.0
H765 H 0.8077 0.8337 0.69177 0.0
C766 C 0.83151 0.7694 0.66802 0.0
C767 C 0.84878 0.73618 0.65613 0.0
C768 C 0.86857 0.79234 0.68264 0.0
C769 C 0.90448 0.72615 0.6588 0.0
C770 C 0.94192 0.74887 0.6737 0.0
C771 C 0.96133 0.80563 0.7007 0.0
C772 C 0.94223 0.83864 0.71268 0.0
C773 C 0.92446 0.78222 0.68569 0.0
C774 C 0.8867 0.84835 0.70872 0.0
C775 C 0.85032 0.82547 0.69406 0.0
H776 H 0.73494 0.76737 0.16861 0.0
H777 H 0.58672 0.83144 0.16459 0.0
H778 H 0.53612 0.78457 0.19183 0.0
H779 H 0.53379 0.72598 0.21731 0.0
H780 H 0.6815 0.66147 0.22189 0.0
H781 H 0.73223 0.70773 0.19396 0.0
C782 C 0.69159 0.77107 0.1736 0.0
C783 C 0.6645 0.80298 0.16446 0.0
C784 C 0.66258 0.74391 0.18944 0.0
C785 C 0.60833 0.80713 0.1713 0.0
C786 C 0.57938 0.78036 0.18688 0.0
C787 C 0.57703 0.72192 0.21213 0.0
C788 C 0.60376 0.69038 0.22192 0.0
C789 C 0.60603 0.74869 0.19611 0.0
C790 C 0.6599 0.68567 0.21494 0.0
C791 C 0.68899 0.71211 0.19887 0.0
H792 H 0.36145 0.76226 0.39607 0.0
H793 H 0.28333 0.81043 0.32094 0.0
H794 H 0.33818 0.77209 0.28793 0.0
H795 H 0.40675 0.72396 0.28082 0.0
H796 H 0.47641 0.67107 0.35653 0.0
H797 H 0.42946 0.71364 0.38878 0.0
C798 C 0.35679 0.76439 0.37245 0.0
C799 C 0.31805 0.78859 0.36079 0.0
C800 C 0.38737 0.74168 0.35374 0.0
C801 C 0.31277 0.79168 0.33023 0.0
C802 C 0.34399 0.76977 0.31143 0.0
C803 C 0.40992 0.72061 0.30431 0.0
C804 C 0.44307 0.69298 0.31598 0.0
C805 C 0.38071 0.7442 0.32297 0.0
C806 C 0.45023 0.69141 0.34667 0.0
C807 C 0.42329 0.71577 0.36529 0.0
H808 H 0.18659 0.71142 0.82814 0.0
H809 H 0.15025 0.75747 0.91304 0.0
H810 H 0.11013 0.81118 0.88971 0.0
H811 H 0.08288 0.84428 0.84492 0.0
H812 H 0.11533 0.79583 0.76012 0.0
H813 H 0.15968 0.7444 0.78351 0.0
C814 C 0.16999 0.73334 0.84144 0.0
C815 C 0.1707 0.73039 0.87219 0.0
C816 C 0.1463 0.76382 0.82786 0.0
C817 C 0.14971 0.75907 0.88929 0.0
C818 C 0.1267 0.78972 0.87595 0.0
C819 C 0.09961 0.82247 0.83157 0.0
C820 C 0.09623 0.82441 0.80074 0.0
C821 C 0.12421 0.79226 0.84523 0.0
C822 C 0.11783 0.79557 0.78387 0.0
C823 C 0.14317 0.76593 0.79722 0.0
loop_
_geom_bond_atom_site_label_1
_geom_bond_atom_site_label_2
_geom_bond_distance
_geom_bond_site_symmetry_2
_ccdc_geom_bond_type
H0 C7 0.929 . S
H1 C10 0.930 . S
H2 C12 0.929 . S
H3 C4 0.969 . S
C4 H3 0.969 . S
C4 O5 1.550 . S
C4 H6 0.973 . S
O5 C4 1.550 . S
O5 C11 1.412 . S
H6 C4 0.973 . S
C7 H0 0.929 . S
C7 C8 1.400 . S
C7 C9 1.364 . S
C8 C7 1.400 . S
C8 C12 1.377 . S
C9 C7 1.364 . S
C9 C10 1.374 . S
C10 H1 0.930 . S
C10 C9 1.374 . S
C10 C11 1.383 . S
C11 O5 1.412 . S
C11 C10 1.383 . S
C11 C12 1.394 . S
C12 H2 0.929 . S
C12 C8 1.377 . S
C12 C11 1.394 . S
H13 C20 0.929 . S
H14 C23 0.930 . S
H15 C25 0.929 . S
H16 C17 0.969 . S
C17 H16 0.969 . S
C17 O18 1.550 . S
C17 H19 0.973 . S
O18 C17 1.550 . S
O18 C24 1.412 . S
H19 C17 0.973 . S
C20 H13 0.929 . S
C20 C21 1.400 . S
C20 C22 1.364 . S
C21 C20 1.400 . S
C21 C25 1.377 . S
C22 C20 1.364 . S
C22 C23 1.374 . S
C23 H14 0.930 . S
C23 C22 1.374 . S
C23 C24 1.383 . S
C24 O18 1.412 . S
C24 C23 1.383 . S
C24 C25 1.394 . S
C25 H15 0.929 . S
C25 C21 1.377 . S
C25 C24 1.394 . S
H26 C33 0.929 . S
H27 C36 0.930 . S
H28 C38 0.929 . S
H29 C30 0.969 . S
C30 H29 0.969 . S
C30 O31 1.550 . S
C30 H32 0.973 . S
O31 C30 1.550 . S
O31 C37 1.412 . S
H32 C30 0.973 . S
C33 H26 0.929 . S
C33 C34 1.400 . S
C33 C35 1.364 . S
C34 C33 1.400 . S
C34 C38 1.377 . S
C35 C33 1.364 . S
C35 C36 1.374 . S
C36 H27 0.930 . S
C36 C35 1.374 . S
C36 C37 1.383 . S
C37 O31 1.412 . S
C37 C36 1.383 . S
C37 C38 1.394 . S
C38 H28 0.929 . S
C38 C34 1.377 . S
C38 C37 1.394 . S
H39 C46 0.929 . S
H40 C49 0.930 . S
H41 C51 0.929 . S
H42 C43 0.969 . S
C43 H42 0.969 . S
C43 O44 1.550 . S
C43 H45 0.973 . S
O44 C43 1.550 . S
O44 C50 1.412 . S
H45 C43 0.973 . S
C46 H39 0.929 . S
C46 C47 1.400 . S
C46 C48 1.364 . S
C47 C46 1.400 . S
C47 C51 1.377 . S
C48 C46 1.364 . S
C48 C49 1.374 . S
C49 H40 0.930 . S
C49 C48 1.374 . S
C49 C50 1.383 . S
C50 O44 1.412 . S
C50 C49 1.383 . S
C50 C51 1.394 . S
C51 H41 0.929 . S
C51 C47 1.377 . S
C51 C50 1.394 . S
H52 C59 0.929 . S
H53 C62 0.930 . S
H54 C64 0.929 . S
H55 C56 0.969 . S
C56 H55 0.969 . S
C56 O57 1.550 . S
C56 H58 0.973 . S
O57 C56 1.550 . S
O57 C63 1.412 . S
H58 C56 0.973 . S
C59 H52 0.929 . S
C59 C60 1.400 . S
C59 C61 1.364 . S
C60 C59 1.400 . S
C60 C64 1.377 . S
C61 C59 1.364 . S
C61 C62 1.374 . S
C62 H53 0.930 . S
C62 C61 1.374 . S
C62 C63 1.383 . S
C63 O57 1.412 . S
C63 C62 1.383 . S
C63 C64 1.394 . S
C64 H54 0.929 . S
C64 C60 1.377 . S
C64 C63 1.394 . S
H65 C72 0.929 . S
H66 C75 0.930 . S
H67 C77 0.929 . S
H68 C69 0.969 . S
C69 H68 0.969 . S
C69 O70 1.550 . S
C69 H71 0.973 . S
O70 C69 1.550 . S
O70 C76 1.412 . S
H71 C69 0.973 . S
C72 H65 0.929 . S
C72 C73 1.400 . S
C72 C74 1.364 . S
C73 C72 1.400 . S
C73 C77 1.377 . S
C74 C72 1.364 . S
C74 C75 1.374 . S
C75 H66 0.930 . S
C75 C74 1.374 . S
C75 C76 1.383 . S
C76 O70 1.412 . S
C76 C75 1.383 . S
C76 C77 1.394 . S
C77 H67 0.929 . S
C77 C73 1.377 . S
C77 C76 1.394 . S
H78 C85 0.929 . S
H79 C88 0.930 . S
H80 C90 0.929 . S
H81 C82 0.969 . S
C82 H81 0.969 . S
C82 O83 1.550 . S
C82 H84 0.973 . S
O83 C82 1.550 . S
O83 C89 1.412 . S
H84 C82 0.973 . S
C85 H78 0.929 . S
C85 C86 1.400 . S
C85 C87 1.364 . S
C86 C85 1.400 . S
C86 C90 1.377 . S
C87 C85 1.364 . S
C87 C88 1.374 . S
C88 H79 0.930 . S
C88 C87 1.374 . S
C88 C89 1.383 . S
C89 O83 1.412 . S
C89 C88 1.383 . S
C89 C90 1.394 . S
C90 H80 0.929 . S
C90 C86 1.377 . S
C90 C89 1.394 . S
H91 C98 0.929 . S
H92 C101 0.930 . S
H93 C103 0.929 . S
H94 C95 0.969 . S
C95 H94 0.969 . S
C95 O96 1.550 . S
C95 H97 0.973 . S
O96 C95 1.550 . S
O96 C102 1.412 . S
H97 C95 0.973 . S
C98 H91 0.929 . S
C98 C99 1.400 . S
C98 C100 1.364 . S
C99 C98 1.400 . S
C99 C103 1.377 . S
C100 C98 1.364 . S
C100 C101 1.374 . S
C101 H92 0.930 . S
C101 C100 1.374 . S
C101 C102 1.383 . S
C102 O96 1.412 . S
C102 C101 1.383 . S
C102 C103 1.394 . S
C103 H93 0.929 . S
C103 C99 1.377 . S
C103 C102 1.394 . S
Tb104 N133 2.617 . S
Tb104 N139 2.572 . S
Tb104 O148 2.465 . S
Tb104 O149 2.387 . S
Tb104 O151 2.428 . S
Tb104 O152 2.308 . S
Tb104 O156 2.349 . S
Tb104 O159 2.393 . S
Tb104 C168 2.802 . S
C105 N106 1.379 . S
C105 C108 1.416 . S
C105 C112 1.424 . S
N106 C105 1.379 . S
N106 C109 1.334 . S
N106 Tb115 2.617 . S
C107 C109 1.390 . S
C107 C110 1.339 . S
C107 H127 0.930 . S
C108 C105 1.416 . S
C108 C110 1.416 . S
C108 C114 1.448 . S
C109 N106 1.334 . S
C109 C107 1.390 . S
C109 H120 0.930 . S
C110 C107 1.339 . S
C110 C108 1.416 . S
C110 H131 0.930 . S
C111 C112 1.413 . S
C111 C113 1.427 . S
C111 C117 1.416 1_545 S
C112 C105 1.424 . S
C112 C111 1.413 . S
C112 N116 1.361 . S
C113 C111 1.427 . S
C113 C114 1.328 . S
C113 H128 0.929 1_545 S
C114 C108 1.448 . S
C114 C113 1.328 . S
C114 H129 0.930 . S
Tb115 N106 2.617 . S
Tb115 N116 2.572 . S
Tb115 O150 2.349 1_655 S
Tb115 O153 2.393 . S
Tb115 O154 2.465 . S
Tb115 O155 2.387 . S
Tb115 O157 2.428 . S
Tb115 O158 2.308 1_655 S
Tb115 C179 2.802 . S
N116 C112 1.361 . S
N116 Tb115 2.572 . S
N116 C118 1.340 . S
C117 C111 1.416 1_565 S
C117 C119 1.332 . S
C117 H125 0.931 . S
C118 N116 1.340 . S
C118 C119 1.407 1_545 S
C118 H124 0.930 . S
C119 C117 1.332 . S
C119 C118 1.407 1_565 S
C119 H121 0.929 . S
H120 C109 0.930 . S
H121 C119 0.929 . S
H122 C137 0.930 . S
H123 C144 0.929 . S
H124 C118 0.930 . S
H125 C117 0.931 . S
H126 C140 0.930 . S
H127 C107 0.930 . S
H128 C113 0.929 1_565 S
H129 C114 0.930 . S
H130 C135 0.930 . S
H131 C110 0.930 . S
H132 C143 0.931 . S
N133 Tb104 2.617 . S
N133 C134 1.379 . S
N133 C137 1.334 . S
C134 N133 1.379 . S
C134 C136 1.416 . S
C134 C142 1.424 . S
C135 H130 0.930 . S
C135 C137 1.390 . S
C135 C138 1.339 . S
C136 C134 1.416 . S
C136 C138 1.416 . S
C136 C169 1.448 . S
C137 H122 0.930 . S
C137 N133 1.334 . S
C137 C135 1.390 . S
C138 C135 1.339 . S
C138 C136 1.416 . S
C138 H145 0.930 . S
N139 Tb104 2.572 . S
N139 C140 1.340 . S
N139 C142 1.361 . S
C140 H126 0.930 . S
C140 N139 1.340 . S
C140 C144 1.407 . S
C141 C142 1.413 . S
C141 C143 1.416 . S
C141 C170 1.427 . S
C142 C134 1.424 . S
C142 N139 1.361 . S
C142 C141 1.413 . S
C143 H132 0.931 . S
C143 C141 1.416 . S
C143 C144 1.332 . S
C144 H123 0.929 . S
C144 C140 1.407 . S
C144 C143 1.332 . S
H145 C138 0.930 . S
H146 C169 0.930 . S
H147 C170 0.929 . S
O148 Tb104 2.465 . S
O148 C168 1.264 . S
O149 Tb104 2.387 . S
O149 C160 1.264 . S
O150 Tb115 2.349 1_455 S
O150 C160 1.243 . S
O151 Tb104 2.428 . S
O151 C168 1.256 . S
O152 Tb104 2.308 . S
O152 C167 1.266 1_455 S
O153 Tb115 2.393 . S
O153 C167 1.248 . S
O154 Tb115 2.465 . S
O154 C179 1.264 . S
O155 Tb115 2.387 . S
O155 C171 1.264 . S
O156 Tb104 2.349 . S
O156 C171 1.243 1_455 S
O157 Tb115 2.428 . S
O157 C179 1.256 . S
O158 Tb115 2.308 1_455 S
O158 C178 1.266 . S
O159 Tb104 2.393 . S
O159 C178 1.248 . S
C160 O149 1.264 . S
C160 O150 1.243 . S
C161 C164 1.399 . S
C161 C166 1.383 . S
C161 C168 1.496 . S
C162 C163 1.399 . S
C162 C166 1.389 . S
C163 C162 1.399 . S
C163 C165 1.380 . S
C163 H180 0.929 . S
C164 C161 1.399 . S
C164 C165 1.392 . S
C164 H181 0.929 . S
C165 C163 1.380 . S
C165 C164 1.392 . S
C165 H182 0.929 . S
C166 C161 1.383 . S
C166 C162 1.389 . S
C166 H183 0.931 . S
C167 O152 1.266 1_655 S
C167 O153 1.248 . S
C168 Tb104 2.802 . S
C168 O148 1.264 . S
C168 O151 1.256 . S
C168 C161 1.496 . S
C169 C136 1.448 . S
C169 H146 0.930 . S
C169 C170 1.328 . S
C170 C141 1.427 . S
C170 H147 0.929 . S
C170 C169 1.328 . S
C171 O155 1.264 . S
C171 O156 1.243 1_655 S
C172 C175 1.399 . S
C172 C176 1.383 . S
C172 C179 1.496 . S
C173 C174 1.399 . S
C173 C176 1.389 . S
C174 C173 1.399 . S
C174 C177 1.380 . S
C174 H184 0.929 . S
C175 C172 1.399 . S
C175 C177 1.392 . S
C175 H185 0.929 . S
C176 C172 1.383 . S
C176 C173 1.389 . S
C176 H186 0.931 . S
C177 C174 1.380 . S
C177 C175 1.392 . S
C177 H187 0.929 . S
C178 O158 1.266 . S
C178 O159 1.248 . S
C179 Tb115 2.802 . S
C179 O154 1.264 . S
C179 O157 1.256 . S
C179 C172 1.496 . S
H180 C163 0.929 . S
H181 C164 0.929 . S
H182 C165 0.929 . S
H183 C166 0.931 . S
H184 C174 0.929 . S
H185 C175 0.929 . S
H186 C176 0.931 . S
H187 C177 0.929 . S
Tb188 N217 2.617 . S
Tb188 N223 2.572 . S
Tb188 O232 2.465 . S
Tb188 O233 2.387 . S
Tb188 O235 2.428 . S
Tb188 O236 2.308 . S
Tb188 O240 2.349 . S
Tb188 O243 2.393 . S
Tb188 C252 2.802 . S
C189 N190 1.379 . S
C189 C192 1.416 . S
C189 C196 1.424 . S
N190 C189 1.379 . S
N190 C193 1.334 . S
N190 Tb199 2.617 . S
C191 C193 1.390 . S
C191 C194 1.339 . S
C191 H211 0.930 . S
C192 C189 1.416 . S
C192 C194 1.416 . S
C192 C198 1.448 . S
C193 N190 1.334 . S
C193 C191 1.390 . S
C193 H204 0.930 . S
C194 C191 1.339 . S
C194 C192 1.416 . S
C194 H215 0.930 . S
C195 C196 1.413 . S
C195 C197 1.427 . S
C195 C201 1.416 . S
C196 C189 1.424 . S
C196 C195 1.413 . S
C196 N200 1.361 . S
C197 C195 1.427 . S
C197 C198 1.328 . S
C197 H212 0.929 . S
C198 C192 1.448 . S
C198 C197 1.328 . S
C198 H213 0.930 . S
Tb199 N190 2.617 . S
Tb199 N200 2.572 . S
Tb199 O234 2.349 . S
Tb199 O237 2.393 . S
Tb199 O238 2.465 . S
Tb199 O239 2.387 . S
Tb199 O241 2.428 . S
Tb199 O242 2.308 . S
Tb199 C263 2.802 . S
N200 C196 1.361 . S
N200 Tb199 2.572 . S
N200 C202 1.340 . S
C201 C195 1.416 . S
C201 C203 1.332 . S
C201 H209 0.931 . S
C202 N200 1.340 . S
C202 C203 1.407 . S
C202 H208 0.930 . S
C203 C201 1.332 . S
C203 C202 1.407 . S
C203 H205 0.929 . S
H204 C193 0.930 . S
H205 C203 0.929 . S
H206 C221 0.930 . S
H207 C228 0.929 . S
H208 C202 0.930 . S
H209 C201 0.931 . S
H210 C224 0.930 . S
H211 C191 0.930 . S
H212 C197 0.929 . S
H213 C198 0.930 . S
H214 C219 0.930 . S
H215 C194 0.930 . S
H216 C227 0.931 . S
N217 Tb188 2.617 . S
N217 C218 1.379 . S
N217 C221 1.334 . S
C218 N217 1.379 . S
C218 C220 1.416 . S
C218 C226 1.424 . S
C219 H214 0.930 . S
C219 C221 1.390 . S
C219 C222 1.339 . S
C220 C218 1.416 . S
C220 C222 1.416 . S
C220 C253 1.448 . S
C221 H206 0.930 . S
C221 N217 1.334 . S
C221 C219 1.390 . S
C222 C219 1.339 . S
C222 C220 1.416 . S
C222 H229 0.930 . S
N223 Tb188 2.572 . S
N223 C224 1.340 . S
N223 C226 1.361 . S
C224 H210 0.930 . S
C224 N223 1.340 . S
C224 C228 1.407 . S
C225 C226 1.413 . S
C225 C227 1.416 . S
C225 C254 1.427 . S
C226 C218 1.424 . S
C226 N223 1.361 . S
C226 C225 1.413 . S
C227 H216 0.931 . S
C227 C225 1.416 . S
C227 C228 1.332 . S
C228 H207 0.929 . S
C228 C224 1.407 . S
C228 C227 1.332 . S
H229 C222 0.930 . S
H230 C253 0.930 . S
H231 C254 0.929 . S
O232 Tb188 2.465 . S
O232 C252 1.264 . S
O233 Tb188 2.387 . S
O233 C244 1.264 . S
O234 Tb199 2.349 . S
O234 C244 1.243 . S
O235 Tb188 2.428 . S
O235 C252 1.256 . S
O236 Tb188 2.308 . S
O236 C251 1.266 . S
O237 Tb199 2.393 . S
O237 C251 1.248 . S
O238 Tb199 2.465 . S
O238 C263 1.264 . S
O239 Tb199 2.387 . S
O239 C255 1.264 . S
O240 Tb188 2.349 . S
O240 C255 1.243 . S
O241 Tb199 2.428 . S
O241 C263 1.256 . S
O242 Tb199 2.308 . S
O242 C262 1.266 . S
O243 Tb188 2.393 . S
O243 C262 1.248 . S
C244 O233 1.264 . S
C244 O234 1.243 . S
C245 C248 1.399 . S
C245 C250 1.383 . S
C245 C252 1.496 . S
C246 C247 1.399 . S
C246 C250 1.389 . S
C247 C246 1.399 . S
C247 C249 1.380 . S
C247 H264 0.929 . S
C248 C245 1.399 . S
C248 C249 1.392 . S
C248 H265 0.929 . S
C249 C247 1.380 . S
C249 C248 1.392 . S
C249 H266 0.929 . S
C250 C245 1.383 . S
C250 C246 1.389 . S
C250 H267 0.931 . S
C251 O236 1.266 . S
C251 O237 1.248 . S
C252 Tb188 2.802 . S
C252 O232 1.264 . S
C252 O235 1.256 . S
C252 C245 1.496 . S
C253 C220 1.448 . S
C253 H230 0.930 . S
C253 C254 1.328 . S
C254 C225 1.427 . S
C254 H231 0.929 . S
C254 C253 1.328 . S
C255 O239 1.264 . S
C255 O240 1.243 . S
C256 C259 1.399 . S
C256 C260 1.383 . S
C256 C263 1.496 . S
C257 C258 1.399 . S
C257 C260 1.389 . S
C258 C257 1.399 . S
C258 C261 1.380 . S
C258 H268 0.929 . S
C259 C256 1.399 . S
C259 C261 1.392 . S
C259 H269 0.929 . S
C260 C256 1.383 . S
C260 C257 1.389 . S
C260 H270 0.931 . S
C261 C258 1.380 . S
C261 C259 1.392 . S
C261 H271 0.929 . S
C262 O242 1.266 . S
C262 O243 1.248 . S
C263 Tb199 2.802 . S
C263 O238 1.264 . S
C263 O241 1.256 . S
C263 C256 1.496 . S
H264 C247 0.929 . S
H265 C248 0.929 . S
H266 C249 0.929 . S
H267 C250 0.931 . S
H268 C258 0.929 . S
H269 C259 0.929 . S
H270 C260 0.931 . S
H271 C261 0.929 . S
Tb272 N301 2.617 . S
Tb272 N307 2.572 . S
Tb272 O316 2.465 . S
Tb272 O317 2.387 . S
Tb272 O319 2.428 . S
Tb272 O320 2.308 . S
Tb272 O324 2.349 . S
Tb272 O327 2.393 . S
Tb272 C336 2.802 . S
C273 N274 1.379 . S
C273 C276 1.416 . S
C273 C280 1.424 . S
N274 C273 1.379 . S
N274 C277 1.334 . S
N274 Tb283 2.617 . S
C275 C277 1.390 . S
C275 C278 1.339 . S
C275 H295 0.930 . S
C276 C273 1.416 . S
C276 C278 1.416 . S
C276 C282 1.448 . S
C277 N274 1.334 . S
C277 C275 1.390 . S
C277 H288 0.930 . S
C278 C275 1.339 . S
C278 C276 1.416 . S
C278 H299 0.930 . S
C279 C280 1.413 . S
C279 C281 1.427 . S
C279 C285 1.416 . S
C280 C273 1.424 . S
C280 C279 1.413 . S
C280 N284 1.361 . S
C281 C279 1.427 . S
C281 C282 1.328 . S
C281 H296 0.929 . S
C282 C276 1.448 . S
C282 C281 1.328 . S
C282 H297 0.930 . S
Tb283 N274 2.617 . S
Tb283 N284 2.572 . S
Tb283 O318 2.349 1_655 S
Tb283 O321 2.393 . S
Tb283 O322 2.465 . S
Tb283 O323 2.387 . S
Tb283 O325 2.428 . S
Tb283 O326 2.308 1_655 S
Tb283 C347 2.802 . S
N284 C280 1.361 . S
N284 Tb283 2.572 . S
N284 C286 1.340 . S
C285 C279 1.416 . S
C285 C287 1.332 . S
C285 H293 0.931 . S
C286 N284 1.340 . S
C286 C287 1.407 . S
C286 H292 0.930 . S
C287 C285 1.332 . S
C287 C286 1.407 . S
C287 H289 0.929 . S
H288 C277 0.930 . S
H289 C287 0.929 . S
H290 C305 0.930 . S
H291 C312 0.929 . S
H292 C286 0.930 . S
H293 C285 0.931 . S
H294 C308 0.930 . S
H295 C275 0.930 . S
H296 C281 0.929 . S
H297 C282 0.930 . S
H298 C303 0.930 . S
H299 C278 0.930 . S
H300 C311 0.931 . S
N301 Tb272 2.617 . S
N301 C302 1.379 . S
N301 C305 1.334 . S
C302 N301 1.379 . S
C302 C304 1.416 . S
C302 C310 1.424 . S
C303 H298 0.930 . S
C303 C305 1.390 . S
C303 C306 1.339 . S
C304 C302 1.416 . S
C304 C306 1.416 . S
C304 C337 1.448 . S
C305 H290 0.930 . S
C305 N301 1.334 . S
C305 C303 1.390 . S
C306 C303 1.339 . S
C306 C304 1.416 . S
C306 H313 0.930 . S
N307 Tb272 2.572 . S
N307 C308 1.340 . S
N307 C310 1.361 . S
C308 H294 0.930 . S
C308 N307 1.340 . S
C308 C312 1.407 1_565 S
C309 C310 1.413 . S
C309 C311 1.416 1_565 S
C309 C338 1.427 . S
C310 C302 1.424 . S
C310 N307 1.361 . S
C310 C309 1.413 . S
C311 H300 0.931 . S
C311 C309 1.416 1_545 S
C311 C312 1.332 . S
C312 H291 0.929 . S
C312 C308 1.407 1_545 S
C312 C311 1.332 . S
H313 C306 0.930 . S
H314 C337 0.930 . S
H315 C338 0.929 1_545 S
O316 Tb272 2.465 . S
O316 C336 1.264 . S
O317 Tb272 2.387 . S
O317 C328 1.264 . S
O318 Tb283 2.349 1_455 S
O318 C328 1.243 . S
O319 Tb272 2.428 . S
O319 C336 1.256 . S
O320 Tb272 2.308 . S
O320 C335 1.266 1_455 S
O321 Tb283 2.393 . S
O321 C335 1.248 . S
O322 Tb283 2.465 . S
O322 C347 1.264 . S
O323 Tb283 2.387 . S
O323 C339 1.264 . S
O324 Tb272 2.349 . S
O324 C339 1.243 1_455 S
O325 Tb283 2.428 . S
O325 C347 1.256 . S
O326 Tb283 2.308 1_455 S
O326 C346 1.266 . S
O327 Tb272 2.393 . S
O327 C346 1.248 . S
C328 O317 1.264 . S
C328 O318 1.243 . S
C329 C332 1.399 . S
C329 C334 1.383 . S
C329 C336 1.496 . S
C330 C331 1.399 . S
C330 C334 1.389 . S
C331 C330 1.399 . S
C331 C333 1.380 . S
C331 H348 0.929 . S
C332 C329 1.399 . S
C332 C333 1.392 . S
C332 H349 0.929 . S
C333 C331 1.380 . S
C333 C332 1.392 . S
C333 H350 0.929 . S
C334 C329 1.383 . S
C334 C330 1.389 . S
C334 H351 0.931 . S
C335 O320 1.266 1_655 S
C335 O321 1.248 . S
C336 Tb272 2.802 . S
C336 O316 1.264 . S
C336 O319 1.256 . S
C336 C329 1.496 . S
C337 C304 1.448 . S
C337 H314 0.930 . S
C337 C338 1.328 . S
C338 C309 1.427 . S
C338 H315 0.929 1_565 S
C338 C337 1.328 . S
C339 O323 1.264 . S
C339 O324 1.243 1_655 S
C340 C343 1.399 . S
C340 C344 1.383 . S
C340 C347 1.496 . S
C341 C342 1.399 . S
C341 C344 1.389 . S
C342 C341 1.399 . S
C342 C345 1.380 . S
C342 H352 0.929 . S
C343 C340 1.399 . S
C343 C345 1.392 . S
C343 H353 0.929 . S
C344 C340 1.383 . S
C344 C341 1.389 . S
C344 H354 0.931 . S
C345 C342 1.380 . S
C345 C343 1.392 . S
C345 H355 0.929 . S
C346 O326 1.266 . S
C346 O327 1.248 . S
C347 Tb283 2.802 . S
C347 O322 1.264 . S
C347 O325 1.256 . S
C347 C340 1.496 . S
H348 C331 0.929 . S
H349 C332 0.929 . S
H350 C333 0.929 . S
H351 C334 0.931 . S
H352 C342 0.929 . S
H353 C343 0.929 . S
H354 C344 0.931 . S
H355 C345 0.929 . S
Tb356 N385 2.617 . S
Tb356 N391 2.572 . S
Tb356 O400 2.465 . S
Tb356 O401 2.387 . S
Tb356 O403 2.428 . S
Tb356 O404 2.308 . S
Tb356 O408 2.349 . S
Tb356 O411 2.393 . S
Tb356 C420 2.802 . S
C357 N358 1.379 . S
C357 C360 1.416 . S
C357 C364 1.424 . S
N358 C357 1.379 . S
N358 C361 1.334 . S
N358 Tb367 2.617 . S
C359 C361 1.390 . S
C359 C362 1.339 . S
C359 H379 0.930 . S
C360 C357 1.416 . S
C360 C362 1.416 . S
C360 C366 1.448 . S
C361 N358 1.334 . S
C361 C359 1.390 . S
C361 H372 0.930 . S
C362 C359 1.339 . S
C362 C360 1.416 . S
C362 H383 0.930 . S
C363 C364 1.413 . S
C363 C365 1.427 . S
C363 C369 1.416 . S
C364 C357 1.424 . S
C364 C363 1.413 . S
C364 N368 1.361 . S
C365 C363 1.427 . S
C365 C366 1.328 . S
C365 H380 0.929 . S
C366 C360 1.448 . S
C366 C365 1.328 . S
C366 H381 0.930 . S
Tb367 N358 2.617 . S
Tb367 N368 2.572 . S
Tb367 O402 2.349 . S
Tb367 O405 2.393 . S
Tb367 O406 2.465 . S
Tb367 O407 2.387 . S
Tb367 O409 2.428 . S
Tb367 O410 2.308 . S
Tb367 C431 2.802 . S
N368 C364 1.361 . S
N368 Tb367 2.572 . S
N368 C370 1.340 . S
C369 C363 1.416 . S
C369 C371 1.332 . S
C369 H377 0.931 . S
C370 N368 1.340 . S
C370 C371 1.407 . S
C370 H376 0.930 . S
C371 C369 1.332 . S
C371 C370 1.407 . S
C371 H373 0.929 . S
H372 C361 0.930 . S
H373 C371 0.929 . S
H374 C389 0.930 . S
H375 C396 0.929 . S
H376 C370 0.930 . S
H377 C369 0.931 . S
H378 C392 0.930 . S
H379 C359 0.930 . S
H380 C365 0.929 . S
H381 C366 0.930 . S
H382 C387 0.930 . S
H383 C362 0.930 . S
H384 C395 0.931 . S
N385 Tb356 2.617 . S
N385 C386 1.379 . S
N385 C389 1.334 . S
C386 N385 1.379 . S
C386 C388 1.416 . S
C386 C394 1.424 . S
C387 H382 0.930 . S
C387 C389 1.390 . S
C387 C390 1.339 . S
C388 C386 1.416 . S
C388 C390 1.416 . S
C388 C421 1.448 . S
C389 H374 0.930 . S
C389 N385 1.334 . S
C389 C387 1.390 . S
C390 C387 1.339 . S
C390 C388 1.416 . S
C390 H397 0.930 . S
N391 Tb356 2.572 . S
N391 C392 1.340 . S
N391 C394 1.361 . S
C392 H378 0.930 . S
C392 N391 1.340 . S
C392 C396 1.407 . S
C393 C394 1.413 . S
C393 C395 1.416 . S
C393 C422 1.427 . S
C394 C386 1.424 . S
C394 N391 1.361 . S
C394 C393 1.413 . S
C395 H384 0.931 . S
C395 C393 1.416 . S
C395 C396 1.332 . S
C396 H375 0.929 . S
C396 C392 1.407 . S
C396 C395 1.332 . S
H397 C390 0.930 . S
H398 C421 0.930 . S
H399 C422 0.929 . S
O400 Tb356 2.465 . S
O400 C420 1.264 . S
O401 Tb356 2.387 . S
O401 C412 1.264 . S
O402 Tb367 2.349 . S
O402 C412 1.243 . S
O403 Tb356 2.428 . S
O403 C420 1.256 . S
O404 Tb356 2.308 . S
O404 C419 1.266 . S
O405 Tb367 2.393 . S
O405 C419 1.248 . S
O406 Tb367 2.465 . S
O406 C431 1.264 . S
O407 Tb367 2.387 . S
O407 C423 1.264 . S
O408 Tb356 2.349 . S
O408 C423 1.243 . S
O409 Tb367 2.428 . S
O409 C431 1.256 . S
O410 Tb367 2.308 . S
O410 C430 1.266 . S
O411 Tb356 2.393 . S
O411 C430 1.248 . S
C412 O401 1.264 . S
C412 O402 1.243 . S
C413 C416 1.399 . S
C413 C418 1.383 . S
C413 C420 1.496 . S
C414 C415 1.399 . S
C414 C418 1.389 . S
C415 C414 1.399 . S
C415 C417 1.380 . S
C415 H432 0.929 . S
C416 C413 1.399 . S
C416 C417 1.392 . S
C416 H433 0.929 . S
C417 C415 1.380 . S
C417 C416 1.392 . S
C417 H434 0.929 . S
C418 C413 1.383 . S
C418 C414 1.389 . S
C418 H435 0.931 . S
C419 O404 1.266 . S
C419 O405 1.248 . S
C420 Tb356 2.802 . S
C420 O400 1.264 . S
C420 O403 1.256 . S
C420 C413 1.496 . S
C421 C388 1.448 . S
C421 H398 0.930 . S
C421 C422 1.328 . S
C422 C393 1.427 . S
C422 H399 0.929 . S
C422 C421 1.328 . S
C423 O407 1.264 . S
C423 O408 1.243 . S
C424 C427 1.399 . S
C424 C428 1.383 . S
C424 C431 1.496 . S
C425 C426 1.399 . S
C425 C428 1.389 . S
C426 C425 1.399 . S
C426 C429 1.380 . S
C426 H436 0.929 . S
C427 C424 1.399 . S
C427 C429 1.392 . S
C427 H437 0.929 . S
C428 C424 1.383 . S
C428 C425 1.389 . S
C428 H438 0.931 . S
C429 C426 1.380 . S
C429 C427 1.392 . S
C429 H439 0.929 . S
C430 O410 1.266 . S
C430 O411 1.248 . S
C431 Tb367 2.802 . S
C431 O406 1.264 . S
C431 O409 1.256 . S
C431 C424 1.496 . S
H432 C415 0.929 . S
H433 C416 0.929 . S
H434 C417 0.929 . S
H435 C418 0.931 . S
H436 C426 0.929 . S
H437 C427 0.929 . S
H438 C428 0.931 . S
H439 C429 0.929 . S
H440 C446 0.930 . S
H441 C449 0.930 . S
H442 C450 0.939 . S
H443 C451 0.930 . S
H444 C454 0.930 . S
H445 C455 0.930 . S
C446 H440 0.930 . S
C446 C447 1.355 . S
C446 C448 1.415 . S
C447 C446 1.355 . S
C447 C449 1.419 . S
C448 C446 1.415 . S
C448 C453 1.425 . S
C448 C455 1.409 . S
C449 H441 0.930 . S
C449 C447 1.419 . S
C449 C450 1.355 1_565 S
C450 H442 0.939 . S
C450 C449 1.355 1_545 S
C450 C453 1.408 1_545 S
C451 H443 0.930 . S
C451 C452 1.355 . S
C451 C453 1.415 1_545 S
C452 C451 1.355 . S
C452 C454 1.419 1_545 S
C453 C448 1.425 . S
C453 C450 1.408 1_565 S
C453 C451 1.415 1_565 S
C454 H444 0.930 . S
C454 C452 1.419 1_565 S
C454 C455 1.362 . S
C455 H445 0.930 . S
C455 C448 1.409 . S
C455 C454 1.362 . S
H456 C462 0.930 . S
H457 C465 0.930 . S
H458 C466 0.930 . S
H459 C467 0.930 . S
H460 C470 0.930 . S
H461 C471 0.930 . S
C462 H456 0.930 . S
C462 C463 1.355 . S
C462 C464 1.415 . S
C463 C462 1.355 . S
C463 C465 1.419 . S
C464 C462 1.415 . S
C464 C469 1.425 . S
C464 C471 1.409 . S
C465 H457 0.930 . S
C465 C463 1.419 . S
C465 C466 1.362 . S
C466 H458 0.930 . S
C466 C465 1.362 . S
C466 C469 1.409 . S
C467 H459 0.930 . S
C467 C468 1.355 . S
C467 C469 1.415 . S
C468 C467 1.355 . S
C468 C470 1.419 . S
C469 C464 1.425 . S
C469 C466 1.409 . S
C469 C467 1.415 . S
C470 H460 0.930 . S
C470 C468 1.419 . S
C470 C471 1.362 . S
C471 H461 0.930 . S
C471 C464 1.409 . S
C471 C470 1.362 . S
H472 C478 0.930 . S
H473 C481 0.930 . S
H474 C482 0.930 . S
H475 C483 0.930 . S
H476 C486 0.930 . S
H477 C487 0.930 . S
C478 H472 0.930 . S
C478 C479 1.355 . S
C478 C480 1.415 . S
C479 C478 1.355 . S
C479 C481 1.419 . S
C480 C478 1.415 . S
C480 C485 1.425 . S
C480 C487 1.409 . S
C481 H473 0.930 . S
C481 C479 1.419 . S
C481 C482 1.362 . S
C482 H474 0.930 . S
C482 C481 1.362 . S
C482 C485 1.409 . S
C483 H475 0.930 . S
C483 C484 1.355 . S
C483 C485 1.415 . S
C484 C483 1.355 . S
C484 C486 1.419 . S
C485 C480 1.425 . S
C485 C482 1.409 . S
C485 C483 1.415 . S
C486 H476 0.930 . S
C486 C484 1.419 . S
C486 C487 1.362 . S
C487 H477 0.930 . S
C487 C480 1.409 . S
C487 C486 1.362 . S
H488 C494 0.930 . S
H489 C497 0.930 . S
H490 C498 0.930 . S
H491 C499 0.930 . S
H492 C502 0.930 . S
H493 C503 0.930 . S
C494 H488 0.930 . S
C494 C495 1.355 . S
C494 C496 1.415 . S
C495 C494 1.355 . S
C495 C497 1.419 . S
C496 C494 1.415 . S
C496 C501 1.425 . S
C496 C503 1.409 1_565 S
C497 H489 0.930 . S
C497 C495 1.419 . S
C497 C498 1.362 . S
C498 H490 0.930 . S
C498 C497 1.362 . S
C498 C501 1.409 . S
C499 H491 0.930 . S
C499 C500 1.355 1_565 S
C499 C501 1.415 . S
C500 C499 1.355 1_545 S
C500 C502 1.419 . S
C501 C496 1.425 . S
C501 C498 1.409 . S
C501 C499 1.415 . S
C502 H492 0.930 . S
C502 C500 1.419 . S
C502 C503 1.362 . S
C503 H493 0.930 . S
C503 C496 1.409 1_545 S
C503 C502 1.362 . S
H504 C510 0.930 . S
H505 C513 0.930 . S
H506 C514 0.930 . S
H507 C515 0.930 . S
H508 C518 0.930 1_455 S
H509 C519 0.930 . S
C510 H504 0.930 . S
C510 C511 1.355 . S
C510 C512 1.415 . S
C511 C510 1.355 . S
C511 C513 1.419 . S
C512 C510 1.415 . S
C512 C517 1.425 . S
C512 C519 1.409 . S
C513 H505 0.930 . S
C513 C511 1.419 . S
C513 C514 1.362 . S
C514 H506 0.930 . S
C514 C513 1.362 . S
C514 C517 1.409 . S
C515 H507 0.930 . S
C515 C516 1.355 . S
C515 C517 1.415 1_565 S
C516 C515 1.355 . S
C516 C518 1.419 . S
C517 C512 1.425 . S
C517 C514 1.409 . S
C517 C515 1.415 1_545 S
C518 H508 0.930 1_655 S
C518 C516 1.419 . S
C518 C519 1.362 1_565 S
C519 H509 0.930 . S
C519 C512 1.409 . S
C519 C518 1.362 1_545 S
H520 C526 0.930 . S
H521 C529 0.930 . S
H522 C530 0.930 . S
H523 C531 0.930 . S
H524 C534 0.930 . S
H525 C535 0.930 . S
C526 H520 0.930 . S
C526 C527 1.355 . S
C526 C528 1.415 . S
C527 C526 1.355 . S
C527 C529 1.419 . S
C528 C526 1.415 . S
C528 C533 1.425 . S
C528 C535 1.409 . S
C529 H521 0.930 . S
C529 C527 1.419 . S
C529 C530 1.362 . S
C530 H522 0.930 . S
C530 C529 1.362 . S
C530 C533 1.409 . S
C531 H523 0.930 . S
C531 C532 1.355 . S
C531 C533 1.415 . S
C532 C531 1.355 . S
C532 C534 1.419 . S
C533 C528 1.425 . S
C533 C530 1.409 . S
C533 C531 1.415 . S
C534 H524 0.930 . S
C534 C532 1.419 . S
C534 C535 1.362 . S
C535 H525 0.930 . S
C535 C528 1.409 . S
C535 C534 1.362 . S
H536 C542 0.930 . S
H537 C545 0.930 . S
H538 C546 0.930 . S
H539 C547 0.930 . S
H540 C550 0.930 . S
H541 C551 0.930 . S
C542 H536 0.930 . S
C542 C543 1.355 . S
C542 C544 1.415 . S
C543 C542 1.355 . S
C543 C545 1.419 . S
C544 C542 1.415 . S
C544 C549 1.425 . S
C544 C551 1.409 . S
C545 H537 0.930 . S
C545 C543 1.419 . S
C545 C546 1.362 . S
C546 H538 0.930 . S
C546 C545 1.362 . S
C546 C549 1.409 . S
C547 H539 0.930 . S
C547 C548 1.355 . S
C547 C549 1.415 . S
C548 C547 1.355 . S
C548 C550 1.419 . S
C549 C544 1.425 . S
C549 C546 1.409 . S
C549 C547 1.415 . S
C550 H540 0.930 . S
C550 C548 1.419 . S
C550 C551 1.362 . S
C551 H541 0.930 . S
C551 C544 1.409 . S
C551 C550 1.362 . S
H552 C558 0.930 . S
H553 C561 0.930 . S
H554 C562 0.930 1_565 S
H555 C563 0.930 . S
H556 C566 0.930 . S
H557 C567 0.930 . S
C558 H552 0.930 . S
C558 C559 1.355 . S
C558 C560 1.415 . S
C559 C558 1.355 . S
C559 C561 1.419 . S
C560 C558 1.415 . S
C560 C565 1.425 . S
C560 C567 1.409 . S
C561 H553 0.930 . S
C561 C559 1.419 . S
C561 C562 1.362 . S
C562 H554 0.930 1_545 S
C562 C561 1.362 . S
C562 C565 1.409 . S
C563 H555 0.930 . S
C563 C564 1.355 . S
C563 C565 1.415 1_565 S
C564 C563 1.355 . S
C564 C566 1.419 1_565 S
C565 C560 1.425 . S
C565 C562 1.409 . S
C565 C563 1.415 1_545 S
C566 H556 0.930 . S
C566 C564 1.419 1_545 S
C566 C567 1.362 . S
C567 H557 0.930 . S
C567 C560 1.409 . S
C567 C566 1.362 . S
H568 C574 0.930 . S
H569 C577 0.930 . S
H570 C578 0.930 . S
H571 C579 0.930 . S
H572 C582 0.930 . S
H573 C583 0.930 . S
C574 H568 0.930 . S
C574 C575 1.355 . S
C574 C576 1.415 1_556 S
C575 C574 1.355 . S
C575 C577 1.419 . S
C576 C574 1.415 1_554 S
C576 C581 1.425 . S
C576 C583 1.409 . S
C577 H569 0.930 . S
C577 C575 1.419 . S
C577 C578 1.362 . S
C578 H570 0.930 . S
C578 C577 1.362 . S
C578 C581 1.409 1_556 S
C579 H571 0.930 . S
C579 C580 1.355 . S
C579 C581 1.415 . S
C580 C579 1.355 . S
C580 C582 1.419 . S
C581 C576 1.425 . S
C581 C578 1.409 1_554 S
C581 C579 1.415 . S
C582 H572 0.930 . S
C582 C580 1.419 . S
C582 C583 1.362 . S
C583 H573 0.930 . S
C583 C576 1.409 . S
C583 C582 1.362 . S
H584 C590 0.930 . S
H585 C593 0.930 . S
H586 C594 0.930 . S
H587 C595 0.930 . S
H588 C598 0.930 . S
H589 C599 0.930 . S
C590 H584 0.930 . S
C590 C591 1.355 . S
C590 C592 1.415 . S
C591 C590 1.355 . S
C591 C593 1.419 . S
C592 C590 1.415 . S
C592 C597 1.425 . S
C592 C599 1.409 . S
C593 H585 0.930 . S
C593 C591 1.419 . S
C593 C594 1.362 . S
C594 H586 0.930 . S
C594 C593 1.362 . S
C594 C597 1.409 . S
C595 H587 0.930 . S
C595 C596 1.355 . S
C595 C597 1.415 . S
C596 C595 1.355 . S
C596 C598 1.419 . S
C597 C592 1.425 . S
C597 C594 1.409 . S
C597 C595 1.415 . S
C598 H588 0.930 . S
C598 C596 1.419 . S
C598 C599 1.362 . S
C599 H589 0.930 . S
C599 C592 1.409 . S
C599 C598 1.362 . S
H600 C606 0.930 . S
H601 C609 0.930 . S
H602 C610 0.930 . S
H603 C611 0.930 . S
H604 C614 0.930 . S
H605 C615 0.930 1_554 S
C606 H600 0.930 . S
C606 C607 1.355 . S
C606 C608 1.415 . S
C607 C606 1.355 . S
C607 C609 1.419 . S
C608 C606 1.415 . S
C608 C613 1.425 1_554 S
C608 C615 1.409 1_554 S
C609 H601 0.930 . S
C609 C607 1.419 . S
C609 C610 1.362 1_554 S
C610 H602 0.930 . S
C610 C609 1.362 1_556 S
C610 C613 1.409 . S
C611 H603 0.930 . S
C611 C612 1.355 . S
C611 C613 1.415 . S
C612 C611 1.355 . S
C612 C614 1.419 . S
C613 C608 1.425 1_556 S
C613 C610 1.409 . S
C613 C611 1.415 . S
C614 H604 0.930 . S
C614 C612 1.419 . S
C614 C615 1.362 . S
C615 H605 0.930 1_556 S
C615 C608 1.409 1_556 S
C615 C614 1.362 . S
H616 C622 0.930 . S
H617 C625 0.930 . S
H618 C626 0.930 . S
H619 C627 0.930 . S
H620 C630 0.930 . S
H621 C631 0.930 . S
C622 H616 0.930 . S
C622 C623 1.355 . S
C622 C624 1.415 . S
C623 C622 1.355 . S
C623 C625 1.419 . S
C624 C622 1.415 . S
C624 C629 1.425 . S
C624 C631 1.409 . S
C625 H617 0.930 . S
C625 C623 1.419 . S
C625 C626 1.362 . S
C626 H618 0.930 . S
C626 C625 1.362 . S
C626 C629 1.409 . S
C627 H619 0.930 . S
C627 C628 1.355 . S
C627 C629 1.415 . S
C628 C627 1.355 . S
C628 C630 1.419 . S
C629 C624 1.425 . S
C629 C626 1.409 . S
C629 C627 1.415 . S
C630 H620 0.930 . S
C630 C628 1.419 . S
C630 C631 1.362 . S
C631 H621 0.930 . S
C631 C624 1.409 . S
C631 C630 1.362 . S
H632 C638 0.930 . S
H633 C641 0.930 . S
H634 C642 0.930 . S
H635 C643 0.930 . S
H636 C646 0.930 . S
H637 C647 0.930 . S
C638 H632 0.930 . S
C638 C639 1.355 . S
C638 C640 1.415 1_554 S
C639 C638 1.355 . S
C639 C641 1.419 . S
C640 C638 1.415 1_556 S
C640 C645 1.425 . S
C640 C647 1.409 . S
C641 H633 0.930 . S
C641 C639 1.419 . S
C641 C642 1.362 1_554 S
C642 H634 0.930 . S
C642 C641 1.362 1_556 S
C642 C645 1.409 . S
C643 H635 0.930 . S
C643 C644 1.355 . S
C643 C645 1.415 . S
C644 C643 1.355 . S
C644 C646 1.419 . S
C645 C640 1.425 . S
C645 C642 1.409 . S
C645 C643 1.415 . S
C646 H636 0.930 . S
C646 C644 1.419 . S
C646 C647 1.362 . S
C647 H637 0.930 . S
C647 C640 1.409 . S
C647 C646 1.362 . S
H648 C654 0.930 . S
H649 C657 0.930 . S
H650 C658 0.930 . S
H651 C659 0.930 . S
H652 C662 0.930 . S
H653 C663 0.930 . S
C654 H648 0.930 . S
C654 C655 1.355 . S
C654 C656 1.415 . S
C655 C654 1.355 . S
C655 C657 1.419 . S
C656 C654 1.415 . S
C656 C661 1.425 . S
C656 C663 1.409 . S
C657 H649 0.930 . S
C657 C655 1.419 . S
C657 C658 1.362 . S
C658 H650 0.930 . S
C658 C657 1.362 . S
C658 C661 1.409 . S
C659 H651 0.930 . S
C659 C660 1.355 . S
C659 C661 1.415 . S
C660 C659 1.355 . S
C660 C662 1.419 . S
C661 C656 1.425 . S
C661 C658 1.409 . S
C661 C659 1.415 . S
C662 H652 0.930 . S
C662 C660 1.419 . S
C662 C663 1.362 . S
C663 H653 0.930 . S
C663 C656 1.409 . S
C663 C662 1.362 . S
H664 C670 0.930 . S
H665 C673 0.930 . S
H666 C674 0.930 . S
H667 C675 0.930 . S
H668 C678 0.930 . S
H669 C679 0.930 . S
C670 H664 0.930 . S
C670 C671 1.355 . S
C670 C672 1.415 1_556 S
C671 C670 1.355 . S
C671 C673 1.419 . S
C672 C670 1.415 1_554 S
C672 C677 1.425 . S
C672 C679 1.409 . S
C673 H665 0.930 . S
C673 C671 1.419 . S
C673 C674 1.362 . S
C674 H666 0.930 . S
C674 C673 1.362 . S
C674 C677 1.409 1_556 S
C675 H667 0.930 . S
C675 C676 1.355 . S
C675 C677 1.415 . S
C676 C675 1.355 . S
C676 C678 1.419 . S
C677 C672 1.425 . S
C677 C674 1.409 1_554 S
C677 C675 1.415 . S
C678 H668 0.930 . S
C678 C676 1.419 . S
C678 C679 1.362 . S
C679 H669 0.930 . S
C679 C672 1.409 . S
C679 C678 1.362 . S
H680 C686 0.930 . S
H681 C689 0.930 . S
H682 C690 0.930 . S
H683 C691 0.930 . S
H684 C694 0.930 . S
H685 C695 0.930 . S
C686 H680 0.930 . S
C686 C687 1.355 . S
C686 C688 1.415 . S
C687 C686 1.355 . S
C687 C689 1.419 . S
C688 C686 1.415 . S
C688 C693 1.425 . S
C688 C695 1.409 . S
C689 H681 0.930 . S
C689 C687 1.419 . S
C689 C690 1.362 . S
C690 H682 0.930 . S
C690 C689 1.362 . S
C690 C693 1.409 . S
C691 H683 0.930 . S
C691 C692 1.355 . S
C691 C693 1.415 . S
C692 C691 1.355 . S
C692 C694 1.419 . S
C693 C688 1.425 . S
C693 C690 1.409 . S
C693 C691 1.415 . S
C694 H684 0.930 . S
C694 C692 1.419 . S
C694 C695 1.362 . S
C695 H685 0.930 . S
C695 C688 1.409 . S
C695 C694 1.362 . S
H696 C702 0.930 . S
H697 C705 0.930 . S
H698 C706 0.930 . S
H699 C707 0.930 . S
H700 C710 0.930 . S
H701 C711 0.930 . S
C702 H696 0.930 . S
C702 C703 1.355 . S
C702 C704 1.415 . S
C703 C702 1.355 . S
C703 C705 1.419 . S
C704 C702 1.415 . S
C704 C709 1.425 . S
C704 C711 1.409 . S
C705 H697 0.930 . S
C705 C703 1.419 . S
C705 C706 1.362 . S
C706 H698 0.930 . S
C706 C705 1.362 . S
C706 C709 1.409 . S
C707 H699 0.930 . S
C707 C708 1.355 . S
C707 C709 1.415 . S
C708 C707 1.355 . S
C708 C710 1.419 . S
C709 C704 1.425 . S
C709 C706 1.409 . S
C709 C707 1.415 . S
C710 H700 0.930 . S
C710 C708 1.419 . S
C710 C711 1.362 . S
C711 H701 0.930 . S
C711 C704 1.409 . S
C711 C710 1.362 . S
H712 C718 0.930 . S
H713 C721 0.930 . S
H714 C722 0.930 . S
H715 C723 0.930 . S
H716 C726 0.930 . S
H717 C727 0.930 . S
C718 H712 0.930 . S
C718 C719 1.355 . S
C718 C720 1.415 . S
C719 C718 1.355 . S
C719 C721 1.419 . S
C720 C718 1.415 . S
C720 C725 1.425 . S
C720 C727 1.409 . S
C721 H713 0.930 . S
C721 C719 1.419 . S
C721 C722 1.362 . S
C722 H714 0.930 . S
C722 C721 1.362 . S
C722 C725 1.409 . S
C723 H715 0.930 . S
C723 C724 1.355 . S
C723 C725 1.415 . S
C724 C723 1.355 . S
C724 C726 1.419 . S
C725 C720 1.425 . S
C725 C722 1.409 . S
C725 C723 1.415 . S
C726 H716 0.930 . S
C726 C724 1.419 . S
C726 C727 1.362 . S
C727 H717 0.930 . S
C727 C720 1.409 . S
C727 C726 1.362 . S
H728 C734 0.930 . S
H729 C737 0.930 . S
H730 C738 0.930 . S
H731 C739 0.930 . S
H732 C742 0.930 . S
H733 C743 0.930 . S
C734 H728 0.930 . S
C734 C735 1.355 . S
C734 C736 1.415 . S
C735 C734 1.355 . S
C735 C737 1.419 . S
C736 C734 1.415 . S
C736 C741 1.425 . S
C736 C743 1.409 . S
C737 H729 0.930 . S
C737 C735 1.419 . S
C737 C738 1.362 . S
C738 H730 0.930 . S
C738 C737 1.362 . S
C738 C741 1.409 . S
C739 H731 0.930 . S
C739 C740 1.355 . S
C739 C741 1.415 . S
C740 C739 1.355 . S
C740 C742 1.419 . S
C741 C736 1.425 . S
C741 C738 1.409 . S
C741 C739 1.415 . S
C742 H732 0.930 . S
C742 C740 1.419 . S
C742 C743 1.362 . S
C743 H733 0.930 . S
C743 C736 1.409 . S
C743 C742 1.362 . S
H744 C750 0.930 . S
H745 C753 0.930 . S
H746 C754 0.930 . S
H747 C755 0.930 . S
H748 C758 0.930 1_455 S
H749 C759 0.930 . S
C750 H744 0.930 . S
C750 C751 1.355 . S
C750 C752 1.415 . S
C751 C750 1.355 . S
C751 C753 1.419 . S
C752 C750 1.415 . S
C752 C757 1.425 . S
C752 C759 1.409 . S
C753 H745 0.930 . S
C753 C751 1.419 . S
C753 C754 1.362 . S
C754 H746 0.930 . S
C754 C753 1.362 . S
C754 C757 1.409 . S
C755 H747 0.930 . S
C755 C756 1.355 . S
C755 C757 1.415 . S
C756 C755 1.355 . S
C756 C758 1.419 . S
C757 C752 1.425 . S
C757 C754 1.409 . S
C757 C755 1.415 . S
C758 H748 0.930 1_655 S
C758 C756 1.419 . S
C758 C759 1.362 . S
C759 H749 0.930 . S
C759 C752 1.409 . S
C759 C758 1.362 . S
H760 C766 0.930 . S
H761 C769 0.930 . S
H762 C770 0.930 . S
H763 C771 0.930 . S
H764 C774 0.930 . S
H765 C775 0.930 . S
C766 H760 0.930 . S
C766 C767 1.355 . S
C766 C768 1.415 . S
C767 C766 1.355 . S
C767 C769 1.419 . S
C768 C766 1.415 . S
C768 C773 1.425 . S
C768 C775 1.409 . S
C769 H761 0.930 . S
C769 C767 1.419 . S
C769 C770 1.362 . S
C770 H762 0.930 . S
C770 C769 1.362 . S
C770 C773 1.409 . S
C771 H763 0.930 . S
C771 C772 1.355 . S
C771 C773 1.415 . S
C772 C771 1.355 . S
C772 C774 1.419 . S
C773 C768 1.425 . S
C773 C770 1.409 . S
C773 C771 1.415 . S
C774 H764 0.930 . S
C774 C772 1.419 . S
C774 C775 1.362 . S
C775 H765 0.930 . S
C775 C768 1.409 . S
C775 C774 1.362 . S
H776 C782 0.930 . S
H777 C785 0.930 . S
H778 C786 0.930 . S
H779 C787 0.930 . S
H780 C790 0.930 . S
H781 C791 0.930 . S
C782 H776 0.930 . S
C782 C783 1.355 . S
C782 C784 1.415 . S
C783 C782 1.355 . S
C783 C785 1.419 . S
C784 C782 1.415 . S
C784 C789 1.425 . S
C784 C791 1.409 . S
C785 H777 0.930 . S
C785 C783 1.419 . S
C785 C786 1.362 . S
C786 H778 0.930 . S
C786 C785 1.362 . S
C786 C789 1.409 . S
C787 H779 0.930 . S
C787 C788 1.355 . S
C787 C789 1.415 . S
C788 C787 1.355 . S
C788 C790 1.419 . S
C789 C784 1.425 . S
C789 C786 1.409 . S
C789 C787 1.415 . S
C790 H780 0.930 . S
C790 C788 1.419 . S
C790 C791 1.362 . S
C791 H781 0.930 . S
C791 C784 1.409 . S
C791 C790 1.362 . S
H792 C798 0.930 . S
H793 C801 0.930 . S
H794 C802 0.930 . S
H795 C803 0.930 . S
H796 C806 0.930 . S
H797 C807 0.930 . S
C798 H792 0.930 . S
C798 C799 1.355 . S
C798 C800 1.415 . S
C799 C798 1.355 . S
C799 C801 1.419 . S
C800 C798 1.415 . S
C800 C805 1.425 . S
C800 C807 1.409 . S
C801 H793 0.930 . S
C801 C799 1.419 . S
C801 C802 1.362 . S
C802 H794 0.930 . S
C802 C801 1.362 . S
C802 C805 1.409 . S
C803 H795 0.930 . S
C803 C804 1.355 . S
C803 C805 1.415 . S
C804 C803 1.355 . S
C804 C806 1.419 . S
C805 C800 1.425 . S
C805 C802 1.409 . S
C805 C803 1.415 . S
C806 H796 0.930 . S
C806 C804 1.419 . S
C806 C807 1.362 . S
C807 H797 0.930 . S
C807 C800 1.409 . S
C807 C806 1.362 . S
H808 C814 0.930 . S
H809 C817 0.930 . S
H810 C818 0.930 . S
H811 C819 0.930 . S
H812 C822 0.930 . S
H813 C823 0.930 . S
C814 H808 0.930 . S
C814 C815 1.355 . S
C814 C816 1.415 . S
C815 C814 1.355 . S
C815 C817 1.419 . S
C816 C814 1.415 . S
C816 C821 1.425 . S
C816 C823 1.409 . S
C817 H809 0.930 . S
C817 C815 1.419 . S
C817 C818 1.362 . S
C818 H810 0.930 . S
C818 C817 1.362 . S
C818 C821 1.409 . S
C819 H811 0.930 . S
C819 C820 1.355 . S
C819 C821 1.415 . S
C820 C819 1.355 . S
C820 C822 1.419 . S
C821 C816 1.425 . S
C821 C818 1.409 . S
C821 C819 1.415 . S
C822 H812 0.930 . S
C822 C820 1.419 . S
C822 C823 1.362 . S
C823 H813 0.930 . S
C823 C816 1.409 . S
C823 C822 1.362 . S
C447 C86 1.633 . S
C452 C178 1.602 . S
C468 C262 1.680 . S
C463 C100 1.697 . S
C484 C255 1.625 . S
C479 C60 1.628 . S
C495 C74 1.672 . S
C500 C171 1.670 . S
C516 C335 1.676 . S
C511 C35 1.697 . S
C532 C419 1.615 . S
C527 C47 1.619 . S
C543 C9 1.667 . S
C548 C412 1.682 . S
C559 C21 1.631 . S
C564 C328 1.629 . S
C580 C162 1.371 . S
C575 C22 1.565 . S
C596 C246 1.468 . S
C591 C8 1.592 . S
C612 C257 1.415 . S
C607 C48 1.595 . S
C628 C173 1.327 . S
C623 C34 1.580 . S
C644 C341 1.390 . S
C639 C73 1.586 . S
C655 C61 1.563 . S
C660 C425 1.370 . S
C676 C414 1.311 . S
C671 C99 1.577 . S
C687 C87 1.569 . S
C692 C330 1.348 . S
C708 C160 1.578 . S
C703 C4 1.489 . S
C724 C244 1.486 . S
C719 C17 1.490 . S
C735 C30 1.481 . S
C740 C251 1.550 . S
C756 C167 1.445 . S
C751 C43 1.460 . S
C772 C339 1.488 . S
C767 C56 1.470 . S
C783 C69 1.512 . S
C788 C423 1.579 . S
C799 C82 1.451 . S
C804 C430 1.485 . S
C815 C95 1.550 . S
C820 C346 1.531 . S
