# Generated by pormake.
# Topology nom, (4,4)-cn, num edge types: 1
# Building blocks:
#     Node 0, Type 0, BuildingBlock: NAHDIM_clean_linker_0, # of connection points: 4
#     Node 1, Type 0, BuildingBlock: NAHDIM_clean_linker_0, # of connection points: 4
#     Node 2, Type 0, BuildingBlock: NAHDIM_clean_linker_0, # of connection points: 4
#     Node 3, Type 0, BuildingBlock: NAHDIM_clean_linker_0, # of connection points: 4
#     Node 4, Type 0, BuildingBlock: NAHDIM_clean_linker_0, # of connection points: 4
#     Node 5, Type 0, BuildingBlock: NAHDIM_clean_linker_0, # of connection points: 4
#     Node 6, Type 1, BuildingBlock: TATPOV_clean_sbu_0, # of connection points: 4
#     Node 7, Type 1, BuildingBlock: TATPOV_clean_sbu_0, # of connection points: 4
#     Node 8, Type 1, BuildingBlock: TATPOV_clean_sbu_0, # of connection points: 4
#     Node 9, Type 1, BuildingBlock: TATPOV_clean_sbu_0, # of connection points: 4
#     Node 10, Type 1, BuildingBlock: TATPOV_clean_sbu_0, # of connection points: 4
#     Node 11, Type 1, BuildingBlock: TATPOV_clean_sbu_0, # of connection points: 4
#     Edge 12, Type (0, 1), BuildingBlock: EZIPEK_clean_linker_0, # of connection points: 2
#     Edge 13, Type (0, 1), BuildingBlock: EZIPEK_clean_linker_0, # of connection points: 2
#     Edge 14, Type (0, 1), BuildingBlock: EZIPEK_clean_linker_0, # of connection points: 2
#     Edge 15, Type (0, 1), BuildingBlock: EZIPEK_clean_linker_0, # of connection points: 2
#     Edge 16, Type (0, 1), BuildingBlock: EZIPEK_clean_linker_0, # of connection points: 2
#     Edge 17, Type (0, 1), BuildingBlock: EZIPEK_clean_linker_0, # of connection points: 2
#     Edge 18, Type (0, 1), BuildingBlock: EZIPEK_clean_linker_0, # of connection points: 2
#     Edge 19, Type (0, 1), BuildingBlock: EZIPEK_clean_linker_0, # of connection points: 2
#     Edge 20, Type (0, 1), BuildingBlock: EZIPEK_clean_linker_0, # of connection points: 2
#     Edge 21, Type (0, 1), BuildingBlock: EZIPEK_clean_linker_0, # of connection points: 2
#     Edge 22, Type (0, 1), BuildingBlock: EZIPEK_clean_linker_0, # of connection points: 2
#     Edge 23, Type (0, 1), BuildingBlock: EZIPEK_clean_linker_0, # of connection points: 2
#     Edge 24, Type (0, 1), BuildingBlock: EZIPEK_clean_linker_0, # of connection points: 2
#     Edge 25, Type (0, 1), BuildingBlock: EZIPEK_clean_linker_0, # of connection points: 2
#     Edge 26, Type (0, 1), BuildingBlock: EZIPEK_clean_linker_0, # of connection points: 2
#     Edge 27, Type (0, 1), BuildingBlock: EZIPEK_clean_linker_0, # of connection points: 2
#     Edge 28, Type (0, 1), BuildingBlock: EZIPEK_clean_linker_0, # of connection points: 2
#     Edge 29, Type (0, 1), BuildingBlock: EZIPEK_clean_linker_0, # of connection points: 2
#     Edge 30, Type (0, 1), BuildingBlock: EZIPEK_clean_linker_0, # of connection points: 2
#     Edge 31, Type (0, 1), BuildingBlock: EZIPEK_clean_linker_0, # of connection points: 2
#     Edge 32, Type (0, 1), BuildingBlock: EZIPEK_clean_linker_0, # of connection points: 2
#     Edge 33, Type (0, 1), BuildingBlock: EZIPEK_clean_linker_0, # of connection points: 2
#     Edge 34, Type (0, 1), BuildingBlock: EZIPEK_clean_linker_0, # of connection points: 2
#     Edge 35, Type (0, 1), BuildingBlock: EZIPEK_clean_linker_0, # of connection points: 2
# Relax obj value: 0.067
# Max RMSD: 0.135
# Mean RMSD: 0.126
data_MOF--net-nom--node1-TATPOV_clean_sbu_0--node2-NAHDIM_clean_linker_0--edge1-EZIPEK_clean_linker_0
_symmetry_space_group_name_H-M    P1
_symmetry_Int_Tables_number       1
_symmetry_cell_setting            triclinic
loop_
_symmetry_equiv_pos_as_xyz
'x, y, z'
_cell_length_a     46.171329
_cell_length_b     46.942328
_cell_length_c     55.887633
_cell_angle_alpha  90.71613
_cell_angle_beta   90.664195
_cell_angle_gamma 120.01464
loop_
_atom_site_label
_atom_site_type_symbol
_atom_site_fract_x
_atom_site_fract_y
_atom_site_fract_z
_atom_type_partial_charge
C0 C 0.15611 0.63758 0.19679 0.0
C1 C 0.16913 0.63322 0.22116 0.0
C2 C 0.12311 0.61229 0.2494 0.0
C3 C 0.12343 0.58424 0.25752 0.0
C4 C 0.0957 0.55926 0.26909 0.0
C5 C 0.06713 0.56242 0.27262 0.0
C6 C 0.06705 0.59098 0.26492 0.0
C7 C 0.09532 0.6158 0.25371 0.0
C8 C 0.09688 0.52945 0.27757 0.0
C9 C 0.03695 0.59508 0.26827 0.0
C10 C 0.89389 0.34602 0.17823 0.0
C11 C 0.90678 0.38077 0.18869 0.0
C12 C 0.92218 0.40442 0.22845 0.0
C13 C 0.9197 0.4329 0.22978 0.0
C14 C 0.94021 0.45872 0.24575 0.0
C15 C 0.96353 0.45575 0.26064 0.0
C16 C 0.96589 0.42683 0.25935 0.0
C17 C 0.94481 0.40128 0.24338 0.0
C18 C 0.93691 0.4891 0.24678 0.0
C19 C 0.99073 0.423 0.27476 0.0
C20 C 0.8624 0.40984 0.40454 0.0
C21 C 0.86476 0.43761 0.39358 0.0
C22 C 0.89501 0.46169 0.38401 0.0
C23 C 0.92358 0.45802 0.38566 0.0
C24 C 0.92152 0.4305 0.3973 0.0
C25 C 0.89094 0.40687 0.4068 0.0
C26 C 0.8965 0.49114 0.37223 0.0
C27 C 0.95156 0.42599 0.39952 0.0
C28 C 0.13377 0.68259 0.46638 0.0
C29 C 0.12129 0.64786 0.45621 0.0
C30 C 0.07028 0.61088 0.43314 0.0
C31 C 0.04171 0.60952 0.42329 0.0
C32 C 0.02183 0.58545 0.40603 0.0
C33 C 0.03026 0.56146 0.39906 0.0
C34 C 0.05895 0.56237 0.40927 0.0
C35 C 0.07891 0.58735 0.42603 0.0
C36 C 0.99155 0.58544 0.39553 0.0
C37 C 0.06808 0.53655 0.40289 0.0
C38 C 0.03692 0.53533 0.28358 0.0
C39 C 0.01476 0.50911 0.26866 0.0
C40 C 0.98553 0.48291 0.27753 0.0
C41 C 0.97786 0.48278 0.30195 0.0
C42 C 0.94825 0.45715 0.31133 0.0
C43 C 0.94096 0.4572 0.3354 0.0
C44 C 0.96301 0.48287 0.35103 0.0
C45 C 0.95566 0.48329 0.37547 0.0
C46 C 0.97838 0.50883 0.39061 0.0
C47 C 0.00814 0.53463 0.38194 0.0
C48 C 0.01563 0.53506 0.35742 0.0
C49 C 0.04488 0.56105 0.34792 0.0
C50 C 0.05203 0.56114 0.32378 0.0
C51 C 0.03005 0.5354 0.30817 0.0
C52 C 0.00035 0.50902 0.31736 0.0
C53 C 0.99306 0.50892 0.34197 0.0
C54 C 0.77974 0.33714 0.41069 0.0
C55 C 0.8018 0.373 0.40327 0.0
O56 O 0.14965 0.63699 0.23826 0.0
O57 O 0.08772 0.63415 0.45036 0.0
O58 O 0.83337 0.38604 0.41378 0.0
O59 O 0.90232 0.37946 0.21316 0.0
H60 H 0.16584 0.60815 0.22149 0.0
H61 H 0.12865 0.62061 0.19522 0.0
H62 H 0.16107 0.66321 0.19519 0.0
H63 H 0.16746 0.63186 0.18147 0.0
H64 H 0.14549 0.58206 0.25532 0.0
H65 H 0.09559 0.63781 0.24775 0.0
H66 H 0.07794 0.50727 0.26743 0.0
H67 H 0.12184 0.53183 0.27516 0.0
H68 H 0.09049 0.5255 0.2968 0.0
H69 H 0.04032 0.61811 0.26034 0.0
H70 H 0.01444 0.57383 0.2599 0.0
H71 H 0.03216 0.59547 0.28765 0.0
H72 H 0.93401 0.39301 0.1853 0.0
H73 H 0.89772 0.34711 0.15859 0.0
H74 H 0.90811 0.33514 0.18641 0.0
H75 H 0.86702 0.32926 0.1816 0.0
H76 H 0.90158 0.43479 0.21845 0.0
H77 H 0.94619 0.37893 0.24223 0.0
H78 H 0.96064 0.51068 0.24112 0.0
H79 H 0.91621 0.48676 0.23505 0.0
H80 H 0.93243 0.49403 0.26547 0.0
H81 H 0.99104 0.4 0.27039 0.0
H82 H 0.01625 0.44432 0.27247 0.0
H83 H 0.98436 0.42266 0.29388 0.0
H84 H 0.80428 0.37034 0.38385 0.0
H85 H 0.84337 0.44107 0.39296 0.0
H86 H 0.889 0.38562 0.41569 0.0
H87 H 0.90314 0.49162 0.35315 0.0
H88 H 0.87235 0.49091 0.37309 0.0
H89 H 0.91634 0.51414 0.38101 0.0
H90 H 0.94556 0.40263 0.40832 0.0
H91 H 0.96151 0.42617 0.38149 0.0
H92 H 0.97166 0.44685 0.41009 0.0
H93 H 0.1349 0.65165 0.43931 0.0
H94 H 0.12931 0.69745 0.45308 0.0
H95 H 0.16107 0.69505 0.47047 0.0
H96 H 0.12038 0.68175 0.48299 0.0
H97 H 0.03509 0.6276 0.42913 0.0
H98 H 0.10048 0.5877 0.43409 0.0
H99 H 0.99066 0.58234 0.37575 0.0
H100 H 0.96855 0.56439 0.40264 0.0
H101 H 0.99137 0.60847 0.40003 0.0
H102 H 0.08926 0.53892 0.41406 0.0
H103 H 0.04615 0.51158 0.40511 0.0
H104 H 0.07521 0.53878 0.38382 0.0
H105 H 0.02035 0.5091 0.24985 0.0
H106 H 0.93032 0.43678 0.30014 0.0
H107 H 0.91781 0.43681 0.34162 0.0
H108 H 0.97254 0.50894 0.40935 0.0
H109 H 0.06261 0.58161 0.35906 0.0
H110 H 0.07499 0.58169 0.31748 0.0
H111 H 0.77591 0.33476 0.43025 0.0
H112 H 0.75485 0.32623 0.40154 0.0
H113 H 0.79157 0.32251 0.4053 0.0
C114 C 0.41622 0.82287 0.62016 0.0
C115 C 0.40825 0.81872 0.59304 0.0
C116 C 0.42787 0.87489 0.5785 0.0
C117 C 0.46216 0.88511 0.57786 0.0
C118 C 0.48513 0.91565 0.56833 0.0
C119 C 0.47368 0.93658 0.55972 0.0
C120 C 0.43938 0.92683 0.56117 0.0
C121 C 0.41694 0.896 0.57038 0.0
C122 C 0.52159 0.92546 0.56726 0.0
C123 C 0.42629 0.94884 0.55283 0.0
C124 C 0.61508 0.17653 0.63563 0.0
C125 C 0.62356 0.16806 0.61199 0.0
C126 C 0.60187 0.11072 0.60012 0.0
C127 C 0.56905 0.10358 0.59479 0.0
C128 C 0.5471 0.07537 0.58121 0.0
C129 C 0.55831 0.05408 0.57274 0.0
C130 C 0.59069 0.06027 0.57925 0.0
C131 C 0.61197 0.08845 0.59306 0.0
C132 C 0.51234 0.06888 0.57523 0.0
C133 C 0.6032 0.03775 0.57086 0.0
C134 C 0.57164 0.14505 0.42982 0.0
C135 C 0.54016 0.128 0.44046 0.0
C136 C 0.52783 0.09597 0.4487 0.0
C137 C 0.54745 0.08068 0.44646 0.0
C138 C 0.57875 0.09738 0.4352 0.0
C139 C 0.59029 0.12929 0.42678 0.0
C140 C 0.49378 0.07849 0.45991 0.0
C141 C 0.6002 0.08171 0.4325 0.0
C142 C 0.44539 0.84121 0.37532 0.0
C143 C 0.44743 0.87186 0.36401 0.0
C144 C 0.45161 0.91036 0.39618 0.0
C145 C 0.43514 0.92568 0.40613 0.0
C146 C 0.45084 0.95083 0.42356 0.0
C147 C 0.48386 0.96075 0.4313 0.0
C148 C 0.50055 0.94498 0.42168 0.0
C149 C 0.48422 0.91982 0.40429 0.0
C150 C 0.43226 0.96699 0.43358 0.0
C151 C 0.53573 0.9549 0.42971 0.0
C152 C 0.49734 0.96862 0.54904 0.0
C153 C 0.51675 0.9954 0.56448 0.0
C154 C 0.53729 0.02684 0.55559 0.0
C155 C 0.53777 0.03208 0.53069 0.0
C156 C 0.5566 0.06374 0.52124 0.0
C157 C 0.55575 0.06881 0.49683 0.0
C158 C 0.53687 0.04229 0.48085 0.0
C159 C 0.53494 0.04731 0.45613 0.0
C160 C 0.51786 0.02026 0.4405 0.0
C161 C 0.50131 0.98818 0.44903 0.0
C162 C 0.50095 0.98281 0.4739 0.0
C163 C 0.48268 0.95107 0.48326 0.0
C164 C 0.48154 0.94629 0.50786 0.0
C165 C 0.49913 0.97301 0.52398 0.0
C166 C 0.51879 0.005 0.51484 0.0
C167 C 0.51907 0.01 0.48983 0.0
C168 C 0.59811 0.2114 0.45746 0.0
C169 C 0.58021 0.20084 0.43283 0.0
O170 O 0.40433 0.84507 0.58662 0.0
O171 O 0.43489 0.88659 0.37908 0.0
O172 O 0.58475 0.1765 0.42226 0.0
O173 O 0.62461 0.13906 0.6115 0.0
H174 H 0.42893 0.81872 0.58311 0.0
H175 H 0.43625 0.84849 0.62444 0.0
H176 H 0.3937 0.81797 0.63033 0.0
H177 H 0.42554 0.80673 0.62671 0.0
H178 H 0.47129 0.86957 0.58473 0.0
H179 H 0.39053 0.88804 0.57115 0.0
H180 H 0.53651 0.94715 0.57927 0.0
H181 H 0.52609 0.90532 0.57277 0.0
H182 H 0.53077 0.9327 0.54881 0.0
H183 H 0.39995 0.93953 0.55804 0.0
H184 H 0.44203 0.97413 0.5604 0.0
H185 H 0.42755 0.95044 0.53304 0.0
H186 H 0.61076 0.17089 0.59588 0.0
H187 H 0.59051 0.17561 0.63247 0.0
H188 H 0.60425 0.15353 0.64651 0.0
H189 H 0.65829 0.21928 0.64579 0.0
H190 H 0.56063 0.12012 0.60097 0.0
H191 H 0.63715 0.09392 0.59762 0.0
H192 H 0.5102 0.07202 0.55575 0.0
H193 H 0.49356 0.0431 0.57943 0.0
H194 H 0.50624 0.08579 0.58517 0.0
H195 H 0.62878 0.04561 0.57788 0.0
H196 H 0.58595 0.01228 0.57669 0.0
H197 H 0.60348 0.0372 0.551 0.0
H198 H 0.55355 0.19126 0.43688 0.0
H199 H 0.52474 0.1392 0.44214 0.0
H200 H 0.61438 0.14246 0.41832 0.0
H201 H 0.49662 0.07492 0.47921 0.0
H202 H 0.48029 0.09244 0.45822 0.0
H203 H 0.47821 0.05376 0.4514 0.0
H204 H 0.62457 0.09845 0.42421 0.0
H205 H 0.60498 0.07445 0.4503 0.0
H206 H 0.58671 0.05898 0.42122 0.0
H207 H 0.47456 0.8884 0.36156 0.0
H208 H 0.45484 0.82946 0.36264 0.0
H209 H 0.46132 0.84841 0.39181 0.0
H210 H 0.41975 0.82264 0.38036 0.0
H211 H 0.40991 0.91805 0.39994 0.0
H212 H 0.49713 0.90773 0.39731 0.0
H213 H 0.43201 0.96583 0.45342 0.0
H214 H 0.44539 0.99337 0.42882 0.0
H215 H 0.40605 0.95522 0.42666 0.0
H216 H 0.5455 0.94057 0.42027 0.0
H217 H 0.55265 0.98147 0.42645 0.0
H218 H 0.53633 0.95121 0.44925 0.0
H219 H 0.51561 0.99182 0.58366 0.0
H220 H 0.5717 0.0851 0.53264 0.0
H221 H 0.57024 0.09377 0.49061 0.0
H222 H 0.51672 0.02427 0.42151 0.0
H223 H 0.46859 0.92963 0.4717 0.0
H224 H 0.46674 0.92138 0.51408 0.0
H225 H 0.59696 0.23292 0.4648 0.0
H226 H 0.58548 0.19095 0.47019 0.0
H227 H 0.62463 0.21772 0.45667 0.0
C228 C 0.5703 0.40112 0.7783 0.0
C229 C 0.58407 0.40506 0.7528 0.0
C230 C 0.55375 0.42624 0.72919 0.0
C231 C 0.58023 0.45761 0.72368 0.0
C232 C 0.57386 0.48119 0.7135 0.0
C233 C 0.54043 0.47323 0.7089 0.0
C234 C 0.51376 0.44186 0.71487 0.0
C235 C 0.52088 0.41864 0.72457 0.0
C236 C 0.60279 0.51424 0.70697 0.0
C237 C 0.47772 0.43263 0.71062 0.0
C238 C 0.55657 0.67634 0.79748 0.0
C239 C 0.53546 0.64071 0.78816 0.0
C240 C 0.52604 0.61655 0.74847 0.0
C241 C 0.49942 0.58423 0.74983 0.0
C242 C 0.49698 0.55961 0.73405 0.0
C243 C 0.52186 0.56766 0.71668 0.0
C244 C 0.54848 0.60051 0.71507 0.0
C245 C 0.54992 0.6247 0.73083 0.0
C246 C 0.46803 0.52498 0.73609 0.0
C247 C 0.57576 0.60993 0.69707 0.0
C248 C 0.40941 0.55608 0.58086 0.0
C249 C 0.39615 0.52665 0.59359 0.0
C250 C 0.41661 0.51417 0.60115 0.0
C251 C 0.45104 0.53131 0.5958 0.0
C252 C 0.46432 0.56035 0.58237 0.0
C253 C 0.44323 0.57228 0.57498 0.0
C254 C 0.40146 0.48282 0.61519 0.0
C255 C 0.50089 0.57907 0.57631 0.0
C256 C 0.52804 0.34632 0.54994 0.0
C257 C 0.53789 0.38262 0.54812 0.0
C258 C 0.50568 0.40952 0.55804 0.0
C259 C 0.47422 0.40147 0.56653 0.0
C260 C 0.46942 0.42467 0.57928 0.0
C261 C 0.4967 0.45696 0.583 0.0
C262 C 0.52808 0.46584 0.57298 0.0
C263 C 0.53228 0.44194 0.5607 0.0
C264 C 0.43553 0.41435 0.58947 0.0
C265 C 0.5574 0.50034 0.57585 0.0
C266 C 0.53303 0.49687 0.6968 0.0
C267 C 0.53209 0.52129 0.71071 0.0
C268 C 0.52101 0.54154 0.70096 0.0
C269 C 0.50954 0.53667 0.67685 0.0
C270 C 0.49545 0.55452 0.66699 0.0
C271 C 0.48346 0.54881 0.64341 0.0
C272 C 0.48588 0.52562 0.62863 0.0
C273 C 0.47295 0.51891 0.60487 0.0
C274 C 0.47756 0.49717 0.59022 0.0
C275 C 0.49327 0.48048 0.59908 0.0
C276 C 0.50414 0.48507 0.62332 0.0
C277 C 0.5176 0.46674 0.63335 0.0
C278 C 0.52725 0.47068 0.65737 0.0
C279 C 0.52433 0.49348 0.6722 0.0
C280 C 0.51184 0.51294 0.66231 0.0
C281 C 0.50092 0.50812 0.638 0.0
C282 C 0.36277 0.57293 0.60969 0.0
C283 C 0.35996 0.56287 0.583 0.0
O284 O 0.55864 0.40192 0.73759 0.0
O285 O 0.50937 0.38538 0.54746 0.0
O286 O 0.39073 0.56983 0.57416 0.0
O287 O 0.52888 0.64028 0.76389 0.0
H288 H 0.60695 0.42951 0.75164 0.0
H289 H 0.55863 0.41667 0.78072 0.0
H290 H 0.55084 0.37513 0.78128 0.0
H291 H 0.58998 0.40923 0.79241 0.0
H292 H 0.60588 0.4635 0.72629 0.0
H293 H 0.50068 0.39427 0.72868 0.0
H294 H 0.60132 0.53402 0.71701 0.0
H295 H 0.6274 0.51632 0.71099 0.0
H296 H 0.60124 0.5184 0.6876 0.0
H297 H 0.46006 0.4091 0.71918 0.0
H298 H 0.4733 0.45233 0.71768 0.0
H299 H 0.47208 0.42995 0.6911 0.0
H300 H 0.55269 0.63091 0.79077 0.0
H301 H 0.56226 0.67667 0.8169 0.0
H302 H 0.58065 0.68876 0.78793 0.0
H303 H 0.54396 0.69089 0.7948 0.0
H304 H 0.48054 0.57831 0.76318 0.0
H305 H 0.57019 0.64992 0.7299 0.0
H306 H 0.47736 0.50891 0.74301 0.0
H307 H 0.44865 0.52365 0.74835 0.0
H308 H 0.45632 0.51509 0.71819 0.0
H309 H 0.59608 0.63593 0.69943 0.0
H310 H 0.58673 0.59368 0.69867 0.0
H311 H 0.56501 0.60649 0.67869 0.0
H312 H 0.34252 0.53593 0.58241 0.0
H313 H 0.36993 0.51326 0.59787 0.0
H314 H 0.45325 0.59479 0.56498 0.0
H315 H 0.41254 0.48823 0.63357 0.0
H316 H 0.37387 0.47125 0.61651 0.0
H317 H 0.40733 0.46487 0.60667 0.0
H318 H 0.50743 0.60136 0.5658 0.0
H319 H 0.51635 0.58661 0.59305 0.0
H320 H 0.5074 0.56286 0.56585 0.0
H321 H 0.55095 0.39327 0.56539 0.0
H322 H 0.55083 0.34419 0.55215 0.0
H323 H 0.51222 0.33547 0.56582 0.0
H324 H 0.51387 0.33159 0.5339 0.0
H325 H 0.4537 0.37649 0.56394 0.0
H326 H 0.55627 0.44864 0.55318 0.0
H327 H 0.43792 0.41953 0.60906 0.0
H328 H 0.42522 0.42888 0.58123 0.0
H329 H 0.41747 0.38779 0.5862 0.0
H330 H 0.57836 0.50459 0.56407 0.0
H331 H 0.54955 0.51861 0.57175 0.0
H332 H 0.56668 0.50467 0.5947 0.0
H333 H 0.53953 0.5242 0.72947 0.0
H334 H 0.49299 0.57266 0.67755 0.0
H335 H 0.47245 0.56294 0.63685 0.0
H336 H 0.46783 0.49236 0.57195 0.0
H337 H 0.52034 0.4487 0.62289 0.0
H338 H 0.53715 0.45568 0.66414 0.0
H339 H 0.38348 0.59836 0.61331 0.0
H340 H 0.33896 0.57096 0.61564 0.0
H341 H 0.36754 0.55632 0.62091 0.0
C342 C 0.19565 0.54428 0.93014 0.0
C343 C 0.20726 0.55917 0.90526 0.0
C344 C 0.15519 0.53125 0.88121 0.0
C345 C 0.14898 0.55748 0.87851 0.0
C346 C 0.11737 0.55168 0.87095 0.0
C347 C 0.09157 0.5191 0.86587 0.0
C348 C 0.09793 0.49272 0.86807 0.0
C349 C 0.12985 0.49925 0.87544 0.0
C350 C 0.11152 0.58039 0.86828 0.0
C351 C 0.07094 0.45765 0.86279 0.0
C352 C 0.8731 0.4505 0.97663 0.0
C353 C 0.88654 0.45005 0.95259 0.0
C354 C 0.93488 0.48443 0.92813 0.0
C355 C 0.93217 0.4582 0.91394 0.0
C356 C 0.95487 0.46375 0.8957 0.0
C357 C 0.97992 0.49636 0.89074 0.0
C358 C 0.98248 0.52288 0.90477 0.0
C359 C 0.96014 0.51646 0.92349 0.0
C360 C 0.95193 0.43458 0.88178 0.0
C361 C 0.00873 0.55797 0.89995 0.0
C362 C 0.85542 0.45183 0.76781 0.0
C363 C 0.86546 0.42841 0.77091 0.0
C364 C 0.89942 0.43773 0.77091 0.0
C365 C 0.92372 0.47115 0.76767 0.0
C366 C 0.91345 0.49417 0.76232 0.0
C367 C 0.87923 0.48409 0.7623 0.0
C368 C 0.90944 0.41228 0.77588 0.0
C369 C 0.93871 0.52982 0.75832 0.0
C370 C 0.1608 0.50248 0.69091 0.0
C371 C 0.13893 0.51821 0.69453 0.0
C372 C 0.08207 0.49402 0.70945 0.0
C373 C 0.05778 0.46422 0.71876 0.0
C374 C 0.0345 0.46318 0.73514 0.0
C375 C 0.03524 0.49271 0.74188 0.0
C376 C 0.05837 0.52264 0.73125 0.0
C377 C 0.08158 0.52297 0.7151 0.0
C378 C 0.00988 0.43076 0.74588 0.0
C379 C 0.05916 0.55437 0.7375 0.0
C380 C 0.05783 0.51261 0.85845 0.0
C381 C 0.03555 0.50915 0.87641 0.0
C382 C 0.00319 0.50254 0.87079 0.0
C383 C 0.99273 0.49958 0.84655 0.0
C384 C 0.96063 0.49371 0.84024 0.0
C385 C 0.94977 0.48863 0.81648 0.0
C386 C 0.97074 0.48961 0.79803 0.0
C387 C 0.95924 0.48268 0.77392 0.0
C388 C 0.98085 0.48449 0.75593 0.0
C389 C 0.0138 0.49266 0.76147 0.0
C390 C 0.02552 0.499 0.78556 0.0
C391 C 0.05827 0.50659 0.79183 0.0
C392 C 0.06914 0.51164 0.81564 0.0
C393 C 0.04759 0.50899 0.83413 0.0
C394 C 0.0148 0.50218 0.82819 0.0
C395 C 0.00378 0.49722 0.80388 0.0
C396 C 0.78452 0.43762 0.80151 0.0
C397 C 0.80115 0.42197 0.78692 0.0
O398 O 0.1853 0.5357 0.88877 0.0
O399 O 0.10554 0.49392 0.69513 0.0
O400 O 0.82328 0.44443 0.77088 0.0
O401 O 0.91415 0.47977 0.94663 0.0
H402 H 0.20639 0.58226 0.9042 0.0
H403 H 0.16867 0.53599 0.93209 0.0
H404 H 0.19904 0.52261 0.93228 0.0
H405 H 0.20904 0.56205 0.94501 0.0
H406 H 0.16869 0.58257 0.88174 0.0
H407 H 0.13503 0.47925 0.87722 0.0
H408 H 0.09216 0.578 0.88099 0.0
H409 H 0.13462 0.60443 0.87175 0.0
H410 H 0.10196 0.58019 0.84991 0.0
H411 H 0.07942 0.43977 0.86664 0.0
H412 H 0.04861 0.45145 0.87363 0.0
H413 H 0.06312 0.45489 0.84365 0.0
H414 H 0.86751 0.43967 0.93771 0.0
H415 H 0.88031 0.41695 0.99536 0.0
H416 H 0.8847 0.4771 0.98246 0.0
H417 H 0.84753 0.44708 0.97295 0.0
H418 H 0.91265 0.43323 0.9171 0.0
H419 H 0.96212 0.53654 0.93453 0.0
H420 H 0.94039 0.43299 0.86392 0.0
H421 H 0.97698 0.43735 0.87898 0.0
H422 H 0.9361 0.41105 0.89098 0.0
H423 H 0.00491 0.57596 0.91055 0.0
H424 H 0.03384 0.56166 0.90457 0.0
H425 H 0.0085 0.56316 0.88063 0.0
H426 H 0.8159 0.41817 0.80076 0.0
H427 H 0.8469 0.40304 0.77396 0.0
H428 H 0.87111 0.50182 0.75936 0.0
H429 H 0.92078 0.41663 0.79413 0.0
H430 H 0.88773 0.38682 0.77474 0.0
H431 H 0.92853 0.41445 0.763 0.0
H432 H 0.92674 0.54394 0.75206 0.0
H433 H 0.95266 0.54125 0.77533 0.0
H434 H 0.95715 0.53173 0.74493 0.0
H435 H 0.14653 0.52923 0.71269 0.0
H436 H 0.18768 0.52175 0.69187 0.0
H437 H 0.15614 0.48465 0.70531 0.0
H438 H 0.15577 0.4892 0.67347 0.0
H439 H 0.05798 0.44191 0.71386 0.0
H440 H 0.09917 0.54576 0.70689 0.0
H441 H 0.01346 0.43227 0.76563 0.0
H442 H 0.98397 0.42539 0.74202 0.0
H443 H 0.01261 0.41002 0.7388 0.0
H444 H 0.07639 0.57489 0.726 0.0
H445 H 0.03364 0.551 0.73566 0.0
H446 H 0.06745 0.56133 0.75646 0.0
H447 H 0.04334 0.51107 0.89504 0.0
H448 H 0.94333 0.49252 0.85364 0.0
H449 H 0.92458 0.48369 0.81282 0.0
H450 H 0.97175 0.47882 0.73753 0.0
H451 H 0.07584 0.50845 0.77843 0.0
H452 H 0.09452 0.51722 0.81938 0.0
H453 H 0.76759 0.41992 0.81483 0.0
H454 H 0.80401 0.45982 0.81137 0.0
H455 H 0.76983 0.44528 0.79024 0.0
C456 C 0.39072 0.79516 0.87856 0.0
C457 C 0.40613 0.79592 0.9033 0.0
C458 C 0.44631 0.85416 0.91287 0.0
C459 C 0.42267 0.86365 0.91855 0.0
C460 C 0.43292 0.89515 0.92811 0.0
C461 C 0.46742 0.91769 0.93172 0.0
C462 C 0.49127 0.90852 0.92541 0.0
C463 C 0.48032 0.8768 0.91612 0.0
C464 C 0.40693 0.90437 0.93442 0.0
C465 C 0.52832 0.9322 0.92853 0.0
C466 C 0.46612 0.07923 0.83265 0.0
C467 C 0.50293 0.09205 0.83976 0.0
C468 C 0.50502 0.07742 0.88067 0.0
C469 C 0.53096 0.07083 0.88481 0.0
C470 C 0.52803 0.04825 0.90215 0.0
C471 C 0.49855 0.03231 0.91569 0.0
C472 C 0.47249 0.0394 0.91175 0.0
C473 C 0.47618 0.06216 0.8943 0.0
C474 C 0.55637 0.04142 0.90603 0.0
C475 C 0.44083 0.02287 0.92593 0.0
C476 C 0.60252 0.14556 0.05018 0.0
C477 C 0.6154 0.12959 0.03607 0.0
C478 C 0.59574 0.09613 0.02987 0.0
C479 C 0.56218 0.07837 0.03736 0.0
C480 C 0.54916 0.09419 0.05171 0.0
C481 C 0.56967 0.12756 0.05812 0.0
C482 C 0.61089 0.07989 0.0151 0.0
C483 C 0.51348 0.07599 0.05994 0.0
C484 C 0.49424 0.83202 0.10626 0.0
C485 C 0.48303 0.85767 0.10442 0.0
C486 C 0.5128 0.91256 0.08741 0.0
C487 C 0.54223 0.93119 0.07491 0.0
C488 C 0.54534 0.95549 0.05909 0.0
C489 C 0.51843 0.96156 0.05613 0.0
C490 C 0.48916 0.9438 0.06962 0.0
C491 C 0.48673 0.91954 0.08525 0.0
C492 C 0.57713 0.97432 0.04527 0.0
C493 C 0.46044 0.95037 0.06739 0.0
C494 C 0.47872 0.95109 0.94172 0.0
C495 C 0.48199 0.9753 0.92592 0.0
C496 C 0.49484 0.00787 0.93372 0.0
C497 C 0.50505 0.0168 0.9579 0.0
C498 C 0.51909 0.04956 0.96616 0.0
C499 C 0.53033 0.05828 0.98976 0.0
C500 C 0.52777 0.03453 0.00604 0.0
C501 C 0.54081 0.04343 0.02968 0.0
C502 C 0.53663 0.01908 0.04571 0.0
C503 C 0.52069 0.98596 0.03852 0.0
C504 C 0.50891 0.97675 0.01461 0.0
C505 C 0.49426 0.94387 0.00644 0.0
C506 C 0.48403 0.93532 0.98263 0.0
C507 C 0.48784 0.95927 0.96613 0.0
C508 C 0.50151 0.99236 0.97416 0.0
C509 C 0.51243 0.00117 0.99835 0.0
C510 C 0.64666 0.21116 0.02206 0.0
C511 C 0.65103 0.20152 0.04752 0.0
O512 O 0.43766 0.82366 0.90419 0.0
O513 O 0.51076 0.88862 0.10182 0.0
O514 O 0.62063 0.17804 0.05654 0.0
O515 O 0.50816 0.09937 0.86404 0.0
H516 H 0.39071 0.79751 0.91776 0.0
H517 H 0.39131 0.81878 0.87555 0.0
H518 H 0.40531 0.79175 0.86425 0.0
H519 H 0.36429 0.77534 0.87664 0.0
H520 H 0.39625 0.84686 0.91547 0.0
H521 H 0.49836 0.86938 0.91147 0.0
H522 H 0.4099 0.92477 0.92295 0.0
H523 H 0.38101 0.88338 0.93199 0.0
H524 H 0.41064 0.91333 0.95331 0.0
H525 H 0.54363 0.92207 0.92115 0.0
H526 H 0.53519 0.95565 0.91953 0.0
H527 H 0.53471 0.93799 0.94785 0.0
H528 H 0.50643 0.07083 0.83544 0.0
H529 H 0.4625 0.07466 0.81299 0.0
H530 H 0.44994 0.05555 0.84157 0.0
H531 H 0.45742 0.0965 0.83785 0.0
H532 H 0.55354 0.08354 0.87457 0.0
H533 H 0.4565 0.06793 0.89107 0.0
H534 H 0.56494 0.04645 0.92505 0.0
H535 H 0.54743 0.01503 0.90212 0.0
H536 H 0.57799 0.05656 0.89449 0.0
H537 H 0.42278 0.03086 0.92057 0.0
H538 H 0.42862 0.99575 0.92342 0.0
H539 H 0.44701 0.02854 0.94529 0.0
H540 H 0.66794 0.19133 0.04542 0.0
H541 H 0.64072 0.14276 0.02976 0.0
H542 H 0.55993 0.13996 0.06905 0.0
H543 H 0.60025 0.07523 0.99661 0.0
H544 H 0.63852 0.09543 0.01409 0.0
H545 H 0.60479 0.05581 0.02268 0.0
H546 H 0.50647 0.09237 0.06968 0.0
H547 H 0.49618 0.06449 0.0443 0.0
H548 H 0.51001 0.05592 0.07196 0.0
H549 H 0.46855 0.85053 0.08738 0.0
H550 H 0.47203 0.80693 0.1071 0.0
H551 H 0.50859 0.83296 0.09018 0.0
H552 H 0.51035 0.83617 0.12227 0.0
H553 H 0.56251 0.92605 0.07716 0.0
H554 H 0.46481 0.90655 0.09604 0.0
H555 H 0.57124 0.97126 0.02577 0.0
H556 H 0.58898 0.00097 0.04982 0.0
H557 H 0.59541 0.96608 0.04918 0.0
H558 H 0.44004 0.93554 0.07994 0.0
H559 H 0.46952 0.97688 0.07095 0.0
H560 H 0.45005 0.94452 0.04882 0.0
H561 H 0.47502 0.96881 0.90719 0.0
H562 H 0.52196 0.0689 0.95438 0.0
H563 H 0.54122 0.08392 0.99508 0.0
H564 H 0.54687 0.02611 0.06379 0.0
H565 H 0.49094 0.92443 0.01827 0.0
H566 H 0.47325 0.9097 0.97728 0.0
H567 H 0.6268 0.21779 0.02085 0.0
H568 H 0.67056 0.23224 0.01603 0.0
H569 H 0.63961 0.19022 0.00937 0.0
C570 C 0.62679 0.4372 0.05534 0.0
C571 C 0.63229 0.43165 0.08179 0.0
C572 C 0.61152 0.46451 0.10251 0.0
C573 C 0.57737 0.44038 0.10189 0.0
C574 C 0.55318 0.44744 0.11052 0.0
C575 C 0.56312 0.47949 0.11929 0.0
C576 C 0.59738 0.50404 0.11945 0.0
C577 C 0.62114 0.49596 0.1115 0.0
C578 C 0.5169 0.42062 0.11009 0.0
C579 C 0.60897 0.5389 0.12778 0.0
C580 C 0.43345 0.56445 0.00605 0.0
C581 C 0.4442 0.56383 0.03119 0.0
C582 C 0.45096 0.5264 0.05775 0.0
C583 C 0.47518 0.55134 0.07285 0.0
C584 C 0.48999 0.54373 0.09189 0.0
C585 C 0.4792 0.51035 0.09669 0.0
C586 C 0.45397 0.48514 0.08202 0.0
C587 C 0.44052 0.49358 0.06254 0.0
C588 C 0.51761 0.57155 0.10654 0.0
C589 C 0.44153 0.44929 0.08667 0.0
C590 C 0.43408 0.58284 0.23068 0.0
C591 C 0.46547 0.59796 0.21986 0.0
C592 C 0.48153 0.58011 0.21454 0.0
C593 C 0.46587 0.54631 0.2201 0.0
C594 C 0.43481 0.53125 0.23176 0.0
C595 C 0.41946 0.54988 0.23712 0.0
C596 C 0.51518 0.59747 0.20273 0.0
C597 C 0.41763 0.49541 0.23814 0.0
C598 C 0.66842 0.51972 0.29301 0.0
C599 C 0.63055 0.49833 0.29607 0.0
C600 C 0.59323 0.51533 0.27826 0.0
C601 C 0.59772 0.54411 0.26797 0.0
C602 C 0.57531 0.54313 0.25045 0.0
C603 C 0.5469 0.51257 0.24384 0.0
C604 C 0.54149 0.48342 0.25502 0.0
C605 C 0.56505 0.48507 0.27196 0.0
C606 C 0.58218 0.57483 0.239 0.0
C607 C 0.51089 0.45064 0.24909 0.0
C608 C 0.53757 0.4876 0.12751 0.0
C609 C 0.51911 0.4931 0.11006 0.0
C610 C 0.49546 0.50203 0.11632 0.0
C611 C 0.48984 0.50547 0.14073 0.0
C612 C 0.46602 0.51408 0.1477 0.0
C613 C 0.46288 0.52038 0.17163 0.0
C614 C 0.48309 0.5178 0.1895 0.0
C615 C 0.48231 0.52712 0.21352 0.0
C616 C 0.50176 0.52309 0.23102 0.0
C617 C 0.52336 0.51142 0.22501 0.0
C618 C 0.52547 0.50322 0.20088 0.0
C619 C 0.54789 0.4927 0.194 0.0
C620 C 0.5511 0.48649 0.17006 0.0
C621 C 0.53262 0.49133 0.15201 0.0
C622 C 0.509 0.50076 0.15861 0.0
C623 C 0.5054 0.50667 0.18307 0.0
C624 C 0.39066 0.6055 0.20037 0.0
C625 C 0.41632 0.62253 0.22099 0.0
O626 O 0.63602 0.45886 0.09458 0.0
O627 O 0.61594 0.51781 0.29488 0.0
O628 O 0.4175 0.59933 0.23547 0.0
O629 O 0.43785 0.53298 0.03807 0.0
H630 H 0.61066 0.40869 0.0882 0.0
H631 H 0.60686 0.4438 0.05382 0.0
H632 H 0.65013 0.45776 0.04811 0.0
H633 H 0.61854 0.4151 0.04377 0.0
H634 H 0.56912 0.41595 0.0948 0.0
H635 H 0.64746 0.51446 0.11182 0.0
H636 H 0.50308 0.42596 0.09614 0.0
H637 H 0.51378 0.39598 0.10609 0.0
H638 H 0.50533 0.41985 0.12756 0.0
H639 H 0.63534 0.55607 0.12299 0.0
H640 H 0.59283 0.54778 0.11985 0.0
H641 H 0.60711 0.53967 0.14752 0.0
H642 H 0.43574 0.57554 0.04481 0.0
H643 H 0.47759 0.59546 0.98966 0.0
H644 H 0.4168 0.53809 -1e-05 0.0
H645 H 0.41252 0.57005 0.00761 0.0
H646 H 0.48323 0.57689 0.06965 0.0
H647 H 0.42178 0.47449 0.05085 0.0
H648 H 0.50775 0.57365 0.12407 0.0
H649 H 0.53855 0.56681 0.11 0.0
H650 H 0.52765 0.59555 0.09753 0.0
H651 H 0.41809 0.43285 0.07641 0.0
H652 H 0.4609 0.4432 0.08131 0.0
H653 H 0.437 0.44424 0.10604 0.0
H654 H 0.44005 0.63715 0.2115 0.0
H655 H 0.47798 0.62382 0.21582 0.0
H656 H 0.3955 0.53854 0.24585 0.0
H657 H 0.51218 0.58939 0.18367 0.0
H658 H 0.52645 0.62465 0.20338 0.0
H659 H 0.53286 0.5911 0.21143 0.0
H660 H 0.39266 0.48687 0.24595 0.0
H661 H 0.41459 0.48014 0.22193 0.0
H662 H 0.4334 0.49139 0.25127 0.0
H663 H 0.6223 0.48152 0.28027 0.0
H664 H 0.68019 0.50407 0.29281 0.0
H665 H 0.6736 0.53267 0.27573 0.0
H666 H 0.68034 0.53847 0.30761 0.0
H667 H 0.61939 0.56736 0.27335 0.0
H668 H 0.56118 0.46297 0.28063 0.0
H669 H 0.57915 0.57164 0.21924 0.0
H670 H 0.56392 0.58181 0.24553 0.0
H671 H 0.60778 0.59539 0.24338 0.0
H672 H 0.5083 0.43113 0.26139 0.0
H673 H 0.48803 0.45278 0.25001 0.0
H674 H 0.51247 0.44296 0.23052 0.0
H675 H 0.52378 0.49115 0.09128 0.0
H676 H 0.45008 0.51679 0.13467 0.0
H677 H 0.44471 0.52773 0.17595 0.0
H678 H 0.50161 0.53103 0.24931 0.0
H679 H 0.56354 0.4895 0.207 0.0
H680 H 0.56883 0.47856 0.16583 0.0
H681 H 0.3872 0.62386 0.19026 0.0
H682 H 0.39996 0.59351 0.18779 0.0
H683 H 0.36606 0.58609 0.20668 0.0
Zn684 Zn 0.67599 0.45539 0.4311 0.0
Zn685 Zn 0.63397 0.3902 0.41915 0.0
O686 O 0.68162 0.39857 0.41939 0.0
O687 O 0.71694 0.44973 0.43066 0.0
O688 O 0.60957 0.34124 0.4142 0.0
O689 O 0.64868 0.44836 0.4613 0.0
O690 O 0.61583 0.39629 0.4506 0.0
C691 C 0.71128 0.42146 0.42411 0.0
C692 C 0.637 0.44076 0.38543 0.0
O693 O 0.62313 0.41055 0.39093 0.0
O694 O 0.65931 0.46285 0.3991 0.0
C695 C 0.61894 0.32837 0.39814 0.0
O696 O 0.6406 0.34715 0.38223 0.0
C697 C 0.62378 0.42021 0.46518 0.0
Zn698 Zn 0.20501 0.66876 0.58795 0.0
Zn699 Zn 0.23011 0.62926 0.5735 0.0
O700 O 0.26985 0.67578 0.57783 0.0
O701 O 0.25196 0.70819 0.59179 0.0
O702 O 0.2545 0.60471 0.56695 0.0
O703 O 0.18329 0.63795 0.6159 0.0
O704 O 0.20418 0.60729 0.60335 0.0
C705 C 0.27568 0.7039 0.58522 0.0
C706 C 0.18324 0.63698 0.53984 0.0
O707 O 0.19987 0.62274 0.54468 0.0
O708 O 0.18242 0.65725 0.55471 0.0
C709 C 0.27846 0.61579 0.55237 0.0
O710 O 0.28427 0.64081 0.53895 0.0
C711 C 0.18708 0.61317 0.6182 0.0
Zn712 Zn 0.56284 0.21833 0.72365 0.0
Zn713 Zn 0.62709 0.24792 0.74305 0.0
O714 O 0.6133 0.28252 0.7408 0.0
O715 O 0.56114 0.26063 0.72803 0.0
O716 O 0.67327 0.27748 0.7567 0.0
O717 O 0.55035 0.18742 0.75185 0.0
O718 O 0.60158 0.21272 0.76763 0.0
C719 C 0.58806 0.28536 0.73557 0.0
C720 C 0.61364 0.21756 0.69307 0.0
O721 O 0.63318 0.2306 0.7111 0.0
O722 O 0.58355 0.2112 0.69355 0.0
C723 C 0.69223 0.30078 0.74312 0.0
O724 O 0.68276 0.30025 0.72077 0.0
C725 C 0.57094 0.19037 0.76826 0.0
Zn726 Zn 0.38784 0.55171 0.89789 0.0
Zn727 Zn 0.41421 0.61916 0.90258 0.0
O728 O 0.36392 0.59818 0.90041 0.0
O729 O 0.34021 0.54438 0.89652 0.0
O730 O 0.42635 0.66628 0.9068 0.0
O731 O 0.40957 0.55518 0.93091 0.0
O732 O 0.43187 0.60902 0.93263 0.0
C733 C 0.33784 0.57007 0.89822 0.0
C734 C 0.43516 0.59241 0.86089 0.0
O735 O 0.43675 0.61659 0.87256 0.0
O736 O 0.41623 0.56306 0.86751 0.0
C737 C 0.41333 0.67712 0.89195 0.0
O738 O 0.39607 0.65863 0.87343 0.0
C739 C 0.42741 0.58254 0.94177 0.0
Zn740 Zn 0.83083 0.46024 0.08308 0.0
Zn741 Zn 0.79344 0.39226 0.0791 0.0
O742 O 0.76 0.40779 0.08233 0.0
O743 O 0.78722 0.46193 0.08375 0.0
O744 O 0.76292 0.34368 0.0751 0.0
O745 O 0.8508 0.45908 0.05068 0.0
O746 O 0.82026 0.405 0.04879 0.0
C747 C 0.75992 0.43476 0.08363 0.0
C748 C 0.84326 0.42339 0.12024 0.0
O749 O 0.82154 0.39809 0.10858 0.0
O750 O 0.85068 0.45208 0.11381 0.0
C751 C 0.73823 0.32908 0.08886 0.0
O752 O 0.73429 0.34542 0.10656 0.0
C753 C 0.84184 0.43197 0.03984 0.0
Zn754 Zn 0.35188 0.81548 0.22433 0.0
Zn755 Zn 0.37918 0.77521 0.23002 0.0
O756 O 0.32904 0.74406 0.22728 0.0
O757 O 0.30539 0.77449 0.22251 0.0
O758 O 0.39577 0.74318 0.23214 0.0
O759 O 0.37968 0.83296 0.19421 0.0
O760 O 0.40166 0.80125 0.20031 0.0
C761 C 0.30305 0.74656 0.22453 0.0
C762 C 0.38953 0.82486 0.2692 0.0
O763 O 0.39414 0.80202 0.26113 0.0
O764 O 0.37298 0.83489 0.25723 0.0
C765 C 0.38574 0.72205 0.24856 0.0
O766 O 0.36684 0.72314 0.26553 0.0
C767 C 0.39938 0.8228 0.18814 0.0
C768 C 0.22985 0.66252 0.20693 0.0
C769 C 0.20666 0.65852 0.22492 0.0
C770 C 0.24926 0.7096 0.2448 0.0
C771 C 0.26992 0.71633 0.22464 0.0
N772 N 0.2801 0.69991 0.18602 0.0
N773 N 0.2045 0.66725 0.26734 0.0
C774 C 0.26054 0.69275 0.20572 0.0
C775 C 0.21902 0.67896 0.24583 0.0
N776 N 0.22358 0.63655 0.19218 0.0
N777 N 0.25848 0.73234 0.26304 0.0
H778 H 0.18676 0.64256 0.26951 0.0
H779 H 0.21381 0.68006 0.28353 0.0
H780 H 0.28136 0.75428 0.26377 0.0
H781 H 0.24242 0.73035 0.27669 0.0
H782 H 0.24089 0.63686 0.18025 0.0
H783 H 0.20259 0.61329 0.19393 0.0
H784 H 0.27262 0.68535 0.17046 0.0
H785 H 0.30271 0.72187 0.1844 0.0
C786 C 0.62583 0.25326 0.41332 0.0
C787 C 0.59146 0.23004 0.41611 0.0
C788 C 0.57626 0.26834 0.39822 0.0
C789 C 0.61022 0.29362 0.40045 0.0
N790 N 0.66791 0.31067 0.41051 0.0
N791 N 0.53612 0.2098 0.39948 0.0
C792 C 0.63535 0.28612 0.40747 0.0
C793 C 0.56718 0.2358 0.40488 0.0
N794 N 0.64916 0.24363 0.41539 0.0
N795 N 0.55263 0.27578 0.39058 0.0
H796 H 0.53009 0.18548 0.4021 0.0
H797 H 0.51778 0.21176 0.38987 0.0
H798 H 0.55878 0.2989 0.3842 0.0
H799 H 0.52699 0.25963 0.39143 0.0
H800 H 0.67426 0.2587 0.41133 0.0
H801 H 0.64272 0.21931 0.41835 0.0
H802 H 0.68632 0.30715 0.41854 0.0
H803 H 0.67632 0.33522 0.40672 0.0
C804 C 0.31636 0.56022 0.55302 0.0
C805 C 0.34493 0.57959 0.56792 0.0
C806 C 0.33506 0.62609 0.56544 0.0
C807 C 0.30338 0.60486 0.55435 0.0
N808 N 0.26414 0.55252 0.53612 0.0
N809 N 0.38981 0.63484 0.57653 0.0
C810 C 0.29432 0.57225 0.54737 0.0
C811 C 0.35705 0.61388 0.57036 0.0
N812 N 0.31157 0.53133 0.54321 0.0
N813 N 0.34315 0.65707 0.57303 0.0
H814 H 0.40699 0.62688 0.57906 0.0
H815 H 0.40085 0.66036 0.57638 0.0
H816 H 0.32799 0.66728 0.5699 0.0
H817 H 0.3638 0.67189 0.58405 0.0
H818 H 0.29256 0.51698 0.53087 0.0
H819 H 0.32923 0.5238 0.54514 0.0
H820 H 0.25406 0.52733 0.53322 0.0
H821 H 0.24835 0.5612 0.53058 0.0
C822 C 0.77088 0.35844 0.77957 0.0
C823 C 0.77487 0.39003 0.77395 0.0
C824 C 0.72253 0.36177 0.75016 0.0
C825 C 0.72092 0.33119 0.75347 0.0
N826 N 0.74788 0.30149 0.76669 0.0
N827 N 0.75813 0.42005 0.74691 0.0
C828 C 0.74637 0.32985 0.76679 0.0
C829 C 0.75205 0.3912 0.75696 0.0
N830 N 0.78926 0.35474 0.79739 0.0
N831 N 0.6952 0.36296 0.74181 0.0
H832 H 0.77891 0.44291 0.75076 0.0
H833 H 0.74367 0.42073 0.73269 0.0
H834 H 0.67221 0.34205 0.73787 0.0
H835 H 0.6942 0.38467 0.74159 0.0
H836 H 0.78314 0.33176 0.80398 0.0
H837 H 0.80911 0.37354 0.80698 0.0
H838 H 0.76818 0.3002 0.77375 0.0
H839 H 0.73054 0.28016 0.7574 0.0
C840 C 0.43865 0.76488 0.90977 0.0
C841 C 0.4076 0.76415 0.90714 0.0
C842 C 0.37984 0.70384 0.90272 0.0
C843 C 0.41146 0.70681 0.89824 0.0
N844 N 0.47156 0.74082 0.89697 0.0
N845 N 0.34722 0.73089 0.90765 0.0
C846 C 0.44108 0.7375 0.90166 0.0
C847 C 0.37766 0.73287 0.90581 0.0
N848 N 0.4646 0.78972 0.92248 0.0
N849 N 0.35228 0.67333 0.90513 0.0
H850 H 0.3445 0.75074 0.91303 0.0
H851 H 0.32459 0.70984 0.90327 0.0
H852 H 0.35316 0.65162 0.90372 0.0
H853 H 0.32914 0.66935 0.91069 0.0
H854 H 0.48702 0.7901 0.92598 0.0
H855 H 0.46147 0.80644 0.93301 0.0
H856 H 0.49351 0.76364 0.89716 0.0
H857 H 0.47449 0.72129 0.89098 0.0
C858 C 0.68612 0.44305 0.10501 0.0
C859 C 0.66333 0.42783 0.08537 0.0
C860 C 0.70231 0.41389 0.06668 0.0
C861 C 0.72718 0.43347 0.0842 0.0
N862 N 0.74274 0.46611 0.12086 0.0
N863 N 0.64307 0.38094 0.05848 0.0
C864 C 0.71913 0.44797 0.10362 0.0
C865 C 0.66929 0.40777 0.06938 0.0
N866 N 0.67489 0.44868 0.12607 0.0
N867 N 0.7104 0.40236 0.04676 0.0
H868 H 0.61829 0.37344 0.06251 0.0
H869 H 0.64593 0.3638 0.04827 0.0
H870 H 0.7347 0.40761 0.04325 0.0
H871 H 0.69359 0.39057 0.03252 0.0
H872 H 0.68942 0.45748 0.14169 0.0
H873 H 0.64953 0.43974 0.12899 0.0
H874 H 0.73978 0.48087 0.13352 0.0
H875 H 0.76612 0.46785 0.12186 0.0
C876 C 0.35273 0.78466 0.56921 0.0
C877 C 0.37611 0.78607 0.58661 0.0
C878 C 0.3357 0.73036 0.59891 0.0
C879 C 0.31043 0.73184 0.58517 0.0
N880 N 0.29487 0.7595 0.55585 0.0
N881 N 0.39513 0.75163 0.60418 0.0
C882 C 0.31894 0.75871 0.56984 0.0
C883 C 0.36932 0.75627 0.59744 0.0
N884 N 0.3637 0.80571 0.55048 0.0
N885 N 0.32752 0.70509 0.61424 0.0
H886 H 0.41988 0.76867 0.60029 0.0
H887 H 0.39174 0.72933 0.61035 0.0
H888 H 0.3031 0.68581 0.61624 0.0
H889 H 0.3446 0.7048 0.62644 0.0
H890 H 0.34844 0.80446 0.53617 0.0
H891 H 0.38912 0.82118 0.54745 0.0
H892 H 0.29878 0.78035 0.54679 0.0
H893 H 0.27042 0.73987 0.5542 0.0
C894 C 0.60818 0.36774 0.76316 0.0
C895 C 0.59332 0.3787 0.7461 0.0
C896 C 0.58401 0.33303 0.71916 0.0
C897 C 0.5907 0.31797 0.73874 0.0
N898 N 0.60731 0.32061 0.78043 0.0
N899 N 0.58825 0.383 0.70359 0.0
C900 C 0.60278 0.33539 0.76095 0.0
C901 C 0.58722 0.36461 0.72264 0.0
N902 N 0.62976 0.38911 0.78019 0.0
N903 N 0.57475 0.31733 0.69729 0.0
H904 H 0.59575 0.40788 0.70555 0.0
H905 H 0.58635 0.37538 0.68579 0.0
H906 H 0.57546 0.29594 0.69328 0.0
H907 H 0.5652 0.32482 0.68331 0.0
H908 H 0.64345 0.38303 0.79192 0.0
H909 H 0.63747 0.41414 0.78003 0.0
H910 H 0.61312 0.33163 0.79744 0.0
H911 H 0.60189 0.29623 0.78025 0.0
C912 C 0.26884 0.58556 0.91846 0.0
C913 C 0.24362 0.56783 0.90077 0.0
C914 C 0.28265 0.55629 0.87895 0.0
C915 C 0.3049 0.56819 0.89907 0.0
N916 N 0.31774 0.5916 0.93923 0.0
N917 N 0.23663 0.55684 0.8582 0.0
C918 C 0.29779 0.58247 0.91907 0.0
C919 C 0.25313 0.55873 0.87914 0.0
N920 N 0.2664 0.60744 0.93343 0.0
N921 N 0.28971 0.54287 0.85961 0.0
H922 H 0.2192 0.56475 0.85707 0.0
H923 H 0.24376 0.55267 0.84151 0.0
H924 H 0.31208 0.54269 0.858 0.0
H925 H 0.27247 0.53012 0.8458 0.0
H926 H 0.28564 0.6234 0.94511 0.0
H927 H 0.24697 0.61262 0.93186 0.0
H928 H 0.31159 0.59897 0.95512 0.0
H929 H 0.33862 0.58867 0.94093 0.0
C930 C 0.69647 0.23674 0.07854 0.0
C931 C 0.6681 0.23134 0.06471 0.0
C932 C 0.68096 0.28774 0.07357 0.0
C933 C 0.71239 0.29469 0.08339 0.0
N934 N 0.75004 0.27627 0.09663 0.0
N935 N 0.62506 0.24593 0.06094 0.0
C936 C 0.71996 0.26919 0.08659 0.0
C937 C 0.65762 0.25505 0.06592 0.0
N938 N 0.69967 0.2105 0.08515 0.0
N939 N 0.67427 0.31268 0.07004 0.0
H940 H 0.60688 0.22166 0.05694 0.0
H941 H 0.61521 0.26138 0.0636 0.0
H942 H 0.69053 0.33699 0.07549 0.0
H943 H 0.65367 0.30979 0.06017 0.0
H944 H 0.71843 0.21235 0.09668 0.0
H945 H 0.68102 0.18623 0.08156 0.0
H946 H 0.75895 0.25982 0.09667 0.0
H947 H 0.76699 0.29938 0.10396 0.0
C948 C 0.43607 0.67881 0.24118 0.0
C949 C 0.40968 0.64622 0.23598 0.0
C950 C 0.36814 0.66203 0.24556 0.0
C951 C 0.39404 0.69542 0.2476 0.0
N952 N 0.45245 0.73481 0.254 0.0
N953 N 0.35418 0.60513 0.24726 0.0
C954 C 0.42809 0.70359 0.24753 0.0
C955 C 0.37677 0.63719 0.24277 0.0
N956 N 0.4685 0.68568 0.24035 0.0
N957 N 0.33531 0.65401 0.24461 0.0
H958 H 0.36067 0.58682 0.24702 0.0
H959 H 0.3306 0.59764 0.25414 0.0
H960 H 0.32753 0.67132 0.24589 0.0
H961 H 0.31589 0.63032 0.24043 0.0
H962 H 0.48923 0.70924 0.2411 0.0
H963 H 0.47473 0.66718 0.23958 0.0
H964 H 0.47781 0.74259 0.25539 0.0
H965 H 0.447 0.75291 0.25951 0.0
C966 C 0.77911 0.39925 0.43345 0.0
C967 C 0.7849 0.39338 0.4092 0.0
C968 C 0.74524 0.4103 0.3951 0.0
C969 C 0.73916 0.41545 0.4191 0.0
N970 N 0.75577 0.42296 0.46068 0.0
N971 N 0.78346 0.40739 0.36759 0.0
C972 C 0.75809 0.41279 0.43811 0.0
C973 C 0.77099 0.4031 0.39018 0.0
N974 N 0.7924 0.39075 0.45217 0.0
N975 N 0.72629 0.41216 0.37684 0.0
H976 H 0.80459 0.40609 0.36316 0.0
H977 H 0.776 0.41718 0.3538 0.0
H978 H 0.70911 0.42017 0.37927 0.0
H979 H 0.72621 0.40385 0.35945 0.0
H980 H 0.78481 0.38964 0.46976 0.0
H981 H 0.80979 0.38302 0.4504 0.0
H982 H 0.77183 0.42551 0.47482 0.0
H983 H 0.73949 0.43153 0.46491 0.0
C984 C 0.16088 0.63025 0.47346 0.0
C985 C 0.12913 0.62815 0.47455 0.0
C986 C 0.12902 0.61987 0.51796 0.0
C987 C 0.16344 0.62927 0.51713 0.0
N988 N 0.21163 0.64069 0.49341 0.0
N989 N 0.07743 0.60479 0.49613 0.0
C990 C 0.17896 0.63297 0.49473 0.0
C991 C 0.11136 0.61807 0.49635 0.0
N992 N 0.17482 0.62992 0.45221 0.0
N993 N 0.11338 0.61282 0.53951 0.0
H994 H 0.06307 0.59809 0.48046 0.0
H995 H 0.06259 0.59589 0.5111 0.0
H996 H 0.12421 0.6099 0.55509 0.0
H997 H 0.09007 0.6105 0.54228 0.0
H998 H 0.16244 0.62534 0.43566 0.0
H999 H 0.16244 0.62534 0.43566 0.0
H1000 H 0.22366 0.64399 0.47712 0.0
H1001 H 0.22711 0.64492 0.50831 0.0
C1002 C 0.66727 0.18323 0.64507 0.0
C1003 C 0.65523 0.1957 0.6168 0.0
C1004 C 0.62373 0.23137 0.64384 0.0
C1005 C 0.62678 0.21189 0.67096 0.0
N1006 N 0.65265 0.17705 0.69293 0.0
N1007 N 0.6395 0.24036 0.59557 0.0
C1008 C 0.64929 0.18928 0.672 0.0
C1009 C 0.64104 0.22646 0.61617 0.0
N1010 N 0.68442 0.16692 0.64482 0.0
N1011 N 0.60952 0.25047 0.64453 0.0
H1012 H 0.64813 0.23525 0.57983 0.0
H1013 H 0.62999 0.25633 0.59501 0.0
H1014 H 0.60029 0.25435 0.66043 0.0
H1015 H 0.60773 0.26203 0.62925 0.0
H1016 H 0.6898 0.15866 0.66056 0.0
H1017 H 0.69273 0.16259 0.62863 0.0
H1018 H 0.66544 0.16405 0.69392 0.0
H1019 H 0.64205 0.17992 0.70849 0.0
C1020 C 0.49977 0.5959 0.81752 0.0
C1021 C 0.50323 0.62157 0.80244 0.0
C1022 C 0.45326 0.61787 0.82079 0.0
C1023 C 0.45596 0.59908 0.83943 0.0
N1024 N 0.48421 0.5723 0.85662 0.0
N1025 N 0.47958 0.65429 0.78787 0.0
C1026 C 0.47959 0.5883 0.838 0.0
C1027 C 0.4786 0.63149 0.8033 0.0
N1028 N 0.51452 0.57777 0.81187 0.0
N1029 N 0.42591 0.62189 0.81949 0.0
H1030 H 0.4952 0.66274 0.77325 0.0
H1031 H 0.46566 0.66599 0.7901 0.0
H1032 H 0.40663 0.61162 0.83177 0.0
H1033 H 0.42058 0.63241 0.80504 0.0
H1034 H 0.51052 0.55726 0.82147 0.0
H1035 H 0.52651 0.57998 0.79574 0.0
H1036 H 0.50379 0.56727 0.85735 0.0
H1037 H 0.47061 0.56675 0.87231 0.0
C1038 C 0.92341 0.45418 0.98805 0.0
C1039 C 0.89501 0.42798 0.96319 0.0
C1040 C 0.83222 0.3994 0.99486 0.0
C1041 C 0.85753 0.4311 0.01734 0.0
N1042 N 0.92128 0.47793 0.03271 0.0
N1043 N 0.8337 0.37207 0.95069 0.0
C1044 C 0.90273 0.45736 0.01453 0.0
C1045 C 0.85126 0.39481 0.96798 0.0
N1046 N 0.95681 0.47209 0.9853 0.0
N1047 N 0.799 0.37965 0.99785 0.0
H1048 H 0.8454 0.37182 0.93489 0.0
H1049 H 0.80864 0.35444 0.95281 0.0
H1050 H 0.78683 0.38277 0.01236 0.0
H1051 H 0.78434 0.3615 0.98514 0.0
H1052 H 0.97259 0.48773 0.9989 0.0
H1053 H 0.9673 0.47016 0.96936 0.0
H1054 H 0.94711 0.49277 0.03138 0.0
H1055 H 0.91053 0.47919 0.04866 0.0
C1056 C 0.4266 0.84184 0.12345 0.0
C1057 C 0.46208 0.85595 0.12624 0.0
C1058 C 0.45564 0.85539 0.17007 0.0
C1059 C 0.42054 0.83642 0.16694 0.0
N1060 N 0.3722 0.80805 0.14078 0.0
N1061 N 0.5101 0.8797 0.15449 0.0
C1062 C 0.40589 0.82893 0.14369 0.0
C1063 C 0.47649 0.86397 0.14997 0.0
N1064 N 0.41242 0.84194 0.10184 0.0
N1065 N 0.46956 0.86498 0.19256 0.0
H1066 H 0.52857 0.88778 0.14166 0.0
H1067 H 0.52857 0.88778 0.14166 0.0
H1068 H 0.45535 0.86009 0.20794 0.0
H1069 H 0.49536 0.87874 0.19574 0.0
H1070 H 0.38725 0.8349 0.09972 0.0
H1071 H 0.4258 0.85312 0.08663 0.0
H1072 H 0.36073 0.79805 0.12423 0.0
H1073 H 0.35602 0.79833 0.15509 0.0
C1074 C 0.62784 0.49683 0.34242 0.0
C1075 C 0.62311 0.48008 0.31986 0.0
C1076 C 0.62466 0.43516 0.3407 0.0
C1077 C 0.62749 0.45108 0.36305 0.0
N1078 N 0.61765 0.48996 0.38487 0.0
N1079 N 0.60181 0.4263 0.30059 0.0
C1080 C 0.62429 0.47952 0.36378 0.0
C1081 C 0.61653 0.44696 0.31991 0.0
N1082 N 0.63741 0.52948 0.344 0.0
N1083 N 0.6315 0.41009 0.33876 0.0
H1084 H 0.5916 0.43209 0.28603 0.0
H1085 H 0.59499 0.40151 0.30079 0.0
H1086 H 0.63936 0.40152 0.35311 0.0
H1087 H 0.6328 0.4002 0.32226 0.0
H1088 H 0.64446 0.54264 0.36022 0.0
H1089 H 0.64161 0.54461 0.32953 0.0
H1090 H 0.61225 0.50902 0.38587 0.0
H1091 H 0.6135 0.47699 0.40069 0.0
C1092 C 0.39515 0.83881 0.33645 0.0
C1093 C 0.42926 0.8641 0.33955 0.0
C1094 C 0.4354 0.86671 0.29589 0.0
C1095 C 0.40274 0.83925 0.2932 0.0
N1096 N 0.34995 0.80075 0.31047 0.0
N1097 N 0.47413 0.91224 0.32145 0.0
C1098 C 0.38218 0.82601 0.3133 0.0
C1099 C 0.44726 0.88114 0.31901 0.0
N1100 N 0.3737 0.8272 0.35502 0.0
N1101 N 0.45539 0.87862 0.27643 0.0
H1102 H 0.48086 0.92537 0.33769 0.0
H1103 H 0.48664 0.9268 0.30698 0.0
H1104 H 0.44719 0.86933 0.25909 0.0
H1105 H 0.48078 0.89603 0.27775 0.0
H1106 H 0.37959 0.83662 0.3725 0.0
H1107 H 0.37959 0.83662 0.3725 0.0
H1108 H 0.33418 0.79009 0.3249 0.0
H1109 H 0.33909 0.7904 0.2938 0.0
C1110 C 0.54616 0.38981 0.50236 0.0
C1111 C 0.55998 0.39809 0.52623 0.0
C1112 C 0.61638 0.42157 0.50966 0.0
C1113 C 0.60254 0.41509 0.48619 0.0
N1114 N 0.55545 0.40294 0.46038 0.0
N1115 N 0.6099 0.43346 0.55058 0.0
C1116 C 0.56781 0.40238 0.48262 0.0
C1117 C 0.59555 0.41758 0.52933 0.0
N1118 N 0.51274 0.36891 0.49808 0.0
N1119 N 0.64911 0.43028 0.51343 0.0
H1120 H 0.59666 0.43457 0.56512 0.0
H1121 H 0.63549 0.44986 0.55263 0.0
H1122 H 0.66522 0.4331 0.49958 0.0
H1123 H 0.6593 0.43152 0.53041 0.0
H1124 H 0.50293 0.3592 0.48109 0.0
H1125 H 0.49479 0.35872 0.51116 0.0
H1126 H 0.53081 0.39725 0.45726 0.0
H1127 H 0.57065 0.41261 0.44555 0.0
C1128 C 0.16574 0.578 0.68062 0.0
C1129 C 0.14551 0.54358 0.67504 0.0
C1130 C 0.14554 0.55755 0.63263 0.0
C1131 C 0.17093 0.5902 0.63797 0.0
N1132 N 0.20845 0.63102 0.66676 0.0
N1133 N 0.11754 0.50082 0.644 0.0
C1134 C 0.18184 0.60035 0.66188 0.0
C1135 C 0.13547 0.53339 0.65059 0.0
N1136 N 0.16878 0.58995 0.70352 0.0
N1137 N 0.13056 0.54969 0.6104 0.0
H1138 H 0.10785 0.48144 0.65581 0.0
H1139 H 0.11415 0.49262 0.62624 0.0
H1140 H 0.13735 0.56682 0.59682 0.0
H1141 H 0.10922 0.52725 0.60621 0.0
H1142 H 0.18091 0.61504 0.70772 0.0
H1143 H 0.15554 0.57589 0.71794 0.0
H1144 H 0.22013 0.63819 0.68358 0.0
H1145 H 0.22077 0.64834 0.65359 0.0
C1146 C 0.52312 0.15063 0.82456 0.0
C1147 C 0.52682 0.12223 0.8253 0.0
C1148 C 0.56578 0.14314 0.7919 0.0
C1149 C 0.55845 0.16882 0.78916 0.0
N1150 N 0.5315 0.19853 0.80274 0.0
N1151 N 0.56445 0.10148 0.81755 0.0
C1152 C 0.53785 0.17324 0.80567 0.0
C1153 C 0.55202 0.12142 0.81132 0.0
N1154 N 0.50726 0.15703 0.84258 0.0
N1155 N 0.58451 0.13843 0.77522 0.0
H1156 H 0.55775 0.08777 0.83307 0.0
H1157 H 0.58477 0.10193 0.8093 0.0
H1158 H 0.59567 0.15424 0.76101 0.0
H1159 H 0.58695 0.11756 0.7744 0.0
H1160 H 0.50676 0.17885 0.84441 0.0
H1161 H 0.49731 0.14215 0.85732 0.0
H1162 H 0.51301 0.20056 0.81176 0.0
H1163 H 0.54372 0.21695 0.79026 0.0
C1164 C 0.47836 0.55631 0.99904 0.0
C1165 C 0.47678 0.58396 0.02248 0.0
C1166 C 0.45079 0.6166 0.98672 0.0
C1167 C 0.44333 0.5839 0.96504 0.0
N1168 N 0.45572 0.53347 0.95332 0.0
N1169 N 0.47688 0.64277 0.03212 0.0
C1170 C 0.45808 0.5549 0.97066 0.0
C1171 C 0.47107 0.61944 0.01539 0.0
N1172 N 0.49081 0.53639 0.00391 0.0
N1173 N 0.44019 0.63814 0.98204 0.0
H1174 H 0.48664 0.64203 0.04889 0.0
H1175 H 0.47216 0.66184 0.02865 0.0
H1176 H 0.42639 0.63622 0.96665 0.0
H1177 H 0.4443 0.65666 0.99439 0.0
H1178 H 0.4906 0.52002 0.99105 0.0
H1179 H 0.50125 0.53748 0.02079 0.0
H1180 H 0.46422 0.51701 0.95637 0.0
H1181 H 0.44626 0.53326 0.93629 0.0
C1182 C 0.91033 0.42599 0.16197 0.0
C1183 C 0.89031 0.39822 0.17615 0.0
C1184 C 0.8403 0.39747 0.15961 0.0
C1185 C 0.86007 0.41864 0.14129 0.0
N1186 N 0.9146 0.45163 0.12405 0.0
N1187 N 0.83521 0.36057 0.19119 0.0
C1188 C 0.89534 0.43295 0.14234 0.0
C1189 C 0.85495 0.38511 0.17604 0.0
N1190 N 0.94333 0.44652 0.16771 0.0
N1191 N 0.80772 0.38989 0.16159 0.0
H1192 H 0.84457 0.35294 0.20518 0.0
H1193 H 0.80926 0.34681 0.18939 0.0
H1194 H 0.79664 0.39923 0.15011 0.0
H1195 H 0.79271 0.3772 0.17587 0.0
H1196 H 0.9582 0.46838 0.15884 0.0
H1197 H 0.95446 0.44438 0.18341 0.0
H1198 H 0.94001 0.45943 0.12296 0.0
H1199 H 0.90486 0.45688 0.10891 0.0
loop_
_geom_bond_atom_site_label_1
_geom_bond_atom_site_label_2
_geom_bond_distance
_geom_bond_site_symmetry_2
_ccdc_geom_bond_type
C0 C1 1.560 . S
C0 H61 0.959 . S
C0 H62 0.959 . S
C0 H63 0.960 . S
C1 C0 1.560 . S
C1 O56 1.426 . S
C1 H60 0.980 . S
C2 C3 1.407 . S
C2 C7 1.418 . S
C2 O56 1.334 . S
C3 C2 1.407 . S
C3 C4 1.360 . S
C3 H64 0.929 . S
C4 C3 1.360 . S
C4 C5 1.401 . S
C4 C8 1.527 . S
C5 C4 1.401 . S
C5 C6 1.405 . S
C5 C38 1.587 . S
C6 C5 1.405 . S
C6 C7 1.332 . S
C6 C9 1.496 . S
C7 C2 1.418 . S
C7 C6 1.332 . S
C7 H65 0.929 . S
C8 C4 1.527 . S
C8 H66 0.959 . S
C8 H67 0.961 . S
C8 H68 0.961 . S
C9 C6 1.496 . S
C9 H69 0.960 . S
C9 H70 0.960 . S
C9 H71 0.961 . S
C10 C11 1.517 . S
C10 H73 0.961 . S
C10 H74 0.960 . S
C10 H75 0.959 . S
C11 C10 1.517 . S
C11 O59 1.468 . S
C11 H72 0.980 . S
C12 C13 1.349 . S
C12 C17 1.367 . S
C12 O59 1.408 . S
C13 C12 1.349 . S
C13 C14 1.407 . S
C13 H76 0.930 . S
C14 C13 1.407 . S
C14 C15 1.449 . S
C14 C18 1.535 . S
C15 C14 1.449 . S
C15 C16 1.384 . S
C15 C40 1.553 1_655 S
C16 C15 1.384 . S
C16 C17 1.364 . S
C16 C19 1.450 . S
C17 C12 1.367 . S
C17 C16 1.364 . S
C17 H77 0.931 . S
C18 C14 1.535 . S
C18 H78 0.959 1_655 S
C18 H79 0.961 . S
C18 H80 0.959 . S
C19 C16 1.450 . S
C19 H81 0.960 . S
C19 H82 0.960 1_655 S
C19 H83 0.960 . S
C20 C21 1.309 . S
C20 C25 1.304 . S
C20 O58 1.435 . S
C21 C20 1.309 . S
C21 C22 1.476 . S
C21 H85 0.930 . S
C22 C21 1.476 . S
C22 C23 1.400 . S
C22 C26 1.567 . S
C23 C22 1.400 . S
C23 C24 1.373 . S
C23 C45 1.432 . S
C24 C23 1.373 . S
C24 C25 1.339 . S
C24 C27 1.530 . S
C25 C20 1.304 . S
C25 C24 1.339 . S
C25 H86 0.930 . S
C26 C22 1.567 . S
C26 H87 0.961 . S
C26 H88 0.960 . S
C26 H89 0.958 . S
C27 C24 1.530 . S
C27 H90 0.961 . S
C27 H91 0.960 . S
C27 H92 0.960 . S
C28 C29 1.530 . S
C28 H94 0.961 . S
C28 H95 0.961 . S
C28 H96 0.959 . S
C29 C28 1.530 . S
C29 O57 1.412 . S
C29 H93 0.980 . S
C30 C31 1.288 . S
C30 C35 1.377 . S
C30 O57 1.393 . S
C31 C30 1.288 . S
C31 C32 1.369 . S
C31 H97 0.932 . S
C32 C31 1.369 . S
C32 C33 1.398 . S
C32 C36 1.527 . S
C33 C32 1.398 . S
C33 C34 1.380 . S
C33 C47 1.497 . S
C34 C33 1.380 . S
C34 C35 1.383 . S
C34 C37 1.603 . S
C35 C30 1.377 . S
C35 C34 1.383 . S
C35 H98 0.929 . S
C36 C32 1.527 . S
C36 H99 0.961 . S
C36 H100 0.959 1_455 S
C36 H101 0.959 . S
C37 C34 1.603 . S
C37 H102 0.960 . S
C37 H103 0.962 . S
C37 H104 0.961 . S
C38 C5 1.587 . S
C38 C39 1.360 . S
C38 C51 1.412 . S
C39 C38 1.360 . S
C39 C40 1.365 . S
C39 H105 0.929 . S
C40 C15 1.553 1_455 S
C40 C39 1.365 . S
C40 C41 1.404 1_455 S
C41 C40 1.404 1_655 S
C41 C42 1.395 . S
C41 C52 1.451 1_655 S
C42 C41 1.395 . S
C42 C43 1.322 . S
C42 H106 0.930 . S
C43 C42 1.322 . S
C43 C44 1.459 . S
C43 H107 0.929 . S
C44 C43 1.459 . S
C44 C45 1.445 . S
C44 C53 1.395 1_655 S
C45 C23 1.432 . S
C45 C44 1.445 . S
C45 C46 1.370 . S
C46 C45 1.370 . S
C46 C47 1.438 1_655 S
C46 H108 0.930 . S
C47 C33 1.497 . S
C47 C46 1.438 1_455 S
C47 C48 1.360 . S
C48 C47 1.360 . S
C48 C49 1.401 . S
C48 C53 1.446 . S
C49 C48 1.401 . S
C49 C50 1.347 . S
C49 H109 0.929 . S
C50 C49 1.347 . S
C50 C51 1.455 . S
C50 H110 0.930 . S
C51 C38 1.412 . S
C51 C50 1.455 . S
C51 C52 1.331 . S
C52 C41 1.451 1_455 S
C52 C51 1.331 . S
C52 C53 1.497 . S
C53 C44 1.395 1_455 S
C53 C48 1.446 . S
C53 C52 1.497 . S
C54 C55 1.582 . S
C54 H111 0.962 . S
C54 H112 0.959 . S
C54 H113 0.958 . S
C55 C54 1.582 . S
C55 O58 1.458 . S
C55 H84 0.980 . S
O56 C1 1.426 . S
O56 C2 1.334 . S
O57 C29 1.412 . S
O57 C30 1.393 . S
O58 C20 1.435 . S
O58 C55 1.458 . S
O59 C11 1.468 . S
O59 C12 1.408 . S
H60 C1 0.980 . S
H61 C0 0.959 . S
H62 C0 0.959 . S
H63 C0 0.960 . S
H64 C3 0.929 . S
H65 C7 0.929 . S
H66 C8 0.959 . S
H67 C8 0.961 . S
H68 C8 0.961 . S
H69 C9 0.960 . S
H70 C9 0.960 . S
H71 C9 0.961 . S
H72 C11 0.980 . S
H73 C10 0.961 . S
H74 C10 0.960 . S
H75 C10 0.959 . S
H76 C13 0.930 . S
H77 C17 0.931 . S
H78 C18 0.959 1_455 S
H79 C18 0.961 . S
H80 C18 0.959 . S
H81 C19 0.960 . S
H82 C19 0.960 1_455 S
H83 C19 0.960 . S
H84 C55 0.980 . S
H85 C21 0.930 . S
H86 C25 0.930 . S
H87 C26 0.961 . S
H88 C26 0.960 . S
H89 C26 0.958 . S
H90 C27 0.961 . S
H91 C27 0.960 . S
H92 C27 0.960 . S
H93 C29 0.980 . S
H94 C28 0.961 . S
H95 C28 0.961 . S
H96 C28 0.959 . S
H97 C31 0.932 . S
H98 C35 0.929 . S
H99 C36 0.961 . S
H100 C36 0.959 1_655 S
H101 C36 0.959 . S
H102 C37 0.960 . S
H103 C37 0.962 . S
H104 C37 0.961 . S
H105 C39 0.929 . S
H106 C42 0.930 . S
H107 C43 0.929 . S
H108 C46 0.930 . S
H109 C49 0.929 . S
H110 C50 0.930 . S
H111 C54 0.962 . S
H112 C54 0.959 . S
H113 C54 0.958 . S
C114 C115 1.560 . S
C114 H175 0.959 . S
C114 H176 0.959 . S
C114 H177 0.960 . S
C115 C114 1.560 . S
C115 O170 1.426 . S
C115 H174 0.980 . S
C116 C117 1.407 . S
C116 C121 1.418 . S
C116 O170 1.334 . S
C117 C116 1.407 . S
C117 C118 1.360 . S
C117 H178 0.929 . S
C118 C117 1.360 . S
C118 C119 1.401 . S
C118 C122 1.527 . S
C119 C118 1.401 . S
C119 C120 1.405 . S
C119 C152 1.587 . S
C120 C119 1.405 . S
C120 C121 1.332 . S
C120 C123 1.496 . S
C121 C116 1.418 . S
C121 C120 1.332 . S
C121 H179 0.929 . S
C122 C118 1.527 . S
C122 H180 0.959 . S
C122 H181 0.961 . S
C122 H182 0.961 . S
C123 C120 1.496 . S
C123 H183 0.960 . S
C123 H184 0.960 . S
C123 H185 0.961 . S
C124 C125 1.517 . S
C124 H187 0.961 . S
C124 H188 0.960 . S
C124 H189 0.959 . S
C125 C124 1.517 . S
C125 O173 1.468 . S
C125 H186 0.980 . S
C126 C127 1.349 . S
C126 C131 1.367 . S
C126 O173 1.408 . S
C127 C126 1.349 . S
C127 C128 1.407 . S
C127 H190 0.930 . S
C128 C127 1.407 . S
C128 C129 1.449 . S
C128 C132 1.535 . S
C129 C128 1.449 . S
C129 C130 1.384 . S
C129 C154 1.553 . S
C130 C129 1.384 . S
C130 C131 1.364 . S
C130 C133 1.450 . S
C131 C126 1.367 . S
C131 C130 1.364 . S
C131 H191 0.931 . S
C132 C128 1.535 . S
C132 H192 0.959 . S
C132 H193 0.961 . S
C132 H194 0.959 . S
C133 C130 1.450 . S
C133 H195 0.960 . S
C133 H196 0.960 . S
C133 H197 0.960 . S
C134 C135 1.309 . S
C134 C139 1.304 . S
C134 O172 1.435 . S
C135 C134 1.309 . S
C135 C136 1.476 . S
C135 H199 0.930 . S
C136 C135 1.476 . S
C136 C137 1.400 . S
C136 C140 1.567 . S
C137 C136 1.400 . S
C137 C138 1.373 . S
C137 C159 1.432 . S
C138 C137 1.373 . S
C138 C139 1.339 . S
C138 C141 1.530 . S
C139 C134 1.304 . S
C139 C138 1.339 . S
C139 H200 0.930 . S
C140 C136 1.567 . S
C140 H201 0.961 . S
C140 H202 0.960 . S
C140 H203 0.958 . S
C141 C138 1.530 . S
C141 H204 0.961 . S
C141 H205 0.960 . S
C141 H206 0.960 . S
C142 C143 1.530 . S
C142 H208 0.961 . S
C142 H209 0.961 . S
C142 H210 0.959 . S
C143 C142 1.530 . S
C143 O171 1.412 . S
C143 H207 0.980 . S
C144 C145 1.288 . S
C144 C149 1.377 . S
C144 O171 1.393 . S
C145 C144 1.288 . S
C145 C146 1.369 . S
C145 H211 0.932 . S
C146 C145 1.369 . S
C146 C147 1.398 . S
C146 C150 1.527 . S
C147 C146 1.398 . S
C147 C148 1.380 . S
C147 C161 1.497 . S
C148 C147 1.380 . S
C148 C149 1.383 . S
C148 C151 1.603 . S
C149 C144 1.377 . S
C149 C148 1.383 . S
C149 H212 0.929 . S
C150 C146 1.527 . S
C150 H213 0.961 . S
C150 H214 0.959 1_565 S
C150 H215 0.959 . S
C151 C148 1.603 . S
C151 H216 0.960 . S
C151 H217 0.962 . S
C151 H218 0.961 . S
C152 C119 1.587 . S
C152 C153 1.360 . S
C152 C165 1.412 . S
C153 C152 1.360 . S
C153 C154 1.365 1_565 S
C153 H219 0.929 . S
C154 C129 1.553 . S
C154 C153 1.365 1_545 S
C154 C155 1.404 . S
C155 C154 1.404 . S
C155 C156 1.395 . S
C155 C166 1.451 1_545 S
C156 C155 1.395 . S
C156 C157 1.322 . S
C156 H220 0.930 . S
C157 C156 1.322 . S
C157 C158 1.459 . S
C157 H221 0.929 . S
C158 C157 1.459 . S
C158 C159 1.445 . S
C158 C167 1.395 . S
C159 C137 1.432 . S
C159 C158 1.445 . S
C159 C160 1.370 . S
C160 C159 1.370 . S
C160 C161 1.438 1_545 S
C160 H222 0.930 . S
C161 C147 1.497 . S
C161 C160 1.438 1_565 S
C161 C162 1.360 . S
C162 C161 1.360 . S
C162 C163 1.401 . S
C162 C167 1.446 1_565 S
C163 C162 1.401 . S
C163 C164 1.347 . S
C163 H223 0.929 . S
C164 C163 1.347 . S
C164 C165 1.455 . S
C164 H224 0.930 . S
C165 C152 1.412 . S
C165 C164 1.455 . S
C165 C166 1.331 . S
C166 C155 1.451 1_565 S
C166 C165 1.331 . S
C166 C167 1.497 1_565 S
C167 C158 1.395 . S
C167 C162 1.446 1_545 S
C167 C166 1.497 1_545 S
C168 C169 1.582 . S
C168 H225 0.962 . S
C168 H226 0.959 . S
C168 H227 0.958 . S
C169 C168 1.582 . S
C169 O172 1.458 . S
C169 H198 0.980 . S
O170 C115 1.426 . S
O170 C116 1.334 . S
O171 C143 1.412 . S
O171 C144 1.393 . S
O172 C134 1.435 . S
O172 C169 1.458 . S
O173 C125 1.468 . S
O173 C126 1.408 . S
H174 C115 0.980 . S
H175 C114 0.959 . S
H176 C114 0.959 . S
H177 C114 0.960 . S
H178 C117 0.929 . S
H179 C121 0.929 . S
H180 C122 0.959 . S
H181 C122 0.961 . S
H182 C122 0.961 . S
H183 C123 0.960 . S
H184 C123 0.960 . S
H185 C123 0.961 . S
H186 C125 0.980 . S
H187 C124 0.961 . S
H188 C124 0.960 . S
H189 C124 0.959 . S
H190 C127 0.930 . S
H191 C131 0.931 . S
H192 C132 0.959 . S
H193 C132 0.961 . S
H194 C132 0.959 . S
H195 C133 0.960 . S
H196 C133 0.960 . S
H197 C133 0.960 . S
H198 C169 0.980 . S
H199 C135 0.930 . S
H200 C139 0.930 . S
H201 C140 0.961 . S
H202 C140 0.960 . S
H203 C140 0.958 . S
H204 C141 0.961 . S
H205 C141 0.960 . S
H206 C141 0.960 . S
H207 C143 0.980 . S
H208 C142 0.961 . S
H209 C142 0.961 . S
H210 C142 0.959 . S
H211 C145 0.932 . S
H212 C149 0.929 . S
H213 C150 0.961 . S
H214 C150 0.959 1_545 S
H215 C150 0.959 . S
H216 C151 0.960 . S
H217 C151 0.962 . S
H218 C151 0.961 . S
H219 C153 0.929 . S
H220 C156 0.930 . S
H221 C157 0.929 . S
H222 C160 0.930 . S
H223 C163 0.929 . S
H224 C164 0.930 . S
H225 C168 0.962 . S
H226 C168 0.959 . S
H227 C168 0.958 . S
C228 C229 1.560 . S
C228 H289 0.959 . S
C228 H290 0.959 . S
C228 H291 0.960 . S
C229 C228 1.560 . S
C229 O284 1.426 . S
C229 H288 0.980 . S
C230 C231 1.407 . S
C230 C235 1.418 . S
C230 O284 1.334 . S
C231 C230 1.407 . S
C231 C232 1.360 . S
C231 H292 0.929 . S
C232 C231 1.360 . S
C232 C233 1.401 . S
C232 C236 1.527 . S
C233 C232 1.401 . S
C233 C234 1.405 . S
C233 C266 1.587 . S
C234 C233 1.405 . S
C234 C235 1.332 . S
C234 C237 1.496 . S
C235 C230 1.418 . S
C235 C234 1.332 . S
C235 H293 0.929 . S
C236 C232 1.527 . S
C236 H294 0.959 . S
C236 H295 0.961 . S
C236 H296 0.961 . S
C237 C234 1.496 . S
C237 H297 0.960 . S
C237 H298 0.960 . S
C237 H299 0.961 . S
C238 C239 1.517 . S
C238 H301 0.961 . S
C238 H302 0.960 . S
C238 H303 0.959 . S
C239 C238 1.517 . S
C239 O287 1.468 . S
C239 H300 0.980 . S
C240 C241 1.349 . S
C240 C245 1.367 . S
C240 O287 1.408 . S
C241 C240 1.349 . S
C241 C242 1.407 . S
C241 H304 0.930 . S
C242 C241 1.407 . S
C242 C243 1.449 . S
C242 C246 1.535 . S
C243 C242 1.449 . S
C243 C244 1.384 . S
C243 C268 1.553 . S
C244 C243 1.384 . S
C244 C245 1.364 . S
C244 C247 1.450 . S
C245 C240 1.367 . S
C245 C244 1.364 . S
C245 H305 0.931 . S
C246 C242 1.535 . S
C246 H306 0.959 . S
C246 H307 0.961 . S
C246 H308 0.959 . S
C247 C244 1.450 . S
C247 H309 0.960 . S
C247 H310 0.960 . S
C247 H311 0.960 . S
C248 C249 1.309 . S
C248 C253 1.304 . S
C248 O286 1.435 . S
C249 C248 1.309 . S
C249 C250 1.476 . S
C249 H313 0.930 . S
C250 C249 1.476 . S
C250 C251 1.400 . S
C250 C254 1.567 . S
C251 C250 1.400 . S
C251 C252 1.373 . S
C251 C273 1.432 . S
C252 C251 1.373 . S
C252 C253 1.339 . S
C252 C255 1.530 . S
C253 C248 1.304 . S
C253 C252 1.339 . S
C253 H314 0.930 . S
C254 C250 1.567 . S
C254 H315 0.961 . S
C254 H316 0.960 . S
C254 H317 0.958 . S
C255 C252 1.530 . S
C255 H318 0.961 . S
C255 H319 0.960 . S
C255 H320 0.960 . S
C256 C257 1.530 . S
C256 H322 0.961 . S
C256 H323 0.961 . S
C256 H324 0.959 . S
C257 C256 1.530 . S
C257 O285 1.412 . S
C257 H321 0.980 . S
C258 C259 1.288 . S
C258 C263 1.377 . S
C258 O285 1.393 . S
C259 C258 1.288 . S
C259 C260 1.369 . S
C259 H325 0.932 . S
C260 C259 1.369 . S
C260 C261 1.398 . S
C260 C264 1.527 . S
C261 C260 1.398 . S
C261 C262 1.380 . S
C261 C275 1.497 . S
C262 C261 1.380 . S
C262 C263 1.383 . S
C262 C265 1.603 . S
C263 C258 1.377 . S
C263 C262 1.383 . S
C263 H326 0.929 . S
C264 C260 1.527 . S
C264 H327 0.961 . S
C264 H328 0.959 . S
C264 H329 0.959 . S
C265 C262 1.603 . S
C265 H330 0.960 . S
C265 H331 0.962 . S
C265 H332 0.961 . S
C266 C233 1.587 . S
C266 C267 1.360 . S
C266 C279 1.412 . S
C267 C266 1.360 . S
C267 C268 1.365 . S
C267 H333 0.929 . S
C268 C243 1.553 . S
C268 C267 1.365 . S
C268 C269 1.404 . S
C269 C268 1.404 . S
C269 C270 1.395 . S
C269 C280 1.451 . S
C270 C269 1.395 . S
C270 C271 1.322 . S
C270 H334 0.930 . S
C271 C270 1.322 . S
C271 C272 1.459 . S
C271 H335 0.929 . S
C272 C271 1.459 . S
C272 C273 1.445 . S
C272 C281 1.395 . S
C273 C251 1.432 . S
C273 C272 1.445 . S
C273 C274 1.370 . S
C274 C273 1.370 . S
C274 C275 1.438 . S
C274 H336 0.930 . S
C275 C261 1.497 . S
C275 C274 1.438 . S
C275 C276 1.360 . S
C276 C275 1.360 . S
C276 C277 1.401 . S
C276 C281 1.446 . S
C277 C276 1.401 . S
C277 C278 1.347 . S
C277 H337 0.929 . S
C278 C277 1.347 . S
C278 C279 1.455 . S
C278 H338 0.930 . S
C279 C266 1.412 . S
C279 C278 1.455 . S
C279 C280 1.331 . S
C280 C269 1.451 . S
C280 C279 1.331 . S
C280 C281 1.497 . S
C281 C272 1.395 . S
C281 C276 1.446 . S
C281 C280 1.497 . S
C282 C283 1.582 . S
C282 H339 0.962 . S
C282 H340 0.959 . S
C282 H341 0.958 . S
C283 C282 1.582 . S
C283 O286 1.458 . S
C283 H312 0.980 . S
O284 C229 1.426 . S
O284 C230 1.334 . S
O285 C257 1.412 . S
O285 C258 1.393 . S
O286 C248 1.435 . S
O286 C283 1.458 . S
O287 C239 1.468 . S
O287 C240 1.408 . S
H288 C229 0.980 . S
H289 C228 0.959 . S
H290 C228 0.959 . S
H291 C228 0.960 . S
H292 C231 0.929 . S
H293 C235 0.929 . S
H294 C236 0.959 . S
H295 C236 0.961 . S
H296 C236 0.961 . S
H297 C237 0.960 . S
H298 C237 0.960 . S
H299 C237 0.961 . S
H300 C239 0.980 . S
H301 C238 0.961 . S
H302 C238 0.960 . S
H303 C238 0.959 . S
H304 C241 0.930 . S
H305 C245 0.931 . S
H306 C246 0.959 . S
H307 C246 0.961 . S
H308 C246 0.959 . S
H309 C247 0.960 . S
H310 C247 0.960 . S
H311 C247 0.960 . S
H312 C283 0.980 . S
H313 C249 0.930 . S
H314 C253 0.930 . S
H315 C254 0.961 . S
H316 C254 0.960 . S
H317 C254 0.958 . S
H318 C255 0.961 . S
H319 C255 0.960 . S
H320 C255 0.960 . S
H321 C257 0.980 . S
H322 C256 0.961 . S
H323 C256 0.961 . S
H324 C256 0.959 . S
H325 C259 0.932 . S
H326 C263 0.929 . S
H327 C264 0.961 . S
H328 C264 0.959 . S
H329 C264 0.959 . S
H330 C265 0.960 . S
H331 C265 0.962 . S
H332 C265 0.961 . S
H333 C267 0.929 . S
H334 C270 0.930 . S
H335 C271 0.929 . S
H336 C274 0.930 . S
H337 C277 0.929 . S
H338 C278 0.930 . S
H339 C282 0.962 . S
H340 C282 0.959 . S
H341 C282 0.958 . S
C342 C343 1.560 . S
C342 H403 0.959 . S
C342 H404 0.959 . S
C342 H405 0.960 . S
C343 C342 1.560 . S
C343 O398 1.426 . S
C343 H402 0.980 . S
C344 C345 1.407 . S
C344 C349 1.418 . S
C344 O398 1.334 . S
C345 C344 1.407 . S
C345 C346 1.360 . S
C345 H406 0.929 . S
C346 C345 1.360 . S
C346 C347 1.401 . S
C346 C350 1.527 . S
C347 C346 1.401 . S
C347 C348 1.405 . S
C347 C380 1.587 . S
C348 C347 1.405 . S
C348 C349 1.332 . S
C348 C351 1.496 . S
C349 C344 1.418 . S
C349 C348 1.332 . S
C349 H407 0.929 . S
C350 C346 1.527 . S
C350 H408 0.959 . S
C350 H409 0.961 . S
C350 H410 0.961 . S
C351 C348 1.496 . S
C351 H411 0.960 . S
C351 H412 0.960 . S
C351 H413 0.961 . S
C352 C353 1.517 . S
C352 H415 0.961 1_556 S
C352 H416 0.965 . S
C352 H417 0.959 . S
C353 C352 1.517 . S
C353 O401 1.468 . S
C353 H414 0.980 . S
C354 C355 1.349 . S
C354 C359 1.367 . S
C354 O401 1.408 . S
C355 C354 1.349 . S
C355 C356 1.407 . S
C355 H418 0.930 . S
C356 C355 1.407 . S
C356 C357 1.449 . S
C356 C360 1.535 . S
C357 C356 1.449 . S
C357 C358 1.384 . S
C357 C382 1.553 1_655 S
C358 C357 1.384 . S
C358 C359 1.364 . S
C358 C361 1.450 . S
C359 C354 1.367 . S
C359 C358 1.364 . S
C359 H419 0.931 . S
C360 C356 1.535 . S
C360 H420 0.959 1_655 S
C360 H421 0.961 1_655 S
C360 H422 0.959 . S
C361 C358 1.450 . S
C361 H423 0.960 . S
C361 H424 0.960 1_655 S
C361 H425 0.960 . S
C362 C363 1.309 . S
C362 C367 1.304 . S
C362 O400 1.435 . S
C363 C362 1.309 . S
C363 C364 1.476 . S
C363 H427 0.930 . S
C364 C363 1.476 . S
C364 C365 1.400 . S
C364 C368 1.567 . S
C365 C364 1.400 . S
C365 C366 1.373 . S
C365 C387 1.432 . S
C366 C365 1.373 . S
C366 C367 1.339 . S
C366 C369 1.530 . S
C367 C362 1.304 . S
C367 C366 1.339 . S
C367 H428 0.930 . S
C368 C364 1.567 . S
C368 H429 0.961 . S
C368 H430 0.960 . S
C368 H431 0.958 . S
C369 C366 1.530 . S
C369 H432 0.961 . S
C369 H433 0.960 . S
C369 H434 0.960 . S
C370 C371 1.530 . S
C370 H436 0.961 . S
C370 H437 0.961 . S
C370 H438 0.959 . S
C371 C370 1.530 . S
C371 O399 1.412 . S
C371 H435 0.980 . S
C372 C373 1.288 . S
C372 C377 1.377 . S
C372 O399 1.393 . S
C373 C372 1.288 . S
C373 C374 1.369 . S
C373 H439 0.932 . S
C374 C373 1.369 . S
C374 C375 1.398 . S
C374 C378 1.527 . S
C375 C374 1.398 . S
C375 C376 1.380 . S
C375 C389 1.497 . S
C376 C375 1.380 . S
C376 C377 1.383 . S
C376 C379 1.603 . S
C377 C372 1.377 . S
C377 C376 1.383 . S
C377 H440 0.929 . S
C378 C374 1.527 . S
C378 H441 0.961 . S
C378 H442 0.936 1_455 S
C378 H443 0.959 . S
C379 C376 1.603 . S
C379 H444 0.960 . S
C379 H445 0.962 . S
C379 H446 0.961 . S
C380 C347 1.587 . S
C380 C381 1.360 . S
C380 C393 1.412 . S
C381 C380 1.360 . S
C381 C382 1.365 . S
C381 H447 0.929 . S
C382 C357 1.553 1_455 S
C382 C381 1.365 . S
C382 C383 1.404 . S
C383 C382 1.404 . S
C383 C384 1.395 1_455 S
C383 C394 1.451 . S
C384 C383 1.395 1_655 S
C384 C385 1.322 . S
C384 H448 0.930 . S
C385 C384 1.322 . S
C385 C386 1.459 . S
C385 H449 0.929 . S
C386 C385 1.459 . S
C386 C387 1.445 . S
C386 C395 1.395 1_655 S
C387 C365 1.432 . S
C387 C386 1.445 . S
C387 C388 1.370 . S
C388 C387 1.370 . S
C388 C389 1.438 1_655 S
C388 H450 0.930 . S
C389 C375 1.497 . S
C389 C388 1.438 1_455 S
C389 C390 1.360 . S
C390 C389 1.360 . S
C390 C391 1.401 . S
C390 C395 1.446 . S
C391 C390 1.401 . S
C391 C392 1.347 . S
C391 H451 0.929 . S
C392 C391 1.347 . S
C392 C393 1.455 . S
C392 H452 0.930 . S
C393 C380 1.412 . S
C393 C392 1.455 . S
C393 C394 1.331 . S
C394 C383 1.451 . S
C394 C393 1.331 . S
C394 C395 1.497 . S
C395 C386 1.395 1_455 S
C395 C390 1.446 . S
C395 C394 1.497 . S
C396 C397 1.582 . S
C396 H453 0.962 . S
C396 H454 0.959 . S
C396 H455 0.958 . S
C397 C396 1.582 . S
C397 O400 1.458 . S
C397 H426 0.980 . S
O398 C343 1.426 . S
O398 C344 1.334 . S
O399 C371 1.412 . S
O399 C372 1.393 . S
O400 C362 1.435 . S
O400 C397 1.458 . S
O401 C353 1.468 . S
O401 C354 1.408 . S
H402 C343 0.980 . S
H403 C342 0.959 . S
H404 C342 0.959 . S
H405 C342 0.960 . S
H406 C345 0.929 . S
H407 C349 0.929 . S
H408 C350 0.959 . S
H409 C350 0.961 . S
H410 C350 0.961 . S
H411 C351 0.960 . S
H412 C351 0.960 . S
H413 C351 0.961 . S
H414 C353 0.980 . S
H415 C352 0.961 1_554 S
H416 C352 0.965 . S
H417 C352 0.959 . S
H418 C355 0.930 . S
H419 C359 0.931 . S
H420 C360 0.959 1_455 S
H421 C360 0.961 1_455 S
H422 C360 0.959 . S
H423 C361 0.960 . S
H424 C361 0.960 1_455 S
H425 C361 0.960 . S
H426 C397 0.980 . S
H427 C363 0.930 . S
H428 C367 0.930 . S
H429 C368 0.961 . S
H430 C368 0.960 . S
H431 C368 0.958 . S
H432 C369 0.961 . S
H433 C369 0.960 . S
H434 C369 0.960 . S
H435 C371 0.980 . S
H436 C370 0.961 . S
H437 C370 0.961 . S
H438 C370 0.959 . S
H439 C373 0.932 . S
H440 C377 0.929 . S
H441 C378 0.961 . S
H442 C378 0.936 1_655 S
H443 C378 0.959 . S
H444 C379 0.960 . S
H445 C379 0.962 . S
H446 C379 0.961 . S
H447 C381 0.929 . S
H448 C384 0.930 . S
H449 C385 0.929 . S
H450 C388 0.930 . S
H451 C391 0.929 . S
H452 C392 0.930 . S
H453 C396 0.962 . S
H454 C396 0.959 . S
H455 C396 0.958 . S
C456 C457 1.560 . S
C456 H517 0.959 . S
C456 H518 0.959 . S
C456 H519 0.960 . S
C457 C456 1.560 . S
C457 O512 1.426 . S
C457 H516 0.980 . S
C458 C459 1.407 . S
C458 C463 1.418 . S
C458 O512 1.334 . S
C459 C458 1.407 . S
C459 C460 1.360 . S
C459 H520 0.929 . S
C460 C459 1.360 . S
C460 C461 1.401 . S
C460 C464 1.527 . S
C461 C460 1.401 . S
C461 C462 1.405 . S
C461 C494 1.587 . S
C462 C461 1.405 . S
C462 C463 1.332 . S
C462 C465 1.496 . S
C463 C458 1.418 . S
C463 C462 1.332 . S
C463 H521 0.929 . S
C464 C460 1.527 . S
C464 H522 0.959 . S
C464 H523 0.961 . S
C464 H524 0.961 . S
C465 C462 1.496 . S
C465 H525 0.960 . S
C465 H526 0.960 . S
C465 H527 0.961 . S
C466 C467 1.517 . S
C466 H529 0.961 . S
C466 H530 0.960 . S
C466 H531 0.959 . S
C467 C466 1.517 . S
C467 O515 1.468 . S
C467 H528 0.980 . S
C468 C469 1.349 . S
C468 C473 1.367 . S
C468 O515 1.408 . S
C469 C468 1.349 . S
C469 C470 1.407 . S
C469 H532 0.930 . S
C470 C469 1.407 . S
C470 C471 1.449 . S
C470 C474 1.535 . S
C471 C470 1.449 . S
C471 C472 1.384 . S
C471 C496 1.553 . S
C472 C471 1.384 . S
C472 C473 1.364 . S
C472 C475 1.450 . S
C473 C468 1.367 . S
C473 C472 1.364 . S
C473 H533 0.931 . S
C474 C470 1.535 . S
C474 H534 0.959 . S
C474 H535 0.961 . S
C474 H536 0.959 . S
C475 C472 1.450 . S
C475 H537 0.960 . S
C475 H538 0.985 . S
C475 H539 0.960 . S
C476 C477 1.309 . S
C476 C481 1.304 . S
C476 O514 1.435 . S
C477 C476 1.309 . S
C477 C478 1.476 . S
C477 H541 0.930 . S
C478 C477 1.476 . S
C478 C479 1.400 . S
C478 C482 1.567 . S
C479 C478 1.400 . S
C479 C480 1.373 . S
C479 C501 1.432 . S
C480 C479 1.373 . S
C480 C481 1.339 . S
C480 C483 1.530 . S
C481 C476 1.304 . S
C481 C480 1.339 . S
C481 H542 0.930 . S
C482 C478 1.567 . S
C482 H543 0.961 . S
C482 H544 0.960 . S
C482 H545 0.958 . S
C483 C480 1.530 . S
C483 H546 0.961 . S
C483 H547 0.960 . S
C483 H548 0.960 . S
C484 C485 1.530 . S
C484 H550 0.961 . S
C484 H551 0.961 . S
C484 H552 0.959 . S
C485 C484 1.530 . S
C485 O513 1.412 . S
C485 H549 0.980 . S
C486 C487 1.288 . S
C486 C491 1.377 . S
C486 O513 1.393 . S
C487 C486 1.288 . S
C487 C488 1.369 . S
C487 H553 0.932 . S
C488 C487 1.369 . S
C488 C489 1.398 . S
C488 C492 1.527 1_565 S
C489 C488 1.398 . S
C489 C490 1.380 . S
C489 C503 1.497 1_565 S
C490 C489 1.380 . S
C490 C491 1.383 . S
C490 C493 1.603 . S
C491 C486 1.377 . S
C491 C490 1.383 . S
C491 H554 0.929 . S
C492 C488 1.527 1_545 S
C492 H555 0.961 1_545 S
C492 H556 0.957 . S
C492 H557 0.960 1_545 S
C493 C490 1.603 . S
C493 H558 0.960 . S
C493 H559 0.962 . S
C493 H560 0.961 . S
C494 C461 1.587 . S
C494 C495 1.360 . S
C494 C507 1.412 . S
C495 C494 1.360 . S
C495 C496 1.365 1_565 S
C495 H561 0.929 . S
C496 C471 1.553 . S
C496 C495 1.365 1_545 S
C496 C497 1.404 . S
C497 C496 1.404 . S
C497 C498 1.395 . S
C497 C508 1.451 1_545 S
C498 C497 1.395 . S
C498 C499 1.322 . S
C498 H562 0.930 . S
C499 C498 1.322 . S
C499 C500 1.459 1_556 S
C499 H563 0.929 . S
C500 C499 1.459 1_554 S
C500 C501 1.445 . S
C500 C509 1.395 1_554 S
C501 C479 1.432 . S
C501 C500 1.445 . S
C501 C502 1.370 . S
C502 C501 1.370 . S
C502 C503 1.438 . S
C502 H564 0.930 . S
C503 C489 1.497 1_545 S
C503 C502 1.438 . S
C503 C504 1.360 1_545 S
C504 C503 1.360 1_565 S
C504 C505 1.401 . S
C504 C509 1.446 1_564 S
C505 C504 1.401 . S
C505 C506 1.347 1_554 S
C505 H565 0.929 . S
C506 C505 1.347 1_556 S
C506 C507 1.455 . S
C506 H566 0.930 . S
C507 C494 1.412 . S
C507 C506 1.455 . S
C507 C508 1.331 . S
C508 C497 1.451 1_565 S
C508 C507 1.331 . S
C508 C509 1.497 1_565 S
C509 C500 1.395 1_556 S
C509 C504 1.446 1_546 S
C509 C508 1.497 1_545 S
C510 C511 1.582 . S
C510 H567 0.962 . S
C510 H568 0.959 . S
C510 H569 0.958 . S
C511 C510 1.582 . S
C511 O514 1.458 . S
C511 H540 0.980 . S
O512 C457 1.426 . S
O512 C458 1.334 . S
O513 C485 1.412 . S
O513 C486 1.393 . S
O514 C476 1.435 . S
O514 C511 1.458 . S
O515 C467 1.468 . S
O515 C468 1.408 . S
H516 C457 0.980 . S
H517 C456 0.959 . S
H518 C456 0.959 . S
H519 C456 0.960 . S
H520 C459 0.929 . S
H521 C463 0.929 . S
H522 C464 0.959 . S
H523 C464 0.961 . S
H524 C464 0.961 . S
H525 C465 0.960 . S
H526 C465 0.960 . S
H527 C465 0.961 . S
H528 C467 0.980 . S
H529 C466 0.961 . S
H530 C466 0.960 . S
H531 C466 0.959 . S
H532 C469 0.930 . S
H533 C473 0.931 . S
H534 C474 0.959 . S
H535 C474 0.961 . S
H536 C474 0.959 . S
H537 C475 0.960 . S
H538 C475 0.985 . S
H539 C475 0.960 . S
H540 C511 0.980 . S
H541 C477 0.930 . S
H542 C481 0.930 . S
H543 C482 0.961 . S
H544 C482 0.960 . S
H545 C482 0.958 . S
H546 C483 0.961 . S
H547 C483 0.960 . S
H548 C483 0.960 . S
H549 C485 0.980 . S
H550 C484 0.961 . S
H551 C484 0.961 . S
H552 C484 0.959 . S
H553 C487 0.932 . S
H554 C491 0.929 . S
H555 C492 0.961 1_565 S
H556 C492 0.957 . S
H557 C492 0.960 1_565 S
H558 C493 0.960 . S
H559 C493 0.962 . S
H560 C493 0.961 . S
H561 C495 0.929 . S
H562 C498 0.930 . S
H563 C499 0.929 . S
H564 C502 0.930 . S
H565 C505 0.929 . S
H566 C506 0.930 . S
H567 C510 0.962 . S
H568 C510 0.959 . S
H569 C510 0.958 . S
C570 C571 1.560 . S
C570 H631 0.959 . S
C570 H632 0.959 . S
C570 H633 0.960 . S
C571 C570 1.560 . S
C571 O626 1.426 . S
C571 H630 0.980 . S
C572 C573 1.407 . S
C572 C577 1.418 . S
C572 O626 1.334 . S
C573 C572 1.407 . S
C573 C574 1.360 . S
C573 H634 0.929 . S
C574 C573 1.360 . S
C574 C575 1.401 . S
C574 C578 1.527 . S
C575 C574 1.401 . S
C575 C576 1.405 . S
C575 C608 1.587 . S
C576 C575 1.405 . S
C576 C577 1.332 . S
C576 C579 1.496 . S
C577 C572 1.418 . S
C577 C576 1.332 . S
C577 H635 0.929 . S
C578 C574 1.527 . S
C578 H636 0.959 . S
C578 H637 0.961 . S
C578 H638 0.961 . S
C579 C576 1.496 . S
C579 H639 0.960 . S
C579 H640 0.960 . S
C579 H641 0.961 . S
C580 C581 1.517 1_556 S
C580 H643 0.961 . S
C580 H644 0.960 . S
C580 H645 0.959 1_556 S
C581 C580 1.517 1_554 S
C581 O629 1.468 . S
C581 H642 0.980 . S
C582 C583 1.349 . S
C582 C587 1.367 . S
C582 O629 1.408 . S
C583 C582 1.349 . S
C583 C584 1.407 . S
C583 H646 0.930 . S
C584 C583 1.407 . S
C584 C585 1.449 . S
C584 C588 1.535 . S
C585 C584 1.449 . S
C585 C586 1.384 . S
C585 C610 1.553 . S
C586 C585 1.384 . S
C586 C587 1.364 . S
C586 C589 1.450 . S
C587 C582 1.367 . S
C587 C586 1.364 . S
C587 H647 0.931 . S
C588 C584 1.535 . S
C588 H648 0.959 . S
C588 H649 0.961 . S
C588 H650 0.959 . S
C589 C586 1.450 . S
C589 H651 0.960 . S
C589 H652 0.960 . S
C589 H653 0.960 . S
C590 C591 1.309 . S
C590 C595 1.304 . S
C590 O628 1.435 . S
C591 C590 1.309 . S
C591 C592 1.476 . S
C591 H655 0.930 . S
C592 C591 1.476 . S
C592 C593 1.400 . S
C592 C596 1.567 . S
C593 C592 1.400 . S
C593 C594 1.373 . S
C593 C615 1.432 . S
C594 C593 1.373 . S
C594 C595 1.339 . S
C594 C597 1.530 . S
C595 C590 1.304 . S
C595 C594 1.339 . S
C595 H656 0.930 . S
C596 C592 1.567 . S
C596 H657 0.961 . S
C596 H658 0.960 . S
C596 H659 0.958 . S
C597 C594 1.530 . S
C597 H660 0.961 . S
C597 H661 0.960 . S
C597 H662 0.960 . S
C598 C599 1.530 . S
C598 H664 0.961 . S
C598 H665 0.961 . S
C598 H666 0.959 . S
C599 C598 1.530 . S
C599 O627 1.412 . S
C599 H663 0.980 . S
C600 C601 1.288 . S
C600 C605 1.377 . S
C600 O627 1.393 . S
C601 C600 1.288 . S
C601 C602 1.369 . S
C601 H667 0.932 . S
C602 C601 1.369 . S
C602 C603 1.398 . S
C602 C606 1.527 . S
C603 C602 1.398 . S
C603 C604 1.380 . S
C603 C617 1.497 . S
C604 C603 1.380 . S
C604 C605 1.383 . S
C604 C607 1.603 . S
C605 C600 1.377 . S
C605 C604 1.383 . S
C605 H668 0.929 . S
C606 C602 1.527 . S
C606 H669 0.961 . S
C606 H670 0.959 . S
C606 H671 0.959 . S
C607 C604 1.603 . S
C607 H672 0.960 . S
C607 H673 0.962 . S
C607 H674 0.961 . S
C608 C575 1.587 . S
C608 C609 1.360 . S
C608 C621 1.412 . S
C609 C608 1.360 . S
C609 C610 1.365 . S
C609 H675 0.929 . S
C610 C585 1.553 . S
C610 C609 1.365 . S
C610 C611 1.404 . S
C611 C610 1.404 . S
C611 C612 1.395 . S
C611 C622 1.451 . S
C612 C611 1.395 . S
C612 C613 1.322 . S
C612 H676 0.930 . S
C613 C612 1.322 . S
C613 C614 1.459 . S
C613 H677 0.929 . S
C614 C613 1.459 . S
C614 C615 1.445 . S
C614 C623 1.395 . S
C615 C593 1.432 . S
C615 C614 1.445 . S
C615 C616 1.370 . S
C616 C615 1.370 . S
C616 C617 1.438 . S
C616 H678 0.930 . S
C617 C603 1.497 . S
C617 C616 1.438 . S
C617 C618 1.360 . S
C618 C617 1.360 . S
C618 C619 1.401 . S
C618 C623 1.446 . S
C619 C618 1.401 . S
C619 C620 1.347 . S
C619 H679 0.929 . S
C620 C619 1.347 . S
C620 C621 1.455 . S
C620 H680 0.930 . S
C621 C608 1.412 . S
C621 C620 1.455 . S
C621 C622 1.331 . S
C622 C611 1.451 . S
C622 C621 1.331 . S
C622 C623 1.497 . S
C623 C614 1.395 . S
C623 C618 1.446 . S
C623 C622 1.497 . S
C624 C625 1.582 . S
C624 H681 0.962 . S
C624 H682 0.959 . S
C624 H683 0.958 . S
C625 C624 1.582 . S
C625 O628 1.458 . S
C625 H654 0.980 . S
O626 C571 1.426 . S
O626 C572 1.334 . S
O627 C599 1.412 . S
O627 C600 1.393 . S
O628 C590 1.435 . S
O628 C625 1.458 . S
O629 C581 1.468 . S
O629 C582 1.408 . S
H630 C571 0.980 . S
H631 C570 0.959 . S
H632 C570 0.959 . S
H633 C570 0.960 . S
H634 C573 0.929 . S
H635 C577 0.929 . S
H636 C578 0.959 . S
H637 C578 0.961 . S
H638 C578 0.961 . S
H639 C579 0.960 . S
H640 C579 0.960 . S
H641 C579 0.961 . S
H642 C581 0.980 . S
H643 C580 0.961 . S
H644 C580 0.960 . S
H645 C580 0.959 1_554 S
H646 C583 0.930 . S
H647 C587 0.931 . S
H648 C588 0.959 . S
H649 C588 0.961 . S
H650 C588 0.959 . S
H651 C589 0.960 . S
H652 C589 0.960 . S
H653 C589 0.960 . S
H654 C625 0.980 . S
H655 C591 0.930 . S
H656 C595 0.930 . S
H657 C596 0.961 . S
H658 C596 0.960 . S
H659 C596 0.958 . S
H660 C597 0.961 . S
H661 C597 0.960 . S
H662 C597 0.960 . S
H663 C599 0.980 . S
H664 C598 0.961 . S
H665 C598 0.961 . S
H666 C598 0.959 . S
H667 C601 0.932 . S
H668 C605 0.929 . S
H669 C606 0.961 . S
H670 C606 0.959 . S
H671 C606 0.959 . S
H672 C607 0.960 . S
H673 C607 0.962 . S
H674 C607 0.961 . S
H675 C609 0.929 . S
H676 C612 0.930 . S
H677 C613 0.929 . S
H678 C616 0.930 . S
H679 C619 0.929 . S
H680 C620 0.930 . S
H681 C624 0.962 . S
H682 C624 0.959 . S
H683 C624 0.958 . S
Zn684 O687 2.031 . S
Zn684 O689 2.049 . S
Zn684 O694 2.067 . S
Zn685 O686 1.962 . S
Zn685 O688 1.986 . S
Zn685 O690 1.996 . S
Zn685 O693 1.943 . S
O686 Zn685 1.962 . S
O686 C691 1.254 . S
O687 Zn684 2.031 . S
O687 C691 1.269 . S
O688 Zn685 1.986 . S
O688 C695 1.262 . S
O689 Zn684 2.049 . S
O689 C697 1.260 . S
O690 Zn685 1.996 . S
O690 C697 1.257 . S
C691 O686 1.254 . S
C691 O687 1.269 . S
C692 O693 1.249 . S
C692 O694 1.270 . S
O693 Zn685 1.943 . S
O693 C692 1.249 . S
O694 Zn684 2.067 . S
O694 C692 1.270 . S
C695 O688 1.262 . S
C695 O696 1.232 . S
O696 C695 1.232 . S
C697 O689 1.260 . S
C697 O690 1.257 . S
Zn698 O701 2.031 . S
Zn698 O703 2.049 . S
Zn698 O708 2.067 . S
Zn699 O700 1.962 . S
Zn699 O702 1.986 . S
Zn699 O704 1.996 . S
Zn699 O707 1.943 . S
O700 Zn699 1.962 . S
O700 C705 1.254 . S
O701 Zn698 2.031 . S
O701 C705 1.269 . S
O702 Zn699 1.986 . S
O702 C709 1.262 . S
O703 Zn698 2.049 . S
O703 C711 1.260 . S
O704 Zn699 1.996 . S
O704 C711 1.257 . S
C705 O700 1.254 . S
C705 O701 1.269 . S
C706 O707 1.249 . S
C706 O708 1.270 . S
O707 Zn699 1.943 . S
O707 C706 1.249 . S
O708 Zn698 2.067 . S
O708 C706 1.270 . S
C709 O702 1.262 . S
C709 O710 1.232 . S
O710 C709 1.232 . S
C711 O703 1.260 . S
C711 O704 1.257 . S
Zn712 O715 2.031 . S
Zn712 O717 2.049 . S
Zn712 O722 2.067 . S
Zn713 O714 1.962 . S
Zn713 O716 1.986 . S
Zn713 O718 1.996 . S
Zn713 O721 1.943 . S
O714 Zn713 1.962 . S
O714 C719 1.254 . S
O715 Zn712 2.031 . S
O715 C719 1.269 . S
O716 Zn713 1.986 . S
O716 C723 1.262 . S
O717 Zn712 2.049 . S
O717 C725 1.260 . S
O718 Zn713 1.996 . S
O718 C725 1.257 . S
C719 O714 1.254 . S
C719 O715 1.269 . S
C720 O721 1.249 . S
C720 O722 1.270 . S
O721 Zn713 1.943 . S
O721 C720 1.249 . S
O722 Zn712 2.067 . S
O722 C720 1.270 . S
C723 O716 1.262 . S
C723 O724 1.232 . S
O724 C723 1.232 . S
C725 O717 1.260 . S
C725 O718 1.257 . S
Zn726 O729 2.031 . S
Zn726 O731 2.049 . S
Zn726 O736 2.067 . S
Zn727 O728 1.962 . S
Zn727 O730 1.986 . S
Zn727 O732 1.996 . S
Zn727 O735 1.943 . S
O728 Zn727 1.962 . S
O728 C733 1.254 . S
O729 Zn726 2.031 . S
O729 C733 1.269 . S
O730 Zn727 1.986 . S
O730 C737 1.262 . S
O731 Zn726 2.049 . S
O731 C739 1.260 . S
O732 Zn727 1.996 . S
O732 C739 1.257 . S
C733 O728 1.254 . S
C733 O729 1.269 . S
C734 O735 1.249 . S
C734 O736 1.270 . S
O735 Zn727 1.943 . S
O735 C734 1.249 . S
O736 Zn726 2.067 . S
O736 C734 1.270 . S
C737 O730 1.262 . S
C737 O738 1.232 . S
O738 C737 1.232 . S
C739 O731 1.260 . S
C739 O732 1.257 . S
Zn740 O743 2.031 . S
Zn740 O745 2.049 . S
Zn740 O750 2.067 . S
Zn741 O742 1.962 . S
Zn741 O744 1.986 . S
Zn741 O746 1.996 . S
Zn741 O749 1.943 . S
O742 Zn741 1.962 . S
O742 C747 1.254 . S
O743 Zn740 2.031 . S
O743 C747 1.269 . S
O744 Zn741 1.986 . S
O744 C751 1.262 . S
O745 Zn740 2.049 . S
O745 C753 1.260 . S
O746 Zn741 1.996 . S
O746 C753 1.257 . S
C747 O742 1.254 . S
C747 O743 1.269 . S
C748 O749 1.249 . S
C748 O750 1.270 . S
O749 Zn741 1.943 . S
O749 C748 1.249 . S
O750 Zn740 2.067 . S
O750 C748 1.270 . S
C751 O744 1.262 . S
C751 O752 1.232 . S
O752 C751 1.232 . S
C753 O745 1.260 . S
C753 O746 1.257 . S
Zn754 O757 2.031 . S
Zn754 O759 2.049 . S
Zn754 O764 2.067 . S
Zn755 O756 1.962 . S
Zn755 O758 1.986 . S
Zn755 O760 1.996 . S
Zn755 O763 1.943 . S
O756 Zn755 1.962 . S
O756 C761 1.254 . S
O757 Zn754 2.031 . S
O757 C761 1.269 . S
O758 Zn755 1.986 . S
O758 C765 1.262 . S
O759 Zn754 2.049 . S
O759 C767 1.260 . S
O760 Zn755 1.996 . S
O760 C767 1.257 . S
C761 O756 1.254 . S
C761 O757 1.269 . S
C762 O763 1.249 . S
C762 O764 1.270 . S
O763 Zn755 1.943 . S
O763 C762 1.249 . S
O764 Zn754 2.067 . S
O764 C762 1.270 . S
C765 O758 1.262 . S
C765 O766 1.232 . S
O766 C765 1.232 . S
C767 O759 1.260 . S
C767 O760 1.257 . S
C768 C769 1.363 . S
C768 C774 1.379 . S
C768 N776 1.356 . S
C769 C768 1.363 . S
C769 C775 1.363 . S
C770 C771 1.363 . S
C770 C775 1.379 . S
C770 N777 1.356 . S
C771 C770 1.363 . S
C771 C774 1.363 . S
N772 C774 1.356 . S
N772 H784 0.984 . S
N772 H785 0.985 . S
N773 C775 1.356 . S
N773 H778 0.984 . S
N773 H779 0.985 . S
C774 C768 1.379 . S
C774 C771 1.363 . S
C774 N772 1.356 . S
C775 C769 1.363 . S
C775 C770 1.379 . S
C775 N773 1.356 . S
N776 C768 1.356 . S
N776 H782 0.984 . S
N776 H783 0.984 . S
N777 C770 1.356 . S
N777 H780 0.984 . S
N777 H781 0.985 . S
H778 N773 0.984 . S
H779 N773 0.985 . S
H780 N777 0.984 . S
H781 N777 0.985 . S
H782 N776 0.984 . S
H783 N776 0.984 . S
H784 N772 0.984 . S
H785 N772 0.985 . S
C786 C787 1.363 . S
C786 C792 1.379 . S
C786 N794 1.356 . S
C787 C786 1.363 . S
C787 C793 1.363 . S
C788 C789 1.363 . S
C788 C793 1.379 . S
C788 N795 1.356 . S
C789 C788 1.363 . S
C789 C792 1.363 . S
N790 C792 1.356 . S
N790 H802 0.984 . S
N790 H803 0.985 . S
N791 C793 1.356 . S
N791 H796 0.984 . S
N791 H797 0.985 . S
C792 C786 1.379 . S
C792 C789 1.363 . S
C792 N790 1.356 . S
C793 C787 1.363 . S
C793 C788 1.379 . S
C793 N791 1.356 . S
N794 C786 1.356 . S
N794 H800 0.984 . S
N794 H801 0.984 . S
N795 C788 1.356 . S
N795 H798 0.984 . S
N795 H799 0.985 . S
H796 N791 0.984 . S
H797 N791 0.985 . S
H798 N795 0.984 . S
H799 N795 0.985 . S
H800 N794 0.984 . S
H801 N794 0.984 . S
H802 N790 0.984 . S
H803 N790 0.985 . S
C804 C805 1.363 . S
C804 C810 1.379 . S
C804 N812 1.356 . S
C805 C804 1.363 . S
C805 C811 1.363 . S
C806 C807 1.363 . S
C806 C811 1.379 . S
C806 N813 1.356 . S
C807 C806 1.363 . S
C807 C810 1.363 . S
N808 C810 1.356 . S
N808 H820 0.984 . S
N808 H821 0.985 . S
N809 C811 1.356 . S
N809 H814 0.984 . S
N809 H815 0.985 . S
C810 C804 1.379 . S
C810 C807 1.363 . S
C810 N808 1.356 . S
C811 C805 1.363 . S
C811 C806 1.379 . S
C811 N809 1.356 . S
N812 C804 1.356 . S
N812 H818 0.984 . S
N812 H819 0.984 . S
N813 C806 1.356 . S
N813 H816 0.984 . S
N813 H817 0.985 . S
H814 N809 0.984 . S
H815 N809 0.985 . S
H816 N813 0.984 . S
H817 N813 0.985 . S
H818 N812 0.984 . S
H819 N812 0.984 . S
H820 N808 0.984 . S
H821 N808 0.985 . S
C822 C823 1.363 . S
C822 C828 1.379 . S
C822 N830 1.356 . S
C823 C822 1.363 . S
C823 C829 1.363 . S
C824 C825 1.363 . S
C824 C829 1.379 . S
C824 N831 1.356 . S
C825 C824 1.363 . S
C825 C828 1.363 . S
N826 C828 1.356 . S
N826 H838 0.984 . S
N826 H839 0.985 . S
N827 C829 1.356 . S
N827 H832 0.984 . S
N827 H833 0.985 . S
C828 C822 1.379 . S
C828 C825 1.363 . S
C828 N826 1.356 . S
C829 C823 1.363 . S
C829 C824 1.379 . S
C829 N827 1.356 . S
N830 C822 1.356 . S
N830 H836 0.984 . S
N830 H837 0.984 . S
N831 C824 1.356 . S
N831 H834 0.984 . S
N831 H835 0.985 . S
H832 N827 0.984 . S
H833 N827 0.985 . S
H834 N831 0.984 . S
H835 N831 0.985 . S
H836 N830 0.984 . S
H837 N830 0.984 . S
H838 N826 0.984 . S
H839 N826 0.985 . S
C840 C841 1.363 . S
C840 C846 1.379 . S
C840 N848 1.356 . S
C841 C840 1.363 . S
C841 C847 1.363 . S
C842 C843 1.363 . S
C842 C847 1.379 . S
C842 N849 1.356 . S
C843 C842 1.363 . S
C843 C846 1.363 . S
N844 C846 1.356 . S
N844 H856 0.984 . S
N844 H857 0.985 . S
N845 C847 1.356 . S
N845 H850 0.984 . S
N845 H851 0.985 . S
C846 C840 1.379 . S
C846 C843 1.363 . S
C846 N844 1.356 . S
C847 C841 1.363 . S
C847 C842 1.379 . S
C847 N845 1.356 . S
N848 C840 1.356 . S
N848 H854 0.984 . S
N848 H855 0.984 . S
N849 C842 1.356 . S
N849 H852 0.984 . S
N849 H853 0.985 . S
H850 N845 0.984 . S
H851 N845 0.985 . S
H852 N849 0.984 . S
H853 N849 0.985 . S
H854 N848 0.984 . S
H855 N848 0.984 . S
H856 N844 0.984 . S
H857 N844 0.985 . S
C858 C859 1.363 . S
C858 C864 1.379 . S
C858 N866 1.356 . S
C859 C858 1.363 . S
C859 C865 1.363 . S
C860 C861 1.363 . S
C860 C865 1.379 . S
C860 N867 1.356 . S
C861 C860 1.363 . S
C861 C864 1.363 . S
N862 C864 1.356 . S
N862 H874 0.984 . S
N862 H875 0.985 . S
N863 C865 1.356 . S
N863 H868 0.984 . S
N863 H869 0.985 . S
C864 C858 1.379 . S
C864 C861 1.363 . S
C864 N862 1.356 . S
C865 C859 1.363 . S
C865 C860 1.379 . S
C865 N863 1.356 . S
N866 C858 1.356 . S
N866 H872 0.984 . S
N866 H873 0.984 . S
N867 C860 1.356 . S
N867 H870 0.984 . S
N867 H871 0.985 . S
H868 N863 0.984 . S
H869 N863 0.985 . S
H870 N867 0.984 . S
H871 N867 0.985 . S
H872 N866 0.984 . S
H873 N866 0.984 . S
H874 N862 0.984 . S
H875 N862 0.985 . S
C876 C877 1.363 . S
C876 C882 1.379 . S
C876 N884 1.356 . S
C877 C876 1.363 . S
C877 C883 1.363 . S
C878 C879 1.363 . S
C878 C883 1.379 . S
C878 N885 1.356 . S
C879 C878 1.363 . S
C879 C882 1.363 . S
N880 C882 1.356 . S
N880 H892 0.984 . S
N880 H893 0.985 . S
N881 C883 1.356 . S
N881 H886 0.984 . S
N881 H887 0.985 . S
C882 C876 1.379 . S
C882 C879 1.363 . S
C882 N880 1.356 . S
C883 C877 1.363 . S
C883 C878 1.379 . S
C883 N881 1.356 . S
N884 C876 1.356 . S
N884 H890 0.984 . S
N884 H891 0.984 . S
N885 C878 1.356 . S
N885 H888 0.984 . S
N885 H889 0.985 . S
H886 N881 0.984 . S
H887 N881 0.985 . S
H888 N885 0.984 . S
H889 N885 0.985 . S
H890 N884 0.984 . S
H891 N884 0.984 . S
H892 N880 0.984 . S
H893 N880 0.985 . S
C894 C895 1.363 . S
C894 C900 1.379 . S
C894 N902 1.356 . S
C895 C894 1.363 . S
C895 C901 1.363 . S
C896 C897 1.363 . S
C896 C901 1.379 . S
C896 N903 1.356 . S
C897 C896 1.363 . S
C897 C900 1.363 . S
N898 C900 1.356 . S
N898 H910 0.984 . S
N898 H911 0.985 . S
N899 C901 1.356 . S
N899 H904 0.984 . S
N899 H905 0.985 . S
C900 C894 1.379 . S
C900 C897 1.363 . S
C900 N898 1.356 . S
C901 C895 1.363 . S
C901 C896 1.379 . S
C901 N899 1.356 . S
N902 C894 1.356 . S
N902 H908 0.984 . S
N902 H909 0.984 . S
N903 C896 1.356 . S
N903 H906 0.984 . S
N903 H907 0.985 . S
H904 N899 0.984 . S
H905 N899 0.985 . S
H906 N903 0.984 . S
H907 N903 0.985 . S
H908 N902 0.984 . S
H909 N902 0.984 . S
H910 N898 0.984 . S
H911 N898 0.985 . S
C912 C913 1.363 . S
C912 C918 1.379 . S
C912 N920 1.356 . S
C913 C912 1.363 . S
C913 C919 1.363 . S
C914 C915 1.363 . S
C914 C919 1.379 . S
C914 N921 1.356 . S
C915 C914 1.363 . S
C915 C918 1.363 . S
N916 C918 1.356 . S
N916 H928 0.984 . S
N916 H929 0.985 . S
N917 C919 1.356 . S
N917 H922 0.984 . S
N917 H923 0.985 . S
C918 C912 1.379 . S
C918 C915 1.363 . S
C918 N916 1.356 . S
C919 C913 1.363 . S
C919 C914 1.379 . S
C919 N917 1.356 . S
N920 C912 1.356 . S
N920 H926 0.984 . S
N920 H927 0.984 . S
N921 C914 1.356 . S
N921 H924 0.984 . S
N921 H925 0.985 . S
H922 N917 0.984 . S
H923 N917 0.985 . S
H924 N921 0.984 . S
H925 N921 0.985 . S
H926 N920 0.984 . S
H927 N920 0.984 . S
H928 N916 0.984 . S
H929 N916 0.985 . S
C930 C931 1.363 . S
C930 C936 1.379 . S
C930 N938 1.356 . S
C931 C930 1.363 . S
C931 C937 1.363 . S
C932 C933 1.363 . S
C932 C937 1.379 . S
C932 N939 1.356 . S
C933 C932 1.363 . S
C933 C936 1.363 . S
N934 C936 1.356 . S
N934 H946 0.984 . S
N934 H947 0.985 . S
N935 C937 1.356 . S
N935 H940 0.984 . S
N935 H941 0.985 . S
C936 C930 1.379 . S
C936 C933 1.363 . S
C936 N934 1.356 . S
C937 C931 1.363 . S
C937 C932 1.379 . S
C937 N935 1.356 . S
N938 C930 1.356 . S
N938 H944 0.984 . S
N938 H945 0.984 . S
N939 C932 1.356 . S
N939 H942 0.984 . S
N939 H943 0.985 . S
H940 N935 0.984 . S
H941 N935 0.985 . S
H942 N939 0.984 . S
H943 N939 0.985 . S
H944 N938 0.984 . S
H945 N938 0.984 . S
H946 N934 0.984 . S
H947 N934 0.985 . S
C948 C949 1.363 . S
C948 C954 1.379 . S
C948 N956 1.356 . S
C949 C948 1.363 . S
C949 C955 1.363 . S
C950 C951 1.363 . S
C950 C955 1.379 . S
C950 N957 1.356 . S
C951 C950 1.363 . S
C951 C954 1.363 . S
N952 C954 1.356 . S
N952 H964 0.984 . S
N952 H965 0.985 . S
N953 C955 1.356 . S
N953 H958 0.984 . S
N953 H959 0.985 . S
C954 C948 1.379 . S
C954 C951 1.363 . S
C954 N952 1.356 . S
C955 C949 1.363 . S
C955 C950 1.379 . S
C955 N953 1.356 . S
N956 C948 1.356 . S
N956 H962 0.984 . S
N956 H963 0.984 . S
N957 C950 1.356 . S
N957 H960 0.984 . S
N957 H961 0.985 . S
H958 N953 0.984 . S
H959 N953 0.985 . S
H960 N957 0.984 . S
H961 N957 0.985 . S
H962 N956 0.984 . S
H963 N956 0.984 . S
H964 N952 0.984 . S
H965 N952 0.985 . S
C966 C967 1.363 . S
C966 C972 1.379 . S
C966 N974 1.356 . S
C967 C966 1.363 . S
C967 C973 1.363 . S
C968 C969 1.363 . S
C968 C973 1.379 . S
C968 N975 1.356 . S
C969 C968 1.363 . S
C969 C972 1.363 . S
N970 C972 1.356 . S
N970 H982 0.984 . S
N970 H983 0.985 . S
N971 C973 1.356 . S
N971 H976 0.984 . S
N971 H977 0.985 . S
C972 C966 1.379 . S
C972 C969 1.363 . S
C972 N970 1.356 . S
C973 C967 1.363 . S
C973 C968 1.379 . S
C973 N971 1.356 . S
N974 C966 1.356 . S
N974 H980 0.984 . S
N974 H981 0.984 . S
N975 C968 1.356 . S
N975 H978 0.984 . S
N975 H979 0.985 . S
H976 N971 0.984 . S
H977 N971 0.985 . S
H978 N975 0.984 . S
H979 N975 0.985 . S
H980 N974 0.984 . S
H981 N974 0.984 . S
H982 N970 0.984 . S
H983 N970 0.985 . S
C984 C985 1.363 . S
C984 C990 1.379 . S
C984 N992 1.356 . S
C985 C984 1.363 . S
C985 C991 1.363 . S
C986 C987 1.363 . S
C986 C991 1.379 . S
C986 N993 1.356 . S
C987 C986 1.363 . S
C987 C990 1.363 . S
N988 C990 1.356 . S
N988 H1000 0.984 . S
N988 H1001 0.985 . S
N989 C991 1.356 . S
N989 H994 0.984 . S
N989 H995 0.985 . S
C990 C984 1.379 . S
C990 C987 1.363 . S
C990 N988 1.356 . S
C991 C985 1.363 . S
C991 C986 1.379 . S
C991 N989 1.356 . S
N992 C984 1.356 . S
N992 H998 0.984 . S
N992 H999 0.984 . S
N993 C986 1.356 . S
N993 H996 0.984 . S
N993 H997 0.985 . S
H994 N989 0.984 . S
H995 N989 0.985 . S
H996 N993 0.984 . S
H997 N993 0.985 . S
H998 N992 0.984 . S
H999 N992 0.984 . S
H1000 N988 0.984 . S
H1001 N988 0.985 . S
C1002 C1003 1.363 . S
C1002 C1008 1.379 . S
C1002 N1010 1.356 . S
C1003 C1002 1.363 . S
C1003 C1009 1.363 . S
C1004 C1005 1.363 . S
C1004 C1009 1.379 . S
C1004 N1011 1.356 . S
C1005 C1004 1.363 . S
C1005 C1008 1.363 . S
N1006 C1008 1.356 . S
N1006 H1018 0.984 . S
N1006 H1019 0.985 . S
N1007 C1009 1.356 . S
N1007 H1012 0.984 . S
N1007 H1013 0.985 . S
C1008 C1002 1.379 . S
C1008 C1005 1.363 . S
C1008 N1006 1.356 . S
C1009 C1003 1.363 . S
C1009 C1004 1.379 . S
C1009 N1007 1.356 . S
N1010 C1002 1.356 . S
N1010 H1016 0.984 . S
N1010 H1017 0.984 . S
N1011 C1004 1.356 . S
N1011 H1014 0.984 . S
N1011 H1015 0.985 . S
H1012 N1007 0.984 . S
H1013 N1007 0.985 . S
H1014 N1011 0.984 . S
H1015 N1011 0.985 . S
H1016 N1010 0.984 . S
H1017 N1010 0.984 . S
H1018 N1006 0.984 . S
H1019 N1006 0.985 . S
C1020 C1021 1.363 . S
C1020 C1026 1.379 . S
C1020 N1028 1.356 . S
C1021 C1020 1.363 . S
C1021 C1027 1.363 . S
C1022 C1023 1.363 . S
C1022 C1027 1.379 . S
C1022 N1029 1.356 . S
C1023 C1022 1.363 . S
C1023 C1026 1.363 . S
N1024 C1026 1.356 . S
N1024 H1036 0.984 . S
N1024 H1037 0.985 . S
N1025 C1027 1.356 . S
N1025 H1030 0.984 . S
N1025 H1031 0.985 . S
C1026 C1020 1.379 . S
C1026 C1023 1.363 . S
C1026 N1024 1.356 . S
C1027 C1021 1.363 . S
C1027 C1022 1.379 . S
C1027 N1025 1.356 . S
N1028 C1020 1.356 . S
N1028 H1034 0.984 . S
N1028 H1035 0.984 . S
N1029 C1022 1.356 . S
N1029 H1032 0.984 . S
N1029 H1033 0.985 . S
H1030 N1025 0.984 . S
H1031 N1025 0.985 . S
H1032 N1029 0.984 . S
H1033 N1029 0.985 . S
H1034 N1028 0.984 . S
H1035 N1028 0.984 . S
H1036 N1024 0.984 . S
H1037 N1024 0.985 . S
C1038 C1039 1.363 . S
C1038 C1044 1.379 1_556 S
C1038 N1046 1.356 . S
C1039 C1038 1.363 . S
C1039 C1045 1.363 . S
C1040 C1041 1.363 1_556 S
C1040 C1045 1.379 . S
C1040 N1047 1.356 1_556 S
C1041 C1040 1.363 1_554 S
C1041 C1044 1.363 . S
N1042 C1044 1.356 . S
N1042 H1054 0.984 . S
N1042 H1055 0.985 . S
N1043 C1045 1.356 . S
N1043 H1048 0.984 . S
N1043 H1049 0.985 . S
C1044 C1038 1.379 1_554 S
C1044 C1041 1.363 . S
C1044 N1042 1.356 . S
C1045 C1039 1.363 . S
C1045 C1040 1.379 . S
C1045 N1043 1.356 . S
N1046 C1038 1.356 . S
N1046 H1052 1.001 . S
N1046 H1053 0.984 . S
N1047 C1040 1.356 1_554 S
N1047 H1050 0.984 . S
N1047 H1051 0.985 1_554 S
H1048 N1043 0.984 . S
H1049 N1043 0.985 . S
H1050 N1047 0.984 . S
H1051 N1047 0.985 1_556 S
H1052 N1046 1.001 . S
H1053 N1046 0.984 . S
H1054 N1042 0.984 . S
H1055 N1042 0.985 . S
C1056 C1057 1.363 . S
C1056 C1062 1.379 . S
C1056 N1064 1.356 . S
C1057 C1056 1.363 . S
C1057 C1063 1.363 . S
C1058 C1059 1.363 . S
C1058 C1063 1.379 . S
C1058 N1065 1.356 . S
C1059 C1058 1.363 . S
C1059 C1062 1.363 . S
N1060 C1062 1.356 . S
N1060 H1072 0.984 . S
N1060 H1073 0.985 . S
N1061 C1063 1.356 . S
N1061 H1066 0.984 . S
N1061 H1067 0.985 . S
C1062 C1056 1.379 . S
C1062 C1059 1.363 . S
C1062 N1060 1.356 . S
C1063 C1057 1.363 . S
C1063 C1058 1.379 . S
C1063 N1061 1.356 . S
N1064 C1056 1.356 . S
N1064 H1070 0.984 . S
N1064 H1071 0.984 . S
N1065 C1058 1.356 . S
N1065 H1068 0.984 . S
N1065 H1069 0.985 . S
H1066 N1061 0.984 . S
H1067 N1061 0.985 . S
H1068 N1065 0.984 . S
H1069 N1065 0.985 . S
H1070 N1064 0.984 . S
H1071 N1064 0.984 . S
H1072 N1060 0.984 . S
H1073 N1060 0.985 . S
C1074 C1075 1.363 . S
C1074 C1080 1.379 . S
C1074 N1082 1.356 . S
C1075 C1074 1.363 . S
C1075 C1081 1.363 . S
C1076 C1077 1.363 . S
C1076 C1081 1.379 . S
C1076 N1083 1.356 . S
C1077 C1076 1.363 . S
C1077 C1080 1.363 . S
N1078 C1080 1.356 . S
N1078 H1090 0.984 . S
N1078 H1091 0.985 . S
N1079 C1081 1.356 . S
N1079 H1084 0.984 . S
N1079 H1085 0.985 . S
C1080 C1074 1.379 . S
C1080 C1077 1.363 . S
C1080 N1078 1.356 . S
C1081 C1075 1.363 . S
C1081 C1076 1.379 . S
C1081 N1079 1.356 . S
N1082 C1074 1.356 . S
N1082 H1088 0.984 . S
N1082 H1089 0.984 . S
N1083 C1076 1.356 . S
N1083 H1086 0.984 . S
N1083 H1087 0.985 . S
H1084 N1079 0.984 . S
H1085 N1079 0.985 . S
H1086 N1083 0.984 . S
H1087 N1083 0.985 . S
H1088 N1082 0.984 . S
H1089 N1082 0.984 . S
H1090 N1078 0.984 . S
H1091 N1078 0.985 . S
C1092 C1093 1.363 . S
C1092 C1098 1.379 . S
C1092 N1100 1.356 . S
C1093 C1092 1.363 . S
C1093 C1099 1.363 . S
C1094 C1095 1.363 . S
C1094 C1099 1.379 . S
C1094 N1101 1.356 . S
C1095 C1094 1.363 . S
C1095 C1098 1.363 . S
N1096 C1098 1.356 . S
N1096 H1108 0.984 . S
N1096 H1109 0.985 . S
N1097 C1099 1.356 . S
N1097 H1102 0.984 . S
N1097 H1103 0.985 . S
C1098 C1092 1.379 . S
C1098 C1095 1.363 . S
C1098 N1096 1.356 . S
C1099 C1093 1.363 . S
C1099 C1094 1.379 . S
C1099 N1097 1.356 . S
N1100 C1092 1.356 . S
N1100 H1106 0.984 . S
N1100 H1107 0.984 . S
N1101 C1094 1.356 . S
N1101 H1104 0.984 . S
N1101 H1105 0.985 . S
H1102 N1097 0.984 . S
H1103 N1097 0.985 . S
H1104 N1101 0.984 . S
H1105 N1101 0.985 . S
H1106 N1100 0.984 . S
H1107 N1100 0.984 . S
H1108 N1096 0.984 . S
H1109 N1096 0.985 . S
C1110 C1111 1.363 . S
C1110 C1116 1.379 . S
C1110 N1118 1.356 . S
C1111 C1110 1.363 . S
C1111 C1117 1.363 . S
C1112 C1113 1.363 . S
C1112 C1117 1.379 . S
C1112 N1119 1.356 . S
C1113 C1112 1.363 . S
C1113 C1116 1.363 . S
N1114 C1116 1.356 . S
N1114 H1126 0.984 . S
N1114 H1127 0.985 . S
N1115 C1117 1.356 . S
N1115 H1120 0.984 . S
N1115 H1121 0.985 . S
C1116 C1110 1.379 . S
C1116 C1113 1.363 . S
C1116 N1114 1.356 . S
C1117 C1111 1.363 . S
C1117 C1112 1.379 . S
C1117 N1115 1.356 . S
N1118 C1110 1.356 . S
N1118 H1124 0.984 . S
N1118 H1125 0.984 . S
N1119 C1112 1.356 . S
N1119 H1122 0.984 . S
N1119 H1123 0.985 . S
H1120 N1115 0.984 . S
H1121 N1115 0.985 . S
H1122 N1119 0.984 . S
H1123 N1119 0.985 . S
H1124 N1118 0.984 . S
H1125 N1118 0.984 . S
H1126 N1114 0.984 . S
H1127 N1114 0.985 . S
C1128 C1129 1.363 . S
C1128 C1134 1.379 . S
C1128 N1136 1.356 . S
C1129 C1128 1.363 . S
C1129 C1135 1.363 . S
C1130 C1131 1.363 . S
C1130 C1135 1.379 . S
C1130 N1137 1.356 . S
C1131 C1130 1.363 . S
C1131 C1134 1.363 . S
N1132 C1134 1.356 . S
N1132 H1144 0.984 . S
N1132 H1145 0.985 . S
N1133 C1135 1.356 . S
N1133 H1138 0.984 . S
N1133 H1139 0.985 . S
C1134 C1128 1.379 . S
C1134 C1131 1.363 . S
C1134 N1132 1.356 . S
C1135 C1129 1.363 . S
C1135 C1130 1.379 . S
C1135 N1133 1.356 . S
N1136 C1128 1.356 . S
N1136 H1142 0.984 . S
N1136 H1143 0.984 . S
N1137 C1130 1.356 . S
N1137 H1140 0.984 . S
N1137 H1141 0.985 . S
H1138 N1133 0.984 . S
H1139 N1133 0.985 . S
H1140 N1137 0.984 . S
H1141 N1137 0.985 . S
H1142 N1136 0.984 . S
H1143 N1136 0.984 . S
H1144 N1132 0.984 . S
H1145 N1132 0.985 . S
C1146 C1147 1.363 . S
C1146 C1152 1.379 . S
C1146 N1154 1.356 . S
C1147 C1146 1.363 . S
C1147 C1153 1.363 . S
C1148 C1149 1.363 . S
C1148 C1153 1.379 . S
C1148 N1155 1.356 . S
C1149 C1148 1.363 . S
C1149 C1152 1.363 . S
N1150 C1152 1.356 . S
N1150 H1162 0.984 . S
N1150 H1163 0.985 . S
N1151 C1153 1.356 . S
N1151 H1156 0.984 . S
N1151 H1157 0.985 . S
C1152 C1146 1.379 . S
C1152 C1149 1.363 . S
C1152 N1150 1.356 . S
C1153 C1147 1.363 . S
C1153 C1148 1.379 . S
C1153 N1151 1.356 . S
N1154 C1146 1.356 . S
N1154 H1160 0.984 . S
N1154 H1161 0.984 . S
N1155 C1148 1.356 . S
N1155 H1158 0.984 . S
N1155 H1159 0.985 . S
H1156 N1151 0.984 . S
H1157 N1151 0.985 . S
H1158 N1155 0.984 . S
H1159 N1155 0.985 . S
H1160 N1154 0.984 . S
H1161 N1154 0.984 . S
H1162 N1150 0.984 . S
H1163 N1150 0.985 . S
C1164 C1165 1.363 1_556 S
C1164 C1170 1.379 . S
C1164 N1172 1.356 1_556 S
C1165 C1164 1.363 1_554 S
C1165 C1171 1.363 . S
C1166 C1167 1.363 . S
C1166 C1171 1.379 1_556 S
C1166 N1173 1.356 . S
C1167 C1166 1.363 . S
C1167 C1170 1.363 . S
N1168 C1170 1.356 . S
N1168 H1180 0.984 . S
N1168 H1181 0.985 . S
N1169 C1171 1.356 . S
N1169 H1174 0.984 . S
N1169 H1175 0.985 . S
C1170 C1164 1.379 . S
C1170 C1167 1.363 . S
C1170 N1168 1.356 . S
C1171 C1165 1.363 . S
C1171 C1166 1.379 1_554 S
C1171 N1169 1.356 . S
N1172 C1164 1.356 1_554 S
N1172 H1178 0.984 1_554 S
N1172 H1179 0.984 . S
N1173 C1166 1.356 . S
N1173 H1176 0.984 . S
N1173 H1177 0.985 . S
H1174 N1169 0.984 . S
H1175 N1169 0.985 . S
H1176 N1173 0.984 . S
H1177 N1173 0.985 . S
H1178 N1172 0.984 1_556 S
H1179 N1172 0.984 . S
H1180 N1168 0.984 . S
H1181 N1168 0.985 . S
C1182 C1183 1.363 . S
C1182 C1188 1.379 . S
C1182 N1190 1.356 . S
C1183 C1182 1.363 . S
C1183 C1189 1.363 . S
C1184 C1185 1.363 . S
C1184 C1189 1.379 . S
C1184 N1191 1.356 . S
C1185 C1184 1.363 . S
C1185 C1188 1.363 . S
N1186 C1188 1.356 . S
N1186 H1198 0.984 . S
N1186 H1199 0.985 . S
N1187 C1189 1.356 . S
N1187 H1192 0.984 . S
N1187 H1193 0.985 . S
C1188 C1182 1.379 . S
C1188 C1185 1.363 . S
C1188 N1186 1.356 . S
C1189 C1183 1.363 . S
C1189 C1184 1.379 . S
C1189 N1187 1.356 . S
N1190 C1182 1.356 . S
N1190 H1196 0.984 . S
N1190 H1197 0.984 . S
N1191 C1184 1.356 . S
N1191 H1194 0.984 . S
N1191 H1195 0.985 . S
H1192 N1187 0.984 . S
H1193 N1187 0.985 . S
H1194 N1191 0.984 . S
H1195 N1191 0.985 . S
H1196 N1190 0.984 . S
H1197 N1190 0.984 . S
H1198 N1186 0.984 . S
H1199 N1186 0.985 . S
C771 C761 1.716 . S
C769 C1 1.268 . S
C787 C169 1.545 . S
C789 C695 1.689 . S
C805 C283 1.552 . S
C807 C709 1.650 . S
C823 C397 1.495 . S
C825 C723 1.597 . S
C843 C737 1.629 . S
C841 C457 1.231 . S
C859 C571 1.140 . S
C861 C747 1.615 . S
C877 C115 1.268 . S
C879 C705 1.748 . S
C895 C229 1.297 . S
C897 C719 1.769 . S
C913 C343 1.219 . S
C915 C733 1.676 . S
C933 C751 1.703 . S
C931 C511 1.656 . S
C951 C765 1.734 . S
C949 C625 1.590 . S
C969 C691 1.805 . S
C967 C55 1.558 . S
C985 C29 1.216 . S
C987 C706 1.412 . S
C1003 C125 0.977 . S
C1005 C720 1.560 . S
C1023 C734 1.504 . S
C1021 C239 0.938 . S
C1039 C353 0.892 . S
C1041 C753 1.407 . S
C1059 C767 1.323 . S
C1057 C485 1.059 . S
C1077 C692 1.378 . S
C1075 C599 1.148 . S
C1095 C762 1.395 . S
C1093 C143 1.188 . S
C1111 C257 1.088 . S
C1113 C697 1.327 . S
C1131 C711 1.265 . S
C1129 C371 1.044 . S
C1147 C467 0.915 . S
C1149 C725 1.380 . S
C1165 C581 0.875 . S
C1167 C739 1.439 . S
C1183 C11 0.892 . S
C1185 C748 1.493 . S
