# Generated by pormake.
# Topology anh, (6,3)-cn, num edge types: 1
# Building blocks:
#     Node 0, Type 0, BuildingBlock: GEDQOX_clean_sbu_0, # of connection points: 6
#     Node 1, Type 0, BuildingBlock: GEDQOX_clean_sbu_0, # of connection points: 6
#     Node 2, Type 0, BuildingBlock: GEDQOX_clean_sbu_0, # of connection points: 6
#     Node 3, Type 1, BuildingBlock: ESEHIV_clean_linker_0, # of connection points: 3
#     Node 4, Type 1, BuildingBlock: ESEHIV_clean_linker_0, # of connection points: 3
#     Node 5, Type 1, BuildingBlock: ESEHIV_clean_linker_0, # of connection points: 3
#     Node 6, Type 1, BuildingBlock: ESEHIV_clean_linker_0, # of connection points: 3
#     Node 7, Type 1, BuildingBlock: ESEHIV_clean_linker_0, # of connection points: 3
#     Node 8, Type 1, BuildingBlock: ESEHIV_clean_linker_0, # of connection points: 3
#     Edge 9, Type (0, 1), BuildingBlock: UVAHIK_clean_linker_0, # of connection points: 2
#     Edge 10, Type (0, 1), BuildingBlock: UVAHIK_clean_linker_0, # of connection points: 2
#     Edge 11, Type (0, 1), BuildingBlock: UVAHIK_clean_linker_0, # of connection points: 2
#     Edge 12, Type (0, 1), BuildingBlock: UVAHIK_clean_linker_0, # of connection points: 2
#     Edge 13, Type (0, 1), BuildingBlock: UVAHIK_clean_linker_0, # of connection points: 2
#     Edge 14, Type (0, 1), BuildingBlock: UVAHIK_clean_linker_0, # of connection points: 2
#     Edge 15, Type (0, 1), BuildingBlock: UVAHIK_clean_linker_0, # of connection points: 2
#     Edge 16, Type (0, 1), BuildingBlock: UVAHIK_clean_linker_0, # of connection points: 2
#     Edge 17, Type (0, 1), BuildingBlock: UVAHIK_clean_linker_0, # of connection points: 2
#     Edge 18, Type (0, 1), BuildingBlock: UVAHIK_clean_linker_0, # of connection points: 2
#     Edge 19, Type (0, 1), BuildingBlock: UVAHIK_clean_linker_0, # of connection points: 2
#     Edge 20, Type (0, 1), BuildingBlock: UVAHIK_clean_linker_0, # of connection points: 2
#     Edge 21, Type (0, 1), BuildingBlock: UVAHIK_clean_linker_0, # of connection points: 2
#     Edge 22, Type (0, 1), BuildingBlock: UVAHIK_clean_linker_0, # of connection points: 2
#     Edge 23, Type (0, 1), BuildingBlock: UVAHIK_clean_linker_0, # of connection points: 2
#     Edge 24, Type (0, 1), BuildingBlock: UVAHIK_clean_linker_0, # of connection points: 2
#     Edge 25, Type (0, 1), BuildingBlock: UVAHIK_clean_linker_0, # of connection points: 2
#     Edge 26, Type (0, 1), BuildingBlock: UVAHIK_clean_linker_0, # of connection points: 2
# Relax obj value: 0.178
# Max RMSD: 0.210
# Mean RMSD: 0.157
data_MOF--net-anh--node1-GEDQOX_clean_sbu_0--node2-ESEHIV_clean_linker_0--edge1-UVAHIK_clean_linker_0
_symmetry_space_group_name_H-M    P1
_symmetry_Int_Tables_number       1
_symmetry_cell_setting            triclinic
loop_
_symmetry_equiv_pos_as_xyz
'x, y, z'
_cell_length_a     36.520909
_cell_length_b     36.006349
_cell_length_c     68.002819
_cell_angle_alpha  92.91762
_cell_angle_beta   91.640515
_cell_angle_gamma 104.90259
loop_
_atom_site_label
_atom_site_type_symbol
_atom_site_fract_x
_atom_site_fract_y
_atom_site_fract_z
_atom_type_partial_charge
Nd0 Nd 0.09241 0.54247 0.14543 0.0
Nd1 Nd 0.07086 0.45696 0.15097 0.0
C2 C 0.12387 0.61236 0.13435 0.0
C3 C 0.16028 0.64023 0.13969 0.0
C4 C 0.17556 0.66962 0.12726 0.0
C5 C 0.21055 0.69579 0.13228 0.0
C6 C 0.23075 0.69297 0.14986 0.0
C7 C 0.2152 0.66319 0.1622 0.0
C8 C 0.18045 0.63697 0.1571 0.0
C9 C 0.08349 0.52459 0.184 0.0
C10 C 0.16037 0.49609 0.14966 0.0
C11 C 1.04085 0.38658 0.16202 0.0
C12 C 1.00287 0.36184 0.16589 0.0
C13 C 0.98783 0.36298 0.18464 0.0
C14 C 0.95235 0.33907 0.18837 0.0
C15 C 0.93112 0.31331 0.17347 0.0
C16 C 0.94621 0.31209 0.15473 0.0
C17 C 0.98173 0.336 0.151 0.0
C18 C 0.08242 0.4772 0.11292 0.0
C19 C 1.00325 0.50223 0.14496 0.0
O20 O 0.12605 0.58106 0.12434 0.0
O21 O 0.09973 0.60546 0.1484 0.0
O22 O 0.07387 0.55336 0.1766 0.0
O23 O 0.09944 0.50772 0.17148 0.0
O24 O 0.15019 0.52686 0.14411 0.0
O25 O 0.13507 0.46564 0.15531 0.0
O26 O 1.05491 0.41614 0.17445 0.0
O27 O 1.04784 0.39441 0.14371 0.0
O28 O 0.09412 0.44944 0.12023 0.0
O29 O 1.06444 0.49189 0.12526 0.0
O30 O 1.01341 0.47363 0.15323 0.0
O31 O 1.0289 0.53038 0.13761 0.0
H32 H 0.16052 0.67225 0.11365 0.0
H33 H 0.2219 0.71798 0.12229 0.0
H34 H 0.22955 0.66042 0.17599 0.0
H35 H 0.16919 0.61421 0.16682 0.0
H36 H 1.00357 0.38215 0.19653 0.0
H37 H 0.94189 0.34025 0.20307 0.0
H38 H 0.93047 0.29281 0.14288 0.0
H39 H 0.99264 0.33413 0.13644 0.0
Nd40 Nd 0.52551 0.00362 0.5155 0.0
Nd41 Nd 0.60837 0.02182 0.50613 0.0
C42 C 0.45713 0.97353 0.52822 0.0
C43 C 0.42943 0.93646 0.52325 0.0
C44 C 0.39813 0.9236 0.53487 0.0
C45 C 0.37198 0.88814 0.53001 0.0
C46 C 0.37677 0.86502 0.51343 0.0
C47 C 0.40843 0.8782 0.50192 0.0
C48 C 0.43455 0.91344 0.50684 0.0
C49 C 0.53947 0.0106 0.47629 0.0
C50 C 0.56721 0.93247 0.50826 0.0
C51 C 0.67549 0.04946 0.49133 0.0
C52 C 0.70181 0.08716 0.48809 0.0
C53 C 0.71148 0.09659 0.46882 0.0
C54 C 0.73697 0.13161 0.46535 0.0
C55 C 0.75359 0.15789 0.48111 0.0
C56 C 0.74382 0.14851 0.50043 0.0
C57 C 0.71808 0.11355 0.5039 0.0
C58 C 0.59468 0.01235 0.54518 0.0
C59 C 0.56722 0.09249 0.51512 0.0
O60 O 0.48829 0.97155 0.53759 0.0
O61 O 0.46355 0.99727 0.51403 0.0
O62 O 0.51376 0.02372 0.48489 0.0
O63 O 0.55556 0.99336 0.48803 0.0
O64 O 0.5393 0.94464 0.51602 0.0
O65 O 0.59634 0.95652 0.50079 0.0
O66 O 0.64379 0.03997 0.48059 0.0
O67 O 0.67103 0.03945 0.50951 0.0
O68 O 0.62056 0.00012 0.53613 0.0
O69 O 0.57839 0.03059 0.53398 0.0
O70 O 0.59357 0.08075 0.50547 0.0
O71 O 0.54023 0.06788 0.52376 0.0
H72 H 0.39395 0.94093 0.54769 0.0
H73 H 0.34823 0.87871 0.53935 0.0
H74 H 0.41279 0.86161 0.48887 0.0
H75 H 0.45869 0.92288 0.49773 0.0
H76 H 0.69952 0.07666 0.45641 0.0
H77 H 0.74429 0.13776 0.45032 0.0
H78 H 0.75591 0.16833 0.51285 0.0
H79 H 0.7111 0.1072 0.51894 0.0
Nd80 Nd 0.52445 0.48677 0.82427 0.0
Nd81 Nd 0.6064 0.51256 0.8391 0.0
C82 C 0.46144 0.47014 0.80229 0.0
C83 C 0.44282 0.49825 0.7943 0.0
C84 C 0.46498 0.5323 0.78693 0.0
C85 C 0.44954 0.56328 0.78394 0.0
C86 C 0.41174 0.56085 0.78828 0.0
C87 C 0.38878 0.52569 0.79408 0.0
C88 C 0.40427 0.49464 0.79712 0.0
C89 C 0.53432 0.50119 0.86439 0.0
C90 C 0.56258 0.57741 0.83463 0.0
C91 C 0.67364 0.51792 0.85583 0.0
C92 C 0.70039 0.494 0.85293 0.0
C93 C 0.68887 0.45362 0.85366 0.0
C94 C 0.71307 0.43109 0.84767 0.0
C95 C 0.74857 0.44873 0.84054 0.0
C96 C 0.7604 0.489 0.8404 0.0
C97 C 0.73662 0.51144 0.84665 0.0
C98 C 0.59514 0.52124 0.79979 0.0
C99 C 0.56851 0.42023 0.82836 0.0
O100 O 0.49436 0.47034 0.79519 0.0
O101 O 0.46145 0.46845 0.82148 0.0
O102 O 0.50785 0.51044 0.85408 0.0
O103 O 0.55311 0.48417 0.85365 0.0
O104 O 0.54076 0.5521 0.82169 0.0
O105 O 0.58661 0.56701 0.84676 0.0
O106 O 0.64205 0.50269 0.86433 0.0
O107 O 0.6685 0.53691 0.8406 0.0
O108 O 0.61924 0.54655 0.81117 0.0
O109 O 0.57915 0.49262 0.80912 0.0
O110 O 0.60004 0.44839 0.83069 0.0
O111 O 0.53471 0.42715 0.82713 0.0
H112 H 0.49494 0.53607 0.78469 0.0
H113 H 0.46777 0.5899 0.77934 0.0
H114 H 0.35961 0.5231 0.79777 0.0
H115 H 0.38682 0.46885 0.80296 0.0
H116 H 0.66085 0.43938 0.85827 0.0
H117 H 0.70375 0.40005 0.84807 0.0
H118 H 0.78809 0.50312 0.83529 0.0
H119 H 0.74598 0.54242 0.84585 0.0
H120 H 0.53245 0.95857 0.26218 0.0
H121 H 0.62087 0.06386 0.26611 0.0
H122 H 0.57759 0.00967 0.20922 0.0
C123 C 0.55223 0.98107 0.255 0.0
C124 C 0.55207 0.98051 0.23433 0.0
C125 C 0.57654 0.01137 0.26648 0.0
C126 C 0.60143 0.04096 0.25718 0.0
C127 C 0.60247 0.04032 0.23653 0.0
C128 C 0.57739 0.01015 0.22517 0.0
H129 H 0.56362 0.58004 0.58546 0.0
H130 H 0.56714 0.46176 0.58655 0.0
H131 H 0.56537 0.51401 0.5311 0.0
C132 C 0.56483 0.55325 0.5778 0.0
C133 C 0.56484 0.55088 0.55712 0.0
C134 C 0.56583 0.52134 0.5886 0.0
C135 C 0.56613 0.48659 0.57838 0.0
C136 C 0.56577 0.48355 0.55769 0.0
C137 C 0.56598 0.51612 0.54707 0.0
H138 H 0.0718 0.53244 0.90706 0.0
H139 H 0.18405 0.60871 0.91159 0.0
H140 H 0.12713 0.57455 0.85488 0.0
C141 C 0.09643 0.54906 0.90004 0.0
C142 C 0.0961 0.54958 0.87943 0.0
C143 C 0.12815 0.56966 0.91181 0.0
C144 C 0.15908 0.59336 0.90276 0.0
C145 C 0.15866 0.59555 0.88216 0.0
C146 C 0.1271 0.57352 0.87073 0.0
H147 H 1.03266 0.45395 0.39313 0.0
H148 H 0.13113 0.54981 0.40004 0.0
H149 H 0.07163 0.50569 0.45109 0.0
C150 C 1.05265 0.4753 0.40264 0.0
C151 C 1.04838 0.47649 0.42314 0.0
C152 C 0.0822 0.50182 0.39422 0.0
C153 C 0.10825 0.52922 0.4065 0.0
C154 C 0.10482 0.53061 0.42702 0.0
C155 C 0.07465 0.50434 0.43528 0.0
H156 H 0.57876 0.05626 0.7592 0.0
H157 H 0.56326 0.93368 0.75635 0.0
H158 H 0.57346 0.99679 0.81272 0.0
C159 C 0.57562 0.0296 0.7665 0.0
C160 C 0.57666 0.03047 0.78714 0.0
C161 C 0.5706 0.99482 0.75525 0.0
C162 C 0.567 0.96067 0.76496 0.0
C163 C 0.56809 0.96097 0.78568 0.0
C164 C 0.57289 0.99614 0.79676 0.0
H165 H 0.51474 0.50271 0.08066 0.0
H166 H 0.63295 0.50716 0.07669 0.0
H167 H 0.58202 0.4993 0.13326 0.0
C168 C 0.54187 0.50298 0.08767 0.0
C169 C 0.54456 0.50111 0.10821 0.0
C170 C 0.57339 0.50476 0.07611 0.0
C171 C 0.60821 0.50493 0.08544 0.0
C172 C 0.61185 0.50294 0.10599 0.0
C173 C 0.57957 0.50032 0.11739 0.0
C174 C 0.21326 0.46296 0.1533 0.0
C175 C 0.20121 0.49596 0.14913 0.0
C176 C 0.25154 0.46272 0.15202 0.0
C177 C 0.34908 0.52817 0.15032 0.0
H178 H 0.37395 0.43829 0.12631 0.0
C179 C 0.4952 0.53393 0.1185 0.0
C180 C 0.51039 0.50193 0.11945 0.0
C181 C 0.45918 0.53268 0.12537 0.0
C182 C 0.36764 0.46343 0.13337 0.0
H183 H 0.22054 0.55479 0.1405 0.0
H184 H 0.2867 0.55425 0.13814 0.0
H185 H 0.30783 0.43688 0.13167 0.0
H186 H 0.50011 0.44373 0.12871 0.0
H187 H 0.43692 0.44144 0.141 0.0
H188 H 0.40878 0.55499 0.15167 0.0
C189 C 0.26677 0.5286 0.14265 0.0
C190 C 0.32958 0.46264 0.13643 0.0
C191 C 0.22859 0.52881 0.14387 0.0
C192 C 0.4893 0.469 0.1281 0.0
C193 C 0.45293 0.46758 0.13487 0.0
C194 C 0.38707 0.52896 0.14725 0.0
C195 C 0.27888 0.49552 0.14661 0.0
C196 C 0.31966 0.49524 0.14465 0.0
C197 C 0.43706 0.49919 0.13323 0.0
C198 C 0.39691 0.49684 0.13842 0.0
H199 H 0.19308 0.43711 0.1574 0.0
H200 H 0.25973 0.43683 0.1554 0.0
H201 H 0.34278 0.55357 0.1571 0.0
H202 H 0.51064 0.55945 0.1116 0.0
H203 H 0.44793 0.5574 0.12357 0.0
C204 C 0.77527 0.21637 0.46168 0.0
C205 C 0.78165 0.19448 0.47733 0.0
C206 C 0.80264 0.24952 0.45731 0.0
C207 C 0.88999 0.32121 0.47712 0.0
H208 H 0.90798 0.335 0.42173 0.0
C209 C 1.022 0.42912 0.4484 0.0
C210 C 1.01631 0.44852 0.43162 0.0
C211 C 0.99231 0.40045 0.45527 0.0
C212 C 0.90302 0.33192 0.43726 0.0
H213 H 0.82151 0.19059 0.50088 0.0
H214 H 0.86954 0.24826 0.49312 0.0
H215 H 0.85816 0.28091 0.43129 0.0
H216 H 0.97445 0.45476 0.40963 0.0
H217 H 0.92281 0.40495 0.42158 0.0
H218 H 0.93549 0.37213 0.48299 0.0
C219 C 0.84312 0.24014 0.4844 0.0
C220 C 0.87437 0.30087 0.44275 0.0
C221 C 0.81562 0.20705 0.48884 0.0
C222 C 0.97997 0.43974 0.42234 0.0
C223 C 0.95038 0.41118 0.42918 0.0
C224 C 0.91881 0.35231 0.4716 0.0
C225 C 0.83718 0.26148 0.4684 0.0
C226 C 0.86741 0.29511 0.46274 0.0
C227 C 0.95635 0.39066 0.44548 0.0
C228 C 0.92558 0.35804 0.45159 0.0
H229 H 0.74908 0.20781 0.45276 0.0
H230 H 0.79676 0.26571 0.44515 0.0
H231 H 0.88515 0.31786 0.49264 0.0
H232 H 1.04974 0.43509 0.45579 0.0
H233 H 0.9979 0.38499 0.46779 0.0
C234 C 0.53327 0.62768 0.82238 0.0
C235 C 0.56158 0.61827 0.83406 0.0
C236 C 0.53393 0.66598 0.81978 0.0
C237 C 0.57278 0.76666 0.83886 0.0
H238 H 0.55293 0.78729 0.7847 0.0
C239 C 0.59097 0.92062 0.81001 0.0
C240 C 0.56439 0.9242 0.79534 0.0
C241 C 0.59033 0.88443 0.81696 0.0
C242 C 0.55804 0.78204 0.79995 0.0
H243 H 0.61185 0.64196 0.85299 0.0
H244 H 0.61297 0.70944 0.84839 0.0
H245 H 0.55311 0.72251 0.79279 0.0
H246 H 0.51462 0.89347 0.77758 0.0
H247 H 0.51303 0.83075 0.78985 0.0
H248 H 0.57775 0.82667 0.84588 0.0
C249 C 0.59026 0.68687 0.84127 0.0
C250 C 0.55822 0.74484 0.80459 0.0
C251 C 0.58966 0.64825 0.84387 0.0
C252 C 0.53588 0.89143 0.78862 0.0
C253 C 0.5351 0.85549 0.7956 0.0
C254 C 0.57258 0.80415 0.83418 0.0
C255 C 0.56287 0.69605 0.82878 0.0
C256 C 0.56498 0.73648 0.82412 0.0
C257 C 0.563 0.85128 0.80938 0.0
C258 C 0.56461 0.81209 0.81469 0.0
H259 H 0.51087 0.60542 0.81482 0.0
H260 H 0.51202 0.67211 0.81041 0.0
H261 H 0.57803 0.7611 0.85404 0.0
H262 H 0.61333 0.94543 0.81539 0.0
H263 H 0.61225 0.88218 0.82755 0.0
C264 C 0.95134 0.53211 0.1342 0.0
C265 C 0.96233 0.50206 0.14317 0.0
C266 C 0.91301 0.53175 0.13189 0.0
C267 C 0.81649 0.48819 0.14951 0.0
H268 H 0.78448 0.52285 0.10043 0.0
C269 C 0.65736 0.47566 0.12594 0.0
C270 C 0.65026 0.50526 0.11493 0.0
C271 C 0.69484 0.47509 0.13113 0.0
C272 C 0.79287 0.51357 0.11438 0.0
H273 H 0.94106 0.44818 0.15701 0.0
H274 H 0.87408 0.44744 0.15284 0.0
H275 H 0.85015 0.52171 0.10582 0.0
H276 H 0.67659 0.55871 0.10189 0.0
H277 H 0.74131 0.5584 0.11129 0.0
H278 H 0.7588 0.47999 0.15796 0.0
C279 C 0.89528 0.47151 0.14773 0.0
C280 C 0.83073 0.51288 0.11746 0.0
C281 C 0.93377 0.47185 0.15003 0.0
C282 C 0.68117 0.53531 0.11022 0.0
C283 C 0.71836 0.53489 0.11545 0.0
C284 C 0.77841 0.48892 0.14642 0.0
C285 C 0.88432 0.50131 0.13844 0.0
C286 C 0.84331 0.5006 0.13514 0.0
C287 C 0.72594 0.5042 0.12543 0.0
C288 C 0.76614 0.50209 0.12887 0.0
H289 H 0.97238 0.55602 0.12883 0.0
H290 H 0.90589 0.55559 0.12501 0.0
H291 H 0.82508 0.47875 0.16337 0.0
H292 H 0.63411 0.45197 0.12964 0.0
H293 H 0.69946 0.45095 0.13879 0.0
C294 C 0.30957 0.82353 0.50958 0.0
C295 C 0.34871 0.82764 0.50782 0.0
C296 C 0.28322 0.78919 0.50306 0.0
C297 C 0.2724 0.70781 0.46714 0.0
H298 H 0.18581 0.65828 0.49665 0.0
C299 C 0.17161 0.56506 0.43732 0.0
C300 C 0.13262 0.56027 0.43952 0.0
C301 C 0.19806 0.5954 0.44752 0.0
C302 C 0.20959 0.67196 0.48811 0.0
H303 H 0.39071 0.79787 0.49876 0.0
H304 H 0.34472 0.73849 0.48699 0.0
H305 H 0.23154 0.71603 0.51102 0.0
H306 H 0.09057 0.5827 0.45443 0.0
H307 H 0.13667 0.63656 0.47189 0.0
H308 H 0.25026 0.665 0.44398 0.0
C309 C 0.33449 0.76202 0.49324 0.0
C310 C 0.23582 0.70497 0.49639 0.0
C311 C 0.36081 0.79615 0.49991 0.0
C312 C 0.12054 0.58566 0.45261 0.0
C313 C 0.14701 0.61644 0.46263 0.0
C314 C 0.24606 0.67519 0.45879 0.0
C315 C 0.29541 0.75835 0.49449 0.0
C316 C 0.26757 0.72312 0.486 0.0
C317 C 0.18613 0.62213 0.45992 0.0
C318 C 0.21434 0.65667 0.46916 0.0
H319 H 0.29916 0.84727 0.51539 0.0
H320 H 0.25325 0.78727 0.50406 0.0
H321 H 0.29622 0.7216 0.45863 0.0
H322 H 0.18164 0.54554 0.42748 0.0
H323 H 0.2279 0.59813 0.44545 0.0
C324 C 0.53905 0.34898 0.82785 0.0
C325 C 0.57147 0.37989 0.82695 0.0
C326 C 0.542 0.31096 0.8265 0.0
C327 C 0.60175 0.25198 0.80651 0.0
H328 H 0.5478 0.17514 0.84066 0.0
C329 C 0.61446 0.09688 0.79737 0.0
C330 C 0.58074 0.06777 0.79816 0.0
C331 C 0.61612 0.1346 0.80412 0.0
C332 C 0.56282 0.19614 0.8309 0.0
H333 H 0.63248 0.39497 0.82401 0.0
H334 H 0.63749 0.32871 0.82151 0.0
H335 H 0.5445 0.2419 0.84564 0.0
H336 H 0.52269 0.05443 0.80706 0.0
H337 H 0.52501 0.12052 0.81846 0.0
H338 H 0.619 0.2065 0.79125 0.0
C339 C 0.6098 0.33392 0.82325 0.0
C340 C 0.56095 0.23439 0.83378 0.0
C341 C 0.60691 0.3719 0.82477 0.0
C342 C 0.54916 0.07646 0.80662 0.0
C343 C 0.55059 0.11434 0.81314 0.0
C344 C 0.60332 0.21378 0.8035 0.0
C345 C 0.57737 0.30302 0.82403 0.0
C346 C 0.58027 0.26266 0.82155 0.0
C347 C 0.58378 0.14415 0.81141 0.0
C348 C 0.58377 0.18524 0.81558 0.0
H349 H 0.51134 0.3541 0.8296 0.0
H350 H 0.51647 0.28773 0.82697 0.0
H351 H 0.61648 0.27298 0.79666 0.0
H352 H 0.63908 0.0907 0.79078 0.0
H353 H 0.64244 0.15651 0.803 0.0
C354 C 0.53301 0.86516 0.51507 0.0
C355 C 0.56566 0.89097 0.50865 0.0
C356 C 0.53224 0.8267 0.51732 0.0
C357 C 0.57832 0.74921 0.50464 0.0
H358 H 0.53863 0.71135 0.55416 0.0
C359 C 0.59188 0.60453 0.53536 0.0
C360 C 0.56196 0.58481 0.54645 0.0
C361 C 0.59154 0.64031 0.52821 0.0
C362 C 0.54922 0.72109 0.5401 0.0
H363 H 0.62254 0.89606 0.49869 0.0
H364 H 0.62119 0.8285 0.50276 0.0
H365 H 0.5397 0.77651 0.54627 0.0
H366 H 0.50723 0.58518 0.55768 0.0
H367 H 0.5058 0.64663 0.54467 0.0
H368 H 0.58782 0.69341 0.49856 0.0
C369 C 0.59618 0.83824 0.50597 0.0
C370 C 0.54993 0.75859 0.53561 0.0
C371 C 0.59699 0.87694 0.50371 0.0
C372 C 0.53073 0.6001 0.54927 0.0
C373 C 0.53015 0.63544 0.54197 0.0
C374 C 0.57743 0.71138 0.50911 0.0
C375 C 0.56408 0.81297 0.51325 0.0
C376 C 0.56419 0.77305 0.51779 0.0
C377 C 0.56113 0.6567 0.53197 0.0
C378 C 0.56253 0.69678 0.52685 0.0
H379 H 0.50812 0.87475 0.51875 0.0
H380 H 0.5068 0.80776 0.52258 0.0
H381 H 0.58941 0.75957 0.49077 0.0
H382 H 0.61635 0.59327 0.53314 0.0
H383 H 0.61591 0.65593 0.52063 0.0
C384 C 0.79366 0.40966 0.84763 0.0
C385 C 0.77473 0.42633 0.83376 0.0
C386 C 0.82855 0.40267 0.84331 0.0
C387 C 0.90406 0.46148 0.81951 0.0
H388 H 0.96337 0.39983 0.84379 0.0
C389 C 1.05348 0.53525 0.84856 0.0
C390 C 1.06406 0.52425 0.86701 0.0
C391 C 1.02305 0.51178 0.83722 0.0
C392 C 0.94728 0.41754 0.83702 0.0
H393 H 0.77333 0.44288 0.80367 0.0
H394 H 0.83406 0.43025 0.796 0.0
H395 H 0.89588 0.372 0.8359 0.0
H396 H 1.05179 0.47806 0.88716 0.0
H397 H 0.99639 0.43988 0.86876 0.0
H398 H 0.95302 0.5083 0.8226 0.0
C399 C 0.82249 0.423 0.81022 0.0
C400 C 0.90875 0.40129 0.83223 0.0
C401 C 0.78783 0.43026 0.81459 0.0
C402 C 1.04387 0.48849 0.87344 0.0
C403 C 1.01248 0.46577 0.86248 0.0
C404 C 0.94206 0.47795 0.82473 0.0
C405 C 0.84466 0.41252 0.82512 0.0
C406 C 0.88646 0.42374 0.82426 0.0
C407 C 1.00105 0.47745 0.84437 0.0
C408 C 0.96383 0.45688 0.83448 0.0
H409 H 0.78391 0.40646 0.8625 0.0
H410 H 0.84495 0.39453 0.85509 0.0
H411 H 0.88763 0.47983 0.81363 0.0
H412 H 0.06785 0.56254 0.84297 0.0
H413 H 1.01614 0.52141 0.82311 0.0
C414 C 0.29687 0.70939 0.1652 0.0
C415 C 0.26752 0.72123 0.15559 0.0
C416 C 0.33038 0.73624 0.17182 0.0
C417 C 0.38981 0.83386 0.16573 0.0
H418 H 0.42197 0.82929 0.22019 0.0
C419 C 0.50094 0.95856 0.2078 0.0
C420 C 0.52441 0.94952 0.22251 0.0
C421 C 0.47214 0.92962 0.19807 0.0
C422 C 0.41397 0.83065 0.20484 0.0
H423 H 0.25102 0.77075 0.14506 0.0
H424 H 0.30993 0.81746 0.15628 0.0
H425 H 0.36744 0.78065 0.20582 0.0
H426 H 0.53769 0.90311 0.2379 0.0
H427 H 0.48836 0.85237 0.22052 0.0
H428 H 0.43651 0.88371 0.16467 0.0
C429 C 0.30685 0.7873 0.15863 0.0
C430 C 0.38255 0.80279 0.19664 0.0
C431 C 0.27314 0.76048 0.15217 0.0
C432 C 0.51963 0.91087 0.22676 0.0
C433 C 0.4912 0.88188 0.21688 0.0
C434 C 0.42157 0.86155 0.17387 0.0
C435 C 0.33554 0.77551 0.1688 0.0
C436 C 0.36997 0.80426 0.17706 0.0
C437 C 0.46649 0.89094 0.20272 0.0
C438 C 0.4339 0.86048 0.1936 0.0
H439 H 0.29394 0.67932 0.16769 0.0
H440 H 0.35227 0.72629 0.17937 0.0
H441 H 0.3809 0.83544 0.15054 0.0
H442 H 0.50384 0.98822 0.20438 0.0
H443 H 0.45344 0.93784 0.18746 0.0
C444 C 0.59643 0.16118 0.50748 0.0
C445 C 0.56786 0.13389 0.51627 0.0
C446 C 0.59643 0.20014 0.5084 0.0
C447 C 0.53327 0.26456 0.5175 0.0
H448 H 0.62665 0.34289 0.53097 0.0
C449 C 0.53612 0.41306 0.55284 0.0
C450 C 0.56372 0.44558 0.5476 0.0
C451 C 0.53616 0.37639 0.54523 0.0
C452 C 0.60045 0.32146 0.52682 0.0
H453 H 0.51701 0.12632 0.53301 0.0
H454 H 0.51729 0.19394 0.53479 0.0
H455 H 0.62825 0.2758 0.52526 0.0
H456 H 0.61231 0.46557 0.52981 0.0
H457 H 0.61261 0.4009 0.51644 0.0
H458 H 0.50531 0.30997 0.51966 0.0
C459 C 0.53937 0.18527 0.5269 0.0
C460 C 0.60135 0.28299 0.52358 0.0
C461 C 0.5394 0.14645 0.52602 0.0
C462 C 0.59066 0.4409 0.53401 0.0
C463 C 0.59098 0.40396 0.52651 0.0
C464 C 0.53237 0.30291 0.52077 0.0
C465 C 0.56778 0.2126 0.51806 0.0
C466 C 0.56762 0.25396 0.51938 0.0
C467 C 0.56398 0.37127 0.53226 0.0
C468 C 0.5658 0.33167 0.52595 0.0
H469 H 0.61877 0.15249 0.49982 0.0
H470 H 0.6186 0.22042 0.50134 0.0
H471 H 0.50689 0.24306 0.51382 0.0
H472 H 0.51493 0.41595 0.56324 0.0
H473 H 0.51523 0.35185 0.55014 0.0
C474 C 0.42004 0.62907 0.80076 0.0
C475 C 0.39796 0.59609 0.79004 0.0
C476 C 0.4038 0.65837 0.80729 0.0
C477 C 0.31104 0.68492 0.80833 0.0
H478 H 0.3253 0.67698 0.86453 0.0
C479 C 0.20217 0.60417 0.85416 0.0
C480 C 0.19173 0.61874 0.87211 0.0
C481 C 0.23158 0.62593 0.84388 0.0
C482 C 0.3216 0.6812 0.849 0.0
H483 H 0.34318 0.57015 0.77553 0.0
H484 H 0.31444 0.62042 0.78719 0.0
H485 H 0.37583 0.67271 0.84291 0.0
H486 H 0.20529 0.6674 0.89367 0.0
H487 H 0.2593 0.70473 0.87599 0.0
H488 H 0.25468 0.68792 0.81443 0.0
C489 C 0.34439 0.62422 0.79053 0.0
C490 C 0.35061 0.67865 0.83649 0.0
C491 C 0.36065 0.595 0.78402 0.0
C492 C 0.2126 0.65537 0.87987 0.0
C493 C 0.24302 0.67695 0.86969 0.0
C494 C 0.28197 0.68719 0.82085 0.0
C495 C 0.36511 0.65502 0.80329 0.0
C496 C 0.34409 0.67663 0.81589 0.0
C497 C 0.25218 0.66247 0.85146 0.0
C498 C 0.28597 0.68168 0.84102 0.0
H499 H 0.44883 0.63061 0.80571 0.0
H500 H 0.42062 0.68189 0.81689 0.0
H501 H 0.30566 0.68463 0.79257 0.0
H502 H 0.18796 0.57555 0.84806 0.0
H503 H 0.23916 0.61353 0.83021 0.0
C504 C 0.86829 0.30053 0.1895 0.0
C505 C 0.89378 0.28725 0.17765 0.0
C506 C 0.83399 0.27558 0.1942 0.0
C507 C 0.76622 0.18218 0.17941 0.0
H508 H 0.73929 0.18494 0.2341 0.0
C509 C 0.65302 0.06041 0.21215 0.0
C510 C 0.63083 0.07051 0.22703 0.0
C511 C 0.68238 0.0884 0.20463 0.0
C512 C 0.74595 0.18417 0.21869 0.0
H513 H 0.90292 0.23731 0.1613 0.0
H514 H 0.84296 0.19384 0.16943 0.0
H515 H 0.79549 0.23101 0.22373 0.0
H516 H 0.62052 0.11805 0.24491 0.0
H517 H 0.67133 0.16702 0.23158 0.0
H518 H 0.71674 0.13507 0.17442 0.0
C519 C 0.84937 0.22369 0.1749 0.0
C520 C 0.77826 0.21058 0.21276 0.0
C521 C 0.88374 0.24862 0.17024 0.0
C522 C 0.63757 0.10936 0.23366 0.0
C523 C 0.66676 0.13736 0.22607 0.0
C524 C 0.73375 0.1558 0.18533 0.0
C525 C 0.82431 0.23679 0.18712 0.0
C526 C 0.78893 0.20973 0.19309 0.0
C527 C 0.69005 0.12712 0.21176 0.0
C528 C 0.72337 0.15631 0.20509 0.0
H529 H 0.87483 0.33028 0.19514 0.0
H530 H 0.815 0.28668 0.20339 0.0
H531 H 0.77347 0.1811 0.16409 0.0
H532 H 0.64871 0.03062 0.20691 0.0
H533 H 0.7 0.07939 0.19379 0.0
C534 C 0.07179 0.51741 0.08569 0.0
C535 C 0.09061 0.49138 0.09319 0.0
C536 C 0.07895 0.53058 0.06687 0.0
C537 C 0.14765 0.54492 0.02811 0.0
H538 H 1.05964 0.52955 -0.00767 0.0
C539 C 0.14485 0.59544 0.94711 0.0
C540 C 0.12907 0.56444 0.93337 0.0
C541 C 0.14333 0.59017 0.96739 0.0
C542 C 0.08439 0.53432 0.00225 0.0
H543 H 0.13251 0.45964 0.08734 0.0
H544 H 0.14538 0.4831 0.05437 0.0
H545 H 1.05101 0.5142 0.02678 0.0
H546 H 0.10173 0.50308 0.93028 0.0
H547 H 0.09771 0.49462 0.96545 0.0
H548 H 0.18093 0.56486 0.00333 0.0
C549 C 0.12502 0.49312 0.06305 0.0
C550 C 0.07948 0.52568 0.02191 0.0
C551 C 0.11744 0.47948 0.08179 0.0
C552 C 0.11302 0.52793 0.94037 0.0
C553 C 0.11094 0.5229 0.9605 0.0
C554 C 0.15252 0.55427 0.00845 0.0
C555 C 0.10549 0.51842 0.05536 0.0
C556 C 0.11106 0.53031 0.03493 0.0
C557 C 0.12562 0.55401 0.97415 0.0
C558 C 0.12091 0.54834 -0.00466 0.0
H559 H 1.05112 0.5272 0.09425 0.0
H560 H 1.06366 0.5502 0.06128 0.0
H561 H 0.17239 0.54887 0.03794 0.0
H562 H 0.15734 0.62392 0.94224 0.0
H563 H 0.15484 0.61452 0.97776 0.0
C564 C 0.53299 0.03795 0.44378 0.0
C565 C 0.54642 0.01229 0.45509 0.0
C566 C 0.539 0.03906 0.42359 0.0
C567 C 0.54998 0.97937 0.38113 0.0
H568 H 0.59605 0.07459 0.35704 0.0
C569 C 0.57967 0.98049 0.29837 0.0
C570 C 0.57567 0.01225 0.28821 0.0
C571 C 0.57839 0.98114 0.31889 0.0
C572 C 0.58257 0.0478 0.36343 0.0
H573 H 0.57683 0.96789 0.45438 0.0
H574 H 0.5863 0.96904 0.41887 0.0
H575 H 0.58892 0.07489 0.39262 0.0
H576 H 0.56683 0.06937 0.2913 0.0
H577 H 0.56281 0.07006 0.32703 0.0
H578 H 0.54188 0.95233 0.35211 0.0
C579 C 0.57147 0.98846 0.42569 0.0
C580 C 0.57876 0.04803 0.38383 0.0
C581 C 0.56614 0.98789 0.44595 0.0
C582 C 0.57033 0.04467 0.29888 0.0
C583 C 0.56829 0.04508 0.31937 0.0
C584 C 0.55308 0.97922 0.3607 0.0
C585 C 0.55789 0.01401 0.41435 0.0
C586 C 0.5625 0.01381 0.39283 0.0
C587 C 0.57229 0.0133 0.32969 0.0
C588 C 0.56946 0.01343 0.35154 0.0
H589 H 0.51786 0.05716 0.45054 0.0
H590 H 0.52814 0.05887 0.4151 0.0
H591 H 0.53695 0.95268 0.38776 0.0
H592 H 0.5842 0.95531 0.29042 0.0
H593 H 0.58245 0.95646 0.32626 0.0
C594 C 0.60734 0.55785 0.76941 0.0
C595 C 0.5896 0.52405 0.77842 0.0
C596 C 0.60296 0.56013 0.74905 0.0
C597 C 0.5421 0.51551 0.7054 0.0
H598 H 0.63223 0.55661 0.67654 0.0
C599 C 0.54494 0.49385 0.62089 0.0
C600 C 0.56638 0.52419 0.6105 0.0
C601 C 0.54632 0.49602 0.64148 0.0
C602 C 0.60666 0.54561 0.68438 0.0
H603 H 0.55344 0.46614 0.77333 0.0
H604 H 0.54552 0.47015 0.73782 0.0
H605 H 0.63698 0.55686 0.71236 0.0
H606 H 0.60588 0.58079 0.61365 0.0
H607 H 0.60755 0.585 0.64956 0.0
H608 H 0.51176 0.50413 0.67743 0.0
C609 C 0.56247 0.49506 0.74647 0.0
C610 C 0.60941 0.54572 0.70491 0.0
C611 C 0.56704 0.49273 0.76679 0.0
C612 C 0.58877 0.55703 0.62119 0.0
C613 C 0.59008 0.55925 0.64178 0.0
C614 C 0.5393 0.51555 0.68486 0.0
C615 C 0.58063 0.52867 0.73735 0.0
C616 C 0.57723 0.53035 0.71563 0.0
C617 C 0.56908 0.52866 0.65218 0.0
C618 C 0.57162 0.53027 0.67409 0.0
H619 H 0.62477 0.58248 0.77807 0.0
H620 H 0.61699 0.58654 0.74247 0.0
H621 H 0.51671 0.50397 0.71329 0.0
H622 H 0.52699 0.46836 0.61311 0.0
H623 H 0.5301 0.47175 0.64899 0.0
C624 C 0.56265 0.02631 0.57572 0.0
C625 C 0.58792 0.00842 0.56633 0.0
C626 C 0.5573 0.02327 0.59593 0.0
C627 C 0.56953 0.96483 0.63757 0.0
H628 H 0.5719 0.05747 0.66979 0.0
C629 C 0.58924 0.97277 0.72229 0.0
C630 C 0.56916 0.9943 0.73339 0.0
C631 C 0.58871 0.97319 0.70174 0.0
C632 C 0.57058 0.03119 0.661 0.0
H633 H 0.6268 0.97276 0.57049 0.0
H634 H 0.61756 0.96751 0.60571 0.0
H635 H 0.57525 0.06029 0.63413 0.0
H636 H 0.53186 0.03224 0.73163 0.0
H637 H 0.53065 0.03275 0.69577 0.0
H638 H 0.56502 0.93572 0.6644 0.0
C639 C 0.60171 0.98369 0.59752 0.0
C640 C 0.57252 0.03283 0.64055 0.0
C641 C 0.6072 0.98691 0.57738 0.0
C642 C 0.54811 0.01583 0.72349 0.0
C643 C 0.54745 0.01615 0.70295 0.0
C644 C 0.56744 0.96314 0.658 0.0
C645 C 0.5769 0.00204 0.60705 0.0
C646 C 0.57244 -0.00023 0.62863 0.0
C647 C 0.56794 0.99503 0.69182 0.0
C648 C 0.56835 0.99639 0.66999 0.0
H649 H 0.54728 0.04291 0.56749 0.0
H650 H 0.53771 0.0374 0.60283 0.0
H651 H 0.56882 0.93873 0.62875 0.0
H652 H 0.6061 0.95629 0.72951 0.0
H653 H 0.6053 0.95708 0.69367 0.0
C654 C 0.51807 0.52534 0.89742 0.0
C655 C 0.539 0.50512 0.8861 0.0
C656 C 0.52238 0.52815 0.91804 0.0
C657 C 0.58752 0.51652 0.95908 0.0
H658 H 0.49865 0.5057 0.99033 0.0
C659 C 0.58882 0.48656 0.04167 0.0
C660 C 0.57002 0.50695 0.05432 0.0
C661 C 0.58553 0.48847 0.02123 0.0
C662 C 0.5238 0.50919 0.98181 0.0
H663 H 0.58064 0.47182 0.88738 0.0
H664 H 0.58775 0.47613 0.92312 0.0
H665 H 0.49205 0.50568 0.95452 0.0
H666 H 0.53353 0.54596 0.05525 0.0
H667 H 0.52736 0.54876 0.01958 0.0
H668 H 0.61911 0.51925 0.98637 0.0
C669 C 0.56859 0.49057 0.91624 0.0
C670 C 0.52005 0.50928 0.96128 0.0
C671 C 0.56437 0.48792 0.89571 0.0
C672 C 0.54786 0.52932 0.04597 0.0
C673 C 0.54437 0.53102 0.02553 0.0
C674 C 0.59122 0.51618 0.97958 0.0
C675 C 0.54765 0.51068 0.9277 0.0
C676 C 0.55182 0.51262 0.94963 0.0
C677 C 0.56319 0.51064 0.01292 0.0
C678 C 0.55937 0.51223 0.99117 0.0
H679 H 0.4984 0.53899 0.89036 0.0
H680 H 0.50613 0.54424 0.92638 0.0
H681 H 0.61274 0.51992 0.95063 0.0
H682 H 0.60562 0.46856 0.04754 0.0
H683 H 0.59994 0.47199 0.0119 0.0
C684 C 0.09382 0.48668 0.21264 0.0
C685 C 0.08401 0.51878 0.20531 0.0
C686 C 0.09504 0.48213 0.23297 0.0
C687 C 0.11183 0.53733 0.27993 0.0
H688 H 1.05177 0.44643 0.30307 0.0
C689 C 0.08855 0.5362 0.36301 0.0
C690 C 0.08503 0.50188 0.37253 0.0
C691 C 0.09025 0.53644 0.34254 0.0
C692 C 0.06933 0.47173 0.29689 0.0
H693 H 0.06771 0.57117 0.21337 0.0
H694 H 0.0709 0.56373 0.24879 0.0
H695 H 1.05187 0.44942 0.26724 0.0
H696 H 0.08111 0.44097 0.36824 0.0
H697 H 0.0854 0.44144 0.33245 0.0
H698 H 0.13008 0.5596 0.30927 0.0
C699 C 0.07734 0.542 0.23885 0.0
C700 C 0.0692 0.47342 0.27637 0.0
C701 C 0.07539 0.54615 0.21859 0.0
C702 C 0.08356 0.46778 0.3612 0.0
C703 C 0.08584 0.46808 0.3407 0.0
C704 C 0.1125 0.53542 0.30038 0.0
C705 C 0.08727 0.51006 0.24623 0.0
C706 C 0.08987 0.50655 0.26777 0.0
C707 C 0.08908 0.50242 0.33107 0.0
C708 C 0.09063 0.50296 0.30919 0.0
H709 H 0.10073 0.46525 0.20271 0.0
H710 H 0.10285 0.4573 0.23836 0.0
H711 H 0.12841 0.56299 0.2736 0.0
H712 H 0.08915 0.56278 0.37139 0.0
H713 H 0.09176 0.56327 0.33571 0.0
loop_
_geom_bond_atom_site_label_1
_geom_bond_atom_site_label_2
_geom_bond_distance
_geom_bond_site_symmetry_2
_ccdc_geom_bond_type
Nd0 C2 2.836 . S
Nd0 O20 2.500 . S
Nd0 O21 2.492 . S
Nd0 O22 2.487 . S
Nd0 O23 2.682 . S
Nd0 O24 2.410 . S
Nd0 O29 2.414 . S
Nd0 O31 2.424 1_455 S
Nd1 C11 2.836 . S
Nd1 O23 2.414 1_655 S
Nd1 O25 2.424 1_655 S
Nd1 O26 2.500 . S
Nd1 O27 2.492 . S
Nd1 O28 2.487 1_655 S
Nd1 O29 2.682 1_655 S
Nd1 O30 2.410 . S
C2 Nd0 2.836 . S
C2 C3 1.498 . S
C2 O20 1.258 . S
C2 O21 1.239 . S
C3 C2 1.498 . S
C3 C4 1.366 . S
C3 C8 1.407 . S
C4 C3 1.366 . S
C4 C5 1.392 . S
C4 H32 0.930 . S
C5 C4 1.392 . S
C5 C6 1.398 . S
C5 H33 0.929 . S
C6 C5 1.398 . S
C6 C7 1.352 . S
C7 C6 1.352 . S
C7 C8 1.384 . S
C7 H34 0.930 . S
C8 C3 1.407 . S
C8 C7 1.384 . S
C8 H35 0.929 . S
C9 O22 1.241 . S
C9 O23 1.273 . S
C10 O24 1.251 . S
C10 O25 1.268 . S
C11 Nd1 2.836 . S
C11 C12 1.498 . S
C11 O26 1.258 . S
C11 O27 1.239 . S
C12 C11 1.498 . S
C12 C13 1.366 . S
C12 C17 1.407 . S
C13 C12 1.366 . S
C13 C14 1.392 . S
C13 H36 0.930 . S
C14 C13 1.392 . S
C14 C15 1.398 . S
C14 H37 0.929 . S
C15 C14 1.398 . S
C15 C16 1.352 . S
C16 C15 1.352 . S
C16 C17 1.384 . S
C16 H38 0.930 . S
C17 C12 1.407 . S
C17 C16 1.384 . S
C17 H39 0.929 . S
C18 O28 1.241 . S
C18 O29 1.273 . S
C19 O30 1.251 . S
C19 O31 1.268 . S
O20 Nd0 2.500 . S
O20 C2 1.258 . S
O21 Nd0 2.492 . S
O21 C2 1.239 . S
O22 Nd0 2.487 . S
O22 C9 1.241 . S
O23 Nd0 2.682 . S
O23 Nd1 2.414 1_455 S
O23 C9 1.273 . S
O24 Nd0 2.410 . S
O24 C10 1.251 . S
O25 Nd1 2.424 1_455 S
O25 C10 1.268 . S
O26 Nd1 2.500 . S
O26 C11 1.258 . S
O27 Nd1 2.492 . S
O27 C11 1.239 . S
O28 Nd1 2.487 1_455 S
O28 C18 1.241 . S
O29 Nd0 2.414 . S
O29 Nd1 2.682 1_455 S
O29 C18 1.273 . S
O30 Nd1 2.410 . S
O30 C19 1.251 . S
O31 Nd0 2.424 1_655 S
O31 C19 1.268 . S
H32 C4 0.930 . S
H33 C5 0.929 . S
H34 C7 0.930 . S
H35 C8 0.929 . S
H36 C13 0.930 . S
H37 C14 0.929 . S
H38 C16 0.930 . S
H39 C17 0.929 . S
Nd40 C42 2.817 1_545 S
Nd40 O60 2.481 1_545 S
Nd40 O61 2.476 1_545 S
Nd40 O62 2.487 . S
Nd40 O63 2.684 . S
Nd40 O64 2.383 1_545 S
Nd40 O69 2.410 . S
Nd40 O71 2.451 . S
Nd41 C51 2.836 . S
Nd41 O63 2.414 . S
Nd41 O65 2.424 1_545 S
Nd41 O66 2.500 . S
Nd41 O67 2.492 . S
Nd41 O68 2.487 . S
Nd41 O69 2.682 . S
Nd41 O70 2.410 . S
C42 Nd40 2.817 1_565 S
C42 C43 1.498 . S
C42 O60 1.258 . S
C42 O61 1.239 . S
C43 C42 1.498 . S
C43 C44 1.366 . S
C43 C48 1.407 . S
C44 C43 1.366 . S
C44 C45 1.392 . S
C44 H72 0.930 . S
C45 C44 1.392 . S
C45 C46 1.398 . S
C45 H73 0.929 . S
C46 C45 1.398 . S
C46 C47 1.352 . S
C47 C46 1.352 . S
C47 C48 1.384 . S
C47 H74 0.930 . S
C48 C43 1.407 . S
C48 C47 1.384 . S
C48 H75 0.929 . S
C49 O62 1.242 . S
C49 O63 1.273 . S
C50 O64 1.251 . S
C50 O65 1.268 . S
C51 Nd41 2.836 . S
C51 C52 1.498 . S
C51 O66 1.258 . S
C51 O67 1.239 . S
C52 C51 1.498 . S
C52 C53 1.366 . S
C52 C57 1.407 . S
C53 C52 1.366 . S
C53 C54 1.392 . S
C53 H76 0.930 . S
C54 C53 1.392 . S
C54 C55 1.398 . S
C54 H77 0.929 . S
C55 C54 1.398 . S
C55 C56 1.352 . S
C56 C55 1.352 . S
C56 C57 1.384 . S
C56 H78 0.930 . S
C57 C52 1.407 . S
C57 C56 1.384 . S
C57 H79 0.929 . S
C58 O68 1.241 . S
C58 O69 1.273 . S
C59 O70 1.251 . S
C59 O71 1.268 . S
O60 Nd40 2.481 1_565 S
O60 C42 1.258 . S
O61 Nd40 2.476 1_565 S
O61 C42 1.239 . S
O62 Nd40 2.487 . S
O62 C49 1.242 . S
O63 Nd40 2.684 . S
O63 Nd41 2.414 . S
O63 C49 1.273 . S
O64 Nd40 2.383 1_565 S
O64 C50 1.251 . S
O65 Nd41 2.424 1_565 S
O65 C50 1.268 . S
O66 Nd41 2.500 . S
O66 C51 1.258 . S
O67 Nd41 2.492 . S
O67 C51 1.239 . S
O68 Nd41 2.487 . S
O68 C58 1.241 . S
O69 Nd40 2.410 . S
O69 Nd41 2.682 . S
O69 C58 1.273 . S
O70 Nd41 2.410 . S
O70 C59 1.251 . S
O71 Nd40 2.451 . S
O71 C59 1.268 . S
H72 C44 0.930 . S
H73 C45 0.929 . S
H74 C47 0.930 . S
H75 C48 0.929 . S
H76 C53 0.930 . S
H77 C54 0.929 . S
H78 C56 0.930 . S
H79 C57 0.929 . S
Nd80 C82 2.836 . S
Nd80 O100 2.500 . S
Nd80 O101 2.492 . S
Nd80 O102 2.487 . S
Nd80 O103 2.682 . S
Nd80 O104 2.410 . S
Nd80 O109 2.414 . S
Nd80 O111 2.424 . S
Nd81 C91 2.836 . S
Nd81 O103 2.414 . S
Nd81 O105 2.424 . S
Nd81 O106 2.500 . S
Nd81 O107 2.492 . S
Nd81 O108 2.487 . S
Nd81 O109 2.682 . S
Nd81 O110 2.410 . S
C82 Nd80 2.836 . S
C82 C83 1.498 . S
C82 O100 1.258 . S
C82 O101 1.239 . S
C83 C82 1.498 . S
C83 C84 1.366 . S
C83 C88 1.407 . S
C84 C83 1.366 . S
C84 C85 1.392 . S
C84 H112 0.930 . S
C85 C84 1.392 . S
C85 C86 1.398 . S
C85 H113 0.929 . S
C86 C85 1.398 . S
C86 C87 1.352 . S
C87 C86 1.352 . S
C87 C88 1.384 . S
C87 H114 0.930 . S
C88 C83 1.407 . S
C88 C87 1.384 . S
C88 H115 0.929 . S
C89 O102 1.241 . S
C89 O103 1.273 . S
C90 O104 1.251 . S
C90 O105 1.268 . S
C91 Nd81 2.836 . S
C91 C92 1.498 . S
C91 O106 1.258 . S
C91 O107 1.239 . S
C92 C91 1.498 . S
C92 C93 1.366 . S
C92 C97 1.407 . S
C93 C92 1.366 . S
C93 C94 1.392 . S
C93 H116 0.930 . S
C94 C93 1.392 . S
C94 C95 1.398 . S
C94 H117 0.929 . S
C95 C94 1.398 . S
C95 C96 1.352 . S
C96 C95 1.352 . S
C96 C97 1.384 . S
C96 H118 0.930 . S
C97 C92 1.407 . S
C97 C96 1.384 . S
C97 H119 0.929 . S
C98 O108 1.241 . S
C98 O109 1.273 . S
C99 O110 1.251 . S
C99 O111 1.268 . S
O100 Nd80 2.500 . S
O100 C82 1.258 . S
O101 Nd80 2.492 . S
O101 C82 1.239 . S
O102 Nd80 2.487 . S
O102 C89 1.241 . S
O103 Nd80 2.682 . S
O103 Nd81 2.414 . S
O103 C89 1.273 . S
O104 Nd80 2.410 . S
O104 C90 1.251 . S
O105 Nd81 2.424 . S
O105 C90 1.268 . S
O106 Nd81 2.500 . S
O106 C91 1.258 . S
O107 Nd81 2.492 . S
O107 C91 1.239 . S
O108 Nd81 2.487 . S
O108 C98 1.241 . S
O109 Nd80 2.414 . S
O109 Nd81 2.682 . S
O109 C98 1.273 . S
O110 Nd81 2.410 . S
O110 C99 1.251 . S
O111 Nd80 2.424 . S
O111 C99 1.268 . S
H112 C84 0.930 . S
H113 C85 0.929 . S
H114 C87 0.930 . S
H115 C88 0.929 . S
H116 C93 0.930 . S
H117 C94 0.929 . S
H118 C96 0.930 . S
H119 C97 0.929 . S
H120 C123 0.924 1_565 S
H121 C126 0.928 . S
H122 C128 0.930 . S
C123 H120 0.924 1_545 S
C123 C124 1.413 1_545 S
C123 C125 1.367 . S
C124 C123 1.413 1_565 S
C124 C128 1.429 1_565 S
C125 C123 1.367 . S
C125 C126 1.372 . S
C126 H121 0.928 . S
C126 C125 1.372 . S
C126 C127 1.404 . S
C127 C126 1.404 . S
C127 C128 1.391 . S
C128 H122 0.930 . S
C128 C124 1.429 1_545 S
C128 C127 1.391 . S
H129 C132 0.931 . S
H130 C135 0.928 . S
H131 C137 0.930 . S
C132 H129 0.931 . S
C132 C133 1.413 . S
C132 C134 1.360 . S
C133 C132 1.413 . S
C133 C137 1.429 . S
C134 C132 1.360 . S
C134 C135 1.372 . S
C135 H130 0.928 . S
C135 C134 1.372 . S
C135 C136 1.404 . S
C136 C135 1.404 . S
C136 C137 1.391 . S
C137 H131 0.930 . S
C137 C133 1.429 . S
C137 C136 1.391 . S
H138 C141 0.931 1_655 S
H139 C144 0.928 . S
H140 C146 0.930 . S
C141 H138 0.931 1_455 S
C141 C142 1.413 . S
C141 C143 1.360 . S
C142 C141 1.413 . S
C142 C146 1.429 . S
C143 C141 1.360 . S
C143 C144 1.372 . S
C144 H139 0.928 . S
C144 C143 1.372 . S
C144 C145 1.404 . S
C145 C144 1.404 . S
C145 C146 1.391 . S
C146 H140 0.930 . S
C146 C142 1.429 . S
C146 C145 1.391 . S
H147 C150 0.931 . S
H148 C153 0.928 . S
H149 C155 0.930 . S
C150 H147 0.931 . S
C150 C151 1.413 . S
C150 C152 1.353 1_655 S
C151 C150 1.413 . S
C151 C155 1.416 1_655 S
C152 C150 1.353 1_455 S
C152 C153 1.378 . S
C153 H148 0.928 . S
C153 C152 1.378 . S
C153 C154 1.404 . S
C154 C153 1.404 . S
C154 C155 1.406 . S
C155 H149 0.930 . S
C155 C151 1.416 1_455 S
C155 C154 1.406 . S
H156 C159 0.931 . S
H157 C162 0.928 . S
H158 C164 0.930 . S
C159 H156 0.931 . S
C159 C160 1.413 . S
C159 C161 1.360 . S
C160 C159 1.413 . S
C160 C164 1.429 . S
C161 C159 1.360 . S
C161 C162 1.372 1_545 S
C162 H157 0.928 . S
C162 C161 1.372 1_565 S
C162 C163 1.404 . S
C163 C162 1.404 . S
C163 C164 1.391 1_565 S
C164 H158 0.930 . S
C164 C160 1.429 . S
C164 C163 1.391 1_545 S
H165 C168 0.931 . S
H166 C171 0.928 . S
H167 C173 0.930 . S
C168 H165 0.931 . S
C168 C169 1.413 . S
C168 C170 1.360 . S
C169 C168 1.413 . S
C169 C173 1.429 . S
C170 C168 1.360 . S
C170 C171 1.372 . S
C171 H166 0.928 . S
C171 C170 1.372 . S
C171 C172 1.404 . S
C172 C171 1.404 . S
C172 C173 1.391 . S
C173 H167 0.930 . S
C173 C169 1.429 . S
C173 C172 1.391 . S
C174 C175 1.349 . S
C174 C176 1.327 . S
C174 H199 0.950 . S
C175 C174 1.349 . S
C175 C191 1.349 . S
C176 C174 1.327 . S
C176 C195 1.429 . S
C176 H200 0.950 . S
C177 C194 1.574 . S
C177 C196 1.368 . S
C177 H201 0.949 . S
H178 C182 0.949 . S
C179 C180 1.349 . S
C179 C181 1.327 . S
C179 H202 0.950 . S
C180 C179 1.349 . S
C180 C192 1.349 . S
C181 C179 1.327 . S
C181 C197 1.429 . S
C181 H203 0.950 . S
C182 H178 0.949 . S
C182 C190 1.574 . S
C182 C198 1.368 . S
H183 C191 0.950 . S
H184 C189 0.950 . S
H185 C190 0.949 . S
H186 C192 0.950 . S
H187 C193 0.950 . S
H188 C194 0.949 . S
C189 H184 0.950 . S
C189 C191 1.327 . S
C189 C195 1.429 . S
C190 C182 1.574 . S
C190 H185 0.949 . S
C190 C196 1.368 . S
C191 C175 1.349 . S
C191 H183 0.950 . S
C191 C189 1.327 . S
C192 C180 1.349 . S
C192 H186 0.950 . S
C192 C193 1.327 . S
C193 H187 0.950 . S
C193 C192 1.327 . S
C193 C197 1.429 . S
C194 C177 1.574 . S
C194 H188 0.949 . S
C194 C198 1.368 . S
C195 C176 1.429 . S
C195 C189 1.429 . S
C195 C196 1.523 . S
C196 C177 1.368 . S
C196 C190 1.368 . S
C196 C195 1.523 . S
C197 C181 1.429 . S
C197 C193 1.429 . S
C197 C198 1.523 . S
C198 C182 1.368 . S
C198 C194 1.368 . S
C198 C197 1.523 . S
H199 C174 0.950 . S
H200 C176 0.950 . S
H201 C177 0.949 . S
H202 C179 0.950 . S
H203 C181 0.950 . S
C204 C205 1.349 . S
C204 C206 1.327 . S
C204 H229 0.950 . S
C205 C204 1.349 . S
C205 C221 1.349 . S
C206 C204 1.327 . S
C206 C225 1.429 . S
C206 H230 0.950 . S
C207 C224 1.574 . S
C207 C226 1.368 . S
C207 H231 0.949 . S
H208 C212 0.949 . S
C209 C210 1.349 . S
C209 C211 1.327 . S
C209 H232 0.950 . S
C210 C209 1.349 . S
C210 C222 1.349 . S
C211 C209 1.327 . S
C211 C227 1.429 . S
C211 H233 0.950 . S
C212 H208 0.949 . S
C212 C220 1.574 . S
C212 C228 1.368 . S
H213 C221 0.950 . S
H214 C219 0.950 . S
H215 C220 0.949 . S
H216 C222 0.950 . S
H217 C223 0.950 . S
H218 C224 0.949 . S
C219 H214 0.950 . S
C219 C221 1.327 . S
C219 C225 1.429 . S
C220 C212 1.574 . S
C220 H215 0.949 . S
C220 C226 1.368 . S
C221 C205 1.349 . S
C221 H213 0.950 . S
C221 C219 1.327 . S
C222 C210 1.349 . S
C222 H216 0.950 . S
C222 C223 1.327 . S
C223 H217 0.950 . S
C223 C222 1.327 . S
C223 C227 1.429 . S
C224 C207 1.574 . S
C224 H218 0.949 . S
C224 C228 1.368 . S
C225 C206 1.429 . S
C225 C219 1.429 . S
C225 C226 1.523 . S
C226 C207 1.368 . S
C226 C220 1.368 . S
C226 C225 1.523 . S
C227 C211 1.429 . S
C227 C223 1.429 . S
C227 C228 1.523 . S
C228 C212 1.368 . S
C228 C224 1.368 . S
C228 C227 1.523 . S
H229 C204 0.950 . S
H230 C206 0.950 . S
H231 C207 0.949 . S
H232 C209 0.950 . S
H233 C211 0.950 . S
C234 C235 1.349 . S
C234 C236 1.327 . S
C234 H259 0.950 . S
C235 C234 1.349 . S
C235 C251 1.349 . S
C236 C234 1.327 . S
C236 C255 1.429 . S
C236 H260 0.950 . S
C237 C254 1.574 . S
C237 C256 1.368 . S
C237 H261 0.949 . S
H238 C242 0.949 . S
C239 C240 1.349 . S
C239 C241 1.327 . S
C239 H262 0.950 . S
C240 C239 1.349 . S
C240 C252 1.349 . S
C241 C239 1.327 . S
C241 C257 1.429 . S
C241 H263 0.950 . S
C242 H238 0.949 . S
C242 C250 1.574 . S
C242 C258 1.368 . S
H243 C251 0.950 . S
H244 C249 0.950 . S
H245 C250 0.949 . S
H246 C252 0.950 . S
H247 C253 0.950 . S
H248 C254 0.949 . S
C249 H244 0.950 . S
C249 C251 1.327 . S
C249 C255 1.429 . S
C250 C242 1.574 . S
C250 H245 0.949 . S
C250 C256 1.368 . S
C251 C235 1.349 . S
C251 H243 0.950 . S
C251 C249 1.327 . S
C252 C240 1.349 . S
C252 H246 0.950 . S
C252 C253 1.327 . S
C253 H247 0.950 . S
C253 C252 1.327 . S
C253 C257 1.429 . S
C254 C237 1.574 . S
C254 H248 0.949 . S
C254 C258 1.368 . S
C255 C236 1.429 . S
C255 C249 1.429 . S
C255 C256 1.523 . S
C256 C237 1.368 . S
C256 C250 1.368 . S
C256 C255 1.523 . S
C257 C241 1.429 . S
C257 C253 1.429 . S
C257 C258 1.523 . S
C258 C242 1.368 . S
C258 C254 1.368 . S
C258 C257 1.523 . S
H259 C234 0.950 . S
H260 C236 0.950 . S
H261 C237 0.949 . S
H262 C239 0.950 . S
H263 C241 0.950 . S
C264 C265 1.349 . S
C264 C266 1.327 . S
C264 H289 0.950 . S
C265 C264 1.349 . S
C265 C281 1.349 . S
C266 C264 1.327 . S
C266 C285 1.429 . S
C266 H290 0.950 . S
C267 C284 1.574 . S
C267 C286 1.368 . S
C267 H291 0.949 . S
H268 C272 0.949 . S
C269 C270 1.349 . S
C269 C271 1.327 . S
C269 H292 0.950 . S
C270 C269 1.349 . S
C270 C282 1.349 . S
C271 C269 1.327 . S
C271 C287 1.429 . S
C271 H293 0.950 . S
C272 H268 0.949 . S
C272 C280 1.574 . S
C272 C288 1.368 . S
H273 C281 0.950 . S
H274 C279 0.950 . S
H275 C280 0.949 . S
H276 C282 0.950 . S
H277 C283 0.950 . S
H278 C284 0.949 . S
C279 H274 0.950 . S
C279 C281 1.327 . S
C279 C285 1.429 . S
C280 C272 1.574 . S
C280 H275 0.949 . S
C280 C286 1.368 . S
C281 C265 1.349 . S
C281 H273 0.950 . S
C281 C279 1.327 . S
C282 C270 1.349 . S
C282 H276 0.950 . S
C282 C283 1.327 . S
C283 H277 0.950 . S
C283 C282 1.327 . S
C283 C287 1.429 . S
C284 C267 1.574 . S
C284 H278 0.949 . S
C284 C288 1.368 . S
C285 C266 1.429 . S
C285 C279 1.429 . S
C285 C286 1.523 . S
C286 C267 1.368 . S
C286 C280 1.368 . S
C286 C285 1.523 . S
C287 C271 1.429 . S
C287 C283 1.429 . S
C287 C288 1.523 . S
C288 C272 1.368 . S
C288 C284 1.368 . S
C288 C287 1.523 . S
H289 C264 0.950 . S
H290 C266 0.950 . S
H291 C267 0.949 . S
H292 C269 0.950 . S
H293 C271 0.950 . S
C294 C295 1.349 . S
C294 C296 1.327 . S
C294 H319 0.950 . S
C295 C294 1.349 . S
C295 C311 1.349 . S
C296 C294 1.327 . S
C296 C315 1.429 . S
C296 H320 0.950 . S
C297 C314 1.574 . S
C297 C316 1.368 . S
C297 H321 0.949 . S
H298 C302 0.949 . S
C299 C300 1.349 . S
C299 C301 1.327 . S
C299 H322 0.950 . S
C300 C299 1.349 . S
C300 C312 1.349 . S
C301 C299 1.327 . S
C301 C317 1.429 . S
C301 H323 0.950 . S
C302 H298 0.949 . S
C302 C310 1.574 . S
C302 C318 1.368 . S
H303 C311 0.950 . S
H304 C309 0.950 . S
H305 C310 0.949 . S
H306 C312 0.950 . S
H307 C313 0.950 . S
H308 C314 0.949 . S
C309 H304 0.950 . S
C309 C311 1.327 . S
C309 C315 1.429 . S
C310 C302 1.574 . S
C310 H305 0.949 . S
C310 C316 1.368 . S
C311 C295 1.349 . S
C311 H303 0.950 . S
C311 C309 1.327 . S
C312 C300 1.349 . S
C312 H306 0.950 . S
C312 C313 1.327 . S
C313 H307 0.950 . S
C313 C312 1.327 . S
C313 C317 1.429 . S
C314 C297 1.574 . S
C314 H308 0.949 . S
C314 C318 1.368 . S
C315 C296 1.429 . S
C315 C309 1.429 . S
C315 C316 1.523 . S
C316 C297 1.368 . S
C316 C310 1.368 . S
C316 C315 1.523 . S
C317 C301 1.429 . S
C317 C313 1.429 . S
C317 C318 1.523 . S
C318 C302 1.368 . S
C318 C314 1.368 . S
C318 C317 1.523 . S
H319 C294 0.950 . S
H320 C296 0.950 . S
H321 C297 0.949 . S
H322 C299 0.950 . S
H323 C301 0.950 . S
C324 C325 1.349 . S
C324 C326 1.327 . S
C324 H349 0.950 . S
C325 C324 1.349 . S
C325 C341 1.349 . S
C326 C324 1.327 . S
C326 C345 1.429 . S
C326 H350 0.950 . S
C327 C344 1.574 . S
C327 C346 1.368 . S
C327 H351 0.949 . S
H328 C332 0.949 . S
C329 C330 1.349 . S
C329 C331 1.327 . S
C329 H352 0.950 . S
C330 C329 1.349 . S
C330 C342 1.349 . S
C331 C329 1.327 . S
C331 C347 1.429 . S
C331 H353 0.950 . S
C332 H328 0.949 . S
C332 C340 1.574 . S
C332 C348 1.368 . S
H333 C341 0.950 . S
H334 C339 0.950 . S
H335 C340 0.949 . S
H336 C342 0.950 . S
H337 C343 0.950 . S
H338 C344 0.949 . S
C339 H334 0.950 . S
C339 C341 1.327 . S
C339 C345 1.429 . S
C340 C332 1.574 . S
C340 H335 0.949 . S
C340 C346 1.368 . S
C341 C325 1.349 . S
C341 H333 0.950 . S
C341 C339 1.327 . S
C342 C330 1.349 . S
C342 H336 0.950 . S
C342 C343 1.327 . S
C343 H337 0.950 . S
C343 C342 1.327 . S
C343 C347 1.429 . S
C344 C327 1.574 . S
C344 H338 0.949 . S
C344 C348 1.368 . S
C345 C326 1.429 . S
C345 C339 1.429 . S
C345 C346 1.523 . S
C346 C327 1.368 . S
C346 C340 1.368 . S
C346 C345 1.523 . S
C347 C331 1.429 . S
C347 C343 1.429 . S
C347 C348 1.523 . S
C348 C332 1.368 . S
C348 C344 1.368 . S
C348 C347 1.523 . S
H349 C324 0.950 . S
H350 C326 0.950 . S
H351 C327 0.949 . S
H352 C329 0.950 . S
H353 C331 0.950 . S
C354 C355 1.349 . S
C354 C356 1.327 . S
C354 H379 0.950 . S
C355 C354 1.349 . S
C355 C371 1.349 . S
C356 C354 1.327 . S
C356 C375 1.429 . S
C356 H380 0.950 . S
C357 C374 1.574 . S
C357 C376 1.368 . S
C357 H381 0.949 . S
H358 C362 0.949 . S
C359 C360 1.349 . S
C359 C361 1.327 . S
C359 H382 0.950 . S
C360 C359 1.349 . S
C360 C372 1.349 . S
C361 C359 1.327 . S
C361 C377 1.429 . S
C361 H383 0.950 . S
C362 H358 0.949 . S
C362 C370 1.574 . S
C362 C378 1.368 . S
H363 C371 0.950 . S
H364 C369 0.950 . S
H365 C370 0.949 . S
H366 C372 0.950 . S
H367 C373 0.950 . S
H368 C374 0.949 . S
C369 H364 0.950 . S
C369 C371 1.327 . S
C369 C375 1.429 . S
C370 C362 1.574 . S
C370 H365 0.949 . S
C370 C376 1.368 . S
C371 C355 1.349 . S
C371 H363 0.950 . S
C371 C369 1.327 . S
C372 C360 1.349 . S
C372 H366 0.950 . S
C372 C373 1.327 . S
C373 H367 0.950 . S
C373 C372 1.327 . S
C373 C377 1.429 . S
C374 C357 1.574 . S
C374 H368 0.949 . S
C374 C378 1.368 . S
C375 C356 1.429 . S
C375 C369 1.429 . S
C375 C376 1.523 . S
C376 C357 1.368 . S
C376 C370 1.368 . S
C376 C375 1.523 . S
C377 C361 1.429 . S
C377 C373 1.429 . S
C377 C378 1.523 . S
C378 C362 1.368 . S
C378 C374 1.368 . S
C378 C377 1.523 . S
H379 C354 0.950 . S
H380 C356 0.950 . S
H381 C357 0.949 . S
H382 C359 0.950 . S
H383 C361 0.950 . S
C384 C385 1.349 . S
C384 C386 1.327 . S
C384 H409 0.950 . S
C385 C384 1.349 . S
C385 C401 1.349 . S
C386 C384 1.327 . S
C386 C405 1.429 . S
C386 H410 0.950 . S
C387 C404 1.574 . S
C387 C406 1.368 . S
C387 H411 0.949 . S
H388 C392 0.949 . S
C389 C390 1.349 . S
C389 C391 1.327 . S
C389 H412 0.950 1_655 S
C390 C389 1.349 . S
C390 C402 1.349 . S
C391 C389 1.327 . S
C391 C407 1.429 . S
C391 H413 0.950 . S
C392 H388 0.949 . S
C392 C400 1.574 . S
C392 C408 1.368 . S
H393 C401 0.950 . S
H394 C399 0.950 . S
H395 C400 0.949 . S
H396 C402 0.950 . S
H397 C403 0.950 . S
H398 C404 0.949 . S
C399 H394 0.950 . S
C399 C401 1.327 . S
C399 C405 1.429 . S
C400 C392 1.574 . S
C400 H395 0.949 . S
C400 C406 1.368 . S
C401 C385 1.349 . S
C401 H393 0.950 . S
C401 C399 1.327 . S
C402 C390 1.349 . S
C402 H396 0.950 . S
C402 C403 1.327 . S
C403 H397 0.950 . S
C403 C402 1.327 . S
C403 C407 1.429 . S
C404 C387 1.574 . S
C404 H398 0.949 . S
C404 C408 1.368 . S
C405 C386 1.429 . S
C405 C399 1.429 . S
C405 C406 1.523 . S
C406 C387 1.368 . S
C406 C400 1.368 . S
C406 C405 1.523 . S
C407 C391 1.429 . S
C407 C403 1.429 . S
C407 C408 1.523 . S
C408 C392 1.368 . S
C408 C404 1.368 . S
C408 C407 1.523 . S
H409 C384 0.950 . S
H410 C386 0.950 . S
H411 C387 0.949 . S
H412 C389 0.950 1_455 S
H413 C391 0.950 . S
C414 C415 1.349 . S
C414 C416 1.327 . S
C414 H439 0.950 . S
C415 C414 1.349 . S
C415 C431 1.349 . S
C416 C414 1.327 . S
C416 C435 1.429 . S
C416 H440 0.950 . S
C417 C434 1.574 . S
C417 C436 1.368 . S
C417 H441 0.949 . S
H418 C422 0.949 . S
C419 C420 1.349 . S
C419 C421 1.327 . S
C419 H442 0.950 . S
C420 C419 1.349 . S
C420 C432 1.349 . S
C421 C419 1.327 . S
C421 C437 1.429 . S
C421 H443 0.950 . S
C422 H418 0.949 . S
C422 C430 1.574 . S
C422 C438 1.368 . S
H423 C431 0.950 . S
H424 C429 0.950 . S
H425 C430 0.949 . S
H426 C432 0.950 . S
H427 C433 0.950 . S
H428 C434 0.949 . S
C429 H424 0.950 . S
C429 C431 1.327 . S
C429 C435 1.429 . S
C430 C422 1.574 . S
C430 H425 0.949 . S
C430 C436 1.368 . S
C431 C415 1.349 . S
C431 H423 0.950 . S
C431 C429 1.327 . S
C432 C420 1.349 . S
C432 H426 0.950 . S
C432 C433 1.327 . S
C433 H427 0.950 . S
C433 C432 1.327 . S
C433 C437 1.429 . S
C434 C417 1.574 . S
C434 H428 0.949 . S
C434 C438 1.368 . S
C435 C416 1.429 . S
C435 C429 1.429 . S
C435 C436 1.523 . S
C436 C417 1.368 . S
C436 C430 1.368 . S
C436 C435 1.523 . S
C437 C421 1.429 . S
C437 C433 1.429 . S
C437 C438 1.523 . S
C438 C422 1.368 . S
C438 C434 1.368 . S
C438 C437 1.523 . S
H439 C414 0.950 . S
H440 C416 0.950 . S
H441 C417 0.949 . S
H442 C419 0.950 . S
H443 C421 0.950 . S
C444 C445 1.349 . S
C444 C446 1.327 . S
C444 H469 0.950 . S
C445 C444 1.349 . S
C445 C461 1.349 . S
C446 C444 1.327 . S
C446 C465 1.429 . S
C446 H470 0.950 . S
C447 C464 1.574 . S
C447 C466 1.368 . S
C447 H471 0.949 . S
H448 C452 0.949 . S
C449 C450 1.349 . S
C449 C451 1.327 . S
C449 H472 0.950 . S
C450 C449 1.349 . S
C450 C462 1.349 . S
C451 C449 1.327 . S
C451 C467 1.429 . S
C451 H473 0.950 . S
C452 H448 0.949 . S
C452 C460 1.574 . S
C452 C468 1.368 . S
H453 C461 0.950 . S
H454 C459 0.950 . S
H455 C460 0.949 . S
H456 C462 0.950 . S
H457 C463 0.950 . S
H458 C464 0.949 . S
C459 H454 0.950 . S
C459 C461 1.327 . S
C459 C465 1.429 . S
C460 C452 1.574 . S
C460 H455 0.949 . S
C460 C466 1.368 . S
C461 C445 1.349 . S
C461 H453 0.950 . S
C461 C459 1.327 . S
C462 C450 1.349 . S
C462 H456 0.950 . S
C462 C463 1.327 . S
C463 H457 0.950 . S
C463 C462 1.327 . S
C463 C467 1.429 . S
C464 C447 1.574 . S
C464 H458 0.949 . S
C464 C468 1.368 . S
C465 C446 1.429 . S
C465 C459 1.429 . S
C465 C466 1.523 . S
C466 C447 1.368 . S
C466 C460 1.368 . S
C466 C465 1.523 . S
C467 C451 1.429 . S
C467 C463 1.429 . S
C467 C468 1.523 . S
C468 C452 1.368 . S
C468 C464 1.368 . S
C468 C467 1.523 . S
H469 C444 0.950 . S
H470 C446 0.950 . S
H471 C447 0.949 . S
H472 C449 0.950 . S
H473 C451 0.950 . S
C474 C475 1.349 . S
C474 C476 1.327 . S
C474 H499 0.950 . S
C475 C474 1.349 . S
C475 C491 1.349 . S
C476 C474 1.327 . S
C476 C495 1.429 . S
C476 H500 0.950 . S
C477 C494 1.574 . S
C477 C496 1.368 . S
C477 H501 0.949 . S
H478 C482 0.949 . S
C479 C480 1.349 . S
C479 C481 1.327 . S
C479 H502 0.950 . S
C480 C479 1.349 . S
C480 C492 1.349 . S
C481 C479 1.327 . S
C481 C497 1.429 . S
C481 H503 0.950 . S
C482 H478 0.949 . S
C482 C490 1.574 . S
C482 C498 1.368 . S
H483 C491 0.950 . S
H484 C489 0.950 . S
H485 C490 0.949 . S
H486 C492 0.950 . S
H487 C493 0.950 . S
H488 C494 0.949 . S
C489 H484 0.950 . S
C489 C491 1.327 . S
C489 C495 1.429 . S
C490 C482 1.574 . S
C490 H485 0.949 . S
C490 C496 1.368 . S
C491 C475 1.349 . S
C491 H483 0.950 . S
C491 C489 1.327 . S
C492 C480 1.349 . S
C492 H486 0.950 . S
C492 C493 1.327 . S
C493 H487 0.950 . S
C493 C492 1.327 . S
C493 C497 1.429 . S
C494 C477 1.574 . S
C494 H488 0.949 . S
C494 C498 1.368 . S
C495 C476 1.429 . S
C495 C489 1.429 . S
C495 C496 1.523 . S
C496 C477 1.368 . S
C496 C490 1.368 . S
C496 C495 1.523 . S
C497 C481 1.429 . S
C497 C493 1.429 . S
C497 C498 1.523 . S
C498 C482 1.368 . S
C498 C494 1.368 . S
C498 C497 1.523 . S
H499 C474 0.950 . S
H500 C476 0.950 . S
H501 C477 0.949 . S
H502 C479 0.950 . S
H503 C481 0.950 . S
C504 C505 1.349 . S
C504 C506 1.327 . S
C504 H529 0.950 . S
C505 C504 1.349 . S
C505 C521 1.349 . S
C506 C504 1.327 . S
C506 C525 1.429 . S
C506 H530 0.950 . S
C507 C524 1.574 . S
C507 C526 1.368 . S
C507 H531 0.949 . S
H508 C512 0.949 . S
C509 C510 1.349 . S
C509 C511 1.327 . S
C509 H532 0.950 . S
C510 C509 1.349 . S
C510 C522 1.349 . S
C511 C509 1.327 . S
C511 C527 1.429 . S
C511 H533 0.950 . S
C512 H508 0.949 . S
C512 C520 1.574 . S
C512 C528 1.368 . S
H513 C521 0.950 . S
H514 C519 0.950 . S
H515 C520 0.949 . S
H516 C522 0.950 . S
H517 C523 0.950 . S
H518 C524 0.949 . S
C519 H514 0.950 . S
C519 C521 1.327 . S
C519 C525 1.429 . S
C520 C512 1.574 . S
C520 H515 0.949 . S
C520 C526 1.368 . S
C521 C505 1.349 . S
C521 H513 0.950 . S
C521 C519 1.327 . S
C522 C510 1.349 . S
C522 H516 0.950 . S
C522 C523 1.327 . S
C523 H517 0.950 . S
C523 C522 1.327 . S
C523 C527 1.429 . S
C524 C507 1.574 . S
C524 H518 0.949 . S
C524 C528 1.368 . S
C525 C506 1.429 . S
C525 C519 1.429 . S
C525 C526 1.523 . S
C526 C507 1.368 . S
C526 C520 1.368 . S
C526 C525 1.523 . S
C527 C511 1.429 . S
C527 C523 1.429 . S
C527 C528 1.523 . S
C528 C512 1.368 . S
C528 C524 1.368 . S
C528 C527 1.523 . S
H529 C504 0.950 . S
H530 C506 0.950 . S
H531 C507 0.949 . S
H532 C509 0.950 . S
H533 C511 0.950 . S
C534 C535 1.349 1_655 S
C534 C536 1.327 . S
C534 H559 0.950 . S
C535 C534 1.349 1_455 S
C535 C551 1.349 . S
C536 C534 1.327 . S
C536 C555 1.413 1_655 S
C536 H560 0.967 . S
C537 C554 1.574 . S
C537 C556 1.368 . S
C537 H561 0.949 . S
H538 C542 0.933 1_655 S
C539 C540 1.349 . S
C539 C541 1.327 . S
C539 H562 0.950 . S
C540 C539 1.349 . S
C540 C552 1.349 . S
C541 C539 1.327 . S
C541 C557 1.429 . S
C541 H563 0.950 . S
C542 H538 0.933 1_455 S
C542 C550 1.575 1_455 S
C542 C558 1.386 . S
H543 C551 0.950 . S
H544 C549 0.950 . S
H545 C550 0.953 . S
H546 C552 0.950 1_655 S
H547 C553 0.950 1_655 S
H548 C554 0.949 . S
C549 H544 0.950 . S
C549 C551 1.327 . S
C549 C555 1.429 . S
C550 C542 1.575 1_655 S
C550 H545 0.953 . S
C550 C556 1.363 1_655 S
C551 C535 1.349 . S
C551 H543 0.950 . S
C551 C549 1.327 . S
C552 C540 1.349 . S
C552 H546 0.950 1_455 S
C552 C553 1.327 . S
C553 H547 0.950 1_455 S
C553 C552 1.327 . S
C553 C557 1.429 . S
C554 C537 1.574 . S
C554 H548 0.949 . S
C554 C558 1.368 . S
C555 C536 1.413 1_455 S
C555 C549 1.429 . S
C555 C556 1.523 . S
C556 C537 1.368 . S
C556 C550 1.363 1_455 S
C556 C555 1.523 . S
C557 C541 1.429 . S
C557 C553 1.429 . S
C557 C558 1.523 1_556 S
C558 C542 1.386 . S
C558 C554 1.368 . S
C558 C557 1.523 1_554 S
H559 C534 0.950 . S
H560 C536 0.967 . S
H561 C537 0.949 . S
H562 C539 0.950 . S
H563 C541 0.950 . S
C564 C565 1.349 . S
C564 C566 1.327 . S
C564 H589 0.950 . S
C565 C564 1.349 . S
C565 C581 1.349 1_545 S
C566 C564 1.327 . S
C566 C585 1.429 . S
C566 H590 0.950 . S
C567 C584 1.574 . S
C567 C586 1.368 1_565 S
C567 H591 0.949 . S
H568 C572 0.949 . S
C569 C570 1.349 . S
C569 C571 1.327 . S
C569 H592 0.950 1_545 S
C570 C569 1.349 . S
C570 C582 1.349 . S
C571 C569 1.327 . S
C571 C587 1.429 . S
C571 H593 0.950 1_545 S
C572 H568 0.949 . S
C572 C580 1.574 . S
C572 C588 1.368 . S
H573 C581 0.950 . S
H574 C579 0.950 . S
H575 C580 0.949 . S
H576 C582 0.950 . S
H577 C583 0.950 . S
H578 C584 0.949 . S
C579 H574 0.950 . S
C579 C581 1.327 . S
C579 C585 1.429 1_565 S
C580 C572 1.574 . S
C580 H575 0.949 . S
C580 C586 1.368 . S
C581 C565 1.349 1_565 S
C581 H573 0.950 . S
C581 C579 1.327 . S
C582 C570 1.349 . S
C582 H576 0.950 . S
C582 C583 1.327 . S
C583 H577 0.950 . S
C583 C582 1.327 . S
C583 C587 1.429 . S
C584 C567 1.574 . S
C584 H578 0.949 . S
C584 C588 1.368 1_565 S
C585 C566 1.429 . S
C585 C579 1.429 1_545 S
C585 C586 1.523 . S
C586 C567 1.368 1_545 S
C586 C580 1.368 . S
C586 C585 1.523 . S
C587 C571 1.429 . S
C587 C583 1.429 . S
C587 C588 1.523 . S
C588 C572 1.368 . S
C588 C584 1.368 1_545 S
C588 C587 1.523 . S
H589 C564 0.950 . S
H590 C566 0.950 . S
H591 C567 0.949 . S
H592 C569 0.950 1_565 S
H593 C571 0.950 1_565 S
C594 C595 1.349 . S
C594 C596 1.327 . S
C594 H619 0.950 . S
C595 C594 1.349 . S
C595 C611 1.349 . S
C596 C594 1.327 . S
C596 C615 1.429 . S
C596 H620 0.950 . S
C597 C614 1.574 . S
C597 C616 1.368 . S
C597 H621 0.949 . S
H598 C602 0.949 . S
C599 C600 1.349 . S
C599 C601 1.327 . S
C599 H622 0.950 . S
C600 C599 1.349 . S
C600 C612 1.349 . S
C601 C599 1.327 . S
C601 C617 1.429 . S
C601 H623 0.950 . S
C602 H598 0.949 . S
C602 C610 1.574 . S
C602 C618 1.368 . S
H603 C611 0.950 . S
H604 C609 0.950 . S
H605 C610 0.949 . S
H606 C612 0.950 . S
H607 C613 0.950 . S
H608 C614 0.949 . S
C609 H604 0.950 . S
C609 C611 1.327 . S
C609 C615 1.429 . S
C610 C602 1.574 . S
C610 H605 0.949 . S
C610 C616 1.368 . S
C611 C595 1.349 . S
C611 H603 0.950 . S
C611 C609 1.327 . S
C612 C600 1.349 . S
C612 H606 0.950 . S
C612 C613 1.327 . S
C613 H607 0.950 . S
C613 C612 1.327 . S
C613 C617 1.429 . S
C614 C597 1.574 . S
C614 H608 0.949 . S
C614 C618 1.368 . S
C615 C596 1.429 . S
C615 C609 1.429 . S
C615 C616 1.523 . S
C616 C597 1.368 . S
C616 C610 1.368 . S
C616 C615 1.523 . S
C617 C601 1.429 . S
C617 C613 1.429 . S
C617 C618 1.523 . S
C618 C602 1.368 . S
C618 C614 1.368 . S
C618 C617 1.523 . S
H619 C594 0.950 . S
H620 C596 0.950 . S
H621 C597 0.949 . S
H622 C599 0.950 . S
H623 C601 0.950 . S
C624 C625 1.349 . S
C624 C626 1.327 . S
C624 H649 0.950 . S
C625 C624 1.349 . S
C625 C641 1.349 1_545 S
C626 C624 1.327 . S
C626 C645 1.429 . S
C626 H650 0.950 . S
C627 C644 1.574 . S
C627 C646 1.368 1_565 S
C627 H651 0.949 . S
H628 C632 0.949 . S
C629 C630 1.349 1_565 S
C629 C631 1.327 . S
C629 H652 0.950 . S
C630 C629 1.349 1_545 S
C630 C642 1.349 . S
C631 C629 1.327 . S
C631 C647 1.429 1_565 S
C631 H653 0.950 . S
C632 H628 0.949 . S
C632 C640 1.574 . S
C632 C648 1.368 . S
H633 C641 0.950 . S
H634 C639 0.950 . S
H635 C640 0.949 . S
H636 C642 0.950 . S
H637 C643 0.950 . S
H638 C644 0.949 . S
C639 H634 0.950 . S
C639 C641 1.327 . S
C639 C645 1.429 1_565 S
C640 C632 1.574 . S
C640 H635 0.949 . S
C640 C646 1.368 . S
C641 C625 1.349 1_565 S
C641 H633 0.950 . S
C641 C639 1.327 . S
C642 C630 1.349 . S
C642 H636 0.950 . S
C642 C643 1.327 . S
C643 H637 0.950 . S
C643 C642 1.327 . S
C643 C647 1.429 . S
C644 C627 1.574 . S
C644 H638 0.949 . S
C644 C648 1.368 1_565 S
C645 C626 1.429 . S
C645 C639 1.429 1_545 S
C645 C646 1.523 . S
C646 C627 1.368 1_545 S
C646 C640 1.368 . S
C646 C645 1.523 . S
C647 C631 1.429 1_545 S
C647 C643 1.429 . S
C647 C648 1.523 . S
C648 C632 1.368 . S
C648 C644 1.368 1_545 S
C648 C647 1.523 . S
H649 C624 0.950 . S
H650 C626 0.950 . S
H651 C627 0.949 . S
H652 C629 0.950 . S
H653 C631 0.950 . S
C654 C655 1.349 . S
C654 C656 1.327 . S
C654 H679 0.950 . S
C655 C654 1.349 . S
C655 C671 1.349 . S
C656 C654 1.327 . S
C656 C675 1.429 . S
C656 H680 0.950 . S
C657 C674 1.574 . S
C657 C676 1.368 . S
C657 H681 0.949 . S
H658 C662 0.949 . S
C659 C660 1.349 . S
C659 C661 1.327 . S
C659 H682 0.950 . S
C660 C659 1.349 . S
C660 C672 1.349 . S
C661 C659 1.327 . S
C661 C677 1.429 . S
C661 H683 0.950 . S
C662 H658 0.949 . S
C662 C670 1.574 . S
C662 C678 1.368 . S
H663 C671 0.950 . S
H664 C669 0.950 . S
H665 C670 0.949 . S
H666 C672 0.950 . S
H667 C673 0.950 . S
H668 C674 0.949 . S
C669 H664 0.950 . S
C669 C671 1.327 . S
C669 C675 1.429 . S
C670 C662 1.574 . S
C670 H665 0.949 . S
C670 C676 1.368 . S
C671 C655 1.349 . S
C671 H663 0.950 . S
C671 C669 1.327 . S
C672 C660 1.349 . S
C672 H666 0.950 . S
C672 C673 1.327 . S
C673 H667 0.950 . S
C673 C672 1.327 . S
C673 C677 1.429 . S
C674 C657 1.574 . S
C674 H668 0.949 . S
C674 C678 1.368 . S
C675 C656 1.429 . S
C675 C669 1.429 . S
C675 C676 1.523 . S
C676 C657 1.368 . S
C676 C670 1.368 . S
C676 C675 1.523 . S
C677 C661 1.429 . S
C677 C673 1.429 . S
C677 C678 1.523 1_554 S
C678 C662 1.368 . S
C678 C674 1.368 . S
C678 C677 1.523 1_556 S
H679 C654 0.950 . S
H680 C656 0.950 . S
H681 C657 0.949 . S
H682 C659 0.950 . S
H683 C661 0.950 . S
C684 C685 1.349 . S
C684 C686 1.327 . S
C684 H709 0.950 . S
C685 C684 1.349 . S
C685 C701 1.349 . S
C686 C684 1.327 . S
C686 C705 1.429 . S
C686 H710 0.950 . S
C687 C704 1.574 . S
C687 C706 1.368 . S
C687 H711 0.949 . S
H688 C692 0.949 . S
C689 C690 1.351 . S
C689 C691 1.329 . S
C689 H712 0.941 1_455 S
C690 C689 1.351 . S
C690 C702 1.355 . S
C691 C689 1.329 . S
C691 C707 1.429 . S
C691 H713 0.950 . S
C692 H688 0.949 . S
C692 C700 1.574 . S
C692 C708 1.368 . S
H693 C701 0.950 . S
H694 C699 0.950 . S
H695 C700 0.949 . S
H696 C702 0.950 . S
H697 C703 0.950 . S
H698 C704 0.949 . S
C699 H694 0.950 . S
C699 C701 1.327 . S
C699 C705 1.429 . S
C700 C692 1.574 . S
C700 H695 0.949 . S
C700 C706 1.368 . S
C701 C685 1.349 . S
C701 H693 0.950 . S
C701 C699 1.327 . S
C702 C690 1.355 . S
C702 H696 0.950 . S
C702 C703 1.327 . S
C703 H697 0.950 . S
C703 C702 1.327 . S
C703 C707 1.429 . S
C704 C687 1.574 . S
C704 H698 0.949 . S
C704 C708 1.368 . S
C705 C686 1.429 . S
C705 C699 1.429 . S
C705 C706 1.523 . S
C706 C687 1.368 . S
C706 C700 1.368 . S
C706 C705 1.523 . S
C707 C691 1.429 . S
C707 C703 1.429 . S
C707 C708 1.523 . S
C708 C692 1.368 . S
C708 C704 1.368 . S
C708 C707 1.523 . S
H709 C684 0.950 . S
H710 C686 0.950 . S
H711 C687 0.949 . S
H712 C689 0.941 1_655 S
H713 C691 0.950 . S
C175 C10 2.955 . S
C180 C169 2.925 . S
C205 C55 1.183 . S
C210 C151 1.203 . S
C235 C90 1.748 . S
C240 C163 1.734 . S
C265 C19 2.810 . S
C270 C172 2.822 . S
C300 C154 1.263 . S
C295 C46 1.235 . S
C330 C160 1.860 . S
C325 C99 1.843 . S
C355 C50 1.769 . S
C360 C133 1.753 . S
C385 C95 0.520 . S
C390 C142 0.471 1_655 S
C415 C6 1.274 . S
C420 C124 1.295 . S
C450 C136 1.801 . S
C445 C59 1.802 . S
C480 C145 0.295 . S
C475 C86 0.443 . S
C505 C15 1.209 . S
C510 C127 1.226 . S
C540 C143 1.103 . S
C535 C18 1.082 . S
C565 C49 1.443 . S
C570 C125 1.490 . S
C595 C98 1.330 . S
C600 C134 1.370 . S
C630 C161 1.378 . S
C625 C58 1.330 . S
C660 C170 1.776 . S
C655 C89 1.705 . S
C685 C9 1.451 . S
C690 C152 1.510 . S
