# Generated by pormake.
# Topology pyr, (3,6)-cn, num edge types: 1
# Building blocks:
#     Node 0, Type 0, BuildingBlock: BETDIP_clean_linker_0, # of connection points: 3
#     Node 1, Type 0, BuildingBlock: BETDIP_clean_linker_0, # of connection points: 3
#     Node 2, Type 0, BuildingBlock: BETDIP_clean_linker_0, # of connection points: 3
#     Node 3, Type 0, BuildingBlock: BETDIP_clean_linker_0, # of connection points: 3
#     Node 4, Type 0, BuildingBlock: BETDIP_clean_linker_0, # of connection points: 3
#     Node 5, Type 0, BuildingBlock: BETDIP_clean_linker_0, # of connection points: 3
#     Node 6, Type 0, BuildingBlock: BETDIP_clean_linker_0, # of connection points: 3
#     Node 7, Type 0, BuildingBlock: BETDIP_clean_linker_0, # of connection points: 3
#     Node 8, Type 1, BuildingBlock: BETDEL_clean_sbu_0, # of connection points: 6
#     Node 9, Type 1, BuildingBlock: BETDEL_clean_sbu_0, # of connection points: 6
#     Node 10, Type 1, BuildingBlock: BETDEL_clean_sbu_0, # of connection points: 6
#     Node 11, Type 1, BuildingBlock: BETDEL_clean_sbu_0, # of connection points: 6
#     Edge 12, Type (0, 1), BuildingBlock: EYOCIG_clean_linker_4, # of connection points: 2
#     Edge 13, Type (0, 1), BuildingBlock: EYOCIG_clean_linker_4, # of connection points: 2
#     Edge 14, Type (0, 1), BuildingBlock: EYOCIG_clean_linker_4, # of connection points: 2
#     Edge 15, Type (0, 1), BuildingBlock: EYOCIG_clean_linker_4, # of connection points: 2
#     Edge 16, Type (0, 1), BuildingBlock: EYOCIG_clean_linker_4, # of connection points: 2
#     Edge 17, Type (0, 1), BuildingBlock: EYOCIG_clean_linker_4, # of connection points: 2
#     Edge 18, Type (0, 1), BuildingBlock: EYOCIG_clean_linker_4, # of connection points: 2
#     Edge 19, Type (0, 1), BuildingBlock: EYOCIG_clean_linker_4, # of connection points: 2
#     Edge 20, Type (0, 1), BuildingBlock: EYOCIG_clean_linker_4, # of connection points: 2
#     Edge 21, Type (0, 1), BuildingBlock: EYOCIG_clean_linker_4, # of connection points: 2
#     Edge 22, Type (0, 1), BuildingBlock: EYOCIG_clean_linker_4, # of connection points: 2
#     Edge 23, Type (0, 1), BuildingBlock: EYOCIG_clean_linker_4, # of connection points: 2
#     Edge 24, Type (0, 1), BuildingBlock: EYOCIG_clean_linker_4, # of connection points: 2
#     Edge 25, Type (0, 1), BuildingBlock: EYOCIG_clean_linker_4, # of connection points: 2
#     Edge 26, Type (0, 1), BuildingBlock: EYOCIG_clean_linker_4, # of connection points: 2
#     Edge 27, Type (0, 1), BuildingBlock: EYOCIG_clean_linker_4, # of connection points: 2
#     Edge 28, Type (0, 1), BuildingBlock: EYOCIG_clean_linker_4, # of connection points: 2
#     Edge 29, Type (0, 1), BuildingBlock: EYOCIG_clean_linker_4, # of connection points: 2
#     Edge 30, Type (0, 1), BuildingBlock: EYOCIG_clean_linker_4, # of connection points: 2
#     Edge 31, Type (0, 1), BuildingBlock: EYOCIG_clean_linker_4, # of connection points: 2
#     Edge 32, Type (0, 1), BuildingBlock: EYOCIG_clean_linker_4, # of connection points: 2
#     Edge 33, Type (0, 1), BuildingBlock: EYOCIG_clean_linker_4, # of connection points: 2
#     Edge 34, Type (0, 1), BuildingBlock: EYOCIG_clean_linker_4, # of connection points: 2
#     Edge 35, Type (0, 1), BuildingBlock: EYOCIG_clean_linker_4, # of connection points: 2
# Relax obj value: 0.068
# Max RMSD: 0.176
# Mean RMSD: 0.128
data_MOF--net-pyr--node1-BETDEL_clean_sbu_0--node2-BETDIP_clean_linker_0--edge1-EYOCIG_clean_linker_4
_symmetry_space_group_name_H-M    P1
_symmetry_Int_Tables_number       1
_symmetry_cell_setting            triclinic
loop_
_symmetry_equiv_pos_as_xyz
'x, y, z'
_cell_length_a     29.182417
_cell_length_b     28.423327
_cell_length_c     28.656808
_cell_angle_alpha  92.590481
_cell_angle_beta   85.298128
_cell_angle_gamma 101.40305
loop_
_atom_site_label
_atom_site_type_symbol
_atom_site_fract_x
_atom_site_fract_y
_atom_site_fract_z
_atom_type_partial_charge
H0 H 0.20983 0.27813 0.27239 0.0
H1 H 0.30338 0.27929 0.14825 0.0
H2 H 0.29507 0.17096 0.2507 0.0
H3 H 0.28053 0.35078 0.13475 0.0
C4 C 0.24685 0.34886 0.15431 0.0
C5 C 0.23787 0.26431 0.25246 0.0
C6 C 0.25112 0.2231 0.26674 0.0
C7 C 0.25646 0.28525 0.21029 0.0
C8 C 0.29039 0.26507 0.18223 0.0
C9 C 0.30507 0.22394 0.19705 0.0
C10 C 0.28591 0.20385 0.24005 0.0
N11 N 0.23481 0.32201 0.19536 0.0
H12 H 0.31111 0.942 0.69756 0.0
H13 H 0.30963 0.84477 0.57768 0.0
H14 H 0.41031 0.84813 0.6794 0.0
H15 H 0.26298 0.88777 0.54973 0.0
C16 C 0.24606 0.9033 0.58003 0.0
C17 C 0.32628 0.91529 0.67674 0.0
C18 C 0.36341 0.89778 0.69271 0.0
C19 C 0.30711 0.89728 0.63499 0.0
C20 C 0.32533 0.86112 0.60888 0.0
C21 C 0.36268 0.84383 0.62488 0.0
C22 C 0.38215 0.86254 0.66645 0.0
N23 N 0.26732 0.91393 0.62271 0.0
H24 H 0.72197 0.44395 0.85127 0.0
H25 H 0.60105 0.3287 0.84749 0.0
H26 H 0.70804 0.32376 0.94073 0.0
H27 H 0.59483 0.35762 0.77591 0.0
C28 C 0.60953 0.39574 0.77749 0.0
C29 C 0.70232 0.4098 0.86369 0.0
C30 C 0.71995 0.38605 0.89807 0.0
C31 C 0.65986 0.38933 0.84434 0.0
C32 C 0.63431 0.34481 0.86097 0.0
C33 C 0.65168 0.32132 0.89603 0.0
C34 C 0.69443 0.34206 0.91411 0.0
N35 N 0.64412 0.41506 0.80907 0.0
H36 H 0.80037 0.59477 0.36565 0.0
H37 H 0.91673 0.71426 0.3615 0.0
H38 H 0.79675 0.71841 0.45752 0.0
H39 H 0.91669 0.69751 0.28516 0.0
C40 C 0.90685 0.65877 0.28176 0.0
C41 C 0.81743 0.62944 0.37939 0.0
C42 C 0.79462 0.65312 0.41522 0.0
C43 C 0.86069 0.65193 0.35869 0.0
C44 C 0.88249 0.69695 0.37618 0.0
C45 C 0.85932 0.72112 0.41113 0.0
C46 C 0.81531 0.69923 0.43106 0.0
N47 N 0.87897 0.63103 0.31734 0.0
H48 H 0.69001 0.79319 0.90097 0.0
H49 H 0.78879 0.77722 0.78413 0.0
H50 H 0.71324 0.8924 0.78828 0.0
H51 H 0.78327 0.70205 0.81129 0.0
C52 C 0.78271 0.71138 0.84845 0.0
C53 C 0.70581 0.80381 0.86654 0.0
C54 C 0.69609 0.8448 0.84657 0.0
C55 C 0.73856 0.77844 0.84398 0.0
C56 C 0.76119 0.79411 0.80064 0.0
C57 C 0.75231 0.83512 0.78078 0.0
C58 C 0.71876 0.85964 0.80296 0.0
N59 N 0.75335 0.7424 0.86877 0.0
H60 H 0.68268 0.10794 0.35593 0.0
H61 H 0.68176 0.20443 0.47629 0.0
H62 H 0.60079 0.21838 0.36088 0.0
H63 H 0.7552 0.19171 0.47862 0.0
C64 C 0.75569 0.15591 0.46413 0.0
C65 C 0.66965 0.13721 0.37467 0.0
C66 C 0.63938 0.16091 0.3538 0.0
C67 C 0.68605 0.15323 0.41822 0.0
C68 C 0.66998 0.19185 0.44226 0.0
C69 C 0.63904 0.21495 0.42155 0.0
C70 C 0.62373 0.19949 0.37741 0.0
N71 N 0.72125 0.13192 0.43481 0.0
H72 H 0.28415 0.63301 0.19774 0.0
H73 H 0.40456 0.74864 0.20482 0.0
H74 H 0.30794 0.74611 0.09891 0.0
H75 H 0.43098 0.70094 0.25224 0.0
C76 C 0.40251 0.67297 0.26512 0.0
C77 C 0.30535 0.66601 0.18429 0.0
C78 C 0.29151 0.68716 0.14579 0.0
C79 C 0.34657 0.68702 0.20563 0.0
C80 C 0.37349 0.73074 0.18835 0.0
C81 C 0.35936 0.75202 0.14974 0.0
C82 C 0.31881 0.72972 0.12856 0.0
N83 N 0.35892 0.66297 0.24416 0.0
H84 H 0.08601 0.33247 0.67262 0.0
H85 H 0.19742 0.45641 0.66526 0.0
H86 H 0.20891 0.33118 0.57887 0.0
H87 H 0.18169 0.45352 0.74354 0.0
C88 C 0.14382 0.44334 0.74828 0.0
C89 C 0.11936 0.35091 0.65669 0.0
C90 C 0.14446 0.32719 0.62283 0.0
C91 C 0.13894 0.39665 0.67339 0.0
C92 C 0.18229 0.42038 0.65336 0.0
C93 C 0.20743 0.39685 0.61958 0.0
C94 C 0.1887 0.35006 0.60405 0.0
N95 N 0.11735 0.41526 0.71414 0.0
Dy96 Dy 0.02948 0.04316 0.47508 0.0
C97 C 0.91565 0.95203 0.62926 0.0
C98 C 0.08518 0.09776 0.40881 0.0
Dy99 Dy 0.96937 1.00687 0.5617 0.0
O100 O 0.09138 0.05687 0.42234 0.0
O101 O 0.04685 0.10804 0.42926 0.0
O102 O 0.07333 0.98883 0.48224 0.0
O103 O 0.04426 1.0193 0.54313 0.0
C104 C 0.06724 0.98833 0.52737 0.0
C105 C 0.93164 0.06206 0.50957 0.0
O106 O 0.0147 0.06982 0.59536 0.0
O107 O 0.03831 0.107 0.52455 0.0
O108 O 0.90844 0.99257 0.61573 0.0
O109 O 0.95371 0.94217 0.60782 0.0
O110 O 0.92574 0.06148 0.55475 0.0
O111 O 0.95439 0.03087 0.49371 0.0
O112 O 0.98534 0.9799 0.44101 0.0
O113 O 0.96077 0.94311 0.51193 0.0
C114 C 0.03452 0.10787 0.57077 0.0
C115 C 0.96555 0.94193 0.46567 0.0
Dy116 Dy 0.53562 0.04722 0.06513 0.0
C117 C 0.42045 0.98243 0.90543 0.0
C118 C 0.58611 0.08945 0.13634 0.0
Dy119 Dy 0.4697 0.02635 0.97673 0.0
O120 O 0.57965 0.04403 0.12503 0.0
O121 O 0.56769 0.11245 0.10697 0.0
O122 O 0.50066 0.98128 0.10533 0.0
O123 O 0.4753 0.99626 0.04369 0.0
C124 C 0.46952 0.96614 0.07565 0.0
C125 C 0.53664 0.10687 0.96603 0.0
O126 O 0.42324 0.06114 0.02924 0.0
O127 O 0.4786 0.08961 0.08427 0.0
O128 O 0.42661 0.02809 0.91572 0.0
O129 O 0.43827 0.96023 0.93591 0.0
O130 O 0.50544 0.09207 0.93629 0.0
O131 O 0.53013 0.07699 0.99818 0.0
O132 O 0.58217 1.01309 0.01204 0.0
O133 O 0.5266 0.98418 0.95741 0.0
C134 C 0.43717 0.08751 0.06721 0.0
C135 C 0.56819 0.9867 0.97411 0.0
Dy136 Dy 0.50953 0.48404 0.49692 0.0
C137 C 0.45396 0.65279 0.5735 0.0
C138 C 0.55018 0.40881 0.4687 0.0
Dy139 Dy 0.49305 0.57658 0.54578 0.0
O140 O 0.50538 0.40635 0.47606 0.0
O141 O 0.57275 0.4525 0.47438 0.0
O142 O 0.43262 0.45594 0.4984 0.0
O143 O 0.46066 0.50169 0.5536 0.0
C144 C 0.4237 0.4802 0.53632 0.0
C145 C 0.57888 0.5798 0.50656 0.0
O146 O 0.51147 0.54286 0.60913 0.0
O147 O 0.54166 0.48318 0.56602 0.0
O148 O 0.49865 0.65431 0.5668 0.0
O149 O 0.43056 0.60947 0.56758 0.0
O150 O 0.57019 0.60415 0.54448 0.0
O151 O 0.54176 0.55883 0.48931 0.0
O152 O 0.49079 0.51805 0.43366 0.0
O153 O 0.46097 0.57791 0.47686 0.0
C154 C 0.53504 0.5073 0.60588 0.0
C155 C 0.46755 0.55392 0.43695 0.0
Dy156 Dy 0.01946 0.4918 0.03938 0.0
C157 C 0.95016 0.64214 0.95957 0.0
C158 C 0.07164 0.43131 0.06955 0.0
Dy159 Dy -0.00037 0.57988 0.99147 0.0
O160 O 0.0352 0.44273 0.09298 0.0
O161 O 0.07749 0.45006 0.02854 0.0
O162 O 0.96238 0.49708 0.09483 0.0
O163 O 0.00104 0.55979 0.06328 0.0
C164 C 0.96643 0.54307 0.09079 0.0
C165 C 0.05145 0.52697 0.94015 0.0
O166 O 0.062 0.6186 0.02824 0.0
O167 O 0.08516 0.54819 0.04645 0.0
O168 O 0.98648 0.6295 0.93712 0.0
O169 O 0.94266 0.62323 1.00053 0.0
O170 O 0.05641 0.57298 0.93565 0.0
O171 O 0.01698 0.5115 0.968 0.0
O172 O 0.95683 0.45331 1.00275 0.0
O173 O 0.93349 0.5239 0.98504 0.0
C174 C 0.09286 0.59554 0.04386 0.0
C175 C 0.92575 0.47649 0.98763 0.0
C176 C 0.19257 0.17754 0.33229 0.0
C177 C 0.22125 0.1958 0.30247 0.0
C178 C 0.15382 0.15373 0.36058 0.0
C179 C 0.12087 0.13037 0.38268 0.0
C180 C 0.38954 0.92823 0.77644 0.0
C181 C 0.37897 0.91319 0.7381 0.0
C182 C 0.39913 0.94603 0.82198 0.0
C183 C 0.40892 0.96234 0.86017 0.0
C184 C 0.58396 0.44941 0.71431 0.0
C185 C 0.59651 0.42611 0.74353 0.0
C186 C 0.5673 0.47388 0.67898 0.0
C187 C 0.5517 0.49111 0.64728 0.0
C188 C 0.91977 0.61875 0.19885 0.0
C189 C 0.91324 0.63734 0.23646 0.0
C190 C 0.93205 0.59479 0.15748 0.0
C191 C 0.94824 0.57193 0.12658 0.0
C192 C 0.35844 0.17415 0.14204 0.0
C193 C 0.33436 0.198 0.16586 0.0
C194 C 0.38425 0.14343 0.11433 0.0
C195 C 0.4067 0.11728 0.09146 0.0
C196 C 0.16692 0.93196 0.57418 0.0
C197 C 0.20256 0.91765 0.57618 0.0
C198 C 0.12762 0.95129 0.56761 0.0
C199 C 0.09807 0.96976 0.55394 0.0
C200 C 0.80177 0.41952 0.93378 0.0
C201 C 0.76475 0.40566 0.91657 0.0
C202 C 0.84534 0.43483 0.95398 0.0
C203 C 0.88267 0.45043 0.97004 0.0
C204 C 0.70942 0.61325 0.44711 0.0
C205 C 0.74827 0.63149 0.43261 0.0
C206 C 0.66321 0.59597 0.46455 0.0
C207 C 0.62375 0.58682 0.48163 0.0
C208 C 0.17876 0.38485 0.12279 0.0
C209 C 0.21133 0.37057 0.13673 0.0
C210 C 0.13971 0.39941 0.10585 0.0
C211 C 0.10789 0.41378 0.09048 0.0
C212 C 0.60885 0.23766 0.93146 0.0
C213 C 0.62666 0.27565 0.91399 0.0
C214 C 0.58841 0.1925 0.95107 0.0
C215 C 0.56772 0.15315 0.96321 0.0
C216 C 0.90055 0.81052 0.42801 0.0
C217 C 0.87957 0.77008 0.42233 0.0
C218 C 0.92564 0.85778 0.43344 0.0
C219 C 0.9453 0.89787 0.44308 0.0
C220 C 0.39499 0.76957 0.58849 0.0
C221 C 0.37797 0.80321 0.60216 0.0
C222 C 0.41556 0.72906 0.58096 0.0
C223 C 0.43321 0.69427 0.57755 0.0
C224 C 0.81317 0.87313 0.71253 0.0
C225 C 0.78471 0.85699 0.74355 0.0
C226 C 0.85043 0.89632 0.68193 0.0
C227 C 0.88177 0.91972 0.65776 0.0
C228 C 0.6188 0.13657 0.26691 0.0
C229 C 0.62778 0.1482 0.30653 0.0
C230 C 0.60927 0.1224 0.22039 0.0
C231 C 0.59856 0.10827 0.18179 0.0
C232 C 0.42215 0.61697 0.32973 0.0
C233 C 0.41175 0.64184 0.30054 0.0
C234 C 0.43716 0.59022 0.36438 0.0
C235 C 0.45199 0.57134 0.39553 0.0
C236 C 0.10577 0.45803 0.83216 0.0
C237 C 0.12241 0.44953 0.79393 0.0
C238 C 0.08678 0.47544 0.87417 0.0
C239 C 0.06946 0.49693 0.90541 0.0
C240 C 0.6454 0.90063 0.89702 0.0
C241 C 0.66849 0.87538 0.8739 0.0
C242 C 0.62063 0.93161 0.92546 0.0
C243 C 0.59872 0.95752 0.94925 0.0
C244 C 0.83247 0.12119 0.4653 0.0
C245 C 0.79773 0.13765 0.46503 0.0
C246 C 0.87129 0.10036 0.47044 0.0
C247 C 0.90086 0.08122 0.48325 0.0
C248 C 0.21345 0.65235 0.10389 0.0
C249 C 0.24857 0.66664 0.12421 0.0
C250 C 0.17164 0.6371 0.08063 0.0
C251 C 0.13509 0.62165 0.06306 0.0
C252 C 0.2931 0.44003 0.59272 0.0
C253 C 0.25411 0.41972 0.60452 0.0
C254 C 0.33941 0.46024 0.57785 0.0
C255 C 0.37901 0.47165 0.56162 0.0
C256 C 0.84876 0.68827 0.89592 0.0
C257 C 0.81775 0.6983 0.87522 0.0
C258 C 0.88544 0.67537 0.91879 0.0
C259 C 0.91517 0.66023 0.93713 0.0
C260 C 0.40177 0.83494 0.11274 0.0
C261 C 0.38464 0.79751 0.13159 0.0
C262 C 0.42043 0.87971 0.09149 0.0
C263 C 0.43951 0.91927 0.07843 0.0
C264 C 0.10524 0.23724 0.60649 0.0
C265 C 0.12583 0.27789 0.61161 0.0
C266 C 0.07886 0.19047 0.60202 0.0
C267 C 0.0572 0.15102 0.59314 0.0
C268 C 0.60954 0.29197 0.45484 0.0
C269 C 0.62506 0.2568 0.44321 0.0
C270 C 0.58971 0.33315 0.46112 0.0
C271 C 0.57192 0.36791 0.46457 0.0
loop_
_geom_bond_atom_site_label_1
_geom_bond_atom_site_label_2
_geom_bond_distance
_geom_bond_site_symmetry_2
_ccdc_geom_bond_type
H0 C5 0.930 . S
H1 C8 0.930 . S
H2 C10 0.930 . S
H3 C4 1.016 . S
C4 H3 1.016 . S
C4 N11 1.286 . S
C5 H0 0.930 . S
C5 C6 1.397 . S
C5 C7 1.361 . S
C6 C5 1.397 . S
C6 C10 1.390 . S
C7 C5 1.361 . S
C7 C8 1.393 . S
C7 N11 1.413 . S
C8 H1 0.930 . S
C8 C7 1.393 . S
C8 C9 1.399 . S
C9 C8 1.399 . S
C9 C10 1.381 . S
C10 H2 0.930 . S
C10 C6 1.390 . S
C10 C9 1.381 . S
N11 C4 1.286 . S
N11 C7 1.413 . S
H12 C17 0.930 . S
H13 C20 0.930 . S
H14 C22 0.930 . S
H15 C16 1.016 . S
C16 H15 1.016 . S
C16 N23 1.286 . S
C17 H12 0.930 . S
C17 C18 1.397 . S
C17 C19 1.361 . S
C18 C17 1.397 . S
C18 C22 1.390 . S
C19 C17 1.361 . S
C19 C20 1.393 . S
C19 N23 1.413 . S
C20 H13 0.930 . S
C20 C19 1.393 . S
C20 C21 1.399 . S
C21 C20 1.399 . S
C21 C22 1.381 . S
C22 H14 0.930 . S
C22 C18 1.390 . S
C22 C21 1.381 . S
N23 C16 1.286 . S
N23 C19 1.413 . S
H24 C29 0.930 . S
H25 C32 0.930 . S
H26 C34 0.930 . S
H27 C28 1.016 . S
C28 H27 1.016 . S
C28 N35 1.286 . S
C29 H24 0.930 . S
C29 C30 1.397 . S
C29 C31 1.361 . S
C30 C29 1.397 . S
C30 C34 1.390 . S
C31 C29 1.361 . S
C31 C32 1.393 . S
C31 N35 1.413 . S
C32 H25 0.930 . S
C32 C31 1.393 . S
C32 C33 1.399 . S
C33 C32 1.399 . S
C33 C34 1.381 . S
C34 H26 0.930 . S
C34 C30 1.390 . S
C34 C33 1.381 . S
N35 C28 1.286 . S
N35 C31 1.413 . S
H36 C41 0.930 . S
H37 C44 0.930 . S
H38 C46 0.930 . S
H39 C40 1.016 . S
C40 H39 1.016 . S
C40 N47 1.286 . S
C41 H36 0.930 . S
C41 C42 1.397 . S
C41 C43 1.361 . S
C42 C41 1.397 . S
C42 C46 1.390 . S
C43 C41 1.361 . S
C43 C44 1.393 . S
C43 N47 1.413 . S
C44 H37 0.930 . S
C44 C43 1.393 . S
C44 C45 1.399 . S
C45 C44 1.399 . S
C45 C46 1.381 . S
C46 H38 0.930 . S
C46 C42 1.390 . S
C46 C45 1.381 . S
N47 C40 1.286 . S
N47 C43 1.413 . S
H48 C53 0.930 . S
H49 C56 0.930 . S
H50 C58 0.930 . S
H51 C52 1.016 . S
C52 H51 1.016 . S
C52 N59 1.286 . S
C53 H48 0.930 . S
C53 C54 1.397 . S
C53 C55 1.361 . S
C54 C53 1.397 . S
C54 C58 1.390 . S
C55 C53 1.361 . S
C55 C56 1.393 . S
C55 N59 1.413 . S
C56 H49 0.930 . S
C56 C55 1.393 . S
C56 C57 1.399 . S
C57 C56 1.399 . S
C57 C58 1.381 . S
C58 H50 0.930 . S
C58 C54 1.390 . S
C58 C57 1.381 . S
N59 C52 1.286 . S
N59 C55 1.413 . S
H60 C65 0.930 . S
H61 C68 0.930 . S
H62 C70 0.930 . S
H63 C64 1.016 . S
C64 H63 1.016 . S
C64 N71 1.286 . S
C65 H60 0.930 . S
C65 C66 1.397 . S
C65 C67 1.361 . S
C66 C65 1.397 . S
C66 C70 1.390 . S
C67 C65 1.361 . S
C67 C68 1.393 . S
C67 N71 1.413 . S
C68 H61 0.930 . S
C68 C67 1.393 . S
C68 C69 1.399 . S
C69 C68 1.399 . S
C69 C70 1.381 . S
C70 H62 0.930 . S
C70 C66 1.390 . S
C70 C69 1.381 . S
N71 C64 1.286 . S
N71 C67 1.413 . S
H72 C77 0.930 . S
H73 C80 0.930 . S
H74 C82 0.930 . S
H75 C76 1.016 . S
C76 H75 1.016 . S
C76 N83 1.286 . S
C77 H72 0.930 . S
C77 C78 1.397 . S
C77 C79 1.361 . S
C78 C77 1.397 . S
C78 C82 1.390 . S
C79 C77 1.361 . S
C79 C80 1.393 . S
C79 N83 1.413 . S
C80 H73 0.930 . S
C80 C79 1.393 . S
C80 C81 1.399 . S
C81 C80 1.399 . S
C81 C82 1.381 . S
C82 H74 0.930 . S
C82 C78 1.390 . S
C82 C81 1.381 . S
N83 C76 1.286 . S
N83 C79 1.413 . S
H84 C89 0.930 . S
H85 C92 0.930 . S
H86 C94 0.930 . S
H87 C88 1.016 . S
C88 H87 1.016 . S
C88 N95 1.286 . S
C89 H84 0.930 . S
C89 C90 1.397 . S
C89 C91 1.361 . S
C90 C89 1.397 . S
C90 C94 1.390 . S
C91 C89 1.361 . S
C91 C92 1.393 . S
C91 N95 1.413 . S
C92 H85 0.930 . S
C92 C91 1.393 . S
C92 C93 1.399 . S
C93 C92 1.399 . S
C93 C94 1.381 . S
C94 H86 0.930 . S
C94 C90 1.390 . S
C94 C93 1.381 . S
N95 C88 1.286 . S
N95 C91 1.413 . S
Dy96 O100 2.398 . S
Dy96 O101 2.491 . S
Dy96 O102 2.403 1_545 S
Dy96 O103 2.664 1_545 S
Dy96 O107 2.326 . S
Dy96 O111 2.310 1_455 S
Dy96 O112 2.351 1_445 S
C97 O108 1.185 . S
C97 O109 1.355 . S
C98 O100 1.185 . S
C98 O101 1.355 . S
Dy99 O103 2.310 1_655 S
Dy99 O106 2.351 1_665 S
Dy99 O108 2.398 . S
Dy99 O109 2.491 . S
Dy99 O110 2.403 1_565 S
Dy99 O111 2.664 1_565 S
Dy99 O113 2.326 . S
O100 Dy96 2.398 . S
O100 C98 1.185 . S
O101 Dy96 2.491 . S
O101 C98 1.355 . S
O102 Dy96 2.403 1_565 S
O102 C104 1.254 . S
O103 Dy96 2.664 1_565 S
O103 Dy99 2.310 1_455 S
O103 C104 1.268 . S
C104 O102 1.254 . S
C104 O103 1.268 . S
C105 O110 1.254 . S
C105 O111 1.268 . S
O106 Dy99 2.351 1_445 S
O106 C114 1.249 . S
O107 Dy96 2.326 . S
O107 C114 1.267 . S
O108 C97 1.185 . S
O108 Dy99 2.398 . S
O109 C97 1.355 . S
O109 Dy99 2.491 . S
O110 Dy99 2.403 1_545 S
O110 C105 1.254 . S
O111 Dy96 2.310 1_655 S
O111 Dy99 2.664 1_545 S
O111 C105 1.268 . S
O112 Dy96 2.351 1_665 S
O112 C115 1.249 . S
O113 Dy99 2.326 . S
O113 C115 1.267 . S
C114 O106 1.249 . S
C114 O107 1.267 . S
C115 O112 1.249 . S
C115 O113 1.267 . S
Dy116 O120 2.398 . S
Dy116 O121 2.491 . S
Dy116 O122 2.403 1_545 S
Dy116 O123 2.664 1_545 S
Dy116 O127 2.326 . S
Dy116 O131 2.310 . S
Dy116 O132 2.351 1_544 S
C117 O128 1.185 . S
C117 O129 1.355 . S
C118 O120 1.185 . S
C118 O121 1.355 . S
Dy119 O123 2.310 1_546 S
Dy119 O126 2.351 1_556 S
Dy119 O128 2.398 1_545 S
Dy119 O129 2.491 1_545 S
Dy119 O130 2.403 . S
Dy119 O131 2.664 1_556 S
Dy119 O133 2.326 1_545 S
O120 Dy116 2.398 . S
O120 C118 1.185 . S
O121 Dy116 2.491 . S
O121 C118 1.355 . S
O122 Dy116 2.403 1_565 S
O122 C124 1.254 . S
O123 Dy116 2.664 1_565 S
O123 Dy119 2.310 1_564 S
O123 C124 1.268 . S
C124 O122 1.254 . S
C124 O123 1.268 . S
C125 O130 1.254 . S
C125 O131 1.268 1_556 S
O126 Dy119 2.351 1_554 S
O126 C134 1.249 . S
O127 Dy116 2.326 . S
O127 C134 1.267 . S
O128 C117 1.185 . S
O128 Dy119 2.398 1_565 S
O129 C117 1.355 . S
O129 Dy119 2.491 1_565 S
O130 Dy119 2.403 . S
O130 C125 1.254 . S
O131 Dy116 2.310 . S
O131 Dy119 2.664 1_554 S
O131 C125 1.268 1_554 S
O132 Dy116 2.351 1_566 S
O132 C135 1.249 . S
O133 Dy119 2.326 1_565 S
O133 C135 1.267 . S
C134 O126 1.249 . S
C134 O127 1.267 . S
C135 O132 1.249 . S
C135 O133 1.267 . S
Dy136 O140 2.398 . S
Dy136 O141 2.491 . S
Dy136 O142 2.403 . S
Dy136 O143 2.664 . S
Dy136 O147 2.326 . S
Dy136 O151 2.310 . S
Dy136 O152 2.351 . S
C137 O148 1.185 . S
C137 O149 1.355 . S
C138 O140 1.185 . S
C138 O141 1.355 . S
Dy139 O143 2.310 . S
Dy139 O146 2.351 . S
Dy139 O148 2.398 . S
Dy139 O149 2.491 . S
Dy139 O150 2.403 . S
Dy139 O151 2.664 . S
Dy139 O153 2.326 . S
O140 Dy136 2.398 . S
O140 C138 1.185 . S
O141 Dy136 2.491 . S
O141 C138 1.355 . S
O142 Dy136 2.403 . S
O142 C144 1.254 . S
O143 Dy136 2.664 . S
O143 Dy139 2.310 . S
O143 C144 1.268 . S
C144 O142 1.254 . S
C144 O143 1.268 . S
C145 O150 1.254 . S
C145 O151 1.268 . S
O146 Dy139 2.351 . S
O146 C154 1.249 . S
O147 Dy136 2.326 . S
O147 C154 1.267 . S
O148 C137 1.185 . S
O148 Dy139 2.398 . S
O149 C137 1.355 . S
O149 Dy139 2.491 . S
O150 Dy139 2.403 . S
O150 C145 1.254 . S
O151 Dy136 2.310 . S
O151 Dy139 2.664 . S
O151 C145 1.268 . S
O152 Dy136 2.351 . S
O152 C155 1.249 . S
O153 Dy139 2.326 . S
O153 C155 1.267 . S
C154 O146 1.249 . S
C154 O147 1.267 . S
C155 O152 1.249 . S
C155 O153 1.267 . S
Dy156 O160 2.398 . S
Dy156 O161 2.491 . S
Dy156 O162 2.403 1_455 S
Dy156 O163 2.664 1_455 S
Dy156 O167 2.326 . S
Dy156 O171 2.310 1_554 S
Dy156 O172 2.354 1_455 S
C157 O168 1.185 . S
C157 O169 1.355 . S
C158 O160 1.185 . S
C158 O161 1.355 . S
Dy159 O163 2.310 1_456 S
Dy159 O166 2.351 1_556 S
Dy159 O168 2.398 1_455 S
Dy159 O169 2.491 1_455 S
Dy159 O170 2.403 . S
Dy159 O171 2.664 . S
Dy159 O173 2.326 1_455 S
O160 Dy156 2.398 . S
O160 C158 1.185 . S
O161 Dy156 2.491 . S
O161 C158 1.355 . S
O162 Dy156 2.403 1_655 S
O162 C164 1.254 . S
O163 Dy156 2.664 1_655 S
O163 Dy159 2.310 1_654 S
O163 C164 1.268 . S
C164 O162 1.254 . S
C164 O163 1.268 . S
C165 O170 1.254 . S
C165 O171 1.268 . S
O166 Dy159 2.351 1_554 S
O166 C174 1.249 . S
O167 Dy156 2.326 . S
O167 C174 1.267 . S
O168 C157 1.185 . S
O168 Dy159 2.398 1_655 S
O169 C157 1.355 . S
O169 Dy159 2.491 1_655 S
O170 Dy159 2.403 . S
O170 C165 1.254 . S
O171 Dy156 2.310 1_556 S
O171 Dy159 2.664 . S
O171 C165 1.268 . S
O172 Dy156 2.354 1_655 S
O172 C175 1.245 1_554 S
O173 Dy159 2.326 1_655 S
O173 C175 1.267 . S
C174 O166 1.249 . S
C174 O167 1.267 . S
C175 O172 1.245 1_556 S
C175 O173 1.267 . S
C176 C177 1.170 . S
C176 C178 1.380 . S
C177 C176 1.170 . S
C178 C176 1.380 . S
C178 C179 1.170 . S
C179 C178 1.170 . S
C180 C181 1.170 . S
C180 C182 1.380 . S
C181 C180 1.170 . S
C182 C180 1.380 . S
C182 C183 1.170 . S
C183 C182 1.170 . S
C184 C185 1.170 . S
C184 C186 1.380 . S
C185 C184 1.170 . S
C186 C184 1.380 . S
C186 C187 1.170 . S
C187 C186 1.170 . S
C188 C189 1.170 . S
C188 C190 1.380 . S
C189 C188 1.170 . S
C190 C188 1.380 . S
C190 C191 1.170 . S
C191 C190 1.170 . S
C192 C193 1.170 . S
C192 C194 1.380 . S
C193 C192 1.170 . S
C194 C192 1.380 . S
C194 C195 1.170 . S
C195 C194 1.170 . S
C196 C197 1.170 . S
C196 C198 1.380 . S
C197 C196 1.170 . S
C198 C196 1.380 . S
C198 C199 1.170 . S
C199 C198 1.170 . S
C200 C201 1.170 . S
C200 C202 1.380 . S
C201 C200 1.170 . S
C202 C200 1.380 . S
C202 C203 1.170 . S
C203 C202 1.170 . S
C204 C205 1.170 . S
C204 C206 1.380 . S
C205 C204 1.170 . S
C206 C204 1.380 . S
C206 C207 1.170 . S
C207 C206 1.170 . S
C208 C209 1.170 . S
C208 C210 1.380 . S
C209 C208 1.170 . S
C210 C208 1.380 . S
C210 C211 1.170 . S
C211 C210 1.170 . S
C212 C213 1.170 . S
C212 C214 1.380 . S
C213 C212 1.170 . S
C214 C212 1.380 . S
C214 C215 1.170 . S
C215 C214 1.170 . S
C216 C217 1.170 . S
C216 C218 1.380 . S
C217 C216 1.170 . S
C218 C216 1.380 . S
C218 C219 1.170 . S
C219 C218 1.170 . S
C220 C221 1.170 . S
C220 C222 1.380 . S
C221 C220 1.170 . S
C222 C220 1.380 . S
C222 C223 1.170 . S
C223 C222 1.170 . S
C224 C225 1.170 . S
C224 C226 1.380 . S
C225 C224 1.170 . S
C226 C224 1.380 . S
C226 C227 1.170 . S
C227 C226 1.170 . S
C228 C229 1.170 . S
C228 C230 1.380 . S
C229 C228 1.170 . S
C230 C228 1.380 . S
C230 C231 1.170 . S
C231 C230 1.170 . S
C232 C233 1.170 . S
C232 C234 1.380 . S
C233 C232 1.170 . S
C234 C232 1.380 . S
C234 C235 1.170 . S
C235 C234 1.170 . S
C236 C237 1.170 . S
C236 C238 1.380 . S
C237 C236 1.170 . S
C238 C236 1.380 . S
C238 C239 1.170 . S
C239 C238 1.170 . S
C240 C241 1.170 . S
C240 C242 1.380 . S
C241 C240 1.170 . S
C242 C240 1.380 . S
C242 C243 1.170 . S
C243 C242 1.170 . S
C244 C245 1.170 . S
C244 C246 1.380 . S
C245 C244 1.170 . S
C246 C244 1.380 . S
C246 C247 1.170 . S
C247 C246 1.170 . S
C248 C249 1.170 . S
C248 C250 1.380 . S
C249 C248 1.170 . S
C250 C248 1.380 . S
C250 C251 1.170 . S
C251 C250 1.170 . S
C252 C253 1.170 . S
C252 C254 1.380 . S
C253 C252 1.170 . S
C254 C252 1.380 . S
C254 C255 1.170 . S
C255 C254 1.170 . S
C256 C257 1.170 . S
C256 C258 1.380 . S
C257 C256 1.170 . S
C258 C256 1.380 . S
C258 C259 1.170 . S
C259 C258 1.170 . S
C260 C261 1.170 . S
C260 C262 1.380 . S
C261 C260 1.170 . S
C262 C260 1.380 . S
C262 C263 1.170 . S
C263 C262 1.170 . S
C264 C265 1.170 . S
C264 C266 1.380 . S
C265 C264 1.170 . S
C266 C264 1.380 . S
C266 C267 1.170 . S
C267 C266 1.170 . S
C268 C269 1.170 . S
C268 C270 1.380 . S
C269 C268 1.170 . S
C270 C268 1.380 . S
C270 C271 1.170 . S
C271 C270 1.170 . S
C177 C6 1.459 . S
C179 C98 1.459 . S
C181 C18 1.545 . S
C183 C117 1.502 . S
C187 C154 1.820 . S
C185 C28 1.831 . S
C189 C40 1.312 . S
C191 C164 1.295 . S
C195 C134 1.967 . S
C193 C9 1.917 . S
C199 C104 1.419 . S
C197 C16 1.460 . S
C203 C175 1.555 . S
C201 C30 1.564 . S
C207 C145 1.223 . S
C205 C42 1.234 . S
C209 C4 1.549 . S
C211 C158 1.586 . S
C215 C125 1.824 . S
C213 C33 1.866 . S
C217 C45 1.595 . S
C219 C115 1.590 . S
C221 C21 1.397 . S
C223 C137 1.406 . S
C227 C97 1.465 . S
C225 C57 1.477 . S
C229 C66 1.549 . S
C231 C118 1.490 . S
C233 C76 1.876 . S
C235 C155 1.847 . S
C237 C88 1.266 . S
C239 C165 1.244 . S
C241 C54 1.875 . S
C243 C135 1.935 . S
C247 C105 1.456 . S
C245 C64 1.516 . S
C251 C174 1.468 . S
C249 C78 1.488 . S
C255 C144 1.211 . S
C253 C93 1.247 . S
C257 C52 1.509 . S
C259 C157 1.570 . S
C263 C124 1.811 . S
C261 C81 1.864 . S
C267 C114 1.582 . S
C265 C90 1.580 . S
C269 C69 1.422 . S
C271 C138 1.422 . S
