# Generated by pormake.
# Topology sqc, (4,8)-cn, num edge types: 1
# Building blocks:
#     Node 0, Type 0, BuildingBlock: KUFVIS_clean_linker_0, # of connection points: 4
#     Node 1, Type 0, BuildingBlock: KUFVIS_clean_linker_0, # of connection points: 4
#     Node 2, Type 0, BuildingBlock: KUFVIS_clean_linker_0, # of connection points: 4
#     Node 3, Type 0, BuildingBlock: KUFVIS_clean_linker_0, # of connection points: 4
#     Node 4, Type 0, BuildingBlock: KUFVIS_clean_linker_0, # of connection points: 4
#     Node 5, Type 0, BuildingBlock: KUFVIS_clean_linker_0, # of connection points: 4
#     Node 6, Type 0, BuildingBlock: KUFVIS_clean_linker_0, # of connection points: 4
#     Node 7, Type 0, BuildingBlock: KUFVIS_clean_linker_0, # of connection points: 4
#     Node 8, Type 1, BuildingBlock: VETTIZ_charged_sbu_0, # of connection points: 8
#     Node 9, Type 1, BuildingBlock: VETTIZ_charged_sbu_0, # of connection points: 8
#     Node 10, Type 1, BuildingBlock: VETTIZ_charged_sbu_0, # of connection points: 8
#     Node 11, Type 1, BuildingBlock: VETTIZ_charged_sbu_0, # of connection points: 8
#     Edge 12, Type (0, 1), BuildingBlock: CIFDUS_clean_linker_0, # of connection points: 2
#     Edge 13, Type (0, 1), BuildingBlock: CIFDUS_clean_linker_0, # of connection points: 2
#     Edge 14, Type (0, 1), BuildingBlock: CIFDUS_clean_linker_0, # of connection points: 2
#     Edge 15, Type (0, 1), BuildingBlock: CIFDUS_clean_linker_0, # of connection points: 2
#     Edge 16, Type (0, 1), BuildingBlock: CIFDUS_clean_linker_0, # of connection points: 2
#     Edge 17, Type (0, 1), BuildingBlock: CIFDUS_clean_linker_0, # of connection points: 2
#     Edge 18, Type (0, 1), BuildingBlock: CIFDUS_clean_linker_0, # of connection points: 2
#     Edge 19, Type (0, 1), BuildingBlock: CIFDUS_clean_linker_0, # of connection points: 2
#     Edge 20, Type (0, 1), BuildingBlock: CIFDUS_clean_linker_0, # of connection points: 2
#     Edge 21, Type (0, 1), BuildingBlock: CIFDUS_clean_linker_0, # of connection points: 2
#     Edge 22, Type (0, 1), BuildingBlock: CIFDUS_clean_linker_0, # of connection points: 2
#     Edge 23, Type (0, 1), BuildingBlock: CIFDUS_clean_linker_0, # of connection points: 2
#     Edge 24, Type (0, 1), BuildingBlock: CIFDUS_clean_linker_0, # of connection points: 2
#     Edge 25, Type (0, 1), BuildingBlock: CIFDUS_clean_linker_0, # of connection points: 2
#     Edge 26, Type (0, 1), BuildingBlock: CIFDUS_clean_linker_0, # of connection points: 2
#     Edge 27, Type (0, 1), BuildingBlock: CIFDUS_clean_linker_0, # of connection points: 2
#     Edge 28, Type (0, 1), BuildingBlock: CIFDUS_clean_linker_0, # of connection points: 2
#     Edge 29, Type (0, 1), BuildingBlock: CIFDUS_clean_linker_0, # of connection points: 2
#     Edge 30, Type (0, 1), BuildingBlock: CIFDUS_clean_linker_0, # of connection points: 2
#     Edge 31, Type (0, 1), BuildingBlock: CIFDUS_clean_linker_0, # of connection points: 2
#     Edge 32, Type (0, 1), BuildingBlock: CIFDUS_clean_linker_0, # of connection points: 2
#     Edge 33, Type (0, 1), BuildingBlock: CIFDUS_clean_linker_0, # of connection points: 2
#     Edge 34, Type (0, 1), BuildingBlock: CIFDUS_clean_linker_0, # of connection points: 2
#     Edge 35, Type (0, 1), BuildingBlock: CIFDUS_clean_linker_0, # of connection points: 2
#     Edge 36, Type (0, 1), BuildingBlock: CIFDUS_clean_linker_0, # of connection points: 2
#     Edge 37, Type (0, 1), BuildingBlock: CIFDUS_clean_linker_0, # of connection points: 2
#     Edge 38, Type (0, 1), BuildingBlock: CIFDUS_clean_linker_0, # of connection points: 2
#     Edge 39, Type (0, 1), BuildingBlock: CIFDUS_clean_linker_0, # of connection points: 2
#     Edge 40, Type (0, 1), BuildingBlock: CIFDUS_clean_linker_0, # of connection points: 2
#     Edge 41, Type (0, 1), BuildingBlock: CIFDUS_clean_linker_0, # of connection points: 2
#     Edge 42, Type (0, 1), BuildingBlock: CIFDUS_clean_linker_0, # of connection points: 2
#     Edge 43, Type (0, 1), BuildingBlock: CIFDUS_clean_linker_0, # of connection points: 2
# Relax obj value: 0.164
# Max RMSD: 0.278
# Mean RMSD: 0.218
data_MOF--net-sqc--node1-VETTIZ_charged_sbu_0--node2-KUFVIS_clean_linker_0--edge1-CIFDUS_clean_linker_0
_symmetry_space_group_name_H-M    P1
_symmetry_Int_Tables_number       1
_symmetry_cell_setting            triclinic
loop_
_symmetry_equiv_pos_as_xyz
'x, y, z'
_cell_length_a     21.529717
_cell_length_b     21.570217
_cell_length_c     60.696498
_cell_angle_alpha  89.858136
_cell_angle_beta   89.831015
_cell_angle_gamma 89.645599
loop_
_atom_site_label
_atom_site_type_symbol
_atom_site_fract_x
_atom_site_fract_y
_atom_site_fract_z
_atom_type_partial_charge
H0 H 0.78677 0.98724 0.50683 0.0
H1 H 0.94301 0.10128 0.52228 0.0
H2 H 0.95045 0.97309 0.4673 0.0
H3 H 0.03033 0.03041 0.45611 0.0
H4 H 0.19914 0.10026 0.4833 0.0
H5 H 0.04246 0.07379 0.52563 0.0
C6 C 0.83363 1.00281 0.50344 0.0
C7 C 0.86501 0.97773 0.48541 0.0
C8 C 0.86052 0.04781 0.51676 0.0
C9 C 0.9226 0.06536 0.51229 0.0
C10 C 0.95747 0.03791 0.49474 0.0
C11 C 0.92674 0.99475 0.48103 0.0
C12 C 0.02543 0.05374 0.49114 0.0
C13 C 0.05544 0.04729 0.47026 0.0
C14 C 0.11866 0.06339 0.46747 0.0
C15 C 0.15114 0.08679 0.48549 0.0
C16 C 0.12469 0.08979 0.50649 0.0
C17 C 0.06195 0.07334 0.50919 0.0
H18 H 0.31624 0.97463 0.78416 0.0
H19 H 0.24532 0.79701 0.80119 0.0
H20 H 0.36623 0.81919 0.74425 0.0
H21 H 0.34053 0.72638 0.73535 0.0
H22 H 0.33449 0.54721 0.7649 0.0
H23 H 0.27246 0.70232 0.8024 0.0
C24 C 0.31415 0.92527 0.78093 0.0
C25 C 0.34169 0.9017 0.76181 0.0
C26 C 0.27907 0.88802 0.79495 0.0
C27 C 0.27531 0.82401 0.79067 0.0
C28 C 0.30908 0.79624 0.773 0.0
C29 C 0.34164 0.83687 0.75844 0.0
C30 C 0.31046 0.72594 0.76992 0.0
C31 C 0.33094 0.69853 0.74975 0.0
C32 C 0.33971 0.63391 0.74802 0.0
C33 C 0.32588 0.5966 0.76612 0.0
C34 C 0.29618 0.61991 0.78484 0.0
C35 C 0.29145 0.68486 0.78718 0.0
H36 H 0.74576 0.07193 0.01601 0.0
H37 H 0.59121 0.95938 0.03449 0.0
H38 H 0.5693 0.10982 0.98719 0.0
H39 H 0.48602 0.06098 0.97746 0.0
H40 H 0.32055 0.99461 0.00867 0.0
H41 H 0.49333 0.97452 0.04211 0.0
C42 C 0.69689 0.0606 0.01456 0.0
C43 C 0.6605 0.09417 -0.0002 0.0
C44 C 0.67246 1.01203 0.027 0.0
C45 C 0.60879 0.9984 0.02524 0.0
C46 C 0.56926 0.03343 0.0111 0.0
C47 C 0.59672 0.08131 0.99817 0.0
C48 C 0.50019 0.02027 0.00998 0.0
C49 C 0.46425 0.03945 0.99156 0.0
C50 C 0.3994 0.03075 0.99099 0.0
C51 C 0.37051 1.00083 0.00866 0.0
C52 C 0.40445 0.9795 0.02668 0.0
C53 C 0.46886 0.98954 0.0275 0.0
H54 H 0.25021 0.48597 0.26477 0.0
H55 H 0.33974 0.31605 0.28199 0.0
H56 H 0.20864 0.32223 0.22784 0.0
H57 H 0.2564 0.23445 0.21845 0.0
H58 H 0.29063 0.0582 0.2493 0.0
H59 H 0.30296 0.22246 0.28782 0.0
C60 C 0.2562 0.43663 0.26198 0.0
C61 C 0.22787 0.40887 0.24381 0.0
C62 C 0.2967 0.40363 0.27552 0.0
C63 C 0.30571 0.34002 0.27197 0.0
C64 C 0.27187 0.30821 0.25553 0.0
C65 C 0.23342 0.34398 0.24119 0.0
C66 C 0.27797 0.23857 0.25341 0.0
C67 C 0.26735 0.20803 0.2331 0.0
C68 C 0.27201 0.14287 0.23143 0.0
C69 C 0.28765 0.10833 0.2502 0.0
C70 C 0.30019 0.13696 0.27023 0.0
C71 C 0.29477 0.20169 0.2719 0.0
H72 H 0.7945 0.48924 0.24783 0.0
H73 H 0.72473 0.32569 0.27854 0.0
H74 H 0.81811 0.31561 0.21499 0.0
H75 H 0.75968 0.2311 0.21028 0.0
H76 H 0.73439 0.06206 0.24641 0.0
H77 H 0.75731 0.23033 0.28192 0.0
C78 C 0.78876 0.43929 0.24779 0.0
C79 C 0.81004 0.40561 0.22967 0.0
C80 C 0.76129 0.41063 0.26592 0.0
C81 C 0.74905 0.34671 0.26486 0.0
C82 C 0.76867 0.3106 0.24645 0.0
C83 C 0.79991 0.34128 0.22889 0.0
C84 C 0.7586 0.24125 0.2461 0.0
C85 C 0.75567 0.20755 0.22597 0.0
C86 C 0.74652 0.14276 0.22598 0.0
C87 C 0.74041 0.11196 0.24614 0.0
C88 C 0.74373 0.14341 0.26612 0.0
C89 C 0.75285 0.20766 0.26614 0.0
H90 H 0.78851 0.98749 0.74694 0.0
H91 H 0.7894 0.83068 0.7895 0.0
H92 H 0.70277 0.82022 0.72499 0.0
H93 H 0.67142 0.72832 0.73462 0.0
H94 H 0.71236 0.57021 0.77498 0.0
H95 H 0.81198 0.73626 0.7856 0.0
C96 C 0.77662 0.93932 0.74987 0.0
C97 C 0.74146 0.90751 0.73435 0.0
C98 C 0.79523 0.91064 0.76936 0.0
C99 C 0.77742 0.84965 0.77359 0.0
C100 C 0.74683 0.81373 0.7574 0.0
C101 C 0.72783 0.84431 0.73771 0.0
C102 C 0.73718 0.74514 0.76137 0.0
C103 C 0.69621 0.70862 0.74843 0.0
C104 C 0.68985 0.64455 0.75265 0.0
C105 C 0.71898 0.6189 0.77111 0.0
C106 C 0.76414 0.65157 0.78244 0.0
C107 C 0.77349 0.71399 0.77753 0.0
H108 H 0.73759 0.56595 0.98417 0.0
H109 H 0.55933 0.49526 0.96568 0.0
H110 H 0.5741 0.63865 0.01518 0.0
H111 H 0.49742 0.57668 0.02962 0.0
H112 H 0.31129 0.5715 0.0056 0.0
H113 H 0.4635 0.55723 0.95974 0.0
C114 C 0.68729 0.56813 0.98541 0.0
C115 C 0.65971 0.60678 0.00108 0.0
C116 C 0.6516 0.52825 0.97259 0.0
C117 C 0.58662 0.52793 0.97504 0.0
C118 C 0.5576 0.56818 0.99034 0.0
C119 C 0.59499 0.60757 0.00324 0.0
C120 C 0.48909 0.56698 0.99413 0.0
C121 C 0.46594 0.57346 0.01578 0.0
C122 C 0.40211 0.57528 0.01987 0.0
C123 C 0.36079 0.57011 0.00226 0.0
C124 C 0.382 0.56397 0.9805 0.0
C125 C 0.44658 0.56145 0.9765 0.0
H126 H 0.22495 0.48063 0.49634 0.0
H127 H 0.0494 0.47693 0.53032 0.0
H128 H 0.05706 0.51105 0.46037 0.0
H129 H 0.97353 0.57277 0.46907 0.0
H130 H 0.79465 0.50548 0.4876 0.0
H131 H 0.95626 0.43204 0.51987 0.0
C132 C 0.1749 0.48427 0.49623 0.0
C133 C 0.14505 0.49925 0.4764 0.0
C134 C 0.14155 0.47537 0.51589 0.0
C135 C 0.07584 0.48117 0.51522 0.0
C136 C 0.04427 0.49414 0.49522 0.0
C137 C 0.0799 0.50218 0.47594 0.0
C138 C 0.97449 0.49977 0.4941 0.0
C139 C 0.94581 0.54157 0.47899 0.0
C140 C 0.8808 0.54438 0.47709 0.0
C141 C 0.84459 0.505 0.48995 0.0
C142 C 0.87059 0.46682 0.50613 0.0
C143 C 0.93586 0.46319 0.50786 0.0
Fe144 Fe 1.01903 0.81826 0.1813 0.0
O145 O 0.02681 0.81409 0.14912 0.0
Fe146 Fe 0.95228 0.78001 0.13064 0.0
Fe147 Fe 0.09607 0.76868 0.1343 0.0
O148 O 0.02078 0.81479 0.14892 0.0
O149 O 0.02137 0.73202 0.11634 0.0
O150 O 0.028 0.73121 0.11657 0.0
Fe151 Fe 0.03367 0.72564 0.08439 0.0
C152 C 0.14552 0.86628 0.16718 0.0
O153 O 0.08374 0.74861 0.18737 0.0
O154 O 0.08944 0.69576 0.15609 0.0
O155 O 0.95212 0.67539 0.08681 0.0
O156 O 0.89011 0.737 0.10916 0.0
O157 O 0.94133 0.70676 0.15208 0.0
O158 O 0.94949 0.75352 0.1846 0.0
O159 O 0.15981 0.71343 0.11649 0.0
O160 O 0.09785 0.65824 0.0926 0.0
C161 C 0.93786 0.70594 0.17296 0.0
O162 O 0.9756 0.79874 0.07733 0.0
O163 O 0.9595 0.85172 0.10842 0.0
O164 O 0.0929 0.87588 0.17708 0.0
O165 O 0.15844 0.81866 0.15462 0.0
C166 C 0.09546 0.69897 0.17681 0.0
C167 C 0.14975 0.66755 0.10298 0.0
C168 C 0.12669 0.8304 0.0928 0.0
O169 O 0.10617 0.84019 0.11211 0.0
O170 O 0.11027 0.78305 0.08184 0.0
C171 C 0.89849 0.69475 0.09414 0.0
O172 O 0.88958 0.83869 0.14805 0.0
O173 O 0.95166 0.88321 0.17461 0.0
C174 C 0.95487 0.84587 0.08762 0.0
C175 C 0.90303 0.88248 0.16209 0.0
Fe176 Fe 0.46625 0.77794 0.43052 0.0
O177 O 0.46864 0.77227 0.39844 0.0
Fe178 Fe 0.49517 0.84776 0.37913 0.0
Fe179 Fe 0.51281 0.70506 0.38219 0.0
O180 O 0.466 0.7776 0.39797 0.0
O181 O 0.54717 0.78208 0.36453 0.0
O182 O 0.54843 0.77516 0.36469 0.0
Fe183 Fe 0.55132 0.77456 0.33228 0.0
C184 C 0.58857 0.70629 0.42395 0.0
O185 O 0.41132 0.70139 0.4268 0.0
O186 O 0.46692 0.64016 0.40244 0.0
O187 O 0.4803 0.83776 0.32682 0.0
O188 O 0.42356 0.83485 0.35723 0.0
O189 O 0.43212 0.90604 0.39697 0.0
O190 O 0.39714 0.84196 0.42492 0.0
O191 O 0.43874 0.69753 0.36101 0.0
O192 O 0.49023 0.7016 0.32921 0.0
C193 C 0.39146 0.88957 0.41198 0.0
O194 O 0.60437 0.85394 0.33634 0.0
O195 O 0.5375 0.91262 0.35798 0.0
O196 O 0.53988 0.71755 0.43528 0.0
O197 O 0.58841 0.7087 0.40301 0.0
C198 C 0.4217 0.64995 0.41635 0.0
C199 C 0.44544 0.68171 0.34097 0.0
C200 C 0.60505 0.65123 0.34751 0.0
O201 O 0.5632 0.64302 0.3627 0.0
O202 O 0.61674 0.70425 0.33799 0.0
C203 C 0.43038 0.8505 0.33718 0.0
O204 O 0.56731 0.8647 0.39977 0.0
O205 O 0.52913 0.84989 0.43355 0.0
C206 C 0.58542 0.90644 0.34484 0.0
C207 C 0.57118 0.86938 0.42048 0.0
Fe208 Fe 0.50735 0.27155 0.65846 0.0
O209 O 0.55499 0.30448 0.63295 0.0
Fe210 Fe 0.36253 0.24289 0.63889 0.0
Fe211 Fe 0.6456 0.29839 0.63231 0.0
O212 O 0.45279 0.23493 0.63566 0.0
O213 O 0.45292 0.23389 0.63335 0.0
O214 O 0.55402 0.3058 0.63071 0.0
Fe215 Fe 0.49965 0.26871 0.60732 0.0
C216 C 0.60929 0.36 0.67499 0.0
O217 O 0.5577 0.19195 0.65851 0.0
O218 O 0.6521 0.23193 0.65763 0.0
O219 O 0.43314 0.224 0.58736 0.0
O220 O 0.36077 0.1838 0.61218 0.0
O221 O 0.37639 0.17864 0.66333 0.0
O222 O 0.45236 0.22823 0.68298 0.0
O223 O 0.65066 0.22947 0.60991 0.0
O224 O 0.55621 0.18935 0.60474 0.0
C225 C 0.41087 0.18502 0.68057 0.0
O226 O 0.44268 0.34834 0.60571 0.0
O227 O 0.35102 0.30998 0.61599 0.0
O228 O 0.56855 0.31771 0.67975 0.0
O229 O 0.63872 0.36431 0.65646 0.0
C230 C 0.61493 0.18823 0.66271 0.0
C231 C 0.61549 0.18803 0.6022 0.0
C232 C 0.60833 0.346 0.58678 0.0
O233 O 0.63739 0.35563 0.60522 0.0
O234 O 0.55949 0.31088 0.584 0.0
C235 C 0.38431 0.19081 0.59251 0.0
O236 O 0.36529 0.31086 0.66386 0.0
O237 O 0.45731 0.35165 0.6582 0.0
C238 C 0.38301 0.34948 0.60556 0.0
C239 C 0.40314 0.3558 0.66591 0.0
Fe240 Fe 0.04846 0.29781 0.93552 0.0
O241 O 0.06132 0.27945 0.90409 0.0
Fe242 Fe 0.03527 0.34684 0.88073 0.0
Fe243 Fe 0.02762 0.20399 0.88943 0.0
O244 O 0.06191 0.28568 0.90369 0.0
O245 O 0.99787 0.27202 0.86665 0.0
O246 O 0.99702 0.26523 0.86712 0.0
Fe247 Fe 1.00854 0.2522 0.83538 0.0
C248 C 0.1084 0.16954 0.92968 0.0
O249 O 0.97709 0.23467 0.93985 0.0
O250 O 0.94469 0.21219 0.90605 0.0
O251 O 0.95277 0.32958 0.83196 0.0
O252 O 0.99977 0.40092 0.85481 0.0
O253 O 0.9527 0.36274 0.89651 0.0
O254 O 0.98102 0.36593 0.93183 0.0
O255 O 0.98519 0.1333 0.87079 0.0
O256 O 0.94209 0.18634 0.84131 0.0
C257 C 0.94224 0.37676 0.91644 0.0
O258 O 0.08044 0.31304 0.83093 0.0
O259 O 0.11791 0.33666 0.86394 0.0
O260 O 0.10942 0.22471 0.93817 0.0
O261 O 0.06878 0.15066 0.91488 0.0
C262 C 0.93531 0.21578 0.92667 0.0
C263 C 0.94837 0.13765 0.85378 0.0
C264 C 0.11068 0.16568 0.85352 0.0
O265 O 0.10999 0.19047 0.8725 0.0
O266 O 0.07015 0.17936 0.83909 0.0
C267 C 0.96338 0.38583 0.83858 0.0
O268 O 0.08133 0.4163 0.89873 0.0
O269 O 0.11448 0.36484 0.93007 0.0
C270 C 0.12161 0.33774 0.84303 0.0
C271 C 0.11783 0.40929 0.91569 0.0
H272 H 0.12585 0.95399 0.44539 0.0
H273 H 0.19923 0.13921 0.44509 0.0
H274 H 0.29068 0.10385 0.42464 0.0
H275 H 0.35998 1.01512 0.41417 0.0
H276 H 0.28232 0.83129 0.41347 0.0
H277 H 0.18307 0.87121 0.42637 0.0
C278 C 0.16028 0.98723 0.43994 0.0
C279 C 0.15626 0.04877 0.44732 0.0
C280 C 0.21343 0.96637 0.42842 0.0
C281 C 0.2016 0.09116 0.43997 0.0
C282 C 0.25446 0.07083 0.42846 0.0
C283 C 0.32073 0.98434 0.41614 0.0
C284 C 0.32931 0.92005 0.41346 0.0
C285 C 0.26274 1.00771 0.42374 0.0
C286 C 0.27754 0.88086 0.41594 0.0
C287 C 0.22049 0.90357 0.42335 0.0
H288 H 0.28793 1.0106 0.75005 0.0
H289 H 0.44771 0.89583 0.73553 0.0
H290 H 0.48624 0.97572 0.71002 0.0
H291 H 0.47264 0.07875 0.69152 0.0
H292 H 0.31546 0.1933 0.70893 0.0
H293 H 0.27892 0.11377 0.73454 0.0
C294 C 0.33205 1.00314 0.74177 0.0
C295 C 0.36531 0.94731 0.74512 0.0
C296 C 0.35477 0.04986 0.72793 0.0
C297 C 0.42089 0.938 0.73331 0.0
C298 C 0.44322 0.98401 0.71888 0.0
C299 C 0.43163 0.08682 0.70154 0.0
C300 C 0.39749 0.14236 0.69892 0.0
C301 C 0.41065 0.04037 0.71616 0.0
C302 C 0.34299 0.15153 0.71116 0.0
C303 C 0.32183 0.10582 0.72557 0.0
H304 H 0.298 0.97912 0.97103 0.0
H305 H 0.41016 0.14445 0.97164 0.0
H306 H 0.33176 0.19905 0.95005 0.0
H307 H 0.22561 0.20488 0.93632 0.0
H308 H 0.10894 0.04316 0.93733 0.0
H309 H 0.19472 0.98193 0.95322 0.0
C310 C 0.30558 0.02694 0.96622 0.0
C311 C 0.35957 0.05797 0.97335 0.0
C312 C 0.25899 0.05893 0.95456 0.0
C313 C 0.36943 0.11929 0.96641 0.0
C314 C 0.32415 0.15084 0.95429 0.0
C315 C 0.21896 0.15604 0.9399 0.0
C316 C 0.16063 0.12877 0.93626 0.0
C317 C 0.26783 0.12191 0.94917 0.0
C318 C 0.15322 0.06519 0.94026 0.0
C319 C 0.20218 0.03041 0.94938 0.0
H320 H 0.33016 0.04082 0.21396 0.0
H321 H 0.17692 0.16709 0.20283 0.0
H322 H 0.13234 0.09484 0.17652 0.0
H323 H 0.12412 0.98769 0.16398 0.0
H324 H 0.26824 0.85517 0.1793 0.0
H325 H 0.32949 0.93755 0.1966 0.0
C326 C 0.28738 0.05292 0.20555 0.0
C327 C 0.25592 0.10864 0.21092 0.0
C328 C 0.25995 1.00936 0.19149 0.0
C329 C 0.202 0.12464 0.1992 0.0
C330 C 0.17605 0.08289 0.18432 0.0
C331 C 0.16987 0.97731 0.17056 0.0
C332 C 0.19152 0.91558 0.17074 0.0
C333 C 0.20269 0.02389 0.18142 0.0
C334 C 0.25087 0.9024 0.179 0.0
C335 C 0.28536 0.94939 0.1891 0.0
H336 H 0.24767 0.06312 0.51338 0.0
H337 H 0.09146 0.16034 0.54235 0.0
H338 H 0.15854 0.19807 0.57172 0.0
H339 H 0.262 0.20726 0.58815 0.0
H340 H 0.42027 0.12076 0.55694 0.0
H341 H 0.352 0.07712 0.52857 0.0
C342 C 0.22812 0.09348 0.52583 0.0
C343 C 0.16428 0.10927 0.52539 0.0
C344 C 0.26749 0.11749 0.54202 0.0
C345 C 0.13995 0.14672 0.5423 0.0
C346 C 0.17847 0.16892 0.55897 0.0
C347 C 0.28143 0.1786 0.57514 0.0
C348 C 0.3457 0.1663 0.57463 0.0
C349 C 0.24228 0.15509 0.55883 0.0
C350 C 0.37087 0.13049 0.55755 0.0
C351 C 0.33183 0.10547 0.54149 0.0
H352 H 0.31583 0.9718 0.82578 0.0
H353 H 0.15403 0.87906 0.80066 0.0
H354 H 0.08676 0.95519 0.81881 0.0
H355 H 0.07516 0.05688 0.83647 0.0
H356 H 0.23586 0.15215 0.86102 0.0
H357 H 0.30281 0.06635 0.84846 0.0
C358 C 0.26575 0.96728 0.82488 0.0
C359 C 0.23992 0.92005 0.81175 0.0
C360 C 0.22748 1.01255 0.83475 0.0
C361 C 0.17505 0.91448 0.81078 0.0
C362 C 0.13662 0.95863 0.82087 0.0
C363 C 0.12483 0.05858 0.8392 0.0
C364 C 0.15097 0.1113 0.84909 0.0
C365 C 0.16251 1.00931 0.83198 0.0
C366 C 0.21499 0.11229 0.85321 0.0
C367 C 0.25309 0.06332 0.84601 0.0
H368 H 0.31901 0.02416 0.0555 0.0
H369 H 0.40972 0.856 0.03431 0.0
H370 H 0.33096 0.79418 0.05334 0.0
H371 H 0.22996 0.78858 0.07227 0.0
H372 H 0.14095 0.95608 0.09512 0.0
H373 H 0.22529 1.01802 0.07919 0.0
C374 C 0.32262 0.97398 0.05582 0.0
C375 C 0.37026 0.94443 0.04378 0.0
C376 C 0.27674 0.9389 0.0666 0.0
C377 C 0.37413 0.87951 0.04386 0.0
C378 C 0.32862 0.84426 0.05447 0.0
C379 C 0.22928 0.83866 0.07385 0.0
C380 C 0.17877 0.86805 0.08436 0.0
C381 C 0.27861 0.87352 0.06522 0.0
C382 C 0.17903 0.93271 0.08683 0.0
C383 C 0.22727 0.96797 0.07778 0.0
H384 H 0.2464 0.03681 0.28999 0.0
H385 H 0.41213 0.14798 0.28975 0.0
H386 H 0.46645 0.06886 0.31134 0.0
H387 H 0.47048 0.96281 0.32568 0.0
H388 H 0.30488 0.85258 0.32871 0.0
H389 H 0.24621 0.93625 0.31028 0.0
C390 C 0.29381 0.04431 0.2953 0.0
C391 C 0.32542 0.09805 0.28832 0.0
C392 C 0.32481 0.99834 0.30767 0.0
C393 C 0.38681 0.10741 0.29516 0.0
C394 C 0.41805 0.06182 0.30725 0.0
C395 C 0.42127 0.95772 0.32279 0.0
C396 C 0.39204 0.90173 0.32832 0.0
C397 C 0.38812 1.00635 0.31289 0.0
C398 C 0.32825 0.8953 0.32444 0.0
C399 C 0.29492 0.94308 0.31394 0.0
H400 H 0.73524 0.07392 0.51739 0.0
H401 H 0.89901 0.08114 0.55828 0.0
H402 H 0.83518 0.11602 0.5893 0.0
H403 H 0.73369 0.14615 0.60455 0.0
H404 H 0.56989 0.13793 0.56395 0.0
H405 H 0.6326 0.09647 0.53348 0.0
C406 C 0.75727 0.08189 0.53315 0.0
C407 C 0.82246 0.07427 0.53534 0.0
C408 C 0.71994 0.09989 0.55115 0.0
C409 C 0.84955 0.08723 0.55584 0.0
C410 C 0.81282 0.10631 0.57372 0.0
C411 C 0.7113 0.13385 0.58919 0.0
C412 C 0.64689 0.14491 0.58661 0.0
C413 C 0.74806 0.11255 0.57156 0.0
C414 C 0.61886 0.12886 0.56659 0.0
C415 C 0.65506 0.10638 0.54902 0.0
H416 H 0.65435 0.15567 0.29757 0.0
H417 H 0.8148 0.04658 0.2795 0.0
H418 H 0.78333 0.96468 0.30493 0.0
H419 H 0.70055 0.91678 0.32671 0.0
H420 H 0.54077 0.02601 0.34586 0.0
H421 H 0.58174 0.1151 0.32583 0.0
C422 C 0.68354 0.11503 0.29992 0.0
C423 C 0.73631 0.1066 0.28657 0.0
C424 C 0.66437 0.0674 0.31427 0.0
C425 C 0.77379 0.05368 0.2896 0.0
C426 C 0.75549 1.00662 0.30395 0.0
C427 C 0.67507 0.96032 0.3268 0.0
C428 C 0.61637 0.96373 0.33695 0.0
C429 C 0.6992 1.01164 0.31546 0.0
C430 C 0.58517 0.02127 0.33759 0.0
C431 C 0.60864 0.07247 0.32617 0.0
H432 H 0.78678 0.9698 0.01617 0.0
H433 H 0.65602 0.97497 0.07009 0.0
H434 H 0.73478 0.92965 0.09465 0.0
H435 H 0.84204 0.88989 0.1006 0.0
H436 H 0.97127 0.88817 0.04616 0.0
H437 H 0.89273 0.93436 0.02218 0.0
C438 C 0.77546 0.96141 0.03335 0.0
C439 C 0.71579 0.9763 0.04135 0.0
C440 C 0.8213 0.93777 0.04738 0.0
C441 C 0.70144 0.9635 0.06349 0.0
C442 C 0.74673 0.93847 0.07757 0.0
C443 C 0.85335 0.90145 0.08366 0.0
C444 C 0.91267 0.88689 0.07519 0.0
C445 C 0.80717 0.9263 0.06976 0.0
C446 C 0.92626 0.90001 0.05305 0.0
C447 C 0.88117 0.92559 0.0393 0.0
H448 H 0.77836 0.9326 0.8134 0.0
H449 H 0.90453 0.96329 0.75915 0.0
H450 H 0.9687 0.02923 0.78221 0.0
H451 H 0.98137 0.08823 0.81583 0.0
H452 H 0.85533 0.06373 0.87028 0.0
H453 H 0.7987 0.98434 0.84935 0.0
C454 C 0.82047 0.95307 0.80687 0.0
C455 C 0.83642 0.94422 0.78458 0.0
C456 C 0.85672 0.99196 0.82019 0.0
C457 C 0.89101 0.9706 0.77617 0.0
C458 C 0.92772 1.00805 0.78933 0.0
C459 C 0.9425 0.06411 0.82332 0.0
C460 C 0.92231 0.08101 0.84442 0.0
C461 C 0.90995 0.02047 0.81107 0.0
C462 C 0.8717 0.05055 0.85405 0.0
C463 C 0.83918 1.00581 0.84201 0.0
H464 H 0.81779 1.00782 0.44581 0.0
H465 H 0.82458 0.86157 0.49414 0.0
H466 H 0.73075 0.81563 0.47869 0.0
H467 H 0.63909 0.82584 0.45463 0.0
H468 H 0.63442 0.96908 0.40513 0.0
H469 H 0.73391 1.00904 0.4182 0.0
C470 C 0.80024 0.96429 0.45222 0.0
C471 C 0.82823 0.93753 0.47084 0.0
C472 C 0.74511 0.93945 0.4437 0.0
C473 C 0.80432 0.88206 0.47949 0.0
C474 C 0.74997 0.85661 0.47096 0.0
C475 C 0.6601 0.86562 0.44675 0.0
C476 C 0.62909 0.89539 0.42935 0.0
C477 C 0.7185 0.88653 0.45372 0.0
C478 C 0.65709 0.94626 0.41888 0.0
C479 C 0.71418 0.96867 0.42618 0.0
H480 H 0.83407 0.14423 0.19347 0.0
H481 H 0.66692 0.05089 0.21364 0.0
H482 H 0.69524 0.96093 0.19138 0.0
H483 H 0.78058 0.90014 0.17388 0.0
H484 H 0.94582 0.99565 0.15304 0.0
H485 H 0.90471 0.09322 0.16718 0.0
C486 C 0.80238 0.10552 0.19216 0.0
C487 C 0.74959 0.10351 0.20577 0.0
C488 C 0.81936 0.05339 0.17948 0.0
C489 C 0.70875 0.05297 0.2037 0.0
C490 C 0.72515 1.00115 0.19109 0.0
C491 C 0.80606 0.94288 0.17154 0.0
C492 C 0.86642 0.94066 0.16273 0.0
C493 C 0.78237 0.99924 0.18006 0.0
C494 C 0.89929 0.99633 0.15992 0.0
C495 C 0.87606 0.05216 0.16817 0.0
H496 H 0.68646 0.08489 0.9562 0.0
H497 H 0.71383 0.20109 0.01288 0.0
H498 H 0.80236 0.25057 0.9949 0.0
H499 H 0.88161 0.24829 0.96572 0.0
H500 H 0.85215 0.13649 0.9079 0.0
H501 H 0.75571 0.09683 0.92378 0.0
C502 C 0.71001 0.12314 0.9641 0.0
C503 C 0.69345 0.13971 0.98575 0.0
C504 C 0.76197 0.1504 0.95382 0.0
C505 C 0.72524 0.18832 0.99608 0.0
C506 C 0.77659 0.21575 0.98597 0.0
C507 C 0.85355 0.21618 0.95638 0.0
C508 C 0.87455 0.1951 0.93572 0.0
C509 C 0.79707 0.1951 0.96528 0.0
C510 C 0.83739 0.15338 0.92388 0.0
C511 C 0.78203 0.13077 0.93293 0.0
H512 H 0.64195 0.98146 0.73527 0.0
H513 H 0.79093 0.92058 0.69306 0.0
H514 H 0.76702 1.00447 0.66682 0.0
H515 H 0.70745 0.10083 0.65746 0.0
H516 H 0.56135 0.16125 0.70131 0.0
H517 H 0.58063 0.07293 0.72546 0.0
C518 C 0.66773 0.98551 0.71994 0.0
C519 C 0.71689 0.94427 0.71571 0.0
C520 C 0.65537 0.03508 0.70559 0.0
C521 C 0.75162 0.95089 0.69623 0.0
C522 C 0.73864 0.99948 0.68149 0.0
C523 C 0.68067 0.09476 0.67246 0.0
C524 C 0.6336 0.13776 0.6778 0.0
C525 C 0.69164 0.04303 0.68629 0.0
C526 C 0.59813 0.12891 0.69701 0.0
C527 C 0.60884 0.07825 0.71075 0.0
H528 H 0.70936 0.54776 0.93365 0.0
H529 H 0.67559 0.4092 0.98336 0.0
H530 H 0.76413 0.34819 0.96999 0.0
H531 H 0.86027 0.34339 0.94786 0.0
H532 H 0.89105 0.47773 0.89655 0.0
H533 H 0.79511 0.53239 0.90693 0.0
C534 C 0.71985 0.50279 0.94082 0.0
C535 C 0.6859 0.48238 0.95924 0.0
C536 C 0.77148 0.46867 0.93328 0.0
C537 C 0.70045 0.4249 0.96886 0.0
C538 C 0.75173 0.39069 0.96149 0.0
C539 C 0.84529 0.38403 0.93883 0.0
C540 C 0.88281 0.40735 0.92184 0.0
C541 C 0.78913 0.41359 0.94437 0.0
C542 C 0.86297 0.45962 0.90991 0.0
C543 C 0.80813 0.49061 0.91578 0.0
H544 H 0.91001 0.47625 0.23595 0.0
H545 H 0.78293 0.41799 0.18557 0.0
H546 H 0.81593 0.50483 0.16202 0.0
H547 H 0.86885 0.60704 0.15868 0.0
H548 H 0.98164 0.67065 0.21272 0.0
H549 H 0.96531 0.57338 0.23214 0.0
C550 C 0.89085 0.48164 0.21952 0.0
C551 C 0.84403 0.4411 0.2125 0.0
C552 C 0.90583 0.53426 0.20712 0.0
C553 C 0.81944 0.44831 0.19124 0.0
C554 C 0.83743 0.49871 0.17801 0.0
C555 C 0.88973 0.59938 0.1747 0.0
C556 C 0.92551 0.64654 0.18441 0.0
C557 C 0.87833 0.54371 0.18626 0.0
C558 C 0.95262 0.6359 0.20512 0.0
C559 C 0.94392 0.57995 0.21615 0.0
H560 H 0.79947 0.63035 0.49055 0.0
H561 H 0.88257 0.55469 0.43186 0.0
H562 H 0.80105 0.6039 0.40933 0.0
H563 H 0.69705 0.65524 0.40737 0.0
H564 H 0.6106 0.71799 0.46775 0.0
H565 H 0.70154 0.68648 0.4885 0.0
C566 C 0.80073 0.62629 0.47273 0.0
C567 C 0.8469 0.58924 0.46284 0.0
C568 C 0.75177 0.65092 0.46025 0.0
C569 C 0.84794 0.5837 0.4398 0.0
C570 C 0.80066 0.61092 0.427 0.0
C571 C 0.6984 0.66247 0.42503 0.0
C572 C 0.64643 0.68871 0.43591 0.0
C573 C 0.75076 0.64239 0.43718 0.0
C574 C 0.64922 0.69746 0.45886 0.0
C575 C 0.7015 0.67971 0.47081 0.0
H576 H 0.74484 0.54053 0.73842 0.0
H577 H 0.57746 0.64881 0.73011 0.0
H578 H 0.53522 0.56761 0.70593 0.0
H579 H 0.54749 0.46454 0.68738 0.0
H580 H 0.71381 0.35708 0.69871 0.0
H581 H 0.75445 0.43863 0.72241 0.0
C582 C 0.69858 0.54629 0.73163 0.0
C583 C 0.66383 0.60018 0.73638 0.0
C584 C 0.67425 0.499 0.71869 0.0
C585 C 0.60507 0.60777 0.72672 0.0
C586 C 0.58081 0.5611 0.71312 0.0
C587 C 0.59168 0.45861 0.69566 0.0
C588 C 0.62725 0.40456 0.69195 0.0
C589 C 0.61486 0.50614 0.70919 0.0
C590 C 0.68551 0.39787 0.70184 0.0
C591 C 0.70885 0.44463 0.71515 0.0
H592 H 0.65748 0.60228 0.04581 0.0
H593 H 0.75441 0.68393 0.99075 0.0
H594 H 0.83642 0.71959 0.01528 0.0
H595 H 0.88556 0.71795 0.05148 0.0
H596 H 0.79015 0.63871 0.10716 0.0
H597 H 0.70216 0.61107 0.08334 0.0
C598 C 0.69574 0.62939 0.03936 0.0
C599 C 0.7003 0.64039 0.01655 0.0
C600 C 0.74343 0.64858 0.05354 0.0
C601 C 0.75029 0.6749 0.00826 0.0
C602 C 0.79729 0.69482 0.02223 0.0
C603 C 0.84543 0.69442 0.05832 0.0
C604 C 0.84449 0.67846 0.08073 0.0
C605 C 0.79533 0.68002 0.0447 0.0
C606 C 0.79184 0.65011 0.08978 0.0
C607 C 0.74172 0.63467 0.0762 0.0
H608 H 0.65709 0.41016 0.29246 0.0
H609 H 0.83452 0.4994 0.28399 0.0
H610 H 0.80359 0.58117 0.30929 0.0
H611 H 0.72102 0.63485 0.33008 0.0
H612 H 0.54906 0.53962 0.34272 0.0
H613 H 0.58313 0.45291 0.3199 0.0
C614 C 0.6896 0.44647 0.2966 0.0
C615 C 0.74696 0.44988 0.28554 0.0
C616 C 0.6722 0.49306 0.31172 0.0
C617 C 0.78891 0.49693 0.29152 0.0
C618 C 0.77145 0.5438 0.30607 0.0
C619 C 0.69161 0.59458 0.32815 0.0
C620 C 0.63206 0.5945 0.33756 0.0
C621 C 0.71228 0.54372 0.31559 0.0
C622 C 0.59491 0.54134 0.33537 0.0
C623 C 0.61427 0.4916 0.32227 0.0
H624 H 0.76331 0.51114 0.52375 0.0
H625 H 0.88024 0.34774 0.52274 0.0
H626 H 0.804 0.2928 0.54557 0.0
H627 H 0.70505 0.2929 0.56649 0.0
H628 H 0.58834 0.45582 0.56613 0.0
H629 H 0.66208 0.50851 0.54168 0.0
C630 C 0.77189 0.46302 0.52806 0.0
C631 C 0.82739 0.43344 0.52126 0.0
C632 C 0.72711 0.43136 0.54038 0.0
C633 C 0.83838 0.37187 0.52785 0.0
C634 C 0.79441 0.34024 0.54065 0.0
C635 C 0.69503 0.33921 0.56036 0.0
C636 C 0.64092 0.3703 0.56746 0.0
C637 C 0.73855 0.36953 0.54692 0.0
C638 C 0.62888 0.4308 0.56023 0.0
C639 C 0.67151 0.46107 0.54663 0.0
H640 H 0.83252 0.55579 0.76896 0.0
H641 H 0.79501 0.66796 0.8261 0.0
H642 H 0.85893 0.59757 0.84883 0.0
H643 H 0.91737 0.49784 0.85258 0.0
H644 H 0.94694 0.38522 0.79472 0.0
H645 H 0.89397 0.46192 0.77206 0.0
C646 C 0.83869 0.56496 0.78639 0.0
C647 C 0.80864 0.61595 0.79604 0.0
C648 C 0.87352 0.52387 0.79918 0.0
C649 C 0.81771 0.62852 0.81846 0.0
C650 C 0.85383 0.58816 0.8314 0.0
C651 C 0.91259 0.49072 0.83499 0.0
C652 C 0.93511 0.4357 0.82534 0.0
C653 C 0.88072 0.53472 0.82201 0.0
C654 C 0.92889 0.42672 0.80255 0.0
C655 C 0.8989 0.4706 0.78956 0.0
H656 H 0.31506 0.50936 0.04162 0.0
H657 H 0.43198 0.6698 0.04755 0.0
H658 H 0.37003 0.70643 0.07886 0.0
H659 H 0.26959 0.70406 0.09839 0.0
H660 H 0.1485 0.54742 0.08979 0.0
H661 H 0.22546 0.49734 0.06613 0.0
C662 C 0.32779 0.55148 0.0502 0.0
C663 C 0.37701 0.58749 0.04216 0.0
C664 C 0.29059 0.57333 0.06751 0.0
C665 C 0.39402 0.64148 0.05348 0.0
C666 C 0.35822 0.66272 0.07121 0.0
C667 C 0.26108 0.65802 0.09196 0.0
C668 C 0.20305 0.62995 0.0954 0.0
C669 C 0.30441 0.63076 0.07754 0.0
C670 C 0.19256 0.57024 0.08705 0.0
C671 C 0.23635 0.54177 0.07342 0.0
H672 H 0.24374 0.51013 0.77412 0.0
H673 H 0.27871 0.6259 0.83064 0.0
H674 H 0.23215 0.54634 0.85457 0.0
H675 H 0.17925 0.44317 0.85877 0.0
H676 H 0.16263 0.32625 0.80136 0.0
H677 H 0.21013 0.40551 0.77868 0.0
C678 C 0.24437 0.51783 0.79176 0.0
C679 C 0.26692 0.57401 0.8004 0.0
C680 C 0.22193 0.47078 0.80537 0.0
C681 C 0.26203 0.5835 0.8233 0.0
C682 C 0.23607 0.53755 0.83705 0.0
C683 C 0.18791 0.4344 0.84144 0.0
C684 C 0.16654 0.3789 0.83173 0.0
C685 C 0.21599 0.48067 0.82824 0.0
C686 C 0.17789 0.36854 0.80924 0.0
C687 C 0.20458 0.41411 0.79617 0.0
H688 H 0.2611 0.50799 0.52875 0.0
H689 H 0.10141 0.40261 0.5503 0.0
H690 H 0.16032 0.36414 0.58154 0.0
H691 H 0.25813 0.35063 0.60032 0.0
H692 H 0.42399 0.44022 0.57616 0.0
H693 H 0.36135 0.49389 0.54804 0.0
C694 C 0.23892 0.47585 0.53997 0.0
C695 C 0.17619 0.45791 0.53659 0.0
C696 C 0.27439 0.45065 0.55739 0.0
C697 C 0.14869 0.41837 0.55224 0.0
C698 C 0.18277 0.39557 0.5701 0.0
C699 C 0.28135 0.38226 0.58914 0.0
C700 C 0.34644 0.39093 0.5905 0.0
C701 C 0.24586 0.41015 0.57248 0.0
C702 C 0.37435 0.43256 0.57569 0.0
C703 C 0.33844 0.4629 0.55951 0.0
H704 H 0.25713 0.47768 0.30892 0.0
H705 H 0.42201 0.41319 0.27544 0.0
H706 H 0.48279 0.49503 0.29281 0.0
H707 H 0.48568 0.59185 0.31371 0.0
H708 H 0.32368 0.65349 0.34958 0.0
H709 H 0.26409 0.56653 0.33459 0.0
C710 C 0.30677 0.48059 0.30602 0.0
C711 C 0.33529 0.43964 0.29098 0.0
C712 C 0.34111 0.52825 0.31585 0.0
C713 C 0.39943 0.44373 0.28717 0.0
C714 C 0.43387 0.49109 0.29681 0.0
C715 C 0.43744 0.58603 0.31839 0.0
C716 C 0.40863 0.62959 0.33236 0.0
C717 C 0.40463 0.53484 0.3105 0.0
C718 C 0.34644 0.62097 0.33859 0.0
C719 C 0.31262 0.57115 0.33013 0.0
H720 H 0.37998 0.48168 0.94629 0.0
H721 H 0.27716 0.63397 0.97477 0.0
H722 H 0.1856 0.60596 0.95356 0.0
H723 H 0.12925 0.52513 0.93296 0.0
H724 H 0.23255 0.3746 0.90387 0.0
H725 H 0.32935 0.41567 0.91863 0.0
C726 C 0.33831 0.51007 0.94724 0.0
C727 C 0.33482 0.55844 0.96267 0.0
C728 C 0.28544 0.49358 0.93499 0.0
C729 C 0.28046 0.59514 0.96353 0.0
C730 C 0.22795 0.57921 0.95139 0.0
C731 C 0.17338 0.50318 0.92906 0.0
C732 C 0.17414 0.44719 0.91738 0.0
C733 C 0.22888 0.52655 0.93796 0.0
C734 C 0.23129 0.4182 0.91271 0.0
C735 C 0.28655 0.44128 0.92135 0.0
H736 H 0.42944 0.54729 0.74287 0.0
H737 H 0.2852 0.64295 0.70717 0.0
H738 H 0.29001 0.56387 0.6781 0.0
H739 H 0.32834 0.46017 0.66489 0.0
H740 H 0.46297 0.3613 0.70422 0.0
H741 H 0.46664 0.44685 0.7303 0.0
C742 C 0.39986 0.55152 0.72848 0.0
C743 C 0.35697 0.60094 0.72724 0.0
C744 C 0.39918 0.50346 0.71297 0.0
C745 C 0.31925 0.60595 0.70844 0.0
C746 C 0.321 0.55985 0.69207 0.0
C747 C 0.35728 0.45715 0.67945 0.0
C748 C 0.39436 0.40394 0.68294 0.0
C749 C 0.35904 0.50697 0.6946 0.0
C750 C 0.43309 0.40119 0.70149 0.0
C751 C 0.43579 0.45041 0.71626 0.0
H752 H 0.25627 0.45167 0.46144 0.0
H753 H 0.11948 0.59431 0.44807 0.0
H754 H 0.19184 0.64605 0.42356 0.0
H755 H 0.29947 0.66357 0.41286 0.0
H756 H 0.44084 0.52926 0.42925 0.0
H757 H 0.3617 0.46156 0.44571 0.0
C758 C 0.24204 0.49371 0.45298 0.0
C759 C 0.18284 0.51978 0.45714 0.0
C760 C 0.28522 0.52534 0.43976 0.0
C761 C 0.16447 0.57294 0.44531 0.0
C762 C 0.2062 0.60316 0.43145 0.0
C763 C 0.31254 0.61859 0.41952 0.0
C764 C 0.37546 0.60139 0.42024 0.0
C765 C 0.26749 0.58166 0.42959 0.0
C766 C 0.39243 0.5431 0.4286 0.0
C767 C 0.34728 0.50488 0.43817 0.0
H768 H 0.27075 0.51854 0.22897 0.0
H769 H 0.11664 0.39369 0.22128 0.0
H770 H 0.06318 0.47128 0.19818 0.0
H771 H 0.05802 0.57873 0.18244 0.0
H772 H 0.2068 0.7057 0.19618 0.0
H773 H 0.26433 0.62361 0.21514 0.0
C774 C 0.22505 0.50816 0.22251 0.0
C775 C 0.19723 0.45068 0.22733 0.0
C776 C 0.19352 0.55389 0.21052 0.0
C777 C 0.1392 0.43745 0.21793 0.0
C778 C 0.10842 0.48209 0.2049 0.0
C779 C 0.10286 0.58811 0.18975 0.0
C780 C 0.12825 0.64808 0.18817 0.0
C781 C 0.13461 0.54109 0.20149 0.0
C782 C 0.18642 0.65999 0.19745 0.0
C783 C 0.2193 0.61309 0.20818 0.0
loop_
_geom_bond_atom_site_label_1
_geom_bond_atom_site_label_2
_geom_bond_distance
_geom_bond_site_symmetry_2
_ccdc_geom_bond_type
H0 C6 0.930 . S
H1 C9 0.931 . S
H2 C11 0.931 . S
H3 C13 0.930 . S
H4 C15 0.930 . S
H5 C17 0.931 . S
C6 H0 0.930 . S
C6 C7 1.380 1_545 S
C6 C8 1.394 . S
C7 C6 1.380 1_565 S
C7 C11 1.382 . S
C8 C6 1.394 . S
C8 C9 1.400 . S
C9 H1 0.931 . S
C9 C8 1.400 . S
C9 C10 1.375 . S
C10 C9 1.375 . S
C10 C11 1.415 1_545 S
C10 C12 1.501 1_655 S
C11 H2 0.931 . S
C11 C7 1.382 . S
C11 C10 1.415 1_565 S
C12 C10 1.501 1_455 S
C12 C13 1.384 1_545 S
C12 C17 1.408 . S
C13 H3 0.930 . S
C13 C12 1.384 1_565 S
C13 C14 1.389 . S
C14 C13 1.389 . S
C14 C15 1.405 1_565 S
C15 H4 0.930 . S
C15 C14 1.405 1_545 S
C15 C16 1.364 . S
C16 C15 1.364 . S
C16 C17 1.400 . S
C17 H5 0.931 . S
C17 C12 1.408 . S
C17 C16 1.400 . S
H18 C24 0.930 . S
H19 C27 0.931 . S
H20 C29 0.931 . S
H21 C31 0.930 . S
H22 C33 0.930 . S
H23 C35 0.931 . S
C24 H18 0.930 . S
C24 C25 1.380 . S
C24 C26 1.394 . S
C25 C24 1.380 . S
C25 C29 1.382 . S
C26 C24 1.394 . S
C26 C27 1.400 . S
C27 H19 0.931 . S
C27 C26 1.400 . S
C27 C28 1.375 . S
C28 C27 1.375 . S
C28 C29 1.415 . S
C28 C30 1.501 . S
C29 H20 0.931 . S
C29 C25 1.382 . S
C29 C28 1.415 . S
C30 C28 1.501 . S
C30 C31 1.384 . S
C30 C35 1.408 . S
C31 H21 0.930 . S
C31 C30 1.384 . S
C31 C32 1.389 . S
C32 C31 1.389 . S
C32 C33 1.405 . S
C33 H22 0.930 . S
C33 C32 1.405 . S
C33 C34 1.364 . S
C34 C33 1.364 . S
C34 C35 1.400 . S
C35 H23 0.931 . S
C35 C30 1.408 . S
C35 C34 1.400 . S
H36 C42 0.930 . S
H37 C45 0.931 . S
H38 C47 0.931 . S
H39 C49 0.930 . S
H40 C51 0.930 . S
H41 C53 0.931 . S
C42 H36 0.930 . S
C42 C43 1.377 1_564 S
C42 C44 1.397 . S
C43 C42 1.377 1_546 S
C43 C47 1.382 . S
C44 C42 1.397 . S
C44 C45 1.400 . S
C45 H37 0.931 . S
C45 C44 1.400 . S
C45 C46 1.375 1_565 S
C46 C45 1.375 1_545 S
C46 C47 1.415 1_554 S
C46 C48 1.501 . S
C47 H38 0.931 . S
C47 C43 1.382 . S
C47 C46 1.415 1_556 S
C48 C46 1.501 . S
C48 C49 1.384 1_554 S
C48 C53 1.408 1_545 S
C49 H39 0.930 . S
C49 C48 1.384 1_556 S
C49 C50 1.389 . S
C50 C49 1.389 . S
C50 C51 1.405 1_556 S
C51 H40 0.930 . S
C51 C50 1.405 1_554 S
C51 C52 1.364 1_545 S
C52 C51 1.364 1_565 S
C52 C53 1.400 . S
C53 H41 0.931 . S
C53 C48 1.408 1_565 S
C53 C52 1.400 . S
H54 C60 0.930 . S
H55 C63 0.931 . S
H56 C65 0.931 . S
H57 C67 0.930 . S
H58 C69 0.930 . S
H59 C71 0.931 . S
C60 H54 0.930 . S
C60 C61 1.380 . S
C60 C62 1.394 . S
C61 C60 1.380 . S
C61 C65 1.382 . S
C62 C60 1.394 . S
C62 C63 1.400 . S
C63 H55 0.931 . S
C63 C62 1.400 . S
C63 C64 1.375 . S
C64 C63 1.375 . S
C64 C65 1.415 . S
C64 C66 1.501 . S
C65 H56 0.931 . S
C65 C61 1.382 . S
C65 C64 1.415 . S
C66 C64 1.501 . S
C66 C67 1.384 . S
C66 C71 1.408 . S
C67 H57 0.930 . S
C67 C66 1.384 . S
C67 C68 1.389 . S
C68 C67 1.389 . S
C68 C69 1.405 . S
C69 H58 0.930 . S
C69 C68 1.405 . S
C69 C70 1.364 . S
C70 C69 1.364 . S
C70 C71 1.400 . S
C71 H59 0.931 . S
C71 C66 1.408 . S
C71 C70 1.400 . S
H72 C78 0.930 . S
H73 C81 0.931 . S
H74 C83 0.931 . S
H75 C85 0.930 . S
H76 C87 0.930 . S
H77 C89 0.931 . S
C78 H72 0.930 . S
C78 C79 1.380 . S
C78 C80 1.394 . S
C79 C78 1.380 . S
C79 C83 1.382 . S
C80 C78 1.394 . S
C80 C81 1.400 . S
C81 H73 0.931 . S
C81 C80 1.400 . S
C81 C82 1.375 . S
C82 C81 1.375 . S
C82 C83 1.415 . S
C82 C84 1.501 . S
C83 H74 0.931 . S
C83 C79 1.382 . S
C83 C82 1.415 . S
C84 C82 1.501 . S
C84 C85 1.384 . S
C84 C89 1.408 . S
C85 H75 0.930 . S
C85 C84 1.384 . S
C85 C86 1.389 . S
C86 C85 1.389 . S
C86 C87 1.405 . S
C87 H76 0.930 . S
C87 C86 1.405 . S
C87 C88 1.364 . S
C88 C87 1.364 . S
C88 C89 1.400 . S
C89 H77 0.931 . S
C89 C84 1.408 . S
C89 C88 1.400 . S
H90 C96 0.930 . S
H91 C99 0.931 . S
H92 C101 0.931 . S
H93 C103 0.930 . S
H94 C105 0.930 . S
H95 C107 0.931 . S
C96 H90 0.930 . S
C96 C97 1.380 . S
C96 C98 1.394 . S
C97 C96 1.380 . S
C97 C101 1.382 . S
C98 C96 1.394 . S
C98 C99 1.400 . S
C99 H91 0.931 . S
C99 C98 1.400 . S
C99 C100 1.375 . S
C100 C99 1.375 . S
C100 C101 1.415 . S
C100 C102 1.501 . S
C101 H92 0.931 . S
C101 C97 1.382 . S
C101 C100 1.415 . S
C102 C100 1.501 . S
C102 C103 1.384 . S
C102 C107 1.408 . S
C103 H93 0.930 . S
C103 C102 1.384 . S
C103 C104 1.389 . S
C104 C103 1.389 . S
C104 C105 1.405 . S
C105 H94 0.930 . S
C105 C104 1.405 . S
C105 C106 1.364 . S
C106 C105 1.364 . S
C106 C107 1.400 . S
C107 H95 0.931 . S
C107 C102 1.408 . S
C107 C106 1.400 . S
H108 C114 0.930 . S
H109 C117 0.931 . S
H110 C119 0.931 . S
H111 C121 0.930 . S
H112 C123 0.930 . S
H113 C125 0.931 . S
C114 H108 0.930 . S
C114 C115 1.380 . S
C114 C116 1.394 1_554 S
C115 C114 1.380 . S
C115 C119 1.382 . S
C116 C114 1.394 1_556 S
C116 C117 1.400 . S
C117 H109 0.931 . S
C117 C116 1.400 . S
C117 C118 1.375 1_556 S
C118 C117 1.375 1_554 S
C118 C119 1.415 . S
C118 C120 1.501 . S
C119 H110 0.931 . S
C119 C115 1.382 . S
C119 C118 1.415 . S
C120 C118 1.501 . S
C120 C121 1.384 . S
C120 C125 1.408 1_554 S
C121 H111 0.930 . S
C121 C120 1.384 . S
C121 C122 1.389 . S
C122 C121 1.389 . S
C122 C123 1.405 . S
C123 H112 0.930 . S
C123 C122 1.405 . S
C123 C124 1.364 1_554 S
C124 C123 1.364 1_556 S
C124 C125 1.400 . S
C125 H113 0.931 . S
C125 C120 1.408 1_556 S
C125 C124 1.400 . S
H126 C132 0.930 . S
H127 C135 0.931 . S
H128 C137 0.931 . S
H129 C139 0.930 . S
H130 C141 0.930 . S
H131 C143 0.931 . S
C132 H126 0.930 . S
C132 C133 1.380 . S
C132 C134 1.394 . S
C133 C132 1.380 . S
C133 C137 1.382 . S
C134 C132 1.394 . S
C134 C135 1.400 . S
C135 H127 0.931 . S
C135 C134 1.400 . S
C135 C136 1.375 . S
C136 C135 1.375 . S
C136 C137 1.415 . S
C136 C138 1.501 1_455 S
C137 H128 0.931 . S
C137 C133 1.382 . S
C137 C136 1.415 . S
C138 C136 1.501 1_655 S
C138 C139 1.384 . S
C138 C143 1.408 . S
C139 H129 0.930 . S
C139 C138 1.384 . S
C139 C140 1.389 . S
C140 C139 1.389 . S
C140 C141 1.405 . S
C141 H130 0.930 . S
C141 C140 1.405 . S
C141 C142 1.364 . S
C142 C141 1.364 . S
C142 C143 1.400 . S
C143 H131 0.931 . S
C143 C138 1.408 . S
C143 C142 1.400 . S
Fe144 O145 1.886 . S
Fe144 O148 1.715 1_455 S
Fe144 O153 2.077 . S
Fe144 O158 1.935 1_455 S
Fe144 O164 2.077 . S
Fe144 O173 1.935 1_455 S
O145 Fe144 1.886 . S
O145 Fe147 1.715 . S
Fe146 O148 1.886 . S
Fe146 O149 1.715 . S
Fe146 O156 1.935 . S
Fe146 O157 2.077 . S
Fe146 O163 1.935 . S
Fe146 O172 2.077 . S
Fe147 O145 1.715 . S
Fe147 O150 1.886 . S
Fe147 O154 1.935 . S
Fe147 O159 2.077 . S
Fe147 O165 1.935 . S
Fe147 O169 2.077 . S
O148 Fe144 1.715 1_655 S
O148 Fe146 1.886 . S
O149 Fe146 1.715 . S
O149 Fe151 1.886 . S
O150 Fe147 1.886 . S
O150 Fe151 1.715 1_455 S
Fe151 O149 1.886 . S
Fe151 O150 1.715 1_655 S
Fe151 O155 2.077 . S
Fe151 O160 1.935 1_655 S
Fe151 O162 2.077 . S
Fe151 O170 1.935 1_655 S
C152 O164 1.381 . S
C152 O165 1.421 . S
O153 Fe144 2.077 . S
O153 C166 1.381 . S
O154 Fe147 1.935 . S
O154 C166 1.421 . S
O155 Fe151 2.077 . S
O155 C171 1.381 . S
O156 Fe146 1.935 . S
O156 C171 1.421 . S
O157 Fe146 2.077 . S
O157 C161 1.381 . S
O158 Fe144 1.935 1_655 S
O158 C161 1.421 . S
O159 Fe147 2.077 . S
O159 C167 1.381 . S
O160 Fe151 1.935 1_455 S
O160 C167 1.421 . S
C161 O157 1.381 . S
C161 O158 1.421 . S
O162 Fe151 2.077 . S
O162 C174 1.381 . S
O163 Fe146 1.935 . S
O163 C174 1.421 . S
O164 Fe144 2.077 . S
O164 C152 1.381 . S
O165 Fe147 1.935 . S
O165 C152 1.421 . S
C166 O153 1.381 . S
C166 O154 1.421 . S
C167 O159 1.381 . S
C167 O160 1.421 . S
C168 O169 1.381 . S
C168 O170 1.421 . S
O169 Fe147 2.077 . S
O169 C168 1.381 . S
O170 Fe151 1.935 1_455 S
O170 C168 1.421 . S
C171 O155 1.381 . S
C171 O156 1.421 . S
O172 Fe146 2.077 . S
O172 C175 1.381 . S
O173 Fe144 1.935 1_655 S
O173 C175 1.421 . S
C174 O162 1.381 . S
C174 O163 1.421 . S
C175 O172 1.381 . S
C175 O173 1.421 . S
Fe176 O177 1.886 . S
Fe176 O180 1.715 . S
Fe176 O185 2.077 . S
Fe176 O190 1.935 . S
Fe176 O196 2.077 . S
Fe176 O205 1.935 . S
O177 Fe176 1.886 . S
O177 Fe179 1.715 . S
Fe178 O180 1.886 . S
Fe178 O181 1.715 . S
Fe178 O188 1.935 . S
Fe178 O189 2.077 . S
Fe178 O195 1.935 . S
Fe178 O204 2.077 . S
Fe179 O177 1.715 . S
Fe179 O182 1.886 . S
Fe179 O186 1.935 . S
Fe179 O191 2.077 . S
Fe179 O197 1.935 . S
Fe179 O201 2.077 . S
O180 Fe176 1.715 . S
O180 Fe178 1.886 . S
O181 Fe178 1.715 . S
O181 Fe183 1.886 . S
O182 Fe179 1.886 . S
O182 Fe183 1.715 . S
Fe183 O181 1.886 . S
Fe183 O182 1.715 . S
Fe183 O187 2.077 . S
Fe183 O192 1.935 . S
Fe183 O194 2.077 . S
Fe183 O202 1.935 . S
C184 O196 1.381 . S
C184 O197 1.421 . S
O185 Fe176 2.077 . S
O185 C198 1.381 . S
O186 Fe179 1.935 . S
O186 C198 1.421 . S
O187 Fe183 2.077 . S
O187 C203 1.381 . S
O188 Fe178 1.935 . S
O188 C203 1.421 . S
O189 Fe178 2.077 . S
O189 C193 1.381 . S
O190 Fe176 1.935 . S
O190 C193 1.421 . S
O191 Fe179 2.077 . S
O191 C199 1.381 . S
O192 Fe183 1.935 . S
O192 C199 1.421 . S
C193 O189 1.381 . S
C193 O190 1.421 . S
O194 Fe183 2.077 . S
O194 C206 1.381 . S
O195 Fe178 1.935 . S
O195 C206 1.421 . S
O196 Fe176 2.077 . S
O196 C184 1.381 . S
O197 Fe179 1.935 . S
O197 C184 1.421 . S
C198 O185 1.381 . S
C198 O186 1.421 . S
C199 O191 1.381 . S
C199 O192 1.421 . S
C200 O201 1.381 . S
C200 O202 1.421 . S
O201 Fe179 2.077 . S
O201 C200 1.381 . S
O202 Fe183 1.935 . S
O202 C200 1.421 . S
C203 O187 1.381 . S
C203 O188 1.421 . S
O204 Fe178 2.077 . S
O204 C207 1.381 . S
O205 Fe176 1.935 . S
O205 C207 1.421 . S
C206 O194 1.381 . S
C206 O195 1.421 . S
C207 O204 1.381 . S
C207 O205 1.421 . S
Fe208 O209 1.886 . S
Fe208 O212 1.715 . S
Fe208 O217 2.077 . S
Fe208 O222 1.935 . S
Fe208 O228 2.077 . S
Fe208 O237 1.935 . S
O209 Fe208 1.886 . S
O209 Fe211 1.715 . S
Fe210 O212 1.886 . S
Fe210 O213 1.715 . S
Fe210 O220 1.935 . S
Fe210 O221 2.077 . S
Fe210 O227 1.935 . S
Fe210 O236 2.077 . S
Fe211 O209 1.715 . S
Fe211 O214 1.886 . S
Fe211 O218 1.935 . S
Fe211 O223 2.077 . S
Fe211 O229 1.935 . S
Fe211 O233 2.077 . S
O212 Fe208 1.715 . S
O212 Fe210 1.886 . S
O213 Fe210 1.715 . S
O213 Fe215 1.886 . S
O214 Fe211 1.886 . S
O214 Fe215 1.715 . S
Fe215 O213 1.886 . S
Fe215 O214 1.715 . S
Fe215 O219 2.077 . S
Fe215 O224 1.935 . S
Fe215 O226 2.077 . S
Fe215 O234 1.935 . S
C216 O228 1.381 . S
C216 O229 1.421 . S
O217 Fe208 2.077 . S
O217 C230 1.381 . S
O218 Fe211 1.935 . S
O218 C230 1.421 . S
O219 Fe215 2.077 . S
O219 C235 1.381 . S
O220 Fe210 1.935 . S
O220 C235 1.421 . S
O221 Fe210 2.077 . S
O221 C225 1.381 . S
O222 Fe208 1.935 . S
O222 C225 1.421 . S
O223 Fe211 2.077 . S
O223 C231 1.381 . S
O224 Fe215 1.935 . S
O224 C231 1.421 . S
C225 O221 1.381 . S
C225 O222 1.421 . S
O226 Fe215 2.077 . S
O226 C238 1.381 . S
O227 Fe210 1.935 . S
O227 C238 1.421 . S
O228 Fe208 2.077 . S
O228 C216 1.381 . S
O229 Fe211 1.935 . S
O229 C216 1.421 . S
C230 O217 1.381 . S
C230 O218 1.421 . S
C231 O223 1.381 . S
C231 O224 1.421 . S
C232 O233 1.381 . S
C232 O234 1.421 . S
O233 Fe211 2.077 . S
O233 C232 1.381 . S
O234 Fe215 1.935 . S
O234 C232 1.421 . S
C235 O219 1.381 . S
C235 O220 1.421 . S
O236 Fe210 2.077 . S
O236 C239 1.381 . S
O237 Fe208 1.935 . S
O237 C239 1.421 . S
C238 O226 1.381 . S
C238 O227 1.421 . S
C239 O236 1.381 . S
C239 O237 1.421 . S
Fe240 O241 1.886 . S
Fe240 O244 1.715 . S
Fe240 O249 2.077 1_455 S
Fe240 O254 1.935 1_455 S
Fe240 O260 2.077 . S
Fe240 O269 1.935 . S
O241 Fe240 1.886 . S
O241 Fe243 1.715 . S
Fe242 O244 1.886 . S
Fe242 O245 1.715 . S
Fe242 O252 1.935 1_455 S
Fe242 O253 2.077 1_455 S
Fe242 O259 1.936 . S
Fe242 O268 2.078 . S
Fe243 O241 1.715 . S
Fe243 O246 1.886 . S
Fe243 O250 1.936 1_455 S
Fe243 O255 2.078 1_455 S
Fe243 O261 1.935 . S
Fe243 O265 2.077 . S
O244 Fe240 1.715 . S
O244 Fe242 1.886 . S
O245 Fe242 1.715 . S
O245 Fe247 1.886 . S
O246 Fe243 1.886 . S
O246 Fe247 1.715 . S
Fe247 O245 1.886 . S
Fe247 O246 1.715 . S
Fe247 O251 2.077 1_455 S
Fe247 O256 1.935 1_455 S
Fe247 O258 2.077 . S
Fe247 O266 1.935 . S
C248 O260 1.381 . S
C248 O261 1.421 . S
O249 Fe240 2.077 1_655 S
O249 C262 1.381 . S
O250 Fe243 1.936 1_655 S
O250 C262 1.421 . S
O251 Fe247 2.077 1_655 S
O251 C267 1.381 . S
O252 Fe242 1.935 1_655 S
O252 C267 1.421 . S
O253 Fe242 2.077 1_655 S
O253 C257 1.381 . S
O254 Fe240 1.935 1_655 S
O254 C257 1.421 . S
O255 Fe243 2.078 1_655 S
O255 C263 1.381 . S
O256 Fe247 1.935 1_655 S
O256 C263 1.421 . S
C257 O253 1.381 . S
C257 O254 1.421 . S
O258 Fe247 2.077 . S
O258 C270 1.381 . S
O259 Fe242 1.936 . S
O259 C270 1.421 . S
O260 Fe240 2.077 . S
O260 C248 1.381 . S
O261 Fe243 1.935 . S
O261 C248 1.421 . S
C262 O249 1.381 . S
C262 O250 1.421 . S
C263 O255 1.381 . S
C263 O256 1.421 . S
C264 O265 1.381 . S
C264 O266 1.421 . S
O265 Fe243 2.077 . S
O265 C264 1.381 . S
O266 Fe247 1.935 . S
O266 C264 1.421 . S
C267 O251 1.381 . S
C267 O252 1.421 . S
O268 Fe242 2.078 . S
O268 C271 1.381 . S
O269 Fe240 1.935 . S
O269 C271 1.421 . S
C270 O258 1.381 . S
C270 O259 1.421 . S
C271 O268 1.381 . S
C271 O269 1.421 . S
H272 C278 0.930 . S
H273 C281 0.930 . S
H274 C282 0.930 1_545 S
H275 C283 0.930 . S
H276 C286 0.930 . S
H277 C287 0.930 . S
C278 H272 0.930 . S
C278 C279 1.355 . S
C278 C280 1.415 . S
C279 C278 1.355 . S
C279 C281 1.419 1_565 S
C280 C278 1.415 . S
C280 C285 1.425 . S
C280 C287 1.409 . S
C281 H273 0.930 . S
C281 C279 1.419 1_545 S
C281 C282 1.362 1_545 S
C282 H274 0.930 1_565 S
C282 C281 1.362 1_565 S
C282 C285 1.409 . S
C283 H275 0.930 . S
C283 C284 1.355 . S
C283 C285 1.415 . S
C284 C283 1.355 . S
C284 C286 1.419 . S
C285 C280 1.425 . S
C285 C282 1.409 . S
C285 C283 1.415 . S
C286 H276 0.930 . S
C286 C284 1.419 . S
C286 C287 1.362 . S
C287 H277 0.930 . S
C287 C280 1.409 . S
C287 C286 1.362 . S
H288 C294 0.930 . S
H289 C297 0.930 . S
H290 C298 0.930 . S
H291 C299 0.930 . S
H292 C302 0.930 . S
H293 C303 0.930 . S
C294 H288 0.930 . S
C294 C295 1.355 . S
C294 C296 1.415 1_565 S
C295 C294 1.355 . S
C295 C297 1.419 . S
C296 C294 1.415 1_545 S
C296 C301 1.425 . S
C296 C303 1.409 . S
C297 H289 0.930 . S
C297 C295 1.419 . S
C297 C298 1.362 . S
C298 H290 0.930 . S
C298 C297 1.362 . S
C298 C301 1.409 1_565 S
C299 H291 0.930 . S
C299 C300 1.355 . S
C299 C301 1.415 . S
C300 C299 1.355 . S
C300 C302 1.419 . S
C301 C296 1.425 . S
C301 C298 1.409 1_545 S
C301 C299 1.415 . S
C302 H292 0.930 . S
C302 C300 1.419 . S
C302 C303 1.362 . S
C303 H293 0.930 . S
C303 C296 1.409 . S
C303 C302 1.362 . S
H304 C310 0.930 . S
H305 C313 0.889 1_554 S
H306 C314 0.930 . S
H307 C315 0.930 . S
H308 C318 0.930 . S
H309 C319 0.930 . S
C310 H304 0.930 . S
C310 C311 1.355 . S
C310 C312 1.415 . S
C311 C310 1.355 . S
C311 C313 1.419 . S
C312 C310 1.415 . S
C312 C317 1.425 . S
C312 C319 1.409 . S
C313 H305 0.889 1_556 S
C313 C311 1.419 . S
C313 C314 1.362 . S
C314 H306 0.930 . S
C314 C313 1.362 . S
C314 C317 1.409 . S
C315 H307 0.930 . S
C315 C316 1.355 . S
C315 C317 1.415 . S
C316 C315 1.355 . S
C316 C318 1.419 . S
C317 C312 1.425 . S
C317 C314 1.409 . S
C317 C315 1.415 . S
C318 H308 0.930 . S
C318 C316 1.419 . S
C318 C319 1.362 . S
C319 H309 0.930 . S
C319 C312 1.409 . S
C319 C318 1.362 . S
H320 C326 0.930 . S
H321 C329 0.930 . S
H322 C330 0.930 . S
H323 C331 0.930 . S
H324 C334 0.930 . S
H325 C335 0.930 . S
C326 H320 0.930 . S
C326 C327 1.355 . S
C326 C328 1.415 1_545 S
C327 C326 1.355 . S
C327 C329 1.419 . S
C328 C326 1.415 1_565 S
C328 C333 1.425 1_565 S
C328 C335 1.409 . S
C329 H321 0.930 . S
C329 C327 1.419 . S
C329 C330 1.362 . S
C330 H322 0.930 . S
C330 C329 1.362 . S
C330 C333 1.409 . S
C331 H323 0.930 . S
C331 C332 1.355 . S
C331 C333 1.415 1_565 S
C332 C331 1.355 . S
C332 C334 1.419 . S
C333 C328 1.425 1_545 S
C333 C330 1.409 . S
C333 C331 1.415 1_545 S
C334 H324 0.930 . S
C334 C332 1.419 . S
C334 C335 1.362 . S
C335 H325 0.930 . S
C335 C328 1.409 . S
C335 C334 1.362 . S
H336 C342 0.930 . S
H337 C345 0.930 . S
H338 C346 0.930 . S
H339 C347 0.930 . S
H340 C350 0.930 . S
H341 C351 0.930 1_565 S
C342 H336 0.930 . S
C342 C343 1.355 . S
C342 C344 1.415 . S
C343 C342 1.355 . S
C343 C345 1.419 . S
C344 C342 1.415 . S
C344 C349 1.425 . S
C344 C351 1.409 . S
C345 H337 0.930 . S
C345 C343 1.419 . S
C345 C346 1.362 . S
C346 H338 0.930 . S
C346 C345 1.362 . S
C346 C349 1.409 . S
C347 H339 0.930 . S
C347 C348 1.355 . S
C347 C349 1.415 . S
C348 C347 1.355 . S
C348 C350 1.419 . S
C349 C344 1.425 . S
C349 C346 1.409 . S
C349 C347 1.415 . S
C350 H340 0.930 . S
C350 C348 1.419 . S
C350 C351 1.362 . S
C351 H341 0.930 1_545 S
C351 C344 1.409 . S
C351 C350 1.362 . S
H352 C358 0.930 . S
H353 C361 0.930 . S
H354 C362 0.930 . S
H355 C363 0.930 . S
H356 C366 0.930 . S
H357 C367 0.929 1_565 S
C358 H352 0.930 . S
C358 C359 1.355 . S
C358 C360 1.415 . S
C359 C358 1.355 . S
C359 C361 1.419 . S
C360 C358 1.415 . S
C360 C365 1.425 1_565 S
C360 C367 1.409 1_565 S
C361 H353 0.930 . S
C361 C359 1.419 . S
C361 C362 1.362 1_565 S
C362 H354 0.930 . S
C362 C361 1.362 1_545 S
C362 C365 1.409 . S
C363 H355 0.930 . S
C363 C364 1.355 . S
C363 C365 1.415 . S
C364 C363 1.355 . S
C364 C366 1.419 . S
C365 C360 1.425 1_545 S
C365 C362 1.409 . S
C365 C363 1.415 . S
C366 H356 0.930 . S
C366 C364 1.419 . S
C366 C367 1.364 . S
C367 H357 0.929 1_545 S
C367 C360 1.409 1_545 S
C367 C366 1.364 . S
H368 C374 0.930 . S
H369 C377 0.930 . S
H370 C378 0.930 . S
H371 C379 0.930 . S
H372 C382 0.930 . S
H373 C383 0.930 . S
C374 H368 0.930 . S
C374 C375 1.355 . S
C374 C376 1.415 . S
C375 C374 1.355 . S
C375 C377 1.419 . S
C376 C374 1.415 . S
C376 C381 1.425 . S
C376 C383 1.409 . S
C377 H369 0.930 . S
C377 C375 1.419 . S
C377 C378 1.362 . S
C378 H370 0.930 . S
C378 C377 1.362 . S
C378 C381 1.409 . S
C379 H371 0.930 . S
C379 C380 1.355 . S
C379 C381 1.415 . S
C380 C379 1.355 . S
C380 C382 1.419 . S
C381 C376 1.425 . S
C381 C378 1.409 . S
C381 C379 1.415 . S
C382 H372 0.930 . S
C382 C380 1.419 . S
C382 C383 1.362 . S
C383 H373 0.930 . S
C383 C376 1.409 . S
C383 C382 1.362 . S
H384 C390 0.930 . S
H385 C393 0.930 . S
H386 C394 0.930 . S
H387 C395 0.930 . S
H388 C398 0.930 . S
H389 C399 0.930 . S
C390 H384 0.930 . S
C390 C391 1.355 . S
C390 C392 1.415 . S
C391 C390 1.355 . S
C391 C393 1.419 . S
C392 C390 1.415 . S
C392 C397 1.425 1_545 S
C392 C399 1.409 . S
C393 H385 0.930 . S
C393 C391 1.419 . S
C393 C394 1.362 1_545 S
C394 H386 0.930 . S
C394 C393 1.362 1_565 S
C394 C397 1.409 . S
C395 H387 0.930 . S
C395 C396 1.355 . S
C395 C397 1.415 . S
C396 C395 1.355 . S
C396 C398 1.419 . S
C397 C392 1.425 1_565 S
C397 C394 1.409 . S
C397 C395 1.415 . S
C398 H388 0.930 . S
C398 C396 1.419 . S
C398 C399 1.362 1_565 S
C399 H389 0.930 . S
C399 C392 1.409 . S
C399 C398 1.362 1_545 S
H400 C406 0.930 . S
H401 C409 0.930 1_565 S
H402 C410 0.930 . S
H403 C411 0.930 . S
H404 C414 0.930 . S
H405 C415 0.930 . S
C406 H400 0.930 . S
C406 C407 1.355 . S
C406 C408 1.415 . S
C407 C406 1.355 . S
C407 C409 1.419 . S
C408 C406 1.415 . S
C408 C413 1.425 . S
C408 C415 1.409 . S
C409 H401 0.930 1_545 S
C409 C407 1.419 . S
C409 C410 1.362 . S
C410 H402 0.930 . S
C410 C409 1.362 . S
C410 C413 1.409 . S
C411 H403 0.930 . S
C411 C412 1.355 . S
C411 C413 1.415 . S
C412 C411 1.355 . S
C412 C414 1.419 . S
C413 C408 1.425 . S
C413 C410 1.409 . S
C413 C411 1.415 . S
C414 H404 0.930 . S
C414 C412 1.419 . S
C414 C415 1.362 . S
C415 H405 0.930 . S
C415 C408 1.409 . S
C415 C414 1.362 . S
H416 C422 0.930 . S
H417 C425 0.930 . S
H418 C426 0.930 1_565 S
H419 C427 0.930 . S
H420 C430 0.930 . S
H421 C431 0.930 . S
C422 H416 0.930 . S
C422 C423 1.355 . S
C422 C424 1.415 . S
C423 C422 1.355 . S
C423 C425 1.419 . S
C424 C422 1.415 . S
C424 C429 1.425 1_545 S
C424 C431 1.409 1_545 S
C425 H417 0.930 . S
C425 C423 1.419 . S
C425 C426 1.362 . S
C426 H418 0.930 1_545 S
C426 C425 1.362 . S
C426 C429 1.409 1_545 S
C427 H419 0.930 . S
C427 C428 1.355 . S
C427 C429 1.415 . S
C428 C427 1.355 . S
C428 C430 1.419 . S
C429 C424 1.425 1_565 S
C429 C426 1.409 1_565 S
C429 C427 1.415 . S
C430 H420 0.930 . S
C430 C428 1.419 . S
C430 C431 1.362 . S
C431 H421 0.930 . S
C431 C424 1.409 1_565 S
C431 C430 1.362 . S
H432 C438 0.930 . S
H433 C441 0.930 . S
H434 C442 0.930 . S
H435 C443 0.930 . S
H436 C446 0.930 . S
H437 C447 0.930 . S
C438 H432 0.930 . S
C438 C439 1.355 . S
C438 C440 1.415 . S
C439 C438 1.355 . S
C439 C441 1.419 . S
C440 C438 1.415 . S
C440 C445 1.425 . S
C440 C447 1.409 . S
C441 H433 0.930 . S
C441 C439 1.419 . S
C441 C442 1.362 . S
C442 H434 0.930 . S
C442 C441 1.362 . S
C442 C445 1.409 . S
C443 H435 0.930 . S
C443 C444 1.355 . S
C443 C445 1.415 . S
C444 C443 1.355 . S
C444 C446 1.419 . S
C445 C440 1.425 . S
C445 C442 1.409 . S
C445 C443 1.415 . S
C446 H436 0.930 . S
C446 C444 1.419 . S
C446 C447 1.362 . S
C447 H437 0.930 . S
C447 C440 1.409 . S
C447 C446 1.362 . S
H448 C454 0.930 . S
H449 C457 0.930 . S
H450 C458 0.930 . S
H451 C459 0.930 . S
H452 C462 0.930 . S
H453 C463 0.930 1_565 S
C454 H448 0.930 . S
C454 C455 1.355 . S
C454 C456 1.415 . S
C455 C454 1.355 . S
C455 C457 1.419 . S
C456 C454 1.415 . S
C456 C461 1.425 1_565 S
C456 C463 1.409 1_565 S
C457 H449 0.930 . S
C457 C455 1.419 . S
C457 C458 1.362 1_565 S
C458 H450 0.930 . S
C458 C457 1.362 1_545 S
C458 C461 1.409 . S
C459 H451 0.930 . S
C459 C460 1.355 . S
C459 C461 1.415 . S
C460 C459 1.355 . S
C460 C462 1.419 . S
C461 C456 1.425 1_545 S
C461 C458 1.409 . S
C461 C459 1.415 . S
C462 H452 0.930 . S
C462 C460 1.419 . S
C462 C463 1.362 . S
C463 H453 0.930 1_545 S
C463 C456 1.409 1_545 S
C463 C462 1.362 . S
H464 C470 0.930 . S
H465 C473 0.930 1_545 S
H466 C474 0.930 . S
H467 C475 0.930 . S
H468 C478 0.930 . S
H469 C479 0.930 . S
C470 H464 0.930 . S
C470 C471 1.355 . S
C470 C472 1.415 . S
C471 C470 1.355 . S
C471 C473 1.419 . S
C472 C470 1.415 . S
C472 C477 1.425 . S
C472 C479 1.409 . S
C473 H465 0.930 1_565 S
C473 C471 1.419 . S
C473 C474 1.362 . S
C474 H466 0.930 . S
C474 C473 1.362 . S
C474 C477 1.409 . S
C475 H467 0.930 . S
C475 C476 1.355 . S
C475 C477 1.415 . S
C476 C475 1.355 . S
C476 C478 1.419 . S
C477 C472 1.425 . S
C477 C474 1.409 . S
C477 C475 1.415 . S
C478 H468 0.930 . S
C478 C476 1.419 . S
C478 C479 1.362 . S
C479 H469 0.930 . S
C479 C472 1.409 . S
C479 C478 1.362 . S
H480 C486 0.930 . S
H481 C489 0.930 . S
H482 C490 0.936 . S
H483 C491 0.930 . S
H484 C494 0.930 . S
H485 C495 0.930 1_545 S
C486 H480 0.930 . S
C486 C487 1.355 . S
C486 C488 1.415 . S
C487 C486 1.355 . S
C487 C489 1.419 . S
C488 C486 1.415 . S
C488 C493 1.425 1_545 S
C488 C495 1.409 1_545 S
C489 H481 0.930 . S
C489 C487 1.419 . S
C489 C490 1.353 1_545 S
C490 H482 0.936 . S
C490 C489 1.353 1_565 S
C490 C493 1.413 . S
C491 H483 0.930 . S
C491 C492 1.355 . S
C491 C493 1.415 . S
C492 C491 1.355 . S
C492 C494 1.419 . S
C493 C488 1.425 1_565 S
C493 C490 1.413 . S
C493 C491 1.415 . S
C494 H484 0.930 . S
C494 C492 1.419 . S
C494 C495 1.362 . S
C495 H485 0.930 1_565 S
C495 C488 1.409 1_565 S
C495 C494 1.362 . S
H496 C502 0.930 1_565 S
H497 C505 0.930 . S
H498 C506 0.930 . S
H499 C507 0.930 . S
H500 C510 0.930 . S
H501 C511 0.930 1_565 S
C502 H496 0.930 1_545 S
C502 C503 1.355 . S
C502 C504 1.415 . S
C503 C502 1.355 . S
C503 C505 1.419 . S
C504 C502 1.415 . S
C504 C509 1.425 . S
C504 C511 1.409 . S
C505 H497 0.930 . S
C505 C503 1.419 . S
C505 C506 1.362 . S
C506 H498 0.930 . S
C506 C505 1.362 . S
C506 C509 1.409 . S
C507 H499 0.930 . S
C507 C508 1.355 . S
C507 C509 1.415 . S
C508 C507 1.355 . S
C508 C510 1.419 . S
C509 C504 1.425 . S
C509 C506 1.409 . S
C509 C507 1.415 . S
C510 H500 0.930 . S
C510 C508 1.419 . S
C510 C511 1.362 . S
C511 H501 0.930 1_545 S
C511 C504 1.409 . S
C511 C510 1.362 . S
H512 C518 0.930 . S
H513 C521 0.930 . S
H514 C522 0.930 . S
H515 C523 0.930 . S
H516 C526 0.930 . S
H517 C527 0.930 1_565 S
C518 H512 0.930 . S
C518 C519 1.355 . S
C518 C520 1.415 . S
C519 C518 1.355 . S
C519 C521 1.419 . S
C520 C518 1.415 . S
C520 C525 1.425 1_565 S
C520 C527 1.409 1_565 S
C521 H513 0.930 . S
C521 C519 1.419 . S
C521 C522 1.362 1_565 S
C522 H514 0.930 . S
C522 C521 1.362 1_545 S
C522 C525 1.409 . S
C523 H515 0.930 . S
C523 C524 1.355 . S
C523 C525 1.415 . S
C524 C523 1.355 . S
C524 C526 1.419 . S
C525 C520 1.425 1_545 S
C525 C522 1.409 . S
C525 C523 1.415 . S
C526 H516 0.930 . S
C526 C524 1.419 . S
C526 C527 1.362 . S
C527 H517 0.930 1_545 S
C527 C520 1.409 1_545 S
C527 C526 1.362 . S
H528 C534 0.930 . S
H529 C537 0.930 . S
H530 C538 0.930 . S
H531 C539 0.930 . S
H532 C542 0.930 . S
H533 C543 0.930 . S
C534 H528 0.930 . S
C534 C535 1.355 . S
C534 C536 1.415 . S
C535 C534 1.355 . S
C535 C537 1.419 . S
C536 C534 1.415 . S
C536 C541 1.425 . S
C536 C543 1.409 . S
C537 H529 0.930 . S
C537 C535 1.419 . S
C537 C538 1.362 . S
C538 H530 0.930 . S
C538 C537 1.362 . S
C538 C541 1.409 . S
C539 H531 0.930 . S
C539 C540 1.355 . S
C539 C541 1.415 . S
C540 C539 1.355 . S
C540 C542 1.419 . S
C541 C536 1.425 . S
C541 C538 1.409 . S
C541 C539 1.415 . S
C542 H532 0.930 . S
C542 C540 1.419 . S
C542 C543 1.362 . S
C543 H533 0.930 . S
C543 C536 1.409 . S
C543 C542 1.362 . S
H544 C550 0.930 . S
H545 C553 0.930 . S
H546 C554 0.930 . S
H547 C555 0.930 . S
H548 C558 0.930 . S
H549 C559 0.930 . S
C550 H544 0.930 . S
C550 C551 1.355 . S
C550 C552 1.415 . S
C551 C550 1.355 . S
C551 C553 1.419 . S
C552 C550 1.415 . S
C552 C557 1.425 . S
C552 C559 1.409 . S
C553 H545 0.930 . S
C553 C551 1.419 . S
C553 C554 1.362 . S
C554 H546 0.930 . S
C554 C553 1.362 . S
C554 C557 1.409 . S
C555 H547 0.930 . S
C555 C556 1.355 . S
C555 C557 1.415 . S
C556 C555 1.355 . S
C556 C558 1.419 . S
C557 C552 1.425 . S
C557 C554 1.409 . S
C557 C555 1.415 . S
C558 H548 0.930 . S
C558 C556 1.419 . S
C558 C559 1.362 . S
C559 H549 0.930 . S
C559 C552 1.409 . S
C559 C558 1.362 . S
H560 C566 0.930 . S
H561 C569 0.930 . S
H562 C570 0.930 . S
H563 C571 0.930 . S
H564 C574 0.930 . S
H565 C575 0.930 . S
C566 H560 0.930 . S
C566 C567 1.355 . S
C566 C568 1.415 . S
C567 C566 1.355 . S
C567 C569 1.419 . S
C568 C566 1.415 . S
C568 C573 1.425 . S
C568 C575 1.409 . S
C569 H561 0.930 . S
C569 C567 1.419 . S
C569 C570 1.362 . S
C570 H562 0.930 . S
C570 C569 1.362 . S
C570 C573 1.409 . S
C571 H563 0.930 . S
C571 C572 1.355 . S
C571 C573 1.415 . S
C572 C571 1.355 . S
C572 C574 1.419 . S
C573 C568 1.425 . S
C573 C570 1.409 . S
C573 C571 1.415 . S
C574 H564 0.930 . S
C574 C572 1.419 . S
C574 C575 1.362 . S
C575 H565 0.930 . S
C575 C568 1.409 . S
C575 C574 1.362 . S
H576 C582 0.930 . S
H577 C585 0.930 . S
H578 C586 0.930 . S
H579 C587 0.930 . S
H580 C590 0.930 . S
H581 C591 0.930 . S
C582 H576 0.930 . S
C582 C583 1.355 . S
C582 C584 1.415 . S
C583 C582 1.355 . S
C583 C585 1.419 . S
C584 C582 1.415 . S
C584 C589 1.425 . S
C584 C591 1.409 . S
C585 H577 0.930 . S
C585 C583 1.419 . S
C585 C586 1.362 . S
C586 H578 0.930 . S
C586 C585 1.362 . S
C586 C589 1.409 . S
C587 H579 0.930 . S
C587 C588 1.355 . S
C587 C589 1.415 . S
C588 C587 1.355 . S
C588 C590 1.419 . S
C589 C584 1.425 . S
C589 C586 1.409 . S
C589 C587 1.415 . S
C590 H580 0.930 . S
C590 C588 1.419 . S
C590 C591 1.362 . S
C591 H581 0.930 . S
C591 C584 1.409 . S
C591 C590 1.362 . S
H592 C598 0.930 . S
H593 C601 0.930 . S
H594 C602 0.930 . S
H595 C603 0.930 . S
H596 C606 0.930 . S
H597 C607 0.930 . S
C598 H592 0.930 . S
C598 C599 1.355 . S
C598 C600 1.415 . S
C599 C598 1.355 . S
C599 C601 1.419 . S
C600 C598 1.415 . S
C600 C605 1.425 . S
C600 C607 1.409 . S
C601 H593 0.930 . S
C601 C599 1.419 . S
C601 C602 1.362 . S
C602 H594 0.930 . S
C602 C601 1.362 . S
C602 C605 1.409 . S
C603 H595 0.930 . S
C603 C604 1.355 . S
C603 C605 1.415 . S
C604 C603 1.355 . S
C604 C606 1.419 . S
C605 C600 1.425 . S
C605 C602 1.409 . S
C605 C603 1.415 . S
C606 H596 0.930 . S
C606 C604 1.419 . S
C606 C607 1.362 . S
C607 H597 0.930 . S
C607 C600 1.409 . S
C607 C606 1.362 . S
H608 C614 0.930 . S
H609 C617 0.930 . S
H610 C618 0.930 . S
H611 C619 0.930 . S
H612 C622 0.930 . S
H613 C623 0.930 . S
C614 H608 0.930 . S
C614 C615 1.355 . S
C614 C616 1.415 . S
C615 C614 1.355 . S
C615 C617 1.419 . S
C616 C614 1.415 . S
C616 C621 1.425 . S
C616 C623 1.409 . S
C617 H609 0.930 . S
C617 C615 1.419 . S
C617 C618 1.362 . S
C618 H610 0.930 . S
C618 C617 1.362 . S
C618 C621 1.409 . S
C619 H611 0.930 . S
C619 C620 1.355 . S
C619 C621 1.415 . S
C620 C619 1.355 . S
C620 C622 1.419 . S
C621 C616 1.425 . S
C621 C618 1.409 . S
C621 C619 1.415 . S
C622 H612 0.930 . S
C622 C620 1.419 . S
C622 C623 1.362 . S
C623 H613 0.930 . S
C623 C616 1.409 . S
C623 C622 1.362 . S
H624 C630 0.930 . S
H625 C633 0.930 . S
H626 C634 0.930 . S
H627 C635 0.930 . S
H628 C638 0.930 . S
H629 C639 0.930 . S
C630 H624 0.930 . S
C630 C631 1.355 . S
C630 C632 1.415 . S
C631 C630 1.355 . S
C631 C633 1.419 . S
C632 C630 1.415 . S
C632 C637 1.425 . S
C632 C639 1.409 . S
C633 H625 0.930 . S
C633 C631 1.419 . S
C633 C634 1.362 . S
C634 H626 0.930 . S
C634 C633 1.362 . S
C634 C637 1.409 . S
C635 H627 0.930 . S
C635 C636 1.355 . S
C635 C637 1.415 . S
C636 C635 1.355 . S
C636 C638 1.419 . S
C637 C632 1.425 . S
C637 C634 1.409 . S
C637 C635 1.415 . S
C638 H628 0.930 . S
C638 C636 1.419 . S
C638 C639 1.362 . S
C639 H629 0.930 . S
C639 C632 1.409 . S
C639 C638 1.362 . S
H640 C646 0.930 . S
H641 C649 0.930 . S
H642 C650 0.930 . S
H643 C651 0.930 . S
H644 C654 0.930 . S
H645 C655 0.930 . S
C646 H640 0.930 . S
C646 C647 1.355 . S
C646 C648 1.415 . S
C647 C646 1.355 . S
C647 C649 1.419 . S
C648 C646 1.415 . S
C648 C653 1.425 . S
C648 C655 1.409 . S
C649 H641 0.930 . S
C649 C647 1.419 . S
C649 C650 1.362 . S
C650 H642 0.930 . S
C650 C649 1.362 . S
C650 C653 1.409 . S
C651 H643 0.930 . S
C651 C652 1.355 . S
C651 C653 1.415 . S
C652 C651 1.355 . S
C652 C654 1.419 . S
C653 C648 1.425 . S
C653 C650 1.409 . S
C653 C651 1.415 . S
C654 H644 0.930 . S
C654 C652 1.419 . S
C654 C655 1.362 . S
C655 H645 0.930 . S
C655 C648 1.409 . S
C655 C654 1.362 . S
H656 C662 0.930 . S
H657 C665 0.930 . S
H658 C666 0.930 . S
H659 C667 0.930 . S
H660 C670 0.930 . S
H661 C671 0.930 . S
C662 H656 0.930 . S
C662 C663 1.355 . S
C662 C664 1.415 . S
C663 C662 1.355 . S
C663 C665 1.419 . S
C664 C662 1.415 . S
C664 C669 1.425 . S
C664 C671 1.409 . S
C665 H657 0.930 . S
C665 C663 1.419 . S
C665 C666 1.362 . S
C666 H658 0.930 . S
C666 C665 1.362 . S
C666 C669 1.409 . S
C667 H659 0.930 . S
C667 C668 1.355 . S
C667 C669 1.415 . S
C668 C667 1.355 . S
C668 C670 1.419 . S
C669 C664 1.425 . S
C669 C666 1.409 . S
C669 C667 1.415 . S
C670 H660 0.930 . S
C670 C668 1.419 . S
C670 C671 1.362 . S
C671 H661 0.930 . S
C671 C664 1.409 . S
C671 C670 1.362 . S
H672 C678 0.930 . S
H673 C681 0.930 . S
H674 C682 0.930 . S
H675 C683 0.930 . S
H676 C686 0.930 . S
H677 C687 0.930 . S
C678 H672 0.930 . S
C678 C679 1.355 . S
C678 C680 1.415 . S
C679 C678 1.355 . S
C679 C681 1.419 . S
C680 C678 1.415 . S
C680 C685 1.425 . S
C680 C687 1.409 . S
C681 H673 0.930 . S
C681 C679 1.419 . S
C681 C682 1.362 . S
C682 H674 0.930 . S
C682 C681 1.362 . S
C682 C685 1.409 . S
C683 H675 0.930 . S
C683 C684 1.355 . S
C683 C685 1.415 . S
C684 C683 1.355 . S
C684 C686 1.419 . S
C685 C680 1.425 . S
C685 C682 1.409 . S
C685 C683 1.415 . S
C686 H676 0.930 . S
C686 C684 1.419 . S
C686 C687 1.362 . S
C687 H677 0.930 . S
C687 C680 1.409 . S
C687 C686 1.362 . S
H688 C694 0.930 . S
H689 C697 0.930 . S
H690 C698 0.930 . S
H691 C699 0.930 . S
H692 C702 0.930 . S
H693 C703 0.930 . S
C694 H688 0.930 . S
C694 C695 1.355 . S
C694 C696 1.415 . S
C695 C694 1.355 . S
C695 C697 1.419 . S
C696 C694 1.415 . S
C696 C701 1.425 . S
C696 C703 1.409 . S
C697 H689 0.930 . S
C697 C695 1.419 . S
C697 C698 1.362 . S
C698 H690 0.930 . S
C698 C697 1.362 . S
C698 C701 1.409 . S
C699 H691 0.930 . S
C699 C700 1.355 . S
C699 C701 1.415 . S
C700 C699 1.355 . S
C700 C702 1.419 . S
C701 C696 1.425 . S
C701 C698 1.409 . S
C701 C699 1.415 . S
C702 H692 0.930 . S
C702 C700 1.419 . S
C702 C703 1.362 . S
C703 H693 0.930 . S
C703 C696 1.409 . S
C703 C702 1.362 . S
H704 C710 0.930 . S
H705 C713 0.930 . S
H706 C714 0.930 . S
H707 C715 0.930 . S
H708 C718 0.930 . S
H709 C719 0.930 . S
C710 H704 0.930 . S
C710 C711 1.355 . S
C710 C712 1.415 . S
C711 C710 1.355 . S
C711 C713 1.419 . S
C712 C710 1.415 . S
C712 C717 1.425 . S
C712 C719 1.409 . S
C713 H705 0.930 . S
C713 C711 1.419 . S
C713 C714 1.362 . S
C714 H706 0.930 . S
C714 C713 1.362 . S
C714 C717 1.409 . S
C715 H707 0.930 . S
C715 C716 1.355 . S
C715 C717 1.415 . S
C716 C715 1.355 . S
C716 C718 1.419 . S
C717 C712 1.425 . S
C717 C714 1.409 . S
C717 C715 1.415 . S
C718 H708 0.930 . S
C718 C716 1.419 . S
C718 C719 1.362 . S
C719 H709 0.930 . S
C719 C712 1.409 . S
C719 C718 1.362 . S
H720 C726 0.930 . S
H721 C729 0.930 . S
H722 C730 0.930 . S
H723 C731 0.930 . S
H724 C734 0.930 . S
H725 C735 0.930 . S
C726 H720 0.930 . S
C726 C727 1.355 . S
C726 C728 1.415 . S
C727 C726 1.355 . S
C727 C729 1.419 . S
C728 C726 1.415 . S
C728 C733 1.425 . S
C728 C735 1.409 . S
C729 H721 0.930 . S
C729 C727 1.419 . S
C729 C730 1.362 . S
C730 H722 0.930 . S
C730 C729 1.362 . S
C730 C733 1.409 . S
C731 H723 0.930 . S
C731 C732 1.355 . S
C731 C733 1.415 . S
C732 C731 1.355 . S
C732 C734 1.419 . S
C733 C728 1.425 . S
C733 C730 1.409 . S
C733 C731 1.415 . S
C734 H724 0.930 . S
C734 C732 1.419 . S
C734 C735 1.362 . S
C735 H725 0.930 . S
C735 C728 1.409 . S
C735 C734 1.362 . S
H736 C742 0.930 . S
H737 C745 0.930 . S
H738 C746 0.930 . S
H739 C747 0.930 . S
H740 C750 0.930 . S
H741 C751 0.930 . S
C742 H736 0.930 . S
C742 C743 1.355 . S
C742 C744 1.415 . S
C743 C742 1.355 . S
C743 C745 1.419 . S
C744 C742 1.415 . S
C744 C749 1.425 . S
C744 C751 1.409 . S
C745 H737 0.930 . S
C745 C743 1.419 . S
C745 C746 1.362 . S
C746 H738 0.930 . S
C746 C745 1.362 . S
C746 C749 1.409 . S
C747 H739 0.930 . S
C747 C748 1.355 . S
C747 C749 1.415 . S
C748 C747 1.355 . S
C748 C750 1.419 . S
C749 C744 1.425 . S
C749 C746 1.409 . S
C749 C747 1.415 . S
C750 H740 0.930 . S
C750 C748 1.419 . S
C750 C751 1.362 . S
C751 H741 0.930 . S
C751 C744 1.409 . S
C751 C750 1.362 . S
H752 C758 0.930 . S
H753 C761 0.930 . S
H754 C762 0.930 . S
H755 C763 0.930 . S
H756 C766 0.930 . S
H757 C767 0.930 . S
C758 H752 0.930 . S
C758 C759 1.355 . S
C758 C760 1.415 . S
C759 C758 1.355 . S
C759 C761 1.419 . S
C760 C758 1.415 . S
C760 C765 1.425 . S
C760 C767 1.409 . S
C761 H753 0.930 . S
C761 C759 1.419 . S
C761 C762 1.362 . S
C762 H754 0.930 . S
C762 C761 1.362 . S
C762 C765 1.409 . S
C763 H755 0.930 . S
C763 C764 1.355 . S
C763 C765 1.415 . S
C764 C763 1.355 . S
C764 C766 1.419 . S
C765 C760 1.425 . S
C765 C762 1.409 . S
C765 C763 1.415 . S
C766 H756 0.930 . S
C766 C764 1.419 . S
C766 C767 1.362 . S
C767 H757 0.930 . S
C767 C760 1.409 . S
C767 C766 1.362 . S
H768 C774 0.930 . S
H769 C777 0.930 . S
H770 C778 0.930 . S
H771 C779 0.930 . S
H772 C782 0.930 . S
H773 C783 0.930 . S
C774 H768 0.930 . S
C774 C775 1.355 . S
C774 C776 1.415 . S
C775 C774 1.355 . S
C775 C777 1.419 . S
C776 C774 1.415 . S
C776 C781 1.425 . S
C776 C783 1.409 . S
C777 H769 0.930 . S
C777 C775 1.419 . S
C777 C778 1.362 . S
C778 H770 0.930 . S
C778 C777 1.362 . S
C778 C781 1.409 . S
C779 H771 0.930 . S
C779 C780 1.355 . S
C779 C781 1.415 . S
C780 C779 1.355 . S
C780 C782 1.419 . S
C781 C776 1.425 . S
C781 C778 1.409 . S
C781 C779 1.415 . S
C782 H772 0.930 . S
C782 C780 1.419 . S
C782 C783 1.362 . S
C783 H773 0.930 . S
C783 C776 1.409 . S
C783 C782 1.362 . S
C284 C193 1.564 . S
C279 C14 1.516 . S
C295 C25 1.560 . S
C300 C225 1.545 . S
C311 C50 1.518 . S
C316 C248 1.583 . S
C332 C152 1.563 . S
C327 C68 1.565 . S
C348 C235 1.456 . S
C343 C16 1.538 . S
C364 C264 1.406 . S
C359 C26 1.491 . S
C380 C168 1.423 . S
C375 C52 1.524 . S
C396 C203 1.383 . S
C391 C70 1.487 . S
C407 C8 1.507 . S
C412 C231 1.379 . S
C423 C88 1.504 . S
C428 C206 1.354 . S
C439 C44 1.469 . S
C444 C174 1.342 . S
C460 C263 1.395 . S
C455 C98 1.472 . S
C476 C207 1.567 . S
C471 C7 1.508 . S
C487 C86 1.530 . S
C492 C175 1.548 . S
C503 C43 1.547 . S
C508 C262 1.560 . S
C524 C230 1.572 . S
C519 C97 1.517 . S
C535 C116 1.564 . S
C540 C257 1.546 . S
C551 C79 1.510 . S
C556 C161 1.553 . S
C567 C140 1.530 . S
C572 C184 1.573 . S
C583 C104 1.558 . S
C588 C216 1.574 . S
C604 C171 1.409 . S
C599 C115 1.504 . S
C615 C80 1.485 . S
C620 C200 1.384 . S
C631 C142 1.528 . S
C636 C232 1.466 . S
C652 C267 1.342 . S
C647 C106 1.474 . S
C663 C122 1.472 . S
C668 C167 1.381 . S
C679 C34 1.496 . S
C684 C270 1.344 . S
C695 C134 1.523 . S
C700 C238 1.435 . S
C716 C199 1.453 . S
C711 C62 1.501 . S
C732 C271 1.548 . S
C727 C124 1.529 . S
C748 C239 1.540 . S
C743 C32 1.555 . S
C764 C198 1.556 . S
C759 C133 1.558 . S
C780 C166 1.558 . S
C775 C61 1.548 . S
