# Generated by pormake.
# Topology ptr, (4,4)-cn, num edge types: 1
# Building blocks:
#     Node 0, Type 0, BuildingBlock: NAHDIM_clean_sbu_0, # of connection points: 4
#     Node 1, Type 0, BuildingBlock: NAHDIM_clean_sbu_0, # of connection points: 4
#     Node 2, Type 0, BuildingBlock: NAHDIM_clean_sbu_0, # of connection points: 4
#     Node 3, Type 0, BuildingBlock: NAHDIM_clean_sbu_0, # of connection points: 4
#     Node 4, Type 0, BuildingBlock: NAHDIM_clean_sbu_0, # of connection points: 4
#     Node 5, Type 0, BuildingBlock: NAHDIM_clean_sbu_0, # of connection points: 4
#     Node 6, Type 0, BuildingBlock: NAHDIM_clean_sbu_0, # of connection points: 4
#     Node 7, Type 0, BuildingBlock: NAHDIM_clean_sbu_0, # of connection points: 4
#     Node 8, Type 0, BuildingBlock: NAHDIM_clean_sbu_0, # of connection points: 4
#     Node 9, Type 0, BuildingBlock: NAHDIM_clean_sbu_0, # of connection points: 4
#     Node 10, Type 0, BuildingBlock: NAHDIM_clean_sbu_0, # of connection points: 4
#     Node 11, Type 0, BuildingBlock: NAHDIM_clean_sbu_0, # of connection points: 4
#     Node 12, Type 0, BuildingBlock: NAHDIM_clean_sbu_0, # of connection points: 4
#     Node 13, Type 0, BuildingBlock: NAHDIM_clean_sbu_0, # of connection points: 4
#     Node 14, Type 0, BuildingBlock: NAHDIM_clean_sbu_0, # of connection points: 4
#     Node 15, Type 0, BuildingBlock: NAHDIM_clean_sbu_0, # of connection points: 4
#     Node 16, Type 0, BuildingBlock: NAHDIM_clean_sbu_0, # of connection points: 4
#     Node 17, Type 0, BuildingBlock: NAHDIM_clean_sbu_0, # of connection points: 4
#     Node 18, Type 1, BuildingBlock: MIFKUJ_clean_linker_1, # of connection points: 4
#     Node 19, Type 1, BuildingBlock: MIFKUJ_clean_linker_1, # of connection points: 4
#     Node 20, Type 1, BuildingBlock: MIFKUJ_clean_linker_1, # of connection points: 4
#     Node 21, Type 1, BuildingBlock: MIFKUJ_clean_linker_1, # of connection points: 4
#     Node 22, Type 1, BuildingBlock: MIFKUJ_clean_linker_1, # of connection points: 4
#     Node 23, Type 1, BuildingBlock: MIFKUJ_clean_linker_1, # of connection points: 4
#     Node 24, Type 1, BuildingBlock: MIFKUJ_clean_linker_1, # of connection points: 4
#     Node 25, Type 1, BuildingBlock: MIFKUJ_clean_linker_1, # of connection points: 4
#     Node 26, Type 1, BuildingBlock: MIFKUJ_clean_linker_1, # of connection points: 4
#     Node 27, Type 1, BuildingBlock: MIFKUJ_clean_linker_1, # of connection points: 4
#     Node 28, Type 1, BuildingBlock: MIFKUJ_clean_linker_1, # of connection points: 4
#     Node 29, Type 1, BuildingBlock: MIFKUJ_clean_linker_1, # of connection points: 4
#     Node 30, Type 1, BuildingBlock: MIFKUJ_clean_linker_1, # of connection points: 4
#     Node 31, Type 1, BuildingBlock: MIFKUJ_clean_linker_1, # of connection points: 4
#     Node 32, Type 1, BuildingBlock: MIFKUJ_clean_linker_1, # of connection points: 4
#     Node 33, Type 1, BuildingBlock: MIFKUJ_clean_linker_1, # of connection points: 4
#     Node 34, Type 1, BuildingBlock: MIFKUJ_clean_linker_1, # of connection points: 4
#     Node 35, Type 1, BuildingBlock: MIFKUJ_clean_linker_1, # of connection points: 4
#     Edge 36, Type (0, 1), BuildingBlock: EZIPEK_clean_linker_0, # of connection points: 2
#     Edge 37, Type (0, 1), BuildingBlock: EZIPEK_clean_linker_0, # of connection points: 2
#     Edge 38, Type (0, 1), BuildingBlock: EZIPEK_clean_linker_0, # of connection points: 2
#     Edge 39, Type (0, 1), BuildingBlock: EZIPEK_clean_linker_0, # of connection points: 2
#     Edge 40, Type (0, 1), BuildingBlock: EZIPEK_clean_linker_0, # of connection points: 2
#     Edge 41, Type (0, 1), BuildingBlock: EZIPEK_clean_linker_0, # of connection points: 2
#     Edge 42, Type (0, 1), BuildingBlock: EZIPEK_clean_linker_0, # of connection points: 2
#     Edge 43, Type (0, 1), BuildingBlock: EZIPEK_clean_linker_0, # of connection points: 2
#     Edge 44, Type (0, 1), BuildingBlock: EZIPEK_clean_linker_0, # of connection points: 2
#     Edge 45, Type (0, 1), BuildingBlock: EZIPEK_clean_linker_0, # of connection points: 2
#     Edge 46, Type (0, 1), BuildingBlock: EZIPEK_clean_linker_0, # of connection points: 2
#     Edge 47, Type (0, 1), BuildingBlock: EZIPEK_clean_linker_0, # of connection points: 2
#     Edge 48, Type (0, 1), BuildingBlock: EZIPEK_clean_linker_0, # of connection points: 2
#     Edge 49, Type (0, 1), BuildingBlock: EZIPEK_clean_linker_0, # of connection points: 2
#     Edge 50, Type (0, 1), BuildingBlock: EZIPEK_clean_linker_0, # of connection points: 2
#     Edge 51, Type (0, 1), BuildingBlock: EZIPEK_clean_linker_0, # of connection points: 2
#     Edge 52, Type (0, 1), BuildingBlock: EZIPEK_clean_linker_0, # of connection points: 2
#     Edge 53, Type (0, 1), BuildingBlock: EZIPEK_clean_linker_0, # of connection points: 2
#     Edge 54, Type (0, 1), BuildingBlock: EZIPEK_clean_linker_0, # of connection points: 2
#     Edge 55, Type (0, 1), BuildingBlock: EZIPEK_clean_linker_0, # of connection points: 2
#     Edge 56, Type (0, 1), BuildingBlock: EZIPEK_clean_linker_0, # of connection points: 2
#     Edge 57, Type (0, 1), BuildingBlock: EZIPEK_clean_linker_0, # of connection points: 2
#     Edge 58, Type (0, 1), BuildingBlock: EZIPEK_clean_linker_0, # of connection points: 2
#     Edge 59, Type (0, 1), BuildingBlock: EZIPEK_clean_linker_0, # of connection points: 2
#     Edge 60, Type (0, 1), BuildingBlock: EZIPEK_clean_linker_0, # of connection points: 2
#     Edge 61, Type (0, 1), BuildingBlock: EZIPEK_clean_linker_0, # of connection points: 2
#     Edge 62, Type (0, 1), BuildingBlock: EZIPEK_clean_linker_0, # of connection points: 2
#     Edge 63, Type (0, 1), BuildingBlock: EZIPEK_clean_linker_0, # of connection points: 2
#     Edge 64, Type (0, 1), BuildingBlock: EZIPEK_clean_linker_0, # of connection points: 2
#     Edge 65, Type (0, 1), BuildingBlock: EZIPEK_clean_linker_0, # of connection points: 2
#     Edge 66, Type (0, 1), BuildingBlock: EZIPEK_clean_linker_0, # of connection points: 2
#     Edge 67, Type (0, 1), BuildingBlock: EZIPEK_clean_linker_0, # of connection points: 2
#     Edge 68, Type (0, 1), BuildingBlock: EZIPEK_clean_linker_0, # of connection points: 2
#     Edge 69, Type (0, 1), BuildingBlock: EZIPEK_clean_linker_0, # of connection points: 2
#     Edge 70, Type (0, 1), BuildingBlock: EZIPEK_clean_linker_0, # of connection points: 2
#     Edge 71, Type (0, 1), BuildingBlock: EZIPEK_clean_linker_0, # of connection points: 2
#     Edge 72, Type (0, 1), BuildingBlock: EZIPEK_clean_linker_0, # of connection points: 2
#     Edge 73, Type (0, 1), BuildingBlock: EZIPEK_clean_linker_0, # of connection points: 2
#     Edge 74, Type (0, 1), BuildingBlock: EZIPEK_clean_linker_0, # of connection points: 2
#     Edge 75, Type (0, 1), BuildingBlock: EZIPEK_clean_linker_0, # of connection points: 2
#     Edge 76, Type (0, 1), BuildingBlock: EZIPEK_clean_linker_0, # of connection points: 2
#     Edge 77, Type (0, 1), BuildingBlock: EZIPEK_clean_linker_0, # of connection points: 2
#     Edge 78, Type (0, 1), BuildingBlock: EZIPEK_clean_linker_0, # of connection points: 2
#     Edge 79, Type (0, 1), BuildingBlock: EZIPEK_clean_linker_0, # of connection points: 2
#     Edge 80, Type (0, 1), BuildingBlock: EZIPEK_clean_linker_0, # of connection points: 2
#     Edge 81, Type (0, 1), BuildingBlock: EZIPEK_clean_linker_0, # of connection points: 2
#     Edge 82, Type (0, 1), BuildingBlock: EZIPEK_clean_linker_0, # of connection points: 2
#     Edge 83, Type (0, 1), BuildingBlock: EZIPEK_clean_linker_0, # of connection points: 2
#     Edge 84, Type (0, 1), BuildingBlock: EZIPEK_clean_linker_0, # of connection points: 2
#     Edge 85, Type (0, 1), BuildingBlock: EZIPEK_clean_linker_0, # of connection points: 2
#     Edge 86, Type (0, 1), BuildingBlock: EZIPEK_clean_linker_0, # of connection points: 2
#     Edge 87, Type (0, 1), BuildingBlock: EZIPEK_clean_linker_0, # of connection points: 2
#     Edge 88, Type (0, 1), BuildingBlock: EZIPEK_clean_linker_0, # of connection points: 2
#     Edge 89, Type (0, 1), BuildingBlock: EZIPEK_clean_linker_0, # of connection points: 2
#     Edge 90, Type (0, 1), BuildingBlock: EZIPEK_clean_linker_0, # of connection points: 2
#     Edge 91, Type (0, 1), BuildingBlock: EZIPEK_clean_linker_0, # of connection points: 2
#     Edge 92, Type (0, 1), BuildingBlock: EZIPEK_clean_linker_0, # of connection points: 2
#     Edge 93, Type (0, 1), BuildingBlock: EZIPEK_clean_linker_0, # of connection points: 2
#     Edge 94, Type (0, 1), BuildingBlock: EZIPEK_clean_linker_0, # of connection points: 2
#     Edge 95, Type (0, 1), BuildingBlock: EZIPEK_clean_linker_0, # of connection points: 2
#     Edge 96, Type (0, 1), BuildingBlock: EZIPEK_clean_linker_0, # of connection points: 2
#     Edge 97, Type (0, 1), BuildingBlock: EZIPEK_clean_linker_0, # of connection points: 2
#     Edge 98, Type (0, 1), BuildingBlock: EZIPEK_clean_linker_0, # of connection points: 2
#     Edge 99, Type (0, 1), BuildingBlock: EZIPEK_clean_linker_0, # of connection points: 2
#     Edge 100, Type (0, 1), BuildingBlock: EZIPEK_clean_linker_0, # of connection points: 2
#     Edge 101, Type (0, 1), BuildingBlock: EZIPEK_clean_linker_0, # of connection points: 2
#     Edge 102, Type (0, 1), BuildingBlock: EZIPEK_clean_linker_0, # of connection points: 2
#     Edge 103, Type (0, 1), BuildingBlock: EZIPEK_clean_linker_0, # of connection points: 2
#     Edge 104, Type (0, 1), BuildingBlock: EZIPEK_clean_linker_0, # of connection points: 2
#     Edge 105, Type (0, 1), BuildingBlock: EZIPEK_clean_linker_0, # of connection points: 2
#     Edge 106, Type (0, 1), BuildingBlock: EZIPEK_clean_linker_0, # of connection points: 2
#     Edge 107, Type (0, 1), BuildingBlock: EZIPEK_clean_linker_0, # of connection points: 2
# Relax obj value: 0.072
# Max RMSD: 0.247
# Mean RMSD: 0.110
data_MOF--net-ptr--node1-NAHDIM_clean_sbu_0--node2-MIFKUJ_clean_linker_1--edge1-EZIPEK_clean_linker_0
_symmetry_space_group_name_H-M    P1
_symmetry_Int_Tables_number       1
_symmetry_cell_setting            triclinic
loop_
_symmetry_equiv_pos_as_xyz
'x, y, z'
_cell_length_a     71.223228
_cell_length_b     69.782825
_cell_length_c     47.050669
_cell_angle_alpha  91.997647
_cell_angle_beta   89.050205
_cell_angle_gamma 121.94425
loop_
_atom_site_label
_atom_site_type_symbol
_atom_site_fract_x
_atom_site_fract_y
_atom_site_fract_z
_atom_type_partial_charge
C0 C 0.03172 0.34193 0.04623 0.0
O1 O 0.01453 0.33783 0.06169 0.0
O2 O 0.98435 0.32723 0.99519 0.0
Zn3 Zn 0.0108 0.3565 0.01001 0.0
O4 O 0.00339 0.36932 0.04443 0.0
C5 C 0.00822 0.37805 0.96041 0.0
O6 O 0.98801 0.36031 0.95978 0.0
O7 O 0.03421 0.35028 0.02183 0.0
C8 C 0.98835 0.37389 0.04427 0.0
O9 O 0.97598 0.369 0.02155 0.0
C10 C 0.96807 0.31294 0.00988 0.0
O11 O 0.96722 0.31688 0.03723 0.0
O12 O 0.02167 0.38001 0.97947 0.0
C13 C 0.69835 0.66872 0.99875 0.0
O14 O 0.69813 0.68116 0.02018 0.0
O15 O 0.65454 0.67272 0.02369 0.0
Zn16 Zn 0.65091 0.64494 0.00429 0.0
O17 O 0.62942 0.63415 0.97165 0.0
C18 C 0.64176 0.62502 0.05932 0.0
O19 O 0.65536 0.64599 0.06819 0.0
O20 O 0.68032 0.65201 0.98908 0.0
C21 C 0.6106 0.63192 0.97433 0.0
O22 O 0.60524 0.6378 0.99848 0.0
C23 C 0.65669 0.68946 0.0109 0.0
O24 O 0.65566 0.68889 0.98301 0.0
O25 O 0.63839 0.62038 0.03283 0.0
C26 C 0.33429 0.03258 0.97883 0.0
O27 O 0.32442 0.01131 0.97023 0.0
O28 O 0.32471 0.99397 0.03598 0.0
Zn29 Zn 0.35287 0.01687 0.017 0.0
O30 O 0.36167 0.0024 0.98593 0.0
C31 C 0.381 0.01702 0.0578 0.0
O32 O 0.3702 0.99587 0.04856 0.0
O33 O 0.34795 0.03969 0.9994 0.0
C34 C 0.3814 0.01379 0.97678 0.0
O35 O 0.39489 0.03424 0.98739 0.0
C36 C 0.31084 0.97474 0.025 0.0
O37 O 0.31454 0.96879 0.99975 0.0
O38 O 0.37652 0.03071 0.04736 0.0
C39 C 0.97049 0.66837 0.98178 0.0
O40 O 0.99117 0.68037 0.97341 0.0
O41 O 0.01544 0.6783 0.02361 0.0
Zn42 Zn 0.98955 0.64843 0.01014 0.0
O43 O 0.99606 0.63591 0.97436 0.0
C44 C 0.97903 0.60849 0.04194 0.0
O45 O 0.97968 0.59993 0.01698 0.0
O46 O 0.96493 0.65289 0.99948 0.0
C47 C 0.01114 0.63148 0.97152 0.0
O48 O 0.02512 0.63647 0.99245 0.0
C49 C 0.03303 0.69173 0.01035 0.0
O50 O 0.03605 0.68679 0.98416 0.0
O51 O 0.98174 0.628 0.04376 0.0
C52 C 0.30356 0.33189 0.04273 0.0
O53 O 0.31084 0.31833 0.0461 0.0
O54 O 0.33876 0.3272 0.99069 0.0
Zn55 Zn 0.3433 0.35568 0.01016 0.0
O56 O 0.3666 0.36819 0.04095 0.0
C57 C 0.36661 0.38094 0.96183 0.0
O58 O 0.37304 0.36646 0.96124 0.0
O59 O 0.31467 0.34928 0.02785 0.0
C60 C 0.38521 0.36987 0.03854 0.0
O61 O 0.38976 0.36197 0.01546 0.0
C62 C 0.34182 0.31268 0.00168 0.0
O63 O 0.34891 0.31563 0.028 0.0
O64 O 0.35311 0.37961 0.98081 0.0
C65 C 0.66402 0.96489 0.01951 0.0
O66 O 0.67925 0.98029 0.00313 0.0
O67 O 0.66851 0.01304 0.99278 0.0
Zn68 Zn 0.64054 0.98751 0.00918 0.0
O69 O 0.62968 0.99786 0.0424 0.0
C70 C 0.6204 0.98089 0.95366 0.0
O71 O 0.64095 0.99273 0.94478 0.0
O72 O 0.64593 0.96405 0.02368 0.0
C73 C 0.62976 0.0161 0.04316 0.0
O74 O 0.63841 0.03007 0.02211 0.0
C75 C 0.68411 0.02921 0.00714 0.0
O76 O 0.6824 0.03033 0.03491 0.0
O77 O 0.61642 0.97541 0.97956 0.0
C78 C 0.69795 0.67558 0.38283 0.0
O79 O 0.68057 0.67215 0.39733 0.0
O80 O 0.65274 0.66039 0.32667 0.0
Zn81 Zn 0.6783 0.68941 0.34322 0.0
O82 O 0.66884 0.70157 0.37619 0.0
C83 C 0.6786 0.71133 0.29231 0.0
O84 O 0.65859 0.69339 0.2898 0.0
O85 O 0.70101 0.68318 0.35789 0.0
C86 C 0.65334 0.70537 0.37453 0.0
O87 O 0.64197 0.7004 0.35085 0.0
C88 C 0.63615 0.6456 0.34047 0.0
O89 O 0.63455 0.64875 0.36786 0.0
O90 O 0.69079 0.71327 0.31308 0.0
C91 C 0.3623 0.9968 0.33406 0.0
O92 O 0.36426 0.01338 0.35043 0.0
O93 O 0.32154 0.00537 0.36209 0.0
Zn94 Zn 0.31546 0.97548 0.34613 0.0
O95 O 0.29369 0.96422 0.3138 0.0
C96 C 0.29463 0.95609 0.3995 0.0
O97 O 0.29595 0.97547 0.40349 0.0
O98 O 0.34344 0.97896 0.33005 0.0
C99 C 0.27508 0.96256 0.31541 0.0
O100 O 0.26939 0.9689 0.33891 0.0
C101 C 0.32267 0.02088 0.34745 0.0
O102 O 0.31958 0.0179 0.31981 0.0
O103 O 0.30231 0.9523 0.37686 0.0
C104 C 0.00924 0.36807 0.31576 0.0
O105 O 0.00174 0.34861 0.30215 0.0
O106 O 0.99481 0.32507 0.37358 0.0
Zn107 Zn 0.02277 0.34728 0.35374 0.0
O108 O 0.02895 0.33271 0.32012 0.0
C109 C 0.04601 0.36302 0.40764 0.0
O110 O 0.02737 0.36049 0.41701 0.0
O111 O 0.01938 0.372 0.33926 0.0
C112 C 0.04251 0.32624 0.32195 0.0
O113 O 0.05126 0.3272 0.34671 0.0
C114 C 0.97862 0.30839 0.36063 0.0
O115 O 0.97994 0.30501 0.33323 0.0
O116 O 0.04804 0.35939 0.38147 0.0
C117 C 0.63977 0.9972 0.30336 0.0
O118 O 0.65888 0.00449 0.29075 0.0
O119 O 0.68443 0.01211 0.35342 0.0
Zn120 Zn 0.6585 0.98137 0.34141 0.0
O121 O 0.66591 0.96596 0.30983 0.0
C122 C 0.65451 0.95005 0.38292 0.0
O123 O 0.67124 0.95168 0.36864 0.0
O124 O 0.63537 0.98637 0.32615 0.0
C125 C 0.6845 0.96779 0.30614 0.0
O126 O 0.7011 0.98105 0.32325 0.0
C127 C 0.69815 0.015 0.37254 0.0
O128 O 0.69657 0.99753 0.3845 0.0
O129 O 0.64602 0.96116 0.37543 0.0
C130 C 0.96844 0.67056 0.37419 0.0
O131 O 0.97562 0.6568 0.37672 0.0
O132 O 0.00129 0.66373 0.32424 0.0
Zn133 Zn 0.00767 0.69336 0.34204 0.0
O134 O 0.02943 0.70415 0.37489 0.0
C135 C 0.03208 0.71835 0.29302 0.0
O136 O 0.03882 0.70412 0.29309 0.0
O137 O 0.97934 0.68797 0.35925 0.0
C138 C 0.05027 0.71718 0.37259 0.0
O139 O 0.05914 0.72378 0.34739 0.0
C140 C 0.01499 0.65732 0.32342 0.0
O141 O 0.03469 0.67019 0.33487 0.0
O142 O 0.01846 0.71708 0.31182 0.0
C143 C 0.33459 0.30532 0.35529 0.0
O144 O 0.35258 0.32335 0.34616 0.0
O145 O 0.34294 0.35214 0.32081 0.0
Zn146 Zn 0.31387 0.329 0.33802 0.0
O147 O 0.30724 0.34283 0.37193 0.0
C148 C 0.28822 0.3094 0.28483 0.0
O149 O 0.30423 0.3065 0.27632 0.0
O150 O 0.31595 0.30348 0.35294 0.0
C151 C 0.29416 0.3499 0.36984 0.0
O152 O 0.28636 0.34999 0.34479 0.0
C153 C 0.34441 0.36481 0.30109 0.0
O154 O 0.32653 0.36336 0.29135 0.0
O155 O 0.28892 0.31773 0.30953 0.0
C156 C 0.36521 0.01647 0.71501 0.0
O157 O 0.34944 0.01539 0.73107 0.0
O158 O 0.31759 0.9955 0.65796 0.0
Zn159 Zn 0.34241 0.02539 0.67345 0.0
O160 O 0.33207 0.03769 0.70522 0.0
C161 C 0.34197 0.04498 0.62078 0.0
O162 O 0.32234 0.02646 0.6184 0.0
O163 O 0.36603 0.02086 0.68884 0.0
C164 C 0.31525 0.03937 0.7033 0.0
O165 O 0.30316 0.03219 0.68007 0.0
C166 C 0.30251 0.98015 0.673 0.0
O167 O 0.30235 0.98338 0.70065 0.0
O168 O 0.35406 0.04819 0.64223 0.0
C169 C 0.02754 0.32689 0.65048 0.0
O170 O 0.01457 0.3306 0.63521 0.0
O171 O 0.9925 0.33818 0.70217 0.0
Zn172 Zn 0.99037 0.30995 0.6863 0.0
O173 O 0.97052 0.29763 0.65183 0.0
C174 C 0.96591 0.28724 0.73609 0.0
O175 O 0.9635 0.30462 0.73807 0.0
O176 O 0.02088 0.31783 0.67448 0.0
C177 C 0.95078 0.29315 0.65231 0.0
O178 O 0.9428 0.29698 0.67568 0.0
C179 C 0.99096 0.35224 0.68754 0.0
O180 O 0.98751 0.34872 0.66 0.0
O181 O 0.97739 0.28592 0.716 0.0
C182 C 0.66962 0.69694 0.64474 0.0
O183 O 0.66491 0.67819 0.63104 0.0
O184 O 0.65682 0.65506 0.70387 0.0
Zn185 Zn 0.68486 0.67938 0.68586 0.0
O186 O 0.69661 0.66766 0.65508 0.0
C187 C 0.71016 0.68145 0.73267 0.0
O188 O 0.69583 0.65959 0.73082 0.0
O189 O 0.67874 0.7016 0.66909 0.0
C190 C 0.69435 0.64834 0.6543 0.0
O191 O 0.68248 0.63366 0.67375 0.0
C192 C 0.64066 0.63894 0.69014 0.0
O193 O 0.64196 0.63693 0.66244 0.0
O194 O 0.70853 0.69439 0.7159 0.0
C195 C 0.29654 0.3305 0.65806 0.0
O196 O 0.30384 0.33985 0.68339 0.0
O197 O 0.3459 0.33954 0.68766 0.0
Zn198 Zn 0.3228 0.31094 0.6673 0.0
O199 O 0.33585 0.29992 0.6375 0.0
C200 C 0.31839 0.28666 0.71668 0.0
O201 O 0.33917 0.30308 0.71939 0.0
O202 O 0.30191 0.31711 0.64736 0.0
C203 C 0.35356 0.29994 0.64034 0.0
O204 O 0.36549 0.30864 0.66356 0.0
C205 C 0.36137 0.35659 0.67526 0.0
O206 O 0.36325 0.35598 0.64747 0.0
O207 O 0.30702 0.28643 0.69597 0.0
C208 C 0.64084 0.00161 0.7154 0.0
O209 O 0.64965 0.99051 0.7245 0.0
O210 O 0.67362 0.99097 0.66669 0.0
Zn211 Zn 0.67908 0.02099 0.68059 0.0
O212 O 0.70236 0.03542 0.71147 0.0
C213 C 0.70882 0.05614 0.64346 0.0
O214 O 0.72331 0.05905 0.66269 0.0
O215 O 0.65055 0.01605 0.69623 0.0
C216 C 0.7072 0.02501 0.72866 0.0
O217 O 0.69708 0.0029 0.72679 0.0
C218 C 0.68818 0.98939 0.65277 0.0
O219 O 0.70782 0.00747 0.64886 0.0
O220 O 0.6885 0.04119 0.64676 0.0
C221 C 0.99597 0.62828 0.67758 0.0
O222 O 0.00705 0.64152 0.65652 0.0
O223 O 0.00302 0.67939 0.66105 0.0
Zn224 Zn 0.97581 0.65465 0.67974 0.0
O225 O 0.96853 0.66638 0.71523 0.0
C226 C 0.95306 0.64108 0.6256 0.0
O227 O 0.97173 0.64373 0.61615 0.0
O228 O 0.98107 0.63014 0.6902 0.0
C229 C 0.95702 0.67527 0.71297 0.0
O230 O 0.95151 0.67797 0.68759 0.0
C231 C 0.01784 0.69729 0.6738 0.0
O232 O 0.01568 0.70079 0.70094 0.0
O233 O 0.95064 0.64346 0.65204 0.0
H234 H 0.1406 0.33156 0.22124 0.0
H235 H 0.11433 0.33383 0.25306 0.0
H236 H 0.05993 0.28065 0.20401 0.0
H237 H 0.08637 0.27804 0.17206 0.0
H238 H 0.14653 0.29784 0.2123 0.0
H239 H 0.12436 0.33912 0.15817 0.0
H240 H 0.09977 0.34706 0.13228 0.0
H241 H 0.08498 0.29291 0.07191 0.0
H242 H 0.1087 0.28412 0.0986 0.0
H243 H 0.16731 0.27751 0.10085 0.0
H244 H 0.20027 0.28346 0.07497 0.0
H245 H 0.24133 0.34415 0.12572 0.0
H246 H 0.20858 0.33812 0.15168 0.0
H247 H 0.15138 0.3083 0.10814 0.0
H248 H 0.17795 0.27036 0.16527 0.0
H249 H 0.2074 0.26932 0.19052 0.0
H250 H 0.21896 0.32609 0.24381 0.0
H251 H 0.18973 0.32729 0.21865 0.0
C252 C 0.11546 0.30461 0.19431 0.0
C253 C 0.12304 0.3203 0.2173 0.0
C254 C 0.1081 0.32165 0.23539 0.0
C255 C 0.0853 0.30733 0.23089 0.0
C256 C 0.07753 0.29175 0.20776 0.0
C257 C 0.09256 0.29035 0.18957 0.0
C258 C 0.13184 0.30312 0.17606 0.0
C259 C 0.1475 0.3001 0.1895 0.0
C260 C 0.13297 0.30577 0.14623 0.0
C261 C 0.11796 0.31061 0.13079 0.0
C262 C 0.11548 0.32859 0.13976 0.0
C263 C 0.10167 0.33332 0.12482 0.0
C264 C 0.09055 0.32052 0.10027 0.0
C265 C 0.09338 0.3029 0.09088 0.0
C266 C 0.1069 0.29793 0.10609 0.0
C267 C 0.18562 0.30728 0.12826 0.0
C268 C 0.18341 0.29212 0.10627 0.0
C269 C 0.20212 0.29548 0.09159 0.0
C270 C 0.22313 0.31424 0.0985 0.0
C271 C 0.22523 0.3296 0.12015 0.0
C272 C 0.20661 0.32613 0.13493 0.0
C273 C 0.16611 0.30353 0.1446 0.0
C274 C 0.1499 0.30546 0.13082 0.0
C275 C 0.16474 0.30051 0.17425 0.0
C276 C 0.18173 0.29897 0.19002 0.0
C277 C 0.1868 0.28255 0.18242 0.0
C278 C 0.20346 0.28187 0.19682 0.0
C279 C 0.21521 0.29763 0.21894 0.0
C280 C 0.20996 0.3138 0.22681 0.0
C281 C 0.19329 0.31442 0.21253 0.0
H282 H 0.72877 0.89561 0.19748 0.0
H283 H 0.72725 0.92253 0.2311 0.0
H284 H 0.66197 0.90094 0.20074 0.0
H285 H 0.66322 0.87378 0.16756 0.0
H286 H 0.70215 0.85069 0.19807 0.0
H287 H 0.71916 0.90739 0.12838 0.0
H288 H 0.71361 0.93338 0.1009 0.0
H289 H 0.64961 0.87786 0.07363 0.0
H290 H 0.65496 0.85192 0.10117 0.0
H291 H 0.65379 0.79899 0.09855 0.0
H292 H 0.64626 0.76615 0.06889 0.0
H293 H 0.70741 0.77405 0.09682 0.0
H294 H 0.71548 0.80757 0.12586 0.0
H295 H 0.68432 0.84056 0.0952 0.0
H296 H 0.6622 0.78509 0.16567 0.0
H297 H 0.6614 0.75707 0.19654 0.0
H298 H 0.72758 0.80607 0.22537 0.0
H299 H 0.72865 0.83412 0.19406 0.0
C300 C 0.69621 0.88282 0.17978 0.0
C301 C 0.71427 0.8969 0.19776 0.0
C302 C 0.71346 0.91228 0.21681 0.0
C303 C 0.69455 0.91371 0.21819 0.0
C304 C 0.67676 0.90016 0.19971 0.0
C305 C 0.67755 0.88476 0.18073 0.0
C306 C 0.69597 0.86472 0.16194 0.0
C307 C 0.69877 0.84873 0.1754 0.0
C308 C 0.69073 0.86171 0.13263 0.0
C309 C 0.68743 0.87774 0.11689 0.0
C310 C 0.70387 0.90085 0.11669 0.0
C311 C 0.70078 0.91561 0.10097 0.0
C312 C 0.68124 0.90741 0.08528 0.0
C313 C 0.6648 0.88439 0.08558 0.0
C314 C 0.66788 0.86966 0.10123 0.0
C315 C 0.68518 0.80573 0.11454 0.0
C316 C 0.66569 0.79379 0.09824 0.0
C317 C 0.66133 0.77504 0.0814 0.0
C318 C 0.67629 0.76778 0.08073 0.0
C319 C 0.6957 0.77949 0.09715 0.0
C320 C 0.7002 0.79846 0.11381 0.0
C321 C 0.68984 0.82615 0.13145 0.0
C322 C 0.68807 0.84267 0.11777 0.0
C323 C 0.69536 0.82925 0.16071 0.0
C324 C 0.69559 0.81166 0.17729 0.0
C325 C 0.67678 0.78969 0.17804 0.0
C326 C 0.67626 0.77373 0.19569 0.0
C327 C 0.69446 0.77956 0.21304 0.0
C328 C 0.71346 0.8013 0.21193 0.0
C329 C 0.71401 0.81726 0.19419 0.0
H330 H 0.09924 0.83617 0.18361 0.0
H331 H 0.07103 0.80788 0.21519 0.0
H332 H 0.09494 0.76359 0.19594 0.0
H333 H 0.12296 0.79168 0.16423 0.0
H334 H 0.14445 0.85517 0.1939 0.0
H335 H 0.09221 0.81238 0.11738 0.0
H336 H 0.06779 0.77841 0.08796 0.0
H337 H 0.12282 0.77077 0.06788 0.0
H338 H 0.14717 0.8044 0.09757 0.0
H339 H 0.20022 0.85896 0.10196 0.0
H340 H 0.23411 0.88581 0.07681 0.0
H341 H 0.2244 0.94 0.10178 0.0
H342 H 0.19026 0.9131 0.12689 0.0
H343 H 0.15934 0.84646 0.09254 0.0
H344 H 0.20982 0.88018 0.16746 0.0
H345 H 0.2362 0.90545 0.20396 0.0
H346 H 0.18986 0.92363 0.23349 0.0
H347 H 0.16361 0.89892 0.19617 0.0
C348 C 0.11308 0.81595 0.17149 0.0
C349 C 0.09809 0.82017 0.18574 0.0
C350 C 0.08204 0.8041 0.20368 0.0
C351 C 0.08108 0.78379 0.20795 0.0
C352 C 0.09547 0.77918 0.19284 0.0
C353 C 0.11136 0.79515 0.17472 0.0
C354 C 0.13207 0.83415 0.15593 0.0
C355 C 0.14746 0.85365 0.1715 0.0
C356 C 0.13652 0.8314 0.1272 0.0
C357 C 0.12148 0.81084 0.10981 0.0
C358 C 0.09898 0.8033 0.10686 0.0
C359 C 0.08512 0.78407 0.09 0.0
C360 C 0.09363 0.77226 0.07582 0.0
C361 C 0.11607 0.77978 0.07866 0.0
C362 C 0.1299 0.79893 0.09552 0.0
C363 C 0.19273 0.88404 0.1163 0.0
C364 C 0.20532 0.8766 0.10202 0.0
C365 C 0.22464 0.89185 0.08778 0.0
C366 C 0.23158 0.91474 0.0875 0.0
C367 C 0.21917 0.92233 0.10187 0.0
C368 C 0.19983 0.90705 0.11621 0.0
C369 C 0.17188 0.86749 0.13056 0.0
C370 C 0.15614 0.84835 0.11477 0.0
C371 C 0.16763 0.87008 0.15948 0.0
C372 C 0.18479 0.88784 0.17874 0.0
C373 C 0.20558 0.89021 0.18098 0.0
C374 C 0.22059 0.90449 0.20194 0.0
C375 C 0.21492 0.91635 0.2213 0.0
C376 C 0.19452 0.91468 0.21857 0.0
C377 C 0.17957 0.90055 0.19738 0.0
H378 H 0.26295 0.16981 0.82932 0.0
H379 H 0.26365 0.19742 0.79735 0.0
H380 H 0.33465 0.23877 0.80577 0.0
H381 H 0.33389 0.21162 0.83831 0.0
H382 H 0.29023 0.14938 0.81563 0.0
H383 H 0.27963 0.1932 0.88987 0.0
H384 H 0.28888 0.22722 0.91861 0.0
H385 H 0.35232 0.2372 0.93901 0.0
H386 H 0.34335 0.20351 0.90999 0.0
H387 H 0.34088 0.14864 0.90841 0.0
H388 H 0.34759 0.12224 0.9327 0.0
H389 H 0.28176 0.0674 0.91075 0.0
H390 H 0.27498 0.09378 0.88623 0.0
H391 H 0.31211 0.16117 0.91724 0.0
H392 H 0.33015 0.1263 0.84564 0.0
H393 H 0.33185 0.10006 0.81155 0.0
H394 H 0.2676 0.08027 0.77901 0.0
H395 H 0.26527 0.10576 0.81425 0.0
C396 C 0.29836 0.18881 0.8362 0.0
C397 C 0.27859 0.18504 0.82465 0.0
C398 C 0.27898 0.2007 0.80649 0.0
C399 C 0.29923 0.21993 0.79906 0.0
C400 C 0.31891 0.22396 0.8112 0.0
C401 C 0.31847 0.20855 0.82978 0.0
C402 C 0.29841 0.17121 0.85272 0.0
C403 C 0.29433 0.15151 0.8381 0.0
C404 C 0.3052 0.17491 0.88145 0.0
C405 C 0.31084 0.19588 0.89769 0.0
C406 C 0.29565 0.20287 0.90017 0.0
C407 C 0.30084 0.22214 0.91663 0.0
C408 C 0.32124 0.23455 0.93085 0.0
C409 C 0.33651 0.22775 0.92815 0.0
C410 C 0.33135 0.20855 0.9117 0.0
C411 C 0.30745 0.12314 0.89547 0.0
C412 C 0.32782 0.13097 0.90898 0.0
C413 C 0.33169 0.11598 0.92271 0.0
C414 C 0.31515 0.093 0.92341 0.0
C415 C 0.29466 0.08513 0.91034 0.0
C416 C 0.29085 0.10012 0.89636 0.0
C417 C 0.30381 0.13913 0.88022 0.0
C418 C 0.30733 0.15857 0.89499 0.0
C419 C 0.29762 0.13572 0.85118 0.0
C420 C 0.29739 0.11777 0.83294 0.0
C421 C 0.31598 0.11571 0.83206 0.0
C422 C 0.31707 0.10088 0.81243 0.0
C423 C 0.29984 0.08827 0.79287 0.0
C424 C 0.28097 0.08979 0.79411 0.0
C425 C 0.27972 0.10438 0.8141 0.0
H426 H 0.82503 0.10204 0.83684 0.0
H427 H 0.79674 0.07318 0.80433 0.0
H428 H 0.75334 0.09706 0.82596 0.0
H429 H 0.78147 0.12577 0.85859 0.0
H430 H 0.84475 0.14814 0.83193 0.0
H431 H 0.80099 0.0924 0.90109 0.0
H432 H 0.76774 0.06622 0.92801 0.0
H433 H 0.76069 0.12157 0.95612 0.0
H434 H 0.7935 0.14769 0.92864 0.0
H435 H 0.84829 0.20202 0.93002 0.0
H436 H 0.87498 0.23551 0.95828 0.0
H437 H 0.92722 0.22507 0.93167 0.0
H438 H 0.90044 0.19112 0.90392 0.0
H439 H 0.83435 0.15984 0.93409 0.0
H440 H 0.87119 0.21396 0.86275 0.0
H441 H 0.89992 0.24171 0.83145 0.0
H442 H 0.91702 0.19308 0.80493 0.0
H443 H 0.88844 0.16527 0.8366 0.0
C444 C 0.80529 0.11595 0.85026 0.0
C445 C 0.80932 0.10088 0.83484 0.0
C446 C 0.79323 0.08444 0.81638 0.0
C447 C 0.77304 0.0831 0.81275 0.0
C448 C 0.76882 0.09784 0.82856 0.0
C449 C 0.78482 0.11414 0.8472 0.0
C450 C 0.82303 0.13461 0.8679 0.0
C451 C 0.84272 0.15046 0.85445 0.0
C452 C 0.81995 0.13808 0.89697 0.0
C453 C 0.79964 0.12199 0.91264 0.0
C454 C 0.79214 0.09887 0.9127 0.0
C455 C 0.77332 0.08399 0.92816 0.0
C456 C 0.7619 0.09207 0.94399 0.0
C457 C 0.76936 0.11511 0.94401 0.0
C458 C 0.78807 0.12995 0.92842 0.0
C459 C 0.87236 0.19411 0.91467 0.0
C460 C 0.86545 0.20681 0.93035 0.0
C461 C 0.88063 0.22592 0.94638 0.0
C462 C 0.90299 0.23269 0.94694 0.0
C463 C 0.91 0.22006 0.93138 0.0
C464 C 0.89476 0.20083 0.91546 0.0
C465 C 0.85593 0.17365 0.898 0.0
C466 C 0.83655 0.1574 0.91166 0.0
C467 C 0.85902 0.17015 0.86892 0.0
C468 C 0.87781 0.1876 0.85222 0.0
C469 C 0.88145 0.2094 0.85077 0.0
C470 C 0.89774 0.22518 0.83287 0.0
C471 C 0.91049 0.21934 0.81602 0.0
C472 C 0.90733 0.19781 0.81793 0.0
C473 C 0.89104 0.18201 0.83587 0.0
H474 H 0.8088 0.67433 0.81274 0.0
H475 H 0.77937 0.67317 0.78518 0.0
H476 H 0.78775 0.73075 0.83376 0.0
H477 H 0.81754 0.73212 0.86145 0.0
H478 H 0.85087 0.70493 0.81733 0.0
H479 H 0.78961 0.66846 0.87882 0.0
H480 H 0.75781 0.66205 0.9074 0.0
H481 H 0.80068 0.72131 0.9594 0.0
H482 H 0.83264 0.72804 0.93047 0.0
H483 H 0.89823 0.72785 0.92232 0.0
H484 H 0.92316 0.7195 0.94711 0.0
H485 H 0.89083 0.65346 0.90579 0.0
H486 H 0.86631 0.66199 0.88057 0.0
H487 H 0.84869 0.69994 0.92234 0.0
H488 H 0.91194 0.72576 0.85843 0.0
H489 H 0.93797 0.72125 0.82818 0.0
H490 H 0.88324 0.66838 0.77927 0.0
H491 H 0.85725 0.6722 0.80984 0.0
C492 C 0.81538 0.70332 0.83913 0.0
C493 C 0.80443 0.68681 0.81744 0.0
C494 C 0.78761 0.68606 0.80183 0.0
C495 C 0.78144 0.70181 0.80759 0.0
C496 C 0.79231 0.71842 0.8292 0.0
C497 C 0.80921 0.71915 0.84494 0.0
C498 C 0.83321 0.70368 0.85546 0.0
C499 C 0.85041 0.70386 0.84031 0.0
C500 C 0.83264 0.70238 0.88542 0.0
C501 C 0.81342 0.69897 0.90224 0.0
C502 C 0.79217 0.68029 0.89609 0.0
C503 C 0.77408 0.67652 0.91245 0.0
C504 C 0.77704 0.69122 0.93537 0.0
C505 C 0.79822 0.70985 0.94171 0.0
C506 C 0.81635 0.71366 0.92527 0.0
C507 C 0.88068 0.69561 0.89947 0.0
C508 C 0.89654 0.71159 0.91868 0.0
C509 C 0.91067 0.70684 0.93278 0.0
C510 C 0.90875 0.68588 0.92821 0.0
C511 C 0.89251 0.66971 0.90952 0.0
C512 C 0.87863 0.67459 0.89513 0.0
C513 C 0.86598 0.70063 0.88407 0.0
C514 C 0.84947 0.70162 0.89944 0.0
C515 C 0.86649 0.70176 0.85411 0.0
C516 C 0.8826 0.69928 0.83645 0.0
C517 C 0.90552 0.713 0.84144 0.0
C518 C 0.92037 0.71056 0.82414 0.0
C519 C 0.91244 0.69463 0.80143 0.0
C520 C 0.88961 0.68085 0.79661 0.0
C521 C 0.87483 0.68312 0.81397 0.0
H522 H 0.80581 0.66903 0.5611 0.0
H523 H 0.77783 0.6684 0.59273 0.0
H524 H 0.72646 0.61046 0.54579 0.0
H525 H 0.75456 0.61122 0.51373 0.0
H526 H 0.81527 0.63624 0.55272 0.0
H527 H 0.78975 0.67489 0.49928 0.0
H528 H 0.76458 0.68187 0.47309 0.0
H529 H 0.75124 0.62796 0.41309 0.0
H530 H 0.77569 0.62025 0.43992 0.0
H531 H 0.83494 0.61632 0.44053 0.0
H532 H 0.86746 0.62281 0.41312 0.0
H533 H 0.90889 0.68406 0.46274 0.0
H534 H 0.87655 0.67739 0.4904 0.0
H535 H 0.81843 0.64624 0.44853 0.0
H536 H 0.84682 0.60974 0.50306 0.0
H537 H 0.87612 0.60798 0.52746 0.0
H538 H 0.88727 0.66308 0.58386 0.0
H539 H 0.8583 0.66516 0.55933 0.0
C540 C 0.78224 0.6402 0.53507 0.0
C541 C 0.78853 0.65623 0.55751 0.0
C542 C 0.77262 0.65592 0.57548 0.0
C543 C 0.75015 0.63943 0.5715 0.0
C544 C 0.74375 0.62337 0.54903 0.0
C545 C 0.75972 0.62383 0.53081 0.0
C546 C 0.79951 0.64043 0.51681 0.0
C547 C 0.81595 0.63848 0.52994 0.0
C548 C 0.80017 0.64295 0.487 0.0
C549 C 0.78428 0.64671 0.47194 0.0
C550 C 0.78104 0.66418 0.48091 0.0
C551 C 0.76689 0.66835 0.46583 0.0
C552 C 0.75611 0.65541 0.44122 0.0
C553 C 0.75942 0.63807 0.43207 0.0
C554 C 0.77334 0.63371 0.44736 0.0
C555 C 0.85346 0.6463 0.46755 0.0
C556 C 0.85103 0.63114 0.44542 0.0
C557 C 0.86949 0.63482 0.42987 0.0
C558 C 0.89048 0.6539 0.43599 0.0
C559 C 0.89281 0.66924 0.4578 0.0
C560 C 0.87443 0.66542 0.47354 0.0
C561 C 0.83414 0.64229 0.48455 0.0
C562 C 0.81737 0.64352 0.47122 0.0
C563 C 0.83327 0.63939 0.5142 0.0
C564 C 0.85047 0.63769 0.52927 0.0
C565 C 0.85563 0.62152 0.52059 0.0
C566 C 0.87222 0.62041 0.53451 0.0
C567 C 0.88371 0.63537 0.55741 0.0
C568 C 0.87847 0.65139 0.56625 0.0
C569 C 0.86193 0.6525 0.55234 0.0
H570 H 0.39918 0.23312 0.52062 0.0
H571 H 0.39977 0.26037 0.55585 0.0
H572 H 0.33046 0.23306 0.5404 0.0
H573 H 0.32994 0.20617 0.50482 0.0
H574 H 0.37026 0.18527 0.52649 0.0
H575 H 0.38505 0.24271 0.45948 0.0
H576 H 0.3787 0.26888 0.43384 0.0
H577 H 0.31481 0.2133 0.40643 0.0
H578 H 0.32082 0.18714 0.43249 0.0
H579 H 0.32054 0.13419 0.4264 0.0
H580 H 0.31268 0.10072 0.39778 0.0
H581 H 0.37437 0.10951 0.42494 0.0
H582 H 0.38271 0.14352 0.45292 0.0
H583 H 0.35006 0.17606 0.42446 0.0
H584 H 0.32871 0.12004 0.49208 0.0
H585 H 0.32665 0.09123 0.52257 0.0
H586 H 0.3926 0.13874 0.55345 0.0
H587 H 0.39504 0.16755 0.52232 0.0
C588 C 0.36455 0.21776 0.51006 0.0
C589 C 0.38423 0.2333 0.52447 0.0
C590 C 0.38458 0.24879 0.54447 0.0
C591 C 0.36512 0.24854 0.55073 0.0
C592 C 0.34561 0.23343 0.53579 0.0
C593 C 0.34534 0.2182 0.5155 0.0
C594 C 0.36346 0.19967 0.49143 0.0
C595 C 0.36639 0.18349 0.50398 0.0
C596 C 0.35725 0.19683 0.4625 0.0
C597 C 0.35335 0.21298 0.44805 0.0
C598 C 0.36954 0.23618 0.44834 0.0
C599 C 0.36601 0.25106 0.43362 0.0
C600 C 0.34634 0.24288 0.4183 0.0
C601 C 0.33009 0.2198 0.41813 0.0
C602 C 0.33357 0.20495 0.43292 0.0
C603 C 0.35216 0.14131 0.442 0.0
C604 C 0.33254 0.12912 0.426 0.0
C605 C 0.32799 0.11001 0.40977 0.0
C606 C 0.34293 0.10272 0.40939 0.0
C607 C 0.36266 0.11494 0.42508 0.0
C608 C 0.36732 0.13421 0.44113 0.0
C609 C 0.35658 0.16138 0.45955 0.0
C610 C 0.35433 0.17796 0.44684 0.0
C611 C 0.36246 0.16406 0.48867 0.0
C612 C 0.36215 0.14592 0.50463 0.0
C613 C 0.34302 0.12412 0.50469 0.0
C614 C 0.34178 0.10771 0.52213 0.0
C615 C 0.35951 0.11293 0.54004 0.0
C616 C 0.37886 0.13445 0.53954 0.0
C617 C 0.38018 0.15084 0.52192 0.0
H618 H 0.76145 0.14764 0.49719 0.0
H619 H 0.73296 0.11964 0.529 0.0
H620 H 0.78286 0.11394 0.57159 0.0
H621 H 0.81125 0.14189 0.54017 0.0
H622 H 0.82227 0.1856 0.53658 0.0
H623 H 0.77678 0.15716 0.42994 0.0
H624 H 0.74977 0.12172 0.4046 0.0
H625 H 0.77487 0.0865 0.44836 0.0
H626 H 0.80158 0.12173 0.47393 0.0
H627 H 0.86675 0.19103 0.43225 0.0
H628 H 0.89956 0.2184 0.4058 0.0
H629 H 0.89387 0.27273 0.44196 0.0
H630 H 0.86067 0.2453 0.46818 0.0
H631 H 0.82541 0.17854 0.43164 0.0
H632 H 0.88449 0.21376 0.499 0.0
H633 H 0.91303 0.23903 0.53362 0.0
H634 H 0.86709 0.25369 0.57418 0.0
H635 H 0.83877 0.22917 0.53892 0.0
C636 C 0.78842 0.14684 0.51646 0.0
C637 C 0.76616 0.14012 0.51313 0.0
C638 C 0.74997 0.12423 0.53119 0.0
C639 C 0.75594 0.11483 0.55248 0.0
C640 C 0.77804 0.12103 0.55517 0.0
C641 C 0.79418 0.13698 0.53737 0.0
C642 C 0.80606 0.16501 0.49931 0.0
C643 C 0.82288 0.18435 0.51356 0.0
C644 C 0.80698 0.16296 0.46949 0.0
C645 C 0.79096 0.14191 0.45389 0.0
C646 C 0.77645 0.1418 0.43399 0.0
C647 C 0.76114 0.12171 0.41959 0.0
C648 C 0.76051 0.10167 0.42466 0.0
C649 C 0.77525 0.10187 0.44421 0.0
C650 C 0.79035 0.12187 0.45881 0.0
C651 C 0.8613 0.21613 0.45228 0.0
C652 C 0.87235 0.20879 0.43427 0.0
C653 C 0.89108 0.22434 0.41929 0.0
C654 C 0.89902 0.24746 0.42205 0.0
C655 C 0.88788 0.25489 0.43967 0.0
C656 C 0.86907 0.2393 0.45464 0.0
C657 C 0.84199 0.19941 0.46893 0.0
C658 C 0.82466 0.18034 0.45456 0.0
C659 C 0.84106 0.20143 0.49891 0.0
C660 C 0.85949 0.21968 0.51621 0.0
C661 C 0.88077 0.22307 0.5146 0.0
C662 C 0.897 0.23733 0.53445 0.0
C663 C 0.89203 0.24802 0.55649 0.0
C664 C 0.87118 0.24556 0.5573 0.0
C665 C 0.85506 0.23156 0.53724 0.0
H666 H 0.9432 0.5025 0.15792 0.0
H667 H 0.94344 0.52863 0.12421 0.0
H668 H 0.00684 0.58177 0.1567 0.0
H669 H 0.00722 0.55545 0.18946 0.0
H670 H 0.9711 0.4892 0.15548 0.0
H671 H 0.95336 0.52793 0.22946 0.0
H672 H 0.96031 0.56237 0.25525 0.0
H673 H 0.02531 0.57783 0.27851 0.0
H674 H 0.0185 0.54355 0.25272 0.0
H675 H 0.0187 0.48835 0.25211 0.0
H676 H 0.02521 0.46179 0.2764 0.0
H677 H 0.96108 0.40649 0.24923 0.0
H678 H 0.9544 0.433 0.22502 0.0
H679 H 0.98873 0.49973 0.25844 0.0
H680 H 0.00977 0.46518 0.18774 0.0
H681 H 0.01118 0.43811 0.15467 0.0
H682 H 0.94806 0.4199 0.11969 0.0
H683 H 0.94595 0.44607 0.15385 0.0
C684 C 0.97514 0.52697 0.17636 0.0
C685 C 0.95702 0.51986 0.15814 0.0
C686 C 0.95707 0.53475 0.13903 0.0
C687 C 0.97517 0.55704 0.138 0.0
C688 C 0.99269 0.56462 0.15734 0.0
C689 C 0.99282 0.54961 0.17613 0.0
C690 C 0.97662 0.5101 0.19298 0.0
C691 C 0.9743 0.49113 0.1782 0.0
C692 C 0.98206 0.51331 0.22227 0.0
C693 C 0.98549 0.5333 0.239 0.0
C694 C 0.96907 0.53869 0.24017 0.0
C695 C 0.97297 0.55821 0.25491 0.0
C696 C 0.99332 0.57253 0.26865 0.0
C697 C 0.00952 0.5669 0.26804 0.0
C698 C 0.0056 0.54738 0.25341 0.0
C699 C 0.98612 0.46261 0.23662 0.0
C700 C 0.00594 0.47054 0.2516 0.0
C701 C 0.0097 0.45547 0.26534 0.0
C702 C 0.99362 0.43232 0.26446 0.0
C703 C 0.97362 0.42436 0.25004 0.0
C704 C 0.96987 0.43943 0.23621 0.0
C705 C 0.98272 0.47859 0.221 0.0
C706 C 0.98486 0.49742 0.2359 0.0
C707 C 0.97764 0.47552 0.19161 0.0
C708 C 0.97759 0.45751 0.17363 0.0
C709 C 0.99583 0.45484 0.17372 0.0
C710 C 0.99675 0.43954 0.1547 0.0
C711 C 0.97975 0.4271 0.13474 0.0
C712 C 0.96129 0.42933 0.135 0.0
C713 C 0.96017 0.44432 0.15439 0.0
H714 H 0.49782 0.43898 0.15725 0.0
H715 H 0.47069 0.41157 0.1223 0.0
H716 H 0.43054 0.44045 0.13596 0.0
H717 H 0.45739 0.46757 0.17107 0.0
H718 H 0.52024 0.48733 0.15247 0.0
H719 H 0.47396 0.43033 0.22164 0.0
H720 H 0.43811 0.40339 0.24313 0.0
H721 H 0.42541 0.45689 0.25789 0.0
H722 H 0.46142 0.48392 0.2369 0.0
H723 H 0.519 0.53763 0.25233 0.0
H724 H 0.54456 0.56993 0.28309 0.0
H725 H 0.59749 0.55977 0.25942 0.0
H726 H 0.57181 0.52694 0.22923 0.0
H727 H 0.50381 0.49545 0.25345 0.0
H728 H 0.54546 0.55218 0.18809 0.0
H729 H 0.57456 0.58086 0.15819 0.0
H730 H 0.59167 0.53289 0.12846 0.0
H731 H 0.56291 0.50419 0.15906 0.0
C732 C 0.4795 0.45516 0.16682 0.0
C733 C 0.48303 0.43919 0.15296 0.0
C734 C 0.46761 0.42359 0.13316 0.0
C735 C 0.44873 0.42412 0.12664 0.0
C736 C 0.44502 0.43983 0.14083 0.0
C737 C 0.46027 0.4552 0.16084 0.0
C738 C 0.4965 0.4728 0.18618 0.0
C739 C 0.51702 0.48886 0.1748 0.0
C740 C 0.49172 0.47532 0.21478 0.0
C741 C 0.47024 0.45904 0.22773 0.0
C742 C 0.46345 0.43623 0.22954 0.0
C743 C 0.44311 0.42094 0.24177 0.0
C744 C 0.42923 0.42825 0.25203 0.0
C745 C 0.43598 0.45103 0.25012 0.0
C746 C 0.45645 0.46638 0.23824 0.0
C747 C 0.5435 0.52991 0.23829 0.0
C748 C 0.53605 0.54218 0.25389 0.0
C749 C 0.55059 0.56062 0.27134 0.0
C750 C 0.57284 0.56717 0.27337 0.0
C751 C 0.58035 0.55492 0.25799 0.0
C752 C 0.56575 0.53633 0.24068 0.0
C753 C 0.52784 0.51031 0.21982 0.0
C754 C 0.5075 0.49383 0.23135 0.0
C755 C 0.53258 0.5079 0.19101 0.0
C756 C 0.55213 0.52607 0.17607 0.0
C757 C 0.55592 0.54798 0.17594 0.0
C758 C 0.57243 0.56432 0.1588 0.0
C759 C 0.5852 0.55892 0.14126 0.0
C760 C 0.58203 0.53733 0.14205 0.0
C761 C 0.56561 0.521 0.15938 0.0
H762 H 0.55698 0.05892 0.15056 0.0
H763 H 0.58351 0.05814 0.11719 0.0
H764 H 0.565 0.99241 0.146 0.0
H765 H 0.53826 0.99296 0.17906 0.0
H766 H 0.51239 0.02934 0.14944 0.0
H767 H 0.57185 0.05248 0.21795 0.0
H768 H 0.59969 0.04702 0.24004 0.0
H769 H 0.54801 0.98149 0.26763 0.0
H770 H 0.52015 0.98683 0.24555 0.0
H771 H 0.44938 0.9875 0.21074 0.0
H772 H 0.4176 0.98119 0.23957 0.0
H773 H 0.46077 0.04062 0.29115 0.0
H774 H 0.49263 0.04693 0.26242 0.0
H775 H 0.50838 0.01782 0.25335 0.0
H776 H 0.46874 0.99693 0.14405 0.0
H777 H 0.44091 0.99863 0.11615 0.0
H778 H 0.45136 0.0558 0.16769 0.0
H779 H 0.47928 0.05409 0.19588 0.0
C780 C 0.54578 0.02608 0.16742 0.0
C781 C 0.55883 0.04447 0.14994 0.0
C782 C 0.57398 0.04409 0.13107 0.0
C783 C 0.57618 0.02528 0.12938 0.0
C784 C 0.56358 0.00713 0.14729 0.0
C785 C 0.54841 0.00749 0.16613 0.0
C786 C 0.52833 0.02564 0.18549 0.0
C787 C 0.51165 0.02706 0.17222 0.0
C788 C 0.5272 0.02237 0.21511 0.0
C789 C 0.54397 0.02 0.23003 0.0
C790 C 0.56651 0.037 0.22887 0.0
C791 C 0.58234 0.03393 0.24145 0.0
C792 C 0.57577 0.01386 0.2553 0.0
C793 C 0.55326 0.99707 0.25699 0.0
C794 C 0.53744 0.00017 0.24453 0.0
C795 C 0.47328 0.0178 0.23434 0.0
C796 C 0.45199 -0.00078 0.22816 0.0
C797 C 0.43394 0.99556 0.24461 0.0
C798 C 0.43699 0.01046 0.26737 0.0
C799 C 0.45823 0.02899 0.27364 0.0
C800 C 0.47631 0.03256 0.25731 0.0
C801 C 0.49246 0.02152 0.21724 0.0
C802 C 0.50938 0.02056 0.23067 0.0
C803 C 0.49361 0.02481 0.18765 0.0
C804 C 0.47604 0.02537 0.17202 0.0
C805 C 0.46498 0.00976 0.14948 0.0
C806 C 0.4491 0.01067 0.13367 0.0
C807 C 0.44416 0.0273 0.13999 0.0
C808 C 0.45498 0.04281 0.16268 0.0
C809 C 0.4708 0.0418 0.1787 0.0
H810 H 0.48015 0.01032 0.88417 0.0
H811 H 0.45475 0.01495 0.91513 0.0
H812 H 0.3991 0.96133 0.86829 0.0
H813 H 0.4246 0.95654 0.83711 0.0
H814 H 0.48486 0.97493 0.87498 0.0
H815 H 0.46458 0.01895 0.82169 0.0
H816 H 0.43896 0.02674 0.79798 0.0
H817 H 0.41883 0.96948 0.74071 0.0
H818 H 0.44391 0.96119 0.76493 0.0
H819 H 0.51259 0.94728 0.79768 0.0
H820 H 0.54554 0.95141 0.77399 0.0
H821 H 0.56693 0.01977 0.75342 0.0
H822 H 0.53397 0.01565 0.77687 0.0
H823 H 0.48826 0.98607 0.77098 0.0
H824 H 0.49673 0.94201 0.86694 0.0
H825 H 0.52531 0.94072 0.89406 0.0
H826 H 0.5743 0.00733 0.86635 0.0
H827 H 0.54587 0.00874 0.83946 0.0
C828 C 0.45426 0.98311 0.85833 0.0
C829 C 0.4625 -0.00056 0.88062 0.0
C830 C 0.44807 0.00215 0.89817 0.0
C831 C 0.42517 0.98851 0.89386 0.0
C832 C 0.41678 0.97199 0.8718 0.0
C833 C 0.43127 0.96932 0.85408 0.0
C834 C 0.47001 0.98096 0.83958 0.0
C835 C 0.48533 0.97701 0.85218 0.0
C836 C 0.47094 0.9841 0.80989 0.0
C837 C 0.45584 0.98922 0.79541 0.0
C838 C 0.45448 0.0079 0.80426 0.0
C839 C 0.44004 0.01246 0.79064 0.0
C840 C 0.42707 0.99865 0.76769 0.0
C841 C 0.42874 0.98028 0.75842 0.0
C842 C 0.44302 0.97559 0.7722 0.0
C843 C 0.52093 0.98119 0.78901 0.0
C844 C 0.52419 0.96301 0.78764 0.0
C845 C 0.5429 0.96535 0.77423 0.0
C846 C 0.55857 0.98592 0.7622 0.0
C847 C 0.55494 0.00381 0.76266 0.0
C848 C 0.53614 0.00141 0.77584 0.0
C849 C 0.5029 0.97999 0.80646 0.0
C850 C 0.48726 0.98333 0.79366 0.0
C851 C 0.50194 0.97683 0.83606 0.0
C852 C 0.51924 0.9754 0.85109 0.0
C853 C 0.51366 0.95622 0.86651 0.0
C854 C 0.52991 0.95541 0.88176 0.0
C855 C 0.55182 0.97386 0.8819 0.0
C856 C 0.55747 0.99288 0.86618 0.0
C857 C 0.54129 0.99367 0.8509 0.0
H858 H 0.05058 0.5571 0.86345 0.0
H859 H 0.04947 0.58459 0.89615 0.0
H860 H 0.98942 0.5711 0.85624 0.0
H861 H 0.98956 0.54253 0.82485 0.0
H862 H 0.02422 0.51524 0.86347 0.0
H863 H 0.0439 0.56845 0.78809 0.0
H864 H 0.04202 0.5928 0.75474 0.0
H865 H 0.97579 0.53905 0.73127 0.0
H866 H 0.978 0.51509 0.76474 0.0
H867 H 0.97591 0.458 0.76706 0.0
H868 H 0.97026 0.42491 0.73938 0.0
H869 H 0.03347 0.43837 0.76796 0.0
H870 H 0.03947 0.47187 0.79517 0.0
H871 H 0.0063 0.5006 0.7607 0.0
H872 H 0.98488 0.44819 0.8354 0.0
H873 H 0.98575 0.42131 0.86677 0.0
H874 H 0.05203 0.47231 0.89302 0.0
H875 H 0.05136 0.49924 0.86132 0.0
C876 C 0.0202 0.54768 0.8415 0.0
C877 C 0.03728 0.56021 0.86144 0.0
C878 C 0.03676 0.57599 0.87999 0.0
C879 C 0.01934 0.5798 0.87861 0.0
C880 C 0.00305 0.56844 0.85751 0.0
C881 C 0.00327 0.55226 0.83941 0.0
C882 C 0.01868 0.52812 0.82552 0.0
C883 C 0.02083 0.51239 0.84082 0.0
C884 C 0.01332 0.52372 0.79622 0.0
C885 C 0.01153 0.53954 0.7779 0.0
C886 C 0.02922 0.56179 0.77504 0.0
C887 C 0.02836 0.5755 0.75475 0.0
C888 C 0.01029 0.56697 0.73558 0.0
C889 C 0.9915 0.54557 0.74166 0.0
C890 C 0.99236 0.53186 0.76181 0.0
C891 C 0.00805 0.46732 0.78332 0.0
C892 C 0.98856 0.45385 0.76741 0.0
C893 C 0.9853 0.435 0.75171 0.0
C894 C 0.00145 0.42932 0.75176 0.0
C895 C 0.02084 0.44257 0.76783 0.0
C896 C 0.02418 0.46153 0.78342 0.0
C897 C 0.01179 0.48796 0.79866 0.0
C898 C 0.01001 0.50375 0.78328 0.0
C899 C 0.01731 0.49231 0.82786 0.0
C900 C 0.01814 0.47569 0.84582 0.0
C901 C -0.00025 0.45352 0.84749 0.0
C902 C 0.00021 0.43821 0.86539 0.0
C903 C 0.01898 0.44489 0.88203 0.0
C904 C 0.03747 0.46691 0.88018 0.0
C905 C 0.03702 0.48223 0.86225 0.0
H906 H 0.43159 0.50047 0.85501 0.0
H907 H 0.4047 0.47214 0.88772 0.0
H908 H 0.42685 0.42727 0.86267 0.0
H909 H 0.45362 0.45543 0.82996 0.0
H910 H 0.47656 0.51944 0.86099 0.0
H911 H 0.4212 0.47585 0.78891 0.0
H912 H 0.39536 0.44194 0.76037 0.0
H913 H 0.44949 0.43523 0.73178 0.0
H914 H 0.47523 0.46856 0.76091 0.0
H915 H 0.52826 0.5217 0.76414 0.0
H916 H 0.56187 0.54822 0.73831 0.0
H917 H 0.55567 0.60359 0.76889 0.0
H918 H 0.52161 0.57702 0.79419 0.0
H919 H 0.48779 0.51003 0.75844 0.0
H920 H 0.53926 0.54097 0.83493 0.0
H921 H 0.56673 0.56716 0.87012 0.0
H922 H 0.52474 0.59246 0.89321 0.0
H923 H 0.49706 0.56609 0.85809 0.0
C924 C 0.44447 0.47997 0.83994 0.0
C925 C 0.43035 0.48436 0.85618 0.0
C926 C 0.41506 0.46828 0.87476 0.0
C927 C 0.41397 0.44776 0.87762 0.0
C928 C 0.42749 0.44303 0.86066 0.0
C929 C 0.44265 0.45902 0.84195 0.0
C930 C 0.46276 0.49811 0.82341 0.0
C931 C 0.47873 0.51767 0.83837 0.0
C932 C 0.46608 0.49521 0.79423 0.0
C933 C 0.45017 0.4747 0.77723 0.0
C934 C 0.4275 0.46695 0.7768 0.0
C935 C 0.41279 0.44775 0.76042 0.0
C936 C 0.42061 0.43622 0.74399 0.0
C937 C 0.44322 0.44398 0.74429 0.0
C938 C 0.45786 0.46301 0.76082 0.0
C939 C 0.52244 0.54737 0.78121 0.0
C940 C 0.53402 0.53952 0.76521 0.0
C941 C 0.55319 0.5546 0.75057 0.0
C942 C 0.56114 0.57776 0.75177 0.0
C943 C 0.54972 0.58573 0.76781 0.0
C944 C 0.53041 0.57061 0.78233 0.0
C945 C 0.50182 0.53106 0.7962 0.0
C946 C 0.48538 0.51199 0.78094 0.0
C947 C 0.49847 0.53386 0.82537 0.0
C948 C 0.5162 0.55172 0.84379 0.0
C949 C 0.53615 0.55249 0.84708 0.0
C950 C 0.55176 0.56733 0.86717 0.0
C951 C 0.54766 0.58163 0.88414 0.0
C952 C 0.52814 0.58155 0.88015 0.0
C953 C 0.51241 0.56654 0.86022 0.0
H954 H 0.61135 0.85517 0.52525 0.0
H955 H 0.61065 0.88274 0.49458 0.0
H956 H 0.66676 0.89023 0.44814 0.0
H957 H 0.66723 0.86251 0.47824 0.0
H958 H 0.63341 0.81802 0.48381 0.0
H959 H 0.62164 0.84893 0.59429 0.0
H960 H 0.63278 0.88489 0.61967 0.0
H961 H 0.69053 0.91937 0.5664 0.0
H962 H 0.67941 0.88357 0.54096 0.0
H963 H 0.675 0.8146 0.58441 0.0
H964 H 0.68064 0.78732 0.60822 0.0
H965 H 0.61715 0.73288 0.57778 0.0
H966 H 0.6113 0.76019 0.55404 0.0
H967 H 0.64652 0.82751 0.58798 0.0
H968 H 0.66801 0.79138 0.52014 0.0
H969 H 0.67005 0.76472 0.48703 0.0
H970 H 0.60882 0.74871 0.44807 0.0
H971 H 0.60609 0.77456 0.48216 0.0
C972 C 0.63931 0.85683 0.50388 0.0
C973 C 0.62358 0.86291 0.5086 0.0
C974 C 0.62317 0.87856 0.49122 0.0
C975 C 0.63874 0.8885 0.46931 0.0
C976 C 0.65472 0.88277 0.46506 0.0
C977 C 0.65494 0.86696 0.48212 0.0
C978 C 0.63913 0.8393 0.52085 0.0
C979 C 0.63586 0.81978 0.50668 0.0
C980 C 0.64318 0.84219 0.5504 0.0
C981 C 0.64958 0.86371 0.56559 0.0
C982 C 0.63666 0.86424 0.58809 0.0
C983 C 0.64299 0.88465 0.60251 0.0
C984 C 0.66244 0.90462 0.5948 0.0
C985 C 0.67548 0.90406 0.57255 0.0
C986 C 0.66907 0.88373 0.55801 0.0
C987 C 0.64277 0.7894 0.56735 0.0
C988 C 0.6621 0.79685 0.58324 0.0
C989 C 0.66538 0.78136 0.59669 0.0
C990 C 0.64932 0.75823 0.59459 0.0
C991 C 0.62967 0.75073 0.57953 0.0
C992 C 0.62639 0.76626 0.56601 0.0
C993 C 0.64049 0.80581 0.551 0.0
C994 C 0.64328 0.82519 0.56527 0.0
C995 C 0.63698 0.80319 0.52119 0.0
C996 C 0.63673 0.78481 0.50393 0.0
C997 C 0.65454 0.78154 0.50528 0.0
C998 C 0.65582 0.76646 0.48626 0.0
C999 C 0.63961 0.75486 0.46513 0.0
C1000 C 0.62142 0.75748 0.46433 0.0
C1001 C 0.61994 0.77227 0.48367 0.0
H1002 H 0.15767 0.77252 0.49492 0.0
H1003 H 0.13037 0.74894 0.458 0.0
H1004 H 0.0866 0.76954 0.4907 0.0
H1005 H 0.11397 0.79351 0.52715 0.0
H1006 H 0.17734 0.81712 0.49651 0.0
H1007 H 0.13317 0.75865 0.5641 0.0
H1008 H 0.09982 0.73245 0.59101 0.0
H1009 H 0.09415 0.78817 0.62143 0.0
H1010 H 0.12724 0.81434 0.59442 0.0
H1011 H 0.18212 0.86687 0.59925 0.0
H1012 H 0.20937 0.90025 0.62714 0.0
H1013 H 0.26137 0.89112 0.59547 0.0
H1014 H 0.23404 0.85722 0.56811 0.0
H1015 H 0.16808 0.82472 0.60008 0.0
H1016 H 0.20454 0.88172 0.53264 0.0
H1017 H 0.23206 0.91051 0.50122 0.0
H1018 H 0.24764 0.86259 0.46643 0.0
H1019 H 0.22048 0.83379 0.4984 0.0
C1020 C 0.13785 0.78469 0.51395 0.0
C1021 C 0.14199 0.77156 0.49457 0.0
C1022 C 0.12644 0.75808 0.47361 0.0
C1023 C 0.10654 0.75754 0.47176 0.0
C1024 C 0.10182 0.76964 0.49203 0.0
C1025 C 0.1174 0.78321 0.51289 0.0
C1026 C 0.15591 0.80217 0.53246 0.0
C1027 C 0.17559 0.81843 0.51933 0.0
C1028 C 0.15313 0.80457 0.56193 0.0
C1029 C 0.13265 0.78843 0.57721 0.0
C1030 C 0.12463 0.76519 0.57631 0.0
C1031 C 0.10573 0.7503 0.59168 0.0
C1032 C 0.09469 0.7585 0.60812 0.0
C1033 C 0.10254 0.78164 0.60884 0.0
C1034 C 0.1214 0.7965 0.59353 0.0
C1035 C 0.20604 0.85961 0.5814 0.0
C1036 C 0.19933 0.87183 0.59853 0.0
C1037 C 0.21483 0.89089 0.61435 0.0
C1038 C 0.23729 0.89807 0.61322 0.0
C1039 C 0.24406 0.88576 0.5965 0.0
C1040 C 0.22851 0.86656 0.58081 0.0
C1041 C 0.18942 0.83976 0.56406 0.0
C1042 C 0.17008 0.82311 0.57738 0.0
C1043 C 0.19214 0.83747 0.53452 0.0
C1044 C 0.21062 0.85564 0.51813 0.0
C1045 C 0.21433 0.87754 0.51894 0.0
C1046 C 0.22992 0.89393 0.50096 0.0
C1047 C 0.24182 0.88858 0.48169 0.0
C1048 C 0.23865 0.86697 0.48135 0.0
C1049 C 0.22315 0.85059 0.49948 0.0
H1050 H 0.14657 0.34816 0.47174 0.0
H1051 H 0.11674 0.34879 0.44748 0.0
H1052 H 0.12404 0.40117 0.50615 0.0
H1053 H 0.15421 0.40082 0.53045 0.0
H1054 H 0.18836 0.37708 0.47991 0.0
H1055 H 0.12574 0.3364 0.53602 0.0
H1056 H 0.09271 0.32734 0.56348 0.0
H1057 H 0.13341 0.37905 0.62618 0.0
H1058 H 0.16659 0.3889 0.59802 0.0
H1059 H 0.23171 0.39431 0.58735 0.0
H1060 H 0.2553 0.38543 0.61437 0.0
H1061 H 0.23086 0.32391 0.56401 0.0
H1062 H 0.20745 0.33287 0.53676 0.0
H1063 H 0.18423 0.36476 0.58357 0.0
H1064 H 0.24899 0.39661 0.51962 0.0
H1065 H 0.27542 0.39401 0.4877 0.0
H1066 H 0.22108 0.34175 0.43766 0.0
H1067 H 0.19477 0.34391 0.46955 0.0
C1068 C 0.15261 0.37441 0.50295 0.0
C1069 C 0.142 0.36001 0.47922 0.0
C1070 C 0.12495 0.36028 0.46547 0.0
C1071 C 0.1183 0.37501 0.4751 0.0
C1072 C 0.12905 0.38972 0.49849 0.0
C1073 C 0.14615 0.38946 0.51232 0.0
C1074 C 0.16989 0.37302 0.51827 0.0
C1075 C 0.18746 0.37441 0.50261 0.0
C1076 C 0.16854 0.36918 0.54778 0.0
C1077 C 0.1486 0.36374 0.56459 0.0
C1078 C 0.1276 0.34612 0.55538 0.0
C1079 C 0.10878 0.34077 0.57114 0.0
C1080 C 0.1107 0.3526 0.5967 0.0
C1081 C 0.13169 0.36984 0.60639 0.0
C1082 C 0.15053 0.37541 0.59038 0.0
C1083 C 0.21805 0.36435 0.55992 0.0
C1084 C 0.23163 0.37905 0.58194 0.0
C1085 C 0.24502 0.37401 0.59731 0.0
C1086 C 0.24469 0.35403 0.59112 0.0
C1087 C 0.23127 0.33941 0.56898 0.0
C1088 C 0.21805 0.34456 0.55341 0.0
C1089 C 0.20267 0.36886 0.54517 0.0
C1090 C 0.18541 0.36804 0.56102 0.0
C1091 C 0.20352 0.37171 0.51549 0.0
C1092 C 0.2199 0.37043 0.49697 0.0
C1093 C 0.24279 0.38448 0.50192 0.0
C1094 C 0.25783 0.38311 0.48371 0.0
C1095 C 0.25009 0.3678 0.46032 0.0
C1096 C 0.22729 0.35373 0.45553 0.0
C1097 C 0.21233 0.35503 0.47367 0.0
C1098 C 0.00244 0.4106 0.07107 0.0
C1099 C 0.98657 0.3871 0.06827 0.0
C1100 C 0.96774 0.38928 0.11125 0.0
C1101 C 0.98212 0.41315 0.11205 0.0
N1102 N 0.01022 0.44695 0.08919 0.0
N1103 N 0.9527 0.35417 0.08359 0.0
C1104 C -0.00128 0.42395 0.09103 0.0
C1105 C 0.96873 0.37646 0.08771 0.0
N1106 N 0.02122 0.42021 0.05492 0.0
N1107 N 0.95373 0.37884 0.13347 0.0
H1108 H 0.9534 0.34405 0.06729 0.0
H1109 H 0.93803 0.34609 0.09513 0.0
H1110 H 0.95278 0.3877 0.15119 0.0
H1111 H 0.94445 0.36139 0.13554 0.0
H1112 H 0.03441 0.43676 0.0583 0.0
H1113 H 0.02462 0.41115 0.03987 0.0
H1114 H 0.02075 0.45552 0.07237 0.0
H1115 H 0.00763 0.45741 0.10288 0.0
C1116 C 0.6372 0.60222 0.10205 0.0
C1117 C 0.62757 0.60768 0.08004 0.0
C1118 C 0.59057 0.57879 0.09595 0.0
C1119 C 0.60006 0.57511 0.11977 0.0
N1120 N 0.63218 0.58514 0.14785 0.0
N1121 N 0.59506 0.60491 0.06026 0.0
C1122 C 0.62335 0.58731 0.12349 0.0
C1123 C 0.60423 0.59694 0.07804 0.0
N1124 N 0.65945 0.61071 0.10194 0.0
N1125 N 0.56853 0.56465 0.09007 0.0
H1126 H 0.60445 0.619 0.04786 0.0
H1127 H 0.57825 0.59912 0.06013 0.0
H1128 H 0.5579 0.55101 0.10259 0.0
H1129 H 0.56126 0.56513 0.07128 0.0
H1130 H 0.66711 0.60555 0.11571 0.0
H1131 H 0.67003 0.62152 0.08643 0.0
H1132 H 0.64885 0.59538 0.15321 0.0
H1133 H 0.62251 0.57419 0.16382 0.0
C1134 C 0.42009 0.03887 0.07601 0.0
C1135 C 0.39718 0.02401 0.08129 0.0
C1136 C 0.40551 0.01672 0.12875 0.0
C1137 C 0.42828 0.02879 0.12163 0.0
N1138 N 0.45787 0.05174 0.08938 0.0
N1139 N 0.36751 -5e-05 0.11287 0.0
C1140 C 0.43578 0.04029 0.09568 0.0
C1141 C 0.38973 0.01346 0.1079 0.0
N1142 N 0.42683 0.05144 0.05212 0.0
N1143 N 0.39911 0.00849 0.15546 0.0
H1144 H 0.35558 0.99874 0.09908 0.0
H1145 H 0.36073 0.98948 0.13014 0.0
H1146 H 0.41032 0.01036 0.17097 0.0
H1147 H 0.38304 0.00118 0.1631 0.0
H1148 H 0.44311 0.06421 0.0483 0.0
H1149 H 0.41587 0.05041 0.03689 0.0
H1150 H 0.46434 0.05807 0.06949 0.0
H1151 H 0.4699 0.05407 0.10385 0.0
C1152 C 0.39146 0.98603 0.95877 0.0
C1153 C 0.38919 0.00467 0.9537 0.0
C1154 C 0.40532 0.00837 0.90614 0.0
C1155 C 0.41025 0.99186 0.91282 0.0
N1156 N 0.40878 0.96504 0.94502 0.0
N1157 N 0.39384 0.03387 0.92298 0.0
C1158 C 0.40324 0.98046 0.93886 0.0
C1159 C 0.39595 0.01582 0.92738 0.0
N1160 N 0.38259 0.97383 0.98274 0.0
N1161 N 0.40949 0.01675 0.87937 0.0
H1162 H 0.38587 0.03899 0.93725 0.0
H1163 H 0.40084 0.04451 0.90589 0.0
H1164 H 0.41663 0.01183 0.86349 0.0
H1165 H 0.40437 0.02716 0.87203 0.0
H1166 H 0.38148 0.95861 0.98619 0.0
H1167 H 0.37493 0.97804 0.99862 0.0
H1168 H 0.40676 0.95816 0.96493 0.0
H1169 H 0.41655 0.95987 0.93045 0.0
C1170 C 0.01829 0.39451 0.91194 0.0
C1171 C 0.01407 0.39671 0.94108 0.0
C1172 C 0.01382 0.43093 0.93166 0.0
C1173 C 0.01863 0.42908 0.90266 0.0
N1174 N 0.02918 0.41181 0.86579 0.0
N1175 N 0.01104 0.41844 0.97983 0.0
C1176 C 0.02202 0.41166 0.89298 0.0
C1177 C 0.013 0.41549 0.9513 0.0
N1178 N 0.01819 0.37573 0.90234 0.0
N1179 N 0.0089 0.44676 0.9401 0.0
H1180 H 0.00916 0.40684 0.99466 0.0
H1181 H 0.01277 0.43306 0.98911 0.0
H1182 H 0.00957 0.45857 0.92647 0.0
H1183 H 0.00266 0.4473 0.96006 0.0
H1184 H 0.0185 0.37167 0.88091 0.0
H1185 H 0.01661 0.36343 0.91588 0.0
H1186 H 0.03408 0.40095 0.85811 0.0
H1187 H 0.03186 0.42402 0.85135 0.0
C1188 C 0.57542 0.59777 0.95668 0.0
C1189 C 0.5938 0.61979 0.95173 0.0
C1190 C 0.58207 0.61684 0.90219 0.0
C1191 C 0.56308 0.59536 0.90764 0.0
N1192 N 0.53963 0.56662 0.94074 0.0
N1193 N 0.61315 0.65187 0.92168 0.0
C1194 C 0.55909 0.58626 0.93516 0.0
C1195 C 0.59673 0.62979 0.92497 0.0
N1196 N 0.57422 0.58734 0.98135 0.0
N1197 N 0.58627 0.62462 0.87512 0.0
H1198 H 0.62416 0.66179 0.93795 0.0
H1199 H 0.61487 0.66094 0.9037 0.0
H1200 H 0.57542 0.61599 0.85819 0.0
H1201 H 0.60105 0.63888 0.86899 0.0
H1202 H 0.56267 0.57038 0.98485 0.0
H1203 H 0.58594 0.59504 0.99758 0.0
H1204 H 0.53458 0.56056 0.96112 0.0
H1205 H 0.52764 0.55709 0.92526 0.0
C1206 C 0.03135 0.62962 0.92809 0.0
C1207 C 0.01215 0.61936 0.9455 0.0
C1208 C -0.00142 0.58321 0.92001 0.0
C1209 C 0.01683 0.59373 0.90119 0.0
N1210 N 0.04832 0.62787 0.88366 0.0
N1211 N 0.97449 0.58801 0.95192 0.0
C1212 C 0.03261 0.61725 0.90416 0.0
C1213 C 0.99477 0.59673 0.93948 0.0
N1214 N 0.04834 0.65116 0.93434 0.0
N1215 N 0.98548 0.56016 0.92045 0.0
H1216 H 0.97043 0.59728 0.96559 0.0
H1217 H 0.96082 0.57229 0.946 0.0
H1218 H 0.98812 0.54944 0.90739 0.0
H1219 H 0.97347 0.55167 0.93593 0.0
H1220 H 0.06378 0.65855 0.92461 0.0
H1221 H 0.04737 0.66133 0.95033 0.0
H1222 H 0.05892 0.64534 0.88311 0.0
H1223 H 0.04948 0.61935 0.86571 0.0
C1224 C 0.36972 0.39377 0.91201 0.0
C1225 C 0.37599 0.39914 0.94104 0.0
C1226 C 0.40638 0.43689 0.92876 0.0
C1227 C 0.39983 0.43175 0.89976 0.0
N1228 N 0.37289 0.40747 0.86433 0.0
N1229 N 0.39688 0.42701 0.97804 0.0
C1230 C 0.3807 0.41082 0.89155 0.0
C1231 C 0.39314 0.42117 0.94974 0.0
N1232 N 0.35355 0.37224 0.90397 0.0
N1233 N 0.42596 0.45618 0.93608 0.0
H1234 H 0.38788 0.41578 0.99406 0.0
H1235 H 0.40759 0.44347 0.98569 0.0
H1236 H 0.4363 0.46813 0.92141 0.0
H1237 H 0.43293 0.45953 0.9563 0.0
H1238 H 0.35004 0.36646 0.88288 0.0
H1239 H 0.34428 0.3597 0.91857 0.0
H1240 H 0.35787 0.39346 0.8576 0.0
H1241 H 0.38058 0.41969 0.84892 0.0
C1242 C 0.59087 0.98899 0.94395 0.0
C1243 C 0.6024 0.97825 0.93538 0.0
C1244 C 0.58143 0.9654 0.89064 0.0
C1245 C 0.56858 0.97431 0.9006 0.0
N1246 N 0.55825 0.99101 0.93865 0.0
N1247 N 0.60696 0.95378 0.90244 0.0
C1248 C 0.57239 0.98492 0.92791 0.0
C1249 C 0.59723 0.96577 0.90918 0.0
N1250 N 0.59846 0.00429 0.96632 0.0
N1251 N 0.57889 0.95712 0.86328 0.0
H1252 H 0.61858 0.95371 0.91557 0.0
H1253 H 0.60228 0.94253 0.88505 0.0
H1254 H 0.56709 0.95612 0.84941 0.0
H1255 H 0.58942 0.95272 0.8537 0.0
H1256 H 0.59208 0.01436 0.97167 0.0
H1257 H 0.61267 0.00874 0.97776 0.0
H1258 H 0.55878 0.99644 0.9597 0.0
H1259 H 0.54474 0.9888 0.9273 0.0
C1260 C 0.62673 0.03369 0.08897 0.0
C1261 C 0.61634 0.01925 0.06485 0.0
C1262 C 0.5801 0.01091 0.08165 0.0
C1263 C 0.59022 0.02365 0.10703 0.0
N1264 N 0.62249 0.04524 0.13676 0.0
N1265 N 0.58314 0.99203 0.03926 0.0
C1266 C 0.61339 0.03461 0.11121 0.0
C1267 C 0.59301 0.00726 0.06148 0.0
N1268 N 0.64931 0.04665 0.09043 0.0
N1269 N 0.55827 0.00288 0.07647 0.0
H1270 H 0.59201 0.98942 0.02339 0.0
H1271 H 0.56613 0.9808 0.03752 0.0
H1272 H 0.54816 0.00499 0.09086 0.0
H1273 H 0.55054 0.99574 0.05702 0.0
H1274 H 0.65796 0.05926 0.10595 0.0
H1275 H 0.65951 0.04589 0.07484 0.0
H1276 H 0.63886 0.05149 0.14235 0.0
H1277 H 0.61321 0.04645 0.15332 0.0
C1278 C 0.99523 0.59161 0.07131 0.0
C1279 C 0.97878 0.59697 0.06794 0.0
C1280 C 0.96232 0.57965 0.11345 0.0
C1281 C 0.97685 0.57156 0.11454 0.0
N1282 N 0.00447 0.56629 0.09147 0.0
N1283 N 0.94507 0.59407 0.08413 0.0
C1284 C 0.99262 0.57659 0.09266 0.0
C1285 C 0.96193 0.59059 0.08866 0.0
N1286 N 0.01382 0.60155 0.05482 0.0
N1287 N 0.94924 0.57727 0.13631 0.0
H1288 H 0.94419 0.60194 0.0662 0.0
H1289 H 0.93107 0.58757 0.09695 0.0
H1290 H 0.94922 0.56941 0.15479 0.0
H1291 H 0.93992 0.58477 0.13795 0.0
H1292 H 0.02734 0.59997 0.05837 0.0
H1293 H 0.01684 0.61343 0.03971 0.0
H1294 H 0.01439 0.56756 0.07422 0.0
H1295 H 0.00278 0.55469 0.10626 0.0
C1296 C 0.39838 0.37496 0.08892 0.0
C1297 C 0.40235 0.38266 0.06064 0.0
C1298 C 0.43829 0.41561 0.07511 0.0
C1299 C 0.43329 0.40908 0.10382 0.0
N1300 N 0.40816 0.3838 0.13892 0.0
N1301 N 0.42452 0.41174 0.0272 0.0
C1302 C 0.41321 0.38906 0.11098 0.0
C1303 C 0.422 0.40325 0.05374 0.0
N1304 N 0.38081 0.35384 0.09446 0.0
N1305 N 0.45862 0.43367 0.06826 0.0
H1306 H 0.41306 0.40333 0.01084 0.0
H1307 H 0.43708 0.42795 0.02191 0.0
H1308 H 0.47063 0.4439 0.0834 0.0
H1309 H 0.46426 0.43759 0.04746 0.0
H1310 H 0.37818 0.34625 0.11399 0.0
H1311 H 0.36974 0.34302 0.07876 0.0
H1312 H 0.3927 0.37102 0.14587 0.0
H1313 H 0.41908 0.39313 0.15554 0.0
C1314 C 0.66514 0.74126 0.40215 0.0
C1315 C 0.64986 0.71772 0.39809 0.0
C1316 C 0.62888 0.718 0.43981 0.0
C1317 C 0.64293 0.74187 0.44204 0.0
N1318 N 0.67138 0.77672 0.42154 0.0
N1319 N 0.61574 0.68385 0.41063 0.0
C1320 C 0.66024 0.75366 0.42217 0.0
C1321 C 0.63122 0.70613 0.41615 0.0
N1322 N 0.68451 0.7518 0.38719 0.0
N1323 N 0.6139 0.70665 0.46082 0.0
H1324 H 0.61738 0.67442 0.39419 0.0
H1325 H 0.6006 0.67511 0.42109 0.0
H1326 H 0.61188 0.71481 0.47852 0.0
H1327 H 0.60477 0.68912 0.46197 0.0
H1328 H 0.69729 0.76838 0.39162 0.0
H1329 H 0.68875 0.74349 0.37205 0.0
H1330 H 0.68245 0.78602 0.40551 0.0
H1331 H 0.66798 0.78651 0.43538 0.0
C1332 C 0.25974 0.92056 0.41279 0.0
C1333 C 0.28179 0.93788 0.41977 0.0
C1334 C 0.27846 0.92127 0.46613 0.0
C1335 C 0.25595 0.90499 0.45996 0.0
N1336 N 0.22426 0.88973 0.42894 0.0
N1337 N 0.31197 0.95622 0.45327 0.0
C1338 C 0.24638 0.90469 0.43359 0.0
C1339 C 0.29114 0.93863 0.44651 0.0
N1340 N 0.25158 0.9194 0.38624 0.0
N1341 N 0.28773 0.91982 0.49055 0.0
H1342 H 0.32206 0.96864 0.43892 0.0
H1343 H 0.31892 0.95931 0.47346 0.0
H1344 H 0.27875 0.90757 0.50559 0.0
H1345 H 0.30456 0.92966 0.49517 0.0
H1346 H 0.23675 0.90575 0.37841 0.0
H1347 H 0.26024 0.93169 0.3712 0.0
H1348 H 0.21556 0.89027 0.41176 0.0
H1349 H 0.21404 0.87734 0.44324 0.0
C1350 C 0.06006 0.35239 0.4491 0.0
C1351 C 0.06395 0.36793 0.42766 0.0
C1352 C 0.10359 0.38945 0.4389 0.0
C1353 C 0.09953 0.3743 0.46085 0.0
N1354 N 0.07376 0.34474 0.49139 0.0
N1355 N 0.08821 0.40378 0.40621 0.0
C1356 C 0.07766 0.35691 0.46747 0.0
C1357 C 0.08539 0.38727 0.42381 0.0
N1358 N 0.04001 0.33256 0.45074 0.0
N1359 N 0.12487 0.40536 0.4318 0.0
H1360 H 0.07515 0.4028 0.39511 0.0
H1361 H 0.103 0.4193 0.40456 0.0
H1362 H 0.13857 0.40788 0.44295 0.0
H1363 H 0.12903 0.41512 0.41384 0.0
H1364 H 0.03708 0.31949 0.46375 0.0
H1365 H 0.02674 0.3282 0.43732 0.0
H1366 H 0.05794 0.33343 0.49897 0.0
H1367 H 0.08635 0.34749 0.50515 0.0
C1368 C 0.05983 0.33459 0.2733 0.0
C1369 C 0.04996 0.31945 0.29605 0.0
C1370 C 0.06048 0.29423 0.27368 0.0
C1371 C 0.06996 0.30918 0.25081 0.0
N1372 N 0.07344 0.33998 0.22482 0.0
N1373 N 0.03577 0.28236 0.31423 0.0
C1374 C 0.06776 0.32811 0.24926 0.0
C1375 C 0.04866 0.29844 0.29507 0.0
N1376 N 0.06318 0.35578 0.27545 0.0
N1377 N 0.06363 0.27662 0.27565 0.0
H1378 H 0.02656 0.28478 0.32982 0.0
H1379 H 0.03248 0.26593 0.31297 0.0
H1380 H 0.0717 0.27266 0.26002 0.0
H1381 H 0.05947 0.26681 0.29357 0.0
H1382 H 0.07245 0.36827 0.26086 0.0
H1383 H 0.05854 0.36177 0.29308 0.0
H1384 H 0.07021 0.35263 0.22135 0.0
H1385 H 0.0794 0.33562 0.20691 0.0
C1386 C 0.68359 0.74872 0.28231 0.0
C1387 C 0.6855 0.73025 0.27302 0.0
C1388 C 0.69678 0.74619 0.22559 0.0
C1389 C 0.69276 0.76339 0.23413 0.0
N1390 N 0.68071 0.78045 0.26948 0.0
N1391 N 0.69253 0.7102 0.23588 0.0
C1392 C 0.68594 0.76465 0.26229 0.0
C1393 C 0.69182 0.7287 0.24467 0.0
N1394 N 0.67935 0.75091 0.31029 0.0
N1395 N 0.70569 0.74686 0.1994 0.0
H1396 H 0.69003 0.69766 0.24966 0.0
H1397 H 0.69445 0.7066 0.21477 0.0
H1398 H 0.70922 0.75929 0.18485 0.0
H1399 H 0.71109 0.73619 0.19275 0.0
H1400 H 0.68036 0.76527 0.31928 0.0
H1401 H 0.67616 0.73886 0.32517 0.0
H1402 H 0.67309 0.78063 0.28846 0.0
H1403 H 0.68266 0.79274 0.25565 0.0
C1404 C 0.24726 0.92702 0.28941 0.0
C1405 C 0.25891 0.95093 0.29207 0.0
C1406 C 0.24209 0.95248 0.24783 0.0
C1407 C 0.22942 0.92851 0.24621 0.0
N1408 N 0.21607 0.89297 0.26866 0.0
N1409 N 0.26521 0.98646 0.27673 0.0
C1410 C 0.23087 0.91577 0.26797 0.0
C1411 C 0.25556 0.96369 0.27221 0.0
N1412 N 0.25218 0.91504 0.30695 0.0
N1413 N 0.24192 0.96447 0.22558 0.0
H1414 H 0.27567 0.99526 0.29392 0.0
H1415 H 0.2616 0.99636 0.26469 0.0
H1416 H 0.23219 0.95679 0.20747 0.0
H1417 H 0.25257 0.98186 0.22405 0.0
H1418 H 0.24605 0.89787 0.30388 0.0
H1419 H 0.26381 0.92255 0.32329 0.0
H1420 H 0.21477 0.88317 0.28566 0.0
H1421 H 0.20358 0.88411 0.25354 0.0
C1422 C 0.70131 0.96486 0.26004 0.0
C1423 C 0.68707 0.95406 0.28344 0.0
C1424 C 0.67965 0.9173 0.26524 0.0
C1425 C 0.69243 0.92783 0.24078 0.0
N1426 N 0.71326 0.96089 0.21268 0.0
N1427 N 0.66007 0.91965 0.30637 0.0
C1428 C 0.70276 0.95145 0.2376 0.0
C1429 C 0.67541 0.93016 0.28541 0.0
N1430 N 0.71341 0.98793 0.25926 0.0
N1431 N 0.67222 0.89511 0.26971 0.0
H1432 H 0.657 0.9283 0.32236 0.0
H1433 H 0.64913 0.90223 0.30675 0.0
H1434 H 0.67488 0.88503 0.25539 0.0
H1435 H 0.66511 0.88716 0.28869 0.0
H1436 H 0.726 0.99693 0.24467 0.0
H1437 H 0.71172 0.99829 0.27424 0.0
H1438 H 0.71906 0.97752 0.20762 0.0
H1439 H 0.71483 0.95158 0.196 0.0
C1440 C 0.03623 0.73006 0.24241 0.0
C1441 C 0.04129 0.73619 0.27163 0.0
C1442 C 0.0715 0.77399 0.25916 0.0
C1443 C 0.06627 0.76803 0.22992 0.0
N1444 N 0.04111 0.74246 0.19375 0.0
N1445 N 0.05968 0.76539 0.30806 0.0
C1446 C 0.04779 0.74666 0.22155 0.0
C1447 C 0.05752 0.75868 0.28007 0.0
N1448 N 0.02058 0.70828 0.23467 0.0
N1449 N 0.09055 0.79367 0.26697 0.0
H1450 H 0.04976 0.7546 0.32393 0.0
H1451 H 0.06971 0.78212 0.31519 0.0
H1452 H 0.10148 0.80531 0.25242 0.0
H1453 H 0.09657 0.79762 0.28773 0.0
H1454 H 0.01802 0.70191 0.21381 0.0
H1455 H 0.01063 0.6962 0.24944 0.0
H1456 H 0.02658 0.72804 0.1866 0.0
H1457 H 0.04923 0.75434 0.17804 0.0
C1458 C 0.24767 0.28772 0.27385 0.0
C1459 C 0.26962 0.30389 0.26554 0.0
C1460 C 0.25547 0.31173 0.22311 0.0
C1461 C 0.23365 0.29792 0.23353 0.0
N1462 N 0.20849 0.27346 0.26919 0.0
N1463 N 0.29463 0.33294 0.23365 0.0
C1464 C 0.22958 0.28596 0.25893 0.0
C1465 C 0.27362 0.31611 0.24029 0.0
N1466 N 0.24418 0.27366 0.29554 0.0
N1467 N 0.2588 0.32074 0.19679 0.0
H1468 H 0.30838 0.33673 0.2456 0.0
H1469 H 0.29835 0.34431 0.21759 0.0
H1470 H 0.24593 0.31863 0.1841 0.0
H1471 H 0.27405 0.32877 0.18654 0.0
H1472 H 0.22867 0.26005 0.30092 0.0
H1473 H 0.2571 0.27431 0.30661 0.0
H1474 H 0.20468 0.26656 0.28928 0.0
H1475 H 0.19476 0.27105 0.25821 0.0
C1476 C 0.28795 0.37747 0.39725 0.0
C1477 C 0.28619 0.35623 0.39563 0.0
C1478 C 0.26712 0.34662 0.44157 0.0
C1479 C 0.26548 0.36592 0.44052 0.0
N1480 N 0.27308 0.39935 0.41671 0.0
N1481 N 0.27153 0.31912 0.41468 0.0
C1482 C 0.27577 0.38142 0.41835 0.0
C1483 C 0.2754 0.34049 0.41758 0.0
N1484 N 0.30163 0.39398 0.379 0.0
N1485 N 0.26064 0.3341 0.46549 0.0
H1486 H 0.27641 0.3134 0.39703 0.0
H1487 H 0.26159 0.3063 0.42858 0.0
H1488 H 0.25446 0.33821 0.48339 0.0
H1489 H 0.26344 0.3211 0.46864 0.0
H1490 H 0.30522 0.41051 0.38085 0.0
H1491 H 0.31112 0.39175 0.36367 0.0
H1492 H 0.27791 0.40965 0.3992 0.0
H1493 H 0.26469 0.40309 0.43211 0.0
C1494 C 0.65295 0.94289 0.43492 0.0
C1495 C 0.64536 0.93454 0.40686 0.0
C1496 C 0.62871 0.89559 0.42183 0.0
C1497 C 0.63786 0.90398 0.44936 0.0
N1498 N 0.65457 0.93453 0.4843 0.0
N1499 N 0.62172 0.90376 0.37468 0.0
C1500 C 0.64852 0.92734 0.45667 0.0
C1501 C 0.63175 0.91106 0.40072 0.0
N1502 N 0.66513 0.9657 0.4403 0.0
N1503 N 0.61786 0.87287 0.41574 0.0
H1504 H 0.62361 0.91488 0.35902 0.0
H1505 H 0.61023 0.88696 0.36919 0.0
H1506 H 0.61425 0.86102 0.43118 0.0
H1507 H 0.613 0.86566 0.39541 0.0
H1508 H 0.67339 0.97331 0.4593 0.0
H1509 H 0.66733 0.97729 0.42518 0.0
H1510 H 0.66091 0.95103 0.49177 0.0
H1511 H 0.65201 0.92356 0.50048 0.0
C1512 C 0.07653 0.75093 0.4028 0.0
C1513 C 0.06419 0.72711 0.39845 0.0
C1514 C 0.07789 0.72295 0.44396 0.0
C1515 C 0.09199 0.74679 0.44652 0.0
N1516 N 0.10805 0.78333 0.42557 0.0
N1517 N 0.05518 0.69033 0.41284 0.0
C1518 C 0.09231 0.76074 0.42509 0.0
C1519 C 0.06535 0.71303 0.41853 0.0
N1520 N 0.07235 0.76415 0.38661 0.0
N1521 N 0.0761 0.70989 0.46605 0.0
H1522 H 0.04596 0.68249 0.39442 0.0
H1523 H 0.05734 0.67954 0.42518 0.0
H1524 H 0.08524 0.71664 0.48479 0.0
H1525 H 0.06438 0.69265 0.46675 0.0
H1526 H 0.07931 0.78139 0.39071 0.0
H1527 H 0.06 0.7575 0.37115 0.0
H1528 H 0.11052 0.79377 0.40879 0.0
H1529 H 0.12004 0.79128 0.44148 0.0
C1530 C 0.29305 0.03955 0.74517 0.0
C1531 C 0.3108 0.05164 0.72596 0.0
C1532 C 0.3188 0.08746 0.74805 0.0
C1533 C 0.30277 0.0754 0.76927 0.0
N1534 N 0.27647 0.04005 0.79048 0.0
N1535 N 0.34302 0.08689 0.71191 0.0
C1536 C 0.29027 0.05142 0.76845 0.0
C1537 C 0.32443 0.07554 0.72824 0.0
N1538 N 0.2789 0.01677 0.74117 0.0
N1539 N 0.32807 0.11026 0.74617 0.0
H1540 H 0.34774 0.0789 0.69691 0.0
H1541 H 0.35483 0.10401 0.71498 0.0
H1542 H 0.32405 0.11961 0.75994 0.0
H1543 H 0.33804 0.11955 0.7293 0.0
H1544 H 0.26429 0.00739 0.75256 0.0
H1545 H 0.28098 0.00742 0.72503 0.0
H1546 H 0.2687 0.02267 0.79267 0.0
H1547 H 0.27407 0.04821 0.80786 0.0
C1548 C 0.96021 0.27107 0.78442 0.0
C1549 C 0.95339 0.26841 0.75563 0.0
C1550 C 0.91895 0.23293 0.76613 0.0
C1551 C 0.92598 0.23535 0.7948 0.0
N1552 N 0.95445 0.25407 0.83048 0.0
N1553 N 0.92828 0.24554 0.7177 0.0
C1554 C 0.94702 0.25364 0.80371 0.0
C1555 C 0.93345 0.24883 0.74603 0.0
N1556 N 0.97905 0.2905 0.79337 0.0
N1557 N 0.89797 0.21611 0.75849 0.0
H1558 H 0.93784 0.25739 0.70255 0.0
H1559 H 0.91539 0.23049 0.70881 0.0
H1560 H 0.88693 0.20391 0.77244 0.0
H1561 H 0.89083 0.215 0.7389 0.0
H1562 H 0.98363 0.29478 0.81463 0.0
H1563 H 0.98969 0.30306 0.7795 0.0
H1564 H 0.97045 0.26569 0.83754 0.0
H1565 H 0.94507 0.24162 0.84513 0.0
C1566 C 0.72461 0.68676 0.78222 0.0
C1567 C 0.72894 0.69041 0.75273 0.0
C1568 C 0.76857 0.70781 0.76165 0.0
C1569 C 0.76378 0.7008 0.79015 0.0
N1570 N 0.73732 0.68259 0.82778 0.0
N1571 N 0.75473 0.70206 0.71354 0.0
C1572 C 0.74184 0.69023 0.80065 0.0
C1573 C 0.75088 0.70063 0.7422 0.0
N1574 N 0.70412 0.68032 0.7926 0.0
N1575 N 0.79007 0.72132 0.75327 0.0
H1576 H 0.74228 0.69661 0.69837 0.0
H1577 H 0.77005 0.70689 0.70464 0.0
H1578 H 0.8034 0.72682 0.7671 0.0
H1579 H 0.79461 0.72882 0.73354 0.0
H1580 H 0.70046 0.67945 0.81421 0.0
H1581 H 0.69123 0.67786 0.77963 0.0
H1582 H 0.72134 0.67239 0.83559 0.0
H1583 H 0.74957 0.68528 0.8421 0.0
C1584 C 0.70391 0.64556 0.60342 0.0
C1585 C 0.70665 0.64332 0.63269 0.0
C1586 C 0.73389 0.63314 0.62035 0.0
C1587 C 0.73363 0.63879 0.59177 0.0
N1588 N 0.72021 0.65295 0.55638 0.0
N1589 N 0.72713 0.63873 0.66954 0.0
C1590 C 0.71902 0.64556 0.58327 0.0
C1591 C 0.72227 0.6379 0.64136 0.0
N1592 N 0.68654 0.64711 0.59482 0.0
N1593 N 0.74509 0.623 0.62737 0.0
H1594 H 0.71969 0.64298 0.68574 0.0
H1595 H 0.74013 0.63739 0.67672 0.0
H1596 H 0.75364 0.61907 0.61243 0.0
H1597 H 0.74406 0.61649 0.64733 0.0
H1598 H 0.68247 0.64664 0.57354 0.0
H1599 H 0.67485 0.64657 0.60896 0.0
H1600 H 0.71173 0.66049 0.55003 0.0
H1601 H 0.73104 0.65321 0.54098 0.0
C1602 C 0.35676 0.06263 0.57362 0.0
C1603 C 0.3483 0.06338 0.60087 0.0
C1604 C 0.34772 0.0969 0.5884 0.0
C1605 C 0.35678 0.09654 0.56143 0.0
N1606 N 0.37283 0.08152 0.52928 0.0
N1607 N 0.33769 0.08203 0.63577 0.0
C1608 C 0.3622 0.08012 0.55432 0.0
C1609 C 0.34448 0.08086 0.60876 0.0
N1610 N 0.35904 0.04487 0.56603 0.0
N1611 N 0.34142 0.11209 0.59406 0.0
H1612 H 0.33361 0.06967 0.65059 0.0
H1613 H 0.3372 0.09574 0.64418 0.0
H1614 H 0.34423 0.12465 0.58013 0.0
H1615 H 0.33227 0.11161 0.61179 0.0
H1616 H 0.36275 0.04182 0.54552 0.0
H1617 H 0.35603 0.03228 0.58005 0.0
H1618 H 0.37926 0.07153 0.52387 0.0
H1619 H 0.37661 0.09386 0.51449 0.0
C1620 C 0.92763 0.25859 0.62161 0.0
C1621 C 0.93627 0.28189 0.62733 0.0
C1622 C 0.91818 0.28363 0.58445 0.0
C1623 C 0.90776 0.25989 0.58043 0.0
N1624 N 0.89899 0.22405 0.5984 0.0
N1625 N 0.93777 0.31622 0.61663 0.0
C1626 C 0.91155 0.24715 0.59984 0.0
C1627 C 0.93091 0.29431 0.60949 0.0
N1628 N 0.93485 0.24736 0.63684 0.0
N1629 N 0.91648 0.29601 0.5639 0.0
H1630 H 0.94763 0.32478 0.63436 0.0
H1631 H 0.93239 0.32539 0.60622 0.0
H1632 H 0.90742 0.28871 0.54521 0.0
H1633 H 0.92551 0.31359 0.56416 0.0
H1634 H 0.93101 0.23107 0.63144 0.0
H1635 H 0.94619 0.2549 0.6535 0.0
H1636 H 0.8993 0.21393 0.61391 0.0
H1637 H 0.88666 0.2149 0.58319 0.0
C1638 C 0.35823 0.26798 0.62454 0.0
C1639 C 0.35949 0.28839 0.61826 0.0
C1640 C 0.36556 0.28331 0.56777 0.0
C1641 C 0.36468 0.26312 0.57414 0.0
N1642 N 0.36374 0.23786 0.60869 0.0
N1643 N 0.36853 0.3179 0.58563 0.0
C1644 C 0.36225 0.25605 0.60262 0.0
C1645 C 0.36438 0.29676 0.59033 0.0
N1646 N 0.35189 0.25929 0.65106 0.0
N1647 N 0.36705 0.28932 0.54008 0.0
H1648 H 0.36803 0.32824 0.60179 0.0
H1649 H 0.37428 0.32601 0.56642 0.0
H1650 H 0.36908 0.28049 0.52317 0.0
H1651 H 0.36509 0.30226 0.53359 0.0
H1652 H 0.34777 0.24309 0.65602 0.0
H1653 H 0.34928 0.26765 0.66794 0.0
H1654 H 0.36486 0.23353 0.62926 0.0
H1655 H 0.36538 0.22784 0.59313 0.0
C1656 C 0.71722 0.06122 0.59124 0.0
C1657 C 0.71647 0.07048 0.6183 0.0
C1658 C 0.73819 0.10879 0.60035 0.0
C1659 C 0.73961 0.09961 0.57359 0.0
N1660 N 0.72674 0.06765 0.54115 0.0
N1661 N 0.72098 0.1019 0.64692 0.0
C1662 C 0.72776 0.07594 0.56822 0.0
C1663 C 0.72529 0.09395 0.62228 0.0
N1664 N 0.70901 0.03858 0.58801 0.0
N1665 N 0.74987 0.1317 0.60504 0.0
H1666 H 0.7114 0.09132 0.66324 0.0
H1667 H 0.72515 0.11852 0.65027 0.0
H1668 H 0.75858 0.1431 0.58904 0.0
H1669 H 0.75186 0.13947 0.62499 0.0
H1670 H 0.71136 0.03111 0.5699 0.0
H1671 H 0.70071 0.02723 0.60415 0.0
H1672 H 0.7167 0.05067 0.53513 0.0
H1673 H 0.73465 0.07809 0.52402 0.0
C1674 C 0.94083 0.65442 0.58493 0.0
C1675 C 0.93576 0.63791 0.60552 0.0
C1676 C 0.89635 0.61878 0.59348 0.0
C1677 C 0.90161 0.63473 0.57213 0.0
N1678 N 0.92895 0.66418 0.54275 0.0
N1679 N 0.90967 0.60175 0.62507 0.0
C1680 C 0.92393 0.65137 0.56627 0.0
C1681 C 0.91378 0.61925 0.60847 0.0
N1682 N 0.96132 0.67378 0.58441 0.0
N1683 N 0.87473 0.60374 0.60015 0.0
H1684 H 0.92214 0.60143 0.63599 0.0
H1685 H 0.89438 0.58667 0.62593 0.0
H1686 H 0.86151 0.60257 0.58922 0.0
H1687 H 0.86987 0.59349 0.61771 0.0
H1688 H 0.96509 0.68745 0.572 0.0
H1689 H 0.97408 0.67722 0.59825 0.0
H1690 H 0.94508 0.67494 0.53571 0.0
H1691 H 0.91692 0.66245 0.5287 0.0
C1692 C 0.93634 0.66547 0.75949 0.0
C1693 C 0.94886 0.68164 0.73856 0.0
C1694 C 0.93962 0.70786 0.76095 0.0
C1695 C 0.9277 0.69194 0.78226 0.0
N1696 N 0.91998 0.65871 0.8065 0.0
N1697 N 0.96751 0.72032 0.72409 0.0
C1698 C 0.92791 0.6718 0.78311 0.0
C1699 C 0.95212 0.70354 0.74081 0.0
N1700 N 0.93104 0.64362 0.75591 0.0
N1701 N 0.93816 0.72652 0.75903 0.0
H1702 H 0.97739 0.71786 0.70966 0.0
H1703 H 0.97208 0.73714 0.72664 0.0
H1704 H 0.92932 0.73042 0.77349 0.0
H1705 H 0.94437 0.73726 0.74192 0.0
H1706 H 0.91993 0.6307 0.76898 0.0
H1707 H 0.93596 0.63779 0.73841 0.0
H1708 H 0.92163 0.64495 0.80952 0.0
H1709 H 0.91378 0.66303 0.8242 0.0
C1710 C 0.30504 0.24652 0.72775 0.0
C1711 C 0.30907 0.26799 0.73686 0.0
C1712 C 0.30381 0.25687 0.78663 0.0
C1713 C 0.30025 0.23557 0.77761 0.0
N1714 N 0.29353 0.2083 0.7399 0.0
N1715 N 0.30768 0.29216 0.77343 0.0
C1716 C 0.29944 0.22977 0.74822 0.0
C1717 C 0.30702 0.2727 0.7659 0.0
N1718 N 0.3079 0.24263 0.69978 0.0
N1719 N 0.30468 0.2621 0.81506 0.0
H1720 H 0.30976 0.3039 0.75858 0.0
H1721 H 0.30435 0.29588 0.7938 0.0
H1722 H 0.30112 0.25044 0.83076 0.0
H1723 H 0.30986 0.27819 0.82328 0.0
H1724 H 0.30821 0.2286 0.69225 0.0
H1725 H 0.31123 0.2541 0.68397 0.0
H1726 H 0.29006 0.20217 0.71895 0.0
H1727 H 0.29063 0.19593 0.75417 0.0
C1728 C 0.74613 0.05484 0.74158 0.0
C1729 C 0.72456 0.03815 0.75045 0.0
C1730 C 0.73615 0.04837 0.80032 0.0
C1731 C 0.75667 0.06702 0.79131 0.0
N1732 N 0.77995 0.09018 0.75324 0.0
N1733 N 0.69794 0.0207 0.78821 0.0
C1734 C 0.76138 0.07082 0.76188 0.0
C1735 C 0.71927 0.03521 0.77984 0.0
N1736 N 0.75227 0.05495 0.71387 0.0
N1737 N 0.73297 0.04299 0.82836 0.0
H1738 H 0.68507 0.01081 0.77393 0.0
H1739 H 0.69263 0.0198 0.80915 0.0
H1740 H 0.745 0.05223 0.84391 0.0
H1741 H 0.71925 0.02826 0.83581 0.0
H1742 H 0.76843 0.06534 0.70673 0.0
H1743 H 0.74172 0.04299 0.69863 0.0
H1744 H 0.78293 0.09497 0.73212 0.0
H1745 H 0.79146 0.10254 0.76737 0.0
C1746 C 0.07034 0.35252 0.05956 0.0
C1747 C 0.04739 0.33601 0.05717 0.0
C1748 C 0.05262 0.3097 0.08401 0.0
C1749 C 0.07577 0.32553 0.08454 0.0
N1750 N 0.10719 0.35985 0.06712 0.0
N1751 N 0.01791 0.29694 0.06026 0.0
C1752 C 0.08481 0.3463 0.07052 0.0
C1753 C 0.03889 0.31399 0.06735 0.0
N1754 N 0.07823 0.37442 0.05288 0.0
N1755 N 0.04357 0.29101 0.10033 0.0
H1756 H 0.00776 0.29925 0.04695 0.0
H1757 H 0.01158 0.2801 0.06487 0.0
H1758 H 0.05296 0.28742 0.11335 0.0
H1759 H 0.02657 0.28022 0.103 0.0
H1760 H 0.09438 0.38758 0.05723 0.0
H1761 H 0.06821 0.37989 0.04539 0.0
H1762 H 0.11456 0.37405 0.05459 0.0
H1763 H 0.11828 0.35571 0.07456 0.0
C1764 C 0.64712 0.70752 0.05072 0.0
C1765 C 0.66127 0.7098 0.02775 0.0
C1766 C 0.68412 0.75057 0.03792 0.0
C1767 C 0.67143 0.7478 0.06273 0.0
N1768 N 0.64343 0.72303 0.09579 0.0
N1769 N 0.69594 0.73274 0.00318 0.0
C1770 C 0.65365 0.72607 0.07002 0.0
C1771 C 0.68051 0.73113 0.02224 0.0
N1772 N 0.62705 0.68791 0.05351 0.0
N1773 N 0.69921 0.77174 0.02887 0.0
H1774 H 0.6944 0.71886 0.99188 0.0
H1775 H 0.71133 0.74749 1.00066 0.0
H1776 H 0.70229 0.78643 0.0397 0.0
H1777 H 0.70719 0.77471 0.00929 0.0
H1778 H 0.61515 0.68612 0.06817 0.0
H1779 H 0.62133 0.67414 0.03928 0.0
H1780 H 0.63194 0.70716 0.10346 0.0
H1781 H 0.64794 0.73617 0.11071 0.0
C1782 C 0.2922 0.95161 0.06766 0.0
C1783 C 0.2905 0.95923 0.04079 0.0
C1784 C 0.25005 0.93674 0.04394 0.0
C1785 C 0.25184 0.93066 0.07176 0.0
N1786 N 0.27426 0.93496 0.11218 0.0
N1787 N 0.26823 0.96251 0.00548 0.0
C1788 C 0.27284 0.93891 0.08426 0.0
C1789 C 0.26953 0.95271 0.02943 0.0
N1790 N 0.31217 0.95569 0.07675 0.0
N1791 N 0.22978 0.92683 0.03111 0.0
H1792 H 0.28213 0.97448 0.99439 0.0
H1793 H 0.25352 0.96032 0.99798 0.0
H1794 H 0.21507 0.91539 0.04126 0.0
H1795 H 0.22767 0.9286 0.00971 0.0
H1796 H 0.31408 0.94863 0.09476 0.0
H1797 H 0.32665 0.96451 0.06489 0.0
H1798 H 0.28912 0.94259 0.12339 0.0
H1799 H 0.26038 0.92549 0.1249 0.0
C1800 C 0.33404 0.05214 0.9353 0.0
C1801 C 0.3293 0.04798 0.96467 0.0
C1802 C 0.31613 0.07412 0.96725 0.0
C1803 C 0.31956 0.07713 0.93754 0.0
N1804 N 0.32892 0.06708 0.8923 0.0
N1805 N 0.3122 0.05157 0.00756 0.0
C1806 C 0.32764 0.06552 0.92125 0.0
C1807 C 0.31942 0.0581 0.98043 0.0
N1808 N 0.34553 0.0441 0.92112 0.0
N1809 N 0.31 0.08682 0.9829 0.0
H1810 H 0.314 0.03962 0.01783 0.0
H1811 H 0.30272 0.05644 0.01907 0.0
H1812 H 0.3065 0.09802 0.97382 0.0
H1813 H 0.30982 0.08743 0.00504 0.0
H1814 H 0.35178 0.0487 0.90067 0.0
H1815 H 0.35039 0.03411 0.93058 0.0
H1816 H 0.33217 0.05699 0.87889 0.0
H1817 H 0.3252 0.0774 0.88132 0.0
C1818 C 0.93889 0.2941 0.97225 0.0
C1819 C 0.94997 0.29213 0.99567 0.0
C1820 C 0.92784 0.25085 0.98951 0.0
C1821 C 0.91908 0.25313 0.96386 0.0
N1822 N 0.91873 0.27708 0.92836 0.0
N1823 N 0.957 0.26876 0.02484 0.0
C1824 C 0.92527 0.27481 0.95453 0.0
C1825 C 0.94491 0.27052 0.00399 0.0
N1826 N 0.94063 0.31421 0.96766 0.0
N1827 N 0.91945 0.22994 1.00042 0.0
H1828 H 0.96948 0.28268 0.03618 0.0
H1829 H 0.95583 0.25367 0.02942 0.0
H1830 H 0.90695 0.21514 0.99039 0.0
H1831 H 0.92347 0.22742 0.02055 0.0
H1832 H 0.93132 0.31614 0.95249 0.0
H1833 H 0.94955 0.32836 0.98117 0.0
H1834 H 0.92473 0.29267 0.91923 0.0
H1835 H 0.90885 0.26336 0.91463 0.0
C1836 C 0.73484 0.6716 0.99531 0.0
C1837 C 0.71921 0.67579 0.98354 0.0
C1838 C 0.74318 0.69315 0.94229 0.0
C1839 C 0.75773 0.68693 0.95272 0.0
N1840 N 0.76687 0.66845 0.98738 0.0
N1841 N 0.70738 0.68944 0.94557 0.0
C1842 C 0.75351 0.6758 0.97888 0.0
C1843 C 0.72308 0.68629 0.95694 0.0
N1844 N 0.73184 0.66369 0.02224 0.0
N1845 N 0.74894 0.70611 0.91877 0.0
H1846 H 0.69306 0.68596 0.95641 0.0
H1847 H 0.70786 0.6944 0.92484 0.0
H1848 H 0.76347 0.71126 0.90738 0.0
H1849 H 0.74029 0.71324 0.91164 0.0
H1850 H 0.74377 0.66262 0.03332 0.0
H1851 H 0.71792 0.65961 0.03446 0.0
H1852 H 0.76334 0.658 0.00447 0.0
H1853 H 0.78091 0.67154 0.97613 0.0
C1854 C 0.9525 0.67129 0.93837 0.0
C1855 C 0.95374 0.67167 0.96849 0.0
C1856 C 0.9234 0.67851 0.97212 0.0
C1857 C 0.92425 0.68106 0.94224 0.0
N1858 N 0.94262 0.68419 0.89747 0.0
N1859 N 0.94285 0.6793 0.01431 0.0
C1860 C 0.93967 0.67868 0.92549 0.0
C1861 C 0.9398 0.67619 0.98552 0.0
N1862 N 0.96278 0.66293 0.92202 0.0
N1863 N 0.90657 0.67767 0.98759 0.0
H1864 H 0.95494 0.67816 0.02492 0.0
H1865 H 0.93473 0.68502 0.02734 0.0
H1866 H 0.89413 0.6791 0.97849 0.0
H1867 H 0.90383 0.67349 0.00893 0.0
H1868 H 0.96059 0.66024 0.90009 0.0
H1869 H 0.97152 0.65633 0.93062 0.0
H1870 H 0.95527 0.68498 0.8851 0.0
H1871 H 0.93386 0.69012 0.88727 0.0
C1872 C 0.34892 0.29532 0.95867 0.0
C1873 C 0.33731 0.29247 0.98453 0.0
C1874 C 0.3168 0.25137 0.97653 0.0
C1875 C 0.32655 0.25449 0.94921 0.0
N1876 N 0.34933 0.27942 0.91224 0.0
N1877 N 0.30791 0.26803 0.01639 0.0
C1878 C 0.34189 0.27648 0.93967 0.0
C1879 C 0.32068 0.27055 0.99312 0.0
N1880 N 0.36732 0.3158 0.9529 0.0
N1881 N 0.30433 0.23013 0.98696 0.0
H1882 H 0.31021 0.28158 0.02922 0.0
H1883 H 0.29388 0.2527 0.02169 0.0
H1884 H 0.30096 0.21563 0.97536 0.0
H1885 H 0.29888 0.22701 0.00793 0.0
H1886 H 0.37769 0.3184 0.93567 0.0
H1887 H 0.37359 0.32965 0.96708 0.0
H1888 H 0.35867 0.29521 0.90321 0.0
H1889 H 0.34458 0.26598 0.8977 0.0
C1890 C 0.72531 0.05038 0.99994 0.0
C1891 C 0.70428 0.04632 0.99225 0.0
C1892 C 0.72084 0.07071 0.95143 0.0
C1893 C 0.74208 0.07638 0.96069 0.0
N1894 N 0.7651 0.07519 0.99674 0.0
N1895 N 0.6827 0.05627 0.96429 0.0
C1896 C 0.74449 0.0673 0.98588 0.0
C1897 C 0.70222 0.05753 0.96899 0.0
N1898 N 0.72692 0.03728 0.01952 0.0
N1899 N 0.71835 0.07727 0.92543 0.0
H1900 H 0.66883 0.04732 0.97717 0.0
H1901 H 0.68093 0.06593 0.94943 0.0
H1902 H 0.7316 0.08684 0.91183 0.0
H1903 H 0.70298 0.07152 0.91625 0.0
H1904 H 0.74157 0.0379 0.02357 0.0
H1905 H 0.71327 0.02425 0.02982 0.0
H1906 H 0.76774 0.07093 0.01665 0.0
H1907 H 0.77958 0.08759 0.98704 0.0
C1908 C 0.67343 0.93505 0.0221 0.0
C1909 C 0.6691 0.95061 0.03619 0.0
C1910 C 0.67203 0.93733 0.08248 0.0
C1911 C 0.67782 0.92287 0.06845 0.0
N1912 N 0.68799 0.91068 0.0255 0.0
N1913 N 0.66926 0.97031 0.07953 0.0
C1914 C 0.67971 0.92254 0.03839 0.0
C1915 C 0.66978 0.95281 0.06633 0.0
N1916 N 0.6707 0.93159 0.99329 0.0
N1917 N 0.66803 0.93581 0.11109 0.0
H1918 H 0.66819 0.9824 0.06848 0.0
H1919 H 0.67207 0.97415 0.10122 0.0
H1920 H 0.66972 0.92483 0.12376 0.0
H1921 H 0.66129 0.94408 0.12188 0.0
H1922 H 0.67124 0.91872 0.98218 0.0
H1923 H 0.66606 0.94041 0.98067 0.0
H1924 H 0.69196 0.91168 0.00399 0.0
H1925 H 0.6927 0.90128 0.03679 0.0
C1926 C 0.05907 0.71065 0.05115 0.0
C1927 C 0.05026 0.71255 0.02532 0.0
C1928 C 0.0724 0.75382 0.03076 0.0
C1929 C 0.07896 0.75173 0.05821 0.0
N1930 N 0.07635 0.72826 0.09642 0.0
N1931 N 0.04615 0.73565 0.99202 0.0
C1932 C 0.07174 0.73016 0.06893 0.0
C1933 C 0.0564 0.73407 0.01534 0.0
N1934 N 0.0559 0.6903 0.05823 0.0
N1935 N 0.08179 0.77466 0.01923 0.0
H1936 H 0.03432 0.72161 0.98013 0.0
H1937 H 0.04807 0.75075 0.98573 0.0
H1938 H 0.09342 0.78953 0.03004 0.0
H1939 H 0.07949 0.77706 0.99815 0.0
H1940 H 0.06376 0.68832 0.07535 0.0
H1941 H 0.04713 0.67572 0.04536 0.0
H1942 H 0.06942 0.71287 0.1064 0.0
H1943 H 0.08565 0.74219 0.11013 0.0
C1944 C 0.2799 0.32301 0.08631 0.0
C1945 C 0.28277 0.32709 0.05673 0.0
C1946 C 0.24693 0.32407 0.05477 0.0
C1947 C 0.24318 0.31774 0.08361 0.0
N1948 N 0.25385 0.30616 0.12493 0.0
N1949 N 0.26683 0.3265 0.01151 0.0
C1950 C 0.259 0.31567 0.09882 0.0
C1951 C 0.26568 0.32624 0.04054 0.0
N1952 N 0.29739 0.32723 0.10282 0.0
N1953 N 0.23303 0.32872 0.04122 0.0
H1954 H 0.2799 0.32729 1.00015 0.0
H1955 H 0.25377 0.32361 0.99862 0.0
H1956 H 0.21916 0.32744 0.05095 0.0
H1957 H 0.23635 0.33576 0.02121 0.0
H1958 H 0.29666 0.32669 0.12494 0.0
H1959 H 0.3133 0.33363 0.09482 0.0
H1960 H 0.26398 0.30221 0.13572 0.0
H1961 H 0.23849 0.30013 0.13453 0.0
C1962 C 0.73627 0.68654 0.39802 0.0
C1963 C 0.71333 0.66999 0.39557 0.0
C1964 C 0.71827 0.64441 0.42446 0.0
C1965 C 0.74143 0.66018 0.4249 0.0
N1966 N 0.77303 0.69407 0.40686 0.0
N1967 N 0.68359 0.63119 0.40036 0.0
C1968 C 0.75061 0.6806 0.41004 0.0
C1969 C 0.70464 0.64832 0.40702 0.0
N1970 N 0.74424 0.70825 0.39033 0.0
N1971 N 0.70917 0.62612 0.44148 0.0
H1972 H 0.6734 0.63316 0.3867 0.0
H1973 H 0.67714 0.61449 0.40585 0.0
H1974 H 0.71855 0.62278 0.45488 0.0
H1975 H 0.69217 0.61544 0.44426 0.0
H1976 H 0.76037 0.72149 0.39459 0.0
H1977 H 0.73429 0.71355 0.38212 0.0
H1978 H 0.78051 0.70793 0.39375 0.0
H1979 H 0.78407 0.69017 0.41517 0.0
C1980 C 0.31365 0.04099 0.38507 0.0
C1981 C 0.32722 0.0421 0.36197 0.0
C1982 C 0.34947 0.08336 0.36784 0.0
C1983 C 0.33758 0.08188 0.393 0.0
N1984 N 0.31091 0.05895 0.42852 0.0
N1985 N 0.36046 0.064 0.33431 0.0
C1986 C 0.32036 0.06059 0.40247 0.0
C1987 C 0.34576 0.06321 0.35401 0.0
N1988 N 0.29388 0.02145 0.38973 0.0
N1989 N 0.36391 0.10398 0.35676 0.0
H1990 H 0.35864 0.04963 0.32408 0.0
H1991 H 0.37551 0.07869 0.33004 0.0
H1992 H 0.36705 0.11913 0.36628 0.0
H1993 H 0.37126 0.10594 0.33687 0.0
H1994 H 0.28233 0.02033 0.40454 0.0
H1995 H 0.28796 0.00695 0.37677 0.0
H1996 H 0.29996 0.04357 0.43777 0.0
H1997 H 0.31554 0.0729 0.4421 0.0
C1998 C 0.93778 0.29013 0.36824 0.0
C1999 C 0.95824 0.29302 0.37647 0.0
C2000 C 0.94022 0.26877 0.41705 0.0
C2001 C 0.91944 0.26386 0.40691 0.0
N2002 N 0.89777 0.26718 0.37078 0.0
N2003 N 0.9785 0.28232 0.4059 0.0
C2004 C 0.91801 0.2738 0.38191 0.0
C2005 C 0.95938 0.28165 0.4002 0.0
N2006 N 0.93735 0.30367 0.34827 0.0
N2007 N 0.94169 0.26153 0.44309 0.0
H2008 H 0.99279 0.29114 0.3937 0.0
H2009 H 0.9796 0.27245 0.42108 0.0
H2010 H 0.92796 0.25202 0.45604 0.0
H2011 H 0.95667 0.26664 0.45296 0.0
H2012 H 0.92326 0.30396 0.34362 0.0
H2013 H 0.95154 0.31621 0.33821 0.0
H2014 H 0.89571 0.27193 0.35089 0.0
H2015 H 0.8829 0.25547 0.38039 0.0
C2016 C 0.99239 0.3918 0.3175 0.0
C2017 C 0.00603 0.3853 0.30341 0.0
C2018 C 0.01032 0.40852 0.26303 0.0
C2019 C 0.99802 0.41626 0.27801 0.0
N2020 N 0.98017 0.4183 0.32098 0.0
N2021 N 0.03123 0.39027 0.2654 0.0
C2022 C 0.9899 0.40881 0.30574 0.0
C2023 C 0.0159 0.39442 0.27686 0.0
N2024 N 0.98099 0.38097 0.34137 0.0
N2025 N 0.01617 0.41418 0.23533 0.0
H2026 H 0.03594 0.38023 0.2751 0.0
H2027 H 0.04074 0.39834 0.24765 0.0
H2028 H 0.01273 0.42482 0.22461 0.0
H2029 H 0.02292 0.40699 0.22226 0.0
H2030 H 0.96889 0.38316 0.35077 0.0
H2031 H 0.98226 0.36831 0.35057 0.0
H2032 H 0.97613 0.41543 0.34242 0.0
H2033 H 0.97765 0.43048 0.31279 0.0
C2034 C 0.61311 0.60335 0.33269 0.0
C2035 C 0.61847 0.62521 0.32512 0.0
C2036 C 0.59491 0.60908 0.28283 0.0
C2037 C 0.58835 0.58712 0.29143 0.0
N2038 N 0.58752 0.56289 0.3274 0.0
N2039 N 0.61008 0.64818 0.29738 0.0
C2040 C 0.59633 0.5841 0.31726 0.0
C2041 C 0.60808 0.62788 0.30144 0.0
N2042 N 0.62469 0.60097 0.35369 0.0
N2043 N 0.58922 0.61211 0.2565 0.0
H2044 H 0.61875 0.66202 0.31141 0.0
H2045 H 0.60119 0.65054 0.28202 0.0
H2046 H 0.57973 0.59878 0.24208 0.0
H2047 H 0.59556 0.62797 0.24798 0.0
H2048 H 0.62325 0.58569 0.35785 0.0
H2049 H 0.6371 0.6146 0.36551 0.0
H2050 H 0.59098 0.55983 0.34757 0.0
H2051 H 0.57519 0.54838 0.31668 0.0
C2052 C 0.39313 0.99002 0.32532 0.0
C2053 C 0.38136 0.00015 0.31705 0.0
C2054 C 0.40511 0.01569 0.27515 0.0
C2055 C 0.41778 0.00682 0.28447 0.0
N2056 N 0.42567 0.98745 0.31925 0.0
N2057 N 0.37648 0.02379 0.28565 0.0
C2058 C 0.41228 0.99448 0.3098 0.0
C2059 C 0.38747 0.01335 0.29239 0.0
N2060 N 0.38571 0.97584 0.34774 0.0
N2061 N 0.40966 0.02586 0.24945 0.0
H2062 H 0.36254 0.02126 0.29661 0.0
H2063 H 0.38171 0.03586 0.27014 0.0
H2064 H 0.42294 0.0286 0.2367 0.0
H2065 H 0.39959 0.03038 0.23974 0.0
H2066 H 0.39196 0.96591 0.35306 0.0
H2067 H 0.3722 0.97285 0.36017 0.0
H2068 H 0.42412 0.98061 0.33907 0.0
H2069 H 0.43937 0.98971 0.3079 0.0
C2070 C 0.61467 0.99265 0.26355 0.0
C2071 C 0.6235 0.00162 0.29104 0.0
C2072 C 0.60005 0.01755 0.29576 0.0
C2073 C 0.59253 0.01006 0.26747 0.0
N2074 N 0.59487 0.99357 0.22269 0.0
N2075 N 0.62771 0.02585 0.33146 0.0
C2076 C 0.60053 0.99854 0.25081 0.0
C2077 C 0.617 0.01492 0.30672 0.0
N2078 N 0.61899 0.97767 0.25016 0.0
N2079 N 0.59068 0.0268 0.31229 0.0
H2080 H 0.64042 0.02459 0.34002 0.0
H2081 H 0.6254 0.03772 0.34226 0.0
H2082 H 0.57868 0.02961 0.3047 0.0
H2083 H 0.59358 0.03018 0.33404 0.0
H2084 H 0.61113 0.96867 0.23151 0.0
H2085 H 0.62901 0.97266 0.25896 0.0
H2086 H 0.60214 0.98752 0.20862 0.0
H2087 H 0.58411 0.99714 0.21277 0.0
C2088 C 0.0063 0.63263 0.27946 0.0
C2089 C 0.00872 0.63537 0.3095 0.0
C2090 C 0.99837 0.59594 0.31291 0.0
C2091 C 0.99811 0.59398 0.28279 0.0
N2092 N 0.0051 0.6112 0.23713 0.0
N2093 N 0.00882 0.62054 0.35503 0.0
C2094 C 0.00288 0.61251 0.26596 0.0
C2095 C 0.00534 0.61729 0.3263 0.0
N2096 N 0.00709 0.64917 0.26379 0.0
N2097 N 0.99121 0.57718 0.32866 0.0
H2098 H 0.01254 0.63544 0.36589 0.0
H2099 H 0.00928 0.609 0.36798 0.0
H2100 H 0.98597 0.56129 0.31952 0.0
H2101 H 0.98873 0.57687 0.35054 0.0
H2102 H 0.00286 0.64706 0.24233 0.0
H2103 H 0.01029 0.66449 0.27264 0.0
H2104 H 0.0111 0.62499 0.22406 0.0
H2105 H 0.00273 0.59675 0.22637 0.0
C2106 C 0.3708 0.37765 0.2602 0.0
C2107 C 0.36625 0.38087 0.2888 0.0
C2108 C 0.40398 0.41359 0.29428 0.0
C2109 C 0.40753 0.41197 0.26474 0.0
N2110 N 0.39291 0.39491 0.21841 0.0
N2111 N 0.37722 0.40367 0.33219 0.0
C2112 C 0.39051 0.3947 0.24731 0.0
C2113 C 0.38249 0.39934 0.30566 0.0
N2114 N 0.35688 0.35778 0.24582 0.0
N2115 N 0.42129 0.42816 0.31163 0.0
H2116 H 0.36163 0.39358 0.34128 0.0
H2117 H 0.38765 0.4183 0.34421 0.0
H2118 H 0.43737 0.43866 0.30416 0.0
H2119 H 0.42017 0.42837 0.33372 0.0
H2120 H 0.36041 0.35368 0.22576 0.0
H2121 H 0.34305 0.34436 0.25531 0.0
H2122 H 0.38011 0.384 0.20457 0.0
H2123 H 0.40702 0.40732 0.20807 0.0
C2124 C 0.3429 0.27475 0.35661 0.0
C2125 C 0.33651 0.28854 0.37115 0.0
C2126 C 0.33455 0.27083 0.41611 0.0
C2127 C 0.34281 0.2585 0.40202 0.0
N2128 N 0.35737 0.25028 0.35989 0.0
N2129 N 0.32928 0.30239 0.41512 0.0
C2130 C 0.34766 0.26086 0.37251 0.0
C2131 C 0.33303 0.28724 0.40101 0.0
N2132 N 0.34372 0.27443 0.32755 0.0
N2133 N 0.32778 0.26654 0.44378 0.0
H2134 H 0.32802 0.31468 0.40488 0.0
H2135 H 0.32916 0.30401 0.43719 0.0
H2136 H 0.32915 0.25501 0.45574 0.0
H2137 H 0.31929 0.27307 0.45429 0.0
H2138 H 0.34596 0.263 0.31546 0.0
H2139 H 0.34034 0.28443 0.31527 0.0
H2140 H 0.36359 0.25329 0.33926 0.0
H2141 H 0.36071 0.23963 0.37074 0.0
C2142 C 0.73359 0.05264 0.37052 0.0
C2143 C 0.71348 0.03786 0.38463 0.0
C2144 C 0.72404 0.06503 0.4247 0.0
C2145 C 0.74388 0.08014 0.41024 0.0
N2146 N 0.76659 0.09022 0.36819 0.0
N2147 N 0.68737 0.03116 0.42208 0.0
C2148 C 0.74834 0.07453 0.3827 0.0
C2149 C 0.70807 0.04439 0.41088 0.0
N2150 N 0.73888 0.04539 0.34604 0.0
N2151 N 0.72069 0.07023 0.45188 0.0
H2152 H 0.67519 0.01596 0.41245 0.0
H2153 H 0.68154 0.03602 0.43957 0.0
H2154 H 0.73145 0.08569 0.46223 0.0
H2155 H 0.70799 0.05879 0.46492 0.0
H2156 H 0.75428 0.05424 0.33627 0.0
H2157 H 0.72817 0.02968 0.33621 0.0
H2158 H 0.76963 0.08818 0.34694 0.0
H2159 H 0.77817 0.1061 0.37689 0.0
C2160 C 0.93064 0.66518 0.37507 0.0
C2161 C 0.94844 0.66633 0.38984 0.0
C2162 C 0.92692 0.6564 0.43393 0.0
C2163 C 0.91022 0.65776 0.41987 0.0
N2164 N 0.89799 0.66761 0.37836 0.0
N2165 N 0.96545 0.66795 0.43463 0.0
C2166 C 0.91257 0.66333 0.39077 0.0
C2167 C 0.94712 0.66325 0.41965 0.0
N2168 N 0.9305 0.66489 0.346 0.0
N2169 N 0.92327 0.64801 0.46065 0.0
H2170 H 0.98087 0.67392 0.42523 0.0
H2171 H 0.96595 0.66821 0.45676 0.0
H2172 H 0.90854 0.64248 0.4717 0.0
H2173 H 0.934 0.64451 0.47073 0.0
H2174 H 0.91686 0.6617 0.33412 0.0
H2175 H 0.94314 0.66563 0.33364 0.0
H2176 H 0.90028 0.67409 0.35811 0.0
H2177 H 0.88465 0.66667 0.38922 0.0
C2178 C 0.37327 0.99129 0.74194 0.0
C2179 C 0.38124 0.01165 0.72731 0.0
C2180 C 0.4194 0.02212 0.73623 0.0
C2181 C 0.41134 0.00313 0.75365 0.0
N2182 N 0.38071 0.97182 0.77738 0.0
N2183 N 0.41191 0.04843 0.71476 0.0
C2184 C 0.38829 0.98831 0.75773 0.0
C2185 C 0.40434 0.02761 0.72547 0.0
N2186 N 0.35149 0.97436 0.7398 0.0
N2187 N 0.44135 0.03459 0.72941 0.0
H2188 H 0.40145 0.05338 0.70729 0.0
H2189 H 0.42844 0.06155 0.71574 0.0
H2190 H 0.45289 0.03107 0.73689 0.0
H2191 H 0.44777 0.04713 0.71436 0.0
H2192 H 0.34527 0.9583 0.74761 0.0
H2193 H 0.34005 0.97554 0.72765 0.0
H2194 H 0.36417 0.96214 0.78342 0.0
H2195 H 0.3912 0.96919 0.7896 0.0
C2196 C 0.00912 0.39435 0.69433 0.0
C2197 C 0.99245 0.37217 0.70202 0.0
C2198 C 0.98248 0.38748 0.74311 0.0
C2199 C 0.99818 0.40965 0.73445 0.0
N2200 N 0.02309 0.43441 0.69872 0.0
N2201 N 0.95949 0.348 0.7289 0.0
C2202 C 0.0105 0.41317 0.70909 0.0
C2203 C 0.97801 0.36883 0.72505 0.0
N2204 N 0.02426 0.39751 0.67387 0.0
N2205 N 0.97235 0.38418 0.76897 0.0
H2206 H 0.95511 0.33422 0.71513 0.0
H2207 H 0.94727 0.34501 0.74373 0.0
H2208 H 0.97524 0.39745 0.78289 0.0
H2209 H 0.96257 0.36831 0.77766 0.0
H2210 H 0.03832 0.41319 0.66984 0.0
H2211 H 0.02377 0.38425 0.66234 0.0
H2212 H 0.03051 0.43768 0.67876 0.0
H2213 H 0.02452 0.44864 0.70895 0.0
C2214 C 0.59972 0.62018 0.69763 0.0
C2215 C 0.62019 0.62294 0.70547 0.0
C2216 C 0.6023 0.59831 0.74576 0.0
C2217 C 0.5815 0.59365 0.73608 0.0
N2218 N 0.55975 0.59692 0.69999 0.0
N2219 N 0.64027 0.61128 0.73363 0.0
C2220 C 0.58 0.60365 0.71118 0.0
C2221 C 0.62132 0.6111 0.72866 0.0
N2222 N 0.59917 0.63407 0.67829 0.0
N2223 N 0.60398 0.59103 0.77166 0.0
H2224 H 0.65436 0.61988 0.72103 0.0
H2225 H 0.64131 0.60112 0.74842 0.0
H2226 H 0.5904 0.5817 0.7849 0.0
H2227 H 0.61906 0.59598 0.78115 0.0
H2228 H 0.58503 0.63439 0.67412 0.0
H2229 H 0.61329 0.64684 0.6684 0.0
H2230 H 0.55771 0.60184 0.6802 0.0
H2231 H 0.54489 0.58485 0.7093 0.0
C2232 C 0.64891 0.71686 0.64557 0.0
C2233 C 0.66417 0.71241 0.63186 0.0
C2234 C 0.66714 0.73552 0.592 0.0
C2235 C 0.65372 0.74182 0.60709 0.0
N2236 N 0.63392 0.74099 0.64955 0.0
N2237 N 0.69051 0.72003 0.59428 0.0
C2238 C 0.64517 0.73319 0.63428 0.0
C2239 C 0.67397 0.72235 0.60559 0.0
N2240 N 0.63728 0.7048 0.66866 0.0
N2241 N 0.673 0.7418 0.56447 0.0
H2242 H 0.69623 0.71079 0.6038 0.0
H2243 H 0.69993 0.72889 0.57684 0.0
H2244 H 0.66853 0.7517 0.5539 0.0
H2245 H 0.68067 0.73565 0.55132 0.0
H2246 H 0.62422 0.70553 0.67769 0.0
H2247 H 0.63933 0.69247 0.67736 0.0
H2248 H 0.62949 0.73731 0.67077 0.0
H2249 H 0.63042 0.75255 0.64165 0.0
C2250 C 0.28152 0.93779 0.66683 0.0
C2251 C 0.285 0.9589 0.65895 0.0
C2252 C 0.25876 0.94024 0.61953 0.0
C2253 C 0.25379 0.91897 0.62899 0.0
N2254 N 0.25727 0.89702 0.66465 0.0
N2255 N 0.27321 0.97954 0.63202 0.0
C2256 C 0.26423 0.91759 0.65357 0.0
C2257 C 0.27256 0.95994 0.63647 0.0
N2258 N 0.29537 0.93705 0.6859 0.0
N2259 N 0.25088 0.94171 0.59393 0.0
H2260 H 0.28244 0.99411 0.64471 0.0
H2261 H 0.26282 0.98065 0.61775 0.0
H2262 H 0.24086 0.92767 0.58072 0.0
H2263 H 0.25593 0.95703 0.58459 0.0
H2264 H 0.2951 0.92234 0.69008 0.0
H2265 H 0.30853 0.95146 0.69568 0.0
H2266 H 0.26262 0.89513 0.68424 0.0
H2267 H 0.24467 0.88184 0.65548 0.0
C2268 C 0.06402 0.35651 0.63088 0.0
C2269 C 0.04994 0.33403 0.63986 0.0
C2270 C 0.07819 0.32558 0.62612 0.0
C2271 C 0.09052 0.34684 0.61313 0.0
N2272 N 0.09353 0.38139 0.59937 0.0
N2273 N 0.04226 0.29598 0.64238 0.0
C2274 C 0.08306 0.36207 0.61455 0.0
C2275 C 0.0567 0.31823 0.63676 0.0
N2276 N 0.05959 0.37275 0.63879 0.0
N2277 N 0.08715 0.31258 0.62866 0.0
H2278 H 0.02616 0.28968 0.64954 0.0
H2279 H 0.04557 0.28337 0.63747 0.0
H2280 H 0.10295 0.31756 0.6213 0.0
H2281 H 0.07983 0.29798 0.64045 0.0
H2282 H 0.07039 0.38985 0.63507 0.0
H2283 H 0.04632 0.36945 0.65189 0.0
H2284 H 0.08726 0.39179 0.59723 0.0
H2285 H 0.10741 0.38601 0.58679 0.0
C2286 C 0.26161 0.33002 0.64999 0.0
C2287 C 0.28332 0.33669 0.64114 0.0
C2288 C 0.27917 0.35348 0.59858 0.0
C2289 C 0.25804 0.34811 0.60837 0.0
N2290 N 0.22985 0.33372 0.64461 0.0
N2291 N 0.31432 0.35773 0.60978 0.0
C2292 C 0.24948 0.33713 0.6345 0.0
C2293 C 0.29252 0.34917 0.61611 0.0
N2294 N 0.25226 0.31608 0.67247 0.0
N2295 N 0.28633 0.36242 0.57232 0.0
H2296 H 0.32466 0.35496 0.62208 0.0
H2297 H 0.32272 0.36908 0.5937 0.0
H2298 H 0.27744 0.36672 0.55938 0.0
H2299 H 0.30034 0.3642 0.56247 0.0
H2300 H 0.23568 0.30852 0.6781 0.0
H2301 H 0.26066 0.31057 0.68434 0.0
H2302 H 0.22397 0.3283 0.665 0.0
H2303 H 0.21997 0.33772 0.63327 0.0
C2304 C 0.66813 0.96095 0.61335 0.0
C2305 C 0.68196 0.96787 0.63777 0.0
C2306 C 0.68203 0.93277 0.63489 0.0
C2307 C 0.66907 0.92635 0.60973 0.0
N2308 N 0.6519 0.93495 0.5727 0.0
N2309 N 0.70432 0.96225 0.6702 0.0
C2310 C 0.66269 0.94062 0.59831 0.0
C2311 C 0.68961 0.95433 0.64806 0.0
N2312 N 0.65999 0.97373 0.60475 0.0
N2313 N 0.68667 0.918 0.64644 0.0
H2314 H 0.70953 0.97757 0.68103 0.0
H2315 H 0.71246 0.95445 0.67685 0.0
H2316 H 0.68202 0.90239 0.63686 0.0
H2317 H 0.69391 0.92045 0.66633 0.0
H2318 H 0.64773 0.96837 0.58937 0.0
H2319 H 0.6646 0.98939 0.61408 0.0
H2320 H 0.64911 0.94578 0.56142 0.0
H2321 H 0.64686 0.91978 0.5616 0.0
C2322 C 0.03506 0.72313 0.63302 0.0
C2323 C 0.03767 0.71381 0.65789 0.0
C2324 C 0.0779 0.73547 0.65144 0.0
C2325 C 0.07504 0.74294 0.62512 0.0
N2326 N 0.05097 0.74144 0.58851 0.0
N2327 N 0.06109 0.70791 0.68823 0.0
C2328 C 0.05362 0.73608 0.61522 0.0
C2329 C 0.05898 0.71918 0.66653 0.0
N2330 N 0.01501 0.72035 0.62701 0.0
N2331 N 0.09868 0.74435 0.66232 0.0
H2332 H 0.04768 0.69568 0.69973 0.0
H2333 H 0.07593 0.70922 0.69325 0.0
H2334 H 0.11299 0.75611 0.6517 0.0
H2335 H 0.10167 0.74148 0.68287 0.0
H2336 H 0.01261 0.7286 0.61077 0.0
H2337 H 0.00114 0.71143 0.63992 0.0
H2338 H 0.03559 0.73482 0.57889 0.0
H2339 H 0.06423 0.75108 0.57495 0.0
C2340 C 0.98575 0.58833 0.68391 0.0
C2341 C 0.0014 0.61185 0.68721 0.0
C2342 C 0.02757 0.60349 0.7075 0.0
C2343 C 0.00991 0.58105 0.71178 0.0
N2344 N 0.98114 0.55144 0.68247 0.0
N2345 N 0.03813 0.64212 0.70149 0.0
C2346 C 0.99125 0.5729 0.69377 0.0
C2347 C 0.02274 0.61956 0.6984 0.0
N2348 N 0.9657 0.58065 0.67147 0.0
N2349 N 0.04885 0.60852 0.70766 0.0
H2350 H 0.03529 0.6546 0.69545 0.0
H2351 H 0.05308 0.64829 0.71216 0.0
H2352 H 0.05242 0.59588 0.70927 0.0
H2353 H 0.0623 0.62422 0.70214 0.0
H2354 H 0.95292 0.56371 0.67148 0.0
H2355 H 0.9615 0.59135 0.66247 0.0
H2356 H 0.96872 0.54515 0.66712 0.0
H2357 H 0.98746 0.54117 0.68575 0.0
C2358 C 0.38839 0.37547 0.71553 0.0
C2359 C 0.37691 0.37716 0.69232 0.0
C2360 C 0.39558 0.41803 0.70155 0.0
C2361 C 0.40516 0.41586 0.72648 0.0
N2362 N 0.40733 0.39189 0.76031 0.0
N2363 N 0.36605 0.39928 0.66685 0.0
C2364 C 0.40058 0.39437 0.7344 0.0
C2365 C 0.37956 0.39825 0.68623 0.0
N2366 N 0.38848 0.35614 0.71887 0.0
N2367 N 0.40224 0.43898 0.69203 0.0
H2368 H 0.35361 0.38512 0.65579 0.0
H2369 H 0.36572 0.41382 0.66381 0.0
H2370 H 0.41398 0.4539 0.70262 0.0
H2371 H 0.39758 0.44156 0.67235 0.0
H2372 H 0.39839 0.35479 0.73371 0.0
H2373 H 0.38044 0.34218 0.7049 0.0
H2374 H 0.40242 0.37622 0.76844 0.0
H2375 H 0.41613 0.40533 0.77487 0.0
C2376 C 0.60078 0.98818 0.70957 0.0
C2377 C 0.61967 0.99725 0.72741 0.0
C2378 C 0.5977 0.9963 0.7686 0.0
C2379 C 0.57939 0.9892 0.75027 0.0
N2380 N 0.56371 0.98064 0.70311 0.0
N2381 N 0.63733 0.01317 0.7728 0.0
C2382 C 0.581 0.98581 0.72066 0.0
C2383 C 0.61845 0.00207 0.7567 0.0
N2384 N 0.60147 0.98092 0.68241 0.0
N2385 N 0.59519 0.99733 0.7974 0.0
H2386 H 0.65291 0.01801 0.76475 0.0
H2387 H 0.63793 0.01935 0.79345 0.0
H2388 H 0.58049 0.99411 0.80689 0.0
H2389 H 0.6071 -0.00024 0.81206 0.0
H2390 H 0.58761 0.97194 0.66935 0.0
H2391 H 0.61559 0.98213 0.67362 0.0
H2392 H 0.56478 0.9806 0.68102 0.0
H2393 H 0.54861 0.97781 0.71062 0.0
loop_
_geom_bond_atom_site_label_1
_geom_bond_atom_site_label_2
_geom_bond_distance
_geom_bond_site_symmetry_2
_ccdc_geom_bond_type
C0 O1 1.160 . S
C0 O7 1.185 . S
O1 C0 1.160 . S
O2 Zn3 1.899 1_656 S
O2 C10 1.284 . S
Zn3 O2 1.899 1_454 S
Zn3 O4 2.032 . S
Zn3 O7 2.086 . S
Zn3 O12 1.977 1_554 S
O4 Zn3 2.032 . S
O4 C8 1.278 1_455 S
C5 O6 1.203 1_455 S
C5 O12 1.267 . S
O6 C5 1.203 1_655 S
O7 C0 1.185 . S
O7 Zn3 2.086 . S
C8 O4 1.278 1_655 S
C8 O9 1.211 . S
O9 C8 1.211 . S
C10 O2 1.284 . S
C10 O11 1.273 1_556 S
O11 C10 1.273 1_554 S
O12 Zn3 1.977 1_556 S
O12 C5 1.267 . S
C13 O14 1.160 . S
C13 O20 1.185 1_556 S
O14 C13 1.160 . S
O15 Zn16 1.899 . S
O15 C23 1.284 . S
Zn16 O15 1.899 . S
Zn16 O17 2.032 1_554 S
Zn16 O20 2.086 . S
Zn16 O25 1.977 . S
O17 Zn16 2.032 1_556 S
O17 C21 1.278 . S
C18 O19 1.203 . S
C18 O25 1.267 . S
O19 C18 1.203 . S
O20 C13 1.185 1_554 S
O20 Zn16 2.086 . S
C21 O17 1.278 . S
C21 O22 1.211 . S
O22 C21 1.211 . S
C23 O15 1.284 . S
C23 O24 1.273 . S
O24 C23 1.273 . S
O25 Zn16 1.977 . S
O25 C18 1.267 . S
C26 O27 1.160 . S
C26 O33 1.185 1_556 S
O27 C26 1.160 . S
O28 Zn29 1.899 1_565 S
O28 C36 1.284 . S
Zn29 O28 1.899 1_545 S
Zn29 O30 2.032 1_554 S
Zn29 O33 2.086 . S
Zn29 O38 1.977 . S
O30 Zn29 2.032 1_556 S
O30 C34 1.278 1_545 S
C31 O32 1.203 1_545 S
C31 O38 1.267 . S
O32 C31 1.203 1_565 S
O33 C26 1.185 1_554 S
O33 Zn29 2.086 . S
C34 O30 1.278 1_565 S
C34 O35 1.211 . S
O35 C34 1.211 . S
C36 O28 1.284 . S
C36 O37 1.273 . S
O37 C36 1.273 . S
O38 Zn29 1.977 . S
O38 C31 1.267 . S
C39 O40 1.160 . S
C39 O46 1.185 1_556 S
O40 C39 1.160 . S
O41 Zn42 1.899 1_455 S
O41 C49 1.284 . S
Zn42 O41 1.899 1_655 S
Zn42 O43 2.033 1_654 S
Zn42 O46 2.086 . S
Zn42 O51 1.977 . S
O43 Zn42 2.033 1_456 S
O43 C47 1.273 . S
C44 O45 1.203 1_655 S
C44 O51 1.267 . S
O45 C44 1.203 1_455 S
O46 C39 1.185 1_554 S
O46 Zn42 2.086 . S
C47 O43 1.273 . S
C47 O48 1.211 . S
O48 C47 1.211 . S
C49 O41 1.284 . S
C49 O50 1.273 . S
O50 C49 1.273 . S
O51 Zn42 1.977 . S
O51 C44 1.267 . S
C52 O53 1.160 . S
C52 O59 1.185 . S
O53 C52 1.160 . S
O54 Zn55 1.899 1_556 S
O54 C62 1.284 . S
Zn55 O54 1.899 1_554 S
Zn55 O56 2.032 . S
Zn55 O59 2.086 . S
Zn55 O64 1.977 1_554 S
O56 Zn55 2.032 . S
O56 C60 1.278 . S
C57 O58 1.203 . S
C57 O64 1.267 . S
O58 C57 1.203 . S
O59 C52 1.185 . S
O59 Zn55 2.086 . S
C60 O56 1.278 . S
C60 O61 1.211 . S
O61 C60 1.211 . S
C62 O54 1.284 . S
C62 O63 1.273 1_556 S
O63 C62 1.273 1_554 S
O64 Zn55 1.977 1_556 S
O64 C57 1.267 . S
C65 O66 1.160 . S
C65 O72 1.185 . S
O66 C65 1.160 . S
O67 Zn68 1.899 1_546 S
O67 C75 1.284 . S
Zn68 O67 1.899 1_564 S
Zn68 O69 2.020 1_565 S
Zn68 O72 2.086 . S
Zn68 O77 1.977 1_554 S
O69 Zn68 2.020 1_545 S
O69 C73 1.311 . S
C70 O71 1.203 1_565 S
C70 O77 1.267 . S
O71 C70 1.203 1_545 S
O72 C65 1.185 . S
O72 Zn68 2.086 . S
C73 O69 1.311 . S
C73 O74 1.211 . S
O74 C73 1.211 . S
C75 O67 1.284 . S
C75 O76 1.273 1_556 S
O76 C75 1.273 1_554 S
O77 Zn68 1.977 1_556 S
O77 C70 1.267 . S
C78 O79 1.160 . S
C78 O85 1.185 . S
O79 C78 1.160 . S
O80 Zn81 1.899 . S
O80 C88 1.284 . S
Zn81 O80 1.899 . S
Zn81 O82 2.032 . S
Zn81 O85 2.086 . S
Zn81 O90 1.977 . S
O82 Zn81 2.032 . S
O82 C86 1.278 . S
C83 O84 1.203 . S
C83 O90 1.267 . S
O84 C83 1.203 . S
O85 C78 1.185 . S
O85 Zn81 2.086 . S
C86 O82 1.278 . S
C86 O87 1.211 . S
O87 C86 1.211 . S
C88 O80 1.284 . S
C88 O89 1.273 . S
O89 C88 1.273 . S
O90 Zn81 1.977 . S
O90 C83 1.267 . S
C91 O92 1.160 1_565 S
C91 O98 1.185 . S
O92 C91 1.160 1_545 S
O93 Zn94 1.899 1_545 S
O93 C101 1.284 . S
Zn94 O93 1.899 1_565 S
Zn94 O95 2.032 . S
Zn94 O98 2.086 . S
Zn94 O103 1.977 . S
O95 Zn94 2.032 . S
O95 C99 1.278 . S
C96 O97 1.203 . S
C96 O103 1.267 . S
O97 C96 1.203 . S
O98 C91 1.185 . S
O98 Zn94 2.086 . S
C99 O95 1.278 . S
C99 O100 1.211 . S
O100 C99 1.211 . S
C101 O93 1.284 . S
C101 O102 1.273 . S
O102 C101 1.273 . S
O103 Zn94 1.977 . S
O103 C96 1.267 . S
C104 O105 1.160 1_455 S
C104 O111 1.185 . S
O105 C104 1.160 1_655 S
O106 Zn107 1.899 1_655 S
O106 C114 1.284 . S
Zn107 O106 1.899 1_455 S
Zn107 O108 2.032 . S
Zn107 O111 2.086 . S
Zn107 O116 1.977 . S
O108 Zn107 2.032 . S
O108 C112 1.278 . S
C109 O110 1.203 . S
C109 O116 1.267 . S
O110 C109 1.203 . S
O111 C104 1.185 . S
O111 Zn107 2.086 . S
C112 O108 1.278 . S
C112 O113 1.211 . S
O113 C112 1.211 . S
C114 O106 1.284 . S
C114 O115 1.273 . S
O115 C114 1.273 . S
O116 Zn107 1.977 . S
O116 C109 1.267 . S
C117 O118 1.160 1_565 S
C117 O124 1.185 . S
O118 C117 1.160 1_545 S
O119 Zn120 1.899 1_545 S
O119 C127 1.284 . S
Zn120 O119 1.899 1_565 S
Zn120 O121 2.032 . S
Zn120 O124 2.086 . S
Zn120 O129 1.977 . S
O121 Zn120 2.032 . S
O121 C125 1.278 . S
C122 O123 1.203 . S
C122 O129 1.267 . S
O123 C122 1.203 . S
O124 C117 1.185 . S
O124 Zn120 2.086 . S
C125 O121 1.278 . S
C125 O126 1.211 . S
O126 C125 1.211 . S
C127 O119 1.284 . S
C127 O128 1.273 . S
O128 C127 1.273 . S
O129 Zn120 1.977 . S
O129 C122 1.267 . S
C130 O131 1.160 . S
C130 O137 1.185 . S
O131 C130 1.160 . S
O132 Zn133 1.890 . S
O132 C140 1.322 . S
Zn133 O132 1.890 . S
Zn133 O134 2.032 . S
Zn133 O137 2.086 1_455 S
Zn133 O142 1.977 . S
O134 Zn133 2.032 . S
O134 C138 1.278 . S
C135 O136 1.203 . S
C135 O142 1.267 . S
O136 C135 1.203 . S
O137 C130 1.185 . S
O137 Zn133 2.086 1_655 S
C138 O134 1.278 . S
C138 O139 1.211 . S
O139 C138 1.211 . S
C140 O132 1.322 . S
C140 O141 1.273 . S
O141 C140 1.273 . S
O142 Zn133 1.977 . S
O142 C135 1.267 . S
C143 O144 1.160 . S
C143 O150 1.185 . S
O144 C143 1.160 . S
O145 Zn146 1.899 . S
O145 C153 1.284 . S
Zn146 O145 1.899 . S
Zn146 O147 2.032 . S
Zn146 O150 2.086 . S
Zn146 O155 1.977 . S
O147 Zn146 2.032 . S
O147 C151 1.278 . S
C148 O149 1.203 . S
C148 O155 1.267 . S
O149 C148 1.203 . S
O150 C143 1.185 . S
O150 Zn146 2.086 . S
C151 O147 1.278 . S
C151 O152 1.211 . S
O152 C151 1.211 . S
C153 O145 1.284 . S
C153 O154 1.273 . S
O154 C153 1.273 . S
O155 Zn146 1.977 . S
O155 C148 1.267 . S
C156 O157 1.160 1_545 S
C156 O163 1.185 . S
O157 C156 1.160 1_565 S
O158 Zn159 1.899 1_565 S
O158 C166 1.284 . S
Zn159 O158 1.899 1_545 S
Zn159 O160 2.032 . S
Zn159 O163 2.086 . S
Zn159 O168 1.977 . S
O160 Zn159 2.032 . S
O160 C164 1.278 . S
C161 O162 1.203 . S
C161 O168 1.267 . S
O162 C161 1.203 . S
O163 C156 1.185 . S
O163 Zn159 2.086 . S
C164 O160 1.278 . S
C164 O165 1.211 . S
O165 C164 1.211 . S
C166 O158 1.284 . S
C166 O167 1.273 . S
O167 C166 1.273 . S
O168 Zn159 1.977 . S
O168 C161 1.267 . S
C169 O170 1.160 . S
C169 O176 1.185 . S
O170 C169 1.160 . S
O171 Zn172 1.899 . S
O171 C179 1.286 . S
Zn172 O171 1.899 . S
Zn172 O173 2.032 . S
Zn172 O176 2.086 1_655 S
Zn172 O181 1.977 . S
O173 Zn172 2.032 . S
O173 C177 1.278 . S
C174 O175 1.203 . S
C174 O181 1.267 . S
O175 C174 1.203 . S
O176 C169 1.185 . S
O176 Zn172 2.086 1_455 S
C177 O173 1.278 . S
C177 O178 1.211 . S
O178 C177 1.211 . S
C179 O171 1.286 . S
C179 O180 1.273 . S
O180 C179 1.273 . S
O181 Zn172 1.977 . S
O181 C174 1.267 . S
C182 O183 1.160 . S
C182 O189 1.185 . S
O183 C182 1.160 . S
O184 Zn185 1.899 . S
O184 C192 1.284 . S
Zn185 O184 1.899 . S
Zn185 O186 2.032 . S
Zn185 O189 2.086 . S
Zn185 O194 1.977 . S
O186 Zn185 2.032 . S
O186 C190 1.278 . S
C187 O188 1.203 . S
C187 O194 1.267 . S
O188 C187 1.203 . S
O189 C182 1.185 . S
O189 Zn185 2.086 . S
C190 O186 1.278 . S
C190 O191 1.211 . S
O191 C190 1.211 . S
C192 O184 1.284 . S
C192 O193 1.273 . S
O193 C192 1.273 . S
O194 Zn185 1.977 . S
O194 C187 1.267 . S
C195 O196 1.160 . S
C195 O202 1.185 . S
O196 C195 1.160 . S
O197 Zn198 1.899 . S
O197 C205 1.284 . S
Zn198 O197 1.899 . S
Zn198 O199 2.032 . S
Zn198 O202 2.086 . S
Zn198 O207 1.977 . S
O199 Zn198 2.032 . S
O199 C203 1.278 . S
C200 O201 1.203 . S
C200 O207 1.267 . S
O201 C200 1.203 . S
O202 C195 1.185 . S
O202 Zn198 2.086 . S
C203 O199 1.278 . S
C203 O204 1.211 . S
O204 C203 1.211 . S
C205 O197 1.284 . S
C205 O206 1.273 . S
O206 C205 1.273 . S
O207 Zn198 1.977 . S
O207 C200 1.267 . S
C208 O209 1.160 1_545 S
C208 O215 1.185 . S
O209 C208 1.160 1_565 S
O210 Zn211 1.899 1_565 S
O210 C218 1.284 . S
Zn211 O210 1.899 1_545 S
Zn211 O212 2.032 . S
Zn211 O215 2.086 . S
Zn211 O220 1.977 . S
O212 Zn211 2.032 . S
O212 C216 1.278 . S
C213 O214 1.203 . S
C213 O220 1.267 . S
O214 C213 1.203 . S
O215 C208 1.185 . S
O215 Zn211 2.086 . S
C216 O212 1.278 . S
C216 O217 1.211 . S
O217 C216 1.211 . S
C218 O210 1.284 . S
C218 O219 1.273 . S
O219 C218 1.273 . S
O220 Zn211 1.977 . S
O220 C213 1.267 . S
C221 O222 1.160 1_655 S
C221 O228 1.185 . S
O222 C221 1.160 1_455 S
O223 Zn224 1.899 1_455 S
O223 C231 1.284 . S
Zn224 O223 1.899 1_655 S
Zn224 O225 2.032 . S
Zn224 O228 2.086 . S
Zn224 O233 1.977 . S
O225 Zn224 2.032 . S
O225 C229 1.278 . S
C226 O227 1.203 . S
C226 O233 1.267 . S
O227 C226 1.203 . S
O228 C221 1.185 . S
O228 Zn224 2.086 . S
C229 O225 1.278 . S
C229 O230 1.211 . S
O230 C229 1.211 . S
C231 O223 1.284 . S
C231 O232 1.273 . S
O232 C231 1.273 . S
O233 Zn224 1.977 . S
O233 C226 1.267 . S
H234 C253 0.949 . S
H235 C254 0.950 . S
H236 C256 0.950 . S
H237 C257 0.950 . S
H238 C259 0.950 . S
H239 C262 0.950 . S
H240 C263 0.950 . S
H241 C265 0.951 . S
H242 C266 0.949 . S
H243 C268 0.949 . S
H244 C269 0.950 . S
H245 C271 0.950 . S
H246 C272 0.950 . S
H247 C274 0.950 . S
H248 C277 0.950 . S
H249 C278 0.950 . S
H250 C280 0.951 . S
H251 C281 0.949 . S
C252 C253 1.376 . S
C252 C257 1.386 . S
C252 C258 1.483 . S
C253 H234 0.949 . S
C253 C252 1.376 . S
C253 C254 1.397 . S
C254 H235 0.950 . S
C254 C253 1.397 . S
C254 C255 1.391 . S
C255 C254 1.391 . S
C255 C256 1.405 . S
C256 H236 0.950 . S
C256 C255 1.405 . S
C256 C257 1.367 . S
C257 H237 0.950 . S
C257 C252 1.386 . S
C257 C256 1.367 . S
C258 C252 1.483 . S
C258 C259 1.382 . S
C258 C260 1.403 . S
C259 H238 0.950 . S
C259 C258 1.382 . S
C259 C275 1.411 . S
C260 C258 1.403 . S
C260 C261 1.489 . S
C260 C274 1.411 . S
C261 C260 1.489 . S
C261 C262 1.383 . S
C261 C266 1.382 . S
C262 H239 0.950 . S
C262 C261 1.383 . S
C262 C263 1.395 . S
C263 H240 0.950 . S
C263 C262 1.395 . S
C263 C264 1.288 . S
C264 C263 1.288 . S
C264 C265 1.392 . S
C265 H241 0.951 . S
C265 C264 1.392 . S
C265 C266 1.392 . S
C266 H242 0.949 . S
C266 C261 1.382 . S
C266 C265 1.392 . S
C267 C268 1.376 . S
C267 C272 1.386 . S
C267 C273 1.483 . S
C268 H243 0.949 . S
C268 C267 1.376 . S
C268 C269 1.397 . S
C269 H244 0.950 . S
C269 C268 1.397 . S
C269 C270 1.391 . S
C270 C269 1.391 . S
C270 C271 1.405 . S
C271 H245 0.950 . S
C271 C270 1.405 . S
C271 C272 1.367 . S
C272 H246 0.950 . S
C272 C267 1.386 . S
C272 C271 1.367 . S
C273 C267 1.483 . S
C273 C274 1.382 . S
C273 C275 1.403 . S
C274 H247 0.950 . S
C274 C260 1.411 . S
C274 C273 1.382 . S
C275 C259 1.411 . S
C275 C273 1.403 . S
C275 C276 1.489 . S
C276 C275 1.489 . S
C276 C277 1.383 . S
C276 C281 1.382 . S
C277 H248 0.950 . S
C277 C276 1.383 . S
C277 C278 1.395 . S
C278 H249 0.950 . S
C278 C277 1.395 . S
C278 C279 1.288 . S
C279 C278 1.288 . S
C279 C280 1.392 . S
C280 H250 0.951 . S
C280 C279 1.392 . S
C280 C281 1.392 . S
C281 H251 0.949 . S
C281 C276 1.382 . S
C281 C280 1.392 . S
H282 C301 0.949 . S
H283 C302 0.950 . S
H284 C304 0.950 . S
H285 C305 0.950 . S
H286 C307 0.950 . S
H287 C310 0.950 . S
H288 C311 0.950 . S
H289 C313 0.951 . S
H290 C314 0.949 . S
H291 C316 0.949 . S
H292 C317 0.950 . S
H293 C319 0.950 . S
H294 C320 0.950 . S
H295 C322 0.950 . S
H296 C325 0.950 . S
H297 C326 0.950 . S
H298 C328 0.951 . S
H299 C329 0.949 . S
C300 C301 1.376 . S
C300 C305 1.386 . S
C300 C306 1.483 . S
C301 H282 0.949 . S
C301 C300 1.376 . S
C301 C302 1.397 . S
C302 H283 0.950 . S
C302 C301 1.397 . S
C302 C303 1.391 . S
C303 C302 1.391 . S
C303 C304 1.405 . S
C304 H284 0.950 . S
C304 C303 1.405 . S
C304 C305 1.367 . S
C305 H285 0.950 . S
C305 C300 1.386 . S
C305 C304 1.367 . S
C306 C300 1.483 . S
C306 C307 1.382 . S
C306 C308 1.403 . S
C307 H286 0.950 . S
C307 C306 1.382 . S
C307 C323 1.411 . S
C308 C306 1.403 . S
C308 C309 1.489 . S
C308 C322 1.411 . S
C309 C308 1.489 . S
C309 C310 1.383 . S
C309 C314 1.382 . S
C310 H287 0.950 . S
C310 C309 1.383 . S
C310 C311 1.395 . S
C311 H288 0.950 . S
C311 C310 1.395 . S
C311 C312 1.288 . S
C312 C311 1.288 . S
C312 C313 1.392 . S
C313 H289 0.951 . S
C313 C312 1.392 . S
C313 C314 1.392 . S
C314 H290 0.949 . S
C314 C309 1.382 . S
C314 C313 1.392 . S
C315 C316 1.376 . S
C315 C320 1.386 . S
C315 C321 1.483 . S
C316 H291 0.949 . S
C316 C315 1.376 . S
C316 C317 1.397 . S
C317 H292 0.950 . S
C317 C316 1.397 . S
C317 C318 1.391 . S
C318 C317 1.391 . S
C318 C319 1.405 . S
C319 H293 0.950 . S
C319 C318 1.405 . S
C319 C320 1.367 . S
C320 H294 0.950 . S
C320 C315 1.386 . S
C320 C319 1.367 . S
C321 C315 1.483 . S
C321 C322 1.382 . S
C321 C323 1.403 . S
C322 H295 0.950 . S
C322 C308 1.411 . S
C322 C321 1.382 . S
C323 C307 1.411 . S
C323 C321 1.403 . S
C323 C324 1.489 . S
C324 C323 1.489 . S
C324 C325 1.383 . S
C324 C329 1.382 . S
C325 H296 0.950 . S
C325 C324 1.383 . S
C325 C326 1.395 . S
C326 H297 0.950 . S
C326 C325 1.395 . S
C326 C327 1.288 . S
C327 C326 1.288 . S
C327 C328 1.392 . S
C328 H298 0.951 . S
C328 C327 1.392 . S
C328 C329 1.392 . S
C329 H299 0.949 . S
C329 C324 1.382 . S
C329 C328 1.392 . S
H330 C349 0.949 . S
H331 C350 0.950 . S
H332 C352 0.950 . S
H333 C353 0.950 . S
H334 C355 0.950 . S
H335 C358 0.950 . S
H336 C359 0.950 . S
H337 C361 0.951 . S
H338 C362 0.949 . S
H339 C364 0.949 . S
H340 C365 0.950 . S
H341 C367 0.950 . S
H342 C368 0.950 . S
H343 C370 0.950 . S
H344 C373 0.950 . S
H345 C374 0.950 . S
H346 C376 0.951 . S
H347 C377 0.949 . S
C348 C349 1.376 . S
C348 C353 1.386 . S
C348 C354 1.483 . S
C349 H330 0.949 . S
C349 C348 1.376 . S
C349 C350 1.397 . S
C350 H331 0.950 . S
C350 C349 1.397 . S
C350 C351 1.391 . S
C351 C350 1.391 . S
C351 C352 1.405 . S
C352 H332 0.950 . S
C352 C351 1.405 . S
C352 C353 1.367 . S
C353 H333 0.950 . S
C353 C348 1.386 . S
C353 C352 1.367 . S
C354 C348 1.483 . S
C354 C355 1.382 . S
C354 C356 1.403 . S
C355 H334 0.950 . S
C355 C354 1.382 . S
C355 C371 1.411 . S
C356 C354 1.403 . S
C356 C357 1.489 . S
C356 C370 1.411 . S
C357 C356 1.489 . S
C357 C358 1.383 . S
C357 C362 1.382 . S
C358 H335 0.950 . S
C358 C357 1.383 . S
C358 C359 1.395 . S
C359 H336 0.950 . S
C359 C358 1.395 . S
C359 C360 1.288 . S
C360 C359 1.288 . S
C360 C361 1.392 . S
C361 H337 0.951 . S
C361 C360 1.392 . S
C361 C362 1.392 . S
C362 H338 0.949 . S
C362 C357 1.382 . S
C362 C361 1.392 . S
C363 C364 1.376 . S
C363 C368 1.386 . S
C363 C369 1.483 . S
C364 H339 0.949 . S
C364 C363 1.376 . S
C364 C365 1.397 . S
C365 H340 0.950 . S
C365 C364 1.397 . S
C365 C366 1.391 . S
C366 C365 1.391 . S
C366 C367 1.405 . S
C367 H341 0.950 . S
C367 C366 1.405 . S
C367 C368 1.367 . S
C368 H342 0.950 . S
C368 C363 1.386 . S
C368 C367 1.367 . S
C369 C363 1.483 . S
C369 C370 1.382 . S
C369 C371 1.403 . S
C370 H343 0.950 . S
C370 C356 1.411 . S
C370 C369 1.382 . S
C371 C355 1.411 . S
C371 C369 1.403 . S
C371 C372 1.489 . S
C372 C371 1.489 . S
C372 C373 1.383 . S
C372 C377 1.382 . S
C373 H344 0.950 . S
C373 C372 1.383 . S
C373 C374 1.395 . S
C374 H345 0.950 . S
C374 C373 1.395 . S
C374 C375 1.288 . S
C375 C374 1.288 . S
C375 C376 1.392 . S
C376 H346 0.951 . S
C376 C375 1.392 . S
C376 C377 1.392 . S
C377 H347 0.949 . S
C377 C372 1.382 . S
C377 C376 1.392 . S
H378 C397 0.949 . S
H379 C398 0.950 . S
H380 C400 0.950 . S
H381 C401 0.950 . S
H382 C403 0.950 . S
H383 C406 0.950 . S
H384 C407 0.950 . S
H385 C409 0.951 . S
H386 C410 0.949 . S
H387 C412 0.949 . S
H388 C413 0.950 . S
H389 C415 0.950 . S
H390 C416 0.950 . S
H391 C418 0.950 . S
H392 C421 0.950 . S
H393 C422 0.950 . S
H394 C424 0.951 . S
H395 C425 0.949 . S
C396 C397 1.376 . S
C396 C401 1.386 . S
C396 C402 1.483 . S
C397 H378 0.949 . S
C397 C396 1.376 . S
C397 C398 1.397 . S
C398 H379 0.950 . S
C398 C397 1.397 . S
C398 C399 1.391 . S
C399 C398 1.391 . S
C399 C400 1.405 . S
C400 H380 0.950 . S
C400 C399 1.405 . S
C400 C401 1.367 . S
C401 H381 0.950 . S
C401 C396 1.386 . S
C401 C400 1.367 . S
C402 C396 1.483 . S
C402 C403 1.382 . S
C402 C404 1.403 . S
C403 H382 0.950 . S
C403 C402 1.382 . S
C403 C419 1.411 . S
C404 C402 1.403 . S
C404 C405 1.489 . S
C404 C418 1.411 . S
C405 C404 1.489 . S
C405 C406 1.383 . S
C405 C410 1.382 . S
C406 H383 0.950 . S
C406 C405 1.383 . S
C406 C407 1.395 . S
C407 H384 0.950 . S
C407 C406 1.395 . S
C407 C408 1.288 . S
C408 C407 1.288 . S
C408 C409 1.392 . S
C409 H385 0.951 . S
C409 C408 1.392 . S
C409 C410 1.392 . S
C410 H386 0.949 . S
C410 C405 1.382 . S
C410 C409 1.392 . S
C411 C412 1.376 . S
C411 C416 1.386 . S
C411 C417 1.483 . S
C412 H387 0.949 . S
C412 C411 1.376 . S
C412 C413 1.397 . S
C413 H388 0.950 . S
C413 C412 1.397 . S
C413 C414 1.391 . S
C414 C413 1.391 . S
C414 C415 1.405 . S
C415 H389 0.950 . S
C415 C414 1.405 . S
C415 C416 1.367 . S
C416 H390 0.950 . S
C416 C411 1.386 . S
C416 C415 1.367 . S
C417 C411 1.483 . S
C417 C418 1.382 . S
C417 C419 1.403 . S
C418 H391 0.950 . S
C418 C404 1.411 . S
C418 C417 1.382 . S
C419 C403 1.411 . S
C419 C417 1.403 . S
C419 C420 1.489 . S
C420 C419 1.489 . S
C420 C421 1.383 . S
C420 C425 1.382 . S
C421 H392 0.950 . S
C421 C420 1.383 . S
C421 C422 1.395 . S
C422 H393 0.950 . S
C422 C421 1.395 . S
C422 C423 1.288 . S
C423 C422 1.288 . S
C423 C424 1.392 . S
C424 H394 0.951 . S
C424 C423 1.392 . S
C424 C425 1.392 . S
C425 H395 0.949 . S
C425 C420 1.382 . S
C425 C424 1.392 . S
H426 C445 0.949 . S
H427 C446 0.950 . S
H428 C448 0.950 . S
H429 C449 0.950 . S
H430 C451 0.950 . S
H431 C454 0.950 . S
H432 C455 0.950 . S
H433 C457 0.951 . S
H434 C458 0.949 . S
H435 C460 0.949 . S
H436 C461 0.950 . S
H437 C463 0.950 . S
H438 C464 0.950 . S
H439 C466 0.950 . S
H440 C469 0.950 . S
H441 C470 0.950 . S
H442 C472 0.951 . S
H443 C473 0.949 . S
C444 C445 1.376 . S
C444 C449 1.386 . S
C444 C450 1.483 . S
C445 H426 0.949 . S
C445 C444 1.376 . S
C445 C446 1.397 . S
C446 H427 0.950 . S
C446 C445 1.397 . S
C446 C447 1.391 . S
C447 C446 1.391 . S
C447 C448 1.405 . S
C448 H428 0.950 . S
C448 C447 1.405 . S
C448 C449 1.367 . S
C449 H429 0.950 . S
C449 C444 1.386 . S
C449 C448 1.367 . S
C450 C444 1.483 . S
C450 C451 1.382 . S
C450 C452 1.403 . S
C451 H430 0.950 . S
C451 C450 1.382 . S
C451 C467 1.411 . S
C452 C450 1.403 . S
C452 C453 1.489 . S
C452 C466 1.411 . S
C453 C452 1.489 . S
C453 C454 1.383 . S
C453 C458 1.382 . S
C454 H431 0.950 . S
C454 C453 1.383 . S
C454 C455 1.395 . S
C455 H432 0.950 . S
C455 C454 1.395 . S
C455 C456 1.288 . S
C456 C455 1.288 . S
C456 C457 1.392 . S
C457 H433 0.951 . S
C457 C456 1.392 . S
C457 C458 1.392 . S
C458 H434 0.949 . S
C458 C453 1.382 . S
C458 C457 1.392 . S
C459 C460 1.376 . S
C459 C464 1.386 . S
C459 C465 1.483 . S
C460 H435 0.949 . S
C460 C459 1.376 . S
C460 C461 1.397 . S
C461 H436 0.950 . S
C461 C460 1.397 . S
C461 C462 1.391 . S
C462 C461 1.391 . S
C462 C463 1.405 . S
C463 H437 0.950 . S
C463 C462 1.405 . S
C463 C464 1.367 . S
C464 H438 0.950 . S
C464 C459 1.386 . S
C464 C463 1.367 . S
C465 C459 1.483 . S
C465 C466 1.382 . S
C465 C467 1.403 . S
C466 H439 0.950 . S
C466 C452 1.411 . S
C466 C465 1.382 . S
C467 C451 1.411 . S
C467 C465 1.403 . S
C467 C468 1.489 . S
C468 C467 1.489 . S
C468 C469 1.383 . S
C468 C473 1.382 . S
C469 H440 0.950 . S
C469 C468 1.383 . S
C469 C470 1.395 . S
C470 H441 0.950 . S
C470 C469 1.395 . S
C470 C471 1.288 . S
C471 C470 1.288 . S
C471 C472 1.392 . S
C472 H442 0.951 . S
C472 C471 1.392 . S
C472 C473 1.392 . S
C473 H443 0.949 . S
C473 C468 1.382 . S
C473 C472 1.392 . S
H474 C493 0.949 . S
H475 C494 0.950 . S
H476 C496 0.950 . S
H477 C497 0.950 . S
H478 C499 0.950 . S
H479 C502 0.950 . S
H480 C503 0.950 . S
H481 C505 0.951 . S
H482 C506 0.949 . S
H483 C508 0.949 . S
H484 C509 0.950 . S
H485 C511 0.950 . S
H486 C512 0.950 . S
H487 C514 0.950 . S
H488 C517 0.950 . S
H489 C518 0.950 . S
H490 C520 0.951 . S
H491 C521 0.949 . S
C492 C493 1.376 . S
C492 C497 1.386 . S
C492 C498 1.483 . S
C493 H474 0.949 . S
C493 C492 1.376 . S
C493 C494 1.397 . S
C494 H475 0.950 . S
C494 C493 1.397 . S
C494 C495 1.391 . S
C495 C494 1.391 . S
C495 C496 1.405 . S
C496 H476 0.950 . S
C496 C495 1.405 . S
C496 C497 1.367 . S
C497 H477 0.950 . S
C497 C492 1.386 . S
C497 C496 1.367 . S
C498 C492 1.483 . S
C498 C499 1.382 . S
C498 C500 1.403 . S
C499 H478 0.950 . S
C499 C498 1.382 . S
C499 C515 1.411 . S
C500 C498 1.403 . S
C500 C501 1.489 . S
C500 C514 1.411 . S
C501 C500 1.489 . S
C501 C502 1.383 . S
C501 C506 1.382 . S
C502 H479 0.950 . S
C502 C501 1.383 . S
C502 C503 1.395 . S
C503 H480 0.950 . S
C503 C502 1.395 . S
C503 C504 1.288 . S
C504 C503 1.288 . S
C504 C505 1.392 . S
C505 H481 0.951 . S
C505 C504 1.392 . S
C505 C506 1.392 . S
C506 H482 0.949 . S
C506 C501 1.382 . S
C506 C505 1.392 . S
C507 C508 1.376 . S
C507 C512 1.386 . S
C507 C513 1.483 . S
C508 H483 0.949 . S
C508 C507 1.376 . S
C508 C509 1.397 . S
C509 H484 0.950 . S
C509 C508 1.397 . S
C509 C510 1.391 . S
C510 C509 1.391 . S
C510 C511 1.405 . S
C511 H485 0.950 . S
C511 C510 1.405 . S
C511 C512 1.367 . S
C512 H486 0.950 . S
C512 C507 1.386 . S
C512 C511 1.367 . S
C513 C507 1.483 . S
C513 C514 1.382 . S
C513 C515 1.403 . S
C514 H487 0.950 . S
C514 C500 1.411 . S
C514 C513 1.382 . S
C515 C499 1.411 . S
C515 C513 1.403 . S
C515 C516 1.489 . S
C516 C515 1.489 . S
C516 C517 1.383 . S
C516 C521 1.382 . S
C517 H488 0.950 . S
C517 C516 1.383 . S
C517 C518 1.395 . S
C518 H489 0.950 . S
C518 C517 1.395 . S
C518 C519 1.288 . S
C519 C518 1.288 . S
C519 C520 1.392 . S
C520 H490 0.951 . S
C520 C519 1.392 . S
C520 C521 1.392 . S
C521 H491 0.949 . S
C521 C516 1.382 . S
C521 C520 1.392 . S
H522 C541 0.949 . S
H523 C542 0.950 . S
H524 C544 0.950 . S
H525 C545 0.950 . S
H526 C547 0.950 . S
H527 C550 0.950 . S
H528 C551 0.950 . S
H529 C553 0.951 . S
H530 C554 0.949 . S
H531 C556 0.949 . S
H532 C557 0.950 . S
H533 C559 0.950 . S
H534 C560 0.950 . S
H535 C562 0.950 . S
H536 C565 0.950 . S
H537 C566 0.950 . S
H538 C568 0.951 . S
H539 C569 0.949 . S
C540 C541 1.376 . S
C540 C545 1.386 . S
C540 C546 1.483 . S
C541 H522 0.949 . S
C541 C540 1.376 . S
C541 C542 1.397 . S
C542 H523 0.950 . S
C542 C541 1.397 . S
C542 C543 1.391 . S
C543 C542 1.391 . S
C543 C544 1.405 . S
C544 H524 0.950 . S
C544 C543 1.405 . S
C544 C545 1.367 . S
C545 H525 0.950 . S
C545 C540 1.386 . S
C545 C544 1.367 . S
C546 C540 1.483 . S
C546 C547 1.382 . S
C546 C548 1.403 . S
C547 H526 0.950 . S
C547 C546 1.382 . S
C547 C563 1.411 . S
C548 C546 1.403 . S
C548 C549 1.489 . S
C548 C562 1.411 . S
C549 C548 1.489 . S
C549 C550 1.383 . S
C549 C554 1.382 . S
C550 H527 0.950 . S
C550 C549 1.383 . S
C550 C551 1.395 . S
C551 H528 0.950 . S
C551 C550 1.395 . S
C551 C552 1.288 . S
C552 C551 1.288 . S
C552 C553 1.392 . S
C553 H529 0.951 . S
C553 C552 1.392 . S
C553 C554 1.392 . S
C554 H530 0.949 . S
C554 C549 1.382 . S
C554 C553 1.392 . S
C555 C556 1.376 . S
C555 C560 1.386 . S
C555 C561 1.483 . S
C556 H531 0.949 . S
C556 C555 1.376 . S
C556 C557 1.397 . S
C557 H532 0.950 . S
C557 C556 1.397 . S
C557 C558 1.391 . S
C558 C557 1.391 . S
C558 C559 1.405 . S
C559 H533 0.950 . S
C559 C558 1.405 . S
C559 C560 1.367 . S
C560 H534 0.950 . S
C560 C555 1.386 . S
C560 C559 1.367 . S
C561 C555 1.483 . S
C561 C562 1.382 . S
C561 C563 1.403 . S
C562 H535 0.950 . S
C562 C548 1.411 . S
C562 C561 1.382 . S
C563 C547 1.411 . S
C563 C561 1.403 . S
C563 C564 1.489 . S
C564 C563 1.489 . S
C564 C565 1.383 . S
C564 C569 1.382 . S
C565 H536 0.950 . S
C565 C564 1.383 . S
C565 C566 1.395 . S
C566 H537 0.950 . S
C566 C565 1.395 . S
C566 C567 1.288 . S
C567 C566 1.288 . S
C567 C568 1.392 . S
C568 H538 0.951 . S
C568 C567 1.392 . S
C568 C569 1.392 . S
C569 H539 0.949 . S
C569 C564 1.382 . S
C569 C568 1.392 . S
H570 C589 0.949 . S
H571 C590 0.950 . S
H572 C592 0.950 . S
H573 C593 0.950 . S
H574 C595 0.950 . S
H575 C598 0.950 . S
H576 C599 0.950 . S
H577 C601 0.951 . S
H578 C602 0.949 . S
H579 C604 0.949 . S
H580 C605 0.950 . S
H581 C607 0.950 . S
H582 C608 0.950 . S
H583 C610 0.950 . S
H584 C613 0.950 . S
H585 C614 0.950 . S
H586 C616 0.951 . S
H587 C617 0.949 . S
C588 C589 1.376 . S
C588 C593 1.386 . S
C588 C594 1.483 . S
C589 H570 0.949 . S
C589 C588 1.376 . S
C589 C590 1.397 . S
C590 H571 0.950 . S
C590 C589 1.397 . S
C590 C591 1.391 . S
C591 C590 1.391 . S
C591 C592 1.405 . S
C592 H572 0.950 . S
C592 C591 1.405 . S
C592 C593 1.367 . S
C593 H573 0.950 . S
C593 C588 1.386 . S
C593 C592 1.367 . S
C594 C588 1.483 . S
C594 C595 1.382 . S
C594 C596 1.403 . S
C595 H574 0.950 . S
C595 C594 1.382 . S
C595 C611 1.411 . S
C596 C594 1.403 . S
C596 C597 1.489 . S
C596 C610 1.411 . S
C597 C596 1.489 . S
C597 C598 1.383 . S
C597 C602 1.382 . S
C598 H575 0.950 . S
C598 C597 1.383 . S
C598 C599 1.395 . S
C599 H576 0.950 . S
C599 C598 1.395 . S
C599 C600 1.288 . S
C600 C599 1.288 . S
C600 C601 1.392 . S
C601 H577 0.951 . S
C601 C600 1.392 . S
C601 C602 1.392 . S
C602 H578 0.949 . S
C602 C597 1.382 . S
C602 C601 1.392 . S
C603 C604 1.376 . S
C603 C608 1.386 . S
C603 C609 1.483 . S
C604 H579 0.949 . S
C604 C603 1.376 . S
C604 C605 1.397 . S
C605 H580 0.950 . S
C605 C604 1.397 . S
C605 C606 1.391 . S
C606 C605 1.391 . S
C606 C607 1.405 . S
C607 H581 0.950 . S
C607 C606 1.405 . S
C607 C608 1.367 . S
C608 H582 0.950 . S
C608 C603 1.386 . S
C608 C607 1.367 . S
C609 C603 1.483 . S
C609 C610 1.382 . S
C609 C611 1.403 . S
C610 H583 0.950 . S
C610 C596 1.411 . S
C610 C609 1.382 . S
C611 C595 1.411 . S
C611 C609 1.403 . S
C611 C612 1.489 . S
C612 C611 1.489 . S
C612 C613 1.383 . S
C612 C617 1.382 . S
C613 H584 0.950 . S
C613 C612 1.383 . S
C613 C614 1.395 . S
C614 H585 0.950 . S
C614 C613 1.395 . S
C614 C615 1.288 . S
C615 C614 1.288 . S
C615 C616 1.392 . S
C616 H586 0.951 . S
C616 C615 1.392 . S
C616 C617 1.392 . S
C617 H587 0.949 . S
C617 C612 1.382 . S
C617 C616 1.392 . S
H618 C637 0.949 . S
H619 C638 0.950 . S
H620 C640 0.950 . S
H621 C641 0.950 . S
H622 C643 0.950 . S
H623 C646 0.950 . S
H624 C647 0.950 . S
H625 C649 0.951 . S
H626 C650 0.949 . S
H627 C652 0.949 . S
H628 C653 0.950 . S
H629 C655 0.950 . S
H630 C656 0.950 . S
H631 C658 0.950 . S
H632 C661 0.950 . S
H633 C662 0.950 . S
H634 C664 0.951 . S
H635 C665 0.949 . S
C636 C637 1.376 . S
C636 C641 1.386 . S
C636 C642 1.483 . S
C637 H618 0.949 . S
C637 C636 1.376 . S
C637 C638 1.397 . S
C638 H619 0.950 . S
C638 C637 1.397 . S
C638 C639 1.391 . S
C639 C638 1.391 . S
C639 C640 1.405 . S
C640 H620 0.950 . S
C640 C639 1.405 . S
C640 C641 1.367 . S
C641 H621 0.950 . S
C641 C636 1.386 . S
C641 C640 1.367 . S
C642 C636 1.483 . S
C642 C643 1.382 . S
C642 C644 1.403 . S
C643 H622 0.950 . S
C643 C642 1.382 . S
C643 C659 1.411 . S
C644 C642 1.403 . S
C644 C645 1.489 . S
C644 C658 1.411 . S
C645 C644 1.489 . S
C645 C646 1.383 . S
C645 C650 1.382 . S
C646 H623 0.950 . S
C646 C645 1.383 . S
C646 C647 1.395 . S
C647 H624 0.950 . S
C647 C646 1.395 . S
C647 C648 1.288 . S
C648 C647 1.288 . S
C648 C649 1.392 . S
C649 H625 0.951 . S
C649 C648 1.392 . S
C649 C650 1.392 . S
C650 H626 0.949 . S
C650 C645 1.382 . S
C650 C649 1.392 . S
C651 C652 1.376 . S
C651 C656 1.386 . S
C651 C657 1.483 . S
C652 H627 0.949 . S
C652 C651 1.376 . S
C652 C653 1.397 . S
C653 H628 0.950 . S
C653 C652 1.397 . S
C653 C654 1.391 . S
C654 C653 1.391 . S
C654 C655 1.405 . S
C655 H629 0.950 . S
C655 C654 1.405 . S
C655 C656 1.367 . S
C656 H630 0.950 . S
C656 C651 1.386 . S
C656 C655 1.367 . S
C657 C651 1.483 . S
C657 C658 1.382 . S
C657 C659 1.403 . S
C658 H631 0.950 . S
C658 C644 1.411 . S
C658 C657 1.382 . S
C659 C643 1.411 . S
C659 C657 1.403 . S
C659 C660 1.489 . S
C660 C659 1.489 . S
C660 C661 1.383 . S
C660 C665 1.382 . S
C661 H632 0.950 . S
C661 C660 1.383 . S
C661 C662 1.395 . S
C662 H633 0.950 . S
C662 C661 1.395 . S
C662 C663 1.288 . S
C663 C662 1.288 . S
C663 C664 1.392 . S
C664 H634 0.951 . S
C664 C663 1.392 . S
C664 C665 1.392 . S
C665 H635 0.949 . S
C665 C660 1.382 . S
C665 C664 1.392 . S
H666 C685 0.949 . S
H667 C686 0.950 . S
H668 C688 0.950 . S
H669 C689 0.950 . S
H670 C691 0.950 . S
H671 C694 0.950 . S
H672 C695 0.950 . S
H673 C697 0.951 . S
H674 C698 0.949 . S
H675 C700 0.949 . S
H676 C701 0.950 . S
H677 C703 0.950 . S
H678 C704 0.950 . S
H679 C706 0.950 . S
H680 C709 0.950 . S
H681 C710 0.950 . S
H682 C712 0.951 . S
H683 C713 0.949 . S
C684 C685 1.376 . S
C684 C689 1.386 1_655 S
C684 C690 1.483 . S
C685 H666 0.949 . S
C685 C684 1.376 . S
C685 C686 1.397 . S
C686 H667 0.950 . S
C686 C685 1.397 . S
C686 C687 1.391 . S
C687 C686 1.391 . S
C687 C688 1.405 1_655 S
C688 H668 0.950 . S
C688 C687 1.405 1_455 S
C688 C689 1.367 . S
C689 H669 0.950 . S
C689 C684 1.386 1_455 S
C689 C688 1.367 . S
C690 C684 1.483 . S
C690 C691 1.382 . S
C690 C692 1.403 1_655 S
C691 H670 0.950 . S
C691 C690 1.382 . S
C691 C707 1.411 . S
C692 C690 1.403 1_455 S
C692 C693 1.489 . S
C692 C706 1.411 . S
C693 C692 1.489 . S
C693 C694 1.383 1_455 S
C693 C698 1.382 . S
C694 H671 0.950 . S
C694 C693 1.383 1_655 S
C694 C695 1.395 . S
C695 H672 0.950 . S
C695 C694 1.395 . S
C695 C696 1.288 1_655 S
C696 C695 1.288 1_455 S
C696 C697 1.392 . S
C697 H673 0.951 . S
C697 C696 1.392 . S
C697 C698 1.392 . S
C698 H674 0.949 . S
C698 C693 1.382 . S
C698 C697 1.392 . S
C699 C700 1.376 . S
C699 C704 1.386 1_455 S
C699 C705 1.483 . S
C700 H675 0.949 . S
C700 C699 1.376 . S
C700 C701 1.397 . S
C701 H676 0.950 . S
C701 C700 1.397 . S
C701 C702 1.391 . S
C702 C701 1.391 . S
C702 C703 1.405 1_455 S
C703 H677 0.950 . S
C703 C702 1.405 1_655 S
C703 C704 1.367 . S
C704 H678 0.950 . S
C704 C699 1.386 1_655 S
C704 C703 1.367 . S
C705 C699 1.483 . S
C705 C706 1.382 . S
C705 C707 1.403 1_455 S
C706 H679 0.950 . S
C706 C692 1.411 . S
C706 C705 1.382 . S
C707 C691 1.411 . S
C707 C705 1.403 1_655 S
C707 C708 1.489 . S
C708 C707 1.489 . S
C708 C709 1.383 1_655 S
C708 C713 1.382 . S
C709 H680 0.950 . S
C709 C708 1.383 1_455 S
C709 C710 1.395 . S
C710 H681 0.950 . S
C710 C709 1.395 . S
C710 C711 1.288 1_455 S
C711 C710 1.288 1_655 S
C711 C712 1.392 . S
C712 H682 0.951 . S
C712 C711 1.392 . S
C712 C713 1.392 . S
C713 H683 0.949 . S
C713 C708 1.382 . S
C713 C712 1.392 . S
H714 C733 0.949 . S
H715 C734 0.950 . S
H716 C736 0.950 . S
H717 C737 0.950 . S
H718 C739 0.950 . S
H719 C742 0.950 . S
H720 C743 0.950 . S
H721 C745 0.951 . S
H722 C746 0.949 . S
H723 C748 0.949 . S
H724 C749 0.950 . S
H725 C751 0.950 . S
H726 C752 0.950 . S
H727 C754 0.950 . S
H728 C757 0.950 . S
H729 C758 0.950 . S
H730 C760 0.951 . S
H731 C761 0.949 . S
C732 C733 1.376 . S
C732 C737 1.386 . S
C732 C738 1.483 . S
C733 H714 0.949 . S
C733 C732 1.376 . S
C733 C734 1.397 . S
C734 H715 0.950 . S
C734 C733 1.397 . S
C734 C735 1.391 . S
C735 C734 1.391 . S
C735 C736 1.405 . S
C736 H716 0.950 . S
C736 C735 1.405 . S
C736 C737 1.367 . S
C737 H717 0.950 . S
C737 C732 1.386 . S
C737 C736 1.367 . S
C738 C732 1.483 . S
C738 C739 1.382 . S
C738 C740 1.403 . S
C739 H718 0.950 . S
C739 C738 1.382 . S
C739 C755 1.411 . S
C740 C738 1.403 . S
C740 C741 1.489 . S
C740 C754 1.411 . S
C741 C740 1.489 . S
C741 C742 1.383 . S
C741 C746 1.382 . S
C742 H719 0.950 . S
C742 C741 1.383 . S
C742 C743 1.395 . S
C743 H720 0.950 . S
C743 C742 1.395 . S
C743 C744 1.288 . S
C744 C743 1.288 . S
C744 C745 1.392 . S
C745 H721 0.951 . S
C745 C744 1.392 . S
C745 C746 1.392 . S
C746 H722 0.949 . S
C746 C741 1.382 . S
C746 C745 1.392 . S
C747 C748 1.376 . S
C747 C752 1.386 . S
C747 C753 1.483 . S
C748 H723 0.949 . S
C748 C747 1.376 . S
C748 C749 1.397 . S
C749 H724 0.950 . S
C749 C748 1.397 . S
C749 C750 1.391 . S
C750 C749 1.391 . S
C750 C751 1.405 . S
C751 H725 0.950 . S
C751 C750 1.405 . S
C751 C752 1.367 . S
C752 H726 0.950 . S
C752 C747 1.386 . S
C752 C751 1.367 . S
C753 C747 1.483 . S
C753 C754 1.382 . S
C753 C755 1.403 . S
C754 H727 0.950 . S
C754 C740 1.411 . S
C754 C753 1.382 . S
C755 C739 1.411 . S
C755 C753 1.403 . S
C755 C756 1.489 . S
C756 C755 1.489 . S
C756 C757 1.383 . S
C756 C761 1.382 . S
C757 H728 0.950 . S
C757 C756 1.383 . S
C757 C758 1.395 . S
C758 H729 0.950 . S
C758 C757 1.395 . S
C758 C759 1.288 . S
C759 C758 1.288 . S
C759 C760 1.392 . S
C760 H730 0.951 . S
C760 C759 1.392 . S
C760 C761 1.392 . S
C761 H731 0.949 . S
C761 C756 1.382 . S
C761 C760 1.392 . S
H762 C781 0.949 . S
H763 C782 0.950 . S
H764 C784 0.950 . S
H765 C785 0.950 . S
H766 C787 0.950 . S
H767 C790 0.950 . S
H768 C791 0.950 . S
H769 C793 0.951 . S
H770 C794 0.949 . S
H771 C796 0.949 . S
H772 C797 0.950 . S
H773 C799 0.950 . S
H774 C800 0.950 . S
H775 C802 0.950 . S
H776 C805 0.950 . S
H777 C806 0.950 . S
H778 C808 0.951 . S
H779 C809 0.949 . S
C780 C781 1.376 . S
C780 C785 1.386 1_545 S
C780 C786 1.483 . S
C781 H762 0.949 . S
C781 C780 1.376 . S
C781 C782 1.397 . S
C782 H763 0.950 . S
C782 C781 1.397 . S
C782 C783 1.391 . S
C783 C782 1.391 . S
C783 C784 1.405 1_545 S
C784 H764 0.950 . S
C784 C783 1.405 1_565 S
C784 C785 1.367 . S
C785 H765 0.950 . S
C785 C780 1.386 1_565 S
C785 C784 1.367 . S
C786 C780 1.483 . S
C786 C787 1.382 . S
C786 C788 1.403 1_545 S
C787 H766 0.950 . S
C787 C786 1.382 . S
C787 C803 1.411 . S
C788 C786 1.403 1_565 S
C788 C789 1.489 . S
C788 C802 1.411 . S
C789 C788 1.489 . S
C789 C790 1.383 1_565 S
C789 C794 1.382 . S
C790 H767 0.950 . S
C790 C789 1.383 1_545 S
C790 C791 1.395 . S
C791 H768 0.950 . S
C791 C790 1.395 . S
C791 C792 1.288 1_545 S
C792 C791 1.288 1_565 S
C792 C793 1.392 . S
C793 H769 0.951 . S
C793 C792 1.392 . S
C793 C794 1.392 . S
C794 H770 0.949 . S
C794 C789 1.382 . S
C794 C793 1.392 . S
C795 C796 1.376 . S
C795 C800 1.386 1_565 S
C795 C801 1.483 . S
C796 H771 0.949 . S
C796 C795 1.376 . S
C796 C797 1.397 . S
C797 H772 0.950 . S
C797 C796 1.397 . S
C797 C798 1.391 . S
C798 C797 1.391 . S
C798 C799 1.405 1_565 S
C799 H773 0.950 . S
C799 C798 1.405 1_545 S
C799 C800 1.367 . S
C800 H774 0.950 . S
C800 C795 1.386 1_545 S
C800 C799 1.367 . S
C801 C795 1.483 . S
C801 C802 1.382 . S
C801 C803 1.403 1_565 S
C802 H775 0.950 . S
C802 C788 1.411 . S
C802 C801 1.382 . S
C803 C787 1.411 . S
C803 C801 1.403 1_545 S
C803 C804 1.489 . S
C804 C803 1.489 . S
C804 C805 1.383 1_545 S
C804 C809 1.382 . S
C805 H776 0.950 . S
C805 C804 1.383 1_565 S
C805 C806 1.395 . S
C806 H777 0.950 . S
C806 C805 1.395 . S
C806 C807 1.288 1_565 S
C807 C806 1.288 1_545 S
C807 C808 1.392 . S
C808 H778 0.951 . S
C808 C807 1.392 . S
C808 C809 1.392 . S
C809 H779 0.949 . S
C809 C804 1.382 . S
C809 C808 1.392 . S
H810 C829 0.949 . S
H811 C830 0.950 . S
H812 C832 0.950 . S
H813 C833 0.950 . S
H814 C835 0.950 . S
H815 C838 0.950 . S
H816 C839 0.950 . S
H817 C841 0.951 . S
H818 C842 0.949 . S
H819 C844 0.949 . S
H820 C845 0.950 . S
H821 C847 0.950 . S
H822 C848 0.950 . S
H823 C850 0.950 . S
H824 C853 0.950 . S
H825 C854 0.950 . S
H826 C856 0.951 . S
H827 C857 0.949 . S
C828 C829 1.400 . S
C828 C833 1.376 1_545 S
C828 C834 1.469 . S
C829 H810 0.949 . S
C829 C828 1.400 . S
C829 C830 1.397 . S
C830 H811 0.950 . S
C830 C829 1.397 . S
C830 C831 1.391 1_545 S
C831 C830 1.391 1_565 S
C831 C832 1.405 . S
C832 H812 0.950 . S
C832 C831 1.405 . S
C832 C833 1.367 . S
C833 H813 0.950 . S
C833 C828 1.376 1_565 S
C833 C832 1.367 . S
C834 C828 1.469 . S
C834 C835 1.382 . S
C834 C836 1.402 1_545 S
C835 H814 0.950 . S
C835 C834 1.382 . S
C835 C851 1.439 . S
C836 C834 1.402 1_565 S
C836 C837 1.476 . S
C836 C850 1.431 . S
C837 C836 1.476 . S
C837 C838 1.371 1_565 S
C837 C842 1.387 . S
C838 H815 0.950 . S
C838 C837 1.371 1_545 S
C838 C839 1.395 . S
C839 H816 0.950 . S
C839 C838 1.395 . S
C839 C840 1.288 . S
C840 C839 1.288 . S
C840 C841 1.392 1_545 S
C841 H817 0.951 . S
C841 C840 1.392 1_565 S
C841 C842 1.392 . S
C842 H818 0.949 . S
C842 C837 1.387 . S
C842 C841 1.392 . S
C843 C844 1.390 . S
C843 C848 1.380 1_565 S
C843 C849 1.500 . S
C844 H819 0.949 . S
C844 C843 1.390 . S
C844 C845 1.397 . S
C845 H820 0.950 . S
C845 C844 1.397 . S
C845 C846 1.391 1_565 S
C846 C845 1.391 1_545 S
C846 C847 1.405 . S
C847 H821 0.950 . S
C847 C846 1.405 . S
C847 C848 1.367 . S
C848 H822 0.950 . S
C848 C843 1.380 1_545 S
C848 C847 1.367 . S
C849 C843 1.500 . S
C849 C850 1.356 . S
C849 C851 1.402 1_565 S
C850 H823 0.950 . S
C850 C836 1.431 . S
C850 C849 1.356 . S
C851 C835 1.439 . S
C851 C849 1.402 1_545 S
C851 C852 1.476 . S
C852 C851 1.476 . S
C852 C853 1.358 1_545 S
C852 C857 1.394 . S
C853 H824 0.950 . S
C853 C852 1.358 1_565 S
C853 C854 1.395 . S
C854 H825 0.950 . S
C854 C853 1.395 . S
C854 C855 1.288 . S
C855 C854 1.288 . S
C855 C856 1.392 1_565 S
C856 H826 0.951 . S
C856 C855 1.392 1_545 S
C856 C857 1.392 . S
C857 H827 0.949 . S
C857 C852 1.394 . S
C857 C856 1.392 . S
H858 C877 0.949 . S
H859 C878 0.950 . S
H860 C880 0.950 . S
H861 C881 0.950 . S
H862 C883 0.950 . S
H863 C886 0.950 . S
H864 C887 0.950 . S
H865 C889 0.951 . S
H866 C890 0.949 . S
H867 C892 0.949 . S
H868 C893 0.950 . S
H869 C895 0.950 . S
H870 C896 0.950 . S
H871 C898 0.950 . S
H872 C901 0.950 . S
H873 C902 0.950 . S
H874 C904 0.951 . S
H875 C905 0.949 . S
C876 C877 1.376 . S
C876 C881 1.386 1_455 S
C876 C882 1.483 . S
C877 H858 0.949 . S
C877 C876 1.376 . S
C877 C878 1.397 . S
C878 H859 0.950 . S
C878 C877 1.397 . S
C878 C879 1.391 . S
C879 C878 1.391 . S
C879 C880 1.405 1_455 S
C880 H860 0.950 . S
C880 C879 1.405 1_655 S
C880 C881 1.367 . S
C881 H861 0.950 . S
C881 C876 1.386 1_655 S
C881 C880 1.367 . S
C882 C876 1.483 . S
C882 C883 1.382 . S
C882 C884 1.403 1_455 S
C883 H862 0.950 . S
C883 C882 1.382 . S
C883 C899 1.411 . S
C884 C882 1.403 1_655 S
C884 C885 1.489 . S
C884 C898 1.411 . S
C885 C884 1.489 . S
C885 C886 1.383 1_655 S
C885 C890 1.382 . S
C886 H863 0.950 . S
C886 C885 1.383 1_455 S
C886 C887 1.395 . S
C887 H864 0.950 . S
C887 C886 1.395 . S
C887 C888 1.288 1_455 S
C888 C887 1.288 1_655 S
C888 C889 1.392 . S
C889 H865 0.951 . S
C889 C888 1.392 . S
C889 C890 1.392 . S
C890 H866 0.949 . S
C890 C885 1.382 . S
C890 C889 1.392 . S
C891 C892 1.376 . S
C891 C896 1.386 1_655 S
C891 C897 1.483 . S
C892 H867 0.949 . S
C892 C891 1.376 . S
C892 C893 1.397 . S
C893 H868 0.950 . S
C893 C892 1.397 . S
C893 C894 1.391 . S
C894 C893 1.391 . S
C894 C895 1.405 1_655 S
C895 H869 0.950 . S
C895 C894 1.405 1_455 S
C895 C896 1.367 . S
C896 H870 0.950 . S
C896 C891 1.386 1_455 S
C896 C895 1.367 . S
C897 C891 1.483 . S
C897 C898 1.382 . S
C897 C899 1.403 1_655 S
C898 H871 0.950 . S
C898 C884 1.411 . S
C898 C897 1.382 . S
C899 C883 1.411 . S
C899 C897 1.403 1_455 S
C899 C900 1.489 . S
C900 C899 1.489 . S
C900 C901 1.383 1_455 S
C900 C905 1.382 . S
C901 H872 0.950 . S
C901 C900 1.383 1_655 S
C901 C902 1.395 . S
C902 H873 0.950 . S
C902 C901 1.395 . S
C902 C903 1.288 1_655 S
C903 C902 1.288 1_455 S
C903 C904 1.392 . S
C904 H874 0.951 . S
C904 C903 1.392 . S
C904 C905 1.392 . S
C905 H875 0.949 . S
C905 C900 1.382 . S
C905 C904 1.392 . S
H906 C925 0.949 . S
H907 C926 0.950 . S
H908 C928 0.950 . S
H909 C929 0.950 . S
H910 C931 0.950 . S
H911 C934 0.950 . S
H912 C935 0.950 . S
H913 C937 0.951 . S
H914 C938 0.949 . S
H915 C940 0.949 . S
H916 C941 0.950 . S
H917 C943 0.950 . S
H918 C944 0.950 . S
H919 C946 0.950 . S
H920 C949 0.950 . S
H921 C950 0.950 . S
H922 C952 0.951 . S
H923 C953 0.949 . S
C924 C925 1.376 . S
C924 C929 1.386 . S
C924 C930 1.483 . S
C925 H906 0.949 . S
C925 C924 1.376 . S
C925 C926 1.397 . S
C926 H907 0.950 . S
C926 C925 1.397 . S
C926 C927 1.391 . S
C927 C926 1.391 . S
C927 C928 1.405 . S
C928 H908 0.950 . S
C928 C927 1.405 . S
C928 C929 1.367 . S
C929 H909 0.950 . S
C929 C924 1.386 . S
C929 C928 1.367 . S
C930 C924 1.483 . S
C930 C931 1.382 . S
C930 C932 1.403 . S
C931 H910 0.950 . S
C931 C930 1.382 . S
C931 C947 1.411 . S
C932 C930 1.403 . S
C932 C933 1.489 . S
C932 C946 1.411 . S
C933 C932 1.489 . S
C933 C934 1.383 . S
C933 C938 1.382 . S
C934 H911 0.950 . S
C934 C933 1.383 . S
C934 C935 1.395 . S
C935 H912 0.950 . S
C935 C934 1.395 . S
C935 C936 1.288 . S
C936 C935 1.288 . S
C936 C937 1.392 . S
C937 H913 0.951 . S
C937 C936 1.392 . S
C937 C938 1.392 . S
C938 H914 0.949 . S
C938 C933 1.382 . S
C938 C937 1.392 . S
C939 C940 1.376 . S
C939 C944 1.386 . S
C939 C945 1.483 . S
C940 H915 0.949 . S
C940 C939 1.376 . S
C940 C941 1.397 . S
C941 H916 0.950 . S
C941 C940 1.397 . S
C941 C942 1.391 . S
C942 C941 1.391 . S
C942 C943 1.405 . S
C943 H917 0.950 . S
C943 C942 1.405 . S
C943 C944 1.367 . S
C944 H918 0.950 . S
C944 C939 1.386 . S
C944 C943 1.367 . S
C945 C939 1.483 . S
C945 C946 1.382 . S
C945 C947 1.403 . S
C946 H919 0.950 . S
C946 C932 1.411 . S
C946 C945 1.382 . S
C947 C931 1.411 . S
C947 C945 1.403 . S
C947 C948 1.489 . S
C948 C947 1.489 . S
C948 C949 1.383 . S
C948 C953 1.382 . S
C949 H920 0.950 . S
C949 C948 1.383 . S
C949 C950 1.395 . S
C950 H921 0.950 . S
C950 C949 1.395 . S
C950 C951 1.288 . S
C951 C950 1.288 . S
C951 C952 1.392 . S
C952 H922 0.951 . S
C952 C951 1.392 . S
C952 C953 1.392 . S
C953 H923 0.949 . S
C953 C948 1.382 . S
C953 C952 1.392 . S
H954 C973 0.949 . S
H955 C974 0.950 . S
H956 C976 0.950 . S
H957 C977 0.950 . S
H958 C979 0.950 . S
H959 C982 0.950 . S
H960 C983 0.950 . S
H961 C985 0.951 . S
H962 C986 0.949 . S
H963 C988 0.949 . S
H964 C989 0.950 . S
H965 C991 0.950 . S
H966 C992 0.950 . S
H967 C994 0.950 . S
H968 C997 0.950 . S
H969 C998 0.950 . S
H970 C1000 0.951 . S
H971 C1001 0.949 . S
C972 C973 1.376 . S
C972 C977 1.386 . S
C972 C978 1.483 . S
C973 H954 0.949 . S
C973 C972 1.376 . S
C973 C974 1.397 . S
C974 H955 0.950 . S
C974 C973 1.397 . S
C974 C975 1.391 . S
C975 C974 1.391 . S
C975 C976 1.405 . S
C976 H956 0.950 . S
C976 C975 1.405 . S
C976 C977 1.367 . S
C977 H957 0.950 . S
C977 C972 1.386 . S
C977 C976 1.367 . S
C978 C972 1.483 . S
C978 C979 1.382 . S
C978 C980 1.403 . S
C979 H958 0.950 . S
C979 C978 1.382 . S
C979 C995 1.411 . S
C980 C978 1.403 . S
C980 C981 1.489 . S
C980 C994 1.411 . S
C981 C980 1.489 . S
C981 C982 1.383 . S
C981 C986 1.382 . S
C982 H959 0.950 . S
C982 C981 1.383 . S
C982 C983 1.395 . S
C983 H960 0.950 . S
C983 C982 1.395 . S
C983 C984 1.288 . S
C984 C983 1.288 . S
C984 C985 1.392 . S
C985 H961 0.951 . S
C985 C984 1.392 . S
C985 C986 1.392 . S
C986 H962 0.949 . S
C986 C981 1.382 . S
C986 C985 1.392 . S
C987 C988 1.376 . S
C987 C992 1.386 . S
C987 C993 1.483 . S
C988 H963 0.949 . S
C988 C987 1.376 . S
C988 C989 1.397 . S
C989 H964 0.950 . S
C989 C988 1.397 . S
C989 C990 1.391 . S
C990 C989 1.391 . S
C990 C991 1.405 . S
C991 H965 0.950 . S
C991 C990 1.405 . S
C991 C992 1.367 . S
C992 H966 0.950 . S
C992 C987 1.386 . S
C992 C991 1.367 . S
C993 C987 1.483 . S
C993 C994 1.382 . S
C993 C995 1.403 . S
C994 H967 0.950 . S
C994 C980 1.411 . S
C994 C993 1.382 . S
C995 C979 1.411 . S
C995 C993 1.403 . S
C995 C996 1.489 . S
C996 C995 1.489 . S
C996 C997 1.383 . S
C996 C1001 1.382 . S
C997 H968 0.950 . S
C997 C996 1.383 . S
C997 C998 1.395 . S
C998 H969 0.950 . S
C998 C997 1.395 . S
C998 C999 1.288 . S
C999 C998 1.288 . S
C999 C1000 1.392 . S
C1000 H970 0.951 . S
C1000 C999 1.392 . S
C1000 C1001 1.392 . S
C1001 H971 0.949 . S
C1001 C996 1.382 . S
C1001 C1000 1.392 . S
H1002 C1021 0.949 . S
H1003 C1022 0.950 . S
H1004 C1024 0.950 . S
H1005 C1025 0.950 . S
H1006 C1027 0.950 . S
H1007 C1030 0.950 . S
H1008 C1031 0.950 . S
H1009 C1033 0.951 . S
H1010 C1034 0.949 . S
H1011 C1036 0.949 . S
H1012 C1037 0.950 . S
H1013 C1039 0.950 . S
H1014 C1040 0.950 . S
H1015 C1042 0.950 . S
H1016 C1045 0.950 . S
H1017 C1046 0.950 . S
H1018 C1048 0.951 . S
H1019 C1049 0.949 . S
C1020 C1021 1.376 . S
C1020 C1025 1.386 . S
C1020 C1026 1.483 . S
C1021 H1002 0.949 . S
C1021 C1020 1.376 . S
C1021 C1022 1.397 . S
C1022 H1003 0.950 . S
C1022 C1021 1.397 . S
C1022 C1023 1.391 . S
C1023 C1022 1.391 . S
C1023 C1024 1.405 . S
C1024 H1004 0.950 . S
C1024 C1023 1.405 . S
C1024 C1025 1.367 . S
C1025 H1005 0.950 . S
C1025 C1020 1.386 . S
C1025 C1024 1.367 . S
C1026 C1020 1.483 . S
C1026 C1027 1.382 . S
C1026 C1028 1.403 . S
C1027 H1006 0.950 . S
C1027 C1026 1.382 . S
C1027 C1043 1.411 . S
C1028 C1026 1.403 . S
C1028 C1029 1.489 . S
C1028 C1042 1.411 . S
C1029 C1028 1.489 . S
C1029 C1030 1.383 . S
C1029 C1034 1.382 . S
C1030 H1007 0.950 . S
C1030 C1029 1.383 . S
C1030 C1031 1.395 . S
C1031 H1008 0.950 . S
C1031 C1030 1.395 . S
C1031 C1032 1.288 . S
C1032 C1031 1.288 . S
C1032 C1033 1.392 . S
C1033 H1009 0.951 . S
C1033 C1032 1.392 . S
C1033 C1034 1.392 . S
C1034 H1010 0.949 . S
C1034 C1029 1.382 . S
C1034 C1033 1.392 . S
C1035 C1036 1.376 . S
C1035 C1040 1.386 . S
C1035 C1041 1.483 . S
C1036 H1011 0.949 . S
C1036 C1035 1.376 . S
C1036 C1037 1.397 . S
C1037 H1012 0.950 . S
C1037 C1036 1.397 . S
C1037 C1038 1.391 . S
C1038 C1037 1.391 . S
C1038 C1039 1.405 . S
C1039 H1013 0.950 . S
C1039 C1038 1.405 . S
C1039 C1040 1.367 . S
C1040 H1014 0.950 . S
C1040 C1035 1.386 . S
C1040 C1039 1.367 . S
C1041 C1035 1.483 . S
C1041 C1042 1.382 . S
C1041 C1043 1.403 . S
C1042 H1015 0.950 . S
C1042 C1028 1.411 . S
C1042 C1041 1.382 . S
C1043 C1027 1.411 . S
C1043 C1041 1.403 . S
C1043 C1044 1.489 . S
C1044 C1043 1.489 . S
C1044 C1045 1.383 . S
C1044 C1049 1.382 . S
C1045 H1016 0.950 . S
C1045 C1044 1.383 . S
C1045 C1046 1.395 . S
C1046 H1017 0.950 . S
C1046 C1045 1.395 . S
C1046 C1047 1.288 . S
C1047 C1046 1.288 . S
C1047 C1048 1.392 . S
C1048 H1018 0.951 . S
C1048 C1047 1.392 . S
C1048 C1049 1.392 . S
C1049 H1019 0.949 . S
C1049 C1044 1.382 . S
C1049 C1048 1.392 . S
H1050 C1069 0.949 . S
H1051 C1070 0.950 . S
H1052 C1072 0.950 . S
H1053 C1073 0.950 . S
H1054 C1075 0.950 . S
H1055 C1078 0.950 . S
H1056 C1079 0.950 . S
H1057 C1081 0.951 . S
H1058 C1082 0.949 . S
H1059 C1084 0.949 . S
H1060 C1085 0.950 . S
H1061 C1087 0.950 . S
H1062 C1088 0.950 . S
H1063 C1090 0.950 . S
H1064 C1093 0.950 . S
H1065 C1094 0.950 . S
H1066 C1096 0.951 . S
H1067 C1097 0.949 . S
C1068 C1069 1.376 . S
C1068 C1073 1.386 . S
C1068 C1074 1.483 . S
C1069 H1050 0.949 . S
C1069 C1068 1.376 . S
C1069 C1070 1.397 . S
C1070 H1051 0.950 . S
C1070 C1069 1.397 . S
C1070 C1071 1.391 . S
C1071 C1070 1.391 . S
C1071 C1072 1.405 . S
C1072 H1052 0.950 . S
C1072 C1071 1.405 . S
C1072 C1073 1.367 . S
C1073 H1053 0.950 . S
C1073 C1068 1.386 . S
C1073 C1072 1.367 . S
C1074 C1068 1.483 . S
C1074 C1075 1.382 . S
C1074 C1076 1.403 . S
C1075 H1054 0.950 . S
C1075 C1074 1.382 . S
C1075 C1091 1.411 . S
C1076 C1074 1.403 . S
C1076 C1077 1.489 . S
C1076 C1090 1.411 . S
C1077 C1076 1.489 . S
C1077 C1078 1.383 . S
C1077 C1082 1.382 . S
C1078 H1055 0.950 . S
C1078 C1077 1.383 . S
C1078 C1079 1.395 . S
C1079 H1056 0.950 . S
C1079 C1078 1.395 . S
C1079 C1080 1.288 . S
C1080 C1079 1.288 . S
C1080 C1081 1.392 . S
C1081 H1057 0.951 . S
C1081 C1080 1.392 . S
C1081 C1082 1.392 . S
C1082 H1058 0.949 . S
C1082 C1077 1.382 . S
C1082 C1081 1.392 . S
C1083 C1084 1.376 . S
C1083 C1088 1.386 . S
C1083 C1089 1.483 . S
C1084 H1059 0.949 . S
C1084 C1083 1.376 . S
C1084 C1085 1.397 . S
C1085 H1060 0.950 . S
C1085 C1084 1.397 . S
C1085 C1086 1.391 . S
C1086 C1085 1.391 . S
C1086 C1087 1.405 . S
C1087 H1061 0.950 . S
C1087 C1086 1.405 . S
C1087 C1088 1.367 . S
C1088 H1062 0.950 . S
C1088 C1083 1.386 . S
C1088 C1087 1.367 . S
C1089 C1083 1.483 . S
C1089 C1090 1.382 . S
C1089 C1091 1.403 . S
C1090 H1063 0.950 . S
C1090 C1076 1.411 . S
C1090 C1089 1.382 . S
C1091 C1075 1.411 . S
C1091 C1089 1.403 . S
C1091 C1092 1.489 . S
C1092 C1091 1.489 . S
C1092 C1093 1.383 . S
C1092 C1097 1.382 . S
C1093 H1064 0.950 . S
C1093 C1092 1.383 . S
C1093 C1094 1.395 . S
C1094 H1065 0.950 . S
C1094 C1093 1.395 . S
C1094 C1095 1.288 . S
C1095 C1094 1.288 . S
C1095 C1096 1.392 . S
C1096 H1066 0.951 . S
C1096 C1095 1.392 . S
C1096 C1097 1.392 . S
C1097 H1067 0.949 . S
C1097 C1092 1.382 . S
C1097 C1096 1.392 . S
C1098 C1099 1.363 1_455 S
C1098 C1104 1.379 . S
C1098 N1106 1.356 . S
C1099 C1098 1.363 1_655 S
C1099 C1105 1.363 . S
C1100 C1101 1.363 . S
C1100 C1105 1.379 . S
C1100 N1107 1.356 . S
C1101 C1100 1.363 . S
C1101 C1104 1.363 1_655 S
N1102 C1104 1.356 . S
N1102 H1114 0.984 . S
N1102 H1115 0.985 . S
N1103 C1105 1.356 . S
N1103 H1108 0.984 . S
N1103 H1109 0.985 . S
C1104 C1098 1.379 . S
C1104 C1101 1.363 1_455 S
C1104 N1102 1.356 . S
C1105 C1099 1.363 . S
C1105 C1100 1.379 . S
C1105 N1103 1.356 . S
N1106 C1098 1.356 . S
N1106 H1112 0.984 . S
N1106 H1113 0.984 . S
N1107 C1100 1.356 . S
N1107 H1110 0.984 . S
N1107 H1111 0.985 . S
H1108 N1103 0.984 . S
H1109 N1103 0.985 . S
H1110 N1107 0.984 . S
H1111 N1107 0.985 . S
H1112 N1106 0.984 . S
H1113 N1106 0.984 . S
H1114 N1102 0.984 . S
H1115 N1102 0.985 . S
C1116 C1117 1.363 . S
C1116 C1122 1.379 . S
C1116 N1124 1.356 . S
C1117 C1116 1.363 . S
C1117 C1123 1.363 . S
C1118 C1119 1.363 . S
C1118 C1123 1.379 . S
C1118 N1125 1.356 . S
C1119 C1118 1.363 . S
C1119 C1122 1.363 . S
N1120 C1122 1.356 . S
N1120 H1132 0.984 . S
N1120 H1133 0.985 . S
N1121 C1123 1.356 . S
N1121 H1126 0.984 . S
N1121 H1127 0.985 . S
C1122 C1116 1.379 . S
C1122 C1119 1.363 . S
C1122 N1120 1.356 . S
C1123 C1117 1.363 . S
C1123 C1118 1.379 . S
C1123 N1121 1.356 . S
N1124 C1116 1.356 . S
N1124 H1130 0.984 . S
N1124 H1131 0.984 . S
N1125 C1118 1.356 . S
N1125 H1128 0.984 . S
N1125 H1129 0.985 . S
H1126 N1121 0.984 . S
H1127 N1121 0.985 . S
H1128 N1125 0.984 . S
H1129 N1125 0.985 . S
H1130 N1124 0.984 . S
H1131 N1124 0.984 . S
H1132 N1120 0.984 . S
H1133 N1120 0.985 . S
C1134 C1135 1.363 . S
C1134 C1140 1.379 . S
C1134 N1142 1.356 . S
C1135 C1134 1.363 . S
C1135 C1141 1.392 . S
C1136 C1137 1.363 1_565 S
C1136 C1141 1.350 1_565 S
C1136 N1143 1.356 . S
C1137 C1136 1.363 1_545 S
C1137 C1140 1.363 . S
N1138 C1140 1.356 . S
N1138 H1150 0.984 . S
N1138 H1151 0.985 . S
N1139 C1141 1.369 1_565 S
N1139 H1144 1.003 . S
N1139 H1145 0.985 . S
C1140 C1134 1.379 . S
C1140 C1137 1.363 . S
C1140 N1138 1.356 . S
C1141 C1135 1.392 . S
C1141 C1136 1.350 1_545 S
C1141 N1139 1.369 1_545 S
N1142 C1134 1.356 . S
N1142 H1148 0.984 . S
N1142 H1149 0.984 . S
N1143 C1136 1.356 . S
N1143 H1146 0.984 . S
N1143 H1147 0.985 . S
H1144 N1139 1.003 . S
H1145 N1139 0.985 . S
H1146 N1143 0.984 . S
H1147 N1143 0.985 . S
H1148 N1142 0.984 . S
H1149 N1142 0.984 . S
H1150 N1138 0.984 . S
H1151 N1138 0.985 . S
C1152 C1153 1.363 . S
C1152 C1158 1.379 . S
C1152 N1160 1.356 . S
C1153 C1152 1.363 . S
C1153 C1159 1.363 1_565 S
C1154 C1155 1.363 1_545 S
C1154 C1159 1.379 . S
C1154 N1161 1.356 . S
C1155 C1154 1.363 1_565 S
C1155 C1158 1.363 . S
N1156 C1158 1.356 . S
N1156 H1168 0.984 . S
N1156 H1169 0.985 . S
N1157 C1159 1.356 . S
N1157 H1162 0.984 . S
N1157 H1163 0.985 . S
C1158 C1152 1.379 . S
C1158 C1155 1.363 . S
C1158 N1156 1.356 . S
C1159 C1153 1.363 1_545 S
C1159 C1154 1.379 . S
C1159 N1157 1.356 . S
N1160 C1152 1.356 . S
N1160 H1166 0.984 . S
N1160 H1167 0.984 . S
N1161 C1154 1.356 . S
N1161 H1164 0.984 . S
N1161 H1165 0.985 . S
H1162 N1157 0.984 . S
H1163 N1157 0.985 . S
H1164 N1161 0.984 . S
H1165 N1161 0.985 . S
H1166 N1160 0.984 . S
H1167 N1160 0.984 . S
H1168 N1156 0.984 . S
H1169 N1156 0.985 . S
C1170 C1171 1.363 . S
C1170 C1176 1.379 . S
C1170 N1178 1.356 . S
C1171 C1170 1.363 . S
C1171 C1177 1.363 . S
C1172 C1173 1.363 . S
C1172 C1177 1.379 . S
C1172 N1179 1.356 . S
C1173 C1172 1.363 . S
C1173 C1176 1.363 . S
N1174 C1176 1.356 . S
N1174 H1186 0.984 . S
N1174 H1187 0.985 . S
N1175 C1177 1.356 . S
N1175 H1180 0.984 . S
N1175 H1181 0.985 . S
C1176 C1170 1.379 . S
C1176 C1173 1.363 . S
C1176 N1174 1.356 . S
C1177 C1171 1.363 . S
C1177 C1172 1.379 . S
C1177 N1175 1.356 . S
N1178 C1170 1.356 . S
N1178 H1184 0.984 . S
N1178 H1185 0.984 . S
N1179 C1172 1.356 . S
N1179 H1182 0.984 . S
N1179 H1183 0.985 . S
H1180 N1175 0.984 . S
H1181 N1175 0.985 . S
H1182 N1179 0.984 . S
H1183 N1179 0.985 . S
H1184 N1178 0.984 . S
H1185 N1178 0.984 . S
H1186 N1174 0.984 . S
H1187 N1174 0.985 . S
C1188 C1189 1.363 . S
C1188 C1194 1.379 . S
C1188 N1196 1.356 . S
C1189 C1188 1.363 . S
C1189 C1195 1.363 . S
C1190 C1191 1.363 . S
C1190 C1195 1.379 . S
C1190 N1197 1.356 . S
C1191 C1190 1.363 . S
C1191 C1194 1.363 . S
N1192 C1194 1.356 . S
N1192 H1204 0.984 . S
N1192 H1205 0.985 . S
N1193 C1195 1.356 . S
N1193 H1198 0.984 . S
N1193 H1199 0.985 . S
C1194 C1188 1.379 . S
C1194 C1191 1.363 . S
C1194 N1192 1.356 . S
C1195 C1189 1.363 . S
C1195 C1190 1.379 . S
C1195 N1193 1.356 . S
N1196 C1188 1.356 . S
N1196 H1202 0.984 . S
N1196 H1203 0.984 . S
N1197 C1190 1.356 . S
N1197 H1200 0.984 . S
N1197 H1201 0.985 . S
H1198 N1193 0.984 . S
H1199 N1193 0.985 . S
H1200 N1197 0.984 . S
H1201 N1197 0.985 . S
H1202 N1196 0.984 . S
H1203 N1196 0.984 . S
H1204 N1192 0.984 . S
H1205 N1192 0.985 . S
C1206 C1207 1.363 . S
C1206 C1212 1.379 . S
C1206 N1214 1.356 . S
C1207 C1206 1.363 . S
C1207 C1213 1.363 1_455 S
C1208 C1209 1.363 1_655 S
C1208 C1213 1.379 . S
C1208 N1215 1.356 . S
C1209 C1208 1.363 1_455 S
C1209 C1212 1.363 . S
N1210 C1212 1.356 . S
N1210 H1222 0.984 . S
N1210 H1223 0.985 . S
N1211 C1213 1.356 . S
N1211 H1216 0.984 . S
N1211 H1217 0.985 . S
C1212 C1206 1.379 . S
C1212 C1209 1.363 . S
C1212 N1210 1.356 . S
C1213 C1207 1.363 1_655 S
C1213 C1208 1.379 . S
C1213 N1211 1.356 . S
N1214 C1206 1.356 . S
N1214 H1220 0.984 . S
N1214 H1221 0.984 . S
N1215 C1208 1.356 . S
N1215 H1218 0.984 . S
N1215 H1219 0.985 . S
H1216 N1211 0.984 . S
H1217 N1211 0.985 . S
H1218 N1215 0.984 . S
H1219 N1215 0.985 . S
H1220 N1214 0.984 . S
H1221 N1214 0.984 . S
H1222 N1210 0.984 . S
H1223 N1210 0.985 . S
C1224 C1225 1.363 . S
C1224 C1230 1.379 . S
C1224 N1232 1.356 . S
C1225 C1224 1.363 . S
C1225 C1231 1.363 . S
C1226 C1227 1.363 . S
C1226 C1231 1.379 . S
C1226 N1233 1.356 . S
C1227 C1226 1.363 . S
C1227 C1230 1.363 . S
N1228 C1230 1.356 . S
N1228 H1240 0.984 . S
N1228 H1241 0.985 . S
N1229 C1231 1.356 . S
N1229 H1234 0.984 . S
N1229 H1235 0.985 . S
C1230 C1224 1.379 . S
C1230 C1227 1.363 . S
C1230 N1228 1.356 . S
C1231 C1225 1.363 . S
C1231 C1226 1.379 . S
C1231 N1229 1.356 . S
N1232 C1224 1.356 . S
N1232 H1238 0.984 . S
N1232 H1239 0.984 . S
N1233 C1226 1.356 . S
N1233 H1236 0.984 . S
N1233 H1237 0.985 . S
H1234 N1229 0.984 . S
H1235 N1229 0.985 . S
H1236 N1233 0.984 . S
H1237 N1233 0.985 . S
H1238 N1232 0.984 . S
H1239 N1232 0.984 . S
H1240 N1228 0.984 . S
H1241 N1228 0.985 . S
C1242 C1243 1.364 1_545 S
C1242 C1248 1.378 . S
C1242 N1250 1.356 . S
C1243 C1242 1.364 1_565 S
C1243 C1249 1.363 . S
C1244 C1245 1.363 . S
C1244 C1249 1.379 . S
C1244 N1251 1.356 . S
C1245 C1244 1.363 . S
C1245 C1248 1.363 1_565 S
N1246 C1248 1.356 . S
N1246 H1258 0.984 . S
N1246 H1259 0.985 . S
N1247 C1249 1.356 . S
N1247 H1252 0.984 . S
N1247 H1253 0.985 . S
C1248 C1242 1.378 . S
C1248 C1245 1.363 1_545 S
C1248 N1246 1.356 . S
C1249 C1243 1.363 . S
C1249 C1244 1.379 . S
C1249 N1247 1.356 . S
N1250 C1242 1.356 . S
N1250 H1256 0.984 . S
N1250 H1257 0.984 . S
N1251 C1244 1.356 . S
N1251 H1254 0.984 . S
N1251 H1255 0.985 . S
H1252 N1247 0.984 . S
H1253 N1247 0.985 . S
H1254 N1251 0.984 . S
H1255 N1251 0.985 . S
H1256 N1250 0.984 . S
H1257 N1250 0.984 . S
H1258 N1246 0.984 . S
H1259 N1246 0.985 . S
C1260 C1261 1.363 . S
C1260 C1266 1.379 . S
C1260 N1268 1.356 . S
C1261 C1260 1.363 . S
C1261 C1267 1.363 1_545 S
C1262 C1263 1.363 1_565 S
C1262 C1267 1.379 . S
C1262 N1269 1.356 . S
C1263 C1262 1.363 1_545 S
C1263 C1266 1.363 . S
N1264 C1266 1.356 . S
N1264 H1276 0.984 . S
N1264 H1277 0.985 . S
N1265 C1267 1.356 . S
N1265 H1270 0.984 . S
N1265 H1271 0.985 . S
C1266 C1260 1.379 . S
C1266 C1263 1.363 . S
C1266 N1264 1.356 . S
C1267 C1261 1.363 1_565 S
C1267 C1262 1.379 . S
C1267 N1265 1.356 . S
N1268 C1260 1.356 . S
N1268 H1274 0.984 . S
N1268 H1275 0.984 . S
N1269 C1262 1.356 . S
N1269 H1272 0.984 . S
N1269 H1273 0.985 . S
H1270 N1265 0.984 . S
H1271 N1265 0.985 . S
H1272 N1269 0.984 . S
H1273 N1269 0.985 . S
H1274 N1268 0.984 . S
H1275 N1268 0.984 . S
H1276 N1264 0.984 . S
H1277 N1264 0.985 . S
C1278 C1279 1.363 1_455 S
C1278 C1284 1.379 . S
C1278 N1286 1.356 . S
C1279 C1278 1.363 1_655 S
C1279 C1285 1.363 . S
C1280 C1281 1.363 . S
C1280 C1285 1.379 . S
C1280 N1287 1.356 . S
C1281 C1280 1.363 . S
C1281 C1284 1.363 1_655 S
N1282 C1284 1.356 . S
N1282 H1294 0.984 . S
N1282 H1295 0.985 . S
N1283 C1285 1.356 . S
N1283 H1288 0.984 . S
N1283 H1289 0.985 . S
C1284 C1278 1.379 . S
C1284 C1281 1.363 1_455 S
C1284 N1282 1.356 . S
C1285 C1279 1.363 . S
C1285 C1280 1.379 . S
C1285 N1283 1.356 . S
N1286 C1278 1.356 . S
N1286 H1292 0.984 . S
N1286 H1293 0.984 . S
N1287 C1280 1.356 . S
N1287 H1290 0.984 . S
N1287 H1291 0.985 . S
H1288 N1283 0.984 . S
H1289 N1283 0.985 . S
H1290 N1287 0.984 . S
H1291 N1287 0.985 . S
H1292 N1286 0.984 . S
H1293 N1286 0.984 . S
H1294 N1282 0.984 . S
H1295 N1282 0.985 . S
C1296 C1297 1.363 . S
C1296 C1302 1.379 . S
C1296 N1304 1.356 . S
C1297 C1296 1.363 . S
C1297 C1303 1.363 . S
C1298 C1299 1.363 . S
C1298 C1303 1.379 . S
C1298 N1305 1.356 . S
C1299 C1298 1.363 . S
C1299 C1302 1.363 . S
N1300 C1302 1.356 . S
N1300 H1312 0.984 . S
N1300 H1313 0.985 . S
N1301 C1303 1.356 . S
N1301 H1306 0.984 . S
N1301 H1307 0.985 . S
C1302 C1296 1.379 . S
C1302 C1299 1.363 . S
C1302 N1300 1.356 . S
C1303 C1297 1.363 . S
C1303 C1298 1.379 . S
C1303 N1301 1.356 . S
N1304 C1296 1.356 . S
N1304 H1310 0.984 . S
N1304 H1311 0.984 . S
N1305 C1298 1.356 . S
N1305 H1308 0.984 . S
N1305 H1309 0.985 . S
H1306 N1301 0.984 . S
H1307 N1301 0.985 . S
H1308 N1305 0.984 . S
H1309 N1305 0.985 . S
H1310 N1304 0.984 . S
H1311 N1304 0.984 . S
H1312 N1300 0.984 . S
H1313 N1300 0.985 . S
C1314 C1315 1.363 . S
C1314 C1320 1.379 . S
C1314 N1322 1.356 . S
C1315 C1314 1.363 . S
C1315 C1321 1.363 . S
C1316 C1317 1.363 . S
C1316 C1321 1.379 . S
C1316 N1323 1.356 . S
C1317 C1316 1.363 . S
C1317 C1320 1.363 . S
N1318 C1320 1.356 . S
N1318 H1330 0.984 . S
N1318 H1331 0.985 . S
N1319 C1321 1.356 . S
N1319 H1324 0.984 . S
N1319 H1325 0.985 . S
C1320 C1314 1.379 . S
C1320 C1317 1.363 . S
C1320 N1318 1.356 . S
C1321 C1315 1.363 . S
C1321 C1316 1.379 . S
C1321 N1319 1.356 . S
N1322 C1314 1.356 . S
N1322 H1328 0.984 . S
N1322 H1329 0.984 . S
N1323 C1316 1.356 . S
N1323 H1326 0.984 . S
N1323 H1327 0.985 . S
H1324 N1319 0.984 . S
H1325 N1319 0.985 . S
H1326 N1323 0.984 . S
H1327 N1323 0.985 . S
H1328 N1322 0.984 . S
H1329 N1322 0.984 . S
H1330 N1318 0.984 . S
H1331 N1318 0.985 . S
C1332 C1333 1.363 . S
C1332 C1338 1.379 . S
C1332 N1340 1.356 . S
C1333 C1332 1.363 . S
C1333 C1339 1.363 . S
C1334 C1335 1.363 . S
C1334 C1339 1.379 . S
C1334 N1341 1.356 . S
C1335 C1334 1.363 . S
C1335 C1338 1.363 . S
N1336 C1338 1.356 . S
N1336 H1348 0.984 . S
N1336 H1349 0.985 . S
N1337 C1339 1.356 . S
N1337 H1342 0.984 . S
N1337 H1343 0.985 . S
C1338 C1332 1.379 . S
C1338 C1335 1.363 . S
C1338 N1336 1.356 . S
C1339 C1333 1.363 . S
C1339 C1334 1.379 . S
C1339 N1337 1.356 . S
N1340 C1332 1.356 . S
N1340 H1346 0.984 . S
N1340 H1347 0.984 . S
N1341 C1334 1.356 . S
N1341 H1344 0.984 . S
N1341 H1345 0.985 . S
H1342 N1337 0.984 . S
H1343 N1337 0.985 . S
H1344 N1341 0.984 . S
H1345 N1341 0.985 . S
H1346 N1340 0.984 . S
H1347 N1340 0.984 . S
H1348 N1336 0.984 . S
H1349 N1336 0.985 . S
C1350 C1351 1.363 . S
C1350 C1356 1.379 . S
C1350 N1358 1.356 . S
C1351 C1350 1.363 . S
C1351 C1357 1.363 . S
C1352 C1353 1.363 . S
C1352 C1357 1.379 . S
C1352 N1359 1.356 . S
C1353 C1352 1.363 . S
C1353 C1356 1.363 . S
N1354 C1356 1.356 . S
N1354 H1366 0.984 . S
N1354 H1367 0.985 . S
N1355 C1357 1.356 . S
N1355 H1360 0.984 . S
N1355 H1361 0.985 . S
C1356 C1350 1.379 . S
C1356 C1353 1.363 . S
C1356 N1354 1.356 . S
C1357 C1351 1.363 . S
C1357 C1352 1.379 . S
C1357 N1355 1.356 . S
N1358 C1350 1.356 . S
N1358 H1364 0.984 . S
N1358 H1365 0.984 . S
N1359 C1352 1.356 . S
N1359 H1362 0.984 . S
N1359 H1363 0.985 . S
H1360 N1355 0.984 . S
H1361 N1355 0.985 . S
H1362 N1359 0.984 . S
H1363 N1359 0.985 . S
H1364 N1358 0.984 . S
H1365 N1358 0.984 . S
H1366 N1354 0.984 . S
H1367 N1354 0.985 . S
C1368 C1369 1.363 . S
C1368 C1374 1.379 . S
C1368 N1376 1.356 . S
C1369 C1368 1.363 . S
C1369 C1375 1.363 . S
C1370 C1371 1.363 . S
C1370 C1375 1.379 . S
C1370 N1377 1.356 . S
C1371 C1370 1.363 . S
C1371 C1374 1.363 . S
N1372 C1374 1.356 . S
N1372 H1384 0.984 . S
N1372 H1385 0.985 . S
N1373 C1375 1.356 . S
N1373 H1378 0.984 . S
N1373 H1379 0.985 . S
C1374 C1368 1.379 . S
C1374 C1371 1.363 . S
C1374 N1372 1.356 . S
C1375 C1369 1.363 . S
C1375 C1370 1.379 . S
C1375 N1373 1.356 . S
N1376 C1368 1.356 . S
N1376 H1382 0.984 . S
N1376 H1383 0.984 . S
N1377 C1370 1.356 . S
N1377 H1380 0.984 . S
N1377 H1381 0.985 . S
H1378 N1373 0.984 . S
H1379 N1373 0.985 . S
H1380 N1377 0.984 . S
H1381 N1377 0.985 . S
H1382 N1376 0.984 . S
H1383 N1376 0.984 . S
H1384 N1372 0.984 . S
H1385 N1372 0.985 . S
C1386 C1387 1.363 . S
C1386 C1392 1.379 . S
C1386 N1394 1.356 . S
C1387 C1386 1.363 . S
C1387 C1393 1.363 . S
C1388 C1389 1.363 . S
C1388 C1393 1.379 . S
C1388 N1395 1.356 . S
C1389 C1388 1.363 . S
C1389 C1392 1.363 . S
N1390 C1392 1.356 . S
N1390 H1402 0.984 . S
N1390 H1403 0.985 . S
N1391 C1393 1.356 . S
N1391 H1396 0.984 . S
N1391 H1397 0.985 . S
C1392 C1386 1.379 . S
C1392 C1389 1.363 . S
C1392 N1390 1.356 . S
C1393 C1387 1.363 . S
C1393 C1388 1.379 . S
C1393 N1391 1.356 . S
N1394 C1386 1.356 . S
N1394 H1400 0.984 . S
N1394 H1401 0.984 . S
N1395 C1388 1.356 . S
N1395 H1398 0.984 . S
N1395 H1399 0.985 . S
H1396 N1391 0.984 . S
H1397 N1391 0.985 . S
H1398 N1395 0.984 . S
H1399 N1395 0.985 . S
H1400 N1394 0.984 . S
H1401 N1394 0.984 . S
H1402 N1390 0.984 . S
H1403 N1390 0.985 . S
C1404 C1405 1.363 . S
C1404 C1410 1.379 . S
C1404 N1412 1.356 . S
C1405 C1404 1.363 . S
C1405 C1411 1.363 . S
C1406 C1407 1.363 . S
C1406 C1411 1.379 . S
C1406 N1413 1.356 . S
C1407 C1406 1.363 . S
C1407 C1410 1.363 . S
N1408 C1410 1.356 . S
N1408 H1420 0.984 . S
N1408 H1421 0.985 . S
N1409 C1411 1.356 . S
N1409 H1414 0.984 . S
N1409 H1415 0.985 1_565 S
C1410 C1404 1.379 . S
C1410 C1407 1.363 . S
C1410 N1408 1.356 . S
C1411 C1405 1.363 . S
C1411 C1406 1.379 . S
C1411 N1409 1.356 . S
N1412 C1404 1.356 . S
N1412 H1418 0.984 . S
N1412 H1419 0.984 . S
N1413 C1406 1.356 . S
N1413 H1416 0.984 . S
N1413 H1417 0.985 . S
H1414 N1409 0.984 . S
H1415 N1409 0.985 1_545 S
H1416 N1413 0.984 . S
H1417 N1413 0.985 . S
H1418 N1412 0.984 . S
H1419 N1412 0.984 . S
H1420 N1408 0.984 . S
H1421 N1408 0.985 . S
C1422 C1423 1.363 . S
C1422 C1428 1.379 . S
C1422 N1430 1.356 . S
C1423 C1422 1.363 . S
C1423 C1429 1.363 . S
C1424 C1425 1.363 . S
C1424 C1429 1.379 . S
C1424 N1431 1.356 . S
C1425 C1424 1.363 . S
C1425 C1428 1.363 . S
N1426 C1428 1.356 . S
N1426 H1438 0.984 . S
N1426 H1439 0.985 . S
N1427 C1429 1.356 . S
N1427 H1432 0.984 . S
N1427 H1433 0.985 . S
C1428 C1422 1.379 . S
C1428 C1425 1.363 . S
C1428 N1426 1.356 . S
C1429 C1423 1.363 . S
C1429 C1424 1.379 . S
C1429 N1427 1.356 . S
N1430 C1422 1.356 . S
N1430 H1436 0.997 . S
N1430 H1437 0.984 . S
N1431 C1424 1.356 . S
N1431 H1434 0.984 . S
N1431 H1435 0.985 . S
H1432 N1427 0.984 . S
H1433 N1427 0.985 . S
H1434 N1431 0.984 . S
H1435 N1431 0.985 . S
H1436 N1430 0.997 . S
H1437 N1430 0.984 . S
H1438 N1426 0.984 . S
H1439 N1426 0.985 . S
C1440 C1441 1.363 . S
C1440 C1446 1.379 . S
C1440 N1448 1.356 . S
C1441 C1440 1.363 . S
C1441 C1447 1.363 . S
C1442 C1443 1.363 . S
C1442 C1447 1.379 . S
C1442 N1449 1.356 . S
C1443 C1442 1.363 . S
C1443 C1446 1.363 . S
N1444 C1446 1.356 . S
N1444 H1456 0.984 . S
N1444 H1457 0.985 . S
N1445 C1447 1.356 . S
N1445 H1450 0.984 . S
N1445 H1451 0.985 . S
C1446 C1440 1.379 . S
C1446 C1443 1.363 . S
C1446 N1444 1.356 . S
C1447 C1441 1.363 . S
C1447 C1442 1.379 . S
C1447 N1445 1.356 . S
N1448 C1440 1.356 . S
N1448 H1454 0.984 . S
N1448 H1455 0.984 . S
N1449 C1442 1.356 . S
N1449 H1452 0.984 . S
N1449 H1453 0.985 . S
H1450 N1445 0.984 . S
H1451 N1445 0.985 . S
H1452 N1449 0.984 . S
H1453 N1449 0.985 . S
H1454 N1448 0.984 . S
H1455 N1448 0.984 . S
H1456 N1444 0.984 . S
H1457 N1444 0.985 . S
C1458 C1459 1.363 . S
C1458 C1464 1.379 . S
C1458 N1466 1.356 . S
C1459 C1458 1.363 . S
C1459 C1465 1.363 . S
C1460 C1461 1.363 . S
C1460 C1465 1.379 . S
C1460 N1467 1.356 . S
C1461 C1460 1.363 . S
C1461 C1464 1.363 . S
N1462 C1464 1.356 . S
N1462 H1474 0.984 . S
N1462 H1475 0.985 . S
N1463 C1465 1.356 . S
N1463 H1468 0.984 . S
N1463 H1469 0.985 . S
C1464 C1458 1.379 . S
C1464 C1461 1.363 . S
C1464 N1462 1.356 . S
C1465 C1459 1.363 . S
C1465 C1460 1.379 . S
C1465 N1463 1.356 . S
N1466 C1458 1.356 . S
N1466 H1472 0.984 . S
N1466 H1473 0.984 . S
N1467 C1460 1.356 . S
N1467 H1470 0.984 . S
N1467 H1471 0.985 . S
H1468 N1463 0.984 . S
H1469 N1463 0.985 . S
H1470 N1467 0.984 . S
H1471 N1467 0.985 . S
H1472 N1466 0.984 . S
H1473 N1466 0.984 . S
H1474 N1462 0.984 . S
H1475 N1462 0.985 . S
C1476 C1477 1.363 . S
C1476 C1482 1.379 . S
C1476 N1484 1.356 . S
C1477 C1476 1.363 . S
C1477 C1483 1.363 . S
C1478 C1479 1.363 . S
C1478 C1483 1.379 . S
C1478 N1485 1.356 . S
C1479 C1478 1.363 . S
C1479 C1482 1.363 . S
N1480 C1482 1.356 . S
N1480 H1492 0.984 . S
N1480 H1493 0.985 . S
N1481 C1483 1.356 . S
N1481 H1486 0.984 . S
N1481 H1487 0.985 . S
C1482 C1476 1.379 . S
C1482 C1479 1.363 . S
C1482 N1480 1.356 . S
C1483 C1477 1.363 . S
C1483 C1478 1.379 . S
C1483 N1481 1.356 . S
N1484 C1476 1.356 . S
N1484 H1490 0.984 . S
N1484 H1491 0.984 . S
N1485 C1478 1.356 . S
N1485 H1488 0.984 . S
N1485 H1489 0.985 . S
H1486 N1481 0.984 . S
H1487 N1481 0.985 . S
H1488 N1485 0.984 . S
H1489 N1485 0.985 . S
H1490 N1484 0.984 . S
H1491 N1484 0.984 . S
H1492 N1480 0.984 . S
H1493 N1480 0.985 . S
C1494 C1495 1.363 . S
C1494 C1500 1.379 . S
C1494 N1502 1.356 . S
C1495 C1494 1.363 . S
C1495 C1501 1.363 . S
C1496 C1497 1.363 . S
C1496 C1501 1.379 . S
C1496 N1503 1.356 . S
C1497 C1496 1.363 . S
C1497 C1500 1.363 . S
N1498 C1500 1.356 . S
N1498 H1510 0.984 . S
N1498 H1511 0.985 . S
N1499 C1501 1.356 . S
N1499 H1504 0.984 . S
N1499 H1505 0.985 . S
C1500 C1494 1.379 . S
C1500 C1497 1.363 . S
C1500 N1498 1.356 . S
C1501 C1495 1.363 . S
C1501 C1496 1.379 . S
C1501 N1499 1.356 . S
N1502 C1494 1.356 . S
N1502 H1508 0.984 . S
N1502 H1509 0.984 . S
N1503 C1496 1.356 . S
N1503 H1506 0.984 . S
N1503 H1507 0.985 . S
H1504 N1499 0.984 . S
H1505 N1499 0.985 . S
H1506 N1503 0.984 . S
H1507 N1503 0.985 . S
H1508 N1502 0.984 . S
H1509 N1502 0.984 . S
H1510 N1498 0.984 . S
H1511 N1498 0.985 . S
C1512 C1513 1.363 . S
C1512 C1518 1.379 . S
C1512 N1520 1.356 . S
C1513 C1512 1.363 . S
C1513 C1519 1.363 . S
C1514 C1515 1.363 . S
C1514 C1519 1.379 . S
C1514 N1521 1.356 . S
C1515 C1514 1.363 . S
C1515 C1518 1.363 . S
N1516 C1518 1.356 . S
N1516 H1528 0.984 . S
N1516 H1529 0.985 . S
N1517 C1519 1.356 . S
N1517 H1522 0.984 . S
N1517 H1523 0.985 . S
C1518 C1512 1.379 . S
C1518 C1515 1.363 . S
C1518 N1516 1.356 . S
C1519 C1513 1.363 . S
C1519 C1514 1.379 . S
C1519 N1517 1.356 . S
N1520 C1512 1.356 . S
N1520 H1526 0.984 . S
N1520 H1527 0.984 . S
N1521 C1514 1.356 . S
N1521 H1524 0.984 . S
N1521 H1525 0.985 . S
H1522 N1517 0.984 . S
H1523 N1517 0.985 . S
H1524 N1521 0.984 . S
H1525 N1521 0.985 . S
H1526 N1520 0.984 . S
H1527 N1520 0.984 . S
H1528 N1516 0.984 . S
H1529 N1516 0.985 . S
C1530 C1531 1.363 . S
C1530 C1536 1.379 . S
C1530 N1538 1.356 . S
C1531 C1530 1.363 . S
C1531 C1537 1.363 . S
C1532 C1533 1.363 . S
C1532 C1537 1.379 . S
C1532 N1539 1.356 . S
C1533 C1532 1.363 . S
C1533 C1536 1.363 . S
N1534 C1536 1.356 . S
N1534 H1546 0.984 . S
N1534 H1547 0.985 . S
N1535 C1537 1.356 . S
N1535 H1540 0.984 . S
N1535 H1541 0.985 . S
C1536 C1530 1.379 . S
C1536 C1533 1.363 . S
C1536 N1534 1.356 . S
C1537 C1531 1.363 . S
C1537 C1532 1.379 . S
C1537 N1535 1.356 . S
N1538 C1530 1.356 . S
N1538 H1544 0.984 . S
N1538 H1545 0.984 . S
N1539 C1532 1.356 . S
N1539 H1542 0.984 . S
N1539 H1543 0.985 . S
H1540 N1535 0.984 . S
H1541 N1535 0.985 . S
H1542 N1539 0.984 . S
H1543 N1539 0.985 . S
H1544 N1538 0.984 . S
H1545 N1538 0.984 . S
H1546 N1534 0.984 . S
H1547 N1534 0.985 . S
C1548 C1549 1.363 . S
C1548 C1554 1.379 . S
C1548 N1556 1.356 . S
C1549 C1548 1.363 . S
C1549 C1555 1.363 . S
C1550 C1551 1.363 . S
C1550 C1555 1.379 . S
C1550 N1557 1.356 . S
C1551 C1550 1.363 . S
C1551 C1554 1.363 . S
N1552 C1554 1.356 . S
N1552 H1564 0.984 . S
N1552 H1565 0.985 . S
N1553 C1555 1.356 . S
N1553 H1558 0.984 . S
N1553 H1559 0.985 . S
C1554 C1548 1.379 . S
C1554 C1551 1.363 . S
C1554 N1552 1.356 . S
C1555 C1549 1.363 . S
C1555 C1550 1.379 . S
C1555 N1553 1.356 . S
N1556 C1548 1.356 . S
N1556 H1562 0.984 . S
N1556 H1563 0.984 . S
N1557 C1550 1.356 . S
N1557 H1560 0.984 . S
N1557 H1561 0.985 . S
H1558 N1553 0.984 . S
H1559 N1553 0.985 . S
H1560 N1557 0.984 . S
H1561 N1557 0.985 . S
H1562 N1556 0.984 . S
H1563 N1556 0.984 . S
H1564 N1552 0.984 . S
H1565 N1552 0.985 . S
C1566 C1567 1.363 . S
C1566 C1572 1.379 . S
C1566 N1574 1.356 . S
C1567 C1566 1.363 . S
C1567 C1573 1.363 . S
C1568 C1569 1.363 . S
C1568 C1573 1.379 . S
C1568 N1575 1.356 . S
C1569 C1568 1.363 . S
C1569 C1572 1.363 . S
N1570 C1572 1.356 . S
N1570 H1582 0.984 . S
N1570 H1583 0.985 . S
N1571 C1573 1.356 . S
N1571 H1576 0.984 . S
N1571 H1577 0.985 . S
C1572 C1566 1.379 . S
C1572 C1569 1.363 . S
C1572 N1570 1.356 . S
C1573 C1567 1.363 . S
C1573 C1568 1.379 . S
C1573 N1571 1.356 . S
N1574 C1566 1.356 . S
N1574 H1580 0.984 . S
N1574 H1581 0.984 . S
N1575 C1568 1.356 . S
N1575 H1578 0.984 . S
N1575 H1579 0.985 . S
H1576 N1571 0.984 . S
H1577 N1571 0.985 . S
H1578 N1575 0.984 . S
H1579 N1575 0.985 . S
H1580 N1574 0.984 . S
H1581 N1574 0.984 . S
H1582 N1570 0.984 . S
H1583 N1570 0.985 . S
C1584 C1585 1.363 . S
C1584 C1590 1.379 . S
C1584 N1592 1.356 . S
C1585 C1584 1.363 . S
C1585 C1591 1.363 . S
C1586 C1587 1.363 . S
C1586 C1591 1.379 . S
C1586 N1593 1.356 . S
C1587 C1586 1.363 . S
C1587 C1590 1.363 . S
N1588 C1590 1.356 . S
N1588 H1600 0.984 . S
N1588 H1601 0.985 . S
N1589 C1591 1.356 . S
N1589 H1594 0.984 . S
N1589 H1595 0.985 . S
C1590 C1584 1.379 . S
C1590 C1587 1.363 . S
C1590 N1588 1.356 . S
C1591 C1585 1.363 . S
C1591 C1586 1.379 . S
C1591 N1589 1.356 . S
N1592 C1584 1.356 . S
N1592 H1598 0.984 . S
N1592 H1599 0.984 . S
N1593 C1586 1.356 . S
N1593 H1596 0.984 . S
N1593 H1597 0.985 . S
H1594 N1589 0.984 . S
H1595 N1589 0.985 . S
H1596 N1593 0.984 . S
H1597 N1593 0.985 . S
H1598 N1592 0.984 . S
H1599 N1592 0.984 . S
H1600 N1588 0.984 . S
H1601 N1588 0.985 . S
C1602 C1603 1.363 . S
C1602 C1608 1.379 . S
C1602 N1610 1.356 . S
C1603 C1602 1.363 . S
C1603 C1609 1.363 . S
C1604 C1605 1.363 . S
C1604 C1609 1.379 . S
C1604 N1611 1.356 . S
C1605 C1604 1.363 . S
C1605 C1608 1.363 . S
N1606 C1608 1.356 . S
N1606 H1618 0.984 . S
N1606 H1619 0.985 . S
N1607 C1609 1.356 . S
N1607 H1612 0.984 . S
N1607 H1613 0.985 . S
C1608 C1602 1.379 . S
C1608 C1605 1.363 . S
C1608 N1606 1.356 . S
C1609 C1603 1.363 . S
C1609 C1604 1.379 . S
C1609 N1607 1.356 . S
N1610 C1602 1.356 . S
N1610 H1616 0.984 . S
N1610 H1617 0.984 . S
N1611 C1604 1.356 . S
N1611 H1614 0.984 . S
N1611 H1615 0.985 . S
H1612 N1607 0.984 . S
H1613 N1607 0.985 . S
H1614 N1611 0.984 . S
H1615 N1611 0.985 . S
H1616 N1610 0.984 . S
H1617 N1610 0.984 . S
H1618 N1606 0.984 . S
H1619 N1606 0.985 . S
C1620 C1621 1.363 . S
C1620 C1626 1.379 . S
C1620 N1628 1.356 . S
C1621 C1620 1.363 . S
C1621 C1627 1.363 . S
C1622 C1623 1.363 . S
C1622 C1627 1.379 . S
C1622 N1629 1.356 . S
C1623 C1622 1.363 . S
C1623 C1626 1.363 . S
N1624 C1626 1.356 . S
N1624 H1636 0.984 . S
N1624 H1637 0.985 . S
N1625 C1627 1.356 . S
N1625 H1630 0.984 . S
N1625 H1631 0.985 . S
C1626 C1620 1.379 . S
C1626 C1623 1.363 . S
C1626 N1624 1.356 . S
C1627 C1621 1.363 . S
C1627 C1622 1.379 . S
C1627 N1625 1.356 . S
N1628 C1620 1.356 . S
N1628 H1634 0.984 . S
N1628 H1635 0.984 . S
N1629 C1622 1.356 . S
N1629 H1632 0.984 . S
N1629 H1633 0.985 . S
H1630 N1625 0.984 . S
H1631 N1625 0.985 . S
H1632 N1629 0.984 . S
H1633 N1629 0.985 . S
H1634 N1628 0.984 . S
H1635 N1628 0.984 . S
H1636 N1624 0.984 . S
H1637 N1624 0.985 . S
C1638 C1639 1.363 . S
C1638 C1644 1.379 . S
C1638 N1646 1.356 . S
C1639 C1638 1.363 . S
C1639 C1645 1.363 . S
C1640 C1641 1.363 . S
C1640 C1645 1.379 . S
C1640 N1647 1.356 . S
C1641 C1640 1.363 . S
C1641 C1644 1.363 . S
N1642 C1644 1.356 . S
N1642 H1654 0.984 . S
N1642 H1655 0.985 . S
N1643 C1645 1.356 . S
N1643 H1648 0.984 . S
N1643 H1649 0.985 . S
C1644 C1638 1.379 . S
C1644 C1641 1.363 . S
C1644 N1642 1.356 . S
C1645 C1639 1.363 . S
C1645 C1640 1.379 . S
C1645 N1643 1.356 . S
N1646 C1638 1.356 . S
N1646 H1652 0.984 . S
N1646 H1653 0.984 . S
N1647 C1640 1.356 . S
N1647 H1650 0.984 . S
N1647 H1651 0.985 . S
H1648 N1643 0.984 . S
H1649 N1643 0.985 . S
H1650 N1647 0.984 . S
H1651 N1647 0.985 . S
H1652 N1646 0.984 . S
H1653 N1646 0.984 . S
H1654 N1642 0.984 . S
H1655 N1642 0.985 . S
C1656 C1657 1.363 . S
C1656 C1662 1.379 . S
C1656 N1664 1.356 . S
C1657 C1656 1.363 . S
C1657 C1663 1.363 . S
C1658 C1659 1.363 . S
C1658 C1663 1.379 . S
C1658 N1665 1.356 . S
C1659 C1658 1.363 . S
C1659 C1662 1.363 . S
N1660 C1662 1.356 . S
N1660 H1672 0.984 . S
N1660 H1673 0.985 . S
N1661 C1663 1.356 . S
N1661 H1666 0.984 . S
N1661 H1667 0.985 . S
C1662 C1656 1.379 . S
C1662 C1659 1.363 . S
C1662 N1660 1.356 . S
C1663 C1657 1.363 . S
C1663 C1658 1.379 . S
C1663 N1661 1.356 . S
N1664 C1656 1.356 . S
N1664 H1670 0.984 . S
N1664 H1671 0.984 . S
N1665 C1658 1.356 . S
N1665 H1668 0.984 . S
N1665 H1669 0.985 . S
H1666 N1661 0.984 . S
H1667 N1661 0.985 . S
H1668 N1665 0.984 . S
H1669 N1665 0.985 . S
H1670 N1664 0.984 . S
H1671 N1664 0.984 . S
H1672 N1660 0.984 . S
H1673 N1660 0.985 . S
C1674 C1675 1.363 . S
C1674 C1680 1.379 . S
C1674 N1682 1.356 . S
C1675 C1674 1.363 . S
C1675 C1681 1.363 . S
C1676 C1677 1.363 . S
C1676 C1681 1.379 . S
C1676 N1683 1.356 . S
C1677 C1676 1.363 . S
C1677 C1680 1.363 . S
N1678 C1680 1.356 . S
N1678 H1690 0.984 . S
N1678 H1691 0.985 . S
N1679 C1681 1.356 . S
N1679 H1684 0.984 . S
N1679 H1685 0.985 . S
C1680 C1674 1.379 . S
C1680 C1677 1.363 . S
C1680 N1678 1.356 . S
C1681 C1675 1.363 . S
C1681 C1676 1.379 . S
C1681 N1679 1.356 . S
N1682 C1674 1.356 . S
N1682 H1688 0.984 . S
N1682 H1689 0.984 . S
N1683 C1676 1.356 . S
N1683 H1686 0.984 . S
N1683 H1687 0.985 . S
H1684 N1679 0.984 . S
H1685 N1679 0.985 . S
H1686 N1683 0.984 . S
H1687 N1683 0.985 . S
H1688 N1682 0.984 . S
H1689 N1682 0.984 . S
H1690 N1678 0.984 . S
H1691 N1678 0.985 . S
C1692 C1693 1.363 . S
C1692 C1698 1.379 . S
C1692 N1700 1.356 . S
C1693 C1692 1.363 . S
C1693 C1699 1.363 . S
C1694 C1695 1.363 . S
C1694 C1699 1.379 . S
C1694 N1701 1.356 . S
C1695 C1694 1.363 . S
C1695 C1698 1.363 . S
N1696 C1698 1.356 . S
N1696 H1708 0.984 . S
N1696 H1709 0.985 . S
N1697 C1699 1.356 . S
N1697 H1702 0.984 . S
N1697 H1703 0.995 . S
C1698 C1692 1.379 . S
C1698 C1695 1.363 . S
C1698 N1696 1.356 . S
C1699 C1693 1.363 . S
C1699 C1694 1.379 . S
C1699 N1697 1.356 . S
N1700 C1692 1.356 . S
N1700 H1706 0.984 . S
N1700 H1707 0.984 . S
N1701 C1694 1.356 . S
N1701 H1704 0.984 . S
N1701 H1705 0.985 . S
H1702 N1697 0.984 . S
H1703 N1697 0.995 . S
H1704 N1701 0.984 . S
H1705 N1701 0.985 . S
H1706 N1700 0.984 . S
H1707 N1700 0.984 . S
H1708 N1696 0.984 . S
H1709 N1696 0.985 . S
C1710 C1711 1.363 . S
C1710 C1716 1.379 . S
C1710 N1718 1.356 . S
C1711 C1710 1.363 . S
C1711 C1717 1.363 . S
C1712 C1713 1.363 . S
C1712 C1717 1.379 . S
C1712 N1719 1.356 . S
C1713 C1712 1.363 . S
C1713 C1716 1.363 . S
N1714 C1716 1.356 . S
N1714 H1726 0.984 . S
N1714 H1727 0.985 . S
N1715 C1717 1.356 . S
N1715 H1720 0.984 . S
N1715 H1721 0.985 . S
C1716 C1710 1.379 . S
C1716 C1713 1.363 . S
C1716 N1714 1.356 . S
C1717 C1711 1.363 . S
C1717 C1712 1.379 . S
C1717 N1715 1.356 . S
N1718 C1710 1.356 . S
N1718 H1724 0.984 . S
N1718 H1725 0.984 . S
N1719 C1712 1.356 . S
N1719 H1722 0.984 . S
N1719 H1723 0.985 . S
H1720 N1715 0.984 . S
H1721 N1715 0.985 . S
H1722 N1719 0.984 . S
H1723 N1719 0.985 . S
H1724 N1718 0.984 . S
H1725 N1718 0.984 . S
H1726 N1714 0.984 . S
H1727 N1714 0.985 . S
C1728 C1729 1.363 . S
C1728 C1734 1.379 . S
C1728 N1736 1.356 . S
C1729 C1728 1.363 . S
C1729 C1735 1.363 . S
C1730 C1731 1.363 . S
C1730 C1735 1.379 . S
C1730 N1737 1.356 . S
C1731 C1730 1.363 . S
C1731 C1734 1.363 . S
N1732 C1734 1.356 . S
N1732 H1744 0.984 . S
N1732 H1745 0.985 . S
N1733 C1735 1.356 . S
N1733 H1738 0.984 . S
N1733 H1739 0.985 . S
C1734 C1728 1.379 . S
C1734 C1731 1.363 . S
C1734 N1732 1.356 . S
C1735 C1729 1.363 . S
C1735 C1730 1.379 . S
C1735 N1733 1.356 . S
N1736 C1728 1.356 . S
N1736 H1742 0.984 . S
N1736 H1743 0.984 . S
N1737 C1730 1.356 . S
N1737 H1740 0.984 . S
N1737 H1741 0.985 . S
H1738 N1733 0.984 . S
H1739 N1733 0.985 . S
H1740 N1737 0.984 . S
H1741 N1737 0.985 . S
H1742 N1736 0.984 . S
H1743 N1736 0.984 . S
H1744 N1732 0.984 . S
H1745 N1732 0.985 . S
C1746 C1747 1.363 . S
C1746 C1752 1.379 . S
C1746 N1754 1.356 . S
C1747 C1746 1.363 . S
C1747 C1753 1.363 . S
C1748 C1749 1.363 . S
C1748 C1753 1.379 . S
C1748 N1755 1.356 . S
C1749 C1748 1.363 . S
C1749 C1752 1.363 . S
N1750 C1752 1.356 . S
N1750 H1762 0.984 . S
N1750 H1763 0.985 . S
N1751 C1753 1.356 . S
N1751 H1756 0.984 . S
N1751 H1757 0.985 . S
C1752 C1746 1.379 . S
C1752 C1749 1.363 . S
C1752 N1750 1.356 . S
C1753 C1747 1.363 . S
C1753 C1748 1.379 . S
C1753 N1751 1.356 . S
N1754 C1746 1.356 . S
N1754 H1760 0.984 . S
N1754 H1761 0.984 . S
N1755 C1748 1.356 . S
N1755 H1758 0.984 . S
N1755 H1759 0.985 . S
H1756 N1751 0.984 . S
H1757 N1751 0.985 . S
H1758 N1755 0.984 . S
H1759 N1755 0.985 . S
H1760 N1754 0.984 . S
H1761 N1754 0.984 . S
H1762 N1750 0.984 . S
H1763 N1750 0.985 . S
C1764 C1765 1.363 . S
C1764 C1770 1.379 . S
C1764 N1772 1.356 . S
C1765 C1764 1.363 . S
C1765 C1771 1.363 . S
C1766 C1767 1.363 . S
C1766 C1771 1.379 . S
C1766 N1773 1.356 . S
C1767 C1766 1.363 . S
C1767 C1770 1.363 . S
N1768 C1770 1.356 . S
N1768 H1780 0.984 . S
N1768 H1781 0.985 . S
N1769 C1771 1.356 . S
N1769 H1774 0.984 . S
N1769 H1775 0.985 1_554 S
C1770 C1764 1.379 . S
C1770 C1767 1.363 . S
C1770 N1768 1.356 . S
C1771 C1765 1.363 . S
C1771 C1766 1.379 . S
C1771 N1769 1.356 . S
N1772 C1764 1.356 . S
N1772 H1778 0.984 . S
N1772 H1779 0.984 . S
N1773 C1766 1.356 . S
N1773 H1776 0.984 . S
N1773 H1777 0.985 . S
H1774 N1769 0.984 . S
H1775 N1769 0.985 1_556 S
H1776 N1773 0.984 . S
H1777 N1773 0.985 . S
H1778 N1772 0.984 . S
H1779 N1772 0.984 . S
H1780 N1768 0.984 . S
H1781 N1768 0.985 . S
C1782 C1783 1.363 . S
C1782 C1788 1.379 . S
C1782 N1790 1.356 . S
C1783 C1782 1.363 . S
C1783 C1789 1.363 . S
C1784 C1785 1.363 . S
C1784 C1789 1.379 . S
C1784 N1791 1.356 . S
C1785 C1784 1.363 . S
C1785 C1788 1.363 . S
N1786 C1788 1.356 . S
N1786 H1798 0.984 . S
N1786 H1799 0.985 . S
N1787 C1789 1.356 . S
N1787 H1792 0.984 . S
N1787 H1793 0.985 . S
C1788 C1782 1.379 . S
C1788 C1785 1.363 . S
C1788 N1786 1.356 . S
C1789 C1783 1.363 . S
C1789 C1784 1.379 . S
C1789 N1787 1.356 . S
N1790 C1782 1.356 . S
N1790 H1796 0.984 . S
N1790 H1797 0.984 . S
N1791 C1784 1.356 . S
N1791 H1794 0.984 . S
N1791 H1795 0.985 . S
H1792 N1787 0.984 . S
H1793 N1787 0.985 . S
H1794 N1791 0.984 . S
H1795 N1791 0.985 . S
H1796 N1790 0.984 . S
H1797 N1790 0.984 . S
H1798 N1786 0.984 . S
H1799 N1786 0.985 . S
C1800 C1801 1.363 . S
C1800 C1806 1.379 . S
C1800 N1808 1.356 . S
C1801 C1800 1.363 . S
C1801 C1807 1.363 . S
C1802 C1803 1.363 . S
C1802 C1807 1.379 . S
C1802 N1809 1.356 . S
C1803 C1802 1.363 . S
C1803 C1806 1.363 . S
N1804 C1806 1.356 . S
N1804 H1816 0.984 . S
N1804 H1817 0.985 . S
N1805 C1807 1.356 1_554 S
N1805 H1810 0.984 . S
N1805 H1811 0.985 . S
C1806 C1800 1.379 . S
C1806 C1803 1.363 . S
C1806 N1804 1.356 . S
C1807 C1801 1.363 . S
C1807 C1802 1.379 . S
C1807 N1805 1.356 1_556 S
N1808 C1800 1.356 . S
N1808 H1814 0.984 . S
N1808 H1815 0.984 . S
N1809 C1802 1.356 . S
N1809 H1812 0.984 . S
N1809 H1813 0.985 1_556 S
H1810 N1805 0.984 . S
H1811 N1805 0.985 . S
H1812 N1809 0.984 . S
H1813 N1809 0.985 1_554 S
H1814 N1808 0.984 . S
H1815 N1808 0.984 . S
H1816 N1804 0.984 . S
H1817 N1804 0.985 . S
C1818 C1819 1.363 . S
C1818 C1824 1.379 . S
C1818 N1826 1.356 . S
C1819 C1818 1.363 . S
C1819 C1825 1.363 . S
C1820 C1821 1.363 . S
C1820 C1825 1.379 . S
C1820 N1827 1.356 . S
C1821 C1820 1.363 . S
C1821 C1824 1.363 . S
N1822 C1824 1.356 . S
N1822 H1834 0.984 . S
N1822 H1835 0.985 . S
N1823 C1825 1.356 1_554 S
N1823 H1828 0.984 . S
N1823 H1829 0.985 . S
C1824 C1818 1.379 . S
C1824 C1821 1.363 . S
C1824 N1822 1.356 . S
C1825 C1819 1.363 . S
C1825 C1820 1.379 . S
C1825 N1823 1.356 1_556 S
N1826 C1818 1.356 . S
N1826 H1832 0.984 . S
N1826 H1833 0.984 . S
N1827 C1820 1.356 . S
N1827 H1830 0.984 . S
N1827 H1831 0.985 1_556 S
H1828 N1823 0.984 . S
H1829 N1823 0.985 . S
H1830 N1827 0.984 . S
H1831 N1827 0.985 1_554 S
H1832 N1826 0.984 . S
H1833 N1826 0.984 . S
H1834 N1822 0.984 . S
H1835 N1822 0.985 . S
C1836 C1837 1.363 . S
C1836 C1842 1.379 . S
C1836 N1844 1.356 . S
C1837 C1836 1.363 . S
C1837 C1843 1.363 . S
C1838 C1839 1.363 . S
C1838 C1843 1.379 . S
C1838 N1845 1.356 . S
C1839 C1838 1.363 . S
C1839 C1842 1.363 . S
N1840 C1842 1.356 . S
N1840 H1852 0.984 . S
N1840 H1853 0.985 . S
N1841 C1843 1.356 . S
N1841 H1846 0.984 . S
N1841 H1847 0.985 . S
C1842 C1836 1.379 . S
C1842 C1839 1.363 . S
C1842 N1840 1.356 . S
C1843 C1837 1.363 . S
C1843 C1838 1.379 . S
C1843 N1841 1.356 . S
N1844 C1836 1.356 . S
N1844 H1850 0.984 1_556 S
N1844 H1851 0.981 1_556 S
N1845 C1838 1.356 . S
N1845 H1848 0.984 . S
N1845 H1849 0.985 . S
H1846 N1841 0.984 . S
H1847 N1841 0.985 . S
H1848 N1845 0.984 . S
H1849 N1845 0.985 . S
H1850 N1844 0.984 1_554 S
H1851 N1844 0.981 1_554 S
H1852 N1840 0.984 . S
H1853 N1840 0.985 . S
C1854 C1855 1.363 . S
C1854 C1860 1.379 . S
C1854 N1862 1.356 . S
C1855 C1854 1.363 . S
C1855 C1861 1.363 . S
C1856 C1857 1.363 . S
C1856 C1861 1.379 . S
C1856 N1863 1.356 . S
C1857 C1856 1.363 . S
C1857 C1860 1.363 . S
N1858 C1860 1.356 . S
N1858 H1870 0.984 . S
N1858 H1871 0.985 . S
N1859 C1861 1.356 1_554 S
N1859 H1864 0.984 . S
N1859 H1865 0.985 . S
C1860 C1854 1.379 . S
C1860 C1857 1.363 . S
C1860 N1858 1.356 . S
C1861 C1855 1.363 . S
C1861 C1856 1.379 . S
C1861 N1859 1.356 1_556 S
N1862 C1854 1.356 . S
N1862 H1868 0.984 . S
N1862 H1869 0.984 . S
N1863 C1856 1.356 . S
N1863 H1866 0.984 . S
N1863 H1867 0.985 . S
H1864 N1859 0.984 . S
H1865 N1859 0.985 . S
H1866 N1863 0.984 . S
H1867 N1863 0.985 . S
H1868 N1862 0.984 . S
H1869 N1862 0.984 . S
H1870 N1858 0.984 . S
H1871 N1858 0.985 . S
C1872 C1873 1.363 . S
C1872 C1878 1.379 . S
C1872 N1880 1.356 . S
C1873 C1872 1.363 . S
C1873 C1879 1.363 . S
C1874 C1875 1.363 . S
C1874 C1879 1.379 . S
C1874 N1881 1.356 . S
C1875 C1874 1.363 . S
C1875 C1878 1.363 . S
N1876 C1878 1.356 . S
N1876 H1888 0.984 . S
N1876 H1889 0.985 . S
N1877 C1879 1.356 1_554 S
N1877 H1882 0.984 . S
N1877 H1883 0.985 . S
C1878 C1872 1.379 . S
C1878 C1875 1.363 . S
C1878 N1876 1.356 . S
C1879 C1873 1.363 . S
C1879 C1874 1.379 . S
C1879 N1877 1.356 1_556 S
N1880 C1872 1.356 . S
N1880 H1886 0.984 . S
N1880 H1887 0.984 . S
N1881 C1874 1.356 . S
N1881 H1884 0.984 . S
N1881 H1885 0.985 1_556 S
H1882 N1877 0.984 . S
H1883 N1877 0.985 . S
H1884 N1881 0.984 . S
H1885 N1881 0.985 1_554 S
H1886 N1880 0.984 . S
H1887 N1880 0.984 . S
H1888 N1876 0.984 . S
H1889 N1876 0.985 . S
C1890 C1891 1.363 . S
C1890 C1896 1.379 . S
C1890 N1898 1.356 1_556 S
C1891 C1890 1.363 . S
C1891 C1897 1.363 . S
C1892 C1893 1.363 . S
C1892 C1897 1.379 . S
C1892 N1899 1.356 . S
C1893 C1892 1.363 . S
C1893 C1896 1.363 . S
N1894 C1896 1.356 . S
N1894 H1906 0.984 1_556 S
N1894 H1907 0.985 . S
N1895 C1897 1.356 . S
N1895 H1900 0.984 . S
N1895 H1901 0.985 . S
C1896 C1890 1.379 . S
C1896 C1893 1.363 . S
C1896 N1894 1.356 . S
C1897 C1891 1.363 . S
C1897 C1892 1.379 . S
C1897 N1895 1.356 . S
N1898 C1890 1.356 1_554 S
N1898 H1904 0.984 . S
N1898 H1905 0.984 . S
N1899 C1892 1.356 . S
N1899 H1902 0.984 . S
N1899 H1903 0.985 . S
H1900 N1895 0.984 . S
H1901 N1895 0.985 . S
H1902 N1899 0.984 . S
H1903 N1899 0.985 . S
H1904 N1898 0.984 . S
H1905 N1898 0.984 . S
H1906 N1894 0.984 1_554 S
H1907 N1894 0.985 . S
C1908 C1909 1.363 . S
C1908 C1914 1.379 . S
C1908 N1916 1.356 . S
C1909 C1908 1.363 . S
C1909 C1915 1.363 . S
C1910 C1911 1.363 . S
C1910 C1915 1.379 . S
C1910 N1917 1.356 . S
C1911 C1910 1.363 . S
C1911 C1914 1.363 . S
N1912 C1914 1.356 . S
N1912 H1924 0.984 . S
N1912 H1925 0.985 . S
N1913 C1915 1.356 . S
N1913 H1918 0.984 . S
N1913 H1919 0.985 . S
C1914 C1908 1.379 . S
C1914 C1911 1.363 . S
C1914 N1912 1.356 . S
C1915 C1909 1.363 . S
C1915 C1910 1.379 . S
C1915 N1913 1.356 . S
N1916 C1908 1.356 . S
N1916 H1922 0.984 . S
N1916 H1923 0.984 . S
N1917 C1910 1.356 . S
N1917 H1920 0.984 . S
N1917 H1921 0.985 . S
H1918 N1913 0.984 . S
H1919 N1913 0.985 . S
H1920 N1917 0.984 . S
H1921 N1917 0.985 . S
H1922 N1916 0.984 . S
H1923 N1916 0.984 . S
H1924 N1912 0.984 . S
H1925 N1912 0.985 . S
C1926 C1927 1.363 . S
C1926 C1932 1.379 . S
C1926 N1934 1.356 . S
C1927 C1926 1.363 . S
C1927 C1933 1.363 . S
C1928 C1929 1.363 . S
C1928 C1933 1.379 . S
C1928 N1935 1.356 . S
C1929 C1928 1.363 . S
C1929 C1932 1.363 . S
N1930 C1932 1.356 . S
N1930 H1942 0.984 . S
N1930 H1943 0.985 . S
N1931 C1933 1.356 1_556 S
N1931 H1936 0.984 . S
N1931 H1937 0.985 . S
C1932 C1926 1.379 . S
C1932 C1929 1.363 . S
C1932 N1930 1.356 . S
C1933 C1927 1.363 . S
C1933 C1928 1.379 . S
C1933 N1931 1.356 1_554 S
N1934 C1926 1.356 . S
N1934 H1940 0.984 . S
N1934 H1941 0.984 . S
N1935 C1928 1.356 . S
N1935 H1938 0.984 . S
N1935 H1939 0.985 . S
H1936 N1931 0.984 . S
H1937 N1931 0.985 . S
H1938 N1935 0.984 . S
H1939 N1935 0.985 . S
H1940 N1934 0.984 . S
H1941 N1934 0.984 . S
H1942 N1930 0.984 . S
H1943 N1930 0.985 . S
C1944 C1945 1.363 . S
C1944 C1950 1.379 . S
C1944 N1952 1.356 . S
C1945 C1944 1.363 . S
C1945 C1951 1.363 . S
C1946 C1947 1.363 . S
C1946 C1951 1.379 . S
C1946 N1953 1.356 . S
C1947 C1946 1.363 . S
C1947 C1950 1.363 . S
N1948 C1950 1.356 . S
N1948 H1960 0.984 . S
N1948 H1961 0.985 . S
N1949 C1951 1.356 . S
N1949 H1954 0.985 1_554 S
N1949 H1955 0.985 1_554 S
C1950 C1944 1.379 . S
C1950 C1947 1.363 . S
C1950 N1948 1.356 . S
C1951 C1945 1.363 . S
C1951 C1946 1.379 . S
C1951 N1949 1.356 . S
N1952 C1944 1.356 . S
N1952 H1958 0.984 . S
N1952 H1959 0.984 . S
N1953 C1946 1.356 . S
N1953 H1956 0.984 . S
N1953 H1957 0.985 . S
H1954 N1949 0.985 1_556 S
H1955 N1949 0.985 1_556 S
H1956 N1953 0.984 . S
H1957 N1953 0.985 . S
H1958 N1952 0.984 . S
H1959 N1952 0.984 . S
H1960 N1948 0.984 . S
H1961 N1948 0.985 . S
C1962 C1963 1.363 . S
C1962 C1968 1.379 . S
C1962 N1970 1.356 . S
C1963 C1962 1.363 . S
C1963 C1969 1.363 . S
C1964 C1965 1.363 . S
C1964 C1969 1.379 . S
C1964 N1971 1.356 . S
C1965 C1964 1.363 . S
C1965 C1968 1.363 . S
N1966 C1968 1.356 . S
N1966 H1978 0.984 . S
N1966 H1979 0.985 . S
N1967 C1969 1.356 . S
N1967 H1972 0.984 . S
N1967 H1973 0.985 . S
C1968 C1962 1.379 . S
C1968 C1965 1.363 . S
C1968 N1966 1.356 . S
C1969 C1963 1.363 . S
C1969 C1964 1.379 . S
C1969 N1967 1.356 . S
N1970 C1962 1.356 . S
N1970 H1976 0.984 . S
N1970 H1977 0.984 . S
N1971 C1964 1.356 . S
N1971 H1974 0.984 . S
N1971 H1975 0.985 . S
H1972 N1967 0.984 . S
H1973 N1967 0.985 . S
H1974 N1971 0.984 . S
H1975 N1971 0.985 . S
H1976 N1970 0.984 . S
H1977 N1970 0.984 . S
H1978 N1966 0.984 . S
H1979 N1966 0.985 . S
C1980 C1981 1.363 . S
C1980 C1986 1.379 . S
C1980 N1988 1.356 . S
C1981 C1980 1.363 . S
C1981 C1987 1.363 . S
C1982 C1983 1.363 . S
C1982 C1987 1.379 . S
C1982 N1989 1.356 . S
C1983 C1982 1.363 . S
C1983 C1986 1.363 . S
N1984 C1986 1.356 . S
N1984 H1996 0.984 . S
N1984 H1997 0.985 . S
N1985 C1987 1.356 . S
N1985 H1990 0.984 . S
N1985 H1991 0.985 . S
C1986 C1980 1.379 . S
C1986 C1983 1.363 . S
C1986 N1984 1.356 . S
C1987 C1981 1.363 . S
C1987 C1982 1.379 . S
C1987 N1985 1.356 . S
N1988 C1980 1.356 . S
N1988 H1994 0.984 . S
N1988 H1995 0.984 . S
N1989 C1982 1.356 . S
N1989 H1992 0.984 . S
N1989 H1993 0.985 . S
H1990 N1985 0.984 . S
H1991 N1985 0.985 . S
H1992 N1989 0.984 . S
H1993 N1989 0.985 . S
H1994 N1988 0.984 . S
H1995 N1988 0.984 . S
H1996 N1984 0.984 . S
H1997 N1984 0.985 . S
C1998 C1999 1.363 . S
C1998 C2004 1.379 . S
C1998 N2006 1.356 . S
C1999 C1998 1.363 . S
C1999 C2005 1.363 . S
C2000 C2001 1.363 . S
C2000 C2005 1.379 . S
C2000 N2007 1.356 . S
C2001 C2000 1.363 . S
C2001 C2004 1.363 . S
N2002 C2004 1.356 . S
N2002 H2014 0.984 . S
N2002 H2015 0.985 . S
N2003 C2005 1.356 . S
N2003 H2008 0.984 . S
N2003 H2009 0.985 . S
C2004 C1998 1.379 . S
C2004 C2001 1.363 . S
C2004 N2002 1.356 . S
C2005 C1999 1.363 . S
C2005 C2000 1.379 . S
C2005 N2003 1.356 . S
N2006 C1998 1.356 . S
N2006 H2012 0.984 . S
N2006 H2013 0.984 . S
N2007 C2000 1.356 . S
N2007 H2010 0.984 . S
N2007 H2011 0.985 . S
H2008 N2003 0.984 . S
H2009 N2003 0.985 . S
H2010 N2007 0.984 . S
H2011 N2007 0.985 . S
H2012 N2006 0.984 . S
H2013 N2006 0.984 . S
H2014 N2002 0.984 . S
H2015 N2002 0.985 . S
C2016 C2017 1.363 . S
C2016 C2022 1.379 1_455 S
C2016 N2024 1.356 1_455 S
C2017 C2016 1.363 . S
C2017 C2023 1.363 . S
C2018 C2019 1.363 . S
C2018 C2023 1.379 . S
C2018 N2025 1.356 . S
C2019 C2018 1.363 . S
C2019 C2022 1.363 1_455 S
N2020 C2022 1.356 . S
N2020 H2032 0.984 . S
N2020 H2033 0.985 . S
N2021 C2023 1.356 . S
N2021 H2026 0.984 . S
N2021 H2027 0.985 . S
C2022 C2016 1.379 1_655 S
C2022 C2019 1.363 1_655 S
C2022 N2020 1.356 . S
C2023 C2017 1.363 . S
C2023 C2018 1.379 . S
C2023 N2021 1.356 . S
N2024 C2016 1.356 1_655 S
N2024 H2030 0.984 . S
N2024 H2031 0.984 1_655 S
N2025 C2018 1.356 . S
N2025 H2028 0.984 . S
N2025 H2029 0.985 . S
H2026 N2021 0.984 . S
H2027 N2021 0.985 . S
H2028 N2025 0.984 . S
H2029 N2025 0.985 . S
H2030 N2024 0.984 . S
H2031 N2024 0.984 1_455 S
H2032 N2020 0.984 . S
H2033 N2020 0.985 . S
C2034 C2035 1.363 . S
C2034 C2040 1.379 . S
C2034 N2042 1.356 . S
C2035 C2034 1.363 . S
C2035 C2041 1.363 . S
C2036 C2037 1.363 . S
C2036 C2041 1.379 . S
C2036 N2043 1.356 . S
C2037 C2036 1.363 . S
C2037 C2040 1.363 . S
N2038 C2040 1.356 . S
N2038 H2050 0.984 . S
N2038 H2051 0.985 . S
N2039 C2041 1.356 . S
N2039 H2044 0.984 . S
N2039 H2045 0.985 . S
C2040 C2034 1.379 . S
C2040 C2037 1.363 . S
C2040 N2038 1.356 . S
C2041 C2035 1.363 . S
C2041 C2036 1.379 . S
C2041 N2039 1.356 . S
N2042 C2034 1.356 . S
N2042 H2048 0.984 . S
N2042 H2049 0.984 . S
N2043 C2036 1.356 . S
N2043 H2046 0.984 . S
N2043 H2047 0.985 . S
H2044 N2039 0.984 . S
H2045 N2039 0.985 . S
H2046 N2043 0.984 . S
H2047 N2043 0.985 . S
H2048 N2042 0.984 . S
H2049 N2042 0.984 . S
H2050 N2038 0.984 . S
H2051 N2038 0.985 . S
C2052 C2053 1.363 . S
C2052 C2058 1.379 . S
C2052 N2060 1.356 . S
C2053 C2052 1.363 . S
C2053 C2059 1.363 1_565 S
C2054 C2055 1.363 1_545 S
C2054 C2059 1.379 . S
C2054 N2061 1.356 . S
C2055 C2054 1.363 1_565 S
C2055 C2058 1.363 . S
N2056 C2058 1.356 . S
N2056 H2068 0.984 . S
N2056 H2069 0.985 . S
N2057 C2059 1.356 . S
N2057 H2062 0.984 . S
N2057 H2063 0.985 . S
C2058 C2052 1.379 . S
C2058 C2055 1.363 . S
C2058 N2056 1.356 . S
C2059 C2053 1.363 1_545 S
C2059 C2054 1.379 . S
C2059 N2057 1.356 . S
N2060 C2052 1.356 . S
N2060 H2066 0.984 . S
N2060 H2067 0.984 . S
N2061 C2054 1.356 . S
N2061 H2064 0.984 . S
N2061 H2065 0.985 . S
H2062 N2057 0.984 . S
H2063 N2057 0.985 . S
H2064 N2061 0.984 . S
H2065 N2061 0.985 . S
H2066 N2060 0.984 . S
H2067 N2060 0.984 . S
H2068 N2056 0.984 . S
H2069 N2056 0.985 . S
C2070 C2071 1.363 . S
C2070 C2076 1.379 . S
C2070 N2078 1.356 . S
C2071 C2070 1.363 . S
C2071 C2077 1.363 1_565 S
C2072 C2073 1.363 1_545 S
C2072 C2077 1.379 . S
C2072 N2079 1.356 . S
C2073 C2072 1.363 1_565 S
C2073 C2076 1.363 . S
N2074 C2076 1.356 . S
N2074 H2086 0.984 . S
N2074 H2087 0.985 . S
N2075 C2077 1.356 . S
N2075 H2080 0.984 . S
N2075 H2081 0.985 . S
C2076 C2070 1.379 . S
C2076 C2073 1.363 . S
C2076 N2074 1.356 . S
C2077 C2071 1.363 1_545 S
C2077 C2072 1.379 . S
C2077 N2075 1.356 . S
N2078 C2070 1.356 . S
N2078 H2084 0.984 . S
N2078 H2085 0.984 . S
N2079 C2072 1.356 . S
N2079 H2082 0.984 . S
N2079 H2083 0.985 . S
H2080 N2075 0.984 . S
H2081 N2075 0.985 . S
H2082 N2079 0.984 . S
H2083 N2079 0.985 . S
H2084 N2078 0.984 . S
H2085 N2078 0.984 . S
H2086 N2074 0.984 . S
H2087 N2074 0.985 . S
C2088 C2089 1.367 . S
C2088 C2094 1.384 1_455 S
C2088 N2096 1.348 1_455 S
C2089 C2088 1.367 . S
C2089 C2095 1.363 . S
C2090 C2091 1.363 . S
C2090 C2095 1.379 . S
C2090 N2097 1.356 . S
C2091 C2090 1.363 . S
C2091 C2094 1.363 1_455 S
N2092 C2094 1.356 . S
N2092 H2104 0.984 . S
N2092 H2105 0.985 . S
N2093 C2095 1.356 . S
N2093 H2098 0.984 . S
N2093 H2099 0.985 . S
C2094 C2088 1.384 1_655 S
C2094 C2091 1.363 1_655 S
C2094 N2092 1.356 . S
C2095 C2089 1.363 . S
C2095 C2090 1.379 . S
C2095 N2093 1.356 . S
N2096 C2088 1.348 1_655 S
N2096 H2102 0.984 . S
N2096 H2103 0.985 . S
N2097 C2090 1.356 . S
N2097 H2100 0.984 . S
N2097 H2101 0.985 . S
H2098 N2093 0.984 . S
H2099 N2093 0.985 . S
H2100 N2097 0.984 . S
H2101 N2097 0.985 . S
H2102 N2096 0.984 . S
H2103 N2096 0.985 . S
H2104 N2092 0.984 . S
H2105 N2092 0.985 . S
C2106 C2107 1.363 . S
C2106 C2112 1.379 . S
C2106 N2114 1.356 . S
C2107 C2106 1.363 . S
C2107 C2113 1.363 . S
C2108 C2109 1.363 . S
C2108 C2113 1.379 . S
C2108 N2115 1.356 . S
C2109 C2108 1.363 . S
C2109 C2112 1.363 . S
N2110 C2112 1.356 . S
N2110 H2122 0.984 . S
N2110 H2123 0.985 . S
N2111 C2113 1.356 . S
N2111 H2116 0.984 . S
N2111 H2117 0.985 . S
C2112 C2106 1.379 . S
C2112 C2109 1.363 . S
C2112 N2110 1.356 . S
C2113 C2107 1.363 . S
C2113 C2108 1.379 . S
C2113 N2111 1.356 . S
N2114 C2106 1.356 . S
N2114 H2120 0.984 . S
N2114 H2121 0.984 . S
N2115 C2108 1.356 . S
N2115 H2118 0.984 . S
N2115 H2119 0.985 . S
H2116 N2111 0.984 . S
H2117 N2111 0.985 . S
H2118 N2115 0.984 . S
H2119 N2115 0.985 . S
H2120 N2114 0.984 . S
H2121 N2114 0.984 . S
H2122 N2110 0.984 . S
H2123 N2110 0.985 . S
C2124 C2125 1.363 . S
C2124 C2130 1.379 . S
C2124 N2132 1.356 . S
C2125 C2124 1.363 . S
C2125 C2131 1.363 . S
C2126 C2127 1.363 . S
C2126 C2131 1.379 . S
C2126 N2133 1.356 . S
C2127 C2126 1.363 . S
C2127 C2130 1.363 . S
N2128 C2130 1.356 . S
N2128 H2140 0.984 . S
N2128 H2141 0.985 . S
N2129 C2131 1.356 . S
N2129 H2134 0.984 . S
N2129 H2135 0.985 . S
C2130 C2124 1.379 . S
C2130 C2127 1.363 . S
C2130 N2128 1.356 . S
C2131 C2125 1.363 . S
C2131 C2126 1.379 . S
C2131 N2129 1.356 . S
N2132 C2124 1.356 . S
N2132 H2138 0.984 . S
N2132 H2139 0.984 . S
N2133 C2126 1.356 . S
N2133 H2136 0.984 . S
N2133 H2137 0.985 . S
H2134 N2129 0.984 . S
H2135 N2129 0.985 . S
H2136 N2133 0.984 . S
H2137 N2133 0.985 . S
H2138 N2132 0.984 . S
H2139 N2132 0.984 . S
H2140 N2128 0.984 . S
H2141 N2128 0.985 . S
C2142 C2143 1.363 . S
C2142 C2148 1.379 . S
C2142 N2150 1.356 . S
C2143 C2142 1.363 . S
C2143 C2149 1.363 . S
C2144 C2145 1.363 . S
C2144 C2149 1.379 . S
C2144 N2151 1.356 . S
C2145 C2144 1.363 . S
C2145 C2148 1.363 . S
N2146 C2148 1.356 . S
N2146 H2158 0.984 . S
N2146 H2159 0.985 . S
N2147 C2149 1.356 . S
N2147 H2152 0.984 . S
N2147 H2153 0.985 . S
C2148 C2142 1.379 . S
C2148 C2145 1.363 . S
C2148 N2146 1.356 . S
C2149 C2143 1.363 . S
C2149 C2144 1.379 . S
C2149 N2147 1.356 . S
N2150 C2142 1.356 . S
N2150 H2156 0.984 . S
N2150 H2157 0.984 . S
N2151 C2144 1.356 . S
N2151 H2154 0.984 . S
N2151 H2155 0.985 . S
H2152 N2147 0.984 . S
H2153 N2147 0.985 . S
H2154 N2151 0.984 . S
H2155 N2151 0.985 . S
H2156 N2150 0.984 . S
H2157 N2150 0.984 . S
H2158 N2146 0.984 . S
H2159 N2146 0.985 . S
C2160 C2161 1.363 . S
C2160 C2166 1.379 . S
C2160 N2168 1.356 . S
C2161 C2160 1.363 . S
C2161 C2167 1.363 . S
C2162 C2163 1.363 . S
C2162 C2167 1.379 . S
C2162 N2169 1.356 . S
C2163 C2162 1.363 . S
C2163 C2166 1.363 . S
N2164 C2166 1.356 . S
N2164 H2176 0.984 . S
N2164 H2177 0.985 . S
N2165 C2167 1.356 . S
N2165 H2170 0.984 . S
N2165 H2171 0.985 . S
C2166 C2160 1.379 . S
C2166 C2163 1.363 . S
C2166 N2164 1.356 . S
C2167 C2161 1.363 . S
C2167 C2162 1.379 . S
C2167 N2165 1.356 . S
N2168 C2160 1.356 . S
N2168 H2174 0.984 . S
N2168 H2175 0.984 . S
N2169 C2162 1.356 . S
N2169 H2172 0.984 . S
N2169 H2173 0.985 . S
H2170 N2165 0.984 . S
H2171 N2165 0.985 . S
H2172 N2169 0.984 . S
H2173 N2169 0.985 . S
H2174 N2168 0.984 . S
H2175 N2168 0.984 . S
H2176 N2164 0.984 . S
H2177 N2164 0.985 . S
C2178 C2179 1.363 1_565 S
C2178 C2184 1.379 . S
C2178 N2186 1.356 . S
C2179 C2178 1.363 1_545 S
C2179 C2185 1.363 . S
C2180 C2181 1.363 . S
C2180 C2185 1.379 . S
C2180 N2187 1.356 . S
C2181 C2180 1.363 . S
C2181 C2184 1.363 1_545 S
N2182 C2184 1.356 . S
N2182 H2194 0.984 . S
N2182 H2195 0.985 . S
N2183 C2185 1.356 . S
N2183 H2188 0.984 . S
N2183 H2189 0.985 . S
C2184 C2178 1.379 . S
C2184 C2181 1.363 1_565 S
C2184 N2182 1.356 . S
C2185 C2179 1.363 . S
C2185 C2180 1.379 . S
C2185 N2183 1.356 . S
N2186 C2178 1.356 . S
N2186 H2192 0.984 . S
N2186 H2193 0.984 . S
N2187 C2180 1.356 . S
N2187 H2190 0.984 . S
N2187 H2191 0.985 . S
H2188 N2183 0.984 . S
H2189 N2183 0.985 . S
H2190 N2187 0.984 . S
H2191 N2187 0.985 . S
H2192 N2186 0.984 . S
H2193 N2186 0.984 . S
H2194 N2182 0.984 . S
H2195 N2182 0.985 . S
C2196 C2197 1.365 1_455 S
C2196 C2202 1.365 . S
C2196 N2204 1.371 . S
C2197 C2196 1.365 1_655 S
C2197 C2203 1.363 . S
C2198 C2199 1.363 . S
C2198 C2203 1.379 . S
C2198 N2205 1.356 . S
C2199 C2198 1.363 . S
C2199 C2202 1.363 1_655 S
N2200 C2202 1.356 . S
N2200 H2212 0.984 . S
N2200 H2213 0.985 . S
N2201 C2203 1.356 . S
N2201 H2206 0.984 . S
N2201 H2207 0.985 . S
C2202 C2196 1.365 . S
C2202 C2199 1.363 1_455 S
C2202 N2200 1.356 . S
C2203 C2197 1.363 . S
C2203 C2198 1.379 . S
C2203 N2201 1.356 . S
N2204 C2196 1.371 . S
N2204 H2210 0.984 . S
N2204 H2211 0.984 . S
N2205 C2198 1.356 . S
N2205 H2208 0.984 . S
N2205 H2209 0.985 . S
H2206 N2201 0.984 . S
H2207 N2201 0.985 . S
H2208 N2205 0.984 . S
H2209 N2205 0.985 . S
H2210 N2204 0.984 . S
H2211 N2204 0.984 . S
H2212 N2200 0.984 . S
H2213 N2200 0.985 . S
C2214 C2215 1.363 . S
C2214 C2220 1.379 . S
C2214 N2222 1.356 . S
C2215 C2214 1.363 . S
C2215 C2221 1.363 . S
C2216 C2217 1.363 . S
C2216 C2221 1.379 . S
C2216 N2223 1.356 . S
C2217 C2216 1.363 . S
C2217 C2220 1.363 . S
N2218 C2220 1.356 . S
N2218 H2230 0.984 . S
N2218 H2231 0.985 . S
N2219 C2221 1.356 . S
N2219 H2224 0.984 . S
N2219 H2225 0.985 . S
C2220 C2214 1.379 . S
C2220 C2217 1.363 . S
C2220 N2218 1.356 . S
C2221 C2215 1.363 . S
C2221 C2216 1.379 . S
C2221 N2219 1.356 . S
N2222 C2214 1.356 . S
N2222 H2228 0.984 . S
N2222 H2229 0.984 . S
N2223 C2216 1.356 . S
N2223 H2226 0.984 . S
N2223 H2227 0.985 . S
H2224 N2219 0.984 . S
H2225 N2219 0.985 . S
H2226 N2223 0.984 . S
H2227 N2223 0.985 . S
H2228 N2222 0.984 . S
H2229 N2222 0.984 . S
H2230 N2218 0.984 . S
H2231 N2218 0.985 . S
C2232 C2233 1.363 . S
C2232 C2238 1.379 . S
C2232 N2240 1.356 . S
C2233 C2232 1.363 . S
C2233 C2239 1.363 . S
C2234 C2235 1.363 . S
C2234 C2239 1.379 . S
C2234 N2241 1.356 . S
C2235 C2234 1.363 . S
C2235 C2238 1.363 . S
N2236 C2238 1.356 . S
N2236 H2248 0.984 . S
N2236 H2249 0.985 . S
N2237 C2239 1.356 . S
N2237 H2242 0.984 . S
N2237 H2243 0.985 . S
C2238 C2232 1.379 . S
C2238 C2235 1.363 . S
C2238 N2236 1.356 . S
C2239 C2233 1.363 . S
C2239 C2234 1.379 . S
C2239 N2237 1.356 . S
N2240 C2232 1.356 . S
N2240 H2246 0.984 . S
N2240 H2247 0.984 . S
N2241 C2234 1.356 . S
N2241 H2244 0.984 . S
N2241 H2245 0.985 . S
H2242 N2237 0.984 . S
H2243 N2237 0.985 . S
H2244 N2241 0.984 . S
H2245 N2241 0.985 . S
H2246 N2240 0.984 . S
H2247 N2240 0.984 . S
H2248 N2236 0.984 . S
H2249 N2236 0.985 . S
C2250 C2251 1.363 . S
C2250 C2256 1.379 . S
C2250 N2258 1.356 . S
C2251 C2250 1.363 . S
C2251 C2257 1.363 . S
C2252 C2253 1.363 . S
C2252 C2257 1.379 . S
C2252 N2259 1.356 . S
C2253 C2252 1.363 . S
C2253 C2256 1.363 . S
N2254 C2256 1.356 . S
N2254 H2266 0.984 . S
N2254 H2267 0.985 . S
N2255 C2257 1.356 . S
N2255 H2260 0.984 . S
N2255 H2261 0.985 . S
C2256 C2250 1.379 . S
C2256 C2253 1.363 . S
C2256 N2254 1.356 . S
C2257 C2251 1.363 . S
C2257 C2252 1.379 . S
C2257 N2255 1.356 . S
N2258 C2250 1.356 . S
N2258 H2264 0.984 . S
N2258 H2265 0.984 . S
N2259 C2252 1.356 . S
N2259 H2262 0.984 . S
N2259 H2263 0.985 . S
H2260 N2255 0.984 . S
H2261 N2255 0.985 . S
H2262 N2259 0.984 . S
H2263 N2259 0.985 . S
H2264 N2258 0.984 . S
H2265 N2258 0.984 . S
H2266 N2254 0.984 . S
H2267 N2254 0.985 . S
C2268 C2269 1.363 . S
C2268 C2274 1.379 . S
C2268 N2276 1.356 . S
C2269 C2268 1.363 . S
C2269 C2275 1.363 . S
C2270 C2271 1.363 . S
C2270 C2275 1.379 . S
C2270 N2277 1.356 . S
C2271 C2270 1.363 . S
C2271 C2274 1.363 . S
N2272 C2274 1.356 . S
N2272 H2284 0.984 . S
N2272 H2285 0.985 . S
N2273 C2275 1.356 . S
N2273 H2278 0.984 . S
N2273 H2279 0.985 . S
C2274 C2268 1.379 . S
C2274 C2271 1.363 . S
C2274 N2272 1.356 . S
C2275 C2269 1.363 . S
C2275 C2270 1.379 . S
C2275 N2273 1.356 . S
N2276 C2268 1.356 . S
N2276 H2282 0.984 . S
N2276 H2283 0.984 . S
N2277 C2270 1.356 . S
N2277 H2280 0.984 . S
N2277 H2281 0.985 . S
H2278 N2273 0.984 . S
H2279 N2273 0.985 . S
H2280 N2277 0.984 . S
H2281 N2277 0.985 . S
H2282 N2276 0.984 . S
H2283 N2276 0.984 . S
H2284 N2272 0.984 . S
H2285 N2272 0.985 . S
C2286 C2287 1.363 . S
C2286 C2292 1.379 . S
C2286 N2294 1.356 . S
C2287 C2286 1.363 . S
C2287 C2293 1.363 . S
C2288 C2289 1.363 . S
C2288 C2293 1.379 . S
C2288 N2295 1.356 . S
C2289 C2288 1.363 . S
C2289 C2292 1.363 . S
N2290 C2292 1.356 . S
N2290 H2302 0.984 . S
N2290 H2303 0.985 . S
N2291 C2293 1.356 . S
N2291 H2296 0.984 . S
N2291 H2297 0.985 . S
C2292 C2286 1.379 . S
C2292 C2289 1.363 . S
C2292 N2290 1.356 . S
C2293 C2287 1.363 . S
C2293 C2288 1.379 . S
C2293 N2291 1.356 . S
N2294 C2286 1.356 . S
N2294 H2300 0.984 . S
N2294 H2301 0.984 . S
N2295 C2288 1.356 . S
N2295 H2298 0.984 . S
N2295 H2299 0.985 . S
H2296 N2291 0.984 . S
H2297 N2291 0.985 . S
H2298 N2295 0.984 . S
H2299 N2295 0.985 . S
H2300 N2294 0.984 . S
H2301 N2294 0.984 . S
H2302 N2290 0.984 . S
H2303 N2290 0.985 . S
C2304 C2305 1.363 . S
C2304 C2310 1.379 . S
C2304 N2312 1.356 . S
C2305 C2304 1.363 . S
C2305 C2311 1.363 . S
C2306 C2307 1.363 . S
C2306 C2311 1.379 . S
C2306 N2313 1.356 . S
C2307 C2306 1.363 . S
C2307 C2310 1.363 . S
N2308 C2310 1.356 . S
N2308 H2320 0.984 . S
N2308 H2321 0.985 . S
N2309 C2311 1.356 . S
N2309 H2314 0.984 . S
N2309 H2315 0.985 . S
C2310 C2304 1.379 . S
C2310 C2307 1.363 . S
C2310 N2308 1.356 . S
C2311 C2305 1.363 . S
C2311 C2306 1.379 . S
C2311 N2309 1.356 . S
N2312 C2304 1.356 . S
N2312 H2318 0.984 . S
N2312 H2319 0.984 . S
N2313 C2306 1.356 . S
N2313 H2316 0.984 . S
N2313 H2317 0.985 . S
H2314 N2309 0.984 . S
H2315 N2309 0.985 . S
H2316 N2313 0.984 . S
H2317 N2313 0.985 . S
H2318 N2312 0.984 . S
H2319 N2312 0.984 . S
H2320 N2308 0.984 . S
H2321 N2308 0.985 . S
C2322 C2323 1.363 . S
C2322 C2328 1.379 . S
C2322 N2330 1.356 . S
C2323 C2322 1.363 . S
C2323 C2329 1.363 . S
C2324 C2325 1.363 . S
C2324 C2329 1.379 . S
C2324 N2331 1.356 . S
C2325 C2324 1.363 . S
C2325 C2328 1.363 . S
N2326 C2328 1.356 . S
N2326 H2338 0.984 . S
N2326 H2339 0.985 . S
N2327 C2329 1.356 . S
N2327 H2332 0.984 . S
N2327 H2333 0.985 . S
C2328 C2322 1.379 . S
C2328 C2325 1.363 . S
C2328 N2326 1.356 . S
C2329 C2323 1.363 . S
C2329 C2324 1.379 . S
C2329 N2327 1.356 . S
N2330 C2322 1.356 . S
N2330 H2336 0.984 . S
N2330 H2337 0.984 . S
N2331 C2324 1.356 . S
N2331 H2334 0.984 . S
N2331 H2335 0.985 . S
H2332 N2327 0.984 . S
H2333 N2327 0.985 . S
H2334 N2331 0.984 . S
H2335 N2331 0.985 . S
H2336 N2330 0.984 . S
H2337 N2330 0.984 . S
H2338 N2326 0.984 . S
H2339 N2326 0.985 . S
C2340 C2341 1.363 . S
C2340 C2346 1.379 . S
C2340 N2348 1.356 . S
C2341 C2340 1.363 . S
C2341 C2347 1.363 1_655 S
C2342 C2343 1.363 1_455 S
C2342 C2347 1.379 . S
C2342 N2349 1.356 . S
C2343 C2342 1.363 1_655 S
C2343 C2346 1.363 . S
N2344 C2346 1.356 . S
N2344 H2356 0.984 . S
N2344 H2357 0.985 . S
N2345 C2347 1.356 . S
N2345 H2350 0.984 . S
N2345 H2351 0.985 . S
C2346 C2340 1.379 . S
C2346 C2343 1.363 . S
C2346 N2344 1.356 . S
C2347 C2341 1.363 1_455 S
C2347 C2342 1.379 . S
C2347 N2345 1.356 . S
N2348 C2340 1.356 . S
N2348 H2354 0.984 . S
N2348 H2355 0.984 . S
N2349 C2342 1.356 . S
N2349 H2352 0.984 . S
N2349 H2353 0.985 . S
H2350 N2345 0.984 . S
H2351 N2345 0.985 . S
H2352 N2349 0.984 . S
H2353 N2349 0.985 . S
H2354 N2348 0.984 . S
H2355 N2348 0.984 . S
H2356 N2344 0.984 . S
H2357 N2344 0.985 . S
C2358 C2359 1.363 . S
C2358 C2364 1.379 . S
C2358 N2366 1.356 . S
C2359 C2358 1.363 . S
C2359 C2365 1.363 . S
C2360 C2361 1.363 . S
C2360 C2365 1.379 . S
C2360 N2367 1.356 . S
C2361 C2360 1.363 . S
C2361 C2364 1.363 . S
N2362 C2364 1.356 . S
N2362 H2374 0.984 . S
N2362 H2375 0.985 . S
N2363 C2365 1.356 . S
N2363 H2368 0.984 . S
N2363 H2369 0.985 . S
C2364 C2358 1.379 . S
C2364 C2361 1.363 . S
C2364 N2362 1.356 . S
C2365 C2359 1.363 . S
C2365 C2360 1.379 . S
C2365 N2363 1.356 . S
N2366 C2358 1.356 . S
N2366 H2372 0.984 . S
N2366 H2373 0.984 . S
N2367 C2360 1.356 . S
N2367 H2370 0.984 . S
N2367 H2371 0.985 . S
H2368 N2363 0.984 . S
H2369 N2363 0.985 . S
H2370 N2367 0.984 . S
H2371 N2367 0.985 . S
H2372 N2366 0.984 . S
H2373 N2366 0.984 . S
H2374 N2362 0.984 . S
H2375 N2362 0.985 . S
C2376 C2377 1.363 1_565 S
C2376 C2382 1.379 . S
C2376 N2384 1.356 . S
C2377 C2376 1.363 1_545 S
C2377 C2383 1.363 . S
C2378 C2379 1.363 . S
C2378 C2383 1.379 . S
C2378 N2385 1.356 . S
C2379 C2378 1.363 . S
C2379 C2382 1.363 1_545 S
N2380 C2382 1.356 . S
N2380 H2392 0.984 . S
N2380 H2393 0.985 . S
N2381 C2383 1.356 . S
N2381 H2386 0.984 . S
N2381 H2387 0.985 . S
C2382 C2376 1.379 . S
C2382 C2379 1.363 1_565 S
C2382 N2380 1.356 . S
C2383 C2377 1.363 . S
C2383 C2378 1.379 . S
C2383 N2381 1.356 . S
N2384 C2376 1.356 . S
N2384 H2390 0.984 . S
N2384 H2391 0.984 . S
N2385 C2378 1.356 . S
N2385 H2388 0.984 . S
N2385 H2389 0.985 . S
H2386 N2381 0.984 . S
H2387 N2381 0.985 . S
H2388 N2385 0.984 . S
H2389 N2385 0.985 . S
H2390 N2384 0.984 . S
H2391 N2384 0.984 . S
H2392 N2380 0.984 . S
H2393 N2380 0.985 . S
C1099 C8 1.455 . S
C1101 C711 1.511 . S
C1117 C18 1.509 . S
C1119 C759 1.546 . S
C1137 C807 1.534 . S
C1135 C31 1.450 . S
C1153 C34 1.464 . S
C1155 C831 1.536 . S
C1171 C5 1.454 . S
C1173 C903 1.528 . S
C1189 C21 1.533 . S
C1191 C951 1.568 . S
C1207 C47 1.454 . S
C1209 C879 1.523 . S
C1227 C927 1.552 . S
C1225 C57 1.512 . S
C1245 C855 1.545 . S
C1243 C70 1.468 . S
C1261 C73 1.447 . S
C1263 C783 1.523 . S
C1281 C687 1.545 . S
C1279 C44 1.467 . S
C1297 C60 1.532 . S
C1299 C735 1.570 . S
C1315 C86 1.593 . S
C1317 C999 1.625 . S
C1333 C96 1.571 . S
C1335 C1047 1.584 . S
C1353 C1071 1.617 . S
C1351 C109 1.627 . S
C1369 C112 1.618 . S
C1371 C255 1.627 . S
C1387 C83 1.615 . S
C1389 C327 1.633 . S
C1405 C99 1.594 . S
C1407 C375 1.612 . S
C1423 C125 1.542 . S
C1425 C303 1.575 . S
C1441 C135 1.565 . S
C1443 C351 1.592 . S
C1461 C279 1.594 . S
C1459 C148 1.614 . S
C1479 C1095 1.642 . S
C1477 C151 1.663 . S
C1497 C975 1.617 . S
C1495 C122 1.612 . S
C1515 C1023 1.633 . S
C1513 C138 1.614 . S
C1531 C164 1.543 . S
C1533 C423 1.575 . S
C1549 C174 1.554 . S
C1551 C471 1.580 . S
C1567 C187 1.614 . S
C1569 C495 1.616 . S
C1585 C190 1.666 . S
C1587 C543 1.673 . S
C1605 C615 1.630 . S
C1603 C161 1.622 . S
C1623 C663 1.634 . S
C1621 C177 1.616 . S
C1641 C591 1.637 . S
C1639 C203 1.604 . S
C1659 C639 1.599 . S
C1657 C213 1.583 . S
C1675 C226 1.620 . S
C1677 C567 1.586 . S
C1695 C519 1.589 . S
C1693 C229 1.608 . S
C1711 C200 1.612 . S
C1713 C399 1.630 . S
C1731 C447 1.619 . S
C1729 C216 1.598 . S
C1749 C264 1.560 . S
C1747 C0 1.460 . S
C1765 C23 1.502 . S
C1767 C318 1.450 . S
C1785 C366 1.520 . S
C1783 C36 1.566 . S
C1803 C414 1.546 . S
C1801 C26 1.483 . S
C1821 C462 1.495 . S
C1819 C10 1.550 . S
C1839 C504 1.527 . S
C1837 C13 1.439 . S
C1855 C39 1.467 . S
C1857 C510 1.551 . S
C1873 C62 1.493 . S
C1875 C408 1.428 . S
C1891 C75 1.544 . S
C1893 C456 1.480 . S
C1909 C65 1.501 . S
C1911 C312 1.543 . S
C1929 C360 1.482 . S
C1927 C49 1.557 . S
C1945 C52 1.445 . S
C1947 C270 1.509 . S
C1965 C552 1.531 . S
C1963 C78 1.446 . S
C1981 C101 1.566 . S
C1983 C606 1.515 . S
C1999 C114 1.572 . S
C2001 C654 1.530 . S
C2019 C702 1.359 . S
C2017 C104 1.334 . S
C2035 C88 1.487 . S
C2037 C750 1.444 . S
C2053 C91 1.274 . S
C2055 C798 1.290 . S
C2071 C117 1.303 . S
C2073 C792 1.315 . S
C2089 C140 1.324 . S
C2091 C696 1.319 . S
C2109 C744 1.447 . S
C2107 C153 1.491 . S
C2125 C143 1.465 . S
C2127 C600 1.491 . S
C2143 C127 1.575 . S
C2145 C648 1.510 . S
C2163 C558 1.558 . S
C2161 C130 1.509 . S
C2181 C840 1.338 . S
C2179 C156 1.306 . S
C2197 C179 1.317 . S
C2199 C894 1.314 . S
C2215 C192 1.493 . S
C2217 C942 1.459 . S
C2235 C990 1.495 . S
C2233 C182 1.453 . S
C2253 C1038 1.521 . S
C2251 C166 1.573 . S
C2269 C169 1.508 . S
C2271 C1080 1.578 . S
C2287 C195 1.455 . S
C2289 C1086 1.519 . S
C2305 C218 1.561 . S
C2307 C984 1.498 . S
C2325 C1032 1.499 . S
C2323 C231 1.550 . S
C2343 C888 1.340 . S
C2341 C221 1.319 . S
C2361 C936 1.439 . S
C2359 C205 1.495 . S
C2377 C208 1.287 . S
C2379 C846 1.313 . S
