# Generated by pormake.
# Topology sit, (3,6)-cn, num edge types: 1
# Building blocks:
#     Node 0, Type 0, BuildingBlock: BELTOD_clean_linker_0, # of connection points: 3
#     Node 1, Type 0, BuildingBlock: BELTOD_clean_linker_0, # of connection points: 3
#     Node 2, Type 0, BuildingBlock: BELTOD_clean_linker_0, # of connection points: 3
#     Node 3, Type 0, BuildingBlock: BELTOD_clean_linker_0, # of connection points: 3
#     Node 4, Type 1, BuildingBlock: MIDCAF_clean_sbu_0, # of connection points: 6
#     Node 5, Type 1, BuildingBlock: MIDCAF_clean_sbu_0, # of connection points: 6
#     Edge 6, Type (0, 1), BuildingBlock: AJUNOK_clean_linker_0, # of connection points: 2
#     Edge 7, Type (0, 1), BuildingBlock: AJUNOK_clean_linker_0, # of connection points: 2
#     Edge 8, Type (0, 1), BuildingBlock: AJUNOK_clean_linker_0, # of connection points: 2
#     Edge 9, Type (0, 1), BuildingBlock: AJUNOK_clean_linker_0, # of connection points: 2
#     Edge 10, Type (0, 1), BuildingBlock: AJUNOK_clean_linker_0, # of connection points: 2
#     Edge 11, Type (0, 1), BuildingBlock: AJUNOK_clean_linker_0, # of connection points: 2
#     Edge 12, Type (0, 1), BuildingBlock: AJUNOK_clean_linker_0, # of connection points: 2
#     Edge 13, Type (0, 1), BuildingBlock: AJUNOK_clean_linker_0, # of connection points: 2
#     Edge 14, Type (0, 1), BuildingBlock: AJUNOK_clean_linker_0, # of connection points: 2
#     Edge 15, Type (0, 1), BuildingBlock: AJUNOK_clean_linker_0, # of connection points: 2
#     Edge 16, Type (0, 1), BuildingBlock: AJUNOK_clean_linker_0, # of connection points: 2
#     Edge 17, Type (0, 1), BuildingBlock: AJUNOK_clean_linker_0, # of connection points: 2
# Relax obj value: 0.105
# Max RMSD: 0.192
# Mean RMSD: 0.102
data_MOF--net-sit--node1-MIDCAF_clean_sbu_0--node2-BELTOD_clean_linker_0--edge1-AJUNOK_clean_linker_0
_symmetry_space_group_name_H-M    P1
_symmetry_Int_Tables_number       1
_symmetry_cell_setting            triclinic
loop_
_symmetry_equiv_pos_as_xyz
'x, y, z'
_cell_length_a     20.629936
_cell_length_b     26.473461
_cell_length_c     31.520023
_cell_angle_alpha  87.823378
_cell_angle_beta   90.237085
_cell_angle_gamma 82.647383
loop_
_atom_site_label
_atom_site_type_symbol
_atom_site_fract_x
_atom_site_fract_y
_atom_site_fract_z
_atom_type_partial_charge
P0 P 0.10925 0.27309 0.97028 0.0
H1 H 0.25111 0.25426 0.96417 0.0
H2 H 0.3349 0.31175 0.96204 0.0
H3 H 0.18981 0.43758 -0.00829 0.0
H4 H 0.1062 0.3796 -0.00507 0.0
H5 H 0.05938 0.17513 0.98184 0.0
H6 H 0.04478 0.12056 0.04496 0.0
H7 H 0.11423 0.23242 0.12403 0.0
H8 H 0.12916 0.28637 0.06107 0.0
H9 H 0.08775 0.34781 0.90089 0.0
H10 H -0.02719 0.28866 0.00072 0.0
O11 O 0.13262 0.23439 0.93106 0.0
H12 H -0.00786 0.40517 0.87552 0.0
H13 H 0.87595 0.34445 0.97415 0.0
C14 C 0.17232 0.31292 0.97851 0.0
C15 C 0.23759 0.29391 0.97128 0.0
C16 C 0.28543 0.32674 0.97033 0.0
C17 C 0.26856 0.37908 0.97663 0.0
C18 C 0.20384 0.39742 -0.01335 0.0
C19 C 0.15617 0.36432 -0.01173 0.0
C20 C 0.09641 0.23431 0.01683 0.0
C21 C 0.07157 0.18775 0.01282 0.0
C22 C 0.06299 0.15672 0.04881 0.0
C23 C 0.07896 0.17206 0.08929 0.0
C24 C 0.10264 0.21926 0.0931 0.0
C25 C 0.11095 0.25023 0.0572 0.0
C26 C 0.03714 0.31376 0.95238 0.0
C27 C 0.0417 0.34696 0.91714 0.0
C28 C -0.01288 0.37962 0.90264 0.0
C29 C 0.92649 0.37875 0.92253 0.0
C30 C 0.92224 0.34604 0.95838 0.0
C31 C -0.02267 0.31377 0.97328 0.0
P32 P 0.02832 0.68254 0.08301 0.0
H33 H 0.15885 0.62586 0.09622 0.0
H34 H 0.24995 0.60424 0.0479 0.0
H35 H 0.13824 0.68707 0.94538 0.0
H36 H 0.04672 0.70727 -0.0065 0.0
H37 H 0.94808 0.73652 0.14624 0.0
H38 H 0.94638 0.82093 0.17499 0.0
H39 H 0.08636 0.85817 0.081 0.0
H40 H 0.08927 0.77299 0.05314 0.0
H41 H -0.00636 0.58583 0.05672 0.0
H42 H 0.91114 0.74406 0.0463 0.0
O43 O 0.0394 0.64524 0.12699 0.0
H44 H 0.90426 0.56302 0.01268 0.0
H45 H 0.82177 0.7214 0.00256 0.0
C46 C 0.09616 0.66788 0.04825 0.0
C47 C 0.15385 0.63904 0.06329 0.0
C48 C 0.20576 0.62671 0.03571 0.0
C49 C 0.20066 0.64328 -0.00722 0.0
C50 C 0.14282 0.67256 0.97799 0.0
C51 C 0.09087 0.68459 0.00552 0.0
C52 C 0.01968 0.74801 0.0982 0.0
C53 C -0.02232 0.76309 0.13142 0.0
C54 C -0.02372 0.81162 0.1475 0.0
C55 C 0.01679 0.84614 0.13052 0.0
C56 C 0.05541 0.83216 0.09517 0.0
C57 C 0.05699 0.78336 0.0792 0.0
C58 C 0.95821 0.66644 0.0553 0.0
C59 C 0.95574 0.6155 0.04545 0.0
C60 C 0.90527 0.60256 0.02003 0.0
C61 C 0.85659 0.64053 0.00422 0.0
C62 C 0.85869 0.69146 0.01467 0.0
C63 C 0.9095 0.7044 0.03977 0.0
P64 P 0.57215 0.76057 0.44743 0.0
H65 H 0.71047 0.73354 0.43002 0.0
H66 H 0.79973 0.78448 0.41634 0.0
H67 H 0.66784 0.92197 0.43549 0.0
H68 H 0.57958 0.87075 0.45084 0.0
H69 H 0.56129 0.65657 0.47947 0.0
H70 H 0.56028 0.61829 0.55133 0.0
H71 H 0.5847 0.76371 0.60289 0.0
H72 H 0.58847 0.80104 0.53095 0.0
H73 H 0.519 0.81891 0.37265 0.0
H74 H 0.45555 0.78835 0.50033 0.0
O75 O 0.58031 0.71508 0.41191 0.0
H76 H 0.41502 0.87256 0.35774 0.0
H77 H 0.35163 0.84144 0.48535 0.0
C78 C 0.6381 0.79842 0.44024 0.0
C79 C 0.70088 0.77464 0.43133 0.0
C80 C 0.75165 0.80381 0.42321 0.0
C81 C 0.74032 0.85733 0.42367 0.0
C82 C 0.67793 0.88085 0.43455 0.0
C83 C 0.62731 0.85159 0.44301 0.0
C84 C 0.57573 0.73147 0.50001 0.0
C85 C 0.56724 0.68001 0.50626 0.0
C86 C 0.56584 0.65831 0.54736 0.0
C87 C 0.57174 0.68807 0.58283 0.0
C88 C 0.58066 0.73962 0.57624 0.0
C89 C 0.58278 0.76106 0.53519 0.0
C90 C 0.49501 0.79943 0.43744 0.0
C91 C 0.48265 0.82357 0.39738 0.0
C92 C 0.42331 0.85407 0.38888 0.0
C93 C 0.37519 0.86065 0.42032 0.0
C94 C 0.38807 0.83707 0.46066 0.0
C95 C 0.44747 0.80652 0.46913 0.0
P96 P 0.50247 0.20178 0.57738 0.0
H97 H 0.64375 0.18695 0.58896 0.0
H98 H 0.73444 0.16863 0.53952 0.0
H99 H 0.59625 0.17151 0.43583 0.0
H100 H 0.50655 0.19154 0.48465 0.0
H101 H 0.42806 0.24916 0.64583 0.0
H102 H 0.42131 0.3331 0.67559 0.0
H103 H 0.54882 0.38056 0.57748 0.0
H104 H 0.55631 0.29544 0.54814 0.0
H105 H 0.44669 0.10753 0.56667 0.0
H106 H 0.39905 0.26674 0.53032 0.0
O107 O 0.51807 0.16191 0.61952 0.0
H108 H 0.35487 0.08726 0.52374 0.0
H109 H 0.30811 0.24663 0.48682 0.0
C110 C 0.56851 0.19006 0.54065 0.0
C111 C 0.63317 0.18388 0.55554 0.0
C112 C 0.68475 0.17322 0.52737 0.0
C113 C 0.67224 0.16881 0.48387 0.0
C114 C 0.60734 0.17552 0.46906 0.0
C115 C 0.55592 0.18654 0.49716 0.0
C116 C 0.49351 0.26587 0.59539 0.0
C117 C 0.45387 0.27781 0.63037 0.0
C118 C 0.44927 0.32618 0.64692 0.0
C119 C 0.48366 0.36391 0.62841 0.0
C120 C 0.52152 0.35238 0.59222 0.0
C121 C 0.52609 0.30369 0.57563 0.0
C122 C 0.42856 0.1887 0.55236 0.0
C123 C 0.41567 0.13819 0.5501 0.0
C124 C 0.36392 0.12657 0.52515 0.0
C125 C 0.32498 0.16535 0.50167 0.0
C126 C 0.33717 0.2161 0.50485 0.0
C127 C 0.38885 0.22766 0.52984 0.0
Zn128 Zn 0.0079 0.14867 0.33471 0.0
Zn129 Zn 0.05131 0.89116 0.35308 0.0
Zn130 Zn 0.02508 0.0511 0.34736 0.0
C131 C 0.04045 0.95831 0.27069 0.0
C132 C 0.94789 0.97958 0.3819 0.0
O133 O 0.10632 0.07984 0.38064 0.0
O134 O 0.07898 0.16338 0.37393 0.0
C135 C 0.0332 0.09999 0.25622 0.0
O136 O 0.03297 1.00241 0.28844 0.0
O137 O 0.04774 0.915 0.29103 0.0
O138 O 0.00319 0.95895 0.37007 0.0
O139 O 0.93998 1.02806 0.38048 0.0
O140 O 0.02619 0.14289 0.27305 0.0
O141 O 0.0315 0.05889 0.27883 0.0
O142 O 0.93081 0.08106 0.37584 0.0
O143 O 0.91661 0.1625 0.35512 0.0
C144 C 0.89616 0.12522 0.37468 0.0
O145 O 0.11498 1.02761 0.38365 0.0
O146 O 0.07479 0.95872 0.37184 0.0
C147 C 0.11686 0.12543 0.38864 0.0
C148 C 0.12309 0.97916 0.38449 0.0
Zn149 Zn 0.53249 0.64814 0.84463 0.0
Zn150 Zn 0.55543 0.46038 0.8412 0.0
Zn151 Zn 0.54702 0.5488 0.84147 0.0
C152 C 0.51067 0.48846 0.76314 0.0
C153 C 0.47185 0.47799 0.90299 0.0
O154 O 0.63337 0.56801 0.87586 0.0
O155 O 0.60441 0.65011 0.88597 0.0
C156 C 0.54913 0.62447 0.75942 0.0
O157 O 0.53696 0.52738 0.77466 0.0
O158 O 0.50108 0.45411 0.7903 0.0
O159 O 0.51851 0.44353 0.89689 0.0
O160 O 0.46826 0.5203 0.88085 0.0
O161 O 0.54943 0.66146 0.78351 0.0
O162 O 0.5439 0.57948 0.77498 0.0
O163 O 0.45725 0.57382 0.87623 0.0
O164 O 0.44263 0.658 0.8677 0.0
C165 C 0.42314 0.61728 0.88158 0.0
O166 O 0.64454 0.51601 0.86722 0.0
O167 O 0.65054 0.44287 0.83551 0.0
C168 C 0.64376 0.60996 0.89249 0.0
C169 C 0.67782 0.47396 0.85646 0.0
C170 C 0.12154 0.13122 0.15821 0.0
C171 C 0.07048 0.14004 0.12806 0.0
C172 C 0.11091 0.11134 0.19899 0.0
C173 C 0.04904 0.09939 0.21094 0.0
H174 H 0.16895 0.1428 0.15108 0.0
H175 H 0.14987 0.10939 0.22242 0.0
S176 S 0.90158 0.10874 0.14253 0.0
N177 N 0.95757 0.13002 0.11167 0.0
N178 N 0.938 0.0926 0.18875 0.0
C179 C -0.00075 0.10358 0.18018 0.0
C180 C 0.00993 0.12387 0.1385 0.0
C181 C 0.97008 0.92176 0.17113 0.0
C182 C 0.02517 0.89246 0.15425 0.0
C183 C -0.02373 0.95264 0.20576 0.0
C184 C 0.03765 0.95503 0.22442 0.0
H185 H 0.92145 0.91675 0.16037 0.0
H186 H 0.93227 0.9692 0.22131 0.0
S187 S 0.19779 0.89541 0.18662 0.0
N188 N 0.144 0.87534 0.15442 0.0
N189 N 0.15488 0.93371 0.21923 0.0
C190 C 0.09344 0.93218 0.20402 0.0
C191 C 0.08741 0.9006 0.16893 0.0
C192 C 0.61333 0.6776 0.65764 0.0
C193 C 0.56849 0.66614 0.6268 0.0
C194 C 0.60778 0.66214 0.70024 0.0
C195 C 0.55785 0.63395 0.71361 0.0
H196 H 0.65239 0.6996 0.64893 0.0
H197 H 0.64227 0.67312 0.72311 0.0
S198 S 0.42781 0.5939 0.6461 0.0
N199 N 0.47217 0.62466 0.6129 0.0
N200 N 0.46282 0.59495 0.69323 0.0
C201 C 0.51391 0.62066 0.68319 0.0
C202 C 0.51903 0.63685 0.63969 0.0
C203 C 0.5486 0.42558 0.66174 0.0
C204 C 0.48703 0.41174 0.65106 0.0
C205 C 0.55527 0.45834 0.69499 0.0
C206 C 0.50069 0.4778 0.7185 0.0
H207 H 0.59259 0.40682 0.64761 0.0
H208 H 0.60401 0.46341 0.70554 0.0
S209 S 0.32777 0.46465 0.69565 0.0
N210 N 0.36941 0.42958 0.66021 0.0
N211 N 0.38265 0.48919 0.72405 0.0
C212 C 0.43845 0.46973 0.70455 0.0
C213 C 0.43142 0.43719 0.67034 0.0
C214 C 0.30311 0.45215 0.93404 0.0
C215 C 0.31678 0.41461 0.96682 0.0
C216 C 0.35316 0.47679 0.9159 0.0
C217 C 0.41802 0.46512 0.93031 0.0
H218 H 0.25475 0.45923 0.91981 0.0
H219 H 0.3421 0.50113 0.88783 0.0
S220 S 0.4764 0.37726 0.02081 0.0
N221 N 0.39759 0.3724 0.01694 0.0
N222 N 0.49153 0.41921 0.98318 0.0
C223 C 0.4309 0.43146 0.9658 0.0
C224 C 0.38021 0.40612 0.98401 0.0
C225 C 0.73826 0.64442 -0.01283 0.0
C226 C 0.80335 0.62758 0.97679 0.0
C227 C 0.68694 0.63677 0.96009 0.0
C228 C 0.69887 0.61195 0.92175 0.0
H229 H 0.72702 0.66437 0.01615 0.0
H230 H 0.63747 0.65115 0.96892 0.0
S231 S 0.86061 0.56241 0.87915 0.0
N232 N 0.87727 0.58533 0.92543 0.0
N233 N 0.78018 0.57196 0.87396 0.0
C234 C 0.7635 0.59426 0.91114 0.0
C235 C 0.81598 0.60179 0.93889 0.0
C236 C 0.8224 0.43811 0.93024 0.0
C237 C 0.86689 0.40904 0.90414 0.0
C238 C 0.76253 0.46251 0.91394 0.0
C239 C 0.74543 0.45838 0.87113 0.0
H240 H 0.83325 0.44093 0.96365 0.0
H241 H 0.72823 0.4826 0.93535 0.0
S242 S 0.84567 0.38918 0.78923 0.0
N243 N 0.89027 0.37921 0.83306 0.0
N244 N 0.77848 0.42568 0.80254 0.0
C245 C 0.79054 0.43135 0.84442 0.0
C246 C 0.85119 0.40659 0.86088 0.0
C247 C 0.31902 0.64357 0.97767 0.0
C248 C 0.25721 0.63303 0.96426 0.0
C249 C 0.37267 0.63761 0.95057 0.0
C250 C 0.36631 0.62076 0.90932 0.0
H251 H 0.32564 0.65782 0.00896 0.0
H252 H 0.41935 0.64678 0.96178 0.0
S253 S 0.21656 0.5862 0.85914 0.0
N254 N 0.19366 0.60283 0.90736 0.0
N255 N 0.29488 0.59321 0.85597 0.0
C256 C 0.30546 0.60948 0.89547 0.0
C257 C 0.25071 0.61523 0.92311 0.0
C258 C 0.80514 0.92926 0.43752 0.0
C259 C 0.79306 0.88863 0.41225 0.0
C260 C 0.85489 0.95907 0.42732 0.0
C261 C 0.89433 0.9492 0.39163 0.0
H262 H 0.77667 0.93753 0.4658 0.0
H263 H 0.86368 0.98899 0.44818 0.0
S264 S 0.87904 0.85083 0.31289 0.0
N265 N 0.82197 0.84271 0.34818 0.0
N266 N 0.91594 0.89823 0.32965 0.0
C267 C 0.88224 0.90937 0.36577 0.0
C268 C 0.83144 0.87924 0.3759 0.0
C269 C 0.21005 0.18137 0.47474 0.0
C270 C 0.27245 0.15315 0.47318 0.0
C271 C 0.16013 0.17205 0.44709 0.0
C272 C 0.1707 0.13392 0.41715 0.0
H273 H 0.19968 0.21083 0.4976 0.0
H274 H 0.11266 0.19455 0.44945 0.0
S275 S 0.32679 0.05268 0.39745 0.0
N276 N 0.34327 0.08767 0.43745 0.0
N277 N 0.24877 0.06982 0.38569 0.0
C278 C 0.23283 0.1056 0.41497 0.0
C279 C 0.28391 0.11529 0.44297 0.0
C280 C 0.28566 0.93017 0.43724 0.0
C281 C 0.31095 0.89088 0.41072 0.0
C282 C 0.22489 0.95916 0.42842 0.0
C283 C 0.18716 0.9491 0.39327 0.0
H284 H 0.31343 0.93896 0.46465 0.0
H285 H 0.20708 0.98927 0.44938 0.0
S286 S 0.23131 0.85064 0.31413 0.0
N287 N 0.29334 0.84349 0.34803 0.0
N288 N 0.17963 0.89805 0.33144 0.0
C289 C 0.21181 0.90995 0.36666 0.0
C290 C 0.27368 0.88084 0.37535 0.0
C291 C 0.77646 0.11643 0.46431 0.0
C292 C 0.72692 0.15671 0.45416 0.0
C293 C 0.82991 0.10538 0.43753 0.0
C294 C 0.83561 0.13397 0.39956 0.0
H295 H 0.77429 0.09363 0.49342 0.0
H296 H 0.86846 0.07572 0.44761 0.0
S297 S 0.71887 0.24329 0.3584 0.0
N298 N 0.68695 0.22551 0.40365 0.0
N299 N 0.7868 0.20387 0.35278 0.0
C300 C 0.7859 0.17385 0.38868 0.0
C301 C 0.73158 0.1853 0.41603 0.0
loop_
_geom_bond_atom_site_label_1
_geom_bond_atom_site_label_2
_geom_bond_distance
_geom_bond_site_symmetry_2
_ccdc_geom_bond_type
P0 O11 1.490 . S
P0 C14 1.812 . S
P0 C20 1.803 1_556 S
P0 C26 1.819 . S
H1 C15 0.941 . S
H2 C16 0.939 . S
H3 C18 0.940 . S
H4 C19 0.940 1_554 S
H5 C21 0.939 . S
H6 C22 0.942 . S
H7 C24 0.940 . S
H8 C25 0.939 . S
H9 C27 0.941 . S
H10 C31 0.939 . S
O11 P0 1.490 . S
H12 C28 0.939 . S
H13 C30 0.940 . S
C14 P0 1.812 . S
C14 C15 1.389 . S
C14 C19 1.391 . S
C15 H1 0.941 . S
C15 C14 1.389 . S
C15 C16 1.397 . S
C16 H2 0.939 . S
C16 C15 1.397 . S
C16 C17 1.378 . S
C17 C16 1.378 . S
C17 C18 1.378 . S
C18 H3 0.940 . S
C18 C17 1.378 . S
C18 C19 1.396 . S
C19 H4 0.940 1_556 S
C19 C14 1.391 . S
C19 C18 1.396 . S
C20 P0 1.803 1_554 S
C20 C21 1.378 . S
C20 C25 1.400 . S
C21 H5 0.939 . S
C21 C20 1.378 . S
C21 C22 1.361 . S
C22 H6 0.942 . S
C22 C21 1.361 . S
C22 C23 1.369 . S
C23 C22 1.369 . S
C23 C24 1.404 . S
C24 H7 0.940 . S
C24 C23 1.404 . S
C24 C25 1.389 . S
C25 H8 0.939 . S
C25 C20 1.400 . S
C25 C24 1.389 . S
C26 P0 1.819 . S
C26 C27 1.391 . S
C26 C31 1.391 1_556 S
C27 H9 0.941 . S
C27 C26 1.391 . S
C27 C28 1.396 1_455 S
C28 H12 0.939 . S
C28 C27 1.396 1_655 S
C28 C29 1.397 . S
C29 C28 1.397 . S
C29 C30 1.385 1_556 S
C30 H13 0.940 . S
C30 C29 1.385 1_554 S
C30 C31 1.388 1_655 S
C31 H10 0.939 . S
C31 C26 1.391 1_554 S
C31 C30 1.388 1_455 S
P32 O43 1.490 . S
P32 C46 1.812 . S
P32 C52 1.803 . S
P32 C58 1.819 1_455 S
H33 C47 0.941 . S
H34 C48 0.939 . S
H35 C50 0.940 . S
H36 C51 0.940 . S
H37 C53 0.939 . S
H38 C54 0.942 . S
H39 C56 0.940 . S
H40 C57 0.939 . S
H41 C59 0.941 . S
H42 C63 0.939 . S
O43 P32 1.490 . S
H44 C60 0.939 . S
H45 C62 0.943 . S
C46 P32 1.812 . S
C46 C47 1.389 . S
C46 C51 1.391 1_554 S
C47 H33 0.941 . S
C47 C46 1.389 . S
C47 C48 1.397 . S
C48 H34 0.939 . S
C48 C47 1.397 . S
C48 C49 1.378 1_554 S
C49 C48 1.378 1_556 S
C49 C50 1.378 . S
C50 H35 0.940 . S
C50 C49 1.378 . S
C50 C51 1.396 . S
C51 H36 0.940 . S
C51 C46 1.391 1_556 S
C51 C50 1.396 . S
C52 P32 1.803 . S
C52 C53 1.378 1_455 S
C52 C57 1.400 . S
C53 H37 0.939 . S
C53 C52 1.378 1_655 S
C53 C54 1.361 . S
C54 H38 0.942 . S
C54 C53 1.361 . S
C54 C55 1.369 . S
C55 C54 1.369 . S
C55 C56 1.404 1_655 S
C56 H39 0.940 . S
C56 C55 1.404 1_455 S
C56 C57 1.389 . S
C57 H40 0.939 . S
C57 C52 1.400 . S
C57 C56 1.389 . S
C58 P32 1.819 1_655 S
C58 C59 1.391 . S
C58 C63 1.391 . S
C59 H41 0.941 . S
C59 C58 1.391 . S
C59 C60 1.396 1_554 S
C60 H44 0.939 . S
C60 C59 1.396 1_556 S
C60 C61 1.397 . S
C61 C60 1.397 . S
C61 C62 1.392 . S
C62 H45 0.943 . S
C62 C61 1.392 . S
C62 C63 1.378 1_556 S
C63 H42 0.939 . S
C63 C58 1.391 . S
C63 C62 1.378 1_554 S
P64 O75 1.490 . S
P64 C78 1.812 . S
P64 C84 1.803 . S
P64 C90 1.819 . S
H65 C79 0.941 . S
H66 C80 0.939 . S
H67 C82 0.940 . S
H68 C83 0.940 . S
H69 C85 0.939 . S
H70 C86 0.942 . S
H71 C88 0.940 . S
H72 C89 0.939 . S
H73 C91 0.941 . S
H74 C95 0.939 . S
O75 P64 1.490 . S
H76 C92 0.939 . S
H77 C94 0.940 . S
C78 P64 1.812 . S
C78 C79 1.389 . S
C78 C83 1.391 . S
C79 H65 0.941 . S
C79 C78 1.389 . S
C79 C80 1.397 . S
C80 H66 0.939 . S
C80 C79 1.397 . S
C80 C81 1.378 . S
C81 C80 1.378 . S
C81 C82 1.378 . S
C82 H67 0.940 . S
C82 C81 1.378 . S
C82 C83 1.396 . S
C83 H68 0.940 . S
C83 C78 1.391 . S
C83 C82 1.396 . S
C84 P64 1.803 . S
C84 C85 1.378 . S
C84 C89 1.400 . S
C85 H69 0.939 . S
C85 C84 1.378 . S
C85 C86 1.361 . S
C86 H70 0.942 . S
C86 C85 1.361 . S
C86 C87 1.369 . S
C87 C86 1.369 . S
C87 C88 1.404 . S
C88 H71 0.940 . S
C88 C87 1.404 . S
C88 C89 1.389 . S
C89 H72 0.939 . S
C89 C84 1.400 . S
C89 C88 1.389 . S
C90 P64 1.819 . S
C90 C91 1.391 . S
C90 C95 1.391 . S
C91 H73 0.941 . S
C91 C90 1.391 . S
C91 C92 1.396 . S
C92 H76 0.939 . S
C92 C91 1.396 . S
C92 C93 1.397 . S
C93 C92 1.397 . S
C93 C94 1.385 . S
C94 H77 0.940 . S
C94 C93 1.385 . S
C94 C95 1.388 . S
C95 H74 0.939 . S
C95 C90 1.391 . S
C95 C94 1.388 . S
P96 O107 1.490 . S
P96 C110 1.812 . S
P96 C116 1.803 . S
P96 C122 1.819 . S
H97 C111 0.941 . S
H98 C112 0.939 . S
H99 C114 0.940 . S
H100 C115 0.940 . S
H101 C117 0.939 . S
H102 C118 0.942 . S
H103 C120 0.940 . S
H104 C121 0.939 . S
H105 C123 0.941 . S
H106 C127 0.939 . S
O107 P96 1.490 . S
H108 C124 0.939 . S
H109 C126 0.940 . S
C110 P96 1.812 . S
C110 C111 1.389 . S
C110 C115 1.391 . S
C111 H97 0.941 . S
C111 C110 1.389 . S
C111 C112 1.397 . S
C112 H98 0.939 . S
C112 C111 1.397 . S
C112 C113 1.378 . S
C113 C112 1.378 . S
C113 C114 1.378 . S
C114 H99 0.940 . S
C114 C113 1.378 . S
C114 C115 1.396 . S
C115 H100 0.940 . S
C115 C110 1.391 . S
C115 C114 1.396 . S
C116 P96 1.803 . S
C116 C117 1.378 . S
C116 C121 1.400 . S
C117 H101 0.939 . S
C117 C116 1.378 . S
C117 C118 1.361 . S
C118 H102 0.942 . S
C118 C117 1.361 . S
C118 C119 1.369 . S
C119 C118 1.369 . S
C119 C120 1.404 . S
C120 H103 0.940 . S
C120 C119 1.404 . S
C120 C121 1.389 . S
C121 H104 0.939 . S
C121 C116 1.400 . S
C121 C120 1.389 . S
C122 P96 1.819 . S
C122 C123 1.391 . S
C122 C127 1.391 . S
C123 H105 0.941 . S
C123 C122 1.391 . S
C123 C124 1.396 . S
C124 H108 0.939 . S
C124 C123 1.396 . S
C124 C125 1.397 . S
C125 C124 1.397 . S
C125 C126 1.385 . S
C126 H109 0.940 . S
C126 C125 1.385 . S
C126 C127 1.388 . S
C127 H106 0.939 . S
C127 C122 1.391 . S
C127 C126 1.388 . S
Zn128 O134 1.920 . S
Zn128 O140 1.898 . S
Zn128 O143 1.905 1_455 S
Zn129 O137 1.905 . S
Zn129 O138 1.898 . S
Zn129 O146 1.920 . S
Zn130 O133 2.080 . S
Zn130 O136 2.114 1_545 S
Zn130 O139 2.120 1_545 S
Zn130 O141 2.120 . S
Zn130 O142 2.114 1_455 S
Zn130 O145 2.080 1_545 S
C131 O136 1.166 . S
C131 O137 1.182 . S
C132 O138 1.167 1_655 S
C132 O139 1.299 1_655 S
O133 Zn130 2.080 . S
O133 C147 1.305 . S
O134 Zn128 1.920 . S
O134 C147 1.234 . S
C135 O140 1.167 . S
C135 O141 1.299 . S
O136 Zn130 2.114 1_565 S
O136 C131 1.166 . S
O137 Zn129 1.905 . S
O137 C131 1.182 . S
O138 Zn129 1.898 . S
O138 C132 1.167 1_455 S
O139 Zn130 2.120 1_565 S
O139 C132 1.299 1_455 S
O140 Zn128 1.898 . S
O140 C135 1.167 . S
O141 Zn130 2.120 . S
O141 C135 1.299 . S
O142 Zn130 2.114 1_655 S
O142 C144 1.166 . S
O143 Zn128 1.905 1_655 S
O143 C144 1.182 . S
C144 O142 1.166 . S
C144 O143 1.182 . S
O145 Zn130 2.080 1_565 S
O145 C148 1.305 . S
O146 Zn129 1.920 . S
O146 C148 1.234 . S
C147 O133 1.305 . S
C147 O134 1.234 . S
C148 O145 1.305 . S
C148 O146 1.234 . S
Zn149 O155 1.920 . S
Zn149 O161 1.898 . S
Zn149 O164 1.905 . S
Zn150 O158 1.905 . S
Zn150 O159 1.898 . S
Zn150 O167 1.920 . S
Zn151 O154 2.080 . S
Zn151 O157 2.114 . S
Zn151 O160 2.120 . S
Zn151 O162 2.120 . S
Zn151 O163 2.114 . S
Zn151 O166 2.080 . S
C152 O157 1.166 . S
C152 O158 1.182 . S
C153 O159 1.167 . S
C153 O160 1.299 . S
O154 Zn151 2.080 . S
O154 C168 1.305 . S
O155 Zn149 1.920 . S
O155 C168 1.234 . S
C156 O161 1.167 . S
C156 O162 1.299 . S
O157 Zn151 2.114 . S
O157 C152 1.166 . S
O158 Zn150 1.905 . S
O158 C152 1.182 . S
O159 Zn150 1.898 . S
O159 C153 1.167 . S
O160 Zn151 2.120 . S
O160 C153 1.299 . S
O161 Zn149 1.898 . S
O161 C156 1.167 . S
O162 Zn151 2.120 . S
O162 C156 1.299 . S
O163 Zn151 2.114 . S
O163 C165 1.166 . S
O164 Zn149 1.905 . S
O164 C165 1.182 . S
C165 O163 1.166 . S
C165 O164 1.182 . S
O166 Zn151 2.080 . S
O166 C169 1.305 . S
O167 Zn150 1.920 . S
O167 C169 1.234 . S
C168 O154 1.305 . S
C168 O155 1.234 . S
C169 O166 1.305 . S
C169 O167 1.234 . S
C170 C171 1.369 . S
C170 C172 1.419 . S
C170 H174 0.930 . S
C171 C170 1.369 . S
C171 C180 1.429 . S
C172 C170 1.419 . S
C172 C173 1.363 . S
C172 H175 0.929 . S
C173 C172 1.363 . S
C173 C179 1.428 . S
H174 C170 0.930 . S
H175 C172 0.929 . S
S176 N177 1.613 1_655 S
S176 N178 1.610 . S
N177 S176 1.613 1_455 S
N177 C180 1.350 . S
N178 S176 1.610 . S
N178 C179 1.351 1_655 S
C179 C173 1.428 . S
C179 N178 1.351 1_455 S
C179 C180 1.434 . S
C180 C171 1.429 . S
C180 N177 1.350 . S
C180 C179 1.434 . S
C181 C182 1.369 1_655 S
C181 C183 1.419 . S
C181 H185 0.930 . S
C182 C181 1.369 1_455 S
C182 C191 1.429 . S
C183 C181 1.419 . S
C183 C184 1.363 1_655 S
C183 H186 0.929 . S
C184 C183 1.363 1_455 S
C184 C190 1.428 . S
H185 C181 0.930 . S
H186 C183 0.929 . S
S187 N188 1.613 . S
S187 N189 1.610 . S
N188 S187 1.613 . S
N188 C191 1.350 . S
N189 S187 1.610 . S
N189 C190 1.351 . S
C190 C184 1.428 . S
C190 N189 1.351 . S
C190 C191 1.434 . S
C191 C182 1.429 . S
C191 N188 1.350 . S
C191 C190 1.434 . S
C192 C193 1.369 . S
C192 C194 1.419 . S
C192 H196 0.930 . S
C193 C192 1.369 . S
C193 C202 1.429 . S
C194 C192 1.419 . S
C194 C195 1.363 . S
C194 H197 0.929 . S
C195 C194 1.363 . S
C195 C201 1.428 . S
H196 C192 0.930 . S
H197 C194 0.929 . S
S198 N199 1.613 . S
S198 N200 1.610 . S
N199 S198 1.613 . S
N199 C202 1.350 . S
N200 S198 1.610 . S
N200 C201 1.351 . S
C201 C195 1.428 . S
C201 N200 1.351 . S
C201 C202 1.434 . S
C202 C193 1.429 . S
C202 N199 1.350 . S
C202 C201 1.434 . S
C203 C204 1.369 . S
C203 C205 1.419 . S
C203 H207 0.930 . S
C204 C203 1.369 . S
C204 C213 1.429 . S
C205 C203 1.419 . S
C205 C206 1.363 . S
C205 H208 0.929 . S
C206 C205 1.363 . S
C206 C212 1.428 . S
H207 C203 0.930 . S
H208 C205 0.929 . S
S209 N210 1.613 . S
S209 N211 1.610 . S
N210 S209 1.613 . S
N210 C213 1.350 . S
N211 S209 1.610 . S
N211 C212 1.351 . S
C212 C206 1.428 . S
C212 N211 1.351 . S
C212 C213 1.434 . S
C213 C204 1.429 . S
C213 N210 1.350 . S
C213 C212 1.434 . S
C214 C215 1.369 . S
C214 C216 1.419 . S
C214 H218 0.930 . S
C215 C214 1.369 . S
C215 C224 1.429 . S
C216 C214 1.419 . S
C216 C217 1.363 . S
C216 H219 0.929 . S
C217 C216 1.363 . S
C217 C223 1.428 . S
H218 C214 0.930 . S
H219 C216 0.929 . S
S220 N221 1.613 . S
S220 N222 1.610 . S
N221 S220 1.613 . S
N221 C224 1.350 . S
N222 S220 1.610 . S
N222 C223 1.351 . S
C223 C217 1.428 . S
C223 N222 1.351 . S
C223 C224 1.434 . S
C224 C215 1.429 . S
C224 N221 1.350 . S
C224 C223 1.434 . S
C225 C226 1.369 . S
C225 C227 1.419 . S
C225 H229 0.930 . S
C226 C225 1.369 . S
C226 C235 1.429 . S
C227 C225 1.419 . S
C227 C228 1.363 . S
C227 H230 0.929 . S
C228 C227 1.363 . S
C228 C234 1.428 . S
H229 C225 0.930 . S
H230 C227 0.929 . S
S231 N232 1.613 . S
S231 N233 1.610 . S
N232 S231 1.613 . S
N232 C235 1.350 . S
N233 S231 1.610 . S
N233 C234 1.351 . S
C234 C228 1.428 . S
C234 N233 1.351 . S
C234 C235 1.434 . S
C235 C226 1.429 . S
C235 N232 1.350 . S
C235 C234 1.434 . S
C236 C237 1.369 . S
C236 C238 1.419 . S
C236 H240 0.930 . S
C237 C236 1.369 . S
C237 C246 1.429 . S
C238 C236 1.419 . S
C238 C239 1.363 . S
C238 H241 0.929 . S
C239 C238 1.363 . S
C239 C245 1.428 . S
H240 C236 0.930 . S
H241 C238 0.929 . S
S242 N243 1.613 . S
S242 N244 1.610 . S
N243 S242 1.613 . S
N243 C246 1.350 . S
N244 S242 1.610 . S
N244 C245 1.351 . S
C245 C239 1.428 . S
C245 N244 1.351 . S
C245 C246 1.434 . S
C246 C237 1.429 . S
C246 N243 1.350 . S
C246 C245 1.434 . S
C247 C248 1.369 . S
C247 C249 1.419 . S
C247 H251 0.930 . S
C248 C247 1.369 . S
C248 C257 1.429 . S
C249 C247 1.419 . S
C249 C250 1.363 . S
C249 H252 0.929 . S
C250 C249 1.363 . S
C250 C256 1.428 . S
H251 C247 0.930 . S
H252 C249 0.929 . S
S253 N254 1.613 . S
S253 N255 1.610 . S
N254 S253 1.613 . S
N254 C257 1.350 . S
N255 S253 1.610 . S
N255 C256 1.351 . S
C256 C250 1.428 . S
C256 N255 1.351 . S
C256 C257 1.434 . S
C257 C248 1.429 . S
C257 N254 1.350 . S
C257 C256 1.434 . S
C258 C259 1.369 . S
C258 C260 1.419 . S
C258 H262 0.930 . S
C259 C258 1.369 . S
C259 C268 1.429 . S
C260 C258 1.419 . S
C260 C261 1.363 . S
C260 H263 0.929 . S
C261 C260 1.363 . S
C261 C267 1.428 . S
H262 C258 0.930 . S
H263 C260 0.929 . S
S264 N265 1.613 1_455 S
S264 N266 1.610 . S
N265 S264 1.613 1_655 S
N265 C268 1.350 . S
N266 S264 1.610 . S
N266 C267 1.351 1_455 S
C267 C261 1.428 . S
C267 N266 1.351 1_655 S
C267 C268 1.434 . S
C268 C259 1.429 . S
C268 N265 1.350 . S
C268 C267 1.434 . S
C269 C270 1.369 . S
C269 C271 1.419 . S
C269 H273 0.930 . S
C270 C269 1.369 . S
C270 C279 1.429 . S
C271 C269 1.419 . S
C271 C272 1.363 . S
C271 H274 0.929 . S
C272 C271 1.363 . S
C272 C278 1.428 . S
H273 C269 0.930 . S
H274 C271 0.929 . S
S275 N276 1.613 . S
S275 N277 1.610 . S
N276 S275 1.613 . S
N276 C279 1.350 . S
N277 S275 1.610 . S
N277 C278 1.351 . S
C278 C272 1.428 . S
C278 N277 1.351 . S
C278 C279 1.434 . S
C279 C270 1.429 . S
C279 N276 1.350 . S
C279 C278 1.434 . S
C280 C281 1.369 . S
C280 C282 1.419 . S
C280 H284 0.930 . S
C281 C280 1.369 . S
C281 C290 1.429 . S
C282 C280 1.419 . S
C282 C283 1.363 . S
C282 H285 0.929 . S
C283 C282 1.363 . S
C283 C289 1.428 . S
H284 C280 0.930 . S
H285 C282 0.929 . S
S286 N287 1.613 . S
S286 N288 1.610 . S
N287 S286 1.613 . S
N287 C290 1.350 . S
N288 S286 1.610 . S
N288 C289 1.351 . S
C289 C283 1.428 . S
C289 N288 1.351 . S
C289 C290 1.434 . S
C290 C281 1.429 . S
C290 N287 1.350 . S
C290 C289 1.434 . S
C291 C292 1.369 . S
C291 C293 1.419 . S
C291 H295 0.930 . S
C292 C291 1.369 . S
C292 C301 1.429 . S
C293 C291 1.419 . S
C293 C294 1.363 . S
C293 H296 0.929 . S
C294 C293 1.363 . S
C294 C300 1.428 . S
H295 C291 0.930 . S
H296 C293 0.929 . S
S297 N298 1.613 . S
S297 N299 1.610 . S
N298 S297 1.613 . S
N298 C301 1.350 . S
N299 S297 1.610 . S
N299 C300 1.351 . S
C300 C294 1.428 . S
C300 N299 1.351 . S
C300 C301 1.434 . S
C301 C292 1.429 . S
C301 N298 1.350 . S
C301 C300 1.434 . S
C173 C135 1.453 . S
C171 C23 1.543 . S
C184 C131 1.468 . S
C182 C55 1.455 1_455 S
C195 C156 1.451 . S
C193 C87 1.543 . S
C204 C119 1.466 . S
C206 C152 1.476 . S
C215 C17 1.377 . S
C217 C153 1.145 . S
C228 C168 1.181 . S
C226 C61 1.284 . S
C237 C29 1.661 . S
C239 C169 1.514 . S
C250 C165 1.528 . S
C248 C49 1.614 . S
C261 C132 1.142 . S
C259 C81 1.378 . S
C270 C125 1.284 . S
C272 C147 1.181 . S
C283 C148 1.510 . S
C281 C93 1.661 . S
C294 C144 1.523 . S
C292 C113 1.620 . S
