# Generated by pormake.
# Topology pyr, (3,6)-cn, num edge types: 1
# Building blocks:
#     Node 0, Type 0, BuildingBlock: ESEHIV_clean_linker_0, # of connection points: 3
#     Node 1, Type 0, BuildingBlock: ESEHIV_clean_linker_0, # of connection points: 3
#     Node 2, Type 0, BuildingBlock: ESEHIV_clean_linker_0, # of connection points: 3
#     Node 3, Type 0, BuildingBlock: ESEHIV_clean_linker_0, # of connection points: 3
#     Node 4, Type 0, BuildingBlock: ESEHIV_clean_linker_0, # of connection points: 3
#     Node 5, Type 0, BuildingBlock: ESEHIV_clean_linker_0, # of connection points: 3
#     Node 6, Type 0, BuildingBlock: ESEHIV_clean_linker_0, # of connection points: 3
#     Node 7, Type 0, BuildingBlock: ESEHIV_clean_linker_0, # of connection points: 3
#     Node 8, Type 1, BuildingBlock: MIDCAF_clean_sbu_0, # of connection points: 6
#     Node 9, Type 1, BuildingBlock: MIDCAF_clean_sbu_0, # of connection points: 6
#     Node 10, Type 1, BuildingBlock: MIDCAF_clean_sbu_0, # of connection points: 6
#     Node 11, Type 1, BuildingBlock: MIDCAF_clean_sbu_0, # of connection points: 6
#     Edge 12, Type (0, 1), BuildingBlock: XIVTED_clean_linker_0, # of connection points: 2
#     Edge 13, Type (0, 1), BuildingBlock: XIVTED_clean_linker_0, # of connection points: 2
#     Edge 14, Type (0, 1), BuildingBlock: XIVTED_clean_linker_0, # of connection points: 2
#     Edge 15, Type (0, 1), BuildingBlock: XIVTED_clean_linker_0, # of connection points: 2
#     Edge 16, Type (0, 1), BuildingBlock: XIVTED_clean_linker_0, # of connection points: 2
#     Edge 17, Type (0, 1), BuildingBlock: XIVTED_clean_linker_0, # of connection points: 2
#     Edge 18, Type (0, 1), BuildingBlock: XIVTED_clean_linker_0, # of connection points: 2
#     Edge 19, Type (0, 1), BuildingBlock: XIVTED_clean_linker_0, # of connection points: 2
#     Edge 20, Type (0, 1), BuildingBlock: XIVTED_clean_linker_0, # of connection points: 2
#     Edge 21, Type (0, 1), BuildingBlock: XIVTED_clean_linker_0, # of connection points: 2
#     Edge 22, Type (0, 1), BuildingBlock: XIVTED_clean_linker_0, # of connection points: 2
#     Edge 23, Type (0, 1), BuildingBlock: XIVTED_clean_linker_0, # of connection points: 2
#     Edge 24, Type (0, 1), BuildingBlock: XIVTED_clean_linker_0, # of connection points: 2
#     Edge 25, Type (0, 1), BuildingBlock: XIVTED_clean_linker_0, # of connection points: 2
#     Edge 26, Type (0, 1), BuildingBlock: XIVTED_clean_linker_0, # of connection points: 2
#     Edge 27, Type (0, 1), BuildingBlock: XIVTED_clean_linker_0, # of connection points: 2
#     Edge 28, Type (0, 1), BuildingBlock: XIVTED_clean_linker_0, # of connection points: 2
#     Edge 29, Type (0, 1), BuildingBlock: XIVTED_clean_linker_0, # of connection points: 2
#     Edge 30, Type (0, 1), BuildingBlock: XIVTED_clean_linker_0, # of connection points: 2
#     Edge 31, Type (0, 1), BuildingBlock: XIVTED_clean_linker_0, # of connection points: 2
#     Edge 32, Type (0, 1), BuildingBlock: XIVTED_clean_linker_0, # of connection points: 2
#     Edge 33, Type (0, 1), BuildingBlock: XIVTED_clean_linker_0, # of connection points: 2
#     Edge 34, Type (0, 1), BuildingBlock: XIVTED_clean_linker_0, # of connection points: 2
#     Edge 35, Type (0, 1), BuildingBlock: XIVTED_clean_linker_0, # of connection points: 2
# Relax obj value: 0.019
# Max RMSD: 0.063
# Mean RMSD: 0.024
data_MOF--net-pyr--node1-MIDCAF_clean_sbu_0--node2-ESEHIV_clean_linker_0--edge1-XIVTED_clean_linker_0
_symmetry_space_group_name_H-M    P1
_symmetry_Int_Tables_number       1
_symmetry_cell_setting            triclinic
loop_
_symmetry_equiv_pos_as_xyz
'x, y, z'
_cell_length_a     33.75258
_cell_length_b     33.749773
_cell_length_c     33.767025
_cell_angle_alpha  89.986532
_cell_angle_beta   90.0573
_cell_angle_gamma 90.346111
loop_
_atom_site_label
_atom_site_type_symbol
_atom_site_fract_x
_atom_site_fract_y
_atom_site_fract_z
_atom_type_partial_charge
H0 H 0.18445 0.28576 0.26918 0.0
H1 H 0.27385 0.19664 0.27888 0.0
H2 H 0.28267 0.28616 0.1882 0.0
C3 C 0.21251 0.27373 0.25944 0.0
C4 C 0.23265 0.29122 0.22741 0.0
C5 C 0.22717 0.23964 0.27797 0.0
C6 C 0.26283 0.22317 0.26468 0.0
C7 C 0.28296 0.23926 0.23185 0.0
C8 C 0.26781 0.27367 0.21376 0.0
H9 H 0.25601 0.85381 0.78103 0.0
H10 H 0.34979 0.76811 0.77664 0.0
H11 H 0.25386 0.76327 0.69244 0.0
C12 C 0.26946 0.82783 0.76802 0.0
C13 C 0.25171 0.81094 0.73449 0.0
C14 C 0.30508 0.81295 0.78352 0.0
C15 C 0.32144 0.77879 0.76623 0.0
C16 C 0.30296 0.76011 0.73361 0.0
C17 C 0.26779 0.77636 0.71826 0.0
H18 H 0.77676 0.26835 0.85247 0.0
H19 H 0.77109 0.35597 0.76038 0.0
H20 H 0.68248 0.26416 0.76691 0.0
C21 C 0.76261 0.28009 0.82622 0.0
C22 C 0.72795 0.26182 0.81181 0.0
C23 C 0.77844 0.31413 0.80795 0.0
C24 C 0.75939 0.32946 0.77426 0.0
C25 C 0.72473 0.31167 0.75911 0.0
C26 C 0.70944 0.2777 0.77801 0.0
H27 H 0.7477 0.76982 0.34707 0.0
H28 H 0.83727 0.78049 0.25781 0.0
H29 H 0.75021 0.6868 0.25057 0.0
C30 C 0.76015 0.75992 0.31923 0.0
C31 C 0.74369 0.7269 0.29973 0.0
C32 C 0.79387 0.77921 0.30432 0.0
C33 C 0.81098 0.76572 0.269 0.0
C34 C 0.79594 0.73196 0.24951 0.0
C35 C 0.76187 0.71309 0.2649 0.0
H36 H 0.8741 0.95981 0.85807 0.0
H37 H 0.95657 0.86627 0.88162 0.0
H38 H 0.8739 0.9017 0.97159 0.0
C39 C 0.88624 0.93805 0.87828 0.0
C40 C 0.8707 0.93447 0.91665 0.0
C41 C 0.91718 0.91358 0.86549 0.0
C42 C 0.93339 0.88591 0.89178 0.0
C43 C 0.9177 0.8814 0.93007 0.0
C44 C 0.8865 0.9058 0.94235 0.0
H45 H 0.55736 0.16491 0.40345 0.0
H46 H 0.64507 0.08043 0.36729 0.0
H47 H 0.66977 0.16004 0.46355 0.0
C48 C 0.58606 0.1513 0.40774 0.0
C49 C 0.61182 0.16573 0.43724 0.0
C50 C 0.59768 0.12027 0.38271 0.0
C51 C 0.63534 0.10338 0.38747 0.0
C52 C 0.6617 0.11815 0.41604 0.0
C53 C 0.64955 0.14893 0.44113 0.0
H54 H 0.3761 0.64484 0.06509 0.0
H55 H 0.39391 0.56516 0.16279 0.0
H56 H 0.47256 0.66462 0.14621 0.0
C57 C 0.39299 0.63588 0.09089 0.0
C58 C 0.42581 0.65859 0.10288 0.0
C59 C 0.38144 0.60205 0.11229 0.0
C60 C 0.4031 0.59097 0.14594 0.0
C61 C 0.43618 0.6133 0.15826 0.0
C62 C 0.44734 0.64705 0.13657 0.0
H63 H 0.07373 0.36143 0.65814 0.0
H64 H 0.16924 0.38598 0.57762 0.0
H65 H 0.13312 0.47458 0.66152 0.0
C66 C 0.0959 0.38177 0.64664 0.0
C67 C 0.09967 0.4198 0.66303 0.0
C68 C 0.1208 0.36947 0.61578 0.0
C69 C 0.1492 0.39587 0.60062 0.0
C70 C 0.15394 0.43381 0.61723 0.0
C71 C 0.12894 0.44563 0.6482 0.0
Zn72 Zn 0.97817 0.05532 0.55056 0.0
Zn73 Zn 0.05922 0.97314 0.46733 0.0
Zn74 Zn 0.01708 0.0158 0.51064 0.0
C75 C 0.07626 0.0507 0.44706 0.0
C76 C 0.98133 0.95265 0.45157 0.0
O77 O 0.01466 0.98856 0.57056 0.0
O78 O 0.95634 0.01326 0.58541 0.0
C79 C 0.04458 0.0977 0.54464 0.0
O80 O 0.05975 0.05574 0.48101 0.0
O81 O 0.07559 0.01699 0.43083 0.0
O82 O 0.01508 0.93671 0.45137 0.0
O83 O 0.97647 0.98645 0.46846 0.0
O84 O 0.02057 0.08999 0.5722 0.0
O85 O 0.04471 0.07577 0.51342 0.0
O86 O 0.95695 0.01879 0.48394 0.0
O87 O 0.94327 0.07738 0.50885 0.0
C88 C 0.93525 0.05004 0.48466 0.0
O89 O 0.04638 0.97279 0.54999 0.0
O90 O 0.0959 0.95634 0.51068 0.0
C91 C 0.9837 0.98906 0.59282 0.0
C92 C 0.07992 0.95574 0.54448 0.0
Zn93 Zn 0.47924 0.06348 0.98496 0.0
Zn94 Zn 0.56727 0.97596 0.07305 0.0
Zn95 Zn 0.5231 0.01747 0.02979 0.0
C96 C 0.61934 0.01735 0.0282 0.0
C97 C 0.52278 0.92202 0.03162 0.0
O98 O 0.4905 0.05938 0.06853 0.0
O99 O 0.46093 0.10037 0.02689 0.0
C100 C 0.55589 0.07287 0.95764 0.0
O101 O 0.58603 0.02567 0.01145 0.0
O102 O 0.61974 0.99838 0.06035 0.0
O103 O 0.55463 0.92334 0.05112 0.0
O104 O 0.50499 0.95439 0.02213 0.0
O105 O 0.52097 0.08188 0.94796 0.0
O106 O 0.56221 0.05028 0.98779 0.0
O107 O 0.48143 0.9781 0.9969 0.0
O108 O 0.44282 0.02112 0.96636 0.0
C109 C 0.45166 0.98567 0.97422 0.0
O110 O 0.5144 0.03552 0.09278 0.0
O111 O 0.54511 0.98803 0.12544 0.0
C112 C 0.4688 0.09002 0.06194 0.0
C113 C 0.52406 0.01874 0.1257 0.0
Zn114 Zn 0.5525 0.56188 0.56046 0.0
Zn115 Zn 0.46248 0.47075 0.4744 0.0
Zn116 Zn 0.50532 0.5153 0.51654 0.0
C117 C 0.50613 0.4193 0.51778 0.0
C118 C 0.50422 0.51383 0.42056 0.0
O119 O 0.46709 0.54901 0.55769 0.0
O120 O 0.50975 0.58085 0.5963 0.0
C121 C 0.57736 0.48399 0.57232 0.0
O122 O 0.52312 0.45261 0.52607 0.0
O123 O 0.47447 0.41878 0.49796 0.0
O124 O 0.48464 0.48192 0.42158 0.0
O125 O 0.51323 0.5318 0.45309 0.0
O126 O 0.58821 0.51913 0.57957 0.0
O127 O 0.54679 0.47722 0.55034 0.0
O128 O 0.53821 0.5558 0.47649 0.0
O129 O 0.57062 0.5968 0.51637 0.0
C130 C 0.56128 0.58591 0.4818 0.0
O131 O 0.44246 0.52437 0.53438 0.0
O132 O 0.41038 0.49368 0.48619 0.0
C133 C 0.47445 0.57214 0.58722 0.0
C134 C 0.40974 0.51471 0.51703 0.0
Zn135 Zn 0.06546 0.57473 0.96833 0.0
Zn136 Zn 0.97818 0.48417 0.05879 0.0
Zn137 Zn 0.02286 0.53141 0.01272 0.0
C138 C 0.05668 0.47559 0.08356 0.0
C139 C 0.96727 0.45908 0.98072 0.0
O140 O 0.00454 0.59422 0.02123 0.0
O141 O 0.05201 0.62699 0.99008 0.0
C142 C 0.11879 0.53384 0.0131 0.0
O143 O 0.06238 0.49872 0.05367 0.0
O144 O 0.02194 0.46622 0.09401 0.0
O145 O 0.95946 0.44831 0.01569 0.0
O146 O 0.98949 0.48963 0.97436 0.0
O147 O 0.11818 0.55377 0.98152 0.0
O148 O 0.08604 0.52404 0.03024 0.0
O149 O 0.01422 0.51301 0.95002 0.0
O150 O 0.04337 0.56092 0.91607 0.0
C151 C 0.02326 0.52932 0.91668 0.0
O152 O 0.98114 0.56957 0.04564 0.0
O153 O 0.94219 0.52697 0.07719 0.0
C154 C 0.02116 0.62721 0.01109 0.0
C155 C 0.9513 0.56224 0.06835 0.0
H156 H 0.25008 0.21086 0.35063 0.0
H157 H 0.06503 0.07008 0.37042 0.0
H158 H 0.14929 0.21925 0.27252 0.0
H159 H 0.12958 0.10586 0.47476 0.0
H160 H 0.09918 0.12164 0.33251 0.0
H161 H 0.2102 0.16966 0.39589 0.0
C162 C 0.21947 0.20437 0.34329 0.0
C163 C 0.20288 0.21843 0.30787 0.0
C164 C 0.10559 0.1186 0.3638 0.0
C165 C 0.15764 0.17116 0.35883 0.0
C166 C 0.08625 0.08914 0.38534 0.0
C167 C 0.09453 0.08403 0.42563 0.0
C168 C 0.13427 0.14241 0.38243 0.0
C169 C 0.12226 0.1093 0.44373 0.0
C170 C 0.19676 0.18112 0.36912 0.0
C171 C 0.16311 0.2093 0.29968 0.0
N172 N 0.14171 0.13719 0.4218 0.0
N173 N 0.14203 0.18579 0.32467 0.0
H174 H 0.30858 0.89354 0.79364 0.0
H175 H 0.47601 0.91118 0.95121 0.0
H176 H 0.3525 0.78477 0.84466 0.0
H177 H 0.37517 0.98906 0.95034 0.0
H178 H 0.4389 0.86441 0.90896 0.0
H179 H 0.34154 0.93055 0.84559 0.0
C180 C 0.32453 0.87714 0.81606 0.0
C181 C 0.32661 0.83556 0.81507 0.0
C182 C 0.42478 0.89138 0.91887 0.0
C183 C 0.36626 0.87866 0.87409 0.0
C184 C 0.44572 0.91783 0.94328 0.0
C185 C 0.4285 0.95387 0.95465 0.0
C186 C 0.38702 0.90182 0.90503 0.0
C187 C 0.38969 0.96175 0.94214 0.0
C188 C 0.34368 0.89853 0.84561 0.0
C189 C 0.34989 0.81669 0.8441 0.0
N190 N 0.37055 0.93629 0.91758 0.0
N191 N 0.36906 0.83843 0.87239 0.0
H192 H 0.75617 0.34756 0.69285 0.0
H193 H 0.54699 0.41617 0.60521 0.0
H194 H 0.64416 0.3183 0.74767 0.0
H195 H 0.65677 0.47861 0.5842 0.0
H196 H 0.58314 0.3676 0.64548 0.0
H197 H 0.72057 0.38385 0.64141 0.0
C198 C 0.72414 0.34858 0.6941 0.0
C199 C 0.7033 0.33016 0.72515 0.0
C200 C 0.59933 0.39164 0.63155 0.0
C201 C 0.66235 0.37101 0.66565 0.0
C202 C 0.57881 0.41908 0.60834 0.0
C203 C 0.59904 0.45128 0.59139 0.0
C204 C 0.6403 0.39641 0.6375 0.0
C205 C 0.64013 0.4542 0.59692 0.0
C206 C 0.70385 0.36912 0.66455 0.0
C207 C 0.66164 0.33166 0.72433 0.0
N208 N 0.65941 0.4272 0.61956 0.0
N209 N 0.64258 0.35192 0.69524 0.0
H210 H 0.76586 0.69428 0.18332 0.0
H211 H 0.97846 0.6322 0.09938 0.0
H212 H 0.87661 0.72833 0.23832 0.0
H213 H 0.87163 0.56464 0.07883 0.0
H214 H 0.93978 0.68048 0.13745 0.0
H215 H 0.8031 0.65866 0.13256 0.0
C216 C 0.79791 0.69456 0.18471 0.0
C217 C 0.81793 0.71416 0.21561 0.0
C218 C 0.92477 0.65537 0.12408 0.0
C219 C 0.86068 0.67412 0.15695 0.0
C220 C 0.94674 0.62808 0.10216 0.0
C221 C 0.92808 0.59456 0.08604 0.0
C222 C 0.88394 0.64906 0.1296 0.0
C223 C 0.88705 0.59011 0.09099 0.0
C224 C 0.81912 0.67441 0.15555 0.0
C225 C 0.85965 0.71419 0.21503 0.0
N226 N 0.86634 0.61697 0.11244 0.0
N227 N 0.87957 0.69432 0.18636 0.0
H228 H 0.34987 0.271 0.19677 0.0
H229 H 0.43605 0.06078 0.13007 0.0
H230 H 0.29475 0.15885 0.22596 0.0
H231 H 0.45886 0.16967 0.06713 0.0
H232 H 0.39677 0.09788 0.1786 0.0
H233 H 0.40182 0.23523 0.16142 0.0
C234 C 0.34869 0.23894 0.19604 0.0
C235 C 0.31743 0.2181 0.2142 0.0
C236 C 0.41092 0.11369 0.15448 0.0
C237 C 0.37743 0.17702 0.17447 0.0
C238 C 0.43356 0.09262 0.12707 0.0
C239 C 0.45068 0.11231 0.09473 0.0
C240 C 0.40561 0.15467 0.14948 0.0
C241 C 0.44598 0.15346 0.09167 0.0
C242 C 0.37853 0.21857 0.17604 0.0
C243 C 0.31829 0.17641 0.21296 0.0
N244 N 0.42376 0.17329 0.1186 0.0
N245 N 0.34762 0.15732 0.19328 0.0
H246 H 0.18126 0.78329 0.70275 0.0
H247 H 0.15629 0.96802 0.56425 0.0
H248 H 0.25251 0.88908 0.71582 0.0
H249 H 0.05264 0.90121 0.59852 0.0
H250 H 0.19438 0.9343 0.6156 0.0
H251 H 0.13492 0.82086 0.66074 0.0
C252 C 0.18684 0.81444 0.69719 0.0
C253 C 0.22066 0.83316 0.71285 0.0
C254 C 0.16321 0.92725 0.61223 0.0
C255 C 0.16859 0.8757 0.66471 0.0
C256 C 0.14158 0.94635 0.58291 0.0
C257 C 0.10142 0.93738 0.57751 0.0
C258 C 0.14484 0.8981 0.63561 0.0
C259 C 0.08358 0.90904 0.60223 0.0
C260 C 0.1604 0.8358 0.67348 0.0
C261 C 0.2266 0.87356 0.70476 0.0
N262 N 0.10562 0.88983 0.63003 0.0
N263 N 0.20118 0.89328 0.68086 0.0
H264 H 0.84458 0.2817 0.84275 0.0
H265 H 0.93529 0.48983 0.913 0.0
H266 H 0.79174 0.39447 0.81434 0.0
H267 H 0.95476 0.37969 0.97449 0.0
H268 H 0.89506 0.45412 0.86376 0.0
H269 H 0.89701 0.3166 0.87885 0.0
C270 C 0.84401 0.31376 0.84388 0.0
C271 C 0.81319 0.33503 0.82584 0.0
C272 C 0.90867 0.43774 0.88773 0.0
C273 C 0.87376 0.37514 0.86647 0.0
C274 C 0.93185 0.45801 0.91555 0.0
C275 C 0.94834 0.43756 0.94768 0.0
C276 C 0.90223 0.3968 0.89207 0.0
C277 C 0.94241 0.39648 0.95014 0.0
C278 C 0.87411 0.33363 0.8643 0.0
C279 C 0.81487 0.37667 0.82744 0.0
N280 N 0.91974 0.37744 0.92279 0.0
N281 N 0.84445 0.39533 0.84762 0.0
H282 H 0.73133 0.64624 0.3047 0.0
H283 H 0.5713 0.66529 0.47359 0.0
H284 H 0.6786 0.7579 0.33698 0.0
H285 H 0.59299 0.55448 0.41428 0.0
H286 H 0.60921 0.69977 0.42232 0.0
H287 H 0.6797 0.61171 0.34213 0.0
C288 C 0.70853 0.66355 0.31897 0.0
C289 C 0.70971 0.70519 0.31799 0.0
C290 C 0.60517 0.668 0.42003 0.0
C291 C 0.651 0.66569 0.36171 0.0
C292 C 0.58359 0.64836 0.44931 0.0
C293 C 0.57897 0.60711 0.44793 0.0
C294 C 0.62318 0.64611 0.38968 0.0
C295 C 0.59559 0.58642 0.41606 0.0
C296 C 0.67913 0.64375 0.34053 0.0
C297 C 0.67953 0.72586 0.33764 0.0
N298 N 0.61752 0.60608 0.38842 0.0
N299 N 0.6518 0.70595 0.35909 0.0
H300 H 0.19529 0.35537 0.26009 0.0
H301 H 0.12488 0.4453 0.05232 0.0
H302 H 0.22916 0.30604 0.1472 0.0
H303 H 0.06362 0.46334 0.16273 0.0
H304 H 0.17517 0.40649 0.08767 0.0
H305 H 0.15864 0.40705 0.2254 0.0
C306 C 0.19527 0.3555 0.22801 0.0
C307 C 0.2149 0.32582 0.20662 0.0
C308 C 0.15103 0.41947 0.10419 0.0
C309 C 0.17337 0.38539 0.16671 0.0
C310 C 0.12259 0.44185 0.08412 0.0
C311 C 0.09026 0.45756 0.10477 0.0
C312 C 0.14703 0.41302 0.14512 0.0
C313 C 0.08812 0.45162 0.14579 0.0
C314 C 0.17446 0.38513 0.20825 0.0
C315 C 0.21465 0.32827 0.16503 0.0
N316 N 0.11604 0.42974 0.16461 0.0
N317 N 0.19389 0.3573 0.14643 0.0
H318 H 0.72366 0.24971 0.89236 0.0
H319 H 0.56077 0.08218 0.87806 0.0
H320 H 0.68992 0.19617 0.78103 0.0
H321 H 0.62445 0.1059 0.98625 0.0
H322 H 0.60907 0.1223 0.84169 0.0
H323 H 0.68932 0.19647 0.92727 0.0
C324 C 0.70966 0.22648 0.87512 0.0
C325 C 0.70963 0.22778 0.83348 0.0
C326 C 0.613 0.11819 0.87326 0.0
C327 C 0.66925 0.16704 0.87364 0.0
C328 C 0.58546 0.0953 0.89398 0.0
C329 C 0.58881 0.09075 0.9351 0.0
C330 C 0.64355 0.13756 0.89397 0.0
C331 C 0.62113 0.10845 0.95446 0.0
C332 C 0.68987 0.19611 0.89521 0.0
C333 C 0.6901 0.19705 0.81306 0.0
N334 N 0.64696 0.13168 0.93381 0.0
N335 N 0.67035 0.16826 0.83332 0.0
H336 H 0.82171 0.85218 0.28041 0.0
H337 H 0.96245 0.87596 0.46363 0.0
H338 H 0.81343 0.77553 0.38234 0.0
H339 H 0.92506 0.97963 0.39947 0.0
H340 H 0.91075 0.83724 0.4306 0.0
H341 H 0.86208 0.8988 0.31969 0.0
C342 C 0.828 0.84547 0.31114 0.0
C343 C 0.81428 0.81003 0.32822 0.0
C344 C 0.91345 0.86856 0.42404 0.0
C345 C 0.86058 0.86254 0.37277 0.0
C346 C 0.94299 0.89056 0.44274 0.0
C347 C 0.94774 0.93088 0.43418 0.0
C348 C 0.8892 0.88674 0.39568 0.0
C349 C 0.92194 0.94857 0.40693 0.0
C350 C 0.85077 0.87207 0.33351 0.0
C351 C 0.82314 0.80266 0.36814 0.0
N352 N 0.894 0.92618 0.38802 0.0
N353 N 0.8462 0.82839 0.38886 0.0
H354 H 0.34436 0.69838 0.76694 0.0
H355 H 0.40456 0.60173 0.55899 0.0
H356 H 0.30654 0.74422 0.65364 0.0
H357 H 0.4722 0.58685 0.66626 0.0
H358 H 0.35678 0.64208 0.59583 0.0
H359 H 0.38075 0.64629 0.73242 0.0
C360 C 0.34349 0.69749 0.73489 0.0
C361 C 0.32241 0.72609 0.71332 0.0
C362 C 0.38179 0.62946 0.61138 0.0
C363 C 0.36343 0.66595 0.6737 0.0
C364 C 0.40877 0.60616 0.59048 0.0
C365 C 0.44219 0.59094 0.60973 0.0
C366 C 0.38831 0.63734 0.65176 0.0
C367 C 0.44681 0.59821 0.65038 0.0
C368 C 0.36409 0.66758 0.71525 0.0
C369 C 0.32177 0.7227 0.67177 0.0
N370 N 0.42027 0.62101 0.67003 0.0
N371 N 0.34209 0.69335 0.65337 0.0
H372 H 0.8705 0.90859 0.80041 0.0
H373 H 0.04014 0.97141 0.64871 0.0
H374 H 0.99272 0.92106 0.83569 0.0
H375 H 0.91764 0.95171 0.61798 0.0
H376 H 0.02705 0.94328 0.71474 0.0
H377 H 0.89016 0.91541 0.73144 0.0
C378 C 0.90159 0.91276 0.79346 0.0
C379 C 0.92997 0.91498 0.82364 0.0
C380 C 0.00329 0.94433 0.69321 0.0
C381 C 0.95296 0.92302 0.74458 0.0
C382 C 0.01086 0.95999 0.65549 0.0
C383 C 0.9798 0.96397 0.62821 0.0
C384 C 0.96443 0.93283 0.70329 0.0
C385 C 0.94226 0.94943 0.63843 0.0
C386 C 0.91291 0.91643 0.75406 0.0
C387 C 0.96997 0.91951 0.81311 0.0
N388 N 0.93555 0.93493 0.67522 0.0
N389 N 0.9803 0.924 0.77436 0.0
H390 H 0.56259 0.16711 0.32684 0.0
H391 H 0.50574 0.98026 0.19364 0.0
H392 H 0.57589 0.04508 0.362 0.0
H393 H 0.52457 0.09738 0.14603 0.0
H394 H 0.51025 0.00735 0.26051 0.0
H395 H 0.52934 0.14504 0.26595 0.0
C396 C 0.55769 0.13572 0.32211 0.0
C397 C 0.57229 0.10776 0.34916 0.0
C398 C 0.51252 0.02733 0.2355 0.0
C399 C 0.53446 0.08248 0.27993 0.0
C400 C 0.50971 0.01193 0.19736 0.0
C401 C 0.51514 0.03664 0.16442 0.0
C402 C 0.52136 0.06765 0.24073 0.0
C403 C 0.52012 0.07741 0.17074 0.0
C404 C 0.5389 0.12319 0.28736 0.0
C405 C 0.56549 0.06749 0.34159 0.0
N406 N 0.52386 0.09164 0.20829 0.0
N407 N 0.54732 0.05604 0.30754 0.0
H408 H 0.46006 0.66093 0.21971 0.0
H409 H 0.5215 0.47563 0.35221 0.0
H410 H 0.46211 0.53975 0.17926 0.0
H411 H 0.50216 0.59234 0.40002 0.0
H412 H 0.51645 0.50268 0.28544 0.0
H413 H 0.49029 0.63993 0.28231 0.0
C414 C 0.46746 0.63001 0.22379 0.0
C415 C 0.45811 0.6019 0.19453 0.0
C416 C 0.51404 0.52261 0.31043 0.0
C417 C 0.49256 0.57775 0.26586 0.0
C418 C 0.51716 0.5072 0.34854 0.0
C419 C 0.51191 0.53178 0.38154 0.0
C420 C 0.50492 0.56281 0.30526 0.0
C421 C 0.50646 0.57246 0.37526 0.0
C422 C 0.48458 0.61805 0.25952 0.0
C423 C 0.46815 0.56224 0.20135 0.0
N424 N 0.50238 0.58666 0.33775 0.0
N425 N 0.48455 0.55132 0.23638 0.0
H426 H 0.08017 0.37542 0.72829 0.0
H427 H 0.00553 0.56383 0.84635 0.0
H428 H 0.06359 0.49105 0.67646 0.0
H429 H 0.02557 0.45002 0.90049 0.0
H430 H 0.01132 0.53331 0.78113 0.0
H431 H 0.04639 0.39791 0.78806 0.0
C432 C 0.06878 0.40534 0.72918 0.0
C433 C 0.0752 0.4316 0.69751 0.0
C434 C 0.01362 0.51474 0.80718 0.0
C435 C 0.03694 0.45765 0.7661 0.0
C436 C 0.0101 0.53213 0.84439 0.0
C437 C 0.01544 0.5094 0.87868 0.0
C438 C 0.02337 0.47445 0.80429 0.0
C439 C 0.02121 0.46851 0.87467 0.0
C440 C 0.04962 0.4182 0.76341 0.0
C441 C 0.06006 0.4701 0.7005 0.0
N442 N 0.02583 0.45241 0.83805 0.0
N443 N 0.04204 0.48207 0.73434 0.0
H444 H 0.80463 0.9534 0.87339 0.0
H445 H 0.69056 0.03366 0.0621 0.0
H446 H 0.85846 0.97095 0.9881 0.0
H447 H 0.63485 0.01389 0.94882 0.0
H448 H 0.7553 0.02531 0.03125 0.0
H449 H 0.74582 0.98828 0.89636 0.0
C450 C 0.80438 0.96517 0.90322 0.0
C451 C 0.83638 0.95881 0.92904 0.0
C452 C 0.72904 0.02363 0.01287 0.0
C453 C 0.76885 0.99839 0.95566 0.0
C454 C 0.6921 0.02863 0.03045 0.0
C455 C 0.65743 0.02408 0.00799 0.0
C456 C 0.73126 0.01325 0.97267 0.0
C457 C 0.66094 0.01769 0.96713 0.0
C458 C 0.77068 0.98498 0.91636 0.0
C459 C 0.83416 0.97442 0.96747 0.0
N460 N 0.69725 0.01165 0.95087 0.0
N461 N 0.80083 0.99312 0.97972 0.0
H462 H 0.68893 0.04147 0.41895 0.0
H463 H 0.91286 0.11522 0.44476 0.0
H464 H 0.72852 0.16315 0.41568 0.0
H465 H 0.87641 0.99536 0.47042 0.0
H466 H 0.8472 0.12876 0.4183 0.0
H467 H 0.75844 0.02031 0.42462 0.0
C468 C 0.71229 0.06362 0.41913 0.0
C469 C 0.70312 0.10411 0.41757 0.0
C470 C 0.85353 0.09925 0.42909 0.0
C471 C 0.7821 0.08031 0.4234 0.0
C472 C 0.8911 0.09148 0.44391 0.0
C473 C 0.89974 0.05426 0.45988 0.0
C474 C 0.82401 0.06982 0.43103 0.0
C475 C 0.87071 0.02441 0.45814 0.0
C476 C 0.75181 0.05158 0.42233 0.0
C477 C 0.7343 0.13169 0.41767 0.0
N478 N 0.83369 0.03304 0.44463 0.0
N479 N 0.77228 0.11928 0.4207 0.0
H480 H 0.36328 0.57449 0.03858 0.0
H481 H 0.13804 0.53389 0.09201 0.0
H482 H 0.31878 0.57823 0.15815 0.0
H483 H 0.18799 0.51885 0.97556 0.0
H484 H 0.20525 0.53862 0.1194 0.0
H485 H 0.30115 0.54398 0.01709 0.0
C486 C 0.34043 0.56854 0.06033 0.0
C487 C 0.34584 0.57932 0.10003 0.0
C488 C 0.20151 0.53337 0.08799 0.0
C489 C 0.27443 0.54471 0.07575 0.0
C490 C 0.16317 0.53031 0.07244 0.0
C491 C 0.15762 0.52629 0.03148 0.0
C492 C 0.23423 0.53285 0.0622 0.0
C493 C 0.19108 0.52239 0.00729 0.0
C494 C 0.30501 0.55095 0.04816 0.0
C495 C 0.31563 0.57041 0.12721 0.0
N496 N 0.22791 0.52635 0.02291 0.0
N497 N 0.28089 0.55419 0.11446 0.0
H498 H 0.20882 0.47109 0.66402 0.0
H499 H 0.34159 0.53073 0.47802 0.0
H500 H 0.17533 0.45416 0.54188 0.0
H501 H 0.38903 0.51513 0.59554 0.0
H502 H 0.27471 0.52378 0.50459 0.0
H503 H 0.26884 0.50612 0.64218 0.0
C504 C 0.21373 0.47549 0.63262 0.0
C505 C 0.18737 0.45944 0.60461 0.0
C506 C 0.29965 0.52275 0.52477 0.0
C507 C 0.25566 0.49937 0.57959 0.0
C508 C 0.33779 0.52699 0.50967 0.0
C509 C 0.37076 0.52303 0.53462 0.0
C510 C 0.29445 0.51403 0.56504 0.0
C511 C 0.36431 0.51836 0.57537 0.0
C512 C 0.248 0.49531 0.62023 0.0
C513 C 0.19522 0.46565 0.56435 0.0
N514 N 0.32679 0.5132 0.5893 0.0
N515 N 0.22878 0.48491 0.55304 0.0
H516 H 0.99385 0.86415 0.95052 0.0
H517 H 0.94209 0.6454 0.01238 0.0
H518 H 0.8734 0.82435 0.96704 0.0
H519 H 0.05854 0.69711 0.02472 0.0
H520 H 0.91446 0.71206 0.00532 0.0
H521 H 0.01712 0.80521 0.9853 0.0
C522 C 0.97234 0.84314 0.96198 0.0
C523 C 0.93177 0.84882 0.95571 0.0
C524 C 0.94593 0.70888 0.01064 0.0
C525 C 0.95798 0.78098 0.995 0.0
C526 C 0.9616 0.67085 0.01506 0.0
C527 C 0.00264 0.66587 0.01881 0.0
C528 C 0.97168 0.74181 0.00933 0.0
C529 C 0.02675 0.69975 0.02141 0.0
C530 C 0.98554 0.80957 0.98198 0.0
C531 C 0.90499 0.82095 0.97136 0.0
N532 N 0.01103 0.73621 0.01589 0.0
N533 N 0.91859 0.7878 0.98969 0.0
H534 H 0.37749 0.71874 0.07819 0.0
H535 H 0.56103 0.85407 0.0138 0.0
H536 H 0.49947 0.68138 0.07811 0.0
H537 H 0.44443 0.90059 0.03575 0.0
H538 H 0.53461 0.78696 0.0202 0.0
H539 H 0.39778 0.78158 0.04757 0.0
C540 C 0.40846 0.72356 0.07117 0.0
C541 C 0.43697 0.69509 0.08109 0.0
C542 C 0.51456 0.81174 0.02291 0.0
C543 C 0.46027 0.76662 0.04613 0.0
C544 C 0.52958 0.85002 0.019 0.0
C545 C 0.50488 0.88276 0.0246 0.0
C546 C 0.47462 0.80613 0.03311 0.0
C547 C 0.46439 0.87601 0.0312 0.0
C548 C 0.41999 0.75941 0.05382 0.0
C549 C 0.47667 0.70284 0.07155 0.0
N550 N 0.45056 0.83833 0.03599 0.0
N551 N 0.48715 0.73794 0.05483 0.0
H552 H 0.12496 0.30349 0.66111 0.0
H553 H 0.06081 0.15514 0.4892 0.0
H554 H 0.1136 0.34116 0.53966 0.0
H555 H 0.08366 0.12133 0.61012 0.0
H556 H 0.08902 0.22111 0.50327 0.0
H557 H 0.1179 0.23488 0.64004 0.0
C558 C 0.12099 0.29713 0.62989 0.0
C559 C 0.11917 0.32787 0.60213 0.0
C560 C 0.08867 0.19893 0.52643 0.0
C561 C 0.11085 0.24923 0.57753 0.0
C562 C 0.07296 0.16125 0.51829 0.0
C563 C 0.06987 0.13308 0.54867 0.0
C564 C 0.10104 0.20811 0.56521 0.0
C565 C 0.08529 0.14246 0.58602 0.0
C566 C 0.11718 0.25794 0.61776 0.0
C567 C 0.11484 0.31812 0.56194 0.0
N568 N 0.09978 0.17924 0.59332 0.0
N569 N 0.1102 0.27956 0.55082 0.0
H570 H 0.65713 0.23028 0.45773 0.0
H571 H 0.47073 0.34915 0.53566 0.0
H572 H 0.54038 0.17973 0.47299 0.0
H573 H 0.58522 0.40253 0.51508 0.0
H574 H 0.5002 0.28371 0.52856 0.0
H575 H 0.63558 0.28972 0.49265 0.0
C576 C 0.62714 0.23137 0.46904 0.0
C577 C 0.60033 0.20015 0.46198 0.0
C578 C 0.51916 0.30963 0.52645 0.0
C579 C 0.57538 0.26838 0.5016 0.0
C580 C 0.50237 0.34697 0.53075 0.0
C581 C 0.52557 0.38115 0.52556 0.0
C582 C 0.5593 0.30651 0.51611 0.0
C583 C 0.56636 0.37682 0.51934 0.0
C584 C 0.61483 0.26542 0.48886 0.0
C585 C 0.56177 0.20342 0.47703 0.0
N586 N 0.58185 0.34011 0.51395 0.0
N587 N 0.55035 0.23708 0.49575 0.0
loop_
_geom_bond_atom_site_label_1
_geom_bond_atom_site_label_2
_geom_bond_distance
_geom_bond_site_symmetry_2
_ccdc_geom_bond_type
H0 C3 0.931 . S
H1 C6 0.928 . S
H2 C8 0.930 . S
C3 H0 0.931 . S
C3 C4 1.413 . S
C3 C5 1.360 . S
C4 C3 1.413 . S
C4 C8 1.429 . S
C5 C3 1.360 . S
C5 C6 1.372 . S
C6 H1 0.928 . S
C6 C5 1.372 . S
C6 C7 1.404 . S
C7 C6 1.404 . S
C7 C8 1.391 . S
C8 H2 0.930 . S
C8 C4 1.429 . S
C8 C7 1.391 . S
H9 C12 0.931 . S
H10 C15 0.928 . S
H11 C17 0.930 . S
C12 H9 0.931 . S
C12 C13 1.413 . S
C12 C14 1.360 . S
C13 C12 1.413 . S
C13 C17 1.429 . S
C14 C12 1.360 . S
C14 C15 1.372 . S
C15 H10 0.928 . S
C15 C14 1.372 . S
C15 C16 1.404 . S
C16 C15 1.404 . S
C16 C17 1.391 . S
C17 H11 0.930 . S
C17 C13 1.429 . S
C17 C16 1.391 . S
H18 C21 0.931 . S
H19 C24 0.928 . S
H20 C26 0.930 . S
C21 H18 0.931 . S
C21 C22 1.413 . S
C21 C23 1.360 . S
C22 C21 1.413 . S
C22 C26 1.429 . S
C23 C21 1.360 . S
C23 C24 1.372 . S
C24 H19 0.928 . S
C24 C23 1.372 . S
C24 C25 1.404 . S
C25 C24 1.404 . S
C25 C26 1.391 . S
C26 H20 0.930 . S
C26 C22 1.429 . S
C26 C25 1.391 . S
H27 C30 0.931 . S
H28 C33 0.928 . S
H29 C35 0.930 . S
C30 H27 0.931 . S
C30 C31 1.413 . S
C30 C32 1.360 . S
C31 C30 1.413 . S
C31 C35 1.429 . S
C32 C30 1.360 . S
C32 C33 1.372 . S
C33 H28 0.928 . S
C33 C32 1.372 . S
C33 C34 1.404 . S
C34 C33 1.404 . S
C34 C35 1.391 . S
C35 H29 0.930 . S
C35 C31 1.429 . S
C35 C34 1.391 . S
H36 C39 0.931 . S
H37 C42 0.928 . S
H38 C44 0.930 . S
C39 H36 0.931 . S
C39 C40 1.413 . S
C39 C41 1.360 . S
C40 C39 1.413 . S
C40 C44 1.429 . S
C41 C39 1.360 . S
C41 C42 1.372 . S
C42 H37 0.928 . S
C42 C41 1.372 . S
C42 C43 1.404 . S
C43 C42 1.404 . S
C43 C44 1.391 . S
C44 H38 0.930 . S
C44 C40 1.429 . S
C44 C43 1.391 . S
H45 C48 0.931 . S
H46 C51 0.928 . S
H47 C53 0.930 . S
C48 H45 0.931 . S
C48 C49 1.413 . S
C48 C50 1.360 . S
C49 C48 1.413 . S
C49 C53 1.429 . S
C50 C48 1.360 . S
C50 C51 1.372 . S
C51 H46 0.928 . S
C51 C50 1.372 . S
C51 C52 1.404 . S
C52 C51 1.404 . S
C52 C53 1.391 . S
C53 H47 0.930 . S
C53 C49 1.429 . S
C53 C52 1.391 . S
H54 C57 0.931 . S
H55 C60 0.928 . S
H56 C62 0.930 . S
C57 H54 0.931 . S
C57 C58 1.413 . S
C57 C59 1.360 . S
C58 C57 1.413 . S
C58 C62 1.429 . S
C59 C57 1.360 . S
C59 C60 1.372 . S
C60 H55 0.928 . S
C60 C59 1.372 . S
C60 C61 1.404 . S
C61 C60 1.404 . S
C61 C62 1.391 . S
C62 H56 0.930 . S
C62 C58 1.429 . S
C62 C61 1.391 . S
H63 C66 0.931 . S
H64 C69 0.928 . S
H65 C71 0.930 . S
C66 H63 0.931 . S
C66 C67 1.413 . S
C66 C68 1.360 . S
C67 C66 1.413 . S
C67 C71 1.429 . S
C68 C66 1.360 . S
C68 C69 1.372 . S
C69 H64 0.928 . S
C69 C68 1.372 . S
C69 C70 1.404 . S
C70 C69 1.404 . S
C70 C71 1.391 . S
C71 H65 0.930 . S
C71 C67 1.429 . S
C71 C70 1.391 . S
Zn72 O78 1.920 . S
Zn72 O84 1.898 . S
Zn72 O87 1.905 . S
Zn73 O81 1.905 1_565 S
Zn73 O82 1.898 . S
Zn73 O90 1.920 . S
Zn74 O77 2.080 1_455 S
Zn74 O80 2.114 . S
Zn74 O83 2.120 1_445 S
Zn74 O85 2.120 . S
Zn74 O86 2.114 1_455 S
Zn74 O89 2.080 . S
C75 O80 1.166 . S
C75 O81 1.182 . S
C76 O82 1.167 1_655 S
C76 O83 1.299 . S
O77 Zn74 2.080 1_655 S
O77 C91 1.305 . S
O78 Zn72 1.920 . S
O78 C91 1.234 . S
C79 O84 1.167 1_455 S
C79 O85 1.299 . S
O80 Zn74 2.114 . S
O80 C75 1.166 . S
O81 Zn73 1.905 1_545 S
O81 C75 1.182 . S
O82 Zn73 1.898 . S
O82 C76 1.167 1_455 S
O83 Zn74 2.120 1_665 S
O83 C76 1.299 . S
O84 Zn72 1.898 . S
O84 C79 1.167 1_655 S
O85 Zn74 2.120 . S
O85 C79 1.299 . S
O86 Zn74 2.114 1_655 S
O86 C88 1.166 . S
O87 Zn72 1.905 . S
O87 C88 1.182 . S
C88 O86 1.166 . S
C88 O87 1.182 . S
O89 Zn74 2.080 . S
O89 C92 1.305 1_545 S
O90 Zn73 1.920 . S
O90 C92 1.234 . S
C91 O77 1.305 . S
C91 O78 1.234 . S
C92 O89 1.305 1_565 S
C92 O90 1.234 . S
Zn93 O99 1.920 1_556 S
Zn93 O105 1.898 . S
Zn93 O108 1.905 . S
Zn94 O102 1.905 . S
Zn94 O103 1.898 . S
Zn94 O111 1.920 . S
Zn95 O98 2.080 . S
Zn95 O101 2.114 1_545 S
Zn95 O104 2.120 1_545 S
Zn95 O106 2.120 . S
Zn95 O107 2.114 1_544 S
Zn95 O110 2.080 . S
C96 O101 1.166 . S
C96 O102 1.182 . S
C97 O103 1.167 . S
C97 O104 1.299 . S
O98 Zn95 2.080 . S
O98 C112 1.305 . S
O99 Zn93 1.920 1_554 S
O99 C112 1.234 . S
C100 O105 1.167 . S
C100 O106 1.299 1_556 S
O101 Zn95 2.114 1_565 S
O101 C96 1.166 . S
O102 Zn94 1.905 . S
O102 C96 1.182 . S
O103 Zn94 1.898 . S
O103 C97 1.167 . S
O104 Zn95 2.120 1_565 S
O104 C97 1.299 . S
O105 Zn93 1.898 . S
O105 C100 1.167 . S
O106 Zn95 2.120 . S
O106 C100 1.299 1_554 S
O107 Zn95 2.114 1_566 S
O107 C109 1.166 . S
O108 Zn93 1.905 . S
O108 C109 1.182 1_545 S
C109 O107 1.166 . S
C109 O108 1.182 1_565 S
O110 Zn95 2.080 . S
O110 C113 1.305 . S
O111 Zn94 1.920 . S
O111 C113 1.234 1_565 S
C112 O98 1.305 . S
C112 O99 1.234 . S
C113 O110 1.305 . S
C113 O111 1.234 1_545 S
Zn114 O120 1.920 . S
Zn114 O126 1.898 . S
Zn114 O129 1.905 . S
Zn115 O123 1.905 . S
Zn115 O124 1.898 . S
Zn115 O132 1.920 . S
Zn116 O119 2.080 . S
Zn116 O122 2.114 . S
Zn116 O125 2.120 . S
Zn116 O127 2.120 . S
Zn116 O128 2.114 . S
Zn116 O131 2.080 . S
C117 O122 1.166 . S
C117 O123 1.182 . S
C118 O124 1.167 . S
C118 O125 1.299 . S
O119 Zn116 2.080 . S
O119 C133 1.305 . S
O120 Zn114 1.920 . S
O120 C133 1.234 . S
C121 O126 1.167 . S
C121 O127 1.299 . S
O122 Zn116 2.114 . S
O122 C117 1.166 . S
O123 Zn115 1.905 . S
O123 C117 1.182 . S
O124 Zn115 1.898 . S
O124 C118 1.167 . S
O125 Zn116 2.120 . S
O125 C118 1.299 . S
O126 Zn114 1.898 . S
O126 C121 1.167 . S
O127 Zn116 2.120 . S
O127 C121 1.299 . S
O128 Zn116 2.114 . S
O128 C130 1.166 . S
O129 Zn114 1.905 . S
O129 C130 1.182 . S
C130 O128 1.166 . S
C130 O129 1.182 . S
O131 Zn116 2.080 . S
O131 C134 1.305 . S
O132 Zn115 1.920 . S
O132 C134 1.234 . S
C133 O119 1.305 . S
C133 O120 1.234 . S
C134 O131 1.305 . S
C134 O132 1.234 . S
Zn135 O141 1.920 . S
Zn135 O147 1.898 . S
Zn135 O150 1.905 . S
Zn136 O144 1.905 1_655 S
Zn136 O145 1.898 . S
Zn136 O153 1.920 . S
Zn137 O140 2.080 1_554 S
Zn137 O143 2.114 . S
Zn137 O146 2.120 1_454 S
Zn137 O148 2.120 . S
Zn137 O149 2.114 1_554 S
Zn137 O152 2.080 . S
C138 O143 1.166 . S
C138 O144 1.182 . S
C139 O145 1.167 1_556 S
C139 O146 1.299 . S
O140 Zn137 2.080 1_556 S
O140 C154 1.305 . S
O141 Zn135 1.920 . S
O141 C154 1.234 . S
C142 O147 1.167 1_554 S
C142 O148 1.299 . S
O143 Zn137 2.114 . S
O143 C138 1.166 . S
O144 Zn136 1.905 1_455 S
O144 C138 1.182 . S
O145 Zn136 1.898 . S
O145 C139 1.167 1_554 S
O146 Zn137 2.120 1_656 S
O146 C139 1.299 . S
O147 Zn135 1.898 . S
O147 C142 1.167 1_556 S
O148 Zn137 2.120 . S
O148 C142 1.299 . S
O149 Zn137 2.114 1_556 S
O149 C151 1.166 . S
O150 Zn135 1.905 . S
O150 C151 1.182 . S
C151 O149 1.166 . S
C151 O150 1.182 . S
O152 Zn137 2.080 . S
O152 C155 1.305 1_455 S
O153 Zn136 1.920 . S
O153 C155 1.234 . S
C154 O140 1.305 . S
C154 O141 1.234 . S
C155 O152 1.305 1_655 S
C155 O153 1.234 . S
H156 C162 0.930 . S
H157 C166 0.930 . S
H158 C171 0.929 . S
H159 C169 0.929 . S
H160 C164 0.929 . S
H161 C170 0.929 . S
C162 H156 0.930 . S
C162 C163 1.367 . S
C162 C170 1.378 . S
C163 C162 1.367 . S
C163 C171 1.433 . S
C164 H160 0.929 . S
C164 C166 1.378 . S
C164 C168 1.350 . S
C165 C168 1.463 . S
C165 C170 1.350 . S
C165 N173 1.427 . S
C166 H157 0.930 . S
C166 C164 1.378 . S
C166 C167 1.367 . S
C167 C166 1.367 . S
C167 C169 1.433 . S
C168 C164 1.350 . S
C168 C165 1.463 . S
C168 N172 1.427 . S
C169 H159 0.929 . S
C169 C167 1.433 . S
C169 N172 1.384 . S
C170 H161 0.929 . S
C170 C162 1.378 . S
C170 C165 1.350 . S
C171 H158 0.929 . S
C171 C163 1.433 . S
C171 N173 1.384 . S
N172 C168 1.427 . S
N172 C169 1.384 . S
N173 C165 1.427 . S
N173 C171 1.384 . S
H174 C180 0.930 . S
H175 C184 0.930 . S
H176 C189 0.929 . S
H177 C187 0.929 1_545 S
H178 C182 0.929 . S
H179 C188 0.929 . S
C180 H174 0.930 . S
C180 C181 1.367 . S
C180 C188 1.378 . S
C181 C180 1.367 . S
C181 C189 1.433 . S
C182 H178 0.929 . S
C182 C184 1.378 . S
C182 C186 1.350 . S
C183 C186 1.463 . S
C183 C188 1.350 . S
C183 N191 1.427 . S
C184 H175 0.930 . S
C184 C182 1.378 . S
C184 C185 1.367 . S
C185 C184 1.367 . S
C185 C187 1.433 . S
C186 C182 1.350 . S
C186 C183 1.463 . S
C186 N190 1.427 . S
C187 H177 0.929 1_565 S
C187 C185 1.433 . S
C187 N190 1.384 . S
C188 H179 0.929 . S
C188 C180 1.378 . S
C188 C183 1.350 . S
C189 H176 0.929 . S
C189 C181 1.433 . S
C189 N191 1.384 . S
N190 C186 1.427 . S
N190 C187 1.384 . S
N191 C183 1.427 . S
N191 C189 1.384 . S
H192 C198 0.930 . S
H193 C202 0.930 . S
H194 C207 0.929 . S
H195 C205 0.929 . S
H196 C200 0.929 . S
H197 C206 0.929 . S
C198 H192 0.930 . S
C198 C199 1.367 . S
C198 C206 1.378 . S
C199 C198 1.367 . S
C199 C207 1.433 . S
C200 H196 0.929 . S
C200 C202 1.378 . S
C200 C204 1.350 . S
C201 C204 1.463 . S
C201 C206 1.350 . S
C201 N209 1.427 . S
C202 H193 0.930 . S
C202 C200 1.378 . S
C202 C203 1.367 . S
C203 C202 1.367 . S
C203 C205 1.433 . S
C204 C200 1.350 . S
C204 C201 1.463 . S
C204 N208 1.427 . S
C205 H195 0.929 . S
C205 C203 1.433 . S
C205 N208 1.384 . S
C206 H197 0.929 . S
C206 C198 1.378 . S
C206 C201 1.350 . S
C207 H194 0.929 . S
C207 C199 1.433 . S
C207 N209 1.384 . S
N208 C204 1.427 . S
N208 C205 1.384 . S
N209 C201 1.427 . S
N209 C207 1.384 . S
H210 C216 0.930 . S
H211 C220 0.930 1_455 S
H212 C225 0.929 . S
H213 C223 0.929 . S
H214 C218 0.929 . S
H215 C224 0.929 . S
C216 H210 0.930 . S
C216 C217 1.367 . S
C216 C224 1.378 . S
C217 C216 1.367 . S
C217 C225 1.433 . S
C218 H214 0.929 . S
C218 C220 1.378 . S
C218 C222 1.350 . S
C219 C222 1.463 . S
C219 C224 1.350 . S
C219 N227 1.427 . S
C220 H211 0.930 1_655 S
C220 C218 1.378 . S
C220 C221 1.367 . S
C221 C220 1.367 . S
C221 C223 1.433 . S
C222 C218 1.350 . S
C222 C219 1.463 . S
C222 N226 1.427 . S
C223 H213 0.929 . S
C223 C221 1.433 . S
C223 N226 1.384 . S
C224 H215 0.929 . S
C224 C216 1.378 . S
C224 C219 1.350 . S
C225 H212 0.929 . S
C225 C217 1.433 . S
C225 N227 1.384 . S
N226 C222 1.427 . S
N226 C223 1.384 . S
N227 C219 1.427 . S
N227 C225 1.384 . S
H228 C234 0.930 . S
H229 C238 0.930 . S
H230 C243 0.929 . S
H231 C241 0.929 . S
H232 C236 0.929 . S
H233 C242 0.929 . S
C234 H228 0.930 . S
C234 C235 1.367 . S
C234 C242 1.378 . S
C235 C234 1.367 . S
C235 C243 1.433 . S
C236 H232 0.929 . S
C236 C238 1.378 . S
C236 C240 1.350 . S
C237 C240 1.463 . S
C237 C242 1.350 . S
C237 N245 1.427 . S
C238 H229 0.930 . S
C238 C236 1.378 . S
C238 C239 1.367 . S
C239 C238 1.367 . S
C239 C241 1.433 . S
C240 C236 1.350 . S
C240 C237 1.463 . S
C240 N244 1.427 . S
C241 H231 0.929 . S
C241 C239 1.433 . S
C241 N244 1.384 . S
C242 H233 0.929 . S
C242 C234 1.378 . S
C242 C237 1.350 . S
C243 H230 0.929 . S
C243 C235 1.433 . S
C243 N245 1.384 . S
N244 C240 1.427 . S
N244 C241 1.384 . S
N245 C237 1.427 . S
N245 C243 1.384 . S
H246 C252 0.930 . S
H247 C256 0.930 1_545 S
H248 C261 0.929 . S
H249 C259 0.929 . S
H250 C254 0.929 . S
H251 C260 0.929 . S
C252 H246 0.930 . S
C252 C253 1.367 . S
C252 C260 1.378 . S
C253 C252 1.367 . S
C253 C261 1.433 . S
C254 H250 0.929 . S
C254 C256 1.378 . S
C254 C258 1.350 . S
C255 C258 1.463 . S
C255 C260 1.350 . S
C255 N263 1.427 . S
C256 H247 0.930 1_565 S
C256 C254 1.378 . S
C256 C257 1.367 . S
C257 C256 1.367 . S
C257 C259 1.433 . S
C258 C254 1.350 . S
C258 C255 1.463 . S
C258 N262 1.427 . S
C259 H249 0.929 . S
C259 C257 1.433 . S
C259 N262 1.384 . S
C260 H251 0.929 . S
C260 C252 1.378 . S
C260 C255 1.350 . S
C261 H248 0.929 . S
C261 C253 1.433 . S
C261 N263 1.384 . S
N262 C258 1.427 . S
N262 C259 1.384 . S
N263 C255 1.427 . S
N263 C261 1.384 . S
H264 C270 0.930 . S
H265 C274 0.930 . S
H266 C279 0.929 . S
H267 C277 0.929 . S
H268 C272 0.929 . S
H269 C278 0.929 . S
C270 H264 0.930 . S
C270 C271 1.367 . S
C270 C278 1.378 . S
C271 C270 1.367 . S
C271 C279 1.433 . S
C272 H268 0.929 . S
C272 C274 1.378 . S
C272 C276 1.350 . S
C273 C276 1.463 . S
C273 C278 1.350 . S
C273 N281 1.427 . S
C274 H265 0.930 . S
C274 C272 1.378 . S
C274 C275 1.367 . S
C275 C274 1.367 . S
C275 C277 1.433 . S
C276 C272 1.350 . S
C276 C273 1.463 . S
C276 N280 1.427 . S
C277 H267 0.929 . S
C277 C275 1.433 . S
C277 N280 1.384 . S
C278 H269 0.929 . S
C278 C270 1.378 . S
C278 C273 1.350 . S
C279 H266 0.929 . S
C279 C271 1.433 . S
C279 N281 1.384 . S
N280 C276 1.427 . S
N280 C277 1.384 . S
N281 C273 1.427 . S
N281 C279 1.384 . S
H282 C288 0.930 . S
H283 C292 0.930 . S
H284 C297 0.929 . S
H285 C295 0.929 . S
H286 C290 0.929 . S
H287 C296 0.929 . S
C288 H282 0.930 . S
C288 C289 1.367 . S
C288 C296 1.378 . S
C289 C288 1.367 . S
C289 C297 1.433 . S
C290 H286 0.929 . S
C290 C292 1.378 . S
C290 C294 1.350 . S
C291 C294 1.463 . S
C291 C296 1.350 . S
C291 N299 1.427 . S
C292 H283 0.930 . S
C292 C290 1.378 . S
C292 C293 1.367 . S
C293 C292 1.367 . S
C293 C295 1.433 . S
C294 C290 1.350 . S
C294 C291 1.463 . S
C294 N298 1.427 . S
C295 H285 0.929 . S
C295 C293 1.433 . S
C295 N298 1.384 . S
C296 H287 0.929 . S
C296 C288 1.378 . S
C296 C291 1.350 . S
C297 H284 0.929 . S
C297 C289 1.433 . S
C297 N299 1.384 . S
N298 C294 1.427 . S
N298 C295 1.384 . S
N299 C291 1.427 . S
N299 C297 1.384 . S
H300 C306 0.930 . S
H301 C310 0.930 . S
H302 C315 0.929 . S
H303 C313 0.929 . S
H304 C308 0.929 . S
H305 C314 0.929 . S
C306 H300 0.930 . S
C306 C307 1.367 . S
C306 C314 1.378 . S
C307 C306 1.367 . S
C307 C315 1.433 . S
C308 H304 0.929 . S
C308 C310 1.378 . S
C308 C312 1.350 . S
C309 C312 1.463 . S
C309 C314 1.350 . S
C309 N317 1.427 . S
C310 H301 0.930 . S
C310 C308 1.378 . S
C310 C311 1.367 . S
C311 C310 1.367 . S
C311 C313 1.433 . S
C312 C308 1.350 . S
C312 C309 1.463 . S
C312 N316 1.427 . S
C313 H303 0.929 . S
C313 C311 1.433 . S
C313 N316 1.384 . S
C314 H305 0.929 . S
C314 C306 1.378 . S
C314 C309 1.350 . S
C315 H302 0.929 . S
C315 C307 1.433 . S
C315 N317 1.384 . S
N316 C312 1.427 . S
N316 C313 1.384 . S
N317 C309 1.427 . S
N317 C315 1.384 . S
H318 C324 0.930 . S
H319 C328 0.930 . S
H320 C333 0.929 . S
H321 C331 0.929 1_554 S
H322 C326 0.929 . S
H323 C332 0.929 . S
C324 H318 0.930 . S
C324 C325 1.367 . S
C324 C332 1.378 . S
C325 C324 1.367 . S
C325 C333 1.433 . S
C326 H322 0.929 . S
C326 C328 1.378 . S
C326 C330 1.350 . S
C327 C330 1.463 . S
C327 C332 1.350 . S
C327 N335 1.427 . S
C328 H319 0.930 . S
C328 C326 1.378 . S
C328 C329 1.367 . S
C329 C328 1.367 . S
C329 C331 1.433 . S
C330 C326 1.350 . S
C330 C327 1.463 . S
C330 N334 1.427 . S
C331 H321 0.929 1_556 S
C331 C329 1.433 . S
C331 N334 1.384 . S
C332 H323 0.929 . S
C332 C324 1.378 . S
C332 C327 1.350 . S
C333 H320 0.929 . S
C333 C325 1.433 . S
C333 N335 1.384 . S
N334 C330 1.427 . S
N334 C331 1.384 . S
N335 C327 1.427 . S
N335 C333 1.384 . S
H336 C342 0.930 . S
H337 C346 0.930 . S
H338 C351 0.929 . S
H339 C349 0.929 . S
H340 C344 0.929 . S
H341 C350 0.929 . S
C342 H336 0.930 . S
C342 C343 1.367 . S
C342 C350 1.378 . S
C343 C342 1.367 . S
C343 C351 1.433 . S
C344 H340 0.929 . S
C344 C346 1.378 . S
C344 C348 1.350 . S
C345 C348 1.463 . S
C345 C350 1.350 . S
C345 N353 1.427 . S
C346 H337 0.930 . S
C346 C344 1.378 . S
C346 C347 1.367 . S
C347 C346 1.367 . S
C347 C349 1.433 . S
C348 C344 1.350 . S
C348 C345 1.463 . S
C348 N352 1.427 . S
C349 H339 0.929 . S
C349 C347 1.433 . S
C349 N352 1.384 . S
C350 H341 0.929 . S
C350 C342 1.378 . S
C350 C345 1.350 . S
C351 H338 0.929 . S
C351 C343 1.433 . S
C351 N353 1.384 . S
N352 C348 1.427 . S
N352 C349 1.384 . S
N353 C345 1.427 . S
N353 C351 1.384 . S
H354 C360 0.930 . S
H355 C364 0.930 . S
H356 C369 0.929 . S
H357 C367 0.929 . S
H358 C362 0.929 . S
H359 C368 0.929 . S
C360 H354 0.930 . S
C360 C361 1.367 . S
C360 C368 1.378 . S
C361 C360 1.367 . S
C361 C369 1.433 . S
C362 H358 0.929 . S
C362 C364 1.378 . S
C362 C366 1.350 . S
C363 C366 1.463 . S
C363 C368 1.350 . S
C363 N371 1.427 . S
C364 H355 0.930 . S
C364 C362 1.378 . S
C364 C365 1.367 . S
C365 C364 1.367 . S
C365 C367 1.433 . S
C366 C362 1.350 . S
C366 C363 1.463 . S
C366 N370 1.427 . S
C367 H357 0.929 . S
C367 C365 1.433 . S
C367 N370 1.384 . S
C368 H359 0.929 . S
C368 C360 1.378 . S
C368 C363 1.350 . S
C369 H356 0.929 . S
C369 C361 1.433 . S
C369 N371 1.384 . S
N370 C366 1.427 . S
N370 C367 1.384 . S
N371 C363 1.427 . S
N371 C369 1.384 . S
H372 C378 0.930 . S
H373 C382 0.930 . S
H374 C387 0.929 1_455 S
H375 C385 0.929 . S
H376 C380 0.929 . S
H377 C386 0.929 . S
C378 H372 0.930 . S
C378 C379 1.367 . S
C378 C386 1.378 . S
C379 C378 1.367 . S
C379 C387 1.433 . S
C380 H376 0.929 . S
C380 C382 1.378 1_565 S
C380 C384 1.350 1_455 S
C381 C384 1.463 . S
C381 C386 1.350 . S
C381 N389 1.427 . S
C382 H373 0.930 . S
C382 C380 1.378 1_545 S
C382 C383 1.367 1_455 S
C383 C382 1.367 1_655 S
C383 C385 1.433 . S
C384 C380 1.350 1_655 S
C384 C381 1.463 . S
C384 N388 1.427 . S
C385 H375 0.929 . S
C385 C383 1.433 . S
C385 N388 1.384 1_545 S
C386 H377 0.929 . S
C386 C378 1.378 . S
C386 C381 1.350 . S
C387 H374 0.929 1_655 S
C387 C379 1.433 . S
C387 N389 1.384 . S
N388 C384 1.427 . S
N388 C385 1.384 1_565 S
N389 C381 1.427 . S
N389 C387 1.384 . S
H390 C396 0.930 . S
H391 C400 0.930 . S
H392 C405 0.929 . S
H393 C403 0.929 . S
H394 C398 0.929 . S
H395 C404 0.929 . S
C396 H390 0.930 . S
C396 C397 1.367 . S
C396 C404 1.378 . S
C397 C396 1.367 . S
C397 C405 1.433 . S
C398 H394 0.929 . S
C398 C400 1.378 . S
C398 C402 1.350 . S
C399 C402 1.463 . S
C399 C404 1.350 . S
C399 N407 1.427 . S
C400 H391 0.930 . S
C400 C398 1.378 . S
C400 C401 1.367 . S
C401 C400 1.367 . S
C401 C403 1.433 . S
C402 C398 1.350 . S
C402 C399 1.463 . S
C402 N406 1.427 . S
C403 H393 0.929 . S
C403 C401 1.433 . S
C403 N406 1.384 . S
C404 H395 0.929 . S
C404 C396 1.378 . S
C404 C399 1.350 . S
C405 H392 0.929 . S
C405 C397 1.433 . S
C405 N407 1.384 . S
N406 C402 1.427 . S
N406 C403 1.384 . S
N407 C399 1.427 . S
N407 C405 1.384 . S
H408 C414 0.930 . S
H409 C418 0.930 . S
H410 C423 0.929 . S
H411 C421 0.929 . S
H412 C416 0.929 . S
H413 C422 0.929 . S
C414 H408 0.930 . S
C414 C415 1.367 . S
C414 C422 1.378 . S
C415 C414 1.367 . S
C415 C423 1.433 . S
C416 H412 0.929 . S
C416 C418 1.378 . S
C416 C420 1.350 . S
C417 C420 1.463 . S
C417 C422 1.350 . S
C417 N425 1.427 . S
C418 H409 0.930 . S
C418 C416 1.378 . S
C418 C419 1.367 . S
C419 C418 1.367 . S
C419 C421 1.433 . S
C420 C416 1.350 . S
C420 C417 1.463 . S
C420 N424 1.427 . S
C421 H411 0.929 . S
C421 C419 1.433 . S
C421 N424 1.384 . S
C422 H413 0.929 . S
C422 C414 1.378 . S
C422 C417 1.350 . S
C423 H410 0.929 . S
C423 C415 1.433 . S
C423 N425 1.384 . S
N424 C420 1.427 . S
N424 C421 1.384 . S
N425 C417 1.427 . S
N425 C423 1.384 . S
H426 C432 0.930 . S
H427 C436 0.930 . S
H428 C441 0.929 . S
H429 C439 0.929 . S
H430 C434 0.929 . S
H431 C440 0.929 . S
C432 H426 0.930 . S
C432 C433 1.367 . S
C432 C440 1.378 . S
C433 C432 1.367 . S
C433 C441 1.433 . S
C434 H430 0.929 . S
C434 C436 1.378 . S
C434 C438 1.350 . S
C435 C438 1.463 . S
C435 C440 1.350 . S
C435 N443 1.427 . S
C436 H427 0.930 . S
C436 C434 1.378 . S
C436 C437 1.367 . S
C437 C436 1.367 . S
C437 C439 1.433 . S
C438 C434 1.350 . S
C438 C435 1.463 . S
C438 N442 1.427 . S
C439 H429 0.929 . S
C439 C437 1.433 . S
C439 N442 1.384 . S
C440 H431 0.929 . S
C440 C432 1.378 . S
C440 C435 1.350 . S
C441 H428 0.929 . S
C441 C433 1.433 . S
C441 N443 1.384 . S
N442 C438 1.427 . S
N442 C439 1.384 . S
N443 C435 1.427 . S
N443 C441 1.384 . S
H444 C450 0.930 . S
H445 C454 0.930 . S
H446 C459 0.929 1_545 S
H447 C457 0.928 1_554 S
H448 C452 0.929 . S
H449 C458 0.929 . S
C450 H444 0.930 . S
C450 C451 1.367 . S
C450 C458 1.378 . S
C451 C450 1.367 . S
C451 C459 1.433 . S
C452 H448 0.929 . S
C452 C454 1.378 1_556 S
C452 C456 1.350 1_545 S
C453 C456 1.463 . S
C453 C458 1.350 . S
C453 N461 1.427 1_565 S
C454 H445 0.930 . S
C454 C452 1.378 1_554 S
C454 C455 1.367 1_545 S
C455 C454 1.367 1_565 S
C455 C457 1.432 1_554 S
C456 C452 1.350 1_565 S
C456 C453 1.463 . S
C456 N460 1.427 . S
C457 H447 0.928 1_556 S
C457 C455 1.432 1_556 S
C457 N460 1.386 . S
C458 H449 0.929 . S
C458 C450 1.378 . S
C458 C453 1.350 . S
C459 H446 0.929 1_565 S
C459 C451 1.433 . S
C459 N461 1.384 1_565 S
N460 C456 1.427 . S
N460 C457 1.386 . S
N461 C453 1.427 1_545 S
N461 C459 1.384 1_545 S
H462 C468 0.930 . S
H463 C472 0.930 . S
H464 C477 0.929 . S
H465 C475 0.929 . S
H466 C470 0.929 . S
H467 C476 0.929 . S
C468 H462 0.930 . S
C468 C469 1.367 . S
C468 C476 1.378 . S
C469 C468 1.367 . S
C469 C477 1.433 . S
C470 H466 0.929 . S
C470 C472 1.378 . S
C470 C474 1.350 . S
C471 C474 1.463 . S
C471 C476 1.350 . S
C471 N479 1.427 . S
C472 H463 0.930 . S
C472 C470 1.378 . S
C472 C473 1.367 . S
C473 C472 1.367 . S
C473 C475 1.433 . S
C474 C470 1.350 . S
C474 C471 1.463 . S
C474 N478 1.427 . S
C475 H465 0.929 . S
C475 C473 1.433 . S
C475 N478 1.384 . S
C476 H467 0.929 . S
C476 C468 1.378 . S
C476 C471 1.350 . S
C477 H464 0.929 . S
C477 C469 1.433 . S
C477 N479 1.384 . S
N478 C474 1.427 . S
N478 C475 1.384 . S
N479 C471 1.427 . S
N479 C477 1.384 . S
H480 C486 0.930 . S
H481 C490 0.916 1_556 S
H482 C495 0.929 . S
H483 C493 0.929 . S
H484 C488 0.929 . S
H485 C494 0.929 . S
C486 H480 0.930 . S
C486 C487 1.367 . S
C486 C494 1.378 . S
C487 C486 1.367 . S
C487 C495 1.433 . S
C488 H484 0.929 . S
C488 C490 1.378 . S
C488 C492 1.350 . S
C489 C492 1.463 . S
C489 C494 1.350 . S
C489 N497 1.427 . S
C490 H481 0.916 1_554 S
C490 C488 1.378 . S
C490 C491 1.367 . S
C491 C490 1.367 . S
C491 C493 1.433 . S
C492 C488 1.350 . S
C492 C489 1.463 . S
C492 N496 1.427 . S
C493 H483 0.929 . S
C493 C491 1.433 . S
C493 N496 1.384 . S
C494 H485 0.929 . S
C494 C486 1.378 . S
C494 C489 1.350 . S
C495 H482 0.929 . S
C495 C487 1.433 . S
C495 N497 1.384 . S
N496 C492 1.427 . S
N496 C493 1.384 . S
N497 C489 1.427 . S
N497 C495 1.384 . S
H498 C504 0.930 . S
H499 C508 0.930 . S
H500 C513 0.929 . S
H501 C511 0.929 . S
H502 C506 0.929 . S
H503 C512 0.929 . S
C504 H498 0.930 . S
C504 C505 1.367 . S
C504 C512 1.378 . S
C505 C504 1.367 . S
C505 C513 1.433 . S
C506 H502 0.929 . S
C506 C508 1.378 . S
C506 C510 1.350 . S
C507 C510 1.463 . S
C507 C512 1.350 . S
C507 N515 1.427 . S
C508 H499 0.930 . S
C508 C506 1.378 . S
C508 C509 1.367 . S
C509 C508 1.367 . S
C509 C511 1.433 . S
C510 C506 1.350 . S
C510 C507 1.463 . S
C510 N514 1.427 . S
C511 H501 0.929 . S
C511 C509 1.433 . S
C511 N514 1.384 . S
C512 H503 0.929 . S
C512 C504 1.378 . S
C512 C507 1.350 . S
C513 H500 0.929 . S
C513 C505 1.433 . S
C513 N515 1.384 . S
N514 C510 1.427 . S
N514 C511 1.384 . S
N515 C507 1.427 . S
N515 C513 1.384 . S
H516 C522 0.930 1_554 S
H517 C526 0.930 . S
H518 C531 0.929 . S
H519 C529 0.929 . S
H520 C524 0.929 . S
H521 C530 0.938 . S
C522 H516 0.930 1_556 S
C522 C523 1.367 . S
C522 C530 1.376 1_556 S
C523 C522 1.367 . S
C523 C531 1.433 . S
C524 H520 0.929 . S
C524 C526 1.378 . S
C524 C528 1.350 1_455 S
C525 C528 1.463 . S
C525 C530 1.341 1_556 S
C525 N533 1.427 . S
C526 H517 0.930 . S
C526 C524 1.378 . S
C526 C527 1.367 . S
C527 C526 1.367 . S
C527 C529 1.433 1_456 S
C528 C524 1.350 1_655 S
C528 C525 1.463 . S
C528 N532 1.427 1_556 S
C529 H519 0.929 . S
C529 C527 1.433 1_654 S
C529 N532 1.384 . S
C530 H521 0.938 . S
C530 C522 1.376 1_554 S
C530 C525 1.341 1_554 S
C531 H518 0.929 . S
C531 C523 1.433 . S
C531 N533 1.384 . S
N532 C528 1.427 1_554 S
N532 C529 1.384 . S
N533 C525 1.427 . S
N533 C531 1.384 . S
H534 C540 0.930 . S
H535 C544 0.930 1_556 S
H536 C549 0.929 . S
H537 C547 0.929 . S
H538 C542 0.929 . S
H539 C548 0.929 . S
C540 H534 0.930 . S
C540 C541 1.367 . S
C540 C548 1.378 . S
C541 C540 1.367 . S
C541 C549 1.433 . S
C542 H538 0.929 . S
C542 C544 1.378 . S
C542 C546 1.350 . S
C543 C546 1.463 . S
C543 C548 1.350 . S
C543 N551 1.427 . S
C544 H535 0.930 1_554 S
C544 C542 1.378 . S
C544 C545 1.367 . S
C545 C544 1.367 . S
C545 C547 1.433 . S
C546 C542 1.350 . S
C546 C543 1.463 . S
C546 N550 1.427 . S
C547 H537 0.929 . S
C547 C545 1.433 . S
C547 N550 1.384 . S
C548 H539 0.929 . S
C548 C540 1.378 . S
C548 C543 1.350 . S
C549 H536 0.929 . S
C549 C541 1.433 . S
C549 N551 1.384 . S
N550 C546 1.427 . S
N550 C547 1.384 . S
N551 C543 1.427 . S
N551 C549 1.384 . S
H552 C558 0.930 . S
H553 C562 0.930 . S
H554 C567 0.929 . S
H555 C565 0.931 . S
H556 C560 0.929 . S
H557 C566 0.929 . S
C558 H552 0.930 . S
C558 C559 1.367 . S
C558 C566 1.378 . S
C559 C558 1.367 . S
C559 C567 1.433 . S
C560 H556 0.929 . S
C560 C562 1.378 . S
C560 C564 1.350 . S
C561 C564 1.463 . S
C561 C566 1.350 . S
C561 N569 1.427 . S
C562 H553 0.930 . S
C562 C560 1.378 . S
C562 C563 1.367 . S
C563 C562 1.367 . S
C563 C565 1.433 . S
C564 C560 1.350 . S
C564 C561 1.463 . S
C564 N568 1.427 . S
C565 H555 0.931 . S
C565 C563 1.433 . S
C565 N568 1.384 . S
C566 H557 0.929 . S
C566 C558 1.378 . S
C566 C561 1.350 . S
C567 H554 0.929 . S
C567 C559 1.433 . S
C567 N569 1.384 . S
N568 C564 1.427 . S
N568 C565 1.384 . S
N569 C561 1.427 . S
N569 C567 1.384 . S
H570 C576 0.930 . S
H571 C580 0.930 . S
H572 C585 0.929 . S
H573 C583 0.929 . S
H574 C578 0.929 . S
H575 C584 0.929 . S
C576 H570 0.930 . S
C576 C577 1.367 . S
C576 C584 1.378 . S
C577 C576 1.367 . S
C577 C585 1.433 . S
C578 H574 0.929 . S
C578 C580 1.378 . S
C578 C582 1.350 . S
C579 C582 1.463 . S
C579 C584 1.350 . S
C579 N587 1.427 . S
C580 H571 0.930 . S
C580 C578 1.378 . S
C580 C581 1.367 . S
C581 C580 1.367 . S
C581 C583 1.433 . S
C582 C578 1.350 . S
C582 C579 1.463 . S
C582 N586 1.427 . S
C583 H573 0.929 . S
C583 C581 1.433 . S
C583 N586 1.384 . S
C584 H575 0.929 . S
C584 C576 1.378 . S
C584 C579 1.350 . S
C585 H572 0.929 . S
C585 C577 1.433 . S
C585 N587 1.384 . S
N586 C582 1.427 . S
N586 C583 1.384 . S
N587 C579 1.427 . S
N587 C585 1.384 . S
C163 C5 1.546 . S
C167 C75 1.433 . S
C181 C14 1.513 . S
C185 C109 1.417 . S
C203 C121 1.390 . S
C199 C25 1.495 . S
C217 C34 1.501 . S
C221 C155 1.403 . S
C239 C112 1.411 . S
C235 C7 1.520 . S
C257 C92 1.415 . S
C253 C13 1.524 . S
C275 C139 1.393 . S
C271 C23 1.492 . S
C293 C130 1.397 . S
C289 C31 1.508 . S
C307 C4 1.533 . S
C311 C138 1.430 . S
C329 C100 1.392 . S
C325 C22 1.499 . S
C343 C32 1.514 . S
C347 C76 1.395 . S
C361 C16 1.509 . S
C365 C133 1.407 . S
C383 C91 1.463 . S
C379 C41 1.544 . S
C397 C50 1.554 . S
C401 C113 1.462 . S
C415 C61 1.538 . S
C419 C118 1.445 . S
C433 C67 1.562 . S
C437 C151 1.479 . S
C451 C40 1.563 . S
C455 C96 1.483 . S
C473 C88 1.463 . S
C469 C52 1.567 . S
C491 C142 1.450 . S
C487 C59 1.557 . S
C509 C134 1.453 . S
C505 C70 1.531 . S
C523 C43 1.543 . S
C527 C154 1.442 . S
C545 C97 1.471 . S
C541 C58 1.557 . S
C563 C79 1.451 . S
C559 C68 1.536 . S
C577 C49 1.556 . S
C581 C117 1.467 . S
