# Generated by pormake.
# Topology ssb, (4,4)-cn, num edge types: 1
# Building blocks:
#     Node 0, Type 0, BuildingBlock: GIZVER_clean_linker_0, # of connection points: 4
#     Node 1, Type 0, BuildingBlock: GIZVER_clean_linker_0, # of connection points: 4
#     Node 2, Type 0, BuildingBlock: GIZVER_clean_linker_0, # of connection points: 4
#     Node 3, Type 0, BuildingBlock: GIZVER_clean_linker_0, # of connection points: 4
#     Node 4, Type 0, BuildingBlock: GIZVER_clean_linker_0, # of connection points: 4
#     Node 5, Type 0, BuildingBlock: GIZVER_clean_linker_0, # of connection points: 4
#     Node 6, Type 0, BuildingBlock: GIZVER_clean_linker_0, # of connection points: 4
#     Node 7, Type 0, BuildingBlock: GIZVER_clean_linker_0, # of connection points: 4
#     Node 8, Type 1, BuildingBlock: NAWXER_clean_sbu_0, # of connection points: 4
#     Node 9, Type 1, BuildingBlock: NAWXER_clean_sbu_0, # of connection points: 4
#     Node 10, Type 1, BuildingBlock: NAWXER_clean_sbu_0, # of connection points: 4
#     Node 11, Type 1, BuildingBlock: NAWXER_clean_sbu_0, # of connection points: 4
#     Node 12, Type 1, BuildingBlock: NAWXER_clean_sbu_0, # of connection points: 4
#     Node 13, Type 1, BuildingBlock: NAWXER_clean_sbu_0, # of connection points: 4
#     Node 14, Type 1, BuildingBlock: NAWXER_clean_sbu_0, # of connection points: 4
#     Node 15, Type 1, BuildingBlock: NAWXER_clean_sbu_0, # of connection points: 4
#     Edge 16, Type (0, 1), BuildingBlock: AJUNOK_clean_linker_0, # of connection points: 2
#     Edge 17, Type (0, 1), BuildingBlock: AJUNOK_clean_linker_0, # of connection points: 2
#     Edge 18, Type (0, 1), BuildingBlock: AJUNOK_clean_linker_0, # of connection points: 2
#     Edge 19, Type (0, 1), BuildingBlock: AJUNOK_clean_linker_0, # of connection points: 2
#     Edge 20, Type (0, 1), BuildingBlock: AJUNOK_clean_linker_0, # of connection points: 2
#     Edge 21, Type (0, 1), BuildingBlock: AJUNOK_clean_linker_0, # of connection points: 2
#     Edge 22, Type (0, 1), BuildingBlock: AJUNOK_clean_linker_0, # of connection points: 2
#     Edge 23, Type (0, 1), BuildingBlock: AJUNOK_clean_linker_0, # of connection points: 2
#     Edge 24, Type (0, 1), BuildingBlock: AJUNOK_clean_linker_0, # of connection points: 2
#     Edge 25, Type (0, 1), BuildingBlock: AJUNOK_clean_linker_0, # of connection points: 2
#     Edge 26, Type (0, 1), BuildingBlock: AJUNOK_clean_linker_0, # of connection points: 2
#     Edge 27, Type (0, 1), BuildingBlock: AJUNOK_clean_linker_0, # of connection points: 2
#     Edge 28, Type (0, 1), BuildingBlock: AJUNOK_clean_linker_0, # of connection points: 2
#     Edge 29, Type (0, 1), BuildingBlock: AJUNOK_clean_linker_0, # of connection points: 2
#     Edge 30, Type (0, 1), BuildingBlock: AJUNOK_clean_linker_0, # of connection points: 2
#     Edge 31, Type (0, 1), BuildingBlock: AJUNOK_clean_linker_0, # of connection points: 2
#     Edge 32, Type (0, 1), BuildingBlock: AJUNOK_clean_linker_0, # of connection points: 2
#     Edge 33, Type (0, 1), BuildingBlock: AJUNOK_clean_linker_0, # of connection points: 2
#     Edge 34, Type (0, 1), BuildingBlock: AJUNOK_clean_linker_0, # of connection points: 2
#     Edge 35, Type (0, 1), BuildingBlock: AJUNOK_clean_linker_0, # of connection points: 2
#     Edge 36, Type (0, 1), BuildingBlock: AJUNOK_clean_linker_0, # of connection points: 2
#     Edge 37, Type (0, 1), BuildingBlock: AJUNOK_clean_linker_0, # of connection points: 2
#     Edge 38, Type (0, 1), BuildingBlock: AJUNOK_clean_linker_0, # of connection points: 2
#     Edge 39, Type (0, 1), BuildingBlock: AJUNOK_clean_linker_0, # of connection points: 2
#     Edge 40, Type (0, 1), BuildingBlock: AJUNOK_clean_linker_0, # of connection points: 2
#     Edge 41, Type (0, 1), BuildingBlock: AJUNOK_clean_linker_0, # of connection points: 2
#     Edge 42, Type (0, 1), BuildingBlock: AJUNOK_clean_linker_0, # of connection points: 2
#     Edge 43, Type (0, 1), BuildingBlock: AJUNOK_clean_linker_0, # of connection points: 2
#     Edge 44, Type (0, 1), BuildingBlock: AJUNOK_clean_linker_0, # of connection points: 2
#     Edge 45, Type (0, 1), BuildingBlock: AJUNOK_clean_linker_0, # of connection points: 2
#     Edge 46, Type (0, 1), BuildingBlock: AJUNOK_clean_linker_0, # of connection points: 2
#     Edge 47, Type (0, 1), BuildingBlock: AJUNOK_clean_linker_0, # of connection points: 2
# Relax obj value: 0.000
# Max RMSD: 0.030
# Mean RMSD: 0.015
data_MOF--net-ssb--node1-NAWXER_clean_sbu_0--node2-GIZVER_clean_linker_0--edge1-AJUNOK_clean_linker_0
_symmetry_space_group_name_H-M    P1
_symmetry_Int_Tables_number       1
_symmetry_cell_setting            triclinic
loop_
_symmetry_equiv_pos_as_xyz
'x, y, z'
_cell_length_a     34.236778
_cell_length_b     34.116951
_cell_length_c     29.283064
_cell_angle_alpha  89.882409
_cell_angle_beta   89.800528
_cell_angle_gamma 90.165908
loop_
_atom_site_label
_atom_site_type_symbol
_atom_site_fract_x
_atom_site_fract_y
_atom_site_fract_z
_atom_type_partial_charge
H0 H 0.27876 0.18048 0.30424 0.0
H1 H 0.19478 0.27186 0.28306 0.0
H2 H 0.22724 0.23958 0.4193 0.0
H3 H 0.24589 0.18565 0.23304 0.0
H4 H 0.20474 0.21668 0.22804 0.0
H5 H 0.30582 0.20257 0.19635 0.0
H6 H 0.30516 0.30101 0.10436 0.0
H7 H 0.21392 0.28844 0.20457 0.0
C8 C 0.26142 0.20418 0.31806 0.0
C9 C 0.25741 0.20806 0.36581 0.0
C10 C 0.23945 0.22768 0.28787 0.0
C11 C 0.21354 0.25556 0.30594 0.0
C12 C 0.20833 0.25935 0.35331 0.0
C13 C 0.23179 0.23701 0.38279 0.0
C14 C 0.23609 0.21644 0.23797 0.0
C15 C 0.2581 0.24315 0.20538 0.0
C16 C 0.293 0.22994 0.1851 0.0
C17 C 0.30981 0.25015 0.14808 0.0
C18 C 0.29216 0.28494 0.13258 0.0
C19 C 0.25787 0.29929 0.15316 0.0
C20 C 0.24117 0.2784 0.18985 0.0
H21 H 0.82986 0.26435 0.30176 0.0
H22 H 0.72552 0.19382 0.29568 0.0
H23 H 0.79799 0.19033 0.41492 0.0
H24 H 0.79932 0.2526 0.23002 0.0
H25 H 0.76155 0.21709 0.22553 0.0
H26 H 0.78419 0.32193 0.23824 0.0
H27 H 0.67207 0.35252 0.18406 0.0
H28 H 0.69264 0.2356 0.23187 0.0
C29 C 0.80907 0.24492 0.31834 0.0
C30 C 0.8175 0.22959 0.36172 0.0
C31 C 0.77559 0.23263 0.29455 0.0
C32 C 0.75014 0.20516 0.31478 0.0
C33 C 0.758 0.19027 0.3584 0.0
C34 C 0.79126 0.20303 0.38188 0.0
C35 C 0.77079 0.24348 0.24506 0.0
C36 C 0.74119 0.27561 0.23792 0.0
C37 C 0.75389 0.31452 0.23188 0.0
C38 C 0.72891 0.34256 0.21243 0.0
C39 C 0.69034 0.33197 0.20246 0.0
C40 C 0.67706 0.29351 0.20852 0.0
C41 C 0.70217 0.26577 0.22829 0.0
H42 H 0.81115 0.70175 0.31725 0.0
H43 H 0.74805 0.81087 0.31742 0.0
H44 H 0.85206 0.79813 0.39821 0.0
H45 H 0.74185 0.70384 0.29671 0.0
H46 H 0.7152 0.74823 0.30021 0.0
H47 H 0.78986 0.69517 0.22926 0.0
H48 H 0.72938 0.72521 0.10547 0.0
H49 H 0.69835 0.7809 0.23193 0.0
C50 C 0.80863 0.73213 0.3276 0.0
C51 C 0.83621 0.74805 0.35774 0.0
C52 C 0.77679 0.75483 0.31256 0.0
C53 C 0.773 0.79372 0.32814 0.0
C54 C 0.79975 0.80959 0.3596 0.0
C55 C 0.83169 0.78669 0.37323 0.0
C56 C 0.74315 0.73552 0.28768 0.0
C57 C 0.74509 0.73888 0.23603 0.0
C58 C 0.76917 0.71336 0.21106 0.0
C59 C 0.76431 0.70851 0.16362 0.0
C60 C 0.73556 0.73095 0.14109 0.0
C61 C 0.71185 0.75767 0.16521 0.0
C62 C 0.71743 0.76175 0.21262 0.0
H63 H 0.17147 0.75903 0.2759 0.0
H64 H 0.26049 0.84931 0.27359 0.0
H65 H 0.17475 0.8467 0.38059 0.0
H66 H 0.20719 0.77593 0.20476 0.0
H67 H 0.24394 0.81268 0.20426 0.0
H68 H 0.22215 0.70846 0.22617 0.0
H69 H 0.34007 0.67751 0.19314 0.0
H70 H 0.31178 0.79704 0.22256 0.0
C71 C 0.18545 0.78428 0.29126 0.0
C72 C 0.16904 0.80141 0.33044 0.0
C73 C 0.21888 0.80128 0.27059 0.0
C74 C 0.23569 0.83521 0.28992 0.0
C75 C 0.21897 0.85206 0.32896 0.0
C76 C 0.18673 0.83428 0.34943 0.0
C77 C 0.23256 0.78737 0.22439 0.0
C78 C 0.26372 0.75603 0.22669 0.0
C79 C 0.25277 0.71634 0.2236 0.0
C80 C 0.28032 0.68779 0.211 0.0
C81 C 0.31955 0.69874 0.20653 0.0
C82 C 0.33158 0.73777 0.21116 0.0
C83 C 0.30343 0.76638 0.22194 0.0
H84 H 0.33281 0.77603 0.80388 0.0
H85 H 0.24564 0.68552 0.80095 0.0
H86 H 0.29665 0.71959 0.92885 0.0
H87 H 0.32699 0.7313 0.73825 0.0
H88 H 0.28956 0.6955 0.73623 0.0
H89 H 0.3164 0.79739 0.70977 0.0
H90 H 0.21952 0.80972 0.61797 0.0
H91 H 0.22258 0.71289 0.71232 0.0
C92 C 0.31364 0.75606 0.82214 0.0
C93 C 0.31654 0.75268 0.87001 0.0
C94 C 0.28879 0.7314 0.79697 0.0
C95 C 0.26446 0.7048 0.82041 0.0
C96 C 0.2669 0.70031 0.86814 0.0
C97 C 0.29278 0.7247 0.89263 0.0
C98 C 0.2955 0.72644 0.74608 0.0
C99 C 0.27135 0.75309 0.71597 0.0
C100 C 0.28801 0.78768 0.69794 0.0
C101 C 0.26984 0.80788 0.66198 0.0
C102 C 0.23379 0.794 0.64542 0.0
C103 C 0.21627 0.75985 0.66345 0.0
C104 C 0.23497 0.74003 0.69939 0.0
H105 H 0.32073 0.23478 0.80913 0.0
H106 H 0.23478 0.3258 0.81963 0.0
H107 H 0.35468 0.3508 0.84786 0.0
H108 H 0.25312 0.22228 0.83835 0.0
H109 H 0.21695 0.25924 0.83541 0.0
H110 H 0.26643 0.17987 0.77384 0.0
H111 H 0.18169 0.1806 0.66622 0.0
H112 H 0.18514 0.27609 0.76113 0.0
C113 C 0.31376 0.26558 0.81273 0.0
C114 C 0.34341 0.29251 0.82422 0.0
C115 C 0.27437 0.27732 0.81189 0.0
C116 C 0.26517 0.31703 0.81877 0.0
C117 C 0.29432 0.3441 0.83123 0.0
C118 C 0.3331 0.33149 0.83295 0.0
C119 C 0.24241 0.24683 0.81668 0.0
C120 C 0.22841 0.23061 0.77179 0.0
C121 C 0.24294 0.19443 0.75587 0.0
C122 C 0.22548 0.17605 0.7183 0.0
C123 C 0.19478 0.1945 0.69582 0.0
C124 C 0.18003 0.23016 0.71103 0.0
C125 C 0.19718 0.24878 0.74863 0.0
H126 H 0.70276 0.23773 0.79818 0.0
H127 H 0.79173 0.32651 0.79969 0.0
H128 H 0.73001 0.29699 0.92364 0.0
H129 H 0.71901 0.27022 0.72906 0.0
H130 H 0.74503 0.31514 0.73172 0.0
H131 H 0.75352 0.20798 0.71426 0.0
H132 H 0.86016 0.22197 0.6374 0.0
H133 H 0.81456 0.31859 0.71408 0.0
C134 C 0.72067 0.25823 0.81715 0.0
C135 C 0.71372 0.2636 0.86409 0.0
C136 C 0.74805 0.28146 0.79357 0.0
C137 C 0.77087 0.30843 0.81806 0.0
C138 C 0.76476 0.3144 0.86515 0.0
C139 C 0.73646 0.29129 0.88801 0.0
C140 C 0.74646 0.28374 0.74196 0.0
C141 C 0.78085 0.26492 0.71821 0.0
C142 C 0.7786 0.22549 0.70423 0.0
C143 C 0.80717 0.20938 0.67508 0.0
C144 C 0.83878 0.23311 0.66145 0.0
C145 C 0.84184 0.27217 0.67601 0.0
C146 C 0.81293 0.28799 0.70438 0.0
H147 H 0.74563 0.65852 0.7526 0.0
H148 H 0.65253 0.74394 0.75871 0.0
H149 H 0.66836 0.66172 0.86809 0.0
H150 H 0.72218 0.69037 0.68287 0.0
H151 H 0.68212 0.72332 0.68444 0.0
H152 H 0.7893 0.71379 0.69818 0.0
H153 H 0.80631 0.83419 0.65852 0.0
H154 H 0.6922 0.79346 0.69636 0.0
C155 C 0.72142 0.67203 0.77051 0.0
C156 C 0.709 0.65664 0.81256 0.0
C157 C 0.70108 0.70369 0.75061 0.0
C158 C 0.6689 0.72018 0.77399 0.0
C159 C 0.6568 0.70444 0.81609 0.0
C160 C 0.67735 0.67336 0.83511 0.0
C161 C 0.70986 0.71566 0.70201 0.0
C162 C 0.73787 0.74991 0.69837 0.0
C163 C 0.77823 0.74317 0.69316 0.0
C164 C 0.80345 0.77336 0.67809 0.0
C165 C 0.78799 0.81113 0.67254 0.0
C166 C 0.74831 0.81898 0.68042 0.0
C167 C 0.72328 0.78815 0.69306 0.0
C168 C 0.96824 0.32118 0.56923 0.0
C169 C 0.07203 0.30755 0.45307 0.0
O170 O 0.98381 0.35033 0.54866 0.0
Zn171 Zn 0.01891 0.31827 0.50988 0.0
O172 O 0.97812 0.28629 0.55882 0.0
Zn173 Zn 0.01592 0.25518 0.51547 0.0
O174 O 0.04644 0.22885 0.56093 0.0
O175 O 0.05522 0.29311 0.56154 0.0
O176 O 0.05808 0.27531 0.46837 0.0
O177 O 0.05845 0.34 0.4674 0.0
O178 O 0.97619 0.29033 0.46706 0.0
O179 O 0.97929 0.22654 0.47861 0.0
C180 C 0.06243 0.25913 0.57809 0.0
C181 C 0.96347 0.25566 0.45884 0.0
C182 C 0.78467 0.063 0.5749 0.0
C183 C 0.77931 0.95296 0.46634 0.0
O184 O 0.81322 0.0448 0.55698 0.0
Zn185 Zn 0.78312 0.00784 0.52081 0.0
O186 O 0.74969 0.05217 0.56536 0.0
Zn187 Zn 0.72079 0.00879 0.52366 0.0
O188 O 0.69304 0.97622 0.56764 0.0
O189 O 0.75728 0.97122 0.5718 0.0
O190 O 0.74546 0.96489 0.47905 0.0
O191 O 0.80952 0.97016 0.48174 0.0
O192 O 0.75544 0.04543 0.47256 0.0
O193 O 0.69141 0.04232 0.48259 0.0
C194 C 0.72319 0.96158 0.58618 0.0
C195 C 0.72091 0.05614 0.46152 0.0
C196 C 0.95459 0.75871 0.58794 0.0
C197 C 0.05007 0.76703 0.46248 0.0
O198 O 0.96887 0.79018 0.57138 0.0
Zn199 Zn 1.00568 0.76665 0.52839 0.0
O200 O 0.9686 0.72566 0.57541 0.0
Zn201 Zn 0.01122 0.70309 0.52955 0.0
O202 O 0.05422 0.68267 0.56808 0.0
O203 O 0.05299 0.74727 0.5682 0.0
O204 O 0.04411 0.73245 0.47793 0.0
O205 O 0.03347 0.79619 0.48162 0.0
O206 O 0.96814 0.73577 0.48408 0.0
O207 O 0.97675 0.67166 0.48887 0.0
C208 C 0.06887 0.71524 0.58082 0.0
C209 C 0.95954 0.70112 0.47107 0.0
C210 C 0.25444 0.04717 0.6002 0.0
C211 C 0.25171 0.97059 0.45929 0.0
O212 O 0.28793 0.0414 0.58189 0.0
Zn213 Zn 0.31337 0.01255 0.52491 0.0
O214 O 0.22402 0.0324 0.58196 0.0
Zn215 Zn 0.2495 0.00798 0.53056 0.0
O216 O 0.27906 0.96218 0.56254 0.0
O217 O 0.34289 0.96935 0.55559 0.0
O218 O 0.22197 0.98079 0.48269 0.0
O219 O 0.28593 0.98059 0.47218 0.0
O220 O 0.3337 0.05889 0.48892 0.0
O221 O 0.26965 0.05702 0.49474 0.0
C222 C 0.31349 0.94998 0.57051 0.0
C223 C 0.30047 0.07423 0.48042 0.0
C224 C 0.46581 0.75209 0.09528 0.0
C225 C 0.54636 0.74075 0.95711 0.0
O226 O 0.47595 0.7848 0.07729 0.0
Zn227 Zn 0.51018 0.80654 0.02224 0.0
O228 O 0.47789 0.72 0.07816 0.0
Zn229 Zn 0.50707 0.74264 0.02754 0.0
O230 O 0.55491 0.76746 0.06183 0.0
O231 O 0.55546 0.83173 0.0533 0.0
O232 O 0.53285 0.71204 0.98029 0.0
O233 O 0.53953 0.77583 0.96998 0.0
O234 O 0.46867 0.83266 0.98591 0.0
O235 O 0.4619 0.76827 0.98889 0.0
C236 C 0.57087 0.80064 0.06939 0.0
C237 C 0.44985 0.80165 0.97525 0.0
C238 C 0.26452 0.55242 0.09633 0.0
C239 C 0.27425 0.46898 0.9608 0.0
O240 O 0.2965 0.53956 0.07983 0.0
Zn241 Zn 0.27391 0.50952 0.02984 0.0
O242 O 0.23199 0.54205 0.07877 0.0
Zn243 Zn 0.20966 0.50802 0.02517 0.0
O244 O 0.18376 0.46338 0.05714 0.0
O245 O 0.24789 0.46186 0.06458 0.0
O246 O 0.2397 0.47685 0.97445 0.0
O247 O 0.30373 0.48226 0.98243 0.0
O248 O 0.24948 0.55432 0.9895 0.0
O249 O 0.18513 0.54988 0.98728 0.0
C250 C 0.21437 0.44688 0.07277 0.0
C251 C 0.2167 0.56727 0.9755 0.0
C252 C 0.57562 0.21594 0.96325 0.0
C253 C 0.45339 0.21235 0.05515 0.0
O254 O 0.56052 0.24891 0.97361 0.0
Zn255 Zn 0.5132 0.2732 1.00956 0.0
O256 O 0.55934 0.1842 0.97659 0.0
Zn257 Zn 0.51491 0.20886 1.00964 0.0
O258 O 0.48319 0.23446 0.95542 0.0
O259 O 0.48633 0.29914 0.95964 0.0
O260 O 0.47216 0.18179 0.0431 0.0
O261 O 0.46621 0.24627 0.04423 0.0
O262 O 0.53967 0.30056 0.05909 0.0
O263 O 0.5453 0.23614 0.06305 0.0
C264 C 0.4745 0.26824 0.93946 0.0
C265 C 0.55322 0.27015 0.0787 0.0
C266 C 0.81 0.57168 0.06215 0.0
C267 C 0.81051 0.44914 0.9708 0.0
O268 O 0.84095 0.55514 0.04748 0.0
Zn269 Zn 0.81511 0.51041 0.01632 0.0
O270 O 0.77667 0.55662 0.05363 0.0
Zn271 Zn 0.7516 0.50858 0.01963 0.0
O272 O 0.7266 0.48139 0.06973 0.0
O273 O 0.79109 0.47807 0.07187 0.0
O274 O 0.77712 0.46208 0.98292 0.0
O275 O 0.84143 0.46765 0.98215 0.0
O276 O 0.78621 0.5398 0.96225 0.0
O277 O 0.7224 0.53345 0.9715 0.0
C278 C 0.75767 0.4691 0.08869 0.0
C279 C 0.7514 0.54637 0.94857 0.0
C280 C 0.176 0.3052 0.40956 0.0
C281 C 0.17307 0.27947 0.37207 0.0
C282 C 0.14246 0.31805 0.43321 0.0
C283 C 0.105 0.30513 0.42049 0.0
H284 H 0.20449 0.31388 0.42202 0.0
H285 H 0.14611 0.33565 0.46366 0.0
S286 S 0.08102 0.23942 0.32398 0.0
N287 N 0.12908 0.24328 0.32238 0.0
N288 N 0.06666 0.2671 0.36701 0.0
C289 C 0.10157 0.28117 0.38182 0.0
C290 C 0.13543 0.26845 0.35753 0.0
C291 C 0.7163 0.15913 0.4184 0.0
C292 C 0.73656 0.15609 0.37672 0.0
C293 C 0.70638 0.12548 0.44361 0.0
C294 C 0.71726 0.08808 0.4282 0.0
H295 H 0.7108 0.18769 0.43316 0.0
H296 H 0.69371 0.12902 0.47732 0.0
S297 S 0.76725 0.0645 0.31944 0.0
N298 N 0.76372 0.11278 0.31919 0.0
N299 N 0.74625 0.04966 0.36735 0.0
C300 C 0.73486 0.0846 0.38511 0.0
C301 C 0.74422 0.11868 0.35909 0.0
C302 C 0.90712 0.73501 0.36732 0.0
C303 C 0.86839 0.72425 0.37704 0.0
C304 C 0.93789 0.72208 0.39488 0.0
C305 C 0.93104 0.69826 0.43347 0.0
H306 H 0.91329 0.7561 0.3405 0.0
H307 H 0.96681 0.734 0.38861 0.0
S308 S 0.8354 0.65787 0.46979 0.0
N309 N 0.82517 0.68485 0.42447 0.0
N310 N 0.8832 0.66099 0.47688 0.0
C311 C 0.89297 0.68429 0.44097 0.0
C312 C 0.86152 0.6973 0.41261 0.0
C313 C 0.20574 0.91819 0.35968 0.0
C314 C 0.23317 0.88862 0.34998 0.0
C315 C 0.21255 0.94575 0.39397 0.0
C316 C 0.2475 0.94537 0.41876 0.0
H317 H 0.17734 0.91778 0.34344 0.0
H318 H 0.18964 0.96639 0.40239 0.0
S319 S 0.33149 0.87837 0.40042 0.0
N320 N 0.29813 0.86327 0.3638 0.0
N321 N 0.31221 0.91646 0.42683 0.0
C322 C 0.27692 0.91864 0.40587 0.0
C323 C 0.26953 0.88999 0.37157 0.0
C324 C 0.14709 0.73398 0.66988 0.0
C325 C 0.17982 0.7436 0.6426 0.0
C326 C 0.11149 0.72189 0.65011 0.0
C327 C 0.10777 0.71803 0.6025 0.0
H328 H 0.14846 0.73756 0.70659 0.0
H329 H 0.08634 0.71716 0.67199 0.0
S330 S 0.18514 0.73658 0.51623 0.0
N331 N 0.20646 0.74591 0.56554 0.0
N332 N 0.13992 0.7234 0.52887 0.0
C333 C 0.14064 0.72594 0.57516 0.0
C334 C 0.17658 0.73855 0.59506 0.0
C335 C 0.20919 0.10849 0.69352 0.0
C336 C 0.23784 0.13748 0.70083 0.0
C337 C 0.21565 0.07766 0.66306 0.0
C338 C 0.25118 0.07451 0.63924 0.0
H339 H 0.18041 0.11154 0.70863 0.0
H340 H 0.19185 0.05754 0.65623 0.0
S341 S 0.33783 0.1395 0.65273 0.0
N342 N 0.30434 0.15876 0.68651 0.0
N343 N 0.31741 0.10023 0.63007 0.0
C344 C 0.28153 0.10107 0.65006 0.0
C345 C 0.27466 0.13269 0.68082 0.0
C346 C 0.86805 0.32019 0.61902 0.0
C347 C 0.8741 0.29662 0.65786 0.0
C348 C 0.89982 0.33408 0.59291 0.0
C349 C 0.93837 0.32481 0.60518 0.0
H350 H 0.83869 0.32486 0.60648 0.0
H351 H 0.89405 0.34832 0.56053 0.0
S352 S 0.96937 0.26863 0.70721 0.0
N353 N 0.92116 0.26829 0.70991 0.0
N354 N 0.98076 0.29459 0.66136 0.0
C355 C 0.94457 0.3047 0.64648 0.0
C356 C 0.91242 0.29037 0.67266 0.0
C357 C 0.70368 0.86117 0.63407 0.0
C358 C 0.73302 0.85813 0.6675 0.0
C359 C 0.69727 0.89663 0.61083 0.0
C360 C 0.72025 0.92984 0.62016 0.0
H361 H 0.68806 0.83526 0.6229 0.0
H362 H 0.67693 0.89693 0.58256 0.0
S363 S 0.79463 0.93928 0.71107 0.0
N364 N 0.78017 0.89312 0.71414 0.0
N365 N 0.76892 0.95931 0.66953 0.0
C366 C 0.74668 0.92821 0.65661 0.0
C367 C 0.75282 0.89244 0.6806 0.0
C368 C 0.8738 0.79417 0.6673 0.0
C369 C 0.84426 0.76554 0.66166 0.0
C370 C 0.90991 0.79145 0.64451 0.0
C371 C 0.91851 0.75936 0.61629 0.0
H372 H 0.86849 0.81975 0.68823 0.0
H373 H 0.93094 0.81498 0.64839 0.0
S374 S 0.85294 0.67512 0.59177 0.0
N375 N 0.82712 0.70352 0.62583 0.0
N376 N 0.89554 0.69723 0.58574 0.0
C377 C 0.89034 0.72937 0.61246 0.0
C378 C 0.85319 0.73264 0.63457 0.0
C379 C 0.29816 0.87624 0.66446 0.0
C380 C 0.28934 0.84211 0.63952 0.0
C381 C 0.31094 0.91072 0.64225 0.0
C382 C 0.31641 0.91194 0.59456 0.0
H383 H 0.29265 0.87708 0.7009 0.0
H384 H 0.31383 0.93735 0.66208 0.0
S385 S 0.3014 0.82933 0.51453 0.0
N386 N 0.29011 0.81086 0.56508 0.0
N387 N 0.31435 0.87531 0.52379 0.0
C388 C 0.31027 0.87724 0.56989 0.0
C389 C 0.29674 0.84242 0.59223 0.0
C390 C 0.14969 0.27543 0.65495 0.0
C391 C 0.14537 0.24527 0.68723 0.0
C392 C 0.12167 0.28088 0.62067 0.0
C393 C 0.0891 0.25573 0.61724 0.0
H394 H 0.17615 0.29292 0.65416 0.0
H395 H 0.12677 0.30334 0.59512 0.0
S396 S 0.06189 0.17644 0.69799 0.0
N397 N 0.10397 0.19331 0.71727 0.0
N398 N 0.05169 0.20303 0.65238 0.0
C399 C 0.08315 0.2274 0.65132 0.0
C400 C 0.11118 0.22239 0.68656 0.0
C401 C 0.76501 0.15925 0.6362 0.0
C402 C 0.80164 0.16978 0.65417 0.0
C403 C 0.75976 0.12425 0.6119 0.0
C404 C 0.79096 0.09822 0.60408 0.0
H405 H 0.74037 0.17892 0.63938 0.0
H406 H 0.73113 0.11826 0.59785 0.0
S407 S 0.8919 0.10986 0.64811 0.0
N408 N 0.86893 0.14952 0.66588 0.0
N409 N 0.85931 0.08419 0.61928 0.0
C410 C 0.82749 0.10767 0.62317 0.0
C411 C 0.83275 0.14325 0.64835 0.0
C412 C 0.87826 0.20577 0.39978 0.0
C413 C 0.85567 0.23738 0.38393 0.0
C414 C 0.9137 0.21195 0.42241 0.0
C415 C 0.9281 0.25002 0.43019 0.0
H416 H 0.86833 0.1759 0.39484 0.0
H417 H 0.9295 0.18657 0.43465 0.0
S418 S 0.88033 0.3428 0.39407 0.0
N419 N 0.85037 0.308 0.3765 0.0
N420 N 0.91715 0.31998 0.41871 0.0
C421 C 0.90623 0.28194 0.41331 0.0
C422 C 0.87004 0.27553 0.39025 0.0
C423 C 0.82374 0.87478 0.38896 0.0
C424 C 0.7927 0.84816 0.38239 0.0
C425 C 0.819 0.90896 0.41516 0.0
C426 C 0.78295 0.91811 0.43584 0.0
H427 H 0.85222 0.86877 0.37438 0.0
H428 H 0.844 0.92806 0.41973 0.0
S429 S 0.69245 0.85787 0.42974 0.0
N430 N 0.72472 0.83321 0.39935 0.0
N431 N 0.71548 0.89753 0.4475 0.0
C432 C 0.7514 0.89218 0.42863 0.0
C433 C 0.75633 0.85728 0.4022 0.0
C434 C 0.10342 0.81437 0.36312 0.0
C435 C 0.13311 0.7871 0.35318 0.0
C436 C 0.07595 0.80726 0.39766 0.0
C437 C 0.07664 0.77225 0.42285 0.0
H438 H 0.10335 0.84276 0.34645 0.0
H439 H 0.05495 0.82994 0.40566 0.0
S440 S 0.14466 0.68878 0.40465 0.0
N441 N 0.15925 0.72239 0.36765 0.0
N442 N 0.10651 0.70771 0.43119 0.0
C443 C 0.10392 0.74314 0.41014 0.0
C444 C 0.13234 0.75082 0.37545 0.0
C445 C 0.24769 0.16215 0.43173 0.0
C446 C 0.27271 0.17699 0.39758 0.0
C447 C 0.25845 0.13068 0.45945 0.0
C448 C 0.29463 0.1115 0.45434 0.0
H449 H 0.21852 0.17375 0.43612 0.0
H450 H 0.23723 0.12049 0.48436 0.0
S451 S 0.37262 0.14019 0.3726 0.0
N452 N 0.33704 0.17164 0.3624 0.0
N453 N 0.35675 0.11119 0.41403 0.0
C454 C 0.32084 0.12667 0.42162 0.0
C455 C 0.30991 0.1594 0.39324 0.0
C456 C 0.59346 0.6919 0.85483 0.0
C457 C 0.62283 0.71887 0.84217 0.0
C458 C 0.56812 0.69949 0.89136 0.0
C459 C 0.57097 0.73454 0.91615 0.0
H460 H 0.59191 0.66354 0.83832 0.0
H461 H 0.54697 0.67728 0.90106 0.0
S462 S 0.64135 0.81575 0.89435 0.0
N463 N 0.65218 0.7825 0.85544 0.0
N464 N 0.60408 0.79763 0.92354 0.0
C465 C 0.59864 0.76285 0.90185 0.0
C466 C 0.62462 0.75486 0.86485 0.0
C467 C 0.22733 0.67156 0.93353 0.0
C468 C 0.24709 0.66646 0.89157 0.0
C469 C 0.21317 0.63922 0.95886 0.0
C470 C 0.21818 0.60062 0.94311 0.0
H471 H 0.22415 0.70067 0.94775 0.0
H472 H 0.2006 0.6443 0.99231 0.0
S473 S 0.26778 0.5708 0.8361 0.0
N474 N 0.27049 0.61912 0.83578 0.0
N475 N 0.2437 0.55907 0.88312 0.0
C476 C 0.23644 0.59523 0.9006 0.0
C477 C 0.25088 0.6279 0.87487 0.0
C478 C 0.38409 0.24723 0.87093 0.0
C479 C 0.38235 0.27926 0.84067 0.0
C480 C 0.41576 0.24249 0.90036 0.0
C481 C 0.44623 0.2702 0.90172 0.0
H482 H 0.35942 0.22761 0.87511 0.0
H483 H 0.41481 0.21853 0.92464 0.0
S484 S 0.46107 0.35265 0.8212 0.0
N485 N 0.41859 0.3335 0.80639 0.0
N486 N 0.47674 0.32616 0.8647 0.0
C487 C 0.44708 0.29982 0.86859 0.0
C488 C 0.41557 0.30376 0.83716 0.0
C489 C 0.79899 0.34403 0.93348 0.0
C490 C 0.78371 0.34831 0.88904 0.0
C491 C 0.81203 0.37669 0.9587 0.0
C492 C 0.81062 0.41475 0.94024 0.0
H493 H 0.7994 0.31542 0.94957 0.0
H494 H 0.82087 0.37245 0.99385 0.0
S495 S 0.77319 0.4425 0.82622 0.0
N496 N 0.76809 0.39439 0.82817 0.0
N497 N 0.79322 0.455 0.87528 0.0
C498 C 0.79695 0.41927 0.89545 0.0
C499 C 0.78343 0.3863 0.86988 0.0
C500 C 0.60835 0.30597 0.18283 0.0
C501 C 0.64158 0.28154 0.18294 0.0
C502 C 0.57925 0.30205 0.14948 0.0
C503 C 0.58198 0.27294 0.11588 0.0
H504 H 0.60599 0.32973 0.20717 0.0
H505 H 0.55494 0.3223 0.14947 0.0
S506 S 0.66197 0.20067 0.1016 0.0
N507 N 0.67479 0.22689 0.14638 0.0
N508 N 0.61944 0.21838 0.08541 0.0
C509 C 0.61381 0.24695 0.11709 0.0
C510 C 0.64369 0.25139 0.15034 0.0
C511 C 0.78498 0.63792 0.15995 0.0
C512 C 0.78423 0.67536 0.13942 0.0
C513 C 0.79751 0.60476 0.13578 0.0
C514 C 0.81036 0.60756 0.09028 0.0
H515 H 0.7733 0.63359 0.19401 0.0
H516 H 0.79468 0.57624 0.15187 0.0
S517 S 0.81763 0.69857 0.0216 0.0
N518 N 0.80059 0.71337 0.07153 0.0
N519 N 0.82356 0.65066 0.02613 0.0
C520 C 0.81193 0.64485 0.07002 0.0
C521 C 0.79901 0.67879 0.09455 0.0
C522 C 0.37288 0.77741 0.158 0.0
C523 C 0.37061 0.74845 0.19218 0.0
C524 C 0.40509 0.7796 0.12856 0.0
C525 C 0.43586 0.75248 0.13157 0.0
H526 H 0.34832 0.79648 0.1513 0.0
H527 H 0.40453 0.80102 0.1012 0.0
S528 S 0.44811 0.67659 0.22083 0.0
N529 N 0.40543 0.69679 0.2325 0.0
N530 N 0.46503 0.69965 0.17516 0.0
C531 C 0.43565 0.72555 0.16774 0.0
C532 C 0.40337 0.72404 0.19868 0.0
C533 C 0.23709 0.36969 0.16135 0.0
C534 C 0.23909 0.33541 0.13478 0.0
C535 C 0.22525 0.40563 0.14207 0.0
C536 C 0.21373 0.40828 0.09603 0.0
H537 H 0.24708 0.36923 0.19641 0.0
H538 H 0.22721 0.43194 0.1626 0.0
S539 S 0.2109 0.32645 1.0131 0.0
N540 N 0.22673 0.30604 0.06076 0.0
N541 N 0.20327 0.37308 0.02527 0.0
C542 C 0.21333 0.37372 0.07007 0.0
C543 C 0.22626 0.33742 0.08927 0.0
C544 C 0.379 0.22498 0.1492 0.0
C545 C 0.34499 0.23417 0.12441 0.0
C546 C 0.41372 0.21393 0.12674 0.0
C547 C 0.41531 0.21078 0.07889 0.0
H548 H 0.37938 0.22842 0.18597 0.0
H549 H 0.44003 0.2101 0.14669 0.0
S550 S 0.33357 0.22767 0.9987 0.0
N551 N 0.31451 0.23624 0.0496 0.0
N552 N 0.37955 0.21552 1.00783 0.0
C553 C 0.38101 0.21774 0.0541 0.0
C554 C 0.34589 0.22934 0.07672 0.0
C555 C 0.72107 0.41334 0.19215 0.0
C556 C 0.74408 0.3791 0.19102 0.0
C557 C 0.72641 0.44336 0.15996 0.0
C558 C 0.75576 0.44072 0.12658 0.0
H559 H 0.69677 0.41548 0.2158 0.0
H560 H 0.70657 0.46804 0.16015 0.0
S561 S 0.82659 0.35965 0.11164 0.0
N562 N 0.79902 0.34588 0.15514 0.0
N563 N 0.81034 0.40323 0.09652 0.0
C564 C 0.78122 0.40848 0.12762 0.0
C565 C 0.77523 0.3775 0.15959 0.0
C566 C 0.64009 0.77322 0.1637 0.0
C567 C 0.6771 0.7761 0.14265 0.0
C568 C 0.60595 0.78484 0.14101 0.0
C569 C 0.60725 0.80056 0.09662 0.0
H570 H 0.63706 0.75958 0.19697 0.0
H571 H 0.57801 0.77943 0.15739 0.0
S572 S 0.69642 0.817 0.0271 0.0
N573 N 0.71289 0.79817 0.07537 0.0
N574 N 0.64848 0.81986 0.03291 0.0
C575 C 0.644 0.80552 0.07591 0.0
C576 C 0.67892 0.79332 0.09884 0.0
C577 C 0.29212 0.61621 0.19718 0.0
C578 C 0.26854 0.64965 0.19051 0.0
C579 C 0.29036 0.58412 0.16731 0.0
C580 C 0.26398 0.58383 0.13081 0.0
H581 H 0.31405 0.61606 0.22376 0.0
H582 H 0.31038 0.55994 0.17209 0.0
S583 S 0.1935 0.66204 0.10031 0.0
N584 N 0.21673 0.67915 0.14533 0.0
N585 N 0.21186 0.61809 0.09125 0.0
C586 C 0.23813 0.61554 0.12588 0.0
C587 C 0.24058 0.64855 0.15542 0.0
C588 C 0.38678 0.77447 0.87573 0.0
C589 C 0.3489 0.77338 0.89495 0.0
C590 C 0.41907 0.78811 0.9006 0.0
C591 C 0.41498 0.80165 0.94562 0.0
H592 H 0.39219 0.76223 0.84221 0.0
H593 H 0.44792 0.78544 0.88559 0.0
S594 S 0.32246 0.80841 1.01102 0.0
N595 N 0.30916 0.79038 0.96108 0.0
N596 N 0.37023 0.81497 1.00794 0.0
C597 C 0.37728 0.80273 0.96458 0.0
C598 C 0.34421 0.78889 0.93927 0.0
C599 C 0.25462 0.37992 0.88887 0.0
C600 C 0.28431 0.38105 0.85558 0.0
C601 C 0.25131 0.40937 0.92155 0.0
C602 C 0.27806 0.44063 0.92327 0.0
H603 H 0.23531 0.35487 0.89199 0.0
H604 H 0.22858 0.40655 0.94712 0.0
S605 S 0.35608 0.46185 0.83901 0.0
N606 N 0.33681 0.42 0.8217 0.0
N607 N 0.33175 0.47428 0.88559 0.0
C608 C 0.30623 0.44383 0.8887 0.0
C609 C 0.30891 0.41439 0.8542 0.0
C610 C 0.68168 0.22659 0.92941 0.0
C611 C 0.67886 0.24489 0.88629 0.0
C612 C 0.64814 0.21292 0.95274 0.0
C613 C 0.61069 0.21711 0.93373 0.0
H614 H 0.70984 0.22406 0.94589 0.0
H615 H 0.65129 0.20141 0.98703 0.0
S616 S 0.58695 0.26316 0.82262 0.0
N617 N 0.63498 0.26626 0.82597 0.0
N618 N 0.57268 0.24045 0.86964 0.0
C619 C 0.60765 0.23408 0.89021 0.0
C620 C 0.6415 0.24796 0.86652 0.0
C621 C 0.70338 0.58983 0.84432 0.0
C622 C 0.72717 0.6226 0.83483 0.0
C623 C 0.71219 0.56426 0.88019 0.0
C624 C 0.74544 0.57025 0.90719 0.0
H625 H 0.67594 0.58604 0.82651 0.0
H626 H 0.69198 0.54067 0.88804 0.0
S627 S 0.81942 0.64913 0.89255 0.0
N628 N 0.78673 0.65791 0.85248 0.0
N629 N 0.80436 0.60907 0.91915 0.0
C630 C 0.77133 0.60086 0.89536 0.0
C631 C 0.76198 0.62721 0.85917 0.0
loop_
_geom_bond_atom_site_label_1
_geom_bond_atom_site_label_2
_geom_bond_distance
_geom_bond_site_symmetry_2
_ccdc_geom_bond_type
H0 C8 0.930 . S
H1 C11 0.930 . S
H2 C13 0.930 . S
H3 C14 0.970 . S
H4 C14 0.970 . S
H5 C16 0.930 . S
H6 C18 0.930 . S
H7 C20 0.930 . S
C8 H0 0.930 . S
C8 C9 1.382 . S
C8 C10 1.426 . S
C9 C8 1.382 . S
C9 C13 1.389 . S
C10 C8 1.426 . S
C10 C11 1.375 . S
C10 C14 1.532 . S
C11 H1 0.930 . S
C11 C10 1.375 . S
C11 C12 1.416 . S
C12 C11 1.416 . S
C12 C13 1.371 . S
C13 H2 0.930 . S
C13 C9 1.389 . S
C13 C12 1.371 . S
C14 H3 0.970 . S
C14 H4 0.970 . S
C14 C10 1.532 . S
C14 C15 1.499 . S
C15 C14 1.499 . S
C15 C16 1.370 . S
C15 C20 1.415 . S
C16 H5 0.930 . S
C16 C15 1.370 . S
C16 C17 1.407 . S
C17 C16 1.407 . S
C17 C18 1.365 . S
C18 H6 0.930 . S
C18 C17 1.365 . S
C18 C19 1.393 . S
C19 C18 1.393 . S
C19 C20 1.387 . S
C20 H7 0.930 . S
C20 C15 1.415 . S
C20 C19 1.387 . S
H21 C29 0.930 . S
H22 C32 0.930 . S
H23 C34 0.930 . S
H24 C35 0.970 . S
H25 C35 0.970 . S
H26 C37 0.930 . S
H27 C39 0.930 . S
H28 C41 0.930 . S
C29 H21 0.930 . S
C29 C30 1.382 . S
C29 C31 1.426 . S
C30 C29 1.382 . S
C30 C34 1.389 . S
C31 C29 1.426 . S
C31 C32 1.375 . S
C31 C35 1.532 . S
C32 H22 0.930 . S
C32 C31 1.375 . S
C32 C33 1.416 . S
C33 C32 1.416 . S
C33 C34 1.371 . S
C34 H23 0.930 . S
C34 C30 1.389 . S
C34 C33 1.371 . S
C35 H24 0.970 . S
C35 H25 0.970 . S
C35 C31 1.532 . S
C35 C36 1.499 . S
C36 C35 1.499 . S
C36 C37 1.370 . S
C36 C41 1.415 . S
C37 H26 0.930 . S
C37 C36 1.370 . S
C37 C38 1.407 . S
C38 C37 1.407 . S
C38 C39 1.365 . S
C39 H27 0.930 . S
C39 C38 1.365 . S
C39 C40 1.393 . S
C40 C39 1.393 . S
C40 C41 1.387 . S
C41 H28 0.930 . S
C41 C36 1.415 . S
C41 C40 1.387 . S
H42 C50 0.930 . S
H43 C53 0.930 . S
H44 C55 0.930 . S
H45 C56 0.970 . S
H46 C56 0.970 . S
H47 C58 0.930 . S
H48 C60 0.930 . S
H49 C62 0.930 . S
C50 H42 0.930 . S
C50 C51 1.382 . S
C50 C52 1.426 . S
C51 C50 1.382 . S
C51 C55 1.389 . S
C52 C50 1.426 . S
C52 C53 1.375 . S
C52 C56 1.532 . S
C53 H43 0.930 . S
C53 C52 1.375 . S
C53 C54 1.416 . S
C54 C53 1.416 . S
C54 C55 1.371 . S
C55 H44 0.930 . S
C55 C51 1.389 . S
C55 C54 1.371 . S
C56 H45 0.970 . S
C56 H46 0.970 . S
C56 C52 1.532 . S
C56 C57 1.499 . S
C57 C56 1.499 . S
C57 C58 1.370 . S
C57 C62 1.415 . S
C58 H47 0.930 . S
C58 C57 1.370 . S
C58 C59 1.407 . S
C59 C58 1.407 . S
C59 C60 1.365 . S
C60 H48 0.930 . S
C60 C59 1.365 . S
C60 C61 1.393 . S
C61 C60 1.393 . S
C61 C62 1.387 . S
C62 H49 0.930 . S
C62 C57 1.415 . S
C62 C61 1.387 . S
H63 C71 0.930 . S
H64 C74 0.930 . S
H65 C76 0.930 . S
H66 C77 0.970 . S
H67 C77 0.970 . S
H68 C79 0.930 . S
H69 C81 0.930 . S
H70 C83 0.930 . S
C71 H63 0.930 . S
C71 C72 1.382 . S
C71 C73 1.426 . S
C72 C71 1.382 . S
C72 C76 1.389 . S
C73 C71 1.426 . S
C73 C74 1.375 . S
C73 C77 1.532 . S
C74 H64 0.930 . S
C74 C73 1.375 . S
C74 C75 1.416 . S
C75 C74 1.416 . S
C75 C76 1.371 . S
C76 H65 0.930 . S
C76 C72 1.389 . S
C76 C75 1.371 . S
C77 H66 0.970 . S
C77 H67 0.970 . S
C77 C73 1.532 . S
C77 C78 1.499 . S
C78 C77 1.499 . S
C78 C79 1.370 . S
C78 C83 1.415 . S
C79 H68 0.930 . S
C79 C78 1.370 . S
C79 C80 1.407 . S
C80 C79 1.407 . S
C80 C81 1.365 . S
C81 H69 0.930 . S
C81 C80 1.365 . S
C81 C82 1.393 . S
C82 C81 1.393 . S
C82 C83 1.387 . S
C83 H70 0.930 . S
C83 C78 1.415 . S
C83 C82 1.387 . S
H84 C92 0.930 . S
H85 C95 0.930 . S
H86 C97 0.930 . S
H87 C98 0.970 . S
H88 C98 0.970 . S
H89 C100 0.930 . S
H90 C102 0.930 . S
H91 C104 0.930 . S
C92 H84 0.930 . S
C92 C93 1.382 . S
C92 C94 1.426 . S
C93 C92 1.382 . S
C93 C97 1.389 . S
C94 C92 1.426 . S
C94 C95 1.375 . S
C94 C98 1.532 . S
C95 H85 0.930 . S
C95 C94 1.375 . S
C95 C96 1.416 . S
C96 C95 1.416 . S
C96 C97 1.371 . S
C97 H86 0.930 . S
C97 C93 1.389 . S
C97 C96 1.371 . S
C98 H87 0.970 . S
C98 H88 0.970 . S
C98 C94 1.532 . S
C98 C99 1.499 . S
C99 C98 1.499 . S
C99 C100 1.370 . S
C99 C104 1.415 . S
C100 H89 0.930 . S
C100 C99 1.370 . S
C100 C101 1.407 . S
C101 C100 1.407 . S
C101 C102 1.365 . S
C102 H90 0.930 . S
C102 C101 1.365 . S
C102 C103 1.393 . S
C103 C102 1.393 . S
C103 C104 1.387 . S
C104 H91 0.930 . S
C104 C99 1.415 . S
C104 C103 1.387 . S
H105 C113 0.930 . S
H106 C116 0.930 . S
H107 C118 0.930 . S
H108 C119 0.970 . S
H109 C119 0.970 . S
H110 C121 0.930 . S
H111 C123 0.930 . S
H112 C125 0.930 . S
C113 H105 0.930 . S
C113 C114 1.382 . S
C113 C115 1.426 . S
C114 C113 1.382 . S
C114 C118 1.389 . S
C115 C113 1.426 . S
C115 C116 1.375 . S
C115 C119 1.532 . S
C116 H106 0.930 . S
C116 C115 1.375 . S
C116 C117 1.416 . S
C117 C116 1.416 . S
C117 C118 1.371 . S
C118 H107 0.930 . S
C118 C114 1.389 . S
C118 C117 1.371 . S
C119 H108 0.970 . S
C119 H109 0.970 . S
C119 C115 1.532 . S
C119 C120 1.499 . S
C120 C119 1.499 . S
C120 C121 1.370 . S
C120 C125 1.415 . S
C121 H110 0.930 . S
C121 C120 1.370 . S
C121 C122 1.407 . S
C122 C121 1.407 . S
C122 C123 1.365 . S
C123 H111 0.930 . S
C123 C122 1.365 . S
C123 C124 1.393 . S
C124 C123 1.393 . S
C124 C125 1.387 . S
C125 H112 0.930 . S
C125 C120 1.415 . S
C125 C124 1.387 . S
H126 C134 0.930 . S
H127 C137 0.930 . S
H128 C139 0.930 . S
H129 C140 0.970 . S
H130 C140 0.970 . S
H131 C142 0.930 . S
H132 C144 0.930 . S
H133 C146 0.930 . S
C134 H126 0.930 . S
C134 C135 1.382 . S
C134 C136 1.426 . S
C135 C134 1.382 . S
C135 C139 1.389 . S
C136 C134 1.426 . S
C136 C137 1.375 . S
C136 C140 1.532 . S
C137 H127 0.930 . S
C137 C136 1.375 . S
C137 C138 1.416 . S
C138 C137 1.416 . S
C138 C139 1.371 . S
C139 H128 0.930 . S
C139 C135 1.389 . S
C139 C138 1.371 . S
C140 H129 0.970 . S
C140 H130 0.970 . S
C140 C136 1.532 . S
C140 C141 1.499 . S
C141 C140 1.499 . S
C141 C142 1.370 . S
C141 C146 1.415 . S
C142 H131 0.930 . S
C142 C141 1.370 . S
C142 C143 1.407 . S
C143 C142 1.407 . S
C143 C144 1.365 . S
C144 H132 0.930 . S
C144 C143 1.365 . S
C144 C145 1.393 . S
C145 C144 1.393 . S
C145 C146 1.387 . S
C146 H133 0.930 . S
C146 C141 1.415 . S
C146 C145 1.387 . S
H147 C155 0.930 . S
H148 C158 0.930 . S
H149 C160 0.930 . S
H150 C161 0.970 . S
H151 C161 0.970 . S
H152 C163 0.930 . S
H153 C165 0.930 . S
H154 C167 0.930 . S
C155 H147 0.930 . S
C155 C156 1.382 . S
C155 C157 1.426 . S
C156 C155 1.382 . S
C156 C160 1.389 . S
C157 C155 1.426 . S
C157 C158 1.375 . S
C157 C161 1.532 . S
C158 H148 0.930 . S
C158 C157 1.375 . S
C158 C159 1.416 . S
C159 C158 1.416 . S
C159 C160 1.371 . S
C160 H149 0.930 . S
C160 C156 1.389 . S
C160 C159 1.371 . S
C161 H150 0.970 . S
C161 H151 0.970 . S
C161 C157 1.532 . S
C161 C162 1.499 . S
C162 C161 1.499 . S
C162 C163 1.370 . S
C162 C167 1.415 . S
C163 H152 0.930 . S
C163 C162 1.370 . S
C163 C164 1.407 . S
C164 C163 1.407 . S
C164 C165 1.365 . S
C165 H153 0.930 . S
C165 C164 1.365 . S
C165 C166 1.393 . S
C166 C165 1.393 . S
C166 C167 1.387 . S
C167 H154 0.930 . S
C167 C162 1.415 . S
C167 C166 1.387 . S
C168 O170 1.247 . S
C168 O172 1.258 . S
C169 O176 1.247 . S
C169 O177 1.258 . S
O170 C168 1.247 . S
O170 Zn171 2.028 1_655 S
Zn171 O170 2.028 1_455 S
Zn171 O175 2.035 . S
Zn171 O177 2.035 . S
Zn171 O178 2.028 1_455 S
O172 C168 1.258 . S
O172 Zn173 2.035 1_655 S
Zn173 O172 2.035 1_455 S
Zn173 O174 2.028 . S
Zn173 O176 2.028 . S
Zn173 O179 2.035 1_455 S
O174 Zn173 2.028 . S
O174 C180 1.247 . S
O175 Zn171 2.035 . S
O175 C180 1.258 . S
O176 C169 1.247 . S
O176 Zn173 2.028 . S
O177 C169 1.258 . S
O177 Zn171 2.035 . S
O178 Zn171 2.028 1_655 S
O178 C181 1.247 . S
O179 Zn173 2.035 1_655 S
O179 C181 1.258 . S
C180 O174 1.247 . S
C180 O175 1.258 . S
C181 O178 1.247 . S
C181 O179 1.258 . S
C182 O184 1.247 . S
C182 O186 1.258 . S
C183 O190 1.247 . S
C183 O191 1.258 . S
O184 C182 1.247 . S
O184 Zn185 2.028 . S
Zn185 O184 2.028 . S
Zn185 O189 2.035 1_545 S
Zn185 O191 2.035 1_545 S
Zn185 O192 2.028 . S
O186 C182 1.258 . S
O186 Zn187 2.035 . S
Zn187 O186 2.035 . S
Zn187 O188 2.028 1_545 S
Zn187 O190 2.028 1_545 S
Zn187 O193 2.035 . S
O188 Zn187 2.028 1_565 S
O188 C194 1.247 . S
O189 Zn185 2.035 1_565 S
O189 C194 1.258 . S
O190 C183 1.247 . S
O190 Zn187 2.028 1_565 S
O191 C183 1.258 . S
O191 Zn185 2.035 1_565 S
O192 Zn185 2.028 . S
O192 C195 1.247 . S
O193 Zn187 2.035 . S
O193 C195 1.258 . S
C194 O188 1.247 . S
C194 O189 1.258 . S
C195 O192 1.247 . S
C195 O193 1.258 . S
C196 O198 1.247 . S
C196 O200 1.258 . S
C197 O204 1.247 . S
C197 O205 1.258 . S
O198 C196 1.247 . S
O198 Zn199 2.028 1_655 S
Zn199 O198 2.028 1_455 S
Zn199 O203 2.035 . S
Zn199 O205 2.035 . S
Zn199 O206 2.028 1_455 S
O200 C196 1.258 . S
O200 Zn201 2.035 1_655 S
Zn201 O200 2.035 1_455 S
Zn201 O202 2.028 . S
Zn201 O204 2.028 . S
Zn201 O207 2.035 1_455 S
O202 Zn201 2.028 . S
O202 C208 1.247 . S
O203 Zn199 2.035 . S
O203 C208 1.258 . S
O204 C197 1.247 . S
O204 Zn201 2.028 . S
O205 C197 1.258 . S
O205 Zn199 2.035 . S
O206 Zn199 2.028 1_655 S
O206 C209 1.247 . S
O207 Zn201 2.035 1_655 S
O207 C209 1.258 . S
C208 O202 1.247 . S
C208 O203 1.258 . S
C209 O206 1.247 . S
C209 O207 1.258 . S
C210 O212 1.247 . S
C210 O214 1.258 . S
C211 O218 1.247 . S
C211 O219 1.258 . S
O212 C210 1.247 . S
O212 Zn213 2.028 . S
Zn213 O212 2.028 . S
Zn213 O217 2.035 1_545 S
Zn213 O219 2.035 1_545 S
Zn213 O220 2.028 . S
O214 C210 1.258 . S
O214 Zn215 2.035 . S
Zn215 O214 2.035 . S
Zn215 O216 2.028 1_545 S
Zn215 O218 2.028 1_545 S
Zn215 O221 2.035 . S
O216 Zn215 2.028 1_565 S
O216 C222 1.247 . S
O217 Zn213 2.035 1_565 S
O217 C222 1.258 . S
O218 C211 1.247 . S
O218 Zn215 2.028 1_565 S
O219 C211 1.258 . S
O219 Zn213 2.035 1_565 S
O220 Zn213 2.028 . S
O220 C223 1.247 . S
O221 Zn215 2.035 . S
O221 C223 1.258 . S
C222 O216 1.247 . S
C222 O217 1.258 . S
C223 O220 1.247 . S
C223 O221 1.258 . S
C224 O226 1.247 . S
C224 O228 1.258 . S
C225 O232 1.247 . S
C225 O233 1.258 . S
O226 C224 1.247 . S
O226 Zn227 2.042 . S
Zn227 O226 2.042 . S
Zn227 O231 2.050 . S
Zn227 O233 2.021 1_554 S
Zn227 O234 2.013 1_554 S
O228 C224 1.258 . S
O228 Zn229 2.037 . S
Zn229 O228 2.037 . S
Zn229 O230 2.030 . S
Zn229 O232 2.026 1_554 S
Zn229 O235 2.033 1_554 S
O230 Zn229 2.030 . S
O230 C236 1.247 . S
O231 Zn227 2.050 . S
O231 C236 1.258 . S
O232 C225 1.247 . S
O232 Zn229 2.026 1_556 S
O233 C225 1.258 . S
O233 Zn227 2.021 1_556 S
O234 Zn227 2.013 1_556 S
O234 C237 1.247 . S
O235 Zn229 2.033 1_556 S
O235 C237 1.258 . S
C236 O230 1.247 . S
C236 O231 1.258 . S
C237 O234 1.247 . S
C237 O235 1.258 . S
C238 O240 1.247 . S
C238 O242 1.258 . S
C239 O246 1.247 . S
C239 O247 1.258 . S
O240 C238 1.247 . S
O240 Zn241 2.044 . S
Zn241 O240 2.044 . S
Zn241 O245 2.051 . S
Zn241 O247 2.020 1_554 S
Zn241 O248 2.012 1_554 S
O242 C238 1.258 . S
O242 Zn243 2.035 . S
Zn243 O242 2.035 . S
Zn243 O244 2.028 . S
Zn243 O246 2.028 1_554 S
Zn243 O249 2.035 1_554 S
O244 Zn243 2.028 . S
O244 C250 1.247 . S
O245 Zn241 2.051 . S
O245 C250 1.258 . S
O246 C239 1.247 . S
O246 Zn243 2.028 1_556 S
O247 C239 1.258 . S
O247 Zn241 2.020 1_556 S
O248 Zn241 2.012 1_556 S
O248 C251 1.247 . S
O249 Zn243 2.035 1_556 S
O249 C251 1.258 . S
C250 O244 1.247 . S
C250 O245 1.258 . S
C251 O248 1.247 . S
C251 O249 1.258 . S
C252 O254 1.247 . S
C252 O256 1.258 . S
C253 O260 1.247 . S
C253 O261 1.258 . S
O254 C252 1.247 . S
O254 Zn255 2.028 1_556 S
Zn255 O254 2.028 1_554 S
Zn255 O259 2.035 1_554 S
Zn255 O261 2.035 . S
Zn255 O262 2.028 . S
O256 C252 1.258 . S
O256 Zn257 2.035 1_556 S
Zn257 O256 2.035 1_554 S
Zn257 O258 2.028 1_554 S
Zn257 O260 2.028 . S
Zn257 O263 2.035 . S
O258 Zn257 2.028 1_556 S
O258 C264 1.247 . S
O259 Zn255 2.035 1_556 S
O259 C264 1.258 . S
O260 C253 1.247 . S
O260 Zn257 2.028 . S
O261 C253 1.258 . S
O261 Zn255 2.035 . S
O262 Zn255 2.028 . S
O262 C265 1.247 . S
O263 Zn257 2.035 . S
O263 C265 1.258 . S
C264 O258 1.247 . S
C264 O259 1.258 . S
C265 O262 1.247 . S
C265 O263 1.258 . S
C266 O268 1.247 . S
C266 O270 1.258 . S
C267 O274 1.247 . S
C267 O275 1.258 . S
O268 C266 1.247 . S
O268 Zn269 2.028 . S
Zn269 O268 2.028 . S
Zn269 O273 2.035 . S
Zn269 O275 2.035 1_554 S
Zn269 O276 2.028 1_554 S
O270 C266 1.258 . S
O270 Zn271 2.035 . S
Zn271 O270 2.035 . S
Zn271 O272 2.028 . S
Zn271 O274 2.028 1_554 S
Zn271 O277 2.035 1_554 S
O272 Zn271 2.028 . S
O272 C278 1.247 . S
O273 Zn269 2.035 . S
O273 C278 1.258 . S
O274 C267 1.247 . S
O274 Zn271 2.028 1_556 S
O275 C267 1.258 . S
O275 Zn269 2.035 1_556 S
O276 Zn269 2.028 1_556 S
O276 C279 1.247 . S
O277 Zn271 2.035 1_556 S
O277 C279 1.258 . S
C278 O272 1.247 . S
C278 O273 1.258 . S
C279 O276 1.247 . S
C279 O277 1.258 . S
C280 C281 1.369 . S
C280 C282 1.419 . S
C280 H284 0.930 . S
C281 C280 1.369 . S
C281 C290 1.429 . S
C282 C280 1.419 . S
C282 C283 1.363 . S
C282 H285 0.929 . S
C283 C282 1.363 . S
C283 C289 1.428 . S
H284 C280 0.930 . S
H285 C282 0.929 . S
S286 N287 1.613 . S
S286 N288 1.610 . S
N287 S286 1.613 . S
N287 C290 1.350 . S
N288 S286 1.610 . S
N288 C289 1.351 . S
C289 C283 1.428 . S
C289 N288 1.351 . S
C289 C290 1.434 . S
C290 C281 1.429 . S
C290 N287 1.350 . S
C290 C289 1.434 . S
C291 C292 1.369 . S
C291 C293 1.419 . S
C291 H295 0.930 . S
C292 C291 1.369 . S
C292 C301 1.429 . S
C293 C291 1.419 . S
C293 C294 1.363 . S
C293 H296 0.929 . S
C294 C293 1.363 . S
C294 C300 1.428 . S
H295 C291 0.930 . S
H296 C293 0.929 . S
S297 N298 1.613 . S
S297 N299 1.610 . S
N298 S297 1.613 . S
N298 C301 1.350 . S
N299 S297 1.610 . S
N299 C300 1.351 . S
C300 C294 1.428 . S
C300 N299 1.351 . S
C300 C301 1.434 . S
C301 C292 1.429 . S
C301 N298 1.350 . S
C301 C300 1.434 . S
C302 C303 1.369 . S
C302 C304 1.419 . S
C302 H306 0.930 . S
C303 C302 1.369 . S
C303 C312 1.429 . S
C304 C302 1.419 . S
C304 C305 1.363 . S
C304 H307 0.929 . S
C305 C304 1.363 . S
C305 C311 1.428 . S
H306 C302 0.930 . S
H307 C304 0.929 . S
S308 N309 1.613 . S
S308 N310 1.610 . S
N309 S308 1.613 . S
N309 C312 1.350 . S
N310 S308 1.610 . S
N310 C311 1.351 . S
C311 C305 1.428 . S
C311 N310 1.351 . S
C311 C312 1.434 . S
C312 C303 1.429 . S
C312 N309 1.350 . S
C312 C311 1.434 . S
C313 C314 1.369 . S
C313 C315 1.419 . S
C313 H317 0.930 . S
C314 C313 1.369 . S
C314 C323 1.429 . S
C315 C313 1.419 . S
C315 C316 1.363 . S
C315 H318 0.929 . S
C316 C315 1.363 . S
C316 C322 1.428 . S
H317 C313 0.930 . S
H318 C315 0.929 . S
S319 N320 1.613 . S
S319 N321 1.610 . S
N320 S319 1.613 . S
N320 C323 1.350 . S
N321 S319 1.610 . S
N321 C322 1.351 . S
C322 C316 1.428 . S
C322 N321 1.351 . S
C322 C323 1.434 . S
C323 C314 1.429 . S
C323 N320 1.350 . S
C323 C322 1.434 . S
C324 C325 1.369 . S
C324 C326 1.419 . S
C324 H328 0.930 . S
C325 C324 1.369 . S
C325 C334 1.429 . S
C326 C324 1.419 . S
C326 C327 1.363 . S
C326 H329 0.929 . S
C327 C326 1.363 . S
C327 C333 1.428 . S
H328 C324 0.930 . S
H329 C326 0.929 . S
S330 N331 1.613 . S
S330 N332 1.610 . S
N331 S330 1.613 . S
N331 C334 1.350 . S
N332 S330 1.610 . S
N332 C333 1.351 . S
C333 C327 1.428 . S
C333 N332 1.351 . S
C333 C334 1.434 . S
C334 C325 1.429 . S
C334 N331 1.350 . S
C334 C333 1.434 . S
C335 C336 1.369 . S
C335 C337 1.419 . S
C335 H339 0.930 . S
C336 C335 1.369 . S
C336 C345 1.429 . S
C337 C335 1.419 . S
C337 C338 1.363 . S
C337 H340 0.929 . S
C338 C337 1.363 . S
C338 C344 1.428 . S
H339 C335 0.930 . S
H340 C337 0.929 . S
S341 N342 1.613 . S
S341 N343 1.610 . S
N342 S341 1.613 . S
N342 C345 1.350 . S
N343 S341 1.610 . S
N343 C344 1.351 . S
C344 C338 1.428 . S
C344 N343 1.351 . S
C344 C345 1.434 . S
C345 C336 1.429 . S
C345 N342 1.350 . S
C345 C344 1.434 . S
C346 C347 1.369 . S
C346 C348 1.419 . S
C346 H350 0.930 . S
C347 C346 1.369 . S
C347 C356 1.429 . S
C348 C346 1.419 . S
C348 C349 1.363 . S
C348 H351 0.929 . S
C349 C348 1.363 . S
C349 C355 1.428 . S
H350 C346 0.930 . S
H351 C348 0.929 . S
S352 N353 1.613 . S
S352 N354 1.610 . S
N353 S352 1.613 . S
N353 C356 1.350 . S
N354 S352 1.610 . S
N354 C355 1.351 . S
C355 C349 1.428 . S
C355 N354 1.351 . S
C355 C356 1.434 . S
C356 C347 1.429 . S
C356 N353 1.350 . S
C356 C355 1.434 . S
C357 C358 1.369 . S
C357 C359 1.419 . S
C357 H361 0.930 . S
C358 C357 1.369 . S
C358 C367 1.429 . S
C359 C357 1.419 . S
C359 C360 1.363 . S
C359 H362 0.929 . S
C360 C359 1.363 . S
C360 C366 1.428 . S
H361 C357 0.930 . S
H362 C359 0.929 . S
S363 N364 1.613 . S
S363 N365 1.610 . S
N364 S363 1.613 . S
N364 C367 1.350 . S
N365 S363 1.610 . S
N365 C366 1.351 . S
C366 C360 1.428 . S
C366 N365 1.351 . S
C366 C367 1.434 . S
C367 C358 1.429 . S
C367 N364 1.350 . S
C367 C366 1.434 . S
C368 C369 1.369 . S
C368 C370 1.419 . S
C368 H372 0.930 . S
C369 C368 1.369 . S
C369 C378 1.429 . S
C370 C368 1.419 . S
C370 C371 1.363 . S
C370 H373 0.929 . S
C371 C370 1.363 . S
C371 C377 1.428 . S
H372 C368 0.930 . S
H373 C370 0.929 . S
S374 N375 1.613 . S
S374 N376 1.610 . S
N375 S374 1.613 . S
N375 C378 1.350 . S
N376 S374 1.610 . S
N376 C377 1.351 . S
C377 C371 1.428 . S
C377 N376 1.351 . S
C377 C378 1.434 . S
C378 C369 1.429 . S
C378 N375 1.350 . S
C378 C377 1.434 . S
C379 C380 1.369 . S
C379 C381 1.419 . S
C379 H383 0.930 . S
C380 C379 1.369 . S
C380 C389 1.429 . S
C381 C379 1.419 . S
C381 C382 1.363 . S
C381 H384 0.929 . S
C382 C381 1.363 . S
C382 C388 1.428 . S
H383 C379 0.930 . S
H384 C381 0.929 . S
S385 N386 1.613 . S
S385 N387 1.610 . S
N386 S385 1.613 . S
N386 C389 1.350 . S
N387 S385 1.610 . S
N387 C388 1.351 . S
C388 C382 1.428 . S
C388 N387 1.351 . S
C388 C389 1.434 . S
C389 C380 1.429 . S
C389 N386 1.350 . S
C389 C388 1.434 . S
C390 C391 1.369 . S
C390 C392 1.419 . S
C390 H394 0.930 . S
C391 C390 1.369 . S
C391 C400 1.429 . S
C392 C390 1.419 . S
C392 C393 1.363 . S
C392 H395 0.929 . S
C393 C392 1.363 . S
C393 C399 1.428 . S
H394 C390 0.930 . S
H395 C392 0.929 . S
S396 N397 1.613 . S
S396 N398 1.610 . S
N397 S396 1.613 . S
N397 C400 1.350 . S
N398 S396 1.610 . S
N398 C399 1.351 . S
C399 C393 1.428 . S
C399 N398 1.351 . S
C399 C400 1.434 . S
C400 C391 1.429 . S
C400 N397 1.350 . S
C400 C399 1.434 . S
C401 C402 1.369 . S
C401 C403 1.419 . S
C401 H405 0.930 . S
C402 C401 1.369 . S
C402 C411 1.429 . S
C403 C401 1.419 . S
C403 C404 1.363 . S
C403 H406 0.929 . S
C404 C403 1.363 . S
C404 C410 1.428 . S
H405 C401 0.930 . S
H406 C403 0.929 . S
S407 N408 1.613 . S
S407 N409 1.610 . S
N408 S407 1.613 . S
N408 C411 1.350 . S
N409 S407 1.610 . S
N409 C410 1.351 . S
C410 C404 1.428 . S
C410 N409 1.351 . S
C410 C411 1.434 . S
C411 C402 1.429 . S
C411 N408 1.350 . S
C411 C410 1.434 . S
C412 C413 1.369 . S
C412 C414 1.419 . S
C412 H416 0.930 . S
C413 C412 1.369 . S
C413 C422 1.429 . S
C414 C412 1.419 . S
C414 C415 1.363 . S
C414 H417 0.929 . S
C415 C414 1.363 . S
C415 C421 1.428 . S
H416 C412 0.930 . S
H417 C414 0.929 . S
S418 N419 1.613 . S
S418 N420 1.610 . S
N419 S418 1.613 . S
N419 C422 1.350 . S
N420 S418 1.610 . S
N420 C421 1.351 . S
C421 C415 1.428 . S
C421 N420 1.351 . S
C421 C422 1.434 . S
C422 C413 1.429 . S
C422 N419 1.350 . S
C422 C421 1.434 . S
C423 C424 1.369 . S
C423 C425 1.419 . S
C423 H427 0.930 . S
C424 C423 1.369 . S
C424 C433 1.429 . S
C425 C423 1.419 . S
C425 C426 1.363 . S
C425 H428 0.929 . S
C426 C425 1.363 . S
C426 C432 1.428 . S
H427 C423 0.930 . S
H428 C425 0.929 . S
S429 N430 1.613 . S
S429 N431 1.610 . S
N430 S429 1.613 . S
N430 C433 1.350 . S
N431 S429 1.610 . S
N431 C432 1.351 . S
C432 C426 1.428 . S
C432 N431 1.351 . S
C432 C433 1.434 . S
C433 C424 1.429 . S
C433 N430 1.350 . S
C433 C432 1.434 . S
C434 C435 1.369 . S
C434 C436 1.419 . S
C434 H438 0.930 . S
C435 C434 1.369 . S
C435 C444 1.429 . S
C436 C434 1.419 . S
C436 C437 1.363 . S
C436 H439 0.929 . S
C437 C436 1.363 . S
C437 C443 1.428 . S
H438 C434 0.930 . S
H439 C436 0.929 . S
S440 N441 1.613 . S
S440 N442 1.610 . S
N441 S440 1.613 . S
N441 C444 1.350 . S
N442 S440 1.610 . S
N442 C443 1.351 . S
C443 C437 1.428 . S
C443 N442 1.351 . S
C443 C444 1.434 . S
C444 C435 1.429 . S
C444 N441 1.350 . S
C444 C443 1.434 . S
C445 C446 1.369 . S
C445 C447 1.419 . S
C445 H449 0.930 . S
C446 C445 1.369 . S
C446 C455 1.429 . S
C447 C445 1.419 . S
C447 C448 1.363 . S
C447 H450 0.929 . S
C448 C447 1.363 . S
C448 C454 1.428 . S
H449 C445 0.930 . S
H450 C447 0.929 . S
S451 N452 1.613 . S
S451 N453 1.610 . S
N452 S451 1.613 . S
N452 C455 1.350 . S
N453 S451 1.610 . S
N453 C454 1.351 . S
C454 C448 1.428 . S
C454 N453 1.351 . S
C454 C455 1.434 . S
C455 C446 1.429 . S
C455 N452 1.350 . S
C455 C454 1.434 . S
C456 C457 1.369 . S
C456 C458 1.419 . S
C456 H460 0.930 . S
C457 C456 1.369 . S
C457 C466 1.429 . S
C458 C456 1.419 . S
C458 C459 1.363 . S
C458 H461 0.929 . S
C459 C458 1.363 . S
C459 C465 1.428 . S
H460 C456 0.930 . S
H461 C458 0.929 . S
S462 N463 1.613 . S
S462 N464 1.610 . S
N463 S462 1.613 . S
N463 C466 1.350 . S
N464 S462 1.610 . S
N464 C465 1.351 . S
C465 C459 1.428 . S
C465 N464 1.351 . S
C465 C466 1.434 . S
C466 C457 1.429 . S
C466 N463 1.350 . S
C466 C465 1.434 . S
C467 C468 1.369 . S
C467 C469 1.419 . S
C467 H471 0.930 . S
C468 C467 1.369 . S
C468 C477 1.429 . S
C469 C467 1.419 . S
C469 C470 1.363 . S
C469 H472 0.929 . S
C470 C469 1.363 . S
C470 C476 1.428 . S
H471 C467 0.930 . S
H472 C469 0.929 . S
S473 N474 1.613 . S
S473 N475 1.610 . S
N474 S473 1.613 . S
N474 C477 1.350 . S
N475 S473 1.610 . S
N475 C476 1.351 . S
C476 C470 1.428 . S
C476 N475 1.351 . S
C476 C477 1.434 . S
C477 C468 1.429 . S
C477 N474 1.350 . S
C477 C476 1.434 . S
C478 C479 1.369 . S
C478 C480 1.419 . S
C478 H482 0.930 . S
C479 C478 1.369 . S
C479 C488 1.429 . S
C480 C478 1.419 . S
C480 C481 1.363 . S
C480 H483 0.929 . S
C481 C480 1.363 . S
C481 C487 1.428 . S
H482 C478 0.930 . S
H483 C480 0.929 . S
S484 N485 1.613 . S
S484 N486 1.610 . S
N485 S484 1.613 . S
N485 C488 1.350 . S
N486 S484 1.610 . S
N486 C487 1.351 . S
C487 C481 1.428 . S
C487 N486 1.351 . S
C487 C488 1.434 . S
C488 C479 1.429 . S
C488 N485 1.350 . S
C488 C487 1.434 . S
C489 C490 1.369 . S
C489 C491 1.419 . S
C489 H493 0.930 . S
C490 C489 1.369 . S
C490 C499 1.429 . S
C491 C489 1.419 . S
C491 C492 1.363 . S
C491 H494 0.929 . S
C492 C491 1.363 . S
C492 C498 1.428 . S
H493 C489 0.930 . S
H494 C491 0.929 . S
S495 N496 1.613 . S
S495 N497 1.610 . S
N496 S495 1.613 . S
N496 C499 1.350 . S
N497 S495 1.610 . S
N497 C498 1.351 . S
C498 C492 1.428 . S
C498 N497 1.351 . S
C498 C499 1.434 . S
C499 C490 1.429 . S
C499 N496 1.350 . S
C499 C498 1.434 . S
C500 C501 1.369 . S
C500 C502 1.419 . S
C500 H504 0.930 . S
C501 C500 1.369 . S
C501 C510 1.429 . S
C502 C500 1.419 . S
C502 C503 1.363 . S
C502 H505 0.929 . S
C503 C502 1.363 . S
C503 C509 1.428 . S
H504 C500 0.930 . S
H505 C502 0.929 . S
S506 N507 1.613 . S
S506 N508 1.610 . S
N507 S506 1.613 . S
N507 C510 1.350 . S
N508 S506 1.610 . S
N508 C509 1.351 . S
C509 C503 1.428 . S
C509 N508 1.351 . S
C509 C510 1.434 . S
C510 C501 1.429 . S
C510 N507 1.350 . S
C510 C509 1.434 . S
C511 C512 1.369 . S
C511 C513 1.419 . S
C511 H515 0.930 . S
C512 C511 1.369 . S
C512 C521 1.429 . S
C513 C511 1.419 . S
C513 C514 1.363 . S
C513 H516 0.929 . S
C514 C513 1.363 . S
C514 C520 1.428 . S
H515 C511 0.930 . S
H516 C513 0.929 . S
S517 N518 1.613 . S
S517 N519 1.610 . S
N518 S517 1.613 . S
N518 C521 1.350 . S
N519 S517 1.610 . S
N519 C520 1.351 . S
C520 C514 1.428 . S
C520 N519 1.351 . S
C520 C521 1.434 . S
C521 C512 1.429 . S
C521 N518 1.350 . S
C521 C520 1.434 . S
C522 C523 1.369 . S
C522 C524 1.419 . S
C522 H526 0.930 . S
C523 C522 1.369 . S
C523 C532 1.429 . S
C524 C522 1.419 . S
C524 C525 1.363 . S
C524 H527 0.929 . S
C525 C524 1.363 . S
C525 C531 1.428 . S
H526 C522 0.930 . S
H527 C524 0.929 . S
S528 N529 1.613 . S
S528 N530 1.610 . S
N529 S528 1.613 . S
N529 C532 1.350 . S
N530 S528 1.610 . S
N530 C531 1.351 . S
C531 C525 1.428 . S
C531 N530 1.351 . S
C531 C532 1.434 . S
C532 C523 1.429 . S
C532 N529 1.350 . S
C532 C531 1.434 . S
C533 C534 1.369 . S
C533 C535 1.419 . S
C533 H537 0.930 . S
C534 C533 1.369 . S
C534 C543 1.429 . S
C535 C533 1.419 . S
C535 C536 1.363 . S
C535 H538 0.929 . S
C536 C535 1.363 . S
C536 C542 1.428 . S
H537 C533 0.930 . S
H538 C535 0.929 . S
S539 N540 1.613 . S
S539 N541 1.610 . S
N540 S539 1.613 . S
N540 C543 1.350 . S
N541 S539 1.610 . S
N541 C542 1.351 . S
C542 C536 1.428 . S
C542 N541 1.351 . S
C542 C543 1.434 . S
C543 C534 1.429 . S
C543 N540 1.350 . S
C543 C542 1.434 . S
C544 C545 1.369 . S
C544 C546 1.419 . S
C544 H548 0.930 . S
C545 C544 1.369 . S
C545 C554 1.429 . S
C546 C544 1.419 . S
C546 C547 1.363 . S
C546 H549 0.929 . S
C547 C546 1.363 . S
C547 C553 1.428 . S
H548 C544 0.930 . S
H549 C546 0.929 . S
S550 N551 1.613 . S
S550 N552 1.610 . S
N551 S550 1.613 . S
N551 C554 1.350 . S
N552 S550 1.610 . S
N552 C553 1.351 . S
C553 C547 1.428 . S
C553 N552 1.351 . S
C553 C554 1.434 . S
C554 C545 1.429 . S
C554 N551 1.350 . S
C554 C553 1.434 . S
C555 C556 1.369 . S
C555 C557 1.419 . S
C555 H559 0.930 . S
C556 C555 1.369 . S
C556 C565 1.429 . S
C557 C555 1.419 . S
C557 C558 1.363 . S
C557 H560 0.929 . S
C558 C557 1.363 . S
C558 C564 1.428 . S
H559 C555 0.930 . S
H560 C557 0.929 . S
S561 N562 1.613 . S
S561 N563 1.610 . S
N562 S561 1.613 . S
N562 C565 1.350 . S
N563 S561 1.610 . S
N563 C564 1.351 . S
C564 C558 1.428 . S
C564 N563 1.351 . S
C564 C565 1.434 . S
C565 C556 1.429 . S
C565 N562 1.350 . S
C565 C564 1.434 . S
C566 C567 1.369 . S
C566 C568 1.419 . S
C566 H570 0.930 . S
C567 C566 1.369 . S
C567 C576 1.429 . S
C568 C566 1.419 . S
C568 C569 1.363 . S
C568 H571 0.929 . S
C569 C568 1.363 . S
C569 C575 1.428 . S
H570 C566 0.930 . S
H571 C568 0.929 . S
S572 N573 1.613 . S
S572 N574 1.610 . S
N573 S572 1.613 . S
N573 C576 1.350 . S
N574 S572 1.610 . S
N574 C575 1.351 . S
C575 C569 1.428 . S
C575 N574 1.351 . S
C575 C576 1.434 . S
C576 C567 1.429 . S
C576 N573 1.350 . S
C576 C575 1.434 . S
C577 C578 1.369 . S
C577 C579 1.419 . S
C577 H581 0.930 . S
C578 C577 1.369 . S
C578 C587 1.429 . S
C579 C577 1.419 . S
C579 C580 1.363 . S
C579 H582 0.929 . S
C580 C579 1.363 . S
C580 C586 1.428 . S
H581 C577 0.930 . S
H582 C579 0.929 . S
S583 N584 1.613 . S
S583 N585 1.610 . S
N584 S583 1.613 . S
N584 C587 1.350 . S
N585 S583 1.610 . S
N585 C586 1.351 . S
C586 C580 1.428 . S
C586 N585 1.351 . S
C586 C587 1.434 . S
C587 C578 1.429 . S
C587 N584 1.350 . S
C587 C586 1.434 . S
C588 C589 1.369 . S
C588 C590 1.419 . S
C588 H592 0.930 . S
C589 C588 1.369 . S
C589 C598 1.429 . S
C590 C588 1.419 . S
C590 C591 1.363 . S
C590 H593 0.929 . S
C591 C590 1.363 . S
C591 C597 1.428 . S
H592 C588 0.930 . S
H593 C590 0.929 . S
S594 N595 1.613 . S
S594 N596 1.610 . S
N595 S594 1.613 . S
N595 C598 1.350 . S
N596 S594 1.610 . S
N596 C597 1.351 . S
C597 C591 1.428 . S
C597 N596 1.351 . S
C597 C598 1.434 . S
C598 C589 1.429 . S
C598 N595 1.350 . S
C598 C597 1.434 . S
C599 C600 1.369 . S
C599 C601 1.419 . S
C599 H603 0.930 . S
C600 C599 1.369 . S
C600 C609 1.429 . S
C601 C599 1.419 . S
C601 C602 1.363 . S
C601 H604 0.929 . S
C602 C601 1.363 . S
C602 C608 1.428 . S
H603 C599 0.930 . S
H604 C601 0.929 . S
S605 N606 1.613 . S
S605 N607 1.610 . S
N606 S605 1.613 . S
N606 C609 1.350 . S
N607 S605 1.610 . S
N607 C608 1.351 . S
C608 C602 1.428 . S
C608 N607 1.351 . S
C608 C609 1.434 . S
C609 C600 1.429 . S
C609 N606 1.350 . S
C609 C608 1.434 . S
C610 C611 1.369 . S
C610 C612 1.419 . S
C610 H614 0.930 . S
C611 C610 1.369 . S
C611 C620 1.429 . S
C612 C610 1.419 . S
C612 C613 1.363 . S
C612 H615 0.929 . S
C613 C612 1.363 . S
C613 C619 1.428 . S
H614 C610 0.930 . S
H615 C612 0.929 . S
S616 N617 1.613 . S
S616 N618 1.610 . S
N617 S616 1.613 . S
N617 C620 1.350 . S
N618 S616 1.610 . S
N618 C619 1.351 . S
C619 C613 1.428 . S
C619 N618 1.351 . S
C619 C620 1.434 . S
C620 C611 1.429 . S
C620 N617 1.350 . S
C620 C619 1.434 . S
C621 C622 1.369 . S
C621 C623 1.419 . S
C621 H625 0.930 . S
C622 C621 1.369 . S
C622 C631 1.429 . S
C623 C621 1.419 . S
C623 C624 1.363 . S
C623 H626 0.929 . S
C624 C623 1.363 . S
C624 C630 1.428 . S
H625 C621 0.930 . S
H626 C623 0.929 . S
S627 N628 1.613 . S
S627 N629 1.610 . S
N628 S627 1.613 . S
N628 C631 1.350 . S
N629 S627 1.610 . S
N629 C630 1.351 . S
C630 C624 1.428 . S
C630 N629 1.351 . S
C630 C631 1.434 . S
C631 C622 1.429 . S
C631 N628 1.350 . S
C631 C630 1.434 . S
C283 C169 1.509 . S
C281 C12 1.386 . S
C294 C195 1.513 . S
C292 C33 1.390 . S
C305 C209 1.505 . S
C303 C51 1.413 . S
C316 C211 1.509 . S
C314 C75 1.398 . S
C325 C103 1.426 . S
C327 C208 1.504 . S
C338 C210 1.510 . S
C336 C122 1.399 . S
C349 C168 1.495 . S
C347 C145 1.427 . S
C360 C194 1.499 . S
C358 C166 1.427 . S
C371 C196 1.511 . S
C369 C164 1.401 . S
C382 C222 1.513 . S
C380 C101 1.414 . S
C393 C180 1.500 . S
C391 C124 1.418 . S
C404 C182 1.506 . S
C402 C143 1.405 . S
C415 C181 1.504 . S
C413 C30 1.410 . S
C426 C183 1.509 . S
C424 C54 1.392 . S
C437 C197 1.499 . S
C435 C72 1.411 . S
C448 C223 1.504 . S
C446 C9 1.419 . S
C459 C225 1.509 . S
C457 C159 1.391 . S
C468 C96 1.386 . S
C470 C251 1.514 . S
C479 C114 1.424 . S
C481 C264 1.503 . S
C490 C138 1.396 . S
C492 C267 1.509 . S
C501 C40 1.424 . S
C503 C265 1.504 . S
C512 C59 1.397 . S
C514 C266 1.510 . S
C523 C82 1.427 . S
C525 C224 1.495 . S
C536 C250 1.500 . S
C534 C19 1.421 . S
C547 C253 1.509 . S
C545 C17 1.407 . S
C556 C38 1.405 . S
C558 C278 1.514 . S
C567 C61 1.422 . S
C569 C236 1.500 . S
C578 C80 1.397 . S
C580 C238 1.507 . S
C591 C237 1.502 . S
C589 C93 1.415 . S
C602 C239 1.509 . S
C600 C117 1.392 . S
C611 C135 1.405 . S
C613 C252 1.501 . S
C624 C279 1.506 . S
C622 C156 1.416 . S
