# Generated by pormake.
# Topology tsx, (6,3)-cn, num edge types: 1
# Building blocks:
#     Node 0, Type 0, BuildingBlock: CIFDUS_clean_sbu_1, # of connection points: 6
#     Node 1, Type 0, BuildingBlock: CIFDUS_clean_sbu_1, # of connection points: 6
#     Node 2, Type 1, BuildingBlock: VETTIZ_charged_linker_0, # of connection points: 3
#     Node 3, Type 1, BuildingBlock: VETTIZ_charged_linker_0, # of connection points: 3
#     Node 4, Type 1, BuildingBlock: VETTIZ_charged_linker_0, # of connection points: 3
#     Node 5, Type 1, BuildingBlock: VETTIZ_charged_linker_0, # of connection points: 3
#     Edge 6, Type (0, 1), BuildingBlock: XIVTED_clean_linker_0, # of connection points: 2
#     Edge 7, Type (0, 1), BuildingBlock: XIVTED_clean_linker_0, # of connection points: 2
#     Edge 8, Type (0, 1), BuildingBlock: XIVTED_clean_linker_0, # of connection points: 2
#     Edge 9, Type (0, 1), BuildingBlock: XIVTED_clean_linker_0, # of connection points: 2
#     Edge 10, Type (0, 1), BuildingBlock: XIVTED_clean_linker_0, # of connection points: 2
#     Edge 11, Type (0, 1), BuildingBlock: XIVTED_clean_linker_0, # of connection points: 2
#     Edge 12, Type (0, 1), BuildingBlock: XIVTED_clean_linker_0, # of connection points: 2
#     Edge 13, Type (0, 1), BuildingBlock: XIVTED_clean_linker_0, # of connection points: 2
#     Edge 14, Type (0, 1), BuildingBlock: XIVTED_clean_linker_0, # of connection points: 2
#     Edge 15, Type (0, 1), BuildingBlock: XIVTED_clean_linker_0, # of connection points: 2
#     Edge 16, Type (0, 1), BuildingBlock: XIVTED_clean_linker_0, # of connection points: 2
#     Edge 17, Type (0, 1), BuildingBlock: XIVTED_clean_linker_0, # of connection points: 2
# Relax obj value: 0.132
# Max RMSD: 0.158
# Mean RMSD: 0.121
data_MOF--net-tsx--node1-CIFDUS_clean_sbu_1--node2-VETTIZ_charged_linker_0--edge1-XIVTED_clean_linker_0
_symmetry_space_group_name_H-M    P1
_symmetry_Int_Tables_number       1
_symmetry_cell_setting            triclinic
loop_
_symmetry_equiv_pos_as_xyz
'x, y, z'
_cell_length_a     21.532769
_cell_length_b     26.572849
_cell_length_c     46.090149
_cell_angle_alpha  96.958931
_cell_angle_beta   92.632544
_cell_angle_gamma 91.192138
loop_
_atom_site_label
_atom_site_type_symbol
_atom_site_fract_x
_atom_site_fract_y
_atom_site_fract_z
_atom_type_partial_charge
O0 O 1.01473 0.10338 -0.00452 0.0
Mn1 Mn 0.06621 0.03703 -0.00227 0.0
O2 O 0.93431 0.08219 0.96291 0.0
Mn3 Mn 0.96446 0.02045 0.94778 0.0
O4 O 0.11722 0.97033 -0.00072 0.0
O5 O 0.13703 0.08121 0.01747 0.0
Mn6 Mn 0.17256 0.05001 0.04535 0.0
O7 O 0.0299 0.02903 0.03824 0.0
O8 O 0.20412 0.99108 0.0272 0.0
O9 O 0.10455 0.04417 0.95755 0.0
O10 O 0.02863 0.02233 0.92273 0.0
O11 O 0.21495 0.11118 0.04661 0.0
O12 O 0.11135 0.04009 0.07125 0.0
C13 C 0.95453 0.95604 0.9708 0.0
C14 C 0.96359 0.11364 0.98203 0.0
C15 C 0.17105 0.95939 0.00981 0.0
C16 C 0.1764 0.11839 0.02524 0.0
C17 C 0.05383 0.03074 0.06443 0.0
C18 C 0.08482 0.03459 0.93071 0.0
O19 O 0.99509 0.99266 0.97799 0.0
O20 O 0.91899 0.96131 0.94801 0.0
O21 O 0.49976 0.63137 0.50573 0.0
Mn22 Mn 0.55493 0.56668 0.50599 0.0
O23 O 0.41995 0.60981 0.47284 0.0
Mn24 Mn 0.45343 0.55062 0.45582 0.0
O25 O 0.61 0.50229 0.50586 0.0
O26 O 0.62405 0.61117 0.52661 0.0
Mn27 Mn 0.65801 0.58238 0.55575 0.0
O28 O 0.51946 0.55283 0.54586 0.0
O29 O 0.68943 0.52174 0.53902 0.0
O30 O 0.59192 0.58014 0.46645 0.0
O31 O 0.51685 0.55883 0.43116 0.0
O32 O 0.70099 0.64323 0.55543 0.0
O33 O 0.59464 0.57587 0.58096 0.0
C34 C 0.44577 0.48473 0.47758 0.0
C35 C 0.44779 0.64081 0.4927 0.0
C36 C 0.66119 0.49125 0.51895 0.0
C37 C 0.66341 0.64852 0.53337 0.0
C38 C 0.53961 0.55999 0.57277 0.0
C39 C 0.57205 0.57362 0.43957 0.0
O40 O 0.48581 0.52157 0.48512 0.0
O41 O 0.41081 0.48975 0.45456 0.0
C42 C 0.14075 0.93767 0.44696 0.0
C43 C 0.18026 0.90223 0.43268 0.0
C44 C 0.17437 0.89171 0.40193 0.0
C45 C 0.08986 0.95044 0.4003 0.0
C46 C 0.09647 0.96157 0.43037 0.0
C47 C 0.05218 1.00138 0.44196 0.0
H48 H 0.82065 0.16091 0.41367 0.0
C49 C 0.03807 0.98039 0.38979 0.0
C50 C 1.01489 0.00973 0.41424 0.0
H51 H 0.91203 0.14663 0.49766 0.0
H52 H 0.97266 0.0779 0.47533 0.0
H53 H 0.94145 0.15289 0.37769 0.0
H54 H 0.80062 0.04417 0.3935 0.0
H55 H 0.82389 0.0245 0.35801 0.0
H56 H 0.78926 0.08573 0.36596 0.0
H57 H 0.8629 0.15248 0.36279 0.0
H58 H 0.92184 0.1163 0.34409 0.0
C59 C 0.09175 0.04898 0.45423 0.0
C60 C 1.01176 0.97953 0.4646 0.0
C61 C 0.98351 0.97342 0.28054 0.0
C62 C 0.93771 0.99736 0.26458 0.0
C63 C 0.89258 0.02584 0.28004 0.0
C64 C 0.89504 0.03288 0.31064 0.0
C65 C 0.94311 0.01127 0.32621 0.0
C66 C 0.98504 0.98064 0.31124 0.0
C67 C 0.03109 0.959 0.33172 0.0
C68 C 1.0112 0.98345 0.36131 0.0
C69 C 0.9603 0.01457 0.35778 0.0
C70 C 0.09724 0.97708 0.32514 0.0
C71 C 0.02111 0.9006 0.32798 0.0
C72 C 0.85294 0.1426 0.42746 0.0
C73 C 0.86133 0.15943 0.45749 0.0
C74 C 0.90507 0.13493 0.47437 0.0
C75 C 0.94047 0.09511 0.46133 0.0
C76 C 0.93276 0.07998 0.431 0.0
C77 C 0.88885 0.10338 0.4148 0.0
C78 C 0.88689 0.0836 0.38288 0.0
C79 C 0.93754 0.04482 0.38231 0.0
C80 C 0.96452 0.04262 0.41046 0.0
C81 C 0.9037 0.12838 0.36573 0.0
C82 C 0.82184 0.05844 0.37439 0.0
H83 H 0.12678 0.90526 0.36244 0.0
H84 H 0.14456 0.94688 0.47053 0.0
H85 H 0.96548 0.99649 0.46572 0.0
H86 H 0.03544 0.98475 0.48671 0.0
H87 H 1.00218 0.93821 0.45847 0.0
H88 H 0.12389 0.05955 0.4376 0.0
H89 H 0.1207 0.04136 0.47367 0.0
H90 H 0.06403 0.08268 0.46018 0.0
H91 H 0.01891 0.95114 0.2695 0.0
H92 H 0.85566 0.04344 0.26846 0.0
H93 H 0.86013 0.05595 0.32096 0.0
H94 H 0.09725 0.01743 0.32091 0.0
H95 H 0.11439 0.95419 0.30548 0.0
H96 H 0.13142 0.97585 0.3436 0.0
H97 H 0.97146 0.88972 0.32227 0.0
H98 H 0.03201 0.88383 0.34835 0.0
H99 H 0.04915 0.88215 0.31025 0.0
H100 H 0.20383 0.8642 0.39043 0.0
C101 C 0.12925 0.91532 0.38572 0.0
C102 C 0.16956 0.19205 0.55524 0.0
C103 C 0.21986 0.22161 0.56954 0.0
C104 C 0.23907 0.21385 0.59819 0.0
C105 C 0.15921 0.14871 0.59827 0.0
C106 C 0.13956 0.15595 0.57019 0.0
C107 C 0.08588 0.12014 0.55882 0.0
H108 H 0.88604 0.92956 0.58579 0.0
C109 C 0.12041 0.10803 0.60767 0.0
C110 C 0.07681 0.09077 0.58486 0.0
H111 H 0.89472 0.99758 0.50567 0.0
H112 H 0.97899 0.0545 0.52744 0.0
H113 H 0.03127 0.92067 0.59602 0.0
H114 H 0.90372 0.03324 0.63008 0.0
H115 H 0.95545 0.02218 0.65908 0.0
H116 H 0.90565 0.971 0.64143 0.0
H117 H 0.97669 0.90885 0.62286 0.0
H118 H 0.05238 0.93742 0.63325 0.0
C119 C 0.10728 0.08577 0.53197 0.0
C120 C 0.02882 0.15191 0.55218 0.0
C121 C 0.16259 0.06093 0.70959 0.0
C122 C 0.13337 0.0274 0.72623 0.0
C123 C 0.0842 0.99539 0.71301 0.0
C124 C 0.0633 0.99811 0.68394 0.0
C125 C 0.09175 0.0333 0.66793 0.0
C126 C 0.14084 0.0635 0.68083 0.0
C127 C 0.16478 0.09958 0.66119 0.0
C128 C 0.12183 0.08637 0.63425 0.0
C129 C 0.07925 0.04758 0.63816 0.0
C130 C 0.23326 0.08624 0.65512 0.0
C131 C 0.15536 0.15443 0.67607 0.0
C132 C 0.90569 0.95707 0.57302 0.0
C133 C 0.88373 0.95946 0.54411 0.0
C134 C 0.91132 0.99504 0.52797 0.0
C135 C 0.96016 0.02788 0.54064 0.0
C136 C 0.98231 0.02438 0.56957 0.0
C137 C 0.95484 0.98921 0.58513 0.0
C138 C 0.98455 0.98916 0.61521 0.0
C139 C 0.03457 0.03004 0.61539 0.0
C140 C 0.03323 0.05112 0.58872 0.0
C141 C 1.01247 0.93631 0.61725 0.0
C142 C 0.93503 0.0043 0.63781 0.0
H143 H 0.22691 0.17395 0.63421 0.0
H144 H 0.15387 0.19711 0.53315 0.0
H145 H 0.02392 0.18351 0.57003 0.0
H146 H 0.98469 0.12974 0.55072 0.0
H147 H 0.03361 0.16867 0.53142 0.0
H148 H 0.15487 0.07198 0.53626 0.0
H149 H 0.10855 0.10723 0.51278 0.0
H150 H 0.07758 0.05145 0.52626 0.0
H151 H 0.20092 0.08564 0.71892 0.0
H152 H 0.06035 0.96953 0.72545 0.0
H153 H 0.02504 0.97343 0.67527 0.0
H154 H 0.24082 0.04495 0.65524 0.0
H155 H 0.26602 0.10686 0.672 0.0
H156 H 0.24683 0.09396 0.63321 0.0
H157 H 0.11457 0.15615 0.69011 0.0
H158 H 0.14475 0.18149 0.66021 0.0
H159 H 0.19667 0.16876 0.6902 0.0
H160 H 0.27833 0.23516 0.60947 0.0
C161 C 0.20923 0.17779 0.61253 0.0
C162 C 0.65372 0.41176 0.94072 0.0
C163 C 0.69329 0.37773 0.92529 0.0
C164 C 0.68487 0.3682 0.89455 0.0
C165 C 0.59703 0.424 0.89534 0.0
C166 C 0.60627 0.43446 0.92536 0.0
C167 C 0.55978 0.47112 0.93838 0.0
H168 H 0.31221 0.61834 0.91709 0.0
C169 C 0.54125 0.45104 0.88637 0.0
C170 C 0.51848 0.47808 0.91168 0.0
H171 H 0.41981 0.61159 -0.00205 0.0
H172 H 0.48017 0.54392 0.97428 0.0
H173 H 0.42615 0.61469 0.87719 0.0
H174 H 0.29652 0.50162 0.89827 0.0
H175 H 0.31827 0.47943 0.86282 0.0
H176 H 0.27925 0.53908 0.86925 0.0
H177 H 0.34496 0.61146 0.86612 0.0
H178 H 0.4012 0.57803 0.8443 0.0
C179 C 0.59562 0.52071 0.95064 0.0
C180 C 0.52413 0.44582 0.96133 0.0
C181 C 0.47585 0.45092 0.77859 0.0
C182 C 0.42551 0.47333 0.76475 0.0
C183 C 0.37668 0.49265 0.78175 0.0
C184 C 0.38058 0.49438 0.81216 0.0
C185 C 0.43399 0.47686 0.8259 0.0
C186 C 0.47885 0.45283 0.80924 0.0
C187 C 0.52964 0.43295 0.82813 0.0
C188 C 0.51001 0.45289 0.85866 0.0
C189 C 0.45467 0.47946 0.85697 0.0
C190 C 0.59259 0.45686 0.82124 0.0
C191 C 0.52664 0.37422 0.82268 0.0
C192 C 0.3478 0.60168 0.92999 0.0
C193 C 0.36112 0.62059 0.95942 0.0
C194 C 0.40898 0.59825 0.97509 0.0
C195 C 0.44426 0.55912 0.96123 0.0
C196 C 0.43226 0.54264 0.93124 0.0
C197 C 0.38381 0.56341 0.91641 0.0
C198 C 0.37841 0.54339 0.88454 0.0
C199 C 0.43244 0.50769 0.88232 0.0
C200 C 0.46405 0.5072 0.90963 0.0
C201 C 0.38776 0.58895 0.86689 0.0
C202 C 0.31481 0.51463 0.87816 0.0
H203 H 0.63248 0.38163 0.85623 0.0
H204 H 0.65934 0.42035 0.96429 0.0
H205 H 0.47842 0.4626 0.96521 0.0
H206 H 0.55182 0.44805 0.98239 0.0
H207 H 0.51393 0.40505 0.95362 0.0
H208 H 0.63077 0.5307 0.93517 0.0
H209 H 0.62062 0.51617 0.97163 0.0
H210 H 0.56579 0.55391 0.95381 0.0
H211 H 0.51363 0.43493 0.7661 0.0
H212 H 0.33637 0.50841 0.77158 0.0
H213 H 0.34301 0.51142 0.82387 0.0
H214 H 0.58805 0.49821 0.82009 0.0
H215 H 0.60858 0.43925 0.79987 0.0
H216 H 0.62963 0.4535 0.83818 0.0
H217 H 0.47875 0.3597 0.81571 0.0
H218 H 0.53827 0.35659 0.84272 0.0
H219 H 0.55793 0.35968 0.80525 0.0
H220 H 0.71426 0.34183 0.88213 0.0
C221 C 0.63692 0.39092 0.87955 0.0
C222 C 0.71034 0.64614 0.04833 0.0
C223 C 0.76036 0.67641 0.0625 0.0
C224 C 0.77742 0.67104 0.09178 0.0
C225 C 0.69011 0.61355 0.09402 0.0
C226 C 0.6759 0.61456 0.06462 0.0
C227 C 0.62161 0.57863 0.05405 0.0
H228 H 0.36892 0.44882 0.0958 0.0
C229 C 0.64156 0.58355 0.10598 0.0
C230 C 0.59963 0.56344 0.08298 0.0
H231 H 0.43491 0.44067 0.00815 0.0
H232 H 0.51679 0.50229 0.02562 0.0
H233 H 0.49715 0.4252 0.12036 0.0
H234 H 0.40367 0.56665 0.11985 0.0
H235 H 0.44109 0.56735 0.15463 0.0
H236 H 0.38167 0.51952 0.14251 0.0
H237 H 0.43515 0.44249 0.14401 0.0
H238 H 0.51499 0.46016 0.1545 0.0
C239 C 0.6486 0.53329 0.03502 0.0
C240 C 0.57204 0.60687 0.03754 0.0
C241 C 0.64544 0.58329 0.21582 0.0
C242 C 0.60185 0.5681 0.23482 0.0
C243 C 0.54411 0.54678 0.22332 0.0
C244 C 0.53039 0.54004 0.19305 0.0
C245 C 0.5748 0.55511 0.17415 0.0
C246 C 0.6306 0.57713 0.18576 0.0
C247 C 0.66985 0.59514 0.16291 0.0
C248 C 0.62967 0.57819 0.13539 0.0
C249 C 0.57464 0.55424 0.142 0.0
C250 C 0.73179 0.56636 0.16317 0.0
C251 C 0.67708 0.65393 0.16934 0.0
C252 C 0.40109 0.45888 0.08 0.0
C253 C 0.3951 0.43793 0.05041 0.0
C254 C 0.4375 0.45551 0.03104 0.0
C255 C 0.4861 0.49065 0.04129 0.0
C256 C 0.49403 0.50741 0.07139 0.0
C257 C 0.45175 0.49094 0.09009 0.0
C258 C 0.47102 0.50552 0.12169 0.0
C259 C 0.53213 0.53325 0.11911 0.0
C260 C 0.545 0.53621 0.0896 0.0
C261 C 0.47977 0.45612 0.13617 0.0
C262 C 0.42184 0.54138 0.13566 0.0
H263 H 0.75779 0.63891 0.12984 0.0
H264 H 0.69727 0.64823 0.02556 0.0
H265 H 0.56115 0.64325 0.05067 0.0
H266 H 0.5279 0.5849 0.03322 0.0
H267 H 0.58883 0.61544 0.01619 0.0
H268 H 0.68563 0.5155 0.04765 0.0
H269 H 0.67005 0.54626 0.01568 0.0
H270 H 0.6139 0.50315 0.02733 0.0
H271 H 0.68944 0.60108 0.22423 0.0
H272 H 0.50979 0.53507 0.2378 0.0
H273 H 0.48578 0.52345 0.18555 0.0
H274 H 0.72363 0.52636 0.16721 0.0
H275 H 0.76507 0.5844 0.18068 0.0
H276 H 0.75431 0.56357 0.14197 0.0
H277 H 0.64102 0.67057 0.1839 0.0
H278 H 0.67075 0.67294 0.14937 0.0
H279 H 0.72306 0.66564 0.18025 0.0
H280 H 0.81733 0.69176 0.10285 0.0
C281 C 0.74269 0.64008 0.10751 0.0
H282 H 0.24307 0.14735 0.981 0.0
H283 H 0.34483 0.36939 0.08409 0.0
H284 H 0.11858 0.20228 0.04738 0.0
H285 H 0.34027 0.40469 -0.0053 0.0
H286 H 0.27102 0.30085 0.06956 0.0
H287 H 0.28464 0.23435 0.98106 0.0
C288 C 0.22188 0.17819 -0.00573 0.0
C289 C 0.17687 0.16787 0.014 0.0
C290 C 0.2855 0.32421 0.05324 0.0
C291 C 0.22627 0.26627 0.01529 0.0
C292 C 0.3276 0.36426 0.06151 0.0
C293 C 0.34862 0.39513 0.04095 0.0
C294 C 0.26544 0.31263 0.02389 0.0
C295 C 0.32629 0.38249 0.01157 0.0
C296 C 0.24608 0.22768 -0.00549 0.0
C297 C 0.15267 0.20884 0.03158 0.0
N298 N 0.2867 0.34165 0.00381 0.0
N299 N 0.17909 0.25596 0.03256 0.0
H300 H 0.11265 0.87397 0.97929 0.0
H301 H 0.4117 0.70266 -0.00492 0.0
H302 H 0.28578 0.9265 0.02519 0.0
H303 H 0.23791 0.64437 0.95229 0.0
H304 H 0.36295 0.78343 0.00904 0.0
H305 H 0.15534 0.7888 0.9703 0.0
C306 C 0.15955 0.86776 0.98738 0.0
C307 C 0.19561 0.90768 0.00295 0.0
C308 C 0.33521 0.75287 -0.0032 0.0
C309 C 0.24447 0.81034 -0.007 0.0
C310 C 0.36294 0.70643 -0.0109 0.0
C311 C 0.32913 0.66664 0.97225 0.0
C312 C 0.27318 0.75986 0.98751 0.0
C313 C 0.26617 0.67428 0.96481 0.0
C314 C 0.18378 0.81907 0.98239 0.0
C315 C 0.25601 0.89716 0.01308 0.0
N316 N 0.24042 0.72008 0.97223 0.0
N317 N 0.27839 0.84974 0.0079 0.0
H318 H 0.95738 0.94947 0.03 0.0
H319 H 0.79995 0.66997 0.00601 0.0
H320 H 0.92924 0.86066 0.94562 0.0
H321 H 0.79784 0.77177 0.08639 0.0
H322 H 0.86062 0.73429 0.98461 0.0
H323 H 0.91713 0.87765 0.05295 0.0
C324 C 0.9448 0.91434 0.01645 0.0
C325 C 0.94663 0.91083 0.98597 0.0
C326 C 0.8471 0.74229 0.00701 0.0
C327 C 0.89873 0.8293 0.0117 0.0
C328 C 0.812 0.70578 0.0191 0.0
C329 C 0.79421 0.71521 0.0481 0.0
C330 C 0.8644 0.78848 0.02406 0.0
C331 C 0.81159 0.76228 0.06414 0.0
C332 C 0.92084 0.87357 0.02944 0.0
C333 C 0.92818 0.8648 0.96926 0.0
N334 N 0.84568 0.79698 0.05195 0.0
N335 N 0.90447 0.826 0.98228 0.0
H336 H 1.01178 0.2011 0.96599 0.0
H337 H 0.68009 0.33175 0.97481 0.0
H338 H 0.8539 0.13973 0.00523 0.0
H339 H 0.81448 0.35973 0.91166 0.0
H340 H 0.75461 0.27785 -0.00276 0.0
H341 H 0.95153 0.27625 0.95788 0.0
C342 C 0.96537 0.20457 0.97404 0.0
C343 C 0.93775 0.16467 0.98656 0.0
C344 C 0.76807 0.29635 0.97871 0.0
C345 C 0.86831 0.24935 0.97675 0.0
C346 C 0.72568 0.32731 0.96598 0.0
C347 C 0.7408 0.34987 0.9411 0.0
C348 C 0.82631 0.28813 0.96669 0.0
C349 C 0.80049 0.34239 0.93049 0.0
C350 C 0.93073 0.247 0.96904 0.0
C351 C 0.87689 0.1701 -0.00418 0.0
N352 N 0.84091 0.31193 0.94322 0.0
N353 N 0.84399 0.2114 -0.00949 0.0
H354 H 0.5982 0.73444 0.54366 0.0
H355 H 0.88715 0.89124 0.49467 0.0
H356 H 0.74503 0.66781 0.49291 0.0
H357 H 0.76943 0.94271 0.56477 0.0
H358 H 0.81538 0.81824 0.48052 0.0
H359 H 0.63867 0.819 0.53694 0.0
C360 C 0.63707 0.73768 0.52981 0.0
C361 C 0.66811 0.69433 0.51858 0.0
C362 C 0.80449 0.84621 0.49855 0.0
C363 C 0.71632 0.79057 0.51185 0.0
C364 C 0.84521 0.88795 0.5065 0.0
C365 C 0.83437 0.92262 0.53108 0.0
C366 C 0.75244 0.83949 0.51519 0.0
C367 C 0.77967 0.91647 0.54585 0.0
C368 C 0.6608 0.78591 0.52637 0.0
C369 C 0.71944 0.70047 0.50158 0.0
N370 N 0.74115 0.87544 0.53789 0.0
N371 N 0.7427 0.74772 0.49915 0.0
H372 H 0.77243 0.45767 0.53921 0.0
H373 H 0.73957 0.18307 0.44622 0.0
H374 H 0.61352 0.40948 0.48112 0.0
H375 H 0.90505 0.23885 0.49745 0.0
H376 H 0.68879 0.26243 0.46208 0.0
H377 H 0.8177 0.37519 0.527 0.0
C378 C 0.74687 0.4298 0.52384 0.0
C379 C 0.68894 0.44091 0.5111 0.0
C380 C 0.73606 0.2572 0.46999 0.0
C381 C 0.74104 0.3456 0.49707 0.0
C382 C 0.76519 0.21189 0.46093 0.0
C383 C 0.82706 0.20435 0.47025 0.0
C384 C 0.76884 0.29544 0.4886 0.0
C385 C 0.8573 0.2427 0.4898 0.0
C386 C 0.77292 0.38253 0.51691 0.0
C387 C 0.65836 0.40289 0.49139 0.0
N388 N 0.82807 0.28665 0.49814 0.0
N389 N 0.68481 0.35696 0.48497 0.0
H390 H 0.42941 0.48744 0.53608 0.0
H391 H 0.26213 0.2124 0.51387 0.0
H392 H 0.42786 0.38653 0.45559 0.0
H393 H 0.25777 0.31723 0.59289 0.0
H394 H 0.3296 0.27288 0.49309 0.0
H395 H 0.37897 0.42069 0.55955 0.0
C396 C 0.42117 0.45044 0.52379 0.0
C397 C 0.434 0.44196 0.49415 0.0
C398 C 0.31387 0.28261 0.51499 0.0
C399 C 0.37286 0.36647 0.52006 0.0
C400 C 0.27475 0.24836 0.52668 0.0
C401 C 0.25446 0.25976 0.55514 0.0
C402 C 0.33261 0.32857 0.53189 0.0
C403 C 0.27295 0.30665 0.57097 0.0
C404 C 0.39096 0.41265 0.53692 0.0
C405 C 0.41917 0.39419 0.47865 0.0
N406 N 0.31099 0.33922 0.55917 0.0
N407 N 0.38881 0.35837 0.49168 0.0
H408 H 0.49715 0.73157 0.48215 0.0
H409 H 0.16114 0.85539 0.48137 0.0
H410 H 0.33341 0.66215 0.51217 0.0
H411 H 0.30313 0.88608 0.4224 0.0
H412 H 0.23371 0.80193 0.50555 0.0
H413 H 0.43639 0.80639 0.47391 0.0
C414 C 0.44915 0.73314 0.48824 0.0
C415 C 0.42011 0.69104 0.49802 0.0
C416 C 0.24921 0.821 0.4876 0.0
C417 C 0.35036 0.77542 0.48813 0.0
C418 C 0.20794 0.8516 0.47386 0.0
C419 C 0.22594 0.87468 0.44962 0.0
C420 C 0.30917 0.81392 0.47727 0.0
C421 C 0.28709 0.86828 0.44071 0.0
C422 C 0.41432 0.7754 0.48315 0.0
C423 C 0.35741 0.69417 0.50483 0.0
N424 N 0.32641 0.83829 0.45442 0.0
N425 N 0.32442 0.7354 0.49951 0.0
H426 H 0.9645 0.08759 0.09181 0.0
H427 H 0.96796 0.91775 0.22402 0.0
H428 H 0.05951 0.94652 0.0914 0.0
H429 H 0.91149 0.07362 0.23113 0.0
H430 H 0.98006 0.9196 0.17164 0.0
H431 H 0.92092 0.07397 0.13874 0.0
C432 C 0.97449 0.05306 0.10125 0.0
C433 C 1.01529 0.01802 0.08802 0.0
C434 C 0.96428 0.95316 0.18467 0.0
C435 C 0.96728 0.00261 0.14152 0.0
C436 C 0.95777 0.95225 0.21462 0.0
C437 C 0.93925 0.99572 0.23221 0.0
C438 C 0.95219 0.99784 0.17215 0.0
C439 C 0.92533 0.03897 0.21855 0.0
C440 C 0.95024 0.04546 0.12807 0.0
C441 C 0.02801 0.97425 0.10113 0.0
N442 N 0.93258 0.03904 0.18944 0.0
N443 N 1.00454 0.96795 0.12732 0.0
H444 H 0.13647 0.95432 0.90057 0.0
H445 H 0.1608 0.11102 0.7658 0.0
H446 H 0.12463 0.11673 0.90638 0.0
H447 H 0.14543 0.94769 0.75874 0.0
H448 H 0.17853 0.11414 0.81855 0.0
H449 H 0.17323 0.95247 0.85102 0.0
C450 C 0.14428 0.98979 0.89174 0.0
C451 C 0.12794 0.03575 0.90728 0.0
C452 C 0.17226 0.07755 0.80544 0.0
C453 C 0.16695 0.03391 0.85049 0.0
C454 C 0.16234 0.07567 0.77526 0.0
C455 C 0.15081 0.02897 0.75783 0.0
C456 C 0.17017 0.03248 0.8184 0.0
C457 C 0.15272 0.98454 0.77142 0.0
C458 C 0.16448 0.98872 0.86339 0.0
C459 C 0.13739 0.08067 0.89495 0.0
N460 N 0.16144 0.98743 0.80096 0.0
N461 N 0.15521 0.07858 0.86695 0.0
H462 H 0.50118 0.465 0.58088 0.0
H463 H 0.39345 0.55911 0.74148 0.0
H464 H 0.49485 0.62161 0.61766 0.0
H465 H 0.46162 0.40896 0.71714 0.0
H466 H 0.40328 0.57746 0.69147 0.0
H467 H 0.45915 0.43971 0.62585 0.0
C468 C 0.48865 0.49402 0.59804 0.0
C469 C 0.50035 0.5454 0.59566 0.0
C470 C 0.41543 0.54028 0.69695 0.0
C471 C 0.45424 0.51704 0.647 0.0
C472 C 0.40941 0.52954 0.72549 0.0
C473 C 0.42673 0.48231 0.73359 0.0
C474 C 0.43911 0.50368 0.67617 0.0
C475 C 0.44837 0.44601 0.71192 0.0
C476 C 0.4656 0.47961 0.62376 0.0
C477 C 0.48565 0.58167 0.61872 0.0
N478 N 0.45427 0.45755 0.68416 0.0
N479 N 0.46356 0.56679 0.64352 0.0
H480 H 0.65686 0.5138 0.41164 0.0
H481 H 0.70357 0.53785 0.26525 0.0
H482 H 0.5709 0.65894 0.41387 0.0
H483 H 0.53262 0.6181 0.27625 0.0
H484 H 0.72323 0.54945 0.31868 0.0
H485 H 0.6852 0.51982 0.3613 0.0
C486 C 0.64719 0.5482 0.402 0.0
C487 C 0.61204 0.58612 0.41665 0.0
C488 C 0.6816 0.56455 0.30933 0.0
C489 C 0.64197 0.59265 0.35923 0.0
C490 C 0.67045 0.55807 0.27899 0.0
C491 C 0.6158 0.57621 0.26665 0.0
C492 C 0.63804 0.58994 0.32712 0.0
C493 C 0.57456 0.60264 0.2851 0.0
C494 C 0.66297 0.55157 0.37323 0.0
C495 C 0.59853 0.62924 0.40314 0.0
N496 N 0.58654 0.60868 0.31445 0.0
N497 N 0.612 0.63074 0.37482 0.0
loop_
_geom_bond_atom_site_label_1
_geom_bond_atom_site_label_2
_geom_bond_distance
_geom_bond_site_symmetry_2
_ccdc_geom_bond_type
O0 Mn1 2.163 . S
O0 C14 1.244 1_455 S
Mn1 O0 2.163 . S
Mn1 O4 2.161 1_545 S
Mn1 O5 2.221 . S
Mn1 O7 2.163 . S
Mn1 O9 2.160 1_554 S
Mn1 O19 2.221 1_444 S
O2 Mn3 2.087 . S
O2 C14 1.256 1_556 S
Mn3 O2 2.087 . S
Mn3 O10 2.089 . S
Mn3 O19 2.290 1_545 S
Mn3 O20 2.251 1_546 S
O4 Mn1 2.161 1_565 S
O4 C15 1.259 . S
O5 Mn1 2.221 . S
O5 Mn6 2.290 . S
O5 C16 1.278 . S
Mn6 O5 2.290 . S
Mn6 O8 2.089 1_545 S
Mn6 O11 2.251 . S
Mn6 O12 2.087 . S
O7 Mn1 2.163 . S
O7 C17 1.244 . S
O8 Mn6 2.089 1_565 S
O8 C15 1.256 . S
O9 Mn1 2.160 1_556 S
O9 C18 1.239 . S
O10 Mn3 2.089 . S
O10 C18 1.256 1_655 S
O11 Mn6 2.251 . S
O11 C16 1.241 . S
O12 Mn6 2.087 . S
O12 C17 1.256 . S
C13 O19 1.278 1_554 S
C13 O20 1.241 . S
C14 O0 1.244 1_655 S
C14 O2 1.256 1_554 S
C15 O4 1.259 . S
C15 O8 1.256 . S
C16 O5 1.278 . S
C16 O11 1.241 . S
C17 O7 1.244 . S
C17 O12 1.256 . S
C18 O9 1.239 . S
C18 O10 1.256 1_455 S
O19 Mn1 2.221 1_666 S
O19 Mn3 2.290 1_565 S
O19 C13 1.278 1_556 S
O20 Mn3 2.251 1_564 S
O20 C13 1.241 . S
O21 Mn22 2.163 . S
O21 C35 1.244 . S
Mn22 O21 2.163 . S
Mn22 O25 2.160 . S
Mn22 O26 2.221 . S
Mn22 O28 2.163 . S
Mn22 O30 2.160 . S
Mn22 O40 2.221 . S
O23 Mn24 2.087 . S
O23 C35 1.256 . S
Mn24 O23 2.087 . S
Mn24 O31 2.089 . S
Mn24 O40 2.290 . S
Mn24 O41 2.251 . S
O25 Mn22 2.160 . S
O25 C36 1.239 . S
O26 Mn22 2.221 . S
O26 Mn27 2.290 . S
O26 C37 1.278 . S
Mn27 O26 2.290 . S
Mn27 O29 2.089 . S
Mn27 O32 2.251 . S
Mn27 O33 2.087 . S
O28 Mn22 2.163 . S
O28 C38 1.244 . S
O29 Mn27 2.089 . S
O29 C36 1.256 . S
O30 Mn22 2.160 . S
O30 C39 1.239 . S
O31 Mn24 2.089 . S
O31 C39 1.256 . S
O32 Mn27 2.251 . S
O32 C37 1.241 . S
O33 Mn27 2.087 . S
O33 C38 1.256 . S
C34 O40 1.278 . S
C34 O41 1.241 . S
C35 O21 1.244 . S
C35 O23 1.256 . S
C36 O25 1.239 . S
C36 O29 1.256 . S
C37 O26 1.278 . S
C37 O32 1.241 . S
C38 O28 1.244 . S
C38 O33 1.256 . S
C39 O30 1.239 . S
C39 O31 1.256 . S
O40 Mn22 2.221 . S
O40 Mn24 2.290 . S
O40 C34 1.278 . S
O41 Mn24 2.251 . S
O41 C34 1.241 . S
C42 C43 1.391 . S
C42 C46 1.391 . S
C42 H84 0.948 . S
C43 C42 1.391 . S
C43 C44 1.391 . S
C44 C43 1.391 . S
C44 H100 0.947 . S
C44 C101 1.392 . S
C45 C46 1.391 . S
C45 C49 1.397 . S
C45 C101 1.419 . S
C46 C42 1.391 . S
C46 C45 1.391 . S
C46 C47 1.399 . S
C47 C46 1.399 . S
C47 C50 1.396 . S
C47 C59 1.453 1_565 S
C47 C60 1.684 . S
H48 C72 0.948 . S
C49 C45 1.397 . S
C49 C50 1.394 . S
C49 C68 1.723 . S
C50 C47 1.396 . S
C50 C49 1.394 . S
C50 C80 1.723 1_565 S
H51 C74 0.947 . S
H52 C75 0.948 . S
H53 C81 0.982 1_455 S
H54 C82 0.979 . S
H55 C82 0.980 . S
H56 C82 0.983 . S
H57 C81 0.979 . S
H58 C81 0.977 . S
C59 C47 1.453 1_545 S
C59 H88 0.982 . S
C59 H89 0.979 1_545 S
C59 H90 0.977 . S
C60 C47 1.684 . S
C60 H85 0.979 1_455 S
C60 H86 0.980 1_455 S
C60 H87 0.983 . S
C61 C62 1.391 . S
C61 C66 1.391 . S
C61 H91 0.948 . S
C62 C61 1.391 . S
C62 C63 1.391 1_565 S
C63 C62 1.391 1_545 S
C63 C64 1.392 1_455 S
C63 H92 0.947 1_455 S
C64 C63 1.392 1_655 S
C64 C65 1.419 1_655 S
C64 H93 0.948 . S
C65 C64 1.419 1_455 S
C65 C66 1.391 1_545 S
C65 C69 1.397 . S
C66 C61 1.391 . S
C66 C65 1.391 1_565 S
C66 C67 1.399 . S
C67 C66 1.399 . S
C67 C68 1.396 . S
C67 C70 1.453 . S
C67 C71 1.684 . S
C68 C49 1.723 . S
C68 C67 1.396 . S
C68 C69 1.394 1_565 S
C69 C65 1.397 . S
C69 C68 1.394 1_545 S
C69 C79 1.724 . S
C70 C67 1.453 . S
C70 H94 0.982 . S
C70 H95 0.979 . S
C70 H96 0.977 . S
C71 C67 1.684 . S
C71 H97 0.979 . S
C71 H98 0.980 . S
C71 H99 0.983 . S
C72 H48 0.948 . S
C72 C73 1.391 . S
C72 C77 1.391 . S
C73 C72 1.391 . S
C73 C74 1.391 . S
C74 H51 0.947 . S
C74 C73 1.391 . S
C74 C75 1.392 . S
C75 H52 0.948 . S
C75 C74 1.392 . S
C75 C76 1.419 . S
C76 C75 1.419 . S
C76 C77 1.391 . S
C76 C80 1.397 1_655 S
C77 C72 1.391 . S
C77 C76 1.391 . S
C77 C78 1.399 . S
C78 C77 1.399 . S
C78 C79 1.394 1_655 S
C78 C81 1.453 . S
C78 C82 1.684 . S
C79 C69 1.724 . S
C79 C78 1.394 1_455 S
C79 C80 1.395 . S
C80 C50 1.723 1_545 S
C80 C76 1.397 1_455 S
C80 C79 1.395 . S
C81 H53 0.982 1_655 S
C81 H57 0.979 . S
C81 H58 0.977 . S
C81 C78 1.453 . S
C82 H54 0.979 . S
C82 H55 0.980 . S
C82 H56 0.983 . S
C82 C78 1.684 . S
H83 C101 0.948 . S
H84 C42 0.948 . S
H85 C60 0.979 1_655 S
H86 C60 0.980 1_655 S
H87 C60 0.983 . S
H88 C59 0.982 . S
H89 C59 0.979 1_565 S
H90 C59 0.977 . S
H91 C61 0.948 . S
H92 C63 0.947 1_655 S
H93 C64 0.948 . S
H94 C70 0.982 . S
H95 C70 0.979 . S
H96 C70 0.977 . S
H97 C71 0.979 . S
H98 C71 0.980 . S
H99 C71 0.983 . S
H100 C44 0.947 . S
C101 C44 1.392 . S
C101 C45 1.419 . S
C101 H83 0.948 . S
C102 C103 1.391 . S
C102 C106 1.391 . S
C102 H144 0.948 . S
C103 C102 1.391 . S
C103 C104 1.391 . S
C104 C103 1.391 . S
C104 H160 0.947 . S
C104 C161 1.392 . S
C105 C106 1.391 . S
C105 C109 1.397 . S
C105 C161 1.419 . S
C106 C102 1.391 . S
C106 C105 1.391 . S
C106 C107 1.399 . S
C107 C106 1.399 . S
C107 C110 1.396 . S
C107 C119 1.453 . S
C107 C120 1.684 1_455 S
H108 C132 0.948 . S
C109 C105 1.397 . S
C109 C110 1.394 . S
C109 C128 1.723 . S
C110 C107 1.396 . S
C110 C109 1.394 . S
C110 C140 1.723 1_455 S
H111 C134 0.947 . S
H112 C135 0.948 . S
H113 C141 0.982 . S
H114 C142 0.985 . S
H115 C142 0.980 . S
H116 C142 0.976 1_565 S
H117 C141 0.979 . S
H118 C141 0.977 . S
C119 C107 1.453 . S
C119 H148 0.982 . S
C119 H149 0.979 . S
C119 H150 0.977 . S
C120 C107 1.684 1_655 S
C120 H145 0.979 . S
C120 H146 0.980 . S
C120 H147 0.983 . S
C121 C122 1.391 1_455 S
C121 C126 1.391 . S
C121 H151 0.948 . S
C122 C121 1.391 1_655 S
C122 C123 1.391 . S
C123 C122 1.391 . S
C123 C124 1.392 . S
C123 H152 0.947 . S
C124 C123 1.392 . S
C124 C125 1.419 . S
C124 H153 0.948 . S
C125 C124 1.419 . S
C125 C126 1.391 1_655 S
C125 C129 1.397 . S
C126 C121 1.391 . S
C126 C125 1.391 1_455 S
C126 C127 1.399 . S
C127 C126 1.399 . S
C127 C128 1.396 . S
C127 C130 1.453 . S
C127 C131 1.684 . S
C128 C109 1.723 . S
C128 C127 1.396 . S
C128 C129 1.394 1_455 S
C129 C125 1.397 . S
C129 C128 1.394 1_655 S
C129 C139 1.723 . S
C130 C127 1.453 . S
C130 H154 0.982 . S
C130 H155 0.979 . S
C130 H156 0.977 . S
C131 C127 1.684 . S
C131 H157 0.979 . S
C131 H158 0.980 . S
C131 H159 0.983 . S
C132 H108 0.948 . S
C132 C133 1.391 . S
C132 C137 1.391 . S
C133 C132 1.391 . S
C133 C134 1.391 . S
C134 H111 0.947 . S
C134 C133 1.391 . S
C134 C135 1.392 1_565 S
C135 H112 0.948 . S
C135 C134 1.392 1_545 S
C135 C136 1.419 . S
C136 C135 1.419 . S
C136 C137 1.391 1_545 S
C136 C140 1.397 . S
C137 C132 1.391 . S
C137 C136 1.391 1_565 S
C137 C138 1.399 . S
C138 C137 1.399 . S
C138 C139 1.396 1_565 S
C138 C141 1.453 . S
C138 C142 1.684 1_565 S
C139 C129 1.723 . S
C139 C138 1.396 1_545 S
C139 C140 1.394 . S
C140 C110 1.723 1_655 S
C140 C136 1.397 . S
C140 C139 1.394 . S
C141 H113 0.982 . S
C141 H117 0.979 . S
C141 H118 0.977 . S
C141 C138 1.453 . S
C142 H114 0.985 . S
C142 H115 0.980 . S
C142 H116 0.976 1_545 S
C142 C138 1.684 1_545 S
H143 C161 0.948 . S
H144 C102 0.948 . S
H145 C120 0.979 . S
H146 C120 0.980 . S
H147 C120 0.983 . S
H148 C119 0.982 . S
H149 C119 0.979 . S
H150 C119 0.977 . S
H151 C121 0.948 . S
H152 C123 0.947 . S
H153 C124 0.948 . S
H154 C130 0.982 . S
H155 C130 0.979 . S
H156 C130 0.977 . S
H157 C131 0.979 . S
H158 C131 0.980 . S
H159 C131 0.983 . S
H160 C104 0.947 . S
C161 C104 1.392 . S
C161 C105 1.419 . S
C161 H143 0.948 . S
C162 C163 1.391 . S
C162 C166 1.391 . S
C162 H204 0.948 1_556 S
C163 C162 1.391 . S
C163 C164 1.391 . S
C164 C163 1.391 . S
C164 H220 0.947 . S
C164 C221 1.392 . S
C165 C166 1.391 . S
C165 C169 1.397 . S
C165 C221 1.419 . S
C166 C162 1.391 . S
C166 C165 1.391 . S
C166 C167 1.399 . S
C167 C166 1.399 . S
C167 C170 1.396 . S
C167 C179 1.468 . S
C167 C180 1.684 1_556 S
H168 C192 0.948 . S
C169 C165 1.397 . S
C169 C170 1.394 . S
C169 C188 1.723 . S
C170 C167 1.396 . S
C170 C169 1.394 . S
C170 C200 1.723 . S
H171 C194 0.947 . S
H172 C195 0.948 1_554 S
H173 C201 0.982 . S
H174 C202 0.979 . S
H175 C202 0.980 . S
H176 C202 0.983 . S
H177 C201 0.979 . S
H178 C201 0.977 . S
C179 C167 1.468 . S
C179 H208 0.994 . S
C179 H209 0.956 1_556 S
C179 H210 0.974 1_556 S
C180 C167 1.684 1_554 S
C180 H205 0.979 1_554 S
C180 H206 0.980 . S
C180 H207 0.983 . S
C181 C182 1.391 . S
C181 C186 1.391 . S
C181 H211 0.948 . S
C182 C181 1.391 . S
C182 C183 1.391 . S
C183 C182 1.391 . S
C183 C184 1.392 . S
C183 H212 0.947 . S
C184 C183 1.392 . S
C184 C185 1.419 . S
C184 H213 0.948 . S
C185 C184 1.419 . S
C185 C186 1.391 . S
C185 C189 1.397 . S
C186 C181 1.391 . S
C186 C185 1.391 . S
C186 C187 1.399 . S
C187 C186 1.399 . S
C187 C188 1.396 . S
C187 C190 1.453 . S
C187 C191 1.684 . S
C188 C169 1.723 . S
C188 C187 1.396 . S
C188 C189 1.394 . S
C189 C185 1.397 . S
C189 C188 1.394 . S
C189 C199 1.723 . S
C190 C187 1.453 . S
C190 H214 0.982 . S
C190 H215 0.979 . S
C190 H216 0.977 . S
C191 C187 1.684 . S
C191 H217 0.979 . S
C191 H218 0.980 . S
C191 H219 0.983 . S
C192 H168 0.948 . S
C192 C193 1.391 . S
C192 C197 1.391 . S
C193 C192 1.391 . S
C193 C194 1.391 1_556 S
C194 H171 0.947 . S
C194 C193 1.391 1_554 S
C194 C195 1.392 1_554 S
C195 H172 0.948 1_556 S
C195 C194 1.392 1_556 S
C195 C196 1.419 . S
C196 C195 1.419 . S
C196 C197 1.391 . S
C196 C200 1.397 . S
C197 C192 1.391 . S
C197 C196 1.391 . S
C197 C198 1.399 . S
C198 C197 1.399 . S
C198 C199 1.396 . S
C198 C201 1.453 . S
C198 C202 1.684 . S
C199 C189 1.723 . S
C199 C198 1.396 . S
C199 C200 1.394 . S
C200 C170 1.723 . S
C200 C196 1.397 . S
C200 C199 1.394 . S
C201 H173 0.982 . S
C201 H177 0.979 . S
C201 H178 0.977 . S
C201 C198 1.453 . S
C202 H174 0.979 . S
C202 H175 0.980 . S
C202 H176 0.983 . S
C202 C198 1.684 . S
H203 C221 0.948 . S
H204 C162 0.948 1_554 S
H205 C180 0.979 1_556 S
H206 C180 0.980 . S
H207 C180 0.983 . S
H208 C179 0.994 . S
H209 C179 0.956 1_554 S
H210 C179 0.974 1_554 S
H211 C181 0.948 . S
H212 C183 0.947 . S
H213 C184 0.948 . S
H214 C190 0.982 . S
H215 C190 0.979 . S
H216 C190 0.977 . S
H217 C191 0.979 . S
H218 C191 0.980 . S
H219 C191 0.983 . S
H220 C164 0.947 . S
C221 C164 1.392 . S
C221 C165 1.419 . S
C221 H203 0.948 . S
C222 C223 1.391 . S
C222 C226 1.391 . S
C222 H264 0.948 . S
C223 C222 1.391 . S
C223 C224 1.391 . S
C224 C223 1.391 . S
C224 H280 0.947 . S
C224 C281 1.392 . S
C225 C226 1.391 . S
C225 C229 1.397 . S
C225 C281 1.419 . S
C226 C222 1.391 . S
C226 C225 1.391 . S
C226 C227 1.399 . S
C227 C226 1.399 . S
C227 C230 1.396 . S
C227 C239 1.453 . S
C227 C240 1.684 . S
H228 C252 0.948 . S
C229 C225 1.397 . S
C229 C230 1.394 . S
C229 C248 1.723 . S
C230 C227 1.396 . S
C230 C229 1.394 . S
C230 C260 1.723 . S
H231 C254 0.947 1_556 S
H232 C255 0.948 . S
H233 C261 0.982 . S
H234 C262 0.979 . S
H235 C262 0.980 . S
H236 C262 0.983 . S
H237 C261 0.979 . S
H238 C261 0.977 . S
C239 C227 1.453 . S
C239 H268 0.982 . S
C239 H269 0.979 . S
C239 H270 0.977 . S
C240 C227 1.684 . S
C240 H265 0.979 . S
C240 H266 0.980 . S
C240 H267 1.002 . S
C241 C242 1.391 . S
C241 C246 1.391 . S
C241 H271 0.948 . S
C242 C241 1.391 . S
C242 C243 1.391 . S
C243 C242 1.391 . S
C243 C244 1.392 . S
C243 H272 0.947 . S
C244 C243 1.392 . S
C244 C245 1.419 . S
C244 H273 0.948 . S
C245 C244 1.419 . S
C245 C246 1.391 . S
C245 C249 1.397 . S
C246 C241 1.391 . S
C246 C245 1.391 . S
C246 C247 1.399 . S
C247 C246 1.399 . S
C247 C248 1.396 . S
C247 C250 1.453 . S
C247 C251 1.684 . S
C248 C229 1.723 . S
C248 C247 1.396 . S
C248 C249 1.394 . S
C249 C245 1.397 . S
C249 C248 1.394 . S
C249 C259 1.723 . S
C250 C247 1.453 . S
C250 H274 0.982 . S
C250 H275 0.979 . S
C250 H276 0.977 . S
C251 C247 1.684 . S
C251 H277 0.979 . S
C251 H278 0.980 . S
C251 H279 0.983 . S
C252 H228 0.948 . S
C252 C253 1.391 . S
C252 C257 1.391 . S
C253 C252 1.391 . S
C253 C254 1.391 . S
C254 H231 0.947 1_554 S
C254 C253 1.391 . S
C254 C255 1.392 . S
C255 H232 0.948 . S
C255 C254 1.392 . S
C255 C256 1.419 . S
C256 C255 1.419 . S
C256 C257 1.391 . S
C256 C260 1.397 . S
C257 C252 1.391 . S
C257 C256 1.391 . S
C257 C258 1.399 . S
C258 C257 1.399 . S
C258 C259 1.396 . S
C258 C261 1.453 . S
C258 C262 1.684 . S
C259 C249 1.723 . S
C259 C258 1.396 . S
C259 C260 1.394 . S
C260 C230 1.723 . S
C260 C256 1.397 . S
C260 C259 1.394 . S
C261 H233 0.982 . S
C261 H237 0.979 . S
C261 H238 0.977 . S
C261 C258 1.453 . S
C262 H234 0.979 . S
C262 H235 0.980 . S
C262 H236 0.983 . S
C262 C258 1.684 . S
H263 C281 0.948 . S
H264 C222 0.948 . S
H265 C240 0.979 . S
H266 C240 0.980 . S
H267 C240 1.002 . S
H268 C239 0.982 . S
H269 C239 0.979 . S
H270 C239 0.977 . S
H271 C241 0.948 . S
H272 C243 0.947 . S
H273 C244 0.948 . S
H274 C250 0.982 . S
H275 C250 0.979 . S
H276 C250 0.977 . S
H277 C251 0.979 . S
H278 C251 0.980 . S
H279 C251 0.983 . S
H280 C224 0.947 . S
C281 C224 1.392 . S
C281 C225 1.419 . S
C281 H263 0.948 . S
H282 C288 0.930 . S
H283 C292 0.930 . S
H284 C297 0.929 . S
H285 C295 0.962 . S
H286 C290 0.929 . S
H287 C296 0.929 . S
C288 H282 0.930 . S
C288 C289 1.367 1_556 S
C288 C296 1.378 . S
C289 C288 1.367 1_554 S
C289 C297 1.433 . S
C290 H286 0.929 . S
C290 C292 1.378 . S
C290 C294 1.350 . S
C291 C294 1.463 . S
C291 C296 1.350 1_554 S
C291 N299 1.427 . S
C292 H283 0.930 . S
C292 C290 1.378 . S
C292 C293 1.367 . S
C293 C292 1.367 . S
C293 C295 1.400 1_554 S
C294 C290 1.350 . S
C294 C291 1.463 . S
C294 N298 1.427 1_554 S
C295 H285 0.962 . S
C295 C293 1.400 1_556 S
C295 N298 1.383 . S
C296 H287 0.929 . S
C296 C288 1.378 . S
C296 C291 1.350 1_556 S
C297 H284 0.929 . S
C297 C289 1.433 . S
C297 N299 1.384 . S
N298 C294 1.427 1_556 S
N298 C295 1.383 . S
N299 C291 1.427 . S
N299 C297 1.384 . S
H300 C306 0.930 . S
H301 C310 0.930 . S
H302 C315 0.929 . S
H303 C313 0.929 . S
H304 C308 0.929 . S
H305 C314 0.929 . S
C306 H300 0.930 . S
C306 C307 1.367 . S
C306 C314 1.378 . S
C307 C306 1.367 . S
C307 C315 1.433 1_554 S
C308 H304 0.929 . S
C308 C310 1.378 . S
C308 C312 1.357 . S
C309 C312 1.462 1_554 S
C309 C314 1.350 . S
C309 N317 1.427 1_554 S
C310 H301 0.930 . S
C310 C308 1.378 . S
C310 C311 1.367 . S
C311 C310 1.367 . S
C311 C313 1.433 1_556 S
C312 C308 1.357 . S
C312 C309 1.462 1_556 S
C312 N316 1.420 1_556 S
C313 H303 0.929 . S
C313 C311 1.433 1_554 S
C313 N316 1.384 . S
C314 H305 0.929 . S
C314 C306 1.378 . S
C314 C309 1.350 . S
C315 H302 0.929 . S
C315 C307 1.433 1_556 S
C315 N317 1.384 . S
N316 C312 1.420 1_554 S
N316 C313 1.384 . S
N317 C309 1.427 1_556 S
N317 C315 1.384 . S
H318 C324 0.930 . S
H319 C328 0.930 . S
H320 C333 0.929 1_556 S
H321 C331 0.929 . S
H322 C326 0.929 1_556 S
H323 C332 0.929 . S
C324 H318 0.930 . S
C324 C325 1.367 . S
C324 C332 1.378 . S
C325 C324 1.367 . S
C325 C333 1.433 . S
C326 H322 0.929 1_554 S
C326 C328 1.378 . S
C326 C330 1.350 . S
C327 C330 1.463 . S
C327 C332 1.350 . S
C327 N335 1.427 . S
C328 H319 0.930 . S
C328 C326 1.378 . S
C328 C329 1.367 . S
C329 C328 1.367 . S
C329 C331 1.433 . S
C330 C326 1.350 . S
C330 C327 1.463 . S
C330 N334 1.427 . S
C331 H321 0.929 . S
C331 C329 1.433 . S
C331 N334 1.384 . S
C332 H323 0.929 . S
C332 C324 1.378 . S
C332 C327 1.350 . S
C333 H320 0.929 1_554 S
C333 C325 1.433 . S
C333 N335 1.384 . S
N334 C330 1.427 . S
N334 C331 1.384 . S
N335 C327 1.427 . S
N335 C333 1.384 . S
H336 C342 0.930 . S
H337 C346 0.930 . S
H338 C351 0.929 . S
H339 C349 0.929 . S
H340 C344 0.929 . S
H341 C350 0.929 . S
C342 H336 0.930 . S
C342 C343 1.367 1_556 S
C342 C350 1.378 . S
C343 C342 1.367 1_554 S
C343 C351 1.433 . S
C344 H340 0.929 . S
C344 C346 1.378 . S
C344 C348 1.350 1_554 S
C345 C348 1.463 . S
C345 C350 1.350 . S
C345 N353 1.427 1_556 S
C346 H337 0.930 . S
C346 C344 1.378 . S
C346 C347 1.367 1_554 S
C347 C346 1.367 1_556 S
C347 C349 1.433 . S
C348 C344 1.350 1_556 S
C348 C345 1.463 . S
C348 N352 1.427 . S
C349 H339 0.929 . S
C349 C347 1.433 . S
C349 N352 1.384 . S
C350 H341 0.929 . S
C350 C342 1.378 . S
C350 C345 1.350 . S
C351 H338 0.929 . S
C351 C343 1.433 . S
C351 N353 1.384 . S
N352 C348 1.427 . S
N352 C349 1.384 . S
N353 C345 1.427 1_554 S
N353 C351 1.384 . S
H354 C360 0.930 . S
H355 C364 0.930 . S
H356 C369 0.929 . S
H357 C367 0.929 . S
H358 C362 0.929 . S
H359 C368 0.929 . S
C360 H354 0.930 . S
C360 C361 1.367 . S
C360 C368 1.378 . S
C361 C360 1.367 . S
C361 C369 1.433 . S
C362 H358 0.929 . S
C362 C364 1.378 . S
C362 C366 1.350 . S
C363 C366 1.463 . S
C363 C368 1.350 . S
C363 N371 1.427 . S
C364 H355 0.930 . S
C364 C362 1.378 . S
C364 C365 1.367 . S
C365 C364 1.367 . S
C365 C367 1.433 . S
C366 C362 1.350 . S
C366 C363 1.463 . S
C366 N370 1.427 . S
C367 H357 0.929 . S
C367 C365 1.433 . S
C367 N370 1.384 . S
C368 H359 0.929 . S
C368 C360 1.378 . S
C368 C363 1.350 . S
C369 H356 0.929 . S
C369 C361 1.433 . S
C369 N371 1.384 . S
N370 C366 1.427 . S
N370 C367 1.384 . S
N371 C363 1.427 . S
N371 C369 1.384 . S
H372 C378 0.930 . S
H373 C382 0.930 . S
H374 C387 0.929 . S
H375 C385 0.929 . S
H376 C380 0.929 . S
H377 C386 0.929 . S
C378 H372 0.930 . S
C378 C379 1.367 . S
C378 C386 1.378 . S
C379 C378 1.367 . S
C379 C387 1.433 . S
C380 H376 0.929 . S
C380 C382 1.378 . S
C380 C384 1.350 . S
C381 C384 1.463 . S
C381 C386 1.350 . S
C381 N389 1.427 . S
C382 H373 0.930 . S
C382 C380 1.378 . S
C382 C383 1.367 . S
C383 C382 1.367 . S
C383 C385 1.433 . S
C384 C380 1.350 . S
C384 C381 1.463 . S
C384 N388 1.427 . S
C385 H375 0.929 . S
C385 C383 1.433 . S
C385 N388 1.384 . S
C386 H377 0.929 . S
C386 C378 1.378 . S
C386 C381 1.350 . S
C387 H374 0.929 . S
C387 C379 1.433 . S
C387 N389 1.384 . S
N388 C384 1.427 . S
N388 C385 1.384 . S
N389 C381 1.427 . S
N389 C387 1.384 . S
H390 C396 0.930 . S
H391 C400 0.930 . S
H392 C405 0.929 . S
H393 C403 0.929 . S
H394 C398 0.929 . S
H395 C404 0.929 . S
C396 H390 0.930 . S
C396 C397 1.367 . S
C396 C404 1.378 . S
C397 C396 1.367 . S
C397 C405 1.433 . S
C398 H394 0.929 . S
C398 C400 1.378 . S
C398 C402 1.350 . S
C399 C402 1.463 . S
C399 C404 1.350 . S
C399 N407 1.427 . S
C400 H391 0.930 . S
C400 C398 1.378 . S
C400 C401 1.367 . S
C401 C400 1.367 . S
C401 C403 1.433 . S
C402 C398 1.350 . S
C402 C399 1.463 . S
C402 N406 1.427 . S
C403 H393 0.929 . S
C403 C401 1.433 . S
C403 N406 1.384 . S
C404 H395 0.929 . S
C404 C396 1.378 . S
C404 C399 1.350 . S
C405 H392 0.929 . S
C405 C397 1.433 . S
C405 N407 1.384 . S
N406 C402 1.427 . S
N406 C403 1.384 . S
N407 C399 1.427 . S
N407 C405 1.384 . S
H408 C414 0.930 . S
H409 C418 0.930 . S
H410 C423 0.929 . S
H411 C421 0.929 . S
H412 C416 0.929 . S
H413 C422 0.929 . S
C414 H408 0.930 . S
C414 C415 1.367 . S
C414 C422 1.378 . S
C415 C414 1.367 . S
C415 C423 1.433 . S
C416 H412 0.929 . S
C416 C418 1.378 . S
C416 C420 1.350 . S
C417 C420 1.463 . S
C417 C422 1.350 . S
C417 N425 1.427 . S
C418 H409 0.930 . S
C418 C416 1.378 . S
C418 C419 1.367 . S
C419 C418 1.367 . S
C419 C421 1.433 . S
C420 C416 1.350 . S
C420 C417 1.463 . S
C420 N424 1.427 . S
C421 H411 0.929 . S
C421 C419 1.433 . S
C421 N424 1.384 . S
C422 H413 0.929 . S
C422 C414 1.378 . S
C422 C417 1.350 . S
C423 H410 0.929 . S
C423 C415 1.433 . S
C423 N425 1.384 . S
N424 C420 1.427 . S
N424 C421 1.384 . S
N425 C417 1.427 . S
N425 C423 1.384 . S
H426 C432 0.930 1_655 S
H427 C436 0.930 . S
H428 C441 0.929 . S
H429 C439 0.929 1_655 S
H430 C434 0.929 . S
H431 C440 0.929 1_655 S
C432 H426 0.930 1_455 S
C432 C433 1.367 . S
C432 C440 1.378 . S
C433 C432 1.367 . S
C433 C441 1.433 1_545 S
C434 H430 0.929 . S
C434 C436 1.378 . S
C434 C438 1.350 1_565 S
C435 C438 1.463 . S
C435 C440 1.350 . S
C435 N443 1.427 1_545 S
C436 H427 0.930 . S
C436 C434 1.378 . S
C436 C437 1.367 . S
C437 C436 1.367 . S
C437 C439 1.433 1_565 S
C438 C434 1.350 1_545 S
C438 C435 1.463 . S
C438 N442 1.427 . S
C439 H429 0.929 1_455 S
C439 C437 1.433 1_545 S
C439 N442 1.384 . S
C440 H431 0.929 1_455 S
C440 C432 1.378 . S
C440 C435 1.350 . S
C441 H428 0.929 . S
C441 C433 1.433 1_565 S
C441 N443 1.384 . S
N442 C438 1.427 . S
N442 C439 1.384 . S
N443 C435 1.427 1_565 S
N443 C441 1.384 . S
H444 C450 0.930 1_565 S
H445 C454 0.930 . S
H446 C459 0.929 . S
H447 C457 0.929 . S
H448 C452 0.929 . S
H449 C458 0.929 1_665 S
C450 H444 0.930 1_545 S
C450 C451 1.367 . S
C450 C458 1.378 . S
C451 C450 1.367 . S
C451 C459 1.433 . S
C452 H448 0.929 . S
C452 C454 1.378 . S
C452 C456 1.350 . S
C453 C456 1.463 . S
C453 C458 1.350 . S
C453 N461 1.427 . S
C454 H445 0.930 . S
C454 C452 1.378 . S
C454 C455 1.367 . S
C455 C454 1.367 . S
C455 C457 1.433 1_455 S
C456 C452 1.350 . S
C456 C453 1.463 . S
C456 N460 1.427 1_455 S
C457 H447 0.929 . S
C457 C455 1.433 1_655 S
C457 N460 1.384 . S
C458 H449 0.929 1_445 S
C458 C450 1.378 . S
C458 C453 1.350 . S
C459 H446 0.929 . S
C459 C451 1.433 . S
C459 N461 1.384 . S
N460 C456 1.427 1_655 S
N460 C457 1.384 . S
N461 C453 1.427 . S
N461 C459 1.384 . S
H462 C468 0.930 . S
H463 C472 0.930 . S
H464 C477 0.929 . S
H465 C475 0.929 . S
H466 C470 0.929 . S
H467 C476 0.929 . S
C468 H462 0.930 . S
C468 C469 1.367 . S
C468 C476 1.378 . S
C469 C468 1.367 . S
C469 C477 1.433 . S
C470 H466 0.929 . S
C470 C472 1.378 . S
C470 C474 1.350 . S
C471 C474 1.463 . S
C471 C476 1.350 . S
C471 N479 1.427 . S
C472 H463 0.930 . S
C472 C470 1.378 . S
C472 C473 1.367 . S
C473 C472 1.367 . S
C473 C475 1.433 . S
C474 C470 1.350 . S
C474 C471 1.463 . S
C474 N478 1.427 . S
C475 H465 0.929 . S
C475 C473 1.433 . S
C475 N478 1.384 . S
C476 H467 0.929 . S
C476 C468 1.378 . S
C476 C471 1.350 . S
C477 H464 0.929 . S
C477 C469 1.433 . S
C477 N479 1.384 . S
N478 C474 1.427 . S
N478 C475 1.384 . S
N479 C471 1.427 . S
N479 C477 1.384 . S
H480 C486 0.930 . S
H481 C490 0.930 . S
H482 C495 0.929 . S
H483 C493 0.929 . S
H484 C488 0.929 . S
H485 C494 0.929 . S
C486 H480 0.930 . S
C486 C487 1.367 . S
C486 C494 1.378 . S
C487 C486 1.367 . S
C487 C495 1.433 . S
C488 H484 0.929 . S
C488 C490 1.378 . S
C488 C492 1.350 . S
C489 C492 1.463 . S
C489 C494 1.350 . S
C489 N497 1.427 . S
C490 H481 0.930 . S
C490 C488 1.378 . S
C490 C491 1.367 . S
C491 C490 1.367 . S
C491 C493 1.433 . S
C492 C488 1.350 . S
C492 C489 1.463 . S
C492 N496 1.427 . S
C493 H483 0.929 . S
C493 C491 1.433 . S
C493 N496 1.384 . S
C494 H485 0.929 . S
C494 C486 1.378 . S
C494 C489 1.350 . S
C495 H482 0.929 . S
C495 C487 1.433 . S
C495 N497 1.384 . S
N496 C492 1.427 . S
N496 C493 1.384 . S
N497 C489 1.427 . S
N497 C495 1.384 . S
C293 C253 1.508 . S
C289 C16 1.352 . S
C307 C15 1.541 . S
C311 C193 1.557 . S
C325 C13 1.292 . S
C329 C223 1.431 . S
C343 C14 1.341 . S
C347 C163 1.328 . S
C361 C37 1.355 . S
C365 C133 1.510 . S
C379 C36 1.536 . S
C383 C73 1.557 . S
C401 C103 1.429 . S
C397 C34 1.287 . S
C419 C43 1.330 . S
C415 C35 1.336 . S
C433 C17 1.519 . S
C437 C62 1.533 . S
C451 C18 1.383 . S
C455 C122 1.417 1_455 S
C473 C182 1.522 . S
C469 C38 1.517 . S
C487 C39 1.379 . S
C491 C242 1.417 . S
