# Generated by pormake.
# Topology dag, (6,3)-cn, num edge types: 1
# Building blocks:
#     Node 0, Type 0, BuildingBlock: MIDCAF_clean_sbu_0, # of connection points: 6
#     Node 1, Type 0, BuildingBlock: MIDCAF_clean_sbu_0, # of connection points: 6
#     Node 2, Type 0, BuildingBlock: MIDCAF_clean_sbu_0, # of connection points: 6
#     Node 3, Type 0, BuildingBlock: MIDCAF_clean_sbu_0, # of connection points: 6
#     Node 4, Type 1, BuildingBlock: INOVEN_clean_linker_0, # of connection points: 3
#     Node 5, Type 1, BuildingBlock: INOVEN_clean_linker_0, # of connection points: 3
#     Node 6, Type 1, BuildingBlock: INOVEN_clean_linker_0, # of connection points: 3
#     Node 7, Type 1, BuildingBlock: INOVEN_clean_linker_0, # of connection points: 3
#     Node 8, Type 1, BuildingBlock: INOVEN_clean_linker_0, # of connection points: 3
#     Node 9, Type 1, BuildingBlock: INOVEN_clean_linker_0, # of connection points: 3
#     Node 10, Type 1, BuildingBlock: INOVEN_clean_linker_0, # of connection points: 3
#     Node 11, Type 1, BuildingBlock: INOVEN_clean_linker_0, # of connection points: 3
#     Edge 12, Type (0, 1), BuildingBlock: CIFDUS_clean_linker_0, # of connection points: 2
#     Edge 13, Type (0, 1), BuildingBlock: CIFDUS_clean_linker_0, # of connection points: 2
#     Edge 14, Type (0, 1), BuildingBlock: CIFDUS_clean_linker_0, # of connection points: 2
#     Edge 15, Type (0, 1), BuildingBlock: CIFDUS_clean_linker_0, # of connection points: 2
#     Edge 16, Type (0, 1), BuildingBlock: CIFDUS_clean_linker_0, # of connection points: 2
#     Edge 17, Type (0, 1), BuildingBlock: CIFDUS_clean_linker_0, # of connection points: 2
#     Edge 18, Type (0, 1), BuildingBlock: CIFDUS_clean_linker_0, # of connection points: 2
#     Edge 19, Type (0, 1), BuildingBlock: CIFDUS_clean_linker_0, # of connection points: 2
#     Edge 20, Type (0, 1), BuildingBlock: CIFDUS_clean_linker_0, # of connection points: 2
#     Edge 21, Type (0, 1), BuildingBlock: CIFDUS_clean_linker_0, # of connection points: 2
#     Edge 22, Type (0, 1), BuildingBlock: CIFDUS_clean_linker_0, # of connection points: 2
#     Edge 23, Type (0, 1), BuildingBlock: CIFDUS_clean_linker_0, # of connection points: 2
#     Edge 24, Type (0, 1), BuildingBlock: CIFDUS_clean_linker_0, # of connection points: 2
#     Edge 25, Type (0, 1), BuildingBlock: CIFDUS_clean_linker_0, # of connection points: 2
#     Edge 26, Type (0, 1), BuildingBlock: CIFDUS_clean_linker_0, # of connection points: 2
#     Edge 27, Type (0, 1), BuildingBlock: CIFDUS_clean_linker_0, # of connection points: 2
#     Edge 28, Type (0, 1), BuildingBlock: CIFDUS_clean_linker_0, # of connection points: 2
#     Edge 29, Type (0, 1), BuildingBlock: CIFDUS_clean_linker_0, # of connection points: 2
#     Edge 30, Type (0, 1), BuildingBlock: CIFDUS_clean_linker_0, # of connection points: 2
#     Edge 31, Type (0, 1), BuildingBlock: CIFDUS_clean_linker_0, # of connection points: 2
#     Edge 32, Type (0, 1), BuildingBlock: CIFDUS_clean_linker_0, # of connection points: 2
#     Edge 33, Type (0, 1), BuildingBlock: CIFDUS_clean_linker_0, # of connection points: 2
#     Edge 34, Type (0, 1), BuildingBlock: CIFDUS_clean_linker_0, # of connection points: 2
#     Edge 35, Type (0, 1), BuildingBlock: CIFDUS_clean_linker_0, # of connection points: 2
# Relax obj value: 0.136
# Max RMSD: 0.144
# Mean RMSD: 0.115
data_MOF--net-dag--node1-MIDCAF_clean_sbu_0--node2-INOVEN_clean_linker_0--edge1-CIFDUS_clean_linker_0
_symmetry_space_group_name_H-M    P1
_symmetry_Int_Tables_number       1
_symmetry_cell_setting            triclinic
loop_
_symmetry_equiv_pos_as_xyz
'x, y, z'
_cell_length_a     35.701725
_cell_length_b     37.282996
_cell_length_c     26.064012
_cell_angle_alpha  91.186652
_cell_angle_beta   90.435786
_cell_angle_gamma 91.149315
loop_
_atom_site_label
_atom_site_type_symbol
_atom_site_fract_x
_atom_site_fract_y
_atom_site_fract_z
_atom_type_partial_charge
Zn0 Zn 0.10946 0.78305 0.20478 0.0
Zn1 Zn 0.18184 0.8563 1.00812 0.0
Zn2 Zn 0.15099 0.84004 0.0956 0.0
C3 C 0.17761 0.92014 0.06412 0.0
C4 C 0.10752 0.82859 0.99062 0.0
O5 O 0.18514 0.80054 0.14026 0.0
O6 O 0.14606 0.75589 0.15923 0.0
C7 C 0.13972 0.84697 0.21478 0.0
O8 O 0.16263 0.8987 0.09634 0.0
O9 O 0.18965 0.90785 1.02204 0.0
O10 O 0.13619 0.84046 0.96774 0.0
O11 O 0.10762 0.82628 0.03973 0.0
O12 O 0.1271 0.8274 0.24999 0.0
O13 O 0.14236 0.83235 0.17083 0.0
O14 O 0.0895 0.82722 0.09093 0.0
O15 O 0.06706 0.79653 0.15846 0.0
C16 C 0.06233 0.81254 0.11639 0.0
O17 O 0.19743 0.80453 0.07783 0.0
O18 O 0.2259 0.82554 1.00976 0.0
C19 C 0.17895 0.76895 0.15857 0.0
C20 C 0.22405 0.80322 0.04534 0.0
Zn21 Zn 0.60988 0.66614 0.45733 0.0
Zn22 Zn 0.64859 0.63069 0.62832 0.0
Zn23 Zn 0.62374 0.6474 0.5452 0.0
C24 C 0.63426 0.56544 0.58151 0.0
C25 C 0.57935 0.663 0.64598 0.0
O26 O 0.66079 0.69331 0.5208 0.0
O27 O 0.63037 0.71529 0.45487 0.0
C28 C 0.64573 0.60135 0.44765 0.0
O29 O 0.63096 0.58715 0.54378 0.0
O30 O 0.64118 0.57821 0.62582 0.0
O31 O 0.61014 0.65708 0.66816 0.0
O32 O 0.5765 0.65818 0.59696 0.0
O33 O 0.63866 0.62833 0.42105 0.0
O34 O 0.6377 0.60157 0.49579 0.0
O35 O 0.56306 0.6596 0.54481 0.0
O36 O 0.55538 0.66129 0.46072 0.0
C37 C 0.54151 0.66153 0.50508 0.0
O38 O 0.67221 0.68232 0.5699 0.0
O39 O 0.70016 0.651 0.62946 0.0
C40 C 0.65695 0.71766 0.48683 0.0
C41 C 0.69986 0.67802 0.60118 0.0
Zn42 Zn 0.82553 0.13124 0.84903 0.0
Zn43 Zn 0.81907 0.1566 0.10298 0.0
Zn44 Zn 0.81524 0.14548 1.00778 0.0
C45 C 0.89294 0.15453 0.06622 0.0
C46 C 0.78373 0.08914 0.08851 0.0
O47 O 0.77902 0.18576 0.97402 0.0
O48 O 0.8028 0.15644 0.911 0.0
C49 C 0.89151 0.14468 0.92256 0.0
O50 O 0.87571 0.15046 1.02292 0.0
O51 O 0.87451 0.15843 0.10705 0.0
O52 O 0.79241 0.1115 0.12396 0.0
O53 O 0.79108 0.09664 0.04161 0.0
O54 O 0.87842 0.13827 0.87719 0.0
O55 O 0.87098 0.14682 0.9638 0.0
O56 O 0.79426 0.09197 0.98923 0.0
O57 O 0.80291 0.11616 0.91631 0.0
C58 C 0.7971 0.08774 0.94082 0.0
O59 O 0.77919 0.19259 1.02627 0.0
O60 O 0.79158 0.20163 0.10888 0.0
C61 C 0.78217 0.18176 0.92568 0.0
C62 C 0.77476 0.21052 0.06854 0.0
Zn63 Zn 0.36775 0.33485 0.60051 0.0
Zn64 Zn 0.30097 0.32862 0.45665 0.0
Zn65 Zn 0.32375 0.32995 0.53954 0.0
C66 C 0.3768 0.34843 0.4516 0.0
C67 C 0.26132 0.38225 0.51217 0.0
O68 O 0.29078 0.33587 0.61103 0.0
O69 O 0.33468 0.3062 0.64974 0.0
C70 C 0.38645 0.2785 0.54703 0.0
O71 O 0.37082 0.35339 0.4995 0.0
O72 O 0.35093 0.3351 0.42333 0.0
O73 O 0.26897 0.37034 0.4678 0.0
O74 O 0.27703 0.36806 0.55144 0.0
O75 O 0.40306 0.30782 0.55871 0.0
O76 O 0.35035 0.27687 0.54799 0.0
O77 O 0.30867 0.37311 0.59604 0.0
O78 O 0.36815 0.38815 0.60942 0.0
C79 C 0.3339 0.39544 0.61392 0.0
O80 O 0.30882 0.27257 0.52871 0.0
O81 O 0.27644 0.28105 0.45787 0.0
C82 C 0.30076 0.31544 0.648 0.0
C83 C 0.28629 0.26072 0.4934 0.0
H84 H 0.10752 0.16148 0.23741 0.0
H85 H 0.06893 0.05957 0.17309 0.0
H86 H 0.15395 0.06367 0.29019 0.0
N87 N 0.15039 0.13522 0.3081 0.0
N88 N 0.1742 0.12267 0.33775 0.0
C89 C 0.10876 0.13253 0.23431 0.0
C90 C 0.08504 0.11314 0.19971 0.0
C91 C 0.13307 0.11495 0.26745 0.0
C92 C 0.13586 0.07753 0.26391 0.0
C93 C 0.11297 0.05765 0.22938 0.0
C94 C 0.08767 0.07548 0.19766 0.0
H95 H 0.30015 0.57747 0.81326 0.0
H96 H 0.38298 0.59977 0.69824 0.0
H97 H 0.3752 0.66939 0.82986 0.0
N98 N 0.31607 0.63452 0.87243 0.0
N99 N 0.3288 0.65849 0.90216 0.0
C100 C 0.32319 0.59372 0.79909 0.0
C101 C 0.33986 0.58485 0.75199 0.0
C102 C 0.33569 0.62418 0.82749 0.0
C103 C 0.36534 0.64572 0.80861 0.0
C104 C 0.3815 0.63736 0.76122 0.0
C105 C 0.36898 0.60688 0.73372 0.0
H106 H 0.77071 0.88328 0.25771 0.0
H107 H 0.84266 0.90978 0.1324 0.0
H108 H 0.86604 0.81813 0.22428 0.0
N109 N 0.80799 0.82423 0.28606 0.0
N110 N 0.7848 0.833 0.31941 0.0
C111 C 0.79467 0.87707 0.23409 0.0
C112 C 0.80362 0.89927 0.19307 0.0
C113 C 0.81677 0.84722 0.24481 0.0
C114 C 0.84828 0.84027 0.21458 0.0
C115 C 0.85821 0.86315 0.17432 0.0
C116 C 0.835 0.89183 0.163 0.0
H117 H 0.66611 0.34354 0.6608 0.0
H118 H 0.56751 0.3482 0.56477 0.0
H119 H 0.59484 0.25073 0.64133 0.0
N120 N 0.6539 0.27959 0.69424 0.0
N121 N 0.63932 0.25899 0.72582 0.0
C122 C 0.64136 0.33118 0.64316 0.0
C123 C 0.61725 0.35139 0.61261 0.0
C124 C 0.63246 0.29582 0.65547 0.0
C125 C 0.60132 0.27841 0.63236 0.0
C126 C 0.57899 0.29657 0.59712 0.0
C127 C 0.58661 0.33336 0.58828 0.0
H128 H 0.5856 0.32713 0.30575 0.0
H129 H 0.60522 0.40756 0.42477 0.0
H130 H 0.68498 0.39493 0.30501 0.0
N131 N 0.64907 0.34041 0.25449 0.0
N132 N 0.67675 0.35244 0.23086 0.0
C133 C 0.60306 0.34809 0.32348 0.0
C134 C 0.59146 0.36557 0.36912 0.0
C135 C 0.63708 0.35815 0.30026 0.0
C136 C 0.65928 0.38592 0.32296 0.0
C137 C 0.64812 0.40307 0.3682 0.0
C138 C 0.61466 0.39253 0.39137 0.0
H139 H 0.21938 0.14299 0.96157 0.0
H140 H 0.10681 0.11244 1.00482 0.0
H141 H 0.12594 0.2056 0.91467 0.0
N142 N 0.20085 0.19649 0.90335 0.0
N143 N 0.18987 0.21843 0.87107 0.0
C144 C 0.18955 0.14752 0.96231 0.0
C145 C 0.16515 0.1235 0.98787 0.0
C146 C 0.17573 0.17668 0.93495 0.0
C147 C 0.13714 0.18356 0.93606 0.0
C148 C 0.11259 0.16068 0.96234 0.0
C149 C 0.12665 0.13085 0.9876 0.0
H150 H 0.22067 0.60189 0.45875 0.0
H151 H 0.31653 0.57709 0.55014 0.0
H152 H 0.31258 0.67729 0.47199 0.0
N153 N 0.24983 0.66184 0.41985 0.0
N154 N 0.2615 0.69291 0.41104 0.0
C155 C 0.24761 0.60964 0.47537 0.0
C156 C 0.2652 0.58722 0.51066 0.0
C157 C 0.26512 0.64187 0.46074 0.0
C158 C 0.30016 0.65179 0.48215 0.0
C159 C 0.3202 0.62815 0.51295 0.0
C160 C 0.30175 0.59632 0.52787 0.0
H161 H 0.81855 0.88252 0.79796 0.0
H162 H 0.91665 0.9026 0.89235 0.0
H163 H 0.91468 0.81492 0.78351 0.0
N164 N 0.84374 0.825 0.74939 0.0
N165 N 0.85681 0.79673 0.73118 0.0
C166 C 0.84679 0.87589 0.80936 0.0
C167 C 0.8653 0.89601 0.84846 0.0
C168 C 0.86417 0.84639 0.78601 0.0
C169 C 0.90072 0.8375 0.80122 0.0
C170 C 0.9194 0.85781 0.83949 0.0
C171 C 0.9017 0.88681 0.86306 0.0
H172 H 0.08335 0.89067 0.2343 0.0
H173 H 0.20215 0.88976 0.20765 0.0
H174 H 0.20499 0.95572 0.21295 0.0
H175 H 0.17249 0.01356 0.22124 0.0
H176 H 0.05257 0.0133 0.23998 0.0
H177 H 0.05103 0.94783 0.24136 0.0
C178 C 0.10987 0.90508 0.23048 0.0
C179 C 0.14261 0.88596 0.22159 0.0
C180 C 0.11089 0.94263 0.23169 0.0
C181 C 0.17679 0.90439 0.21525 0.0
C182 C 0.17833 0.94191 0.21816 0.0
C183 C 0.14617 -0.00097 0.22605 0.0
C184 C 0.11267 0.01801 0.23027 0.0
C185 C 0.14544 0.96133 0.22589 0.0
C186 C 0.0786 -0.0009 0.23592 0.0
C187 C 0.07773 0.96175 0.23703 0.0
H188 H 0.51008 0.68738 0.61809 0.0
H189 H 0.57464 0.65475 0.74904 0.0
H190 H 0.51847 0.6517 0.80052 0.0
H191 H 0.45006 0.64601 0.80356 0.0
H192 H 0.38431 0.67321 0.67136 0.0
H193 H 0.44117 0.69162 0.62602 0.0
C194 C 0.51169 0.67955 0.65776 0.0
C195 C 0.54624 0.6696 0.67865 0.0
C196 C 0.47886 0.67675 0.68713 0.0
C197 C 0.54833 0.66172 0.73125 0.0
C198 C 0.51612 0.65981 0.76094 0.0
C199 C 0.44825 0.65704 0.76543 0.0
C200 C 0.41339 0.65819 0.74062 0.0
C201 C 0.48108 0.66545 0.73859 0.0
C202 C 0.4111 0.67217 0.69104 0.0
C203 C 0.44359 0.68217 0.6649 0.0
H204 H 0.77759 0.06185 0.18386 0.0
H205 H 0.75867 0.03438 1.02404 0.0
H206 H 0.75697 0.97074 0.04413 0.0
H207 H 0.77361 0.92361 0.10486 0.0
H208 H 0.79213 0.95169 0.26444 0.0
H209 H 0.77961 0.01445 0.24714 0.0
C210 C 0.77215 0.04207 0.15349 0.0
C211 C 0.77071 0.05265 0.10203 0.0
C212 C 0.77107 0.00562 0.16542 0.0
C213 C 0.76218 0.02676 0.06355 0.0
C214 C 0.76085 -0.00964 0.07509 0.0
C215 C 0.77366 0.9434 0.13598 0.0
C216 C 0.78434 0.93342 0.18558 0.0
C217 C 0.76741 0.9795 0.12549 0.0
C218 C 0.78397 0.95892 0.22595 0.0
C219 C 0.77722 -0.00517 0.21596 0.0
H220 H 0.43413 0.26204 0.47095 0.0
H221 H 0.39704 0.22745 0.6185 0.0
H222 H 0.46172 0.22664 0.64935 0.0
H223 H 0.52447 0.25579 0.64222 0.0
H224 H 0.56083 0.29401 0.49562 0.0
H225 H 0.50093 0.27474 0.45662 0.0
C226 C 0.44048 0.25195 0.50876 0.0
C227 C 0.41097 0.24746 0.54372 0.0
C228 C 0.47751 0.25504 0.52738 0.0
C229 C 0.41933 0.23261 0.59146 0.0
C230 C 0.45636 0.23342 0.60977 0.0
C231 C 0.51965 0.259 0.60146 0.0
C232 C 0.54616 0.27798 0.57217 0.0
C233 C 0.48507 0.24791 0.57947 0.0
C234 C 0.53989 0.28123 0.51926 0.0
C235 C 0.50591 0.26973 0.4969 0.0
H236 H 0.6789 0.54403 0.49107 0.0
H237 H 0.64483 0.58581 0.34519 0.0
H238 H 0.65355 0.52739 0.30428 0.0
H239 H 0.6557 0.46257 0.31416 0.0
H240 H 0.67904 0.41888 0.46243 0.0
H241 H 0.6904 0.47947 0.49826 0.0
C242 C 0.67336 0.54026 0.4504 0.0
C243 C 0.65927 0.56857 0.42183 0.0
C244 C 0.67644 0.50607 0.42765 0.0
C245 C 0.65461 0.56409 0.36845 0.0
C246 C 0.65947 0.53065 0.34498 0.0
C247 C 0.66464 0.4664 0.35384 0.0
C248 C 0.66654 0.43676 0.38583 0.0
C249 C 0.66813 0.5011 0.3748 0.0
C250 C 0.6776 0.44162 0.43732 0.0
C251 C 0.68367 0.47618 0.45779 0.0
H252 H 0.93962 0.19606 0.96362 0.0
H253 H 0.93461 0.0908 0.89183 0.0
H254 H 0.00254 0.08656 0.89784 0.0
H255 H 0.06321 0.11234 0.9233 0.0
H256 H 0.07066 0.21819 0.99228 0.0
H257 H 0.00205 0.22292 0.98768 0.0
C258 C 0.95365 0.17235 0.94943 0.0
C259 C 0.93246 0.14362 0.92772 0.0
C260 C -0.00701 0.17029 0.95235 0.0
C261 C 0.95061 0.11311 0.90879 0.0
C262 C -0.01065 0.11065 0.91225 0.0
C263 C 0.04972 0.13644 0.93729 0.0
C264 C 0.07158 0.16481 0.95824 0.0
C265 C 0.01076 0.139 0.93389 0.0
C266 C 0.05411 0.1961 0.97581 0.0
C267 C 0.01501 0.19872 0.97329 0.0
H268 H 0.25415 0.43222 0.59257 0.0
H269 H 0.22129 0.41095 0.43502 0.0
H270 H 0.2139 0.47441 0.42127 0.0
H271 H 0.23276 0.53592 0.44755 0.0
H272 H 0.25853 0.55918 0.60646 0.0
H273 H 0.25011 0.49548 0.62649 0.0
C274 C 0.24434 0.44136 0.55578 0.0
C275 C 0.24103 0.4169 0.51404 0.0
C276 C 0.23954 0.47845 0.54783 0.0
C277 C 0.22603 0.42921 0.46742 0.0
C278 C 0.22186 0.4657 0.45918 0.0
C279 C 0.23567 0.52729 0.48684 0.0
C280 C 0.24846 0.55184 0.52495 0.0
C281 C 0.23128 0.49068 0.49802 0.0
C282 C 0.25071 0.5403 0.57593 0.0
C283 C 0.24611 0.5039 0.58736 0.0
H284 H 0.0883 0.86081 0.90305 0.0
H285 H 0.04848 0.78321 1.01109 0.0
H286 H -0.01398 0.78346 0.97124 0.0
H287 H 0.94158 0.81072 0.91045 0.0
H288 H -0.01747 0.88831 0.80319 0.0
H289 H 0.04629 0.88257 0.83692 0.0
C290 C 0.06619 0.84337 0.91727 0.0
C291 C 0.07239 0.82296 0.96113 0.0
C292 C 0.03072 0.84371 0.8941 0.0
C293 C 0.04364 0.80032 0.97881 0.0
C294 C 0.00816 0.80022 0.9557 0.0
C295 C 0.96478 0.82568 0.89402 0.0
C296 C 0.95796 0.84978 0.85455 0.0
C297 C 0.00111 0.82265 0.91426 0.0
C298 C -0.01234 0.8695 0.83348 0.0
C299 C 0.0239 0.86632 0.85286 0.0
H300 H 0.81936 0.0273 0.98701 0.0
H301 H 0.78861 0.06904 0.83988 0.0
H302 H 0.80378 0.01177 0.7982 0.0
H303 H 0.83042 0.95141 0.80324 0.0
H304 H 0.8611 0.91039 0.95093 0.0
H305 H 0.84002 0.96541 0.99315 0.0
C306 C 0.81472 0.02349 0.94611 0.0
C307 C 0.80235 0.05211 0.91665 0.0
C308 C 0.82363 -0.00934 0.92254 0.0
C309 C 0.79805 0.04728 0.86332 0.0
C310 C 0.80669 0.01457 0.83952 0.0
C311 C 0.83174 0.95431 0.84471 0.0
C312 C 0.84755 0.92713 0.87394 0.0
C313 C 0.82013 -0.01373 0.86865 0.0
C314 C 0.84946 0.93124 0.92764 0.0
C315 C 0.83746 0.96265 0.95177 0.0
H316 H 0.44416 0.3563 0.50141 0.0
H317 H 0.3937 0.35281 0.35034 0.0
H318 H 0.45544 0.35518 0.31125 0.0
H319 H 0.52408 0.35792 0.31962 0.0
H320 H 0.57454 0.35999 0.47036 0.0
H321 H 0.51266 0.35907 0.50968 0.0
C322 C 0.44665 0.35652 0.45998 0.0
C323 C 0.41429 0.35446 0.42899 0.0
C324 C 0.48235 0.35737 0.43752 0.0
C325 C 0.41813 0.35439 0.37525 0.0
C326 C 0.45347 0.35556 0.35274 0.0
C327 C 0.52155 0.35729 0.36103 0.0
C328 C 0.55395 0.35899 0.392 0.0
C329 C 0.48583 0.35658 0.38345 0.0
C330 C 0.55003 0.35909 0.44568 0.0
C331 C 0.51469 0.35857 0.46821 0.0
H332 H 0.22474 0.96759 1.02062 0.0
H333 H 0.12829 0.96179 0.11867 0.0
H334 H 0.12006 0.02667 0.11102 0.0
H335 H 0.13543 0.08299 0.06686 0.0
H336 H 0.22535 0.08371 0.95619 0.0
H337 H 0.24159 0.0237 0.97992 0.0
C338 C 0.20232 0.98061 0.04129 0.0
C339 C 0.17739 0.95984 0.07068 0.0
C340 C 0.19643 0.01726 0.03405 0.0
C341 C 0.14848 0.97719 0.09699 0.0
C342 C 0.14344 0.01424 0.09185 0.0
C343 C 0.15846 0.07018 0.04739 0.0
C344 C 0.17859 0.08859 1.00888 0.0
C345 C 0.16642 0.03427 0.05882 0.0
C346 C 0.20932 0.07131 0.98629 0.0
C347 C 0.21849 0.03643 0.99938 0.0
H348 H 0.49371 0.62759 0.57116 0.0
H349 H 0.49745 0.70009 0.44434 0.0
H350 H 0.42959 0.69691 0.43635 0.0
H351 H 0.37093 0.66895 0.45882 0.0
H352 H 0.36457 0.60163 0.59149 0.0
H353 H 0.43171 0.60665 0.60264 0.0
C354 C 0.47947 0.64345 0.54286 0.0
C355 C 0.50048 0.66411 0.50852 0.0
C356 C 0.44012 0.64174 0.53853 0.0
C357 C 0.48181 0.68396 0.47124 0.0
C358 C 0.44302 0.68209 0.46649 0.0
C359 C 0.38323 0.65637 0.49175 0.0
C360 C 0.36128 0.63481 0.52425 0.0
C361 C 0.42198 0.66045 0.49919 0.0
C362 C 0.37972 0.61786 0.56496 0.0
C363 C 0.41856 0.62086 0.57166 0.0
H364 H 0.33203 0.46327 0.58396 0.0
H365 H 0.31697 0.39649 0.71503 0.0
H366 H 0.31431 0.44991 0.77179 0.0
H367 H 0.32375 0.51608 0.78383 0.0
H368 H 0.32791 0.58157 0.65011 0.0
H369 H 0.33082 0.52797 0.5946 0.0
C370 C 0.32732 0.46062 0.62483 0.0
C371 C 0.3242 0.42657 0.64559 0.0
C372 C 0.3256 0.49114 0.65674 0.0
C373 C 0.31861 0.4229 0.69849 0.0
C374 C 0.31742 0.45333 0.73084 0.0
C375 C 0.32369 0.51865 0.74248 0.0
C376 C 0.32833 0.5527 0.72076 0.0
C377 C 0.3216 0.48772 0.71043 0.0
C378 C 0.3275 0.55549 0.66723 0.0
C379 C 0.32828 0.52509 0.63563 0.0
H380 H 0.02605 0.87448 0.10606 0.0
H381 H 0.011 0.75968 0.09777 0.0
H382 H 0.94342 0.76551 0.10815 0.0
H383 H 0.89123 0.8026 0.13737 0.0
H384 H 0.90797 0.91723 0.1537 0.0
H385 H 0.97171 0.91232 0.12233 0.0
C386 C 0.00763 0.85097 0.10411 0.0
C387 C 0.02312 0.81678 0.10091 0.0
C388 C 0.96914 0.85448 0.11329 0.0
C389 C -0.00065 0.78628 0.09974 0.0
C390 C 0.96084 0.7896 0.10646 0.0
C391 C 0.90872 0.82649 0.13337 0.0
C392 C 0.89495 0.86009 0.14838 0.0
C393 C 0.94579 0.82343 0.11636 0.0
C394 C 0.91773 0.89096 0.14221 0.0
C395 C 0.95435 0.88821 0.12447 0.0
H396 H 0.65334 0.51624 0.65037 0.0
H397 H 0.60279 0.52512 0.50055 0.0
H398 H 0.59403 0.4595 0.49528 0.0
H399 H 0.60092 0.39931 0.53477 0.0
H400 H 0.64324 0.39533 0.69055 0.0
H401 H 0.65523 0.45906 0.69133 0.0
C402 C 0.64045 0.50407 0.61625 0.0
C403 C 0.62962 0.52572 0.5754 0.0
C404 C 0.63424 0.46687 0.61443 0.0
C405 C 0.61237 0.50913 0.53208 0.0
C406 C 0.60701 0.47159 0.52932 0.0
C407 C 0.61253 0.4123 0.56898 0.0
C408 C 0.62246 0.39152 0.61172 0.0
C409 C 0.61791 0.45007 0.57043 0.0
C410 C 0.63705 0.40956 0.65584 0.0
C411 C 0.6435 0.44643 0.65681 0.0
H412 H 0.93925 0.19169 0.13015 0.0
H413 H 0.93673 0.10463 1.01908 0.0
H414 H 0.00052 0.08869 0.04368 0.0
H415 H 0.05256 0.09385 0.1062 0.0
H416 H 0.04718 0.17389 0.22852 0.0
H417 H -0.00786 0.19861 0.1895 0.0
C418 C 0.95313 0.16982 0.11043 0.0
C419 C 0.93383 0.15011 0.07167 0.0
C420 C -0.01153 0.15917 0.12755 0.0
C421 C 0.95165 0.12123 0.04735 0.0
C422 C -0.01216 0.11166 0.06226 0.0
C423 C 0.03942 0.11661 0.12465 0.0
C424 C 0.05446 0.13141 0.17097 0.0
C425 C 0.00588 0.12953 0.10383 0.0
C426 C 0.0373 0.16184 0.19271 0.0
C427 C 0.0052 0.17592 0.1707 0.0
H428 H 0.21564 0.79914 0.24028 0.0
H429 H 0.19892 0.69973 0.1553 0.0
H430 H 0.22327 0.6662 0.22748 0.0
H431 H 0.24167 0.66467 0.31862 0.0
H432 H 0.25917 0.76364 0.40402 0.0
H433 H 0.24161 0.79803 0.32845 0.0
C434 C 0.21891 0.77032 0.23695 0.0
C435 C 0.20601 0.75185 0.19254 0.0
C436 C 0.23159 0.75111 0.27943 0.0
C437 C 0.20927 0.71441 0.18901 0.0
C438 C 0.22257 0.69521 0.23055 0.0
C439 C 0.24134 0.69374 0.32058 0.0
C440 C 0.25032 0.71185 0.367 0.0
C441 C 0.23225 0.71315 0.27669 0.0
C442 C 0.25135 0.74944 0.36876 0.0
C443 C 0.24165 0.76899 0.32556 0.0
H444 H 0.77237 0.66847 0.62584 0.0
H445 H 0.69214 0.75032 0.59503 0.0
H446 H 0.73609 0.79653 0.6282 0.0
H447 H 0.79339 0.81193 0.6784 0.0
H448 H 0.87373 0.73004 0.70786 0.0
H449 H 0.83388 0.68536 0.66238 0.0
C450 C 0.76493 0.69654 0.62536 0.0
C451 C 0.72907 0.70607 0.60875 0.0
C452 C 0.7901 0.72275 0.64497 0.0
C453 C 0.71973 0.74245 0.60753 0.0
C454 C 0.74468 0.7688 0.62701 0.0
C455 C 0.80234 0.78442 0.67407 0.0
C456 C 0.83593 0.7737 0.69726 0.0
C457 C 0.77931 0.75905 0.64781 0.0
C458 C 0.84771 0.73837 0.69056 0.0
C459 C 0.82494 0.71295 0.66481 0.0
H460 H 0.78821 0.28097 0.08345 0.0
H461 H 0.69965 0.20126 0.07108 0.0
H462 H 0.65731 0.241 0.11773 0.0
H463 H 0.65054 0.29332 0.17716 0.0
H464 H 0.73956 0.37282 0.18835 0.0
H465 H 0.77666 0.33876 0.12653 0.0
C466 C 0.75906 0.27317 0.08878 0.0
C467 C 0.74681 0.23857 0.07385 0.0
C468 C 0.73537 0.29578 0.11668 0.0
C469 C 0.70932 0.22817 0.08162 0.0
C470 C 0.68536 0.25063 0.1091 0.0
C471 C 0.67765 0.30347 0.16503 0.0
C472 C 0.693 0.33508 0.1878 0.0
C473 C 0.69878 0.28369 0.1293 0.0
C474 C 0.72775 0.34831 0.17136 0.0
C475 C 0.74891 0.32885 0.13622 0.0
H476 H 0.31829 0.27797 0.73258 0.0
H477 H 0.22456 0.32523 0.65554 0.0
H478 H 0.18198 0.30045 0.71999 0.0
H479 H 0.17123 0.26231 0.79625 0.0
H480 H 0.26594 0.21495 0.87062 0.0
H481 H 0.30822 0.24283 0.8094 0.0
C482 C 0.28857 0.28318 0.72985 0.0
C483 C 0.2747 0.30342 0.68894 0.0
C484 C 0.26438 0.26861 0.76663 0.0
C485 C 0.23607 0.30982 0.68649 0.0
C486 C 0.21171 0.29554 0.7233 0.0
C487 C 0.2012 0.25848 0.79909 0.0
C488 C 0.21529 0.23654 0.83783 0.0
C489 C 0.22549 0.27447 0.76321 0.0
C490 C 0.2542 0.23159 0.84124 0.0
C491 C 0.27845 0.24753 0.80613 0.0
H492 H 0.72668 0.70759 0.45264 0.0
H493 H 0.64941 0.78937 0.49772 0.0
H494 H 0.68742 0.83478 0.45446 0.0
H495 H 0.73523 0.84833 0.38975 0.0
H496 H 0.8086 0.76522 0.33732 0.0
H497 H 0.77997 0.72316 0.39707 0.0
C498 C 0.71924 0.73566 0.45472 0.0
C499 C 0.68575 0.74547 0.4786 0.0
C500 C 0.73999 0.76108 0.42703 0.0
C501 C 0.67548 0.78157 0.48006 0.0
C502 C 0.69691 0.80735 0.45475 0.0
C503 C 0.74536 0.8212 0.39252 0.0
C504 C 0.77341 0.80973 0.35907 0.0
C505 C 0.72804 0.79702 0.42588 0.0
C506 C 0.78669 0.77458 0.36246 0.0
C507 C 0.77031 0.75053 0.3966 0.0
H508 H 0.70764 0.19281 0.92351 0.0
H509 H 0.81011 0.21444 0.84259 0.0
H510 H 0.77493 0.24168 0.77296 0.0
H511 H 0.71482 0.25628 0.73316 0.0
H512 H 0.6117 0.22925 0.80923 0.0
H513 H 0.64703 0.20652 0.88254 0.0
C514 C 0.7221 0.2042 0.89101 0.0
C515 C 0.76126 0.2025 0.88826 0.0
C516 C 0.70152 0.2181 0.85 0.0
C517 C 0.77992 0.21613 0.84549 0.0
C518 C 0.75984 0.23138 0.80563 0.0
C519 C 0.70012 0.24545 0.76582 0.0
C520 C 0.66071 0.24444 0.76627 0.0
C521 C 0.7206 0.23197 0.80707 0.0
C522 C 0.64204 0.23002 0.80841 0.0
C523 C 0.6622 0.21729 0.85026 0.0
H524 H 0.21479 0.24153 0.49857 0.0
H525 H 0.32463 0.19905 0.47561 0.0
H526 H 0.29721 0.14683 0.42894 0.0
H527 H 0.24303 0.1214 0.37822 0.0
H528 H 0.13528 0.17034 0.39337 0.0
H529 H 0.1603 0.21185 0.45914 0.0
C530 C 0.23246 0.21986 0.48547 0.0
C531 C 0.27145 0.22378 0.49052 0.0
C532 C 0.21677 0.19182 0.45541 0.0
C533 C 0.29442 0.19612 0.47282 0.0
C534 C 0.27875 0.16675 0.44513 0.0
C535 C 0.22515 0.14083 0.3968 0.0
C536 C 0.1878 0.14363 0.38026 0.0
C537 C 0.2402 0.16556 0.43345 0.0
C538 C 0.16443 0.1685 0.40463 0.0
C539 C 0.17865 0.19204 0.44242 0.0
H540 H 0.20727 0.73318 1.03034 0.0
H541 H 0.29937 0.80831 0.05275 0.0
H542 H 0.34295 0.76435 1.01833 0.0
H543 H 0.35168 0.71078 0.96376 0.0
H544 H 0.25825 0.63881 0.9318 0.0
H545 H 0.21837 0.67458 0.98806 0.0
C546 C 0.23714 0.73912 1.02971 0.0
C547 C 0.25039 0.7736 0.04404 0.0
C548 C 0.26154 0.71453 1.00673 0.0
C549 C 0.28888 0.78168 0.04218 0.0
C550 C 0.31364 0.75673 1.02194 0.0
C551 C 0.32289 0.70248 0.97068 0.0
C552 C 0.30778 0.6728 0.94346 0.0
C553 C 0.29988 0.72399 1.00129 0.0
C554 C 0.27043 0.66189 0.95209 0.0
C555 C 0.24759 0.68243 0.9841 0.0
loop_
_geom_bond_atom_site_label_1
_geom_bond_atom_site_label_2
_geom_bond_distance
_geom_bond_site_symmetry_2
_ccdc_geom_bond_type
Zn0 O6 1.920 . S
Zn0 O12 1.898 . S
Zn0 O15 1.905 . S
Zn1 O9 1.905 . S
Zn1 O10 1.898 . S
Zn1 O18 1.920 . S
Zn2 O5 2.080 . S
Zn2 O8 2.111 1_554 S
Zn2 O11 2.120 1_554 S
Zn2 O13 2.120 . S
Zn2 O14 2.114 . S
Zn2 O17 2.080 . S
C3 O8 1.170 . S
C3 O9 1.182 . S
C4 O10 1.167 . S
C4 O11 1.299 . S
O5 Zn2 2.080 . S
O5 C19 1.305 . S
O6 Zn0 1.920 . S
O6 C19 1.234 . S
C7 O12 1.167 . S
C7 O13 1.299 . S
O8 Zn2 2.111 1_556 S
O8 C3 1.170 . S
O9 Zn1 1.905 . S
O9 C3 1.182 . S
O10 Zn1 1.898 . S
O10 C4 1.167 . S
O11 Zn2 2.120 1_556 S
O11 C4 1.299 . S
O12 Zn0 1.898 . S
O12 C7 1.167 . S
O13 Zn2 2.120 . S
O13 C7 1.299 . S
O14 Zn2 2.114 . S
O14 C16 1.166 . S
O15 Zn0 1.905 . S
O15 C16 1.182 . S
C16 O14 1.166 . S
C16 O15 1.182 . S
O17 Zn2 2.080 . S
O17 C20 1.305 1_554 S
O18 Zn1 1.920 . S
O18 C20 1.234 . S
C19 O5 1.305 . S
C19 O6 1.234 . S
C20 O17 1.305 1_556 S
C20 O18 1.234 . S
Zn21 O27 1.920 . S
Zn21 O33 1.898 . S
Zn21 O36 1.905 . S
Zn22 O30 1.905 . S
Zn22 O31 1.898 . S
Zn22 O39 1.920 . S
Zn23 O26 2.080 . S
Zn23 O29 2.114 . S
Zn23 O32 2.120 . S
Zn23 O34 2.120 . S
Zn23 O35 2.114 . S
Zn23 O38 2.080 . S
C24 O29 1.166 . S
C24 O30 1.182 . S
C25 O31 1.167 . S
C25 O32 1.299 . S
O26 Zn23 2.080 . S
O26 C40 1.305 . S
O27 Zn21 1.920 . S
O27 C40 1.234 . S
C28 O33 1.167 . S
C28 O34 1.299 . S
O29 Zn23 2.114 . S
O29 C24 1.166 . S
O30 Zn22 1.905 . S
O30 C24 1.182 . S
O31 Zn22 1.898 . S
O31 C25 1.167 . S
O32 Zn23 2.120 . S
O32 C25 1.299 . S
O33 Zn21 1.898 . S
O33 C28 1.167 . S
O34 Zn23 2.120 . S
O34 C28 1.299 . S
O35 Zn23 2.114 . S
O35 C37 1.166 . S
O36 Zn21 1.905 . S
O36 C37 1.182 . S
C37 O35 1.166 . S
C37 O36 1.182 . S
O38 Zn23 2.080 . S
O38 C41 1.305 . S
O39 Zn22 1.920 . S
O39 C41 1.234 . S
C40 O26 1.305 . S
C40 O27 1.234 . S
C41 O38 1.305 . S
C41 O39 1.234 . S
Zn42 O48 1.920 . S
Zn42 O54 1.898 . S
Zn42 O57 1.905 . S
Zn43 O51 1.905 . S
Zn43 O52 1.898 . S
Zn43 O60 1.920 . S
Zn44 O47 2.080 1_554 S
Zn44 O50 2.114 . S
Zn44 O53 2.120 . S
Zn44 O55 2.120 1_554 S
Zn44 O56 2.113 1_554 S
Zn44 O59 2.081 . S
C45 O50 1.166 . S
C45 O51 1.182 . S
C46 O52 1.167 . S
C46 O53 1.299 . S
O47 Zn44 2.080 1_556 S
O47 C61 1.305 . S
O48 Zn42 1.920 . S
O48 C61 1.234 . S
C49 O54 1.167 . S
C49 O55 1.299 . S
O50 Zn44 2.114 . S
O50 C45 1.166 . S
O51 Zn43 1.905 . S
O51 C45 1.182 . S
O52 Zn43 1.898 . S
O52 C46 1.167 . S
O53 Zn44 2.120 . S
O53 C46 1.299 . S
O54 Zn42 1.898 . S
O54 C49 1.167 . S
O55 Zn44 2.120 1_556 S
O55 C49 1.299 . S
O56 Zn44 2.113 1_556 S
O56 C58 1.166 . S
O57 Zn42 1.905 . S
O57 C58 1.182 . S
C58 O56 1.166 . S
C58 O57 1.182 . S
O59 Zn44 2.081 . S
O59 C62 1.305 . S
O60 Zn43 1.920 . S
O60 C62 1.234 . S
C61 O47 1.305 . S
C61 O48 1.234 . S
C62 O59 1.305 . S
C62 O60 1.234 . S
Zn63 O69 1.920 . S
Zn63 O75 1.898 . S
Zn63 O78 1.905 . S
Zn64 O72 1.905 . S
Zn64 O73 1.898 . S
Zn64 O81 1.920 . S
Zn65 O68 2.080 . S
Zn65 O71 2.114 . S
Zn65 O74 2.120 . S
Zn65 O76 2.120 . S
Zn65 O77 2.114 . S
Zn65 O80 2.080 . S
C66 O71 1.166 . S
C66 O72 1.182 . S
C67 O73 1.167 . S
C67 O74 1.299 . S
O68 Zn65 2.080 . S
O68 C82 1.305 . S
O69 Zn63 1.920 . S
O69 C82 1.234 . S
C70 O75 1.167 . S
C70 O76 1.299 . S
O71 Zn65 2.114 . S
O71 C66 1.166 . S
O72 Zn64 1.905 . S
O72 C66 1.182 . S
O73 Zn64 1.898 . S
O73 C67 1.167 . S
O74 Zn65 2.120 . S
O74 C67 1.299 . S
O75 Zn63 1.898 . S
O75 C70 1.167 . S
O76 Zn65 2.120 . S
O76 C70 1.299 . S
O77 Zn65 2.114 . S
O77 C79 1.166 . S
O78 Zn63 1.905 . S
O78 C79 1.182 . S
C79 O77 1.166 . S
C79 O78 1.182 . S
O80 Zn65 2.080 . S
O80 C83 1.305 . S
O81 Zn64 1.920 . S
O81 C83 1.234 . S
C82 O68 1.305 . S
C82 O69 1.234 . S
C83 O80 1.305 . S
C83 O81 1.234 . S
H84 C89 0.929 . S
H85 C94 0.931 . S
H86 C92 0.930 . S
N87 N88 1.234 . S
N87 C91 1.453 . S
N88 N87 1.234 . S
C89 H84 0.929 . S
C89 C90 1.373 . S
C89 C91 1.368 . S
C90 C89 1.373 . S
C90 C94 1.397 . S
C91 N87 1.453 . S
C91 C89 1.368 . S
C91 C92 1.373 . S
C92 H86 0.930 . S
C92 C91 1.373 . S
C92 C93 1.371 . S
C93 C92 1.371 . S
C93 C94 1.383 . S
C94 H85 0.931 . S
C94 C90 1.397 . S
C94 C93 1.383 . S
H95 C100 0.929 . S
H96 C105 0.931 . S
H97 C103 0.930 . S
N98 N99 1.234 . S
N98 C102 1.453 . S
N99 N98 1.234 . S
C100 H95 0.929 . S
C100 C101 1.373 . S
C100 C102 1.368 . S
C101 C100 1.373 . S
C101 C105 1.397 . S
C102 N98 1.453 . S
C102 C100 1.368 . S
C102 C103 1.373 . S
C103 H97 0.930 . S
C103 C102 1.373 . S
C103 C104 1.371 . S
C104 C103 1.371 . S
C104 C105 1.383 . S
C105 H96 0.931 . S
C105 C101 1.397 . S
C105 C104 1.383 . S
H106 C111 0.929 . S
H107 C116 0.931 . S
H108 C114 0.930 . S
N109 N110 1.234 . S
N109 C113 1.453 . S
N110 N109 1.234 . S
C111 H106 0.929 . S
C111 C112 1.373 . S
C111 C113 1.368 . S
C112 C111 1.373 . S
C112 C116 1.397 . S
C113 N109 1.453 . S
C113 C111 1.368 . S
C113 C114 1.373 . S
C114 H108 0.930 . S
C114 C113 1.373 . S
C114 C115 1.371 . S
C115 C114 1.371 . S
C115 C116 1.383 . S
C116 H107 0.931 . S
C116 C112 1.397 . S
C116 C115 1.383 . S
H117 C122 0.929 . S
H118 C127 0.931 . S
H119 C125 0.930 . S
N120 N121 1.234 . S
N120 C124 1.453 . S
N121 N120 1.234 . S
C122 H117 0.929 . S
C122 C123 1.373 . S
C122 C124 1.368 . S
C123 C122 1.373 . S
C123 C127 1.397 . S
C124 N120 1.453 . S
C124 C122 1.368 . S
C124 C125 1.373 . S
C125 H119 0.930 . S
C125 C124 1.373 . S
C125 C126 1.371 . S
C126 C125 1.371 . S
C126 C127 1.383 . S
C127 H118 0.931 . S
C127 C123 1.397 . S
C127 C126 1.383 . S
H128 C133 0.929 . S
H129 C138 0.931 . S
H130 C136 0.930 . S
N131 N132 1.234 . S
N131 C135 1.453 . S
N132 N131 1.234 . S
C133 H128 0.929 . S
C133 C134 1.373 . S
C133 C135 1.368 . S
C134 C133 1.373 . S
C134 C138 1.397 . S
C135 N131 1.453 . S
C135 C133 1.368 . S
C135 C136 1.373 . S
C136 H130 0.930 . S
C136 C135 1.373 . S
C136 C137 1.371 . S
C137 C136 1.371 . S
C137 C138 1.383 . S
C138 H129 0.931 . S
C138 C134 1.397 . S
C138 C137 1.383 . S
H139 C144 0.929 . S
H140 C149 0.931 . S
H141 C147 0.930 . S
N142 N143 1.234 . S
N142 C146 1.453 . S
N143 N142 1.234 . S
C144 H139 0.929 . S
C144 C145 1.373 . S
C144 C146 1.368 . S
C145 C144 1.373 . S
C145 C149 1.397 . S
C146 N142 1.453 . S
C146 C144 1.368 . S
C146 C147 1.373 . S
C147 H141 0.930 . S
C147 C146 1.373 . S
C147 C148 1.371 . S
C148 C147 1.371 . S
C148 C149 1.383 . S
C149 H140 0.931 . S
C149 C145 1.397 . S
C149 C148 1.383 . S
H150 C155 0.929 . S
H151 C160 0.931 . S
H152 C158 0.930 . S
N153 N154 1.234 . S
N153 C157 1.453 . S
N154 N153 1.234 . S
C155 H150 0.929 . S
C155 C156 1.373 . S
C155 C157 1.368 . S
C156 C155 1.373 . S
C156 C160 1.397 . S
C157 N153 1.453 . S
C157 C155 1.368 . S
C157 C158 1.373 . S
C158 H152 0.930 . S
C158 C157 1.373 . S
C158 C159 1.371 . S
C159 C158 1.371 . S
C159 C160 1.383 . S
C160 H151 0.931 . S
C160 C156 1.397 . S
C160 C159 1.383 . S
H161 C166 0.929 . S
H162 C171 0.931 . S
H163 C169 0.930 . S
N164 N165 1.234 . S
N164 C168 1.453 . S
N165 N164 1.234 . S
C166 H161 0.929 . S
C166 C167 1.373 . S
C166 C168 1.368 . S
C167 C166 1.373 . S
C167 C171 1.397 . S
C168 N164 1.453 . S
C168 C166 1.368 . S
C168 C169 1.373 . S
C169 H163 0.930 . S
C169 C168 1.373 . S
C169 C170 1.371 . S
C170 C169 1.371 . S
C170 C171 1.383 . S
C171 H162 0.931 . S
C171 C167 1.397 . S
C171 C170 1.383 . S
H172 C178 0.930 . S
H173 C181 0.930 . S
H174 C182 0.930 . S
H175 C183 0.930 . S
H176 C186 0.930 . S
H177 C187 0.930 . S
C178 H172 0.930 . S
C178 C179 1.355 . S
C178 C180 1.415 1_565 S
C179 C178 1.355 . S
C179 C181 1.419 . S
C180 C178 1.415 1_545 S
C180 C185 1.425 1_545 S
C180 C187 1.409 . S
C181 H173 0.930 . S
C181 C179 1.419 . S
C181 C182 1.362 . S
C182 H174 0.930 . S
C182 C181 1.362 . S
C182 C185 1.409 . S
C183 H175 0.930 . S
C183 C184 1.355 . S
C183 C185 1.415 1_545 S
C184 C183 1.355 . S
C184 C186 1.419 . S
C185 C180 1.425 1_565 S
C185 C182 1.409 . S
C185 C183 1.415 1_565 S
C186 H176 0.930 . S
C186 C184 1.419 . S
C186 C187 1.362 . S
C187 H177 0.930 . S
C187 C180 1.409 . S
C187 C186 1.362 . S
H188 C194 0.930 . S
H189 C197 0.930 . S
H190 C198 0.930 . S
H191 C199 0.930 . S
H192 C202 0.930 . S
H193 C203 0.930 . S
C194 H188 0.930 . S
C194 C195 1.355 . S
C194 C196 1.415 . S
C195 C194 1.355 . S
C195 C197 1.419 . S
C196 C194 1.415 . S
C196 C201 1.425 . S
C196 C203 1.409 . S
C197 H189 0.930 . S
C197 C195 1.419 . S
C197 C198 1.362 . S
C198 H190 0.930 . S
C198 C197 1.362 . S
C198 C201 1.409 . S
C199 H191 0.930 . S
C199 C200 1.355 . S
C199 C201 1.415 . S
C200 C199 1.355 . S
C200 C202 1.419 . S
C201 C196 1.425 . S
C201 C198 1.409 . S
C201 C199 1.415 . S
C202 H192 0.930 . S
C202 C200 1.419 . S
C202 C203 1.362 . S
C203 H193 0.930 . S
C203 C196 1.409 . S
C203 C202 1.362 . S
H204 C210 0.930 . S
H205 C213 0.930 1_556 S
H206 C214 0.930 1_565 S
H207 C215 0.930 . S
H208 C218 0.930 . S
H209 C219 0.930 . S
C210 H204 0.930 . S
C210 C211 1.355 . S
C210 C212 1.415 . S
C211 C210 1.355 . S
C211 C213 1.419 . S
C212 C210 1.415 . S
C212 C217 1.425 1_545 S
C212 C219 1.409 . S
C213 H205 0.930 1_554 S
C213 C211 1.419 . S
C213 C214 1.362 . S
C214 H206 0.930 1_545 S
C214 C213 1.362 . S
C214 C217 1.409 1_545 S
C215 H207 0.930 . S
C215 C216 1.355 . S
C215 C217 1.415 . S
C216 C215 1.355 . S
C216 C218 1.419 . S
C217 C212 1.425 1_565 S
C217 C214 1.409 1_565 S
C217 C215 1.415 . S
C218 H208 0.930 . S
C218 C216 1.419 . S
C218 C219 1.362 1_565 S
C219 H209 0.930 . S
C219 C212 1.409 . S
C219 C218 1.362 1_545 S
H220 C226 0.930 . S
H221 C229 0.930 . S
H222 C230 0.930 . S
H223 C231 0.930 . S
H224 C234 0.930 . S
H225 C235 0.930 . S
C226 H220 0.930 . S
C226 C227 1.355 . S
C226 C228 1.415 . S
C227 C226 1.355 . S
C227 C229 1.419 . S
C228 C226 1.415 . S
C228 C233 1.425 . S
C228 C235 1.409 . S
C229 H221 0.930 . S
C229 C227 1.419 . S
C229 C230 1.362 . S
C230 H222 0.930 . S
C230 C229 1.362 . S
C230 C233 1.409 . S
C231 H223 0.930 . S
C231 C232 1.355 . S
C231 C233 1.415 . S
C232 C231 1.355 . S
C232 C234 1.419 . S
C233 C228 1.425 . S
C233 C230 1.409 . S
C233 C231 1.415 . S
C234 H224 0.930 . S
C234 C232 1.419 . S
C234 C235 1.362 . S
C235 H225 0.930 . S
C235 C228 1.409 . S
C235 C234 1.362 . S
H236 C242 0.930 . S
H237 C245 0.930 . S
H238 C246 0.930 . S
H239 C247 0.930 . S
H240 C250 0.930 . S
H241 C251 0.930 . S
C242 H236 0.930 . S
C242 C243 1.355 . S
C242 C244 1.415 . S
C243 C242 1.355 . S
C243 C245 1.419 . S
C244 C242 1.415 . S
C244 C249 1.425 . S
C244 C251 1.409 . S
C245 H237 0.930 . S
C245 C243 1.419 . S
C245 C246 1.362 . S
C246 H238 0.930 . S
C246 C245 1.362 . S
C246 C249 1.409 . S
C247 H239 0.930 . S
C247 C248 1.355 . S
C247 C249 1.415 . S
C248 C247 1.355 . S
C248 C250 1.419 . S
C249 C244 1.425 . S
C249 C246 1.409 . S
C249 C247 1.415 . S
C250 H240 0.930 . S
C250 C248 1.419 . S
C250 C251 1.362 . S
C251 H241 0.930 . S
C251 C244 1.409 . S
C251 C250 1.362 . S
H252 C258 0.930 . S
H253 C261 0.930 . S
H254 C262 0.930 . S
H255 C263 0.930 . S
H256 C266 0.930 . S
H257 C267 0.930 . S
C258 H252 0.930 . S
C258 C259 1.355 . S
C258 C260 1.415 1_655 S
C259 C258 1.355 . S
C259 C261 1.419 . S
C260 C258 1.415 1_455 S
C260 C265 1.425 . S
C260 C267 1.409 . S
C261 H253 0.930 . S
C261 C259 1.419 . S
C261 C262 1.362 1_655 S
C262 H254 0.930 . S
C262 C261 1.362 1_455 S
C262 C265 1.409 . S
C263 H255 0.930 . S
C263 C264 1.355 . S
C263 C265 1.415 . S
C264 C263 1.355 . S
C264 C266 1.419 . S
C265 C260 1.425 . S
C265 C262 1.409 . S
C265 C263 1.415 . S
C266 H256 0.930 . S
C266 C264 1.419 . S
C266 C267 1.362 . S
C267 H257 0.930 . S
C267 C260 1.409 . S
C267 C266 1.362 . S
H268 C274 0.930 . S
H269 C277 0.930 . S
H270 C278 0.930 . S
H271 C279 0.930 . S
H272 C282 0.930 . S
H273 C283 0.930 . S
C274 H268 0.930 . S
C274 C275 1.355 . S
C274 C276 1.415 . S
C275 C274 1.355 . S
C275 C277 1.419 . S
C276 C274 1.415 . S
C276 C281 1.425 . S
C276 C283 1.409 . S
C277 H269 0.930 . S
C277 C275 1.419 . S
C277 C278 1.362 . S
C278 H270 0.930 . S
C278 C277 1.362 . S
C278 C281 1.409 . S
C279 H271 0.930 . S
C279 C280 1.355 . S
C279 C281 1.415 . S
C280 C279 1.355 . S
C280 C282 1.419 . S
C281 C276 1.425 . S
C281 C278 1.409 . S
C281 C279 1.415 . S
C282 H272 0.930 . S
C282 C280 1.419 . S
C282 C283 1.362 . S
C283 H273 0.930 . S
C283 C276 1.409 . S
C283 C282 1.362 . S
H284 C290 0.930 . S
H285 C293 0.930 . S
H286 C294 0.930 . S
H287 C295 0.930 . S
H288 C298 0.930 . S
H289 C299 0.930 . S
C290 H284 0.930 . S
C290 C291 1.355 . S
C290 C292 1.415 . S
C291 C290 1.355 . S
C291 C293 1.419 . S
C292 C290 1.415 . S
C292 C297 1.425 1_455 S
C292 C299 1.409 . S
C293 H285 0.930 . S
C293 C291 1.419 . S
C293 C294 1.362 1_455 S
C294 H286 0.930 . S
C294 C293 1.362 1_655 S
C294 C297 1.409 . S
C295 H287 0.930 . S
C295 C296 1.355 . S
C295 C297 1.415 . S
C296 C295 1.355 . S
C296 C298 1.419 1_655 S
C297 C292 1.425 1_655 S
C297 C294 1.409 . S
C297 C295 1.415 . S
C298 H288 0.930 . S
C298 C296 1.419 1_455 S
C298 C299 1.362 . S
C299 H289 0.930 . S
C299 C292 1.409 . S
C299 C298 1.362 . S
H300 C306 0.938 . S
H301 C309 0.930 . S
H302 C310 0.930 . S
H303 C311 0.930 . S
H304 C314 0.930 . S
H305 C315 0.930 . S
C306 H300 0.938 . S
C306 C307 1.324 1_565 S
C306 C308 1.438 . S
C307 C306 1.324 1_545 S
C307 C309 1.419 . S
C308 C306 1.438 . S
C308 C313 1.425 . S
C308 C315 1.409 . S
C309 H301 0.930 . S
C309 C307 1.419 . S
C309 C310 1.362 . S
C310 H302 0.930 . S
C310 C309 1.362 . S
C310 C313 1.409 1_545 S
C311 H303 0.930 . S
C311 C312 1.355 . S
C311 C313 1.415 . S
C312 C311 1.355 . S
C312 C314 1.419 . S
C313 C308 1.425 . S
C313 C310 1.409 1_565 S
C313 C311 1.415 . S
C314 H304 0.930 . S
C314 C312 1.419 . S
C314 C315 1.362 . S
C315 H305 0.930 . S
C315 C308 1.409 . S
C315 C314 1.362 . S
H316 C322 0.930 . S
H317 C325 0.930 . S
H318 C326 0.930 . S
H319 C327 0.930 . S
H320 C330 0.930 . S
H321 C331 0.930 . S
C322 H316 0.930 . S
C322 C323 1.355 . S
C322 C324 1.415 . S
C323 C322 1.355 . S
C323 C325 1.419 . S
C324 C322 1.415 . S
C324 C329 1.425 . S
C324 C331 1.409 . S
C325 H317 0.930 . S
C325 C323 1.419 . S
C325 C326 1.362 . S
C326 H318 0.930 . S
C326 C325 1.362 . S
C326 C329 1.409 . S
C327 H319 0.930 . S
C327 C328 1.355 . S
C327 C329 1.415 . S
C328 C327 1.355 . S
C328 C330 1.419 . S
C329 C324 1.425 . S
C329 C326 1.409 . S
C329 C327 1.415 . S
C330 H320 0.930 . S
C330 C328 1.419 . S
C330 C331 1.362 . S
C331 H321 0.930 . S
C331 C324 1.409 . S
C331 C330 1.362 . S
H332 C338 0.930 1_565 S
H333 C341 0.930 1_554 S
H334 C342 0.930 . S
H335 C343 0.930 . S
H336 C346 0.930 . S
H337 C347 0.930 . S
C338 H332 0.930 1_545 S
C338 C339 1.355 1_545 S
C338 C340 1.415 . S
C339 C338 1.355 1_565 S
C339 C341 1.419 . S
C340 C338 1.415 . S
C340 C345 1.425 . S
C340 C347 1.409 . S
C341 H333 0.930 1_556 S
C341 C339 1.419 . S
C341 C342 1.362 1_565 S
C342 H334 0.930 . S
C342 C341 1.362 1_545 S
C342 C345 1.409 . S
C343 H335 0.930 . S
C343 C344 1.355 . S
C343 C345 1.415 . S
C344 C343 1.355 . S
C344 C346 1.419 . S
C345 C340 1.425 . S
C345 C342 1.409 . S
C345 C343 1.415 . S
C346 H336 0.930 . S
C346 C344 1.419 . S
C346 C347 1.362 . S
C347 H337 0.930 . S
C347 C340 1.409 . S
C347 C346 1.362 . S
H348 C354 0.930 . S
H349 C357 0.930 . S
H350 C358 0.930 . S
H351 C359 0.930 . S
H352 C362 0.930 . S
H353 C363 0.930 . S
C354 H348 0.930 . S
C354 C355 1.355 . S
C354 C356 1.415 . S
C355 C354 1.355 . S
C355 C357 1.419 . S
C356 C354 1.415 . S
C356 C361 1.425 . S
C356 C363 1.409 . S
C357 H349 0.930 . S
C357 C355 1.419 . S
C357 C358 1.362 . S
C358 H350 0.930 . S
C358 C357 1.362 . S
C358 C361 1.409 . S
C359 H351 0.930 . S
C359 C360 1.355 . S
C359 C361 1.415 . S
C360 C359 1.355 . S
C360 C362 1.419 . S
C361 C356 1.425 . S
C361 C358 1.409 . S
C361 C359 1.415 . S
C362 H352 0.930 . S
C362 C360 1.419 . S
C362 C363 1.362 . S
C363 H353 0.930 . S
C363 C356 1.409 . S
C363 C362 1.362 . S
H364 C370 0.930 . S
H365 C373 0.930 . S
H366 C374 0.930 . S
H367 C375 0.930 . S
H368 C378 0.930 . S
H369 C379 0.930 . S
C370 H364 0.930 . S
C370 C371 1.355 . S
C370 C372 1.415 . S
C371 C370 1.355 . S
C371 C373 1.419 . S
C372 C370 1.415 . S
C372 C377 1.425 . S
C372 C379 1.409 . S
C373 H365 0.930 . S
C373 C371 1.419 . S
C373 C374 1.362 . S
C374 H366 0.930 . S
C374 C373 1.362 . S
C374 C377 1.409 . S
C375 H367 0.930 . S
C375 C376 1.355 . S
C375 C377 1.415 . S
C376 C375 1.355 . S
C376 C378 1.419 . S
C377 C372 1.425 . S
C377 C374 1.409 . S
C377 C375 1.415 . S
C378 H368 0.930 . S
C378 C376 1.419 . S
C378 C379 1.362 . S
C379 H369 0.930 . S
C379 C372 1.409 . S
C379 C378 1.362 . S
H380 C386 0.930 . S
H381 C389 0.930 1_455 S
H382 C390 0.930 . S
H383 C391 0.930 . S
H384 C394 0.930 . S
H385 C395 0.930 . S
C386 H380 0.930 . S
C386 C387 1.355 . S
C386 C388 1.415 . S
C387 C386 1.355 . S
C387 C389 1.419 . S
C388 C386 1.415 . S
C388 C393 1.425 . S
C388 C395 1.409 . S
C389 H381 0.930 1_655 S
C389 C387 1.419 . S
C389 C390 1.362 . S
C390 H382 0.930 . S
C390 C389 1.362 . S
C390 C393 1.409 . S
C391 H383 0.930 . S
C391 C392 1.355 . S
C391 C393 1.415 . S
C392 C391 1.355 . S
C392 C394 1.419 . S
C393 C388 1.425 . S
C393 C390 1.409 . S
C393 C391 1.415 . S
C394 H384 0.930 . S
C394 C392 1.419 . S
C394 C395 1.362 . S
C395 H385 0.930 . S
C395 C388 1.409 . S
C395 C394 1.362 . S
H396 C402 0.930 . S
H397 C405 0.930 . S
H398 C406 0.930 . S
H399 C407 0.930 . S
H400 C410 0.930 . S
H401 C411 0.930 . S
C402 H396 0.930 . S
C402 C403 1.355 . S
C402 C404 1.415 . S
C403 C402 1.355 . S
C403 C405 1.419 . S
C404 C402 1.415 . S
C404 C409 1.425 . S
C404 C411 1.409 . S
C405 H397 0.930 . S
C405 C403 1.419 . S
C405 C406 1.362 . S
C406 H398 0.930 . S
C406 C405 1.362 . S
C406 C409 1.409 . S
C407 H399 0.930 . S
C407 C408 1.355 . S
C407 C409 1.415 . S
C408 C407 1.355 . S
C408 C410 1.419 . S
C409 C404 1.425 . S
C409 C406 1.409 . S
C409 C407 1.415 . S
C410 H400 0.930 . S
C410 C408 1.419 . S
C410 C411 1.362 . S
C411 H401 0.930 . S
C411 C404 1.409 . S
C411 C410 1.362 . S
H412 C418 0.930 . S
H413 C421 0.929 1_655 S
H414 C422 0.930 . S
H415 C423 0.930 . S
H416 C426 0.930 . S
H417 C427 0.930 1_655 S
C418 H412 0.930 . S
C418 C419 1.355 . S
C418 C420 1.415 1_655 S
C419 C418 1.355 . S
C419 C421 1.419 1_655 S
C420 C418 1.415 1_455 S
C420 C425 1.425 . S
C420 C427 1.409 . S
C421 H413 0.929 1_455 S
C421 C419 1.419 1_455 S
C421 C422 1.362 . S
C422 H414 0.930 . S
C422 C421 1.362 . S
C422 C425 1.409 . S
C423 H415 0.930 . S
C423 C424 1.355 . S
C423 C425 1.415 . S
C424 C423 1.355 . S
C424 C426 1.419 . S
C425 C420 1.425 . S
C425 C422 1.409 . S
C425 C423 1.415 . S
C426 H416 0.930 . S
C426 C424 1.419 . S
C426 C427 1.362 . S
C427 H417 0.930 1_455 S
C427 C420 1.409 . S
C427 C426 1.362 . S
H428 C434 0.930 . S
H429 C437 0.930 . S
H430 C438 0.930 . S
H431 C439 0.930 . S
H432 C442 0.930 . S
H433 C443 0.930 . S
C434 H428 0.930 . S
C434 C435 1.355 . S
C434 C436 1.415 . S
C435 C434 1.355 . S
C435 C437 1.419 . S
C436 C434 1.415 . S
C436 C441 1.425 . S
C436 C443 1.409 . S
C437 H429 0.930 . S
C437 C435 1.419 . S
C437 C438 1.362 . S
C438 H430 0.930 . S
C438 C437 1.362 . S
C438 C441 1.409 . S
C439 H431 0.930 . S
C439 C440 1.355 . S
C439 C441 1.415 . S
C440 C439 1.355 . S
C440 C442 1.419 . S
C441 C436 1.425 . S
C441 C438 1.409 . S
C441 C439 1.415 . S
C442 H432 0.930 . S
C442 C440 1.419 . S
C442 C443 1.362 . S
C443 H433 0.930 . S
C443 C436 1.409 . S
C443 C442 1.362 . S
H444 C450 0.930 . S
H445 C453 0.930 . S
H446 C454 0.930 . S
H447 C455 0.930 . S
H448 C458 0.930 . S
H449 C459 0.930 . S
C450 H444 0.930 . S
C450 C451 1.355 . S
C450 C452 1.415 . S
C451 C450 1.355 . S
C451 C453 1.419 . S
C452 C450 1.415 . S
C452 C457 1.425 . S
C452 C459 1.409 . S
C453 H445 0.930 . S
C453 C451 1.419 . S
C453 C454 1.362 . S
C454 H446 0.930 . S
C454 C453 1.362 . S
C454 C457 1.409 . S
C455 H447 0.930 . S
C455 C456 1.355 . S
C455 C457 1.415 . S
C456 C455 1.355 . S
C456 C458 1.419 . S
C457 C452 1.425 . S
C457 C454 1.409 . S
C457 C455 1.415 . S
C458 H448 0.930 . S
C458 C456 1.419 . S
C458 C459 1.362 . S
C459 H449 0.930 . S
C459 C452 1.409 . S
C459 C458 1.362 . S
H460 C466 0.930 . S
H461 C469 0.930 . S
H462 C470 0.930 . S
H463 C471 0.930 . S
H464 C474 0.930 . S
H465 C475 0.930 . S
C466 H460 0.930 . S
C466 C467 1.355 . S
C466 C468 1.415 . S
C467 C466 1.355 . S
C467 C469 1.419 . S
C468 C466 1.415 . S
C468 C473 1.425 . S
C468 C475 1.409 . S
C469 H461 0.930 . S
C469 C467 1.419 . S
C469 C470 1.362 . S
C470 H462 0.930 . S
C470 C469 1.362 . S
C470 C473 1.409 . S
C471 H463 0.930 . S
C471 C472 1.355 . S
C471 C473 1.415 . S
C472 C471 1.355 . S
C472 C474 1.419 . S
C473 C468 1.425 . S
C473 C470 1.409 . S
C473 C471 1.415 . S
C474 H464 0.930 . S
C474 C472 1.419 . S
C474 C475 1.362 . S
C475 H465 0.930 . S
C475 C468 1.409 . S
C475 C474 1.362 . S
H476 C482 0.930 . S
H477 C485 0.930 . S
H478 C486 0.930 . S
H479 C487 0.930 . S
H480 C490 0.930 . S
H481 C491 0.930 . S
C482 H476 0.930 . S
C482 C483 1.355 . S
C482 C484 1.415 . S
C483 C482 1.355 . S
C483 C485 1.419 . S
C484 C482 1.415 . S
C484 C489 1.425 . S
C484 C491 1.409 . S
C485 H477 0.930 . S
C485 C483 1.419 . S
C485 C486 1.362 . S
C486 H478 0.930 . S
C486 C485 1.362 . S
C486 C489 1.409 . S
C487 H479 0.930 . S
C487 C488 1.355 . S
C487 C489 1.415 . S
C488 C487 1.355 . S
C488 C490 1.419 . S
C489 C484 1.425 . S
C489 C486 1.409 . S
C489 C487 1.415 . S
C490 H480 0.930 . S
C490 C488 1.419 . S
C490 C491 1.362 . S
C491 H481 0.930 . S
C491 C484 1.409 . S
C491 C490 1.362 . S
H492 C498 0.930 . S
H493 C501 0.930 . S
H494 C502 0.930 . S
H495 C503 0.930 . S
H496 C506 0.930 . S
H497 C507 0.930 . S
C498 H492 0.930 . S
C498 C499 1.355 . S
C498 C500 1.415 . S
C499 C498 1.355 . S
C499 C501 1.419 . S
C500 C498 1.415 . S
C500 C505 1.425 . S
C500 C507 1.409 . S
C501 H493 0.930 . S
C501 C499 1.419 . S
C501 C502 1.362 . S
C502 H494 0.930 . S
C502 C501 1.362 . S
C502 C505 1.409 . S
C503 H495 0.930 . S
C503 C504 1.355 . S
C503 C505 1.415 . S
C504 C503 1.355 . S
C504 C506 1.419 . S
C505 C500 1.425 . S
C505 C502 1.409 . S
C505 C503 1.415 . S
C506 H496 0.930 . S
C506 C504 1.419 . S
C506 C507 1.362 . S
C507 H497 0.930 . S
C507 C500 1.409 . S
C507 C506 1.362 . S
H508 C514 0.930 . S
H509 C517 0.930 . S
H510 C518 0.930 . S
H511 C519 0.930 . S
H512 C522 0.930 . S
H513 C523 0.930 . S
C514 H508 0.930 . S
C514 C515 1.355 . S
C514 C516 1.415 . S
C515 C514 1.355 . S
C515 C517 1.419 . S
C516 C514 1.415 . S
C516 C521 1.425 . S
C516 C523 1.409 . S
C517 H509 0.930 . S
C517 C515 1.419 . S
C517 C518 1.362 . S
C518 H510 0.930 . S
C518 C517 1.362 . S
C518 C521 1.409 . S
C519 H511 0.930 . S
C519 C520 1.355 . S
C519 C521 1.415 . S
C520 C519 1.355 . S
C520 C522 1.419 . S
C521 C516 1.425 . S
C521 C518 1.409 . S
C521 C519 1.415 . S
C522 H512 0.930 . S
C522 C520 1.419 . S
C522 C523 1.362 . S
C523 H513 0.930 . S
C523 C516 1.409 . S
C523 C522 1.362 . S
H524 C530 0.930 . S
H525 C533 0.930 . S
H526 C534 0.930 . S
H527 C535 0.930 . S
H528 C538 0.930 . S
H529 C539 0.930 . S
C530 H524 0.930 . S
C530 C531 1.355 . S
C530 C532 1.415 . S
C531 C530 1.355 . S
C531 C533 1.419 . S
C532 C530 1.415 . S
C532 C537 1.425 . S
C532 C539 1.409 . S
C533 H525 0.930 . S
C533 C531 1.419 . S
C533 C534 1.362 . S
C534 H526 0.930 . S
C534 C533 1.362 . S
C534 C537 1.409 . S
C535 H527 0.930 . S
C535 C536 1.355 . S
C535 C537 1.415 . S
C536 C535 1.355 . S
C536 C538 1.419 . S
C537 C532 1.425 . S
C537 C534 1.409 . S
C537 C535 1.415 . S
C538 H528 0.930 . S
C538 C536 1.419 . S
C538 C539 1.362 . S
C539 H529 0.930 . S
C539 C532 1.409 . S
C539 C538 1.362 . S
H540 C546 0.930 . S
H541 C549 0.930 1_554 S
H542 C550 0.930 . S
H543 C551 0.930 . S
H544 C554 0.930 . S
H545 C555 0.930 . S
C546 H540 0.930 . S
C546 C547 1.355 . S
C546 C548 1.415 . S
C547 C546 1.355 . S
C547 C549 1.419 . S
C548 C546 1.415 . S
C548 C553 1.425 . S
C548 C555 1.409 . S
C549 H541 0.930 1_556 S
C549 C547 1.419 . S
C549 C550 1.362 . S
C550 H542 0.930 . S
C550 C549 1.362 . S
C550 C553 1.409 . S
C551 H543 0.930 . S
C551 C552 1.355 . S
C551 C553 1.415 . S
C552 C551 1.355 . S
C552 C554 1.419 . S
C553 C548 1.425 . S
C553 C550 1.409 . S
C553 C551 1.415 . S
C554 H544 0.930 . S
C554 C552 1.419 . S
C554 C555 1.362 . S
C555 H545 0.930 . S
C555 C548 1.409 . S
C555 C554 1.362 . S
C179 C7 0.931 . S
C184 C93 0.846 . S
C195 C25 0.862 . S
C200 C104 0.989 . S
C211 C46 1.029 . S
C216 C112 0.971 . S
C232 C126 0.778 . S
C227 C70 0.844 . S
C248 C137 0.842 . S
C243 C28 0.830 . S
C259 C49 0.796 . S
C264 C148 0.916 . S
C275 C67 0.957 . S
C280 C156 0.912 . S
C291 C4 1.013 . S
C296 C170 1.024 . S
C307 C58 1.480 . S
C312 C167 1.613 . S
C328 C134 1.518 . S
C323 C66 1.396 . S
C344 C145 1.616 . S
C339 C3 1.578 . S
C355 C37 1.635 . S
C360 C159 1.736 . S
C376 C101 1.610 . S
C371 C79 1.479 . S
C387 C16 1.648 1_655 S
C392 C115 1.712 . S
C408 C123 1.651 . S
C403 C24 1.622 . S
C424 C90 1.548 . S
C419 C45 1.486 . S
C440 N154 1.447 . S
C435 C19 1.340 . S
C456 N165 1.485 . S
C451 C41 1.306 . S
C467 C62 1.206 . S
C472 N132 1.372 . S
C488 N143 1.327 . S
C483 C82 1.139 . S
C504 N110 1.444 . S
C499 C40 1.294 . S
C515 C61 1.138 . S
C520 N121 1.323 . S
C536 N88 1.370 . S
C531 C83 1.287 . S
C552 N99 1.470 . S
C547 C20 1.392 . S
