# Generated by pormake.
# Topology tbo, (3,4)-cn, num edge types: 1
# Building blocks:
#     Node 0, Type 0, BuildingBlock: ESEHIV_clean_linker_0, # of connection points: 3
#     Node 1, Type 0, BuildingBlock: ESEHIV_clean_linker_0, # of connection points: 3
#     Node 2, Type 0, BuildingBlock: ESEHIV_clean_linker_0, # of connection points: 3
#     Node 3, Type 0, BuildingBlock: ESEHIV_clean_linker_0, # of connection points: 3
#     Node 4, Type 0, BuildingBlock: ESEHIV_clean_linker_0, # of connection points: 3
#     Node 5, Type 0, BuildingBlock: ESEHIV_clean_linker_0, # of connection points: 3
#     Node 6, Type 0, BuildingBlock: ESEHIV_clean_linker_0, # of connection points: 3
#     Node 7, Type 0, BuildingBlock: ESEHIV_clean_linker_0, # of connection points: 3
#     Node 8, Type 0, BuildingBlock: ESEHIV_clean_linker_0, # of connection points: 3
#     Node 9, Type 0, BuildingBlock: ESEHIV_clean_linker_0, # of connection points: 3
#     Node 10, Type 0, BuildingBlock: ESEHIV_clean_linker_0, # of connection points: 3
#     Node 11, Type 0, BuildingBlock: ESEHIV_clean_linker_0, # of connection points: 3
#     Node 12, Type 0, BuildingBlock: ESEHIV_clean_linker_0, # of connection points: 3
#     Node 13, Type 0, BuildingBlock: ESEHIV_clean_linker_0, # of connection points: 3
#     Node 14, Type 0, BuildingBlock: ESEHIV_clean_linker_0, # of connection points: 3
#     Node 15, Type 0, BuildingBlock: ESEHIV_clean_linker_0, # of connection points: 3
#     Node 16, Type 0, BuildingBlock: ESEHIV_clean_linker_0, # of connection points: 3
#     Node 17, Type 0, BuildingBlock: ESEHIV_clean_linker_0, # of connection points: 3
#     Node 18, Type 0, BuildingBlock: ESEHIV_clean_linker_0, # of connection points: 3
#     Node 19, Type 0, BuildingBlock: ESEHIV_clean_linker_0, # of connection points: 3
#     Node 20, Type 0, BuildingBlock: ESEHIV_clean_linker_0, # of connection points: 3
#     Node 21, Type 0, BuildingBlock: ESEHIV_clean_linker_0, # of connection points: 3
#     Node 22, Type 0, BuildingBlock: ESEHIV_clean_linker_0, # of connection points: 3
#     Node 23, Type 0, BuildingBlock: ESEHIV_clean_linker_0, # of connection points: 3
#     Node 24, Type 0, BuildingBlock: ESEHIV_clean_linker_0, # of connection points: 3
#     Node 25, Type 0, BuildingBlock: ESEHIV_clean_linker_0, # of connection points: 3
#     Node 26, Type 0, BuildingBlock: ESEHIV_clean_linker_0, # of connection points: 3
#     Node 27, Type 0, BuildingBlock: ESEHIV_clean_linker_0, # of connection points: 3
#     Node 28, Type 0, BuildingBlock: ESEHIV_clean_linker_0, # of connection points: 3
#     Node 29, Type 0, BuildingBlock: ESEHIV_clean_linker_0, # of connection points: 3
#     Node 30, Type 0, BuildingBlock: ESEHIV_clean_linker_0, # of connection points: 3
#     Node 31, Type 0, BuildingBlock: ESEHIV_clean_linker_0, # of connection points: 3
#     Node 32, Type 1, BuildingBlock: ESEHIV_clean_sbu_0, # of connection points: 4
#     Node 33, Type 1, BuildingBlock: ESEHIV_clean_sbu_0, # of connection points: 4
#     Node 34, Type 1, BuildingBlock: ESEHIV_clean_sbu_0, # of connection points: 4
#     Node 35, Type 1, BuildingBlock: ESEHIV_clean_sbu_0, # of connection points: 4
#     Node 36, Type 1, BuildingBlock: ESEHIV_clean_sbu_0, # of connection points: 4
#     Node 37, Type 1, BuildingBlock: ESEHIV_clean_sbu_0, # of connection points: 4
#     Node 38, Type 1, BuildingBlock: ESEHIV_clean_sbu_0, # of connection points: 4
#     Node 39, Type 1, BuildingBlock: ESEHIV_clean_sbu_0, # of connection points: 4
#     Node 40, Type 1, BuildingBlock: ESEHIV_clean_sbu_0, # of connection points: 4
#     Node 41, Type 1, BuildingBlock: ESEHIV_clean_sbu_0, # of connection points: 4
#     Node 42, Type 1, BuildingBlock: ESEHIV_clean_sbu_0, # of connection points: 4
#     Node 43, Type 1, BuildingBlock: ESEHIV_clean_sbu_0, # of connection points: 4
#     Node 44, Type 1, BuildingBlock: ESEHIV_clean_sbu_0, # of connection points: 4
#     Node 45, Type 1, BuildingBlock: ESEHIV_clean_sbu_0, # of connection points: 4
#     Node 46, Type 1, BuildingBlock: ESEHIV_clean_sbu_0, # of connection points: 4
#     Node 47, Type 1, BuildingBlock: ESEHIV_clean_sbu_0, # of connection points: 4
#     Node 48, Type 1, BuildingBlock: ESEHIV_clean_sbu_0, # of connection points: 4
#     Node 49, Type 1, BuildingBlock: ESEHIV_clean_sbu_0, # of connection points: 4
#     Node 50, Type 1, BuildingBlock: ESEHIV_clean_sbu_0, # of connection points: 4
#     Node 51, Type 1, BuildingBlock: ESEHIV_clean_sbu_0, # of connection points: 4
#     Node 52, Type 1, BuildingBlock: ESEHIV_clean_sbu_0, # of connection points: 4
#     Node 53, Type 1, BuildingBlock: ESEHIV_clean_sbu_0, # of connection points: 4
#     Node 54, Type 1, BuildingBlock: ESEHIV_clean_sbu_0, # of connection points: 4
#     Node 55, Type 1, BuildingBlock: ESEHIV_clean_sbu_0, # of connection points: 4
#     Edge 56, Type (0, 1), None
#     Edge 57, Type (0, 1), None
#     Edge 58, Type (0, 1), None
#     Edge 59, Type (0, 1), None
#     Edge 60, Type (0, 1), None
#     Edge 61, Type (0, 1), None
#     Edge 62, Type (0, 1), None
#     Edge 63, Type (0, 1), None
#     Edge 64, Type (0, 1), None
#     Edge 65, Type (0, 1), None
#     Edge 66, Type (0, 1), None
#     Edge 67, Type (0, 1), None
#     Edge 68, Type (0, 1), None
#     Edge 69, Type (0, 1), None
#     Edge 70, Type (0, 1), None
#     Edge 71, Type (0, 1), None
#     Edge 72, Type (0, 1), None
#     Edge 73, Type (0, 1), None
#     Edge 74, Type (0, 1), None
#     Edge 75, Type (0, 1), None
#     Edge 76, Type (0, 1), None
#     Edge 77, Type (0, 1), None
#     Edge 78, Type (0, 1), None
#     Edge 79, Type (0, 1), None
#     Edge 80, Type (0, 1), None
#     Edge 81, Type (0, 1), None
#     Edge 82, Type (0, 1), None
#     Edge 83, Type (0, 1), None
#     Edge 84, Type (0, 1), None
#     Edge 85, Type (0, 1), None
#     Edge 86, Type (0, 1), None
#     Edge 87, Type (0, 1), None
#     Edge 88, Type (0, 1), None
#     Edge 89, Type (0, 1), None
#     Edge 90, Type (0, 1), None
#     Edge 91, Type (0, 1), None
#     Edge 92, Type (0, 1), None
#     Edge 93, Type (0, 1), None
#     Edge 94, Type (0, 1), None
#     Edge 95, Type (0, 1), None
#     Edge 96, Type (0, 1), None
#     Edge 97, Type (0, 1), None
#     Edge 98, Type (0, 1), None
#     Edge 99, Type (0, 1), None
#     Edge 100, Type (0, 1), None
#     Edge 101, Type (0, 1), None
#     Edge 102, Type (0, 1), None
#     Edge 103, Type (0, 1), None
#     Edge 104, Type (0, 1), None
#     Edge 105, Type (0, 1), None
#     Edge 106, Type (0, 1), None
#     Edge 107, Type (0, 1), None
#     Edge 108, Type (0, 1), None
#     Edge 109, Type (0, 1), None
#     Edge 110, Type (0, 1), None
#     Edge 111, Type (0, 1), None
#     Edge 112, Type (0, 1), None
#     Edge 113, Type (0, 1), None
#     Edge 114, Type (0, 1), None
#     Edge 115, Type (0, 1), None
#     Edge 116, Type (0, 1), None
#     Edge 117, Type (0, 1), None
#     Edge 118, Type (0, 1), None
#     Edge 119, Type (0, 1), None
#     Edge 120, Type (0, 1), None
#     Edge 121, Type (0, 1), None
#     Edge 122, Type (0, 1), None
#     Edge 123, Type (0, 1), None
#     Edge 124, Type (0, 1), None
#     Edge 125, Type (0, 1), None
#     Edge 126, Type (0, 1), None
#     Edge 127, Type (0, 1), None
#     Edge 128, Type (0, 1), None
#     Edge 129, Type (0, 1), None
#     Edge 130, Type (0, 1), None
#     Edge 131, Type (0, 1), None
#     Edge 132, Type (0, 1), None
#     Edge 133, Type (0, 1), None
#     Edge 134, Type (0, 1), None
#     Edge 135, Type (0, 1), None
#     Edge 136, Type (0, 1), None
#     Edge 137, Type (0, 1), None
#     Edge 138, Type (0, 1), None
#     Edge 139, Type (0, 1), None
#     Edge 140, Type (0, 1), None
#     Edge 141, Type (0, 1), None
#     Edge 142, Type (0, 1), None
#     Edge 143, Type (0, 1), None
#     Edge 144, Type (0, 1), None
#     Edge 145, Type (0, 1), None
#     Edge 146, Type (0, 1), None
#     Edge 147, Type (0, 1), None
#     Edge 148, Type (0, 1), None
#     Edge 149, Type (0, 1), None
#     Edge 150, Type (0, 1), None
#     Edge 151, Type (0, 1), None
# Relax obj value: 0.013
# Max RMSD: 0.158
# Mean RMSD: 0.061
data_MOF--net-tbo--node1-ESEHIV_clean_sbu_0--node2-ESEHIV_clean_linker_0--edge1-none
_symmetry_space_group_name_H-M    P1
_symmetry_Int_Tables_number       1
_symmetry_cell_setting            triclinic
loop_
_symmetry_equiv_pos_as_xyz
'x, y, z'
_cell_length_a     28.654812
_cell_length_b     28.72733
_cell_length_c     29.004308
_cell_angle_alpha  90.140394
_cell_angle_beta   95.757973
_cell_angle_gamma 91.361856
loop_
_atom_site_label
_atom_site_type_symbol
_atom_site_fract_x
_atom_site_fract_y
_atom_site_fract_z
_atom_type_partial_charge
H0 H 0.17401 0.23122 0.19757 0.0
H1 H 0.25208 0.12594 0.13661 0.0
H2 H 0.20463 0.10331 0.27065 0.0
C3 C 0.1893 0.19728 0.19977 0.0
C4 C 0.18591 0.16947 0.23946 0.0
C5 C 0.21365 0.18243 0.16292 0.0
C6 C 0.23367 0.13813 0.16502 0.0
C7 C 0.23056 0.10971 0.20381 0.0
C8 C 0.20683 0.12551 0.2409 0.0
H9 H 0.95662 0.17556 0.29315 0.0
H10 H 0.96862 0.29515 0.20833 0.0
H11 H 0.8491 0.19943 0.18153 0.0
C12 C 0.94299 0.1961 0.26386 0.0
C13 C 0.9007 0.18117 0.2386 0.0
C14 C 0.96776 0.23688 0.2531 0.0
C15 C 0.94921 0.26379 0.216 0.0
C16 C 0.90604 0.25144 0.18966 0.0
C17 C 0.88174 0.20973 0.20136 0.0
H18 H 0.76617 0.93756 0.13248 0.0
H19 H 0.89347 0.86631 0.10915 0.0
H20 H 0.89321 0.96401 0.22098 0.0
C21 C 0.8034 0.93234 0.14055 0.0
C22 C 0.82688 0.95495 0.17967 0.0
C23 C 0.82735 0.90059 0.11389 0.0
C24 C 0.87514 0.89154 0.12796 0.0
C25 C 0.89932 0.91482 0.16657 0.0
C26 C 0.87505 0.94721 0.19061 0.0
H27 H 0.10071 0.86693 0.20618 0.0
H28 H 0.24409 0.89661 0.18266 0.0
H29 H 0.16975 0.7815 0.11319 0.0
C30 C 0.1317 0.85787 0.19029 0.0
C31 C 0.13015 0.81948 0.1593 0.0
C32 C 0.17372 0.88484 0.20048 0.0
C33 C 0.21295 0.87478 0.17667 0.0
C34 C 0.21222 0.83822 0.14442 0.0
C35 C 0.17088 0.81038 0.13714 0.0
H36 H 0.2005 0.89437 0.79699 0.0
H37 H 0.17117 0.78953 0.89842 0.0
H38 H 0.29571 0.87426 0.91945 0.0
C39 C 0.21005 0.87625 0.82911 0.0
C40 C 0.2529 0.88826 0.85609 0.0
C41 C 0.18026 0.83978 0.84359 0.0
C42 C 0.19367 0.81641 0.88569 0.0
C43 C 0.23491 0.82906 0.913 0.0
C44 C 0.26415 0.86426 0.89761 0.0
H45 H 0.27639 0.24816 0.98543 0.0
H46 H 0.3489 0.12719 0.94922 0.0
H47 H 0.24176 0.18143 0.85165 0.0
C48 C 0.28243 0.22182 0.96041 0.0
C49 C 0.25477 0.22028 0.91669 0.0
C50 C 0.31755 0.18918 0.97213 0.0
C51 C 0.32257 0.15291 0.94028 0.0
C52 C 0.29554 0.14888 0.897 0.0
C53 C 0.26168 0.18314 0.88534 0.0
H54 H 0.88193 0.24466 0.93794 0.0
H55 H 0.97871 0.21564 0.83678 0.0
H56 H 1.01836 0.30839 0.95113 0.0
C57 C 0.91581 0.2489 0.92533 0.0
C58 C 0.94875 0.27985 0.94928 0.0
C59 C 0.92586 0.22435 0.885 0.0
C60 C 0.97016 0.23258 0.86805 0.0
C61 C 1.00374 0.26314 0.89152 0.0
C62 C 0.99264 0.2855 0.93238 0.0
H63 H 0.80931 0.97346 0.85226 0.0
H64 H 0.87115 0.83973 0.85418 0.0
H65 H 0.93773 0.95468 0.7887 0.0
C66 C 0.83657 0.9512 0.8422 0.0
C67 C 0.87253 0.97003 0.81718 0.0
C68 C 0.83646 0.90468 0.85662 0.0
C69 C 0.87197 0.87599 0.84428 0.0
C70 C 0.9092 0.89315 0.82068 0.0
C71 C 0.90887 0.94047 0.80604 0.0
H72 H 0.153 0.74705 0.62704 0.0
H73 H 0.24414 0.63591 0.59993 0.0
H74 H 0.15965 0.62362 0.71229 0.0
C75 C 0.16538 0.71231 0.63439 0.0
C76 C 0.1484 0.68572 0.67084 0.0
C77 C 0.20074 0.69478 0.60921 0.0
C78 C 0.21668 0.64963 0.61876 0.0
C79 C 0.20408 0.62498 0.65703 0.0
C80 C 0.16892 0.64252 0.68218 0.0
H81 H 0.98173 0.7597 0.72571 0.0
H82 H 0.92934 0.82649 0.59962 0.0
H83 H 0.84491 0.72107 0.65665 0.0
C84 C 0.95489 0.76358 0.69742 0.0
C85 C 0.91354 0.73398 0.69492 0.0
C86 C 0.96135 0.79747 0.66278 0.0
C87 C 0.92519 0.80125 0.62664 0.0
C88 C 0.88288 0.77533 0.62427 0.0
C89 C 0.87761 0.74087 0.65797 0.0
H90 H 0.85625 0.45229 0.68661 0.0
H91 H 0.97327 0.36155 0.71681 0.0
H92 H 0.96476 0.48458 0.79732 0.0
C93 C 0.88872 0.44377 0.70677 0.0
C94 C 0.90803 0.47497 0.7422 0.0
C95 C 0.91169 0.40151 0.69784 0.0
C96 C 0.95417 0.39186 0.72484 0.0
C97 C 0.97333 0.42104 0.76123 0.0
C98 C 0.95005 0.46235 0.76914 0.0
H99 H 0.17219 0.41965 0.79771 0.0
H100 H 0.3012 0.46073 0.74347 0.0
H101 H 0.21744 0.34279 0.68625 0.0
C102 C 0.1985 0.41476 0.77404 0.0
C103 C 0.19134 0.37794 0.74219 0.0
C104 C 0.2382 0.44515 0.77589 0.0
C105 C 0.27101 0.43793 0.74312 0.0
C106 C 0.26474 0.40062 0.71014 0.0
C107 C 0.22438 0.37105 0.71071 0.0
H108 H 0.20947 0.40919 0.3475 0.0
H109 H 0.21662 0.3089 0.45955 0.0
H110 H 0.30842 0.42885 0.46751 0.0
C111 C 0.2246 0.39761 0.3811 0.0
C112 C 0.26112 0.42447 0.40591 0.0
C113 C 0.20758 0.35582 0.40022 0.0
C114 C 0.2283 0.34098 0.44434 0.0
C115 C 0.2644 0.36703 0.4692 0.0
C116 C 0.27985 0.40871 0.44947 0.0
H117 H 0.20741 0.7603 0.3835 0.0
H118 H 0.28056 0.63571 0.35747 0.0
H119 H 0.18669 0.69546 0.24914 0.0
C120 C 0.21454 0.73238 0.3604 0.0
C121 C 0.19199 0.73169 0.31515 0.0
C122 C 0.24644 0.69802 0.37624 0.0
C123 C 0.25562 0.66191 0.34573 0.0
C124 C 0.23399 0.66049 0.29972 0.0
C125 C 0.20246 0.69571 0.28468 0.0
H126 H 0.83469 0.70208 0.38187 0.0
H127 H 0.9335 0.69607 0.279 0.0
H128 H 0.93249 0.8161 0.36625 0.0
C129 C 0.86331 0.71769 0.36522 0.0
C130 C 0.88078 0.763 0.37878 0.0
C131 C 0.88225 0.69282 0.32929 0.0
C132 C 0.91884 0.71413 0.30682 0.0
C133 C 0.93693 0.75862 0.31961 0.0
C134 C 0.91796 0.7822 0.35585 0.0
H135 H 0.8403 0.42849 0.42327 0.0
H136 H 0.94386 0.33051 0.4761 0.0
H137 H 0.9675 0.40959 0.35705 0.0
C138 C 0.87389 0.41247 0.42169 0.0
C139 C 0.90229 0.42412 0.38537 0.0
C140 C 0.88871 0.37849 0.45507 0.0
C141 C 0.93202 0.357 0.45163 0.0
C142 C 0.95959 0.36635 0.41581 0.0
C143 C 0.94504 0.40079 0.38357 0.0
H144 H 0.69601 0.28858 0.67688 0.0
H145 H 0.81169 0.22551 0.61985 0.0
H146 H 0.786 0.19606 0.75994 0.0
C147 C 0.72642 0.26691 0.6816 0.0
C148 C 0.73727 0.24281 0.72366 0.0
C149 C 0.75322 0.26169 0.64416 0.0
C150 C 0.7915 0.23107 0.64878 0.0
C151 C 0.80351 0.20742 0.69081 0.0
C152 C 0.77618 0.21366 0.72769 0.0
H153 H 0.49796 0.19109 0.79393 0.0
H154 H 0.4842 0.30253 0.69589 0.0
H155 H 0.38039 0.18999 0.68963 0.0
C156 C 0.47913 0.20708 0.76412 0.0
C157 C 0.43758 0.18499 0.74401 0.0
C158 C 0.49679 0.24938 0.74715 0.0
C159 C 0.47073 0.27031 0.70934 0.0
C160 C 0.4283 0.24903 0.68805 0.0
C161 C 0.4121 0.20663 0.70599 0.0
H162 H 0.28949 0.92146 0.6542 0.0
H163 H 0.41788 0.85988 0.70784 0.0
H164 H 0.38342 0.99414 0.75719 0.0
C165 C 0.32139 0.92289 0.67752 0.0
C166 C 0.33142 0.96289 0.70618 0.0
C167 C 0.35227 0.8853 0.67766 0.0
C168 C 0.39288 0.88724 0.70865 0.0
C169 C 0.40401 0.92507 0.73879 0.0
C170 C 0.37365 0.9637 0.73647 0.0
H171 H 0.65879 0.96798 0.75429 0.0
H172 H 0.74966 0.98037 0.64722 0.0
H173 H 0.66113 0.8571 0.65346 0.0
C174 C 0.67119 0.95371 0.72324 0.0
C175 C 0.65514 0.90932 0.70684 0.0
C176 C 0.7057 0.97885 0.70268 0.0
C177 C 0.72272 0.9608 0.66293 0.0
C178 C 0.70644 0.91761 0.64374 0.0
C179 C 0.67271 0.89125 0.66644 0.0
H180 H 0.65449 0.89362 0.29778 0.0
H181 H 0.62706 0.78792 0.39813 0.0
H182 H 0.7384 0.88649 0.43045 0.0
C183 C 0.66297 0.87777 0.33127 0.0
C184 C 0.70151 0.89565 0.36185 0.0
C185 C 0.63608 0.83824 0.3438 0.0
C186 C 0.64777 0.81722 0.38721 0.0
C187 C 0.68465 0.83415 0.41795 0.0
C188 C 0.71102 0.8732 0.40531 0.0
H189 H 0.68073 0.26667 0.40846 0.0
H190 H 0.78022 0.15766 0.40088 0.0
H191 H 0.66468 0.16544 0.29651 0.0
C192 C 0.69268 0.23623 0.39147 0.0
C193 C 0.6673 0.21951 0.34992 0.0
C194 C 0.73357 0.21334 0.41078 0.0
C195 C 0.74826 0.17414 0.38734 0.0
C196 C 0.72363 0.15631 0.34635 0.0
C197 C 0.68338 0.17923 0.3281 0.0
H198 H 0.32985 0.18843 0.44418 0.0
H199 H 0.38377 0.14891 0.31659 0.0
H200 H 0.45141 0.25916 0.39888 0.0
C201 C 0.35549 0.193 0.41958 0.0
C202 C 0.39138 0.22829 0.4271 0.0
C203 C 0.35267 0.16328 0.38002 0.0
C204 C 0.38581 0.17006 0.34763 0.0
C205 C 0.42166 0.20412 0.35428 0.0
C206 C 0.42411 0.23264 0.39408 0.0
H207 H 0.28687 0.91067 0.42671 0.0
H208 H 0.38306 0.80002 0.42891 0.0
H209 H 0.37263 0.89504 0.31348 0.0
C210 C 0.31314 0.89235 0.40983 0.0
C211 C 0.32775 0.90824 0.3675 0.0
C212 C 0.33326 0.85382 0.43186 0.0
C213 C 0.36774 0.8297 0.41098 0.0
C214 C 0.38249 0.84319 0.36797 0.0
C215 C 0.36227 0.88338 0.34646 0.0
H216 H 0.61509 0.74748 0.12421 0.0
H217 H 0.74318 0.67639 0.10944 0.0
H218 H 0.65822 0.63855 0.21824 0.0
C219 C 0.63992 0.72099 0.13502 0.0
C220 C 0.63183 0.69351 0.17366 0.0
C221 C 0.67992 0.71536 0.11121 0.0
C222 C 0.71212 0.68089 0.1269 0.0
C223 C 0.70542 0.65316 0.16591 0.0
C224 C 0.66435 0.65928 0.18832 0.0
H225 H 0.43623 0.74084 0.23838 0.0
H226 H 0.40849 0.77008 0.09294 0.0
H227 H 0.35425 0.64406 0.14654 0.0
C228 C 0.42094 0.73085 0.20435 0.0
C229 C 0.39531 0.68769 0.19794 0.0
C230 C 0.42555 0.76158 0.16684 0.0
C231 C 0.40503 0.74764 0.12249 0.0
C232 C 0.37942 0.70558 0.11512 0.0
C233 C 0.3745 0.67605 0.15282 0.0
H234 H 0.32084 0.42498 0.18491 0.0
H235 H 0.4206 0.3157 0.18526 0.0
H236 H 0.44456 0.42772 0.28372 0.0
C237 C 0.35301 0.40934 0.19951 0.0
C238 C 0.38013 0.4316 0.23695 0.0
C239 C 0.36754 0.36735 0.18051 0.0
C240 C 0.40944 0.34787 0.19987 0.0
C241 C 0.43775 0.3693 0.23698 0.0
C242 C 0.42255 0.41087 0.2557 0.0
H243 H 0.65747 0.44092 0.28112 0.0
H244 H 0.7929 0.48899 0.24546 0.0
H245 H 0.72144 0.37101 0.17579 0.0
C246 C 0.68723 0.4378 0.26131 0.0
C247 C 0.68611 0.40146 0.22875 0.0
C248 C 0.72557 0.46978 0.26914 0.0
C249 C 0.7633 0.46524 0.24103 0.0
C250 C 0.76271 0.42871 0.20735 0.0
C251 C 0.72327 0.39824 0.20152 0.0
H252 H 0.72599 0.44823 0.84487 0.0
H253 H 0.7304 0.34919 0.95802 0.0
H254 H 0.83038 0.46193 0.96202 0.0
C255 C 0.74131 0.43624 0.87824 0.0
C256 C 0.78033 0.46125 0.90191 0.0
C257 C 0.72247 0.39537 0.89811 0.0
C258 C 0.7436 0.38014 0.94192 0.0
C259 C 0.78227 0.4037 0.96535 0.0
C260 C 0.79983 0.44403 0.94484 0.0
H261 H 0.72873 0.77168 0.92941 0.0
H262 H 0.81613 0.67433 0.86747 0.0
H263 H 0.6908 0.71949 0.79029 0.0
C264 C 0.73578 0.75025 0.90049 0.0
C265 C 0.7042 0.74952 0.85946 0.0
C266 C 0.77662 0.72355 0.9041 0.0
C267 C 0.78451 0.6944 0.86618 0.0
C268 C 0.7535 0.69217 0.82536 0.0
C269 C 0.71391 0.72039 0.82215 0.0
H270 H 0.35411 0.67929 0.86924 0.0
H271 H 0.44961 0.67739 0.76331 0.0
H272 H 0.46484 0.78381 0.86728 0.0
C273 C 0.38356 0.69459 0.85368 0.0
C274 C 0.40687 0.73525 0.87356 0.0
C275 C 0.39823 0.67333 0.81354 0.0
C276 C 0.4367 0.69361 0.79317 0.0
C277 C 0.4602 0.73368 0.81213 0.0
C278 C 0.44511 0.75406 0.85202 0.0
H279 H 0.34767 0.4106 0.88693 0.0
H280 H 0.44496 0.31565 0.95491 0.0
H281 H 0.48233 0.39374 0.8373 0.0
C282 C 0.38194 0.39542 0.89 0.0
C283 C 0.41458 0.40781 0.85877 0.0
C284 C 0.3924 0.36287 0.9251 0.0
C285 C 0.43587 0.34059 0.9278 0.0
C286 C 0.46867 0.35142 0.89635 0.0
C287 C 0.45761 0.38518 0.86192 0.0
Cu288 Cu 0.32254 0.27829 0.06444 0.0
N289 N 0.32467 0.31922 1.01546 0.0
N290 N 0.35921 0.3535 0.9584 0.0
C291 C 0.35646 0.31522 0.98469 0.0
C292 C 0.32755 0.38283 0.97322 0.0
C293 C 0.30666 0.36174 1.00892 0.0
O294 O 0.35384 0.22218 0.04774 0.0
C295 C 0.34001 0.34428 0.13973 0.0
O296 O 0.29932 0.36081 0.12346 0.0
H297 H 0.37869 0.28547 0.98323 0.0
H298 H 0.28201 0.37715 0.03 0.0
N299 N 0.26487 0.2571 0.0808 0.0
N300 N 0.22209 0.21396 0.12575 0.0
C301 C 0.26296 0.21867 0.10691 0.0
C302 C 0.22338 0.27762 0.08231 0.0
C303 C 0.19676 0.25092 0.11014 0.0
C304 C 0.35116 0.19073 1.016 0.0
O305 O 0.38183 0.15743 1.02215 0.0
H306 H 0.2931 0.19727 0.11587 0.0
H307 H 0.21466 0.31123 0.06755 0.0
O308 O 0.35587 0.30902 0.11964 0.0
H309 H 0.32185 0.41804 0.96113 0.0
H310 H 0.16271 0.25963 0.12035 0.0
Cu311 Cu 0.84674 0.33615 0.08265 0.0
N312 N 0.84112 0.38534 0.12594 0.0
N313 N 0.8013 0.42074 0.17921 0.0
C314 C 0.80863 0.38078 0.1562 0.0
C315 C 0.83233 0.4517 0.16385 0.0
C316 C 0.8568 0.42989 0.13101 0.0
O317 O 0.85166 0.27981 0.12347 0.0
C318 C 0.8069 0.38701 1.0104 0.0
O319 O 0.84269 0.41229 0.029 0.0
H320 H 0.7893 0.3484 0.15953 0.0
H321 H 0.88208 0.44627 0.11056 0.0
N322 N 0.89939 0.33228 0.04872 0.0
N323 N 0.93769 0.30632 0.98977 0.0
C324 C 0.90116 0.2995 1.01541 0.0
C325 C 0.93627 0.36112 0.04451 0.0
C326 C 0.95993 0.34521 1.00842 0.0
C327 C 0.88922 0.28459 0.15145 0.0
O328 O 0.91499 0.32241 0.14671 0.0
H329 H 0.87485 0.27198 1.0094 0.0
H330 H 0.94403 0.39265 0.06455 0.0
O331 O 0.79769 0.34838 0.03047 0.0
H332 H 0.83513 0.4881 0.17327 0.0
H333 H 0.98997 0.3626 0.99575 0.0
Cu334 Cu 0.783 0.80952 0.9989 0.0
N335 N 0.77704 0.84899 0.94746 0.0
N336 N 0.80363 0.88745 0.8878 0.0
C337 C 0.81272 0.85534 0.92119 0.0
C338 C 0.76002 0.90205 0.89332 0.0
C339 C 0.74361 0.87813 0.9302 0.0
O340 O 0.81483 0.75391 0.9797 0.0
C341 C 0.80141 0.87563 0.07306 0.0
O342 O 0.75771 0.88622 0.06013 0.0
H343 H 0.84579 0.83796 0.92803 0.0
H344 H 0.71033 0.88259 0.94401 0.0
N345 N 0.72879 0.78734 1.02333 0.0
N346 N 0.68915 0.7461 0.07315 0.0
C347 C 0.7306 0.75344 0.05543 0.0
C348 C 0.68466 0.8026 1.02042 0.0
C349 C 0.66003 0.77699 0.0507 0.0
C350 C 0.81189 0.72389 0.94643 0.0
O351 O 0.8432 0.69105 0.94959 0.0
H352 H 0.76288 0.73647 0.06719 0.0
H353 H 0.67184 0.83154 0.99946 0.0
O354 O 0.82011 0.84359 0.05066 0.0
H355 H 0.74158 0.9285 0.87272 0.0
H356 H 0.62376 0.78197 0.0564 0.0
Cu357 Cu 0.30752 0.7597 1.01748 0.0
N358 N 0.29678 0.80065 0.06586 0.0
N359 N 0.25249 0.83026 0.11838 0.0
C360 C 0.25681 0.79644 0.0866 0.0
C361 C 0.29249 0.85647 0.11778 0.0
C362 C 0.31965 0.83815 0.08548 0.0
O363 O 0.31833 0.7021 0.05272 0.0
C364 C 0.24648 0.81137 0.96059 0.0
O365 O 0.26249 0.84269 0.9915 0.0
H366 H 0.23094 0.76928 0.07703 0.0
H367 H 0.35274 0.85203 0.07599 0.0
N368 N 0.35762 0.76886 0.98081 0.0
N369 N 0.39316 0.75673 0.91581 0.0
C370 C 0.36434 0.73896 0.94598 0.0
C371 C 0.38254 0.80749 0.97221 0.0
C372 C 0.40475 0.80001 0.93263 0.0
C373 C 0.36065 0.69212 0.06704 0.0
O374 O 0.39148 0.69175 0.03652 0.0
H375 H 0.34635 0.70547 0.94193 0.0
H376 H 0.38191 0.83987 0.99121 0.0
O377 O 0.25533 0.76843 0.96873 0.0
H378 H 0.30143 0.88761 0.13805 0.0
H379 H 0.42567 0.82578 0.91629 0.0
Cu380 Cu 0.09061 0.29 0.32707 0.0
N381 N 0.12196 0.2341 0.32013 0.0
N382 N 0.16167 0.1862 0.27775 0.0
C383 C 0.14779 0.23014 0.2842 0.0
C384 C 0.14444 0.16151 0.31224 0.0
C385 C 0.11986 0.19115 0.33833 0.0
O386 O 0.14221 0.33748 0.33973 0.0
C387 C 1.01188 0.25051 0.28293 0.0
O388 O 1.02244 0.22577 0.32038 0.0
H389 H 0.15453 0.25938 0.26227 0.0
H390 H 0.09981 0.18151 0.36666 0.0
N391 N 0.05497 0.30014 0.37641 0.0
N392 N 1.00032 0.33837 0.41056 0.0
C393 C 1.02002 0.3308 0.37107 0.0
C394 C 0.0581 0.28758 0.42116 0.0
C395 C 1.02432 0.31104 0.44232 0.0
C396 C 0.1688 0.32589 0.3761 0.0
O397 O 0.15972 0.2857 0.39516 0.0
H398 H 1.00919 0.347 0.33823 0.0
H399 H 0.08347 0.26393 0.43745 0.0
O400 O 0.03939 0.28525 0.27545 0.0
H401 H 0.14706 0.1243 0.31696 0.0
H402 H 1.01851 0.30834 0.4785 0.0
Cu403 Cu 0.76891 0.04633 0.26847 0.0
N404 N 0.82702 0.0808 0.26975 0.0
N405 N 0.87915 0.13692 0.25168 0.0
C406 C 0.83323 0.12343 0.25017 0.0
C407 C 0.90231 0.10079 0.27256 0.0
C408 C 0.87053 0.06678 0.28356 0.0
O409 O 0.72727 0.09747 0.28396 0.0
C410 C 0.80272 0.97877 0.21625 0.0
O411 O 0.82018 0.97116 0.259 0.0
H412 H 0.80454 0.14415 0.23521 0.0
H413 H 0.87884 0.03369 0.29962 0.0
N414 N 0.76026 0.99906 0.31445 0.0
N415 N 0.73099 0.93572 0.35002 0.0
C416 C 0.72491 0.96626 0.31406 0.0
C417 C 0.78965 0.98877 0.35186 0.0
C418 C 0.7721 0.95034 0.37345 0.0
C419 C 0.74194 0.11383 0.32437 0.0
O420 O 0.77729 0.09301 0.34739 0.0
H421 H 0.69561 0.96463 0.28746 0.0
H422 H 0.82244 1.00717 0.36209 0.0
O423 O 0.77216 1.01082 0.20941 0.0
H424 H 0.94003 0.09856 0.27914 0.0
H425 H 0.78962 0.93403 0.40371 0.0
Cu426 Cu 0.03686 0.80311 0.22942 0.0
N427 N 1.00613 0.85915 0.21513 0.0
N428 N 0.9467 0.90296 0.18472 0.0
C429 C 0.96474 0.85994 0.18817 0.0
C430 C 0.9785 0.93039 0.21048 0.0
C431 C 1.01497 0.90335 0.22919 0.0
O432 O 0.99002 0.76463 0.25878 0.0
C433 C 0.0869 0.78947 0.14528 0.0
O434 O 0.08453 0.7681 0.10495 0.0
H435 H 0.94683 0.82883 0.17367 0.0
H436 H 0.04471 0.91477 0.25271 0.0
N437 N 0.09317 0.80064 0.26821 0.0
N438 N 0.15833 0.76719 0.30091 0.0
C439 C 0.11979 0.76236 0.27033 0.0
C440 C 0.11558 0.83114 0.29846 0.0
C441 C 0.15583 0.81065 0.31858 0.0
C442 C 0.97516 0.78159 0.29535 0.0
O443 O 0.99323 0.82175 0.31103 0.0
H444 H 0.11012 0.73094 0.25065 0.0
H445 H 0.10357 0.86562 0.30543 0.0
O446 O 0.05273 0.78135 0.16983 0.0
H447 H 0.97487 0.96719 0.21693 0.0
H448 H 0.1811 0.82661 0.34445 0.0
Cu449 Cu 0.27115 1.01747 0.29073 0.0
N450 N 0.2779 0.06401 0.3376 0.0
N451 N 0.31669 0.12651 0.3718 0.0
C452 C 0.31889 0.08839 0.34455 0.0
C453 C 0.27213 0.12547 0.38346 0.0
C454 C 0.24823 0.08708 0.36215 0.0
O455 O 0.28308 0.05412 0.23672 0.0
C456 C 0.30462 0.95 0.34643 0.0
O457 O 0.26816 0.96624 0.36488 0.0
H458 H 0.34939 0.07915 0.32767 0.0
H459 H 0.21129 0.0785 0.36225 0.0
N460 N 0.21483 0.9818 0.27586 0.0
N461 N 0.17763 0.92301 0.23393 0.0
C462 C 0.21811 0.93901 0.25729 0.0
C463 C 0.16958 0.99301 0.2653 0.0
C464 C 0.14656 0.95671 0.23957 0.0
C465 C 0.25025 0.06264 0.20514 0.0
O466 O 0.22227 0.02836 0.18889 0.0
H467 H 0.25128 0.92185 0.25705 0.0
H468 H 0.1556 1.02694 0.27107 0.0
O469 O 0.31679 0.96999 0.31015 0.0
H470 H 0.25695 0.15207 0.40339 0.0
H471 H 0.11138 0.9575 0.22219 0.0
Cu472 Cu 0.0574 0.81591 0.75164 0.0
N473 N 0.07428 0.75564 0.73727 0.0
N474 N 0.11442 0.7043 0.69946 0.0
C475 C 0.10543 0.74952 0.70609 0.0
C476 C 0.08747 0.68091 0.72794 0.0
C477 C 0.06275 0.71271 0.7513 0.0
O478 O 0.11576 0.84615 0.78163 0.0
C479 C 1.00329 0.83083 0.66007 0.0
O480 O 1.00519 0.85485 0.62173 0.0
H481 H 0.1221 0.7783 0.68958 0.0
H482 H 0.03838 0.70511 0.77661 0.0
N483 N 1.00808 0.82633 0.78786 0.0
N484 N 0.94814 0.86266 0.8156 0.0
C485 C 0.97688 0.86108 0.78146 0.0
C486 C 0.99931 0.80569 0.82761 0.0
C487 C 0.96241 0.82775 0.84463 0.0
C488 C 0.13523 0.8242 0.81642 0.0
O489 O 0.11417 0.78584 0.82905 0.0
H490 H 0.97542 0.88474 0.75239 0.0
H491 H 1.01887 0.77717 0.84348 0.0
O492 O 0.0369 0.83951 0.69165 0.0
H493 H 0.0857 0.64348 0.73184 0.0
H494 H 0.94783 0.81914 0.87663 0.0
Cu495 Cu 0.31734 0.05167 0.79084 0.0
N496 N 0.37531 0.08191 0.78337 0.0
N497 N 0.42208 0.14062 0.7622 0.0
C498 C 0.37783 0.12271 0.76037 0.0
C499 C 0.44848 0.10932 0.78728 0.0
C500 C 0.41966 0.07349 0.80046 0.0
O501 O 0.28479 0.09969 0.82573 0.0
C502 C 0.29888 1.00373 0.69837 0.0
O503 O 0.27388 1.00592 0.65791 0.0
H504 H 0.34723 0.13981 0.74411 0.0
H505 H 0.43038 0.044 0.82164 0.0
N506 N 0.31499 0.99378 0.82154 0.0
N507 N 0.28538 0.92473 0.84333 0.0
C508 C 0.27605 0.96589 0.82207 0.0
C509 C 0.35012 0.9693 0.84294 0.0
C510 C 0.33218 0.927 0.8561 0.0
C511 C 0.3072 0.10976 0.86514 0.0
O512 O 0.34431 0.08504 0.87775 0.0
H513 H 0.24145 0.97593 0.80767 0.0
H514 H 0.38643 0.98084 0.84783 0.0
O515 O 0.29229 0.03617 0.72765 0.0
H516 H 0.48606 0.11204 0.79592 0.0
H517 H 0.35237 0.89986 0.87388 0.0
Cu518 Cu 0.11218 0.3102 0.82063 0.0
N519 N 0.07721 0.36554 0.81919 0.0
N520 N 1.01615 0.40842 0.78975 0.0
C521 C 0.03515 0.36575 0.79347 0.0
C522 C 0.04732 0.43623 0.81583 0.0
C523 C 0.08485 0.40976 0.83394 0.0
O524 O 0.061 0.26614 0.83345 0.0
C525 C 0.1469 0.34964 0.74013 0.0
O526 O 0.108 0.37242 0.73076 0.0
H527 H 1.0197 0.33476 0.7764 0.0
H528 H 0.11604 0.42231 0.85478 0.0
N529 N 0.16245 0.29793 0.8666 0.0
N530 N 0.22129 0.25704 0.90401 0.0
C531 C 0.18578 0.25724 0.86928 0.0
C532 C 0.18406 0.32477 0.90062 0.0
C533 C 0.21983 0.29972 0.92371 0.0
C534 C 0.04994 0.27558 0.8742 0.0
O535 O 0.07789 0.30451 0.89968 0.0
H536 H 0.17662 0.22833 0.8459 0.0
H537 H 0.17473 0.3601 0.90794 0.0
O538 O 0.14565 0.31249 0.7644 0.0
H539 H 0.0444 0.47343 0.82016 0.0
H540 H 0.24333 0.31262 0.95239 0.0
Cu541 Cu 0.84207 0.09885 0.75927 0.0
N542 N 0.85458 0.14 0.81064 0.0
N543 N 0.89098 0.19209 0.8615 0.0
C544 C 0.89419 0.16567 0.82301 0.0
C545 C 0.84759 0.18162 0.87379 0.0
C546 C 0.82566 0.14979 0.84284 0.0
O547 O 0.84112 0.1346 0.7009 0.0
C548 C 0.87219 1.02163 0.80893 0.0
O549 O 0.85377 0.04728 0.83964 0.0
H550 H 0.92469 0.16469 0.80396 0.0
H551 H 0.79112 0.13443 0.84428 0.0
N552 N 0.78137 0.07277 0.75265 0.0
N553 N 0.72643 1.02064 0.72454 0.0
C554 C 0.77216 0.03333 0.7279 0.0
C555 C 0.73963 0.08605 0.76504 0.0
C556 C 0.70568 0.05351 0.74822 0.0
C557 C 0.84632 0.17894 0.69905 0.0
O558 O 0.88171 0.19855 0.72475 0.0
H559 H 0.79891 1.01396 0.71292 0.0
H560 H 0.73387 0.11726 0.78411 0.0
O561 O 0.87786 0.04031 0.76968 0.0
H562 H 0.8321 0.19541 0.90323 0.0
H563 H 0.66861 0.05431 0.75252 0.0
Cu564 Cu 0.27446 0.78411 0.53228 0.0
N565 N 0.31615 0.80206 0.5841 0.0
N566 N 0.3441 0.84617 0.64544 0.0
C567 C 0.31314 0.84273 0.60706 0.0
C568 C 0.36731 0.8055 0.64626 0.0
C569 C 0.35022 0.77866 0.60852 0.0
O570 O 0.21794 0.76177 0.55997 0.0
C571 C 0.3208 0.83867 0.4778 0.0
O572 O 0.35391 0.81938 0.50539 0.0
H573 H 0.28844 0.86915 0.5955 0.0
H574 H 0.36123 0.74418 0.60007 0.0
N575 N 0.28748 0.73456 0.4929 0.0
N576 N 0.27042 0.70164 0.42262 0.0
C577 C 0.25371 0.72287 0.45891 0.0
C578 C 0.32744 0.71864 0.47843 0.0
C579 C 0.3169 0.69802 0.43512 0.0
C580 C 0.23016 0.72399 0.58061 0.0
O581 O 0.27349 0.71081 0.57862 0.0
H582 H 0.21819 0.73495 0.45864 0.0
H583 H 0.36221 0.72628 0.4952 0.0
O584 O 0.27814 0.83401 0.48722 0.0
H585 H 0.39438 0.79495 0.67254 0.0
H586 H 0.34218 0.68638 0.41251 0.0
Cu587 Cu 0.77757 0.80372 0.5196 0.0
N588 N 0.82138 0.81063 0.47503 0.0
N589 N 0.86113 0.79013 0.41476 0.0
C590 C 0.8334 0.77547 0.44743 0.0
C591 C 0.86629 0.83665 0.42241 0.0
C592 C 0.84198 0.84903 0.45921 0.0
O593 O 0.72284 0.78541 0.47671 0.0
C594 C 0.845 0.79066 0.58821 0.0
O595 O 0.84899 0.83331 0.57251 0.0
H596 H 0.82126 0.73984 0.45098 0.0
H597 H 0.83868 0.88381 0.4725 0.0
N598 N 0.75933 0.85774 0.55068 0.0
N599 N 0.72557 0.90167 0.60202 0.0
C600 C 0.73788 0.85825 0.59043 0.0
C601 C 0.76039 0.90231 0.53674 0.0
C602 C 0.73986 0.92925 0.56813 0.0
C603 C 0.69127 0.81547 0.4659 0.0
O604 O 0.67698 0.84153 0.49863 0.0
H605 H 0.73178 0.82743 0.61057 0.0
H606 H 0.77417 0.9144 0.50548 0.0
O607 O 0.81075 0.76538 0.5694 0.0
H608 H 0.8851 0.86085 0.4021 0.0
H609 H 0.73561 0.96655 0.56599 0.0
Cu610 Cu 0.80343 0.32835 0.55014 0.0
N611 N 0.79414 0.27424 0.51223 0.0
N612 N 0.76092 0.22904 0.45348 0.0
C613 C 0.76351 0.27187 0.47333 0.0
C614 C 0.79142 0.2037 0.48141 0.0
C615 C 0.81186 0.2315 0.51715 0.0
O616 O 0.82171 0.37485 0.50389 0.0
C617 C 0.73698 0.28308 0.59866 0.0
O618 O 0.72242 0.2542 0.56488 0.0
H619 H 0.74355 0.30126 0.45992 0.0
H620 H 0.83743 0.22105 0.54486 0.0
N621 N 0.85203 0.3346 0.59942 0.0
N622 N 0.89306 0.36792 0.66214 0.0
C623 C 0.85997 0.37366 0.62588 0.0
C624 C 0.88089 0.30288 0.6196 0.0
C625 C 0.90586 0.32302 0.658 0.0
C626 C 0.86055 0.35949 0.49211 0.0
O627 O 0.87663 0.32204 0.51354 0.0
H628 H 0.84123 0.40552 0.6188 0.0
H629 H 0.88295 0.26729 0.60798 0.0
O630 O 0.75101 0.32427 0.58836 0.0
H631 H 0.79834 0.16719 0.47702 0.0
H632 H 0.93071 0.30493 0.68163 0.0
Cu633 Cu 0.33914 0.30465 0.58021 0.0
N634 N 0.33405 0.35659 0.62003 0.0
N635 N 0.29853 0.39207 0.67649 0.0
C636 C 0.29643 0.35736 0.64449 0.0
C637 C 0.33981 0.41441 0.67131 0.0
C638 C 0.36168 0.39252 0.63675 0.0
O639 O 0.36147 0.25886 0.6281 0.0
C640 C 0.28978 0.35169 0.51425 0.0
O641 O 0.32548 0.37813 0.53115 0.0
H642 H 0.26886 0.33107 0.6394 0.0
H643 H 0.3959 0.40116 0.62603 0.0
N644 N 0.38002 0.29452 0.53416 0.0
N645 N 0.39483 0.25998 0.46711 0.0
C646 C 0.37129 0.25743 0.50526 0.0
C647 C 0.41062 0.32183 0.51394 0.0
C648 C 0.41997 0.30063 0.47298 0.0
C649 C 0.40269 0.27152 0.64653 0.0
O650 O 0.42316 0.30765 0.62863 0.0
H651 H 0.34572 0.23037 0.51116 0.0
H652 H 0.42252 0.35612 0.52613 0.0
O653 O 0.28313 0.31265 0.53478 0.0
H654 H 0.35419 0.44362 0.69172 0.0
H655 H 0.44167 0.31591 0.44832 0.0
Cu656 Cu 0.83012 0.58923 0.77832 0.0
N657 N 0.87543 0.63802 0.76819 0.0
N658 N 0.90693 0.69871 0.73042 0.0
C659 C 0.87813 0.66016 0.72702 0.0
C660 C 0.92393 0.70001 0.77562 0.0
C661 C 0.9044 0.66314 0.79867 0.0
O662 O 0.7706 0.6226 0.78349 0.0
C663 C 0.88674 0.5208 0.75405 0.0
O664 O 0.91124 0.54748 0.78494 0.0
H665 H 0.85713 0.64945 0.69552 0.0
H666 H 0.90917 0.65669 0.83555 0.0
N667 N 0.82919 0.55693 0.83522 0.0
N668 N 0.80148 0.50345 0.88361 0.0
C669 C 0.80424 0.51636 0.83902 0.0
C670 C 0.84219 0.57057 0.87899 0.0
C671 C 0.82555 0.53783 0.90864 0.0
C672 C 0.76774 0.66724 0.78371 0.0
O673 O 0.79235 0.69174 0.7563 0.0
H674 H 0.78776 0.49704 0.80943 0.0
H675 H 0.86082 0.60283 0.88877 0.0
O676 O 0.84533 0.53445 0.73956 0.0
H677 H 0.94679 0.72715 0.79166 0.0
H678 H 0.82994 0.54009 0.94607 0.0
Cu679 Cu 0.31897 0.54629 0.78409 0.0
N680 N 0.36692 0.50375 0.78977 0.0
N681 N 0.40397 0.44402 0.82501 0.0
C682 C 0.3706 0.47593 0.82686 0.0
C683 C 0.42334 0.45321 0.78522 0.0
C684 C 0.40042 0.49048 0.76355 0.0
O685 O 0.27069 0.51738 0.81777 0.0
C686 C 0.37537 0.62926 0.79298 0.0
O687 O 0.38932 0.61238 0.75465 0.0
H688 H 0.34862 0.4794 0.85477 0.0
H689 H 0.40673 0.50571 0.73061 0.0
N690 N 0.2885 0.55704 0.7258 0.0
N691 N 0.23401 0.58842 0.67555 0.0
C692 C 0.25171 0.58534 0.72018 0.0
C693 C 0.29436 0.54088 0.68332 0.0
C694 C 0.26082 0.56038 0.65212 0.0
C695 C 0.24301 0.4814 0.8144 0.0
O696 O 0.21584 0.47606 0.84803 0.0
H697 H 0.24001 0.60555 0.74822 0.0
H698 H 0.32174 0.51786 0.67541 0.0
O699 O 0.34373 0.60632 0.81212 0.0
H700 H 0.45107 0.43383 0.77199 0.0
H701 H 0.25792 0.55606 0.61485 0.0
Cu702 Cu 0.3129 0.54966 0.28235 0.0
N703 N 0.30895 0.51958 0.33937 0.0
N704 N 0.28067 0.46712 0.38773 0.0
C705 C 0.28606 0.47808 0.34324 0.0
C706 C 0.30083 0.50359 0.41265 0.0
C707 C 0.31782 0.53587 0.38286 0.0
O708 O 0.32696 0.49681 0.24247 0.0
C709 C 0.24952 0.626 0.26627 0.0
O710 O 0.27334 0.64202 0.23313 0.0
H711 H 0.27311 0.4566 0.31378 0.0
H712 H 0.33381 0.5695 0.39215 0.0
N713 N 0.35935 0.59708 0.27696 0.0
N714 N 0.38845 0.65689 0.23693 0.0
C715 C 0.37061 0.61254 0.2353 0.0
C716 C 0.37182 0.63244 0.30649 0.0
C717 C 0.38975 0.669 0.28211 0.0
C718 C 0.36503 0.47632 0.25705 0.0
O719 O 0.39089 0.49456 0.29286 0.0
H720 H 0.36107 0.59306 0.2037 0.0
H721 H 0.36361 0.63378 0.34201 0.0
O722 O 0.25348 0.5833 0.27822 0.0
H723 H 0.30232 0.50736 0.44991 0.0
H724 H 0.39818 0.70342 0.29591 0.0
Cu725 Cu 0.80804 0.56442 0.29823 0.0
N726 N 0.85235 0.51758 0.31101 0.0
N727 N 0.88816 0.45813 0.3496 0.0
C728 C 0.85568 0.49157 0.35011 0.0
C729 C 0.90555 0.4636 0.30806 0.0
C730 C 0.88369 0.50016 0.28464 0.0
O731 O 0.75209 0.53817 0.32029 0.0
C732 C 0.86424 0.64532 0.31294 0.0
O733 O 0.8826 0.62568 0.27821 0.0
H734 H 0.83442 0.49718 0.37832 0.0
H735 H 0.88935 0.51232 0.25034 0.0
N736 N 0.78768 0.58167 0.23731 0.0
N737 N 0.74148 0.62151 0.18466 0.0
C738 C 0.74779 0.60549 0.22859 0.0
C739 C 0.80792 0.58243 0.19749 0.0
C740 C 0.77937 0.60662 0.16487 0.0
C741 C 0.72334 0.50424 0.30882 0.0
O742 O 0.68858 0.49898 0.33485 0.0
H743 H 0.72556 0.61351 0.25539 0.0
H744 H 0.84207 0.56886 0.19317 0.0
O745 O 0.83066 0.62337 0.33001 0.0
H746 H 0.93158 0.44216 0.29456 0.0
H747 H 0.78713 0.61397 0.12986 0.0
Cu748 Cu 0.61297 0.31941 0.82074 0.0
N749 N 0.58107 0.30956 0.8728 0.0
N750 N 0.51266 0.3276 0.89843 0.0
C751 C 0.55178 0.34369 0.88111 0.0
C752 C 0.51892 0.28144 0.90411 0.0
C753 C 0.56114 0.27028 0.88794 0.0
O754 O 0.55804 0.31033 0.77184 0.0
C755 C 0.68325 0.36474 0.8747 0.0
O756 O 0.67724 0.32345 0.89284 0.0
H757 H 0.55592 0.37849 0.86769 0.0
H758 H 0.57256 0.2355 0.88137 0.0
N759 N 0.6561 0.27595 0.8058 0.0
N760 N 0.70881 0.24783 0.76188 0.0
C761 C 0.67632 0.28026 0.76623 0.0
C762 C 0.67633 0.23958 0.8281 0.0
C763 C 0.709 0.22217 0.80105 0.0
C764 C 0.54403 0.26723 0.76878 0.0
O765 O 0.5709 0.23638 0.79074 0.0
H766 H 0.66785 0.30795 0.74188 0.0
H767 H 0.66859 0.22728 0.86179 0.0
O768 O 0.65551 0.37489 0.8385 0.0
H769 H 0.49233 0.25673 0.91334 0.0
H770 H 0.73133 0.19325 0.81018 0.0
Cu771 Cu 0.55428 0.83627 0.77643 0.0
N772 N 0.60008 0.81744 0.82407 0.0
N773 N 0.66303 0.77866 0.85529 0.0
C774 C 0.63719 0.7915 0.8159 0.0
C775 C 0.64106 0.7977 0.88968 0.0
C776 C 0.6024 0.82152 0.87044 0.0
O777 O 0.59099 0.855 0.72403 0.0
C778 C 0.50522 0.75047 0.79602 0.0
O779 O 0.54365 0.73987 0.82183 0.0
H780 H 0.64453 0.78193 0.78132 0.0
H781 H 0.57696 0.83911 0.88896 0.0
N782 N 0.51715 0.88857 0.78837 0.0
N783 N 0.44841 0.92433 0.76797 0.0
C784 C 0.46975 0.88469 0.78333 0.0
C785 C 0.52602 0.93367 0.77868 0.0
C786 C 0.48399 0.95565 0.76643 0.0
C787 C 0.62549 0.88255 0.73779 0.0
O788 O 0.63204 0.89247 0.78224 0.0
H789 H 0.45148 0.8513 0.7834 0.0
H790 H 0.56033 0.94806 0.77376 0.0
O791 O 0.50592 0.78532 0.76858 0.0
H792 H 0.65097 0.79328 0.92623 0.0
H793 H 0.48058 0.98974 0.75078 0.0
Cu794 Cu 0.51477 0.79845 0.25624 0.0
N795 N 0.47314 0.79441 0.30226 0.0
N796 N 0.41778 0.81618 0.3474 0.0
C797 C 0.44152 0.82696 0.31055 0.0
C798 C 0.43558 0.77488 0.36236 0.0
C799 C 0.46973 0.76195 0.33494 0.0
O800 O 0.4788 0.82476 0.20269 0.0
C801 C 0.59633 0.81575 0.3134 0.0
O802 O 0.58539 0.77205 0.32151 0.0
H803 H 0.43697 0.85841 0.29037 0.0
H804 H 0.49064 0.7311 0.33868 0.0
N805 N 0.5405 0.74355 0.2355 0.0
N806 N 0.5925 0.70298 0.19977 0.0
C807 C 0.57449 0.74516 0.2066 0.0
C808 C 0.5363 0.69847 0.24733 0.0
C809 C 0.56854 0.67335 0.22542 0.0
C810 C 0.4467 0.81029 0.17151 0.0
O811 O 0.43168 0.84086 0.14015 0.0
H812 H 0.58747 0.7774 0.1928 0.0
H813 H 0.51272 0.68502 0.27123 0.0
O814 O 0.56944 0.8373 0.28316 0.0
H815 H 0.42503 0.75468 0.39109 0.0
H816 H 0.57435 0.63637 0.22871 0.0
Cu817 Cu 0.55455 0.29764 0.29338 0.0
N818 N 0.51503 0.24463 0.2877 0.0
N819 N 0.45474 0.21097 0.32 0.0
C820 C 0.49755 0.23174 0.32726 0.0
C821 C 0.44573 0.2086 0.27338 0.0
C822 C 0.48279 0.22979 0.25351 0.0
O823 O 0.50525 0.34596 0.29167 0.0
C824 C 0.62513 0.24312 0.32623 0.0
O825 O 0.60918 0.22763 0.28482 0.0
H826 H 0.51362 0.24299 0.3609 0.0
H827 H 0.48306 0.23877 0.21736 0.0
N828 N 0.59295 0.31798 0.24859 0.0
N829 N 0.64885 0.36608 0.22576 0.0
C830 C 0.62164 0.35487 0.25953 0.0
C831 C 0.60208 0.30451 0.20605 0.0
C832 C 0.63661 0.33429 0.1918 0.0
C833 C 0.48493 0.34908 0.25012 0.0
O834 O 0.50354 0.32711 0.21703 0.0
H835 H 0.62347 0.3719 0.29298 0.0
H836 H 0.58535 0.27513 0.1871 0.0
O837 O 0.60417 0.27797 0.34228 0.0
H838 H 0.41263 0.19728 0.25504 0.0
H839 H 0.65163 0.33218 0.15912 0.0
loop_
_geom_bond_atom_site_label_1
_geom_bond_atom_site_label_2
_geom_bond_distance
_geom_bond_site_symmetry_2
_ccdc_geom_bond_type
H0 C3 0.931 . S
H1 C6 0.928 . S
H2 C8 0.930 . S
C3 H0 0.931 . S
C3 C4 1.413 . S
C3 C5 1.360 . S
C4 C3 1.413 . S
C4 C8 1.429 . S
C5 C3 1.360 . S
C5 C6 1.372 . S
C6 H1 0.928 . S
C6 C5 1.372 . S
C6 C7 1.404 . S
C7 C6 1.404 . S
C7 C8 1.391 . S
C8 H2 0.930 . S
C8 C4 1.429 . S
C8 C7 1.391 . S
H9 C12 0.931 . S
H10 C15 0.928 . S
H11 C17 0.930 . S
C12 H9 0.931 . S
C12 C13 1.413 . S
C12 C14 1.360 . S
C13 C12 1.413 . S
C13 C17 1.429 . S
C14 C12 1.360 . S
C14 C15 1.372 . S
C15 H10 0.928 . S
C15 C14 1.372 . S
C15 C16 1.404 . S
C16 C15 1.404 . S
C16 C17 1.391 . S
C17 H11 0.930 . S
C17 C13 1.429 . S
C17 C16 1.391 . S
H18 C21 0.931 . S
H19 C24 0.928 . S
H20 C26 0.930 . S
C21 H18 0.931 . S
C21 C22 1.413 . S
C21 C23 1.360 . S
C22 C21 1.413 . S
C22 C26 1.429 . S
C23 C21 1.360 . S
C23 C24 1.372 . S
C24 H19 0.928 . S
C24 C23 1.372 . S
C24 C25 1.404 . S
C25 C24 1.404 . S
C25 C26 1.391 . S
C26 H20 0.930 . S
C26 C22 1.429 . S
C26 C25 1.391 . S
H27 C30 0.931 . S
H28 C33 0.928 . S
H29 C35 0.930 . S
C30 H27 0.931 . S
C30 C31 1.413 . S
C30 C32 1.360 . S
C31 C30 1.413 . S
C31 C35 1.429 . S
C32 C30 1.360 . S
C32 C33 1.372 . S
C33 H28 0.928 . S
C33 C32 1.372 . S
C33 C34 1.404 . S
C34 C33 1.404 . S
C34 C35 1.391 . S
C35 H29 0.930 . S
C35 C31 1.429 . S
C35 C34 1.391 . S
H36 C39 0.931 . S
H37 C42 0.928 . S
H38 C44 0.930 . S
C39 H36 0.931 . S
C39 C40 1.413 . S
C39 C41 1.360 . S
C40 C39 1.413 . S
C40 C44 1.429 . S
C41 C39 1.360 . S
C41 C42 1.372 . S
C42 H37 0.928 . S
C42 C41 1.372 . S
C42 C43 1.404 . S
C43 C42 1.404 . S
C43 C44 1.391 . S
C44 H38 0.930 . S
C44 C40 1.429 . S
C44 C43 1.391 . S
H45 C48 0.931 . S
H46 C51 0.928 . S
H47 C53 0.930 . S
C48 H45 0.931 . S
C48 C49 1.413 . S
C48 C50 1.360 . S
C49 C48 1.413 . S
C49 C53 1.429 . S
C50 C48 1.360 . S
C50 C51 1.372 . S
C51 H46 0.928 . S
C51 C50 1.372 . S
C51 C52 1.404 . S
C52 C51 1.404 . S
C52 C53 1.391 . S
C53 H47 0.930 . S
C53 C49 1.429 . S
C53 C52 1.391 . S
H54 C57 0.931 . S
H55 C60 0.928 . S
H56 C62 0.930 . S
C57 H54 0.931 . S
C57 C58 1.413 . S
C57 C59 1.360 . S
C58 C57 1.413 . S
C58 C62 1.429 . S
C59 C57 1.360 . S
C59 C60 1.372 . S
C60 H55 0.928 . S
C60 C59 1.372 . S
C60 C61 1.404 . S
C61 C60 1.404 . S
C61 C62 1.391 . S
C62 H56 0.930 . S
C62 C58 1.429 . S
C62 C61 1.391 . S
H63 C66 0.931 . S
H64 C69 0.928 . S
H65 C71 0.930 . S
C66 H63 0.931 . S
C66 C67 1.413 . S
C66 C68 1.360 . S
C67 C66 1.413 . S
C67 C71 1.429 . S
C68 C66 1.360 . S
C68 C69 1.372 . S
C69 H64 0.928 . S
C69 C68 1.372 . S
C69 C70 1.404 . S
C70 C69 1.404 . S
C70 C71 1.391 . S
C71 H65 0.930 . S
C71 C67 1.429 . S
C71 C70 1.391 . S
H72 C75 0.931 . S
H73 C78 0.928 . S
H74 C80 0.930 . S
C75 H72 0.931 . S
C75 C76 1.413 . S
C75 C77 1.360 . S
C76 C75 1.413 . S
C76 C80 1.429 . S
C77 C75 1.360 . S
C77 C78 1.372 . S
C78 H73 0.928 . S
C78 C77 1.372 . S
C78 C79 1.404 . S
C79 C78 1.404 . S
C79 C80 1.391 . S
C80 H74 0.930 . S
C80 C76 1.429 . S
C80 C79 1.391 . S
H81 C84 0.931 . S
H82 C87 0.928 . S
H83 C89 0.930 . S
C84 H81 0.931 . S
C84 C85 1.413 . S
C84 C86 1.360 . S
C85 C84 1.413 . S
C85 C89 1.429 . S
C86 C84 1.360 . S
C86 C87 1.372 . S
C87 H82 0.928 . S
C87 C86 1.372 . S
C87 C88 1.404 . S
C88 C87 1.404 . S
C88 C89 1.391 . S
C89 H83 0.930 . S
C89 C85 1.429 . S
C89 C88 1.391 . S
H90 C93 0.931 . S
H91 C96 0.928 . S
H92 C98 0.930 . S
C93 H90 0.931 . S
C93 C94 1.413 . S
C93 C95 1.360 . S
C94 C93 1.413 . S
C94 C98 1.429 . S
C95 C93 1.360 . S
C95 C96 1.372 . S
C96 H91 0.928 . S
C96 C95 1.372 . S
C96 C97 1.404 . S
C97 C96 1.404 . S
C97 C98 1.391 . S
C98 H92 0.930 . S
C98 C94 1.429 . S
C98 C97 1.391 . S
H99 C102 0.931 . S
H100 C105 0.928 . S
H101 C107 0.930 . S
C102 H99 0.931 . S
C102 C103 1.413 . S
C102 C104 1.360 . S
C103 C102 1.413 . S
C103 C107 1.429 . S
C104 C102 1.360 . S
C104 C105 1.372 . S
C105 H100 0.928 . S
C105 C104 1.372 . S
C105 C106 1.404 . S
C106 C105 1.404 . S
C106 C107 1.391 . S
C107 H101 0.930 . S
C107 C103 1.429 . S
C107 C106 1.391 . S
H108 C111 0.931 . S
H109 C114 0.928 . S
H110 C116 0.930 . S
C111 H108 0.931 . S
C111 C112 1.413 . S
C111 C113 1.360 . S
C112 C111 1.413 . S
C112 C116 1.429 . S
C113 C111 1.360 . S
C113 C114 1.372 . S
C114 H109 0.928 . S
C114 C113 1.372 . S
C114 C115 1.404 . S
C115 C114 1.404 . S
C115 C116 1.391 . S
C116 H110 0.930 . S
C116 C112 1.429 . S
C116 C115 1.391 . S
H117 C120 0.931 . S
H118 C123 0.928 . S
H119 C125 0.930 . S
C120 H117 0.931 . S
C120 C121 1.413 . S
C120 C122 1.360 . S
C121 C120 1.413 . S
C121 C125 1.429 . S
C122 C120 1.360 . S
C122 C123 1.372 . S
C123 H118 0.928 . S
C123 C122 1.372 . S
C123 C124 1.404 . S
C124 C123 1.404 . S
C124 C125 1.391 . S
C125 H119 0.930 . S
C125 C121 1.429 . S
C125 C124 1.391 . S
H126 C129 0.931 . S
H127 C132 0.928 . S
H128 C134 0.930 . S
C129 H126 0.931 . S
C129 C130 1.413 . S
C129 C131 1.360 . S
C130 C129 1.413 . S
C130 C134 1.429 . S
C131 C129 1.360 . S
C131 C132 1.372 . S
C132 H127 0.928 . S
C132 C131 1.372 . S
C132 C133 1.404 . S
C133 C132 1.404 . S
C133 C134 1.391 . S
C134 H128 0.930 . S
C134 C130 1.429 . S
C134 C133 1.391 . S
H135 C138 0.931 . S
H136 C141 0.928 . S
H137 C143 0.930 . S
C138 H135 0.931 . S
C138 C139 1.413 . S
C138 C140 1.360 . S
C139 C138 1.413 . S
C139 C143 1.429 . S
C140 C138 1.360 . S
C140 C141 1.372 . S
C141 H136 0.928 . S
C141 C140 1.372 . S
C141 C142 1.404 . S
C142 C141 1.404 . S
C142 C143 1.391 . S
C143 H137 0.930 . S
C143 C139 1.429 . S
C143 C142 1.391 . S
H144 C147 0.931 . S
H145 C150 0.928 . S
H146 C152 0.930 . S
C147 H144 0.931 . S
C147 C148 1.413 . S
C147 C149 1.360 . S
C148 C147 1.413 . S
C148 C152 1.429 . S
C149 C147 1.360 . S
C149 C150 1.372 . S
C150 H145 0.928 . S
C150 C149 1.372 . S
C150 C151 1.404 . S
C151 C150 1.404 . S
C151 C152 1.391 . S
C152 H146 0.930 . S
C152 C148 1.429 . S
C152 C151 1.391 . S
H153 C156 0.931 . S
H154 C159 0.928 . S
H155 C161 0.930 . S
C156 H153 0.931 . S
C156 C157 1.413 . S
C156 C158 1.360 . S
C157 C156 1.413 . S
C157 C161 1.429 . S
C158 C156 1.360 . S
C158 C159 1.372 . S
C159 H154 0.928 . S
C159 C158 1.372 . S
C159 C160 1.404 . S
C160 C159 1.404 . S
C160 C161 1.391 . S
C161 H155 0.930 . S
C161 C157 1.429 . S
C161 C160 1.391 . S
H162 C165 0.931 . S
H163 C168 0.928 . S
H164 C170 0.930 . S
C165 H162 0.931 . S
C165 C166 1.413 . S
C165 C167 1.360 . S
C166 C165 1.413 . S
C166 C170 1.429 . S
C167 C165 1.360 . S
C167 C168 1.372 . S
C168 H163 0.928 . S
C168 C167 1.372 . S
C168 C169 1.404 . S
C169 C168 1.404 . S
C169 C170 1.391 . S
C170 H164 0.930 . S
C170 C166 1.429 . S
C170 C169 1.391 . S
H171 C174 0.931 . S
H172 C177 0.928 . S
H173 C179 0.930 . S
C174 H171 0.931 . S
C174 C175 1.413 . S
C174 C176 1.360 . S
C175 C174 1.413 . S
C175 C179 1.429 . S
C176 C174 1.360 . S
C176 C177 1.372 . S
C177 H172 0.928 . S
C177 C176 1.372 . S
C177 C178 1.404 . S
C178 C177 1.404 . S
C178 C179 1.391 . S
C179 H173 0.930 . S
C179 C175 1.429 . S
C179 C178 1.391 . S
H180 C183 0.931 . S
H181 C186 0.928 . S
H182 C188 0.930 . S
C183 H180 0.931 . S
C183 C184 1.413 . S
C183 C185 1.360 . S
C184 C183 1.413 . S
C184 C188 1.429 . S
C185 C183 1.360 . S
C185 C186 1.372 . S
C186 H181 0.928 . S
C186 C185 1.372 . S
C186 C187 1.404 . S
C187 C186 1.404 . S
C187 C188 1.391 . S
C188 H182 0.930 . S
C188 C184 1.429 . S
C188 C187 1.391 . S
H189 C192 0.931 . S
H190 C195 0.928 . S
H191 C197 0.930 . S
C192 H189 0.931 . S
C192 C193 1.413 . S
C192 C194 1.360 . S
C193 C192 1.413 . S
C193 C197 1.429 . S
C194 C192 1.360 . S
C194 C195 1.372 . S
C195 H190 0.928 . S
C195 C194 1.372 . S
C195 C196 1.404 . S
C196 C195 1.404 . S
C196 C197 1.391 . S
C197 H191 0.930 . S
C197 C193 1.429 . S
C197 C196 1.391 . S
H198 C201 0.931 . S
H199 C204 0.928 . S
H200 C206 0.930 . S
C201 H198 0.931 . S
C201 C202 1.413 . S
C201 C203 1.360 . S
C202 C201 1.413 . S
C202 C206 1.429 . S
C203 C201 1.360 . S
C203 C204 1.372 . S
C204 H199 0.928 . S
C204 C203 1.372 . S
C204 C205 1.404 . S
C205 C204 1.404 . S
C205 C206 1.391 . S
C206 H200 0.930 . S
C206 C202 1.429 . S
C206 C205 1.391 . S
H207 C210 0.931 . S
H208 C213 0.928 . S
H209 C215 0.930 . S
C210 H207 0.931 . S
C210 C211 1.413 . S
C210 C212 1.360 . S
C211 C210 1.413 . S
C211 C215 1.429 . S
C212 C210 1.360 . S
C212 C213 1.372 . S
C213 H208 0.928 . S
C213 C212 1.372 . S
C213 C214 1.404 . S
C214 C213 1.404 . S
C214 C215 1.391 . S
C215 H209 0.930 . S
C215 C211 1.429 . S
C215 C214 1.391 . S
H216 C219 0.931 . S
H217 C222 0.928 . S
H218 C224 0.930 . S
C219 H216 0.931 . S
C219 C220 1.413 . S
C219 C221 1.360 . S
C220 C219 1.413 . S
C220 C224 1.429 . S
C221 C219 1.360 . S
C221 C222 1.372 . S
C222 H217 0.928 . S
C222 C221 1.372 . S
C222 C223 1.404 . S
C223 C222 1.404 . S
C223 C224 1.391 . S
C224 H218 0.930 . S
C224 C220 1.429 . S
C224 C223 1.391 . S
H225 C228 0.931 . S
H226 C231 0.928 . S
H227 C233 0.930 . S
C228 H225 0.931 . S
C228 C229 1.413 . S
C228 C230 1.360 . S
C229 C228 1.413 . S
C229 C233 1.429 . S
C230 C228 1.360 . S
C230 C231 1.372 . S
C231 H226 0.928 . S
C231 C230 1.372 . S
C231 C232 1.404 . S
C232 C231 1.404 . S
C232 C233 1.391 . S
C233 H227 0.930 . S
C233 C229 1.429 . S
C233 C232 1.391 . S
H234 C237 0.931 . S
H235 C240 0.928 . S
H236 C242 0.930 . S
C237 H234 0.931 . S
C237 C238 1.413 . S
C237 C239 1.360 . S
C238 C237 1.413 . S
C238 C242 1.429 . S
C239 C237 1.360 . S
C239 C240 1.372 . S
C240 H235 0.928 . S
C240 C239 1.372 . S
C240 C241 1.404 . S
C241 C240 1.404 . S
C241 C242 1.391 . S
C242 H236 0.930 . S
C242 C238 1.429 . S
C242 C241 1.391 . S
H243 C246 0.931 . S
H244 C249 0.928 . S
H245 C251 0.930 . S
C246 H243 0.931 . S
C246 C247 1.413 . S
C246 C248 1.360 . S
C247 C246 1.413 . S
C247 C251 1.429 . S
C248 C246 1.360 . S
C248 C249 1.372 . S
C249 H244 0.928 . S
C249 C248 1.372 . S
C249 C250 1.404 . S
C250 C249 1.404 . S
C250 C251 1.391 . S
C251 H245 0.930 . S
C251 C247 1.429 . S
C251 C250 1.391 . S
H252 C255 0.931 . S
H253 C258 0.928 . S
H254 C260 0.930 . S
C255 H252 0.931 . S
C255 C256 1.413 . S
C255 C257 1.360 . S
C256 C255 1.413 . S
C256 C260 1.429 . S
C257 C255 1.360 . S
C257 C258 1.372 . S
C258 H253 0.928 . S
C258 C257 1.372 . S
C258 C259 1.404 . S
C259 C258 1.404 . S
C259 C260 1.391 . S
C260 H254 0.930 . S
C260 C256 1.429 . S
C260 C259 1.391 . S
H261 C264 0.931 . S
H262 C267 0.928 . S
H263 C269 0.930 . S
C264 H261 0.931 . S
C264 C265 1.413 . S
C264 C266 1.360 . S
C265 C264 1.413 . S
C265 C269 1.429 . S
C266 C264 1.360 . S
C266 C267 1.372 . S
C267 H262 0.928 . S
C267 C266 1.372 . S
C267 C268 1.404 . S
C268 C267 1.404 . S
C268 C269 1.391 . S
C269 H263 0.930 . S
C269 C265 1.429 . S
C269 C268 1.391 . S
H270 C273 0.931 . S
H271 C276 0.928 . S
H272 C278 0.930 . S
C273 H270 0.931 . S
C273 C274 1.413 . S
C273 C275 1.360 . S
C274 C273 1.413 . S
C274 C278 1.429 . S
C275 C273 1.360 . S
C275 C276 1.372 . S
C276 H271 0.928 . S
C276 C275 1.372 . S
C276 C277 1.404 . S
C277 C276 1.404 . S
C277 C278 1.391 . S
C278 H272 0.930 . S
C278 C274 1.429 . S
C278 C277 1.391 . S
H279 C282 0.931 . S
H280 C285 0.928 . S
H281 C287 0.930 . S
C282 H279 0.931 . S
C282 C283 1.413 . S
C282 C284 1.360 . S
C283 C282 1.413 . S
C283 C287 1.429 . S
C284 C282 1.360 . S
C284 C285 1.372 . S
C285 H280 0.928 . S
C285 C284 1.372 . S
C285 C286 1.404 . S
C286 C285 1.404 . S
C286 C287 1.391 . S
C287 H281 0.930 . S
C287 C283 1.429 . S
C287 C286 1.391 . S
Cu288 N289 1.999 . S
Cu288 O294 1.974 1_554 S
Cu288 N299 1.985 . S
Cu288 O308 1.959 . S
N289 Cu288 1.999 . S
N289 C291 1.263 1_554 S
N289 C293 1.389 . S
N290 C291 1.358 . S
N290 C292 1.400 . S
C291 N289 1.263 1_556 S
C291 N290 1.358 . S
C291 H297 0.930 . S
C292 N290 1.400 . S
C292 C293 1.351 1_556 S
C292 H309 0.930 . S
C293 N289 1.389 . S
C293 C292 1.351 1_554 S
C293 H298 0.930 . S
O294 Cu288 1.974 1_556 S
O294 C304 1.282 . S
C295 O296 1.261 . S
C295 O308 1.251 . S
O296 C295 1.261 . S
H297 C291 0.930 . S
H298 C293 0.930 . S
N299 Cu288 1.985 . S
N299 C301 1.335 . S
N299 C302 1.390 . S
N300 C301 1.345 . S
N300 C303 1.336 . S
C301 N299 1.335 . S
C301 N300 1.345 . S
C301 H306 0.930 . S
C302 N299 1.390 . S
C302 C303 1.346 . S
C302 H307 0.930 . S
C303 N300 1.336 . S
C303 C302 1.346 . S
C303 H310 0.929 . S
C304 O294 1.282 . S
C304 O305 1.216 . S
O305 C304 1.216 . S
H306 C301 0.930 . S
H307 C302 0.930 . S
O308 Cu288 1.959 . S
O308 C295 1.251 . S
H309 C292 0.930 . S
H310 C303 0.929 . S
Cu311 N312 1.999 . S
Cu311 O317 1.974 . S
Cu311 N322 1.985 1_554 S
Cu311 O331 1.959 1_554 S
N312 Cu311 1.999 . S
N312 C314 1.263 . S
N312 C316 1.389 . S
N313 C314 1.358 . S
N313 C315 1.400 . S
C314 N312 1.263 . S
C314 N313 1.358 . S
C314 H320 0.930 . S
C315 N313 1.400 . S
C315 C316 1.351 . S
C315 H332 0.930 . S
C316 N312 1.389 . S
C316 C315 1.351 . S
C316 H321 0.930 . S
O317 Cu311 1.974 . S
O317 C327 1.282 . S
C318 O319 1.261 . S
C318 O331 1.251 . S
O319 C318 1.261 . S
H320 C314 0.930 . S
H321 C316 0.930 . S
N322 Cu311 1.985 1_556 S
N322 C324 1.335 . S
N322 C325 1.390 1_556 S
N323 C324 1.345 . S
N323 C326 1.336 . S
C324 N322 1.335 . S
C324 N323 1.345 . S
C324 H329 0.930 . S
C325 N322 1.390 1_554 S
C325 C326 1.346 1_554 S
C325 H330 0.930 . S
C326 N323 1.336 . S
C326 C325 1.346 1_556 S
C326 H333 0.929 . S
C327 O317 1.282 . S
C327 O328 1.216 . S
O328 C327 1.216 . S
H329 C324 0.930 . S
H330 C325 0.930 . S
O331 Cu311 1.959 1_556 S
O331 C318 1.251 . S
H332 C315 0.930 . S
H333 C326 0.929 . S
Cu334 N335 1.999 1_554 S
Cu334 O340 1.974 1_554 S
Cu334 N345 1.985 . S
Cu334 O354 1.959 . S
N335 Cu334 1.999 1_556 S
N335 C337 1.263 . S
N335 C339 1.389 . S
N336 C337 1.358 . S
N336 C338 1.400 . S
C337 N335 1.263 . S
C337 N336 1.358 . S
C337 H343 0.930 . S
C338 N336 1.400 . S
C338 C339 1.351 . S
C338 H355 0.930 . S
C339 N335 1.389 . S
C339 C338 1.351 . S
C339 H344 0.930 1_556 S
O340 Cu334 1.974 1_556 S
O340 C350 1.282 . S
C341 O342 1.261 . S
C341 O354 1.251 . S
O342 C341 1.261 . S
H343 C337 0.930 . S
H344 C339 0.930 1_554 S
N345 Cu334 1.985 . S
N345 C347 1.335 . S
N345 C348 1.390 . S
N346 C347 1.345 . S
N346 C349 1.336 . S
C347 N345 1.335 . S
C347 N346 1.345 . S
C347 H352 0.930 . S
C348 N345 1.390 . S
C348 C349 1.346 . S
C348 H353 0.930 1_554 S
C349 N346 1.336 . S
C349 C348 1.346 . S
C349 H356 0.929 . S
C350 O340 1.282 . S
C350 O351 1.216 . S
O351 C350 1.216 . S
H352 C347 0.930 . S
H353 C348 0.930 1_556 S
O354 Cu334 1.959 . S
O354 C341 1.251 . S
H355 C338 0.930 . S
H356 C349 0.929 . S
Cu357 N358 1.999 1_556 S
Cu357 O363 1.974 1_556 S
Cu357 N368 1.985 . S
Cu357 O377 1.959 . S
N358 Cu357 1.999 1_554 S
N358 C360 1.263 . S
N358 C362 1.389 . S
N359 C360 1.358 . S
N359 C361 1.400 . S
C360 N358 1.263 . S
C360 N359 1.358 . S
C360 H366 0.930 . S
C361 N359 1.400 . S
C361 C362 1.351 . S
C361 H378 0.930 . S
C362 N358 1.389 . S
C362 C361 1.351 . S
C362 H367 0.930 1_554 S
O363 Cu357 1.974 1_554 S
O363 C373 1.282 . S
C364 O365 1.261 . S
C364 O377 1.251 . S
O365 C364 1.261 . S
H366 C360 0.930 . S
H367 C362 0.930 1_556 S
N368 Cu357 1.985 . S
N368 C370 1.335 . S
N368 C371 1.390 . S
N369 C370 1.345 . S
N369 C372 1.336 . S
C370 N368 1.335 . S
C370 N369 1.345 . S
C370 H375 0.930 . S
C371 N368 1.390 . S
C371 C372 1.346 . S
C371 H376 0.930 1_556 S
C372 N369 1.336 . S
C372 C371 1.346 . S
C372 H379 0.929 . S
C373 O363 1.282 . S
C373 O374 1.216 . S
O374 C373 1.216 . S
H375 C370 0.930 . S
H376 C371 0.930 1_554 S
O377 Cu357 1.959 . S
O377 C364 1.251 . S
H378 C361 0.930 . S
H379 C372 0.929 . S
Cu380 N381 1.999 . S
Cu380 O386 1.974 . S
Cu380 N391 1.985 1_455 S
Cu380 O400 1.959 1_455 S
N381 Cu380 1.999 . S
N381 C383 1.263 . S
N381 C385 1.389 . S
N382 C383 1.358 . S
N382 C384 1.400 . S
C383 N381 1.263 . S
C383 N382 1.358 . S
C383 H389 0.930 . S
C384 N382 1.400 . S
C384 C385 1.351 . S
C384 H401 0.930 . S
C385 N381 1.389 . S
C385 C384 1.351 . S
C385 H390 0.930 . S
O386 Cu380 1.974 . S
O386 C396 1.282 . S
C387 O388 1.261 . S
C387 O400 1.251 . S
O388 C387 1.261 . S
H389 C383 0.930 . S
H390 C385 0.930 . S
N391 Cu380 1.985 1_655 S
N391 C393 1.335 . S
N391 C394 1.390 1_655 S
N392 C393 1.345 . S
N392 C395 1.336 . S
C393 N391 1.335 . S
C393 N392 1.345 . S
C393 H398 0.930 . S
C394 N391 1.390 1_455 S
C394 C395 1.346 1_455 S
C394 H399 0.930 . S
C395 N392 1.336 . S
C395 C394 1.346 1_655 S
C395 H402 0.929 . S
C396 O386 1.282 . S
C396 O397 1.216 . S
O397 C396 1.216 . S
H398 C393 0.930 . S
H399 C394 0.930 . S
O400 Cu380 1.959 1_655 S
O400 C387 1.251 . S
H401 C384 0.930 . S
H402 C395 0.929 . S
Cu403 N404 1.999 . S
Cu403 O409 1.974 . S
Cu403 N414 1.985 1_545 S
Cu403 O423 1.959 1_545 S
N404 Cu403 1.999 . S
N404 C406 1.263 . S
N404 C408 1.389 . S
N405 C406 1.358 . S
N405 C407 1.400 . S
C406 N404 1.263 . S
C406 N405 1.358 . S
C406 H412 0.930 . S
C407 N405 1.400 . S
C407 C408 1.351 . S
C407 H424 0.930 . S
C408 N404 1.389 . S
C408 C407 1.351 . S
C408 H413 0.930 . S
O409 Cu403 1.974 . S
O409 C419 1.282 . S
C410 O411 1.261 . S
C410 O423 1.251 . S
O411 C410 1.261 . S
H412 C406 0.930 . S
H413 C408 0.930 . S
N414 Cu403 1.985 1_565 S
N414 C416 1.335 . S
N414 C417 1.390 . S
N415 C416 1.345 . S
N415 C418 1.336 . S
C416 N414 1.335 . S
C416 N415 1.345 . S
C416 H421 0.930 . S
C417 N414 1.390 . S
C417 C418 1.346 . S
C417 H422 0.930 1_565 S
C418 N415 1.336 . S
C418 C417 1.346 . S
C418 H425 0.929 . S
C419 O409 1.282 . S
C419 O420 1.216 . S
O420 C419 1.216 . S
H421 C416 0.930 . S
H422 C417 0.930 1_545 S
O423 Cu403 1.959 1_565 S
O423 C410 1.251 . S
H424 C407 0.930 . S
H425 C418 0.929 . S
Cu426 N427 1.999 . S
Cu426 O432 1.974 . S
Cu426 N437 1.985 1_655 S
Cu426 O446 1.959 1_655 S
N427 Cu426 1.999 . S
N427 C429 1.263 . S
N427 C431 1.389 . S
N428 C429 1.358 . S
N428 C430 1.400 . S
C429 N427 1.263 . S
C429 N428 1.358 . S
C429 H435 0.930 . S
C430 N428 1.400 . S
C430 C431 1.351 . S
C430 H447 0.930 . S
C431 N427 1.389 . S
C431 C430 1.351 . S
C431 H436 0.930 . S
O432 Cu426 1.974 . S
O432 C442 1.282 . S
C433 O434 1.261 . S
C433 O446 1.251 . S
O434 C433 1.261 . S
H435 C429 0.930 . S
H436 C431 0.930 . S
N437 Cu426 1.985 1_455 S
N437 C439 1.335 . S
N437 C440 1.390 . S
N438 C439 1.345 . S
N438 C441 1.336 . S
C439 N437 1.335 . S
C439 N438 1.345 . S
C439 H444 0.930 . S
C440 N437 1.390 . S
C440 C441 1.346 . S
C440 H445 0.930 . S
C441 N438 1.336 . S
C441 C440 1.346 . S
C441 H448 0.929 . S
C442 O432 1.282 . S
C442 O443 1.216 . S
O443 C442 1.216 . S
H444 C439 0.930 . S
H445 C440 0.930 . S
O446 Cu426 1.959 1_455 S
O446 C433 1.251 . S
H447 C430 0.930 . S
H448 C441 0.929 . S
Cu449 N450 1.999 1_565 S
Cu449 O455 1.974 1_565 S
Cu449 N460 1.985 . S
Cu449 O469 1.959 . S
N450 Cu449 1.999 1_545 S
N450 C452 1.263 . S
N450 C454 1.389 . S
N451 C452 1.358 . S
N451 C453 1.400 . S
C452 N450 1.263 . S
C452 N451 1.358 . S
C452 H458 0.930 . S
C453 N451 1.400 . S
C453 C454 1.351 . S
C453 H470 0.930 . S
C454 N450 1.389 . S
C454 C453 1.351 . S
C454 H459 0.930 . S
O455 Cu449 1.974 1_545 S
O455 C465 1.282 . S
C456 O457 1.261 . S
C456 O469 1.251 . S
O457 C456 1.261 . S
H458 C452 0.930 . S
H459 C454 0.930 . S
N460 Cu449 1.985 . S
N460 C462 1.335 . S
N460 C463 1.390 . S
N461 C462 1.345 . S
N461 C464 1.336 . S
C462 N460 1.335 . S
C462 N461 1.345 . S
C462 H467 0.930 . S
C463 N460 1.390 . S
C463 C464 1.346 . S
C463 H468 0.944 . S
C464 N461 1.336 . S
C464 C463 1.346 . S
C464 H471 0.929 . S
C465 O455 1.282 . S
C465 O466 1.216 . S
O466 C465 1.216 . S
H467 C462 0.930 . S
H468 C463 0.944 . S
O469 Cu449 1.959 . S
O469 C456 1.251 . S
H470 C453 0.930 . S
H471 C464 0.929 . S
Cu472 N473 1.999 . S
Cu472 O478 1.974 . S
Cu472 N483 1.985 1_455 S
Cu472 O492 1.959 1_455 S
N473 Cu472 1.999 . S
N473 C475 1.263 . S
N473 C477 1.389 . S
N474 C475 1.358 . S
N474 C476 1.400 . S
C475 N473 1.263 . S
C475 N474 1.358 . S
C475 H481 0.930 . S
C476 N474 1.400 . S
C476 C477 1.351 . S
C476 H493 0.930 . S
C477 N473 1.389 . S
C477 C476 1.351 . S
C477 H482 0.930 . S
O478 Cu472 1.974 . S
O478 C488 1.282 . S
C479 O480 1.261 . S
C479 O492 1.251 . S
O480 C479 1.261 . S
H481 C475 0.930 . S
H482 C477 0.930 . S
N483 Cu472 1.985 1_655 S
N483 C485 1.335 . S
N483 C486 1.390 1_655 S
N484 C485 1.345 . S
N484 C487 1.336 . S
C485 N483 1.335 . S
C485 N484 1.345 . S
C485 H490 0.930 . S
C486 N483 1.390 1_455 S
C486 C487 1.346 1_455 S
C486 H491 0.930 . S
C487 N484 1.336 . S
C487 C486 1.346 1_655 S
C487 H494 0.929 . S
C488 O478 1.282 . S
C488 O489 1.216 . S
O489 C488 1.216 . S
H490 C485 0.930 . S
H491 C486 0.930 . S
O492 Cu472 1.959 1_655 S
O492 C479 1.251 . S
H493 C476 0.930 . S
H494 C487 0.929 . S
Cu495 N496 1.999 . S
Cu495 O501 1.974 . S
Cu495 N506 1.985 1_545 S
Cu495 O515 1.959 1_545 S
N496 Cu495 1.999 . S
N496 C498 1.263 . S
N496 C500 1.389 . S
N497 C498 1.358 . S
N497 C499 1.400 . S
C498 N496 1.263 . S
C498 N497 1.358 . S
C498 H504 0.930 . S
C499 N497 1.400 . S
C499 C500 1.351 . S
C499 H516 0.930 . S
C500 N496 1.389 . S
C500 C499 1.351 . S
C500 H505 0.930 . S
O501 Cu495 1.974 . S
O501 C511 1.282 . S
C502 O503 1.261 . S
C502 O515 1.251 . S
O503 C502 1.261 . S
H504 C498 0.930 . S
H505 C500 0.930 . S
N506 Cu495 1.985 1_565 S
N506 C508 1.335 . S
N506 C509 1.389 1_565 S
N507 C508 1.345 . S
N507 C510 1.336 . S
C508 N506 1.335 . S
C508 N507 1.345 . S
C508 H513 0.930 . S
C509 N506 1.389 1_545 S
C509 C510 1.338 1_545 S
C509 H514 0.938 . S
C510 N507 1.336 . S
C510 C509 1.338 1_565 S
C510 H517 0.929 . S
C511 O501 1.282 . S
C511 O512 1.216 . S
O512 C511 1.216 . S
H513 C508 0.930 . S
H514 C509 0.938 . S
O515 Cu495 1.959 1_565 S
O515 C502 1.251 . S
H516 C499 0.930 . S
H517 C510 0.929 . S
Cu518 N519 1.999 . S
Cu518 O524 1.974 . S
Cu518 N529 1.985 . S
Cu518 O538 1.959 . S
N519 Cu518 1.999 . S
N519 C521 1.263 1_455 S
N519 C523 1.389 . S
N520 C521 1.358 . S
N520 C522 1.400 . S
C521 N519 1.263 1_655 S
C521 N520 1.358 . S
C521 H527 0.930 . S
C522 N520 1.400 . S
C522 C523 1.351 1_655 S
C522 H539 0.930 . S
C523 N519 1.389 . S
C523 C522 1.351 1_455 S
C523 H528 0.930 . S
O524 Cu518 1.974 . S
O524 C534 1.275 1_455 S
C525 O526 1.261 . S
C525 O538 1.251 . S
O526 C525 1.261 . S
H527 C521 0.930 . S
H528 C523 0.930 . S
N529 Cu518 1.985 . S
N529 C531 1.335 . S
N529 C532 1.390 . S
N530 C531 1.345 . S
N530 C533 1.336 . S
C531 N529 1.335 . S
C531 N530 1.345 . S
C531 H536 0.930 . S
C532 N529 1.390 . S
C532 C533 1.346 . S
C532 H537 0.930 . S
C533 N530 1.336 . S
C533 C532 1.346 . S
C533 H540 0.929 . S
C534 O524 1.275 1_655 S
C534 O535 1.211 1_655 S
O535 C534 1.211 1_455 S
H536 C531 0.930 . S
H537 C532 0.930 . S
O538 Cu518 1.959 . S
O538 C525 1.251 . S
H539 C522 0.930 . S
H540 C533 0.929 . S
Cu541 N542 1.999 . S
Cu541 O547 1.974 . S
Cu541 N552 1.985 . S
Cu541 O561 1.959 1_545 S
N542 Cu541 1.999 . S
N542 C544 1.263 . S
N542 C546 1.389 . S
N543 C544 1.358 . S
N543 C545 1.400 . S
C544 N542 1.263 . S
C544 N543 1.358 . S
C544 H550 0.930 . S
C545 N543 1.400 . S
C545 C546 1.351 . S
C545 H562 0.930 . S
C546 N542 1.389 . S
C546 C545 1.351 . S
C546 H551 0.930 . S
O547 Cu541 1.974 . S
O547 C557 1.282 . S
C548 O549 1.261 1_565 S
C548 O561 1.251 . S
O549 C548 1.261 1_545 S
H550 C544 0.930 . S
H551 C546 0.930 . S
N552 Cu541 1.985 . S
N552 C554 1.335 1_545 S
N552 C555 1.390 . S
N553 C554 1.345 . S
N553 C556 1.336 . S
C554 N552 1.335 1_565 S
C554 N553 1.345 . S
C554 H559 0.930 . S
C555 N552 1.390 . S
C555 C556 1.346 1_545 S
C555 H560 0.930 . S
C556 N553 1.336 . S
C556 C555 1.346 1_565 S
C556 H563 0.929 . S
C557 O547 1.282 . S
C557 O558 1.216 . S
O558 C557 1.216 . S
H559 C554 0.930 . S
H560 C555 0.930 . S
O561 Cu541 1.959 1_565 S
O561 C548 1.251 . S
H562 C545 0.930 . S
H563 C556 0.929 . S
Cu564 N565 1.999 . S
Cu564 O570 1.974 . S
Cu564 N575 1.985 . S
Cu564 O584 1.959 . S
N565 Cu564 1.999 . S
N565 C567 1.263 . S
N565 C569 1.389 . S
N566 C567 1.358 . S
N566 C568 1.400 . S
C567 N565 1.263 . S
C567 N566 1.358 . S
C567 H573 0.930 . S
C568 N566 1.400 . S
C568 C569 1.351 . S
C568 H585 0.930 . S
C569 N565 1.389 . S
C569 C568 1.351 . S
C569 H574 0.930 . S
O570 Cu564 1.974 . S
O570 C580 1.282 . S
C571 O572 1.261 . S
C571 O584 1.251 . S
O572 C571 1.261 . S
H573 C567 0.930 . S
H574 C569 0.930 . S
N575 Cu564 1.985 . S
N575 C577 1.335 . S
N575 C578 1.390 . S
N576 C577 1.345 . S
N576 C579 1.336 . S
C577 N575 1.335 . S
C577 N576 1.345 . S
C577 H582 0.930 . S
C578 N575 1.390 . S
C578 C579 1.346 . S
C578 H583 0.930 . S
C579 N576 1.336 . S
C579 C578 1.346 . S
C579 H586 0.929 . S
C580 O570 1.282 . S
C580 O581 1.216 . S
O581 C580 1.216 . S
H582 C577 0.930 . S
H583 C578 0.930 . S
O584 Cu564 1.959 . S
O584 C571 1.251 . S
H585 C568 0.930 . S
H586 C579 0.929 . S
Cu587 N588 1.999 . S
Cu587 O593 1.974 . S
Cu587 N598 1.985 . S
Cu587 O607 1.959 . S
N588 Cu587 1.999 . S
N588 C590 1.263 . S
N588 C592 1.389 . S
N589 C590 1.358 . S
N589 C591 1.400 . S
C590 N588 1.263 . S
C590 N589 1.358 . S
C590 H596 0.930 . S
C591 N589 1.400 . S
C591 C592 1.351 . S
C591 H608 0.930 . S
C592 N588 1.389 . S
C592 C591 1.351 . S
C592 H597 0.930 . S
O593 Cu587 1.974 . S
O593 C603 1.282 . S
C594 O595 1.261 . S
C594 O607 1.251 . S
O595 C594 1.261 . S
H596 C590 0.930 . S
H597 C592 0.930 . S
N598 Cu587 1.985 . S
N598 C600 1.335 . S
N598 C601 1.390 . S
N599 C600 1.345 . S
N599 C602 1.336 . S
C600 N598 1.335 . S
C600 N599 1.345 . S
C600 H605 0.930 . S
C601 N598 1.390 . S
C601 C602 1.346 . S
C601 H606 0.930 . S
C602 N599 1.336 . S
C602 C601 1.346 . S
C602 H609 0.929 . S
C603 O593 1.282 . S
C603 O604 1.216 . S
O604 C603 1.216 . S
H605 C600 0.930 . S
H606 C601 0.930 . S
O607 Cu587 1.959 . S
O607 C594 1.251 . S
H608 C591 0.930 . S
H609 C602 0.929 . S
Cu610 N611 1.999 . S
Cu610 O616 1.974 . S
Cu610 N621 1.985 . S
Cu610 O630 1.959 . S
N611 Cu610 1.999 . S
N611 C613 1.263 . S
N611 C615 1.389 . S
N612 C613 1.358 . S
N612 C614 1.400 . S
C613 N611 1.263 . S
C613 N612 1.358 . S
C613 H619 0.930 . S
C614 N612 1.400 . S
C614 C615 1.351 . S
C614 H631 0.930 . S
C615 N611 1.389 . S
C615 C614 1.351 . S
C615 H620 0.930 . S
O616 Cu610 1.974 . S
O616 C626 1.282 . S
C617 O618 1.261 . S
C617 O630 1.251 . S
O618 C617 1.261 . S
H619 C613 0.930 . S
H620 C615 0.930 . S
N621 Cu610 1.985 . S
N621 C623 1.335 . S
N621 C624 1.390 . S
N622 C623 1.345 . S
N622 C625 1.336 . S
C623 N621 1.335 . S
C623 N622 1.345 . S
C623 H628 0.930 . S
C624 N621 1.390 . S
C624 C625 1.346 . S
C624 H629 0.930 . S
C625 N622 1.336 . S
C625 C624 1.346 . S
C625 H632 0.929 . S
C626 O616 1.282 . S
C626 O627 1.216 . S
O627 C626 1.216 . S
H628 C623 0.930 . S
H629 C624 0.930 . S
O630 Cu610 1.959 . S
O630 C617 1.251 . S
H631 C614 0.930 . S
H632 C625 0.929 . S
Cu633 N634 1.999 . S
Cu633 O639 1.974 . S
Cu633 N644 1.985 . S
Cu633 O653 1.959 . S
N634 Cu633 1.999 . S
N634 C636 1.263 . S
N634 C638 1.389 . S
N635 C636 1.358 . S
N635 C637 1.400 . S
C636 N634 1.263 . S
C636 N635 1.358 . S
C636 H642 0.930 . S
C637 N635 1.400 . S
C637 C638 1.351 . S
C637 H654 0.930 . S
C638 N634 1.389 . S
C638 C637 1.351 . S
C638 H643 0.930 . S
O639 Cu633 1.974 . S
O639 C649 1.282 . S
C640 O641 1.261 . S
C640 O653 1.251 . S
O641 C640 1.261 . S
H642 C636 0.930 . S
H643 C638 0.930 . S
N644 Cu633 1.985 . S
N644 C646 1.335 . S
N644 C647 1.390 . S
N645 C646 1.345 . S
N645 C648 1.336 . S
C646 N644 1.335 . S
C646 N645 1.345 . S
C646 H651 0.930 . S
C647 N644 1.390 . S
C647 C648 1.346 . S
C647 H652 0.930 . S
C648 N645 1.336 . S
C648 C647 1.346 . S
C648 H655 0.929 . S
C649 O639 1.282 . S
C649 O650 1.216 . S
O650 C649 1.216 . S
H651 C646 0.930 . S
H652 C647 0.930 . S
O653 Cu633 1.959 . S
O653 C640 1.251 . S
H654 C637 0.930 . S
H655 C648 0.929 . S
Cu656 N657 1.999 . S
Cu656 O662 1.974 . S
Cu656 N667 1.985 . S
Cu656 O676 1.959 . S
N657 Cu656 1.999 . S
N657 C659 1.263 . S
N657 C661 1.389 . S
N658 C659 1.358 . S
N658 C660 1.400 . S
C659 N657 1.263 . S
C659 N658 1.358 . S
C659 H665 0.930 . S
C660 N658 1.400 . S
C660 C661 1.351 . S
C660 H677 0.930 . S
C661 N657 1.389 . S
C661 C660 1.351 . S
C661 H666 0.930 . S
O662 Cu656 1.974 . S
O662 C672 1.282 . S
C663 O664 1.261 . S
C663 O676 1.251 . S
O664 C663 1.261 . S
H665 C659 0.930 . S
H666 C661 0.930 . S
N667 Cu656 1.985 . S
N667 C669 1.335 . S
N667 C670 1.390 . S
N668 C669 1.345 . S
N668 C671 1.336 . S
C669 N667 1.335 . S
C669 N668 1.345 . S
C669 H674 0.930 . S
C670 N667 1.390 . S
C670 C671 1.346 . S
C670 H675 0.930 . S
C671 N668 1.336 . S
C671 C670 1.346 . S
C671 H678 0.929 . S
C672 O662 1.282 . S
C672 O673 1.216 . S
O673 C672 1.216 . S
H674 C669 0.930 . S
H675 C670 0.930 . S
O676 Cu656 1.959 . S
O676 C663 1.251 . S
H677 C660 0.930 . S
H678 C671 0.929 . S
Cu679 N680 1.999 . S
Cu679 O685 1.974 . S
Cu679 N690 1.985 . S
Cu679 O699 1.959 . S
N680 Cu679 1.999 . S
N680 C682 1.263 . S
N680 C684 1.389 . S
N681 C682 1.358 . S
N681 C683 1.400 . S
C682 N680 1.263 . S
C682 N681 1.358 . S
C682 H688 0.930 . S
C683 N681 1.400 . S
C683 C684 1.351 . S
C683 H700 0.930 . S
C684 N680 1.389 . S
C684 C683 1.351 . S
C684 H689 0.930 . S
O685 Cu679 1.974 . S
O685 C695 1.282 . S
C686 O687 1.261 . S
C686 O699 1.251 . S
O687 C686 1.261 . S
H688 C682 0.930 . S
H689 C684 0.930 . S
N690 Cu679 1.985 . S
N690 C692 1.335 . S
N690 C693 1.390 . S
N691 C692 1.345 . S
N691 C694 1.336 . S
C692 N690 1.335 . S
C692 N691 1.345 . S
C692 H697 0.930 . S
C693 N690 1.390 . S
C693 C694 1.346 . S
C693 H698 0.930 . S
C694 N691 1.336 . S
C694 C693 1.346 . S
C694 H701 0.929 . S
C695 O685 1.282 . S
C695 O696 1.216 . S
O696 C695 1.216 . S
H697 C692 0.930 . S
H698 C693 0.930 . S
O699 Cu679 1.959 . S
O699 C686 1.251 . S
H700 C683 0.930 . S
H701 C694 0.929 . S
Cu702 N703 1.999 . S
Cu702 O708 1.974 . S
Cu702 N713 1.985 . S
Cu702 O722 1.959 . S
N703 Cu702 1.999 . S
N703 C705 1.263 . S
N703 C707 1.389 . S
N704 C705 1.358 . S
N704 C706 1.400 . S
C705 N703 1.263 . S
C705 N704 1.358 . S
C705 H711 0.930 . S
C706 N704 1.400 . S
C706 C707 1.351 . S
C706 H723 0.930 . S
C707 N703 1.389 . S
C707 C706 1.351 . S
C707 H712 0.930 . S
O708 Cu702 1.974 . S
O708 C718 1.282 . S
C709 O710 1.261 . S
C709 O722 1.251 . S
O710 C709 1.261 . S
H711 C705 0.930 . S
H712 C707 0.930 . S
N713 Cu702 1.985 . S
N713 C715 1.335 . S
N713 C716 1.390 . S
N714 C715 1.345 . S
N714 C717 1.336 . S
C715 N713 1.335 . S
C715 N714 1.345 . S
C715 H720 0.930 . S
C716 N713 1.390 . S
C716 C717 1.346 . S
C716 H721 0.930 . S
C717 N714 1.336 . S
C717 C716 1.346 . S
C717 H724 0.929 . S
C718 O708 1.282 . S
C718 O719 1.216 . S
O719 C718 1.216 . S
H720 C715 0.930 . S
H721 C716 0.930 . S
O722 Cu702 1.959 . S
O722 C709 1.251 . S
H723 C706 0.930 . S
H724 C717 0.929 . S
Cu725 N726 1.999 . S
Cu725 O731 1.974 . S
Cu725 N736 1.985 . S
Cu725 O745 1.959 . S
N726 Cu725 1.999 . S
N726 C728 1.263 . S
N726 C730 1.389 . S
N727 C728 1.358 . S
N727 C729 1.400 . S
C728 N726 1.263 . S
C728 N727 1.358 . S
C728 H734 0.930 . S
C729 N727 1.400 . S
C729 C730 1.351 . S
C729 H746 0.930 . S
C730 N726 1.389 . S
C730 C729 1.351 . S
C730 H735 0.930 . S
O731 Cu725 1.974 . S
O731 C741 1.282 . S
C732 O733 1.261 . S
C732 O745 1.251 . S
O733 C732 1.261 . S
H734 C728 0.930 . S
H735 C730 0.930 . S
N736 Cu725 1.985 . S
N736 C738 1.335 . S
N736 C739 1.390 . S
N737 C738 1.345 . S
N737 C740 1.336 . S
C738 N736 1.335 . S
C738 N737 1.345 . S
C738 H743 0.930 . S
C739 N736 1.390 . S
C739 C740 1.346 . S
C739 H744 0.930 . S
C740 N737 1.336 . S
C740 C739 1.346 . S
C740 H747 0.929 . S
C741 O731 1.282 . S
C741 O742 1.216 . S
O742 C741 1.216 . S
H743 C738 0.930 . S
H744 C739 0.930 . S
O745 Cu725 1.959 . S
O745 C732 1.251 . S
H746 C729 0.930 . S
H747 C740 0.929 . S
Cu748 N749 1.999 . S
Cu748 O754 1.974 . S
Cu748 N759 1.985 . S
Cu748 O768 1.959 . S
N749 Cu748 1.999 . S
N749 C751 1.263 . S
N749 C753 1.389 . S
N750 C751 1.358 . S
N750 C752 1.400 . S
C751 N749 1.263 . S
C751 N750 1.358 . S
C751 H757 0.930 . S
C752 N750 1.400 . S
C752 C753 1.351 . S
C752 H769 0.930 . S
C753 N749 1.389 . S
C753 C752 1.351 . S
C753 H758 0.930 . S
O754 Cu748 1.974 . S
O754 C764 1.282 . S
C755 O756 1.261 . S
C755 O768 1.251 . S
O756 C755 1.261 . S
H757 C751 0.930 . S
H758 C753 0.930 . S
N759 Cu748 1.985 . S
N759 C761 1.335 . S
N759 C762 1.390 . S
N760 C761 1.345 . S
N760 C763 1.336 . S
C761 N759 1.335 . S
C761 N760 1.345 . S
C761 H766 0.930 . S
C762 N759 1.390 . S
C762 C763 1.346 . S
C762 H767 0.930 . S
C763 N760 1.336 . S
C763 C762 1.346 . S
C763 H770 0.929 . S
C764 O754 1.282 . S
C764 O765 1.216 . S
O765 C764 1.216 . S
H766 C761 0.930 . S
H767 C762 0.930 . S
O768 Cu748 1.959 . S
O768 C755 1.251 . S
H769 C752 0.930 . S
H770 C763 0.929 . S
Cu771 N772 1.999 . S
Cu771 O777 1.974 . S
Cu771 N782 1.985 . S
Cu771 O791 1.959 . S
N772 Cu771 1.999 . S
N772 C774 1.263 . S
N772 C776 1.389 . S
N773 C774 1.358 . S
N773 C775 1.400 . S
C774 N772 1.263 . S
C774 N773 1.358 . S
C774 H780 0.930 . S
C775 N773 1.400 . S
C775 C776 1.351 . S
C775 H792 0.930 . S
C776 N772 1.389 . S
C776 C775 1.351 . S
C776 H781 0.930 . S
O777 Cu771 1.974 . S
O777 C787 1.282 . S
C778 O779 1.261 . S
C778 O791 1.251 . S
O779 C778 1.261 . S
H780 C774 0.930 . S
H781 C776 0.930 . S
N782 Cu771 1.985 . S
N782 C784 1.335 . S
N782 C785 1.390 . S
N783 C784 1.345 . S
N783 C786 1.336 . S
C784 N782 1.335 . S
C784 N783 1.345 . S
C784 H789 0.930 . S
C785 N782 1.390 . S
C785 C786 1.346 . S
C785 H790 0.930 . S
C786 N783 1.336 . S
C786 C785 1.346 . S
C786 H793 0.929 . S
C787 O777 1.282 . S
C787 O788 1.216 . S
O788 C787 1.216 . S
H789 C784 0.930 . S
H790 C785 0.930 . S
O791 Cu771 1.959 . S
O791 C778 1.251 . S
H792 C775 0.930 . S
H793 C786 0.929 . S
Cu794 N795 1.999 . S
Cu794 O800 1.974 . S
Cu794 N805 1.985 . S
Cu794 O814 1.959 . S
N795 Cu794 1.999 . S
N795 C797 1.263 . S
N795 C799 1.389 . S
N796 C797 1.358 . S
N796 C798 1.400 . S
C797 N795 1.263 . S
C797 N796 1.358 . S
C797 H803 0.930 . S
C798 N796 1.400 . S
C798 C799 1.351 . S
C798 H815 0.930 . S
C799 N795 1.389 . S
C799 C798 1.351 . S
C799 H804 0.930 . S
O800 Cu794 1.974 . S
O800 C810 1.282 . S
C801 O802 1.261 . S
C801 O814 1.251 . S
O802 C801 1.261 . S
H803 C797 0.930 . S
H804 C799 0.930 . S
N805 Cu794 1.985 . S
N805 C807 1.335 . S
N805 C808 1.390 . S
N806 C807 1.345 . S
N806 C809 1.336 . S
C807 N805 1.335 . S
C807 N806 1.345 . S
C807 H812 0.930 . S
C808 N805 1.390 . S
C808 C809 1.346 . S
C808 H813 0.930 . S
C809 N806 1.336 . S
C809 C808 1.346 . S
C809 H816 0.929 . S
C810 O800 1.282 . S
C810 O811 1.216 . S
O811 C810 1.216 . S
H812 C807 0.930 . S
H813 C808 0.930 . S
O814 Cu794 1.959 . S
O814 C801 1.251 . S
H815 C798 0.930 . S
H816 C809 0.929 . S
Cu817 N818 1.999 . S
Cu817 O823 1.974 . S
Cu817 N828 1.985 . S
Cu817 O837 1.959 . S
N818 Cu817 1.999 . S
N818 C820 1.263 . S
N818 C822 1.389 . S
N819 C820 1.358 . S
N819 C821 1.400 . S
C820 N818 1.263 . S
C820 N819 1.358 . S
C820 H826 0.930 . S
C821 N819 1.400 . S
C821 C822 1.351 . S
C821 H838 0.930 . S
C822 N818 1.389 . S
C822 C821 1.351 . S
C822 H827 0.930 . S
O823 Cu817 1.974 . S
O823 C833 1.282 . S
C824 O825 1.261 . S
C824 O837 1.251 . S
O825 C824 1.261 . S
H826 C820 0.930 . S
H827 C822 0.930 . S
N828 Cu817 1.985 . S
N828 C830 1.335 . S
N828 C831 1.390 . S
N829 C830 1.345 . S
N829 C832 1.336 . S
C830 N828 1.335 . S
C830 N829 1.345 . S
C830 H835 0.930 . S
C831 N828 1.390 . S
C831 C832 1.346 . S
C831 H836 0.930 . S
C832 N829 1.336 . S
C832 C831 1.346 . S
C832 H839 0.929 . S
C833 O823 1.282 . S
C833 O834 1.216 . S
O834 C833 1.216 . S
H835 C830 0.930 . S
H836 C831 0.930 . S
O837 Cu817 1.959 . S
O837 C824 1.251 . S
H838 C821 0.930 . S
H839 C832 0.929 . S
N300 C5 1.517 . S
C327 C16 1.909 . S
C23 C341 1.656 . S
N359 C34 1.529 . S
C43 C364 1.694 . S
C50 C304 1.640 . S
C58 N323 1.397 . S
N336 C68 1.494 . S
N382 C4 1.419 . S
C13 N405 1.812 . S
C25 N428 1.934 . S
N461 C32 1.368 . S
C41 C488 1.623 . S
C511 C52 1.758 . S
C61 C534 1.719 . S
C548 C67 1.391 . S
C7 C465 1.693 . S
C40 N507 1.470 . S
N530 C49 1.418 . S
C59 N543 1.614 . S
N484 C70 1.367 . S
C410 C22 1.892 . S
C31 C433 1.545 . S
C387 C14 1.911 . S
C580 C77 1.510 . S
C88 C594 1.726 . S
C95 N622 1.434 . S
N635 C106 1.449 . S
C115 C640 1.787 . S
C122 N576 1.568 . S
C130 N589 1.660 . S
C140 C626 1.424 . S
N474 C76 1.484 . S
C85 N658 1.453 . S
N520 C97 1.510 . S
C104 C695 1.707 . S
C113 C396 1.880 . S
C709 C124 1.763 . S
C133 C442 1.570 . S
N727 C139 1.402 . S
C79 N691 1.414 . S
N704 C112 1.612 . S
C121 N438 1.592 . S
C732 C131 1.375 . S
C142 N392 1.385 . S
C94 C663 1.680 . S
C103 C525 1.720 . S
C86 C479 1.699 . S
C149 C617 1.565 . S
C649 C160 1.673 . S
C167 N566 1.581 . S
C178 N599 1.417 . S
C187 C603 1.722 . S
C194 N612 1.673 . S
N645 C202 1.264 . S
C212 C571 1.512 . S
N760 C148 1.395 . S
C157 N497 1.449 . S
N783 C169 1.409 . S
C176 N553 1.635 . S
C185 C801 1.685 . S
C196 C419 1.925 . S
N819 C205 1.285 . S
C211 C456 1.591 . S
C557 C151 1.571 . S
N415 C184 1.648 . S
C193 C824 1.682 . S
C203 N451 1.255 . S
N796 C214 1.635 . S
C502 C166 1.723 . S
C787 C175 1.841 . S
C764 C158 1.820 . S
C221 N346 1.310 . S
C232 C373 1.662 . S
C295 C239 1.614 . S
N313 C250 1.375 . S
C318 C259 1.913 . S
C350 C266 1.920 . S
N369 C274 1.547 . S
C284 N290 1.648 . S
C220 N806 1.310 . S
N714 C229 1.584 . S
C833 C241 1.818 . S
C741 C248 1.271 . S
C257 C755 1.716 . S
C672 C268 1.720 . S
C778 C277 1.889 . S
C283 N681 1.459 . S
N737 C223 1.267 . S
N668 C256 1.502 . S
N773 C265 1.544 . S
C275 C686 1.567 . S
C286 N750 1.391 . S
C238 C718 1.922 . S
C247 N829 1.362 . S
C810 C230 1.665 . S
