# Generated by pormake.
# Topology ant, (3,6)-cn, num edge types: 1
# Building blocks:
#     Node 0, Type 0, BuildingBlock: PAMTOO_clean_linker_0, # of connection points: 3
#     Node 1, Type 0, BuildingBlock: PAMTOO_clean_linker_0, # of connection points: 3
#     Node 2, Type 0, BuildingBlock: PAMTOO_clean_linker_0, # of connection points: 3
#     Node 3, Type 0, BuildingBlock: PAMTOO_clean_linker_0, # of connection points: 3
#     Node 4, Type 0, BuildingBlock: PAMTOO_clean_linker_0, # of connection points: 3
#     Node 5, Type 0, BuildingBlock: PAMTOO_clean_linker_0, # of connection points: 3
#     Node 6, Type 0, BuildingBlock: PAMTOO_clean_linker_0, # of connection points: 3
#     Node 7, Type 0, BuildingBlock: PAMTOO_clean_linker_0, # of connection points: 3
#     Node 8, Type 1, BuildingBlock: MIDCAF_clean_sbu_0, # of connection points: 6
#     Node 9, Type 1, BuildingBlock: MIDCAF_clean_sbu_0, # of connection points: 6
#     Node 10, Type 1, BuildingBlock: MIDCAF_clean_sbu_0, # of connection points: 6
#     Node 11, Type 1, BuildingBlock: MIDCAF_clean_sbu_0, # of connection points: 6
#     Edge 12, Type (0, 1), BuildingBlock: ZUJKAS_clean_linker_0, # of connection points: 2
#     Edge 13, Type (0, 1), BuildingBlock: ZUJKAS_clean_linker_0, # of connection points: 2
#     Edge 14, Type (0, 1), BuildingBlock: ZUJKAS_clean_linker_0, # of connection points: 2
#     Edge 15, Type (0, 1), BuildingBlock: ZUJKAS_clean_linker_0, # of connection points: 2
#     Edge 16, Type (0, 1), BuildingBlock: ZUJKAS_clean_linker_0, # of connection points: 2
#     Edge 17, Type (0, 1), BuildingBlock: ZUJKAS_clean_linker_0, # of connection points: 2
#     Edge 18, Type (0, 1), BuildingBlock: ZUJKAS_clean_linker_0, # of connection points: 2
#     Edge 19, Type (0, 1), BuildingBlock: ZUJKAS_clean_linker_0, # of connection points: 2
#     Edge 20, Type (0, 1), BuildingBlock: ZUJKAS_clean_linker_0, # of connection points: 2
#     Edge 21, Type (0, 1), BuildingBlock: ZUJKAS_clean_linker_0, # of connection points: 2
#     Edge 22, Type (0, 1), BuildingBlock: ZUJKAS_clean_linker_0, # of connection points: 2
#     Edge 23, Type (0, 1), BuildingBlock: ZUJKAS_clean_linker_0, # of connection points: 2
#     Edge 24, Type (0, 1), BuildingBlock: ZUJKAS_clean_linker_0, # of connection points: 2
#     Edge 25, Type (0, 1), BuildingBlock: ZUJKAS_clean_linker_0, # of connection points: 2
#     Edge 26, Type (0, 1), BuildingBlock: ZUJKAS_clean_linker_0, # of connection points: 2
#     Edge 27, Type (0, 1), BuildingBlock: ZUJKAS_clean_linker_0, # of connection points: 2
#     Edge 28, Type (0, 1), BuildingBlock: ZUJKAS_clean_linker_0, # of connection points: 2
#     Edge 29, Type (0, 1), BuildingBlock: ZUJKAS_clean_linker_0, # of connection points: 2
#     Edge 30, Type (0, 1), BuildingBlock: ZUJKAS_clean_linker_0, # of connection points: 2
#     Edge 31, Type (0, 1), BuildingBlock: ZUJKAS_clean_linker_0, # of connection points: 2
#     Edge 32, Type (0, 1), BuildingBlock: ZUJKAS_clean_linker_0, # of connection points: 2
#     Edge 33, Type (0, 1), BuildingBlock: ZUJKAS_clean_linker_0, # of connection points: 2
#     Edge 34, Type (0, 1), BuildingBlock: ZUJKAS_clean_linker_0, # of connection points: 2
#     Edge 35, Type (0, 1), BuildingBlock: ZUJKAS_clean_linker_0, # of connection points: 2
# Relax obj value: 0.057
# Max RMSD: 0.149
# Mean RMSD: 0.095
data_MOF--net-ant--node1-MIDCAF_clean_sbu_0--node2-PAMTOO_clean_linker_0--edge1-ZUJKAS_clean_linker_0
_symmetry_space_group_name_H-M    P1
_symmetry_Int_Tables_number       1
_symmetry_cell_setting            triclinic
loop_
_symmetry_equiv_pos_as_xyz
'x, y, z'
_cell_length_a     37.312897
_cell_length_b     37.026636
_cell_length_c     91.525526
_cell_angle_alpha  86.395063
_cell_angle_beta   98.01686
_cell_angle_gamma 90.139832
loop_
_atom_site_label
_atom_site_type_symbol
_atom_site_fract_x
_atom_site_fract_y
_atom_site_fract_z
_atom_type_partial_charge
H0 H 0.2121 0.16191 0.0594 0.0
H1 H 0.17923 0.27374 0.05183 0.0
H2 H 0.22945 0.23355 0.0949 0.0
H3 H 0.16977 0.29059 0.09467 0.0
C4 C 0.17229 0.30433 0.0837 0.0
O5 O 0.20266 0.29128 0.07866 0.0
H6 H 0.14754 0.2983 0.07597 0.0
C7 C 0.20966 0.18862 0.06341 0.0
C8 C 0.22278 0.1943 0.07819 0.0
C9 C 0.19336 0.21677 0.0538 0.0
C10 C 0.19139 0.25147 0.05907 0.0
C11 C 0.20429 0.25755 0.07385 0.0
C12 C 0.21957 0.22882 0.08348 0.0
H13 H 0.17291 0.79968 0.30428 0.0
H14 H 0.05851 0.79641 0.30623 0.0
H15 H 0.13165 0.82037 0.34476 0.0
H16 H 0.06172 0.7815 0.35378 0.0
C17 C 0.0521 0.77959 0.34181 0.0
O18 O 0.06392 0.80956 0.33409 0.0
H19 H 0.0637 0.75417 0.33844 0.0
C20 C 0.15051 0.80257 0.31049 0.0
C21 C 0.15719 0.81119 0.3254 0.0
C22 C 0.11508 0.79762 0.30343 0.0
C23 C 0.08598 0.80062 0.31145 0.0
C24 C 0.09218 0.8081 0.32637 0.0
C25 C 0.12755 0.8138 0.33329 0.0
H26 H 0.6995 0.65389 0.56205 0.0
H27 H 0.68077 0.76849 0.55455 0.0
H28 H 0.7196 0.72329 0.59833 0.0
H29 H 0.67059 0.78745 0.59886 0.0
C30 C 0.67106 0.79778 0.58722 0.0
O31 O 0.70064 0.7833 0.58206 0.0
H32 H 0.6455 0.78922 0.58056 0.0
C33 C 0.69978 0.68065 0.56626 0.0
C34 C 0.71046 0.68477 0.58138 0.0
C35 C 0.68908 0.71055 0.55652 0.0
C36 C 0.68905 0.74512 0.56197 0.0
C37 C 0.70029 0.74974 0.577 0.0
C38 C 0.7113 0.71961 0.5867 0.0
H39 H 0.67397 0.31182 0.8015 0.0
H40 H 0.56071 0.29764 0.8047 0.0
H41 H 0.63693 0.30418 0.84411 0.0
H42 H 0.5726 0.25189 0.84814 0.0
C43 C 0.55653 0.26164 0.83748 0.0
O44 O 0.5686 0.29568 0.83347 0.0
H45 H 0.56035 0.24212 0.82904 0.0
C46 C 0.6521 0.30909 0.80813 0.0
C47 C 0.65995 0.30895 0.82362 0.0
C48 C 0.61644 0.30494 0.80115 0.0
C49 C 0.58839 0.30093 0.80985 0.0
C50 C 0.59585 0.30061 0.82527 0.0
C51 C 0.63147 0.30489 0.83215 0.0
H52 H 0.10003 0.78785 0.94538 0.0
H53 H 0.08399 0.6796 0.93119 0.0
H54 H 0.07575 0.76973 0.89902 0.0
H55 H 0.02573 0.70761 0.88794 0.0
C56 C 0.03568 0.68973 0.89788 0.0
O57 O 0.07086 0.69916 0.90302 0.0
H58 H 0.01739 0.69377 0.9063 0.0
C59 C 0.09376 0.76957 0.93659 0.0
C60 C 0.08802 0.78358 0.92182 0.0
C61 C 0.09261 0.73212 0.94012 0.0
C62 C 0.08539 0.70851 0.92867 0.0
C63 C 0.07896 0.72214 0.91391 0.0
C64 C 0.08075 0.75952 0.91048 0.0
H65 H 0.61282 0.82755 0.19333 0.0
H66 H 0.72503 0.81015 0.18925 0.0
H67 H 0.64672 0.8249 0.15032 0.0
H68 H 0.71478 0.77672 0.14476 0.0
C69 C 0.72616 0.78003 0.15648 0.0
O70 O 0.7154 0.81328 0.1605 0.0
H71 H 0.71555 0.75757 0.16333 0.0
C72 C 0.63421 0.82566 0.18652 0.0
C73 C 0.62533 0.82789 0.17104 0.0
C74 C 0.67 0.81891 0.19327 0.0
C75 C 0.69721 0.81505 0.18432 0.0
C76 C 0.68877 0.81712 0.16891 0.0
C77 C 0.65292 0.82338 0.16227 0.0
H78 H 0.62193 0.2821 0.44482 0.0
H79 H 0.59217 0.17527 0.43189 0.0
H80 H 0.57376 0.26578 0.40006 0.0
H81 H 0.51785 0.20289 0.39285 0.0
C82 C 0.5324 0.18518 0.40202 0.0
O83 O 0.5683 0.19536 0.40436 0.0
H84 H 0.51906 0.18867 0.41201 0.0
C85 C 0.61129 0.26432 0.4363 0.0
C86 C 0.59831 0.27893 0.42197 0.0
C87 C 0.60893 0.22709 0.43998 0.0
C88 C 0.59402 0.20406 0.42918 0.0
C89 C 0.58152 0.21805 0.41481 0.0
C90 C 0.58348 0.25536 0.41123 0.0
H91 H 0.11186 0.32213 0.68948 0.0
H92 H 0.22604 0.31036 0.6882 0.0
H93 H 0.1542 0.3341 0.64798 0.0
H94 H 0.22037 0.28886 0.64217 0.0
C95 C 0.23197 0.28907 0.65402 0.0
O96 O 0.22138 0.32058 0.6596 0.0
H97 H 0.22143 0.26485 0.65989 0.0
C98 C 0.1346 0.32328 0.68329 0.0
C99 C 0.12841 0.32982 0.66782 0.0
C100 C 0.16963 0.31632 0.69081 0.0
C101 C 0.1988 0.3157 0.68266 0.0
C102 C 0.19306 0.32188 0.66728 0.0
C103 C 0.15808 0.32915 0.65988 0.0
Zn104 Zn 0.21055 0.70937 0.14036 0.0
Zn105 Zn 0.12582 0.80178 0.10652 0.0
Zn106 Zn 0.16926 0.75728 0.12338 0.0
C107 C 0.13738 0.74497 0.08935 0.0
C108 C 0.18817 0.84073 0.11566 0.0
O109 O 0.14642 0.74915 0.14435 0.0
O110 O 0.18731 0.71448 0.15845 0.0
C111 C 0.18364 0.67362 0.11584 0.0
O112 O 0.15491 0.73284 0.10183 0.0
O113 O 0.12285 0.77596 0.08813 0.0
O114 O 0.15618 0.84515 0.10922 0.0
O115 O 0.19951 0.80901 0.1209 0.0
O116 O 0.20004 0.66653 0.12869 0.0
O117 O 0.17204 0.70602 0.11173 0.0
O118 O 0.22362 0.78239 0.12782 0.0
O119 O 0.25639 0.7354 0.13822 0.0
C120 C 0.25454 0.76784 0.133 0.0
O121 O 0.11898 0.76483 0.13389 0.0
O122 O 0.08363 0.79892 0.11713 0.0
C123 C 0.15861 0.7332 0.15699 0.0
C124 C 0.08835 0.78092 0.1294 0.0
Zn125 Zn 0.56664 0.70395 0.3531 0.0
Zn126 Zn 0.65468 0.77545 0.39119 0.0
Zn127 Zn 0.6093 0.74028 0.3727 0.0
C128 C 0.59086 0.81662 0.38555 0.0
C129 C 0.68995 0.76974 0.36713 0.0
O130 O 0.60137 0.6846 0.38272 0.0
O131 O 0.56434 0.65849 0.36556 0.0
C132 C 0.52786 0.76513 0.35891 0.0
O133 O 0.58144 0.79091 0.37696 0.0
O134 O 0.62149 0.81581 0.39342 0.0
O135 O 0.69418 0.78474 0.37924 0.0
O136 O 0.6605 0.7524 0.36312 0.0
O137 O 0.52539 0.73854 0.35085 0.0
O138 O 0.55709 0.77022 0.36784 0.0
O139 O 0.6347 0.73822 0.35228 0.0
O140 O 0.59809 0.70528 0.33736 0.0
C141 C 0.62655 0.7237 0.33981 0.0
O142 O 0.62018 0.70603 0.39353 0.0
O143 O 0.66183 0.73675 0.40718 0.0
C144 C 0.58309 0.65681 0.37819 0.0
C145 C 0.64176 0.70938 0.40564 0.0
Zn146 Zn 0.63439 0.29103 0.60357 0.0
Zn147 Zn 0.71548 0.20588 0.64388 0.0
Zn148 Zn 0.6762 0.24946 0.62352 0.0
C149 C 0.75833 0.26626 0.6378 0.0
C150 C 0.69871 0.16603 0.61902 0.0
O151 O 0.62442 0.261 0.63206 0.0
O152 O 0.59314 0.29683 0.61462 0.0
C153 C 0.69869 0.32902 0.61129 0.0
O154 O 0.72962 0.27563 0.62884 0.0
O155 O 0.75895 0.23718 0.64583 0.0
O156 O 0.71566 0.16301 0.63198 0.0
O157 O 0.6828 0.19613 0.61404 0.0
O158 O 0.66913 0.3314 0.60268 0.0
O159 O 0.7063 0.30025 0.61984 0.0
O160 O 0.66558 0.22048 0.60285 0.0
O161 O 0.62892 0.25716 0.58759 0.0
C162 C 0.64658 0.22789 0.59013 0.0
O163 O 0.64908 0.24436 0.6436 0.0
O164 O 0.68337 0.20678 0.65937 0.0
C165 C 0.59558 0.27957 0.62705 0.0
C166 C 0.656 0.22729 0.65641 0.0
Zn167 Zn 0.06842 0.20584 0.85238 0.0
Zn168 Zn 0.15467 0.28 0.88909 0.0
Zn169 Zn 0.11088 0.24326 0.87108 0.0
C170 C 0.14507 0.2141 0.90409 0.0
C171 C 0.091 0.32001 0.88345 0.0
O172 O 0.13669 0.23899 0.85076 0.0
O173 O 0.10034 0.20353 0.83692 0.0
C174 C 0.08312 0.1611 0.878 0.0
O175 O 0.12287 0.21005 0.8922 0.0
O176 O 0.16452 0.24198 0.90525 0.0
O177 O 0.12104 0.31941 0.89172 0.0
O178 O 0.08261 0.29427 0.87475 0.0
O179 O 0.06373 0.16213 0.86552 0.0
O180 O 0.10274 0.18855 0.88189 0.0
O181 O 0.05849 0.27303 0.86577 0.0
O182 O 0.02754 0.2407 0.84885 0.0
C183 C 0.02959 0.26769 0.85668 0.0
O184 O 0.16175 0.2551 0.86136 0.0
O185 O 0.19309 0.29093 0.8768 0.0
C186 C 0.12871 0.22228 0.8388 0.0
C187 C 0.19008 0.27434 0.86507 0.0
H188 H 0.17459 0.35634 0.0612 0.0
H189 H 0.17705 0.42245 0.06266 0.0
H190 H 0.17636 0.40922 0.10978 0.0
H191 H 0.17466 0.34342 0.10837 0.0
H192 H 0.12976 0.46976 0.0721 0.0
H193 H 0.26296 0.47417 0.10707 0.0
H194 H 0.24679 0.43421 0.09799 0.0
H195 H 0.23209 0.44448 0.11519 0.0
C196 C 0.17532 0.36771 0.07186 0.0
C197 C 0.17481 0.34485 0.08469 0.0
C198 C 0.17656 0.40538 0.07268 0.0
C199 C 0.17746 0.42085 0.08636 0.0
C200 C 0.17653 0.39797 0.09915 0.0
H201 H 0.12394 0.63204 0.11062 0.0
H202 H 0.12145 0.57233 0.1004 0.0
C203 C 0.17541 0.36037 0.09834 0.0
C204 C 0.17887 0.46084 0.08733 0.0
H205 H 0.22609 0.52734 0.10561 0.0
C206 C 0.15104 0.48246 0.0793 0.0
C207 C 0.20699 0.4776 0.09646 0.0
C208 C 0.2391 0.45647 0.10454 0.0
C209 C 0.14978 0.52011 0.08066 0.0
C210 C 0.17667 0.53645 0.09056 0.0
C211 C 0.20524 0.51496 0.0981 0.0
C212 C 0.17516 0.57524 0.09395 0.0
C213 C 0.11974 0.54193 0.07145 0.0
C214 C 0.20587 0.59719 0.09357 0.0
C215 C 0.20741 0.63103 0.09961 0.0
C216 C 0.17807 0.6438 0.1059 0.0
C217 C 0.14649 0.62306 0.10546 0.0
C218 C 0.14509 0.58895 0.09959 0.0
H219 H 0.10964 0.52865 0.06113 0.0
H220 H 0.09674 0.54402 0.07785 0.0
H221 H 0.12877 0.5697 0.06848 0.0
H222 H 0.22946 0.58727 0.08935 0.0
H223 H 0.23228 0.64636 0.10012 0.0
H224 H 0.00815 0.72534 0.33047 0.0
H225 H 0.94201 0.72137 0.32857 0.0
H226 H 0.93846 0.82625 0.34634 0.0
H227 H 1.00457 0.83027 0.34825 0.0
H228 H 0.90364 0.72294 0.35262 0.0
H229 H 0.85765 0.83356 0.31074 0.0
H230 H 0.90275 0.81445 0.31291 0.0
H231 H 0.89155 0.84754 0.32515 0.0
C232 C 0.99314 0.74774 0.33376 0.0
C233 C 0.01133 0.77822 0.33945 0.0
C234 C 0.95543 0.74546 0.33265 0.0
C235 C 0.93525 0.77375 0.33708 0.0
C236 C 0.95338 0.80448 0.34253 0.0
H237 H 0.73843 0.82369 0.365 0.0
H238 H 0.79484 0.82173 0.35441 0.0
C239 C 0.99108 0.80669 0.3437 0.0
C240 C 0.89577 0.76985 0.3374 0.0
H241 H 0.81449 0.81248 0.3265 0.0
C242 C 0.88397 0.74204 0.34669 0.0
C243 C 0.87022 0.79476 0.32961 0.0
C244 C 0.88108 0.82406 0.31892 0.0
C245 C 0.84772 0.73992 0.34919 0.0
C246 C 0.82242 0.7659 0.34194 0.0
C247 C 0.83389 0.79258 0.33204 0.0
C248 C 0.78545 0.76867 0.34604 0.0
C249 C 0.83737 0.7113 0.36031 0.0
C250 C 0.76071 0.74003 0.34436 0.0
C251 C 0.72845 0.74096 0.35056 0.0
C252 C 0.72028 0.7708 0.3583 0.0
C253 C 0.74406 0.80031 0.35912 0.0
C254 C 0.77623 0.79929 0.35301 0.0
H255 H 0.86141 0.69749 0.3668 0.0
H256 H 0.82122 0.72332 0.36812 0.0
H257 H 0.82053 0.69053 0.35443 0.0
H258 H 0.76704 0.71635 0.33882 0.0
H259 H 0.71091 0.71761 0.34996 0.0
H260 H 0.77271 0.66973 0.60065 0.0
H261 H 0.79045 0.6108 0.61371 0.0
H262 H 0.68649 0.56734 0.59692 0.0
H263 H 0.66878 0.62568 0.58414 0.0
H264 H 0.71161 0.54489 0.62686 0.0
H265 H 0.81474 0.52545 0.58938 0.0
H266 H 0.81749 0.56478 0.60007 0.0
H267 H 0.78082 0.56066 0.58537 0.0
C268 C 0.7535 0.64771 0.60009 0.0
C269 C 0.71954 0.65198 0.59131 0.0
C270 C 0.76372 0.61409 0.60743 0.0
C271 C 0.73995 0.58458 0.60611 0.0
C272 C 0.70528 0.58969 0.59808 0.0
H273 H 0.70752 0.37863 0.58916 0.0
H274 H 0.73112 0.43958 0.59167 0.0
C275 C 0.69522 0.62297 0.59074 0.0
C276 C 0.75114 0.54736 0.61186 0.0
H277 H 0.7954 0.47395 0.60209 0.0
C278 C 0.73079 0.52943 0.62185 0.0
C279 C 0.7762 0.52741 0.60527 0.0
C280 C 0.7986 0.54531 0.59438 0.0
C281 C 0.73218 0.49161 0.62432 0.0
C282 C 0.75505 0.47129 0.61675 0.0
C283 C 0.778 0.4896 0.60789 0.0
C284 C 0.74928 0.43194 0.61518 0.0
C285 C 0.70653 0.47354 0.63385 0.0
C286 C 0.75347 0.40662 0.62741 0.0
C287 C 0.73978 0.37148 0.62598 0.0
C288 C 0.72193 0.36138 0.61229 0.0
C289 C 0.72093 0.38576 0.59986 0.0
C290 C 0.73453 0.42061 0.60128 0.0
H291 H 0.68808 0.49322 0.63773 0.0
H292 H 0.68986 0.45318 0.62762 0.0
H293 H 0.72228 0.4593 0.6437 0.0
H294 H 0.76532 0.41462 0.6382 0.0
H295 H 0.74073 0.35328 0.63577 0.0
H296 H 0.6876 0.35199 0.84583 0.0
H297 H 0.75152 0.35814 0.85649 0.0
H298 H 0.78179 0.27836 0.82805 0.0
H299 H 0.71843 0.27199 0.81745 0.0
H300 H 0.81119 0.27258 0.8619 0.0
H301 H 0.8331 0.40257 0.8303 0.0
H302 H 0.793 0.39602 0.83912 0.0
H303 H 0.79839 0.37154 0.82329 0.0
C304 C 0.70792 0.33559 0.84197 0.0
C305 C 0.69809 0.31173 0.83073 0.0
C306 C 0.74433 0.33925 0.848 0.0
C307 C 0.77125 0.31886 0.84296 0.0
C308 C 0.76137 0.29443 0.83203 0.0
H309 H 0.98156 0.28641 0.8325 0.0
H310 H 0.91998 0.30873 0.8321 0.0
C311 C 0.7252 0.29097 0.82594 0.0
C312 C 0.81003 0.32283 0.84874 0.0
H313 H 0.88488 0.37105 0.84219 0.0
C314 C 0.82733 0.29459 0.85797 0.0
C315 C 0.83078 0.35152 0.84349 0.0
C316 C 0.81313 0.38228 0.83348 0.0
C317 C 0.8652 0.29314 0.86138 0.0
C318 C 0.8862 0.3208 0.85541 0.0
C319 C 0.8687 0.35013 0.84687 0.0
C320 C 0.92569 0.31591 0.85558 0.0
C321 C 0.8826 0.26062 0.87037 0.0
C322 C 0.94998 0.31442 0.86881 0.0
C323 C 0.98551 0.30181 0.86904 0.0
C324 C 0.99689 0.29041 0.85605 0.0
C325 C 0.97341 0.29491 0.84267 0.0
C326 C 0.93823 0.30772 0.84242 0.0
H327 H 0.86244 0.23995 0.87301 0.0
H328 H 0.9025 0.24784 0.86431 0.0
H329 H 0.89738 0.26935 0.88092 0.0
H330 H 0.94086 0.32093 0.87907 0.0
H331 H 1.00301 0.29834 0.87952 0.0
H332 H 0.04863 0.63035 0.91712 0.0
H333 H 0.04606 0.5663 0.91164 0.0
H334 H 0.01548 0.59689 0.86532 0.0
H335 H 0.01889 0.66097 0.87076 0.0
H336 H 0.98849 0.526 0.89857 0.0
H337 H 0.10173 0.53012 0.86488 0.0
H338 H 0.09316 0.56636 0.87623 0.0
H339 H 0.06554 0.56176 0.85874 0.0
C340 C 0.04161 0.62329 0.90578 0.0
C341 C 0.03423 0.65048 0.89436 0.0
C342 C 0.03995 0.58679 0.90266 0.0
C343 C 0.03095 0.57679 0.88805 0.0
C344 C 0.02312 0.60395 0.87663 0.0
H345 H 0.05102 0.35595 0.85956 0.0
H346 H 0.02627 0.41768 0.85884 0.0
C347 C 0.02494 0.6405 0.87975 0.0
C348 C 0.03011 0.53789 0.8849 0.0
H349 H 0.07303 0.47424 0.86803 0.0
C350 C 0.00673 0.51473 0.89178 0.0
C351 C 0.05368 0.52321 0.87592 0.0
C352 C 0.08018 0.5465 0.86859 0.0
C353 C 0.00714 0.47719 0.89031 0.0
C354 C 0.03183 0.46238 0.88188 0.0
C355 C 0.05393 0.48568 0.87441 0.0
C356 C 0.03918 0.42291 0.88241 0.0
C357 C 0.98164 0.45359 0.89803 0.0
C358 C 0.05362 0.40509 0.89592 0.0
C359 C 0.06782 0.3702 0.89632 0.0
C360 C 0.06775 0.35229 0.88323 0.0
C361 C 0.05096 0.369 0.86982 0.0
C362 C 0.03705 0.40428 0.8694 0.0
H363 H 0.95708 0.46891 0.89966 0.0
H364 H 0.97323 0.42963 0.89171 0.0
H365 H 0.99551 0.44392 0.9091 0.0
H366 H 0.0562 0.41908 0.90605 0.0
H367 H 0.08076 0.35797 0.90679 0.0
H368 H 0.7711 0.72473 0.16942 0.0
H369 H 0.83709 0.72004 0.17054 0.0
H370 H 0.83857 0.82508 0.14745 0.0
H371 H 0.77269 0.82978 0.14625 0.0
H372 H 0.87565 0.72305 0.14582 0.0
H373 H 0.91889 0.83161 0.18327 0.0
H374 H 0.8745 0.81145 0.18207 0.0
H375 H 0.88423 0.84565 0.16836 0.0
C376 C 0.78564 0.74699 0.16477 0.0
C377 C 0.76693 0.77794 0.15799 0.0
C378 C 0.82325 0.74427 0.16541 0.0
C379 C 0.84281 0.77251 0.15935 0.0
C380 C 0.82413 0.80337 0.15253 0.0
H381 H 0.03647 0.83143 0.12973 0.0
H382 H 0.98024 0.82504 0.14025 0.0
C383 C 0.78654 0.80599 0.1518 0.0
C384 C 0.88236 0.76897 0.15919 0.0
H385 H 0.96248 0.81219 0.16841 0.0
C386 C 0.89486 0.74202 0.15099 0.0
C387 C 0.9073 0.79365 0.16603 0.0
C388 C 0.89567 0.82203 0.17555 0.0
C389 C 0.9312 0.74074 0.14855 0.0
C390 C 0.95581 0.76667 0.15475 0.0
C391 C 0.94366 0.79229 0.16367 0.0
C392 C 0.99241 0.77119 0.15027 0.0
C393 C 0.94233 0.7132 0.13854 0.0
C394 C 0.01871 0.74347 0.15283 0.0
C395 C 0.05111 0.74703 0.1467 0.0
C396 C 0.05763 0.77843 0.13804 0.0
C397 C 0.03212 0.80679 0.13626 0.0
C398 C 0.99998 0.80324 0.14233 0.0
H399 H 0.91872 0.69897 0.13279 0.0
H400 H 0.95757 0.72636 0.13008 0.0
H401 H 0.96032 0.69265 0.14519 0.0
H402 H 0.0137 0.71873 0.15916 0.0
H403 H 0.07024 0.72469 0.14819 0.0
H404 H 0.65315 0.32605 0.43031 0.0
H405 H 0.65299 0.39201 0.42603 0.0
H406 H 0.54597 0.38805 0.40138 0.0
H407 H 0.54553 0.3222 0.4059 0.0
H408 H 0.64474 0.4347 0.39927 0.0
H409 H 0.53481 0.46207 0.43211 0.0
H410 H 0.55816 0.41905 0.43355 0.0
H411 H 0.52294 0.42984 0.4184 0.0
C412 C 0.62947 0.33923 0.42406 0.0
C413 C 0.59924 0.3188 0.41854 0.0
C414 C 0.62949 0.37692 0.42157 0.0
C415 C 0.59921 0.39504 0.41363 0.0
C416 C 0.56935 0.37471 0.4078 0.0
H417 H 0.53233 0.60416 0.377 0.0
H418 H 0.53889 0.54224 0.38778 0.0
C419 C 0.56933 0.337 0.41023 0.0
C420 C 0.59901 0.43513 0.4112 0.0
H421 H 0.55192 0.51119 0.41644 0.0
C422 C 0.62476 0.45153 0.40317 0.0
C423 C 0.57305 0.45704 0.41639 0.0
C424 C 0.54587 0.44121 0.42572 0.0
C425 C 0.62412 0.48903 0.39955 0.0
C426 C 0.59743 0.51083 0.40435 0.0
C427 C 0.57242 0.49452 0.4128 0.0
C428 C 0.59267 0.54979 0.39942 0.0
C429 C 0.6509 0.50471 0.38999 0.0
C430 C 0.62022 0.57516 0.40282 0.0
C431 C 0.61655 0.61083 0.3966 0.0
C432 C 0.58516 0.62166 0.38698 0.0
C433 C 0.55692 0.59666 0.38431 0.0
C434 C 0.56059 0.56122 0.39049 0.0
H435 H 0.66492 0.48337 0.38487 0.0
H436 H 0.6372 0.52362 0.38105 0.0
H437 H 0.67171 0.52012 0.39686 0.0
H438 H 0.64499 0.56711 0.40989 0.0
H439 H 0.639 0.62922 0.39868 0.0
H440 H 0.09759 0.30308 0.64169 0.0
H441 H 0.03381 0.30541 0.63097 0.0
H442 H 0.00963 0.36882 0.66637 0.0
H443 H 0.07345 0.36835 0.67666 0.0
H444 H 0.98269 0.27497 0.64395 0.0
H445 H 0.94559 0.41911 0.63272 0.0
H446 H 0.99214 0.40393 0.63615 0.0
H447 H 0.96753 0.41116 0.65133 0.0
C448 C 0.07894 0.3186 0.64692 0.0
C449 C 0.09069 0.33527 0.66013 0.0
C450 C 0.04238 0.31974 0.64081 0.0
C451 C 0.0168 0.3376 0.64775 0.0
C452 C 0.02877 0.35559 0.66057 0.0
H453 H 0.80881 0.27348 0.66165 0.0
H454 H 0.87023 0.29642 0.66185 0.0
C455 C 0.0653 0.35473 0.66661 0.0
C456 C 0.97736 0.33308 0.64293 0.0
H457 H 0.89619 0.37825 0.63715 0.0
C458 C 0.96396 0.29769 0.64211 0.0
C459 C 0.95267 0.36261 0.64042 0.0
C460 C 0.96532 0.40132 0.64004 0.0
C461 C 0.9267 0.29096 0.63979 0.0
C462 C 0.90207 0.3203 0.63847 0.0
C463 C 0.91522 0.3558 0.63837 0.0
C464 C 0.86299 0.31371 0.63862 0.0
C465 C 0.91385 0.2523 0.63934 0.0
C466 C 0.83809 0.31749 0.62561 0.0
C467 C 0.80269 0.30448 0.62547 0.0
C468 C 0.79203 0.28749 0.63835 0.0
C469 C 0.81636 0.28623 0.65155 0.0
C470 C 0.85143 0.29935 0.65169 0.0
H471 H 0.93543 0.23368 0.63706 0.0
H472 H 0.90569 0.2434 0.6502 0.0
H473 H 0.88995 0.24994 0.63075 0.0
H474 H 0.84663 0.32851 0.61541 0.0
H475 H 0.78456 0.30549 0.61513 0.0
H476 H 0.27767 0.23465 0.66725 0.0
H477 H 0.34354 0.23042 0.66797 0.0
H478 H 0.34333 0.33461 0.64408 0.0
H479 H 0.27749 0.33887 0.64332 0.0
H480 H 0.37981 0.23216 0.64279 0.0
H481 H 0.42593 0.34277 0.67884 0.0
H482 H 0.38152 0.32288 0.67828 0.0
H483 H 0.39059 0.35608 0.66409 0.0
C484 C 0.2918 0.25682 0.66233 0.0
C485 C 0.27265 0.28728 0.65535 0.0
C486 C 0.32935 0.25438 0.66275 0.0
C487 C 0.34838 0.28247 0.65631 0.0
C488 C 0.32929 0.31301 0.64942 0.0
H489 H 0.54604 0.33333 0.62614 0.0
H490 H 0.48873 0.33097 0.63611 0.0
C491 C 0.29175 0.31537 0.64892 0.0
C492 C 0.38771 0.2788 0.65572 0.0
H493 H 0.46864 0.32123 0.66407 0.0
C494 C 0.39943 0.25119 0.64766 0.0
C495 C 0.41314 0.30365 0.66212 0.0
C496 C 0.4023 0.33283 0.67144 0.0
C497 C 0.43554 0.24909 0.64503 0.0
C498 C 0.46076 0.27486 0.65094 0.0
C499 C 0.44932 0.30147 0.65958 0.0
C500 C 0.49777 0.27729 0.64676 0.0
C501 C 0.44582 0.22066 0.63521 0.0
C502 C 0.52252 0.24833 0.64984 0.0
C503 C 0.55533 0.24949 0.644 0.0
C504 C 0.56403 0.27985 0.6352 0.0
C505 C 0.54004 0.30951 0.63285 0.0
C506 C 0.50733 0.30827 0.6386 0.0
H507 H 0.42171 0.20747 0.62932 0.0
H508 H 0.4621 0.23266 0.62688 0.0
H509 H 0.46247 0.19939 0.64206 0.0
H510 H 0.51594 0.22437 0.65632 0.0
H511 H 0.57302 0.22603 0.6458 0.0
H512 H 0.57673 0.87744 0.17759 0.0
H513 H 0.51187 0.88172 0.1685 0.0
H514 H 0.52202 0.79378 0.14057 0.0
H515 H 0.58708 0.79 0.14937 0.0
H516 H 0.47556 0.84643 0.12669 0.0
H517 H 0.4414 0.80979 0.18294 0.0
H518 H 0.46816 0.84988 0.18164 0.0
H519 H 0.48688 0.80674 0.17857 0.0
C520 C 0.56513 0.85922 0.16942 0.0
C521 C 0.58691 0.83314 0.1643 0.0
C522 C 0.52805 0.86159 0.16428 0.0
C523 C 0.51184 0.83749 0.15412 0.0
C524 C 0.53385 0.81257 0.14846 0.0
H525 H 0.31403 0.74397 0.12301 0.0
H526 H 0.3746 0.76991 0.12635 0.0
C527 C 0.57105 0.81046 0.15348 0.0
C528 C 0.47185 0.83687 0.14989 0.0
H529 H 0.39276 0.81992 0.1639 0.0
C530 C 0.45745 0.84098 0.13485 0.0
C531 C 0.44808 0.82986 0.16053 0.0
C532 C 0.46182 0.82349 0.17681 0.0
C533 C 0.42017 0.83729 0.13015 0.0
C534 C 0.3967 0.82908 0.14075 0.0
C535 C 0.41079 0.82659 0.15581 0.0
C536 C 0.35876 0.81754 0.13647 0.0
C537 C 0.40621 0.84139 0.11386 0.0
C538 C 0.32951 0.83594 0.14088 0.0
C539 C 0.29457 0.8212 0.13883 0.0
C540 C 0.28877 0.78762 0.1326 0.0
C541 C 0.31782 0.77005 0.12774 0.0
C542 C 0.35239 0.78493 0.12958 0.0
H543 H 0.42475 0.85795 0.10771 0.0
H544 H 0.40418 0.81424 0.10933 0.0
H545 H 0.37888 0.85407 0.11189 0.0
H546 H 0.33396 0.86095 0.14638 0.0
H547 H 0.27265 0.83491 0.14287 0.0
H548 H 0.50212 0.29786 0.81898 0.0
H549 H 0.43745 0.2998 0.82125 0.0
H550 H 0.45639 0.22739 0.86038 0.0
H551 H 0.52119 0.22634 0.8584 0.0
H552 H 0.38596 0.2473 0.82131 0.0
H553 H 0.40497 0.31109 0.87505 0.0
H554 H 0.44095 0.30787 0.86392 0.0
H555 H 0.42975 0.2695 0.87545 0.0
C556 C 0.49248 0.2828 0.82818 0.0
C557 C 0.51677 0.26302 0.83884 0.0
C558 C 0.45554 0.28368 0.82939 0.0
C559 C 0.4422 0.26442 0.84118 0.0
C560 C 0.46623 0.24332 0.85145 0.0
H561 H 0.21776 0.21849 0.85187 0.0
H562 H 0.27783 0.21633 0.84394 0.0
C563 C 0.50319 0.24268 0.85031 0.0
C564 C 0.40328 0.26677 0.84284 0.0
H565 H 0.34614 0.28975 0.86682 0.0
C566 C 0.37718 0.25671 0.83123 0.0
C567 C 0.39185 0.27957 0.85569 0.0
C568 C 0.4183 0.29297 0.86818 0.0
C569 C 0.33997 0.25869 0.83223 0.0
C570 C 0.32863 0.27037 0.84528 0.0
C571 C 0.35478 0.28065 0.85681 0.0
C572 C 0.28991 0.27271 0.84736 0.0
C573 C 0.31318 0.24913 0.81918 0.0
C574 C 0.27631 0.30521 0.85157 0.0
C575 C 0.24238 0.30628 0.85627 0.0
C576 C 0.22114 0.27499 0.85671 0.0
C577 C 0.23344 0.2431 0.85144 0.0
C578 C 0.26776 0.24188 0.84691 0.0
H579 H 0.32526 0.25147 0.80873 0.0
H580 H 0.30437 0.22073 0.82091 0.0
H581 H 0.28893 0.26693 0.81795 0.0
H582 H 0.29276 0.32938 0.85193 0.0
H583 H 0.23348 0.33121 0.86028 0.0
H584 H 0.21302 0.84405 0.3132 0.0
H585 H 0.27648 0.84646 0.32379 0.0
H586 H 0.25092 0.79662 0.36491 0.0
H587 H 0.1876 0.79156 0.35402 0.0
H588 H 0.31491 0.8768 0.34642 0.0
H589 H 0.32516 0.72706 0.35587 0.0
H590 H 0.28561 0.74918 0.34569 0.0
H591 H 0.29282 0.74766 0.36558 0.0
C592 C 0.22082 0.83313 0.32444 0.0
C593 C 0.19512 0.81672 0.33259 0.0
C594 C 0.25717 0.83502 0.33057 0.0
C595 C 0.26877 0.82096 0.34505 0.0
C596 C 0.24287 0.80674 0.35357 0.0
H597 H 0.49879 0.78873 0.38245 0.0
H598 H 0.43615 0.81026 0.38186 0.0
C599 C 0.20649 0.80432 0.34737 0.0
C600 C 0.30818 0.81941 0.3507 0.0
H601 H 0.37817 0.76011 0.36187 0.0
C602 C 0.32864 0.85132 0.34999 0.0
C603 C 0.32628 0.78613 0.35531 0.0
C604 C 0.30648 0.75051 0.35555 0.0
C605 C 0.36662 0.85057 0.35322 0.0
C606 C 0.38449 0.81724 0.3574 0.0
C607 C 0.36413 0.78569 0.35883 0.0
C608 C 0.4241 0.81315 0.358 0.0
C609 C 0.3877 0.885 0.3516 0.0
C610 C 0.43815 0.80883 0.34479 0.0
C611 C 0.4734 0.79604 0.34512 0.0
C612 C 0.49538 0.78786 0.35866 0.0
C613 C 0.48244 0.79523 0.37187 0.0
C614 C 0.44673 0.80738 0.37155 0.0
H615 H 0.37 0.90938 0.35051 0.0
H616 H 0.40902 0.88707 0.36127 0.0
H617 H 0.4014 0.8845 0.3416 0.0
H618 H 0.42097 0.81285 0.33424 0.0
H619 H 0.48275 0.79044 0.3348 0.0
H620 H 0.72298 0.83926 0.60205 0.0
H621 H 0.72532 0.90556 0.60231 0.0
H622 H 0.62683 0.91399 0.57142 0.0
H623 H 0.62445 0.84777 0.57111 0.0
H624 H 0.7239 0.96093 0.57723 0.0
H625 H 0.60612 0.96823 0.60828 0.0
H626 H 0.6311 0.92676 0.6077 0.0
H627 H 0.60036 0.94329 0.59187 0.0
C628 C 0.70205 0.85537 0.59524 0.0
C629 C 0.67349 0.8385 0.58662 0.0
C630 C 0.7034 0.89312 0.59537 0.0
C631 C 0.67607 0.91461 0.58698 0.0
C632 C 0.64797 0.89786 0.57808 0.0
H633 H 0.64251 0.14541 0.59862 0.0
H634 H 0.636 0.08724 0.58706 0.0
C635 C 0.64669 0.8601 0.5779 0.0
C636 C 0.67643 0.95442 0.58804 0.0
H637 H 0.63511 0.02271 0.60289 0.0
C638 C 0.7043 0.97456 0.5827 0.0
C639 C 0.65058 0.97216 0.59504 0.0
C640 C 0.62039 0.95164 0.60116 0.0
C641 C 0.70756 0.01189 0.58453 0.0
C642 C 0.68282 0.0293 0.59222 0.0
C643 C 0.65403 0.00941 0.59698 0.0
C644 C 0.68865 0.06672 0.59703 0.0
C645 C 0.73768 0.03225 0.57831 0.0
C646 C 0.72053 0.07477 0.60626 0.0
C647 C 0.72438 0.10795 0.61272 0.0
C648 C 0.69637 0.13385 0.61014 0.0
C649 C 0.66491 0.1264 0.60049 0.0
C650 C 0.66104 0.09303 0.594 0.0
H651 H 0.74532 0.01927 0.56855 0.0
H652 H 0.72989 0.06084 0.57501 0.0
H653 H 0.76195 0.03194 0.58684 0.0
H654 H 0.74183 0.05468 0.6091 0.0
H655 H 0.74884 0.11282 0.62019 0.0
H656 H 0.1981 0.16316 0.10261 0.0
H657 H 0.21378 0.10267 0.11406 0.0
H658 H 0.29784 0.09399 0.08649 0.0
H659 H 0.28127 0.15397 0.07472 0.0
H660 H 0.25266 0.04047 0.08291 0.0
H661 H 0.28959 0.05045 0.14296 0.0
H662 H 0.24765 0.07354 0.13655 0.0
H663 H 0.28863 0.08946 0.13002 0.0
C664 C 0.22083 0.14884 0.09944 0.0
C665 C 0.23856 0.1631 0.08784 0.0
C666 C 0.22992 0.11429 0.10602 0.0
C667 C 0.25728 0.09372 0.10125 0.0
C668 C 0.27676 0.10927 0.09041 0.0
H669 H 0.25712 0.85376 0.10909 0.0
H670 H 0.28633 0.91354 0.10785 0.0
C671 C 0.26738 0.14356 0.08372 0.0
C672 C 0.26113 0.05434 0.10564 0.0
H673 H 0.26413 0.99275 0.13519 0.0
C674 C 0.25624 0.02999 0.09436 0.0
C675 C 0.26585 0.04055 0.12056 0.0
C676 C 0.27361 0.06494 0.13319 0.0
C677 C 0.25304 0.99264 0.09754 0.0
C678 C 0.25529 0.97908 0.11245 0.0
C679 C 0.26251 1.00312 0.12377 0.0
C680 C 0.24339 0.94175 0.11622 0.0
C681 C 0.24442 0.96839 0.08486 0.0
C682 C 0.21083 0.93751 0.12211 0.0
C683 C 0.19445 0.90374 0.12286 0.0
C684 C 0.21043 0.87338 0.11788 0.0
C685 C 0.24447 0.8768 0.11308 0.0
C686 C 0.26095 0.91091 0.11227 0.0
H687 H 0.2392 0.98394 0.07399 0.0
H688 H 0.26757 0.94979 0.08463 0.0
H689 H 0.22026 0.95169 0.08633 0.0
H690 H 0.19677 0.9608 0.12522 0.0
H691 H 0.16819 0.90171 0.12663 0.0
H692 H 0.54796 0.12556 0.42092 0.0
H693 H 0.54546 0.06164 0.41523 0.0
H694 H 0.50846 0.09285 0.36941 0.0
H695 H 0.51172 0.15683 0.37505 0.0
H696 H 0.48736 0.0202 0.40312 0.0
H697 H 0.59541 0.02844 0.36685 0.0
H698 H 0.5876 0.06402 0.37864 0.0
H699 H 0.55809 0.05927 0.36161 0.0
C700 C 0.53933 0.11866 0.40965 0.0
C701 C 0.52995 0.14598 0.39843 0.0
C702 C 0.53779 0.08223 0.4064 0.0
C703 C 0.52707 0.07244 0.39186 0.0
C704 C 0.51734 0.09974 0.38066 0.0
H705 H 0.54775 0.85224 0.36237 0.0
H706 H 0.52223 0.91353 0.3622 0.0
C707 C 0.51902 0.13623 0.38389 0.0
C708 C 0.5267 0.03364 0.38854 0.0
H709 H 0.56885 0.97166 0.37054 0.0
C710 C 0.50491 0.00964 0.39587 0.0
C711 C 0.54936 0.01986 0.37898 0.0
C712 C 0.57419 0.04409 0.37114 0.0
C713 C 0.50608 0.97217 0.39428 0.0
C714 C 0.52995 0.95829 0.38527 0.0
C715 C 0.55038 0.98239 0.37737 0.0
C716 C 0.53834 0.91904 0.38561 0.0
C717 C 0.48231 0.94765 0.40251 0.0
C718 C 0.55494 0.90154 0.39885 0.0
C719 C 0.56959 0.86691 0.39894 0.0
C720 C 0.56781 0.84891 0.3858 0.0
C721 C 0.54904 0.86532 0.37269 0.0
C722 C 0.53469 0.90037 0.37257 0.0
H723 H 0.45789 0.96222 0.40479 0.0
H724 H 0.47363 0.92374 0.39619 0.0
H725 H 0.49773 0.9379 0.41329 0.0
H726 H 0.55868 0.91558 0.40898 0.0
H727 H 0.58402 0.85493 0.40918 0.0
H728 H 0.1234 0.81974 0.90111 0.0
H729 H 0.12754 0.88534 0.89616 0.0
H730 H 0.05966 0.90251 0.92962 0.0
H731 H 0.05621 0.83712 0.93483 0.0
H732 H 0.07727 0.93343 0.88625 0.0
H733 H 0.13971 0.97142 0.9415 0.0
H734 H 0.13683 0.92504 0.93648 0.0
H735 H 0.09861 0.94671 0.94239 0.0
C736 C 0.10939 0.83756 0.9074 0.0
C737 C 0.08966 0.82331 0.91841 0.0
C738 C 0.11193 0.87504 0.90463 0.0
C739 C 0.09464 0.89903 0.91276 0.0
C740 C 0.0743 0.88475 0.92355 0.0
H741 H 0.02794 0.11488 0.88089 0.0
H742 H 0.03235 0.05222 0.89103 0.0
C743 C 0.0721 0.84732 0.92644 0.0
C744 C 0.09608 0.93883 0.90934 0.0
H745 H 0.11295 0.01996 0.92489 0.0
C746 C 0.08541 0.95224 0.8947 0.0
C747 C 0.10727 0.96354 0.92029 0.0
C748 C 0.12163 0.95092 0.93601 0.0
C749 C 0.08451 0.9895 0.89079 0.0
C750 C 0.09347 0.01429 0.90189 0.0
C751 C 0.10541 1.00098 0.91644 0.0
C752 C 0.08995 0.054 0.89844 0.0
C753 C 0.07418 1.00191 0.87472 0.0
C754 C 0.12033 0.07667 0.90028 0.0
C755 C 0.11769 0.11293 0.89473 0.0
C756 C 0.08467 0.12677 0.88722 0.0
C757 C 0.05381 0.10479 0.8865 0.0
C758 C 0.05635 0.0689 0.89219 0.0
H759 H 0.07877 0.98026 0.8673 0.0
H760 H 0.04497 0.00905 0.8727 0.0
H761 H 0.08984 0.02613 0.8717 0.0
H762 H 0.14647 0.0658 0.90522 0.0
H763 H 0.14193 0.12924 0.89536 0.0
H764 H 0.19956 0.25865 0.02851 0.0
H765 H 0.17965 0.24395 0.00297 0.0
H766 H 0.1353 0.14331 0.01846 0.0
H767 H 0.15463 0.15801 0.04403 0.0
H768 H 0.18051 0.13533 0.99685 0.0
H769 H 0.07772 0.2426 0.97923 0.0
H770 H 0.11983 0.26015 0.9878 0.0
H771 H 0.09375 0.23034 0.99845 0.0
C772 C 0.18492 0.23376 0.0265 0.0
C773 C 0.17884 0.20945 0.03831 0.0
C774 C 0.17356 0.22537 0.0119 0.0
C775 C 0.15571 0.19268 0.00884 0.0
C776 C 0.149 0.16867 0.02059 0.0
H777 H 0.08646 0.18239 0.91424 0.0
H778 H 0.08328 0.16342 0.9402 0.0
C779 C 0.16024 0.17707 0.03518 0.0
C780 C 0.14621 0.18274 0.99336 0.0
H781 H 0.10319 0.2151 0.95982 0.0
C782 C 0.16301 0.15232 0.98878 0.0
C783 C 0.12275 0.20438 0.98292 0.0
C784 C 0.10216 0.23598 0.98736 0.0
C785 C 0.15921 0.14471 0.97381 0.0
C786 C 0.13839 0.16832 0.96319 0.0
C787 C 0.11929 0.19701 0.96795 0.0
C788 C 0.14089 0.16797 0.94718 0.0
C789 C 0.17856 0.11223 0.96943 0.0
C790 C 0.17449 0.17485 0.94238 0.0
C791 C 0.17628 0.18578 0.92765 0.0
C792 C 0.14453 0.18998 0.91748 0.0
C793 C 0.11136 0.17908 0.92187 0.0
C794 C 0.10949 0.16847 0.9367 0.0
H795 H 0.18131 0.09039 0.97842 0.0
H796 H 0.16414 0.10141 0.95919 0.0
H797 H 0.20622 0.12021 0.96741 0.0
H798 H 0.19899 0.17526 0.95025 0.0
H799 H 0.20217 0.19412 0.92452 0.0
H800 H 0.06795 0.83121 0.28124 0.0
H801 H 0.06124 0.82072 0.25474 0.0
H802 H 0.14128 0.73549 0.26364 0.0
H803 H 0.14833 0.74599 0.29005 0.0
H804 H 0.12767 0.82289 0.2383 0.0
H805 H 0.04972 0.69484 0.23564 0.0
H806 H 0.04725 0.72624 0.24984 0.0
H807 H 0.08595 0.69709 0.25076 0.0
C808 C 0.08366 0.80989 0.27753 0.0
C809 C 0.10875 0.78947 0.28764 0.0
C810 C 0.07985 0.80399 0.26244 0.0
C811 C 0.10053 0.77715 0.25732 0.0
C812 C 0.12481 0.75607 0.26744 0.0
H813 H 0.16449 0.68995 0.18236 0.0
H814 H 0.14346 0.70277 0.20556 0.0
C815 C 0.12899 0.76224 0.28247 0.0
C816 C 0.09937 0.77296 0.24132 0.0
H817 H 0.07892 0.71249 0.21483 0.0
C818 C 0.11646 0.79914 0.23302 0.0
C819 C 0.08485 0.74183 0.23462 0.0
C820 C 0.06564 0.7134 0.2431 0.0
C821 C 0.12142 0.79399 0.21837 0.0
C822 C 0.10785 0.76222 0.21174 0.0
C823 C 0.08921 0.73685 0.21989 0.0
C824 C 0.11634 0.75292 0.19705 0.0
C825 C 0.14319 0.82151 0.21052 0.0
C826 C 0.10717 0.77628 0.18439 0.0
C827 C 0.11985 0.76938 0.17115 0.0
C828 C 0.141 0.73843 0.17023 0.0
C829 C 0.14829 0.71408 0.1827 0.0
C830 C 0.13613 0.72126 0.19596 0.0
H831 H 0.15838 0.83985 0.21829 0.0
H832 H 0.1628 0.80798 0.20455 0.0
H833 H 0.12464 0.83839 0.20233 0.0
H834 H 0.0913 0.80051 0.18489 0.0
H835 H 0.11441 0.78906 0.16187 0.0
H836 H 0.72901 0.6802 0.53791 0.0
H837 H 0.71064 0.66863 0.51191 0.0
H838 H 0.60512 0.71409 0.51392 0.0
H839 H 0.62428 0.72735 0.53979 0.0
H840 H 0.66004 0.62731 0.49865 0.0
H841 H 0.63089 0.77038 0.4785 0.0
H842 H 0.65282 0.75816 0.49694 0.0
H843 H 0.60448 0.75431 0.49247 0.0
C844 C 0.70205 0.68807 0.5327 0.0
C845 C 0.67816 0.70508 0.54069 0.0
C846 C 0.69147 0.68125 0.5179 0.0
C847 C 0.65662 0.69088 0.51086 0.0
C848 C 0.63244 0.70729 0.51896 0.0
H849 H 0.58069 0.68692 0.41637 0.0
H850 H 0.57731 0.67113 0.44258 0.0
C851 C 0.64332 0.7148 0.53371 0.0
C852 C 0.64621 0.68403 0.49502 0.0
H853 H 0.6201 0.72649 0.46102 0.0
C854 C 0.65099 0.64897 0.49044 0.0
C855 C 0.63435 0.71226 0.48428 0.0
C856 C 0.63064 0.75093 0.48824 0.0
C857 C 0.64553 0.64176 0.47541 0.0
C858 C 0.63456 0.67015 0.46475 0.0
C859 C 0.62802 0.70469 0.46932 0.0
C860 C 0.63529 0.66673 0.4488 0.0
C861 C 0.65257 0.60425 0.47092 0.0
C862 C 0.66888 0.66753 0.44358 0.0
C863 C 0.67087 0.67715 0.42874 0.0
C864 C 0.63924 0.68555 0.41891 0.0
C865 C 0.6054 0.68017 0.42374 0.0
C866 C 0.60344 0.67132 0.4387 0.0
H867 H 0.65342 0.58374 0.48036 0.0
H868 H 0.63139 0.59663 0.46188 0.0
H869 H 0.67903 0.60382 0.46669 0.0
H870 H 0.69375 0.66447 0.45125 0.0
H871 H 0.69723 0.68136 0.42525 0.0
H872 H 0.6427 0.34873 0.77999 0.0
H873 H 0.63664 0.3407 0.75343 0.0
H874 H 0.56849 0.24801 0.75903 0.0
H875 H 0.57423 0.25606 0.78558 0.0
H876 H 0.66125 0.28082 0.74259 0.0
H877 H 0.51536 0.29948 0.72161 0.0
H878 H 0.53566 0.31463 0.73924 0.0
H879 H 0.52399 0.26783 0.73739 0.0
C880 C 0.626 0.32696 0.77552 0.0
C881 C 0.6091 0.30291 0.78486 0.0
C882 C 0.62239 0.32252 0.76034 0.0
C883 C 0.6018 0.29399 0.75421 0.0
C884 C 0.58377 0.27074 0.76344 0.0
H885 H 0.64428 0.18161 0.67965 0.0
H886 H 0.62415 0.19837 0.70264 0.0
C887 C 0.58721 0.27528 0.77862 0.0
C888 C 0.60315 0.28585 0.73864 0.0
H889 H 0.55133 0.27116 0.70569 0.0
C890 C 0.6372 0.27911 0.73451 0.0
C891 C 0.57175 0.28365 0.72808 0.0
C892 C 0.53464 0.29211 0.73174 0.0
C893 C 0.64073 0.26946 0.72024 0.0
C894 C 0.60933 0.26594 0.70985 0.0
C895 C 0.57525 0.27351 0.71378 0.0
C896 C 0.61227 0.25404 0.69496 0.0
C897 C 0.6781 0.26279 0.71637 0.0
C898 C 0.6105 0.27945 0.68285 0.0
C899 C 0.62203 0.26994 0.66969 0.0
C900 C 0.63532 0.23489 0.66851 0.0
C901 C 0.63422 0.20882 0.68027 0.0
C902 C 0.62265 0.2183 0.69338 0.0
H903 H 0.69967 0.27302 0.72469 0.0
H904 H 0.68234 0.23327 0.71585 0.0
H905 H 0.68098 0.27597 0.70536 0.0
H906 H 0.60275 0.30722 0.68394 0.0
H907 H 0.62308 0.29071 0.66089 0.0
H908 H 0.06244 0.7567 0.96304 0.0
H909 H 0.07574 0.73694 0.98924 0.0
H910 H 0.14986 0.65623 0.97898 0.0
H911 H 0.13666 0.67595 0.95259 0.0
H912 H 0.07522 0.65532 0.0035 0.0
H913 H 0.20505 0.73156 0.00987 0.0
H914 H 0.16885 0.74562 0.99543 0.0
H915 H 0.19278 0.70421 0.99431 0.0
C916 C 0.08145 0.73463 0.96635 0.0
C917 C 0.09875 0.71805 0.95581 0.0
C918 C 0.08882 0.72323 0.98128 0.0
C919 C 0.11377 0.69522 0.98598 0.0
C920 C 0.13046 0.67785 0.9755 0.0
H921 H 0.18721 0.69859 0.08114 0.0
H922 H 0.18458 0.67181 0.05708 0.0
C923 C 0.12285 0.68908 0.96048 0.0
C924 C 0.12357 0.68634 0.00199 0.0
H925 H 0.18056 0.71412 0.03151 0.0
C926 C 0.09876 0.66726 0.00967 0.0
C927 C 0.15455 0.70151 0.00994 0.0
C928 C 0.18204 0.72191 0.00207 0.0
C929 C 0.10279 0.66531 0.02518 0.0
C930 C 0.13174 0.68381 0.0331 0.0
C931 C 0.15829 0.70004 0.02544 0.0
C932 C 0.13114 0.69294 0.04861 0.0
C933 C 0.07507 0.6449 0.0329 0.0
C934 C 0.10186 0.71313 0.0519 0.0
C935 C 0.10334 0.72827 0.06551 0.0
C936 C 0.13417 0.72363 0.07616 0.0
C937 C 0.16286 0.70194 0.07322 0.0
C938 C 0.16146 0.68686 0.05947 0.0
H939 H 0.06458 0.62147 0.02661 0.0
H940 H 0.08652 0.63496 0.04429 0.0
H941 H 0.05179 0.66307 0.03352 0.0
H942 H 0.07862 0.71909 0.0436 0.0
H943 H 0.08086 0.74491 0.06748 0.0
H944 H 0.71339 0.76708 0.2095 0.0
H945 H 0.7197 0.7531 0.23625 0.0
H946 H 0.6508 0.84384 0.24072 0.0
H947 H 0.64474 0.85843 0.21402 0.0
H948 H 0.73787 0.80057 0.26373 0.0
H949 H 0.59886 0.7443 0.25253 0.0
H950 H 0.62745 0.75149 0.23826 0.0
H951 H 0.6055 0.78924 0.24473 0.0
C952 C 0.70043 0.78471 0.21622 0.0
C953 C 0.67819 0.81363 0.20962 0.0
C954 C 0.70409 0.77667 0.23149 0.0
C955 C 0.68561 0.79739 0.24038 0.0
C956 C 0.66521 0.82755 0.23398 0.0
H957 H 0.65954 0.78683 0.33256 0.0
H958 H 0.68226 0.80302 0.30917 0.0
C959 C 0.66153 0.83562 0.21874 0.0
C960 C 0.6834 0.78468 0.25584 0.0
H961 H 0.6249 0.74538 0.2774 0.0
C962 C 0.71331 0.78838 0.26679 0.0
C963 C 0.65144 0.76841 0.25967 0.0
C964 C 0.61897 0.76279 0.24821 0.0
C965 C 0.71168 0.77675 0.28163 0.0
C966 C 0.67931 0.76126 0.28547 0.0
C967 C 0.64974 0.75716 0.27442 0.0
C968 C 0.67444 0.7497 0.30085 0.0
C969 C 0.74451 0.78077 0.29303 0.0
C970 C 0.6634 0.71418 0.30407 0.0
C971 C 0.65013 0.70504 0.31732 0.0
C972 C 0.64796 0.73118 0.32762 0.0
C973 C 0.66148 0.76604 0.32488 0.0
C974 C 0.67456 0.77528 0.31155 0.0
H975 H 0.76962 0.78415 0.28785 0.0
H976 H 0.74108 0.80512 0.29919 0.0
H977 H 0.74783 0.75697 0.30112 0.0
H978 H 0.66298 0.69408 0.29594 0.0
H979 H 0.63985 0.67799 0.31918 0.0
H980 H 0.56744 0.19232 0.45849 0.0
H981 H 0.58381 0.17683 0.48502 0.0
H982 H 0.69299 0.21279 0.48237 0.0
H983 H 0.67593 0.23027 0.45601 0.0
H984 H 0.63038 0.13423 0.50283 0.0
H985 H 0.66551 0.27778 0.51197 0.0
H986 H 0.64481 0.26358 0.49432 0.0
H987 H 0.69268 0.25729 0.50005 0.0
C988 C 0.595 0.19652 0.4636 0.0
C989 C 0.62035 0.21288 0.45537 0.0
C990 C 0.60439 0.18759 0.47872 0.0
C991 C 0.63942 0.19448 0.48579 0.0
C992 C 0.6655 0.20831 0.47728 0.0
H993 H 0.70627 0.19852 0.58133 0.0
H994 H 0.71008 0.1791 0.55639 0.0
C995 C 0.65587 0.21805 0.46223 0.0
C996 C 0.64749 0.18993 0.50218 0.0
H997 H 0.67215 0.23716 0.53284 0.0
C998 C 0.63989 0.15664 0.50938 0.0
C999 C 0.65964 0.21927 0.51079 0.0
C1000 C 0.6658 0.25657 0.50392 0.0
C1001 C 0.64317 0.15232 0.5249 0.0
C1002 C 0.65477 0.18179 0.53335 0.0
C1003 C 0.66384 0.21446 0.52624 0.0
C1004 C 0.65232 0.18184 0.54932 0.0
C1005 C 0.63321 0.11682 0.53221 0.0
C1006 C 0.61851 0.18841 0.55369 0.0
C1007 C 0.61638 0.20018 0.56773 0.0
C1008 C 0.64799 0.20495 0.57767 0.0
C1009 C 0.68153 0.19468 0.57387 0.0
C1010 C 0.68374 0.18364 0.55966 0.0
H1011 H 0.63081 0.09477 0.52444 0.0
H1012 H 0.65373 0.10897 0.54188 0.0
H1013 H 0.60683 0.1199 0.53632 0.0
H1014 H 0.59405 0.18763 0.5458 0.0
H1015 H 0.59027 0.20809 0.57042 0.0
H1016 H 0.21202 0.26321 0.7068 0.0
H1017 H 0.21595 0.24647 0.73332 0.0
H1018 H 0.14345 0.33415 0.73802 0.0
H1019 H 0.13959 0.35127 0.71159 0.0
H1020 H 0.23448 0.28792 0.75989 0.0
H1021 H 0.09245 0.23951 0.75136 0.0
H1022 H 0.11852 0.24788 0.73631 0.0
H1023 H 0.09876 0.28501 0.74417 0.0
C1024 C 0.19747 0.27935 0.71353 0.0
C1025 C 0.17514 0.30832 0.70708 0.0
C1026 C 0.1997 0.2697 0.72866 0.0
C1027 C 0.17962 0.28881 0.73753 0.0
C1028 C 0.15874 0.31878 0.73128 0.0
H1029 H 0.16443 0.28319 0.83058 0.0
H1030 H 0.1847 0.2969 0.80653 0.0
C1031 C 0.15646 0.32841 0.71619 0.0
C1032 C 0.17834 0.27603 0.75309 0.0
H1033 H 0.12047 0.24185 0.7761 0.0
C1034 C 0.20966 0.27769 0.76348 0.0
C1035 C 0.14604 0.26218 0.75762 0.0
C1036 C 0.11206 0.25816 0.74679 0.0
C1037 C 0.20916 0.2667 0.77844 0.0
C1038 C 0.17651 0.25405 0.78305 0.0
C1039 C 0.14549 0.25168 0.77256 0.0
C1040 C 0.17311 0.24358 0.79869 0.0
C1041 C 0.2435 0.26819 0.78918 0.0
C1042 C 0.16102 0.20877 0.80244 0.0
C1043 C 0.14942 0.20095 0.81612 0.0
C1044 C 0.14973 0.22779 0.82633 0.0
C1045 C 0.16452 0.26179 0.82305 0.0
C1046 C 0.17606 0.26967 0.80929 0.0
H1047 H 0.26781 0.27081 0.78344 0.0
H1048 H 0.24237 0.29193 0.79592 0.0
H1049 H 0.24638 0.24346 0.79678 0.0
H1050 H 0.15849 0.18828 0.79441 0.0
H1051 H 0.13817 0.17451 0.81838 0.0
loop_
_geom_bond_atom_site_label_1
_geom_bond_atom_site_label_2
_geom_bond_distance
_geom_bond_site_symmetry_2
_ccdc_geom_bond_type
H0 C7 0.929 . S
H1 C10 0.930 . S
H2 C12 0.929 . S
H3 C4 0.969 . S
C4 H3 0.969 . S
C4 O5 1.550 . S
C4 H6 0.973 . S
O5 C4 1.550 . S
O5 C11 1.412 . S
H6 C4 0.973 . S
C7 H0 0.929 . S
C7 C8 1.400 . S
C7 C9 1.364 . S
C8 C7 1.400 . S
C8 C12 1.377 . S
C9 C7 1.364 . S
C9 C10 1.374 . S
C10 H1 0.930 . S
C10 C9 1.374 . S
C10 C11 1.383 . S
C11 O5 1.412 . S
C11 C10 1.383 . S
C11 C12 1.394 . S
C12 H2 0.929 . S
C12 C8 1.377 . S
C12 C11 1.394 . S
H13 C20 0.929 . S
H14 C23 0.930 . S
H15 C25 0.929 . S
H16 C17 0.969 . S
C17 H16 0.969 . S
C17 O18 1.550 . S
C17 H19 0.973 . S
O18 C17 1.550 . S
O18 C24 1.412 . S
H19 C17 0.973 . S
C20 H13 0.929 . S
C20 C21 1.400 . S
C20 C22 1.364 . S
C21 C20 1.400 . S
C21 C25 1.377 . S
C22 C20 1.364 . S
C22 C23 1.374 . S
C23 H14 0.930 . S
C23 C22 1.374 . S
C23 C24 1.383 . S
C24 O18 1.412 . S
C24 C23 1.383 . S
C24 C25 1.394 . S
C25 H15 0.929 . S
C25 C21 1.377 . S
C25 C24 1.394 . S
H26 C33 0.929 . S
H27 C36 0.930 . S
H28 C38 0.929 . S
H29 C30 0.969 . S
C30 H29 0.969 . S
C30 O31 1.550 . S
C30 H32 0.973 . S
O31 C30 1.550 . S
O31 C37 1.412 . S
H32 C30 0.973 . S
C33 H26 0.929 . S
C33 C34 1.400 . S
C33 C35 1.364 . S
C34 C33 1.400 . S
C34 C38 1.377 . S
C35 C33 1.364 . S
C35 C36 1.374 . S
C36 H27 0.930 . S
C36 C35 1.374 . S
C36 C37 1.383 . S
C37 O31 1.412 . S
C37 C36 1.383 . S
C37 C38 1.394 . S
C38 H28 0.929 . S
C38 C34 1.377 . S
C38 C37 1.394 . S
H39 C46 0.929 . S
H40 C49 0.930 . S
H41 C51 0.929 . S
H42 C43 0.969 . S
C43 H42 0.969 . S
C43 O44 1.550 . S
C43 H45 0.973 . S
O44 C43 1.550 . S
O44 C50 1.412 . S
H45 C43 0.973 . S
C46 H39 0.929 . S
C46 C47 1.400 . S
C46 C48 1.364 . S
C47 C46 1.400 . S
C47 C51 1.377 . S
C48 C46 1.364 . S
C48 C49 1.374 . S
C49 H40 0.930 . S
C49 C48 1.374 . S
C49 C50 1.383 . S
C50 O44 1.412 . S
C50 C49 1.383 . S
C50 C51 1.394 . S
C51 H41 0.929 . S
C51 C47 1.377 . S
C51 C50 1.394 . S
H52 C59 0.929 . S
H53 C62 0.930 . S
H54 C64 0.929 . S
H55 C56 0.969 . S
C56 H55 0.969 . S
C56 O57 1.550 . S
C56 H58 0.973 . S
O57 C56 1.550 . S
O57 C63 1.412 . S
H58 C56 0.973 . S
C59 H52 0.929 . S
C59 C60 1.400 . S
C59 C61 1.364 . S
C60 C59 1.400 . S
C60 C64 1.377 . S
C61 C59 1.364 . S
C61 C62 1.374 . S
C62 H53 0.930 . S
C62 C61 1.374 . S
C62 C63 1.383 . S
C63 O57 1.412 . S
C63 C62 1.383 . S
C63 C64 1.394 . S
C64 H54 0.929 . S
C64 C60 1.377 . S
C64 C63 1.394 . S
H65 C72 0.929 . S
H66 C75 0.930 . S
H67 C77 0.929 . S
H68 C69 0.969 . S
C69 H68 0.969 . S
C69 O70 1.550 . S
C69 H71 0.973 . S
O70 C69 1.550 . S
O70 C76 1.412 . S
H71 C69 0.973 . S
C72 H65 0.929 . S
C72 C73 1.400 . S
C72 C74 1.364 . S
C73 C72 1.400 . S
C73 C77 1.377 . S
C74 C72 1.364 . S
C74 C75 1.374 . S
C75 H66 0.930 . S
C75 C74 1.374 . S
C75 C76 1.383 . S
C76 O70 1.412 . S
C76 C75 1.383 . S
C76 C77 1.394 . S
C77 H67 0.929 . S
C77 C73 1.377 . S
C77 C76 1.394 . S
H78 C85 0.929 . S
H79 C88 0.930 . S
H80 C90 0.929 . S
H81 C82 0.969 . S
C82 H81 0.969 . S
C82 O83 1.550 . S
C82 H84 0.973 . S
O83 C82 1.550 . S
O83 C89 1.412 . S
H84 C82 0.973 . S
C85 H78 0.929 . S
C85 C86 1.400 . S
C85 C87 1.364 . S
C86 C85 1.400 . S
C86 C90 1.377 . S
C87 C85 1.364 . S
C87 C88 1.374 . S
C88 H79 0.930 . S
C88 C87 1.374 . S
C88 C89 1.383 . S
C89 O83 1.412 . S
C89 C88 1.383 . S
C89 C90 1.394 . S
C90 H80 0.929 . S
C90 C86 1.377 . S
C90 C89 1.394 . S
H91 C98 0.929 . S
H92 C101 0.930 . S
H93 C103 0.929 . S
H94 C95 0.969 . S
C95 H94 0.969 . S
C95 O96 1.550 . S
C95 H97 0.973 . S
O96 C95 1.550 . S
O96 C102 1.412 . S
H97 C95 0.973 . S
C98 H91 0.929 . S
C98 C99 1.400 . S
C98 C100 1.364 . S
C99 C98 1.400 . S
C99 C103 1.377 . S
C100 C98 1.364 . S
C100 C101 1.374 . S
C101 H92 0.930 . S
C101 C100 1.374 . S
C101 C102 1.383 . S
C102 O96 1.412 . S
C102 C101 1.383 . S
C102 C103 1.394 . S
C103 H93 0.929 . S
C103 C99 1.377 . S
C103 C102 1.394 . S
Zn104 O110 1.920 . S
Zn104 O116 1.898 . S
Zn104 O119 1.905 . S
Zn105 O113 1.905 . S
Zn105 O114 1.898 . S
Zn105 O122 1.920 . S
Zn106 O109 2.080 . S
Zn106 O112 2.114 . S
Zn106 O115 2.120 . S
Zn106 O117 2.120 . S
Zn106 O118 2.114 . S
Zn106 O121 2.080 . S
C107 O112 1.166 . S
C107 O113 1.182 . S
C108 O114 1.167 . S
C108 O115 1.299 . S
O109 Zn106 2.080 . S
O109 C123 1.305 . S
O110 Zn104 1.920 . S
O110 C123 1.234 . S
C111 O116 1.167 . S
C111 O117 1.299 . S
O112 Zn106 2.114 . S
O112 C107 1.166 . S
O113 Zn105 1.905 . S
O113 C107 1.182 . S
O114 Zn105 1.898 . S
O114 C108 1.167 . S
O115 Zn106 2.120 . S
O115 C108 1.299 . S
O116 Zn104 1.898 . S
O116 C111 1.167 . S
O117 Zn106 2.120 . S
O117 C111 1.299 . S
O118 Zn106 2.114 . S
O118 C120 1.166 . S
O119 Zn104 1.905 . S
O119 C120 1.182 . S
C120 O118 1.166 . S
C120 O119 1.182 . S
O121 Zn106 2.080 . S
O121 C124 1.305 . S
O122 Zn105 1.920 . S
O122 C124 1.234 . S
C123 O109 1.305 . S
C123 O110 1.234 . S
C124 O121 1.305 . S
C124 O122 1.234 . S
Zn125 O131 1.920 . S
Zn125 O137 1.898 . S
Zn125 O140 1.905 . S
Zn126 O134 1.905 . S
Zn126 O135 1.898 . S
Zn126 O143 1.920 . S
Zn127 O130 2.080 . S
Zn127 O133 2.114 . S
Zn127 O136 2.120 . S
Zn127 O138 2.120 . S
Zn127 O139 2.114 . S
Zn127 O142 2.080 . S
C128 O133 1.166 . S
C128 O134 1.182 . S
C129 O135 1.167 . S
C129 O136 1.299 . S
O130 Zn127 2.080 . S
O130 C144 1.305 . S
O131 Zn125 1.920 . S
O131 C144 1.234 . S
C132 O137 1.167 . S
C132 O138 1.299 . S
O133 Zn127 2.114 . S
O133 C128 1.166 . S
O134 Zn126 1.905 . S
O134 C128 1.182 . S
O135 Zn126 1.898 . S
O135 C129 1.167 . S
O136 Zn127 2.120 . S
O136 C129 1.299 . S
O137 Zn125 1.898 . S
O137 C132 1.167 . S
O138 Zn127 2.120 . S
O138 C132 1.299 . S
O139 Zn127 2.114 . S
O139 C141 1.166 . S
O140 Zn125 1.905 . S
O140 C141 1.182 . S
C141 O139 1.166 . S
C141 O140 1.182 . S
O142 Zn127 2.080 . S
O142 C145 1.305 . S
O143 Zn126 1.920 . S
O143 C145 1.234 . S
C144 O130 1.305 . S
C144 O131 1.234 . S
C145 O142 1.305 . S
C145 O143 1.234 . S
Zn146 O152 1.920 . S
Zn146 O158 1.898 . S
Zn146 O161 1.905 . S
Zn147 O155 1.905 . S
Zn147 O156 1.898 . S
Zn147 O164 1.920 . S
Zn148 O151 2.080 . S
Zn148 O154 2.114 . S
Zn148 O157 2.120 . S
Zn148 O159 2.120 . S
Zn148 O160 2.114 . S
Zn148 O163 2.080 . S
C149 O154 1.166 . S
C149 O155 1.182 . S
C150 O156 1.167 . S
C150 O157 1.299 . S
O151 Zn148 2.080 . S
O151 C165 1.305 . S
O152 Zn146 1.920 . S
O152 C165 1.234 . S
C153 O158 1.167 . S
C153 O159 1.299 . S
O154 Zn148 2.114 . S
O154 C149 1.166 . S
O155 Zn147 1.905 . S
O155 C149 1.182 . S
O156 Zn147 1.898 . S
O156 C150 1.167 . S
O157 Zn148 2.120 . S
O157 C150 1.299 . S
O158 Zn146 1.898 . S
O158 C153 1.167 . S
O159 Zn148 2.120 . S
O159 C153 1.299 . S
O160 Zn148 2.114 . S
O160 C162 1.166 . S
O161 Zn146 1.905 . S
O161 C162 1.182 . S
C162 O160 1.166 . S
C162 O161 1.182 . S
O163 Zn148 2.080 . S
O163 C166 1.305 . S
O164 Zn147 1.920 . S
O164 C166 1.234 . S
C165 O151 1.305 . S
C165 O152 1.234 . S
C166 O163 1.305 . S
C166 O164 1.234 . S
Zn167 O173 1.920 . S
Zn167 O179 1.898 . S
Zn167 O182 1.905 . S
Zn168 O176 1.905 . S
Zn168 O177 1.898 . S
Zn168 O185 1.920 . S
Zn169 O172 2.080 . S
Zn169 O175 2.114 . S
Zn169 O178 2.120 . S
Zn169 O180 2.120 . S
Zn169 O181 2.114 . S
Zn169 O184 2.080 . S
C170 O175 1.166 . S
C170 O176 1.182 . S
C171 O177 1.167 . S
C171 O178 1.299 . S
O172 Zn169 2.080 . S
O172 C186 1.305 . S
O173 Zn167 1.920 . S
O173 C186 1.234 . S
C174 O179 1.167 . S
C174 O180 1.299 . S
O175 Zn169 2.114 . S
O175 C170 1.166 . S
O176 Zn168 1.905 . S
O176 C170 1.182 . S
O177 Zn168 1.898 . S
O177 C171 1.167 . S
O178 Zn169 2.120 . S
O178 C171 1.299 . S
O179 Zn167 1.898 . S
O179 C174 1.167 . S
O180 Zn169 2.120 . S
O180 C174 1.299 . S
O181 Zn169 2.114 . S
O181 C183 1.166 . S
O182 Zn167 1.905 . S
O182 C183 1.182 . S
C183 O181 1.166 . S
C183 O182 1.182 . S
O184 Zn169 2.080 . S
O184 C187 1.305 . S
O185 Zn168 1.920 . S
O185 C187 1.234 . S
C186 O172 1.305 . S
C186 O173 1.234 . S
C187 O184 1.305 . S
C187 O185 1.234 . S
H188 C196 0.929 . S
H189 C198 0.930 . S
H190 C200 0.930 . S
H191 C203 0.929 . S
H192 C206 0.930 . S
H193 C208 0.960 . S
H194 C208 0.960 . S
H195 C208 0.960 . S
C196 H188 0.929 . S
C196 C197 1.377 . S
C196 C198 1.384 . S
C197 C196 1.377 . S
C197 C203 1.390 . S
C198 H189 0.930 . S
C198 C196 1.384 . S
C198 C199 1.372 . S
C199 C198 1.372 . S
C199 C200 1.400 . S
C199 C204 1.490 . S
C200 H190 0.930 . S
C200 C199 1.400 . S
C200 C203 1.386 . S
H201 C217 0.930 . S
H202 C218 0.931 . S
C203 H191 0.929 . S
C203 C197 1.390 . S
C203 C200 1.386 . S
C204 C199 1.490 . S
C204 C206 1.395 . S
C204 C207 1.403 . S
H205 C211 0.930 . S
C206 H192 0.930 . S
C206 C204 1.395 . S
C206 C209 1.403 . S
C207 C204 1.403 . S
C207 C208 1.524 . S
C207 C211 1.400 . S
C208 H193 0.960 . S
C208 H194 0.960 . S
C208 H195 0.960 . S
C208 C207 1.524 . S
C209 C206 1.403 . S
C209 C210 1.392 . S
C209 C213 1.495 . S
C210 C209 1.392 . S
C210 C211 1.385 . S
C210 C212 1.478 . S
C211 H205 0.930 . S
C211 C207 1.400 . S
C211 C210 1.385 . S
C212 C210 1.478 . S
C212 C214 1.381 . S
C212 C218 1.383 . S
C213 C209 1.495 . S
C213 H219 0.959 . S
C213 H220 0.961 . S
C213 H221 0.960 . S
C214 C212 1.381 . S
C214 C215 1.394 . S
C214 H222 0.930 . S
C215 C214 1.394 . S
C215 C216 1.383 . S
C215 H223 0.929 . S
C216 C215 1.383 . S
C216 C217 1.377 . S
C217 H201 0.930 . S
C217 C216 1.377 . S
C217 C218 1.379 . S
C218 H202 0.931 . S
C218 C212 1.383 . S
C218 C217 1.379 . S
H219 C213 0.959 . S
H220 C213 0.961 . S
H221 C213 0.960 . S
H222 C214 0.930 . S
H223 C215 0.929 . S
H224 C232 0.929 . S
H225 C234 0.930 . S
H226 C236 0.930 . S
H227 C239 0.929 1_455 S
H228 C242 0.930 . S
H229 C244 0.960 . S
H230 C244 0.960 . S
H231 C244 0.960 . S
C232 H224 0.929 . S
C232 C233 1.377 1_655 S
C232 C234 1.384 . S
C233 C232 1.377 1_455 S
C233 C239 1.390 1_455 S
C234 H225 0.930 . S
C234 C232 1.384 . S
C234 C235 1.372 . S
C235 C234 1.372 . S
C235 C236 1.400 . S
C235 C240 1.490 . S
C236 H226 0.930 . S
C236 C235 1.400 . S
C236 C239 1.386 . S
H237 C253 0.930 . S
H238 C254 0.931 . S
C239 H227 0.929 1_655 S
C239 C233 1.390 1_655 S
C239 C236 1.386 . S
C240 C235 1.490 . S
C240 C242 1.395 . S
C240 C243 1.403 . S
H241 C247 0.930 . S
C242 H228 0.930 . S
C242 C240 1.395 . S
C242 C245 1.403 . S
C243 C240 1.403 . S
C243 C244 1.524 . S
C243 C247 1.400 . S
C244 H229 0.960 . S
C244 H230 0.960 . S
C244 H231 0.960 . S
C244 C243 1.524 . S
C245 C242 1.403 . S
C245 C246 1.392 . S
C245 C249 1.495 . S
C246 C245 1.392 . S
C246 C247 1.385 . S
C246 C248 1.478 . S
C247 H241 0.930 . S
C247 C243 1.400 . S
C247 C246 1.385 . S
C248 C246 1.478 . S
C248 C250 1.381 . S
C248 C254 1.383 . S
C249 C245 1.495 . S
C249 H255 0.959 . S
C249 H256 0.961 . S
C249 H257 0.960 . S
C250 C248 1.381 . S
C250 C251 1.394 . S
C250 H258 0.930 . S
C251 C250 1.394 . S
C251 C252 1.383 . S
C251 H259 0.929 . S
C252 C251 1.383 . S
C252 C253 1.377 . S
C253 H237 0.930 . S
C253 C252 1.377 . S
C253 C254 1.379 . S
C254 H238 0.931 . S
C254 C248 1.383 . S
C254 C253 1.379 . S
H255 C249 0.959 . S
H256 C249 0.961 . S
H257 C249 0.960 . S
H258 C250 0.930 . S
H259 C251 0.929 . S
H260 C268 0.929 . S
H261 C270 0.930 . S
H262 C272 0.930 . S
H263 C275 0.929 . S
H264 C278 0.930 . S
H265 C280 0.960 . S
H266 C280 0.960 . S
H267 C280 0.960 . S
C268 H260 0.929 . S
C268 C269 1.377 . S
C268 C270 1.384 . S
C269 C268 1.377 . S
C269 C275 1.390 . S
C270 H261 0.930 . S
C270 C268 1.384 . S
C270 C271 1.372 . S
C271 C270 1.372 . S
C271 C272 1.400 . S
C271 C276 1.490 . S
C272 H262 0.930 . S
C272 C271 1.400 . S
C272 C275 1.386 . S
H273 C289 0.930 . S
H274 C290 0.931 . S
C275 H263 0.929 . S
C275 C269 1.390 . S
C275 C272 1.386 . S
C276 C271 1.490 . S
C276 C278 1.395 . S
C276 C279 1.403 . S
H277 C283 0.930 . S
C278 H264 0.930 . S
C278 C276 1.395 . S
C278 C281 1.403 . S
C279 C276 1.403 . S
C279 C280 1.524 . S
C279 C283 1.400 . S
C280 H265 0.960 . S
C280 H266 0.960 . S
C280 H267 0.960 . S
C280 C279 1.524 . S
C281 C278 1.403 . S
C281 C282 1.392 . S
C281 C285 1.495 . S
C282 C281 1.392 . S
C282 C283 1.385 . S
C282 C284 1.478 . S
C283 H277 0.930 . S
C283 C279 1.400 . S
C283 C282 1.385 . S
C284 C282 1.478 . S
C284 C286 1.381 . S
C284 C290 1.383 . S
C285 C281 1.495 . S
C285 H291 0.959 . S
C285 H292 0.961 . S
C285 H293 0.960 . S
C286 C284 1.381 . S
C286 C287 1.394 . S
C286 H294 0.930 . S
C287 C286 1.394 . S
C287 C288 1.383 . S
C287 H295 0.929 . S
C288 C287 1.383 . S
C288 C289 1.377 . S
C289 H273 0.930 . S
C289 C288 1.377 . S
C289 C290 1.379 . S
C290 H274 0.931 . S
C290 C284 1.383 . S
C290 C289 1.379 . S
H291 C285 0.959 . S
H292 C285 0.961 . S
H293 C285 0.960 . S
H294 C286 0.930 . S
H295 C287 0.929 . S
H296 C304 0.929 . S
H297 C306 0.930 . S
H298 C308 0.930 . S
H299 C311 0.929 . S
H300 C314 0.930 . S
H301 C316 0.960 . S
H302 C316 0.960 . S
H303 C316 0.960 . S
C304 H296 0.929 . S
C304 C305 1.377 . S
C304 C306 1.384 . S
C305 C304 1.377 . S
C305 C311 1.390 . S
C306 H297 0.930 . S
C306 C304 1.384 . S
C306 C307 1.372 . S
C307 C306 1.372 . S
C307 C308 1.400 . S
C307 C312 1.490 . S
C308 H298 0.930 . S
C308 C307 1.400 . S
C308 C311 1.386 . S
H309 C325 0.930 . S
H310 C326 0.931 . S
C311 H299 0.929 . S
C311 C305 1.390 . S
C311 C308 1.386 . S
C312 C307 1.490 . S
C312 C314 1.395 . S
C312 C315 1.403 . S
H313 C319 0.930 . S
C314 H300 0.930 . S
C314 C312 1.395 . S
C314 C317 1.403 . S
C315 C312 1.403 . S
C315 C316 1.524 . S
C315 C319 1.400 . S
C316 H301 0.960 . S
C316 H302 0.960 . S
C316 H303 0.960 . S
C316 C315 1.524 . S
C317 C314 1.403 . S
C317 C318 1.392 . S
C317 C321 1.495 . S
C318 C317 1.392 . S
C318 C319 1.385 . S
C318 C320 1.478 . S
C319 H313 0.930 . S
C319 C315 1.400 . S
C319 C318 1.385 . S
C320 C318 1.478 . S
C320 C322 1.381 . S
C320 C326 1.383 . S
C321 C317 1.495 . S
C321 H327 0.959 . S
C321 H328 0.961 . S
C321 H329 0.960 . S
C322 C320 1.381 . S
C322 C323 1.394 . S
C322 H330 0.930 . S
C323 C322 1.394 . S
C323 C324 1.383 . S
C323 H331 0.929 . S
C324 C323 1.383 . S
C324 C325 1.377 . S
C325 H309 0.930 . S
C325 C324 1.377 . S
C325 C326 1.379 . S
C326 H310 0.931 . S
C326 C320 1.383 . S
C326 C325 1.379 . S
H327 C321 0.959 . S
H328 C321 0.961 . S
H329 C321 0.960 . S
H330 C322 0.930 . S
H331 C323 0.929 . S
H332 C340 0.929 . S
H333 C342 0.930 . S
H334 C344 0.930 . S
H335 C347 0.929 . S
H336 C350 0.930 . S
H337 C352 0.960 . S
H338 C352 0.960 . S
H339 C352 0.960 . S
C340 H332 0.929 . S
C340 C341 1.377 . S
C340 C342 1.384 . S
C341 C340 1.377 . S
C341 C347 1.390 . S
C342 H333 0.930 . S
C342 C340 1.384 . S
C342 C343 1.372 . S
C343 C342 1.372 . S
C343 C344 1.400 . S
C343 C348 1.490 . S
C344 H334 0.930 . S
C344 C343 1.400 . S
C344 C347 1.386 . S
H345 C361 0.930 . S
H346 C362 0.931 . S
C347 H335 0.929 . S
C347 C341 1.390 . S
C347 C344 1.386 . S
C348 C343 1.490 . S
C348 C350 1.395 . S
C348 C351 1.403 . S
H349 C355 0.930 . S
C350 H336 0.930 . S
C350 C348 1.395 . S
C350 C353 1.403 . S
C351 C348 1.403 . S
C351 C352 1.524 . S
C351 C355 1.400 . S
C352 H337 0.960 . S
C352 H338 0.960 . S
C352 H339 0.960 . S
C352 C351 1.524 . S
C353 C350 1.403 . S
C353 C354 1.392 . S
C353 C357 1.495 . S
C354 C353 1.392 . S
C354 C355 1.385 . S
C354 C356 1.478 . S
C355 H349 0.930 . S
C355 C351 1.400 . S
C355 C354 1.385 . S
C356 C354 1.478 . S
C356 C358 1.381 . S
C356 C362 1.383 . S
C357 C353 1.495 . S
C357 H363 0.959 . S
C357 H364 0.961 . S
C357 H365 0.960 . S
C358 C356 1.381 . S
C358 C359 1.394 . S
C358 H366 0.930 . S
C359 C358 1.394 . S
C359 C360 1.383 . S
C359 H367 0.929 . S
C360 C359 1.383 . S
C360 C361 1.377 . S
C361 H345 0.930 . S
C361 C360 1.377 . S
C361 C362 1.379 . S
C362 H346 0.931 . S
C362 C356 1.383 . S
C362 C361 1.379 . S
H363 C357 0.959 . S
H364 C357 0.961 . S
H365 C357 0.960 . S
H366 C358 0.930 . S
H367 C359 0.929 . S
H368 C376 0.929 . S
H369 C378 0.930 . S
H370 C380 0.930 . S
H371 C383 0.929 . S
H372 C386 0.930 . S
H373 C388 0.960 . S
H374 C388 0.960 . S
H375 C388 0.960 . S
C376 H368 0.929 . S
C376 C377 1.377 . S
C376 C378 1.384 . S
C377 C376 1.377 . S
C377 C383 1.390 . S
C378 H369 0.930 . S
C378 C376 1.384 . S
C378 C379 1.372 . S
C379 C378 1.372 . S
C379 C380 1.400 . S
C379 C384 1.490 . S
C380 H370 0.930 . S
C380 C379 1.400 . S
C380 C383 1.386 . S
H381 C397 0.930 . S
H382 C398 0.931 . S
C383 H371 0.929 . S
C383 C377 1.390 . S
C383 C380 1.386 . S
C384 C379 1.490 . S
C384 C386 1.395 . S
C384 C387 1.403 . S
H385 C391 0.930 . S
C386 H372 0.930 . S
C386 C384 1.395 . S
C386 C389 1.403 . S
C387 C384 1.403 . S
C387 C388 1.524 . S
C387 C391 1.400 . S
C388 H373 0.960 . S
C388 H374 0.960 . S
C388 H375 0.960 . S
C388 C387 1.524 . S
C389 C386 1.403 . S
C389 C390 1.392 . S
C389 C393 1.495 . S
C390 C389 1.392 . S
C390 C391 1.385 . S
C390 C392 1.478 . S
C391 H385 0.930 . S
C391 C387 1.400 . S
C391 C390 1.385 . S
C392 C390 1.478 . S
C392 C394 1.381 1_655 S
C392 C398 1.383 . S
C393 C389 1.495 . S
C393 H399 0.959 . S
C393 H400 0.961 . S
C393 H401 0.960 . S
C394 C392 1.381 1_455 S
C394 C395 1.394 . S
C394 H402 0.930 . S
C395 C394 1.394 . S
C395 C396 1.383 . S
C395 H403 0.929 . S
C396 C395 1.383 . S
C396 C397 1.377 . S
C397 H381 0.930 . S
C397 C396 1.377 . S
C397 C398 1.379 1_455 S
C398 H382 0.931 . S
C398 C392 1.383 . S
C398 C397 1.379 1_655 S
H399 C393 0.959 . S
H400 C393 0.961 . S
H401 C393 0.960 . S
H402 C394 0.930 . S
H403 C395 0.929 . S
H404 C412 0.929 . S
H405 C414 0.930 . S
H406 C416 0.930 . S
H407 C419 0.929 . S
H408 C422 0.930 . S
H409 C424 0.960 . S
H410 C424 0.960 . S
H411 C424 0.960 . S
C412 H404 0.929 . S
C412 C413 1.377 . S
C412 C414 1.384 . S
C413 C412 1.377 . S
C413 C419 1.390 . S
C414 H405 0.930 . S
C414 C412 1.384 . S
C414 C415 1.372 . S
C415 C414 1.372 . S
C415 C416 1.400 . S
C415 C420 1.490 . S
C416 H406 0.930 . S
C416 C415 1.400 . S
C416 C419 1.386 . S
H417 C433 0.930 . S
H418 C434 0.931 . S
C419 H407 0.929 . S
C419 C413 1.390 . S
C419 C416 1.386 . S
C420 C415 1.490 . S
C420 C422 1.395 . S
C420 C423 1.403 . S
H421 C427 0.930 . S
C422 H408 0.930 . S
C422 C420 1.395 . S
C422 C425 1.403 . S
C423 C420 1.403 . S
C423 C424 1.524 . S
C423 C427 1.400 . S
C424 H409 0.960 . S
C424 H410 0.960 . S
C424 H411 0.960 . S
C424 C423 1.524 . S
C425 C422 1.403 . S
C425 C426 1.392 . S
C425 C429 1.495 . S
C426 C425 1.392 . S
C426 C427 1.385 . S
C426 C428 1.478 . S
C427 H421 0.930 . S
C427 C423 1.400 . S
C427 C426 1.385 . S
C428 C426 1.478 . S
C428 C430 1.381 . S
C428 C434 1.383 . S
C429 C425 1.495 . S
C429 H435 0.959 . S
C429 H436 0.961 . S
C429 H437 0.960 . S
C430 C428 1.381 . S
C430 C431 1.394 . S
C430 H438 0.930 . S
C431 C430 1.394 . S
C431 C432 1.383 . S
C431 H439 0.929 . S
C432 C431 1.383 . S
C432 C433 1.377 . S
C433 H417 0.930 . S
C433 C432 1.377 . S
C433 C434 1.379 . S
C434 H418 0.931 . S
C434 C428 1.383 . S
C434 C433 1.379 . S
H435 C429 0.959 . S
H436 C429 0.961 . S
H437 C429 0.960 . S
H438 C430 0.930 . S
H439 C431 0.929 . S
H440 C448 0.929 . S
H441 C450 0.930 . S
H442 C452 0.930 . S
H443 C455 0.929 . S
H444 C458 0.930 . S
H445 C460 0.960 . S
H446 C460 0.960 . S
H447 C460 0.960 . S
C448 H440 0.929 . S
C448 C449 1.377 . S
C448 C450 1.384 . S
C449 C448 1.377 . S
C449 C455 1.390 . S
C450 H441 0.930 . S
C450 C448 1.384 . S
C450 C451 1.372 . S
C451 C450 1.372 . S
C451 C452 1.400 . S
C451 C456 1.490 1_455 S
C452 H442 0.930 . S
C452 C451 1.400 . S
C452 C455 1.386 . S
H453 C469 0.930 . S
H454 C470 0.931 . S
C455 H443 0.929 . S
C455 C449 1.390 . S
C455 C452 1.386 . S
C456 C451 1.490 1_655 S
C456 C458 1.395 . S
C456 C459 1.403 . S
H457 C463 0.930 . S
C458 H444 0.930 . S
C458 C456 1.395 . S
C458 C461 1.403 . S
C459 C456 1.403 . S
C459 C460 1.524 . S
C459 C463 1.400 . S
C460 H445 0.960 . S
C460 H446 0.960 . S
C460 H447 0.960 . S
C460 C459 1.524 . S
C461 C458 1.403 . S
C461 C462 1.392 . S
C461 C465 1.495 . S
C462 C461 1.392 . S
C462 C463 1.385 . S
C462 C464 1.478 . S
C463 H457 0.930 . S
C463 C459 1.400 . S
C463 C462 1.385 . S
C464 C462 1.478 . S
C464 C466 1.381 . S
C464 C470 1.383 . S
C465 C461 1.495 . S
C465 H471 0.959 . S
C465 H472 0.961 . S
C465 H473 0.960 . S
C466 C464 1.381 . S
C466 C467 1.394 . S
C466 H474 0.930 . S
C467 C466 1.394 . S
C467 C468 1.383 . S
C467 H475 0.929 . S
C468 C467 1.383 . S
C468 C469 1.377 . S
C469 H453 0.930 . S
C469 C468 1.377 . S
C469 C470 1.379 . S
C470 H454 0.931 . S
C470 C464 1.383 . S
C470 C469 1.379 . S
H471 C465 0.959 . S
H472 C465 0.961 . S
H473 C465 0.960 . S
H474 C466 0.930 . S
H475 C467 0.929 . S
H476 C484 0.929 . S
H477 C486 0.930 . S
H478 C488 0.930 . S
H479 C491 0.929 . S
H480 C494 0.930 . S
H481 C496 0.960 . S
H482 C496 0.960 . S
H483 C496 0.960 . S
C484 H476 0.929 . S
C484 C485 1.377 . S
C484 C486 1.384 . S
C485 C484 1.377 . S
C485 C491 1.390 . S
C486 H477 0.930 . S
C486 C484 1.384 . S
C486 C487 1.372 . S
C487 C486 1.372 . S
C487 C488 1.400 . S
C487 C492 1.490 . S
C488 H478 0.930 . S
C488 C487 1.400 . S
C488 C491 1.386 . S
H489 C505 0.930 . S
H490 C506 0.931 . S
C491 H479 0.929 . S
C491 C485 1.390 . S
C491 C488 1.386 . S
C492 C487 1.490 . S
C492 C494 1.395 . S
C492 C495 1.403 . S
H493 C499 0.930 . S
C494 H480 0.930 . S
C494 C492 1.395 . S
C494 C497 1.403 . S
C495 C492 1.403 . S
C495 C496 1.524 . S
C495 C499 1.400 . S
C496 H481 0.960 . S
C496 H482 0.960 . S
C496 H483 0.960 . S
C496 C495 1.524 . S
C497 C494 1.403 . S
C497 C498 1.392 . S
C497 C501 1.495 . S
C498 C497 1.392 . S
C498 C499 1.385 . S
C498 C500 1.478 . S
C499 H493 0.930 . S
C499 C495 1.400 . S
C499 C498 1.385 . S
C500 C498 1.478 . S
C500 C502 1.381 . S
C500 C506 1.383 . S
C501 C497 1.495 . S
C501 H507 0.959 . S
C501 H508 0.961 . S
C501 H509 0.960 . S
C502 C500 1.381 . S
C502 C503 1.394 . S
C502 H510 0.930 . S
C503 C502 1.394 . S
C503 C504 1.383 . S
C503 H511 0.929 . S
C504 C503 1.383 . S
C504 C505 1.377 . S
C505 H489 0.930 . S
C505 C504 1.377 . S
C505 C506 1.379 . S
C506 H490 0.931 . S
C506 C500 1.383 . S
C506 C505 1.379 . S
H507 C501 0.959 . S
H508 C501 0.961 . S
H509 C501 0.960 . S
H510 C502 0.930 . S
H511 C503 0.929 . S
H512 C520 0.929 . S
H513 C522 0.930 . S
H514 C524 0.930 . S
H515 C527 0.929 . S
H516 C530 0.930 . S
H517 C532 0.960 . S
H518 C532 0.960 . S
H519 C532 0.960 . S
C520 H512 0.929 . S
C520 C521 1.377 . S
C520 C522 1.384 . S
C521 C520 1.377 . S
C521 C527 1.390 . S
C522 H513 0.930 . S
C522 C520 1.384 . S
C522 C523 1.372 . S
C523 C522 1.372 . S
C523 C524 1.400 . S
C523 C528 1.490 . S
C524 H514 0.930 . S
C524 C523 1.400 . S
C524 C527 1.386 . S
H525 C541 0.930 . S
H526 C542 0.931 . S
C527 H515 0.929 . S
C527 C521 1.390 . S
C527 C524 1.386 . S
C528 C523 1.490 . S
C528 C530 1.395 . S
C528 C531 1.403 . S
H529 C535 0.930 . S
C530 H516 0.930 . S
C530 C528 1.395 . S
C530 C533 1.403 . S
C531 C528 1.403 . S
C531 C532 1.524 . S
C531 C535 1.400 . S
C532 H517 0.960 . S
C532 H518 0.960 . S
C532 H519 0.960 . S
C532 C531 1.524 . S
C533 C530 1.403 . S
C533 C534 1.392 . S
C533 C537 1.495 . S
C534 C533 1.392 . S
C534 C535 1.385 . S
C534 C536 1.478 . S
C535 H529 0.930 . S
C535 C531 1.400 . S
C535 C534 1.385 . S
C536 C534 1.478 . S
C536 C538 1.381 . S
C536 C542 1.383 . S
C537 C533 1.495 . S
C537 H543 0.959 . S
C537 H544 0.961 . S
C537 H545 0.960 . S
C538 C536 1.381 . S
C538 C539 1.394 . S
C538 H546 0.930 . S
C539 C538 1.394 . S
C539 C540 1.383 . S
C539 H547 0.929 . S
C540 C539 1.383 . S
C540 C541 1.377 . S
C541 H525 0.930 . S
C541 C540 1.377 . S
C541 C542 1.379 . S
C542 H526 0.931 . S
C542 C536 1.383 . S
C542 C541 1.379 . S
H543 C537 0.959 . S
H544 C537 0.961 . S
H545 C537 0.960 . S
H546 C538 0.930 . S
H547 C539 0.929 . S
H548 C556 0.929 . S
H549 C558 0.930 . S
H550 C560 0.930 . S
H551 C563 0.929 . S
H552 C566 0.930 . S
H553 C568 0.960 . S
H554 C568 0.960 . S
H555 C568 0.960 . S
C556 H548 0.929 . S
C556 C557 1.377 . S
C556 C558 1.384 . S
C557 C556 1.377 . S
C557 C563 1.390 . S
C558 H549 0.930 . S
C558 C556 1.384 . S
C558 C559 1.372 . S
C559 C558 1.372 . S
C559 C560 1.400 . S
C559 C564 1.490 . S
C560 H550 0.930 . S
C560 C559 1.400 . S
C560 C563 1.386 . S
H561 C577 0.930 . S
H562 C578 0.931 . S
C563 H551 0.929 . S
C563 C557 1.390 . S
C563 C560 1.386 . S
C564 C559 1.490 . S
C564 C566 1.395 . S
C564 C567 1.403 . S
H565 C571 0.930 . S
C566 H552 0.930 . S
C566 C564 1.395 . S
C566 C569 1.403 . S
C567 C564 1.403 . S
C567 C568 1.524 . S
C567 C571 1.400 . S
C568 H553 0.960 . S
C568 H554 0.960 . S
C568 H555 0.960 . S
C568 C567 1.524 . S
C569 C566 1.403 . S
C569 C570 1.392 . S
C569 C573 1.495 . S
C570 C569 1.392 . S
C570 C571 1.385 . S
C570 C572 1.478 . S
C571 H565 0.930 . S
C571 C567 1.400 . S
C571 C570 1.385 . S
C572 C570 1.478 . S
C572 C574 1.381 . S
C572 C578 1.383 . S
C573 C569 1.495 . S
C573 H579 0.959 . S
C573 H580 0.961 . S
C573 H581 0.960 . S
C574 C572 1.381 . S
C574 C575 1.394 . S
C574 H582 0.930 . S
C575 C574 1.394 . S
C575 C576 1.383 . S
C575 H583 0.929 . S
C576 C575 1.383 . S
C576 C577 1.377 . S
C577 H561 0.930 . S
C577 C576 1.377 . S
C577 C578 1.379 . S
C578 H562 0.931 . S
C578 C572 1.383 . S
C578 C577 1.379 . S
H579 C573 0.959 . S
H580 C573 0.961 . S
H581 C573 0.960 . S
H582 C574 0.930 . S
H583 C575 0.929 . S
H584 C592 0.929 . S
H585 C594 0.930 . S
H586 C596 0.930 . S
H587 C599 0.929 . S
H588 C602 0.930 . S
H589 C604 0.960 . S
H590 C604 0.960 . S
H591 C604 0.960 . S
C592 H584 0.929 . S
C592 C593 1.377 . S
C592 C594 1.384 . S
C593 C592 1.377 . S
C593 C599 1.390 . S
C594 H585 0.930 . S
C594 C592 1.384 . S
C594 C595 1.372 . S
C595 C594 1.372 . S
C595 C596 1.400 . S
C595 C600 1.490 . S
C596 H586 0.930 . S
C596 C595 1.400 . S
C596 C599 1.386 . S
H597 C613 0.930 . S
H598 C614 0.931 . S
C599 H587 0.929 . S
C599 C593 1.390 . S
C599 C596 1.386 . S
C600 C595 1.490 . S
C600 C602 1.395 . S
C600 C603 1.403 . S
H601 C607 0.930 . S
C602 H588 0.930 . S
C602 C600 1.395 . S
C602 C605 1.403 . S
C603 C600 1.403 . S
C603 C604 1.524 . S
C603 C607 1.400 . S
C604 H589 0.960 . S
C604 H590 0.960 . S
C604 H591 0.960 . S
C604 C603 1.524 . S
C605 C602 1.403 . S
C605 C606 1.392 . S
C605 C609 1.495 . S
C606 C605 1.392 . S
C606 C607 1.385 . S
C606 C608 1.478 . S
C607 H601 0.930 . S
C607 C603 1.400 . S
C607 C606 1.385 . S
C608 C606 1.478 . S
C608 C610 1.381 . S
C608 C614 1.383 . S
C609 C605 1.495 . S
C609 H615 0.959 . S
C609 H616 0.961 . S
C609 H617 0.960 . S
C610 C608 1.381 . S
C610 C611 1.394 . S
C610 H618 0.930 . S
C611 C610 1.394 . S
C611 C612 1.383 . S
C611 H619 0.929 . S
C612 C611 1.383 . S
C612 C613 1.377 . S
C613 H597 0.930 . S
C613 C612 1.377 . S
C613 C614 1.379 . S
C614 H598 0.931 . S
C614 C608 1.383 . S
C614 C613 1.379 . S
H615 C609 0.959 . S
H616 C609 0.961 . S
H617 C609 0.960 . S
H618 C610 0.930 . S
H619 C611 0.929 . S
H620 C628 0.929 . S
H621 C630 0.930 . S
H622 C632 0.930 . S
H623 C635 0.929 . S
H624 C638 0.930 . S
H625 C640 0.960 . S
H626 C640 0.960 . S
H627 C640 0.960 . S
C628 H620 0.929 . S
C628 C629 1.377 . S
C628 C630 1.384 . S
C629 C628 1.377 . S
C629 C635 1.390 . S
C630 H621 0.930 . S
C630 C628 1.384 . S
C630 C631 1.372 . S
C631 C630 1.372 . S
C631 C632 1.400 . S
C631 C636 1.490 . S
C632 H622 0.930 . S
C632 C631 1.400 . S
C632 C635 1.386 . S
H633 C649 0.930 . S
H634 C650 0.931 . S
C635 H623 0.929 . S
C635 C629 1.390 . S
C635 C632 1.386 . S
C636 C631 1.490 . S
C636 C638 1.395 . S
C636 C639 1.403 . S
H637 C643 0.930 . S
C638 H624 0.930 . S
C638 C636 1.395 . S
C638 C641 1.403 1_565 S
C639 C636 1.403 . S
C639 C640 1.524 . S
C639 C643 1.400 1_565 S
C640 H625 0.960 . S
C640 H626 0.960 . S
C640 H627 0.960 . S
C640 C639 1.524 . S
C641 C638 1.403 1_545 S
C641 C642 1.392 . S
C641 C645 1.495 . S
C642 C641 1.392 . S
C642 C643 1.385 . S
C642 C644 1.478 . S
C643 H637 0.930 . S
C643 C639 1.400 1_545 S
C643 C642 1.385 . S
C644 C642 1.478 . S
C644 C646 1.381 . S
C644 C650 1.383 . S
C645 C641 1.495 . S
C645 H651 0.959 . S
C645 H652 0.961 . S
C645 H653 0.960 . S
C646 C644 1.381 . S
C646 C647 1.394 . S
C646 H654 0.930 . S
C647 C646 1.394 . S
C647 C648 1.383 . S
C647 H655 0.929 . S
C648 C647 1.383 . S
C648 C649 1.377 . S
C649 H633 0.930 . S
C649 C648 1.377 . S
C649 C650 1.379 . S
C650 H634 0.931 . S
C650 C644 1.383 . S
C650 C649 1.379 . S
H651 C645 0.959 . S
H652 C645 0.961 . S
H653 C645 0.960 . S
H654 C646 0.930 . S
H655 C647 0.929 . S
H656 C664 0.929 . S
H657 C666 0.930 . S
H658 C668 0.930 . S
H659 C671 0.929 . S
H660 C674 0.930 . S
H661 C676 0.960 . S
H662 C676 0.960 . S
H663 C676 0.960 . S
C664 H656 0.929 . S
C664 C665 1.377 . S
C664 C666 1.384 . S
C665 C664 1.377 . S
C665 C671 1.390 . S
C666 H657 0.930 . S
C666 C664 1.384 . S
C666 C667 1.372 . S
C667 C666 1.372 . S
C667 C668 1.400 . S
C667 C672 1.490 . S
C668 H658 0.930 . S
C668 C667 1.400 . S
C668 C671 1.386 . S
H669 C685 0.930 . S
H670 C686 0.931 . S
C671 H659 0.929 . S
C671 C665 1.390 . S
C671 C668 1.386 . S
C672 C667 1.490 . S
C672 C674 1.395 . S
C672 C675 1.403 . S
H673 C679 0.930 1_565 S
C674 H660 0.930 . S
C674 C672 1.395 . S
C674 C677 1.403 . S
C675 C672 1.403 . S
C675 C676 1.524 . S
C675 C679 1.400 . S
C676 H661 0.960 . S
C676 H662 0.960 . S
C676 H663 0.960 . S
C676 C675 1.524 . S
C677 C674 1.403 . S
C677 C678 1.392 1_545 S
C677 C681 1.495 1_545 S
C678 C677 1.392 1_565 S
C678 C679 1.385 1_565 S
C678 C680 1.478 . S
C679 H673 0.930 1_545 S
C679 C675 1.400 . S
C679 C678 1.385 1_545 S
C680 C678 1.478 . S
C680 C682 1.381 . S
C680 C686 1.383 . S
C681 C677 1.495 1_565 S
C681 H687 0.959 1_565 S
C681 H688 0.961 . S
C681 H689 0.960 . S
C682 C680 1.381 . S
C682 C683 1.394 . S
C682 H690 0.930 . S
C683 C682 1.394 . S
C683 C684 1.383 . S
C683 H691 0.929 . S
C684 C683 1.383 . S
C684 C685 1.377 . S
C685 H669 0.930 . S
C685 C684 1.377 . S
C685 C686 1.379 . S
C686 H670 0.931 . S
C686 C680 1.383 . S
C686 C685 1.379 . S
H687 C681 0.959 1_545 S
H688 C681 0.961 . S
H689 C681 0.960 . S
H690 C682 0.930 . S
H691 C683 0.929 . S
H692 C700 0.929 . S
H693 C702 0.930 . S
H694 C704 0.930 . S
H695 C707 0.929 . S
H696 C710 0.930 . S
H697 C712 0.960 . S
H698 C712 0.960 . S
H699 C712 0.960 . S
C700 H692 0.929 . S
C700 C701 1.377 . S
C700 C702 1.384 . S
C701 C700 1.377 . S
C701 C707 1.390 . S
C702 H693 0.930 . S
C702 C700 1.384 . S
C702 C703 1.372 . S
C703 C702 1.372 . S
C703 C704 1.400 . S
C703 C708 1.490 . S
C704 H694 0.930 . S
C704 C703 1.400 . S
C704 C707 1.386 . S
H705 C721 0.930 . S
H706 C722 0.931 . S
C707 H695 0.929 . S
C707 C701 1.390 . S
C707 C704 1.386 . S
C708 C703 1.490 . S
C708 C710 1.395 1_545 S
C708 C711 1.403 1_545 S
H709 C715 0.930 . S
C710 H696 0.930 . S
C710 C708 1.395 1_565 S
C710 C713 1.403 . S
C711 C708 1.403 1_565 S
C711 C712 1.524 1_565 S
C711 C715 1.400 . S
C712 H697 0.960 . S
C712 H698 0.960 . S
C712 H699 0.960 . S
C712 C711 1.524 1_545 S
C713 C710 1.403 . S
C713 C714 1.392 . S
C713 C717 1.495 . S
C714 C713 1.392 . S
C714 C715 1.385 . S
C714 C716 1.478 . S
C715 H709 0.930 . S
C715 C711 1.400 . S
C715 C714 1.385 . S
C716 C714 1.478 . S
C716 C718 1.381 . S
C716 C722 1.383 . S
C717 C713 1.495 . S
C717 H723 0.959 . S
C717 H724 0.961 . S
C717 H725 0.960 . S
C718 C716 1.381 . S
C718 C719 1.394 . S
C718 H726 0.930 . S
C719 C718 1.394 . S
C719 C720 1.383 . S
C719 H727 0.929 . S
C720 C719 1.383 . S
C720 C721 1.377 . S
C721 H705 0.930 . S
C721 C720 1.377 . S
C721 C722 1.379 . S
C722 H706 0.931 . S
C722 C716 1.383 . S
C722 C721 1.379 . S
H723 C717 0.959 . S
H724 C717 0.961 . S
H725 C717 0.960 . S
H726 C718 0.930 . S
H727 C719 0.929 . S
H728 C736 0.929 . S
H729 C738 0.930 . S
H730 C740 0.930 . S
H731 C743 0.929 . S
H732 C746 0.930 . S
H733 C748 0.960 . S
H734 C748 0.960 . S
H735 C748 0.960 . S
C736 H728 0.929 . S
C736 C737 1.377 . S
C736 C738 1.384 . S
C737 C736 1.377 . S
C737 C743 1.390 . S
C738 H729 0.930 . S
C738 C736 1.384 . S
C738 C739 1.372 . S
C739 C738 1.372 . S
C739 C740 1.400 . S
C739 C744 1.490 . S
C740 H730 0.930 . S
C740 C739 1.400 . S
C740 C743 1.386 . S
H741 C757 0.930 . S
H742 C758 0.931 . S
C743 H731 0.929 . S
C743 C737 1.390 . S
C743 C740 1.386 . S
C744 C739 1.490 . S
C744 C746 1.395 . S
C744 C747 1.403 . S
H745 C751 0.930 . S
C746 H732 0.930 . S
C746 C744 1.395 . S
C746 C749 1.403 . S
C747 C744 1.403 . S
C747 C748 1.524 . S
C747 C751 1.400 . S
C748 H733 0.960 . S
C748 H734 0.960 . S
C748 H735 0.960 . S
C748 C747 1.524 . S
C749 C746 1.403 . S
C749 C750 1.392 . S
C749 C753 1.495 . S
C750 C749 1.392 . S
C750 C751 1.385 . S
C750 C752 1.478 1_565 S
C751 H745 0.930 . S
C751 C747 1.400 . S
C751 C750 1.385 . S
C752 C750 1.478 1_545 S
C752 C754 1.381 . S
C752 C758 1.383 . S
C753 C749 1.495 . S
C753 H759 0.959 . S
C753 H760 0.961 1_565 S
C753 H761 0.959 . S
C754 C752 1.381 . S
C754 C755 1.394 . S
C754 H762 0.930 . S
C755 C754 1.394 . S
C755 C756 1.383 . S
C755 H763 0.929 . S
C756 C755 1.383 . S
C756 C757 1.377 . S
C757 H741 0.930 . S
C757 C756 1.377 . S
C757 C758 1.379 . S
C758 H742 0.931 . S
C758 C752 1.383 . S
C758 C757 1.379 . S
H759 C753 0.959 . S
H760 C753 0.961 1_545 S
H761 C753 0.959 . S
H762 C754 0.930 . S
H763 C755 0.929 . S
H764 C772 0.929 . S
H765 C774 0.930 . S
H766 C776 0.930 . S
H767 C779 0.929 . S
H768 C782 0.930 . S
H769 C784 0.960 . S
H770 C784 0.960 . S
H771 C784 0.960 1_554 S
C772 H764 0.929 . S
C772 C773 1.377 . S
C772 C774 1.384 . S
C773 C772 1.377 . S
C773 C779 1.390 . S
C774 H765 0.930 . S
C774 C772 1.384 . S
C774 C775 1.372 . S
C775 C774 1.372 . S
C775 C776 1.400 . S
C775 C780 1.490 1_554 S
C776 H766 0.930 . S
C776 C775 1.400 . S
C776 C779 1.386 . S
H777 C793 0.930 . S
H778 C794 0.931 . S
C779 H767 0.929 . S
C779 C773 1.390 . S
C779 C776 1.386 . S
C780 C775 1.490 1_556 S
C780 C782 1.395 . S
C780 C783 1.403 . S
H781 C787 0.930 . S
C782 H768 0.930 . S
C782 C780 1.395 . S
C782 C785 1.403 . S
C783 C780 1.403 . S
C783 C784 1.524 . S
C783 C787 1.400 . S
C784 H769 0.960 . S
C784 H770 0.960 . S
C784 H771 0.960 1_556 S
C784 C783 1.524 . S
C785 C782 1.403 . S
C785 C786 1.392 . S
C785 C789 1.495 . S
C786 C785 1.392 . S
C786 C787 1.385 . S
C786 C788 1.478 . S
C787 H781 0.930 . S
C787 C783 1.400 . S
C787 C786 1.385 . S
C788 C786 1.478 . S
C788 C790 1.381 . S
C788 C794 1.383 . S
C789 C785 1.495 . S
C789 H795 0.959 . S
C789 H796 0.961 . S
C789 H797 0.960 . S
C790 C788 1.381 . S
C790 C791 1.394 . S
C790 H798 0.930 . S
C791 C790 1.394 . S
C791 C792 1.383 . S
C791 H799 0.929 . S
C792 C791 1.383 . S
C792 C793 1.377 . S
C793 H777 0.930 . S
C793 C792 1.377 . S
C793 C794 1.379 . S
C794 H778 0.931 . S
C794 C788 1.383 . S
C794 C793 1.379 . S
H795 C789 0.959 . S
H796 C789 0.961 . S
H797 C789 0.960 . S
H798 C790 0.930 . S
H799 C791 0.929 . S
H800 C808 0.929 . S
H801 C810 0.930 . S
H802 C812 0.930 . S
H803 C815 0.929 . S
H804 C818 0.930 . S
H805 C820 0.960 . S
H806 C820 0.960 . S
H807 C820 0.960 . S
C808 H800 0.929 . S
C808 C809 1.377 . S
C808 C810 1.384 . S
C809 C808 1.377 . S
C809 C815 1.390 . S
C810 H801 0.930 . S
C810 C808 1.384 . S
C810 C811 1.372 . S
C811 C810 1.372 . S
C811 C812 1.400 . S
C811 C816 1.490 . S
C812 H802 0.930 . S
C812 C811 1.400 . S
C812 C815 1.386 . S
H813 C829 0.930 . S
H814 C830 0.931 . S
C815 H803 0.929 . S
C815 C809 1.390 . S
C815 C812 1.386 . S
C816 C811 1.490 . S
C816 C818 1.395 . S
C816 C819 1.403 . S
H817 C823 0.930 . S
C818 H804 0.930 . S
C818 C816 1.395 . S
C818 C821 1.403 . S
C819 C816 1.403 . S
C819 C820 1.524 . S
C819 C823 1.400 . S
C820 H805 0.960 . S
C820 H806 0.960 . S
C820 H807 0.960 . S
C820 C819 1.524 . S
C821 C818 1.403 . S
C821 C822 1.392 . S
C821 C825 1.495 . S
C822 C821 1.392 . S
C822 C823 1.385 . S
C822 C824 1.478 . S
C823 H817 0.930 . S
C823 C819 1.400 . S
C823 C822 1.385 . S
C824 C822 1.478 . S
C824 C826 1.381 . S
C824 C830 1.383 . S
C825 C821 1.495 . S
C825 H831 0.959 . S
C825 H832 0.961 . S
C825 H833 0.960 . S
C826 C824 1.381 . S
C826 C827 1.394 . S
C826 H834 0.930 . S
C827 C826 1.394 . S
C827 C828 1.383 . S
C827 H835 0.929 . S
C828 C827 1.383 . S
C828 C829 1.377 . S
C829 H813 0.930 . S
C829 C828 1.377 . S
C829 C830 1.379 . S
C830 H814 0.931 . S
C830 C824 1.383 . S
C830 C829 1.379 . S
H831 C825 0.959 . S
H832 C825 0.961 . S
H833 C825 0.960 . S
H834 C826 0.930 . S
H835 C827 0.929 . S
H836 C844 0.929 . S
H837 C846 0.930 . S
H838 C848 0.930 . S
H839 C851 0.929 . S
H840 C854 0.930 . S
H841 C856 0.960 . S
H842 C856 0.960 . S
H843 C856 0.960 . S
C844 H836 0.929 . S
C844 C845 1.377 . S
C844 C846 1.384 . S
C845 C844 1.377 . S
C845 C851 1.390 . S
C846 H837 0.930 . S
C846 C844 1.384 . S
C846 C847 1.372 . S
C847 C846 1.372 . S
C847 C848 1.400 . S
C847 C852 1.490 . S
C848 H838 0.930 . S
C848 C847 1.400 . S
C848 C851 1.386 . S
H849 C865 0.930 . S
H850 C866 0.931 . S
C851 H839 0.929 . S
C851 C845 1.390 . S
C851 C848 1.386 . S
C852 C847 1.490 . S
C852 C854 1.395 . S
C852 C855 1.403 . S
H853 C859 0.930 . S
C854 H840 0.930 . S
C854 C852 1.395 . S
C854 C857 1.403 . S
C855 C852 1.403 . S
C855 C856 1.524 . S
C855 C859 1.400 . S
C856 H841 0.960 . S
C856 H842 0.960 . S
C856 H843 0.960 . S
C856 C855 1.524 . S
C857 C854 1.403 . S
C857 C858 1.392 . S
C857 C861 1.495 . S
C858 C857 1.392 . S
C858 C859 1.385 . S
C858 C860 1.478 . S
C859 H853 0.930 . S
C859 C855 1.400 . S
C859 C858 1.385 . S
C860 C858 1.478 . S
C860 C862 1.381 . S
C860 C866 1.383 . S
C861 C857 1.495 . S
C861 H867 0.959 . S
C861 H868 0.961 . S
C861 H869 0.960 . S
C862 C860 1.381 . S
C862 C863 1.394 . S
C862 H870 0.930 . S
C863 C862 1.394 . S
C863 C864 1.383 . S
C863 H871 0.929 . S
C864 C863 1.383 . S
C864 C865 1.377 . S
C865 H849 0.930 . S
C865 C864 1.377 . S
C865 C866 1.379 . S
C866 H850 0.931 . S
C866 C860 1.383 . S
C866 C865 1.379 . S
H867 C861 0.959 . S
H868 C861 0.961 . S
H869 C861 0.960 . S
H870 C862 0.930 . S
H871 C863 0.929 . S
H872 C880 0.929 . S
H873 C882 0.930 . S
H874 C884 0.930 . S
H875 C887 0.929 . S
H876 C890 0.930 . S
H877 C892 0.960 . S
H878 C892 0.960 . S
H879 C892 0.960 . S
C880 H872 0.929 . S
C880 C881 1.377 . S
C880 C882 1.384 . S
C881 C880 1.377 . S
C881 C887 1.390 . S
C882 H873 0.930 . S
C882 C880 1.384 . S
C882 C883 1.372 . S
C883 C882 1.372 . S
C883 C884 1.400 . S
C883 C888 1.490 . S
C884 H874 0.930 . S
C884 C883 1.400 . S
C884 C887 1.386 . S
H885 C901 0.930 . S
H886 C902 0.931 . S
C887 H875 0.929 . S
C887 C881 1.390 . S
C887 C884 1.386 . S
C888 C883 1.490 . S
C888 C890 1.395 . S
C888 C891 1.403 . S
H889 C895 0.930 . S
C890 H876 0.930 . S
C890 C888 1.395 . S
C890 C893 1.403 . S
C891 C888 1.403 . S
C891 C892 1.524 . S
C891 C895 1.400 . S
C892 H877 0.960 . S
C892 H878 0.960 . S
C892 H879 0.960 . S
C892 C891 1.524 . S
C893 C890 1.403 . S
C893 C894 1.392 . S
C893 C897 1.495 . S
C894 C893 1.392 . S
C894 C895 1.385 . S
C894 C896 1.478 . S
C895 H889 0.930 . S
C895 C891 1.400 . S
C895 C894 1.385 . S
C896 C894 1.478 . S
C896 C898 1.381 . S
C896 C902 1.383 . S
C897 C893 1.495 . S
C897 H903 0.959 . S
C897 H904 0.961 . S
C897 H905 0.960 . S
C898 C896 1.381 . S
C898 C899 1.394 . S
C898 H906 0.930 . S
C899 C898 1.394 . S
C899 C900 1.383 . S
C899 H907 0.929 . S
C900 C899 1.383 . S
C900 C901 1.377 . S
C901 H885 0.930 . S
C901 C900 1.377 . S
C901 C902 1.379 . S
C902 H886 0.931 . S
C902 C896 1.383 . S
C902 C901 1.379 . S
H903 C897 0.959 . S
H904 C897 0.961 . S
H905 C897 0.960 . S
H906 C898 0.930 . S
H907 C899 0.929 . S
H908 C916 0.929 . S
H909 C918 0.930 . S
H910 C920 0.930 . S
H911 C923 0.929 . S
H912 C926 0.930 . S
H913 C928 0.960 1_554 S
H914 C928 0.960 . S
H915 C928 0.960 . S
C916 H908 0.929 . S
C916 C917 1.377 . S
C916 C918 1.384 . S
C917 C916 1.377 . S
C917 C923 1.390 . S
C918 H909 0.930 . S
C918 C916 1.384 . S
C918 C919 1.372 . S
C919 C918 1.372 . S
C919 C920 1.400 . S
C919 C924 1.419 1_556 S
C920 H910 0.930 . S
C920 C919 1.400 . S
C920 C923 1.386 . S
H921 C937 0.930 . S
H922 C938 0.931 . S
C923 H911 0.929 . S
C923 C917 1.390 . S
C923 C920 1.386 . S
C924 C919 1.419 1_554 S
C924 C926 1.445 . S
C924 C927 1.427 . S
H925 C931 0.930 . S
C926 H912 0.930 . S
C926 C924 1.445 . S
C926 C929 1.403 . S
C927 C924 1.427 . S
C927 C928 1.524 1_554 S
C927 C931 1.400 . S
C928 H913 0.960 1_556 S
C928 H914 0.960 . S
C928 H915 0.960 . S
C928 C927 1.524 1_556 S
C929 C926 1.403 . S
C929 C930 1.392 . S
C929 C933 1.495 . S
C930 C929 1.392 . S
C930 C931 1.385 . S
C930 C932 1.478 . S
C931 H925 0.930 . S
C931 C927 1.400 . S
C931 C930 1.385 . S
C932 C930 1.478 . S
C932 C934 1.381 . S
C932 C938 1.383 . S
C933 C929 1.495 . S
C933 H939 0.959 . S
C933 H940 0.961 . S
C933 H941 0.960 . S
C934 C932 1.381 . S
C934 C935 1.394 . S
C934 H942 0.930 . S
C935 C934 1.394 . S
C935 C936 1.383 . S
C935 H943 0.929 . S
C936 C935 1.383 . S
C936 C937 1.377 . S
C937 H921 0.930 . S
C937 C936 1.377 . S
C937 C938 1.379 . S
C938 H922 0.931 . S
C938 C932 1.383 . S
C938 C937 1.379 . S
H939 C933 0.959 . S
H940 C933 0.961 . S
H941 C933 0.960 . S
H942 C934 0.930 . S
H943 C935 0.929 . S
H944 C952 0.929 . S
H945 C954 0.930 . S
H946 C956 0.930 . S
H947 C959 0.929 . S
H948 C962 0.930 . S
H949 C964 0.960 . S
H950 C964 0.960 . S
H951 C964 0.960 . S
C952 H944 0.929 . S
C952 C953 1.377 . S
C952 C954 1.384 . S
C953 C952 1.377 . S
C953 C959 1.390 . S
C954 H945 0.930 . S
C954 C952 1.384 . S
C954 C955 1.372 . S
C955 C954 1.372 . S
C955 C956 1.400 . S
C955 C960 1.490 . S
C956 H946 0.930 . S
C956 C955 1.400 . S
C956 C959 1.386 . S
H957 C973 0.930 . S
H958 C974 0.931 . S
C959 H947 0.929 . S
C959 C953 1.390 . S
C959 C956 1.386 . S
C960 C955 1.490 . S
C960 C962 1.395 . S
C960 C963 1.403 . S
H961 C967 0.930 . S
C962 H948 0.930 . S
C962 C960 1.395 . S
C962 C965 1.403 . S
C963 C960 1.403 . S
C963 C964 1.524 . S
C963 C967 1.400 . S
C964 H949 0.960 . S
C964 H950 0.960 . S
C964 H951 0.960 . S
C964 C963 1.524 . S
C965 C962 1.403 . S
C965 C966 1.392 . S
C965 C969 1.495 . S
C966 C965 1.392 . S
C966 C967 1.385 . S
C966 C968 1.478 . S
C967 H961 0.930 . S
C967 C963 1.400 . S
C967 C966 1.385 . S
C968 C966 1.478 . S
C968 C970 1.381 . S
C968 C974 1.383 . S
C969 C965 1.495 . S
C969 H975 0.959 . S
C969 H976 0.961 . S
C969 H977 0.960 . S
C970 C968 1.381 . S
C970 C971 1.394 . S
C970 H978 0.930 . S
C971 C970 1.394 . S
C971 C972 1.383 . S
C971 H979 0.929 . S
C972 C971 1.383 . S
C972 C973 1.377 . S
C973 H957 0.930 . S
C973 C972 1.377 . S
C973 C974 1.379 . S
C974 H958 0.931 . S
C974 C968 1.383 . S
C974 C973 1.379 . S
H975 C969 0.959 . S
H976 C969 0.961 . S
H977 C969 0.960 . S
H978 C970 0.930 . S
H979 C971 0.929 . S
H980 C988 0.929 . S
H981 C990 0.930 . S
H982 C992 0.930 . S
H983 C995 0.929 . S
H984 C998 0.930 . S
H985 C1000 0.960 . S
H986 C1000 0.960 . S
H987 C1000 0.960 . S
C988 H980 0.929 . S
C988 C989 1.377 . S
C988 C990 1.384 . S
C989 C988 1.377 . S
C989 C995 1.390 . S
C990 H981 0.930 . S
C990 C988 1.384 . S
C990 C991 1.372 . S
C991 C990 1.372 . S
C991 C992 1.400 . S
C991 C996 1.490 . S
C992 H982 0.930 . S
C992 C991 1.400 . S
C992 C995 1.386 . S
H993 C1009 0.930 . S
H994 C1010 0.931 . S
C995 H983 0.929 . S
C995 C989 1.390 . S
C995 C992 1.386 . S
C996 C991 1.490 . S
C996 C998 1.395 . S
C996 C999 1.403 . S
H997 C1003 0.930 . S
C998 H984 0.930 . S
C998 C996 1.395 . S
C998 C1001 1.403 . S
C999 C996 1.403 . S
C999 C1000 1.524 . S
C999 C1003 1.400 . S
C1000 H985 0.960 . S
C1000 H986 0.960 . S
C1000 H987 0.960 . S
C1000 C999 1.524 . S
C1001 C998 1.403 . S
C1001 C1002 1.392 . S
C1001 C1005 1.495 . S
C1002 C1001 1.392 . S
C1002 C1003 1.385 . S
C1002 C1004 1.478 . S
C1003 H997 0.930 . S
C1003 C999 1.400 . S
C1003 C1002 1.385 . S
C1004 C1002 1.478 . S
C1004 C1006 1.381 . S
C1004 C1010 1.383 . S
C1005 C1001 1.495 . S
C1005 H1011 0.959 . S
C1005 H1012 0.961 . S
C1005 H1013 0.960 . S
C1006 C1004 1.381 . S
C1006 C1007 1.394 . S
C1006 H1014 0.930 . S
C1007 C1006 1.394 . S
C1007 C1008 1.383 . S
C1007 H1015 0.929 . S
C1008 C1007 1.383 . S
C1008 C1009 1.377 . S
C1009 H993 0.930 . S
C1009 C1008 1.377 . S
C1009 C1010 1.379 . S
C1010 H994 0.931 . S
C1010 C1004 1.383 . S
C1010 C1009 1.379 . S
H1011 C1005 0.959 . S
H1012 C1005 0.961 . S
H1013 C1005 0.960 . S
H1014 C1006 0.930 . S
H1015 C1007 0.929 . S
H1016 C1024 0.929 . S
H1017 C1026 0.930 . S
H1018 C1028 0.930 . S
H1019 C1031 0.929 . S
H1020 C1034 0.930 . S
H1021 C1036 0.960 . S
H1022 C1036 0.960 . S
H1023 C1036 0.960 . S
C1024 H1016 0.929 . S
C1024 C1025 1.377 . S
C1024 C1026 1.384 . S
C1025 C1024 1.377 . S
C1025 C1031 1.390 . S
C1026 H1017 0.930 . S
C1026 C1024 1.384 . S
C1026 C1027 1.372 . S
C1027 C1026 1.372 . S
C1027 C1028 1.400 . S
C1027 C1032 1.490 . S
C1028 H1018 0.930 . S
C1028 C1027 1.400 . S
C1028 C1031 1.386 . S
H1029 C1045 0.930 . S
H1030 C1046 0.931 . S
C1031 H1019 0.929 . S
C1031 C1025 1.390 . S
C1031 C1028 1.386 . S
C1032 C1027 1.490 . S
C1032 C1034 1.395 . S
C1032 C1035 1.403 . S
H1033 C1039 0.930 . S
C1034 H1020 0.930 . S
C1034 C1032 1.395 . S
C1034 C1037 1.403 . S
C1035 C1032 1.403 . S
C1035 C1036 1.524 . S
C1035 C1039 1.400 . S
C1036 H1021 0.960 . S
C1036 H1022 0.960 . S
C1036 H1023 0.960 . S
C1036 C1035 1.524 . S
C1037 C1034 1.403 . S
C1037 C1038 1.392 . S
C1037 C1041 1.495 . S
C1038 C1037 1.392 . S
C1038 C1039 1.385 . S
C1038 C1040 1.478 . S
C1039 H1033 0.930 . S
C1039 C1035 1.400 . S
C1039 C1038 1.385 . S
C1040 C1038 1.478 . S
C1040 C1042 1.381 . S
C1040 C1046 1.383 . S
C1041 C1037 1.495 . S
C1041 H1047 0.959 . S
C1041 H1048 0.961 . S
C1041 H1049 0.960 . S
C1042 C1040 1.381 . S
C1042 C1043 1.394 . S
C1042 H1050 0.930 . S
C1043 C1042 1.394 . S
C1043 C1044 1.383 . S
C1043 H1051 0.929 . S
C1044 C1043 1.383 . S
C1044 C1045 1.377 . S
C1045 H1029 0.930 . S
C1045 C1044 1.377 . S
C1045 C1046 1.379 . S
C1046 H1030 0.931 . S
C1046 C1040 1.383 . S
C1046 C1045 1.379 . S
H1047 C1041 0.959 . S
H1048 C1041 0.961 . S
H1049 C1041 0.960 . S
H1050 C1042 0.930 . S
H1051 C1043 0.929 . S
C216 C111 1.550 . S
C197 C4 1.518 . S
C252 C129 1.368 . S
C233 C17 1.348 . S
C269 C34 1.293 . S
C288 C153 1.164 . S
C324 C183 1.278 1_655 S
C305 C47 1.400 . S
C360 C171 1.254 . S
C341 C56 1.322 . S
C377 C69 1.368 . S
C396 C124 1.395 . S
C413 C86 1.564 . S
C432 C144 1.452 . S
C449 C99 1.392 . S
C468 C149 1.215 . S
C485 C95 1.353 . S
C504 C165 1.352 . S
C521 C73 1.391 . S
C540 C120 1.293 . S
C576 C187 1.395 . S
C557 C43 1.362 . S
C612 C132 1.310 . S
C593 C21 1.406 . S
C629 C30 1.519 . S
C648 C150 1.502 . S
C665 C8 1.303 . S
C684 C108 1.154 . S
C720 C128 1.234 . S
C701 C82 1.314 . S
C756 C174 1.405 . S
C737 C60 1.576 . S
C792 C170 1.366 . S
C773 C9 1.575 . S
C828 C123 1.378 . S
C809 C22 1.456 . S
C845 C35 1.561 . S
C864 C145 1.384 . S
C881 C48 1.478 . S
C900 C166 1.369 . S
C936 C107 1.369 . S
C917 C61 1.516 . S
C953 C74 1.553 . S
C972 C141 1.508 . S
C1008 C162 1.430 . S
C989 C87 1.539 . S
C1044 C186 1.489 . S
C1025 C100 1.525 . S
