# Generated by pormake.
# Topology eea, (3,6)-cn, num edge types: 1
# Building blocks:
#     Node 0, Type 0, BuildingBlock: ESEHIV_clean_linker_0, # of connection points: 3
#     Node 1, Type 0, BuildingBlock: ESEHIV_clean_linker_0, # of connection points: 3
#     Node 2, Type 0, BuildingBlock: ESEHIV_clean_linker_0, # of connection points: 3
#     Node 3, Type 0, BuildingBlock: ESEHIV_clean_linker_0, # of connection points: 3
#     Node 4, Type 0, BuildingBlock: ESEHIV_clean_linker_0, # of connection points: 3
#     Node 5, Type 0, BuildingBlock: ESEHIV_clean_linker_0, # of connection points: 3
#     Node 6, Type 0, BuildingBlock: ESEHIV_clean_linker_0, # of connection points: 3
#     Node 7, Type 0, BuildingBlock: ESEHIV_clean_linker_0, # of connection points: 3
#     Node 8, Type 0, BuildingBlock: ESEHIV_clean_linker_0, # of connection points: 3
#     Node 9, Type 0, BuildingBlock: ESEHIV_clean_linker_0, # of connection points: 3
#     Node 10, Type 0, BuildingBlock: ESEHIV_clean_linker_0, # of connection points: 3
#     Node 11, Type 0, BuildingBlock: ESEHIV_clean_linker_0, # of connection points: 3
#     Node 12, Type 0, BuildingBlock: ESEHIV_clean_linker_0, # of connection points: 3
#     Node 13, Type 0, BuildingBlock: ESEHIV_clean_linker_0, # of connection points: 3
#     Node 14, Type 0, BuildingBlock: ESEHIV_clean_linker_0, # of connection points: 3
#     Node 15, Type 0, BuildingBlock: ESEHIV_clean_linker_0, # of connection points: 3
#     Node 16, Type 0, BuildingBlock: ESEHIV_clean_linker_0, # of connection points: 3
#     Node 17, Type 0, BuildingBlock: ESEHIV_clean_linker_0, # of connection points: 3
#     Node 18, Type 1, BuildingBlock: KUMJIN_clean_sbu_0, # of connection points: 6
#     Node 19, Type 1, BuildingBlock: KUMJIN_clean_sbu_0, # of connection points: 6
#     Node 20, Type 1, BuildingBlock: KUMJIN_clean_sbu_0, # of connection points: 6
#     Node 21, Type 1, BuildingBlock: KUMJIN_clean_sbu_0, # of connection points: 6
#     Node 22, Type 1, BuildingBlock: KUMJIN_clean_sbu_0, # of connection points: 6
#     Node 23, Type 1, BuildingBlock: KUMJIN_clean_sbu_0, # of connection points: 6
#     Node 24, Type 1, BuildingBlock: KUMJIN_clean_sbu_0, # of connection points: 6
#     Node 25, Type 1, BuildingBlock: KUMJIN_clean_sbu_0, # of connection points: 6
#     Node 26, Type 1, BuildingBlock: KUMJIN_clean_sbu_0, # of connection points: 6
#     Edge 27, Type (0, 1), BuildingBlock: AJUNOK_clean_linker_0, # of connection points: 2
#     Edge 28, Type (0, 1), BuildingBlock: AJUNOK_clean_linker_0, # of connection points: 2
#     Edge 29, Type (0, 1), BuildingBlock: AJUNOK_clean_linker_0, # of connection points: 2
#     Edge 30, Type (0, 1), BuildingBlock: AJUNOK_clean_linker_0, # of connection points: 2
#     Edge 31, Type (0, 1), BuildingBlock: AJUNOK_clean_linker_0, # of connection points: 2
#     Edge 32, Type (0, 1), BuildingBlock: AJUNOK_clean_linker_0, # of connection points: 2
#     Edge 33, Type (0, 1), BuildingBlock: AJUNOK_clean_linker_0, # of connection points: 2
#     Edge 34, Type (0, 1), BuildingBlock: AJUNOK_clean_linker_0, # of connection points: 2
#     Edge 35, Type (0, 1), BuildingBlock: AJUNOK_clean_linker_0, # of connection points: 2
#     Edge 36, Type (0, 1), BuildingBlock: AJUNOK_clean_linker_0, # of connection points: 2
#     Edge 37, Type (0, 1), BuildingBlock: AJUNOK_clean_linker_0, # of connection points: 2
#     Edge 38, Type (0, 1), BuildingBlock: AJUNOK_clean_linker_0, # of connection points: 2
#     Edge 39, Type (0, 1), BuildingBlock: AJUNOK_clean_linker_0, # of connection points: 2
#     Edge 40, Type (0, 1), BuildingBlock: AJUNOK_clean_linker_0, # of connection points: 2
#     Edge 41, Type (0, 1), BuildingBlock: AJUNOK_clean_linker_0, # of connection points: 2
#     Edge 42, Type (0, 1), BuildingBlock: AJUNOK_clean_linker_0, # of connection points: 2
#     Edge 43, Type (0, 1), BuildingBlock: AJUNOK_clean_linker_0, # of connection points: 2
#     Edge 44, Type (0, 1), BuildingBlock: AJUNOK_clean_linker_0, # of connection points: 2
#     Edge 45, Type (0, 1), BuildingBlock: AJUNOK_clean_linker_0, # of connection points: 2
#     Edge 46, Type (0, 1), BuildingBlock: AJUNOK_clean_linker_0, # of connection points: 2
#     Edge 47, Type (0, 1), BuildingBlock: AJUNOK_clean_linker_0, # of connection points: 2
#     Edge 48, Type (0, 1), BuildingBlock: AJUNOK_clean_linker_0, # of connection points: 2
#     Edge 49, Type (0, 1), BuildingBlock: AJUNOK_clean_linker_0, # of connection points: 2
#     Edge 50, Type (0, 1), BuildingBlock: AJUNOK_clean_linker_0, # of connection points: 2
#     Edge 51, Type (0, 1), BuildingBlock: AJUNOK_clean_linker_0, # of connection points: 2
#     Edge 52, Type (0, 1), BuildingBlock: AJUNOK_clean_linker_0, # of connection points: 2
#     Edge 53, Type (0, 1), BuildingBlock: AJUNOK_clean_linker_0, # of connection points: 2
#     Edge 54, Type (0, 1), BuildingBlock: AJUNOK_clean_linker_0, # of connection points: 2
#     Edge 55, Type (0, 1), BuildingBlock: AJUNOK_clean_linker_0, # of connection points: 2
#     Edge 56, Type (0, 1), BuildingBlock: AJUNOK_clean_linker_0, # of connection points: 2
#     Edge 57, Type (0, 1), BuildingBlock: AJUNOK_clean_linker_0, # of connection points: 2
#     Edge 58, Type (0, 1), BuildingBlock: AJUNOK_clean_linker_0, # of connection points: 2
#     Edge 59, Type (0, 1), BuildingBlock: AJUNOK_clean_linker_0, # of connection points: 2
#     Edge 60, Type (0, 1), BuildingBlock: AJUNOK_clean_linker_0, # of connection points: 2
#     Edge 61, Type (0, 1), BuildingBlock: AJUNOK_clean_linker_0, # of connection points: 2
#     Edge 62, Type (0, 1), BuildingBlock: AJUNOK_clean_linker_0, # of connection points: 2
#     Edge 63, Type (0, 1), BuildingBlock: AJUNOK_clean_linker_0, # of connection points: 2
#     Edge 64, Type (0, 1), BuildingBlock: AJUNOK_clean_linker_0, # of connection points: 2
#     Edge 65, Type (0, 1), BuildingBlock: AJUNOK_clean_linker_0, # of connection points: 2
#     Edge 66, Type (0, 1), BuildingBlock: AJUNOK_clean_linker_0, # of connection points: 2
#     Edge 67, Type (0, 1), BuildingBlock: AJUNOK_clean_linker_0, # of connection points: 2
#     Edge 68, Type (0, 1), BuildingBlock: AJUNOK_clean_linker_0, # of connection points: 2
#     Edge 69, Type (0, 1), BuildingBlock: AJUNOK_clean_linker_0, # of connection points: 2
#     Edge 70, Type (0, 1), BuildingBlock: AJUNOK_clean_linker_0, # of connection points: 2
#     Edge 71, Type (0, 1), BuildingBlock: AJUNOK_clean_linker_0, # of connection points: 2
#     Edge 72, Type (0, 1), BuildingBlock: AJUNOK_clean_linker_0, # of connection points: 2
#     Edge 73, Type (0, 1), BuildingBlock: AJUNOK_clean_linker_0, # of connection points: 2
#     Edge 74, Type (0, 1), BuildingBlock: AJUNOK_clean_linker_0, # of connection points: 2
#     Edge 75, Type (0, 1), BuildingBlock: AJUNOK_clean_linker_0, # of connection points: 2
#     Edge 76, Type (0, 1), BuildingBlock: AJUNOK_clean_linker_0, # of connection points: 2
#     Edge 77, Type (0, 1), BuildingBlock: AJUNOK_clean_linker_0, # of connection points: 2
#     Edge 78, Type (0, 1), BuildingBlock: AJUNOK_clean_linker_0, # of connection points: 2
#     Edge 79, Type (0, 1), BuildingBlock: AJUNOK_clean_linker_0, # of connection points: 2
#     Edge 80, Type (0, 1), BuildingBlock: AJUNOK_clean_linker_0, # of connection points: 2
# Relax obj value: 0.007
# Max RMSD: 0.108
# Mean RMSD: 0.092
data_MOF--net-eea--node1-KUMJIN_clean_sbu_0--node2-ESEHIV_clean_linker_0--edge1-AJUNOK_clean_linker_0
_symmetry_space_group_name_H-M    P1
_symmetry_Int_Tables_number       1
_symmetry_cell_setting            triclinic
loop_
_symmetry_equiv_pos_as_xyz
'x, y, z'
_cell_length_a     33.56206
_cell_length_b     34.856243
_cell_length_c     53.924626
_cell_angle_alpha  89.801335
_cell_angle_beta   89.614953
_cell_angle_gamma 119.95487
loop_
_atom_site_label
_atom_site_type_symbol
_atom_site_fract_x
_atom_site_fract_y
_atom_site_fract_z
_atom_type_partial_charge
H0 H 0.30317 0.19854 0.44659 0.0
H1 H 0.30003 0.07367 0.44581 0.0
H2 H 0.23823 0.10765 0.38653 0.0
C3 C 0.29369 0.16742 0.4376 0.0
C4 C 0.26927 0.15675 0.41519 0.0
C5 C 0.30485 0.13761 0.44886 0.0
C6 C 0.29194 0.09711 0.43723 0.0
C7 C 0.26894 0.08679 0.41446 0.0
C8 C 0.25779 0.11666 0.40355 0.0
H9 H 0.81972 0.07729 0.45218 0.0
H10 H 0.94588 0.20228 0.4495 0.0
H11 H 0.91203 0.10957 0.38988 0.0
C12 C 0.85095 0.10065 0.44245 0.0
C13 C 0.8614 0.08905 0.41935 0.0
C14 C 0.88061 0.14177 0.45331 0.0
C15 C 0.92235 0.17074 0.44118 0.0
C16 C 0.93404 0.15905 0.4184 0.0
C17 C 0.90341 0.11823 0.40763 0.0
H18 H 0.81517 0.74981 0.44744 0.0
H19 H 0.93611 0.73682 0.4475 0.0
H20 H 0.90855 0.79744 0.38509 0.0
C21 C 0.84615 0.75429 0.43838 0.0
C22 C 0.85781 0.77413 0.41469 0.0
C23 C 0.8738 0.74033 0.45047 0.0
C24 C 0.91469 0.74791 0.43865 0.0
C25 C 0.92773 0.76877 0.41515 0.0
C26 C 0.8993 0.78225 0.40336 0.0
H27 H 0.07662 0.25659 0.60603 0.0
H28 H 0.20375 0.25491 0.60289 0.0
H29 H 0.11603 0.20374 0.6675 0.0
C30 C 0.10019 0.24737 0.61408 0.0
C31 C 0.09064 0.2278 0.63793 0.0
C32 C 0.14076 0.25711 0.60111 0.0
C33 C 0.17207 0.24709 0.6125 0.0
C34 C 0.16367 0.22791 0.63638 0.0
C35 C 0.12232 0.2175 0.64888 0.0
H36 H 0.72049 0.92245 0.60305 0.0
H37 H 0.73113 0.80468 0.60305 0.0
H38 H 0.78406 0.89564 0.66416 0.0
C39 C 0.73182 0.90154 0.61181 0.0
C40 C 0.756 0.91489 0.63415 0.0
C41 C 0.72167 0.86129 0.60079 0.0
C42 C 0.73663 0.83447 0.61228 0.0
C43 C 0.75965 0.84648 0.63518 0.0
C44 C 0.76782 0.88628 0.64624 0.0
H45 H 0.08493 0.79151 0.60575 0.0
H46 H 0.20311 0.92203 0.60129 0.0
H47 H 0.1081 0.88672 0.66261 0.0
C48 C 0.10558 0.82433 0.61342 0.0
C49 C 0.09169 0.83527 0.63574 0.0
C50 C 0.14578 0.85545 0.60085 0.0
C51 C 0.17203 0.89803 0.61084 0.0
C52 C 0.15871 0.90994 0.63299 0.0
C53 C 0.11857 0.87812 0.64542 0.0
H54 H 0.95948 0.53893 0.78503 0.0
H55 H 0.96733 0.41939 0.78641 0.0
H56 H 0.89291 0.44084 0.72858 0.0
C57 C 0.95102 0.50728 0.77704 0.0
C58 C 0.92569 0.49367 0.75497 0.0
C59 C 0.96547 0.4803 0.78885 0.0
C60 C 0.95462 0.43953 0.77811 0.0
C61 C 0.92816 0.42486 0.75647 0.0
C62 C 0.91396 0.45222 0.74504 0.0
H63 H 0.49156 0.4052 0.78317 0.0
H64 H 0.61218 0.53404 0.78261 0.0
H65 H 0.58781 0.4452 0.72199 0.0
C66 C 0.52393 0.42902 0.77458 0.0
C67 C 0.53707 0.41912 0.75168 0.0
C68 C 0.55118 0.46992 0.78617 0.0
C69 C 0.59104 0.50221 0.77392 0.0
C70 C 0.6041 0.49383 0.75059 0.0
C71 C 0.57746 0.45192 0.73979 0.0
H72 H 0.48394 0.07913 0.7819 0.0
H73 H 0.6145 0.08389 0.7813 0.0
H74 H 0.575 0.13413 0.7187 0.0
C75 C 0.51656 0.08854 0.77288 0.0
C76 C 0.5259 0.10851 0.74916 0.0
C77 C 0.54813 0.07936 0.78475 0.0
C78 C 0.58982 0.09079 0.77246 0.0
C79 C 0.59992 0.11049 0.74865 0.0
C80 C 0.56804 0.11994 0.73723 0.0
H81 H 0.74456 0.59462 0.93805 0.0
H82 H 0.86881 0.58747 0.93836 0.0
H83 H 0.77457 0.53579 1.00039 0.0
C84 C 0.76703 0.58502 0.94711 0.0
C85 C 0.75454 0.56427 0.97062 0.0
C86 C 0.80772 0.59277 0.93499 0.0
C87 C 0.83678 0.58064 0.94717 0.0
C88 C 0.82533 0.56026 0.97078 0.0
C89 C 0.78359 0.55133 0.9822 0.0
H90 H 0.40454 0.26752 0.93179 0.0
H91 H 0.39568 0.1398 0.93221 0.0
H92 H 0.46313 0.23106 0.99157 0.0
C93 C 0.41126 0.24333 0.94057 0.0
C94 C 0.43405 0.25335 0.96338 0.0
C95 C 0.39673 0.20221 0.92922 0.0
C96 C 0.40692 0.17177 0.94062 0.0
C97 C 0.43041 0.18188 0.96324 0.0
C98 C 0.44404 0.22275 0.9744 0.0
H99 H 0.74095 0.13132 0.93771 0.0
H100 H 0.86263 0.25976 0.93608 0.0
H101 H 0.76647 0.22237 0.99715 0.0
C102 C 0.7622 0.16357 0.94591 0.0
C103 C 0.74897 0.1733 0.96877 0.0
C104 C 0.80272 0.19489 0.93372 0.0
C105 C 0.83081 0.23584 0.94512 0.0
C106 C 0.81847 0.24609 0.96814 0.0
C107 C 0.77691 0.21478 0.97964 0.0
H108 H 0.60779 0.863 0.12171 0.0
H109 H 0.61198 0.74174 0.11981 0.0
H110 H 0.54686 0.77306 0.06095 0.0
C111 C 0.60003 0.83254 0.11244 0.0
C112 C 0.57658 0.8219 0.08974 0.0
C113 C 0.61317 0.80393 0.12337 0.0
C114 C 0.60144 0.76375 0.1117 0.0
C115 C 0.57772 0.75252 0.08914 0.0
C116 C 0.56515 0.7816 0.07837 0.0
H117 H 0.14891 0.74648 0.114 0.0
H118 H 0.26699 0.87737 0.11102 0.0
H119 H 0.24243 0.78595 0.05168 0.0
C120 C 0.17959 0.77139 0.10449 0.0
C121 C 0.19238 0.76113 0.08159 0.0
C122 C 0.20611 0.81327 0.1153 0.0
C123 C 0.24609 0.84504 0.10283 0.0
C124 C 0.25924 0.83559 0.07978 0.0
C125 C 0.23227 0.79351 0.06931 0.0
H126 H 0.14572 0.40922 0.11413 0.0
H127 H 0.27447 0.41035 0.11492 0.0
H128 H 0.23925 0.46375 0.05201 0.0
C129 C 0.17828 0.41758 0.10539 0.0
C130 C 0.18887 0.43773 0.08176 0.0
C131 C 0.20932 0.40842 0.11787 0.0
C132 C 0.25101 0.41878 0.10596 0.0
C133 C 0.26228 0.43882 0.08223 0.0
C134 C 0.23127 0.44892 0.07039 0.0
H135 H 0.40867 0.92278 0.26998 0.0
H136 H 0.53939 0.92775 0.27075 0.0
H137 H 0.44403 0.86601 0.33131 0.0
C138 C 0.43283 0.9153 0.27896 0.0
C139 C 0.42095 0.89265 0.30199 0.0
C140 C 0.47575 0.92868 0.26754 0.0
C141 C 0.50659 0.91856 0.27945 0.0
C142 C 0.49566 0.89634 0.30245 0.0
C143 C 0.45248 0.88285 0.31348 0.0
H144 H 0.06147 0.58351 0.27126 0.0
H145 H 0.0586 0.45888 0.27121 0.0
H146 H 0.10951 0.54415 0.33472 0.0
C147 C 0.06799 0.55955 0.28051 0.0
C148 C 0.08789 0.56896 0.30408 0.0
C149 C 0.05699 0.51977 0.26862 0.0
C150 C 0.06565 0.48893 0.28072 0.0
C151 C 0.08491 0.49759 0.30459 0.0
C152 C 0.09543 0.53752 0.31618 0.0
H153 H 0.4121 0.46619 0.27072 0.0
H154 H 0.52919 0.59792 0.27037 0.0
H155 H 0.4347 0.55293 0.33225 0.0
C156 C 0.43235 0.49809 0.27949 0.0
C157 C 0.41823 0.50596 0.30266 0.0
C158 C 0.47263 0.53091 0.26771 0.0
C159 C 0.49843 0.57207 0.27937 0.0
C160 C 0.48547 0.58005 0.30278 0.0
C161 C 0.44508 0.54694 0.31426 0.0
Eu162 Eu 0.48625 0.97095 0.99708 0.0
C163 C 0.57902 0.14184 0.06323 0.0
C164 C 0.6603 0.16908 0.05722 0.0
C165 C 0.63329 0.22088 0.06528 0.0
C166 C 0.61445 0.13383 0.05816 0.0
C167 C 0.58807 0.1853 0.06764 0.0
C168 C 0.6694 0.21278 0.06004 0.0
C169 C 0.5082 0.15457 0.0793 0.0
N170 N 0.53599 0.10662 0.06565 0.0
C171 C 0.5011 0.1121 0.07477 0.0
C172 C 0.5517 0.19144 0.07524 0.0
Eu173 Eu 0.5253 0.03581 0.05579 0.0
N174 N 0.60432 0.09121 0.05582 0.0
C175 C 0.6388 0.08128 0.05495 0.0
C176 C 0.69565 0.15918 0.05437 0.0
C177 C 0.68486 0.11499 0.05375 0.0
H178 H 0.46748 0.08374 0.07812 0.0
H179 H 0.71194 0.10683 0.05217 0.0
H180 H 0.70432 0.24035 0.05904 0.0
H181 H 0.48016 0.15881 0.08595 0.0
H182 H 0.63083 0.0474 0.05415 0.0
H183 H 0.30279 0.91678 0.99286 0.0
H184 H 0.73133 0.18526 0.05343 0.0
H185 H 0.53876 0.91308 0.98448 0.0
H186 H 0.3856 0.9707 0.99375 0.0
H187 H 0.51879 0.83497 0.9793 0.0
H188 H 0.6409 0.25459 0.06827 0.0
H189 H 0.27575 0.8365 0.99226 0.0
H190 H 0.29517 0.77564 0.98997 0.0
H191 H 0.55718 0.22428 0.07887 0.0
H192 H 0.35393 0.75335 0.98608 0.0
N193 N 0.40585 0.92171 0.99433 0.0
C194 C 0.37459 0.93589 0.99336 0.0
C195 C 0.3123 0.86008 0.99261 0.0
C196 C 0.34457 0.84584 0.99205 0.0
C197 C 0.32743 0.90535 0.99287 0.0
C198 C 0.39173 0.87793 0.99271 0.0
H199 H 0.43739 0.77527 0.98171 0.0
N200 N 0.46949 0.89739 0.99017 0.0
C201 C 0.49196 0.84304 0.98254 0.0
C202 C 0.42462 0.86537 0.99055 0.0
C203 C 0.50314 0.88717 0.98536 0.0
C204 C 0.44599 0.80943 0.98397 0.0
C205 C 0.41156 0.82041 0.98767 0.0
O206 O 0.52229 0.97956 0.96167 0.0
O207 O 0.54191 0.03043 1.01596 0.0
O208 O 0.50731 0.07591 0.02982 0.0
O209 O 0.46578 0.02408 0.99877 0.0
O210 O 0.56221 0.99479 0.99373 0.0
O211 O 0.46561 0.99217 0.96362 0.0
O212 O 0.48724 0.01302 0.09095 0.0
O213 O 0.46953 0.97721 0.03641 0.0
O214 O 0.49599 0.92951 0.02637 0.0
O215 O 0.54974 0.98559 0.0515 0.0
O216 O 0.44919 0.01103 0.05998 0.0
O217 O 0.55643 0.02495 0.08882 0.0
C218 C 0.57657 0.02989 1.00699 0.0
C219 C 0.4821 0.9722 0.92438 0.0
C220 C 0.48811 0.98072 0.87898 0.0
C221 C 0.5009 0.99908 0.90294 0.0
C222 C 0.45552 0.9354 0.87698 0.0
C223 C 0.44996 0.92714 0.92174 0.0
C224 C 0.4367 0.90897 0.89816 0.0
C225 C 0.48066 0.06257 1.01 0.0
C226 C 0.49667 0.99122 0.94936 0.0
C227 C 0.36468 0.78811 0.98803 0.0
C228 C 0.33123 0.8008 0.99025 0.0
C229 C 0.43482 0.97774 0.04525 0.0
C230 C 0.52976 0.0347 0.12793 0.0
C231 C 0.51764 0.00847 0.14976 0.0
C232 C 0.52499 0.02827 0.17341 0.0
C233 C 0.54325 0.07439 0.17465 0.0
C234 C 0.54906 0.08067 0.12989 0.0
C235 C 0.55544 0.10027 0.15311 0.0
C236 C 0.52838 0.94419 0.04347 0.0
C237 C 0.52093 0.01401 0.1032 0.0
H238 H 0.52591 0.03393 0.90489 0.0
H239 H 0.44424 0.92042 0.85894 0.0
H240 H 0.43517 0.90606 0.93792 0.0
H241 H 0.41169 0.87417 0.89626 0.0
H242 H 0.50303 0.97294 0.14833 0.0
H243 H 0.54792 0.09057 0.19237 0.0
H244 H 0.55888 0.1014 0.11347 0.0
H245 H 0.56976 0.13574 0.15442 0.0
Eu246 Eu 0.04015 0.51414 0.99639 0.0
C247 C 0.87241 0.45969 0.06026 0.0
C248 C 0.8661 0.52557 0.05554 0.0
C249 C 0.79707 0.45379 0.06071 0.0
C250 C 0.89303 0.5049 0.0567 0.0
C251 C 0.82428 0.43382 0.06325 0.0
C252 C 0.81799 0.49963 0.05683 0.0
C253 C 0.83418 0.37196 0.07451 0.0
N254 N 0.89972 0.4416 0.06285 0.0
C255 C 0.88173 0.39923 0.07162 0.0
C256 C 0.80519 0.38909 0.06978 0.0
Eu257 Eu 0.9798 0.48918 0.05629 0.0
N258 N 0.93958 0.52895 0.05539 0.0
C259 C 0.96155 0.57411 0.05473 0.0
C260 C 0.8884 0.57176 0.05364 0.0
C261 C 0.93637 0.59617 0.0537 0.0
H262 H 0.90429 0.38629 0.07573 0.0
H263 H 0.95401 0.63196 0.05272 0.0
H264 H 0.79686 0.51496 0.05551 0.0
H265 H 0.81999 0.33793 0.08055 0.0
H266 H 0.99848 0.59335 0.05476 0.0
H267 H 0.06406 0.36979 0.9828 0.0
H268 H 0.86896 0.58888 0.05265 0.0
H269 H 0.12575 0.62237 0.99063 0.0
H270 H 0.02262 0.41021 0.98047 0.0
H271 H 0.20891 0.66669 0.99668 0.0
H272 H 0.76 0.43428 0.06254 0.0
H273 H 0.14595 0.40806 0.99441 0.0
H274 H 0.21721 0.47869 1.0045 0.0
H275 H 0.76837 0.36807 0.07224 0.0
H276 H 0.25673 0.55973 1.00844 0.0
N277 N 0.0786 0.47172 0.99332 0.0
C278 C 0.05759 0.42795 0.98676 0.0
C279 C 0.12761 0.4263 0.99388 0.0
C280 C 0.15015 0.47172 0.99842 0.0
C281 C 0.0814 0.40458 0.98745 0.0
C282 C 0.12464 0.494 0.99758 0.0
H283 H 0.25423 0.62993 1.00492 0.0
N284 N 0.12199 0.56027 0.99789 0.0
C285 C 0.19189 0.63095 0.99812 0.0
C286 C 0.14689 0.53951 1.0 0.0
C287 C 0.14434 0.60544 0.99512 0.0
C288 C 0.21732 0.61011 1.00269 0.0
C289 C 0.19514 0.56389 1.00297 0.0
O290 O 0.05649 0.56338 0.96681 0.0
O291 O 0.98776 0.52193 1.01924 0.0
O292 O 0.93728 0.42928 0.03222 0.0
O293 O 0.98396 0.44174 0.9972 0.0
O294 O 0.96932 0.49692 0.98376 0.0
O295 O 0.03106 0.49447 0.95771 0.0
O296 O 0.98236 0.45978 0.0917 0.0
O297 O 0.04149 0.49567 0.03606 0.0
O298 O 0.06232 0.57876 1.01733 0.0
O299 O 0.04667 0.55401 0.058 0.0
O300 O 1.00335 0.43867 0.05712 0.0
O301 O 0.99555 0.52694 0.09063 0.0
C302 C 0.95597 0.50842 1.00327 0.0
C303 C 0.07122 0.54636 0.92594 0.0
C304 C 0.06999 0.54046 0.88074 0.0
C305 C 0.04683 0.53266 0.90364 0.0
C306 C 0.11836 0.56378 0.88045 0.0
C307 C 0.11939 0.56893 0.92541 0.0
C308 C 0.1428 0.5779 0.90266 0.0
C309 C 0.94711 0.41671 1.01104 0.0
C310 C 0.04467 0.53416 0.94922 0.0
C311 C 0.21995 0.54154 1.00545 0.0
C312 C 0.19748 0.4955 1.0032 0.0
C313 C 0.04022 0.46074 0.04385 0.0
C314 C 0.96566 0.48687 0.12795 0.0
C315 C 0.98889 0.49282 0.15037 0.0
C316 C 0.96582 0.48658 0.17318 0.0
C317 C 0.91874 0.47315 0.1732 0.0
C318 C 0.91888 0.47406 0.12826 0.0
C319 C 0.8955 0.46697 0.15084 0.0
C320 C 0.06962 0.58551 0.04145 0.0
C321 C 0.99122 0.49455 0.10457 0.0
H322 H 0.00956 0.51565 0.9042 0.0
H323 H 0.13724 0.57038 0.86312 0.0
H324 H 0.13874 0.57927 0.94244 0.0
H325 H 0.18001 0.59539 0.90226 0.0
H326 H 0.02495 0.50222 0.15001 0.0
H327 H 0.90013 0.46821 0.1905 0.0
H328 H 0.90053 0.46967 0.11115 0.0
H329 H 0.85936 0.45702 0.15102 0.0
Eu330 Eu 0.52727 0.48979 0.05601 0.0
C331 C 0.42838 0.56222 0.98794 0.0
C332 C 0.34847 0.50534 0.99189 0.0
C333 C 0.36841 0.58155 0.98386 0.0
C334 C 0.39564 0.51859 0.99226 0.0
C335 C 0.41519 0.59405 0.98298 0.0
C336 C 0.33511 0.53722 0.98826 0.0
C337 C 0.49478 0.64666 0.97363 0.0
N338 N 0.47305 0.57289 0.98678 0.0
C339 C 0.50596 0.61373 0.9785 0.0
C340 C 0.44927 0.63701 0.97631 0.0
Eu341 Eu 0.49062 0.51686 0.99681 0.0
N342 N 0.40985 0.48866 0.99531 0.0
C343 C 0.37843 0.44438 0.99592 0.0
C344 C 0.31617 0.46028 0.99429 0.0
C345 C 0.33125 0.42961 0.99586 0.0
H346 H 0.54108 0.62106 0.97621 0.0
H347 H 0.30656 0.39456 0.99714 0.0
H348 H 0.2991 0.52765 0.98796 0.0
H349 H 0.52121 0.67936 0.96773 0.0
H350 H 0.38928 0.42012 0.99729 0.0
H351 H 0.71195 0.60895 0.0551 0.0
H352 H 0.27962 0.44876 0.99421 0.0
H353 H 0.47508 0.38527 0.07665 0.0
H354 H 0.6294 0.58504 0.05582 0.0
H355 H 0.49335 0.32557 0.08406 0.0
H356 H 0.35756 0.60557 0.98033 0.0
H357 H 0.73708 0.55324 0.05647 0.0
H358 H 0.71568 0.47346 0.06125 0.0
H359 H 0.44058 0.66244 0.97235 0.0
H360 H 0.65618 0.396 0.06898 0.0
N361 N 0.60757 0.51624 0.05694 0.0
C362 C 0.6397 0.56029 0.0566 0.0
C363 C 0.70071 0.54253 0.05685 0.0
C364 C 0.66765 0.49762 0.05898 0.0
C365 C 0.68666 0.57405 0.05615 0.0
C366 C 0.62078 0.48545 0.05924 0.0
H367 H 0.57305 0.34054 0.07798 0.0
N368 N 0.54302 0.43226 0.06519 0.0
C369 C 0.52007 0.35804 0.07801 0.0
C370 C 0.58736 0.44195 0.06342 0.0
C371 C 0.50979 0.39175 0.07374 0.0
C372 C 0.56507 0.36659 0.07451 0.0
C373 C 0.59962 0.40927 0.06771 0.0
O374 O 0.49 0.46802 0.09137 0.0
O375 O 0.47238 0.49709 0.03673 0.0
O376 O 0.5066 0.57372 1.0225 0.0
O377 O 0.54832 0.56279 0.05378 0.0
O378 O 0.45098 0.44184 0.05924 0.0
O379 O 0.55385 0.53002 0.08943 0.0
O380 O 0.52673 0.54019 0.96119 0.0
O381 O 0.54555 0.51005 1.01621 0.0
O382 O 0.51133 0.43303 0.03028 0.0
O383 O 0.46947 0.44402 0.99916 0.0
O384 O 0.56709 0.56498 0.99359 0.0
O385 O 0.4677 0.47451 0.96411 0.0
C386 C 0.4372 0.4633 0.04556 0.0
C387 C 0.5339 0.49142 0.12784 0.0
C388 C 0.53138 0.49175 0.17324 0.0
C389 C 0.51972 0.50228 0.1501 0.0
C390 C 0.55638 0.4692 0.17365 0.0
C391 C 0.55977 0.46997 0.1288 0.0
C392 C 0.57066 0.4587 0.15159 0.0
C393 C 0.53314 0.5866 0.0423 0.0
C394 C 0.52069 0.50168 0.10378 0.0
C395 C 0.64604 0.4207 0.06607 0.0
C396 C 0.67997 0.46482 0.06169 0.0
C397 C 0.58087 0.54359 1.00733 0.0
C398 C 0.48353 0.50991 0.92488 0.0
C399 C 0.50161 0.5014 0.90331 0.0
C400 C 0.48727 0.50663 0.87962 0.0
C401 C 0.45493 0.52098 0.87797 0.0
C402 C 0.45114 0.52391 0.92277 0.0
C403 C 0.43704 0.52949 0.89939 0.0
C404 C 0.48471 0.42023 1.01053 0.0
C405 C 0.49893 0.50419 0.9494 0.0
H406 H 0.50009 0.51925 0.14939 0.0
H407 H 0.56466 0.45935 0.19106 0.0
H408 H 0.57132 0.46169 0.11197 0.0
H409 H 0.59014 0.44162 0.15217 0.0
H410 H 0.52716 0.49121 0.905 0.0
H411 H 0.44302 0.52511 0.86007 0.0
H412 H 0.4368 0.53049 0.93915 0.0
H413 H 0.41201 0.54031 0.89787 0.0
Eu414 Eu 0.15636 0.29683 0.32938 0.0
C415 C 0.2573 0.46256 0.39442 0.0
C416 C 0.33804 0.48512 0.38932 0.0
C417 C 0.31553 0.54079 0.39494 0.0
C418 C 0.29135 0.45143 0.39061 0.0
C419 C 0.2694 0.50732 0.3975 0.0
C420 C 0.34973 0.52973 0.39078 0.0
C421 C 0.19019 0.48275 0.40814 0.0
N422 N 0.2128 0.42971 0.39668 0.0
C423 C 0.17979 0.43896 0.40499 0.0
C424 C 0.23501 0.51714 0.40389 0.0
Eu425 Eu 0.1989 0.35693 0.38923 0.0
N426 N 0.2793 0.40793 0.38932 0.0
C427 C 0.31255 0.39612 0.38913 0.0
C428 C 0.37186 0.47305 0.38727 0.0
C429 C 0.35909 0.42839 0.3877 0.0
H430 H 0.14482 0.41247 0.40799 0.0
H431 H 0.38511 0.41873 0.38685 0.0
H432 H 0.38533 0.55592 0.38947 0.0
H433 H 0.16361 0.48993 0.41379 0.0
H434 H 0.30404 0.36201 0.38963 0.0
H435 H 0.9691 0.20846 0.3384 0.0
H436 H 0.40798 0.49793 0.38611 0.0
H437 H 0.22277 0.25817 0.30558 0.0
H438 H 0.04692 0.27341 0.33526 0.0
H439 H 0.21775 0.18673 0.29657 0.0
H440 H 0.32529 0.57532 0.39686 0.0
H441 H 0.95821 0.13302 0.33512 0.0
H442 H 0.9929 0.08483 0.32686 0.0
H443 H 0.24299 0.55108 0.40639 0.0
H444 H 0.06078 0.07893 0.31541 0.0
N445 N 0.08021 0.23564 0.33098 0.0
C446 C 0.04274 0.24088 0.33367 0.0
C447 C 0.99251 0.16154 0.33373 0.0
C448 C 0.03074 0.15646 0.32931 0.0
C449 C 0.99848 0.20403 0.33549 0.0
C450 C 0.07466 0.19472 0.32781 0.0
H451 H 0.14463 0.11679 0.30368 0.0
N452 N 0.15366 0.2293 0.31878 0.0
C453 C 0.18797 0.18753 0.30375 0.0
C454 C 0.11262 0.1914 0.32141 0.0
C455 C 0.19069 0.22805 0.30895 0.0
C456 C 0.14668 0.14813 0.30782 0.0
C457 C 0.10806 0.14974 0.31629 0.0
O458 O 0.1909 0.32975 0.29444 0.0
O459 O 0.21195 0.35622 0.34867 0.0
O460 O 0.17042 0.39214 0.36576 0.0
O461 O 0.12364 0.33929 0.33697 0.0
O462 O 0.23263 0.32619 0.32261 0.0
O463 O 0.11758 0.2976 0.29698 0.0
O464 O 0.15941 0.35059 0.42297 0.0
O465 O 0.13697 0.30744 0.36747 0.0
O466 O 0.17809 0.2577 0.35437 0.0
O467 O 0.22771 0.31148 0.38253 0.0
O468 O 0.14403 0.28968 0.40277 0.0
O469 O 0.22422 0.35036 0.42528 0.0
C470 C 0.2467 0.35853 0.33793 0.0
C471 C 0.15009 0.30005 0.2574 0.0
C472 C 0.15966 0.31016 0.21219 0.0
C473 C 0.16316 0.32784 0.23618 0.0
C474 C 0.14327 0.26449 0.20993 0.0
C475 C 0.13401 0.25469 0.25449 0.0
C476 C 0.13072 0.23713 0.23089 0.0
C477 C 0.13947 0.37809 0.34792 0.0
C478 C 0.15331 0.31839 0.28249 0.0
C479 C 0.06489 0.11128 0.319 0.0
C480 C 0.02626 0.11464 0.32552 0.0
C481 C 0.11869 0.27709 0.3836 0.0
C482 C 0.1968 0.36728 0.46221 0.0
C483 C 0.18274 0.33992 0.4836 0.0
C484 C 0.19051 0.35848 0.50757 0.0
C485 C 0.21251 0.40487 0.5096 0.0
C486 C 0.21882 0.41332 0.46484 0.0
C487 C 0.22645 0.43192 0.48843 0.0
C488 C 0.20933 0.27196 0.37217 0.0
C489 C 0.18864 0.34702 0.43744 0.0
H490 H 0.17524 0.36285 0.23834 0.0
H491 H 0.1405 0.24993 0.19185 0.0
H492 H 0.1238 0.23279 0.27045 0.0
H493 H 0.11829 0.20208 0.22883 0.0
H494 H 0.16659 0.30434 0.48155 0.0
H495 H 0.21876 0.4203 0.52764 0.0
H496 H 0.23026 0.43485 0.44871 0.0
H497 H 0.24339 0.46753 0.49035 0.0
Eu498 Eu 0.70605 0.84689 0.332 0.0
C499 C 0.53171 0.76286 0.39516 0.0
C500 C 0.49997 0.8108 0.38747 0.0
C501 C 0.44875 0.73202 0.39419 0.0
C502 C 0.53821 0.80452 0.38981 0.0
C503 C 0.48684 0.72656 0.3985 0.0
C504 C 0.45533 0.77407 0.38863 0.0
C505 C 0.52038 0.68418 0.41419 0.0
N506 N 0.56918 0.75876 0.39958 0.0
C507 C 0.5641 0.72116 0.41076 0.0
C508 C 0.48159 0.68651 0.4074 0.0
Eu509 Eu 0.64188 0.82274 0.39124 0.0
N510 N 0.58177 0.83946 0.38896 0.0
C511 C 0.58929 0.88173 0.38878 0.0
C512 C 0.50772 0.854 0.38507 0.0
C513 C 0.55254 0.88966 0.38638 0.0
H514 H 0.5941 0.71902 0.41576 0.0
H515 H 0.55887 0.92327 0.38531 0.0
H516 H 0.42563 0.77808 0.38626 0.0
H517 H 0.51664 0.6539 0.42201 0.0
H518 H 0.62373 0.90946 0.38955 0.0
H519 H 0.73474 0.70598 0.33209 0.0
H520 H 0.47933 0.86022 0.38312 0.0
H521 H 0.78081 0.95359 0.31936 0.0
H522 H 0.68908 0.7435 0.33264 0.0
H523 H 0.86497 0.0031 0.3146 0.0
H524 H 0.41405 0.70433 0.39617 0.0
H525 H 0.81971 0.75011 0.33046 0.0
H526 H 0.8909 0.82459 0.32739 0.0
H527 H 0.44772 0.65788 0.41019 0.0
H528 H 0.92667 0.90564 0.32329 0.0
N529 N 0.74738 0.80836 0.33149 0.0
C530 C 0.72602 0.76322 0.33178 0.0
C531 C 0.79976 0.76678 0.33057 0.0
C532 C 0.82136 0.81301 0.32941 0.0
C533 C 0.75184 0.74177 0.33145 0.0
C534 C 0.79384 0.8331 0.32973 0.0
H535 H 0.91721 0.97248 0.31834 0.0
N536 N 0.78603 0.8964 0.32697 0.0
C537 C 0.85108 0.96819 0.31845 0.0
C538 C 0.81382 0.87856 0.32761 0.0
C539 C 0.8036 0.94019 0.32115 0.0
C540 C 0.88045 0.95079 0.32061 0.0
C541 C 0.86189 0.9053 0.32474 0.0
O542 O 0.70631 0.87803 0.29671 0.0
O543 O 0.64418 0.84197 0.35107 0.0
O544 O 0.61136 0.75773 0.37036 0.0
O545 O 0.64147 0.77938 0.33025 0.0
O546 O 0.68242 0.89713 0.32871 0.0
O547 O 0.68923 0.80949 0.2975 0.0
O548 O 0.65007 0.80049 0.42767 0.0
O549 O 0.69375 0.81376 0.36882 0.0
O550 O 0.74763 0.90097 0.35984 0.0
O551 O 0.68983 0.89685 0.38582 0.0
O552 O 0.70728 0.82752 0.40579 0.0
O553 O 0.64497 0.86026 0.42419 0.0
C554 C 0.64518 0.87588 0.34177 0.0
C555 C 0.72004 0.84929 0.26012 0.0
C556 C 0.71798 0.8469 0.21491 0.0
C557 C 0.6955 0.84043 0.23792 0.0
C558 C 0.76545 0.86202 0.21444 0.0
C559 C 0.76735 0.86439 0.25938 0.0
C560 C 0.7899 0.87068 0.23657 0.0
C561 C 0.61243 0.74991 0.34644 0.0
C562 C 0.69539 0.84279 0.28372 0.0
C563 C 0.88964 0.88564 0.32526 0.0
C564 C 0.86936 0.83956 0.32758 0.0
C565 C 0.72314 0.82154 0.38549 0.0
C566 C 0.62198 0.82083 0.46244 0.0
C567 C 0.64535 0.82835 0.48494 0.0
C568 C 0.62125 0.8171 0.50766 0.0
C569 C 0.57313 0.79812 0.5075 0.0
C570 C 0.57403 0.80181 0.46255 0.0
C571 C 0.54976 0.79047 0.48504 0.0
C572 C 0.73248 0.91786 0.37694 0.0
C573 C 0.64868 0.83267 0.43925 0.0
H574 H 0.65893 0.82893 0.23856 0.0
H575 H 0.78351 0.86656 0.19699 0.0
H576 H 0.78673 0.87125 0.27632 0.0
H577 H 0.8264 0.8822 0.23605 0.0
H578 H 0.68244 0.8428 0.48474 0.0
H579 H 0.55368 0.78996 0.52471 0.0
H580 H 0.55549 0.79589 0.44535 0.0
H581 H 0.51275 0.77597 0.4851 0.0
Eu582 Eu 0.1892 0.81525 0.3886 0.0
C583 C 0.09656 0.8889 0.32966 0.0
C584 C 0.01629 0.83268 0.33379 0.0
C585 C 0.03813 0.91037 0.33448 0.0
C586 C 0.06307 0.84474 0.3314 0.0
C587 C 0.08408 0.92208 0.32997 0.0
C588 C 1.00431 0.8657 0.33648 0.0
C589 C 0.16141 0.97489 0.31696 0.0
N590 N 0.14053 0.89912 0.32495 0.0
C591 C 0.17185 0.94078 0.31661 0.0
C592 C 0.11764 0.96574 0.32436 0.0
Eu593 Eu 0.15633 0.83961 0.32844 0.0
N594 N 0.07576 0.81355 0.32881 0.0
C595 C 0.04295 0.77017 0.32552 0.0
C596 C 0.98282 0.78789 0.33257 0.0
C597 C 0.99619 0.75665 0.32773 0.0
H598 H 0.20569 0.94817 0.31046 0.0
H599 H 0.97051 0.72206 0.32583 0.0
H600 H 0.96881 0.85706 0.33913 0.0
H601 H 0.18707 0.00812 0.3114 0.0
H602 H 0.05219 0.74547 0.32141 0.0
H603 H 0.36742 0.9496 0.38423 0.0
H604 H 0.94659 0.77731 0.33439 0.0
H605 H 0.14831 0.70946 0.40587 0.0
H606 H 0.28305 0.91615 0.38596 0.0
H607 H 0.17717 0.65717 0.41229 0.0
H608 H 0.02809 0.93545 0.33534 0.0
H609 H 0.40236 0.90168 0.38567 0.0
H610 H 0.39164 0.82544 0.39026 0.0
H611 H 0.10943 0.99212 0.3244 0.0
H612 H 0.33982 0.74561 0.39759 0.0
N613 N 0.27027 0.85006 0.38779 0.0
C614 C 0.29785 0.89496 0.3866 0.0
C615 C 0.36528 0.88687 0.38646 0.0
C616 C 0.3368 0.84097 0.38887 0.0
C617 C 0.34571 0.91402 0.38569 0.0
C618 C 0.28875 0.82333 0.38964 0.0
H619 H 0.2599 0.68273 0.40623 0.0
N620 N 0.21372 0.76305 0.39521 0.0
C621 C 0.20066 0.69108 0.40677 0.0
C622 C 0.25958 0.77842 0.39337 0.0
C623 C 0.18446 0.72064 0.40314 0.0
C624 C 0.24738 0.70563 0.40329 0.0
C625 C 0.27764 0.74998 0.39699 0.0
O626 O 0.15458 0.7889 0.42427 0.0
O627 O 0.13454 0.82205 0.36849 0.0
O628 O 0.20233 0.9047 0.34842 0.0
O629 O 0.19329 0.88165 0.38948 0.0
O630 O 0.11331 0.76591 0.39057 0.0
O631 O 0.21585 0.85297 0.42286 0.0
O632 O 0.19381 0.87468 0.29475 0.0
O633 O 0.2162 0.84746 0.35139 0.0
O634 O 0.17259 0.758 0.36298 0.0
O635 O 0.12698 0.76524 0.33291 0.0
O636 O 0.20895 0.82095 0.31646 0.0
O637 O 0.13236 0.81036 0.29192 0.0
C638 C 0.0995 0.78763 0.37707 0.0
C639 C 0.19938 0.81238 0.46053 0.0
C640 C 0.19973 0.81261 0.50597 0.0
C641 C 0.18641 0.82293 0.48328 0.0
C642 C 0.22533 0.79066 0.50545 0.0
C643 C 0.22586 0.79152 0.46054 0.0
C644 C 0.23849 0.78052 0.4829 0.0
C645 C 0.20426 0.91264 0.3725 0.0
C646 C 0.18427 0.82255 0.43704 0.0
C647 C 0.32535 0.76704 0.39515 0.0
C648 C 0.35486 0.81246 0.39104 0.0
C649 C 0.23438 0.83356 0.33572 0.0
C650 C 0.15408 0.85709 0.25637 0.0
C651 C 0.16641 0.84561 0.23367 0.0
C652 C 0.15495 0.85744 0.21086 0.0
C653 C 0.13194 0.88189 0.21123 0.0
C654 C 0.13042 0.88072 0.25622 0.0
C655 C 0.11971 0.89326 0.23373 0.0
C656 C 0.14343 0.74248 0.34438 0.0
C657 C 0.16573 0.84353 0.27989 0.0
H658 H 0.16636 0.83952 0.48328 0.0
H659 H 0.23491 0.78098 0.52249 0.0
H660 H 0.23654 0.78349 0.44334 0.0
H661 H 0.25844 0.76389 0.48275 0.0
H662 H 0.18423 0.82685 0.23378 0.0
H663 H 0.12363 0.89251 0.1941 0.0
H664 H 0.12022 0.88941 0.27342 0.0
H665 H 0.10178 0.91186 0.23372 0.0
Eu666 Eu 0.82416 0.63822 0.66342 0.0
C667 C 0.92485 0.80557 0.73144 0.0
C668 C 1.00518 0.82731 0.72675 0.0
C669 C 0.98363 0.88303 0.73522 0.0
C670 C 0.95827 0.79444 0.72678 0.0
C671 C 0.93715 0.8498 0.73642 0.0
C672 C 0.01761 0.87181 0.73033 0.0
C673 C 0.85703 0.82447 0.74519 0.0
N674 N 0.88038 0.77269 0.73246 0.0
C675 C 0.8466 0.78114 0.74005 0.0
C676 C 0.90245 0.85907 0.74309 0.0
Eu677 Eu 0.86477 0.70039 0.72256 0.0
N678 N 0.94502 0.75111 0.72364 0.0
C679 C 0.9771 0.73795 0.72266 0.0
C680 C 0.03818 0.81428 0.72392 0.0
C681 C 0.02406 0.76931 0.72234 0.0
H682 H 0.81139 0.75451 0.74152 0.0
H683 H 0.04931 0.75876 0.72074 0.0
H684 H 0.05344 0.89761 0.73007 0.0
H685 H 0.83003 0.83118 0.75069 0.0
H686 H 0.96676 0.70336 0.72127 0.0
H687 H 0.63898 0.57774 0.66649 0.0
H688 H 0.07456 0.8385 0.72367 0.0
H689 H 0.87609 0.58532 0.64069 0.0
H690 H 0.72117 0.63369 0.66486 0.0
H691 H 0.85837 0.50866 0.63228 0.0
H692 H 0.99375 0.91731 0.73865 0.0
H693 H 0.61458 0.49807 0.66487 0.0
H694 H 0.63648 0.43936 0.65905 0.0
H695 H 0.91046 0.89261 0.74707 0.0
H696 H 0.69648 0.4204 0.64966 0.0
N697 N 0.74383 0.58661 0.66306 0.0
C698 C 0.71131 0.59923 0.66395 0.0
C699 C 0.65085 0.52258 0.66413 0.0
C700 C 0.68417 0.50996 0.66134 0.0
C701 C 0.66448 0.5675 0.66493 0.0
C702 C 0.73094 0.54324 0.66064 0.0
H703 H 0.77935 0.44614 0.6391 0.0
N704 N 0.80849 0.56596 0.65326 0.0
C705 C 0.83169 0.51483 0.63907 0.0
C706 C 0.76446 0.53254 0.65556 0.0
C707 C 0.84165 0.55813 0.64392 0.0
C708 C 0.78707 0.47963 0.643 0.0
C709 C 0.75251 0.48833 0.65079 0.0
O710 O 0.86118 0.65604 0.62783 0.0
O711 O 0.881 0.69706 0.68246 0.0
O712 O 0.85059 0.74292 0.69628 0.0
O713 O 0.80127 0.68968 0.66819 0.0
O714 O 0.89983 0.66148 0.6592 0.0
O715 O 0.79648 0.65441 0.63076 0.0
O716 O 0.8293 0.68682 0.75853 0.0
O717 O 0.80868 0.64168 0.70346 0.0
O718 O 0.84016 0.59583 0.68906 0.0
O719 O 0.88574 0.64775 0.71907 0.0
O720 O 0.78872 0.67564 0.72713 0.0
O721 O 0.89009 0.68105 0.7549 0.0
C722 C 0.91518 0.6958 0.6732 0.0
C723 C 0.81726 0.63909 0.59136 0.0
C724 C 0.81937 0.64457 0.54584 0.0
C725 C 0.83068 0.665 0.56938 0.0
C726 C 0.79575 0.598 0.54484 0.0
C727 C 0.79272 0.59282 0.58966 0.0
C728 C 0.78234 0.57249 0.56654 0.0
C729 C 0.81985 0.72957 0.67832 0.0
C730 C 0.82996 0.66023 0.61598 0.0
C731 C 0.70631 0.45466 0.65293 0.0
C732 C 0.67216 0.46546 0.65825 0.0
C733 C 0.7741 0.64161 0.71296 0.0
C734 C 0.87288 0.69785 0.79482 0.0
C735 C 0.85498 0.67102 0.8163 0.0
C736 C 0.8682 0.68948 0.84021 0.0
C737 C 0.89953 0.73515 0.8421 0.0
C738 C 0.90412 0.74317 0.79734 0.0
C739 C 0.91732 0.76162 0.82086 0.0
C740 C 0.86849 0.60865 0.70822 0.0
C741 C 0.85822 0.67846 0.76994 0.0
H742 H 0.84939 0.7008 0.5706 0.0
H743 H 0.78786 0.58115 0.52719 0.0
H744 H 0.78188 0.57237 0.6062 0.0
H745 H 0.76393 0.53671 0.56542 0.0
H746 H 0.83032 0.63607 0.81437 0.0
H747 H 0.9107 0.75038 0.8601 0.0
H748 H 0.91822 0.76427 0.78111 0.0
H749 H 0.9415 0.79666 0.82265 0.0
Eu750 Eu 0.37933 0.1797 0.66114 0.0
C751 C 0.20154 0.11524 0.72362 0.0
C752 C 0.18717 0.1765 0.71972 0.0
C753 C 0.12298 0.10143 0.72406 0.0
C754 C 0.21797 0.16007 0.72052 0.0
C755 C 0.15393 0.08558 0.72634 0.0
C756 C 0.13963 0.14684 0.72066 0.0
C757 C 0.17143 0.02794 0.73626 0.0
N758 N 0.23233 0.10108 0.72588 0.0
C759 C 0.21829 0.05872 0.73356 0.0
C760 C 0.13902 0.04123 0.73217 0.0
Eu761 Eu 0.31084 0.15443 0.71925 0.0
N762 N 0.26414 0.18786 0.71958 0.0
C763 C 0.28176 0.2327 0.72006 0.0
C764 C 0.20507 0.22232 0.71864 0.0
C765 C 0.25257 0.25054 0.71934 0.0
H766 H 0.24342 0.04848 0.73669 0.0
H767 H 0.26679 0.28607 0.71901 0.0
H768 H 0.11566 0.15898 0.71949 0.0
H769 H 0.16036 0.99405 0.74151 0.0
H770 H 0.31834 0.25512 0.72024 0.0
H771 H 0.42777 0.05125 0.66493 0.0
H772 H 0.18254 0.23623 0.71791 0.0
H773 H 0.44457 0.28514 0.64226 0.0
H774 H 0.37467 0.08035 0.66236 0.0
H775 H 0.52711 0.34072 0.6369 0.0
H776 H 0.08624 0.07905 0.72565 0.0
H777 H 0.51175 0.10269 0.66561 0.0
H778 H 0.57729 0.18047 0.66246 0.0
H779 H 0.10274 0.0174 0.73441 0.0
H780 H 0.60479 0.2597 0.65472 0.0
N781 N 0.42772 0.14809 0.66192 0.0
C782 C 0.41111 0.10341 0.66236 0.0
C783 C 0.48853 0.11574 0.66431 0.0
C784 C 0.50536 0.1613 0.6622 0.0
C785 C 0.44118 0.08663 0.66386 0.0
C786 C 0.47369 0.17661 0.66068 0.0
H787 H 0.58624 0.31956 0.64467 0.0
N788 N 0.45734 0.23388 0.65371 0.0
C789 C 0.5169 0.30722 0.64257 0.0
C790 C 0.48901 0.22097 0.65654 0.0
C791 C 0.47031 0.27573 0.64551 0.0
C792 C 0.55016 0.29518 0.64706 0.0
C793 C 0.53638 0.25136 0.65361 0.0
O794 O 0.37474 0.20511 0.62475 0.0
O795 O 0.31656 0.17414 0.67937 0.0
O796 O 0.26796 0.09851 0.69311 0.0
O797 O 0.32184 0.10731 0.66256 0.0
O798 O 0.35327 0.228 0.65614 0.0
O799 O 0.36177 0.13808 0.62828 0.0
O800 O 0.31571 0.12699 0.75479 0.0
O801 O 0.37413 0.16071 0.70126 0.0
O802 O 0.42147 0.23724 0.68648 0.0
O803 O 0.36948 0.22635 0.71864 0.0
O804 O 0.3367 0.10586 0.72371 0.0
O805 O 0.32599 0.19336 0.75315 0.0
C806 C 0.31702 0.20765 0.66999 0.0
C807 C 0.39227 0.17484 0.59013 0.0
C808 C 0.39518 0.17366 0.54488 0.0
C809 C 0.37041 0.16778 0.5671 0.0
C810 C 0.44197 0.18619 0.54607 0.0
C811 C 0.43894 0.18734 0.59092 0.0
C812 C 0.46362 0.19298 0.56897 0.0
C813 C 0.28121 0.08444 0.67374 0.0
C814 C 0.36598 0.1691 0.61311 0.0
C815 C 0.56822 0.23672 0.65651 0.0
C816 C 0.55267 0.19174 0.66086 0.0
C817 C 0.37391 0.12727 0.71066 0.0
C818 C 0.29693 0.15325 0.79064 0.0
C819 C 0.32066 0.16563 0.81317 0.0
C820 C 0.29651 0.15608 0.83588 0.0
C821 C 0.24812 0.1335 0.83563 0.0
C822 C 0.24878 0.13184 0.79076 0.0
C823 C 0.22454 0.12191 0.81318 0.0
C824 C 0.40918 0.25017 0.7067 0.0
C825 C 0.32304 0.16171 0.76737 0.0
H826 H 0.33431 0.15812 0.56647 0.0
H827 H 0.46163 0.19011 0.5293 0.0
H828 H 0.45623 0.19253 0.60845 0.0
H829 H 0.4996 0.20246 0.56971 0.0
H830 H 0.35794 0.18273 0.81296 0.0
H831 H 0.2284 0.12425 0.85276 0.0
H832 H 0.22992 0.12241 0.77362 0.0
H833 H 0.18733 0.10477 0.81318 0.0
Eu834 Eu 0.86237 0.15448 0.72299 0.0
C835 C 0.78059 0.24594 0.6577 0.0
C836 C 0.6985 0.19565 0.6603 0.0
C837 C 0.72795 0.27456 0.65462 0.0
C838 C 0.74398 0.20354 0.66087 0.0
C839 C 0.77301 0.2818 0.65379 0.0
C840 C 0.69079 0.23155 0.65788 0.0
C841 C 0.85439 0.32809 0.6456 0.0
N842 N 0.82353 0.25159 0.65657 0.0
C843 C 0.86005 0.2914 0.64945 0.0
C844 C 0.81076 0.32346 0.6482 0.0
Eu845 Eu 0.8311 0.18878 0.66474 0.0
N846 N 0.75278 0.16965 0.66267 0.0
C847 C 0.71767 0.12682 0.66167 0.0
C848 C 0.66224 0.15182 0.66117 0.0
C849 C 0.67191 0.11724 0.66138 0.0
H850 H 0.89386 0.29514 0.64743 0.0
H851 H 0.64417 0.0832 0.66143 0.0
H852 H 0.65627 0.22633 0.65764 0.0
H853 H 0.88364 0.35987 0.64063 0.0
H854 H 0.72467 0.09979 0.66195 0.0
H855 H 0.04923 0.26058 0.72603 0.0
H856 H 0.62679 0.14431 0.66086 0.0
H857 H 0.80001 0.04816 0.74049 0.0
H858 H 0.96859 0.24364 0.72539 0.0
H859 H 0.81045 0.98358 0.74726 0.0
H860 H 0.72138 0.30173 0.65194 0.0
H861 H 0.06695 0.19968 0.727 0.0
H862 H 0.03785 0.11785 0.7308 0.0
H863 H 0.80638 0.35185 0.64506 0.0
H864 H 0.97288 0.04231 0.7364 0.0
N865 N 0.94078 0.17382 0.72493 0.0
C866 C 0.97577 0.21673 0.72582 0.0
C867 C 0.03146 0.19204 0.72662 0.0
C868 C 0.99532 0.14817 0.72762 0.0
C869 C 0.02159 0.22649 0.72618 0.0
C870 C 0.94977 0.14008 0.72692 0.0
H871 H 0.88787 0.9919 0.743 0.0
N872 N 0.87029 0.09189 0.73135 0.0
C873 C 0.83965 0.01541 0.74232 0.0
C874 C 0.91328 0.09767 0.73022 0.0
C875 C 0.83385 0.05202 0.73846 0.0
C876 C 0.88336 0.02021 0.73981 0.0
C877 C 0.92104 0.06194 0.73424 0.0
O878 O 0.82403 0.134 0.75806 0.0
O879 O 0.80968 0.16567 0.70396 0.0
O880 O 0.84653 0.24289 0.69246 0.0
O881 O 0.8889 0.22895 0.72187 0.0
O882 O 0.7855 0.10908 0.72553 0.0
O883 O 0.89093 0.19296 0.75671 0.0
O884 O 0.87006 0.20916 0.62984 0.0
O885 O 0.88344 0.17717 0.68376 0.0
O886 O 0.84573 0.09983 0.69557 0.0
O887 O 0.80383 0.11425 0.66605 0.0
O888 O 0.90813 0.23413 0.66257 0.0
O889 O 0.80265 0.15105 0.63069 0.0
C890 C 0.77339 0.13199 0.71198 0.0
C891 C 0.867 0.15402 0.79488 0.0
C892 C 0.86088 0.15271 0.84014 0.0
C893 C 0.85198 0.16492 0.81676 0.0
C894 C 0.88553 0.12987 0.84118 0.0
C895 C 0.8915 0.13126 0.79635 0.0
C896 C 0.9007 0.11929 0.81943 0.0
C897 C 0.87378 0.25411 0.71194 0.0
C898 C 0.85622 0.1661 0.77072 0.0
C899 C 0.96617 0.06936 0.73357 0.0
C900 C 1.00324 0.11243 0.7303 0.0
C901 C 0.91992 0.21075 0.67592 0.0
C902 C 0.82778 0.19105 0.5928 0.0
C903 C 0.83986 0.17811 0.57056 0.0
C904 C 0.83121 0.1914 0.54741 0.0
C905 C 0.81132 0.21865 0.54698 0.0
C906 C 0.8071 0.21739 0.59183 0.0
C907 C 0.79917 0.23127 0.56903 0.0
C908 C 0.81801 0.08859 0.67631 0.0
C909 C 0.83779 0.17775 0.61688 0.0
H910 H 0.83381 0.18327 0.81554 0.0
H911 H 0.89272 0.1198 0.85884 0.0
H912 H 0.90346 0.12276 0.77972 0.0
H913 H 0.91955 0.10163 0.82046 0.0
H914 H 0.85549 0.15741 0.57127 0.0
H915 H 0.80542 0.23048 0.52957 0.0
H916 H 0.79732 0.22745 0.60865 0.0
H917 H 0.78367 0.25204 0.56844 0.0
C918 C 0.33789 0.86204 0.06121 0.0
C919 C 0.30161 0.86997 0.06698 0.0
C920 C 0.38062 0.89638 0.05245 0.0
C921 C 0.388 0.93946 0.0488 0.0
H922 H 0.33401 0.82972 0.06472 0.0
H923 H 0.40856 0.88968 0.04973 0.0
S924 S 0.30215 0.97564 0.05769 0.0
N925 N 0.27458 0.92286 0.06596 0.0
N926 N 0.35441 0.98704 0.04941 0.0
C927 C 0.35111 0.94694 0.05307 0.0
C928 C 0.30798 0.91227 0.06209 0.0
C929 C 0.11233 0.40893 0.06146 0.0
C930 C 0.15423 0.44532 0.06895 0.0
C931 C 0.07658 0.41467 0.05218 0.0
C932 C 0.08131 0.45699 0.04998 0.0
H933 H 0.10674 0.37565 0.06342 0.0
H934 H 0.04448 0.3856 0.04724 0.0
S935 S 0.18351 0.56279 0.06841 0.0
N936 N 0.19833 0.52496 0.07395 0.0
N937 N 0.13083 0.5358 0.05724 0.0
C938 C 0.12319 0.4937 0.05737 0.0
C939 C 0.15978 0.48784 0.06657 0.0
C940 C 0.54498 0.67044 0.09007 0.0
C941 C 0.56664 0.71058 0.07666 0.0
C942 C 0.53432 0.63041 0.07869 0.0
C943 C 0.54475 0.6292 0.05353 0.0
H944 H 0.53586 0.66995 0.10942 0.0
H945 H 0.51736 0.6001 0.08957 0.0
S946 S 0.60576 0.72532 1.01104 0.0
N947 N 0.60095 0.7469 0.03734 0.0
N948 N 0.58096 0.67144 1.01611 0.0
C949 C 0.56708 0.66898 0.04004 0.0
C950 C 0.57802 0.70978 0.05159 0.0
C951 C 0.86991 0.32858 0.96561 0.0
C952 C 0.84961 0.28945 0.98001 0.0
C953 C 0.90141 0.36949 0.97587 0.0
C954 C 0.91345 0.37305 1.00101 0.0
H955 H 0.86142 0.32762 0.94619 0.0
H956 H 0.9162 0.39868 0.96405 0.0
S957 S 0.8726 0.28081 0.04647 0.0
N958 N 0.84561 0.25694 1.02063 0.0
N959 N 0.90437 0.3341 0.03985 0.0
C960 C 0.89349 0.33447 1.01568 0.0
C961 C 0.86164 0.29264 1.00522 0.0
C962 C 0.70546 0.59447 0.98664 0.0
C963 C 0.71166 0.55782 0.98305 0.0
C964 C 0.66371 0.58927 0.99571 0.0
C965 C 0.62619 0.54721 1.00159 0.0
H966 H 0.73289 0.62746 0.98186 0.0
H967 H 0.66037 0.61849 0.99758 0.0
S968 S 0.62418 0.4403 0.99487 0.0
N969 N 0.67686 0.47792 0.98624 0.0
N970 N 0.5978 0.46797 1.00239 0.0
C971 C 0.63204 0.51023 0.99835 0.0
C972 C 0.67495 0.51561 0.98942 0.0
C973 C 0.4648 0.13274 0.96203 0.0
C974 C 0.44131 0.15011 0.97534 0.0
C975 C 0.47753 0.10442 0.97354 0.0
C976 C 0.46735 0.09281 0.99871 0.0
H977 H 0.47411 0.14173 0.94273 0.0
H978 H 0.49598 0.09196 0.96278 0.0
S979 S 0.40132 0.1247 0.04075 0.0
N980 N 0.40515 0.15081 1.01445 0.0
N981 N 0.42877 0.09709 0.03589 0.0
C982 C 0.44278 0.10881 1.01201 0.0
C983 C 0.42981 0.13763 1.00035 0.0
C984 C 0.70046 0.09696 0.98603 0.0
C985 C 0.70634 0.13919 0.98137 0.0
C986 C 0.65892 0.06261 0.99558 0.0
C987 C 0.62162 0.0691 1.00086 0.0
H988 H 0.72794 0.09019 0.98177 0.0
H989 H 0.65554 0.03028 0.9983 0.0
S990 S 0.61925 0.17346 0.9916 0.0
N991 N 0.67174 0.18595 0.983 0.0
N992 N 0.59305 0.1209 1.00027 0.0
C993 C 0.62724 0.11139 0.99667 0.0
C994 C 0.66985 0.1466 0.98718 0.0
C995 C 0.84326 0.50414 0.98927 0.0
C996 C 0.85754 0.54849 0.98315 0.0
C997 C 0.87504 0.49159 0.99729 0.0
C998 C 0.92181 0.52314 1.00038 0.0
H999 H 0.80781 0.47867 0.98658 0.0
H1000 H 0.86323 0.45679 1.00043 0.0
S1001 S 0.97636 0.64356 0.98782 0.0
N1002 N 0.92148 0.6241 0.98153 0.0
N1003 N 0.98075 0.60042 0.99667 0.0
C1004 C 0.93618 0.56764 0.99505 0.0
C1005 C 0.9041 0.58036 0.9866 0.0
C1006 C 0.47115 0.33592 0.96277 0.0
C1007 C 0.44711 0.29567 0.97592 0.0
C1008 C 0.48353 0.37623 0.97432 0.0
C1009 C 0.4725 0.37753 0.99936 0.0
H1010 H 0.48069 0.33627 0.9435 0.0
H1011 H 0.50207 0.40664 0.96363 0.0
S1012 S 0.40607 0.28146 0.04117 0.0
N1013 N 0.41033 0.25951 1.01489 0.0
N1014 N 0.43355 0.33553 0.0364 0.0
C1015 C 0.448 0.3377 1.0126 0.0
C1016 C 0.43532 0.29664 1.0009 0.0
C1017 C 0.14741 0.71099 0.04636 0.0
C1018 C 0.16391 0.71624 0.07079 0.0
C1019 C 0.11755 0.6687 0.0367 0.0
C1020 C 0.10336 0.63012 0.05108 0.0
H1021 H 0.15652 0.73985 0.0349 0.0
H1022 H 0.10457 0.66639 1.01812 0.0
S1023 S 0.14107 0.62609 0.11534 0.0
N1024 N 0.16685 0.67934 0.1084 0.0
N1025 N 0.11102 0.60033 0.09064 0.0
C1026 C 0.12106 0.63512 0.07529 0.0
C1027 C 0.15127 0.67799 0.08502 0.0
C1028 C 0.31262 0.41025 0.06619 0.0
C1029 C 0.3053 0.44625 0.06958 0.0
C1030 C 0.35464 0.41634 0.05705 0.0
C1031 C 0.39138 0.45871 0.05094 0.0
H1032 H 0.28589 0.37708 0.07124 0.0
H1033 H 0.3589 0.38761 0.05542 0.0
S1034 S 0.38997 0.56413 0.05648 0.0
N1035 N 0.33787 0.5258 0.06554 0.0
N1036 N 0.4176 0.53751 0.04925 0.0
C1037 C 0.38429 0.49503 0.05375 0.0
C1038 C 0.34103 0.4887 0.06276 0.0
C1039 C 0.52075 0.83844 0.068 0.0
C1040 C 0.56509 0.85333 0.07748 0.0
C1041 C 0.50939 0.86782 0.05644 0.0
C1042 C 0.54187 0.91317 0.05411 0.0
H1043 H 0.49443 0.80395 0.06989 0.0
H1044 H 0.47462 0.85509 0.04984 0.0
S1045 S 0.66431 0.9676 0.07284 0.0
N1046 N 0.6427 0.91548 0.08158 0.0
N1047 N 0.62132 0.97061 0.06019 0.0
C1048 C 0.58667 0.9281 0.06278 0.0
C1049 C 0.59827 0.89823 0.07441 0.0
C1050 C 0.00961 0.17294 0.40126 0.0
C1051 C 0.9791 0.18869 0.40626 0.0
C1052 C 0.05426 0.20141 0.39223 0.0
C1053 C 0.06931 0.24615 0.38714 0.0
H1054 H 0.99961 0.13886 0.40545 0.0
H1055 H 0.07768 0.18872 0.38996 0.0
S1056 S 1.00187 0.30301 0.39528 0.0
N1057 N 0.96637 0.25143 0.40423 0.0
N1058 N 0.05024 0.30477 0.38702 0.0
C1059 C 0.03868 0.26194 0.39113 0.0
C1060 C 0.99347 0.23318 0.40065 0.0
C1061 C 0.83816 0.82932 0.39654 0.0
C1062 C 0.82527 0.78509 0.40206 0.0
C1063 C 0.80521 0.84084 0.38922 0.0
C1064 C 0.75869 0.80837 0.38626 0.0
H1065 H 0.87327 0.85543 0.39941 0.0
H1066 H 0.81582 0.87553 0.38682 0.0
S1067 S 0.70785 0.68787 0.39715 0.0
N1068 N 0.76308 0.70863 0.40303 0.0
N1069 N 0.70168 0.73039 0.38917 0.0
C1070 C 0.74587 0.76401 0.39077 0.0
C1071 C 0.77909 0.75232 0.39848 0.0
C1072 C 0.22366 0.00467 0.41639 0.0
C1073 C 0.25321 0.0432 0.40299 0.0
C1074 C 0.20741 0.96289 0.40597 0.0
C1075 C 0.22044 0.95792 0.3818 0.0
H1076 H 0.21264 0.00687 0.435 0.0
H1077 H 0.18439 0.93419 0.41707 0.0
S1078 S 0.29942 0.04914 0.33962 0.0
N1079 N 0.29564 0.07449 0.3646 0.0
N1080 N 0.2665 0.99559 0.34523 0.0
C1081 C 0.25031 0.99636 0.36825 0.0
C1082 C 0.26638 0.0391 0.3788 0.0
C1083 C 0.52934 0.66283 0.30231 0.0
C1084 C 0.51517 0.6229 0.31522 0.0
C1085 C 0.56039 0.70364 0.31277 0.0
C1086 C 0.57846 0.70615 0.33657 0.0
H1087 H 0.51658 0.66248 0.28386 0.0
H1088 H 0.57039 0.73353 0.30208 0.0
S1089 S 0.55464 0.61109 0.37738 0.0
N1090 N 0.52256 0.58821 0.35275 0.0
N1091 N 0.58158 0.66506 0.37226 0.0
C1092 C 0.56455 0.66653 0.34973 0.0
C1093 C 0.53271 0.62487 0.3391 0.0
C1094 C 0.34524 0.8345 0.3203 0.0
C1095 C 0.37542 0.87914 0.31389 0.0
C1096 C 0.30021 0.82028 0.32885 0.0
C1097 C 0.28424 0.85035 0.33219 0.0
H1098 H 0.35574 0.81004 0.31758 0.0
H1099 H 0.27732 0.78532 0.33223 0.0
S1100 S 0.35032 0.97106 0.31957 0.0
N1101 N 0.38658 0.95359 0.31259 0.0
N1102 N 0.30225 0.92677 0.32874 0.0
C1103 C 0.31451 0.89519 0.32665 0.0
C1104 C 0.36007 0.90963 0.31764 0.0
C1105 C 0.13945 0.48252 0.32856 0.0
C1106 C 0.09645 0.4663 0.31707 0.0
C1107 C 0.15215 0.45378 0.33955 0.0
C1108 C 0.12264 0.40767 0.33916 0.0
H1109 H 0.16411 0.51767 0.32848 0.0
H1110 H 0.18605 0.46778 0.34756 0.0
S1111 S 1.00395 0.34871 0.3145 0.0
N1112 N 0.02249 0.40145 0.30839 0.0
N1113 N 0.04689 0.34736 0.32841 0.0
C1114 C 0.07891 0.3911 0.3286 0.0
C1115 C 0.06573 0.42041 0.31767 0.0
C1116 C 0.37083 0.4285 0.31861 0.0
C1117 C 0.37589 0.47062 0.31488 0.0
C1118 C 0.32953 0.39319 0.32772 0.0
C1119 C 0.29176 0.39864 0.33357 0.0
H1120 H 0.39869 0.42255 0.31386 0.0
H1121 H 0.32658 0.36089 0.32949 0.0
S1122 S 0.28707 0.50214 0.32666 0.0
N1123 N 0.33993 0.51609 0.31795 0.0
N1124 N 0.26164 0.44915 0.33439 0.0
C1125 C 0.29655 0.44076 0.33037 0.0
C1126 C 0.33888 0.47696 0.3213 0.0
C1127 C 0.57424 0.9265 0.32022 0.0
C1128 C 0.531 0.88959 0.31514 0.0
C1129 C 0.61015 0.92145 0.32977 0.0
C1130 C 0.60435 0.87929 0.33466 0.0
H1131 H 0.58061 0.95962 0.31631 0.0
H1132 H 0.64309 0.95084 0.33296 0.0
S1133 S 0.49838 0.77184 0.32353 0.0
N1134 N 0.4844 0.80938 0.31548 0.0
N1135 N 0.55236 0.79974 0.33273 0.0
C1136 C 0.5612 0.842 0.32975 0.0
C1137 C 0.52437 0.8472 0.32027 0.0
C1138 C 0.07155 0.62908 0.31609 0.0
C1139 C 0.10195 0.61231 0.31569 0.0
C1140 C 0.08499 0.671 0.32574 0.0
C1141 C 0.12921 0.69756 0.33544 0.0
H1142 H 0.03712 0.60966 0.30882 0.0
H1143 H 0.06045 0.68253 0.32568 0.0
S1144 S 0.2224 0.66976 0.33781 0.0
N1145 N 0.17873 0.62604 0.32517 0.0
N1146 N 0.20369 0.70455 0.34365 0.0
C1147 C 0.15979 0.68102 0.33541 0.0
C1148 C 0.14623 0.63847 0.32544 0.0
C1149 C 0.84347 0.01866 0.39745 0.0
C1150 C 0.82827 0.04639 0.40753 0.0
C1151 C 0.81238 0.97757 0.38709 0.0
C1152 C 0.76488 0.96254 0.38658 0.0
H1153 H 0.87953 0.0283 0.39805 0.0
H1154 H 0.82559 0.95698 0.38003 0.0
S1155 S 0.7083 0.02511 0.40766 0.0
N1156 N 0.76314 0.05772 0.41413 0.0
N1157 N 0.70481 0.9804 0.39516 0.0
C1158 C 0.74948 0.99058 0.39588 0.0
C1159 C 0.78112 0.03249 0.40623 0.0
C1160 C 0.00853 0.81609 0.39833 0.0
C1161 C 0.9699 0.77391 0.40261 0.0
C1162 C 0.05018 0.82082 0.38898 0.0
C1163 C 0.05417 0.78352 0.38305 0.0
H1164 H 1.00706 0.84552 0.4031 0.0
H1165 H 0.07973 0.85377 0.38705 0.0
S1166 S 0.96209 0.66617 0.38917 0.0
N1167 N 0.93784 0.69451 0.39914 0.0
N1168 N 0.01537 0.70332 0.38131 0.0
C1169 C 0.01533 0.7414 0.3866 0.0
C1170 C 0.97334 0.73661 0.39629 0.0
C1171 C 0.25851 0.19558 0.3787 0.0
C1172 C 0.25367 0.18623 0.40437 0.0
C1173 C 0.24315 0.22264 0.36806 0.0
C1174 C 0.22279 0.24134 0.38279 0.0
H1175 H 0.27483 0.18237 0.3668 0.0
H1176 H 0.24844 0.22993 0.3484 0.0
S1177 S 0.19857 0.22467 0.45031 0.0
N1178 N 0.22387 0.19563 0.4438 0.0
N1179 N 0.19664 0.24759 0.42385 0.0
C1180 C 0.21722 0.23196 0.40831 0.0
C1181 C 0.23226 0.20411 0.4191 0.0
C1182 C 0.68244 0.52399 0.73059 0.0
C1183 C 0.6452 0.52971 0.73757 0.0
C1184 C 0.72375 0.55975 0.72128 0.0
C1185 C 0.72874 0.6021 0.71832 0.0
H1186 H 0.68039 0.49227 0.73341 0.0
H1187 H 0.75245 0.55464 0.71734 0.0
S1188 S 0.63942 0.63269 0.73068 0.0
N1189 N 0.61465 0.57984 0.73859 0.0
N1190 N 0.69181 0.64663 0.72113 0.0
C1191 C 0.69094 0.60746 0.72404 0.0
C1192 C 0.64923 0.57135 0.73355 0.0
C1193 C 0.44565 0.07753 0.73313 0.0
C1194 C 0.4897 0.11443 0.7366 0.0
C1195 C 0.4093 0.08224 0.72379 0.0
C1196 C 0.41528 0.12403 0.71745 0.0
H1197 H 0.43899 0.0447 0.73812 0.0
H1198 H 0.37586 0.05284 0.72189 0.0
S1199 S 0.52345 0.23153 0.72429 0.0
N1200 N 0.53724 0.1943 0.73327 0.0
N1201 N 0.46869 0.20338 0.71653 0.0
C1202 C 0.45926 0.16128 0.72081 0.0
C1203 C 0.49653 0.15639 0.73006 0.0
C1204 C 0.92024 0.37721 0.71997 0.0
C1205 C 0.91514 0.38098 0.74565 0.0
C1206 C 0.90701 0.33608 0.70917 0.0
C1207 C 0.8882 0.29724 0.7236 0.0
H1208 H 0.93494 0.40637 0.70814 0.0
H1209 H 0.91245 0.33489 0.68949 0.0
S1210 S 0.86574 0.28841 0.79136 0.0
N1211 N 0.88858 0.34176 0.78509 0.0
N1212 N 0.86422 0.26463 0.76468 0.0
C1213 C 0.88308 0.30041 0.74925 0.0
C1214 C 0.89638 0.34222 0.76029 0.0
C1215 C 0.19825 0.96085 0.66883 0.0
C1216 C 0.18762 0.9553 0.64337 0.0
C1217 C 0.22792 0.00287 0.67869 0.0
C1218 C 0.2484 0.04078 0.66342 0.0
H1219 H 0.1846 0.93237 0.68114 0.0
H1220 H 0.23605 0.00544 0.69821 0.0
S1221 S 0.22837 0.04568 0.59633 0.0
N1222 N 0.19694 0.99265 0.60367 0.0
N1223 N 0.25395 0.07101 0.62217 0.0
C1224 C 0.23735 0.03607 0.63818 0.0
C1225 C 0.20664 0.99353 0.62817 0.0
C1226 C 0.01107 0.18069 0.65688 0.0
C1227 C 0.04958 0.22271 0.65186 0.0
C1228 C 0.96946 0.17636 0.6662 0.0
C1229 C 0.96528 0.21397 0.67099 0.0
H1230 H 0.01238 0.15107 0.65242 0.0
H1231 H 0.93991 0.14352 0.66855 0.0
S1232 S 0.05773 0.33104 0.6638 0.0
N1233 N 0.08181 0.3022 0.65444 0.0
N1234 N 1.0045 0.29425 0.67193 0.0
C1235 C 1.00439 0.2559 0.66728 0.0
C1236 C 0.04631 0.26023 0.65781 0.0
C1237 C 0.74811 0.77117 0.6459 0.0
C1238 C 0.7754 0.8176 0.64725 0.0
C1239 C 0.76255 0.74322 0.65622 0.0
C1240 C 0.80446 0.76025 0.66893 0.0
H1241 H 0.7151 0.75604 0.63679 0.0
H1242 H 0.74038 0.70786 0.65423 0.0
S1243 S 0.88859 0.8793 0.67846 0.0
N1244 N 0.8474 0.8793 0.66197 0.0
N1245 N 0.87228 0.82667 0.68316 0.0
C1246 C 0.83143 0.80651 0.67121 0.0
C1247 C 0.8175 0.83514 0.65997 0.0
C1248 C 0.04 0.75868 0.65277 0.0
C1249 C 0.04839 0.80192 0.64845 0.0
C1250 C 0.99754 0.72548 0.66225 0.0
C1251 C 0.96169 0.73405 0.66788 0.0
H1252 H 0.06613 0.75018 0.64825 0.0
H1253 H 0.9922 0.69232 0.66452 0.0
S1254 S 0.96618 0.84172 0.65946 0.0
N1255 N 0.01762 0.85168 0.65063 0.0
N1256 N 0.93751 0.78911 0.66803 0.0
C1257 C 0.96998 0.7774 0.66417 0.0
C1258 C 0.01343 0.81135 0.65465 0.0
C1259 C 0.19458 0.18058 0.65413 0.0
C1260 C 0.20067 0.22269 0.64845 0.0
C1261 C 0.23182 0.17556 0.66205 0.0
C1262 C 0.27617 0.21257 0.66493 0.0
H1263 H 0.16137 0.15127 0.65146 0.0
H1264 H 0.22615 0.1425 0.66522 0.0
S1265 S 0.30903 0.32994 0.6544 0.0
N1266 N 0.25379 0.30192 0.64765 0.0
N1267 N 0.32315 0.29259 0.66252 0.0
C1268 C 0.28208 0.25473 0.66 0.0
C1269 C 0.24449 0.25978 0.65194 0.0
C1270 C 0.76465 0.9644 0.66992 0.0
C1271 C 0.77052 0.95943 0.64447 0.0
C1272 C 0.78004 0.00636 0.68017 0.0
C1273 C 0.8017 0.04473 0.66534 0.0
H1274 H 0.7478 0.93562 0.68198 0.0
H1275 H 0.77415 0.00865 0.6997 0.0
S1276 S 0.82712 0.05049 0.59806 0.0
N1277 N 0.80107 0.99711 0.6049 0.0
N1278 N 0.82892 0.07569 0.62424 0.0
C1279 C 0.8075 0.0404 0.63994 0.0
C1280 C 0.79223 0.99783 0.62948 0.0
C1281 C 0.49661 0.37227 0.7145 0.0
C1282 C 0.50716 0.37513 0.73995 0.0
C1283 C 0.46545 0.3316 0.70364 0.0
C1284 C 0.44318 0.29253 0.71792 0.0
H1285 H 0.51148 0.40183 0.703 0.0
H1286 H 0.45765 0.33099 0.68414 0.0
S1287 S 0.46304 0.2804 0.78427 0.0
N1288 N 0.4964 0.33376 0.7783 0.0
N1289 N 0.43652 0.25815 0.75807 0.0
C1290 C 0.4544 0.29452 0.74307 0.0
C1291 C 0.4867 0.33557 0.75403 0.0
C1292 C 0.6798 0.15923 0.73029 0.0
C1293 C 0.64194 0.11675 0.73524 0.0
C1294 C 0.72203 0.16466 0.7212 0.0
C1295 C 0.72743 0.12771 0.7165 0.0
H1296 H 0.67748 0.18837 0.7346 0.0
H1297 H 0.75107 0.19782 0.71895 0.0
S1298 S 0.63713 0.00978 0.72367 0.0
N1299 N 0.61174 0.03753 0.73281 0.0
N1300 N 0.69007 0.0475 0.71564 0.0
C1301 C 0.68897 0.08531 0.72015 0.0
C1302 C 0.64649 0.07987 0.72945 0.0
C1303 C 0.88865 0.54083 0.75614 0.0
C1304 C 0.91072 0.52236 0.74245 0.0
C1305 C 0.8744 0.5681 0.74469 0.0
C1306 C 0.88142 0.57764 0.71915 0.0
H1307 H 0.88213 0.53397 0.77581 0.0
H1308 H 0.85772 0.58185 0.75591 0.0
S1309 S 0.94172 0.54147 0.67558 0.0
N1310 N 0.94139 0.51786 0.70225 0.0
N1311 N 0.91491 0.56952 0.68096 0.0
C1312 C 0.90393 0.56 0.70532 0.0
C1313 C 0.91848 0.53222 0.71693 0.0
C1314 C 0.45829 0.94003 0.22333 0.0
C1315 C 0.48897 0.95393 0.24344 0.0
C1316 C 0.47048 0.96327 0.20051 0.0
C1317 C 0.51371 0.00161 0.19693 0.0
H1318 H 0.42463 0.91078 0.22517 0.0
H1319 H 0.44546 0.95168 0.18577 0.0
S1320 S 0.60686 0.0517 0.24346 0.0
N1321 N 0.56454 0.00895 0.25808 0.0
N1322 N 0.58783 0.05136 0.21527 0.0
C1323 C 0.54486 0.01544 0.21678 0.0
C1324 C 0.53244 0.992 0.23995 0.0
C1325 C 0.99483 0.47104 0.23922 0.0
C1326 C 0.03615 0.51061 0.24359 0.0
C1327 C 0.97248 0.46334 0.21635 0.0
C1328 C 0.9909 0.49475 0.19694 0.0
H1329 H 0.97902 0.44637 0.25381 0.0
H1330 H 0.94046 0.43262 0.21384 0.0
S1331 S 0.09946 0.60283 0.19869 0.0
N1332 N 0.09569 0.58069 0.22634 0.0
N1333 N 0.05337 0.56664 0.18355 0.0
C1334 C 0.03276 0.53402 0.20093 0.0
C1335 C 0.05542 0.54186 0.2242 0.0
C1336 C 0.45738 0.50248 0.22384 0.0
C1337 C 0.48838 0.52195 0.24355 0.0
C1338 C 0.47165 0.49372 0.201 0.0
C1339 C 0.51739 0.50373 0.19702 0.0
H1340 H 0.42183 0.49413 0.22605 0.0
H1341 H 0.44644 0.47816 0.18651 0.0
S1342 S 0.61222 0.55549 0.24245 0.0
N1343 N 0.56694 0.55068 0.25749 0.0
N1344 N 0.59393 0.53558 0.2145 0.0
C1345 C 0.54879 0.52368 0.21648 0.0
C1346 C 0.53428 0.53246 0.2397 0.0
C1347 C 0.02944 0.53812 0.81458 0.0
C1348 C 0.99196 0.49478 0.81238 0.0
C1349 C 0.05483 0.55245 0.83657 0.0
C1350 C 0.04358 0.5241 0.8573 0.0
H1351 H 0.03947 0.56111 0.79911 0.0
H1352 H 0.08307 0.58622 0.83747 0.0
S1353 S 0.94885 0.40724 0.86108 0.0
N1354 N 0.94467 0.42376 0.83298 0.0
N1355 N 0.99314 0.45015 0.87391 0.0
C1356 C 1.00641 0.48056 0.85526 0.0
C1357 C 0.98051 0.46603 0.83293 0.0
C1358 C 0.5364 0.51914 0.81419 0.0
C1359 C 0.53695 0.47941 0.81065 0.0
C1360 C 0.52095 0.52785 0.8366 0.0
C1361 C 0.50572 0.49737 0.85652 0.0
H1362 H 0.54701 0.54332 0.7993 0.0
H1363 H 0.52079 0.55873 0.83832 0.0
S1364 S 0.50184 0.38907 0.85715 0.0
N1365 N 0.52251 0.40999 0.82939 0.0
N1366 N 0.4927 0.42599 0.87126 0.0
C1367 C 0.50689 0.45788 0.85341 0.0
C1368 C 0.52256 0.44896 0.83056 0.0
C1369 C 0.51857 0.06975 0.82901 0.0
C1370 C 0.53625 0.05577 0.80939 0.0
C1371 C 0.50496 0.04659 0.85184 0.0
C1372 C 0.5078 0.00808 0.85588 0.0
H1373 H 0.51491 0.0987 0.82664 0.0
H1374 H 0.49064 0.05806 0.86612 0.0
S1375 S 0.55284 0.95812 0.81098 0.0
N1376 N 0.55657 0.00117 0.79596 0.0
N1377 N 0.53147 0.95817 0.83864 0.0
C1378 C 0.52635 0.99435 0.83663 0.0
C1379 C 0.54045 0.01801 0.81351 0.0
C1380 C 0.19666 0.31799 0.57262 0.0
C1381 C 0.15255 0.28105 0.5766 0.0
C1382 C 0.20859 0.3421 0.55023 0.0
C1383 C 0.17711 0.33038 0.53063 0.0
H1384 H 0.22208 0.32901 0.58715 0.0
H1385 H 0.24293 0.37036 0.54828 0.0
S1386 S 0.05739 0.23575 0.53115 0.0
N1387 N 0.07753 0.23319 0.55861 0.0
N1388 N 0.09974 0.27887 0.51671 0.0
C1389 C 0.13305 0.29313 0.53417 0.0
C1390 C 0.1208 0.26857 0.55708 0.0
C1391 C 0.70971 0.87942 0.55744 0.0
C1392 C 0.69644 0.84829 0.57691 0.0
C1393 C 0.68543 0.86886 0.53513 0.0
C1394 C 0.64676 0.82679 0.53139 0.0
H1395 H 0.73915 0.91232 0.55946 0.0
H1396 H 0.69663 0.89415 0.52082 0.0
S1397 S 0.5985 0.73299 0.57624 0.0
N1398 N 0.64231 0.77343 0.5909 0.0
N1399 N 0.59723 0.75328 0.54873 0.0
C1400 C 0.63344 0.79513 0.55056 0.0
C1401 C 0.65822 0.80589 0.57332 0.0
C1402 C 0.1281 0.8239 0.55775 0.0
C1403 C 0.16004 0.84398 0.57698 0.0
C1404 C 0.14122 0.81437 0.53479 0.0
C1405 C 0.18676 0.82426 0.53019 0.0
H1406 H 0.09277 0.81603 0.56034 0.0
H1407 H 0.11535 0.79863 0.52064 0.0
S1408 S 0.28364 0.87688 0.57438 0.0
N1409 N 0.23911 0.8727 0.58995 0.0
N1410 N 0.26403 0.85615 0.54672 0.0
C1411 C 0.21902 0.84441 0.54926 0.0
C1412 C 0.20564 0.85396 0.57262 0.0
C1413 C 0.62586 0.78568 0.16658 0.0
C1414 C 0.63991 0.81613 0.14673 0.0
C1415 C 0.65106 0.79607 0.18861 0.0
C1416 C 0.69158 0.83709 0.19151 0.0
H1417 H 0.59499 0.75362 0.16511 0.0
H1418 H 0.6391 0.77153 0.20336 0.0
S1419 S 0.74303 0.9284 0.14514 0.0
N1420 N 0.69702 0.88899 0.13137 0.0
N1421 N 0.74411 0.90865 0.17286 0.0
C1422 C 0.70593 0.86789 0.17184 0.0
C1423 C 0.68013 0.85742 0.14947 0.0
C1424 C 0.22443 0.84306 0.15888 0.0
C1425 C 0.19222 0.82375 0.13966 0.0
C1426 C 0.212 0.85304 0.18195 0.0
C1427 C 0.16699 0.84462 0.18668 0.0
H1428 H 0.25949 0.85024 0.15612 0.0
H1429 H 0.23809 0.86822 0.19605 0.0
S1430 S 0.06954 0.79403 0.14276 0.0
N1431 N 0.11325 0.79668 0.12705 0.0
N1432 N 0.08983 0.81468 0.17035 0.0
C1433 C 0.13442 0.82504 0.16769 0.0
C1434 C 0.147 0.81477 0.14427 0.0
C1435 C 0.15355 0.34764 0.14642 0.0
C1436 C 0.19688 0.38572 0.1427 0.0
C1437 C 0.14157 0.32432 0.16908 0.0
C1438 C 0.17215 0.33821 0.1892 0.0
H1439 H 0.12901 0.335 0.13144 0.0
H1440 H 0.1081 0.29478 0.17078 0.0
S1441 S 0.28906 0.43705 0.18967 0.0
N1442 N 0.26987 0.43729 0.16157 0.0
N1443 N 0.2474 0.3933 0.20405 0.0
C1444 C 0.21515 0.37688 0.18601 0.0
C1445 C 0.22753 0.40052 0.16281 0.0
C1446 C 0.81912 0.65425 0.90585 0.0
C1447 C 0.82074 0.61515 0.91005 0.0
C1448 C 0.83347 0.67729 0.88311 0.0
C1449 C 0.84971 0.66212 0.86341 0.0
H1450 H 0.80775 0.66786 0.92049 0.0
H1451 H 0.83218 0.70757 0.88102 0.0
S1452 S 0.85867 0.56022 0.8643 0.0
N1453 N 0.83808 0.5612 0.89205 0.0
N1454 N 0.86543 0.6047 0.84953 0.0
C1455 C 0.85039 0.62245 0.86711 0.0
C1456 C 0.83599 0.59906 0.89035 0.0
C1457 C 0.38248 0.1716 0.88607 0.0
C1458 C 0.37068 0.19087 0.90559 0.0
C1459 C 0.35855 0.16072 0.86362 0.0
C1460 C 0.32183 0.16867 0.85976 0.0
H1461 H 0.41072 0.16516 0.88808 0.0
H1462 H 0.36858 0.14544 0.84928 0.0
S1463 S 0.27729 0.21864 0.90494 0.0
N1464 N 0.31907 0.21657 0.91974 0.0
N1465 N 0.27561 0.19811 0.87718 0.0
C1466 C 0.30986 0.18821 0.87906 0.0
C1467 C 0.33393 0.19889 0.90201 0.0
C1468 C 0.86186 0.1927 0.90591 0.0
C1469 C 0.81666 0.18447 0.90947 0.0
C1470 C 0.87579 0.18261 0.88345 0.0
C1471 C 0.8452 0.16404 0.86353 0.0
H1472 H 0.88659 0.20651 0.92075 0.0
H1473 H 0.91096 0.18958 0.88165 0.0
S1474 S 0.72318 0.13668 0.86311 0.0
N1475 N 0.74158 0.1576 0.89089 0.0
N1476 N 0.76743 0.13766 0.84891 0.0
C1477 C 0.79996 0.15592 0.86675 0.0
C1478 C 0.78576 0.16623 0.88965 0.0
C1479 C 0.30984 0.11692 0.49286 0.0
C1480 C 0.32831 0.14787 0.47324 0.0
C1481 C 0.33118 0.12584 0.51609 0.0
C1482 C 0.3721 0.16582 0.52047 0.0
H1483 H 0.27842 0.08567 0.49029 0.0
H1484 H 0.31596 0.10093 0.53059 0.0
S1485 S 0.43413 0.25801 0.4754 0.0
N1486 N 0.38976 0.22017 0.45981 0.0
N1487 N 0.42968 0.23705 0.50347 0.0
C1488 C 0.39077 0.19714 0.50107 0.0
C1489 C 0.3689 0.18818 0.47749 0.0
C1490 C 0.89902 0.17129 0.49692 0.0
C1491 C 0.86757 0.15424 0.47724 0.0
C1492 C 0.88682 0.18238 0.51972 0.0
C1493 C 0.84287 0.17726 0.52363 0.0
H1494 H 0.93318 0.17572 0.49478 0.0
H1495 H 0.91227 0.19577 0.53424 0.0
S1496 S 0.74787 0.13379 0.47814 0.0
N1497 N 0.79067 0.13325 0.46321 0.0
N1498 N 0.76751 0.1529 0.50605 0.0
C1499 C 0.81109 0.15999 0.50415 0.0
C1500 C 0.82347 0.14879 0.48101 0.0
C1501 C 0.89066 0.72783 0.49461 0.0
C1502 C 0.85911 0.71663 0.47504 0.0
C1503 C 0.8774 0.70558 0.51771 0.0
C1504 C 0.8321 0.67094 0.52215 0.0
H1505 H 0.92594 0.75409 0.49208 0.0
H1506 H 0.90311 0.71483 0.53197 0.0
S1507 S 0.73588 0.62925 0.47742 0.0
N1508 N 0.78033 0.66826 0.46191 0.0
N1509 N 0.75524 0.62791 0.50527 0.0
C1510 C 0.80008 0.66003 0.5029 0.0
C1511 C 0.81357 0.68243 0.47943 0.0
loop_
_geom_bond_atom_site_label_1
_geom_bond_atom_site_label_2
_geom_bond_distance
_geom_bond_site_symmetry_2
_ccdc_geom_bond_type
H0 C3 0.931 . S
H1 C6 0.928 . S
H2 C8 0.930 . S
C3 H0 0.931 . S
C3 C4 1.413 . S
C3 C5 1.360 . S
C4 C3 1.413 . S
C4 C8 1.429 . S
C5 C3 1.360 . S
C5 C6 1.372 . S
C6 H1 0.928 . S
C6 C5 1.372 . S
C6 C7 1.404 . S
C7 C6 1.404 . S
C7 C8 1.391 . S
C8 H2 0.930 . S
C8 C4 1.429 . S
C8 C7 1.391 . S
H9 C12 0.931 . S
H10 C15 0.928 . S
H11 C17 0.930 . S
C12 H9 0.931 . S
C12 C13 1.413 . S
C12 C14 1.360 . S
C13 C12 1.413 . S
C13 C17 1.429 . S
C14 C12 1.360 . S
C14 C15 1.372 . S
C15 H10 0.928 . S
C15 C14 1.372 . S
C15 C16 1.404 . S
C16 C15 1.404 . S
C16 C17 1.391 . S
C17 H11 0.930 . S
C17 C13 1.429 . S
C17 C16 1.391 . S
H18 C21 0.931 . S
H19 C24 0.928 . S
H20 C26 0.930 . S
C21 H18 0.931 . S
C21 C22 1.413 . S
C21 C23 1.360 . S
C22 C21 1.413 . S
C22 C26 1.429 . S
C23 C21 1.360 . S
C23 C24 1.372 . S
C24 H19 0.928 . S
C24 C23 1.372 . S
C24 C25 1.404 . S
C25 C24 1.404 . S
C25 C26 1.391 . S
C26 H20 0.930 . S
C26 C22 1.429 . S
C26 C25 1.391 . S
H27 C30 0.931 . S
H28 C33 0.928 . S
H29 C35 0.930 . S
C30 H27 0.931 . S
C30 C31 1.413 . S
C30 C32 1.360 . S
C31 C30 1.413 . S
C31 C35 1.429 . S
C32 C30 1.360 . S
C32 C33 1.372 . S
C33 H28 0.928 . S
C33 C32 1.372 . S
C33 C34 1.404 . S
C34 C33 1.404 . S
C34 C35 1.391 . S
C35 H29 0.930 . S
C35 C31 1.429 . S
C35 C34 1.391 . S
H36 C39 0.931 . S
H37 C42 0.928 . S
H38 C44 0.930 . S
C39 H36 0.931 . S
C39 C40 1.413 . S
C39 C41 1.360 . S
C40 C39 1.413 . S
C40 C44 1.429 . S
C41 C39 1.360 . S
C41 C42 1.372 . S
C42 H37 0.928 . S
C42 C41 1.372 . S
C42 C43 1.404 . S
C43 C42 1.404 . S
C43 C44 1.391 . S
C44 H38 0.930 . S
C44 C40 1.429 . S
C44 C43 1.391 . S
H45 C48 0.931 . S
H46 C51 0.928 . S
H47 C53 0.930 . S
C48 H45 0.931 . S
C48 C49 1.413 . S
C48 C50 1.360 . S
C49 C48 1.413 . S
C49 C53 1.429 . S
C50 C48 1.360 . S
C50 C51 1.372 . S
C51 H46 0.928 . S
C51 C50 1.372 . S
C51 C52 1.404 . S
C52 C51 1.404 . S
C52 C53 1.391 . S
C53 H47 0.930 . S
C53 C49 1.429 . S
C53 C52 1.391 . S
H54 C57 0.931 . S
H55 C60 0.928 . S
H56 C62 0.930 . S
C57 H54 0.931 . S
C57 C58 1.413 . S
C57 C59 1.360 . S
C58 C57 1.413 . S
C58 C62 1.429 . S
C59 C57 1.360 . S
C59 C60 1.372 . S
C60 H55 0.928 . S
C60 C59 1.372 . S
C60 C61 1.404 . S
C61 C60 1.404 . S
C61 C62 1.391 . S
C62 H56 0.930 . S
C62 C58 1.429 . S
C62 C61 1.391 . S
H63 C66 0.931 . S
H64 C69 0.928 . S
H65 C71 0.930 . S
C66 H63 0.931 . S
C66 C67 1.413 . S
C66 C68 1.360 . S
C67 C66 1.413 . S
C67 C71 1.429 . S
C68 C66 1.360 . S
C68 C69 1.372 . S
C69 H64 0.928 . S
C69 C68 1.372 . S
C69 C70 1.404 . S
C70 C69 1.404 . S
C70 C71 1.391 . S
C71 H65 0.930 . S
C71 C67 1.429 . S
C71 C70 1.391 . S
H72 C75 0.931 . S
H73 C78 0.928 . S
H74 C80 0.930 . S
C75 H72 0.931 . S
C75 C76 1.413 . S
C75 C77 1.360 . S
C76 C75 1.413 . S
C76 C80 1.429 . S
C77 C75 1.360 . S
C77 C78 1.372 . S
C78 H73 0.928 . S
C78 C77 1.372 . S
C78 C79 1.404 . S
C79 C78 1.404 . S
C79 C80 1.391 . S
C80 H74 0.930 . S
C80 C76 1.429 . S
C80 C79 1.391 . S
H81 C84 0.931 . S
H82 C87 0.928 . S
H83 C89 0.930 . S
C84 H81 0.931 . S
C84 C85 1.413 . S
C84 C86 1.360 . S
C85 C84 1.413 . S
C85 C89 1.429 . S
C86 C84 1.360 . S
C86 C87 1.372 . S
C87 H82 0.928 . S
C87 C86 1.372 . S
C87 C88 1.404 . S
C88 C87 1.404 . S
C88 C89 1.391 . S
C89 H83 0.930 . S
C89 C85 1.429 . S
C89 C88 1.391 . S
H90 C93 0.931 . S
H91 C96 0.928 . S
H92 C98 0.930 . S
C93 H90 0.931 . S
C93 C94 1.413 . S
C93 C95 1.360 . S
C94 C93 1.413 . S
C94 C98 1.429 . S
C95 C93 1.360 . S
C95 C96 1.372 . S
C96 H91 0.928 . S
C96 C95 1.372 . S
C96 C97 1.404 . S
C97 C96 1.404 . S
C97 C98 1.391 . S
C98 H92 0.930 . S
C98 C94 1.429 . S
C98 C97 1.391 . S
H99 C102 0.931 . S
H100 C105 0.928 . S
H101 C107 0.930 . S
C102 H99 0.931 . S
C102 C103 1.413 . S
C102 C104 1.360 . S
C103 C102 1.413 . S
C103 C107 1.429 . S
C104 C102 1.360 . S
C104 C105 1.372 . S
C105 H100 0.928 . S
C105 C104 1.372 . S
C105 C106 1.404 . S
C106 C105 1.404 . S
C106 C107 1.391 . S
C107 H101 0.930 . S
C107 C103 1.429 . S
C107 C106 1.391 . S
H108 C111 0.931 . S
H109 C114 0.928 . S
H110 C116 0.930 . S
C111 H108 0.931 . S
C111 C112 1.413 . S
C111 C113 1.360 . S
C112 C111 1.413 . S
C112 C116 1.429 . S
C113 C111 1.360 . S
C113 C114 1.372 . S
C114 H109 0.928 . S
C114 C113 1.372 . S
C114 C115 1.404 . S
C115 C114 1.404 . S
C115 C116 1.391 . S
C116 H110 0.930 . S
C116 C112 1.429 . S
C116 C115 1.391 . S
H117 C120 0.931 . S
H118 C123 0.928 . S
H119 C125 0.930 . S
C120 H117 0.931 . S
C120 C121 1.413 . S
C120 C122 1.360 . S
C121 C120 1.413 . S
C121 C125 1.429 . S
C122 C120 1.360 . S
C122 C123 1.372 . S
C123 H118 0.928 . S
C123 C122 1.372 . S
C123 C124 1.404 . S
C124 C123 1.404 . S
C124 C125 1.391 . S
C125 H119 0.930 . S
C125 C121 1.429 . S
C125 C124 1.391 . S
H126 C129 0.931 . S
H127 C132 0.928 . S
H128 C134 0.930 . S
C129 H126 0.931 . S
C129 C130 1.413 . S
C129 C131 1.360 . S
C130 C129 1.413 . S
C130 C134 1.429 . S
C131 C129 1.360 . S
C131 C132 1.372 . S
C132 H127 0.928 . S
C132 C131 1.372 . S
C132 C133 1.404 . S
C133 C132 1.404 . S
C133 C134 1.391 . S
C134 H128 0.930 . S
C134 C130 1.429 . S
C134 C133 1.391 . S
H135 C138 0.931 . S
H136 C141 0.928 . S
H137 C143 0.930 . S
C138 H135 0.931 . S
C138 C139 1.413 . S
C138 C140 1.360 . S
C139 C138 1.413 . S
C139 C143 1.429 . S
C140 C138 1.360 . S
C140 C141 1.372 . S
C141 H136 0.928 . S
C141 C140 1.372 . S
C141 C142 1.404 . S
C142 C141 1.404 . S
C142 C143 1.391 . S
C143 H137 0.930 . S
C143 C139 1.429 . S
C143 C142 1.391 . S
H144 C147 0.931 . S
H145 C150 0.928 . S
H146 C152 0.930 . S
C147 H144 0.931 . S
C147 C148 1.413 . S
C147 C149 1.360 . S
C148 C147 1.413 . S
C148 C152 1.429 . S
C149 C147 1.360 . S
C149 C150 1.372 . S
C150 H145 0.928 . S
C150 C149 1.372 . S
C150 C151 1.404 . S
C151 C150 1.404 . S
C151 C152 1.391 . S
C152 H146 0.930 . S
C152 C148 1.429 . S
C152 C151 1.391 . S
H153 C156 0.931 . S
H154 C159 0.928 . S
H155 C161 0.930 . S
C156 H153 0.931 . S
C156 C157 1.413 . S
C156 C158 1.360 . S
C157 C156 1.413 . S
C157 C161 1.429 . S
C158 C156 1.360 . S
C158 C159 1.372 . S
C159 H154 0.928 . S
C159 C158 1.372 . S
C159 C160 1.404 . S
C160 C159 1.404 . S
C160 C161 1.391 . S
C161 H155 0.930 . S
C161 C157 1.429 . S
C161 C160 1.391 . S
Eu162 N193 2.657 . S
Eu162 N200 2.609 . S
Eu162 O206 2.558 . S
Eu162 O207 2.612 1_565 S
Eu162 O209 2.339 1_565 S
Eu162 O210 2.563 1_565 S
Eu162 O211 2.419 . S
Eu162 O213 2.380 1_556 S
Eu162 O214 2.432 . S
Eu162 C226 2.848 . S
C163 C166 1.429 . S
C163 C167 1.411 . S
C163 N170 1.377 . S
C164 C166 1.420 . S
C164 C168 1.423 . S
C164 C176 1.392 . S
C165 C167 1.420 . S
C165 C168 1.351 . S
C165 H188 0.931 . S
C166 C163 1.429 . S
C166 C164 1.420 . S
C166 N174 1.362 . S
C167 C163 1.411 . S
C167 C165 1.420 . S
C167 C172 1.395 . S
C168 C164 1.423 . S
C168 C165 1.351 . S
C168 H180 0.930 . S
C169 C171 1.400 . S
C169 C172 1.386 . S
C169 H181 0.930 . S
N170 C163 1.377 . S
N170 C171 1.321 . S
N170 Eu173 2.609 . S
C171 C169 1.400 . S
C171 N170 1.321 . S
C171 H178 0.930 . S
C172 C167 1.395 . S
C172 C169 1.386 . S
C172 H191 0.930 . S
Eu173 N170 2.609 . S
Eu173 N174 2.657 . S
Eu173 O207 2.380 1_554 S
Eu173 O208 2.432 . S
Eu173 O212 2.558 . S
Eu173 O213 2.612 1_545 S
Eu173 O215 2.339 1_545 S
Eu173 O216 2.563 1_545 S
Eu173 O217 2.419 . S
Eu173 C237 2.848 . S
N174 C166 1.362 . S
N174 Eu173 2.657 . S
N174 C175 1.334 . S
C175 N174 1.334 . S
C175 C177 1.413 . S
C175 H182 0.929 . S
C176 C164 1.392 . S
C176 C177 1.367 . S
C176 H184 0.930 . S
C177 C175 1.413 . S
C177 C176 1.367 . S
C177 H179 0.930 . S
H178 C171 0.930 . S
H179 C177 0.930 . S
H180 C168 0.930 . S
H181 C169 0.930 . S
H182 C175 0.929 . S
H183 C197 0.930 . S
H184 C176 0.930 . S
H185 C203 0.930 . S
H186 C194 0.929 . S
H187 C201 0.930 . S
H188 C165 0.931 . S
H189 C195 0.930 . S
H190 C228 0.930 . S
H191 C172 0.930 . S
H192 C227 0.931 . S
N193 Eu162 2.657 . S
N193 C194 1.334 . S
N193 C198 1.362 . S
C194 H186 0.929 . S
C194 N193 1.334 . S
C194 C197 1.413 . S
C195 H189 0.930 . S
C195 C196 1.392 . S
C195 C197 1.367 . S
C196 C195 1.392 . S
C196 C198 1.420 . S
C196 C228 1.423 . S
C197 H183 0.930 . S
C197 C194 1.413 . S
C197 C195 1.367 . S
C198 N193 1.362 . S
C198 C196 1.420 . S
C198 C202 1.429 . S
H199 C204 0.930 . S
N200 Eu162 2.609 . S
N200 C202 1.377 . S
N200 C203 1.321 . S
C201 H187 0.930 . S
C201 C203 1.400 . S
C201 C204 1.386 . S
C202 C198 1.429 . S
C202 N200 1.377 . S
C202 C205 1.411 . S
C203 H185 0.930 . S
C203 N200 1.321 . S
C203 C201 1.400 . S
C204 H199 0.930 . S
C204 C201 1.386 . S
C204 C205 1.395 . S
C205 C202 1.411 . S
C205 C204 1.395 . S
C205 C227 1.420 . S
O206 Eu162 2.558 . S
O206 C226 1.257 . S
O207 Eu162 2.612 1_545 S
O207 Eu173 2.380 1_556 S
O207 C218 1.276 . S
O208 Eu173 2.432 . S
O208 C225 1.264 1_554 S
O209 Eu162 2.339 1_545 S
O209 C225 1.254 . S
O210 Eu162 2.563 1_545 S
O210 C218 1.235 . S
O211 Eu162 2.419 . S
O211 C226 1.249 . S
O212 Eu173 2.558 . S
O212 C237 1.257 . S
O213 Eu162 2.380 1_554 S
O213 Eu173 2.612 1_565 S
O213 C229 1.276 . S
O214 Eu162 2.432 . S
O214 C236 1.264 1_556 S
O215 Eu173 2.339 1_565 S
O215 C236 1.254 . S
O216 Eu173 2.563 1_565 S
O216 C229 1.235 . S
O217 Eu173 2.419 . S
O217 C237 1.249 . S
C218 O207 1.276 . S
C218 O210 1.235 . S
C219 C221 1.393 1_565 S
C219 C223 1.395 . S
C219 C226 1.492 . S
C220 C221 1.392 . S
C220 C222 1.386 1_545 S
C221 C219 1.393 1_545 S
C221 C220 1.392 . S
C221 H238 0.930 . S
C222 C220 1.386 1_565 S
C222 C224 1.395 . S
C222 H239 0.930 . S
C223 C219 1.395 . S
C223 C224 1.379 . S
C223 H240 0.930 . S
C224 C222 1.395 . S
C224 C223 1.379 . S
C224 H241 0.930 . S
C225 O208 1.264 1_556 S
C225 O209 1.254 . S
C226 Eu162 2.848 . S
C226 O206 1.257 . S
C226 O211 1.249 . S
C226 C219 1.492 . S
C227 H192 0.931 . S
C227 C205 1.420 . S
C227 C228 1.351 . S
C228 H190 0.930 . S
C228 C196 1.423 . S
C228 C227 1.351 . S
C229 O213 1.276 . S
C229 O216 1.235 . S
C230 C231 1.393 1_545 S
C230 C234 1.395 . S
C230 C237 1.492 . S
C231 C230 1.393 1_565 S
C231 C232 1.392 . S
C231 H242 0.930 . S
C232 C231 1.392 . S
C232 C233 1.386 1_565 S
C233 C232 1.386 1_545 S
C233 C235 1.395 . S
C233 H243 0.930 . S
C234 C230 1.395 . S
C234 C235 1.379 . S
C234 H244 0.930 . S
C235 C233 1.395 . S
C235 C234 1.379 . S
C235 H245 0.930 . S
C236 O214 1.264 1_554 S
C236 O215 1.254 . S
C237 Eu173 2.848 . S
C237 O212 1.257 . S
C237 O217 1.249 . S
C237 C230 1.492 . S
H238 C221 0.930 . S
H239 C222 0.930 . S
H240 C223 0.930 . S
H241 C224 0.930 . S
H242 C231 0.930 . S
H243 C233 0.930 . S
H244 C234 0.930 . S
H245 C235 0.930 . S
Eu246 N277 2.657 . S
Eu246 N284 2.609 . S
Eu246 O290 2.558 . S
Eu246 O291 2.612 1_455 S
Eu246 O293 2.339 1_455 S
Eu246 O294 2.563 1_455 S
Eu246 O295 2.419 . S
Eu246 O297 2.380 1_556 S
Eu246 O298 2.432 . S
Eu246 C310 2.848 . S
C247 C250 1.429 . S
C247 C251 1.411 . S
C247 N254 1.377 . S
C248 C250 1.420 . S
C248 C252 1.423 . S
C248 C260 1.392 . S
C249 C251 1.420 . S
C249 C252 1.351 . S
C249 H272 0.931 . S
C250 C247 1.429 . S
C250 C248 1.420 . S
C250 N258 1.362 . S
C251 C247 1.411 . S
C251 C249 1.420 . S
C251 C256 1.395 . S
C252 C248 1.423 . S
C252 C249 1.351 . S
C252 H264 0.930 . S
C253 C255 1.400 . S
C253 C256 1.386 . S
C253 H265 0.930 . S
N254 C247 1.377 . S
N254 C255 1.321 . S
N254 Eu257 2.609 . S
C255 C253 1.400 . S
C255 N254 1.321 . S
C255 H262 0.930 . S
C256 C251 1.395 . S
C256 C253 1.386 . S
C256 H275 0.930 . S
Eu257 N254 2.609 . S
Eu257 N258 2.657 . S
Eu257 O291 2.380 1_554 S
Eu257 O292 2.432 . S
Eu257 O296 2.558 . S
Eu257 O297 2.612 1_655 S
Eu257 O299 2.339 1_655 S
Eu257 O300 2.563 1_655 S
Eu257 O301 2.419 . S
Eu257 C321 2.848 . S
N258 C250 1.362 . S
N258 Eu257 2.657 . S
N258 C259 1.334 . S
C259 N258 1.334 . S
C259 C261 1.413 . S
C259 H266 0.929 . S
C260 C248 1.392 . S
C260 C261 1.367 . S
C260 H268 0.930 . S
C261 C259 1.413 . S
C261 C260 1.367 . S
C261 H263 0.930 . S
H262 C255 0.930 . S
H263 C261 0.930 . S
H264 C252 0.930 . S
H265 C253 0.930 . S
H266 C259 0.929 . S
H267 C281 0.930 . S
H268 C260 0.930 . S
H269 C287 0.930 . S
H270 C278 0.929 . S
H271 C285 0.930 . S
H272 C249 0.931 . S
H273 C279 0.930 . S
H274 C312 0.930 . S
H275 C256 0.930 . S
H276 C311 0.931 . S
N277 Eu246 2.657 . S
N277 C278 1.334 . S
N277 C282 1.362 . S
C278 H270 0.929 . S
C278 N277 1.334 . S
C278 C281 1.413 . S
C279 H273 0.930 . S
C279 C280 1.392 . S
C279 C281 1.367 . S
C280 C279 1.392 . S
C280 C282 1.420 . S
C280 C312 1.423 . S
C281 H267 0.930 . S
C281 C278 1.413 . S
C281 C279 1.367 . S
C282 N277 1.362 . S
C282 C280 1.420 . S
C282 C286 1.429 . S
H283 C288 0.930 . S
N284 Eu246 2.609 . S
N284 C286 1.377 . S
N284 C287 1.321 . S
C285 H271 0.930 . S
C285 C287 1.400 . S
C285 C288 1.386 . S
C286 C282 1.429 . S
C286 N284 1.377 . S
C286 C289 1.411 . S
C287 H269 0.930 . S
C287 N284 1.321 . S
C287 C285 1.400 . S
C288 H283 0.930 . S
C288 C285 1.386 . S
C288 C289 1.395 . S
C289 C286 1.411 . S
C289 C288 1.395 . S
C289 C311 1.420 . S
O290 Eu246 2.558 . S
O290 C310 1.257 . S
O291 Eu246 2.612 1_655 S
O291 Eu257 2.380 1_556 S
O291 C302 1.276 . S
O292 Eu257 2.432 . S
O292 C309 1.264 1_554 S
O293 Eu246 2.339 1_655 S
O293 C309 1.254 . S
O294 Eu246 2.563 1_655 S
O294 C302 1.235 . S
O295 Eu246 2.419 . S
O295 C310 1.249 . S
O296 Eu257 2.558 . S
O296 C321 1.257 . S
O297 Eu246 2.380 1_554 S
O297 Eu257 2.612 1_455 S
O297 C313 1.276 . S
O298 Eu246 2.432 . S
O298 C320 1.264 1_556 S
O299 Eu257 2.339 1_455 S
O299 C320 1.254 . S
O300 Eu257 2.563 1_455 S
O300 C313 1.235 . S
O301 Eu257 2.419 . S
O301 C321 1.249 . S
C302 O291 1.276 . S
C302 O294 1.235 . S
C303 C305 1.393 1_455 S
C303 C307 1.395 . S
C303 C310 1.492 . S
C304 C305 1.392 . S
C304 C306 1.386 1_655 S
C305 C303 1.393 1_655 S
C305 C304 1.392 . S
C305 H322 0.930 . S
C306 C304 1.386 1_455 S
C306 C308 1.395 . S
C306 H323 0.930 . S
C307 C303 1.395 . S
C307 C308 1.379 . S
C307 H324 0.930 . S
C308 C306 1.395 . S
C308 C307 1.379 . S
C308 H325 0.930 . S
C309 O292 1.264 1_556 S
C309 O293 1.254 . S
C310 Eu246 2.848 . S
C310 O290 1.257 . S
C310 O295 1.249 . S
C310 C303 1.492 . S
C311 H276 0.931 . S
C311 C289 1.420 . S
C311 C312 1.351 . S
C312 H274 0.930 . S
C312 C280 1.423 . S
C312 C311 1.351 . S
C313 O297 1.276 . S
C313 O300 1.235 . S
C314 C315 1.393 1_655 S
C314 C318 1.395 . S
C314 C321 1.492 . S
C315 C314 1.393 1_455 S
C315 C316 1.392 . S
C315 H326 0.930 . S
C316 C315 1.392 . S
C316 C317 1.386 1_455 S
C317 C316 1.386 1_655 S
C317 C319 1.395 . S
C317 H327 0.930 . S
C318 C314 1.395 . S
C318 C319 1.379 . S
C318 H328 0.930 . S
C319 C317 1.395 . S
C319 C318 1.379 . S
C319 H329 0.930 . S
C320 O298 1.264 1_554 S
C320 O299 1.254 . S
C321 Eu257 2.848 . S
C321 O296 1.257 . S
C321 O301 1.249 . S
C321 C314 1.492 . S
H322 C305 0.930 . S
H323 C306 0.930 . S
H324 C307 0.930 . S
H325 C308 0.930 . S
H326 C315 0.930 . S
H327 C317 0.930 . S
H328 C318 0.930 . S
H329 C319 0.930 . S
Eu330 N361 2.657 . S
Eu330 N368 2.609 . S
Eu330 O374 2.558 . S
Eu330 O375 2.612 . S
Eu330 O377 2.339 . S
Eu330 O378 2.563 . S
Eu330 O379 2.419 . S
Eu330 O381 2.380 1_554 S
Eu330 O382 2.432 . S
Eu330 C394 2.848 . S
C331 C334 1.429 . S
C331 C335 1.411 . S
C331 N338 1.377 . S
C332 C334 1.420 . S
C332 C336 1.423 . S
C332 C344 1.392 . S
C333 C335 1.420 . S
C333 C336 1.351 . S
C333 H356 0.931 . S
C334 C331 1.429 . S
C334 C332 1.420 . S
C334 N342 1.362 . S
C335 C331 1.411 . S
C335 C333 1.420 . S
C335 C340 1.395 . S
C336 C332 1.423 . S
C336 C333 1.351 . S
C336 H348 0.930 . S
C337 C339 1.400 . S
C337 C340 1.386 . S
C337 H349 0.930 . S
N338 C331 1.377 . S
N338 C339 1.321 . S
N338 Eu341 2.609 . S
C339 C337 1.400 . S
C339 N338 1.321 . S
C339 H346 0.930 . S
C340 C335 1.395 . S
C340 C337 1.386 . S
C340 H359 0.930 . S
Eu341 N338 2.609 . S
Eu341 N342 2.657 . S
Eu341 O375 2.380 1_556 S
Eu341 O376 2.432 . S
Eu341 O380 2.558 . S
Eu341 O381 2.612 . S
Eu341 O383 2.339 . S
Eu341 O384 2.563 . S
Eu341 O385 2.419 . S
Eu341 C405 2.848 . S
N342 C334 1.362 . S
N342 Eu341 2.657 . S
N342 C343 1.334 . S
C343 N342 1.334 . S
C343 C345 1.413 . S
C343 H350 0.929 . S
C344 C332 1.392 . S
C344 C345 1.367 . S
C344 H352 0.930 . S
C345 C343 1.413 . S
C345 C344 1.367 . S
C345 H347 0.930 . S
H346 C339 0.930 . S
H347 C345 0.930 . S
H348 C336 0.930 . S
H349 C337 0.930 . S
H350 C343 0.929 . S
H351 C365 0.930 . S
H352 C344 0.930 . S
H353 C371 0.930 . S
H354 C362 0.929 . S
H355 C369 0.930 . S
H356 C333 0.931 . S
H357 C363 0.930 . S
H358 C396 0.930 . S
H359 C340 0.930 . S
H360 C395 0.931 . S
N361 Eu330 2.657 . S
N361 C362 1.334 . S
N361 C366 1.362 . S
C362 H354 0.929 . S
C362 N361 1.334 . S
C362 C365 1.413 . S
C363 H357 0.930 . S
C363 C364 1.392 . S
C363 C365 1.367 . S
C364 C363 1.392 . S
C364 C366 1.420 . S
C364 C396 1.423 . S
C365 H351 0.930 . S
C365 C362 1.413 . S
C365 C363 1.367 . S
C366 N361 1.362 . S
C366 C364 1.420 . S
C366 C370 1.429 . S
H367 C372 0.930 . S
N368 Eu330 2.609 . S
N368 C370 1.377 . S
N368 C371 1.321 . S
C369 H355 0.930 . S
C369 C371 1.400 . S
C369 C372 1.386 . S
C370 C366 1.429 . S
C370 N368 1.377 . S
C370 C373 1.411 . S
C371 H353 0.930 . S
C371 N368 1.321 . S
C371 C369 1.400 . S
C372 H367 0.930 . S
C372 C369 1.386 . S
C372 C373 1.395 . S
C373 C370 1.411 . S
C373 C372 1.395 . S
C373 C395 1.420 . S
O374 Eu330 2.558 . S
O374 C394 1.257 . S
O375 Eu330 2.612 . S
O375 Eu341 2.380 1_554 S
O375 C386 1.276 . S
O376 Eu341 2.432 . S
O376 C393 1.264 1_556 S
O377 Eu330 2.339 . S
O377 C393 1.254 . S
O378 Eu330 2.563 . S
O378 C386 1.235 . S
O379 Eu330 2.419 . S
O379 C394 1.249 . S
O380 Eu341 2.558 . S
O380 C405 1.257 . S
O381 Eu330 2.380 1_556 S
O381 Eu341 2.612 . S
O381 C397 1.276 . S
O382 Eu330 2.432 . S
O382 C404 1.264 1_554 S
O383 Eu341 2.339 . S
O383 C404 1.254 . S
O384 Eu341 2.563 . S
O384 C397 1.235 . S
O385 Eu341 2.419 . S
O385 C405 1.249 . S
C386 O375 1.276 . S
C386 O378 1.235 . S
C387 C389 1.393 . S
C387 C391 1.395 . S
C387 C394 1.492 . S
C388 C389 1.392 . S
C388 C390 1.386 . S
C389 C387 1.393 . S
C389 C388 1.392 . S
C389 H406 0.930 . S
C390 C388 1.386 . S
C390 C392 1.395 . S
C390 H407 0.930 . S
C391 C387 1.395 . S
C391 C392 1.379 . S
C391 H408 0.930 . S
C392 C390 1.395 . S
C392 C391 1.379 . S
C392 H409 0.930 . S
C393 O376 1.264 1_554 S
C393 O377 1.254 . S
C394 Eu330 2.848 . S
C394 O374 1.257 . S
C394 O379 1.249 . S
C394 C387 1.492 . S
C395 H360 0.931 . S
C395 C373 1.420 . S
C395 C396 1.351 . S
C396 H358 0.930 . S
C396 C364 1.423 . S
C396 C395 1.351 . S
C397 O381 1.276 . S
C397 O384 1.235 . S
C398 C399 1.393 . S
C398 C402 1.395 . S
C398 C405 1.492 . S
C399 C398 1.393 . S
C399 C400 1.392 . S
C399 H410 0.930 . S
C400 C399 1.392 . S
C400 C401 1.386 . S
C401 C400 1.386 . S
C401 C403 1.395 . S
C401 H411 0.930 . S
C402 C398 1.395 . S
C402 C403 1.379 . S
C402 H412 0.930 . S
C403 C401 1.395 . S
C403 C402 1.379 . S
C403 H413 0.930 . S
C404 O382 1.264 1_556 S
C404 O383 1.254 . S
C405 Eu341 2.848 . S
C405 O380 1.257 . S
C405 O385 1.249 . S
C405 C398 1.492 . S
H406 C389 0.930 . S
H407 C390 0.930 . S
H408 C391 0.930 . S
H409 C392 0.930 . S
H410 C399 0.930 . S
H411 C401 0.930 . S
H412 C402 0.930 . S
H413 C403 0.930 . S
Eu414 N445 2.657 . S
Eu414 N452 2.609 . S
Eu414 O458 2.558 . S
Eu414 O459 2.612 . S
Eu414 O461 2.339 . S
Eu414 O462 2.563 . S
Eu414 O463 2.419 . S
Eu414 O465 2.380 . S
Eu414 O466 2.432 . S
Eu414 C478 2.848 . S
C415 C418 1.429 . S
C415 C419 1.411 . S
C415 N422 1.377 . S
C416 C418 1.420 . S
C416 C420 1.423 . S
C416 C428 1.392 . S
C417 C419 1.420 . S
C417 C420 1.351 . S
C417 H440 0.931 . S
C418 C415 1.429 . S
C418 C416 1.420 . S
C418 N426 1.362 . S
C419 C415 1.411 . S
C419 C417 1.420 . S
C419 C424 1.395 . S
C420 C416 1.423 . S
C420 C417 1.351 . S
C420 H432 0.930 . S
C421 C423 1.400 . S
C421 C424 1.386 . S
C421 H433 0.930 . S
N422 C415 1.377 . S
N422 C423 1.321 . S
N422 Eu425 2.609 . S
C423 C421 1.400 . S
C423 N422 1.321 . S
C423 H430 0.930 . S
C424 C419 1.395 . S
C424 C421 1.386 . S
C424 H443 0.930 . S
Eu425 N422 2.609 . S
Eu425 N426 2.657 . S
Eu425 O459 2.380 . S
Eu425 O460 2.432 . S
Eu425 O464 2.558 . S
Eu425 O465 2.612 . S
Eu425 O467 2.339 . S
Eu425 O468 2.563 . S
Eu425 O469 2.419 . S
Eu425 C489 2.848 . S
N426 C418 1.362 . S
N426 Eu425 2.657 . S
N426 C427 1.334 . S
C427 N426 1.334 . S
C427 C429 1.413 . S
C427 H434 0.929 . S
C428 C416 1.392 . S
C428 C429 1.367 . S
C428 H436 0.930 . S
C429 C427 1.413 . S
C429 C428 1.367 . S
C429 H431 0.930 . S
H430 C423 0.930 . S
H431 C429 0.930 . S
H432 C420 0.930 . S
H433 C421 0.930 . S
H434 C427 0.929 . S
H435 C449 0.930 . S
H436 C428 0.930 . S
H437 C455 0.930 . S
H438 C446 0.929 . S
H439 C453 0.930 . S
H440 C417 0.931 . S
H441 C447 0.930 . S
H442 C480 0.930 . S
H443 C424 0.930 . S
H444 C479 0.931 . S
N445 Eu414 2.657 . S
N445 C446 1.334 . S
N445 C450 1.362 . S
C446 H438 0.929 . S
C446 N445 1.334 . S
C446 C449 1.413 1_455 S
C447 H441 0.930 . S
C447 C448 1.392 . S
C447 C449 1.367 . S
C448 C447 1.392 . S
C448 C450 1.420 1_655 S
C448 C480 1.423 . S
C449 H435 0.930 . S
C449 C446 1.413 1_655 S
C449 C447 1.367 . S
C450 N445 1.362 . S
C450 C448 1.420 1_455 S
C450 C454 1.429 . S
H451 C456 0.930 . S
N452 Eu414 2.609 . S
N452 C454 1.377 . S
N452 C455 1.321 . S
C453 H439 0.930 . S
C453 C455 1.400 . S
C453 C456 1.386 . S
C454 C450 1.429 . S
C454 N452 1.377 . S
C454 C457 1.411 . S
C455 H437 0.930 . S
C455 N452 1.321 . S
C455 C453 1.400 . S
C456 H451 0.930 . S
C456 C453 1.386 . S
C456 C457 1.395 . S
C457 C454 1.411 . S
C457 C456 1.395 . S
C457 C479 1.420 1_455 S
O458 Eu414 2.558 . S
O458 C478 1.257 . S
O459 Eu414 2.612 . S
O459 Eu425 2.380 . S
O459 C470 1.276 . S
O460 Eu425 2.432 . S
O460 C477 1.264 . S
O461 Eu414 2.339 . S
O461 C477 1.254 . S
O462 Eu414 2.563 . S
O462 C470 1.235 . S
O463 Eu414 2.419 . S
O463 C478 1.249 . S
O464 Eu425 2.558 . S
O464 C489 1.257 . S
O465 Eu414 2.380 . S
O465 Eu425 2.612 . S
O465 C481 1.276 . S
O466 Eu414 2.432 . S
O466 C488 1.264 . S
O467 Eu425 2.339 . S
O467 C488 1.254 . S
O468 Eu425 2.563 . S
O468 C481 1.235 . S
O469 Eu425 2.419 . S
O469 C489 1.249 . S
C470 O459 1.276 . S
C470 O462 1.235 . S
C471 C473 1.393 . S
C471 C475 1.395 . S
C471 C478 1.492 . S
C472 C473 1.392 . S
C472 C474 1.386 . S
C473 C471 1.393 . S
C473 C472 1.392 . S
C473 H490 0.930 . S
C474 C472 1.386 . S
C474 C476 1.395 . S
C474 H491 0.930 . S
C475 C471 1.395 . S
C475 C476 1.379 . S
C475 H492 0.930 . S
C476 C474 1.395 . S
C476 C475 1.379 . S
C476 H493 0.930 . S
C477 O460 1.264 . S
C477 O461 1.254 . S
C478 Eu414 2.848 . S
C478 O458 1.257 . S
C478 O463 1.249 . S
C478 C471 1.492 . S
C479 H444 0.931 . S
C479 C457 1.420 1_655 S
C479 C480 1.351 . S
C480 H442 0.930 . S
C480 C448 1.423 . S
C480 C479 1.351 . S
C481 O465 1.276 . S
C481 O468 1.235 . S
C482 C483 1.393 . S
C482 C486 1.395 . S
C482 C489 1.492 . S
C483 C482 1.393 . S
C483 C484 1.392 . S
C483 H494 0.930 . S
C484 C483 1.392 . S
C484 C485 1.386 . S
C485 C484 1.386 . S
C485 C487 1.395 . S
C485 H495 0.930 . S
C486 C482 1.395 . S
C486 C487 1.379 . S
C486 H496 0.930 . S
C487 C485 1.395 . S
C487 C486 1.379 . S
C487 H497 0.930 . S
C488 O466 1.264 . S
C488 O467 1.254 . S
C489 Eu425 2.848 . S
C489 O464 1.257 . S
C489 O469 1.249 . S
C489 C482 1.492 . S
H490 C473 0.930 . S
H491 C474 0.930 . S
H492 C475 0.930 . S
H493 C476 0.930 . S
H494 C483 0.930 . S
H495 C485 0.930 . S
H496 C486 0.930 . S
H497 C487 0.930 . S
Eu498 N529 2.657 . S
Eu498 N536 2.609 . S
Eu498 O542 2.558 . S
Eu498 O543 2.612 . S
Eu498 O545 2.339 . S
Eu498 O546 2.563 . S
Eu498 O547 2.419 . S
Eu498 O549 2.380 . S
Eu498 O550 2.432 . S
Eu498 C562 2.848 . S
C499 C502 1.429 . S
C499 C503 1.411 . S
C499 N506 1.377 . S
C500 C502 1.420 . S
C500 C504 1.423 . S
C500 C512 1.392 . S
C501 C503 1.420 . S
C501 C504 1.351 . S
C501 H524 0.931 . S
C502 C499 1.429 . S
C502 C500 1.420 . S
C502 N510 1.362 . S
C503 C499 1.411 . S
C503 C501 1.420 . S
C503 C508 1.395 . S
C504 C500 1.423 . S
C504 C501 1.351 . S
C504 H516 0.930 . S
C505 C507 1.400 . S
C505 C508 1.386 . S
C505 H517 0.930 . S
N506 C499 1.377 . S
N506 C507 1.321 . S
N506 Eu509 2.609 . S
C507 C505 1.400 . S
C507 N506 1.321 . S
C507 H514 0.930 . S
C508 C503 1.395 . S
C508 C505 1.386 . S
C508 H527 0.930 . S
Eu509 N506 2.609 . S
Eu509 N510 2.657 . S
Eu509 O543 2.380 . S
Eu509 O544 2.432 . S
Eu509 O548 2.558 . S
Eu509 O549 2.612 . S
Eu509 O551 2.339 . S
Eu509 O552 2.563 . S
Eu509 O553 2.419 . S
Eu509 C573 2.848 . S
N510 C502 1.362 . S
N510 Eu509 2.657 . S
N510 C511 1.334 . S
C511 N510 1.334 . S
C511 C513 1.413 . S
C511 H518 0.929 . S
C512 C500 1.392 . S
C512 C513 1.367 . S
C512 H520 0.930 . S
C513 C511 1.413 . S
C513 C512 1.367 . S
C513 H515 0.930 . S
H514 C507 0.930 . S
H515 C513 0.930 . S
H516 C504 0.930 . S
H517 C505 0.930 . S
H518 C511 0.929 . S
H519 C533 0.930 . S
H520 C512 0.930 . S
H521 C539 0.930 . S
H522 C530 0.929 . S
H523 C537 0.930 . S
H524 C501 0.931 . S
H525 C531 0.930 . S
H526 C564 0.930 . S
H527 C508 0.930 . S
H528 C563 0.931 . S
N529 Eu498 2.657 . S
N529 C530 1.334 . S
N529 C534 1.362 . S
C530 H522 0.929 . S
C530 N529 1.334 . S
C530 C533 1.413 . S
C531 H525 0.930 . S
C531 C532 1.392 . S
C531 C533 1.367 . S
C532 C531 1.392 . S
C532 C534 1.420 . S
C532 C564 1.423 . S
C533 H519 0.930 . S
C533 C530 1.413 . S
C533 C531 1.367 . S
C534 N529 1.362 . S
C534 C532 1.420 . S
C534 C538 1.429 . S
H535 C540 0.930 . S
N536 Eu498 2.609 . S
N536 C538 1.377 . S
N536 C539 1.321 . S
C537 H523 0.930 . S
C537 C539 1.400 . S
C537 C540 1.386 . S
C538 C534 1.429 . S
C538 N536 1.377 . S
C538 C541 1.411 . S
C539 H521 0.930 . S
C539 N536 1.321 . S
C539 C537 1.400 . S
C540 H535 0.930 . S
C540 C537 1.386 . S
C540 C541 1.395 . S
C541 C538 1.411 . S
C541 C540 1.395 . S
C541 C563 1.420 . S
O542 Eu498 2.558 . S
O542 C562 1.257 . S
O543 Eu498 2.612 . S
O543 Eu509 2.380 . S
O543 C554 1.276 . S
O544 Eu509 2.432 . S
O544 C561 1.264 . S
O545 Eu498 2.339 . S
O545 C561 1.254 . S
O546 Eu498 2.563 . S
O546 C554 1.235 . S
O547 Eu498 2.419 . S
O547 C562 1.249 . S
O548 Eu509 2.558 . S
O548 C573 1.257 . S
O549 Eu498 2.380 . S
O549 Eu509 2.612 . S
O549 C565 1.276 . S
O550 Eu498 2.432 . S
O550 C572 1.264 . S
O551 Eu509 2.339 . S
O551 C572 1.254 . S
O552 Eu509 2.563 . S
O552 C565 1.235 . S
O553 Eu509 2.419 . S
O553 C573 1.249 . S
C554 O543 1.276 . S
C554 O546 1.235 . S
C555 C557 1.393 . S
C555 C559 1.395 . S
C555 C562 1.492 . S
C556 C557 1.392 . S
C556 C558 1.386 . S
C557 C555 1.393 . S
C557 C556 1.392 . S
C557 H574 0.930 . S
C558 C556 1.386 . S
C558 C560 1.395 . S
C558 H575 0.930 . S
C559 C555 1.395 . S
C559 C560 1.379 . S
C559 H576 0.930 . S
C560 C558 1.395 . S
C560 C559 1.379 . S
C560 H577 0.930 . S
C561 O544 1.264 . S
C561 O545 1.254 . S
C562 Eu498 2.848 . S
C562 O542 1.257 . S
C562 O547 1.249 . S
C562 C555 1.492 . S
C563 H528 0.931 . S
C563 C541 1.420 . S
C563 C564 1.351 . S
C564 H526 0.930 . S
C564 C532 1.423 . S
C564 C563 1.351 . S
C565 O549 1.276 . S
C565 O552 1.235 . S
C566 C567 1.393 . S
C566 C570 1.395 . S
C566 C573 1.492 . S
C567 C566 1.393 . S
C567 C568 1.392 . S
C567 H578 0.930 . S
C568 C567 1.392 . S
C568 C569 1.386 . S
C569 C568 1.386 . S
C569 C571 1.395 . S
C569 H579 0.930 . S
C570 C566 1.395 . S
C570 C571 1.379 . S
C570 H580 0.930 . S
C571 C569 1.395 . S
C571 C570 1.379 . S
C571 H581 0.930 . S
C572 O550 1.264 . S
C572 O551 1.254 . S
C573 Eu509 2.848 . S
C573 O548 1.257 . S
C573 O553 1.249 . S
C573 C566 1.492 . S
H574 C557 0.930 . S
H575 C558 0.930 . S
H576 C559 0.930 . S
H577 C560 0.930 . S
H578 C567 0.930 . S
H579 C569 0.930 . S
H580 C570 0.930 . S
H581 C571 0.930 . S
Eu582 N613 2.657 . S
Eu582 N620 2.609 . S
Eu582 O626 2.558 . S
Eu582 O627 2.612 . S
Eu582 O629 2.339 . S
Eu582 O630 2.563 . S
Eu582 O631 2.419 . S
Eu582 O633 2.380 . S
Eu582 O634 2.432 . S
Eu582 C646 2.848 . S
C583 C586 1.429 . S
C583 C587 1.411 . S
C583 N590 1.377 . S
C584 C586 1.420 1_655 S
C584 C588 1.423 . S
C584 C596 1.392 . S
C585 C587 1.420 1_655 S
C585 C588 1.351 . S
C585 H608 0.931 . S
C586 C583 1.429 . S
C586 C584 1.420 1_455 S
C586 N594 1.362 . S
C587 C583 1.411 . S
C587 C585 1.420 1_455 S
C587 C592 1.395 . S
C588 C584 1.423 . S
C588 C585 1.351 . S
C588 H600 0.930 . S
C589 C591 1.400 . S
C589 C592 1.386 . S
C589 H601 0.930 . S
N590 C583 1.377 . S
N590 C591 1.321 . S
N590 Eu593 2.609 . S
C591 C589 1.400 . S
C591 N590 1.321 . S
C591 H598 0.930 . S
C592 C587 1.395 . S
C592 C589 1.386 . S
C592 H611 0.930 . S
Eu593 N590 2.609 . S
Eu593 N594 2.657 . S
Eu593 O627 2.380 . S
Eu593 O628 2.432 . S
Eu593 O632 2.558 . S
Eu593 O633 2.612 . S
Eu593 O635 2.339 . S
Eu593 O636 2.563 . S
Eu593 O637 2.419 . S
Eu593 C657 2.848 . S
N594 C586 1.362 . S
N594 Eu593 2.657 . S
N594 C595 1.334 . S
C595 N594 1.334 . S
C595 C597 1.413 1_455 S
C595 H602 0.929 . S
C596 C584 1.392 . S
C596 C597 1.367 . S
C596 H604 0.930 . S
C597 C595 1.413 1_655 S
C597 C596 1.367 . S
C597 H599 0.930 . S
H598 C591 0.930 . S
H599 C597 0.930 . S
H600 C588 0.930 . S
H601 C589 0.930 . S
H602 C595 0.929 . S
H603 C617 0.930 . S
H604 C596 0.930 . S
H605 C623 0.930 . S
H606 C614 0.929 . S
H607 C621 0.930 . S
H608 C585 0.931 . S
H609 C615 0.930 . S
H610 C648 0.930 . S
H611 C592 0.930 . S
H612 C647 0.931 . S
N613 Eu582 2.657 . S
N613 C614 1.334 . S
N613 C618 1.362 . S
C614 H606 0.929 . S
C614 N613 1.334 . S
C614 C617 1.413 . S
C615 H609 0.930 . S
C615 C616 1.392 . S
C615 C617 1.367 . S
C616 C615 1.392 . S
C616 C618 1.420 . S
C616 C648 1.423 . S
C617 H603 0.930 . S
C617 C614 1.413 . S
C617 C615 1.367 . S
C618 N613 1.362 . S
C618 C616 1.420 . S
C618 C622 1.429 . S
H619 C624 0.930 . S
N620 Eu582 2.609 . S
N620 C622 1.377 . S
N620 C623 1.321 . S
C621 H607 0.930 . S
C621 C623 1.400 . S
C621 C624 1.386 . S
C622 C618 1.429 . S
C622 N620 1.377 . S
C622 C625 1.411 . S
C623 H605 0.930 . S
C623 N620 1.321 . S
C623 C621 1.400 . S
C624 H619 0.930 . S
C624 C621 1.386 . S
C624 C625 1.395 . S
C625 C622 1.411 . S
C625 C624 1.395 . S
C625 C647 1.420 . S
O626 Eu582 2.558 . S
O626 C646 1.257 . S
O627 Eu582 2.612 . S
O627 Eu593 2.380 . S
O627 C638 1.276 . S
O628 Eu593 2.432 . S
O628 C645 1.264 . S
O629 Eu582 2.339 . S
O629 C645 1.254 . S
O630 Eu582 2.563 . S
O630 C638 1.235 . S
O631 Eu582 2.419 . S
O631 C646 1.249 . S
O632 Eu593 2.558 . S
O632 C657 1.257 . S
O633 Eu582 2.380 . S
O633 Eu593 2.612 . S
O633 C649 1.276 . S
O634 Eu582 2.432 . S
O634 C656 1.264 . S
O635 Eu593 2.339 . S
O635 C656 1.254 . S
O636 Eu593 2.563 . S
O636 C649 1.235 . S
O637 Eu593 2.419 . S
O637 C657 1.249 . S
C638 O627 1.276 . S
C638 O630 1.235 . S
C639 C641 1.393 . S
C639 C643 1.395 . S
C639 C646 1.492 . S
C640 C641 1.392 . S
C640 C642 1.386 . S
C641 C639 1.393 . S
C641 C640 1.392 . S
C641 H658 0.930 . S
C642 C640 1.386 . S
C642 C644 1.395 . S
C642 H659 0.930 . S
C643 C639 1.395 . S
C643 C644 1.379 . S
C643 H660 0.930 . S
C644 C642 1.395 . S
C644 C643 1.379 . S
C644 H661 0.930 . S
C645 O628 1.264 . S
C645 O629 1.254 . S
C646 Eu582 2.848 . S
C646 O626 1.257 . S
C646 O631 1.249 . S
C646 C639 1.492 . S
C647 H612 0.931 . S
C647 C625 1.420 . S
C647 C648 1.351 . S
C648 H610 0.930 . S
C648 C616 1.423 . S
C648 C647 1.351 . S
C649 O633 1.276 . S
C649 O636 1.235 . S
C650 C651 1.393 . S
C650 C654 1.395 . S
C650 C657 1.492 . S
C651 C650 1.393 . S
C651 C652 1.392 . S
C651 H662 0.930 . S
C652 C651 1.392 . S
C652 C653 1.386 . S
C653 C652 1.386 . S
C653 C655 1.395 . S
C653 H663 0.930 . S
C654 C650 1.395 . S
C654 C655 1.379 . S
C654 H664 0.930 . S
C655 C653 1.395 . S
C655 C654 1.379 . S
C655 H665 0.930 . S
C656 O634 1.264 . S
C656 O635 1.254 . S
C657 Eu593 2.848 . S
C657 O632 1.257 . S
C657 O637 1.249 . S
C657 C650 1.492 . S
H658 C641 0.930 . S
H659 C642 0.930 . S
H660 C643 0.930 . S
H661 C644 0.930 . S
H662 C651 0.930 . S
H663 C653 0.930 . S
H664 C654 0.930 . S
H665 C655 0.930 . S
Eu666 N697 2.657 . S
Eu666 N704 2.609 . S
Eu666 O710 2.558 . S
Eu666 O711 2.612 . S
Eu666 O713 2.339 . S
Eu666 O714 2.563 . S
Eu666 O715 2.419 . S
Eu666 O717 2.380 . S
Eu666 O718 2.432 . S
Eu666 C730 2.848 . S
C667 C670 1.429 . S
C667 C671 1.411 . S
C667 N674 1.377 . S
C668 C670 1.420 1_455 S
C668 C672 1.423 . S
C668 C680 1.392 . S
C669 C671 1.420 1_455 S
C669 C672 1.351 . S
C669 H692 0.931 . S
C670 C667 1.429 . S
C670 C668 1.420 1_655 S
C670 N678 1.362 . S
C671 C667 1.411 . S
C671 C669 1.420 1_655 S
C671 C676 1.395 . S
C672 C668 1.423 . S
C672 C669 1.351 . S
C672 H684 0.930 . S
C673 C675 1.400 . S
C673 C676 1.386 . S
C673 H685 0.930 . S
N674 C667 1.377 . S
N674 C675 1.321 . S
N674 Eu677 2.609 . S
C675 C673 1.400 . S
C675 N674 1.321 . S
C675 H682 0.930 . S
C676 C671 1.395 . S
C676 C673 1.386 . S
C676 H695 0.930 . S
Eu677 N674 2.609 . S
Eu677 N678 2.657 . S
Eu677 O711 2.380 . S
Eu677 O712 2.432 . S
Eu677 O716 2.558 . S
Eu677 O717 2.612 . S
Eu677 O719 2.339 . S
Eu677 O720 2.563 . S
Eu677 O721 2.419 . S
Eu677 C741 2.848 . S
N678 C670 1.362 . S
N678 Eu677 2.657 . S
N678 C679 1.334 . S
C679 N678 1.334 . S
C679 C681 1.413 1_655 S
C679 H686 0.929 . S
C680 C668 1.392 . S
C680 C681 1.367 . S
C680 H688 0.930 . S
C681 C679 1.413 1_455 S
C681 C680 1.367 . S
C681 H683 0.930 . S
H682 C675 0.930 . S
H683 C681 0.930 . S
H684 C672 0.930 . S
H685 C673 0.930 . S
H686 C679 0.929 . S
H687 C701 0.930 . S
H688 C680 0.930 . S
H689 C707 0.930 . S
H690 C698 0.929 . S
H691 C705 0.930 . S
H692 C669 0.931 . S
H693 C699 0.930 . S
H694 C732 0.930 . S
H695 C676 0.930 . S
H696 C731 0.931 . S
N697 Eu666 2.657 . S
N697 C698 1.334 . S
N697 C702 1.362 . S
C698 H690 0.929 . S
C698 N697 1.334 . S
C698 C701 1.413 . S
C699 H693 0.930 . S
C699 C700 1.392 . S
C699 C701 1.367 . S
C700 C699 1.392 . S
C700 C702 1.420 . S
C700 C732 1.423 . S
C701 H687 0.930 . S
C701 C698 1.413 . S
C701 C699 1.367 . S
C702 N697 1.362 . S
C702 C700 1.420 . S
C702 C706 1.429 . S
H703 C708 0.930 . S
N704 Eu666 2.609 . S
N704 C706 1.377 . S
N704 C707 1.321 . S
C705 H691 0.930 . S
C705 C707 1.400 . S
C705 C708 1.386 . S
C706 C702 1.429 . S
C706 N704 1.377 . S
C706 C709 1.411 . S
C707 H689 0.930 . S
C707 N704 1.321 . S
C707 C705 1.400 . S
C708 H703 0.930 . S
C708 C705 1.386 . S
C708 C709 1.395 . S
C709 C706 1.411 . S
C709 C708 1.395 . S
C709 C731 1.420 . S
O710 Eu666 2.558 . S
O710 C730 1.257 . S
O711 Eu666 2.612 . S
O711 Eu677 2.380 . S
O711 C722 1.276 . S
O712 Eu677 2.432 . S
O712 C729 1.264 . S
O713 Eu666 2.339 . S
O713 C729 1.254 . S
O714 Eu666 2.563 . S
O714 C722 1.235 . S
O715 Eu666 2.419 . S
O715 C730 1.249 . S
O716 Eu677 2.558 . S
O716 C741 1.257 . S
O717 Eu666 2.380 . S
O717 Eu677 2.612 . S
O717 C733 1.276 . S
O718 Eu666 2.432 . S
O718 C740 1.264 . S
O719 Eu677 2.339 . S
O719 C740 1.254 . S
O720 Eu677 2.563 . S
O720 C733 1.235 . S
O721 Eu677 2.419 . S
O721 C741 1.249 . S
C722 O711 1.276 . S
C722 O714 1.235 . S
C723 C725 1.393 . S
C723 C727 1.395 . S
C723 C730 1.492 . S
C724 C725 1.392 . S
C724 C726 1.386 . S
C725 C723 1.393 . S
C725 C724 1.392 . S
C725 H742 0.930 . S
C726 C724 1.386 . S
C726 C728 1.395 . S
C726 H743 0.930 . S
C727 C723 1.395 . S
C727 C728 1.379 . S
C727 H744 0.930 . S
C728 C726 1.395 . S
C728 C727 1.379 . S
C728 H745 0.930 . S
C729 O712 1.264 . S
C729 O713 1.254 . S
C730 Eu666 2.848 . S
C730 O710 1.257 . S
C730 O715 1.249 . S
C730 C723 1.492 . S
C731 H696 0.931 . S
C731 C709 1.420 . S
C731 C732 1.351 . S
C732 H694 0.930 . S
C732 C700 1.423 . S
C732 C731 1.351 . S
C733 O717 1.276 . S
C733 O720 1.235 . S
C734 C735 1.393 . S
C734 C738 1.395 . S
C734 C741 1.492 . S
C735 C734 1.393 . S
C735 C736 1.392 . S
C735 H746 0.930 . S
C736 C735 1.392 . S
C736 C737 1.386 . S
C737 C736 1.386 . S
C737 C739 1.395 . S
C737 H747 0.930 . S
C738 C734 1.395 . S
C738 C739 1.379 . S
C738 H748 0.930 . S
C739 C737 1.395 . S
C739 C738 1.379 . S
C739 H749 0.930 . S
C740 O718 1.264 . S
C740 O719 1.254 . S
C741 Eu677 2.848 . S
C741 O716 1.257 . S
C741 O721 1.249 . S
C741 C734 1.492 . S
H742 C725 0.930 . S
H743 C726 0.930 . S
H744 C727 0.930 . S
H745 C728 0.930 . S
H746 C735 0.930 . S
H747 C737 0.930 . S
H748 C738 0.930 . S
H749 C739 0.930 . S
Eu750 N781 2.657 . S
Eu750 N788 2.609 . S
Eu750 O794 2.558 . S
Eu750 O795 2.612 . S
Eu750 O797 2.339 . S
Eu750 O798 2.563 . S
Eu750 O799 2.419 . S
Eu750 O801 2.380 . S
Eu750 O802 2.432 . S
Eu750 C814 2.848 . S
C751 C754 1.429 . S
C751 C755 1.411 . S
C751 N758 1.377 . S
C752 C754 1.420 . S
C752 C756 1.423 . S
C752 C764 1.392 . S
C753 C755 1.420 . S
C753 C756 1.351 . S
C753 H776 0.931 . S
C754 C751 1.429 . S
C754 C752 1.420 . S
C754 N762 1.362 . S
C755 C751 1.411 . S
C755 C753 1.420 . S
C755 C760 1.395 . S
C756 C752 1.423 . S
C756 C753 1.351 . S
C756 H768 0.930 . S
C757 C759 1.400 . S
C757 C760 1.386 . S
C757 H769 0.930 . S
N758 C751 1.377 . S
N758 C759 1.321 . S
N758 Eu761 2.609 . S
C759 C757 1.400 . S
C759 N758 1.321 . S
C759 H766 0.930 . S
C760 C755 1.395 . S
C760 C757 1.386 . S
C760 H779 0.930 . S
Eu761 N758 2.609 . S
Eu761 N762 2.657 . S
Eu761 O795 2.380 . S
Eu761 O796 2.432 . S
Eu761 O800 2.558 . S
Eu761 O801 2.612 . S
Eu761 O803 2.339 . S
Eu761 O804 2.563 . S
Eu761 O805 2.419 . S
Eu761 C825 2.848 . S
N762 C754 1.362 . S
N762 Eu761 2.657 . S
N762 C763 1.334 . S
C763 N762 1.334 . S
C763 C765 1.413 . S
C763 H770 0.929 . S
C764 C752 1.392 . S
C764 C765 1.367 . S
C764 H772 0.930 . S
C765 C763 1.413 . S
C765 C764 1.367 . S
C765 H767 0.930 . S
H766 C759 0.930 . S
H767 C765 0.930 . S
H768 C756 0.930 . S
H769 C757 0.930 . S
H770 C763 0.929 . S
H771 C785 0.930 . S
H772 C764 0.930 . S
H773 C791 0.930 . S
H774 C782 0.929 . S
H775 C789 0.930 . S
H776 C753 0.931 . S
H777 C783 0.930 . S
H778 C816 0.930 . S
H779 C760 0.930 . S
H780 C815 0.931 . S
N781 Eu750 2.657 . S
N781 C782 1.334 . S
N781 C786 1.362 . S
C782 H774 0.929 . S
C782 N781 1.334 . S
C782 C785 1.413 . S
C783 H777 0.930 . S
C783 C784 1.392 . S
C783 C785 1.367 . S
C784 C783 1.392 . S
C784 C786 1.420 . S
C784 C816 1.423 . S
C785 H771 0.930 . S
C785 C782 1.413 . S
C785 C783 1.367 . S
C786 N781 1.362 . S
C786 C784 1.420 . S
C786 C790 1.429 . S
H787 C792 0.930 . S
N788 Eu750 2.609 . S
N788 C790 1.377 . S
N788 C791 1.321 . S
C789 H775 0.930 . S
C789 C791 1.400 . S
C789 C792 1.386 . S
C790 C786 1.429 . S
C790 N788 1.377 . S
C790 C793 1.411 . S
C791 H773 0.930 . S
C791 N788 1.321 . S
C791 C789 1.400 . S
C792 H787 0.930 . S
C792 C789 1.386 . S
C792 C793 1.395 . S
C793 C790 1.411 . S
C793 C792 1.395 . S
C793 C815 1.420 . S
O794 Eu750 2.558 . S
O794 C814 1.257 . S
O795 Eu750 2.612 . S
O795 Eu761 2.380 . S
O795 C806 1.276 . S
O796 Eu761 2.432 . S
O796 C813 1.264 . S
O797 Eu750 2.339 . S
O797 C813 1.254 . S
O798 Eu750 2.563 . S
O798 C806 1.235 . S
O799 Eu750 2.419 . S
O799 C814 1.249 . S
O800 Eu761 2.558 . S
O800 C825 1.257 . S
O801 Eu750 2.380 . S
O801 Eu761 2.612 . S
O801 C817 1.276 . S
O802 Eu750 2.432 . S
O802 C824 1.264 . S
O803 Eu761 2.339 . S
O803 C824 1.254 . S
O804 Eu761 2.563 . S
O804 C817 1.235 . S
O805 Eu761 2.419 . S
O805 C825 1.249 . S
C806 O795 1.276 . S
C806 O798 1.235 . S
C807 C809 1.393 . S
C807 C811 1.395 . S
C807 C814 1.492 . S
C808 C809 1.392 . S
C808 C810 1.386 . S
C809 C807 1.393 . S
C809 C808 1.392 . S
C809 H826 0.930 . S
C810 C808 1.386 . S
C810 C812 1.395 . S
C810 H827 0.930 . S
C811 C807 1.395 . S
C811 C812 1.379 . S
C811 H828 0.930 . S
C812 C810 1.395 . S
C812 C811 1.379 . S
C812 H829 0.930 . S
C813 O796 1.264 . S
C813 O797 1.254 . S
C814 Eu750 2.848 . S
C814 O794 1.257 . S
C814 O799 1.249 . S
C814 C807 1.492 . S
C815 H780 0.931 . S
C815 C793 1.420 . S
C815 C816 1.351 . S
C816 H778 0.930 . S
C816 C784 1.423 . S
C816 C815 1.351 . S
C817 O801 1.276 . S
C817 O804 1.235 . S
C818 C819 1.393 . S
C818 C822 1.395 . S
C818 C825 1.492 . S
C819 C818 1.393 . S
C819 C820 1.392 . S
C819 H830 0.930 . S
C820 C819 1.392 . S
C820 C821 1.386 . S
C821 C820 1.386 . S
C821 C823 1.395 . S
C821 H831 0.930 . S
C822 C818 1.395 . S
C822 C823 1.379 . S
C822 H832 0.930 . S
C823 C821 1.395 . S
C823 C822 1.379 . S
C823 H833 0.930 . S
C824 O802 1.264 . S
C824 O803 1.254 . S
C825 Eu761 2.848 . S
C825 O800 1.257 . S
C825 O805 1.249 . S
C825 C818 1.492 . S
H826 C809 0.930 . S
H827 C810 0.930 . S
H828 C811 0.930 . S
H829 C812 0.930 . S
H830 C819 0.930 . S
H831 C821 0.930 . S
H832 C822 0.930 . S
H833 C823 0.930 . S
Eu834 N865 2.657 . S
Eu834 N872 2.609 . S
Eu834 O878 2.558 . S
Eu834 O879 2.612 . S
Eu834 O881 2.339 . S
Eu834 O882 2.563 . S
Eu834 O883 2.419 . S
Eu834 O885 2.380 . S
Eu834 O886 2.432 . S
Eu834 C898 2.848 . S
C835 C838 1.429 . S
C835 C839 1.411 . S
C835 N842 1.377 . S
C836 C838 1.420 . S
C836 C840 1.423 . S
C836 C848 1.392 . S
C837 C839 1.420 . S
C837 C840 1.351 . S
C837 H860 0.931 . S
C838 C835 1.429 . S
C838 C836 1.420 . S
C838 N846 1.362 . S
C839 C835 1.411 . S
C839 C837 1.420 . S
C839 C844 1.395 . S
C840 C836 1.423 . S
C840 C837 1.351 . S
C840 H852 0.930 . S
C841 C843 1.400 . S
C841 C844 1.386 . S
C841 H853 0.930 . S
N842 C835 1.377 . S
N842 C843 1.321 . S
N842 Eu845 2.609 . S
C843 C841 1.400 . S
C843 N842 1.321 . S
C843 H850 0.930 . S
C844 C839 1.395 . S
C844 C841 1.386 . S
C844 H863 0.930 . S
Eu845 N842 2.609 . S
Eu845 N846 2.657 . S
Eu845 O879 2.380 . S
Eu845 O880 2.432 . S
Eu845 O884 2.558 . S
Eu845 O885 2.612 . S
Eu845 O887 2.339 . S
Eu845 O888 2.563 . S
Eu845 O889 2.419 . S
Eu845 C909 2.848 . S
N846 C838 1.362 . S
N846 Eu845 2.657 . S
N846 C847 1.334 . S
C847 N846 1.334 . S
C847 C849 1.413 . S
C847 H854 0.929 . S
C848 C836 1.392 . S
C848 C849 1.367 . S
C848 H856 0.930 . S
C849 C847 1.413 . S
C849 C848 1.367 . S
C849 H851 0.930 . S
H850 C843 0.930 . S
H851 C849 0.930 . S
H852 C840 0.930 . S
H853 C841 0.930 . S
H854 C847 0.929 . S
H855 C869 0.930 . S
H856 C848 0.930 . S
H857 C875 0.930 . S
H858 C866 0.929 . S
H859 C873 0.930 . S
H860 C837 0.931 . S
H861 C867 0.930 . S
H862 C900 0.930 . S
H863 C844 0.930 . S
H864 C899 0.931 . S
N865 Eu834 2.657 . S
N865 C866 1.334 . S
N865 C870 1.362 . S
C866 H858 0.929 . S
C866 N865 1.334 . S
C866 C869 1.413 1_655 S
C867 H861 0.930 . S
C867 C868 1.392 . S
C867 C869 1.367 . S
C868 C867 1.392 . S
C868 C870 1.420 1_455 S
C868 C900 1.423 . S
C869 H855 0.930 . S
C869 C866 1.413 1_455 S
C869 C867 1.367 . S
C870 N865 1.362 . S
C870 C868 1.420 1_655 S
C870 C874 1.429 . S
H871 C876 0.930 . S
N872 Eu834 2.609 . S
N872 C874 1.377 . S
N872 C875 1.321 . S
C873 H859 0.930 . S
C873 C875 1.400 . S
C873 C876 1.386 . S
C874 C870 1.429 . S
C874 N872 1.377 . S
C874 C877 1.411 . S
C875 H857 0.930 . S
C875 N872 1.321 . S
C875 C873 1.400 . S
C876 H871 0.930 . S
C876 C873 1.386 . S
C876 C877 1.395 . S
C877 C874 1.411 . S
C877 C876 1.395 . S
C877 C899 1.420 1_655 S
O878 Eu834 2.558 . S
O878 C898 1.257 . S
O879 Eu834 2.612 . S
O879 Eu845 2.380 . S
O879 C890 1.276 . S
O880 Eu845 2.432 . S
O880 C897 1.264 . S
O881 Eu834 2.339 . S
O881 C897 1.254 . S
O882 Eu834 2.563 . S
O882 C890 1.235 . S
O883 Eu834 2.419 . S
O883 C898 1.249 . S
O884 Eu845 2.558 . S
O884 C909 1.257 . S
O885 Eu834 2.380 . S
O885 Eu845 2.612 . S
O885 C901 1.276 . S
O886 Eu834 2.432 . S
O886 C908 1.264 . S
O887 Eu845 2.339 . S
O887 C908 1.254 . S
O888 Eu845 2.563 . S
O888 C901 1.235 . S
O889 Eu845 2.419 . S
O889 C909 1.249 . S
C890 O879 1.276 . S
C890 O882 1.235 . S
C891 C893 1.393 . S
C891 C895 1.395 . S
C891 C898 1.492 . S
C892 C893 1.392 . S
C892 C894 1.386 . S
C893 C891 1.393 . S
C893 C892 1.392 . S
C893 H910 0.930 . S
C894 C892 1.386 . S
C894 C896 1.395 . S
C894 H911 0.930 . S
C895 C891 1.395 . S
C895 C896 1.379 . S
C895 H912 0.930 . S
C896 C894 1.395 . S
C896 C895 1.379 . S
C896 H913 0.930 . S
C897 O880 1.264 . S
C897 O881 1.254 . S
C898 Eu834 2.848 . S
C898 O878 1.257 . S
C898 O883 1.249 . S
C898 C891 1.492 . S
C899 H864 0.931 . S
C899 C877 1.420 1_455 S
C899 C900 1.351 . S
C900 H862 0.930 . S
C900 C868 1.423 . S
C900 C899 1.351 . S
C901 O885 1.276 . S
C901 O888 1.235 . S
C902 C903 1.393 . S
C902 C906 1.395 . S
C902 C909 1.492 . S
C903 C902 1.393 . S
C903 C904 1.392 . S
C903 H914 0.930 . S
C904 C903 1.392 . S
C904 C905 1.386 . S
C905 C904 1.386 . S
C905 C907 1.395 . S
C905 H915 0.930 . S
C906 C902 1.395 . S
C906 C907 1.379 . S
C906 H916 0.930 . S
C907 C905 1.395 . S
C907 C906 1.379 . S
C907 H917 0.930 . S
C908 O886 1.264 . S
C908 O887 1.254 . S
C909 Eu845 2.848 . S
C909 O884 1.257 . S
C909 O889 1.249 . S
C909 C902 1.492 . S
H910 C893 0.930 . S
H911 C894 0.930 . S
H912 C895 0.930 . S
H913 C896 0.930 . S
H914 C903 0.930 . S
H915 C905 0.930 . S
H916 C906 0.930 . S
H917 C907 0.930 . S
C918 C919 1.369 . S
C918 C920 1.419 . S
C918 H922 0.930 . S
C919 C918 1.369 . S
C919 C928 1.429 . S
C920 C918 1.419 . S
C920 C921 1.363 . S
C920 H923 0.929 . S
C921 C920 1.363 . S
C921 C927 1.428 . S
H922 C918 0.930 . S
H923 C920 0.929 . S
S924 N925 1.613 . S
S924 N926 1.610 . S
N925 S924 1.613 . S
N925 C928 1.350 . S
N926 S924 1.610 . S
N926 C927 1.351 . S
C927 C921 1.428 . S
C927 N926 1.351 . S
C927 C928 1.434 . S
C928 C919 1.429 . S
C928 N925 1.350 . S
C928 C927 1.434 . S
C929 C930 1.369 . S
C929 C931 1.419 . S
C929 H933 0.930 . S
C930 C929 1.369 . S
C930 C939 1.429 . S
C931 C929 1.419 . S
C931 C932 1.363 . S
C931 H934 0.929 . S
C932 C931 1.363 . S
C932 C938 1.428 . S
H933 C929 0.930 . S
H934 C931 0.929 . S
S935 N936 1.613 1_556 S
S935 N937 1.610 . S
N936 S935 1.613 1_554 S
N936 C939 1.350 . S
N937 S935 1.610 . S
N937 C938 1.351 1_556 S
C938 C932 1.428 . S
C938 N937 1.351 1_554 S
C938 C939 1.434 . S
C939 C930 1.429 . S
C939 N936 1.350 . S
C939 C938 1.434 . S
C940 C941 1.369 . S
C940 C942 1.419 . S
C940 H944 0.930 . S
C941 C940 1.369 . S
C941 C950 1.429 . S
C942 C940 1.419 . S
C942 C943 1.363 . S
C942 H945 0.929 . S
C943 C942 1.363 . S
C943 C949 1.428 . S
H944 C940 0.930 . S
H945 C942 0.929 . S
S946 N947 1.613 . S
S946 N948 1.610 . S
N947 S946 1.613 . S
N947 C950 1.350 . S
N948 S946 1.610 . S
N948 C949 1.351 . S
C949 C943 1.428 . S
C949 N948 1.351 . S
C949 C950 1.434 . S
C950 C941 1.429 . S
C950 N947 1.350 . S
C950 C949 1.434 . S
C951 C952 1.369 . S
C951 C953 1.419 . S
C951 H955 0.930 . S
C952 C951 1.369 . S
C952 C961 1.429 . S
C953 C951 1.419 . S
C953 C954 1.363 . S
C953 H956 0.929 . S
C954 C953 1.363 . S
C954 C960 1.428 . S
H955 C951 0.930 . S
H956 C953 0.929 . S
S957 N958 1.613 1_554 S
S957 N959 1.610 . S
N958 S957 1.613 1_556 S
N958 C961 1.350 . S
N959 S957 1.610 . S
N959 C960 1.351 1_554 S
C960 C954 1.428 . S
C960 N959 1.351 1_556 S
C960 C961 1.434 . S
C961 C952 1.429 . S
C961 N958 1.350 . S
C961 C960 1.434 . S
C962 C963 1.369 . S
C962 C964 1.419 . S
C962 H966 0.930 . S
C963 C962 1.369 . S
C963 C972 1.429 . S
C964 C962 1.419 . S
C964 C965 1.363 . S
C964 H967 0.929 . S
C965 C964 1.363 . S
C965 C971 1.428 . S
H966 C962 0.930 . S
H967 C964 0.929 . S
S968 N969 1.613 1_554 S
S968 N970 1.610 . S
N969 S968 1.613 1_556 S
N969 C972 1.350 . S
N970 S968 1.610 . S
N970 C971 1.351 1_554 S
C971 C965 1.428 . S
C971 N970 1.351 1_556 S
C971 C972 1.434 . S
C972 C963 1.429 . S
C972 N969 1.350 . S
C972 C971 1.434 . S
C973 C974 1.369 . S
C973 C975 1.419 . S
C973 H977 0.930 . S
C974 C973 1.369 . S
C974 C983 1.429 . S
C975 C973 1.419 . S
C975 C976 1.363 . S
C975 H978 0.929 . S
C976 C975 1.363 . S
C976 C982 1.428 . S
H977 C973 0.930 . S
H978 C975 0.929 . S
S979 N980 1.613 1_554 S
S979 N981 1.610 . S
N980 S979 1.613 1_556 S
N980 C983 1.350 . S
N981 S979 1.610 . S
N981 C982 1.351 1_554 S
C982 C976 1.428 . S
C982 N981 1.351 1_556 S
C982 C983 1.434 . S
C983 C974 1.429 . S
C983 N980 1.350 . S
C983 C982 1.434 . S
C984 C985 1.369 . S
C984 C986 1.419 . S
C984 H988 0.930 . S
C985 C984 1.369 . S
C985 C994 1.429 . S
C986 C984 1.419 . S
C986 C987 1.363 . S
C986 H989 0.929 . S
C987 C986 1.363 . S
C987 C993 1.428 . S
H988 C984 0.930 . S
H989 C986 0.929 . S
S990 N991 1.613 1_554 S
S990 N992 1.610 . S
N991 S990 1.613 1_556 S
N991 C994 1.350 . S
N992 S990 1.610 . S
N992 C993 1.351 1_554 S
C993 C987 1.428 . S
C993 N992 1.351 1_556 S
C993 C994 1.434 . S
C994 C985 1.429 . S
C994 N991 1.350 . S
C994 C993 1.434 . S
C995 C996 1.369 . S
C995 C997 1.419 . S
C995 H999 0.930 . S
C996 C995 1.369 . S
C996 C1005 1.429 . S
C997 C995 1.419 . S
C997 C998 1.363 . S
C997 H1000 0.929 . S
C998 C997 1.363 . S
C998 C1004 1.428 . S
H999 C995 0.930 . S
H1000 C997 0.929 . S
S1001 N1002 1.613 . S
S1001 N1003 1.610 . S
N1002 S1001 1.613 . S
N1002 C1005 1.350 . S
N1003 S1001 1.610 . S
N1003 C1004 1.351 . S
C1004 C998 1.428 . S
C1004 N1003 1.351 . S
C1004 C1005 1.434 . S
C1005 C996 1.429 . S
C1005 N1002 1.350 . S
C1005 C1004 1.434 . S
C1006 C1007 1.369 . S
C1006 C1008 1.419 . S
C1006 H1010 0.930 . S
C1007 C1006 1.369 . S
C1007 C1016 1.429 . S
C1008 C1006 1.419 . S
C1008 C1009 1.363 . S
C1008 H1011 0.929 . S
C1009 C1008 1.363 . S
C1009 C1015 1.428 . S
H1010 C1006 0.930 . S
H1011 C1008 0.929 . S
S1012 N1013 1.613 . S
S1012 N1014 1.610 . S
N1013 S1012 1.613 . S
N1013 C1016 1.350 . S
N1014 S1012 1.610 . S
N1014 C1015 1.351 . S
C1015 C1009 1.428 . S
C1015 N1014 1.351 . S
C1015 C1016 1.434 . S
C1016 C1007 1.429 . S
C1016 N1013 1.350 . S
C1016 C1015 1.434 . S
C1017 C1018 1.369 . S
C1017 C1019 1.419 . S
C1017 H1021 0.930 . S
C1018 C1017 1.369 . S
C1018 C1027 1.429 . S
C1019 C1017 1.419 . S
C1019 C1020 1.363 . S
C1019 H1022 0.929 . S
C1020 C1019 1.363 . S
C1020 C1026 1.428 . S
H1021 C1017 0.930 . S
H1022 C1019 0.929 . S
S1023 N1024 1.613 . S
S1023 N1025 1.610 . S
N1024 S1023 1.613 . S
N1024 C1027 1.350 . S
N1025 S1023 1.610 . S
N1025 C1026 1.351 . S
C1026 C1020 1.428 . S
C1026 N1025 1.351 . S
C1026 C1027 1.434 . S
C1027 C1018 1.429 . S
C1027 N1024 1.350 . S
C1027 C1026 1.434 . S
C1028 C1029 1.369 . S
C1028 C1030 1.419 . S
C1028 H1032 0.930 . S
C1029 C1028 1.369 . S
C1029 C1038 1.429 . S
C1030 C1028 1.419 . S
C1030 C1031 1.363 . S
C1030 H1033 0.929 . S
C1031 C1030 1.363 . S
C1031 C1037 1.428 . S
H1032 C1028 0.930 . S
H1033 C1030 0.929 . S
S1034 N1035 1.613 . S
S1034 N1036 1.610 . S
N1035 S1034 1.613 . S
N1035 C1038 1.350 . S
N1036 S1034 1.610 . S
N1036 C1037 1.351 . S
C1037 C1031 1.428 . S
C1037 N1036 1.351 . S
C1037 C1038 1.434 . S
C1038 C1029 1.429 . S
C1038 N1035 1.350 . S
C1038 C1037 1.434 . S
C1039 C1040 1.369 . S
C1039 C1041 1.419 . S
C1039 H1043 0.930 . S
C1040 C1039 1.369 . S
C1040 C1049 1.429 . S
C1041 C1039 1.419 . S
C1041 C1042 1.363 . S
C1041 H1044 0.929 . S
C1042 C1041 1.363 . S
C1042 C1048 1.428 . S
H1043 C1039 0.930 . S
H1044 C1041 0.929 . S
S1045 N1046 1.613 . S
S1045 N1047 1.610 . S
N1046 S1045 1.613 . S
N1046 C1049 1.350 . S
N1047 S1045 1.610 . S
N1047 C1048 1.351 . S
C1048 C1042 1.428 . S
C1048 N1047 1.351 . S
C1048 C1049 1.434 . S
C1049 C1040 1.429 . S
C1049 N1046 1.350 . S
C1049 C1048 1.434 . S
C1050 C1051 1.369 . S
C1050 C1052 1.419 1_655 S
C1050 H1054 0.930 . S
C1051 C1050 1.369 . S
C1051 C1060 1.429 . S
C1052 C1050 1.419 1_455 S
C1052 C1053 1.363 . S
C1052 H1055 0.929 . S
C1053 C1052 1.363 . S
C1053 C1059 1.428 . S
H1054 C1050 0.930 . S
H1055 C1052 0.929 . S
S1056 N1057 1.613 1_455 S
S1056 N1058 1.610 . S
N1057 S1056 1.613 1_655 S
N1057 C1060 1.350 . S
N1058 S1056 1.610 . S
N1058 C1059 1.351 . S
C1059 C1053 1.428 . S
C1059 N1058 1.351 . S
C1059 C1060 1.434 1_455 S
C1060 C1051 1.429 . S
C1060 N1057 1.350 . S
C1060 C1059 1.434 1_655 S
C1061 C1062 1.369 . S
C1061 C1063 1.419 . S
C1061 H1065 0.930 . S
C1062 C1061 1.369 . S
C1062 C1071 1.429 . S
C1063 C1061 1.419 . S
C1063 C1064 1.363 . S
C1063 H1066 0.929 . S
C1064 C1063 1.363 . S
C1064 C1070 1.428 . S
H1065 C1061 0.930 . S
H1066 C1063 0.929 . S
S1067 N1068 1.613 . S
S1067 N1069 1.610 . S
N1068 S1067 1.613 . S
N1068 C1071 1.350 . S
N1069 S1067 1.610 . S
N1069 C1070 1.351 . S
C1070 C1064 1.428 . S
C1070 N1069 1.351 . S
C1070 C1071 1.434 . S
C1071 C1062 1.429 . S
C1071 N1068 1.350 . S
C1071 C1070 1.434 . S
C1072 C1073 1.369 . S
C1072 C1074 1.419 1_545 S
C1072 H1076 0.930 . S
C1073 C1072 1.369 . S
C1073 C1082 1.429 . S
C1074 C1072 1.419 1_565 S
C1074 C1075 1.363 . S
C1074 H1077 0.929 . S
C1075 C1074 1.363 . S
C1075 C1081 1.428 . S
H1076 C1072 0.930 . S
H1077 C1074 0.929 . S
S1078 N1079 1.613 . S
S1078 N1080 1.610 1_545 S
N1079 S1078 1.613 . S
N1079 C1082 1.350 . S
N1080 S1078 1.610 1_565 S
N1080 C1081 1.351 . S
C1081 C1075 1.428 . S
C1081 N1080 1.351 . S
C1081 C1082 1.434 1_565 S
C1082 C1073 1.429 . S
C1082 N1079 1.350 . S
C1082 C1081 1.434 1_545 S
C1083 C1084 1.369 . S
C1083 C1085 1.419 . S
C1083 H1087 0.930 . S
C1084 C1083 1.369 . S
C1084 C1093 1.429 . S
C1085 C1083 1.419 . S
C1085 C1086 1.363 . S
C1085 H1088 0.929 . S
C1086 C1085 1.363 . S
C1086 C1092 1.428 . S
H1087 C1083 0.930 . S
H1088 C1085 0.929 . S
S1089 N1090 1.613 . S
S1089 N1091 1.610 . S
N1090 S1089 1.613 . S
N1090 C1093 1.350 . S
N1091 S1089 1.610 . S
N1091 C1092 1.351 . S
C1092 C1086 1.428 . S
C1092 N1091 1.351 . S
C1092 C1093 1.434 . S
C1093 C1084 1.429 . S
C1093 N1090 1.350 . S
C1093 C1092 1.434 . S
C1094 C1095 1.369 . S
C1094 C1096 1.419 . S
C1094 H1098 0.930 . S
C1095 C1094 1.369 . S
C1095 C1104 1.429 . S
C1096 C1094 1.419 . S
C1096 C1097 1.363 . S
C1096 H1099 0.929 . S
C1097 C1096 1.363 . S
C1097 C1103 1.428 . S
H1098 C1094 0.930 . S
H1099 C1096 0.929 . S
S1100 N1101 1.613 . S
S1100 N1102 1.610 . S
N1101 S1100 1.613 . S
N1101 C1104 1.350 . S
N1102 S1100 1.610 . S
N1102 C1103 1.351 . S
C1103 C1097 1.428 . S
C1103 N1102 1.351 . S
C1103 C1104 1.434 . S
C1104 C1095 1.429 . S
C1104 N1101 1.350 . S
C1104 C1103 1.434 . S
C1105 C1106 1.369 . S
C1105 C1107 1.419 . S
C1105 H1109 0.930 . S
C1106 C1105 1.369 . S
C1106 C1115 1.429 . S
C1107 C1105 1.419 . S
C1107 C1108 1.363 . S
C1107 H1110 0.929 . S
C1108 C1107 1.363 . S
C1108 C1114 1.428 . S
H1109 C1105 0.930 . S
H1110 C1107 0.929 . S
S1111 N1112 1.613 . S
S1111 N1113 1.610 . S
N1112 S1111 1.613 . S
N1112 C1115 1.350 . S
N1113 S1111 1.610 . S
N1113 C1114 1.351 . S
C1114 C1108 1.428 . S
C1114 N1113 1.351 . S
C1114 C1115 1.434 . S
C1115 C1106 1.429 . S
C1115 N1112 1.350 . S
C1115 C1114 1.434 . S
C1116 C1117 1.369 . S
C1116 C1118 1.419 . S
C1116 H1120 0.930 . S
C1117 C1116 1.369 . S
C1117 C1126 1.429 . S
C1118 C1116 1.419 . S
C1118 C1119 1.363 . S
C1118 H1121 0.929 . S
C1119 C1118 1.363 . S
C1119 C1125 1.428 . S
H1120 C1116 0.930 . S
H1121 C1118 0.929 . S
S1122 N1123 1.613 . S
S1122 N1124 1.610 . S
N1123 S1122 1.613 . S
N1123 C1126 1.350 . S
N1124 S1122 1.610 . S
N1124 C1125 1.351 . S
C1125 C1119 1.428 . S
C1125 N1124 1.351 . S
C1125 C1126 1.434 . S
C1126 C1117 1.429 . S
C1126 N1123 1.350 . S
C1126 C1125 1.434 . S
C1127 C1128 1.369 . S
C1127 C1129 1.419 . S
C1127 H1131 0.930 . S
C1128 C1127 1.369 . S
C1128 C1137 1.429 . S
C1129 C1127 1.419 . S
C1129 C1130 1.363 . S
C1129 H1132 0.929 . S
C1130 C1129 1.363 . S
C1130 C1136 1.428 . S
H1131 C1127 0.930 . S
H1132 C1129 0.929 . S
S1133 N1134 1.613 . S
S1133 N1135 1.610 . S
N1134 S1133 1.613 . S
N1134 C1137 1.350 . S
N1135 S1133 1.610 . S
N1135 C1136 1.351 . S
C1136 C1130 1.428 . S
C1136 N1135 1.351 . S
C1136 C1137 1.434 . S
C1137 C1128 1.429 . S
C1137 N1134 1.350 . S
C1137 C1136 1.434 . S
C1138 C1139 1.369 . S
C1138 C1140 1.419 . S
C1138 H1142 0.930 . S
C1139 C1138 1.369 . S
C1139 C1148 1.429 . S
C1140 C1138 1.419 . S
C1140 C1141 1.363 . S
C1140 H1143 0.929 . S
C1141 C1140 1.363 . S
C1141 C1147 1.428 . S
H1142 C1138 0.930 . S
H1143 C1140 0.929 . S
S1144 N1145 1.613 . S
S1144 N1146 1.610 . S
N1145 S1144 1.613 . S
N1145 C1148 1.350 . S
N1146 S1144 1.610 . S
N1146 C1147 1.351 . S
C1147 C1141 1.428 . S
C1147 N1146 1.351 . S
C1147 C1148 1.434 . S
C1148 C1139 1.429 . S
C1148 N1145 1.350 . S
C1148 C1147 1.434 . S
C1149 C1150 1.369 . S
C1149 C1151 1.419 1_545 S
C1149 H1153 0.930 . S
C1150 C1149 1.369 . S
C1150 C1159 1.429 . S
C1151 C1149 1.419 1_565 S
C1151 C1152 1.363 . S
C1151 H1154 0.929 . S
C1152 C1151 1.363 . S
C1152 C1158 1.428 . S
H1153 C1149 0.930 . S
H1154 C1151 0.929 . S
S1155 N1156 1.613 . S
S1155 N1157 1.609 1_545 S
N1156 S1155 1.613 . S
N1156 C1159 1.350 . S
N1157 S1155 1.609 1_565 S
N1157 C1158 1.351 . S
C1158 C1152 1.428 . S
C1158 N1157 1.351 . S
C1158 C1159 1.434 1_565 S
C1159 C1150 1.429 . S
C1159 N1156 1.350 . S
C1159 C1158 1.434 1_545 S
C1160 C1161 1.369 . S
C1160 C1162 1.419 1_655 S
C1160 H1164 0.930 . S
C1161 C1160 1.369 . S
C1161 C1170 1.429 1_655 S
C1162 C1160 1.419 1_455 S
C1162 C1163 1.363 . S
C1162 H1165 0.929 . S
C1163 C1162 1.363 . S
C1163 C1169 1.428 . S
H1164 C1160 0.930 . S
H1165 C1162 0.929 . S
S1166 N1167 1.613 1_455 S
S1166 N1168 1.610 . S
N1167 S1166 1.613 1_655 S
N1167 C1170 1.350 1_655 S
N1168 S1166 1.610 . S
N1168 C1169 1.351 . S
C1169 C1163 1.428 . S
C1169 N1168 1.351 . S
C1169 C1170 1.434 . S
C1170 C1161 1.429 1_455 S
C1170 N1167 1.350 1_455 S
C1170 C1169 1.434 . S
C1171 C1172 1.369 . S
C1171 C1173 1.419 . S
C1171 H1175 0.930 . S
C1172 C1171 1.369 . S
C1172 C1181 1.429 . S
C1173 C1171 1.419 . S
C1173 C1174 1.363 . S
C1173 H1176 0.929 . S
C1174 C1173 1.363 . S
C1174 C1180 1.428 . S
H1175 C1171 0.930 . S
H1176 C1173 0.929 . S
S1177 N1178 1.613 . S
S1177 N1179 1.610 . S
N1178 S1177 1.613 . S
N1178 C1181 1.350 . S
N1179 S1177 1.610 . S
N1179 C1180 1.351 . S
C1180 C1174 1.428 . S
C1180 N1179 1.351 . S
C1180 C1181 1.434 . S
C1181 C1172 1.429 . S
C1181 N1178 1.350 . S
C1181 C1180 1.434 . S
C1182 C1183 1.369 . S
C1182 C1184 1.419 . S
C1182 H1186 0.930 . S
C1183 C1182 1.369 . S
C1183 C1192 1.429 . S
C1184 C1182 1.419 . S
C1184 C1185 1.363 . S
C1184 H1187 0.929 . S
C1185 C1184 1.363 . S
C1185 C1191 1.428 . S
H1186 C1182 0.930 . S
H1187 C1184 0.929 . S
S1188 N1189 1.613 . S
S1188 N1190 1.610 . S
N1189 S1188 1.613 . S
N1189 C1192 1.350 . S
N1190 S1188 1.610 . S
N1190 C1191 1.351 . S
C1191 C1185 1.428 . S
C1191 N1190 1.351 . S
C1191 C1192 1.434 . S
C1192 C1183 1.429 . S
C1192 N1189 1.350 . S
C1192 C1191 1.434 . S
C1193 C1194 1.369 . S
C1193 C1195 1.419 . S
C1193 H1197 0.930 . S
C1194 C1193 1.369 . S
C1194 C1203 1.429 . S
C1195 C1193 1.419 . S
C1195 C1196 1.363 . S
C1195 H1198 0.929 . S
C1196 C1195 1.363 . S
C1196 C1202 1.428 . S
H1197 C1193 0.930 . S
H1198 C1195 0.929 . S
S1199 N1200 1.613 . S
S1199 N1201 1.610 . S
N1200 S1199 1.613 . S
N1200 C1203 1.350 . S
N1201 S1199 1.610 . S
N1201 C1202 1.351 . S
C1202 C1196 1.428 . S
C1202 N1201 1.351 . S
C1202 C1203 1.434 . S
C1203 C1194 1.429 . S
C1203 N1200 1.350 . S
C1203 C1202 1.434 . S
C1204 C1205 1.369 . S
C1204 C1206 1.419 . S
C1204 H1208 0.930 . S
C1205 C1204 1.369 . S
C1205 C1214 1.429 . S
C1206 C1204 1.419 . S
C1206 C1207 1.363 . S
C1206 H1209 0.929 . S
C1207 C1206 1.363 . S
C1207 C1213 1.428 . S
H1208 C1204 0.930 . S
H1209 C1206 0.929 . S
S1210 N1211 1.613 . S
S1210 N1212 1.610 . S
N1211 S1210 1.613 . S
N1211 C1214 1.350 . S
N1212 S1210 1.610 . S
N1212 C1213 1.351 . S
C1213 C1207 1.428 . S
C1213 N1212 1.351 . S
C1213 C1214 1.434 . S
C1214 C1205 1.429 . S
C1214 N1211 1.350 . S
C1214 C1213 1.434 . S
C1215 C1216 1.369 . S
C1215 C1217 1.419 1_565 S
C1215 H1219 0.930 . S
C1216 C1215 1.369 . S
C1216 C1225 1.429 . S
C1217 C1215 1.419 1_545 S
C1217 C1218 1.363 . S
C1217 H1220 0.929 . S
C1218 C1217 1.363 . S
C1218 C1224 1.428 . S
H1219 C1215 0.930 . S
H1220 C1217 0.929 . S
S1221 N1222 1.613 1_545 S
S1221 N1223 1.610 . S
N1222 S1221 1.613 1_565 S
N1222 C1225 1.350 . S
N1223 S1221 1.610 . S
N1223 C1224 1.351 . S
C1224 C1218 1.428 . S
C1224 N1223 1.351 . S
C1224 C1225 1.434 1_545 S
C1225 C1216 1.429 . S
C1225 N1222 1.350 . S
C1225 C1224 1.434 1_565 S
C1226 C1227 1.369 1_655 S
C1226 C1228 1.419 . S
C1226 H1230 0.930 . S
C1227 C1226 1.369 1_455 S
C1227 C1236 1.429 . S
C1228 C1226 1.419 . S
C1228 C1229 1.363 . S
C1228 H1231 0.929 . S
C1229 C1228 1.363 . S
C1229 C1235 1.428 . S
H1230 C1226 0.930 . S
H1231 C1228 0.929 . S
S1232 N1233 1.613 . S
S1232 N1234 1.610 1_455 S
N1233 S1232 1.613 . S
N1233 C1236 1.350 . S
N1234 S1232 1.610 1_655 S
N1234 C1235 1.351 . S
C1235 C1229 1.428 . S
C1235 N1234 1.351 . S
C1235 C1236 1.434 1_655 S
C1236 C1227 1.429 . S
C1236 N1233 1.350 . S
C1236 C1235 1.434 1_455 S
C1237 C1238 1.369 . S
C1237 C1239 1.419 . S
C1237 H1241 0.930 . S
C1238 C1237 1.369 . S
C1238 C1247 1.429 . S
C1239 C1237 1.419 . S
C1239 C1240 1.363 . S
C1239 H1242 0.929 . S
C1240 C1239 1.363 . S
C1240 C1246 1.428 . S
H1241 C1237 0.930 . S
H1242 C1239 0.929 . S
S1243 N1244 1.613 . S
S1243 N1245 1.610 . S
N1244 S1243 1.613 . S
N1244 C1247 1.350 . S
N1245 S1243 1.610 . S
N1245 C1246 1.351 . S
C1246 C1240 1.428 . S
C1246 N1245 1.351 . S
C1246 C1247 1.434 . S
C1247 C1238 1.429 . S
C1247 N1244 1.350 . S
C1247 C1246 1.434 . S
C1248 C1249 1.369 . S
C1248 C1250 1.419 1_455 S
C1248 H1252 0.930 . S
C1249 C1248 1.369 . S
C1249 C1258 1.429 1_455 S
C1250 C1248 1.419 1_655 S
C1250 C1251 1.363 . S
C1250 H1253 0.929 . S
C1251 C1250 1.363 . S
C1251 C1257 1.428 . S
H1252 C1248 0.930 . S
H1253 C1250 0.929 . S
S1254 N1255 1.613 . S
S1254 N1256 1.610 . S
N1255 S1254 1.613 . S
N1255 C1258 1.350 . S
N1256 S1254 1.610 . S
N1256 C1257 1.351 . S
C1257 C1251 1.428 . S
C1257 N1256 1.351 . S
C1257 C1258 1.434 . S
C1258 C1249 1.429 1_655 S
C1258 N1255 1.350 . S
C1258 C1257 1.434 . S
C1259 C1260 1.369 . S
C1259 C1261 1.419 . S
C1259 H1263 0.930 . S
C1260 C1259 1.369 . S
C1260 C1269 1.429 . S
C1261 C1259 1.419 . S
C1261 C1262 1.363 . S
C1261 H1264 0.929 . S
C1262 C1261 1.363 . S
C1262 C1268 1.428 . S
H1263 C1259 0.930 . S
H1264 C1261 0.929 . S
S1265 N1266 1.613 . S
S1265 N1267 1.610 . S
N1266 S1265 1.613 . S
N1266 C1269 1.350 . S
N1267 S1265 1.610 . S
N1267 C1268 1.351 . S
C1268 C1262 1.428 . S
C1268 N1267 1.351 . S
C1268 C1269 1.434 . S
C1269 C1260 1.429 . S
C1269 N1266 1.350 . S
C1269 C1268 1.434 . S
C1270 C1271 1.369 . S
C1270 C1272 1.419 1_565 S
C1270 H1274 0.930 . S
C1271 C1270 1.369 . S
C1271 C1280 1.429 . S
C1272 C1270 1.419 1_545 S
C1272 C1273 1.363 . S
C1272 H1275 0.929 . S
C1273 C1272 1.363 . S
C1273 C1279 1.428 . S
H1274 C1270 0.930 . S
H1275 C1272 0.929 . S
S1276 N1277 1.613 1_545 S
S1276 N1278 1.610 . S
N1277 S1276 1.613 1_565 S
N1277 C1280 1.350 . S
N1278 S1276 1.610 . S
N1278 C1279 1.351 . S
C1279 C1273 1.428 . S
C1279 N1278 1.351 . S
C1279 C1280 1.434 1_545 S
C1280 C1271 1.429 . S
C1280 N1277 1.350 . S
C1280 C1279 1.434 1_565 S
C1281 C1282 1.369 . S
C1281 C1283 1.419 . S
C1281 H1285 0.930 . S
C1282 C1281 1.369 . S
C1282 C1291 1.429 . S
C1283 C1281 1.419 . S
C1283 C1284 1.363 . S
C1283 H1286 0.929 . S
C1284 C1283 1.363 . S
C1284 C1290 1.428 . S
H1285 C1281 0.930 . S
H1286 C1283 0.929 . S
S1287 N1288 1.613 . S
S1287 N1289 1.610 . S
N1288 S1287 1.613 . S
N1288 C1291 1.350 . S
N1289 S1287 1.610 . S
N1289 C1290 1.351 . S
C1290 C1284 1.428 . S
C1290 N1289 1.351 . S
C1290 C1291 1.434 . S
C1291 C1282 1.429 . S
C1291 N1288 1.350 . S
C1291 C1290 1.434 . S
C1292 C1293 1.369 . S
C1292 C1294 1.419 . S
C1292 H1296 0.930 . S
C1293 C1292 1.369 . S
C1293 C1302 1.429 . S
C1294 C1292 1.419 . S
C1294 C1295 1.363 . S
C1294 H1297 0.929 . S
C1295 C1294 1.363 . S
C1295 C1301 1.428 . S
H1296 C1292 0.930 . S
H1297 C1294 0.929 . S
S1298 N1299 1.613 . S
S1298 N1300 1.610 . S
N1299 S1298 1.613 . S
N1299 C1302 1.350 . S
N1300 S1298 1.610 . S
N1300 C1301 1.351 . S
C1301 C1295 1.428 . S
C1301 N1300 1.351 . S
C1301 C1302 1.434 . S
C1302 C1293 1.429 . S
C1302 N1299 1.350 . S
C1302 C1301 1.434 . S
C1303 C1304 1.369 . S
C1303 C1305 1.419 . S
C1303 H1307 0.930 . S
C1304 C1303 1.369 . S
C1304 C1313 1.429 . S
C1305 C1303 1.419 . S
C1305 C1306 1.363 . S
C1305 H1308 0.929 . S
C1306 C1305 1.363 . S
C1306 C1312 1.428 . S
H1307 C1303 0.930 . S
H1308 C1305 0.929 . S
S1309 N1310 1.613 . S
S1309 N1311 1.610 . S
N1310 S1309 1.613 . S
N1310 C1313 1.350 . S
N1311 S1309 1.610 . S
N1311 C1312 1.351 . S
C1312 C1306 1.428 . S
C1312 N1311 1.351 . S
C1312 C1313 1.434 . S
C1313 C1304 1.429 . S
C1313 N1310 1.350 . S
C1313 C1312 1.434 . S
C1314 C1315 1.369 . S
C1314 C1316 1.419 . S
C1314 H1318 0.930 . S
C1315 C1314 1.369 . S
C1315 C1324 1.429 . S
C1316 C1314 1.419 . S
C1316 C1317 1.363 . S
C1316 H1319 0.929 . S
C1317 C1316 1.363 . S
C1317 C1323 1.428 . S
H1318 C1314 0.930 . S
H1319 C1316 0.929 . S
S1320 N1321 1.613 . S
S1320 N1322 1.610 . S
N1321 S1320 1.613 . S
N1321 C1324 1.350 . S
N1322 S1320 1.610 . S
N1322 C1323 1.351 . S
C1323 C1317 1.428 . S
C1323 N1322 1.351 . S
C1323 C1324 1.434 . S
C1324 C1315 1.429 . S
C1324 N1321 1.350 . S
C1324 C1323 1.434 . S
C1325 C1326 1.369 . S
C1325 C1327 1.419 . S
C1325 H1329 0.930 . S
C1326 C1325 1.369 . S
C1326 C1335 1.429 . S
C1327 C1325 1.419 . S
C1327 C1328 1.363 . S
C1327 H1330 0.929 1_455 S
C1328 C1327 1.363 . S
C1328 C1334 1.428 . S
H1329 C1325 0.930 . S
H1330 C1327 0.929 1_655 S
S1331 N1332 1.613 . S
S1331 N1333 1.610 . S
N1332 S1331 1.613 . S
N1332 C1335 1.350 . S
N1333 S1331 1.610 . S
N1333 C1334 1.351 . S
C1334 C1328 1.428 . S
C1334 N1333 1.351 . S
C1334 C1335 1.434 . S
C1335 C1326 1.429 . S
C1335 N1332 1.350 . S
C1335 C1334 1.434 . S
C1336 C1337 1.369 . S
C1336 C1338 1.419 . S
C1336 H1340 0.930 . S
C1337 C1336 1.369 . S
C1337 C1346 1.429 . S
C1338 C1336 1.419 . S
C1338 C1339 1.363 . S
C1338 H1341 0.929 . S
C1339 C1338 1.363 . S
C1339 C1345 1.428 . S
H1340 C1336 0.930 . S
H1341 C1338 0.929 . S
S1342 N1343 1.613 . S
S1342 N1344 1.610 . S
N1343 S1342 1.613 . S
N1343 C1346 1.350 . S
N1344 S1342 1.610 . S
N1344 C1345 1.351 . S
C1345 C1339 1.428 . S
C1345 N1344 1.351 . S
C1345 C1346 1.434 . S
C1346 C1337 1.429 . S
C1346 N1343 1.350 . S
C1346 C1345 1.434 . S
C1347 C1348 1.369 . S
C1347 C1349 1.419 . S
C1347 H1351 0.930 . S
C1348 C1347 1.369 . S
C1348 C1357 1.429 . S
C1349 C1347 1.419 . S
C1349 C1350 1.363 . S
C1349 H1352 0.929 . S
C1350 C1349 1.363 . S
C1350 C1356 1.428 . S
H1351 C1347 0.930 . S
H1352 C1349 0.929 . S
S1353 N1354 1.613 . S
S1353 N1355 1.610 . S
N1354 S1353 1.613 . S
N1354 C1357 1.350 . S
N1355 S1353 1.610 . S
N1355 C1356 1.351 . S
C1356 C1350 1.428 . S
C1356 N1355 1.351 . S
C1356 C1357 1.434 . S
C1357 C1348 1.429 . S
C1357 N1354 1.350 . S
C1357 C1356 1.434 . S
C1358 C1359 1.369 . S
C1358 C1360 1.419 . S
C1358 H1362 0.930 . S
C1359 C1358 1.369 . S
C1359 C1368 1.429 . S
C1360 C1358 1.419 . S
C1360 C1361 1.363 . S
C1360 H1363 0.929 . S
C1361 C1360 1.363 . S
C1361 C1367 1.428 . S
H1362 C1358 0.930 . S
H1363 C1360 0.929 . S
S1364 N1365 1.613 . S
S1364 N1366 1.610 . S
N1365 S1364 1.613 . S
N1365 C1368 1.350 . S
N1366 S1364 1.610 . S
N1366 C1367 1.351 . S
C1367 C1361 1.428 . S
C1367 N1366 1.351 . S
C1367 C1368 1.434 . S
C1368 C1359 1.429 . S
C1368 N1365 1.350 . S
C1368 C1367 1.434 . S
C1369 C1370 1.369 . S
C1369 C1371 1.419 . S
C1369 H1373 0.930 . S
C1370 C1369 1.369 . S
C1370 C1379 1.429 . S
C1371 C1369 1.419 . S
C1371 C1372 1.363 . S
C1371 H1374 0.929 . S
C1372 C1371 1.363 . S
C1372 C1378 1.428 . S
H1373 C1369 0.930 . S
H1374 C1371 0.929 . S
S1375 N1376 1.613 . S
S1375 N1377 1.610 . S
N1376 S1375 1.613 . S
N1376 C1379 1.350 . S
N1377 S1375 1.610 . S
N1377 C1378 1.351 . S
C1378 C1372 1.428 . S
C1378 N1377 1.351 . S
C1378 C1379 1.434 . S
C1379 C1370 1.429 . S
C1379 N1376 1.350 . S
C1379 C1378 1.434 . S
C1380 C1381 1.369 . S
C1380 C1382 1.419 . S
C1380 H1384 0.930 . S
C1381 C1380 1.369 . S
C1381 C1390 1.429 . S
C1382 C1380 1.419 . S
C1382 C1383 1.363 . S
C1382 H1385 0.929 . S
C1383 C1382 1.363 . S
C1383 C1389 1.428 . S
H1384 C1380 0.930 . S
H1385 C1382 0.929 . S
S1386 N1387 1.613 . S
S1386 N1388 1.610 . S
N1387 S1386 1.613 . S
N1387 C1390 1.350 . S
N1388 S1386 1.610 . S
N1388 C1389 1.351 . S
C1389 C1383 1.428 . S
C1389 N1388 1.351 . S
C1389 C1390 1.434 . S
C1390 C1381 1.429 . S
C1390 N1387 1.350 . S
C1390 C1389 1.434 . S
C1391 C1392 1.369 . S
C1391 C1393 1.419 . S
C1391 H1395 0.930 . S
C1392 C1391 1.369 . S
C1392 C1401 1.429 . S
C1393 C1391 1.419 . S
C1393 C1394 1.363 . S
C1393 H1396 0.929 . S
C1394 C1393 1.363 . S
C1394 C1400 1.428 . S
H1395 C1391 0.930 . S
H1396 C1393 0.929 . S
S1397 N1398 1.613 . S
S1397 N1399 1.610 . S
N1398 S1397 1.613 . S
N1398 C1401 1.350 . S
N1399 S1397 1.610 . S
N1399 C1400 1.351 . S
C1400 C1394 1.428 . S
C1400 N1399 1.351 . S
C1400 C1401 1.434 . S
C1401 C1392 1.429 . S
C1401 N1398 1.350 . S
C1401 C1400 1.434 . S
C1402 C1403 1.369 . S
C1402 C1404 1.419 . S
C1402 H1406 0.930 . S
C1403 C1402 1.369 . S
C1403 C1412 1.429 . S
C1404 C1402 1.419 . S
C1404 C1405 1.363 . S
C1404 H1407 0.929 . S
C1405 C1404 1.363 . S
C1405 C1411 1.428 . S
H1406 C1402 0.930 . S
H1407 C1404 0.929 . S
S1408 N1409 1.613 . S
S1408 N1410 1.610 . S
N1409 S1408 1.613 . S
N1409 C1412 1.350 . S
N1410 S1408 1.610 . S
N1410 C1411 1.351 . S
C1411 C1405 1.428 . S
C1411 N1410 1.351 . S
C1411 C1412 1.434 . S
C1412 C1403 1.429 . S
C1412 N1409 1.350 . S
C1412 C1411 1.434 . S
C1413 C1414 1.369 . S
C1413 C1415 1.419 . S
C1413 H1417 0.930 . S
C1414 C1413 1.369 . S
C1414 C1423 1.429 . S
C1415 C1413 1.419 . S
C1415 C1416 1.363 . S
C1415 H1418 0.929 . S
C1416 C1415 1.363 . S
C1416 C1422 1.428 . S
H1417 C1413 0.930 . S
H1418 C1415 0.929 . S
S1419 N1420 1.613 . S
S1419 N1421 1.610 . S
N1420 S1419 1.613 . S
N1420 C1423 1.350 . S
N1421 S1419 1.610 . S
N1421 C1422 1.351 . S
C1422 C1416 1.428 . S
C1422 N1421 1.351 . S
C1422 C1423 1.434 . S
C1423 C1414 1.429 . S
C1423 N1420 1.350 . S
C1423 C1422 1.434 . S
C1424 C1425 1.369 . S
C1424 C1426 1.419 . S
C1424 H1428 0.930 . S
C1425 C1424 1.369 . S
C1425 C1434 1.429 . S
C1426 C1424 1.419 . S
C1426 C1427 1.363 . S
C1426 H1429 0.929 . S
C1427 C1426 1.363 . S
C1427 C1433 1.428 . S
H1428 C1424 0.930 . S
H1429 C1426 0.929 . S
S1430 N1431 1.613 . S
S1430 N1432 1.610 . S
N1431 S1430 1.613 . S
N1431 C1434 1.350 . S
N1432 S1430 1.610 . S
N1432 C1433 1.351 . S
C1433 C1427 1.428 . S
C1433 N1432 1.351 . S
C1433 C1434 1.434 . S
C1434 C1425 1.429 . S
C1434 N1431 1.350 . S
C1434 C1433 1.434 . S
C1435 C1436 1.369 . S
C1435 C1437 1.419 . S
C1435 H1439 0.930 . S
C1436 C1435 1.369 . S
C1436 C1445 1.429 . S
C1437 C1435 1.419 . S
C1437 C1438 1.363 . S
C1437 H1440 0.929 . S
C1438 C1437 1.363 . S
C1438 C1444 1.428 . S
H1439 C1435 0.930 . S
H1440 C1437 0.929 . S
S1441 N1442 1.613 . S
S1441 N1443 1.610 . S
N1442 S1441 1.613 . S
N1442 C1445 1.350 . S
N1443 S1441 1.610 . S
N1443 C1444 1.351 . S
C1444 C1438 1.428 . S
C1444 N1443 1.351 . S
C1444 C1445 1.434 . S
C1445 C1436 1.429 . S
C1445 N1442 1.350 . S
C1445 C1444 1.434 . S
C1446 C1447 1.369 . S
C1446 C1448 1.419 . S
C1446 H1450 0.930 . S
C1447 C1446 1.369 . S
C1447 C1456 1.429 . S
C1448 C1446 1.419 . S
C1448 C1449 1.363 . S
C1448 H1451 0.929 . S
C1449 C1448 1.363 . S
C1449 C1455 1.428 . S
H1450 C1446 0.930 . S
H1451 C1448 0.929 . S
S1452 N1453 1.613 . S
S1452 N1454 1.610 . S
N1453 S1452 1.613 . S
N1453 C1456 1.350 . S
N1454 S1452 1.610 . S
N1454 C1455 1.351 . S
C1455 C1449 1.428 . S
C1455 N1454 1.351 . S
C1455 C1456 1.434 . S
C1456 C1447 1.429 . S
C1456 N1453 1.350 . S
C1456 C1455 1.434 . S
C1457 C1458 1.369 . S
C1457 C1459 1.419 . S
C1457 H1461 0.930 . S
C1458 C1457 1.369 . S
C1458 C1467 1.429 . S
C1459 C1457 1.419 . S
C1459 C1460 1.363 . S
C1459 H1462 0.929 . S
C1460 C1459 1.363 . S
C1460 C1466 1.428 . S
H1461 C1457 0.930 . S
H1462 C1459 0.929 . S
S1463 N1464 1.613 . S
S1463 N1465 1.610 . S
N1464 S1463 1.613 . S
N1464 C1467 1.350 . S
N1465 S1463 1.610 . S
N1465 C1466 1.351 . S
C1466 C1460 1.428 . S
C1466 N1465 1.351 . S
C1466 C1467 1.434 . S
C1467 C1458 1.429 . S
C1467 N1464 1.350 . S
C1467 C1466 1.434 . S
C1468 C1469 1.369 . S
C1468 C1470 1.419 . S
C1468 H1472 0.930 . S
C1469 C1468 1.369 . S
C1469 C1478 1.429 . S
C1470 C1468 1.419 . S
C1470 C1471 1.363 . S
C1470 H1473 0.929 . S
C1471 C1470 1.363 . S
C1471 C1477 1.428 . S
H1472 C1468 0.930 . S
H1473 C1470 0.929 . S
S1474 N1475 1.613 . S
S1474 N1476 1.610 . S
N1475 S1474 1.613 . S
N1475 C1478 1.350 . S
N1476 S1474 1.610 . S
N1476 C1477 1.351 . S
C1477 C1471 1.428 . S
C1477 N1476 1.351 . S
C1477 C1478 1.434 . S
C1478 C1469 1.429 . S
C1478 N1475 1.350 . S
C1478 C1477 1.434 . S
C1479 C1480 1.369 . S
C1479 C1481 1.419 . S
C1479 H1483 0.930 . S
C1480 C1479 1.369 . S
C1480 C1489 1.429 . S
C1481 C1479 1.419 . S
C1481 C1482 1.363 . S
C1481 H1484 0.929 . S
C1482 C1481 1.363 . S
C1482 C1488 1.428 . S
H1483 C1479 0.930 . S
H1484 C1481 0.929 . S
S1485 N1486 1.613 . S
S1485 N1487 1.610 . S
N1486 S1485 1.613 . S
N1486 C1489 1.350 . S
N1487 S1485 1.610 . S
N1487 C1488 1.351 . S
C1488 C1482 1.428 . S
C1488 N1487 1.351 . S
C1488 C1489 1.434 . S
C1489 C1480 1.429 . S
C1489 N1486 1.350 . S
C1489 C1488 1.434 . S
C1490 C1491 1.369 . S
C1490 C1492 1.419 . S
C1490 H1494 0.930 . S
C1491 C1490 1.369 . S
C1491 C1500 1.429 . S
C1492 C1490 1.419 . S
C1492 C1493 1.363 . S
C1492 H1495 0.929 . S
C1493 C1492 1.363 . S
C1493 C1499 1.428 . S
H1494 C1490 0.930 . S
H1495 C1492 0.929 . S
S1496 N1497 1.613 . S
S1496 N1498 1.610 . S
N1497 S1496 1.613 . S
N1497 C1500 1.350 . S
N1498 S1496 1.610 . S
N1498 C1499 1.351 . S
C1499 C1493 1.428 . S
C1499 N1498 1.351 . S
C1499 C1500 1.434 . S
C1500 C1491 1.429 . S
C1500 N1497 1.350 . S
C1500 C1499 1.434 . S
C1501 C1502 1.369 . S
C1501 C1503 1.419 . S
C1501 H1505 0.930 . S
C1502 C1501 1.369 . S
C1502 C1511 1.429 . S
C1503 C1501 1.419 . S
C1503 C1504 1.363 . S
C1503 H1506 0.929 . S
C1504 C1503 1.363 . S
C1504 C1510 1.428 . S
H1505 C1501 0.930 . S
H1506 C1503 0.929 . S
S1507 N1508 1.613 . S
S1507 N1509 1.610 . S
N1508 S1507 1.613 . S
N1508 C1511 1.350 . S
N1509 S1507 1.610 . S
N1509 C1510 1.351 . S
C1510 C1504 1.428 . S
C1510 N1509 1.351 . S
C1510 C1511 1.434 . S
C1511 C1502 1.429 . S
C1511 N1508 1.350 . S
C1511 C1510 1.434 . S
C919 C124 1.463 . S
C921 C229 1.384 . S
C930 C130 1.500 . S
C932 C313 1.434 . S
C941 C115 1.488 . S
C943 C393 1.440 . S
C952 C106 1.465 . S
C954 C309 1.423 . S
C965 C397 1.385 . S
C963 C85 1.456 . S
C974 C97 1.434 . S
C976 C225 1.393 . S
C987 C218 1.405 . S
C985 C103 1.481 . S
C998 C302 1.405 . S
C996 C88 1.479 . S
C1007 C94 1.485 . S
C1009 C404 1.439 . S
C1018 C121 1.460 . S
C1020 C320 1.425 . S
C1029 C133 1.436 . S
C1031 C386 1.366 . S
C1042 C236 1.409 . S
C1040 C112 1.454 . S
C1053 C481 1.380 . S
C1051 C16 1.462 . S
C1062 C22 1.501 . S
C1064 C565 1.425 . S
C1073 C7 1.487 . S
C1075 C645 1.442 . S
C1084 C160 1.465 . S
C1086 C561 1.423 . S
C1095 C139 1.458 . S
C1097 C649 1.377 . S
C1106 C151 1.436 . S
C1108 C477 1.390 . S
C1117 C157 1.481 . S
C1119 C470 1.405 . S
C1128 C142 1.480 . S
C1130 C554 1.413 . S
C1141 C656 1.444 . S
C1139 C148 1.483 . S
C1150 C13 1.462 . S
C1152 C572 1.421 . S
C1163 C638 1.357 . S
C1161 C25 1.435 . S
C1172 C4 1.452 . S
C1174 C488 1.413 . S
C1185 C733 1.383 . S
C1183 C70 1.462 . S
C1194 C76 1.500 . S
C1196 C817 1.433 . S
C1207 C897 1.445 . S
C1205 C61 1.485 . S
C1218 C813 1.424 . S
C1216 C52 1.463 . S
C1229 C901 1.384 . S
C1227 C31 1.458 . S
C1238 C43 1.432 . S
C1240 C729 1.395 . S
C1249 C49 1.479 . S
C1251 C722 1.399 . S
C1260 C34 1.478 . S
C1262 C806 1.406 . S
C1273 C908 1.444 . S
C1271 C40 1.482 . S
C1282 C67 1.460 . S
C1284 C824 1.426 . S
C1293 C79 1.436 . S
C1295 C890 1.358 . S
C1304 C58 1.455 . S
C1306 C740 1.409 . S
C1315 C140 1.507 . S
C1317 C232 1.405 . S
C1328 C316 1.388 . S
C1326 C149 1.515 . S
C1337 C158 1.516 . S
C1339 C388 1.392 . S
C1348 C59 1.529 . S
C1350 C304 1.399 . S
C1359 C68 1.505 . S
C1361 C400 1.390 . S
C1372 C220 1.402 . S
C1370 C77 1.506 . S
C1381 C32 1.508 . S
C1383 C484 1.410 . S
C1392 C41 1.515 . S
C1394 C568 1.380 . S
C1403 C50 1.517 . S
C1405 C640 1.398 . S
C1414 C113 1.528 . S
C1416 C556 1.392 . S
C1427 C652 1.381 . S
C1425 C122 1.504 . S
C1436 C131 1.507 . S
C1438 C472 1.406 . S
C1447 C86 1.507 . S
C1449 C736 1.409 . S
C1458 C95 1.515 . S
C1460 C820 1.379 . S
C1471 C892 1.398 . S
C1469 C104 1.517 . S
C1480 C5 1.528 . S
C1482 C808 1.390 . S
C1491 C14 1.504 . S
C1493 C904 1.381 . S
C1502 C23 1.508 . S
C1504 C724 1.406 . S
