# Generated by pormake.
# Topology ssa, (4,4)-cn, num edge types: 1
# Building blocks:
#     Node 0, Type 0, BuildingBlock: KOZSID_clean_sbu_0, # of connection points: 4
#     Node 1, Type 0, BuildingBlock: KOZSID_clean_sbu_0, # of connection points: 4
#     Node 2, Type 0, BuildingBlock: KOZSID_clean_sbu_0, # of connection points: 4
#     Node 3, Type 0, BuildingBlock: KOZSID_clean_sbu_0, # of connection points: 4
#     Node 4, Type 0, BuildingBlock: KOZSID_clean_sbu_0, # of connection points: 4
#     Node 5, Type 0, BuildingBlock: KOZSID_clean_sbu_0, # of connection points: 4
#     Node 6, Type 1, BuildingBlock: AZAVOO_clean_linker_0, # of connection points: 4
#     Node 7, Type 1, BuildingBlock: AZAVOO_clean_linker_0, # of connection points: 4
#     Node 8, Type 1, BuildingBlock: AZAVOO_clean_linker_0, # of connection points: 4
#     Node 9, Type 1, BuildingBlock: AZAVOO_clean_linker_0, # of connection points: 4
#     Node 10, Type 1, BuildingBlock: AZAVOO_clean_linker_0, # of connection points: 4
#     Node 11, Type 1, BuildingBlock: AZAVOO_clean_linker_0, # of connection points: 4
#     Edge 12, Type (0, 1), BuildingBlock: TEMPAE_clean_linker_10, # of connection points: 2
#     Edge 13, Type (0, 1), BuildingBlock: TEMPAE_clean_linker_10, # of connection points: 2
#     Edge 14, Type (0, 1), BuildingBlock: TEMPAE_clean_linker_10, # of connection points: 2
#     Edge 15, Type (0, 1), BuildingBlock: TEMPAE_clean_linker_10, # of connection points: 2
#     Edge 16, Type (0, 1), BuildingBlock: TEMPAE_clean_linker_10, # of connection points: 2
#     Edge 17, Type (0, 1), BuildingBlock: TEMPAE_clean_linker_10, # of connection points: 2
#     Edge 18, Type (0, 1), BuildingBlock: TEMPAE_clean_linker_10, # of connection points: 2
#     Edge 19, Type (0, 1), BuildingBlock: TEMPAE_clean_linker_10, # of connection points: 2
#     Edge 20, Type (0, 1), BuildingBlock: TEMPAE_clean_linker_10, # of connection points: 2
#     Edge 21, Type (0, 1), BuildingBlock: TEMPAE_clean_linker_10, # of connection points: 2
#     Edge 22, Type (0, 1), BuildingBlock: TEMPAE_clean_linker_10, # of connection points: 2
#     Edge 23, Type (0, 1), BuildingBlock: TEMPAE_clean_linker_10, # of connection points: 2
#     Edge 24, Type (0, 1), BuildingBlock: TEMPAE_clean_linker_10, # of connection points: 2
#     Edge 25, Type (0, 1), BuildingBlock: TEMPAE_clean_linker_10, # of connection points: 2
#     Edge 26, Type (0, 1), BuildingBlock: TEMPAE_clean_linker_10, # of connection points: 2
#     Edge 27, Type (0, 1), BuildingBlock: TEMPAE_clean_linker_10, # of connection points: 2
#     Edge 28, Type (0, 1), BuildingBlock: TEMPAE_clean_linker_10, # of connection points: 2
#     Edge 29, Type (0, 1), BuildingBlock: TEMPAE_clean_linker_10, # of connection points: 2
#     Edge 30, Type (0, 1), BuildingBlock: TEMPAE_clean_linker_10, # of connection points: 2
#     Edge 31, Type (0, 1), BuildingBlock: TEMPAE_clean_linker_10, # of connection points: 2
#     Edge 32, Type (0, 1), BuildingBlock: TEMPAE_clean_linker_10, # of connection points: 2
#     Edge 33, Type (0, 1), BuildingBlock: TEMPAE_clean_linker_10, # of connection points: 2
#     Edge 34, Type (0, 1), BuildingBlock: TEMPAE_clean_linker_10, # of connection points: 2
#     Edge 35, Type (0, 1), BuildingBlock: TEMPAE_clean_linker_10, # of connection points: 2
# Relax obj value: 0.069
# Max RMSD: 0.232
# Mean RMSD: 0.120
data_MOF--net-ssa--node1-KOZSID_clean_sbu_0--node2-AZAVOO_clean_linker_0--edge1-TEMPAE_clean_linker_10
_symmetry_space_group_name_H-M    P1
_symmetry_Int_Tables_number       1
_symmetry_cell_setting            triclinic
loop_
_symmetry_equiv_pos_as_xyz
'x, y, z'
_cell_length_a     54.093214
_cell_length_b     55.637452
_cell_length_c     52.27348
_cell_angle_alpha  87.496618
_cell_angle_beta   92.651295
_cell_angle_gamma 122.42641
loop_
_atom_site_label
_atom_site_type_symbol
_atom_site_fract_x
_atom_site_fract_y
_atom_site_fract_z
_atom_type_partial_charge
C0 C 0.09525 0.56395 0.00823 0.0
C1 C 0.06595 0.55038 0.01457 0.0
C2 C 0.05841 0.52477 0.02594 0.0
C3 C 0.08338 0.52407 0.026 0.0
N4 N 0.10626 0.54784 0.01566 0.0
Co5 Co 0.146 0.55517 0.01153 0.0
N6 N 0.13887 0.52517 0.03734 0.0
C7 C 0.1126 0.50349 0.04505 0.0
C8 C 0.11477 0.48598 0.06311 0.0
C9 C 0.14426 0.49738 0.06687 0.0
C10 C 0.1584 0.52131 0.05084 0.0
N11 N 0.18563 0.56221 0.00751 0.0
C12 C 0.20123 0.55519 0.0236 0.0
C13 C 0.22837 0.56439 0.01374 0.0
C14 C 0.22954 0.57746 0.99051 0.0
C15 C 0.20318 0.57557 0.98756 0.0
N16 N 0.15307 0.58506 0.98552 0.0
C17 C 0.17414 0.59629 0.96795 0.0
C18 C 0.17335 0.6162 0.95208 0.0
C19 C 0.15014 0.61729 0.95997 0.0
C20 C 0.13798 0.59785 0.98027 0.0
N21 N 0.16128 0.58332 0.03838 0.0
C22 C 0.18322 0.6236 0.07702 0.0
C23 C 0.19811 0.62946 0.0541 0.0
C24 C 0.18677 0.60909 0.03505 0.0
C25 C 0.15704 0.5971 0.08009 0.0
C26 C 0.14652 0.5773 0.06061 0.0
N27 N 0.13063 0.52697 0.98461 0.0
C28 C 0.09841 0.50534 0.94811 0.0
C29 C 0.10562 0.48464 0.94769 0.0
C30 C 0.1263 0.4861 0.96581 0.0
C31 C 0.13851 0.50739 0.9841 0.0
C32 C 0.11121 0.52629 0.96654 0.0
H33 H 0.15396 0.5077 0.9981 0.0
H34 H 0.10477 0.54154 0.96647 0.0
H35 H 0.19872 0.61415 0.01765 0.0
H36 H 0.12638 0.55709 0.06354 0.0
C37 C 0.08724 0.50355 0.03864 0.0
C38 C 0.11047 0.59001 0.9922 0.0
C39 C 0.19013 0.53876 0.04757 0.0
C40 C 0.1964 0.59049 0.96926 0.0
H41 H 0.0513 0.55785 0.01076 0.0
H42 H 0.03742 0.50886 0.03371 0.0
H43 H 0.09715 0.46786 0.07317 0.0
H44 H 0.1542 0.48903 0.07986 0.0
H45 H 0.24551 0.56201 0.02243 0.0
H46 H 0.24797 0.58824 0.97792 0.0
H47 H 0.18825 0.6289 0.93698 0.0
H48 H 0.14268 0.63048 0.95147 0.0
H49 H 0.2186 0.64949 0.05099 0.0
H50 H 0.14455 0.59175 0.09731 0.0
H51 H 0.08216 0.50487 0.93487 0.0
H52 H 0.13281 0.47077 0.96607 0.0
C53 C 0.61459 0.01881 0.59738 0.0
C54 C 0.61665 0.00389 0.61849 0.0
C55 C 0.59585 0.97565 0.6147 0.0
C56 C 0.58233 0.97493 0.59159 0.0
N57 N 0.59331 0.00097 0.58073 0.0
Co58 Co 0.58053 0.00979 0.54746 0.0
N59 N 0.54261 0.97265 0.54791 0.0
C60 C 0.53643 0.9497 0.56264 0.0
C61 C 0.50801 0.92734 0.55939 0.0
C62 C 0.49571 0.93671 0.54129 0.0
C63 C 0.51752 0.96428 0.5342 0.0
N64 N 0.5681 0.0186 0.51402 0.0
C65 C 0.5412 0.00597 0.50255 0.0
C66 C 0.54267 0.01795 0.4783 0.0
C67 C 0.57147 0.03868 0.47462 0.0
C68 C 0.58601 0.03819 0.49663 0.0
N69 N 0.61839 0.0469 0.54705 0.0
C70 C 0.63106 0.06374 0.52636 0.0
C71 C 0.65734 0.08819 0.53216 0.0
C72 C 0.66147 0.08647 0.55811 0.0
C73 C 0.63738 0.06094 0.56664 0.0
N74 N 0.59814 0.99257 0.52978 0.0
C75 C 0.62248 0.96614 0.50578 0.0
C76 C 0.63833 0.98631 0.52479 0.0
C77 C 0.62569 0.99899 0.53669 0.0
C78 C 0.59424 0.95983 0.49894 0.0
C79 C 0.58269 0.97348 0.51087 0.0
N80 N 0.56297 0.02686 0.56532 0.0
C81 C 0.55698 0.06604 0.57138 0.0
C82 C 0.54099 0.05265 0.5935 0.0
C83 C 0.53546 0.02569 0.60066 0.0
C84 C 0.5466 0.01321 0.58636 0.0
C85 C 0.56778 0.05277 0.55756 0.0
H86 H 0.54237 0.99268 0.59265 0.0
H87 H 0.58055 0.06373 0.54092 0.0
H88 H 0.63822 0.01392 0.55161 0.0
H89 H 0.56103 0.96825 0.50499 0.0
C90 C 0.55615 0.95159 0.58203 0.0
C91 C 0.63417 0.04954 0.5929 0.0
C92 C 0.51461 0.98081 0.51282 0.0
C93 C 0.61536 0.0582 0.50305 0.0
H94 H 0.63158 0.0125 0.63487 0.0
H95 H 0.59038 0.95797 0.62779 0.0
H96 H 0.49718 0.90704 0.56963 0.0
H97 H 0.47334 0.92448 0.53399 0.0
H98 H 0.52496 0.01201 0.46442 0.0
H99 H 0.58057 0.05282 0.4581 0.0
H100 H 0.67129 0.10568 0.51928 0.0
H101 H 0.68012 0.10211 0.5694 0.0
H102 H 0.66041 0.99242 0.53048 0.0
H103 H 0.58076 0.94406 0.48476 0.0
H104 H 0.56191 0.08698 0.56524 0.0
H105 H 0.52277 0.01434 0.61734 0.0
C106 C 0.63925 0.54917 0.03367 0.0
C107 C 0.6446 0.56922 0.01438 0.0
C108 C 0.62078 0.57163 0.01275 0.0
C109 C 0.60232 0.55297 0.03102 0.0
N110 N 0.61302 0.53898 0.04446 0.0
Co111 Co 0.59296 0.50916 0.07218 0.0
N112 N 0.55739 0.51188 0.06901 0.0
C113 C 0.55287 0.52857 0.05238 0.0
C114 C 0.52697 0.52685 0.05561 0.0
C115 C 0.51437 0.50832 0.0758 0.0
C116 C 0.53339 0.49972 0.08369 0.0
N117 N 0.5729 0.47939 0.0999 0.0
C118 C 0.54744 0.47043 0.11162 0.0
C119 C 0.54178 0.4501 0.13068 0.0
C120 C 0.56485 0.44649 0.13142 0.0
C121 C 0.58313 0.4647 0.11281 0.0
N122 N 0.62856 0.50653 0.07544 0.0
C123 C 0.6329 0.48956 0.09188 0.0
C124 C 0.65927 0.49204 0.08924 0.0
C125 C 0.67247 0.51153 0.06978 0.0
C126 C 0.65326 0.51977 0.06162 0.0
N127 N 0.60993 0.5391 0.09838 0.0
C128 C 0.63008 0.57975 0.13707 0.0
C129 C 0.63137 0.55541 0.14061 0.0
C130 C 0.62137 0.5356 0.12115 0.0
C131 C 0.61932 0.58376 0.11352 0.0
C132 C 0.60945 0.56337 0.09464 0.0
N133 N 0.57593 0.47913 0.04593 0.0
C134 C 0.56695 0.43469 0.03041 0.0
C135 C 0.55535 0.43836 0.00724 0.0
C136 C 0.55351 0.4624 0.00402 0.0
C137 C 0.56373 0.48226 0.02346 0.0
C138 C 0.577 0.45513 0.04931 0.0
H139 H 0.56177 0.5001 0.0197 0.0
H140 H 0.58596 0.4512 0.06631 0.0
H141 H 0.62268 0.51738 0.12514 0.0
H142 H 0.60121 0.56756 0.07729 0.0
C143 C 0.57437 0.54732 0.03532 0.0
C144 C 0.65907 0.53949 0.0401 0.0
C145 C 0.52871 0.48156 0.10624 0.0
C146 C 0.61114 0.47042 0.10861 0.0
H147 H 0.66349 0.58053 0.00235 0.0
H148 H 0.61708 0.58493 0.99946 0.0
H149 H 0.51877 0.53851 0.04517 0.0
H150 H 0.49395 0.50254 0.08424 0.0
H151 H 0.52327 0.43957 0.1432 0.0
H152 H 0.5684 0.43302 0.14461 0.0
H153 H 0.66761 0.48057 0.09982 0.0
H154 H 0.69363 0.51854 0.06212 0.0
H155 H 0.63937 0.55123 0.15856 0.0
H156 H 0.61845 0.60259 0.10962 0.0
H157 H 0.56903 0.41648 0.03375 0.0
H158 H 0.54421 0.46594 0.98655 0.0
C159 C 0.98142 0.41636 0.55889 0.0
C160 C 0.95376 0.3931 0.55296 0.0
C161 C 0.946 0.39876 0.52914 0.0
C162 C 0.96934 0.425 0.52188 0.0
N163 N 0.9912 0.4361 0.53965 0.0
Co164 Co 0.0288 0.47328 0.5372 0.0
N165 N 0.01255 0.48743 0.51002 0.0
C166 C 0.98779 0.47127 0.49597 0.0
C167 C 0.98138 0.48702 0.47929 0.0
C168 C 0.00371 0.51474 0.48275 0.0
C169 C 0.02288 0.51435 0.50117 0.0
N170 N 0.06666 0.51036 0.53475 0.0
C171 C 0.07308 0.53514 0.52292 0.0
C172 C 0.10314 0.55509 0.52433 0.0
C173 C 0.1157 0.54227 0.53737 0.0
C174 C 0.0929 0.51527 0.5431 0.0
N175 N 0.04487 0.45894 0.56435 0.0
C176 C 0.07338 0.46945 0.56981 0.0
C177 C 0.0777 0.45589 0.59045 0.0
C178 C 0.05017 0.4355 0.59836 0.0
C179 C 0.03051 0.43757 0.58181 0.0
N180 N 0.04139 0.45832 0.51101 0.0
C181 C 0.0633 0.43918 0.47486 0.0
C182 C 0.0487 0.42219 0.49635 0.0
C183 C 0.03786 0.43212 0.51416 0.0
C184 C 0.06595 0.46558 0.47162 0.0
C185 C 0.05479 0.47463 0.48974 0.0
N186 N 0.01631 0.48832 0.56331 0.0
C187 C 0.02621 0.51385 0.60226 0.0
C188 C 0.99803 0.50926 0.60108 0.0
C189 C 0.97932 0.49406 0.58043 0.0
C190 C 0.98882 0.48373 0.56187 0.0
C191 C 0.03492 0.5033 0.5832 0.0
H192 H 0.97385 0.47197 0.54635 0.0
H193 H 0.05667 0.50709 0.58464 0.0
H194 H 0.02706 0.41881 0.53069 0.0
H195 H 0.05771 0.49524 0.48672 0.0
C196 C 0.96912 0.44214 0.50159 0.0
C197 C 0.99851 0.41845 0.5822 0.0
C198 C 0.05214 0.53927 0.50737 0.0
C199 C 0.09488 0.49526 0.55869 0.0
H200 H 0.94058 0.37415 0.56465 0.0
H201 H 0.92525 0.38592 0.51896 0.0
H202 H 0.96233 0.47939 0.46664 0.0
H203 H 0.00595 0.53307 0.47244 0.0
H204 H 0.1151 0.57642 0.51613 0.0
H205 H 0.13869 0.55164 0.5423 0.0
H206 H 0.09835 0.46121 0.59958 0.0
H207 H 0.04537 0.42112 0.61462 0.0
H208 H 0.04583 0.40148 0.4995 0.0
H209 H 0.07747 0.47973 0.45561 0.0
H210 H 0.04133 0.52512 0.61801 0.0
H211 H 0.95751 0.49031 0.57845 0.0
C212 C 0.52824 0.02904 0.1332 0.0
C213 C 0.52952 0.04333 0.15482 0.0
C214 C 0.55459 0.06966 0.15343 0.0
C215 C 0.5671 0.06994 0.13113 0.0
N216 N 0.55138 0.04551 0.11798 0.0
Co217 Co 0.56217 0.03634 0.08514 0.0
N218 N 0.60002 0.07438 0.08397 0.0
C219 C 0.60956 0.09584 0.10055 0.0
C220 C 0.63587 0.11978 0.09434 0.0
C221 C 0.64362 0.11332 0.07243 0.0
C222 C 0.62156 0.08561 0.06659 0.0
N223 N 0.57327 0.02678 0.05268 0.0
C224 C 0.59776 0.04213 0.03875 0.0
C225 C 0.59726 0.02698 0.01808 0.0
C226 C 0.57134 0.00134 0.01872 0.0
C227 C 0.55767 0.00216 0.03975 0.0
N228 N 0.52405 0.99851 0.08603 0.0
C229 C 0.51337 0.97792 0.06837 0.0
C230 C 0.48682 0.95417 0.07434 0.0
C231 C 0.48016 0.95977 0.09727 0.0
C232 C 0.50312 0.9868 0.10397 0.0
N233 N 0.54271 0.05301 0.0648 0.0
C234 C 0.52183 0.08042 0.03242 0.0
C235 C 0.51792 0.05462 0.02569 0.0
C236 C 0.52804 0.04116 0.04221 0.0
C237 C 0.53477 0.09152 0.05621 0.0
C238 C 0.54508 0.07761 0.07197 0.0
N239 N 0.58189 0.01995 0.10519 0.0
C240 C 0.59187 0.98271 0.11221 0.0
C241 C 0.61182 0.99776 0.13205 0.0
C242 C 0.61626 0.02388 0.13855 0.0
C243 C 0.60129 0.03459 0.12486 0.0
C244 C 0.57704 0.99398 0.0993 0.0
H245 H 0.60586 0.05481 0.13043 0.0
H246 H 0.56178 0.98128 0.08464 0.0
H247 H 0.52429 0.02154 0.03594 0.0
H248 H 0.55551 0.08761 0.08952 0.0
C249 C 0.59369 0.09265 0.12211 0.0
C250 C 0.50469 -0.00019 0.12811 0.0
C251 C 0.62182 0.07112 0.04409 0.0
C252 C 0.52991 0.98044 0.04754 0.0
H253 H 0.514 0.03544 0.17011 0.0
H254 H 0.56286 0.08649 0.16716 0.0
H255 H 0.64797 0.13957 0.10455 0.0
H256 H 0.66324 0.1275 0.06189 0.0
H257 H 0.61386 0.03376 0.00391 0.0
H258 H 0.56337 0.98418 0.00539 0.0
H259 H 0.47427 0.93472 0.06369 0.0
H260 H 0.46088 0.94529 0.1081 0.0
H261 H 0.50743 0.04503 0.00756 0.0
H262 H 0.53803 0.11146 0.06217 0.0
H263 H 0.58735 0.96208 0.10693 0.0
H264 H 0.63152 0.03617 0.1539 0.0
C265 C 0.58725 0.60181 0.565 0.0
C266 C 0.57954 0.62154 0.56845 0.0
C267 C 0.55847 0.61007 0.58649 0.0
C268 C 0.55451 0.58412 0.59297 0.0
N269 N 0.57204 0.57843 0.58039 0.0
Co270 Co 0.57302 0.54287 0.58342 0.0
N271 N 0.53949 0.52458 0.60744 0.0
C272 C 0.52384 0.5354 0.61492 0.0
C273 C 0.50173 0.51765 0.63112 0.0
C274 C 0.50369 0.49427 0.63457 0.0
C275 C 0.52722 0.49933 0.62045 0.0
N276 N 0.57458 0.50763 0.58706 0.0
C277 C 0.56046 0.48496 0.60347 0.0
C278 C 0.57069 0.46685 0.60199 0.0
C279 C 0.59164 0.47826 0.58393 0.0
C280 C 0.59346 0.5028 0.57567 0.0
N281 N 0.606 0.56087 0.55877 0.0
C282 C 0.62065 0.54949 0.55008 0.0
C283 C 0.64134 0.56642 0.53247 0.0
C284 C 0.63942 0.58981 0.52927 0.0
C285 C 0.61752 0.58568 0.54517 0.0
N286 N 0.60117 0.55906 0.61296 0.0
C287 C 0.63848 0.57611 0.65682 0.0
C288 C 0.64572 0.56827 0.63473 0.0
C289 C 0.62697 0.55993 0.61325 0.0
C290 C 0.61276 0.57633 0.65631 0.0
C291 C 0.5947 0.56807 0.63422 0.0
N292 N 0.54485 0.52658 0.55392 0.0
C293 C 0.53034 0.50249 0.51345 0.0
C294 C 0.50679 0.50623 0.51048 0.0
C295 C 0.50231 0.51983 0.52997 0.0
C296 C 0.52149 0.52984 0.55124 0.0
C297 C 0.54877 0.51254 0.53519 0.0
H298 H 0.5171 0.5404 0.56514 0.0
H299 H 0.56628 0.50903 0.5362 0.0
H300 H 0.63357 0.5536 0.59739 0.0
H301 H 0.57537 0.56864 0.63499 0.0
C302 C 0.53218 0.56332 0.6083 0.0
C303 C 0.60751 0.60525 0.54567 0.0
C304 C 0.53841 0.48057 0.62155 0.0
C305 C 0.61414 0.52266 0.55862 0.0
H306 H 0.58759 0.64169 0.55837 0.0
H307 H 0.5465 0.61902 0.59319 0.0
H308 H 0.48668 0.52166 0.64009 0.0
H309 H 0.48999 0.47599 0.64681 0.0
H310 H 0.5646 0.44781 0.61324 0.0
H311 H 0.60486 0.47022 0.57828 0.0
H312 H 0.65571 0.56203 0.52278 0.0
H313 H 0.65224 0.60766 0.5163 0.0
H314 H 0.66531 0.56753 0.63426 0.0
H315 H 0.6065 0.58265 0.6729 0.0
H316 H 0.53505 0.4924 0.49884 0.0
H317 H 0.48407 0.52278 0.52892 0.0
H318 H 0.32851 0.45193 0.45616 0.0
H319 H 0.11903 0.41083 0.21468 0.0
H320 H 0.36124 0.48996 0.30941 0.0
H321 H 0.3992 0.49654 0.34086 0.0
H322 H 0.35225 0.40568 0.35507 0.0
H323 H 0.31482 0.39913 0.32283 0.0
H324 H 0.31385 0.47944 0.34952 0.0
H325 H 0.32331 0.47651 0.39544 0.0
H326 H 0.27319 0.38458 0.39209 0.0
H327 H 0.26423 0.38788 0.34611 0.0
H328 H 0.25056 0.47602 0.31625 0.0
H329 H 0.21332 0.47183 0.34403 0.0
H330 H 0.18252 0.38313 0.3591 0.0
H331 H 0.21883 0.38725 0.32994 0.0
H332 H 0.25696 0.48527 0.26017 0.0
H333 H 0.2155 0.48406 0.23796 0.0
H334 H 0.16365 0.39239 0.24774 0.0
H335 H 0.20547 0.39389 0.26959 0.0
H336 H 0.31423 0.49894 0.24183 0.0
H337 H 0.30556 0.51415 0.19972 0.0
H338 H 0.24267 0.4263 0.18114 0.0
H339 H 0.25138 0.41131 0.22361 0.0
H340 H 0.35695 0.49571 0.25957 0.0
H341 H 0.39561 0.50157 0.23233 0.0
H342 H 0.34986 0.41016 0.2258 0.0
H343 H 0.31152 0.40458 0.25328 0.0
O344 O 0.32356 0.45259 0.43821 0.0
O345 O 0.29575 0.40539 0.43596 0.0
O346 O 0.16341 0.45906 0.21878 0.0
O347 O 0.13566 0.41195 0.22367 0.0
C348 C 0.30882 0.44118 0.30105 0.0
C349 C 0.28544 0.43601 0.31633 0.0
C350 C 0.26085 0.43518 0.30493 0.0
C351 C 0.25996 0.44021 0.27832 0.0
C352 C 0.28364 0.44602 0.26311 0.0
C353 C 0.30784 0.44601 0.27442 0.0
C354 C 0.33532 0.44407 0.31383 0.0
C355 C 0.35988 0.47137 0.31836 0.0
C356 C 0.38141 0.47511 0.33645 0.0
C357 C 0.37838 0.45162 0.35051 0.0
C358 C 0.35492 0.42411 0.34454 0.0
C359 C 0.3337 0.42034 0.32607 0.0
C360 C 0.2881 0.43388 0.34462 0.0
C361 C 0.30458 0.4587 0.35885 0.0
C362 C 0.31008 0.45696 0.38503 0.0
C363 C 0.29906 0.43031 0.39743 0.0
C364 C 0.28196 0.40544 0.38315 0.0
C365 C 0.2766 0.40723 0.35694 0.0
C366 C 0.23751 0.432 0.32126 0.0
C367 C 0.23555 0.45563 0.32537 0.0
C368 C 0.21444 0.45323 0.34147 0.0
C369 C 0.19511 0.42721 0.35412 0.0
C370 C 0.19687 0.40342 0.34957 0.0
C371 C 0.21779 0.40578 0.33315 0.0
C372 C 0.23424 0.43965 0.2663 0.0
C373 C 0.23662 0.46496 0.25748 0.0
C374 C 0.2129 0.46421 0.24482 0.0
C375 C 0.18628 0.4381 0.24097 0.0
C376 C 0.18384 0.41283 0.25032 0.0
C377 C 0.20764 0.41362 0.26288 0.0
C378 C 0.28358 0.45403 0.23569 0.0
C379 C 0.29945 0.48291 0.2283 0.0
C380 C 0.29436 0.49156 0.20423 0.0
C381 C 0.2732 0.47145 0.18716 0.0
C382 C 0.2588 0.44232 0.19401 0.0
C383 C 0.26396 0.43369 0.21811 0.0
C384 C 0.33146 0.44974 0.25825 0.0
C385 C 0.35533 0.477 0.25222 0.0
C386 C 0.37729 0.48029 0.23661 0.0
C387 C 0.37576 0.45632 0.22688 0.0
C388 C 0.35185 0.42901 0.23322 0.0
C389 C 0.32988 0.42577 0.24877 0.0
C390 C 0.30588 0.42856 0.42502 0.0
C391 C 0.16117 0.43713 0.22716 0.0
H392 H 0.9066 0.30025 0.97346 0.0
H393 H 0.68637 0.04247 0.80729 0.0
H394 H 0.88122 0.29599 0.82971 0.0
H395 H 0.92637 0.33904 0.8436 0.0
H396 H 0.97115 0.2938 0.84512 0.0
H397 H 0.92608 0.25129 0.82957 0.0
H398 H 0.84664 0.26274 0.87364 0.0
H399 H 0.86737 0.28256 0.91584 0.0
H400 H 0.91337 0.23845 0.91898 0.0
H401 H 0.8924 0.21878 0.87676 0.0
H402 H 0.78862 0.21262 0.85979 0.0
H403 H 0.75722 0.19122 0.89686 0.0
H404 H 0.79567 0.14138 0.91476 0.0
H405 H 0.82728 0.16317 0.87753 0.0
H406 H 0.7663 0.18461 0.80116 0.0
H407 H 0.71944 0.13975 0.79431 0.0
H408 H 0.75827 0.09317 0.8239 0.0
H409 H 0.80508 0.13818 0.83032 0.0
H410 H 0.80995 0.22683 0.76177 0.0
H411 H 0.78007 0.20213 0.72378 0.0
H412 H 0.79838 0.13597 0.73765 0.0
H413 H 0.82825 0.16083 0.77554 0.0
H414 H 0.86669 0.28371 0.78501 0.0
H415 H 0.89163 0.31376 0.74751 0.0
H416 H 0.9104 0.25202 0.72376 0.0
H417 H 0.88678 0.22256 0.76228 0.0
O418 O 0.89844 0.29198 0.95691 0.0
O419 O 0.92148 0.26874 0.95765 0.0
O420 O 0.68568 0.08546 0.79483 0.0
O421 O 0.70454 0.06053 0.81008 0.0
C422 C 0.87213 0.24362 0.82453 0.0
C423 C 0.85625 0.22818 0.84637 0.0
C424 C 0.8288 0.20269 0.84357 0.0
C425 C 0.81785 0.19171 0.81901 0.0
C426 C 0.83378 0.20703 0.79705 0.0
C427 C 0.86057 0.23351 0.79974 0.0
C428 C 0.90057 0.27075 0.82821 0.0
C429 C 0.90108 0.29575 0.83206 0.0
C430 C 0.9268 0.32016 0.84046 0.0
C431 C 0.95231 0.31977 0.8459 0.0
C432 C 0.95204 0.29497 0.84088 0.0
C433 C 0.92633 0.27065 0.83202 0.0
C434 C 0.86803 0.23934 0.87229 0.0
C435 C 0.86108 0.25731 0.88358 0.0
C436 C 0.873 0.26862 0.90763 0.0
C437 C 0.89206 0.26212 0.92078 0.0
C438 C 0.89878 0.2439 0.90938 0.0
C439 C 0.88682 0.2326 0.88533 0.0
C440 C 0.81005 0.18932 0.86606 0.0
C441 C 0.79028 0.19713 0.87178 0.0
C442 C 0.77255 0.18504 0.89299 0.0
C443 C 0.77414 0.16476 0.90872 0.0
C444 C 0.79395 0.15688 0.90286 0.0
C445 C 0.81197 0.16926 0.88173 0.0
C446 C 0.78903 0.16458 0.8162 0.0
C447 C 0.76458 0.16468 0.8062 0.0
C448 C 0.73787 0.13904 0.8023 0.0
C449 C 0.73512 0.11285 0.8085 0.0
C450 C 0.75962 0.11293 0.81889 0.0
C451 C 0.78635 0.13859 0.82269 0.0
C452 C 0.82117 0.19556 0.77138 0.0
C453 C 0.80822 0.20747 0.75612 0.0
C454 C 0.79112 0.19331 0.73451 0.0
C455 C 0.78662 0.16696 0.728 0.0
C456 C 0.80113 0.15602 0.74247 0.0
C457 C 0.81836 0.17028 0.76394 0.0
C458 C 0.87558 0.2513 0.77677 0.0
C459 C 0.8768 0.27695 0.77212 0.0
C460 C 0.89075 0.29394 0.75063 0.0
C461 C 0.90295 0.28513 0.73303 0.0
C462 C 0.90115 0.25915 0.73724 0.0
C463 C 0.88775 0.24242 0.75913 0.0
C464 C 0.90492 0.2744 0.94622 0.0
C465 C 0.70692 0.08554 0.80404 0.0
H466 H 0.66496 0.75375 0.15698 0.0
H467 H 0.74181 0.99286 0.3641 0.0
H468 H 0.64483 0.74586 0.30194 0.0
H469 H 0.63819 0.7052 0.27926 0.0
H470 H 0.73165 0.74955 0.26976 0.0
H471 H 0.73822 0.78994 0.29317 0.0
H472 H 0.64908 0.78344 0.25826 0.0
H473 H 0.64672 0.76716 0.21494 0.0
H474 H 0.74134 0.81813 0.21287 0.0
H475 H 0.74332 0.83409 0.25629 0.0
H476 H 0.64917 0.84024 0.28435 0.0
H477 H 0.63946 0.8681 0.25312 0.0
H478 H 0.72798 0.90873 0.22645 0.0
H479 H 0.73786 0.88132 0.25892 0.0
H480 H 0.65689 0.8557 0.33439 0.0
H481 H 0.66199 0.89877 0.3506 0.0
H482 H 0.75494 0.94519 0.33696 0.0
H483 H 0.74955 0.90178 0.32113 0.0
H484 H 0.64737 0.8076 0.3648 0.0
H485 H 0.64067 0.82743 0.40241 0.0
H486 H 0.73466 0.88416 0.41118 0.0
H487 H 0.74094 0.86464 0.37268 0.0
H488 H 0.64015 0.75913 0.34481 0.0
H489 H 0.62655 0.72568 0.38117 0.0
H490 H 0.71792 0.76576 0.40392 0.0
H491 H 0.73136 0.79888 0.36696 0.0
O492 O 0.66635 0.76122 0.17372 0.0
O493 O 0.71497 0.78863 0.1732 0.0
O494 O 0.69124 0.9507 0.3642 0.0
O495 O 0.73903 0.97575 0.35704 0.0
C496 C 0.69525 0.79757 0.307 0.0
C497 C 0.69776 0.81716 0.2875 0.0
C498 C 0.69936 0.8423 0.2939 0.0
C499 C 0.70039 0.84879 0.31982 0.0
C500 C 0.6975 0.82907 0.33929 0.0
C501 C 0.69409 0.80309 0.33285 0.0
C502 C 0.69205 0.77063 0.2996 0.0
C503 C 0.66399 0.74622 0.29615 0.0
C504 C 0.66021 0.72313 0.28299 0.0
C505 C 0.68442 0.72437 0.2727 0.0
C506 C 0.71267 0.74816 0.27748 0.0
C507 C 0.71646 0.77106 0.29099 0.0
C508 C 0.69635 0.81 0.26026 0.0
C509 C 0.66922 0.79133 0.24825 0.0
C510 C 0.66797 0.78197 0.22357 0.0
C511 C 0.69385 0.79123 0.21048 0.0
C512 C 0.72099 0.81055 0.22242 0.0
C513 C 0.7222 0.81984 0.24713 0.0
C514 C 0.69419 0.85887 0.27388 0.0
C515 C 0.66647 0.85517 0.27175 0.0
C516 C 0.66091 0.87092 0.2537 0.0
C517 C 0.68286 0.89047 0.23707 0.0
C518 C 0.71068 0.89398 0.23909 0.0
C519 C 0.71632 0.87826 0.25744 0.0
C520 C 0.70289 0.87565 0.32673 0.0
C521 C 0.67829 0.87525 0.33475 0.0
C522 C 0.68128 0.89987 0.34404 0.0
C523 C 0.70893 0.92539 0.34525 0.0
C524 C 0.73337 0.92588 0.33639 0.0
C525 C 0.73035 0.90118 0.3272 0.0
C526 C 0.6946 0.83471 0.36606 0.0
C527 C 0.66655 0.82345 0.37547 0.0
C528 C 0.6628 0.83493 0.39703 0.0
C529 C 0.68713 0.85776 0.40967 0.0
C530 C 0.71544 0.86703 0.40158 0.0
C531 C 0.71912 0.85567 0.37982 0.0
C532 C 0.68674 0.781 0.35304 0.0
C533 C 0.65726 0.76019 0.35727 0.0
C534 C 0.64953 0.74142 0.37824 0.0
C535 C 0.67116 0.74325 0.39548 0.0
C536 C 0.70081 0.76371 0.39082 0.0
C537 C 0.70853 0.78257 0.36978 0.0
C538 C 0.69248 0.78041 0.18467 0.0
C539 C 0.7124 0.95132 0.35603 0.0
H540 H 0.79326 0.6033 0.68081 0.0
H541 H 0.03279 0.57904 0.86037 0.0
H542 H 0.84912 0.64118 0.80979 0.0
H543 H 0.80538 0.63818 0.79097 0.0
H544 H 0.75409 0.5485 0.81121 0.0
H545 H 0.79821 0.55171 0.8297 0.0
H546 H 0.87766 0.63458 0.76654 0.0
H547 H 0.84841 0.62962 0.72764 0.0
H548 H 0.79222 0.53929 0.74394 0.0
H549 H 0.8218 0.54459 0.78268 0.0
H550 H 0.92628 0.62898 0.7669 0.0
H551 H 0.94591 0.61743 0.73113 0.0
H552 H 0.90289 0.53024 0.75902 0.0
H553 H 0.88322 0.54187 0.79436 0.0
H554 H 0.96093 0.64385 0.83005 0.0
H555 H 0.00712 0.64674 0.84008 0.0
H556 H 0.95995 0.55486 0.84676 0.0
H557 H 0.91394 0.55235 0.83702 0.0
H558 H 0.93106 0.64832 0.87575 0.0
H559 H 0.96767 0.65493 0.90882 0.0
H560 H 0.92719 0.56363 0.91493 0.0
H561 H 0.89053 0.55738 0.88248 0.0
H562 H 0.85643 0.6379 0.86619 0.0
H563 H 0.8257 0.63232 0.9019 0.0
H564 H 0.8099 0.54853 0.91875 0.0
H565 H 0.84045 0.55428 0.88316 0.0
O566 O 0.80537 0.60457 0.69555 0.0
O567 O 0.77741 0.55818 0.7046 0.0
O568 O 0.0379 0.62572 0.85355 0.0
O569 O 0.01496 0.5785 0.8557 0.0
C570 C 0.85411 0.59669 0.82452 0.0
C571 C 0.86674 0.59372 0.8027 0.0
C572 C 0.89235 0.593 0.80538 0.0
C573 C 0.90609 0.59658 0.8297 0.0
C574 C 0.89318 0.59901 0.85159 0.0
C575 C 0.86672 0.59831 0.84914 0.0
C576 C 0.82676 0.59665 0.82098 0.0
C577 C 0.8282 0.62118 0.81108 0.0
C578 C 0.80318 0.61939 0.80032 0.0
C579 C 0.7764 0.593 0.79931 0.0
C580 C 0.77454 0.56903 0.81144 0.0
C581 C 0.79959 0.57086 0.82225 0.0
C582 C 0.85192 0.58992 0.77725 0.0
C583 C 0.8594 0.61367 0.76134 0.0
C584 C 0.84251 0.61079 0.73926 0.0
C585 C 0.81784 0.58408 0.73277 0.0
C586 C 0.81103 0.56016 0.74839 0.0
C587 C 0.82799 0.56308 0.77042 0.0
C588 C 0.90353 0.58627 0.78322 0.0
C589 C 0.92102 0.60739 0.76511 0.0
C590 C 0.93213 0.60076 0.74476 0.0
C591 C 0.9261 0.57299 0.74246 0.0
C592 C 0.90825 0.55189 0.76053 0.0
C593 C 0.89694 0.55846 0.78064 0.0
C594 C 0.93421 0.59789 0.83254 0.0
C595 C 0.96073 0.62438 0.83328 0.0
C596 C 0.98702 0.62596 0.83917 0.0
C597 C 0.98721 0.60101 0.84429 0.0
C598 C 0.9606 0.57447 0.8429 0.0
C599 C 0.93432 0.57294 0.83713 0.0
C600 C 0.90814 0.60238 0.87684 0.0
C601 C 0.92935 0.62977 0.88516 0.0
C602 C 0.95048 0.6335 0.90375 0.0
C603 C 0.95065 0.60984 0.91421 0.0
C604 C 0.92761 0.58232 0.9075 0.0
C605 C 0.90651 0.57865 0.889 0.0
C606 C 0.85083 0.59658 0.87221 0.0
C607 C 0.84659 0.61852 0.87783 0.0
C608 C 0.82895 0.61523 0.89811 0.0
C609 C 0.81538 0.58998 0.91315 0.0
C610 C 0.82038 0.56841 0.90782 0.0
C611 C 0.83785 0.57165 0.88749 0.0
C612 C 0.79898 0.58136 0.71012 0.0
C613 C 0.01494 0.60261 0.85142 0.0
H614 H 0.25761 0.84395 0.48559 0.0
H615 H 0.14245 0.61347 0.2836 0.0
H616 H 0.28695 0.86504 0.35632 0.0
H617 H 0.32503 0.90219 0.384 0.0
H618 H 0.38432 0.87635 0.3657 0.0
H619 H 0.34586 0.83833 0.3393 0.0
H620 H 0.22981 0.8102 0.37849 0.0
H621 H 0.23373 0.82409 0.42301 0.0
H622 H 0.31309 0.82338 0.43384 0.0
H623 H 0.30862 0.80901 0.38948 0.0
H624 H 0.18495 0.7482 0.34307 0.0
H625 H 0.14959 0.71045 0.37126 0.0
H626 H 0.22108 0.717 0.41812 0.0
H627 H 0.25571 0.75165 0.38779 0.0
H628 H 0.1976 0.75324 0.28594 0.0
H629 H 0.16076 0.70615 0.26979 0.0
H630 H 0.20127 0.6693 0.31587 0.0
H631 H 0.23822 0.71659 0.3316 0.0
H632 H 0.2466 0.80266 0.2585 0.0
H633 H 0.23832 0.78267 0.21567 0.0
H634 H 0.27232 0.73129 0.24329 0.0
H635 H 0.28049 0.75134 0.28583 0.0
H636 H 0.29699 0.86489 0.29185 0.0
H637 H 0.33409 0.89804 0.26148 0.0
H638 H 0.3663 0.84199 0.25854 0.0
H639 H 0.32922 0.80908 0.2888 0.0
O640 O 0.25626 0.83809 0.46816 0.0
O641 O 0.29707 0.83759 0.47263 0.0
O642 O 0.13679 0.65236 0.26633 0.0
O643 O 0.15669 0.63232 0.28976 0.0
C644 C 0.28852 0.82137 0.33608 0.0
C645 C 0.26718 0.80141 0.35337 0.0
C646 C 0.2446 0.77426 0.34483 0.0
C647 C 0.24347 0.76709 0.319 0.0
C648 C 0.26487 0.78691 0.30183 0.0
C649 C 0.28737 0.81406 0.3103 0.0
C650 C 0.31351 0.84876 0.34599 0.0
C651 C 0.30842 0.86793 0.3577 0.0
C652 C 0.33008 0.88905 0.37349 0.0
C653 C 0.35739 0.89188 0.37695 0.0
C654 C 0.36344 0.87463 0.36312 0.0
C655 C 0.34156 0.85304 0.34792 0.0
C656 C 0.269 0.80876 0.38071 0.0
C657 C 0.24789 0.81286 0.39057 0.0
C658 C 0.25025 0.82089 0.41598 0.0
C659 C 0.2738 0.82496 0.43196 0.0
C660 C 0.29472 0.82048 0.42205 0.0
C661 C 0.29226 0.81233 0.39671 0.0
C662 C 0.22301 0.75276 0.36324 0.0
C663 C 0.19288 0.74114 0.35927 0.0
C664 C 0.17265 0.7198 0.37577 0.0
C665 C 0.18215 0.71027 0.39723 0.0
C666 C 0.21254 0.72288 0.40156 0.0
C667 C 0.2326 0.7433 0.38446 0.0
C668 C 0.22054 0.7383 0.30994 0.0
C669 C 0.19848 0.73496 0.2925 0.0
C670 C 0.17746 0.70805 0.28333 0.0
C671 C 0.17808 0.68395 0.29154 0.0
C672 C 0.20015 0.68739 0.30916 0.0
C673 C 0.22122 0.71435 0.31825 0.0
C674 C 0.26407 0.77837 0.27517 0.0
C675 C 0.2528 0.78754 0.25507 0.0
C676 C 0.24793 0.776 0.23075 0.0
C677 C 0.2546 0.75538 0.2262 0.0
C678 C 0.26727 0.74736 0.24614 0.0
C679 C 0.27187 0.7587 0.27043 0.0
C680 C 0.31021 0.83444 0.29231 0.0
C681 C 0.31213 0.85986 0.28466 0.0
C682 C 0.33338 0.87878 0.26742 0.0
C683 C 0.35301 0.87254 0.25749 0.0
C684 C 0.35119 0.84718 0.26548 0.0
C685 C 0.33005 0.82837 0.28278 0.0
C686 C 0.2765 0.83391 0.4588 0.0
C687 C 0.1559 0.65533 0.28174 0.0
H688 H 0.49907 0.26251 0.6215 0.0
H689 H 0.42592 0.04158 0.8344 0.0
H690 H 0.53042 0.28488 0.75353 0.0
H691 H 0.53864 0.32812 0.7329 0.0
H692 H 0.4635 0.31715 0.77082 0.0
H693 H 0.45334 0.2715 0.78861 0.0
H694 H 0.52019 0.23708 0.727 0.0
H695 H 0.51898 0.24827 0.68138 0.0
H696 H 0.43628 0.24132 0.69038 0.0
H697 H 0.43755 0.22973 0.73593 0.0
H698 H 0.52161 0.19306 0.76638 0.0
H699 H 0.52874 0.16734 0.73387 0.0
H700 H 0.44394 0.14139 0.69973 0.0
H701 H 0.43667 0.16685 0.73295 0.0
H702 H 0.51443 0.18263 0.8207 0.0
H703 H 0.50656 0.1369 0.83598 0.0
H704 H 0.41697 0.09432 0.80706 0.0
H705 H 0.42505 0.14028 0.7922 0.0
H706 H 0.52543 0.23217 0.84713 0.0
H707 H 0.52782 0.21392 0.88979 0.0
H708 H 0.43334 0.15814 0.88826 0.0
H709 H 0.43151 0.1757 0.84489 0.0
H710 H 0.53452 0.28859 0.81682 0.0
H711 H 0.54557 0.32296 0.84999 0.0
H712 H 0.45638 0.27078 0.87529 0.0
H713 H 0.44534 0.23696 0.84152 0.0
O714 O 0.49899 0.25782 0.63955 0.0
O715 O 0.45658 0.25414 0.64523 0.0
O716 O 0.47581 0.0829 0.84322 0.0
O717 O 0.42966 0.05994 0.82847 0.0
C718 C 0.48368 0.2458 0.78085 0.0
C719 C 0.47954 0.22578 0.76255 0.0
C720 C 0.47625 0.19971 0.77074 0.0
C721 C 0.47467 0.19262 0.79709 0.0
C722 C 0.47781 0.21214 0.81535 0.0
C723 C 0.48294 0.23898 0.80731 0.0
C724 C 0.49083 0.27457 0.77199 0.0
C725 C 0.51556 0.29169 0.75718 0.0
C726 C 0.52055 0.31693 0.74577 0.0
C727 C 0.50174 0.32659 0.74992 0.0
C728 C 0.47807 0.31026 0.7664 0.0
C729 C 0.47243 0.2843 0.777 0.0
C730 C 0.47878 0.23227 0.73472 0.0
C731 C 0.50166 0.23766 0.71903 0.0
C732 C 0.501 0.2442 0.693 0.0
C733 C 0.47751 0.24565 0.68222 0.0
C734 C 0.45467 0.24033 0.69805 0.0
C735 C 0.45533 0.2337 0.72407 0.0
C736 C 0.47861 0.18173 0.75206 0.0
C737 C 0.50436 0.18146 0.75213 0.0
C738 C 0.50854 0.16705 0.73337 0.0
C739 C 0.48706 0.15267 0.71405 0.0
C740 C 0.46083 0.15224 0.71442 0.0
C741 C 0.45665 0.16675 0.7333 0.0
C742 C 0.47021 0.16475 0.8056 0.0
C743 C 0.49308 0.16341 0.81782 0.0
C744 C 0.48855 0.13726 0.82645 0.0
C745 C 0.46108 0.11194 0.82283 0.0
C746 C 0.43835 0.11339 0.81023 0.0
C747 C 0.4429 0.13959 0.80167 0.0
C748 C 0.47834 0.20513 0.84297 0.0
C749 C 0.50524 0.21648 0.8563 0.0
C750 C 0.50649 0.20605 0.88076 0.0
C751 C 0.48077 0.1843 0.89249 0.0
C752 C 0.45363 0.17443 0.87964 0.0
C753 C 0.45246 0.18461 0.85499 0.0
C754 C 0.48912 0.26036 0.82672 0.0
C755 C 0.51731 0.28478 0.82935 0.0
C756 C 0.52363 0.30422 0.84845 0.0
C757 C 0.50188 0.29953 0.86536 0.0
C758 C 0.47353 0.27517 0.86243 0.0
C759 C 0.46722 0.25575 0.84327 0.0
C760 C 0.47695 0.25277 0.65458 0.0
C761 C 0.45609 0.08412 0.83214 0.0
C762 C 0.21663 0.51419 0.05862 0.0
C763 C 0.20907 0.53354 0.06514 0.0
C764 C 0.22993 0.50503 0.07681 0.0
C765 C 0.2356 0.51545 0.10203 0.0
C766 C 0.22912 0.536 0.10827 0.0
C767 C 0.2157 0.54466 0.08972 0.0
C768 C 0.23631 0.48299 0.06946 0.0
C769 C 0.23492 0.54771 0.13489 0.0
C770 C 0.23409 0.46859 0.15759 0.0
C771 C 0.26399 0.4811 0.16374 0.0
C772 C 0.22466 0.47915 0.13714 0.0
C773 C 0.24563 0.50294 0.12251 0.0
C774 C 0.27587 0.51525 0.12816 0.0
C775 C 0.2847 0.50417 0.14872 0.0
C776 C 0.19218 0.46539 0.13172 0.0
C777 C 0.29882 0.54061 0.11296 0.0
H778 H 0.21085 0.50526 0.03965 0.0
H779 H 0.20935 0.55931 0.09467 0.0
H780 H 0.25896 0.48954 0.07553 0.0
H781 H 0.22119 0.46248 0.07947 0.0
H782 H 0.23359 0.47941 0.0485 0.0
H783 H 0.23126 0.56548 0.13592 0.0
H784 H 0.22019 0.53053 0.14851 0.0
H785 H 0.25777 0.55542 0.14133 0.0
H786 H 0.21792 0.45114 0.16941 0.0
H787 H 0.30785 0.5138 0.15326 0.0
H788 H 0.18685 0.45912 0.11139 0.0
H789 H 0.18574 0.48087 0.13491 0.0
H790 H 0.1788 0.44622 0.14409 0.0
H791 H 0.29553 0.53592 0.09223 0.0
H792 H 0.32142 0.54677 0.11891 0.0
H793 H 0.29662 0.55908 0.11549 0.0
C794 C 0.68341 0.0687 0.61353 0.0
C795 C 0.65657 0.06686 0.61263 0.0
C796 C 0.70508 0.08521 0.63195 0.0
C797 C 0.69957 0.10007 0.64985 0.0
C798 C 0.67232 0.09813 0.64897 0.0
C799 C 0.65105 0.08147 0.63026 0.0
C800 C 0.7338 0.08671 0.63231 0.0
C801 C 0.66563 0.11358 0.6678 0.0
C802 C 0.74415 0.12089 0.71217 0.0
C803 C 0.76503 0.14983 0.70755 0.0
C804 C 0.7227 0.10447 0.69356 0.0
C805 C 0.72217 0.11729 0.66973 0.0
C806 C 0.74329 0.14646 0.66488 0.0
C807 C 0.76443 0.16244 0.68392 0.0
C808 C 0.70046 0.07346 0.69948 0.0
C809 C 0.74349 0.16077 0.63961 0.0
H810 H 0.68737 0.05721 0.59973 0.0
H811 H 0.63013 0.07983 0.62936 0.0
H812 H 0.75222 0.10918 0.63011 0.0
H813 H 0.73722 0.07856 0.65102 0.0
H814 H 0.73471 0.07416 0.61683 0.0
H815 H 0.64345 0.10993 0.66444 0.0
H816 H 0.66714 0.10643 0.68764 0.0
H817 H 0.68207 0.13681 0.66643 0.0
H818 H 0.74421 0.11121 0.73061 0.0
H819 H 0.78063 0.18478 0.6803 0.0
H820 H 0.70158 0.05987 0.68526 0.0
H821 H 0.67802 0.06946 0.69802 0.0
H822 H 0.70392 0.06675 0.71896 0.0
H823 H 0.74593 0.14968 0.6237 0.0
H824 H 0.76151 0.18358 0.63881 0.0
H825 H 0.72232 0.15931 0.63628 0.0
C826 C 0.66431 0.60822 0.17329 0.0
C827 C 0.63931 0.60054 0.15788 0.0
C828 C 0.67314 0.62786 0.19296 0.0
C829 C 0.65666 0.6402 0.19721 0.0
C830 C 0.63136 0.63246 0.1818 0.0
C831 C 0.62294 0.61265 0.16241 0.0
C832 C 0.70019 0.63557 0.20907 0.0
C833 C 0.61323 0.6452 0.18571 0.0
C834 C 0.6614 0.67353 0.26055 0.0
C835 C 0.67973 0.70258 0.25451 0.0
C836 C 0.65458 0.65286 0.24235 0.0
C837 C 0.666 0.66159 0.21747 0.0
C838 C 0.68502 0.69092 0.21148 0.0
C839 C 0.69177 0.71107 0.23014 0.0
C840 C 0.63445 0.62177 0.24949 0.0
C841 C 0.69728 0.70111 0.18507 0.0
H842 H 0.67725 0.59919 0.16974 0.0
H843 H 0.60329 0.60643 0.15093 0.0
H844 H 0.71682 0.65865 0.20675 0.0
H845 H 0.69471 0.63138 0.22964 0.0
H846 H 0.71007 0.62342 0.20384 0.0
H847 H 0.59422 0.63697 0.17203 0.0
H848 H 0.60498 0.64043 0.20549 0.0
H849 H 0.62701 0.66871 0.18336 0.0
H850 H 0.65212 0.66702 0.27942 0.0
H851 H 0.70552 0.73359 0.22532 0.0
H852 H 0.64462 0.6097 0.24499 0.0
H853 H 0.61369 0.61266 0.23804 0.0
H854 H 0.62918 0.61846 0.27014 0.0
H855 H 0.70862 0.69052 0.17942 0.0
H856 H 0.71293 0.72455 0.18394 0.0
H857 H 0.67912 0.6953 0.17089 0.0
C858 C 0.95933 0.50331 0.63011 0.0
C859 C 0.98808 0.51996 0.62135 0.0
C860 C 0.94963 0.51297 0.64931 0.0
C861 C 0.96923 0.53982 0.66027 0.0
C862 C 0.99825 0.55679 0.65152 0.0
C863 C 0.00729 0.54671 0.63211 0.0
C864 C 0.91848 0.49427 0.65807 0.0
C865 C 0.01982 0.58547 0.66285 0.0
C866 C 0.93648 0.57397 0.69604 0.0
C867 C 0.93844 0.56584 0.72144 0.0
C868 C 0.94673 0.56595 0.67591 0.0
C869 C 0.95951 0.5497 0.6814 0.0
C870 C 0.9622 0.54207 0.7071 0.0
C871 C 0.95151 0.55013 0.72679 0.0
C872 C 0.94324 0.57426 0.64873 0.0
C873 C 0.97602 0.52507 0.71378 0.0
H874 H 0.94445 0.48243 0.62226 0.0
H875 H 0.02939 0.55993 0.62522 0.0
H876 H 0.91843 0.48827 0.67859 0.0
H877 H 0.90725 0.50612 0.65626 0.0
H878 H 0.90566 0.47449 0.64689 0.0
H879 H 0.04152 0.59616 0.65378 0.0
H880 H 0.01114 0.59955 0.66053 0.0
H881 H 0.0229 0.58292 0.6837 0.0
H882 H 0.92618 0.58594 0.69185 0.0
H883 H 0.95341 0.54415 0.74646 0.0
H884 H 0.92876 0.55482 0.63752 0.0
H885 H 0.96477 0.58605 0.63939 0.0
H886 H 0.93375 0.58772 0.64776 0.0
H887 H 0.96299 0.50389 0.70483 0.0
H888 H 0.9775 0.52186 0.73479 0.0
H889 H 0.99837 0.53604 0.70604 0.0
C890 C 0.49043 0.97225 0.16949 0.0
C891 C 0.48273 0.98287 0.14793 0.0
C892 C 0.46964 0.95522 0.18793 0.0
C893 C 0.44055 0.94875 0.1846 0.0
C894 C 0.43292 0.95999 0.163 0.0
C895 C 0.4542 0.97701 0.14489 0.0
C896 C 0.47865 0.94371 0.2107 0.0
C897 C 0.40218 0.95359 0.15877 0.0
C898 C 0.38028 0.88141 0.21717 0.0
C899 C 0.37521 0.89222 0.2387 0.0
C900 C 0.40138 0.89959 0.19938 0.0
C901 C 0.41786 0.92934 0.2032 0.0
C902 C 0.41276 0.94044 0.22481 0.0
C903 C 0.39145 0.92174 0.24229 0.0
C904 C 0.40606 0.88695 0.1765 0.0
C905 C 0.42998 0.97203 0.22956 0.0
H906 H 0.51263 0.97698 0.17167 0.0
H907 H 0.44851 0.98545 0.12815 0.0
H908 H 0.47352 0.94973 0.22875 0.0
H909 H 0.46603 0.9201 0.21035 0.0
H910 H 0.50239 0.95169 0.211 0.0
H911 H 0.40011 0.9648 0.14149 0.0
H912 H 0.38665 0.93034 0.15656 0.0
H913 H 0.39547 0.95993 0.17567 0.0
H914 H 0.3675 0.85866 0.21409 0.0
H915 H 0.38785 0.93019 0.25903 0.0
H916 H 0.42906 0.89252 0.17661 0.0
H917 H 0.40228 0.89604 0.15854 0.0
H918 H 0.39128 0.86339 0.17622 0.0
H919 H 0.45368 0.98008 0.23154 0.0
H920 H 0.42313 0.97727 0.2471 0.0
H921 H 0.42717 0.98356 0.21297 0.0
C922 C 0.51582 0.42983 0.63668 0.0
C923 C 0.52911 0.45859 0.64243 0.0
C924 C 0.51018 0.40947 0.65609 0.0
C925 C 0.51604 0.41784 0.682 0.0
C926 C 0.52697 0.44648 0.68802 0.0
C927 C 0.53415 0.4667 0.66809 0.0
C928 C 0.49947 0.37937 0.64874 0.0
C929 C 0.53182 0.45599 0.71539 0.0
C930 C 0.48183 0.35467 0.72851 0.0
C931 C 0.50592 0.35242 0.7357 0.0
C932 C 0.48519 0.37719 0.7126 0.0
C933 C 0.51293 0.39703 0.70242 0.0
C934 C 0.53749 0.39561 0.71027 0.0
C935 C 0.53385 0.37398 0.72746 0.0
C936 C 0.4588 0.37905 0.70596 0.0
C937 C 0.5674 0.41597 0.69943 0.0
H938 H 0.51116 0.42353 0.61683 0.0
H939 H 0.544 0.48895 0.67254 0.0
H940 H 0.51524 0.37358 0.65609 0.0
H941 H 0.47813 0.3642 0.65757 0.0
H942 H 0.4968 0.37661 0.62767 0.0
H943 H 0.53356 0.47672 0.71681 0.0
H944 H 0.5137 0.43989 0.72753 0.0
H945 H 0.55246 0.45856 0.7233 0.0
H946 H 0.46003 0.33837 0.73443 0.0
H947 H 0.55297 0.37356 0.73373 0.0
H948 H 0.45044 0.371 0.68642 0.0
H949 H 0.46473 0.40149 0.70612 0.0
H950 H 0.4408 0.36619 0.71951 0.0
H951 H 0.56612 0.41482 0.67822 0.0
H952 H 0.584 0.41126 0.70677 0.0
H953 H 0.57509 0.43815 0.70427 0.0
C954 C 0.65359 0.94489 0.50727 0.0
C955 C 0.63505 0.95153 0.49336 0.0
C956 C 0.66506 0.93065 0.49584 0.0
C957 C 0.6571 0.92206 0.47015 0.0
C958 C 0.63849 0.92868 0.45598 0.0
C959 C 0.62812 0.94371 0.4676 0.0
C960 C 0.68553 0.92465 0.5113 0.0
C961 C 0.62918 0.91953 0.42859 0.0
C962 C 0.69968 0.90399 0.42795 0.0
C963 C 0.68257 0.87408 0.42865 0.0
C964 C 0.69275 0.91994 0.44269 0.0
C965 C 0.66767 0.90567 0.458 0.0
C966 C 0.65111 0.87554 0.45976 0.0
C967 C 0.659 0.86013 0.44532 0.0
C968 C 0.71134 0.95205 0.44071 0.0
C969 C 0.62394 0.85953 0.47557 0.0
H970 H 0.65883 0.95037 0.52726 0.0
H971 H 0.61451 0.94932 0.45639 0.0
H972 H 0.67536 0.90134 0.51387 0.0
H973 H 0.70613 0.93302 0.5009 0.0
H974 H 0.69105 0.93435 0.53049 0.0
H975 H 0.61389 0.92563 0.42049 0.0
H976 H 0.64866 0.92929 0.4164 0.0
H977 H 0.61826 0.89607 0.42752 0.0
H978 H 0.71763 0.91509 0.41485 0.0
H979 H 0.64597 0.83706 0.44633 0.0
H980 H 0.71603 0.96143 0.45998 0.0
H981 H 0.69929 0.96003 0.42928 0.0
H982 H 0.73243 0.95977 0.43134 0.0
H983 H 0.6288 0.86744 0.4954 0.0
H984 H 0.61469 0.83623 0.47633 0.0
H985 H 0.60698 0.86323 0.46721 0.0
C986 C 0.68039 0.52869 0.00449 0.0
C987 C 0.68365 0.54757 0.02308 0.0
C988 C 0.70283 0.53638 0.98738 0.0
C989 C 0.72908 0.56357 0.98905 0.0
C990 C 0.73254 0.58253 0.00816 0.0
C991 C 0.70967 0.57426 0.02499 0.0
C992 C 0.69827 0.51558 0.96727 0.0
C993 C 0.7602 0.61162 0.01057 0.0
C994 C 0.79528 0.57253 0.95705 0.0
C995 C 0.79481 0.58533 0.93346 0.0
C996 C 0.77446 0.56596 0.9756 0.0
C997 C 0.7526 0.57228 0.97041 0.0
C998 C 0.75245 0.58586 0.9469 0.0
C999 C 0.77357 0.59225 0.92872 0.0
C1000 C 0.77544 0.55166 0.00052 0.0
C1001 C 0.72942 0.59285 0.94062 0.0
H1002 H 0.66008 0.50807 0.00318 0.0
H1003 H 0.71191 0.58872 0.03948 0.0
H1004 H 0.69944 0.52504 0.94789 0.0
H1005 H 0.71594 0.51108 0.969 0.0
H1006 H 0.6768 0.49513 0.96887 0.0
H1007 H 0.75977 0.62345 0.02696 0.0
H1008 H 0.77949 0.60961 0.01311 0.0
H1009 H 0.76326 0.62437 0.99273 0.0
H1010 H 0.81185 0.56745 0.96093 0.0
H1011 H 0.77284 0.6018 0.91041 0.0
H1012 H 0.75523 0.53015 0.00211 0.0
H1013 H 0.77618 0.56401 0.01695 0.0
H1014 H 0.79468 0.54946 0.00211 0.0
H1015 H 0.70746 0.57289 0.93968 0.0
H1016 H 0.73321 0.60468 0.92206 0.0
H1017 H 0.72905 0.60582 0.95594 0.0
C1018 C 0.06634 0.56386 0.46451 0.0
C1019 C 0.0643 0.56554 0.49092 0.0
C1020 C 0.08208 0.58851 0.44921 0.0
C1021 C 0.09753 0.61545 0.46084 0.0
C1022 C 0.09467 0.61735 0.48737 0.0
C1023 C 0.07755 0.59231 0.50203 0.0
C1024 C 0.08365 0.58555 0.42084 0.0
C1025 C 0.11165 0.64551 0.50071 0.0
C1026 C 0.16764 0.66818 0.42704 0.0
C1027 C 0.16062 0.68674 0.41451 0.0
C1028 C 0.14778 0.64586 0.44311 0.0
C1029 C 0.11949 0.64088 0.44586 0.0
C1030 C 0.11199 0.65921 0.43324 0.0
C1031 C 0.13281 0.68225 0.41819 0.0
C1032 C 0.15696 0.62721 0.45674 0.0
C1033 C 0.08169 0.65398 0.43505 0.0
H1034 H 0.05663 0.54317 0.45595 0.0
H1035 H 0.07624 0.5935 0.52253 0.0
H1036 H 0.08111 0.60159 0.40972 0.0
H1037 H 0.10538 0.58936 0.41654 0.0
H1038 H 0.06651 0.56398 0.41418 0.0
H1039 H 0.1042 0.64387 0.52052 0.0
H1040 H 0.13523 0.65291 0.50166 0.0
H1041 H 0.10965 0.66198 0.48985 0.0
H1042 H 0.18851 0.67057 0.424 0.0
H1043 H 0.12709 0.69659 0.40922 0.0
H1044 H 0.14451 0.60562 0.44858 0.0
H1045 H 0.15192 0.62487 0.47738 0.0
H1046 H 0.18072 0.63592 0.455 0.0
H1047 H 0.06524 0.63281 0.4272 0.0
H1048 H 0.07942 0.67044 0.42439 0.0
H1049 H 0.0764 0.6536 0.45536 0.0
C1050 C 0.49574 0.10552 0.02076 0.0
C1051 C 0.51413 0.09641 0.01396 0.0
C1052 C 0.48815 0.12037 0.00299 0.0
C1053 C 0.49985 0.12673 0.97815 0.0
C1054 C 0.51893 0.11803 0.97146 0.0
C1055 C 0.52559 0.10272 0.98938 0.0
C1056 C 0.46728 0.1288 0.01058 0.0
C1057 C 0.53231 0.12485 0.94534 0.0
C1058 C 0.46464 0.14043 0.91984 0.0
C1059 C 0.48269 0.17014 0.91667 0.0
C1060 C 0.46874 0.12621 0.94079 0.0
C1061 C 0.49187 0.14195 0.95874 0.0
C1062 C 0.50929 0.17201 0.9564 0.0
C1063 C 0.50428 0.18577 0.93554 0.0
C1064 C 0.44939 0.09414 0.94285 0.0
C1065 C 0.53436 0.18953 0.97502 0.0
H1066 H 0.48686 0.10051 0.0398 0.0
H1067 H 0.54012 0.09595 0.9843 0.0
H1068 H 0.4776 0.15215 0.00813 0.0
H1069 H 0.44742 0.11849 0.99787 0.0
H1070 H 0.46048 0.12263 0.03076 0.0
H1071 H 0.54767 0.11758 0.9436 0.0
H1072 H 0.51478 0.11452 0.93034 0.0
H1073 H 0.54434 0.14816 0.94143 0.0
H1074 H 0.44816 0.128 0.90528 0.0
H1075 H 0.51794 0.20875 0.93358 0.0
H1076 H 0.44166 0.08726 0.96269 0.0
H1077 H 0.46213 0.08463 0.93825 0.0
H1078 H 0.43002 0.0855 0.92954 0.0
H1079 H 0.52699 0.18364 0.99504 0.0
H1080 H 0.54398 0.21276 0.97199 0.0
H1081 H 0.5518 0.18506 0.97271 0.0
C1082 C 0.4768 0.51295 0.47618 0.0
C1083 C 0.48744 0.49656 0.48704 0.0
C1084 C 0.45881 0.50433 0.45398 0.0
C1085 C 0.45163 0.47894 0.44203 0.0
C1086 C 0.46231 0.46232 0.45276 0.0
C1087 C 0.47989 0.47121 0.47524 0.0
C1088 C 0.44758 0.5225 0.44324 0.0
C1089 C 0.45523 0.4352 0.44046 0.0
C1090 C 0.38475 0.44529 0.39726 0.0
C1091 C 0.39743 0.45627 0.37339 0.0
C1092 C 0.40216 0.45206 0.41974 0.0
C1093 C 0.433 0.46993 0.41822 0.0
C1094 C 0.44595 0.48028 0.39402 0.0
C1095 C 0.42795 0.47356 0.37188 0.0
C1096 C 0.38745 0.44108 0.44518 0.0
C1097 C 0.47877 0.49903 0.3916 0.0
H1098 H 0.48289 0.53282 0.48481 0.0
H1099 H 0.48756 0.45813 0.48365 0.0
H1100 H 0.45585 0.53034 0.42368 0.0
H1101 H 0.4233 0.50958 0.44164 0.0
H1102 H 0.4544 0.54114 0.4553 0.0
H1103 H 0.46565 0.42494 0.45097 0.0
H1104 H 0.43118 0.41985 0.43969 0.0
H1105 H 0.46275 0.43978 0.42043 0.0
H1106 H 0.36108 0.43234 0.39844 0.0
H1107 H 0.43768 0.48205 0.35338 0.0
H1108 H 0.39121 0.45921 0.45653 0.0
H1109 H 0.39705 0.43049 0.4564 0.0
H1110 H 0.36344 0.42575 0.44291 0.0
H1111 H 0.4871 0.51949 0.40121 0.0
H1112 H 0.48543 0.50369 0.3713 0.0
H1113 H 0.4895 0.48868 0.4013 0.0
C1114 C 0.082 0.46531 0.90478 0.0
C1115 C 0.08989 0.46069 0.92961 0.0
C1116 C 0.06273 0.44242 0.88914 0.0
C1117 C 0.05148 0.41423 0.89839 0.0
C1118 C 0.0613 0.40947 0.92252 0.0
C1119 C 0.08024 0.43275 0.93794 0.0
C1120 C 0.05272 0.44841 0.86356 0.0
C1121 C 0.05019 0.37971 0.93287 0.0
C1122 C 0.9738 0.3584 0.878 0.0
C1123 C 0.97811 0.34426 0.85879 0.0
C1124 C 0.99753 0.38128 0.89078 0.0
C1125 C 0.02643 0.38999 0.88463 0.0
C1126 C 0.03108 0.37565 0.86554 0.0
C1127 C 0.00682 0.35302 0.85271 0.0
C1128 C 0.9916 0.39608 0.91097 0.0
C1129 C 0.06161 0.38414 0.85878 0.0
H1130 H 0.08996 0.48687 0.89793 0.0
H1131 H 0.08606 0.42887 0.95711 0.0
H1132 H 0.05363 0.43558 0.84841 0.0
H1133 H 0.02958 0.44222 0.86467 0.0
H1134 H 0.06617 0.47129 0.85779 0.0
H1135 H 0.06338 0.37968 0.9498 0.0
H1136 H 0.02714 0.36965 0.93867 0.0
H1137 H 0.0505 0.36633 0.91792 0.0
H1138 H 0.95176 0.35131 0.8834 0.0
H1139 H 0.01036 0.3423 0.83783 0.0
H1140 H 0.00257 0.41914 0.9061 0.0
H1141 H 0.00078 0.39411 0.92979 0.0
H1142 H 0.96783 0.38714 0.91296 0.0
H1143 H 0.07415 0.40662 0.85183 0.0
H1144 H 0.06148 0.37051 0.8438 0.0
H1145 H 0.07343 0.38268 0.8761 0.0
C1146 C 0.08786 0.61919 0.99253 0.0
C1147 C 0.09234 0.60018 0.98001 0.0
C1148 C 0.06707 0.6253 0.98288 0.0
C1149 C 0.05019 0.61156 0.96057 0.0
C1150 C 0.05553 0.59311 0.94744 0.0
C1151 C 0.07664 0.58771 0.95732 0.0
C1152 C 0.06236 0.6455 0.99707 0.0
C1153 C 0.0379 0.57787 0.92372 0.0
C1154 C 0.97289 0.59496 0.94965 0.0
C1155 C 0.9765 0.61363 0.92919 0.0
C1156 C 0.99698 0.59506 0.96096 0.0
C1157 C 0.02542 0.61458 0.9518 0.0
C1158 C 0.02945 0.63471 0.9323 0.0
C1159 C 0.00492 0.63387 0.92108 0.0
C1160 C 0.99173 0.57307 0.98159 0.0
C1161 C 0.05943 0.656 0.92215 0.0
H1162 H 0.09993 0.62851 0.01024 0.0
H1163 H 0.08001 0.5727 0.94797 0.0
H1164 H 0.06236 0.66145 0.98357 0.0
H1165 H 0.04065 0.63347 0.00609 0.0
H1166 H 0.07945 0.65685 0.01227 0.0
H1167 H 0.04606 0.56567 0.91492 0.0
H1168 H 0.01464 0.56288 0.92867 0.0
H1169 H 0.03851 0.59335 0.90926 0.0
H1170 H 0.95105 0.57952 0.95621 0.0
H1171 H 0.00795 0.64809 0.905 0.0
H1172 H 0.00645 0.58338 0.99846 0.0
H1173 H 0.99684 0.55783 0.97426 0.0
H1174 H 0.9687 0.56091 0.98794 0.0
H1175 H 0.07568 0.66612 0.93815 0.0
H1176 H 0.05947 0.67292 0.91002 0.0
H1177 H 0.06672 0.64489 0.91042 0.0
C1178 C 0.47937 0.94273 0.48307 0.0
C1179 C 0.48768 0.96748 0.49619 0.0
C1180 C 0.45619 0.93158 0.46497 0.0
C1181 C 0.44174 0.94621 0.4591 0.0
C1182 C 0.44993 0.97117 0.47243 0.0
C1183 C 0.47272 0.9814 0.49105 0.0
C1184 C 0.44779 0.90461 0.45155 0.0
C1185 C 0.43552 0.9877 0.46625 0.0
C1186 C 0.40718 0.9301 0.39235 0.0
C1187 C 0.37796 0.90952 0.3976 0.0
C1188 C 0.42785 0.94377 0.41234 0.0
C1189 C 0.41915 0.93592 0.43808 0.0
C1190 C 0.38935 0.91591 0.44341 0.0
C1191 C 0.36903 0.90314 0.42304 0.0
C1192 C 0.45929 0.96549 0.40588 0.0
C1193 C 0.3793 0.90648 0.47051 0.0
H1194 H 0.49155 0.93247 0.48653 0.0
H1195 H 0.47968 0.0009 0.50088 0.0
H1196 H 0.42384 0.88902 0.45259 0.0
H1197 H 0.45314 0.90944 0.431 0.0
H1198 H 0.4594 0.89451 0.45997 0.0
H1199 H 0.44319 0.0057 0.47939 0.0
H1200 H 0.44043 0.99632 0.44632 0.0
H1201 H 0.41137 0.9735 0.46737 0.0
H1202 H 0.41396 0.93492 0.37262 0.0
H1203 H 0.34644 0.88685 0.42702 0.0
H1204 H 0.47297 0.95645 0.41047 0.0
H1205 H 0.46803 0.98475 0.41756 0.0
H1206 H 0.46167 0.97196 0.38529 0.0
H1207 H 0.38816 0.89367 0.47845 0.0
H1208 H 0.35503 0.89334 0.47153 0.0
H1209 H 0.38779 0.92514 0.48292 0.0
C1210 C 0.53012 0.38828 0.99177 0.0
C1211 C 0.54597 0.41767 0.98634 0.0
C1212 C 0.52198 0.3686 0.97227 0.0
C1213 C 0.52995 0.37856 0.94675 0.0
C1214 C 0.54568 0.40819 0.94111 0.0
C1215 C 0.55348 0.42737 0.96097 0.0
C1216 C 0.50508 0.33716 0.979 0.0
C1217 C 0.55471 0.41964 0.91416 0.0
C1218 C 0.53527 0.33081 0.90056 0.0
C1219 C 0.50893 0.31971 0.88626 0.0
C1220 C 0.54232 0.3499 0.92034 0.0
C1221 C 0.52252 0.35806 0.92603 0.0
C1222 C 0.49582 0.34683 0.91177 0.0
C1223 C 0.48935 0.3278 0.89204 0.0
C1224 C 0.57097 0.36135 0.93516 0.0
C1225 C 0.47419 0.35508 0.91727 0.0
H1226 H 0.52396 0.38066 0.0113 0.0
H1227 H 0.56608 0.45007 0.9567 0.0
H1228 H 0.48422 0.32602 0.96762 0.0
H1229 H 0.5179 0.32783 0.97407 0.0
H1230 H 0.49999 0.33288 0.99966 0.0
H1231 H 0.56613 0.44321 0.91286 0.0
H1232 H 0.56953 0.41337 0.90726 0.0
H1233 H 0.5352 0.41029 0.90104 0.0
H1234 H 0.55028 0.32429 0.89648 0.0
H1235 H 0.46911 0.31955 0.88089 0.0
H1236 H 0.56676 0.35572 0.9558 0.0
H1237 H 0.58433 0.38494 0.93343 0.0
H1238 H 0.58396 0.3529 0.92834 0.0
H1239 H 0.46759 0.34984 0.93753 0.0
H1240 H 0.45419 0.34408 0.90472 0.0
H1241 H 0.4846 0.37841 0.91449 0.0
C1242 C 0.07732 0.43712 0.43033 0.0
C1243 C 0.07732 0.43058 0.45657 0.0
C1244 C 0.09425 0.43334 0.41339 0.0
C1245 C 0.11126 0.42231 0.42281 0.0
C1246 C 0.10975 0.41377 0.4489 0.0
C1247 C 0.09293 0.41816 0.46552 0.0
C1248 C 0.0953 0.44278 0.38571 0.0
C1249 C 0.12721 0.4015 0.45958 0.0
C1250 C 0.14519 0.40092 0.37351 0.0
C1251 C 0.17367 0.42523 0.37231 0.0
C1252 C 0.12477 0.39929 0.39032 0.0
C1253 C 0.13289 0.42265 0.40601 0.0
C1254 C 0.16166 0.44707 0.4051 0.0
C1255 C 0.18172 0.44795 0.38847 0.0
C1256 C 0.0944 0.37276 0.39103 0.0
C1257 C 0.17116 0.47253 0.42144 0.0
H1258 H 0.06477 0.44609 0.42314 0.0
H1259 H 0.09322 0.41317 0.48576 0.0
H1260 H 0.11743 0.46158 0.38174 0.0
H1261 H 0.09134 0.4257 0.3728 0.0
H1262 H 0.07891 0.44862 0.38095 0.0
H1263 H 0.12059 0.39236 0.47922 0.0
H1264 H 0.12452 0.38464 0.44701 0.0
H1265 H 0.15083 0.41847 0.46027 0.0
H1266 H 0.13865 0.38336 0.36097 0.0
H1267 H 0.20384 0.46653 0.38817 0.0
H1268 H 0.07803 0.37795 0.38424 0.0
H1269 H 0.089 0.36438 0.41099 0.0
H1270 H 0.09215 0.35575 0.3789 0.0
H1271 H 0.15709 0.48115 0.41686 0.0
H1272 H 0.19436 0.48983 0.41851 0.0
H1273 H 0.16847 0.46604 0.44199 0.0
C1274 C 0.67401 0.09253 0.03232 0.0
C1275 C 0.64587 0.08636 0.02566 0.0
C1276 C 0.69656 0.10588 0.01459 0.0
C1277 C 0.69055 0.11281 0.98964 0.0
C1278 C 0.66209 0.10672 0.98298 0.0
C1279 C 0.6401 0.09369 0.00117 0.0
C1280 C 0.72669 0.11233 0.02246 0.0
C1281 C 0.65476 0.1136 0.95654 0.0
C1282 C 0.75127 0.16852 0.94758 0.0
C1283 C 0.75459 0.15153 0.93079 0.0
C1284 C 0.7312 0.15622 0.96741 0.0
C1285 C 0.71384 0.12621 0.97031 0.0
C1286 C 0.71766 0.10897 0.95383 0.0
C1287 C 0.73813 0.12187 0.93431 0.0
C1288 C 0.72802 0.17531 0.98481 0.0
C1289 C 0.69937 0.07687 0.95622 0.0
H1290 H 0.67822 0.08668 0.05133 0.0
H1291 H 0.61821 0.0888 0.99621 0.0
H1292 H 0.73277 0.10054 0.01027 0.0
H1293 H 0.74317 0.13536 0.01951 0.0
H1294 H 0.72797 0.10643 0.04284 0.0
H1295 H 0.63156 0.10748 0.95448 0.0
H1296 H 0.66913 0.13675 0.95225 0.0
H1297 H 0.65885 0.10228 0.94198 0.0
H1298 H 0.76426 0.1915 0.94505 0.0
H1299 H 0.7405 0.1087 0.92121 0.0
H1300 H 0.73022 0.17 0.00515 0.0
H1301 H 0.70586 0.1718 0.98201 0.0
H1302 H 0.74456 0.19823 0.98113 0.0
H1303 H 0.70121 0.06987 0.97602 0.0
H1304 H 0.70601 0.06659 0.94271 0.0
H1305 H 0.67595 0.06919 0.95234 0.0
C1306 C 0.60374 0.61788 0.5001 0.0
C1307 C 0.61575 0.62675 0.52471 0.0
C1308 C 0.61281 0.63744 0.47946 0.0
C1309 C 0.63439 0.66648 0.48367 0.0
C1310 C 0.64625 0.67554 0.50868 0.0
C1311 C 0.63682 0.65545 0.52897 0.0
C1312 C 0.59966 0.62695 0.45309 0.0
C1313 C 0.66919 0.70633 0.5139 0.0
C1314 C 0.67735 0.71072 0.426 0.0
C1315 C 0.66257 0.72438 0.41863 0.0
C1316 C 0.66869 0.69211 0.44741 0.0
C1317 C 0.64477 0.68721 0.46178 0.0
C1318 C 0.63015 0.70138 0.45472 0.0
C1319 C 0.63922 0.7198 0.43322 0.0
C1320 C 0.68473 0.67727 0.45435 0.0
C1321 C 0.60467 0.69682 0.46967 0.0
H1322 H 0.58756 0.59552 0.49702 0.0
H1323 H 0.64617 0.66201 0.5481 0.0
H1324 H 0.58957 0.63868 0.44524 0.0
H1325 H 0.61712 0.63115 0.4399 0.0
H1326 H 0.58272 0.60378 0.4532 0.0
H1327 H 0.67544 0.71002 0.53456 0.0
H1328 H 0.6891 0.71309 0.50299 0.0
H1329 H 0.66099 0.72011 0.50729 0.0
H1330 H 0.69528 0.71407 0.41467 0.0
H1331 H 0.62807 0.73072 0.42784 0.0
H1332 H 0.66943 0.65389 0.4529 0.0
H1333 H 0.69307 0.68163 0.47448 0.0
H1334 H 0.70347 0.68411 0.44172 0.0
H1335 H 0.5865 0.67413 0.46891 0.0
H1336 H 0.59631 0.71022 0.46217 0.0
H1337 H 0.61131 0.70175 0.49012 0.0
C1338 C 0.5187 0.08178 0.59864 0.0
C1339 C 0.53109 0.06705 0.6097 0.0
C1340 C 0.50964 0.09567 0.61398 0.0
C1341 C 0.51322 0.09486 0.64095 0.0
C1342 C 0.52557 0.07989 0.65218 0.0
C1343 C 0.53437 0.06621 0.63643 0.0
C1344 C 0.49651 0.11139 0.60135 0.0
C1345 C 0.52997 0.07871 0.68086 0.0
C1346 C 0.51999 0.1526 0.68211 0.0
C1347 C 0.49256 0.13861 0.69353 0.0
C1348 C 0.52661 0.13895 0.66423 0.0
C1349 C 0.50524 0.11059 0.65756 0.0
C1350 C 0.47708 0.09672 0.66823 0.0
C1351 C 0.47105 0.11093 0.6861 0.0
C1352 C 0.55684 0.15453 0.6532 0.0
C1353 C 0.45374 0.06649 0.66154 0.0
H1354 H 0.51587 0.08226 0.578 0.0
H1355 H 0.54439 0.05527 0.64508 0.0
H1356 H 0.47453 0.10324 0.60903 0.0
H1357 H 0.51038 0.13435 0.60581 0.0
H1358 H 0.49439 0.10924 0.58021 0.0
H1359 H 0.539 0.06538 0.68659 0.0
H1360 H 0.54522 0.10054 0.688 0.0
H1361 H 0.50885 0.06999 0.69047 0.0
H1362 H 0.53649 0.17422 0.68743 0.0
H1363 H 0.44986 0.10001 0.69496 0.0
H1364 H 0.55527 0.15397 0.63198 0.0
H1365 H 0.56844 0.14378 0.65969 0.0
H1366 H 0.57027 0.17711 0.65907 0.0
H1367 H 0.45092 0.06424 0.64045 0.0
H1368 H 0.43227 0.05962 0.66974 0.0
H1369 H 0.46059 0.05187 0.66897 0.0
C1370 C 0.47666 0.45713 0.11948 0.0
C1371 C 0.50643 0.47638 0.12488 0.0
C1372 C 0.45537 0.45313 0.13649 0.0
C1373 C 0.46422 0.46871 0.15941 0.0
C1374 C 0.49444 0.48774 0.16513 0.0
C1375 C 0.51523 0.49134 0.14773 0.0
C1376 C 0.4234 0.43265 0.12972 0.0
C1377 C 0.50476 0.50466 0.18937 0.0
C1378 C 0.40947 0.48057 0.1902 0.0
C1379 C 0.39879 0.45976 0.20989 0.0
C1380 C 0.43084 0.48376 0.17371 0.0
C1381 C 0.44185 0.46574 0.177 0.0
C1382 C 0.43131 0.44481 0.19693 0.0
C1383 C 0.40988 0.44205 0.21312 0.0
C1384 C 0.44146 0.50626 0.1526 0.0
C1385 C 0.44263 0.42531 0.20112 0.0
H1386 H 0.47012 0.44556 0.10175 0.0
H1387 H 0.53839 0.50617 0.15174 0.0
H1388 H 0.41279 0.41642 0.14529 0.0
H1389 H 0.41197 0.4443 0.12778 0.0
H1390 H 0.42023 0.42159 0.11154 0.0
H1391 H 0.52903 0.51776 0.19138 0.0
H1392 H 0.49636 0.51898 0.1895 0.0
H1393 H 0.49591 0.49011 0.20633 0.0
H1394 H 0.40072 0.49407 0.18739 0.0
H1395 H 0.40197 0.42616 0.22851 0.0
H1396 H 0.4369 0.49615 0.1337 0.0
H1397 H 0.46553 0.52118 0.15458 0.0
H1398 H 0.43087 0.51871 0.15276 0.0
H1399 H 0.43835 0.41282 0.18368 0.0
H1400 H 0.43233 0.41028 0.2176 0.0
H1401 H 0.46671 0.43808 0.2046 0.0
C1402 C 0.96362 0.39913 0.61811 0.0
C1403 C 0.98401 0.39781 0.60372 0.0
C1404 C 0.94962 0.37983 0.63855 0.0
C1405 C 0.95653 0.35901 0.64483 0.0
C1406 C 0.97676 0.35733 0.62996 0.0
C1407 C 0.98984 0.37644 0.60925 0.0
C1408 C 0.92763 0.38185 0.65354 0.0
C1409 C 0.98502 0.33572 0.63623 0.0
C1410 C 0.94322 0.32991 0.71326 0.0
C1411 C 0.91737 0.30322 0.7103 0.0
C1412 C 0.95653 0.34804 0.692 0.0
C1413 C 0.94318 0.33948 0.66735 0.0
C1414 C 0.91699 0.31245 0.66433 0.0
C1415 C 0.90455 0.29446 0.68589 0.0
C1416 C 0.98478 0.37639 0.69593 0.0
C1417 C 0.90178 0.30284 0.63847 0.0
H1418 H 0.95877 0.41539 0.61339 0.0
H1419 H 0.00495 0.37494 0.5975 0.0
H1420 H 0.90652 0.36097 0.65391 0.0
H1421 H 0.9356 0.38723 0.67368 0.0
H1422 H 0.92359 0.39825 0.64535 0.0
H1423 H 0.00122 0.33733 0.62283 0.0
H1424 H 0.99445 0.33881 0.65601 0.0
H1425 H 0.96524 0.31386 0.63553 0.0
H1426 H 0.953 0.33652 0.73226 0.0
H1427 H 0.88436 0.27385 0.68381 0.0
H1428 H 0.98147 0.39395 0.69035 0.0
H1429 H 0.00188 0.37834 0.68349 0.0
H1430 H 0.993 0.37926 0.71614 0.0
H1431 H 0.89583 0.31802 0.63071 0.0
H1432 H 0.88159 0.2812 0.63939 0.0
H1433 H 0.91677 0.30275 0.62475 0.0
C1434 C 0.62662 0.98368 0.17308 0.0
C1435 C 0.62713 0.98569 0.1463 0.0
C1436 C 0.63866 0.96991 0.18676 0.0
C1437 C 0.65189 0.95831 0.17328 0.0
C1438 C 0.6537 0.96151 0.1463 0.0
C1439 C 0.64102 0.97495 0.13309 0.0
C1440 C 0.63594 0.96659 0.21551 0.0
C1441 C 0.66816 0.94993 0.13134 0.0
C1442 C 0.69696 0.93662 0.21424 0.0
C1443 C 0.67652 0.90744 0.21831 0.0
C1444 C 0.68974 0.95334 0.19868 0.0
C1445 C 0.66132 0.94062 0.18729 0.0
C1446 C 0.64105 0.911 0.1905 0.0
C1447 C 0.64902 0.89475 0.20572 0.0
C1448 C 0.7121 0.98478 0.19524 0.0
C1449 C 0.61047 0.89663 0.17873 0.0
H1450 H 0.6157 0.99184 0.18327 0.0
H1451 H 0.6417 0.97684 0.11236 0.0
H1452 H 0.62161 0.94368 0.22084 0.0
H1453 H 0.65769 0.97445 0.2249 0.0
H1454 H 0.62657 0.97825 0.2232 0.0
H1455 H 0.67062 0.95693 0.11089 0.0
H1456 H 0.6901 0.95685 0.13985 0.0
H1457 H 0.65485 0.92631 0.13229 0.0
H1458 H 0.7182 0.94663 0.22398 0.0
H1459 H 0.63337 0.87209 0.20824 0.0
H1460 H 0.70507 0.99716 0.20535 0.0
H1461 H 0.71379 0.99113 0.17466 0.0
H1462 H 0.73414 0.99072 0.20287 0.0
H1463 H 0.59855 0.90567 0.18666 0.0
H1464 H 0.59767 0.87324 0.18244 0.0
H1465 H 0.61145 0.90066 0.15773 0.0
C1466 C 0.64431 0.56988 0.70401 0.0
C1467 C 0.65705 0.58244 0.68044 0.0
C1468 C 0.66176 0.57245 0.72574 0.0
C1469 C 0.69262 0.58796 0.72379 0.0
C1470 C 0.70561 0.6019 0.70039 0.0
C1471 C 0.68766 0.59898 0.67901 0.0
C1472 C 0.64713 0.55727 0.75036 0.0
C1473 C 0.73845 0.61874 0.69756 0.0
C1474 C 0.74436 0.61027 0.78197 0.0
C1475 C 0.75201 0.58982 0.78249 0.0
C1476 C 0.72406 0.60932 0.76362 0.0
C1477 C 0.71132 0.58751 0.74533 0.0
C1478 C 0.7182 0.56626 0.74637 0.0
C1479 C 0.73846 0.56769 0.76491 0.0
C1480 C 0.71719 0.63229 0.76312 0.0
C1481 C 0.70528 0.54276 0.7271 0.0
H1482 H 0.62065 0.55687 0.70516 0.0
H1483 H 0.69759 0.60905 0.66091 0.0
H1484 H 0.6501 0.53918 0.75415 0.0
H1485 H 0.6574 0.5718 0.76674 0.0
H1486 H 0.62328 0.54887 0.74959 0.0
H1487 H 0.74514 0.62998 0.67866 0.0
H1488 H 0.74931 0.63469 0.71285 0.0
H1489 H 0.74664 0.60423 0.69969 0.0
H1490 H 0.75476 0.62736 0.79557 0.0
H1491 H 0.74476 0.55219 0.76483 0.0
H1492 H 0.69315 0.62269 0.76239 0.0
H1493 H 0.72611 0.64583 0.74559 0.0
H1494 H 0.7267 0.6461 0.78008 0.0
H1495 H 0.68106 0.53179 0.72617 0.0
H1496 H 0.71113 0.5267 0.73177 0.0
H1497 H 0.71339 0.55199 0.70777 0.0
C1498 C 0.20743 0.67393 0.0918 0.0
C1499 C 0.19495 0.64486 0.09769 0.0
C1500 C 0.21835 0.69411 0.11122 0.0
C1501 C 0.21659 0.68497 0.13714 0.0
C1502 C 0.2041 0.65569 0.1432 0.0
C1503 C 0.19356 0.63603 0.12342 0.0
C1504 C 0.23159 0.72515 0.10404 0.0
C1505 C 0.2018 0.6451 0.17063 0.0
C1506 C 0.26553 0.73518 0.18961 0.0
C1507 C 0.2462 0.74038 0.20153 0.0
C1508 C 0.25657 0.71814 0.16792 0.0
C1509 C 0.22751 0.70584 0.15809 0.0
C1510 C 0.20826 0.71191 0.16947 0.0
C1511 C 0.21787 0.72918 0.19103 0.0
C1512 C 0.27784 0.71243 0.15612 0.0
C1513 C 0.17707 0.69906 0.15964 0.0
H1514 H 0.20827 0.68089 0.07199 0.0
H1515 H 0.18443 0.6137 0.12812 0.0
H1516 H 0.21889 0.73306 0.1125 0.0
H1517 H 0.25432 0.738 0.11197 0.0
H1518 H 0.232 0.72887 0.08296 0.0
H1519 H 0.19135 0.62163 0.1721 0.0
H1520 H 0.22393 0.65539 0.1799 0.0
H1521 H 0.18879 0.65098 0.18159 0.0
H1522 H 0.28753 0.74404 0.19757 0.0
H1523 H 0.20274 0.73286 0.20038 0.0
H1524 H 0.27883 0.71693 0.13518 0.0
H1525 H 0.27018 0.68961 0.15891 0.0
H1526 H 0.30028 0.72548 0.16468 0.0
H1527 H 0.17657 0.70317 0.13872 0.0
H1528 H 0.16563 0.70763 0.16935 0.0
H1529 H 0.16471 0.67562 0.16278 0.0
loop_
_geom_bond_atom_site_label_1
_geom_bond_atom_site_label_2
_geom_bond_distance
_geom_bond_site_symmetry_2
_ccdc_geom_bond_type
C0 C1 1.443 . S
C0 N4 1.376 . S
C0 C38 1.389 . S
C1 C0 1.443 . S
C1 C2 1.340 1_556 S
C1 H41 0.951 . S
C2 C1 1.340 1_554 S
C2 C3 1.439 . S
C2 H42 0.950 . S
C3 C2 1.439 . S
C3 N4 1.374 1_554 S
C3 C37 1.395 . S
N4 C0 1.376 . S
N4 C3 1.374 1_556 S
N4 Co5 2.008 1_556 S
Co5 N4 2.008 1_554 S
Co5 N6 1.999 . S
Co5 N11 2.008 . S
Co5 N16 1.991 1_554 S
Co5 N21 2.286 . S
Co5 N27 2.279 1_554 S
N6 Co5 1.999 . S
N6 C7 1.376 . S
N6 C10 1.383 . S
C7 N6 1.376 . S
C7 C8 1.446 . S
C7 C37 1.391 . S
C8 C7 1.446 . S
C8 C9 1.339 . S
C8 H43 0.949 . S
C9 C8 1.339 . S
C9 C10 1.439 . S
C9 H44 0.950 . S
C10 N6 1.383 . S
C10 C9 1.439 . S
C10 C39 1.392 . S
N11 Co5 2.008 . S
N11 C12 1.376 . S
N11 C15 1.374 1_554 S
C12 N11 1.376 . S
C12 C13 1.443 . S
C12 C39 1.389 . S
C13 C12 1.443 . S
C13 C14 1.340 1_554 S
C13 H45 0.951 . S
C14 C13 1.340 1_556 S
C14 C15 1.439 . S
C14 H46 0.950 . S
C15 N11 1.374 1_556 S
C15 C14 1.439 . S
C15 C40 1.395 . S
N16 Co5 1.991 1_556 S
N16 C17 1.376 . S
N16 C20 1.383 . S
C17 N16 1.376 . S
C17 C18 1.446 . S
C17 C40 1.391 . S
C18 C17 1.446 . S
C18 C19 1.339 . S
C18 H47 0.949 . S
C19 C18 1.339 . S
C19 C20 1.439 . S
C19 H48 0.950 . S
C20 N16 1.383 . S
C20 C19 1.439 . S
C20 C38 1.392 . S
N21 Co5 2.286 . S
N21 C24 1.332 . S
N21 C26 1.332 . S
C22 C23 1.386 . S
C22 C25 1.388 . S
C23 C22 1.386 . S
C23 C24 1.382 . S
C23 H49 0.950 . S
C24 N21 1.332 . S
C24 C23 1.382 . S
C24 H35 0.952 . S
C25 C22 1.388 . S
C25 C26 1.382 . S
C25 H50 0.950 . S
C26 N21 1.332 . S
C26 C25 1.382 . S
C26 H36 0.948 . S
N27 Co5 2.279 1_556 S
N27 C31 1.332 . S
N27 C32 1.332 . S
C28 C29 1.388 . S
C28 C32 1.382 . S
C28 H51 0.950 . S
C29 C28 1.388 . S
C29 C30 1.386 . S
C30 C29 1.386 . S
C30 C31 1.382 . S
C30 H52 0.950 . S
C31 N27 1.332 . S
C31 C30 1.382 . S
C31 H33 0.952 . S
C32 N27 1.332 . S
C32 C28 1.382 . S
C32 H34 0.948 . S
H33 C31 0.952 . S
H34 C32 0.948 . S
H35 C24 0.952 . S
H36 C26 0.948 . S
C37 C3 1.395 . S
C37 C7 1.391 . S
C38 C0 1.389 . S
C38 C20 1.392 . S
C39 C10 1.392 . S
C39 C12 1.389 . S
C40 C15 1.395 . S
C40 C17 1.391 . S
H41 C1 0.951 . S
H42 C2 0.950 . S
H43 C8 0.949 . S
H44 C9 0.950 . S
H45 C13 0.951 . S
H46 C14 0.950 . S
H47 C18 0.949 . S
H48 C19 0.950 . S
H49 C23 0.950 . S
H50 C25 0.950 . S
H51 C28 0.950 . S
H52 C30 0.950 . S
C53 C54 1.443 . S
C53 N57 1.388 . S
C53 C91 1.389 . S
C54 C53 1.443 . S
C54 C55 1.340 1_545 S
C54 H94 0.951 . S
C55 C54 1.340 1_565 S
C55 C56 1.439 . S
C55 H95 0.950 . S
C56 C55 1.439 . S
C56 N57 1.350 1_565 S
C56 C90 1.395 . S
N57 C53 1.388 . S
N57 C56 1.350 1_545 S
N57 Co58 2.024 . S
Co58 N57 2.024 . S
Co58 N59 1.995 1_545 S
Co58 N64 2.008 . S
Co58 N69 1.995 . S
Co58 N74 2.282 1_545 S
Co58 N80 2.282 . S
N59 Co58 1.995 1_565 S
N59 C60 1.376 . S
N59 C63 1.383 . S
C60 N59 1.376 . S
C60 C61 1.446 . S
C60 C90 1.391 . S
C61 C60 1.446 . S
C61 C62 1.339 . S
C61 H96 0.949 . S
C62 C61 1.339 . S
C62 C63 1.439 . S
C62 H97 0.950 . S
C63 N59 1.383 . S
C63 C62 1.439 . S
C63 C92 1.392 . S
N64 Co58 2.008 . S
N64 C65 1.376 . S
N64 C68 1.374 . S
C65 N64 1.376 . S
C65 C66 1.443 . S
C65 C92 1.389 1_545 S
C66 C65 1.443 . S
C66 C67 1.340 . S
C66 H98 0.951 . S
C67 C66 1.340 . S
C67 C68 1.439 . S
C67 H99 0.950 . S
C68 N64 1.374 . S
C68 C67 1.439 . S
C68 C93 1.395 . S
N69 Co58 1.995 . S
N69 C70 1.376 . S
N69 C73 1.383 . S
C70 N69 1.376 . S
C70 C71 1.446 . S
C70 C93 1.391 . S
C71 C70 1.446 . S
C71 C72 1.339 . S
C71 H100 0.949 . S
C72 C71 1.339 . S
C72 C73 1.439 . S
C72 H101 0.950 . S
C73 N69 1.383 . S
C73 C72 1.439 . S
C73 C91 1.392 . S
N74 Co58 2.282 1_565 S
N74 C77 1.332 1_565 S
N74 C79 1.332 . S
C75 C76 1.386 . S
C75 C78 1.388 . S
C76 C75 1.386 . S
C76 C77 1.382 1_565 S
C76 H102 0.950 1_565 S
C77 N74 1.332 1_545 S
C77 C76 1.382 1_545 S
C77 H88 0.952 . S
C78 C75 1.388 . S
C78 C79 1.382 . S
C78 H103 0.950 . S
C79 N74 1.332 . S
C79 C78 1.382 . S
C79 H89 0.948 . S
N80 Co58 2.282 . S
N80 C84 1.332 . S
N80 C85 1.332 . S
C81 C82 1.388 . S
C81 C85 1.382 . S
C81 H104 0.950 . S
C82 C81 1.388 . S
C82 C83 1.386 . S
C83 C82 1.386 . S
C83 C84 1.382 . S
C83 H105 0.950 . S
C84 N80 1.332 . S
C84 C83 1.382 . S
C84 H86 0.952 1_545 S
C85 N80 1.332 . S
C85 C81 1.382 . S
C85 H87 0.948 . S
H86 C84 0.952 1_565 S
H87 C85 0.948 . S
H88 C77 0.952 . S
H89 C79 0.948 . S
C90 C56 1.395 . S
C90 C60 1.391 . S
C91 C53 1.389 . S
C91 C73 1.392 . S
C92 C63 1.392 . S
C92 C65 1.389 1_565 S
C93 C68 1.395 . S
C93 C70 1.391 . S
H94 C54 0.951 . S
H95 C55 0.950 . S
H96 C61 0.949 . S
H97 C62 0.950 . S
H98 C66 0.951 . S
H99 C67 0.950 . S
H100 C71 0.949 . S
H101 C72 0.950 . S
H102 C76 0.950 1_545 S
H103 C78 0.950 . S
H104 C81 0.950 . S
H105 C83 0.950 . S
C106 C107 1.443 . S
C106 N110 1.376 . S
C106 C144 1.389 . S
C107 C106 1.443 . S
C107 C108 1.340 . S
C107 H147 0.951 . S
C108 C107 1.340 . S
C108 C109 1.439 . S
C108 H148 0.950 . S
C109 C108 1.439 . S
C109 N110 1.374 . S
C109 C143 1.395 . S
N110 C106 1.376 . S
N110 C109 1.374 . S
N110 Co111 2.008 . S
Co111 N110 2.008 . S
Co111 N112 1.995 . S
Co111 N117 2.008 . S
Co111 N122 1.995 . S
Co111 N127 2.282 . S
Co111 N133 2.282 . S
N112 Co111 1.995 . S
N112 C113 1.376 . S
N112 C116 1.383 . S
C113 N112 1.376 . S
C113 C114 1.446 . S
C113 C143 1.391 . S
C114 C113 1.446 . S
C114 C115 1.339 . S
C114 H149 0.949 . S
C115 C114 1.339 . S
C115 C116 1.439 . S
C115 H150 0.950 . S
C116 N112 1.383 . S
C116 C115 1.439 . S
C116 C145 1.392 . S
N117 Co111 2.008 . S
N117 C118 1.376 . S
N117 C121 1.374 . S
C118 N117 1.376 . S
C118 C119 1.443 . S
C118 C145 1.389 . S
C119 C118 1.443 . S
C119 C120 1.340 . S
C119 H151 0.951 . S
C120 C119 1.340 . S
C120 C121 1.439 . S
C120 H152 0.950 . S
C121 N117 1.374 . S
C121 C120 1.439 . S
C121 C146 1.395 . S
N122 Co111 1.995 . S
N122 C123 1.376 . S
N122 C126 1.383 . S
C123 N122 1.376 . S
C123 C124 1.446 . S
C123 C146 1.391 . S
C124 C123 1.446 . S
C124 C125 1.339 . S
C124 H153 0.949 . S
C125 C124 1.339 . S
C125 C126 1.439 . S
C125 H154 0.950 . S
C126 N122 1.383 . S
C126 C125 1.439 . S
C126 C144 1.392 . S
N127 Co111 2.282 . S
N127 C130 1.332 . S
N127 C132 1.332 . S
C128 C129 1.386 . S
C128 C131 1.388 . S
C129 C128 1.386 . S
C129 C130 1.382 . S
C129 H155 0.950 . S
C130 N127 1.332 . S
C130 C129 1.382 . S
C130 H141 0.952 . S
C131 C128 1.388 . S
C131 C132 1.382 . S
C131 H156 0.950 . S
C132 N127 1.332 . S
C132 C131 1.382 . S
C132 H142 0.948 . S
N133 Co111 2.282 . S
N133 C137 1.332 . S
N133 C138 1.332 . S
C134 C135 1.388 . S
C134 C138 1.382 . S
C134 H157 0.950 . S
C135 C134 1.388 . S
C135 C136 1.386 . S
C136 C135 1.386 . S
C136 C137 1.382 . S
C136 H158 0.950 . S
C137 N133 1.332 . S
C137 C136 1.382 . S
C137 H139 0.952 . S
C138 N133 1.332 . S
C138 C134 1.382 . S
C138 H140 0.948 . S
H139 C137 0.952 . S
H140 C138 0.948 . S
H141 C130 0.952 . S
H142 C132 0.948 . S
C143 C109 1.395 . S
C143 C113 1.391 . S
C144 C106 1.389 . S
C144 C126 1.392 . S
C145 C116 1.392 . S
C145 C118 1.389 . S
C146 C121 1.395 . S
C146 C123 1.391 . S
H147 C107 0.951 . S
H148 C108 0.950 . S
H149 C114 0.949 . S
H150 C115 0.950 . S
H151 C119 0.951 . S
H152 C120 0.950 . S
H153 C124 0.949 . S
H154 C125 0.950 . S
H155 C129 0.950 . S
H156 C131 0.950 . S
H157 C134 0.950 . S
H158 C136 0.950 . S
C159 C160 1.443 . S
C159 N163 1.376 . S
C159 C197 1.389 . S
C160 C159 1.443 . S
C160 C161 1.340 . S
C160 H200 0.951 . S
C161 C160 1.340 . S
C161 C162 1.439 . S
C161 H201 0.950 . S
C162 C161 1.439 . S
C162 N163 1.374 . S
C162 C196 1.395 . S
N163 C159 1.376 . S
N163 C162 1.374 . S
N163 Co164 2.008 1_655 S
Co164 N163 2.008 1_455 S
Co164 N165 1.995 1_455 S
Co164 N170 2.008 . S
Co164 N175 1.995 . S
Co164 N180 2.282 . S
Co164 N186 2.282 1_455 S
N165 Co164 1.995 1_655 S
N165 C166 1.376 . S
N165 C169 1.383 1_655 S
C166 N165 1.376 . S
C166 C167 1.446 . S
C166 C196 1.391 . S
C167 C166 1.446 . S
C167 C168 1.339 . S
C167 H202 0.949 . S
C168 C167 1.339 . S
C168 C169 1.439 1_655 S
C168 H203 0.950 1_655 S
C169 N165 1.383 1_455 S
C169 C168 1.439 1_455 S
C169 C198 1.392 . S
N170 Co164 2.008 . S
N170 C171 1.376 . S
N170 C174 1.374 . S
C171 N170 1.376 . S
C171 C172 1.443 . S
C171 C198 1.389 . S
C172 C171 1.443 . S
C172 C173 1.340 . S
C172 H204 0.951 . S
C173 C172 1.340 . S
C173 C174 1.439 . S
C173 H205 0.950 . S
C174 N170 1.374 . S
C174 C173 1.439 . S
C174 C199 1.395 . S
N175 Co164 1.995 . S
N175 C176 1.376 . S
N175 C179 1.383 1_455 S
C176 N175 1.376 . S
C176 C177 1.446 . S
C176 C199 1.391 . S
C177 C176 1.446 . S
C177 C178 1.339 . S
C177 H206 0.949 . S
C178 C177 1.339 . S
C178 C179 1.439 1_455 S
C178 H207 0.950 . S
C179 N175 1.383 1_655 S
C179 C178 1.439 1_655 S
C179 C197 1.392 . S
N180 Co164 2.282 . S
N180 C183 1.332 . S
N180 C185 1.332 . S
C181 C182 1.386 . S
C181 C184 1.388 . S
C182 C181 1.386 . S
C182 C183 1.382 . S
C182 H208 0.950 . S
C183 N180 1.332 . S
C183 C182 1.382 . S
C183 H194 0.952 . S
C184 C181 1.388 . S
C184 C185 1.382 . S
C184 H209 0.950 . S
C185 N180 1.332 . S
C185 C184 1.382 . S
C185 H195 0.948 1_455 S
N186 Co164 2.282 1_655 S
N186 C190 1.332 . S
N186 C191 1.332 . S
C187 C188 1.388 . S
C187 C191 1.382 . S
C187 H210 0.950 . S
C188 C187 1.388 . S
C188 C189 1.386 . S
C189 C188 1.386 . S
C189 C190 1.382 . S
C189 H211 0.950 . S
C190 N186 1.332 . S
C190 C189 1.382 . S
C190 H192 0.952 . S
C191 N186 1.332 . S
C191 C187 1.382 . S
C191 H193 0.948 1_655 S
H192 C190 0.952 . S
H193 C191 0.948 1_455 S
H194 C183 0.952 . S
H195 C185 0.948 1_655 S
C196 C162 1.395 . S
C196 C166 1.391 . S
C197 C159 1.389 . S
C197 C179 1.392 . S
C198 C169 1.392 . S
C198 C171 1.389 . S
C199 C174 1.395 . S
C199 C176 1.391 . S
H200 C160 0.951 . S
H201 C161 0.950 . S
H202 C167 0.949 . S
H203 C168 0.950 1_455 S
H204 C172 0.951 . S
H205 C173 0.950 . S
H206 C177 0.949 . S
H207 C178 0.950 . S
H208 C182 0.950 . S
H209 C184 0.950 . S
H210 C187 0.950 . S
H211 C189 0.950 . S
C212 C213 1.443 . S
C212 N216 1.376 . S
C212 C250 1.389 . S
C213 C212 1.443 . S
C213 C214 1.340 . S
C213 H253 0.951 . S
C214 C213 1.340 . S
C214 C215 1.439 . S
C214 H254 0.950 . S
C215 C214 1.439 . S
C215 N216 1.374 . S
C215 C249 1.395 . S
N216 C212 1.376 . S
N216 C215 1.374 . S
N216 Co217 2.008 . S
Co217 N216 2.008 . S
Co217 N218 1.995 . S
Co217 N223 2.008 . S
Co217 N228 1.995 . S
Co217 N233 2.282 . S
Co217 N239 2.282 . S
N218 Co217 1.995 . S
N218 C219 1.376 . S
N218 C222 1.383 . S
C219 N218 1.376 . S
C219 C220 1.446 . S
C219 C249 1.391 . S
C220 C219 1.446 . S
C220 C221 1.339 . S
C220 H255 0.949 . S
C221 C220 1.339 . S
C221 C222 1.439 . S
C221 H256 0.950 . S
C222 N218 1.383 . S
C222 C221 1.439 . S
C222 C251 1.392 . S
N223 Co217 2.008 . S
N223 C224 1.376 . S
N223 C227 1.374 . S
C224 N223 1.376 . S
C224 C225 1.443 . S
C224 C251 1.389 . S
C225 C224 1.443 . S
C225 C226 1.340 . S
C225 H257 0.951 . S
C226 C225 1.340 . S
C226 C227 1.439 . S
C226 H258 0.950 . S
C227 N223 1.374 . S
C227 C226 1.439 . S
C227 C252 1.395 1_545 S
N228 Co217 1.995 . S
N228 C229 1.376 1_545 S
N228 C232 1.383 . S
C229 N228 1.376 1_565 S
C229 C230 1.446 . S
C229 C252 1.391 . S
C230 C229 1.446 . S
C230 C231 1.339 . S
C230 H259 0.949 . S
C231 C230 1.339 . S
C231 C232 1.439 1_565 S
C231 H260 0.950 . S
C232 N228 1.383 . S
C232 C231 1.439 1_545 S
C232 C250 1.392 . S
N233 Co217 2.282 . S
N233 C236 1.332 . S
N233 C238 1.332 . S
C234 C235 1.386 . S
C234 C237 1.388 . S
C235 C234 1.386 . S
C235 C236 1.382 . S
C235 H261 0.950 . S
C236 N233 1.332 . S
C236 C235 1.382 . S
C236 H247 0.952 . S
C237 C234 1.388 . S
C237 C238 1.382 . S
C237 H262 0.950 . S
C238 N233 1.332 . S
C238 C237 1.382 . S
C238 H248 0.948 . S
N239 Co217 2.282 . S
N239 C243 1.332 . S
N239 C244 1.332 . S
C240 C241 1.388 1_565 S
C240 C244 1.382 1_565 S
C240 H263 0.950 . S
C241 C240 1.388 1_545 S
C241 C242 1.386 . S
C242 C241 1.386 . S
C242 C243 1.382 . S
C242 H264 0.950 . S
C243 N239 1.332 . S
C243 C242 1.382 . S
C243 H245 0.952 . S
C244 N239 1.332 . S
C244 C240 1.382 1_545 S
C244 H246 0.948 1_545 S
H245 C243 0.952 . S
H246 C244 0.948 1_565 S
H247 C236 0.952 . S
H248 C238 0.948 . S
C249 C215 1.395 . S
C249 C219 1.391 . S
C250 C212 1.389 . S
C250 C232 1.392 . S
C251 C222 1.392 . S
C251 C224 1.389 . S
C252 C227 1.395 1_565 S
C252 C229 1.391 . S
H253 C213 0.951 . S
H254 C214 0.950 . S
H255 C220 0.949 . S
H256 C221 0.950 . S
H257 C225 0.951 . S
H258 C226 0.950 . S
H259 C230 0.949 . S
H260 C231 0.950 . S
H261 C235 0.950 . S
H262 C237 0.950 . S
H263 C240 0.950 . S
H264 C242 0.950 . S
C265 C266 1.443 . S
C265 N269 1.376 . S
C265 C303 1.389 . S
C266 C265 1.443 . S
C266 C267 1.340 . S
C266 H306 0.951 . S
C267 C266 1.340 . S
C267 C268 1.439 . S
C267 H307 0.950 . S
C268 C267 1.439 . S
C268 N269 1.374 . S
C268 C302 1.395 . S
N269 C265 1.376 . S
N269 C268 1.374 . S
N269 Co270 2.008 . S
Co270 N269 2.008 . S
Co270 N271 1.995 . S
Co270 N276 2.008 . S
Co270 N281 1.995 . S
Co270 N286 2.282 . S
Co270 N292 2.282 . S
N271 Co270 1.995 . S
N271 C272 1.376 . S
N271 C275 1.383 . S
C272 N271 1.376 . S
C272 C273 1.446 . S
C272 C302 1.391 . S
C273 C272 1.446 . S
C273 C274 1.339 . S
C273 H308 0.949 . S
C274 C273 1.339 . S
C274 C275 1.439 . S
C274 H309 0.950 . S
C275 N271 1.383 . S
C275 C274 1.439 . S
C275 C304 1.392 . S
N276 Co270 2.008 . S
N276 C277 1.376 . S
N276 C280 1.374 . S
C277 N276 1.376 . S
C277 C278 1.443 . S
C277 C304 1.389 . S
C278 C277 1.443 . S
C278 C279 1.340 . S
C278 H310 0.951 . S
C279 C278 1.340 . S
C279 C280 1.439 . S
C279 H311 0.950 . S
C280 N276 1.374 . S
C280 C279 1.439 . S
C280 C305 1.395 . S
N281 Co270 1.995 . S
N281 C282 1.376 . S
N281 C285 1.383 . S
C282 N281 1.376 . S
C282 C283 1.446 . S
C282 C305 1.391 . S
C283 C282 1.446 . S
C283 C284 1.339 . S
C283 H312 0.949 . S
C284 C283 1.339 . S
C284 C285 1.439 . S
C284 H313 0.950 . S
C285 N281 1.383 . S
C285 C284 1.439 . S
C285 C303 1.392 . S
N286 Co270 2.282 . S
N286 C289 1.332 . S
N286 C291 1.332 . S
C287 C288 1.386 . S
C287 C290 1.388 . S
C288 C287 1.386 . S
C288 C289 1.382 . S
C288 H314 0.950 . S
C289 N286 1.332 . S
C289 C288 1.382 . S
C289 H300 0.952 . S
C290 C287 1.388 . S
C290 C291 1.382 . S
C290 H315 0.950 . S
C291 N286 1.332 . S
C291 C290 1.382 . S
C291 H301 0.948 . S
N292 Co270 2.282 . S
N292 C296 1.332 . S
N292 C297 1.332 . S
C293 C294 1.388 . S
C293 C297 1.382 . S
C293 H316 0.950 . S
C294 C293 1.388 . S
C294 C295 1.386 . S
C295 C294 1.386 . S
C295 C296 1.382 . S
C295 H317 0.950 . S
C296 N292 1.332 . S
C296 C295 1.382 . S
C296 H298 0.952 . S
C297 N292 1.332 . S
C297 C293 1.382 . S
C297 H299 0.948 . S
H298 C296 0.952 . S
H299 C297 0.948 . S
H300 C289 0.952 . S
H301 C291 0.948 . S
C302 C268 1.395 . S
C302 C272 1.391 . S
C303 C265 1.389 . S
C303 C285 1.392 . S
C304 C275 1.392 . S
C304 C277 1.389 . S
C305 C280 1.395 . S
C305 C282 1.391 . S
H306 C266 0.951 . S
H307 C267 0.950 . S
H308 C273 0.949 . S
H309 C274 0.950 . S
H310 C278 0.951 . S
H311 C279 0.950 . S
H312 C283 0.949 . S
H313 C284 0.950 . S
H314 C288 0.950 . S
H315 C290 0.950 . S
H316 C293 0.950 . S
H317 C295 0.950 . S
H318 O344 0.856 . S
H319 O347 0.854 . S
H320 C355 0.930 . S
H321 C356 0.930 . S
H322 C358 0.930 . S
H323 C359 0.930 . S
H324 C361 0.931 . S
H325 C362 0.930 . S
H326 C364 0.930 . S
H327 C365 0.929 . S
H328 C367 0.930 . S
H329 C368 0.931 . S
H330 C370 0.930 . S
H331 C371 0.929 . S
H332 C373 0.931 . S
H333 C374 0.930 . S
H334 C376 0.930 . S
H335 C377 0.932 . S
H336 C379 0.930 . S
H337 C380 0.929 . S
H338 C382 0.931 . S
H339 C383 0.930 . S
H340 C385 0.929 . S
H341 C386 0.931 . S
H342 C388 0.930 . S
H343 C389 0.929 . S
O344 H318 0.856 . S
O344 C390 1.300 . S
O345 C390 1.209 . S
O346 C391 1.199 . S
O347 H319 0.854 . S
O347 C391 1.297 . S
C348 C349 1.404 . S
C348 C353 1.397 . S
C348 C354 1.492 . S
C349 C348 1.404 . S
C349 C350 1.396 . S
C349 C360 1.492 . S
C350 C349 1.396 . S
C350 C351 1.397 . S
C350 C366 1.509 . S
C351 C350 1.397 . S
C351 C352 1.412 . S
C351 C372 1.485 . S
C352 C351 1.412 . S
C352 C353 1.388 . S
C352 C378 1.490 . S
C353 C348 1.397 . S
C353 C352 1.388 . S
C353 C384 1.519 . S
C354 C348 1.492 . S
C354 C355 1.363 . S
C354 C359 1.390 . S
C355 H320 0.930 . S
C355 C354 1.363 . S
C355 C356 1.372 . S
C356 H321 0.930 . S
C356 C355 1.372 . S
C356 C357 1.383 . S
C357 C356 1.383 . S
C357 C358 1.395 . S
C358 H322 0.930 . S
C358 C357 1.395 . S
C358 C359 1.362 . S
C359 H323 0.930 . S
C359 C354 1.390 . S
C359 C358 1.362 . S
C360 C349 1.492 . S
C360 C361 1.377 . S
C360 C365 1.397 . S
C361 H324 0.931 . S
C361 C360 1.377 . S
C361 C362 1.376 . S
C362 H325 0.930 . S
C362 C361 1.376 . S
C362 C363 1.376 . S
C363 C362 1.376 . S
C363 C364 1.378 . S
C363 C390 1.486 . S
C364 H326 0.930 . S
C364 C363 1.378 . S
C364 C365 1.376 . S
C365 H327 0.929 . S
C365 C360 1.397 . S
C365 C364 1.376 . S
C366 C350 1.509 . S
C366 C367 1.391 . S
C366 C371 1.386 . S
C367 H328 0.930 . S
C367 C366 1.391 . S
C367 C368 1.375 . S
C368 H329 0.931 . S
C368 C367 1.375 . S
C368 C369 1.375 . S
C369 C368 1.375 . S
C369 C370 1.361 . S
C370 H330 0.930 . S
C370 C369 1.361 . S
C370 C371 1.399 . S
C371 H331 0.929 . S
C371 C366 1.386 . S
C371 C370 1.399 . S
C372 C351 1.485 . S
C372 C373 1.394 . S
C372 C377 1.360 . S
C373 H332 0.931 . S
C373 C372 1.394 . S
C373 C374 1.372 . S
C374 H333 0.930 . S
C374 C373 1.372 . S
C374 C375 1.397 . S
C375 C374 1.397 . S
C375 C376 1.390 . S
C375 C391 1.476 . S
C376 H334 0.930 . S
C376 C375 1.390 . S
C376 C377 1.366 . S
C377 H335 0.932 . S
C377 C372 1.360 . S
C377 C376 1.366 . S
C378 C352 1.490 . S
C378 C379 1.380 . S
C378 C383 1.386 . S
C379 H336 0.930 . S
C379 C378 1.380 . S
C379 C380 1.381 . S
C380 H337 0.929 . S
C380 C379 1.381 . S
C380 C381 1.371 . S
C381 C380 1.371 . S
C381 C382 1.380 . S
C382 H338 0.931 . S
C382 C381 1.380 . S
C382 C383 1.387 . S
C383 H339 0.930 . S
C383 C378 1.386 . S
C383 C382 1.387 . S
C384 C353 1.519 . S
C384 C385 1.377 . S
C384 C389 1.361 . S
C385 H340 0.929 . S
C385 C384 1.377 . S
C385 C386 1.386 . S
C386 H341 0.931 . S
C386 C385 1.386 . S
C386 C387 1.363 . S
C387 C386 1.363 . S
C387 C388 1.385 . S
C388 H342 0.930 . S
C388 C387 1.385 . S
C388 C389 1.396 . S
C389 H343 0.929 . S
C389 C384 1.361 . S
C389 C388 1.396 . S
C390 O344 1.300 . S
C390 O345 1.209 . S
C390 C363 1.486 . S
C391 O346 1.199 . S
C391 O347 1.297 . S
C391 C375 1.476 . S
H392 O418 0.856 . S
H393 O421 0.854 . S
H394 C429 0.930 . S
H395 C430 0.930 . S
H396 C432 0.930 . S
H397 C433 0.930 . S
H398 C435 0.931 . S
H399 C436 0.930 . S
H400 C438 0.930 . S
H401 C439 0.929 . S
H402 C441 0.930 . S
H403 C442 0.931 . S
H404 C444 0.930 . S
H405 C445 0.929 . S
H406 C447 0.931 . S
H407 C448 0.930 . S
H408 C450 0.930 . S
H409 C451 0.932 . S
H410 C453 0.930 . S
H411 C454 0.929 . S
H412 C456 0.931 . S
H413 C457 0.930 . S
H414 C459 0.929 . S
H415 C460 0.931 . S
H416 C462 0.930 . S
H417 C463 0.929 . S
O418 H392 0.856 . S
O418 C464 1.300 . S
O419 C464 1.209 . S
O420 C465 1.199 . S
O421 H393 0.854 . S
O421 C465 1.297 . S
C422 C423 1.404 . S
C422 C427 1.397 . S
C422 C428 1.492 . S
C423 C422 1.404 . S
C423 C424 1.396 . S
C423 C434 1.492 . S
C424 C423 1.396 . S
C424 C425 1.397 . S
C424 C440 1.509 . S
C425 C424 1.397 . S
C425 C426 1.412 . S
C425 C446 1.485 . S
C426 C425 1.412 . S
C426 C427 1.388 . S
C426 C452 1.490 . S
C427 C422 1.397 . S
C427 C426 1.388 . S
C427 C458 1.519 . S
C428 C422 1.492 . S
C428 C429 1.363 . S
C428 C433 1.390 . S
C429 H394 0.930 . S
C429 C428 1.363 . S
C429 C430 1.372 . S
C430 H395 0.930 . S
C430 C429 1.372 . S
C430 C431 1.383 . S
C431 C430 1.383 . S
C431 C432 1.395 . S
C432 H396 0.930 . S
C432 C431 1.395 . S
C432 C433 1.362 . S
C433 H397 0.930 . S
C433 C428 1.390 . S
C433 C432 1.362 . S
C434 C423 1.492 . S
C434 C435 1.377 . S
C434 C439 1.397 . S
C435 H398 0.931 . S
C435 C434 1.377 . S
C435 C436 1.376 . S
C436 H399 0.930 . S
C436 C435 1.376 . S
C436 C437 1.376 . S
C437 C436 1.376 . S
C437 C438 1.378 . S
C437 C464 1.486 . S
C438 H400 0.930 . S
C438 C437 1.378 . S
C438 C439 1.376 . S
C439 H401 0.929 . S
C439 C434 1.397 . S
C439 C438 1.376 . S
C440 C424 1.509 . S
C440 C441 1.391 . S
C440 C445 1.386 . S
C441 H402 0.930 . S
C441 C440 1.391 . S
C441 C442 1.375 . S
C442 H403 0.931 . S
C442 C441 1.375 . S
C442 C443 1.375 . S
C443 C442 1.375 . S
C443 C444 1.361 . S
C444 H404 0.930 . S
C444 C443 1.361 . S
C444 C445 1.399 . S
C445 H405 0.929 . S
C445 C440 1.386 . S
C445 C444 1.399 . S
C446 C425 1.485 . S
C446 C447 1.394 . S
C446 C451 1.360 . S
C447 H406 0.931 . S
C447 C446 1.394 . S
C447 C448 1.372 . S
C448 H407 0.930 . S
C448 C447 1.372 . S
C448 C449 1.397 . S
C449 C448 1.397 . S
C449 C450 1.390 . S
C449 C465 1.476 . S
C450 H408 0.930 . S
C450 C449 1.390 . S
C450 C451 1.366 . S
C451 H409 0.932 . S
C451 C446 1.360 . S
C451 C450 1.366 . S
C452 C426 1.490 . S
C452 C453 1.380 . S
C452 C457 1.386 . S
C453 H410 0.930 . S
C453 C452 1.380 . S
C453 C454 1.381 . S
C454 H411 0.929 . S
C454 C453 1.381 . S
C454 C455 1.371 . S
C455 C454 1.371 . S
C455 C456 1.380 . S
C456 H412 0.931 . S
C456 C455 1.380 . S
C456 C457 1.387 . S
C457 H413 0.930 . S
C457 C452 1.386 . S
C457 C456 1.387 . S
C458 C427 1.519 . S
C458 C459 1.377 . S
C458 C463 1.361 . S
C459 H414 0.929 . S
C459 C458 1.377 . S
C459 C460 1.386 . S
C460 H415 0.931 . S
C460 C459 1.386 . S
C460 C461 1.363 . S
C461 C460 1.363 . S
C461 C462 1.385 . S
C462 H416 0.930 . S
C462 C461 1.385 . S
C462 C463 1.396 . S
C463 H417 0.929 . S
C463 C458 1.361 . S
C463 C462 1.396 . S
C464 O418 1.300 . S
C464 O419 1.209 . S
C464 C437 1.486 . S
C465 O420 1.199 . S
C465 O421 1.297 . S
C465 C449 1.476 . S
H466 O492 0.856 . S
H467 O495 0.854 1_545 S
H468 C503 0.930 . S
H469 C504 0.930 . S
H470 C506 0.930 . S
H471 C507 0.930 . S
H472 C509 0.931 . S
H473 C510 0.930 . S
H474 C512 0.930 . S
H475 C513 0.929 . S
H476 C515 0.930 . S
H477 C516 0.931 . S
H478 C518 0.930 . S
H479 C519 0.929 . S
H480 C521 0.931 . S
H481 C522 0.930 . S
H482 C524 0.930 . S
H483 C525 0.932 . S
H484 C527 0.930 . S
H485 C528 0.929 . S
H486 C530 0.931 . S
H487 C531 0.930 . S
H488 C533 0.929 . S
H489 C534 0.931 . S
H490 C536 0.930 . S
H491 C537 0.929 . S
O492 H466 0.856 . S
O492 C538 1.300 . S
O493 C538 1.209 . S
O494 C539 1.199 . S
O495 H467 0.854 1_565 S
O495 C539 1.297 . S
C496 C497 1.404 . S
C496 C501 1.397 . S
C496 C502 1.492 . S
C497 C496 1.404 . S
C497 C498 1.396 . S
C497 C508 1.492 . S
C498 C497 1.396 . S
C498 C499 1.397 . S
C498 C514 1.509 . S
C499 C498 1.397 . S
C499 C500 1.412 . S
C499 C520 1.485 . S
C500 C499 1.412 . S
C500 C501 1.388 . S
C500 C526 1.490 . S
C501 C496 1.397 . S
C501 C500 1.388 . S
C501 C532 1.519 . S
C502 C496 1.492 . S
C502 C503 1.363 . S
C502 C507 1.390 . S
C503 H468 0.930 . S
C503 C502 1.363 . S
C503 C504 1.372 . S
C504 H469 0.930 . S
C504 C503 1.372 . S
C504 C505 1.383 . S
C505 C504 1.383 . S
C505 C506 1.395 . S
C506 H470 0.930 . S
C506 C505 1.395 . S
C506 C507 1.362 . S
C507 H471 0.930 . S
C507 C502 1.390 . S
C507 C506 1.362 . S
C508 C497 1.492 . S
C508 C509 1.377 . S
C508 C513 1.397 . S
C509 H472 0.931 . S
C509 C508 1.377 . S
C509 C510 1.376 . S
C510 H473 0.930 . S
C510 C509 1.376 . S
C510 C511 1.376 . S
C511 C510 1.376 . S
C511 C512 1.378 . S
C511 C538 1.486 . S
C512 H474 0.930 . S
C512 C511 1.378 . S
C512 C513 1.376 . S
C513 H475 0.929 . S
C513 C508 1.397 . S
C513 C512 1.376 . S
C514 C498 1.509 . S
C514 C515 1.391 . S
C514 C519 1.386 . S
C515 H476 0.930 . S
C515 C514 1.391 . S
C515 C516 1.375 . S
C516 H477 0.931 . S
C516 C515 1.375 . S
C516 C517 1.375 . S
C517 C516 1.375 . S
C517 C518 1.361 . S
C518 H478 0.930 . S
C518 C517 1.361 . S
C518 C519 1.399 . S
C519 H479 0.929 . S
C519 C514 1.386 . S
C519 C518 1.399 . S
C520 C499 1.485 . S
C520 C521 1.394 . S
C520 C525 1.360 . S
C521 H480 0.931 . S
C521 C520 1.394 . S
C521 C522 1.372 . S
C522 H481 0.930 . S
C522 C521 1.372 . S
C522 C523 1.397 . S
C523 C522 1.397 . S
C523 C524 1.390 . S
C523 C539 1.476 . S
C524 H482 0.930 . S
C524 C523 1.390 . S
C524 C525 1.366 . S
C525 H483 0.932 . S
C525 C520 1.360 . S
C525 C524 1.366 . S
C526 C500 1.490 . S
C526 C527 1.380 . S
C526 C531 1.386 . S
C527 H484 0.930 . S
C527 C526 1.380 . S
C527 C528 1.381 . S
C528 H485 0.929 . S
C528 C527 1.381 . S
C528 C529 1.371 . S
C529 C528 1.371 . S
C529 C530 1.380 . S
C530 H486 0.931 . S
C530 C529 1.380 . S
C530 C531 1.387 . S
C531 H487 0.930 . S
C531 C526 1.386 . S
C531 C530 1.387 . S
C532 C501 1.519 . S
C532 C533 1.377 . S
C532 C537 1.361 . S
C533 H488 0.929 . S
C533 C532 1.377 . S
C533 C534 1.386 . S
C534 H489 0.931 . S
C534 C533 1.386 . S
C534 C535 1.363 . S
C535 C534 1.363 . S
C535 C536 1.385 . S
C536 H490 0.930 . S
C536 C535 1.385 . S
C536 C537 1.396 . S
C537 H491 0.929 . S
C537 C532 1.361 . S
C537 C536 1.396 . S
C538 O492 1.300 . S
C538 O493 1.209 . S
C538 C511 1.486 . S
C539 O494 1.199 . S
C539 O495 1.297 . S
C539 C523 1.476 . S
H540 O566 0.856 . S
H541 O569 0.854 . S
H542 C577 0.930 . S
H543 C578 0.930 . S
H544 C580 0.930 . S
H545 C581 0.930 . S
H546 C583 0.931 . S
H547 C584 0.930 . S
H548 C586 0.930 . S
H549 C587 0.929 . S
H550 C589 0.930 . S
H551 C590 0.931 . S
H552 C592 0.930 . S
H553 C593 0.929 . S
H554 C595 0.931 . S
H555 C596 0.930 . S
H556 C598 0.930 . S
H557 C599 0.932 . S
H558 C601 0.930 . S
H559 C602 0.929 . S
H560 C604 0.931 . S
H561 C605 0.930 . S
H562 C607 0.929 . S
H563 C608 0.931 . S
H564 C610 0.930 . S
H565 C611 0.929 . S
O566 H540 0.856 . S
O566 C612 1.300 . S
O567 C612 1.209 . S
O568 C613 1.199 . S
O569 H541 0.854 . S
O569 C613 1.297 . S
C570 C571 1.404 . S
C570 C575 1.397 . S
C570 C576 1.492 . S
C571 C570 1.404 . S
C571 C572 1.396 . S
C571 C582 1.492 . S
C572 C571 1.396 . S
C572 C573 1.397 . S
C572 C588 1.509 . S
C573 C572 1.397 . S
C573 C574 1.412 . S
C573 C594 1.485 . S
C574 C573 1.412 . S
C574 C575 1.388 . S
C574 C600 1.490 . S
C575 C570 1.397 . S
C575 C574 1.388 . S
C575 C606 1.519 . S
C576 C570 1.492 . S
C576 C577 1.363 . S
C576 C581 1.390 . S
C577 H542 0.930 . S
C577 C576 1.363 . S
C577 C578 1.372 . S
C578 H543 0.930 . S
C578 C577 1.372 . S
C578 C579 1.383 . S
C579 C578 1.383 . S
C579 C580 1.395 . S
C580 H544 0.930 . S
C580 C579 1.395 . S
C580 C581 1.362 . S
C581 H545 0.930 . S
C581 C576 1.390 . S
C581 C580 1.362 . S
C582 C571 1.492 . S
C582 C583 1.377 . S
C582 C587 1.397 . S
C583 H546 0.931 . S
C583 C582 1.377 . S
C583 C584 1.376 . S
C584 H547 0.930 . S
C584 C583 1.376 . S
C584 C585 1.376 . S
C585 C584 1.376 . S
C585 C586 1.378 . S
C585 C612 1.486 . S
C586 H548 0.930 . S
C586 C585 1.378 . S
C586 C587 1.376 . S
C587 H549 0.929 . S
C587 C582 1.397 . S
C587 C586 1.376 . S
C588 C572 1.509 . S
C588 C589 1.391 . S
C588 C593 1.386 . S
C589 H550 0.930 . S
C589 C588 1.391 . S
C589 C590 1.375 . S
C590 H551 0.931 . S
C590 C589 1.375 . S
C590 C591 1.375 . S
C591 C590 1.375 . S
C591 C592 1.361 . S
C592 H552 0.930 . S
C592 C591 1.361 . S
C592 C593 1.399 . S
C593 H553 0.929 . S
C593 C588 1.386 . S
C593 C592 1.399 . S
C594 C573 1.485 . S
C594 C595 1.394 . S
C594 C599 1.360 . S
C595 H554 0.931 . S
C595 C594 1.394 . S
C595 C596 1.372 1_655 S
C596 H555 0.930 . S
C596 C595 1.372 1_455 S
C596 C597 1.397 . S
C597 C596 1.397 . S
C597 C598 1.390 1_455 S
C597 C613 1.476 . S
C598 H556 0.930 . S
C598 C597 1.390 1_655 S
C598 C599 1.366 . S
C599 H557 0.932 . S
C599 C594 1.360 . S
C599 C598 1.366 . S
C600 C574 1.490 . S
C600 C601 1.380 . S
C600 C605 1.386 . S
C601 H558 0.930 . S
C601 C600 1.380 . S
C601 C602 1.381 . S
C602 H559 0.929 . S
C602 C601 1.381 . S
C602 C603 1.371 . S
C603 C602 1.371 . S
C603 C604 1.380 . S
C604 H560 0.931 . S
C604 C603 1.380 . S
C604 C605 1.387 . S
C605 H561 0.930 . S
C605 C600 1.386 . S
C605 C604 1.387 . S
C606 C575 1.519 . S
C606 C607 1.377 . S
C606 C611 1.361 . S
C607 H562 0.929 . S
C607 C606 1.377 . S
C607 C608 1.386 . S
C608 H563 0.931 . S
C608 C607 1.386 . S
C608 C609 1.363 . S
C609 C608 1.363 . S
C609 C610 1.385 . S
C610 H564 0.930 . S
C610 C609 1.385 . S
C610 C611 1.396 . S
C611 H565 0.929 . S
C611 C606 1.361 . S
C611 C610 1.396 . S
C612 O566 1.300 . S
C612 O567 1.209 . S
C612 C585 1.486 . S
C613 O568 1.199 . S
C613 O569 1.297 . S
C613 C597 1.476 . S
H614 O640 0.856 . S
H615 O643 0.854 . S
H616 C651 0.930 . S
H617 C652 0.930 . S
H618 C654 0.930 . S
H619 C655 0.930 . S
H620 C657 0.931 . S
H621 C658 0.930 . S
H622 C660 0.930 . S
H623 C661 0.929 . S
H624 C663 0.930 . S
H625 C664 0.931 . S
H626 C666 0.930 . S
H627 C667 0.929 . S
H628 C669 0.931 . S
H629 C670 0.930 . S
H630 C672 0.930 . S
H631 C673 0.932 . S
H632 C675 0.930 . S
H633 C676 0.929 . S
H634 C678 0.931 . S
H635 C679 0.930 . S
H636 C681 0.929 . S
H637 C682 0.931 . S
H638 C684 0.930 . S
H639 C685 0.929 . S
O640 H614 0.856 . S
O640 C686 1.300 . S
O641 C686 1.209 . S
O642 C687 1.199 . S
O643 H615 0.854 . S
O643 C687 1.297 . S
C644 C645 1.404 . S
C644 C649 1.397 . S
C644 C650 1.492 . S
C645 C644 1.404 . S
C645 C646 1.396 . S
C645 C656 1.492 . S
C646 C645 1.396 . S
C646 C647 1.397 . S
C646 C662 1.509 . S
C647 C646 1.397 . S
C647 C648 1.412 . S
C647 C668 1.485 . S
C648 C647 1.412 . S
C648 C649 1.388 . S
C648 C674 1.490 . S
C649 C644 1.397 . S
C649 C648 1.388 . S
C649 C680 1.519 . S
C650 C644 1.492 . S
C650 C651 1.363 . S
C650 C655 1.390 . S
C651 H616 0.930 . S
C651 C650 1.363 . S
C651 C652 1.372 . S
C652 H617 0.930 . S
C652 C651 1.372 . S
C652 C653 1.383 . S
C653 C652 1.383 . S
C653 C654 1.395 . S
C654 H618 0.930 . S
C654 C653 1.395 . S
C654 C655 1.362 . S
C655 H619 0.930 . S
C655 C650 1.390 . S
C655 C654 1.362 . S
C656 C645 1.492 . S
C656 C657 1.377 . S
C656 C661 1.397 . S
C657 H620 0.931 . S
C657 C656 1.377 . S
C657 C658 1.376 . S
C658 H621 0.930 . S
C658 C657 1.376 . S
C658 C659 1.376 . S
C659 C658 1.376 . S
C659 C660 1.378 . S
C659 C686 1.486 . S
C660 H622 0.930 . S
C660 C659 1.378 . S
C660 C661 1.376 . S
C661 H623 0.929 . S
C661 C656 1.397 . S
C661 C660 1.376 . S
C662 C646 1.509 . S
C662 C663 1.391 . S
C662 C667 1.386 . S
C663 H624 0.930 . S
C663 C662 1.391 . S
C663 C664 1.375 . S
C664 H625 0.931 . S
C664 C663 1.375 . S
C664 C665 1.375 . S
C665 C664 1.375 . S
C665 C666 1.361 . S
C666 H626 0.930 . S
C666 C665 1.361 . S
C666 C667 1.399 . S
C667 H627 0.929 . S
C667 C662 1.386 . S
C667 C666 1.399 . S
C668 C647 1.485 . S
C668 C669 1.394 . S
C668 C673 1.360 . S
C669 H628 0.931 . S
C669 C668 1.394 . S
C669 C670 1.372 . S
C670 H629 0.930 . S
C670 C669 1.372 . S
C670 C671 1.397 . S
C671 C670 1.397 . S
C671 C672 1.390 . S
C671 C687 1.476 . S
C672 H630 0.930 . S
C672 C671 1.390 . S
C672 C673 1.366 . S
C673 H631 0.932 . S
C673 C668 1.360 . S
C673 C672 1.366 . S
C674 C648 1.490 . S
C674 C675 1.380 . S
C674 C679 1.386 . S
C675 H632 0.930 . S
C675 C674 1.380 . S
C675 C676 1.381 . S
C676 H633 0.929 . S
C676 C675 1.381 . S
C676 C677 1.371 . S
C677 C676 1.371 . S
C677 C678 1.380 . S
C678 H634 0.931 . S
C678 C677 1.380 . S
C678 C679 1.387 . S
C679 H635 0.930 . S
C679 C674 1.386 . S
C679 C678 1.387 . S
C680 C649 1.519 . S
C680 C681 1.377 . S
C680 C685 1.361 . S
C681 H636 0.929 . S
C681 C680 1.377 . S
C681 C682 1.386 . S
C682 H637 0.931 . S
C682 C681 1.386 . S
C682 C683 1.363 . S
C683 C682 1.363 . S
C683 C684 1.385 . S
C684 H638 0.930 . S
C684 C683 1.385 . S
C684 C685 1.396 . S
C685 H639 0.929 . S
C685 C680 1.361 . S
C685 C684 1.396 . S
C686 O640 1.300 . S
C686 O641 1.209 . S
C686 C659 1.486 . S
C687 O642 1.199 . S
C687 O643 1.297 . S
C687 C671 1.476 . S
H688 O714 0.856 . S
H689 O717 0.854 . S
H690 C725 0.930 . S
H691 C726 0.930 . S
H692 C728 0.930 . S
H693 C729 0.930 . S
H694 C731 0.931 . S
H695 C732 0.930 . S
H696 C734 0.930 . S
H697 C735 0.929 . S
H698 C737 0.930 . S
H699 C738 0.931 . S
H700 C740 0.930 . S
H701 C741 0.929 . S
H702 C743 0.931 . S
H703 C744 0.930 . S
H704 C746 0.930 . S
H705 C747 0.932 . S
H706 C749 0.930 . S
H707 C750 0.929 . S
H708 C752 0.931 . S
H709 C753 0.930 . S
H710 C755 0.929 . S
H711 C756 0.931 . S
H712 C758 0.930 . S
H713 C759 0.929 . S
O714 H688 0.856 . S
O714 C760 1.300 . S
O715 C760 1.209 . S
O716 C761 1.199 . S
O717 H689 0.854 . S
O717 C761 1.297 . S
C718 C719 1.404 . S
C718 C723 1.397 . S
C718 C724 1.492 . S
C719 C718 1.404 . S
C719 C720 1.396 . S
C719 C730 1.492 . S
C720 C719 1.396 . S
C720 C721 1.397 . S
C720 C736 1.509 . S
C721 C720 1.397 . S
C721 C722 1.412 . S
C721 C742 1.485 . S
C722 C721 1.412 . S
C722 C723 1.388 . S
C722 C748 1.490 . S
C723 C718 1.397 . S
C723 C722 1.388 . S
C723 C754 1.519 . S
C724 C718 1.492 . S
C724 C725 1.363 . S
C724 C729 1.390 . S
C725 H690 0.930 . S
C725 C724 1.363 . S
C725 C726 1.372 . S
C726 H691 0.930 . S
C726 C725 1.372 . S
C726 C727 1.383 . S
C727 C726 1.383 . S
C727 C728 1.395 . S
C728 H692 0.930 . S
C728 C727 1.395 . S
C728 C729 1.362 . S
C729 H693 0.930 . S
C729 C724 1.390 . S
C729 C728 1.362 . S
C730 C719 1.492 . S
C730 C731 1.377 . S
C730 C735 1.397 . S
C731 H694 0.931 . S
C731 C730 1.377 . S
C731 C732 1.376 . S
C732 H695 0.930 . S
C732 C731 1.376 . S
C732 C733 1.376 . S
C733 C732 1.376 . S
C733 C734 1.378 . S
C733 C760 1.486 . S
C734 H696 0.930 . S
C734 C733 1.378 . S
C734 C735 1.376 . S
C735 H697 0.929 . S
C735 C730 1.397 . S
C735 C734 1.376 . S
C736 C720 1.509 . S
C736 C737 1.391 . S
C736 C741 1.386 . S
C737 H698 0.930 . S
C737 C736 1.391 . S
C737 C738 1.375 . S
C738 H699 0.931 . S
C738 C737 1.375 . S
C738 C739 1.375 . S
C739 C738 1.375 . S
C739 C740 1.361 . S
C740 H700 0.930 . S
C740 C739 1.361 . S
C740 C741 1.399 . S
C741 H701 0.929 . S
C741 C736 1.386 . S
C741 C740 1.399 . S
C742 C721 1.485 . S
C742 C743 1.394 . S
C742 C747 1.360 . S
C743 H702 0.931 . S
C743 C742 1.394 . S
C743 C744 1.372 . S
C744 H703 0.930 . S
C744 C743 1.372 . S
C744 C745 1.397 . S
C745 C744 1.397 . S
C745 C746 1.390 . S
C745 C761 1.476 . S
C746 H704 0.930 . S
C746 C745 1.390 . S
C746 C747 1.366 . S
C747 H705 0.932 . S
C747 C742 1.360 . S
C747 C746 1.366 . S
C748 C722 1.490 . S
C748 C749 1.380 . S
C748 C753 1.386 . S
C749 H706 0.930 . S
C749 C748 1.380 . S
C749 C750 1.381 . S
C750 H707 0.929 . S
C750 C749 1.381 . S
C750 C751 1.371 . S
C751 C750 1.371 . S
C751 C752 1.380 . S
C752 H708 0.931 . S
C752 C751 1.380 . S
C752 C753 1.387 . S
C753 H709 0.930 . S
C753 C748 1.386 . S
C753 C752 1.387 . S
C754 C723 1.519 . S
C754 C755 1.377 . S
C754 C759 1.361 . S
C755 H710 0.929 . S
C755 C754 1.377 . S
C755 C756 1.386 . S
C756 H711 0.931 . S
C756 C755 1.386 . S
C756 C757 1.363 . S
C757 C756 1.363 . S
C757 C758 1.385 . S
C758 H712 0.930 . S
C758 C757 1.385 . S
C758 C759 1.396 . S
C759 H713 0.929 . S
C759 C754 1.361 . S
C759 C758 1.396 . S
C760 O714 1.300 . S
C760 O715 1.209 . S
C760 C733 1.486 . S
C761 O716 1.199 . S
C761 O717 1.297 . S
C761 C745 1.476 . S
C762 C763 1.391 . S
C762 C764 1.394 . S
C762 H778 0.931 . S
C763 C762 1.391 . S
C763 C767 1.376 . S
C764 C762 1.394 . S
C764 C765 1.369 . S
C764 C768 1.531 . S
C765 C764 1.369 . S
C765 C766 1.410 . S
C765 C773 1.503 . S
C766 C765 1.410 . S
C766 C767 1.392 . S
C766 C769 1.511 . S
C767 C763 1.376 . S
C767 C766 1.392 . S
C767 H779 0.929 . S
C768 C764 1.531 . S
C768 H780 0.960 . S
C768 H781 0.962 . S
C768 H782 0.960 . S
C769 C766 1.511 . S
C769 H783 0.961 . S
C769 H784 0.961 . S
C769 H785 0.961 . S
C770 C771 1.370 . S
C770 C772 1.363 . S
C770 H786 0.931 . S
C771 C770 1.370 . S
C771 C775 1.408 . S
C772 C770 1.363 . S
C772 C773 1.370 . S
C772 C776 1.524 . S
C773 C765 1.503 . S
C773 C772 1.370 . S
C773 C774 1.403 . S
C774 C773 1.403 . S
C774 C775 1.404 . S
C774 C777 1.539 . S
C775 C771 1.408 . S
C775 C774 1.404 . S
C775 H787 0.930 . S
C776 C772 1.524 . S
C776 H788 0.956 . S
C776 H789 0.961 . S
C776 H790 0.961 . S
C777 C774 1.539 . S
C777 H791 0.958 . S
C777 H792 0.961 . S
C777 H793 0.960 . S
H778 C762 0.931 . S
H779 C767 0.929 . S
H780 C768 0.960 . S
H781 C768 0.962 . S
H782 C768 0.960 . S
H783 C769 0.961 . S
H784 C769 0.961 . S
H785 C769 0.961 . S
H786 C770 0.931 . S
H787 C775 0.930 . S
H788 C776 0.956 . S
H789 C776 0.961 . S
H790 C776 0.961 . S
H791 C777 0.958 . S
H792 C777 0.961 . S
H793 C777 0.960 . S
C794 C795 1.391 . S
C794 C796 1.394 . S
C794 H810 0.931 . S
C795 C794 1.391 . S
C795 C799 1.376 . S
C796 C794 1.394 . S
C796 C797 1.369 . S
C796 C800 1.531 . S
C797 C796 1.369 . S
C797 C798 1.410 . S
C797 C805 1.503 . S
C798 C797 1.410 . S
C798 C799 1.392 . S
C798 C801 1.511 . S
C799 C795 1.376 . S
C799 C798 1.392 . S
C799 H811 0.929 . S
C800 C796 1.531 . S
C800 H812 0.960 . S
C800 H813 0.962 . S
C800 H814 0.960 . S
C801 C798 1.511 . S
C801 H815 0.961 . S
C801 H816 0.961 . S
C801 H817 0.961 . S
C802 C803 1.370 . S
C802 C804 1.363 . S
C802 H818 0.931 . S
C803 C802 1.370 . S
C803 C807 1.408 . S
C804 C802 1.363 . S
C804 C805 1.370 . S
C804 C808 1.524 . S
C805 C797 1.503 . S
C805 C804 1.370 . S
C805 C806 1.403 . S
C806 C805 1.403 . S
C806 C807 1.404 . S
C806 C809 1.539 . S
C807 C803 1.408 . S
C807 C806 1.404 . S
C807 H819 0.930 . S
C808 C804 1.524 . S
C808 H820 0.956 . S
C808 H821 0.961 . S
C808 H822 0.961 . S
C809 C806 1.539 . S
C809 H823 0.958 . S
C809 H824 0.961 . S
C809 H825 0.960 . S
H810 C794 0.931 . S
H811 C799 0.929 . S
H812 C800 0.960 . S
H813 C800 0.962 . S
H814 C800 0.960 . S
H815 C801 0.961 . S
H816 C801 0.961 . S
H817 C801 0.961 . S
H818 C802 0.931 . S
H819 C807 0.930 . S
H820 C808 0.956 . S
H821 C808 0.961 . S
H822 C808 0.961 . S
H823 C809 0.958 . S
H824 C809 0.961 . S
H825 C809 0.960 . S
C826 C827 1.391 . S
C826 C828 1.394 . S
C826 H842 0.931 . S
C827 C826 1.391 . S
C827 C831 1.376 . S
C828 C826 1.394 . S
C828 C829 1.369 . S
C828 C832 1.531 . S
C829 C828 1.369 . S
C829 C830 1.410 . S
C829 C837 1.503 . S
C830 C829 1.410 . S
C830 C831 1.392 . S
C830 C833 1.511 . S
C831 C827 1.376 . S
C831 C830 1.392 . S
C831 H843 0.929 . S
C832 C828 1.531 . S
C832 H844 0.960 . S
C832 H845 0.962 . S
C832 H846 0.960 . S
C833 C830 1.511 . S
C833 H847 0.961 . S
C833 H848 0.961 . S
C833 H849 0.961 . S
C834 C835 1.370 . S
C834 C836 1.363 . S
C834 H850 0.931 . S
C835 C834 1.370 . S
C835 C839 1.408 . S
C836 C834 1.363 . S
C836 C837 1.370 . S
C836 C840 1.524 . S
C837 C829 1.503 . S
C837 C836 1.370 . S
C837 C838 1.403 . S
C838 C837 1.403 . S
C838 C839 1.404 . S
C838 C841 1.539 . S
C839 C835 1.408 . S
C839 C838 1.404 . S
C839 H851 0.930 . S
C840 C836 1.524 . S
C840 H852 0.956 . S
C840 H853 0.961 . S
C840 H854 0.961 . S
C841 C838 1.539 . S
C841 H855 0.958 . S
C841 H856 0.961 . S
C841 H857 0.960 . S
H842 C826 0.931 . S
H843 C831 0.929 . S
H844 C832 0.960 . S
H845 C832 0.962 . S
H846 C832 0.960 . S
H847 C833 0.961 . S
H848 C833 0.961 . S
H849 C833 0.961 . S
H850 C834 0.931 . S
H851 C839 0.930 . S
H852 C840 0.956 . S
H853 C840 0.961 . S
H854 C840 0.961 . S
H855 C841 0.958 . S
H856 C841 0.961 . S
H857 C841 0.960 . S
C858 C859 1.391 . S
C858 C860 1.394 . S
C858 H874 0.931 . S
C859 C858 1.391 . S
C859 C863 1.376 . S
C860 C858 1.394 . S
C860 C861 1.369 . S
C860 C864 1.531 . S
C861 C860 1.369 . S
C861 C862 1.410 . S
C861 C869 1.503 . S
C862 C861 1.410 . S
C862 C863 1.392 . S
C862 C865 1.511 1_655 S
C863 C859 1.376 . S
C863 C862 1.392 . S
C863 H875 0.929 . S
C864 C860 1.531 . S
C864 H876 0.960 . S
C864 H877 0.962 . S
C864 H878 0.960 . S
C865 C862 1.511 1_455 S
C865 H879 0.961 . S
C865 H880 0.961 . S
C865 H881 0.961 . S
C866 C867 1.370 . S
C866 C868 1.363 . S
C866 H882 0.931 . S
C867 C866 1.370 . S
C867 C871 1.408 . S
C868 C866 1.363 . S
C868 C869 1.370 . S
C868 C872 1.524 . S
C869 C861 1.503 . S
C869 C868 1.370 . S
C869 C870 1.403 . S
C870 C869 1.403 . S
C870 C871 1.404 . S
C870 C873 1.539 . S
C871 C867 1.408 . S
C871 C870 1.404 . S
C871 H883 0.930 . S
C872 C868 1.524 . S
C872 H884 0.956 . S
C872 H885 0.961 . S
C872 H886 0.961 . S
C873 C870 1.539 . S
C873 H887 0.958 . S
C873 H888 0.961 . S
C873 H889 0.960 . S
H874 C858 0.931 . S
H875 C863 0.929 . S
H876 C864 0.960 . S
H877 C864 0.962 . S
H878 C864 0.960 . S
H879 C865 0.961 . S
H880 C865 0.961 . S
H881 C865 0.961 . S
H882 C866 0.931 . S
H883 C871 0.930 . S
H884 C872 0.956 . S
H885 C872 0.961 . S
H886 C872 0.961 . S
H887 C873 0.958 . S
H888 C873 0.961 . S
H889 C873 0.960 . S
C890 C891 1.391 . S
C890 C892 1.394 . S
C890 H906 0.931 1_565 S
C891 C890 1.391 . S
C891 C895 1.376 . S
C892 C890 1.394 . S
C892 C893 1.369 . S
C892 C896 1.531 . S
C893 C892 1.369 . S
C893 C894 1.410 . S
C893 C901 1.503 . S
C894 C893 1.410 . S
C894 C895 1.392 . S
C894 C897 1.511 . S
C895 C891 1.376 . S
C895 C894 1.392 . S
C895 H907 0.929 . S
C896 C892 1.531 . S
C896 H908 0.960 . S
C896 H909 0.962 . S
C896 H910 0.960 . S
C897 C894 1.511 . S
C897 H911 0.961 . S
C897 H912 0.961 . S
C897 H913 0.961 . S
C898 C899 1.370 . S
C898 C900 1.363 . S
C898 H914 0.931 . S
C899 C898 1.370 . S
C899 C903 1.408 . S
C900 C898 1.363 . S
C900 C901 1.370 . S
C900 C904 1.524 . S
C901 C893 1.503 . S
C901 C900 1.370 . S
C901 C902 1.403 . S
C902 C901 1.403 . S
C902 C903 1.404 . S
C902 C905 1.539 . S
C903 C899 1.408 . S
C903 C902 1.404 . S
C903 H915 0.930 . S
C904 C900 1.524 . S
C904 H916 0.956 . S
C904 H917 0.961 . S
C904 H918 0.961 . S
C905 C902 1.539 . S
C905 H919 0.958 . S
C905 H920 0.961 . S
C905 H921 0.960 . S
H906 C890 0.931 1_545 S
H907 C895 0.929 . S
H908 C896 0.960 . S
H909 C896 0.962 . S
H910 C896 0.960 . S
H911 C897 0.961 . S
H912 C897 0.961 . S
H913 C897 0.961 . S
H914 C898 0.931 . S
H915 C903 0.930 . S
H916 C904 0.956 . S
H917 C904 0.961 . S
H918 C904 0.961 . S
H919 C905 0.958 . S
H920 C905 0.961 . S
H921 C905 0.960 . S
C922 C923 1.391 . S
C922 C924 1.394 . S
C922 H938 0.931 . S
C923 C922 1.391 . S
C923 C927 1.376 . S
C924 C922 1.394 . S
C924 C925 1.369 . S
C924 C928 1.531 . S
C925 C924 1.369 . S
C925 C926 1.410 . S
C925 C933 1.503 . S
C926 C925 1.410 . S
C926 C927 1.392 . S
C926 C929 1.511 . S
C927 C923 1.376 . S
C927 C926 1.392 . S
C927 H939 0.929 . S
C928 C924 1.531 . S
C928 H940 0.960 . S
C928 H941 0.962 . S
C928 H942 0.960 . S
C929 C926 1.511 . S
C929 H943 0.961 . S
C929 H944 0.961 . S
C929 H945 0.961 . S
C930 C931 1.370 . S
C930 C932 1.363 . S
C930 H946 0.931 . S
C931 C930 1.370 . S
C931 C935 1.408 . S
C932 C930 1.363 . S
C932 C933 1.370 . S
C932 C936 1.524 . S
C933 C925 1.503 . S
C933 C932 1.370 . S
C933 C934 1.403 . S
C934 C933 1.403 . S
C934 C935 1.404 . S
C934 C937 1.539 . S
C935 C931 1.408 . S
C935 C934 1.404 . S
C935 H947 0.930 . S
C936 C932 1.524 . S
C936 H948 0.956 . S
C936 H949 0.961 . S
C936 H950 0.961 . S
C937 C934 1.539 . S
C937 H951 0.958 . S
C937 H952 0.961 . S
C937 H953 0.960 . S
H938 C922 0.931 . S
H939 C927 0.929 . S
H940 C928 0.960 . S
H941 C928 0.962 . S
H942 C928 0.960 . S
H943 C929 0.961 . S
H944 C929 0.961 . S
H945 C929 0.961 . S
H946 C930 0.931 . S
H947 C935 0.930 . S
H948 C936 0.956 . S
H949 C936 0.961 . S
H950 C936 0.961 . S
H951 C937 0.958 . S
H952 C937 0.961 . S
H953 C937 0.960 . S
C954 C955 1.391 . S
C954 C956 1.394 . S
C954 H970 0.931 . S
C955 C954 1.391 . S
C955 C959 1.376 . S
C956 C954 1.394 . S
C956 C957 1.369 . S
C956 C960 1.531 . S
C957 C956 1.369 . S
C957 C958 1.410 . S
C957 C965 1.503 . S
C958 C957 1.410 . S
C958 C959 1.392 . S
C958 C961 1.511 . S
C959 C955 1.376 . S
C959 C958 1.392 . S
C959 H971 0.929 . S
C960 C956 1.531 . S
C960 H972 0.960 . S
C960 H973 0.962 . S
C960 H974 0.960 . S
C961 C958 1.511 . S
C961 H975 0.961 . S
C961 H976 0.961 . S
C961 H977 0.961 . S
C962 C963 1.370 . S
C962 C964 1.363 . S
C962 H978 0.931 . S
C963 C962 1.370 . S
C963 C967 1.408 . S
C964 C962 1.363 . S
C964 C965 1.370 . S
C964 C968 1.524 . S
C965 C957 1.503 . S
C965 C964 1.370 . S
C965 C966 1.403 . S
C966 C965 1.403 . S
C966 C967 1.404 . S
C966 C969 1.539 . S
C967 C963 1.408 . S
C967 C966 1.404 . S
C967 H979 0.930 . S
C968 C964 1.524 . S
C968 H980 0.956 . S
C968 H981 0.961 . S
C968 H982 0.961 . S
C969 C966 1.539 . S
C969 H983 0.958 . S
C969 H984 0.961 . S
C969 H985 0.960 . S
H970 C954 0.931 . S
H971 C959 0.929 . S
H972 C960 0.960 . S
H973 C960 0.962 . S
H974 C960 0.960 . S
H975 C961 0.961 . S
H976 C961 0.961 . S
H977 C961 0.961 . S
H978 C962 0.931 . S
H979 C967 0.930 . S
H980 C968 0.956 . S
H981 C968 0.961 . S
H982 C968 0.961 . S
H983 C969 0.958 . S
H984 C969 0.961 . S
H985 C969 0.960 . S
C986 C987 1.391 . S
C986 C988 1.394 1_554 S
C986 H1002 0.931 . S
C987 C986 1.391 . S
C987 C991 1.376 . S
C988 C986 1.394 1_556 S
C988 C989 1.369 . S
C988 C992 1.531 . S
C989 C988 1.369 . S
C989 C990 1.410 1_556 S
C989 C997 1.503 . S
C990 C989 1.410 1_554 S
C990 C991 1.392 . S
C990 C993 1.511 . S
C991 C987 1.376 . S
C991 C990 1.392 . S
C991 H1003 0.929 . S
C992 C988 1.531 . S
C992 H1004 0.960 . S
C992 H1005 0.962 . S
C992 H1006 0.960 . S
C993 C990 1.511 . S
C993 H1007 0.961 . S
C993 H1008 0.961 1_554 S
C993 H1009 0.961 1_554 S
C994 C995 1.370 . S
C994 C996 1.363 . S
C994 H1010 0.931 . S
C995 C994 1.370 . S
C995 C999 1.408 . S
C996 C994 1.363 . S
C996 C997 1.370 . S
C996 C1000 1.524 . S
C997 C989 1.503 . S
C997 C996 1.370 . S
C997 C998 1.403 . S
C998 C997 1.403 . S
C998 C999 1.404 . S
C998 C1001 1.539 . S
C999 C995 1.408 . S
C999 C998 1.404 . S
C999 H1011 0.930 . S
C1000 C996 1.524 . S
C1000 H1012 0.956 . S
C1000 H1013 0.961 1_556 S
C1000 H1014 0.961 . S
C1001 C998 1.539 . S
C1001 H1015 0.958 . S
C1001 H1016 0.961 . S
C1001 H1017 0.960 . S
H1002 C986 0.931 . S
H1003 C991 0.929 . S
H1004 C992 0.960 . S
H1005 C992 0.962 . S
H1006 C992 0.960 . S
H1007 C993 0.961 . S
H1008 C993 0.961 1_556 S
H1009 C993 0.961 1_556 S
H1010 C994 0.931 . S
H1011 C999 0.930 . S
H1012 C1000 0.956 . S
H1013 C1000 0.961 1_554 S
H1014 C1000 0.961 . S
H1015 C1001 0.958 . S
H1016 C1001 0.961 . S
H1017 C1001 0.960 . S
C1018 C1019 1.391 . S
C1018 C1020 1.394 . S
C1018 H1034 0.931 . S
C1019 C1018 1.391 . S
C1019 C1023 1.376 . S
C1020 C1018 1.394 . S
C1020 C1021 1.369 . S
C1020 C1024 1.531 . S
C1021 C1020 1.369 . S
C1021 C1022 1.410 . S
C1021 C1029 1.503 . S
C1022 C1021 1.410 . S
C1022 C1023 1.392 . S
C1022 C1025 1.511 . S
C1023 C1019 1.376 . S
C1023 C1022 1.392 . S
C1023 H1035 0.929 . S
C1024 C1020 1.531 . S
C1024 H1036 0.960 . S
C1024 H1037 0.962 . S
C1024 H1038 0.960 . S
C1025 C1022 1.511 . S
C1025 H1039 0.961 . S
C1025 H1040 0.961 . S
C1025 H1041 0.961 . S
C1026 C1027 1.370 . S
C1026 C1028 1.363 . S
C1026 H1042 0.931 . S
C1027 C1026 1.370 . S
C1027 C1031 1.408 . S
C1028 C1026 1.363 . S
C1028 C1029 1.370 . S
C1028 C1032 1.524 . S
C1029 C1021 1.503 . S
C1029 C1028 1.370 . S
C1029 C1030 1.403 . S
C1030 C1029 1.403 . S
C1030 C1031 1.404 . S
C1030 C1033 1.539 . S
C1031 C1027 1.408 . S
C1031 C1030 1.404 . S
C1031 H1043 0.930 . S
C1032 C1028 1.524 . S
C1032 H1044 0.956 . S
C1032 H1045 0.961 . S
C1032 H1046 0.961 . S
C1033 C1030 1.539 . S
C1033 H1047 0.958 . S
C1033 H1048 0.961 . S
C1033 H1049 0.960 . S
H1034 C1018 0.931 . S
H1035 C1023 0.929 . S
H1036 C1024 0.960 . S
H1037 C1024 0.962 . S
H1038 C1024 0.960 . S
H1039 C1025 0.961 . S
H1040 C1025 0.961 . S
H1041 C1025 0.961 . S
H1042 C1026 0.931 . S
H1043 C1031 0.930 . S
H1044 C1032 0.956 . S
H1045 C1032 0.961 . S
H1046 C1032 0.961 . S
H1047 C1033 0.958 . S
H1048 C1033 0.961 . S
H1049 C1033 0.960 . S
C1050 C1051 1.391 . S
C1050 C1052 1.394 1_554 S
C1050 H1066 0.931 . S
C1051 C1050 1.391 . S
C1051 C1055 1.376 1_554 S
C1052 C1050 1.394 1_556 S
C1052 C1053 1.369 . S
C1052 C1056 1.531 1_556 S
C1053 C1052 1.369 . S
C1053 C1054 1.410 . S
C1053 C1061 1.503 . S
C1054 C1053 1.410 . S
C1054 C1055 1.392 . S
C1054 C1057 1.511 . S
C1055 C1051 1.376 1_556 S
C1055 C1054 1.392 . S
C1055 H1067 0.929 . S
C1056 C1052 1.531 1_554 S
C1056 H1068 0.960 1_554 S
C1056 H1069 0.962 . S
C1056 H1070 0.960 . S
C1057 C1054 1.511 . S
C1057 H1071 0.961 . S
C1057 H1072 0.961 . S
C1057 H1073 0.961 . S
C1058 C1059 1.370 . S
C1058 C1060 1.363 . S
C1058 H1074 0.931 . S
C1059 C1058 1.370 . S
C1059 C1063 1.408 . S
C1060 C1058 1.363 . S
C1060 C1061 1.370 . S
C1060 C1064 1.524 . S
C1061 C1053 1.503 . S
C1061 C1060 1.370 . S
C1061 C1062 1.403 . S
C1062 C1061 1.403 . S
C1062 C1063 1.404 . S
C1062 C1065 1.539 . S
C1063 C1059 1.408 . S
C1063 C1062 1.404 . S
C1063 H1075 0.930 . S
C1064 C1060 1.524 . S
C1064 H1076 0.956 . S
C1064 H1077 0.961 . S
C1064 H1078 0.961 . S
C1065 C1062 1.539 . S
C1065 H1079 0.958 . S
C1065 H1080 0.961 . S
C1065 H1081 0.960 . S
H1066 C1050 0.931 . S
H1067 C1055 0.929 . S
H1068 C1056 0.960 1_556 S
H1069 C1056 0.962 . S
H1070 C1056 0.960 . S
H1071 C1057 0.961 . S
H1072 C1057 0.961 . S
H1073 C1057 0.961 . S
H1074 C1058 0.931 . S
H1075 C1063 0.930 . S
H1076 C1064 0.956 . S
H1077 C1064 0.961 . S
H1078 C1064 0.961 . S
H1079 C1065 0.958 . S
H1080 C1065 0.961 . S
H1081 C1065 0.960 . S
C1082 C1083 1.391 . S
C1082 C1084 1.394 . S
C1082 H1098 0.931 . S
C1083 C1082 1.391 . S
C1083 C1087 1.376 . S
C1084 C1082 1.394 . S
C1084 C1085 1.369 . S
C1084 C1088 1.531 . S
C1085 C1084 1.369 . S
C1085 C1086 1.410 . S
C1085 C1093 1.503 . S
C1086 C1085 1.410 . S
C1086 C1087 1.392 . S
C1086 C1089 1.511 . S
C1087 C1083 1.376 . S
C1087 C1086 1.392 . S
C1087 H1099 0.929 . S
C1088 C1084 1.531 . S
C1088 H1100 0.960 . S
C1088 H1101 0.962 . S
C1088 H1102 0.960 . S
C1089 C1086 1.511 . S
C1089 H1103 0.961 . S
C1089 H1104 0.961 . S
C1089 H1105 0.961 . S
C1090 C1091 1.370 . S
C1090 C1092 1.363 . S
C1090 H1106 0.931 . S
C1091 C1090 1.370 . S
C1091 C1095 1.408 . S
C1092 C1090 1.363 . S
C1092 C1093 1.370 . S
C1092 C1096 1.524 . S
C1093 C1085 1.503 . S
C1093 C1092 1.370 . S
C1093 C1094 1.403 . S
C1094 C1093 1.403 . S
C1094 C1095 1.404 . S
C1094 C1097 1.539 . S
C1095 C1091 1.408 . S
C1095 C1094 1.404 . S
C1095 H1107 0.930 . S
C1096 C1092 1.524 . S
C1096 H1108 0.956 . S
C1096 H1109 0.961 . S
C1096 H1110 0.961 . S
C1097 C1094 1.539 . S
C1097 H1111 0.958 . S
C1097 H1112 0.961 . S
C1097 H1113 0.960 . S
H1098 C1082 0.931 . S
H1099 C1087 0.929 . S
H1100 C1088 0.960 . S
H1101 C1088 0.962 . S
H1102 C1088 0.960 . S
H1103 C1089 0.961 . S
H1104 C1089 0.961 . S
H1105 C1089 0.961 . S
H1106 C1090 0.931 . S
H1107 C1095 0.930 . S
H1108 C1096 0.956 . S
H1109 C1096 0.961 . S
H1110 C1096 0.961 . S
H1111 C1097 0.958 . S
H1112 C1097 0.961 . S
H1113 C1097 0.960 . S
C1114 C1115 1.391 . S
C1114 C1116 1.394 . S
C1114 H1130 0.931 . S
C1115 C1114 1.391 . S
C1115 C1119 1.376 . S
C1116 C1114 1.394 . S
C1116 C1117 1.369 . S
C1116 C1120 1.531 . S
C1117 C1116 1.369 . S
C1117 C1118 1.410 . S
C1117 C1125 1.503 . S
C1118 C1117 1.410 . S
C1118 C1119 1.392 . S
C1118 C1121 1.511 . S
C1119 C1115 1.376 . S
C1119 C1118 1.392 . S
C1119 H1131 0.929 . S
C1120 C1116 1.531 . S
C1120 H1132 0.960 . S
C1120 H1133 0.962 . S
C1120 H1134 0.960 . S
C1121 C1118 1.511 . S
C1121 H1135 0.961 . S
C1121 H1136 0.961 . S
C1121 H1137 0.961 . S
C1122 C1123 1.370 . S
C1122 C1124 1.372 . S
C1122 H1138 0.931 . S
C1123 C1122 1.370 . S
C1123 C1127 1.408 1_655 S
C1124 C1122 1.372 . S
C1124 C1125 1.349 1_655 S
C1124 C1128 1.537 . S
C1125 C1117 1.503 . S
C1125 C1124 1.349 1_455 S
C1125 C1126 1.403 . S
C1126 C1125 1.403 . S
C1126 C1127 1.404 . S
C1126 C1129 1.539 . S
C1127 C1123 1.408 1_455 S
C1127 C1126 1.404 . S
C1127 H1139 0.930 . S
C1128 C1124 1.537 . S
C1128 H1140 0.956 . S
C1128 H1141 0.961 1_655 S
C1128 H1142 0.961 . S
C1129 C1126 1.539 . S
C1129 H1143 0.958 . S
C1129 H1144 0.961 . S
C1129 H1145 0.960 . S
H1130 C1114 0.931 . S
H1131 C1119 0.929 . S
H1132 C1120 0.960 . S
H1133 C1120 0.962 . S
H1134 C1120 0.960 . S
H1135 C1121 0.961 . S
H1136 C1121 0.961 . S
H1137 C1121 0.961 . S
H1138 C1122 0.931 . S
H1139 C1127 0.930 . S
H1140 C1128 0.956 . S
H1141 C1128 0.961 1_455 S
H1142 C1128 0.961 . S
H1143 C1129 0.958 . S
H1144 C1129 0.961 . S
H1145 C1129 0.960 . S
C1146 C1147 1.391 . S
C1146 C1148 1.394 . S
C1146 H1162 0.931 . S
C1147 C1146 1.391 . S
C1147 C1151 1.376 . S
C1148 C1146 1.394 . S
C1148 C1149 1.369 . S
C1148 C1152 1.531 . S
C1149 C1148 1.369 . S
C1149 C1150 1.410 . S
C1149 C1157 1.503 . S
C1150 C1149 1.410 . S
C1150 C1151 1.392 . S
C1150 C1153 1.511 . S
C1151 C1147 1.376 . S
C1151 C1150 1.392 . S
C1151 H1163 0.929 . S
C1152 C1148 1.531 . S
C1152 H1164 0.960 . S
C1152 H1165 0.962 . S
C1152 H1166 0.960 . S
C1153 C1150 1.511 . S
C1153 H1167 0.961 . S
C1153 H1168 0.961 . S
C1153 H1169 0.961 . S
C1154 C1155 1.370 . S
C1154 C1156 1.363 1_655 S
C1154 H1170 0.931 . S
C1155 C1154 1.370 . S
C1155 C1159 1.408 1_655 S
C1156 C1154 1.363 1_455 S
C1156 C1157 1.370 . S
C1156 C1160 1.523 . S
C1157 C1149 1.503 . S
C1157 C1156 1.370 . S
C1157 C1158 1.403 . S
C1158 C1157 1.403 . S
C1158 C1159 1.404 . S
C1158 C1161 1.539 . S
C1159 C1155 1.408 1_455 S
C1159 C1158 1.404 . S
C1159 H1171 0.930 . S
C1160 C1156 1.523 . S
C1160 H1172 0.958 . S
C1160 H1173 0.964 . S
C1160 H1174 0.957 1_455 S
C1161 C1158 1.539 . S
C1161 H1175 0.958 . S
C1161 H1176 0.961 . S
C1161 H1177 0.960 . S
H1162 C1146 0.931 . S
H1163 C1151 0.929 . S
H1164 C1152 0.960 . S
H1165 C1152 0.962 . S
H1166 C1152 0.960 . S
H1167 C1153 0.961 . S
H1168 C1153 0.961 . S
H1169 C1153 0.961 . S
H1170 C1154 0.931 . S
H1171 C1159 0.930 . S
H1172 C1160 0.958 . S
H1173 C1160 0.964 . S
H1174 C1160 0.957 1_655 S
H1175 C1161 0.958 . S
H1176 C1161 0.961 . S
H1177 C1161 0.960 . S
C1178 C1179 1.391 . S
C1178 C1180 1.394 . S
C1178 H1194 0.931 . S
C1179 C1178 1.391 . S
C1179 C1183 1.376 . S
C1180 C1178 1.394 . S
C1180 C1181 1.369 . S
C1180 C1184 1.531 . S
C1181 C1180 1.369 . S
C1181 C1182 1.410 . S
C1181 C1189 1.503 . S
C1182 C1181 1.410 . S
C1182 C1183 1.392 . S
C1182 C1185 1.511 . S
C1183 C1179 1.376 . S
C1183 C1182 1.392 . S
C1183 H1195 0.960 . S
C1184 C1180 1.531 . S
C1184 H1196 0.960 . S
C1184 H1197 0.962 . S
C1184 H1198 0.960 . S
C1185 C1182 1.511 . S
C1185 H1199 0.961 1_565 S
C1185 H1200 0.961 . S
C1185 H1201 0.931 1_565 S
C1186 C1187 1.370 . S
C1186 C1188 1.363 . S
C1186 H1202 0.931 . S
C1187 C1186 1.370 . S
C1187 C1191 1.408 . S
C1188 C1186 1.363 . S
C1188 C1189 1.370 . S
C1188 C1192 1.524 . S
C1189 C1181 1.503 . S
C1189 C1188 1.370 . S
C1189 C1190 1.403 . S
C1190 C1189 1.403 . S
C1190 C1191 1.404 . S
C1190 C1193 1.539 . S
C1191 C1187 1.408 . S
C1191 C1190 1.404 . S
C1191 H1203 0.930 . S
C1192 C1188 1.524 . S
C1192 H1204 0.956 . S
C1192 H1205 0.961 . S
C1192 H1206 0.961 . S
C1193 C1190 1.539 . S
C1193 H1207 0.958 . S
C1193 H1208 0.961 . S
C1193 H1209 0.960 . S
H1194 C1178 0.931 . S
H1195 C1183 0.960 . S
H1196 C1184 0.960 . S
H1197 C1184 0.962 . S
H1198 C1184 0.960 . S
H1199 C1185 0.961 1_545 S
H1200 C1185 0.961 . S
H1201 C1185 0.931 1_545 S
H1202 C1186 0.931 . S
H1203 C1191 0.930 . S
H1204 C1192 0.956 . S
H1205 C1192 0.961 . S
H1206 C1192 0.961 . S
H1207 C1193 0.958 . S
H1208 C1193 0.961 . S
H1209 C1193 0.960 . S
C1210 C1211 1.391 1_556 S
C1210 C1212 1.394 . S
C1210 H1226 0.931 1_556 S
C1211 C1210 1.391 1_554 S
C1211 C1215 1.374 1_554 S
C1212 C1210 1.394 . S
C1212 C1213 1.369 . S
C1212 C1216 1.531 . S
C1213 C1212 1.369 . S
C1213 C1214 1.410 . S
C1213 C1221 1.503 . S
C1214 C1213 1.410 . S
C1214 C1215 1.392 . S
C1214 C1217 1.511 . S
C1215 C1211 1.374 1_556 S
C1215 C1214 1.392 . S
C1215 H1227 0.929 . S
C1216 C1212 1.531 . S
C1216 H1228 0.960 . S
C1216 H1229 0.962 . S
C1216 H1230 0.960 . S
C1217 C1214 1.511 . S
C1217 H1231 0.961 . S
C1217 H1232 0.961 . S
C1217 H1233 0.961 . S
C1218 C1219 1.370 . S
C1218 C1220 1.363 . S
C1218 H1234 0.931 . S
C1219 C1218 1.370 . S
C1219 C1223 1.408 . S
C1220 C1218 1.363 . S
C1220 C1221 1.370 . S
C1220 C1224 1.524 . S
C1221 C1213 1.503 . S
C1221 C1220 1.370 . S
C1221 C1222 1.403 . S
C1222 C1221 1.403 . S
C1222 C1223 1.404 . S
C1222 C1225 1.539 . S
C1223 C1219 1.408 . S
C1223 C1222 1.404 . S
C1223 H1235 0.930 . S
C1224 C1220 1.524 . S
C1224 H1236 0.956 . S
C1224 H1237 0.961 . S
C1224 H1238 0.961 . S
C1225 C1222 1.539 . S
C1225 H1239 0.958 . S
C1225 H1240 0.961 . S
C1225 H1241 0.960 . S
H1226 C1210 0.931 1_554 S
H1227 C1215 0.929 . S
H1228 C1216 0.960 . S
H1229 C1216 0.962 . S
H1230 C1216 0.960 . S
H1231 C1217 0.961 . S
H1232 C1217 0.961 . S
H1233 C1217 0.961 . S
H1234 C1218 0.931 . S
H1235 C1223 0.930 . S
H1236 C1224 0.956 . S
H1237 C1224 0.961 . S
H1238 C1224 0.961 . S
H1239 C1225 0.958 . S
H1240 C1225 0.961 . S
H1241 C1225 0.960 . S
C1242 C1243 1.391 . S
C1242 C1244 1.394 . S
C1242 H1258 0.931 . S
C1243 C1242 1.391 . S
C1243 C1247 1.376 . S
C1244 C1242 1.394 . S
C1244 C1245 1.369 . S
C1244 C1248 1.531 . S
C1245 C1244 1.369 . S
C1245 C1246 1.410 . S
C1245 C1253 1.503 . S
C1246 C1245 1.410 . S
C1246 C1247 1.392 . S
C1246 C1249 1.511 . S
C1247 C1243 1.376 . S
C1247 C1246 1.392 . S
C1247 H1259 0.929 . S
C1248 C1244 1.531 . S
C1248 H1260 0.960 . S
C1248 H1261 0.962 . S
C1248 H1262 0.960 . S
C1249 C1246 1.511 . S
C1249 H1263 0.961 . S
C1249 H1264 0.961 . S
C1249 H1265 0.961 . S
C1250 C1251 1.370 . S
C1250 C1252 1.363 . S
C1250 H1266 0.931 . S
C1251 C1250 1.370 . S
C1251 C1255 1.408 . S
C1252 C1250 1.363 . S
C1252 C1253 1.370 . S
C1252 C1256 1.524 . S
C1253 C1245 1.503 . S
C1253 C1252 1.370 . S
C1253 C1254 1.403 . S
C1254 C1253 1.403 . S
C1254 C1255 1.404 . S
C1254 C1257 1.539 . S
C1255 C1251 1.408 . S
C1255 C1254 1.404 . S
C1255 H1267 0.930 . S
C1256 C1252 1.524 . S
C1256 H1268 0.956 . S
C1256 H1269 0.961 . S
C1256 H1270 0.961 . S
C1257 C1254 1.539 . S
C1257 H1271 0.958 . S
C1257 H1272 0.961 . S
C1257 H1273 0.960 . S
H1258 C1242 0.931 . S
H1259 C1247 0.929 . S
H1260 C1248 0.960 . S
H1261 C1248 0.962 . S
H1262 C1248 0.960 . S
H1263 C1249 0.961 . S
H1264 C1249 0.961 . S
H1265 C1249 0.961 . S
H1266 C1250 0.931 . S
H1267 C1255 0.930 . S
H1268 C1256 0.956 . S
H1269 C1256 0.961 . S
H1270 C1256 0.961 . S
H1271 C1257 0.958 . S
H1272 C1257 0.961 . S
H1273 C1257 0.960 . S
C1274 C1275 1.391 . S
C1274 C1276 1.394 . S
C1274 H1290 0.931 . S
C1275 C1274 1.391 . S
C1275 C1279 1.376 1_554 S
C1276 C1274 1.394 . S
C1276 C1277 1.369 1_554 S
C1276 C1280 1.531 . S
C1277 C1276 1.369 1_556 S
C1277 C1278 1.410 . S
C1277 C1285 1.503 . S
C1278 C1277 1.410 . S
C1278 C1279 1.392 . S
C1278 C1281 1.511 . S
C1279 C1275 1.376 1_556 S
C1279 C1278 1.392 . S
C1279 H1291 0.929 . S
C1280 C1276 1.531 . S
C1280 H1292 0.960 . S
C1280 H1293 0.962 . S
C1280 H1294 0.960 . S
C1281 C1278 1.511 . S
C1281 H1295 0.961 . S
C1281 H1296 0.961 . S
C1281 H1297 0.961 . S
C1282 C1283 1.370 . S
C1282 C1284 1.363 . S
C1282 H1298 0.931 . S
C1283 C1282 1.370 . S
C1283 C1287 1.408 . S
C1284 C1282 1.363 . S
C1284 C1285 1.370 . S
C1284 C1288 1.524 . S
C1285 C1277 1.503 . S
C1285 C1284 1.370 . S
C1285 C1286 1.403 . S
C1286 C1285 1.403 . S
C1286 C1287 1.404 . S
C1286 C1289 1.539 . S
C1287 C1283 1.408 . S
C1287 C1286 1.404 . S
C1287 H1299 0.930 . S
C1288 C1284 1.524 . S
C1288 H1300 0.956 . S
C1288 H1301 0.961 . S
C1288 H1302 0.961 . S
C1289 C1286 1.539 . S
C1289 H1303 0.958 . S
C1289 H1304 0.961 . S
C1289 H1305 0.960 . S
H1290 C1274 0.931 . S
H1291 C1279 0.929 . S
H1292 C1280 0.960 . S
H1293 C1280 0.962 . S
H1294 C1280 0.960 . S
H1295 C1281 0.961 . S
H1296 C1281 0.961 . S
H1297 C1281 0.961 . S
H1298 C1282 0.931 . S
H1299 C1287 0.930 . S
H1300 C1288 0.956 . S
H1301 C1288 0.961 . S
H1302 C1288 0.961 . S
H1303 C1289 0.958 . S
H1304 C1289 0.961 . S
H1305 C1289 0.960 . S
C1306 C1307 1.391 . S
C1306 C1308 1.394 . S
C1306 H1322 0.931 . S
C1307 C1306 1.391 . S
C1307 C1311 1.376 . S
C1308 C1306 1.394 . S
C1308 C1309 1.369 . S
C1308 C1312 1.531 . S
C1309 C1308 1.369 . S
C1309 C1310 1.410 . S
C1309 C1317 1.503 . S
C1310 C1309 1.410 . S
C1310 C1311 1.392 . S
C1310 C1313 1.511 . S
C1311 C1307 1.376 . S
C1311 C1310 1.392 . S
C1311 H1323 0.929 . S
C1312 C1308 1.531 . S
C1312 H1324 0.960 . S
C1312 H1325 0.962 . S
C1312 H1326 0.960 . S
C1313 C1310 1.511 . S
C1313 H1327 0.961 . S
C1313 H1328 0.961 . S
C1313 H1329 0.961 . S
C1314 C1315 1.370 . S
C1314 C1316 1.363 . S
C1314 H1330 0.931 . S
C1315 C1314 1.370 . S
C1315 C1319 1.408 . S
C1316 C1314 1.363 . S
C1316 C1317 1.370 . S
C1316 C1320 1.524 . S
C1317 C1309 1.503 . S
C1317 C1316 1.370 . S
C1317 C1318 1.403 . S
C1318 C1317 1.403 . S
C1318 C1319 1.404 . S
C1318 C1321 1.539 . S
C1319 C1315 1.408 . S
C1319 C1318 1.404 . S
C1319 H1331 0.930 . S
C1320 C1316 1.524 . S
C1320 H1332 0.956 . S
C1320 H1333 0.961 . S
C1320 H1334 0.961 . S
C1321 C1318 1.539 . S
C1321 H1335 0.958 . S
C1321 H1336 0.961 . S
C1321 H1337 0.960 . S
H1322 C1306 0.931 . S
H1323 C1311 0.929 . S
H1324 C1312 0.960 . S
H1325 C1312 0.962 . S
H1326 C1312 0.960 . S
H1327 C1313 0.961 . S
H1328 C1313 0.961 . S
H1329 C1313 0.961 . S
H1330 C1314 0.931 . S
H1331 C1319 0.930 . S
H1332 C1320 0.956 . S
H1333 C1320 0.961 . S
H1334 C1320 0.961 . S
H1335 C1321 0.958 . S
H1336 C1321 0.961 . S
H1337 C1321 0.960 . S
C1338 C1339 1.391 . S
C1338 C1340 1.394 . S
C1338 H1354 0.931 . S
C1339 C1338 1.391 . S
C1339 C1343 1.376 . S
C1340 C1338 1.394 . S
C1340 C1341 1.369 . S
C1340 C1344 1.531 . S
C1341 C1340 1.369 . S
C1341 C1342 1.410 . S
C1341 C1349 1.503 . S
C1342 C1341 1.410 . S
C1342 C1343 1.392 . S
C1342 C1345 1.511 . S
C1343 C1339 1.376 . S
C1343 C1342 1.392 . S
C1343 H1355 0.929 . S
C1344 C1340 1.531 . S
C1344 H1356 0.960 . S
C1344 H1357 0.962 . S
C1344 H1358 0.960 . S
C1345 C1342 1.511 . S
C1345 H1359 0.961 . S
C1345 H1360 0.961 . S
C1345 H1361 0.961 . S
C1346 C1347 1.370 . S
C1346 C1348 1.363 . S
C1346 H1362 0.931 . S
C1347 C1346 1.370 . S
C1347 C1351 1.408 . S
C1348 C1346 1.363 . S
C1348 C1349 1.370 . S
C1348 C1352 1.524 . S
C1349 C1341 1.503 . S
C1349 C1348 1.370 . S
C1349 C1350 1.403 . S
C1350 C1349 1.403 . S
C1350 C1351 1.404 . S
C1350 C1353 1.539 . S
C1351 C1347 1.408 . S
C1351 C1350 1.404 . S
C1351 H1363 0.930 . S
C1352 C1348 1.524 . S
C1352 H1364 0.956 . S
C1352 H1365 0.961 . S
C1352 H1366 0.961 . S
C1353 C1350 1.539 . S
C1353 H1367 0.958 . S
C1353 H1368 0.961 . S
C1353 H1369 0.960 . S
H1354 C1338 0.931 . S
H1355 C1343 0.929 . S
H1356 C1344 0.960 . S
H1357 C1344 0.962 . S
H1358 C1344 0.960 . S
H1359 C1345 0.961 . S
H1360 C1345 0.961 . S
H1361 C1345 0.961 . S
H1362 C1346 0.931 . S
H1363 C1351 0.930 . S
H1364 C1352 0.956 . S
H1365 C1352 0.961 . S
H1366 C1352 0.961 . S
H1367 C1353 0.958 . S
H1368 C1353 0.961 . S
H1369 C1353 0.960 . S
C1370 C1371 1.391 . S
C1370 C1372 1.394 . S
C1370 H1386 0.931 . S
C1371 C1370 1.391 . S
C1371 C1375 1.376 . S
C1372 C1370 1.394 . S
C1372 C1373 1.369 . S
C1372 C1376 1.531 . S
C1373 C1372 1.369 . S
C1373 C1374 1.410 . S
C1373 C1381 1.503 . S
C1374 C1373 1.410 . S
C1374 C1375 1.392 . S
C1374 C1377 1.511 . S
C1375 C1371 1.376 . S
C1375 C1374 1.392 . S
C1375 H1387 0.929 . S
C1376 C1372 1.531 . S
C1376 H1388 0.960 . S
C1376 H1389 0.962 . S
C1376 H1390 0.960 . S
C1377 C1374 1.511 . S
C1377 H1391 0.961 . S
C1377 H1392 0.961 . S
C1377 H1393 0.961 . S
C1378 C1379 1.370 . S
C1378 C1380 1.363 . S
C1378 H1394 0.931 . S
C1379 C1378 1.370 . S
C1379 C1383 1.408 . S
C1380 C1378 1.363 . S
C1380 C1381 1.370 . S
C1380 C1384 1.524 . S
C1381 C1373 1.503 . S
C1381 C1380 1.370 . S
C1381 C1382 1.403 . S
C1382 C1381 1.403 . S
C1382 C1383 1.404 . S
C1382 C1385 1.539 . S
C1383 C1379 1.408 . S
C1383 C1382 1.404 . S
C1383 H1395 0.930 . S
C1384 C1380 1.524 . S
C1384 H1396 0.956 . S
C1384 H1397 0.961 . S
C1384 H1398 0.961 . S
C1385 C1382 1.539 . S
C1385 H1399 0.958 . S
C1385 H1400 0.961 . S
C1385 H1401 0.960 . S
H1386 C1370 0.931 . S
H1387 C1375 0.929 . S
H1388 C1376 0.960 . S
H1389 C1376 0.962 . S
H1390 C1376 0.960 . S
H1391 C1377 0.961 . S
H1392 C1377 0.961 . S
H1393 C1377 0.961 . S
H1394 C1378 0.931 . S
H1395 C1383 0.930 . S
H1396 C1384 0.956 . S
H1397 C1384 0.961 . S
H1398 C1384 0.961 . S
H1399 C1385 0.958 . S
H1400 C1385 0.961 . S
H1401 C1385 0.960 . S
C1402 C1403 1.391 . S
C1402 C1404 1.394 . S
C1402 H1418 0.931 . S
C1403 C1402 1.391 . S
C1403 C1407 1.376 . S
C1404 C1402 1.394 . S
C1404 C1405 1.369 . S
C1404 C1408 1.531 . S
C1405 C1404 1.369 . S
C1405 C1406 1.410 . S
C1405 C1413 1.503 . S
C1406 C1405 1.410 . S
C1406 C1407 1.392 . S
C1406 C1409 1.511 . S
C1407 C1403 1.376 . S
C1407 C1406 1.392 . S
C1407 H1419 0.929 . S
C1408 C1404 1.531 . S
C1408 H1420 0.960 . S
C1408 H1421 0.962 . S
C1408 H1422 0.960 . S
C1409 C1406 1.511 . S
C1409 H1423 0.961 1_655 S
C1409 H1424 0.961 . S
C1409 H1425 0.961 . S
C1410 C1411 1.370 . S
C1410 C1412 1.363 . S
C1410 H1426 0.931 . S
C1411 C1410 1.370 . S
C1411 C1415 1.408 . S
C1412 C1410 1.363 . S
C1412 C1413 1.370 . S
C1412 C1416 1.524 . S
C1413 C1405 1.503 . S
C1413 C1412 1.370 . S
C1413 C1414 1.403 . S
C1414 C1413 1.403 . S
C1414 C1415 1.404 . S
C1414 C1417 1.539 . S
C1415 C1411 1.408 . S
C1415 C1414 1.404 . S
C1415 H1427 0.930 . S
C1416 C1412 1.524 . S
C1416 H1428 0.956 . S
C1416 H1429 0.961 . S
C1416 H1430 0.961 . S
C1417 C1414 1.539 . S
C1417 H1431 0.958 . S
C1417 H1432 0.961 . S
C1417 H1433 0.960 . S
H1418 C1402 0.931 . S
H1419 C1407 0.929 . S
H1420 C1408 0.960 . S
H1421 C1408 0.962 . S
H1422 C1408 0.960 . S
H1423 C1409 0.961 1_455 S
H1424 C1409 0.961 . S
H1425 C1409 0.961 . S
H1426 C1410 0.931 . S
H1427 C1415 0.930 . S
H1428 C1416 0.956 . S
H1429 C1416 0.961 . S
H1430 C1416 0.961 . S
H1431 C1417 0.958 . S
H1432 C1417 0.961 . S
H1433 C1417 0.960 . S
C1434 C1435 1.391 . S
C1434 C1436 1.394 . S
C1434 H1450 0.931 1_565 S
C1435 C1434 1.391 . S
C1435 C1439 1.376 . S
C1436 C1434 1.394 . S
C1436 C1437 1.369 . S
C1436 C1440 1.531 . S
C1437 C1436 1.369 . S
C1437 C1438 1.410 . S
C1437 C1445 1.503 . S
C1438 C1437 1.410 . S
C1438 C1439 1.392 . S
C1438 C1441 1.511 . S
C1439 C1435 1.376 . S
C1439 C1438 1.392 . S
C1439 H1451 0.929 . S
C1440 C1436 1.531 . S
C1440 H1452 0.960 . S
C1440 H1453 0.962 1_565 S
C1440 H1454 0.960 1_565 S
C1441 C1438 1.511 . S
C1441 H1455 0.961 . S
C1441 H1456 0.961 . S
C1441 H1457 0.961 . S
C1442 C1443 1.370 . S
C1442 C1444 1.363 . S
C1442 H1458 0.931 . S
C1443 C1442 1.370 . S
C1443 C1447 1.408 . S
C1444 C1442 1.363 . S
C1444 C1445 1.370 . S
C1444 C1448 1.524 . S
C1445 C1437 1.503 . S
C1445 C1444 1.370 . S
C1445 C1446 1.403 . S
C1446 C1445 1.403 . S
C1446 C1447 1.404 . S
C1446 C1449 1.539 . S
C1447 C1443 1.408 . S
C1447 C1446 1.404 . S
C1447 H1459 0.930 . S
C1448 C1444 1.524 . S
C1448 H1460 0.956 1_565 S
C1448 H1461 0.961 . S
C1448 H1462 0.961 1_565 S
C1449 C1446 1.539 . S
C1449 H1463 0.958 . S
C1449 H1464 0.961 . S
C1449 H1465 0.960 . S
H1450 C1434 0.931 1_545 S
H1451 C1439 0.929 . S
H1452 C1440 0.960 . S
H1453 C1440 0.962 1_545 S
H1454 C1440 0.960 1_545 S
H1455 C1441 0.961 . S
H1456 C1441 0.961 . S
H1457 C1441 0.961 . S
H1458 C1442 0.931 . S
H1459 C1447 0.930 . S
H1460 C1448 0.956 1_545 S
H1461 C1448 0.961 . S
H1462 C1448 0.961 1_545 S
H1463 C1449 0.958 . S
H1464 C1449 0.961 . S
H1465 C1449 0.960 . S
C1466 C1467 1.391 . S
C1466 C1468 1.394 . S
C1466 H1482 0.931 . S
C1467 C1466 1.391 . S
C1467 C1471 1.376 . S
C1468 C1466 1.394 . S
C1468 C1469 1.369 . S
C1468 C1472 1.531 . S
C1469 C1468 1.369 . S
C1469 C1470 1.410 . S
C1469 C1477 1.503 . S
C1470 C1469 1.410 . S
C1470 C1471 1.392 . S
C1470 C1473 1.511 . S
C1471 C1467 1.376 . S
C1471 C1470 1.392 . S
C1471 H1483 0.929 . S
C1472 C1468 1.531 . S
C1472 H1484 0.960 . S
C1472 H1485 0.962 . S
C1472 H1486 0.960 . S
C1473 C1470 1.511 . S
C1473 H1487 0.961 . S
C1473 H1488 0.961 . S
C1473 H1489 0.961 . S
C1474 C1475 1.370 . S
C1474 C1476 1.363 . S
C1474 H1490 0.931 . S
C1475 C1474 1.370 . S
C1475 C1479 1.408 . S
C1476 C1474 1.363 . S
C1476 C1477 1.370 . S
C1476 C1480 1.524 . S
C1477 C1469 1.503 . S
C1477 C1476 1.370 . S
C1477 C1478 1.403 . S
C1478 C1477 1.403 . S
C1478 C1479 1.404 . S
C1478 C1481 1.539 . S
C1479 C1475 1.408 . S
C1479 C1478 1.404 . S
C1479 H1491 0.930 . S
C1480 C1476 1.524 . S
C1480 H1492 0.956 . S
C1480 H1493 0.961 . S
C1480 H1494 0.961 . S
C1481 C1478 1.539 . S
C1481 H1495 0.958 . S
C1481 H1496 0.961 . S
C1481 H1497 0.960 . S
H1482 C1466 0.931 . S
H1483 C1471 0.929 . S
H1484 C1472 0.960 . S
H1485 C1472 0.962 . S
H1486 C1472 0.960 . S
H1487 C1473 0.961 . S
H1488 C1473 0.961 . S
H1489 C1473 0.961 . S
H1490 C1474 0.931 . S
H1491 C1479 0.930 . S
H1492 C1480 0.956 . S
H1493 C1480 0.961 . S
H1494 C1480 0.961 . S
H1495 C1481 0.958 . S
H1496 C1481 0.961 . S
H1497 C1481 0.960 . S
C1498 C1499 1.391 . S
C1498 C1500 1.394 . S
C1498 H1514 0.931 . S
C1499 C1498 1.391 . S
C1499 C1503 1.376 . S
C1500 C1498 1.394 . S
C1500 C1501 1.369 . S
C1500 C1504 1.531 . S
C1501 C1500 1.369 . S
C1501 C1502 1.410 . S
C1501 C1509 1.503 . S
C1502 C1501 1.410 . S
C1502 C1503 1.392 . S
C1502 C1505 1.511 . S
C1503 C1499 1.376 . S
C1503 C1502 1.392 . S
C1503 H1515 0.929 . S
C1504 C1500 1.531 . S
C1504 H1516 0.960 . S
C1504 H1517 0.962 . S
C1504 H1518 0.960 . S
C1505 C1502 1.511 . S
C1505 H1519 0.961 . S
C1505 H1520 0.961 . S
C1505 H1521 0.961 . S
C1506 C1507 1.370 . S
C1506 C1508 1.363 . S
C1506 H1522 0.931 . S
C1507 C1506 1.370 . S
C1507 C1511 1.408 . S
C1508 C1506 1.363 . S
C1508 C1509 1.370 . S
C1508 C1512 1.524 . S
C1509 C1501 1.503 . S
C1509 C1508 1.370 . S
C1509 C1510 1.403 . S
C1510 C1509 1.403 . S
C1510 C1511 1.404 . S
C1510 C1513 1.539 . S
C1511 C1507 1.408 . S
C1511 C1510 1.404 . S
C1511 H1523 0.930 . S
C1512 C1508 1.524 . S
C1512 H1524 0.956 . S
C1512 H1525 0.961 . S
C1512 H1526 0.961 . S
C1513 C1510 1.539 . S
C1513 H1527 0.958 . S
C1513 H1528 0.961 . S
C1513 H1529 0.960 . S
H1514 C1498 0.931 . S
H1515 C1503 0.929 . S
H1516 C1504 0.960 . S
H1517 C1504 0.962 . S
H1518 C1504 0.960 . S
H1519 C1505 0.961 . S
H1520 C1505 0.961 . S
H1521 C1505 0.961 . S
H1522 C1506 0.931 . S
H1523 C1511 0.930 . S
H1524 C1512 0.956 . S
H1525 C1512 0.961 . S
H1526 C1512 0.961 . S
H1527 C1513 0.958 . S
H1528 C1513 0.961 . S
H1529 C1513 0.960 . S
C763 C39 2.262 . S
C771 C381 2.190 . S
C795 C91 1.415 . S
C803 C455 1.402 . S
C835 C505 1.691 . S
C827 C128 1.753 . S
C867 C591 1.134 . S
C859 C188 1.136 . S
C899 C683 1.916 . S
C891 C250 1.914 1_565 S
C931 C727 1.879 . S
C923 C304 1.923 . S
C955 C75 1.178 . S
C963 C529 1.143 . S
C987 C144 2.502 . S
C995 C609 2.496 . S
C1027 C665 1.440 . S
C1019 C198 1.425 . S
C1059 C751 1.277 . S
C1051 C234 1.308 . S
C1083 C294 2.079 . S
C1091 C357 1.987 . S
C1123 C431 1.843 . S
C1115 C29 1.862 . S
C1155 C603 2.017 . S
C1147 C38 2.205 . S
C1179 C92 2.155 . S
C1187 C653 2.030 . S
C1219 C757 2.239 . S
C1211 C135 2.323 . S
C1243 C181 1.297 . S
C1251 C369 1.260 . S
C1275 C251 1.880 . S
C1283 C443 1.845 . S
C1307 C303 2.446 . S
C1315 C535 2.326 . S
C1339 C82 1.815 . S
C1347 C739 1.756 . S
C1379 C387 2.271 . S
C1371 C145 2.280 . S
C1403 C197 2.319 . S
C1411 C461 2.224 . S
C1435 C241 1.619 1_565 S
C1443 C517 1.487 . S
C1467 C287 1.573 . S
C1475 C579 1.418 . S
C1499 C22 1.894 . S
C1507 C677 1.833 . S
