# Generated by pormake.
# Topology tbo, (3,4)-cn, num edge types: 1
# Building blocks:
#     Node 0, Type 0, BuildingBlock: CUQRIR_clean_linker_1, # of connection points: 3
#     Node 1, Type 0, BuildingBlock: CUQRIR_clean_linker_1, # of connection points: 3
#     Node 2, Type 0, BuildingBlock: CUQRIR_clean_linker_1, # of connection points: 3
#     Node 3, Type 0, BuildingBlock: CUQRIR_clean_linker_1, # of connection points: 3
#     Node 4, Type 0, BuildingBlock: CUQRIR_clean_linker_1, # of connection points: 3
#     Node 5, Type 0, BuildingBlock: CUQRIR_clean_linker_1, # of connection points: 3
#     Node 6, Type 0, BuildingBlock: CUQRIR_clean_linker_1, # of connection points: 3
#     Node 7, Type 0, BuildingBlock: CUQRIR_clean_linker_1, # of connection points: 3
#     Node 8, Type 0, BuildingBlock: CUQRIR_clean_linker_1, # of connection points: 3
#     Node 9, Type 0, BuildingBlock: CUQRIR_clean_linker_1, # of connection points: 3
#     Node 10, Type 0, BuildingBlock: CUQRIR_clean_linker_1, # of connection points: 3
#     Node 11, Type 0, BuildingBlock: CUQRIR_clean_linker_1, # of connection points: 3
#     Node 12, Type 0, BuildingBlock: CUQRIR_clean_linker_1, # of connection points: 3
#     Node 13, Type 0, BuildingBlock: CUQRIR_clean_linker_1, # of connection points: 3
#     Node 14, Type 0, BuildingBlock: CUQRIR_clean_linker_1, # of connection points: 3
#     Node 15, Type 0, BuildingBlock: CUQRIR_clean_linker_1, # of connection points: 3
#     Node 16, Type 0, BuildingBlock: CUQRIR_clean_linker_1, # of connection points: 3
#     Node 17, Type 0, BuildingBlock: CUQRIR_clean_linker_1, # of connection points: 3
#     Node 18, Type 0, BuildingBlock: CUQRIR_clean_linker_1, # of connection points: 3
#     Node 19, Type 0, BuildingBlock: CUQRIR_clean_linker_1, # of connection points: 3
#     Node 20, Type 0, BuildingBlock: CUQRIR_clean_linker_1, # of connection points: 3
#     Node 21, Type 0, BuildingBlock: CUQRIR_clean_linker_1, # of connection points: 3
#     Node 22, Type 0, BuildingBlock: CUQRIR_clean_linker_1, # of connection points: 3
#     Node 23, Type 0, BuildingBlock: CUQRIR_clean_linker_1, # of connection points: 3
#     Node 24, Type 0, BuildingBlock: CUQRIR_clean_linker_1, # of connection points: 3
#     Node 25, Type 0, BuildingBlock: CUQRIR_clean_linker_1, # of connection points: 3
#     Node 26, Type 0, BuildingBlock: CUQRIR_clean_linker_1, # of connection points: 3
#     Node 27, Type 0, BuildingBlock: CUQRIR_clean_linker_1, # of connection points: 3
#     Node 28, Type 0, BuildingBlock: CUQRIR_clean_linker_1, # of connection points: 3
#     Node 29, Type 0, BuildingBlock: CUQRIR_clean_linker_1, # of connection points: 3
#     Node 30, Type 0, BuildingBlock: CUQRIR_clean_linker_1, # of connection points: 3
#     Node 31, Type 0, BuildingBlock: CUQRIR_clean_linker_1, # of connection points: 3
#     Node 32, Type 1, BuildingBlock: ESEHIV_clean_sbu_0, # of connection points: 4
#     Node 33, Type 1, BuildingBlock: ESEHIV_clean_sbu_0, # of connection points: 4
#     Node 34, Type 1, BuildingBlock: ESEHIV_clean_sbu_0, # of connection points: 4
#     Node 35, Type 1, BuildingBlock: ESEHIV_clean_sbu_0, # of connection points: 4
#     Node 36, Type 1, BuildingBlock: ESEHIV_clean_sbu_0, # of connection points: 4
#     Node 37, Type 1, BuildingBlock: ESEHIV_clean_sbu_0, # of connection points: 4
#     Node 38, Type 1, BuildingBlock: ESEHIV_clean_sbu_0, # of connection points: 4
#     Node 39, Type 1, BuildingBlock: ESEHIV_clean_sbu_0, # of connection points: 4
#     Node 40, Type 1, BuildingBlock: ESEHIV_clean_sbu_0, # of connection points: 4
#     Node 41, Type 1, BuildingBlock: ESEHIV_clean_sbu_0, # of connection points: 4
#     Node 42, Type 1, BuildingBlock: ESEHIV_clean_sbu_0, # of connection points: 4
#     Node 43, Type 1, BuildingBlock: ESEHIV_clean_sbu_0, # of connection points: 4
#     Node 44, Type 1, BuildingBlock: ESEHIV_clean_sbu_0, # of connection points: 4
#     Node 45, Type 1, BuildingBlock: ESEHIV_clean_sbu_0, # of connection points: 4
#     Node 46, Type 1, BuildingBlock: ESEHIV_clean_sbu_0, # of connection points: 4
#     Node 47, Type 1, BuildingBlock: ESEHIV_clean_sbu_0, # of connection points: 4
#     Node 48, Type 1, BuildingBlock: ESEHIV_clean_sbu_0, # of connection points: 4
#     Node 49, Type 1, BuildingBlock: ESEHIV_clean_sbu_0, # of connection points: 4
#     Node 50, Type 1, BuildingBlock: ESEHIV_clean_sbu_0, # of connection points: 4
#     Node 51, Type 1, BuildingBlock: ESEHIV_clean_sbu_0, # of connection points: 4
#     Node 52, Type 1, BuildingBlock: ESEHIV_clean_sbu_0, # of connection points: 4
#     Node 53, Type 1, BuildingBlock: ESEHIV_clean_sbu_0, # of connection points: 4
#     Node 54, Type 1, BuildingBlock: ESEHIV_clean_sbu_0, # of connection points: 4
#     Node 55, Type 1, BuildingBlock: ESEHIV_clean_sbu_0, # of connection points: 4
#     Edge 56, Type (0, 1), BuildingBlock: UVAHIK_clean_linker_0, # of connection points: 2
#     Edge 57, Type (0, 1), BuildingBlock: UVAHIK_clean_linker_0, # of connection points: 2
#     Edge 58, Type (0, 1), BuildingBlock: UVAHIK_clean_linker_0, # of connection points: 2
#     Edge 59, Type (0, 1), BuildingBlock: UVAHIK_clean_linker_0, # of connection points: 2
#     Edge 60, Type (0, 1), BuildingBlock: UVAHIK_clean_linker_0, # of connection points: 2
#     Edge 61, Type (0, 1), BuildingBlock: UVAHIK_clean_linker_0, # of connection points: 2
#     Edge 62, Type (0, 1), BuildingBlock: UVAHIK_clean_linker_0, # of connection points: 2
#     Edge 63, Type (0, 1), BuildingBlock: UVAHIK_clean_linker_0, # of connection points: 2
#     Edge 64, Type (0, 1), BuildingBlock: UVAHIK_clean_linker_0, # of connection points: 2
#     Edge 65, Type (0, 1), BuildingBlock: UVAHIK_clean_linker_0, # of connection points: 2
#     Edge 66, Type (0, 1), BuildingBlock: UVAHIK_clean_linker_0, # of connection points: 2
#     Edge 67, Type (0, 1), BuildingBlock: UVAHIK_clean_linker_0, # of connection points: 2
#     Edge 68, Type (0, 1), BuildingBlock: UVAHIK_clean_linker_0, # of connection points: 2
#     Edge 69, Type (0, 1), BuildingBlock: UVAHIK_clean_linker_0, # of connection points: 2
#     Edge 70, Type (0, 1), BuildingBlock: UVAHIK_clean_linker_0, # of connection points: 2
#     Edge 71, Type (0, 1), BuildingBlock: UVAHIK_clean_linker_0, # of connection points: 2
#     Edge 72, Type (0, 1), BuildingBlock: UVAHIK_clean_linker_0, # of connection points: 2
#     Edge 73, Type (0, 1), BuildingBlock: UVAHIK_clean_linker_0, # of connection points: 2
#     Edge 74, Type (0, 1), BuildingBlock: UVAHIK_clean_linker_0, # of connection points: 2
#     Edge 75, Type (0, 1), BuildingBlock: UVAHIK_clean_linker_0, # of connection points: 2
#     Edge 76, Type (0, 1), BuildingBlock: UVAHIK_clean_linker_0, # of connection points: 2
#     Edge 77, Type (0, 1), BuildingBlock: UVAHIK_clean_linker_0, # of connection points: 2
#     Edge 78, Type (0, 1), BuildingBlock: UVAHIK_clean_linker_0, # of connection points: 2
#     Edge 79, Type (0, 1), BuildingBlock: UVAHIK_clean_linker_0, # of connection points: 2
#     Edge 80, Type (0, 1), BuildingBlock: UVAHIK_clean_linker_0, # of connection points: 2
#     Edge 81, Type (0, 1), BuildingBlock: UVAHIK_clean_linker_0, # of connection points: 2
#     Edge 82, Type (0, 1), BuildingBlock: UVAHIK_clean_linker_0, # of connection points: 2
#     Edge 83, Type (0, 1), BuildingBlock: UVAHIK_clean_linker_0, # of connection points: 2
#     Edge 84, Type (0, 1), BuildingBlock: UVAHIK_clean_linker_0, # of connection points: 2
#     Edge 85, Type (0, 1), BuildingBlock: UVAHIK_clean_linker_0, # of connection points: 2
#     Edge 86, Type (0, 1), BuildingBlock: UVAHIK_clean_linker_0, # of connection points: 2
#     Edge 87, Type (0, 1), BuildingBlock: UVAHIK_clean_linker_0, # of connection points: 2
#     Edge 88, Type (0, 1), BuildingBlock: UVAHIK_clean_linker_0, # of connection points: 2
#     Edge 89, Type (0, 1), BuildingBlock: UVAHIK_clean_linker_0, # of connection points: 2
#     Edge 90, Type (0, 1), BuildingBlock: UVAHIK_clean_linker_0, # of connection points: 2
#     Edge 91, Type (0, 1), BuildingBlock: UVAHIK_clean_linker_0, # of connection points: 2
#     Edge 92, Type (0, 1), BuildingBlock: UVAHIK_clean_linker_0, # of connection points: 2
#     Edge 93, Type (0, 1), BuildingBlock: UVAHIK_clean_linker_0, # of connection points: 2
#     Edge 94, Type (0, 1), BuildingBlock: UVAHIK_clean_linker_0, # of connection points: 2
#     Edge 95, Type (0, 1), BuildingBlock: UVAHIK_clean_linker_0, # of connection points: 2
#     Edge 96, Type (0, 1), BuildingBlock: UVAHIK_clean_linker_0, # of connection points: 2
#     Edge 97, Type (0, 1), BuildingBlock: UVAHIK_clean_linker_0, # of connection points: 2
#     Edge 98, Type (0, 1), BuildingBlock: UVAHIK_clean_linker_0, # of connection points: 2
#     Edge 99, Type (0, 1), BuildingBlock: UVAHIK_clean_linker_0, # of connection points: 2
#     Edge 100, Type (0, 1), BuildingBlock: UVAHIK_clean_linker_0, # of connection points: 2
#     Edge 101, Type (0, 1), BuildingBlock: UVAHIK_clean_linker_0, # of connection points: 2
#     Edge 102, Type (0, 1), BuildingBlock: UVAHIK_clean_linker_0, # of connection points: 2
#     Edge 103, Type (0, 1), BuildingBlock: UVAHIK_clean_linker_0, # of connection points: 2
#     Edge 104, Type (0, 1), BuildingBlock: UVAHIK_clean_linker_0, # of connection points: 2
#     Edge 105, Type (0, 1), BuildingBlock: UVAHIK_clean_linker_0, # of connection points: 2
#     Edge 106, Type (0, 1), BuildingBlock: UVAHIK_clean_linker_0, # of connection points: 2
#     Edge 107, Type (0, 1), BuildingBlock: UVAHIK_clean_linker_0, # of connection points: 2
#     Edge 108, Type (0, 1), BuildingBlock: UVAHIK_clean_linker_0, # of connection points: 2
#     Edge 109, Type (0, 1), BuildingBlock: UVAHIK_clean_linker_0, # of connection points: 2
#     Edge 110, Type (0, 1), BuildingBlock: UVAHIK_clean_linker_0, # of connection points: 2
#     Edge 111, Type (0, 1), BuildingBlock: UVAHIK_clean_linker_0, # of connection points: 2
#     Edge 112, Type (0, 1), BuildingBlock: UVAHIK_clean_linker_0, # of connection points: 2
#     Edge 113, Type (0, 1), BuildingBlock: UVAHIK_clean_linker_0, # of connection points: 2
#     Edge 114, Type (0, 1), BuildingBlock: UVAHIK_clean_linker_0, # of connection points: 2
#     Edge 115, Type (0, 1), BuildingBlock: UVAHIK_clean_linker_0, # of connection points: 2
#     Edge 116, Type (0, 1), BuildingBlock: UVAHIK_clean_linker_0, # of connection points: 2
#     Edge 117, Type (0, 1), BuildingBlock: UVAHIK_clean_linker_0, # of connection points: 2
#     Edge 118, Type (0, 1), BuildingBlock: UVAHIK_clean_linker_0, # of connection points: 2
#     Edge 119, Type (0, 1), BuildingBlock: UVAHIK_clean_linker_0, # of connection points: 2
#     Edge 120, Type (0, 1), BuildingBlock: UVAHIK_clean_linker_0, # of connection points: 2
#     Edge 121, Type (0, 1), BuildingBlock: UVAHIK_clean_linker_0, # of connection points: 2
#     Edge 122, Type (0, 1), BuildingBlock: UVAHIK_clean_linker_0, # of connection points: 2
#     Edge 123, Type (0, 1), BuildingBlock: UVAHIK_clean_linker_0, # of connection points: 2
#     Edge 124, Type (0, 1), BuildingBlock: UVAHIK_clean_linker_0, # of connection points: 2
#     Edge 125, Type (0, 1), BuildingBlock: UVAHIK_clean_linker_0, # of connection points: 2
#     Edge 126, Type (0, 1), BuildingBlock: UVAHIK_clean_linker_0, # of connection points: 2
#     Edge 127, Type (0, 1), BuildingBlock: UVAHIK_clean_linker_0, # of connection points: 2
#     Edge 128, Type (0, 1), BuildingBlock: UVAHIK_clean_linker_0, # of connection points: 2
#     Edge 129, Type (0, 1), BuildingBlock: UVAHIK_clean_linker_0, # of connection points: 2
#     Edge 130, Type (0, 1), BuildingBlock: UVAHIK_clean_linker_0, # of connection points: 2
#     Edge 131, Type (0, 1), BuildingBlock: UVAHIK_clean_linker_0, # of connection points: 2
#     Edge 132, Type (0, 1), BuildingBlock: UVAHIK_clean_linker_0, # of connection points: 2
#     Edge 133, Type (0, 1), BuildingBlock: UVAHIK_clean_linker_0, # of connection points: 2
#     Edge 134, Type (0, 1), BuildingBlock: UVAHIK_clean_linker_0, # of connection points: 2
#     Edge 135, Type (0, 1), BuildingBlock: UVAHIK_clean_linker_0, # of connection points: 2
#     Edge 136, Type (0, 1), BuildingBlock: UVAHIK_clean_linker_0, # of connection points: 2
#     Edge 137, Type (0, 1), BuildingBlock: UVAHIK_clean_linker_0, # of connection points: 2
#     Edge 138, Type (0, 1), BuildingBlock: UVAHIK_clean_linker_0, # of connection points: 2
#     Edge 139, Type (0, 1), BuildingBlock: UVAHIK_clean_linker_0, # of connection points: 2
#     Edge 140, Type (0, 1), BuildingBlock: UVAHIK_clean_linker_0, # of connection points: 2
#     Edge 141, Type (0, 1), BuildingBlock: UVAHIK_clean_linker_0, # of connection points: 2
#     Edge 142, Type (0, 1), BuildingBlock: UVAHIK_clean_linker_0, # of connection points: 2
#     Edge 143, Type (0, 1), BuildingBlock: UVAHIK_clean_linker_0, # of connection points: 2
#     Edge 144, Type (0, 1), BuildingBlock: UVAHIK_clean_linker_0, # of connection points: 2
#     Edge 145, Type (0, 1), BuildingBlock: UVAHIK_clean_linker_0, # of connection points: 2
#     Edge 146, Type (0, 1), BuildingBlock: UVAHIK_clean_linker_0, # of connection points: 2
#     Edge 147, Type (0, 1), BuildingBlock: UVAHIK_clean_linker_0, # of connection points: 2
#     Edge 148, Type (0, 1), BuildingBlock: UVAHIK_clean_linker_0, # of connection points: 2
#     Edge 149, Type (0, 1), BuildingBlock: UVAHIK_clean_linker_0, # of connection points: 2
#     Edge 150, Type (0, 1), BuildingBlock: UVAHIK_clean_linker_0, # of connection points: 2
#     Edge 151, Type (0, 1), BuildingBlock: UVAHIK_clean_linker_0, # of connection points: 2
# Relax obj value: 0.021
# Max RMSD: 0.194
# Mean RMSD: 0.118
data_MOF--net-tbo--node1-ESEHIV_clean_sbu_0--node2-CUQRIR_clean_linker_1--edge1-UVAHIK_clean_linker_0
_symmetry_space_group_name_H-M    P1
_symmetry_Int_Tables_number       1
_symmetry_cell_setting            triclinic
loop_
_symmetry_equiv_pos_as_xyz
'x, y, z'
_cell_length_a     89.068841
_cell_length_b     89.93569
_cell_length_c     86.677451
_cell_angle_alpha  86.836876
_cell_angle_beta   95.231076
_cell_angle_gamma 95.789581
loop_
_atom_site_label
_atom_site_type_symbol
_atom_site_fract_x
_atom_site_fract_y
_atom_site_fract_z
_atom_type_partial_charge
C0 C 0.19222 0.16502 0.21073 0.0
N1 N 0.20254 0.16511 0.20011 0.0
N2 N 0.18178 0.17469 0.20619 0.0
C3 C 0.19168 0.15471 0.22499 0.0
C4 C 0.18607 0.18063 0.19237 0.0
N5 N 0.19861 0.17472 0.18858 0.0
C6 C 0.17873 0.1931 0.18326 0.0
H7 H 0.19602 0.14391 0.22296 0.0
H8 H 0.17996 0.15251 0.22849 0.0
H9 H 0.19892 0.16004 0.23465 0.0
H10 H 0.18724 0.20067 0.17732 0.0
H11 H 0.17289 0.19973 0.19088 0.0
H12 H 0.17022 0.18822 0.17432 0.0
C13 C 0.83669 0.19619 0.17081 0.0
N14 N 0.84682 0.19035 0.18146 0.0
N15 N 0.84072 0.21091 0.16781 0.0
C16 C 0.82252 0.18765 0.16385 0.0
C17 C 0.85368 0.21382 0.17704 0.0
N18 N 0.85725 0.20137 0.18552 0.0
C19 C 0.86385 0.22826 0.1763 0.0
H20 H 0.82522 0.1819 0.15359 0.0
H21 H 0.81371 0.19529 0.1601 0.0
H22 H 0.81801 0.17902 0.17233 0.0
H23 H 0.86057 0.23588 0.18478 0.0
H24 H 0.86275 0.23385 0.16459 0.0
H25 H 0.8759 0.22633 0.17923 0.0
C26 C 0.87453 0.84626 0.18668 0.0
N27 N 0.87595 0.83549 0.1767 0.0
N28 N 0.86346 0.85497 0.18112 0.0
C29 C 0.88492 0.84915 0.20111 0.0
C30 C 0.85829 0.8491 0.1673 0.0
N31 N 0.86596 0.83736 0.16455 0.0
C32 C 0.84494 0.85401 0.1571 0.0
H33 H 0.88012 0.84263 0.21106 0.0
H34 H 0.88613 0.86118 0.20366 0.0
H35 H 0.89631 0.84558 0.1999 0.0
H36 H 0.84901 0.86265 0.14842 0.0
H37 H 0.83692 0.85887 0.16402 0.0
H38 H 0.83886 0.84448 0.1508 0.0
C39 C 0.18146 0.83369 0.17709 0.0
N40 N 0.19309 0.8442 0.17439 0.0
N41 N 0.17386 0.83752 0.18889 0.0
C42 C 0.17718 0.82004 0.16782 0.0
C43 C 0.18125 0.85067 0.19329 0.0
N44 N 0.19293 0.85474 0.18453 0.0
C45 C 0.177 0.85957 0.20615 0.0
H46 H 0.16964 0.82307 0.15746 0.0
H47 H 0.17101 0.81103 0.17468 0.0
H48 H 0.1874 0.81587 0.1638 0.0
H49 H 0.17114 0.85219 0.21488 0.0
H50 H 0.1692 0.8678 0.20116 0.0
H51 H 0.18718 0.8658 0.21193 0.0
C52 C 0.1822 0.85066 0.84179 0.0
N53 N 0.19465 0.85742 0.84965 0.0
N54 N 0.17793 0.85919 0.8291 0.0
C55 C 0.17344 0.83642 0.84715 0.0
C56 C 0.18812 0.8714 0.82954 0.0
N57 N 0.19826 0.87037 0.84209 0.0
C58 C 0.18866 0.88381 0.81718 0.0
H59 H 0.16131 0.83616 0.84282 0.0
H60 H 0.17435 0.83515 0.86 0.0
H61 H 0.1782 0.82679 0.84256 0.0
H62 H 0.18225 0.89289 0.82056 0.0
H63 H 0.1834 0.87978 0.80588 0.0
H64 H 0.20051 0.88848 0.81584 0.0
C65 C 0.21444 0.16357 0.85032 0.0
N66 N 0.21259 0.17437 0.86017 0.0
N67 N 0.2279 0.15786 0.85391 0.0
C68 C 0.20303 0.15836 0.83738 0.0
C69 C 0.23425 0.16566 0.86616 0.0
N70 N 0.22507 0.17581 0.86987 0.0
C71 C 0.24907 0.16283 0.87508 0.0
H72 H 0.19486 0.14951 0.84207 0.0
H73 H 0.20853 0.15356 0.8281 0.0
H74 H 0.1967 0.16772 0.8323 0.0
H75 H 0.25561 0.15558 0.86884 0.0
H76 H 0.24679 0.15738 0.88655 0.0
H77 H 0.25606 0.17356 0.87718 0.0
C78 C 0.87161 0.18768 0.85898 0.0
N79 N 0.87918 0.18289 0.84761 0.0
N80 N 0.87615 0.20219 0.8617 0.0
C81 C 0.85916 0.1785 0.86681 0.0
C82 C 0.88669 0.20611 0.85154 0.0
N83 N 0.88845 0.19442 0.84286 0.0
C84 C 0.89595 0.22103 0.85078 0.0
H85 H 0.85223 0.17114 0.85847 0.0
H86 H 0.85171 0.18574 0.87189 0.0
H87 H 0.86429 0.17132 0.87627 0.0
H88 H 0.89569 0.22714 0.8615 0.0
H89 H 0.89126 0.22786 0.84078 0.0
H90 H 0.90788 0.21956 0.84894 0.0
C91 C 0.86724 0.86511 0.83078 0.0
N92 N 0.8754 0.85374 0.83634 0.0
N93 N 0.87432 0.87344 0.81957 0.0
C94 C 0.85277 0.86854 0.83693 0.0
C95 C 0.88717 0.86674 0.81861 0.0
N96 N 0.88791 0.85483 0.82891 0.0
C97 C 0.89837 0.87109 0.80679 0.0
H98 H 0.84309 0.86209 0.83057 0.0
H99 H 0.85123 0.88063 0.83528 0.0
H100 H 0.85265 0.8652 0.84943 0.0
H101 H 0.90769 0.87886 0.81201 0.0
H102 H 0.89297 0.87682 0.79638 0.0
H103 H 0.90333 0.86112 0.80319 0.0
C104 C 0.19569 0.67648 0.68226 0.0
N105 N 0.20668 0.6755 0.67262 0.0
N106 N 0.1883 0.68882 0.67849 0.0
C107 C 0.19306 0.66611 0.69619 0.0
C108 C 0.19536 0.6954 0.66627 0.0
N109 N 0.20659 0.68736 0.66276 0.0
C110 C 0.1906 0.70907 0.65709 0.0
H111 H 0.18485 0.65654 0.69264 0.0
H112 H 0.18836 0.67192 0.70536 0.0
H113 H 0.20375 0.66164 0.70105 0.0
H114 H 0.19722 0.71912 0.66193 0.0
H115 H 0.17838 0.71017 0.65777 0.0
H116 H 0.19286 0.70865 0.64475 0.0
C117 C 0.84353 0.69915 0.65975 0.0
N118 N 0.85567 0.6961 0.66963 0.0
N119 N 0.84554 0.71329 0.65357 0.0
C120 C 0.82933 0.6888 0.65691 0.0
C121 C 0.8593 0.71871 0.6599 0.0
N122 N 0.86537 0.70834 0.66979 0.0
C123 C 0.8673 0.73368 0.65545 0.0
H124 H 0.83086 0.68132 0.64753 0.0
H125 H 0.81948 0.69518 0.65322 0.0
H126 H 0.82697 0.68177 0.66751 0.0
H127 H 0.86471 0.74207 0.6635 0.0
H128 H 0.86344 0.73742 0.64346 0.0
H129 H 0.87975 0.73324 0.65628 0.0
C130 C 0.88572 0.36422 0.70291 0.0
N131 N 0.88948 0.35317 0.69439 0.0
N132 N 0.87438 0.37142 0.6953 0.0
C133 C 0.89393 0.36871 0.71816 0.0
C134 C 0.87146 0.36439 0.68175 0.0
N135 N 0.88076 0.35338 0.68109 0.0
C136 C 0.85858 0.36737 0.66986 0.0
H137 H 0.88853 0.3621 0.72771 0.0
H138 H 0.89338 0.38077 0.71989 0.0
H139 H 0.90598 0.36641 0.71878 0.0
H140 H 0.86279 0.37566 0.66092 0.0
H141 H 0.84934 0.372 0.67527 0.0
H142 H 0.85394 0.35697 0.66409 0.0
C143 C 0.20152 0.34775 0.68194 0.0
N144 N 0.21228 0.35947 0.68075 0.0
N145 N 0.19098 0.35089 0.69127 0.0
C146 C 0.20059 0.33376 0.67301 0.0
C147 C 0.19561 0.36495 0.69564 0.0
N148 N 0.2085 0.37023 0.68916 0.0
C149 C 0.18807 0.37309 0.70704 0.0
H150 H 0.2049 0.33624 0.66144 0.0
H151 H 0.18878 0.32847 0.67149 0.0
H152 H 0.2077 0.32567 0.67952 0.0
H153 H 0.1816 0.36511 0.71478 0.0
H154 H 0.18006 0.38035 0.70055 0.0
H155 H 0.19655 0.38026 0.71419 0.0
C156 C 0.18267 0.34085 0.35818 0.0
N157 N 0.19636 0.34829 0.36211 0.0
N158 N 0.17697 0.34586 0.34406 0.0
C159 C 0.175 0.32849 0.36793 0.0
C160 C 0.18765 0.35651 0.33945 0.0
N161 N 0.19952 0.3579 0.35036 0.0
C162 C 0.1865 0.36547 0.32429 0.0
H163 H 0.1669 0.32097 0.36078 0.0
H164 H 0.16858 0.3335 0.37638 0.0
H165 H 0.18349 0.3218 0.37448 0.0
H166 H 0.17453 0.36618 0.31979 0.0
H167 H 0.19218 0.35989 0.31564 0.0
H168 H 0.19225 0.37692 0.32561 0.0
C169 C 0.20264 0.64537 0.32234 0.0
N170 N 0.19941 0.65691 0.33049 0.0
N171 N 0.21577 0.64008 0.3283 0.0
C172 C 0.19272 0.63902 0.30883 0.0
C173 C 0.22044 0.64891 0.34037 0.0
N174 N 0.21051 0.65919 0.34168 0.0
C175 C 0.23449 0.64717 0.35109 0.0
H176 H 0.1938 0.6269 0.30814 0.0
H177 H 0.19632 0.64485 0.29797 0.0
H178 H 0.18067 0.64073 0.30971 0.0
H179 H 0.24323 0.64243 0.34501 0.0
H180 H 0.23151 0.63939 0.36097 0.0
H181 H 0.23934 0.65796 0.35586 0.0
C182 C 0.84204 0.69005 0.35079 0.0
N183 N 0.85275 0.68536 0.34253 0.0
N184 N 0.8477 0.70212 0.35888 0.0
C185 C 0.82635 0.68229 0.35169 0.0
C186 C 0.86226 0.70459 0.35529 0.0
N187 N 0.8654 0.6943 0.34548 0.0
C188 C 0.87297 0.71784 0.36026 0.0
H189 H 0.81876 0.68676 0.34205 0.0
H190 H 0.82182 0.68428 0.36282 0.0
H191 H 0.82631 0.67007 0.35047 0.0
H192 H 0.88016 0.71447 0.37075 0.0
H193 H 0.86671 0.72724 0.3631 0.0
H194 H 0.88047 0.72175 0.35102 0.0
C195 C 0.86429 0.35679 0.3524 0.0
N196 N 0.87124 0.34468 0.35819 0.0
N197 N 0.87178 0.36393 0.34075 0.0
C198 C 0.85088 0.36231 0.3589 0.0
C199 C 0.88359 0.35572 0.33974 0.0
N200 N 0.88338 0.34412 0.35045 0.0
C201 C 0.89456 0.3583 0.32742 0.0
H202 H 0.84033 0.35682 0.35303 0.0
H203 H 0.85084 0.37459 0.35692 0.0
H204 H 0.8509 0.35946 0.37152 0.0
H205 H 0.90476 0.36534 0.33203 0.0
H206 H 0.88945 0.36414 0.31693 0.0
H207 H 0.89817 0.34755 0.3241 0.0
C208 C 0.6937 0.17192 0.68697 0.0
N209 N 0.70463 0.17303 0.67695 0.0
N210 N 0.68557 0.18396 0.68513 0.0
C211 C 0.69146 0.15944 0.69907 0.0
C212 C 0.69206 0.19247 0.67366 0.0
N213 N 0.70373 0.1859 0.66875 0.0
C214 C 0.68632 0.20667 0.66651 0.0
H215 H 0.68297 0.15066 0.69421 0.0
H216 H 0.68718 0.16355 0.70953 0.0
H217 H 0.70214 0.15428 0.70249 0.0
H218 H 0.69242 0.21634 0.67257 0.0
H219 H 0.67402 0.20673 0.66766 0.0
H220 H 0.68838 0.20804 0.65406 0.0
C221 C 0.34628 0.17683 0.67515 0.0
N222 N 0.35888 0.17683 0.68519 0.0
N223 N 0.34648 0.18975 0.66636 0.0
C224 C 0.33328 0.16477 0.67462 0.0
C225 C 0.35961 0.19762 0.67138 0.0
N226 N 0.36708 0.18982 0.68292 0.0
C227 C 0.3657 0.21234 0.66414 0.0
H228 H 0.33554 0.15613 0.6667 0.0
H229 H 0.32254 0.16938 0.67018 0.0
H230 H 0.33198 0.15935 0.6863 0.0
H231 H 0.36133 0.21356 0.65178 0.0
H232 H 0.37826 0.21342 0.66494 0.0
H233 H 0.36201 0.22156 0.67044 0.0
C234 C 0.37224 0.86475 0.69733 0.0
N235 N 0.37429 0.8546 0.68691 0.0
N236 N 0.36167 0.87389 0.69152 0.0
C237 C 0.3814 0.86648 0.71271 0.0
C238 C 0.35749 0.869 0.6771 0.0
N239 N 0.36528 0.85738 0.6742 0.0
C240 C 0.34491 0.87477 0.66636 0.0
H241 H 0.37585 0.85904 0.7216 0.0
H242 H 0.38217 0.87818 0.71637 0.0
H243 H 0.39302 0.86322 0.71214 0.0
H244 H 0.34982 0.88355 0.65828 0.0
H245 H 0.33666 0.87971 0.67292 0.0
H246 H 0.33885 0.86567 0.65939 0.0
C247 C 0.67544 0.84157 0.65746 0.0
N248 N 0.68533 0.85384 0.65529 0.0
N249 N 0.66635 0.8437 0.66868 0.0
C250 C 0.67469 0.82752 0.64865 0.0
C251 C 0.67097 0.85772 0.67319 0.0
N252 N 0.68238 0.86399 0.6649 0.0
C253 C 0.6645 0.86526 0.68582 0.0
H254 H 0.67652 0.83031 0.63629 0.0
H255 H 0.6637 0.82066 0.64937 0.0
H256 H 0.68381 0.82072 0.65366 0.0
H257 H 0.67375 0.87128 0.6932 0.0
H258 H 0.65771 0.85722 0.69317 0.0
H259 H 0.65704 0.87362 0.68045 0.0
C260 C 0.69885 0.8096 0.33877 0.0
N261 N 0.71253 0.81765 0.34035 0.0
N262 N 0.69151 0.8128 0.32479 0.0
C263 C 0.69263 0.79856 0.35079 0.0
C264 C 0.70121 0.82314 0.31794 0.0
N265 N 0.71404 0.826 0.32735 0.0
C266 C 0.69737 0.83178 0.30294 0.0
H267 H 0.68462 0.78977 0.34524 0.0
H268 H 0.68642 0.80448 0.35871 0.0
H269 H 0.70193 0.79329 0.35776 0.0
H270 H 0.68497 0.83221 0.30059 0.0
H271 H 0.70151 0.82613 0.29332 0.0
H272 H 0.70292 0.84338 0.30308 0.0
C273 C 0.70486 0.15491 0.33068 0.0
N274 N 0.70222 0.16481 0.34119 0.0
N275 N 0.71528 0.14573 0.33676 0.0
C276 C 0.6965 0.15349 0.31487 0.0
C277 C 0.71887 0.15036 0.35135 0.0
N278 N 0.71082 0.16181 0.35413 0.0
C279 C 0.73113 0.14449 0.36248 0.0
H280 H 0.69645 0.14202 0.31075 0.0
H281 H 0.70222 0.16149 0.30656 0.0
H282 H 0.68465 0.15623 0.31502 0.0
H283 H 0.7396 0.13953 0.35624 0.0
H284 H 0.7259 0.13571 0.37037 0.0
H285 H 0.73701 0.15353 0.36964 0.0
C286 C 0.36824 0.18262 0.38229 0.0
N287 N 0.37453 0.17765 0.37012 0.0
N288 N 0.37466 0.19642 0.38586 0.0
C289 C 0.35558 0.17419 0.39046 0.0
C290 C 0.38499 0.19976 0.37537 0.0
N291 N 0.38481 0.18842 0.36564 0.0
C292 C 0.39539 0.214 0.37486 0.0
H293 H 0.34744 0.16803 0.38203 0.0
H294 H 0.34948 0.18177 0.39677 0.0
H295 H 0.36038 0.1659 0.39898 0.0
H296 H 0.39708 0.2191 0.38632 0.0
H297 H 0.39028 0.22211 0.36635 0.0
H298 H 0.40655 0.21188 0.37114 0.0
C299 C 0.36169 0.85383 0.35247 0.0
N300 N 0.3698 0.84204 0.3566 0.0
N301 N 0.36797 0.86249 0.34097 0.0
C302 C 0.34817 0.85735 0.36032 0.0
C303 C 0.38022 0.85551 0.33829 0.0
N304 N 0.38145 0.84316 0.34791 0.0
C305 C 0.3901 0.85994 0.32528 0.0
H306 H 0.33781 0.85147 0.35451 0.0
H307 H 0.34702 0.86954 0.35953 0.0
H308 H 0.34907 0.85341 0.3727 0.0
H309 H 0.40007 0.86737 0.32974 0.0
H310 H 0.38388 0.86607 0.31568 0.0
H311 H 0.39421 0.84997 0.32066 0.0
C312 C 0.68531 0.67466 0.18687 0.0
N313 N 0.69576 0.67504 0.17637 0.0
N314 N 0.67711 0.68662 0.18455 0.0
C315 C 0.68385 0.66323 0.20014 0.0
C316 C 0.68305 0.69436 0.17229 0.0
N317 N 0.69445 0.6874 0.1674 0.0
C318 C 0.67725 0.70833 0.16463 0.0
H319 H 0.67582 0.65364 0.19629 0.0
H320 H 0.67944 0.66805 0.21014 0.0
H321 H 0.69495 0.65902 0.20394 0.0
H322 H 0.68327 0.71818 0.17045 0.0
H323 H 0.66494 0.70838 0.16572 0.0
H324 H 0.67937 0.70944 0.15219 0.0
C325 C 0.33675 0.66599 0.16681 0.0
N326 N 0.34889 0.66659 0.17742 0.0
N327 N 0.33649 0.67904 0.15825 0.0
C328 C 0.32483 0.65296 0.1653 0.0
C329 C 0.34897 0.68754 0.16402 0.0
N330 N 0.35639 0.68002 0.1758 0.0
C331 C 0.35467 0.70258 0.15716 0.0
H332 H 0.32857 0.64482 0.15764 0.0
H333 H 0.31387 0.65664 0.16015 0.0
H334 H 0.32324 0.6472 0.17678 0.0
H335 H 0.35004 0.71145 0.16316 0.0
H336 H 0.35098 0.70369 0.14461 0.0
H337 H 0.36722 0.70434 0.1587 0.0
C338 C 0.39685 0.35085 0.20648 0.0
N339 N 0.3992 0.33894 0.19836 0.0
N340 N 0.38336 0.35601 0.20161 0.0
C341 C 0.40774 0.35739 0.21921 0.0
C342 C 0.3775 0.34673 0.19032 0.0
N343 N 0.38703 0.33621 0.18845 0.0
C344 C 0.36251 0.348 0.18107 0.0
H345 H 0.4128 0.34833 0.22651 0.0
H346 H 0.40223 0.36447 0.22663 0.0
H347 H 0.41705 0.36444 0.21393 0.0
H348 H 0.36327 0.34543 0.1688 0.0
H349 H 0.35866 0.35929 0.1815 0.0
H350 H 0.35388 0.33975 0.18596 0.0
C351 C 0.70031 0.34951 0.16617 0.0
N352 N 0.7109 0.36137 0.16545 0.0
N353 N 0.69248 0.34992 0.1788 0.0
C354 C 0.69714 0.33793 0.15411 0.0
C355 C 0.69874 0.3625 0.18574 0.0
N356 N 0.70995 0.36948 0.17762 0.0
C357 C 0.69373 0.36805 0.20034 0.0
H358 H 0.69998 0.34271 0.14254 0.0
H359 H 0.68507 0.33334 0.15337 0.0
H360 H 0.70427 0.32862 0.15736 0.0
H361 H 0.70323 0.37427 0.20715 0.0
H362 H 0.68887 0.35862 0.2077 0.0
H363 H 0.68489 0.37578 0.19713 0.0
C364 C 0.68463 0.36333 0.83968 0.0
N365 N 0.69679 0.37262 0.84467 0.0
N366 N 0.67647 0.36997 0.82777 0.0
C367 C 0.68013 0.34821 0.84709 0.0
C368 C 0.68406 0.38366 0.82573 0.0
N369 N 0.69641 0.38529 0.83606 0.0
C370 C 0.68005 0.3949 0.8129 0.0
H371 H 0.68556 0.33961 0.84146 0.0
H372 H 0.66767 0.34546 0.8456 0.0
H373 H 0.68394 0.34778 0.85965 0.0
H374 H 0.67281 0.40279 0.81729 0.0
H375 H 0.67367 0.38931 0.80288 0.0
H376 H 0.69038 0.4014 0.80898 0.0
C377 C 0.6978 0.65908 0.82786 0.0
N378 N 0.69581 0.66896 0.83863 0.0
N379 N 0.71 0.65147 0.8323 0.0
C380 C 0.6882 0.65725 0.81276 0.0
C381 C 0.71529 0.65703 0.84617 0.0
N382 N 0.70664 0.66753 0.85009 0.0
C383 C 0.72917 0.65247 0.85574 0.0
H384 H 0.68846 0.64597 0.80832 0.0
H385 H 0.69268 0.6656 0.80401 0.0
H386 H 0.6763 0.6592 0.81413 0.0
H387 H 0.73908 0.66022 0.85273 0.0
H388 H 0.73134 0.64091 0.85336 0.0
H389 H 0.72795 0.65318 0.86829 0.0
C390 C 0.3582 0.6859 0.86156 0.0
N391 N 0.36657 0.68029 0.85133 0.0
N392 N 0.36585 0.69812 0.86813 0.0
C393 C 0.34316 0.67871 0.86612 0.0
C394 C 0.37919 0.69967 0.86155 0.0
N395 N 0.37966 0.6888 0.85146 0.0
C396 C 0.3915 0.71219 0.86439 0.0
H397 H 0.334 0.68317 0.85821 0.0
H398 H 0.34139 0.68121 0.87818 0.0
H399 H 0.34235 0.6664 0.86514 0.0
H400 H 0.39975 0.70856 0.87387 0.0
H401 H 0.38678 0.72234 0.86787 0.0
H402 H 0.39764 0.715 0.85388 0.0
C403 C 0.37612 0.35721 0.8553 0.0
N404 N 0.38318 0.34514 0.86104 0.0
N405 N 0.38399 0.36491 0.84427 0.0
C406 C 0.36223 0.36221 0.86138 0.0
C407 C 0.39616 0.35715 0.84358 0.0
N408 N 0.39578 0.34524 0.85388 0.0
C409 C 0.4079 0.36061 0.83212 0.0
H410 H 0.35201 0.35643 0.85521 0.0
H411 H 0.36179 0.37446 0.85942 0.0
H412 H 0.36198 0.35929 0.87396 0.0
H413 H 0.41768 0.36759 0.83768 0.0
H414 H 0.40328 0.36686 0.82165 0.0
H415 H 0.41203 0.35019 0.82856 0.0
Cu416 Cu 0.30094 0.25733 0.03001 0.0
N417 N 0.30312 0.27373 0.01579 0.0
N418 N 0.31167 0.28736 0.99538 0.0
C419 C 0.31242 0.27459 1.00428 0.0
C420 C 0.30145 0.29485 1.00162 0.0
C421 C 0.29615 0.28639 0.01416 0.0
O422 O 0.29944 0.24028 0.01664 0.0
C423 C 0.31905 0.2718 0.05277 0.0
O424 O 0.30921 0.28142 0.04822 0.0
H425 H 0.31967 0.26597 1.00258 0.0
H426 H 0.28778 0.28924 0.0215 0.0
N427 N 0.28325 0.25669 0.04033 0.0
N428 N 0.26679 0.24914 0.05791 0.0
C429 C 0.28129 0.24971 0.05429 0.0
C430 C 0.26958 0.26083 0.03497 0.0
C431 C 0.25941 0.25621 0.04578 0.0
C432 C 0.28831 0.23016 0.01608 0.0
O433 O 0.27947 0.22852 0.02749 0.0
H434 H 0.29015 0.24435 0.06118 0.0
H435 H 0.26704 0.26623 0.0237 0.0
O436 O 0.31796 0.25941 0.04604 0.0
H437 H 0.29781 0.30553 0.99728 0.0
H438 H 0.24743 0.25763 0.04461 0.0
Cu439 Cu 0.80015 0.31101 1.00208 0.0
N440 N 0.78285 0.31817 0.01102 0.0
N441 N 0.76876 0.32772 0.02744 0.0
C442 C 0.78291 0.32546 0.02421 0.0
C443 C 0.75951 0.32173 0.01566 0.0
C444 C 0.76822 0.31584 1.00559 0.0
O445 O 0.8055 0.29975 0.02241 0.0
C446 C 0.79258 0.33521 0.97938 0.0
O447 O 0.79536 0.34392 0.99119 0.0
H448 H 0.79305 0.32865 0.03154 0.0
H449 H 0.76418 0.31007 0.99517 0.0
N450 N 0.81729 0.30364 0.99322 0.0
N451 N 0.83072 0.29134 0.97847 0.0
C452 C 0.81688 0.29541 0.98061 0.0
C453 C 0.83183 0.30492 0.99915 0.0
C454 C 0.84013 0.29729 0.99011 0.0
C455 C 0.81364 0.30557 0.03374 0.0
O456 O 0.81944 0.31956 0.03245 0.0
H457 H 0.80661 0.29212 0.97345 0.0
H458 H 0.83606 0.31079 0.00945 0.0
O459 O 0.7942 0.32134 0.98135 0.0
H460 H 0.7473 0.3215 0.0144 0.0
H461 H 0.85217 0.2962 0.99194 0.0
Cu462 Cu 0.78767 0.76259 1.00097 0.0
N463 N 0.79031 0.77898 0.98679 0.0
N464 N 0.79946 0.79306 0.96691 0.0
C465 C 0.80016 0.78021 0.97575 0.0
C466 C 0.78866 0.80013 0.97272 0.0
C467 C 0.78302 0.79142 0.9849 0.0
O468 O 0.78551 0.74532 0.9879 0.0
C469 C 0.80817 0.77659 0.02266 0.0
O470 O 0.80119 0.78795 0.0165 0.0
H471 H 0.80747 0.77164 0.97411 0.0
H472 H 0.77425 0.79398 0.99191 0.0
N473 N 0.77008 0.76256 0.01131 0.0
N474 N 0.75411 0.75589 0.02955 0.0
C475 C 0.76866 0.75728 0.02603 0.0
C476 C 0.75596 0.76476 1.00532 0.0
C477 C 0.74607 0.76063 0.01655 0.0
C478 C 0.77518 0.73449 0.98884 0.0
O479 O 0.76757 0.73277 1.0012 0.0
H480 H 0.77799 0.75348 0.03362 0.0
H481 H 0.75297 0.76826 0.9934 0.0
O482 O 0.80453 0.7637 0.01719 0.0
H483 H 0.78509 0.81089 0.96859 0.0
H484 H 0.73387 0.76062 0.01508 0.0
Cu485 Cu 0.28673 0.79189 0.0144 0.0
N486 N 0.28815 0.80585 0.02994 0.0
N487 N 0.28174 0.81722 0.05045 0.0
C488 C 0.27858 0.80549 0.04117 0.0
C489 C 0.29383 0.82526 0.04475 0.0
C490 C 0.29773 0.81825 0.03212 0.0
O491 O 0.28386 0.77226 0.02473 0.0
C492 C 0.26774 0.80913 0.99517 0.0
O493 O 0.2758 0.82002 1.00252 0.0
H494 H 0.26921 0.79696 0.04217 0.0
H495 H 0.30668 0.82216 0.02484 0.0
N496 N 0.30406 0.79231 1.00351 0.0
N497 N 0.31882 0.78531 0.98615 0.0
C498 C 0.30465 0.78461 0.9907 0.0
C499 C 0.31837 0.79817 0.00718 0.0
C500 C 0.32749 0.79387 0.9965 0.0
C501 C 0.29543 0.76824 0.03301 0.0
O502 O 0.30789 0.77741 0.03383 0.0
H503 H 0.29496 0.77799 0.98532 0.0
H504 H 0.32209 0.80449 0.01731 0.0
O505 O 0.27015 0.79566 0.99901 0.0
H506 H 0.29949 0.83552 0.0493 0.0
H507 H 0.33961 0.79659 0.99656 0.0
Cu508 Cu 0.02182 0.23795 0.28869 0.0
N509 N 0.03467 0.22254 0.28963 0.0
N510 N 0.05385 0.21024 0.28338 0.0
C511 C 0.04754 0.22338 0.28241 0.0
C512 C 0.04452 0.20081 0.29171 0.0
C513 C 0.03272 0.2084 0.29551 0.0
O514 O 0.03476 0.25655 0.28877 0.0
C515 C 1.00527 0.22556 0.26187 0.0
O516 O 0.01403 0.21461 0.26418 0.0
H517 H 0.05191 0.23344 0.27625 0.0
H518 H 0.02307 0.20373 0.30149 0.0
N519 N 0.00959 0.23785 0.30524 0.0
N520 N 0.99187 0.24562 0.31895 0.0
C521 C 0.99956 0.24796 0.30614 0.0
C522 C 0.00832 0.22871 0.31796 0.0
C523 C 0.99742 0.23348 0.32644 0.0
C524 C 0.04197 0.25974 0.3017 0.0
O525 O 0.03987 0.25059 0.31383 0.0
H526 H 0.99815 0.257 0.29753 0.0
H527 H 0.01483 0.21929 0.32091 0.0
O528 O 1.00771 0.23685 0.2703 0.0
H529 H 0.0457 0.18907 0.29436 0.0
H530 H 0.99379 0.22825 0.3372 0.0
Cu531 Cu 0.79524 1.00414 0.25821 0.0
N532 N 0.79871 0.0178 0.24035 0.0
N533 N 0.80632 0.03818 0.22623 0.0
C534 C 0.80684 0.03122 0.24045 0.0
C535 C 0.7976 0.02865 0.21685 0.0
C536 C 0.79289 0.01606 0.22563 0.0
O537 O 0.78445 0.02 0.26781 0.0
C538 C 0.81567 0.98066 0.25447 0.0
O539 O 0.82126 0.98371 0.26862 0.0
H540 H 0.81297 0.0358 0.25073 0.0
H541 H 0.78553 0.00647 0.22165 0.0
N542 N 0.79181 0.99055 0.27616 0.0
N543 N 0.78596 0.96964 0.29024 0.0
C544 C 0.7848 0.97659 0.27603 0.0
C545 C 0.7975 0.99258 0.29089 0.0
C546 C 0.79391 0.97967 0.29962 0.0
C547 C 0.79129 0.03005 0.2764 0.0
O548 O 0.80599 0.03019 0.27974 0.0
H549 H 0.77964 0.97141 0.26561 0.0
H550 H 0.80423 1.00254 0.29487 0.0
O551 O 0.80514 0.988 0.2479 0.0
H552 H 0.79444 0.0308 0.20464 0.0
H553 H 0.79706 0.97774 0.31187 0.0
Cu554 Cu 0.02684 0.73594 0.25755 0.0
N555 N 0.01525 0.73762 0.23846 0.0
N556 N 0.99702 0.74498 0.22099 0.0
C557 C 1.0017 0.74322 0.23619 0.0
C558 C 1.00805 0.74013 0.21339 0.0
C559 C 0.01927 0.7356 0.22419 0.0
O560 O 0.01285 0.73148 0.27355 0.0
C561 C 0.04035 0.76573 0.25168 0.0
O562 O 0.0278 0.76786 0.24303 0.0
H563 H 0.99581 0.74677 0.24549 0.0
H564 H 0.02987 0.73167 0.22181 0.0
N565 N 0.03918 0.72025 0.2582 0.0
N566 N 0.05914 0.70726 0.26505 0.0
C567 C 0.05262 0.71996 0.26667 0.0
C568 C 0.03703 0.7073 0.25092 0.0
C569 C 0.04933 0.69927 0.25509 0.0
C570 C 1.00443 0.74065 0.27817 0.0
O571 O 1.00629 0.75479 0.27342 0.0
H572 H 0.05757 0.72905 0.27374 0.0
H573 H 0.02721 0.70392 0.24317 0.0
O574 O 0.04109 0.75371 0.26009 0.0
H575 H 1.00821 0.74015 0.20092 0.0
H576 H 0.05078 0.6883 0.25125 0.0
Cu577 Cu 0.28939 0.01876 0.26776 0.0
N578 N 0.29108 0.02767 0.28692 0.0
N579 N 0.29965 0.04434 0.30466 0.0
C580 C 0.30148 0.03908 0.29073 0.0
C581 C 0.2876 0.0358 0.30983 0.0
C582 C 0.28235 0.02549 0.29886 0.0
O583 O 0.2901 0.03524 0.2519 0.0
C584 C 0.30227 0.99371 0.27882 0.0
O585 O 0.29047 0.99362 0.28689 0.0
H586 H 0.30982 0.04382 0.28306 0.0
H587 H 0.27267 0.01725 0.29939 0.0
N588 N 0.27097 0.00719 0.26349 0.0
N589 N 0.2552 0.9887 0.25321 0.0
C590 C 0.26967 0.99468 0.25544 0.0
C591 C 0.25678 0.0093 0.26641 0.0
C592 C 0.24698 0.99789 0.26002 0.0
C593 C 0.28143 0.04532 0.25398 0.0
O594 O 0.2732 0.04372 0.26589 0.0
H595 H 0.2792 0.99024 0.251 0.0
H596 H 0.25374 0.01852 0.2726 0.0
O597 O 0.30492 1.00462 0.26904 0.0
H598 H 0.28284 0.03697 0.3207 0.0
H599 H 0.23481 0.99642 0.26045 0.0
Cu600 Cu 0.0336 0.76058 0.76133 0.0
N601 N 0.04594 0.74477 0.76283 0.0
N602 N 0.06441 0.73138 0.75701 0.0
C603 C 0.05851 0.7447 0.75527 0.0
C604 C 0.05517 0.72274 0.76613 0.0
C605 C 0.0438 0.73104 0.76973 0.0
O606 O 0.04704 0.77833 0.75741 0.0
C607 C 0.01606 0.74692 0.73566 0.0
O608 O 0.0267 0.73779 0.73599 0.0
H609 H 0.06281 0.75406 0.74801 0.0
H610 H 0.0344 0.7272 0.77646 0.0
N611 N 0.02404 0.76272 0.77938 0.0
N612 N 1.0074 0.77048 0.7944 0.0
C613 C 0.01129 0.76955 0.77978 0.0
C614 C 0.02837 0.75904 0.79425 0.0
C615 C 0.01812 0.76377 0.80354 0.0
C616 C 0.04448 0.79172 0.75933 0.0
O617 O 0.03111 0.79449 0.76308 0.0
H618 H 1.00512 0.77392 0.76947 0.0
H619 H 0.03846 0.75363 0.79809 0.0
O620 O 0.01756 0.75765 0.74482 0.0
H621 H 0.0564 0.7112 0.7698 0.0
H622 H 0.01884 0.76281 0.81608 0.0
Cu623 Cu 0.32068 0.01674 0.79733 0.0
N624 N 0.33827 0.02963 0.79593 0.0
N625 N 0.35265 0.05021 0.7887 0.0
C626 C 0.33844 0.04359 0.78953 0.0
C627 C 0.36181 0.03991 0.79484 0.0
C628 C 0.3529 0.0272 0.79927 0.0
O629 O 0.30405 0.02943 0.79727 0.0
C630 C 0.3274 0.99213 0.78255 0.0
O631 O 0.33659 0.99143 0.79524 0.0
H632 H 0.32826 0.04848 0.78491 0.0
H633 H 0.35682 0.01681 0.80411 0.0
N634 N 0.32092 1.0051 0.8159 0.0
N635 N 0.31254 0.98762 0.83315 0.0
C636 C 0.30911 0.99569 0.81997 0.0
C637 C 0.33225 1.00306 0.82699 0.0
C638 C 0.32712 0.99213 0.83762 0.0
C639 C 0.30335 0.03578 0.80996 0.0
O640 O 0.3134 0.03325 0.82162 0.0
H641 H 0.29839 0.99432 0.81299 0.0
H642 H 0.34353 0.00876 0.82712 0.0
O643 O 0.31901 1.00288 0.78043 0.0
H644 H 0.37407 0.04132 0.79583 0.0
H645 H 0.33361 0.9877 0.84769 0.0
Cu646 Cu 0.04959 0.25898 0.77711 0.0
N647 N 0.03927 0.27623 0.77561 0.0
N648 N 0.02129 0.29126 0.76727 0.0
C649 C 0.02511 0.27704 0.76884 0.0
C650 C 0.03355 0.29969 0.77348 0.0
C651 C 0.04463 0.29041 0.77851 0.0
O652 O 0.0337 0.24231 0.77638 0.0
C653 C 0.06011 0.26776 0.74753 0.0
O654 O 0.04684 0.27293 0.74441 0.0
H655 H 0.01798 0.26739 0.76463 0.0
H656 H 0.05603 0.29384 0.78325 0.0
N657 N 0.06269 0.25798 0.79532 0.0
N658 N 0.08228 0.25153 0.81153 0.0
C659 C 0.07353 0.2485 0.7983 0.0
C660 C 0.06464 0.26731 0.80711 0.0
C661 C 0.07674 0.26339 0.8171 0.0
C662 C 0.03074 0.2338 0.78818 0.0
O663 O 0.04006 0.23459 0.8008 0.0
H664 H 0.0753 0.23988 0.79059 0.0
H665 H 0.05797 0.27655 0.80819 0.0
O666 O 0.0627 0.2602 0.76019 0.0
H667 H 0.03474 0.31177 0.77367 0.0
H668 H 0.08118 0.26889 0.82759 0.0
Cu669 Cu 0.79045 0.02539 0.74567 0.0
N670 N 0.79383 0.03412 0.76496 0.0
N671 N 0.804 0.05016 0.78277 0.0
C672 C 0.80467 0.04528 0.76841 0.0
C673 C 0.79229 0.04161 0.78861 0.0
C674 C 0.78606 0.0317 0.77761 0.0
O675 O 0.79036 0.04178 0.72971 0.0
C676 C 0.80358 0.99986 0.75492 0.0
O677 O 0.7921 0.99915 0.76351 0.0
H678 H 0.8125 0.05011 0.76025 0.0
H679 H 0.77642 0.02349 0.77866 0.0
N680 N 0.77156 0.01425 0.74282 0.0
N681 N 0.75405 0.99654 0.73366 0.0
C682 C 0.76879 1.00192 0.73447 0.0
C683 C 0.75807 0.01688 0.7474 0.0
C684 C 0.74724 0.00596 0.74176 0.0
C685 C 0.78307 0.0527 0.73261 0.0
O686 O 0.77657 0.05225 0.74565 0.0
H687 H 0.77743 0.9972 0.7288 0.0
H688 H 0.75622 0.02616 0.75418 0.0
O689 O 0.80571 0.01115 0.74548 0.0
H690 H 0.78844 0.04249 0.79998 0.0
H691 H 0.7353 1.00501 0.74354 0.0
Cu692 Cu 0.28902 0.75664 0.50623 0.0
N693 N 0.29147 0.77481 0.51614 0.0
N694 N 0.29978 0.79122 0.5343 0.0
C695 C 0.29827 0.77673 0.53054 0.0
C696 C 0.29357 0.79869 0.52173 0.0
C697 C 0.28845 0.78853 0.51056 0.0
O698 O 0.28888 0.74146 0.52328 0.0
C699 C 0.3169 0.76543 0.49238 0.0
O700 O 0.32078 0.7733 0.50469 0.0
H701 H 0.30263 0.76771 0.53784 0.0
H702 H 0.28326 0.79102 0.49906 0.0
N703 N 0.27068 0.75428 0.49376 0.0
N704 N 0.25414 0.74626 0.47421 0.0
C705 C 0.26884 0.74803 0.47983 0.0
C706 C 0.25668 0.75665 0.49707 0.0
C707 C 0.24644 0.75168 0.48505 0.0
C708 C 0.27914 0.7301 0.52408 0.0
O709 O 0.27042 0.72629 0.5116 0.0
H710 H 0.27806 0.74422 0.47428 0.0
H711 H 0.25406 0.76121 0.5077 0.0
O712 O 0.30477 0.75658 0.4919 0.0
H713 H 0.29288 0.81065 0.5206 0.0
H714 H 0.23427 0.75188 0.48445 0.0
Cu715 Cu 0.79 0.81945 0.49742 0.0
N716 N 0.78195 0.80735 0.48126 0.0
N717 N 0.78195 0.79158 0.46216 0.0
C718 C 0.79019 0.79867 0.47391 0.0
C719 C 0.76786 0.79591 0.46224 0.0
C720 C 0.76787 0.80558 0.47412 0.0
O721 O 0.80877 0.83085 0.49196 0.0
C722 C 0.79887 0.81096 0.52834 0.0
O723 O 0.80013 0.82545 0.5302 0.0
H724 H 0.8022 0.79809 0.47681 0.0
H725 H 0.75842 0.81118 0.47711 0.0
N726 N 0.77661 0.83227 0.50376 0.0
N727 N 0.76189 0.84157 0.51976 0.0
C728 C 0.76716 0.82912 0.51506 0.0
C729 C 0.77738 0.84723 0.50132 0.0
C730 C 0.76819 0.85295 0.51097 0.0
C731 C 0.81305 0.83494 0.47858 0.0
O732 O 0.8269 0.84128 0.47764 0.0
H733 H 0.76509 0.81806 0.52049 0.0
H734 H 0.78517 0.85374 0.49413 0.0
O735 O 0.79493 0.80608 0.51495 0.0
H736 H 0.75823 0.79241 0.4543 0.0
H737 H 0.76731 0.86471 0.51239 0.0
Cu738 Cu 0.80822 0.2501 0.51958 0.0
N739 N 0.80353 0.23231 0.50901 0.0
N740 N 0.79178 0.21739 0.49084 0.0
C741 C 0.79465 0.23152 0.49557 0.0
C742 C 0.79917 0.2089 0.50179 0.0
C743 C 0.80644 0.21813 0.51297 0.0
O744 O 0.81089 0.26576 0.50312 0.0
C745 C 0.79321 0.24088 0.54478 0.0
O746 O 0.80384 0.23174 0.54502 0.0
H747 H 0.78993 0.24114 0.48966 0.0
H748 H 0.81302 0.21466 0.5234 0.0
N749 N 0.82636 0.25123 0.53257 0.0
N750 N 0.84247 0.25975 0.5522 0.0
C751 C 0.83034 0.26241 0.54231 0.0
C752 C 0.83647 0.24116 0.5363 0.0
C753 C 0.84638 0.24636 0.54849 0.0
C754 C 0.82121 0.2631 0.49459 0.0
O755 O 0.82869 0.25137 0.49838 0.0
H756 H 0.82385 0.27191 0.54274 0.0
H757 H 0.83626 0.23052 0.53103 0.0
O758 O 0.79222 0.25077 0.53364 0.0
H759 H 0.79926 0.19687 0.50179 0.0
H760 H 0.85553 0.24061 0.55437 0.0
Cu761 Cu 0.301 0.30024 0.52764 0.0
N762 N 0.30393 0.31659 0.54028 0.0
N763 N 0.2993 0.33157 0.55871 0.0
C764 C 0.29444 0.31921 0.55082 0.0
C765 C 0.31245 0.33692 0.55288 0.0
C766 C 0.31525 0.32767 0.54145 0.0
O767 O 0.29344 0.28344 0.54052 0.0
C768 C 0.29147 0.31345 0.49931 0.0
O769 O 0.30562 0.31932 0.50046 0.0
H770 H 0.28429 0.31195 0.55285 0.0
H771 H 0.32486 0.32891 0.53455 0.0
N772 N 0.31894 0.29558 0.52017 0.0
N773 N 0.33405 0.28555 0.50515 0.0
C774 C 0.31976 0.28847 0.50704 0.0
C775 C 0.33318 0.29725 0.52689 0.0
C776 C 0.34254 0.29108 0.51764 0.0
C777 C 0.29223 0.26989 0.53673 0.0
O778 O 0.2949 0.26682 0.52265 0.0
H779 H 0.30993 0.28503 0.49934 0.0
H780 H 0.33647 0.30229 0.53788 0.0
O781 O 0.28673 0.30464 0.51019 0.0
H782 H 0.31947 0.34687 0.5565 0.0
H783 H 0.35463 0.29063 0.52002 0.0
Cu784 Cu 0.81677 0.52457 0.77242 0.0
N785 N 0.83374 0.53766 0.76838 0.0
N786 N 0.84683 0.55822 0.75913 0.0
C787 C 0.83303 0.55083 0.76036 0.0
C788 C 0.85671 0.54918 0.76645 0.0
C789 C 0.84858 0.53647 0.77215 0.0
O790 O 0.79928 0.53635 0.77012 0.0
C791 C 0.82451 0.49737 0.76333 0.0
O792 O 0.83332 0.4989 0.77624 0.0
H793 H 0.8225 0.55482 0.75538 0.0
H794 H 0.85317 0.52705 0.77855 0.0
N795 N 0.81746 0.51711 0.79297 0.0
N796 N 0.80868 0.50402 0.81338 0.0
C797 C 0.80521 0.51021 0.79918 0.0
C798 C 0.82916 0.51547 0.80375 0.0
C799 C 0.82376 0.50714 0.81633 0.0
C800 C 0.80076 0.54751 0.77882 0.0
O801 O 0.81332 0.54985 0.78791 0.0
H802 H 0.79409 0.50889 0.79295 0.0
H803 H 0.84085 0.5193 0.80225 0.0
O804 O 0.81586 0.50757 0.7589 0.0
H805 H 0.8689 0.55165 0.76779 0.0
H806 H 0.83042 0.50324 0.82655 0.0
Cu807 Cu 0.31315 0.5282 0.74925 0.0
N808 N 0.33045 0.5178 0.75132 0.0
N809 N 0.34497 0.49943 0.75924 0.0
C810 C 0.33084 0.50385 0.75776 0.0
C811 C 0.35382 0.5111 0.7534 0.0
C812 C 0.34483 0.52241 0.74851 0.0
O813 O 0.29608 0.5131 0.74545 0.0
C814 C 0.32274 0.54093 0.7785 0.0
O815 O 0.33294 0.53126 0.77973 0.0
H816 H 0.321 0.49738 0.76195 0.0
H817 H 0.34858 0.53338 0.74373 0.0
N818 N 0.31286 0.5422 0.73247 0.0
N819 N 0.3049 0.56145 0.71748 0.0
C820 C 0.30282 0.5525 0.7303 0.0
C821 C 0.32168 0.54463 0.72061 0.0
C822 C 0.31677 0.55649 0.71131 0.0
C823 C 0.29571 0.50691 0.73252 0.0
O824 O 0.30613 0.51153 0.72309 0.0
H825 H 0.294 0.55321 0.73795 0.0
H826 H 0.33099 0.53824 0.71883 0.0
O827 O 0.31243 0.54016 0.76729 0.0
H828 H 0.36595 0.51154 0.75289 0.0
H829 H 0.32168 0.56117 0.70093 0.0
Cu830 Cu 0.32283 0.50401 0.28612 0.0
N831 N 0.32192 0.49315 0.30507 0.0
N832 N 0.31416 0.47456 0.32142 0.0
C833 C 0.31284 0.48044 0.3068 0.0
C834 C 0.32438 0.48402 0.32935 0.0
C835 C 0.3293 0.49547 0.31913 0.0
O836 O 0.3237 0.48917 0.2704 0.0
C837 C 0.30355 0.52322 0.29545 0.0
O838 O 0.31341 0.52246 0.30762 0.0
H839 H 0.30532 0.47563 0.29746 0.0
H840 H 0.33759 0.50483 0.32176 0.0
N841 N 0.34009 0.51756 0.28579 0.0
N842 N 0.35391 0.53867 0.27922 0.0
C843 C 0.33993 0.53214 0.28141 0.0
C844 C 0.35473 0.5148 0.28652 0.0
C845 C 0.3633 0.52782 0.28235 0.0
C846 C 0.33244 0.47891 0.27433 0.0
O847 O 0.34034 0.47933 0.28787 0.0
H848 H 0.32964 0.53755 0.27862 0.0
H849 H 0.3588 0.50392 0.28895 0.0
O850 O 0.30525 0.51578 0.2837 0.0
H851 H 0.32813 0.48263 0.34153 0.0
H852 H 0.37533 0.52906 0.281 0.0
Cu853 Cu 0.8066 0.52871 0.241 0.0
N854 N 0.82274 0.51662 0.24237 0.0
N855 N 0.83566 0.49716 0.25085 0.0
C856 C 0.82243 0.50338 0.25051 0.0
C857 C 0.84466 0.5069 0.24253 0.0
C858 C 0.83667 0.51885 0.23729 0.0
O859 O 0.78857 0.51431 0.23997 0.0
C860 C 0.8214 0.55092 0.2583 0.0
O861 O 0.83054 0.54961 0.24749 0.0
H862 H 0.81281 0.49869 0.25655 0.0
H863 H 0.84092 0.52862 0.23062 0.0
N864 N 0.80522 0.54203 0.22353 0.0
N865 N 0.79588 0.56054 0.20841 0.0
C866 C 0.79357 0.5505 0.22031 0.0
C867 C 0.81527 0.54684 0.21321 0.0
C868 C 0.80956 0.55832 0.2039 0.0
C869 C 0.78391 0.50954 0.2266 0.0
O870 O 0.7904 0.51552 0.21442 0.0
H871 H 0.78388 0.54975 0.22709 0.0
H872 H 0.82618 0.54271 0.21277 0.0
O873 O 0.80944 0.54182 0.25857 0.0
H874 H 0.85624 0.50555 0.24046 0.0
H875 H 0.81511 0.56466 0.19469 0.0
Cu876 Cu 0.53355 0.25042 0.7759 0.0
N877 N 0.52479 0.25175 0.79457 0.0
N878 N 0.50911 0.25887 0.81099 0.0
C879 C 0.51243 0.25886 0.79608 0.0
C880 C 0.51977 0.25126 0.81916 0.0
C881 C 0.52944 0.24691 0.809 0.0
O882 O 0.51691 0.24819 0.75984 0.0
C883 C 0.54418 0.28156 0.77437 0.0
O884 O 0.53059 0.28401 0.77773 0.0
H885 H 0.50609 0.26407 0.78635 0.0
H886 H 0.53934 0.24095 0.81197 0.0
N887 N 0.54544 0.23434 0.77628 0.0
N888 N 0.5634 0.22079 0.7696 0.0
C889 C 0.55811 0.2344 0.76886 0.0
C890 C 0.54264 0.22025 0.78206 0.0
C891 C 0.55369 0.21185 0.77793 0.0
C892 C 0.51593 0.23878 0.74927 0.0
O893 O 0.52737 0.23097 0.74786 0.0
H894 H 0.56287 0.24408 0.76235 0.0
H895 H 0.53297 0.21626 0.78835 0.0
O896 O 0.54709 0.26827 0.77246 0.0
H897 H 0.52085 0.24939 0.83164 0.0
H898 H 0.55438 0.20004 0.78067 0.0
Cu899 Cu 0.52884 0.75205 0.76775 0.0
N900 N 0.5418 0.75019 0.78603 0.0
N901 N 0.56173 0.74359 0.80171 0.0
C902 C 0.55538 0.74461 0.78697 0.0
C903 C 0.55168 0.74871 0.8104 0.0
C904 C 0.53942 0.75278 0.80071 0.0
O905 O 0.54167 0.75455 0.75055 0.0
C906 C 0.51371 0.72358 0.77608 0.0
O907 O 0.52652 0.72117 0.78414 0.0
H908 H 0.56026 0.7409 0.77703 0.0
H909 H 0.52935 0.75703 0.80414 0.0
N910 N 0.51803 0.76892 0.76686 0.0
N911 N 0.50035 0.7842 0.75822 0.0
C912 C 0.50631 0.77124 0.75631 0.0
C913 C 0.51964 0.78081 0.77582 0.0
C914 C 0.50876 0.79026 0.77051 0.0
C915 C 0.55232 0.76506 0.7523 0.0
O916 O 0.55324 0.773 0.76469 0.0
H917 H 0.5024 0.76355 0.74731 0.0
H918 H 0.52807 0.78248 0.78552 0.0
O919 O 0.5132 0.73519 0.76701 0.0
H920 H 0.55305 0.74943 0.82288 0.0
H921 H 0.50708 0.80065 0.77553 0.0
Cu922 Cu 0.51882 0.74513 0.27131 0.0
N923 N 0.50832 0.74512 0.28909 0.0
N924 N 0.49147 0.75173 0.30458 0.0
C925 C 0.49699 0.75368 0.29049 0.0
C926 C 0.4997 0.74136 0.31228 0.0
C927 C 0.51006 0.73731 0.3027 0.0
O928 O 0.50331 0.74367 0.25407 0.0
C929 C 0.53593 0.77228 0.28023 0.0
O930 O 0.5274 0.77155 0.29187 0.0
H931 H 0.49325 0.7615 0.28137 0.0
H932 H 0.51831 0.72933 0.3055 0.0
N933 N 0.53096 0.72926 0.2716 0.0
N934 N 0.54992 0.71679 0.26532 0.0
C935 C 0.54422 0.73017 0.26509 0.0
C936 C 0.52815 0.71481 0.27625 0.0
C937 C 0.53983 0.70708 0.27238 0.0
C938 C 0.50291 0.73456 0.24328 0.0
O939 O 0.5145 0.72683 0.24229 0.0
H940 H 0.54915 0.74035 0.25956 0.0
H941 H 0.51809 0.71014 0.28157 0.0
O942 O 0.5329 0.76298 0.26958 0.0
H943 H 0.49841 0.73693 0.32399 0.0
H944 H 0.54067 0.6952 0.27439 0.0
Cu945 Cu 0.54401 0.23454 0.26074 0.0
N946 N 0.5291 0.21832 0.26222 0.0
N947 N 0.50773 0.20592 0.26977 0.0
C948 C 0.51644 0.21908 0.26942 0.0
C949 C 0.51518 0.19642 0.26248 0.0
C950 C 0.52832 0.20413 0.25773 0.0
O951 O 0.53252 0.25218 0.25884 0.0
C952 C 0.56639 0.22083 0.27795 0.0
O953 O 0.56149 0.21131 0.26725 0.0
H954 H 0.5139 0.22906 0.27472 0.0
H955 H 0.53676 0.19956 0.25169 0.0
N956 N 0.55454 0.23538 0.24292 0.0
N957 N 0.57121 0.24522 0.22649 0.0
C958 C 0.56349 0.24758 0.23866 0.0
C959 C 0.55656 0.22487 0.23303 0.0
C960 C 0.56693 0.23091 0.22289 0.0
C961 C 0.52418 0.25277 0.24604 0.0
O962 O 0.52463 0.24225 0.23621 0.0
H963 H 0.56484 0.2578 0.2449 0.0
H964 H 0.5513 0.21352 0.23341 0.0
O965 O 0.55978 0.2328 0.27809 0.0
H966 H 0.51141 0.18477 0.26072 0.0
H967 H 0.57115 0.22517 0.21377 0.0
C968 C 0.19917 0.17898 0.16028 0.0
C969 C 0.20683 0.17904 0.17517 0.0
C970 C 0.2063 0.18546 0.14749 0.0
C971 C 0.24339 0.19932 0.13309 0.0
H972 H 0.2192 0.22528 0.10617 0.0
C973 C 0.26925 0.2392 0.08523 0.0
C974 C 0.26034 0.24128 0.07116 0.0
C975 C 0.26309 0.23128 0.09794 0.0
C976 C 0.2261 0.21793 0.11339 0.0
H977 H 0.22813 0.18519 0.1883 0.0
H978 H 0.2408 0.19643 0.16586 0.0
H979 H 0.20813 0.21134 0.12786 0.0
H980 H 0.23799 0.23635 0.05942 0.0
H981 H 0.22732 0.22246 0.08138 0.0
H982 H 0.26135 0.20586 0.11853 0.0
C983 C 0.22926 0.19138 0.16406 0.0
C984 C 0.21972 0.20991 0.12588 0.0
C985 C 0.22206 0.18492 0.1769 0.0
C986 C 0.24512 0.23522 0.07014 0.0
C987 C 0.23899 0.22723 0.08279 0.0
C988 C 0.24976 0.20729 0.1205 0.0
C989 C 0.22131 0.19211 0.14926 0.0
C990 C 0.22825 0.20047 0.13588 0.0
C991 C 0.24786 0.22515 0.09691 0.0
C992 C 0.24119 0.2167 0.11044 0.0
H993 H 0.18747 0.17434 0.15868 0.0
H994 H 0.19993 0.18553 0.13623 0.0
H995 H 0.25025 0.19208 0.1405 0.0
H996 H 0.28096 0.24384 0.08649 0.0
H997 H 0.27023 0.23015 0.10865 0.0
C998 C 0.83185 0.21594 0.14048 0.0
C999 C 0.83434 0.22061 0.15576 0.0
C1000 C 0.82725 0.22586 0.12845 0.0
C1001 C 0.83169 0.26489 0.11686 0.0
H1002 H 0.79973 0.25439 0.08479 0.0
C1003 C 0.81965 0.3038 0.06255 0.0
C1004 C 0.81569 0.29675 0.0485 0.0
C1005 C 0.82058 0.29533 0.07657 0.0
C1006 C 0.8088 0.25744 0.09356 0.0
H1007 H 0.83354 0.23901 0.17062 0.0
H1008 H 0.82595 0.25667 0.14937 0.0
H1009 H 0.80311 0.23782 0.10781 0.0
H1010 H 0.8101 0.27534 0.038 0.0
H1011 H 0.81232 0.26057 0.06224 0.0
H1012 H 0.83797 0.28409 0.10234 0.0
C1013 C 0.82744 0.24529 0.14679 0.0
C1014 C 0.81063 0.248 0.10678 0.0
C1015 C 0.83176 0.23525 0.15888 0.0
C1016 C 0.81303 0.2811 0.04867 0.0
C1017 C 0.81416 0.27264 0.06261 0.0
C1018 C 0.83002 0.27424 0.10353 0.0
C1019 C 0.82533 0.2407 0.13146 0.0
C1020 C 0.82224 0.25153 0.11841 0.0
C1021 C 0.81775 0.27964 0.07677 0.0
C1022 C 0.81874 0.27047 0.09157 0.0
H1023 H 0.83408 0.20482 0.13777 0.0
H1024 H 0.82589 0.22213 0.11669 0.0
H1025 H 0.84083 0.26775 0.12563 0.0
H1026 H 0.82164 0.31587 0.06275 0.0
H1027 H 0.82325 0.3011 0.08726 0.0
C1028 C 0.85995 0.81307 0.15213 0.0
C1029 C 0.86381 0.82859 0.15094 0.0
C1030 C 0.85667 0.80485 0.13873 0.0
C1031 C 0.86078 0.80693 0.0962 0.0
H1032 H 0.82424 0.77951 0.09381 0.0
C1033 C 0.82641 0.79333 0.03877 0.0
C1034 C 0.81883 0.77902 0.03665 0.0
C1035 C 0.83448 0.79685 0.05287 0.0
C1036 C 0.83465 0.78688 0.09435 0.0
H1037 H 0.86784 0.84762 0.13506 0.0
H1038 H 0.86208 0.83345 0.11166 0.0
H1039 H 0.83352 0.79049 0.11845 0.0
H1040 H 0.81417 0.75699 0.04753 0.0
H1041 H 0.82832 0.76318 0.07243 0.0
H1042 H 0.86164 0.80372 0.07202 0.0
C1043 C 0.86163 0.8275 0.12284 0.0
C1044 C 0.83997 0.79321 0.1085 0.0
C1045 C 0.86481 0.83567 0.1362 0.0
C1046 C 0.82003 0.76806 0.04878 0.0
C1047 C 0.82799 0.77166 0.06307 0.0
C1048 C 0.85547 0.80062 0.0821 0.0
C1049 C 0.85734 0.812 0.12389 0.0
C1050 C 0.85286 0.80366 0.10949 0.0
C1051 C 0.83508 0.78621 0.06535 0.0
C1052 C 0.84209 0.79085 0.08087 0.0
H1053 H 0.85907 0.80742 0.16342 0.0
H1054 H 0.85352 0.79292 0.13998 0.0
H1055 H 0.87093 0.81467 0.09661 0.0
H1056 H 0.82566 0.80202 0.02964 0.0
H1057 H 0.8396 0.8082 0.05421 0.0
C1058 C 0.19671 0.84529 0.14652 0.0
C1059 C 0.20287 0.84454 0.16199 0.0
C1060 C 0.20568 0.84357 0.13441 0.0
C1061 C 0.24535 0.84399 0.1243 0.0
H1062 H 0.22724 0.81792 0.09208 0.0
C1063 C 0.27459 0.83534 0.06855 0.0
C1064 C 0.27353 0.82069 0.06329 0.0
C1065 C 0.26637 0.83872 0.08073 0.0
C1066 C 0.23251 0.82516 0.10102 0.0
H1067 H 0.22311 0.84146 0.17703 0.0
H1068 H 0.239 0.83871 0.15589 0.0
H1069 H 0.21234 0.82343 0.11291 0.0
H1070 H 0.26317 0.79806 0.06726 0.0
H1071 H 0.24878 0.804 0.08827 0.0
H1072 H 0.26562 0.84554 0.11245 0.0
C1073 C 0.22729 0.84082 0.15305 0.0
C1074 C 0.2239 0.82847 0.11288 0.0
C1075 C 0.21826 0.84248 0.16516 0.0
C1076 C 0.26411 0.80952 0.0707 0.0
C1077 C 0.25584 0.81292 0.08281 0.0
C1078 C 0.25395 0.84076 0.11235 0.0
C1079 C 0.22102 0.84104 0.13753 0.0
C1080 C 0.2302 0.8379 0.12471 0.0
C1081 C 0.25679 0.82758 0.08794 0.0
C1082 C 0.24766 0.83123 0.10059 0.0
H1083 H 0.18483 0.84682 0.14387 0.0
H1084 H 0.20053 0.84402 0.12261 0.0
H1085 H 0.25054 0.85136 0.13317 0.0
H1086 H 0.28154 0.84431 0.06309 0.0
H1087 H 0.26725 0.85016 0.08426 0.0
C1088 C 0.20666 0.83793 0.86614 0.0
C1089 C 0.20181 0.85233 0.86428 0.0
C1090 C 0.21312 0.8328 0.8805 0.0
C1091 C 0.23273 0.84599 0.91704 0.0
H1092 H 0.22002 0.80626 0.93372 0.0
C1093 C 0.25299 0.82731 0.979 0.0
C1094 C 0.25754 0.81281 0.98138 0.0
C1095 C 0.24507 0.8316 0.9651 0.0
C1096 C 0.22381 0.81732 0.92916 0.0
H1097 H 0.19978 0.87268 0.87577 0.0
H1098 H 0.21134 0.86387 0.90089 0.0
H1099 H 0.20895 0.81488 0.90837 0.0
H1100 H 0.25685 0.79119 0.9713 0.0
H1101 H 0.24326 0.79875 0.94683 0.0
H1102 H 0.24776 0.84842 0.93757 0.0
C1103 C 0.21023 0.85655 0.89126 0.0
C1104 C 0.21746 0.82225 0.91465 0.0
C1105 C 0.20365 0.86161 0.87693 0.0
C1106 C 0.25343 0.80244 0.96982 0.0
C1107 C 0.24562 0.80678 0.9558 0.0
C1108 C 0.23914 0.84103 0.93146 0.0
C1109 C 0.21496 0.84206 0.89321 0.0
C1110 C 0.22181 0.83667 0.90848 0.0
C1111 C 0.24166 0.82153 0.95315 0.0
C1112 C 0.2347 0.82667 0.93777 0.0
H1113 H 0.20544 0.83069 0.85644 0.0
H1114 H 0.21684 0.82166 0.88161 0.0
H1115 H 0.23649 0.85706 0.91247 0.0
H1116 H 0.25584 0.83551 0.98777 0.0
H1117 H 0.24185 0.84292 0.96363 0.0
C1118 C 0.22076 0.17933 0.89698 0.0
C1119 C 0.22757 0.1845 0.88349 0.0
C1120 C 0.22626 0.18506 0.91136 0.0
C1121 C 0.25227 0.21537 0.93033 0.0
H1122 H 0.25673 0.18518 0.9637 0.0
C1123 C 0.28937 0.22807 0.98734 0.0
C1124 C 0.28313 0.22292 1.00122 0.0
C1125 C 0.28267 0.22316 0.973 0.0
C1126 C 0.25546 0.1938 0.95457 0.0
H1127 H 0.24481 0.20008 0.87411 0.0
H1128 H 0.25446 0.21023 0.89909 0.0
H1129 H 0.24358 0.17823 0.93888 0.0
H1130 H 0.26535 0.20797 0.01088 0.0
H1131 H 0.25378 0.19938 0.986 0.0
H1132 H 0.26431 0.2309 0.94602 0.0
C1133 C 0.2448 0.20189 0.89873 0.0
C1134 C 0.24783 0.18983 0.94032 0.0
C1135 C 0.23927 0.19615 0.8844 0.0
C1136 C 0.2705 0.21216 1.00045 0.0
C1137 C 0.26385 0.20721 0.98614 0.0
C1138 C 0.25994 0.21934 0.94458 0.0
C1139 C 0.23874 0.19604 0.9125 0.0
C1140 C 0.24614 0.20054 0.92797 0.0
C1141 C 0.26961 0.21291 0.97219 0.0
C1142 C 0.26168 0.2086 0.95689 0.0
H1143 H 0.21186 0.17019 0.8965 0.0
H1144 H 0.2211 0.18048 0.92165 0.0
H1145 H 0.25106 0.22398 0.92119 0.0
H1146 H 0.29906 0.2364 0.98745 0.0
H1147 H 0.28758 0.22759 0.96252 0.0
C1148 C 0.87424 0.2074 0.889 0.0
C1149 C 0.8713 0.21118 0.87318 0.0
C1150 C 0.86972 0.21623 0.90021 0.0
C1151 C 0.8422 0.24203 0.90704 0.0
H1152 H 0.87154 0.25599 0.94018 0.0
C1153 C 0.82781 0.28334 0.95141 0.0
C1154 C 0.83468 0.28218 0.9666 0.0
C1155 C 0.83212 0.27482 0.93979 0.0
C1156 C 0.86308 0.252 0.9312 0.0
H1157 H 0.86127 0.22681 0.85649 0.0
H1158 H 0.85293 0.24219 0.87614 0.0
H1159 H 0.87918 0.24062 0.92055 0.0
H1160 H 0.85099 0.2708 0.98172 0.0
H1161 H 0.85808 0.25549 0.96178 0.0
H1162 H 0.82592 0.25289 0.91788 0.0
C1163 C 0.85883 0.23248 0.87988 0.0
C1164 C 0.86753 0.24326 0.91989 0.0
C1165 C 0.86362 0.22379 0.86868 0.0
C1166 C 0.84569 0.2721 0.97004 0.0
C1167 C 0.84981 0.26338 0.95853 0.0
C1168 C 0.83766 0.25056 0.91852 0.0
C1169 C 0.86192 0.22884 0.89576 0.0
C1170 C 0.85715 0.23819 0.90769 0.0
C1171 C 0.84323 0.26471 0.94317 0.0
C1172 C 0.84803 0.25568 0.9308 0.0
H1173 H 0.88017 0.19769 0.89262 0.0
H1174 H 0.87216 0.21311 0.91236 0.0
H1175 H 0.83393 0.23816 0.89783 0.0
H1176 H 0.81939 0.29114 0.94843 0.0
H1177 H 0.82693 0.2764 0.92811 0.0
C1178 C 0.85902 0.83266 0.84669 0.0
C1179 C 0.87155 0.84329 0.84888 0.0
C1180 C 0.85255 0.82516 0.85942 0.0
C1181 C 0.85763 0.81848 0.90264 0.0
H1182 H 0.81372 0.81469 0.89834 0.0
C1183 C 0.82165 0.79172 0.95165 0.0
C1184 C 0.80817 0.79799 0.95387 0.0
C1185 C 0.82991 0.79634 0.93892 0.0
C1186 C 0.82598 0.81577 0.89984 0.0
H1187 H 0.88752 0.85418 0.86587 0.0
H1188 H 0.87625 0.84126 0.88829 0.0
H1189 H 0.82757 0.82373 0.87632 0.0
H1190 H 0.793 0.81419 0.94416 0.0
H1191 H 0.80754 0.82249 0.9224 0.0
H1192 H 0.85595 0.81108 0.92641 0.0
C1193 C 0.87151 0.83837 0.87678 0.0
C1194 C 0.83398 0.82073 0.88706 0.0
C1195 C 0.87805 0.84575 0.86397 0.0
C1196 C 0.80332 0.80912 0.94302 0.0
C1197 C 0.8116 0.81377 0.93035 0.0
C1198 C 0.84961 0.81356 0.91547 0.0
C1199 C 0.85833 0.82834 0.87469 0.0
C1200 C 0.84993 0.82223 0.88825 0.0
C1201 C 0.82499 0.8074 0.92804 0.0
C1202 C 0.83365 0.81224 0.91429 0.0
H1203 H 0.85375 0.83078 0.83511 0.0
H1204 H 0.84266 0.81728 0.85728 0.0
H1205 H 0.86989 0.81936 0.90402 0.0
H1206 H 0.82593 0.78327 0.95976 0.0
H1207 H 0.84006 0.79105 0.93751 0.0
C1208 C 0.15432 0.17653 0.20674 0.0
C1209 C 0.16902 0.17794 0.21418 0.0
C1210 C 0.14195 0.17981 0.21441 0.0
C1211 C 0.13003 0.18515 0.25383 0.0
H1212 H 0.09736 0.204 0.23034 0.0
C1213 C 0.07415 0.19368 0.28055 0.0
C1214 C 0.06706 0.20675 0.27609 0.0
C1215 C 0.08665 0.19012 0.27321 0.0
C1216 C 0.10643 0.19887 0.23716 0.0
H1217 H 0.18241 0.18395 0.23536 0.0
H1218 H 0.16091 0.18995 0.24878 0.0
H1219 H 0.11898 0.19825 0.21734 0.0
H1220 H 0.06793 0.22631 0.26019 0.0
H1221 H 0.0898 0.22038 0.2479 0.0
H1222 H 0.11767 0.18622 0.27375 0.0
C1223 C 0.15879 0.18602 0.23713 0.0
C1224 C 0.11878 0.19535 0.22962 0.0
C1225 C 0.17114 0.18266 0.22946 0.0
C1226 C 0.073 0.21621 0.26416 0.0
C1227 C 0.08553 0.21269 0.25689 0.0
C1228 C 0.11769 0.18874 0.26139 0.0
C1229 C 0.14399 0.18468 0.22971 0.0
C1230 C 0.13078 0.18842 0.23782 0.0
C1231 C 0.09249 0.19954 0.26122 0.0
C1232 C 0.10569 0.19566 0.25318 0.0
H1233 H 0.15243 0.17277 0.19501 0.0
H1234 H 0.13075 0.17835 0.20837 0.0
H1235 H 0.13891 0.17966 0.26055 0.0
H1236 H 0.07012 0.18613 0.28975 0.0
H1237 H 0.09155 0.17981 0.27681 0.0
C1238 C 0.84568 0.17072 0.20241 0.0
C1239 C 0.84679 0.17493 0.18672 0.0
C1240 C 0.84354 0.15556 0.2071 0.0
C1241 C 0.82793 0.11969 0.19094 0.0
H1242 H 0.845 0.10225 0.2297 0.0
C1243 C 0.81639 0.05691 0.20688 0.0
C1244 C 0.81286 0.05304 0.22214 0.0
C1245 C 0.82212 0.07149 0.20277 0.0
C1246 C 0.84007 0.107 0.21888 0.0
H1247 H 0.84773 0.167 0.1638 0.0
H1248 H 0.84424 0.1405 0.1719 0.0
H1249 H 0.85264 0.12836 0.22228 0.0
H1250 H 0.81265 0.06151 0.24508 0.0
H1251 H 0.82258 0.08692 0.2379 0.0
H1252 H 0.81521 0.0985 0.18759 0.0
C1253 C 0.84457 0.14878 0.18057 0.0
C1254 C 0.84445 0.12194 0.21464 0.0
C1255 C 0.84663 0.16388 0.17592 0.0
C1256 C 0.81545 0.06403 0.23327 0.0
C1257 C 0.82116 0.07862 0.22916 0.0
C1258 C 0.82357 0.1048 0.19517 0.0
C1259 C 0.84255 0.14443 0.19614 0.0
C1260 C 0.83841 0.12845 0.20061 0.0
C1261 C 0.82441 0.08255 0.21382 0.0
C1262 C 0.82955 0.09827 0.2092 0.0
H1263 H 0.84577 0.17917 0.21085 0.0
H1264 H 0.84197 0.15259 0.21917 0.0
H1265 H 0.82279 0.12443 0.18022 0.0
H1266 H 0.81477 0.04866 0.1981 0.0
H1267 H 0.82475 0.07409 0.19091 0.0
C1268 C 0.89718 0.8234 0.16783 0.0
C1269 C 0.88659 0.82431 0.17868 0.0
C1270 C 0.9084 0.81346 0.17059 0.0
C1271 C 0.91895 0.78003 0.19498 0.0
H1272 H 0.96003 0.79534 0.18746 0.0
C1273 C 0.97118 0.75226 0.22303 0.0
C1274 C 0.98384 0.75208 0.21446 0.0
C1275 C 0.95883 0.75996 0.21723 0.0
C1276 C 0.94861 0.79077 0.18942 0.0
H1277 H 0.87894 0.81534 0.20055 0.0
H1278 H 0.89852 0.79806 0.20553 0.0
H1279 H 0.93926 0.81058 0.17968 0.0
H1280 H 0.99317 0.75974 0.19284 0.0
H1281 H 0.97152 0.77294 0.18261 0.0
H1282 H 0.92832 0.7603 0.20494 0.0
C1283 C 0.8982 0.80487 0.19483 0.0
C1284 C 0.93667 0.79953 0.18494 0.0
C1285 C 0.88706 0.81481 0.19207 0.0
C1286 C 0.98362 0.75953 0.19974 0.0
C1287 C 0.97125 0.76726 0.19394 0.0
C1288 C 0.93088 0.77126 0.19945 0.0
C1289 C 0.90917 0.80419 0.18424 0.0
C1290 C 0.9217 0.79436 0.18785 0.0
C1291 C 0.95875 0.7677 0.20267 0.0
C1292 C 0.9459 0.77659 0.19693 0.0
H1293 H 0.89704 0.83069 0.15747 0.0
H1294 H 0.91654 0.81312 0.1621 0.0
H1295 H 0.90755 0.77557 0.19717 0.0
H1296 H 0.97084 0.74652 0.23432 0.0
H1297 H 0.94949 0.76015 0.22437 0.0
C1298 C 0.19632 0.88209 0.18174 0.0
C1299 C 0.20256 0.86852 0.18556 0.0
C1300 C 0.20385 0.89556 0.18684 0.0
C1301 C 0.23142 0.90867 0.2189 0.0
H1302 H 0.22699 0.94764 0.1985 0.0
C1303 C 0.25911 0.96354 0.24519 0.0
C1304 C 0.2499 0.97537 0.24503 0.0
C1305 C 0.25425 0.95075 0.23697 0.0
C1306 C 0.22824 0.93682 0.20436 0.0
H1307 H 0.22168 0.85831 0.19713 0.0
H1308 H 0.23543 0.88188 0.20529 0.0
H1309 H 0.2181 0.92505 0.18463 0.0
H1310 H 0.22839 0.98306 0.23607 0.0
H1311 H 0.21985 0.96064 0.22163 0.0
H1312 H 0.24159 0.92046 0.23859 0.0
C1313 C 0.22456 0.88219 0.19864 0.0
C1314 C 0.22315 0.92386 0.19642 0.0
C1315 C 0.2169 0.8687 0.19367 0.0
C1316 C 0.23567 0.97409 0.23649 0.0
C1317 C 0.23087 0.96134 0.22811 0.0
C1318 C 0.23663 0.9216 0.22676 0.0
C1319 C 0.21784 0.89573 0.19587 0.0
C1320 C 0.22452 0.90959 0.20365 0.0
C1321 C 0.24011 0.94952 0.22827 0.0
C1322 C 0.23496 0.93582 0.21965 0.0
H1323 H 0.18508 0.88207 0.1758 0.0
H1324 H 0.19818 0.90565 0.1846 0.0
H1325 H 0.23236 0.89794 0.22504 0.0
H1326 H 0.27006 0.96413 0.25179 0.0
H1327 H 0.26166 0.94187 0.23728 0.0
C1328 C 0.15366 0.86619 0.81637 0.0
C1329 C 0.16499 0.85632 0.81819 0.0
C1330 C 0.14055 0.86288 0.80656 0.0
C1331 C 0.12416 0.83956 0.77437 0.0
H1332 H 0.08668 0.83887 0.794 0.0
C1333 C 0.07188 0.7999 0.75737 0.0
C1334 C 0.05738 0.80346 0.76013 0.0
C1335 C 0.08462 0.80983 0.76093 0.0
C1336 C 0.09693 0.83935 0.7881 0.0
H1337 H 0.17199 0.83566 0.81102 0.0
H1338 H 0.14907 0.82979 0.79369 0.0
H1339 H 0.11015 0.84988 0.80707 0.0
H1340 H 0.04476 0.82084 0.76747 0.0
H1341 H 0.06705 0.83837 0.77338 0.0
H1342 H 0.11103 0.82877 0.75552 0.0
C1343 C 0.15029 0.8401 0.79977 0.0
C1344 C 0.11042 0.84562 0.79566 0.0
C1345 C 0.16331 0.84335 0.80972 0.0
C1346 C 0.05579 0.81769 0.76536 0.0
C1347 C 0.06858 0.8277 0.76885 0.0
C1348 C 0.11065 0.83345 0.76671 0.0
C1349 C 0.13868 0.84972 0.79828 0.0
C1350 C 0.12422 0.84533 0.7891 0.0
C1351 C 0.0832 0.82364 0.76723 0.0
C1352 C 0.09695 0.83277 0.77374 0.0
H1353 H 0.15482 0.87623 0.82291 0.0
H1354 H 0.13179 0.87048 0.8056 0.0
H1355 H 0.13464 0.83941 0.76896 0.0
H1356 H 0.07353 0.78908 0.75325 0.0
H1357 H 0.09565 0.80621 0.75965 0.0
C1358 C 0.23469 0.13197 0.85734 0.0
C1359 C 0.23322 0.14495 0.84782 0.0
C1360 C 0.24087 0.11975 0.85196 0.0
C1361 C 0.24962 0.10184 0.81691 0.0
H1362 H 0.27995 0.08453 0.84536 0.0
C1363 C 0.28778 0.0568 0.80015 0.0
C1364 C 0.29205 0.04633 0.81196 0.0
C1365 C 0.27929 0.06845 0.80338 0.0
C1366 C 0.27133 0.08901 0.83732 0.0
H1367 H 0.23677 0.1554 0.82524 0.0
H1368 H 0.24748 0.13386 0.81561 0.0
H1369 H 0.26762 0.10542 0.85313 0.0
H1370 H 0.28987 0.03909 0.83596 0.0
H1371 H 0.27463 0.05878 0.84139 0.0
H1372 H 0.25331 0.08524 0.80113 0.0
C1373 C 0.24378 0.1331 0.82721 0.0
C1374 C 0.26429 0.10107 0.84179 0.0
C1375 C 0.23769 0.1454 0.83268 0.0
C1376 C 0.28689 0.04712 0.82668 0.0
C1377 C 0.27827 0.05852 0.82983 0.0
C1378 C 0.25662 0.08963 0.81246 0.0
C1379 C 0.24566 0.12022 0.8369 0.0
C1380 C 0.25325 0.10756 0.83173 0.0
C1381 C 0.27483 0.0697 0.81843 0.0
C1382 C 0.26746 0.08294 0.8227 0.0
H1383 H 0.23126 0.13144 0.86904 0.0
H1384 H 0.24198 0.10994 0.85965 0.0
H1385 H 0.24113 0.1066 0.80891 0.0
H1386 H 0.29173 0.0565 0.78873 0.0
H1387 H 0.27687 0.07685 0.7943 0.0
C1388 C 0.91229 0.1853 0.83698 0.0
C1389 C 0.90017 0.19385 0.83259 0.0
C1390 C 0.92528 0.18708 0.82883 0.0
C1391 C 0.94541 0.21569 0.80349 0.0
H1392 H 0.9731 0.18522 0.80249 0.0
C1393 C 1.00328 0.22913 0.77856 0.0
C1394 C 0.01559 0.22536 0.78888 0.0
C1395 C 0.98849 0.22321 0.78105 0.0
C1396 C 0.96545 0.19382 0.80264 0.0
H1397 H 0.89145 0.21014 0.81583 0.0
H1398 H 0.91374 0.21281 0.80099 0.0
H1399 H 0.94802 0.17845 0.81156 0.0
H1400 H 0.0221 0.2116 0.80924 0.0
H1401 H 0.99635 0.2011 0.81341 0.0
H1402 H 0.96288 0.23104 0.79465 0.0
C1403 C 0.9136 0.2051 0.81103 0.0
C1404 C 0.95109 0.18998 0.80792 0.0
C1405 C 0.90075 0.20347 0.81935 0.0
C1406 C 0.01287 0.21476 0.8011 0.0
C1407 C 0.99812 0.2087 0.80346 0.0
C1408 C 0.95966 0.21947 0.79803 0.0
C1409 C 0.92631 0.19736 0.81599 0.0
C1410 C 0.94096 0.20093 0.80873 0.0
C1411 C 0.98571 0.21322 0.79376 0.0
C1412 C 0.96996 0.20865 0.79782 0.0
H1413 H 0.91207 0.17796 0.84731 0.0
H1414 H 0.9348 0.18102 0.83319 0.0
H1415 H 0.93818 0.22456 0.8042 0.0
H1416 H 1.00495 0.23729 0.76905 0.0
H1417 H 0.97918 0.22679 0.77329 0.0
C1418 C 0.87862 0.89968 0.80944 0.0
C1419 C 0.86918 0.88626 0.81057 0.0
C1420 C 0.87345 0.91223 0.80105 0.0
C1421 C 0.84264 0.92365 0.77178 0.0
H1422 H 0.8528 0.96279 0.78866 0.0
C1423 C 0.80616 0.97267 0.75836 0.0
C1424 C 0.81316 0.98727 0.75633 0.0
C1425 C 0.81477 0.96067 0.7623 0.0
C1426 C 0.85008 0.95199 0.78363 0.0
H1427 H 0.84708 0.8753 0.80361 0.0
H1428 H 0.83778 0.89719 0.78943 0.0
H1429 H 0.86428 0.94119 0.80116 0.0
H1430 H 0.8347 1.00076 0.75647 0.0
H1431 H 0.84994 0.97964 0.76373 0.0
H1432 H 0.82792 0.9344 0.75467 0.0
C1433 C 0.8493 0.89809 0.79472 0.0
C1434 C 0.85665 0.93956 0.7908 0.0
C1435 C 0.85453 0.88556 0.80302 0.0
C1436 C 0.82905 0.98958 0.75779 0.0
C1437 C 0.83772 0.97753 0.76208 0.0
C1438 C 0.83598 0.93604 0.76471 0.0
C1439 C 0.85866 0.91164 0.79363 0.0
C1440 C 0.85278 0.92514 0.78517 0.0
C1441 C 0.83063 0.96297 0.76461 0.0
C1442 C 0.83938 0.9503 0.77073 0.0
H1443 H 0.88995 0.9005 0.81523 0.0
H1444 H 0.88107 0.92237 0.80036 0.0
H1445 H 0.83965 0.91285 0.76683 0.0
H1446 H 0.79392 0.97059 0.75734 0.0
H1447 H 0.80892 0.94967 0.7643 0.0
C1448 C 0.2153 0.1453 0.18935 0.0
C1449 C 0.21481 0.15569 0.20075 0.0
C1450 C 0.22573 0.13449 0.19134 0.0
C1451 C 0.2604 0.12392 0.2156 0.0
H1452 H 0.2434 0.08328 0.20823 0.0
C1453 C 0.28069 0.07273 0.25066 0.0
C1454 C 0.28023 0.05892 0.24375 0.0
C1455 C 0.2759 0.08528 0.24214 0.0
C1456 C 0.24849 0.09456 0.21005 0.0
H1457 H 0.22521 0.16357 0.22264 0.0
H1458 H 0.24334 0.14479 0.22628 0.0
H1459 H 0.22886 0.10413 0.19925 0.0
H1460 H 0.27484 0.04745 0.22238 0.0
H1461 H 0.26629 0.06952 0.2073 0.0
H1462 H 0.27974 0.11429 0.22702 0.0
C1463 C 0.23584 0.1449 0.21573 0.0
C1464 C 0.24012 0.10657 0.2049 0.0
C1465 C 0.22541 0.15563 0.21373 0.0
C1466 C 0.27557 0.05805 0.22788 0.0
C1467 C 0.27051 0.07063 0.21934 0.0
C1468 C 0.26873 0.11193 0.22078 0.0
C1469 C 0.23592 0.13393 0.20475 0.0
C1470 C 0.24577 0.12139 0.20803 0.0
C1471 C 0.27024 0.0843 0.22651 0.0
C1472 C 0.2627 0.09707 0.2185 0.0
H1473 H 0.20715 0.14513 0.17928 0.0
H1474 H 0.22557 0.12635 0.18256 0.0
H1475 H 0.26528 0.13518 0.21792 0.0
H1476 H 0.28404 0.07363 0.26294 0.0
H1477 H 0.2757 0.09551 0.24812 0.0
C1478 C 0.22565 0.87652 0.84859 0.0
C1479 C 0.21096 0.88101 0.84625 0.0
C1480 C 0.23808 0.8871 0.85152 0.0
C1481 C 0.24854 0.92693 0.86158 0.0
H1482 H 0.28285 0.92347 0.83796 0.0
C1483 C 0.28728 0.97696 0.83968 0.0
C1484 C 0.30287 0.97572 0.83988 0.0
C1485 C 0.27749 0.96483 0.84445 0.0
C1486 C 0.2735 0.92447 0.84488 0.0
H1487 H 0.1975 0.89972 0.8459 0.0
H1488 H 0.21911 0.91834 0.85042 0.0
H1489 H 0.26288 0.90294 0.83887 0.0
H1490 H 0.32058 0.96105 0.84566 0.0
H1491 H 0.30336 0.93959 0.85381 0.0
H1492 H 0.25884 0.94886 0.8668 0.0
C1493 C 0.22117 0.90669 0.85027 0.0
C1494 C 0.26204 0.91268 0.84544 0.0
C1495 C 0.20879 0.89611 0.84745 0.0
C1496 C 0.30861 0.96229 0.84551 0.0
C1497 C 0.29876 0.95003 0.85006 0.0
C1498 C 0.25993 0.93877 0.86088 0.0
C1499 C 0.23601 0.90237 0.8521 0.0
C1500 C 0.2492 0.91393 0.85344 0.0
C1501 C 0.28308 0.95113 0.84932 0.0
C1502 C 0.27232 0.93779 0.8522 0.0
H1503 H 0.22752 0.8649 0.84771 0.0
H1504 H 0.24931 0.88334 0.85309 0.0
H1505 H 0.239 0.92814 0.86816 0.0
H1506 H 0.28263 0.98725 0.83548 0.0
H1507 H 0.26544 0.96597 0.84361 0.0
C1508 C 0.20126 0.19852 0.85817 0.0
C1509 C 0.19961 0.18284 0.85996 0.0
C1510 C 0.18848 0.20649 0.85491 0.0
C1511 C 0.15089 0.20158 0.83475 0.0
H1512 H 0.14184 0.23659 0.85494 0.0
C1513 C 0.09535 0.22857 0.81699 0.0
C1514 C 0.09524 0.24409 0.81795 0.0
C1515 C 0.10794 0.22133 0.82312 0.0
C1516 C 0.14428 0.22698 0.84895 0.0
H1517 H 0.18339 0.16333 0.86118 0.0
H1518 H 0.16111 0.17713 0.85508 0.0
H1519 H 0.16423 0.22401 0.86432 0.0
H1520 H 0.10833 0.26423 0.82589 0.0
H1521 H 0.13055 0.25183 0.83596 0.0
H1522 H 0.13155 0.20472 0.81894 0.0
C1523 C 0.17223 0.18328 0.85602 0.0
C1524 C 0.1571 0.21973 0.85444 0.0
C1525 C 0.18495 0.17538 0.85951 0.0
C1526 C 0.10803 0.25222 0.82515 0.0
C1527 C 0.12076 0.24505 0.831 0.0
C1528 C 0.13829 0.20897 0.82906 0.0
C1529 C 0.17386 0.19887 0.85324 0.0
C1530 C 0.16044 0.20686 0.84748 0.0
C1531 C 0.12095 0.22946 0.83009 0.0
C1532 C 0.13465 0.22173 0.83614 0.0
H1533 H 0.21246 0.20448 0.85842 0.0
H1534 H 0.19007 0.21851 0.85284 0.0
H1535 H 0.15333 0.19183 0.82897 0.0
H1536 H 0.08557 0.22199 0.81171 0.0
H1537 H 0.10734 0.2093 0.82249 0.0
C1538 C 0.87654 0.15532 0.84939 0.0
C1539 C 0.8761 0.16873 0.84039 0.0
C1540 C 0.87092 0.14169 0.84303 0.0
C1541 C 0.85755 0.12349 0.80583 0.0
H1542 H 0.83306 0.097 0.83248 0.0
C1543 C 0.82803 0.06665 0.78553 0.0
C1544 C 0.81328 0.06251 0.78983 0.0
C1545 C 0.83683 0.07896 0.79192 0.0
C1546 C 0.83976 0.1043 0.82483 0.0
H1547 H 0.8702 0.17853 0.81763 0.0
H1548 H 0.86019 0.15478 0.80639 0.0
H1549 H 0.84679 0.11958 0.8427 0.0
H1550 H 0.79624 0.0682 0.80424 0.0
H1551 H 0.81145 0.0897 0.81526 0.0
H1552 H 0.84998 0.10848 0.78777 0.0
C1553 C 0.86503 0.15464 0.81832 0.0
C1554 C 0.84787 0.11717 0.83077 0.0
C1555 C 0.87075 0.16825 0.82469 0.0
C1556 C 0.80761 0.07091 0.80082 0.0
C1557 C 0.81638 0.08327 0.80716 0.0
C1558 C 0.8494 0.11062 0.79986 0.0
C1559 C 0.86464 0.14121 0.82753 0.0
C1560 C 0.85679 0.12702 0.82134 0.0
C1561 C 0.83109 0.08751 0.80275 0.0
C1562 C 0.84028 0.10091 0.80925 0.0
H1563 H 0.88076 0.15548 0.8615 0.0
H1564 H 0.87116 0.13157 0.85038 0.0
H1565 H 0.86441 0.13071 0.79825 0.0
H1566 H 0.83284 0.0603 0.77729 0.0
H1567 H 0.84819 0.0817 0.78844 0.0
C1568 C 0.91474 0.85024 0.83374 0.0
C1569 C 0.89956 0.84468 0.83053 0.0
C1570 C 0.92644 0.84133 0.83205 0.0
C1571 C 0.93549 0.80245 0.82615 0.0
H1572 H 0.96865 0.8234 0.80524 0.0
C1573 C 0.98914 0.77426 0.81362 0.0
C1574 C 0.99505 0.77798 0.79922 0.0
C1575 C 0.9774 0.78179 0.81837 0.0
C1576 C 0.95946 0.81732 0.811 0.0
H1577 H 0.88458 0.82531 0.82379 0.0
H1578 H 0.90501 0.80957 0.82078 0.0
H1579 H 0.94849 0.83719 0.81249 0.0
H1580 H 0.99308 0.79274 0.77861 0.0
H1581 H 0.97262 0.80557 0.78671 0.0
H1582 H 0.94638 0.78247 0.82424 0.0
C1583 C 0.90795 0.82078 0.82475 0.0
C1584 C 0.94795 0.82529 0.81538 0.0
C1585 C 0.89622 0.82973 0.82651 0.0
C1586 C 0.9888 0.78938 0.78969 0.0
C1587 C 0.97713 0.79692 0.79444 0.0
C1588 C 0.94706 0.79445 0.82179 0.0
C1589 C 0.92324 0.82664 0.82699 0.0
C1590 C 0.93576 0.818 0.82297 0.0
C1591 C 0.97131 0.79331 0.80888 0.0
C1592 C 0.95915 0.80176 0.81403 0.0
H1593 H 0.91753 0.86174 0.83688 0.0
H1594 H 0.93804 0.84614 0.83426 0.0
H1595 H 0.92634 0.79646 0.83205 0.0
H1596 H 0.99354 0.76547 0.82123 0.0
H1597 H 0.9733 0.77876 0.82961 0.0
C1598 C 0.85663 0.88112 0.17957 0.0
C1599 C 0.85848 0.86763 0.1882 0.0
C1600 C 0.85186 0.89338 0.18645 0.0
C1601 C 0.85212 0.9107 0.22354 0.0
H1602 H 0.81783 0.93054 0.20483 0.0
C1603 C 0.82773 0.95656 0.25534 0.0
C1604 C 0.82092 0.96809 0.24661 0.0
C1605 C 0.83226 0.94442 0.24808 0.0
C1606 C 0.82762 0.92538 0.21013 0.0
H1607 H 0.85661 0.85639 0.21077 0.0
H1608 H 0.84892 0.87803 0.22301 0.0
H1609 H 0.82598 0.90946 0.19232 0.0
H1610 H 0.81376 0.97605 0.22333 0.0
H1611 H 0.82232 0.95535 0.21055 0.0
H1612 H 0.85428 0.92681 0.241 0.0
C1613 C 0.85108 0.87907 0.21088 0.0
C1614 C 0.83221 0.91319 0.20296 0.0
C1615 C 0.85553 0.86671 0.2039 0.0
C1616 C 0.81891 0.96729 0.2304 0.0
C1617 C 0.82372 0.9553 0.22308 0.0
C1618 C 0.84775 0.92307 0.23055 0.0
C1619 C 0.84915 0.89253 0.20222 0.0
C1620 C 0.84443 0.90565 0.20965 0.0
C1621 C 0.83041 0.94359 0.2318 0.0
C1622 C 0.83533 0.93056 0.22405 0.0
H1623 H 0.85906 0.88224 0.16753 0.0
H1624 H 0.8506 0.90365 0.17953 0.0
H1625 H 0.86171 0.90521 0.22886 0.0
H1626 H 0.82927 0.95672 0.26787 0.0
H1627 H 0.83698 0.93556 0.25533 0.0
C1628 C 0.16128 0.81679 0.20417 0.0
C1629 C 0.16047 0.83001 0.19493 0.0
C1630 C 0.14856 0.81026 0.21127 0.0
C1631 C 0.11124 0.81923 0.22277 0.0
H1632 H 0.10333 0.77609 0.22708 0.0
C1633 C 0.05401 0.78829 0.23901 0.0
C1634 C 0.05449 0.77533 0.24882 0.0
C1635 C 0.06735 0.79582 0.23397 0.0
C1636 C 0.10549 0.78816 0.22615 0.0
H1637 H 0.14603 0.84681 0.18566 0.0
H1638 H 0.12354 0.83523 0.19756 0.0
H1639 H 0.12546 0.78704 0.21449 0.0
H1640 H 0.06953 0.76062 0.26171 0.0
H1641 H 0.09275 0.77376 0.25292 0.0
H1642 H 0.09097 0.82025 0.2341 0.0
C1643 C 0.134 0.82998 0.19968 0.0
C1644 C 0.11821 0.79446 0.21893 0.0
C1645 C 0.14676 0.83653 0.1927 0.0
C1646 C 0.06871 0.77055 0.25415 0.0
C1647 C 0.08202 0.778 0.249 0.0
C1648 C 0.09844 0.81291 0.22987 0.0
C1649 C 0.13475 0.81682 0.20922 0.0
C1650 C 0.12125 0.81009 0.21708 0.0
C1651 C 0.08147 0.79048 0.23854 0.0
C1652 C 0.0954 0.7973 0.23163 0.0
H1653 H 0.17189 0.81178 0.20619 0.0
H1654 H 0.14969 0.80028 0.2187 0.0
H1655 H 0.11334 0.8313 0.22187 0.0
H1656 H 0.04328 0.79228 0.23467 0.0
H1657 H 0.06654 0.80538 0.22588 0.0
C1658 C 0.88168 0.19084 0.19165 0.0
C1659 C 0.87088 0.20002 0.19549 0.0
C1660 C 0.89631 0.19218 0.19917 0.0
C1661 C 0.92269 0.22115 0.21651 0.0
H1662 H 0.94666 0.18933 0.23299 0.0
C1663 C 0.97966 0.23311 0.25239 0.0
C1664 C 0.99105 0.22351 0.25164 0.0
C1665 C 0.96539 0.22996 0.24458 0.0
C1666 C 0.94022 0.19833 0.22818 0.0
H1667 H 0.86624 0.21687 0.21073 0.0
H1668 H 0.89182 0.21929 0.22393 0.0
H1669 H 0.92052 0.18323 0.22234 0.0
H1670 H 0.99665 0.20352 0.24142 0.0
H1671 H 0.97184 0.19827 0.22736 0.0
H1672 H 0.94228 0.23627 0.22193 0.0
C1673 C 0.8891 0.21119 0.21506 0.0
C1674 C 0.92522 0.19482 0.2222 0.0
C1675 C 0.8745 0.20975 0.20765 0.0
C1676 C 0.98808 0.21109 0.24229 0.0
C1677 C 0.97381 0.208 0.23436 0.0
C1678 C 0.93768 0.22465 0.22228 0.0
C1679 C 0.90028 0.20281 0.2105 0.0
C1680 C 0.91627 0.20623 0.21655 0.0
C1681 C 0.96218 0.21722 0.23568 0.0
C1682 C 0.94659 0.21332 0.22842 0.0
H1683 H 0.8791 0.18341 0.18215 0.0
H1684 H 0.90475 0.18561 0.19544 0.0
H1685 H 0.91611 0.23014 0.21188 0.0
H1686 H 0.98152 0.24273 0.25956 0.0
H1687 H 0.95669 0.23722 0.24607 0.0
C1688 C 0.22544 0.70386 0.64911 0.0
C1689 C 0.21606 0.69043 0.6501 0.0
C1690 C 0.23406 0.70723 0.63643 0.0
C1691 C 0.24753 0.69038 0.60202 0.0
H1692 H 0.25254 0.73185 0.58705 0.0
C1693 C 0.26521 0.71039 0.54059 0.0
C1694 C 0.2754 0.72336 0.53949 0.0
C1695 C 0.25975 0.7054 0.55483 0.0
C1696 C 0.25141 0.72023 0.59119 0.0
H1697 H 0.20834 0.66988 0.63887 0.0
H1698 H 0.22294 0.67583 0.61636 0.0
H1699 H 0.23935 0.7252 0.61016 0.0
H1700 H 0.28827 0.74087 0.55275 0.0
H1701 H 0.27862 0.73223 0.57749 0.0
H1702 H 0.2591 0.68548 0.58249 0.0
C1703 C 0.22406 0.6837 0.6255 0.0
C1704 C 0.24387 0.71639 0.60453 0.0
C1705 C 0.21561 0.68027 0.63833 0.0
C1706 C 0.28048 0.73082 0.55313 0.0
C1707 C 0.27485 0.72595 0.56731 0.0
C1708 C 0.25489 0.69423 0.58852 0.0
C1709 C 0.23333 0.69732 0.62426 0.0
C1710 C 0.24178 0.70139 0.61018 0.0
C1711 C 0.26417 0.71338 0.56827 0.0
C1712 C 0.25692 0.70921 0.58295 0.0
H1713 H 0.22604 0.71176 0.65819 0.0
H1714 H 0.2413 0.71764 0.63619 0.0
H1715 H 0.24643 0.67875 0.60608 0.0
H1716 H 0.26105 0.70438 0.53033 0.0
H1717 H 0.25149 0.69571 0.55516 0.0
C1718 C 0.83229 0.71572 0.62751 0.0
C1719 C 0.83577 0.72099 0.64246 0.0
C1720 C 0.82543 0.72474 0.6158 0.0
C1721 C 0.82407 0.76452 0.60559 0.0
H1722 H 0.79443 0.75118 0.57245 0.0
C1723 C 0.80319 0.80548 0.55692 0.0
C1724 C 0.80148 0.8004 0.54177 0.0
C1725 C 0.8056 0.79551 0.56963 0.0
C1726 C 0.80281 0.75504 0.58156 0.0
H1727 H 0.83394 0.73905 0.65739 0.0
H1728 H 0.82175 0.75482 0.63703 0.0
H1729 H 0.801 0.7338 0.59415 0.0
H1730 H 0.80086 0.78085 0.52806 0.0
H1731 H 0.80546 0.76351 0.5502 0.0
H1732 H 0.82629 0.78556 0.59294 0.0
C1733 C 0.82454 0.7439 0.63421 0.0
C1734 C 0.80652 0.7451 0.594 0.0
C1735 C 0.83138 0.73489 0.64586 0.0
C1736 C 0.80212 0.78511 0.5396 0.0
C1737 C 0.80463 0.77515 0.5523 0.0
C1738 C 0.82044 0.7744 0.59317 0.0
C1739 C 0.82199 0.73915 0.61893 0.0
C1740 C 0.81723 0.74974 0.60612 0.0
C1741 C 0.80647 0.78024 0.56747 0.0
C1742 C 0.80982 0.76978 0.58095 0.0
H1743 H 0.83574 0.70505 0.62472 0.0
H1744 H 0.82367 0.7208 0.60413 0.0
H1745 H 0.83262 0.76835 0.61458 0.0
H1746 H 0.80258 0.81716 0.559 0.0
H1747 H 0.80671 0.79977 0.58116 0.0
C1748 C 0.8811 0.34923 0.65324 0.0
C1749 C 0.88071 0.34339 0.66857 0.0
C1750 C 0.87869 0.33978 0.6408 0.0
C1751 C 0.87858 0.30113 0.62882 0.0
H1752 H 0.8476 0.31265 0.59732 0.0
C1753 C 0.85378 0.26212 0.5793 0.0
C1754 C 0.84876 0.26878 0.56495 0.0
C1755 C 0.85871 0.27094 0.592 0.0
C1756 C 0.8565 0.30934 0.60578 0.0
H1757 H 0.87835 0.32304 0.68299 0.0
H1758 H 0.87453 0.30632 0.66116 0.0
H1759 H 0.85503 0.32838 0.61914 0.0
H1760 H 0.84567 0.28988 0.55244 0.0
H1761 H 0.85481 0.30529 0.57422 0.0
H1762 H 0.88031 0.28223 0.6153 0.0
C1763 C 0.87657 0.31827 0.65879 0.0
C1764 C 0.86069 0.31837 0.61838 0.0
C1765 C 0.87881 0.3278 0.67127 0.0
C1766 C 0.84927 0.28444 0.56342 0.0
C1767 C 0.85442 0.29325 0.576 0.0
C1768 C 0.87454 0.29216 0.61604 0.0
C1769 C 0.87604 0.32421 0.64339 0.0
C1770 C 0.87179 0.31442 0.63004 0.0
C1771 C 0.85894 0.28666 0.5906 0.0
C1772 C 0.86344 0.29615 0.60429 0.0
H1773 H 0.88279 0.36121 0.65089 0.0
H1774 H 0.87861 0.34468 0.62909 0.0
H1775 H 0.88721 0.29783 0.63759 0.0
H1776 H 0.85336 0.25007 0.58086 0.0
H1777 H 0.86189 0.26535 0.60302 0.0
C1778 C 0.23452 0.34971 0.67139 0.0
C1779 C 0.22437 0.36073 0.67064 0.0
C1780 C 0.24463 0.34945 0.66001 0.0
C1781 C 0.2478 0.36103 0.61901 0.0
H1782 H 0.28737 0.34629 0.62659 0.0
C1783 C 0.27622 0.33477 0.57153 0.0
C1784 C 0.29199 0.33746 0.57095 0.0
C1785 C 0.26911 0.33985 0.58369 0.0
C1786 C 0.27643 0.35061 0.62425 0.0
H1787 H 0.21729 0.38058 0.65803 0.0
H1788 H 0.23519 0.38039 0.63817 0.0
H1789 H 0.27375 0.35184 0.64846 0.0
H1790 H 0.31262 0.3478 0.5827 0.0
H1791 H 0.30018 0.35679 0.60393 0.0
H1792 H 0.25041 0.35971 0.59483 0.0
C1793 C 0.2352 0.37178 0.64741 0.0
C1794 C 0.26855 0.35365 0.63681 0.0
C1795 C 0.22508 0.37202 0.65883 0.0
C1796 C 0.30045 0.34561 0.58273 0.0
C1797 C 0.29334 0.35064 0.59498 0.0
C1798 C 0.25566 0.35797 0.60648 0.0
C1799 C 0.24481 0.36023 0.64761 0.0
C1800 C 0.25401 0.35864 0.63435 0.0
C1801 C 0.27758 0.34775 0.59564 0.0
C1802 C 0.26994 0.35244 0.60894 0.0
H1803 H 0.23416 0.34096 0.68048 0.0
H1804 H 0.25175 0.34033 0.66051 0.0
H1805 H 0.23658 0.36471 0.61664 0.0
H1806 H 0.26931 0.32872 0.56256 0.0
H1807 H 0.25699 0.33726 0.58389 0.0
C1808 C 0.22118 0.34278 0.37496 0.0
C1809 C 0.20616 0.34575 0.37596 0.0
C1810 C 0.2305 0.33973 0.38838 0.0
C1811 C 0.23315 0.34186 0.43153 0.0
H1812 H 0.26246 0.31302 0.42982 0.0
C1813 C 0.26561 0.31526 0.48567 0.0
C1814 C 0.28143 0.31685 0.48532 0.0
C1815 C 0.25625 0.31886 0.47242 0.0
C1816 C 0.25433 0.32112 0.43042 0.0
H1817 H 0.18915 0.34828 0.39161 0.0
H1818 H 0.205 0.3421 0.41505 0.0
H1819 H 0.24646 0.3193 0.40653 0.0
H1820 H 0.29987 0.32311 0.47082 0.0
H1821 H 0.28348 0.32899 0.44758 0.0
H1822 H 0.24079 0.34315 0.45566 0.0
C1823 C 0.20984 0.34248 0.40401 0.0
C1824 C 0.24524 0.32484 0.41706 0.0
C1825 C 0.20065 0.3458 0.39059 0.0
C1826 C 0.28771 0.32186 0.47145 0.0
C1827 C 0.27836 0.32515 0.45814 0.0
C1828 C 0.24205 0.3379 0.44496 0.0
C1829 C 0.22489 0.33932 0.4031 0.0
C1830 C 0.23457 0.33534 0.41739 0.0
C1831 C 0.26257 0.32378 0.45854 0.0
C1832 C 0.25277 0.32758 0.44448 0.0
H1833 H 0.22562 0.34259 0.36376 0.0
H1834 H 0.24209 0.33768 0.38717 0.0
H1835 H 0.2253 0.35019 0.43223 0.0
H1836 H 0.26048 0.31145 0.49623 0.0
H1837 H 0.24408 0.31767 0.47295 0.0
C1838 C 0.22353 0.68196 0.35319 0.0
C1839 C 0.2117 0.67042 0.35308 0.0
C1840 C 0.22632 0.69146 0.36561 0.0
C1841 C 0.21924 0.69258 0.4072 0.0
H1842 H 0.2375 0.73338 0.40243 0.0
C1843 C 0.23353 0.73111 0.45924 0.0
C1844 C 0.24799 0.73907 0.46016 0.0
C1845 C 0.22789 0.72357 0.44587 0.0
C1846 C 0.23247 0.72198 0.40396 0.0
H1847 H 0.19299 0.66016 0.36529 0.0
H1848 H 0.19736 0.6771 0.38682 0.0
H1849 H 0.22913 0.71923 0.37947 0.0
H1850 H 0.26766 0.74565 0.44751 0.0
H1851 H 0.25783 0.73258 0.42418 0.0
H1852 H 0.22255 0.69542 0.43171 0.0
C1853 C 0.20483 0.67862 0.37757 0.0
C1854 C 0.22769 0.71382 0.39078 0.0
C1855 C 0.20215 0.66904 0.36516 0.0
C1856 C 0.25654 0.73953 0.44725 0.0
C1857 C 0.25084 0.73215 0.43381 0.0
C1858 C 0.22389 0.70079 0.42036 0.0
C1859 C 0.21721 0.68974 0.37819 0.0
C1860 C 0.22119 0.69891 0.39219 0.0
C1861 C 0.2365 0.72395 0.433 0.0
C1862 C 0.23075 0.71553 0.41893 0.0
H1863 H 0.23103 0.68315 0.34395 0.0
H1864 H 0.23605 0.6997 0.36563 0.0
H1865 H 0.21457 0.68108 0.40886 0.0
H1866 H 0.22669 0.7304 0.469 0.0
H1867 H 0.21676 0.71746 0.4456 0.0
C1868 C 0.84642 0.71283 0.38424 0.0
C1869 C 0.84012 0.71045 0.36906 0.0
C1870 C 0.83948 0.72144 0.39397 0.0
C1871 C 0.80322 0.73669 0.39943 0.0
H1872 H 0.82919 0.76399 0.42558 0.0
C1873 C 0.78017 0.78006 0.43656 0.0
C1874 C 0.78744 0.78198 0.45152 0.0
C1875 C 0.78604 0.77131 0.42608 0.0
C1876 C 0.82177 0.75632 0.41847 0.0
H1877 H 0.82165 0.715 0.35208 0.0
H1878 H 0.80941 0.73015 0.36904 0.0
H1879 H 0.8404 0.74875 0.40821 0.0
H1880 H 0.80622 0.77551 0.46735 0.0
H1881 H 0.81637 0.76036 0.44922 0.0
H1882 H 0.78458 0.74434 0.40976 0.0
C1883 C 0.81963 0.72525 0.37354 0.0
C1884 C 0.8282 0.74756 0.40851 0.0
C1885 C 0.8266 0.71662 0.36381 0.0
C1886 C 0.8005 0.77463 0.45584 0.0
C1887 C 0.80635 0.76591 0.44541 0.0
C1888 C 0.79677 0.7455 0.40941 0.0
C1889 C 0.82607 0.72789 0.38871 0.0
C1890 C 0.81904 0.73751 0.39896 0.0
C1891 C 0.79931 0.76426 0.43034 0.0
C1892 C 0.80598 0.75531 0.41918 0.0
H1893 H 0.85674 0.70802 0.38855 0.0
H1894 H 0.84461 0.72298 0.40566 0.0
H1895 H 0.79583 0.72898 0.39234 0.0
H1896 H 0.77015 0.78561 0.43279 0.0
H1897 H 0.7804 0.77037 0.41452 0.0
C1898 C 0.87601 0.33421 0.38495 0.0
C1899 C 0.86673 0.33484 0.37101 0.0
C1900 C 0.87058 0.32652 0.39816 0.0
C1901 C 0.84122 0.29748 0.41089 0.0
H1902 H 0.84835 0.31636 0.45042 0.0
C1903 C 0.8316 0.2653 0.46879 0.0
C1904 C 0.82452 0.272 0.48012 0.0
C1905 C 0.83568 0.27333 0.45535 0.0
C1906 C 0.84614 0.31102 0.43943 0.0
H1907 H 0.84482 0.32765 0.35965 0.0
H1908 H 0.83534 0.31397 0.38256 0.0
H1909 H 0.8583 0.32915 0.42723 0.0
H1910 H 0.81604 0.29248 0.48607 0.0
H1911 H 0.82346 0.30679 0.46241 0.0
H1912 H 0.82918 0.27933 0.42304 0.0
C1913 C 0.84679 0.31939 0.38341 0.0
C1914 C 0.85201 0.31825 0.42619 0.0
C1915 C 0.85217 0.32719 0.3703 0.0
C1916 C 0.82144 0.287 0.47755 0.0
C1917 C 0.82577 0.29519 0.46407 0.0
C1918 C 0.8355 0.29022 0.42412 0.0
C1919 C 0.85581 0.31918 0.3976 0.0
C1920 C 0.84968 0.31152 0.41176 0.0
C1921 C 0.83296 0.28841 0.45283 0.0
C1922 C 0.83798 0.29683 0.43859 0.0
H1923 H 0.88722 0.34018 0.38574 0.0
H1924 H 0.8779 0.32641 0.40885 0.0
H1925 H 0.83925 0.29194 0.4 0.0
H1926 H 0.83409 0.25373 0.47032 0.0
H1927 H 0.84133 0.26779 0.44706 0.0
C1928 C 0.16295 0.68342 0.68818 0.0
C1929 C 0.17566 0.69354 0.68571 0.0
C1930 C 0.15096 0.68771 0.69577 0.0
C1931 C 0.14135 0.71652 0.72171 0.0
H1932 H 0.10011 0.70065 0.70964 0.0
C1933 C 0.08898 0.73786 0.74571 0.0
C1934 C 0.07718 0.7271 0.74966 0.0
C1935 C 0.10109 0.73385 0.7381 0.0
C1936 C 0.11157 0.70507 0.71327 0.0
H1937 H 0.18575 0.71613 0.68908 0.0
H1938 H 0.16461 0.7239 0.7019 0.0
H1939 H 0.12074 0.69388 0.69563 0.0
H1940 H 0.06898 0.70362 0.74862 0.0
H1941 H 0.09012 0.69661 0.73539 0.0
H1942 H 0.13207 0.72787 0.73922 0.0
C1943 C 0.16398 0.7125 0.69828 0.0
C1944 C 0.12345 0.70117 0.70523 0.0
C1945 C 0.17603 0.70815 0.69076 0.0
C1946 C 0.07791 0.71218 0.74589 0.0
C1947 C 0.08996 0.70819 0.73815 0.0
C1948 C 0.12944 0.72051 0.72967 0.0
C1949 C 0.15129 0.70231 0.70099 0.0
C1950 C 0.13855 0.70677 0.70936 0.0
C1951 C 0.10169 0.71898 0.7341 0.0
C1952 C 0.1144 0.71479 0.7256 0.0
H1953 H 0.16234 0.67213 0.68428 0.0
H1954 H 0.14154 0.67945 0.69778 0.0
H1955 H 0.1528 0.72088 0.72545 0.0
H1956 H 0.08887 0.74942 0.74855 0.0
H1957 H 0.10986 0.74247 0.73508 0.0
C1958 C 0.8554 0.66863 0.67267 0.0
C1959 C 0.85743 0.68268 0.67921 0.0
C1960 C 0.85645 0.65558 0.68208 0.0
C1961 C 0.85332 0.64166 0.72268 0.0
H1962 H 0.86876 0.6065 0.70843 0.0
C1963 C 0.83906 0.58309 0.75029 0.0
C1964 C 0.85003 0.57278 0.75164 0.0
C1965 C 0.8417 0.59691 0.74241 0.0
C1966 C 0.8646 0.61627 0.71269 0.0
H1967 H 0.86246 0.69427 0.70054 0.0
H1968 H 0.8648 0.67154 0.71703 0.0
H1969 H 0.87079 0.62988 0.69279 0.0
H1970 H 0.87255 0.56912 0.74603 0.0
H1971 H 0.87731 0.59349 0.73246 0.0
H1972 H 0.84729 0.62814 0.74265 0.0
C1973 C 0.86209 0.6705 0.70468 0.0
C1974 C 0.86558 0.62963 0.70362 0.0
C1975 C 0.86093 0.68352 0.69526 0.0
C1976 C 0.86389 0.57682 0.74524 0.0
C1977 C 0.86655 0.59072 0.73733 0.0
C1978 C 0.85241 0.62834 0.73177 0.0
C1979 C 0.85966 0.65634 0.69824 0.0
C1980 C 0.85973 0.64243 0.70838 0.0
C1981 C 0.85543 0.60089 0.73574 0.0
C1982 C 0.85777 0.6154 0.72676 0.0
H1983 H 0.85287 0.66778 0.66027 0.0
H1984 H 0.85433 0.64489 0.67672 0.0
H1985 H 0.84856 0.65122 0.72668 0.0
H1986 H 0.82837 0.58049 0.7553 0.0
H1987 H 0.8328 0.60436 0.74127 0.0
C1988 C 0.90038 0.33456 0.71278 0.0
C1989 C 0.90112 0.34338 0.69897 0.0
C1990 C 0.91288 0.3274 0.71916 0.0
C1991 C 0.95057 0.31629 0.71157 0.0
H1992 H 0.95898 0.3203 0.75593 0.0
C1993 C 0.99912 0.2881 0.74774 0.0
C1994 C 1.00764 0.29647 0.75935 0.0
C1995 C 0.98606 0.29329 0.7399 0.0
C1996 C 0.95688 0.31915 0.74352 0.0
H1997 H 0.9151 0.3511 0.68051 0.0
H1998 H 0.93716 0.33853 0.69159 0.0
H1999 H 0.93634 0.32969 0.74268 0.0
H2000 H 0.0089 0.31687 0.7718 0.0
H2001 H 0.98625 0.32597 0.75806 0.0
H2002 H 0.97135 0.306 0.71245 0.0
C2003 C 0.92687 0.33705 0.69749 0.0
C2004 C 0.94376 0.32437 0.73593 0.0
C2005 C 0.91428 0.34421 0.6911 0.0
C2006 C 1.00271 0.31016 0.76289 0.0
C2007 C 0.98962 0.31532 0.75509 0.0
C2008 C 0.96371 0.311 0.7192 0.0
C2009 C 0.92648 0.32895 0.71188 0.0
C2010 C 0.94039 0.32302 0.71985 0.0
C2011 C 0.98111 0.30696 0.74348 0.0
C2012 C 0.96706 0.31242 0.73528 0.0
H2013 H 0.89029 0.33378 0.71898 0.0
H2014 H 0.91202 0.32099 0.73004 0.0
H2015 H 0.94832 0.31501 0.6992 0.0
H2016 H 1.00263 0.27762 0.74452 0.0
H2017 H 0.97973 0.28649 0.73113 0.0
C2018 C 0.21026 0.39775 0.6894 0.0
C2019 C 0.21719 0.38439 0.69186 0.0
C2020 C 0.21815 0.41137 0.6936 0.0
C2021 C 0.25025 0.42697 0.71978 0.0
H2022 H 0.24651 0.46311 0.69377 0.0
C2023 C 0.27656 0.48547 0.73938 0.0
C2024 C 0.28463 0.49405 0.72824 0.0
C2025 C 0.26734 0.47246 0.73521 0.0
C2026 C 0.24769 0.45311 0.70118 0.0
H2027 H 0.23779 0.37468 0.70017 0.0
H2028 H 0.25181 0.39856 0.70737 0.0
H2029 H 0.23325 0.4395 0.68534 0.0
H2030 H 0.2889 0.496 0.70392 0.0
H2031 H 0.2729 0.47357 0.69673 0.0
H2032 H 0.26495 0.44057 0.73548 0.0
C2033 C 0.2402 0.39852 0.70241 0.0
C2034 C 0.23999 0.4396 0.69638 0.0
C2035 C 0.2323 0.3849 0.69813 0.0
C2036 C 0.28288 0.48965 0.71281 0.0
C2037 C 0.27361 0.4768 0.70864 0.0
C2038 C 0.25789 0.44052 0.72461 0.0
C2039 C 0.23315 0.4119 0.70039 0.0
C2040 C 0.24127 0.42632 0.70556 0.0
C2041 C 0.26587 0.46792 0.7198 0.0
C2042 C 0.25682 0.45373 0.71529 0.0
H2043 H 0.19863 0.39757 0.6845 0.0
H2044 H 0.21233 0.42142 0.69195 0.0
H2045 H 0.25131 0.41699 0.72724 0.0
H2046 H 0.27773 0.48854 0.75136 0.0
H2047 H 0.26142 0.46592 0.74405 0.0
C2048 C 0.15066 0.34946 0.33473 0.0
C2049 C 0.16292 0.34076 0.33575 0.0
C2050 C 0.1366 0.34397 0.32769 0.0
C2051 C 0.1174 0.31355 0.30329 0.0
H2052 H 0.08348 0.31767 0.32724 0.0
C2053 C 0.05945 0.27714 0.31786 0.0
C2054 C 0.05338 0.27281 0.30309 0.0
C2055 C 0.0713 0.28845 0.31948 0.0
C2056 C 0.09281 0.31649 0.32036 0.0
H2057 H 0.17063 0.31996 0.32996 0.0
H2058 H 0.146 0.31003 0.31791 0.0
H2059 H 0.10779 0.33165 0.334 0.0
H2060 H 0.05453 0.27734 0.27837 0.0
H2061 H 0.0754 0.29721 0.28122 0.0
H2062 H 0.10261 0.29765 0.29028 0.0
C2063 C 0.14715 0.32119 0.32223 0.0
C2064 C 0.10673 0.32463 0.32413 0.0
C2065 C 0.16119 0.32675 0.32922 0.0
C2066 C 0.05901 0.28044 0.28991 0.0
C2067 C 0.07099 0.29175 0.29154 0.0
C2068 C 0.10348 0.30538 0.29954 0.0
C2069 C 0.13461 0.32963 0.32162 0.0
C2070 C 0.11932 0.32289 0.31596 0.0
C2071 C 0.0774 0.2957 0.30636 0.0
C2072 C 0.09118 0.30639 0.30838 0.0
H2073 H 0.15193 0.36035 0.33972 0.0
H2074 H 0.12723 0.35082 0.32725 0.0
H2075 H 0.12682 0.31216 0.2966 0.0
H2076 H 0.05532 0.27153 0.32825 0.0
H2077 H 0.0761 0.29105 0.33106 0.0
C2078 C 0.22634 0.61576 0.33363 0.0
C2079 C 0.22288 0.62768 0.32322 0.0
C2080 C 0.23329 0.60376 0.32876 0.0
C2081 C 0.25597 0.59291 0.29793 0.0
H2082 H 0.24587 0.55303 0.31565 0.0
C2083 C 0.28549 0.54111 0.28271 0.0
C2084 C 0.29114 0.53296 0.29591 0.0
C2085 C 0.27534 0.55189 0.28411 0.0
C2086 C 0.24882 0.5641 0.31057 0.0
H2087 H 0.22388 0.63643 0.29957 0.0
H2088 H 0.23577 0.61531 0.29086 0.0
H2089 H 0.23187 0.57351 0.32189 0.0
H2090 H 0.29007 0.52919 0.32072 0.0
H2091 H 0.27232 0.54756 0.32309 0.0
H2092 H 0.27306 0.5834 0.28674 0.0
C2093 C 0.23333 0.61528 0.30287 0.0
C2094 C 0.24084 0.57588 0.31422 0.0
C2095 C 0.2264 0.62732 0.30779 0.0
C2096 C 0.28593 0.53529 0.31032 0.0
C2097 C 0.27568 0.5458 0.31168 0.0
C2098 C 0.2639 0.58107 0.2942 0.0
C2099 C 0.23689 0.60332 0.3133 0.0
C2100 C 0.24453 0.59054 0.30826 0.0
C2101 C 0.27045 0.55445 0.29868 0.0
C2102 C 0.26065 0.56658 0.30077 0.0
H2103 H 0.22361 0.61574 0.34555 0.0
H2104 H 0.23605 0.59492 0.33722 0.0
H2105 H 0.25924 0.60404 0.29318 0.0
H2106 H 0.28942 0.53963 0.27148 0.0
H2107 H 0.27146 0.55835 0.27387 0.0
C2108 C 0.89316 0.69434 0.34741 0.0
C2109 C 0.87934 0.69426 0.33824 0.0
C2110 C 0.90689 0.69743 0.34069 0.0
C2111 C 0.93523 0.69974 0.32318 0.0
H2112 H 0.93575 0.73211 0.29172 0.0
C2113 C 0.98829 0.71952 0.29048 0.0
C2114 C 0.99116 0.73492 0.28677 0.0
C2115 C 0.97496 0.71385 0.29701 0.0
C2116 C 0.93585 0.72314 0.30058 0.0
H2117 H 0.86891 0.69645 0.31485 0.0
H2118 H 0.89294 0.70148 0.30289 0.0
H2119 H 0.91195 0.72256 0.30202 0.0
H2120 H 0.98239 0.75647 0.28756 0.0
H2121 H 0.95928 0.74663 0.29919 0.0
H2122 H 0.95923 0.70065 0.32205 0.0
C2123 C 0.89322 0.69946 0.31534 0.0
C2124 C 0.92213 0.71748 0.30632 0.0
C2125 C 0.87947 0.69636 0.3221 0.0
C2126 C 0.98056 0.74455 0.29023 0.0
C2127 C 0.96722 0.73888 0.29677 0.0
C2128 C 0.94897 0.70541 0.31743 0.0
C2129 C 0.9071 0.70048 0.3246 0.0
C2130 C 0.92162 0.70576 0.31777 0.0
C2131 C 0.96412 0.72342 0.30002 0.0
C2132 C 0.94949 0.71727 0.30613 0.0
H2133 H 0.89326 0.69274 0.35989 0.0
H2134 H 0.9173 0.6982 0.34823 0.0
H2135 H 0.93528 0.69064 0.3319 0.0
H2136 H 0.99616 0.71174 0.28794 0.0
H2137 H 0.97293 0.70188 0.29923 0.0
C2138 C 0.85355 0.37829 0.32431 0.0
C2139 C 0.86815 0.37725 0.33164 0.0
C2140 C 0.85007 0.39118 0.31542 0.0
C2141 C 0.86385 0.43138 0.3084 0.0
H2142 H 0.83657 0.42779 0.27101 0.0
C2143 C 0.85451 0.48167 0.26494 0.0
C2144 C 0.83949 0.48347 0.25916 0.0
C2145 C 0.8581 0.46865 0.27353 0.0
C2146 C 0.84411 0.42901 0.28149 0.0
H2147 H 0.89052 0.38886 0.33554 0.0
H2148 H 0.88469 0.4112 0.31966 0.0
H2149 H 0.84264 0.40535 0.28644 0.0
H2150 H 0.81654 0.47271 0.2576 0.0
H2151 H 0.82277 0.45004 0.27259 0.0
H2152 H 0.86543 0.45506 0.3033 0.0
C2153 C 0.87578 0.40221 0.32094 0.0
C2154 C 0.84757 0.41612 0.29039 0.0
C2155 C 0.87921 0.38936 0.3299 0.0
C2156 C 0.82819 0.47178 0.26199 0.0
C2157 C 0.83179 0.45871 0.27047 0.0
C2158 C 0.86047 0.44426 0.29944 0.0
C2159 C 0.86114 0.40334 0.31357 0.0
C2160 C 0.85747 0.4171 0.30401 0.0
C2161 C 0.84677 0.45701 0.27646 0.0
C2162 C 0.85053 0.44325 0.28588 0.0
H2163 H 0.84486 0.36906 0.32539 0.0
H2164 H 0.83862 0.39165 0.31013 0.0
H2165 H 0.87129 0.43268 0.31893 0.0
H2166 H 0.86348 0.49047 0.2631 0.0
H2167 H 0.86977 0.46766 0.27783 0.0
C2168 C 0.2328 0.66808 0.67559 0.0
C2169 C 0.21713 0.66417 0.67345 0.0
C2170 C 0.24279 0.65696 0.67846 0.0
C2171 C 0.24308 0.61831 0.69479 0.0
H2172 H 0.2828 0.62006 0.67944 0.0
C2173 C 0.28792 0.58071 0.72183 0.0
C2174 C 0.29611 0.57359 0.71174 0.0
C2175 C 0.2788 0.59193 0.71626 0.0
C2176 C 0.2717 0.61937 0.68374 0.0
H2177 H 0.19959 0.64578 0.67161 0.0
H2178 H 0.21694 0.62629 0.67653 0.0
H2179 H 0.26575 0.63908 0.6704 0.0
H2180 H 0.3013 0.57307 0.68781 0.0
H2181 H 0.28541 0.59278 0.6781 0.0
H2182 H 0.24892 0.59866 0.70809 0.0
C2183 C 0.22157 0.6379 0.67632 0.0
C2184 C 0.26198 0.63033 0.67866 0.0
C2185 C 0.21164 0.649 0.67344 0.0
C2186 C 0.29525 0.57834 0.69595 0.0
C2187 C 0.28613 0.58964 0.69037 0.0
C2188 C 0.25279 0.60745 0.69991 0.0
C2189 C 0.23725 0.64173 0.67926 0.0
C2190 C 0.24755 0.62993 0.68415 0.0
C2191 C 0.27763 0.59642 0.70044 0.0
C2192 C 0.26726 0.60787 0.69454 0.0
H2193 H 0.23723 0.67974 0.67575 0.0
H2194 H 0.25478 0.66031 0.68076 0.0
H2195 H 0.23214 0.61774 0.69943 0.0
H2196 H 0.28856 0.57768 0.7341 0.0
H2197 H 0.27267 0.59715 0.72439 0.0
C2198 C 0.22203 0.36751 0.33717 0.0
C2199 C 0.21305 0.36798 0.34954 0.0
C2200 C 0.23458 0.37791 0.33569 0.0
C2201 C 0.26112 0.40605 0.35626 0.0
H2202 H 0.26402 0.42394 0.31477 0.0
C2203 C 0.29971 0.46027 0.34132 0.0
C2204 C 0.30595 0.46104 0.32697 0.0
C2205 C 0.2898 0.4479 0.34548 0.0
C2206 C 0.26356 0.41891 0.32639 0.0
H2207 H 0.21025 0.37908 0.37042 0.0
H2208 H 0.23228 0.39754 0.36785 0.0
H2209 H 0.24409 0.40421 0.31944 0.0
H2210 H 0.30792 0.44909 0.30637 0.0
H2211 H 0.291 0.42739 0.31372 0.0
H2212 H 0.28062 0.42098 0.36316 0.0
C2213 C 0.2297 0.38907 0.35933 0.0
C2214 C 0.2521 0.40759 0.32906 0.0
C2215 C 0.21711 0.37861 0.3608 0.0
C2216 C 0.30297 0.44886 0.31735 0.0
C2217 C 0.29325 0.43649 0.32155 0.0
C2218 C 0.27268 0.41741 0.35356 0.0
C2219 C 0.23838 0.38902 0.34657 0.0
C2220 C 0.25077 0.40097 0.34399 0.0
C2221 C 0.28611 0.43608 0.33539 0.0
C2222 C 0.27406 0.42391 0.33856 0.0
H2223 H 0.2192 0.35916 0.32857 0.0
H2224 H 0.24123 0.37738 0.32591 0.0
H2225 H 0.2604 0.40111 0.36788 0.0
H2226 H 0.30183 0.46958 0.34888 0.0
H2227 H 0.28445 0.44794 0.35621 0.0
C2228 C 0.17295 0.66075 0.3337 0.0
C2229 C 0.18656 0.66539 0.32715 0.0
C2230 C 0.15954 0.66686 0.32807 0.0
C2231 C 0.14244 0.68486 0.29218 0.0
H2232 H 0.11038 0.69096 0.31787 0.0
C2233 C 0.08148 0.69266 0.26592 0.0
C2234 C 0.07351 0.70317 0.27242 0.0
C2235 C 0.09543 0.68881 0.27299 0.0
C2236 C 0.11925 0.68944 0.31052 0.0
H2237 H 0.19711 0.68014 0.30996 0.0
H2238 H 0.17381 0.69124 0.30028 0.0
H2239 H 0.13464 0.68398 0.33001 0.0
H2240 H 0.07408 0.71766 0.29172 0.0
H2241 H 0.09844 0.71117 0.30382 0.0
H2242 H 0.12715 0.69046 0.27271 0.0
C2243 C 0.17335 0.68277 0.30965 0.0
C2244 C 0.13314 0.68529 0.31749 0.0
C2245 C 0.18673 0.67662 0.31529 0.0
C2246 C 0.07989 0.70966 0.28623 0.0
C2247 C 0.09383 0.7058 0.29331 0.0
C2248 C 0.12857 0.68899 0.28523 0.0
C2249 C 0.15947 0.67768 0.31568 0.0
C2250 C 0.14491 0.68287 0.30841 0.0
C2251 C 0.10182 0.69534 0.28678 0.0
C2252 C 0.11674 0.69125 0.29427 0.0
H2253 H 0.17259 0.65181 0.3426 0.0
H2254 H 0.14909 0.66251 0.3329 0.0
H2255 H 0.15112 0.6829 0.28477 0.0
H2256 H 0.07705 0.6875 0.25526 0.0
H2257 H 0.10113 0.68057 0.26771 0.0
C2258 C 0.84009 0.67141 0.32057 0.0
C2259 C 0.85103 0.6724 0.33327 0.0
C2260 C 0.83697 0.65814 0.3127 0.0
C2261 C 0.83825 0.6175 0.31807 0.0
H2262 H 0.83478 0.61816 0.27313 0.0
C2263 C 0.81535 0.56625 0.28029 0.0
C2264 C 0.82461 0.56382 0.26853 0.0
C2265 C 0.81832 0.57914 0.28899 0.0
C2266 C 0.83567 0.6178 0.28569 0.0
H2267 H 0.86739 0.66056 0.34771 0.0
H2268 H 0.86191 0.63712 0.33399 0.0
H2269 H 0.8411 0.64152 0.2864 0.0
H2270 H 0.84445 0.57295 0.25702 0.0
H2271 H 0.84934 0.5952 0.27189 0.0
H2272 H 0.83277 0.5937 0.31726 0.0
C2273 C 0.85576 0.64661 0.33011 0.0
C2274 C 0.83923 0.63118 0.29328 0.0
C2275 C 0.85903 0.66001 0.33782 0.0
C2276 C 0.83699 0.57439 0.26591 0.0
C2277 C 0.8398 0.58725 0.27439 0.0
C2278 C 0.83445 0.6041 0.31044 0.0
C2279 C 0.84457 0.64549 0.31754 0.0
C2280 C 0.8407 0.63119 0.30955 0.0
C2281 C 0.83043 0.5899 0.28589 0.0
C2282 C 0.8333 0.6041 0.29417 0.0
H2283 H 0.83375 0.68086 0.31699 0.0
H2284 H 0.82825 0.65761 0.30312 0.0
H2285 H 0.83914 0.61719 0.33063 0.0
H2286 H 0.80574 0.55833 0.28261 0.0
H2287 H 0.81091 0.58092 0.29781 0.0
C2288 C 0.90953 0.33716 0.35447 0.0
C2289 C 0.89393 0.33284 0.35232 0.0
C2290 C 0.92005 0.32689 0.35305 0.0
C2291 C 0.92552 0.28665 0.351 0.0
H2292 H 0.95714 0.3021 0.3248 0.0
C2293 C 0.97624 0.25357 0.33894 0.0
C2294 C 0.98032 0.25438 0.32355 0.0
C2295 C 0.9654 0.26242 0.34339 0.0
C2296 C 0.94836 0.29757 0.33209 0.0
H2297 H 0.87702 0.31425 0.34794 0.0
H2298 H 0.89544 0.29606 0.3456 0.0
H2299 H 0.93898 0.31857 0.33169 0.0
H2300 H 0.97544 0.2649 0.30071 0.0
H2301 H 0.95694 0.28038 0.30853 0.0
H2302 H 0.93494 0.26555 0.35119 0.0
C2303 C 0.89957 0.30742 0.34839 0.0
C2304 C 0.93803 0.30707 0.3362 0.0
C2305 C 0.88901 0.31778 0.34978 0.0
C2306 C 0.973 0.26412 0.31273 0.0
C2307 C 0.96229 0.27303 0.31721 0.0
C2308 C 0.936 0.27714 0.34699 0.0
C2309 C 0.91522 0.312 0.34947 0.0
C2310 C 0.92643 0.30176 0.34566 0.0
C2311 C 0.95843 0.27241 0.33261 0.0
C2312 C 0.94747 0.28247 0.33737 0.0
H2313 H 0.91355 0.34871 0.35655 0.0
H2314 H 0.93201 0.33073 0.35429 0.0
H2315 H 0.91676 0.2822 0.35834 0.0
H2316 H 0.98162 0.24634 0.34768 0.0
H2317 H 0.96277 0.26174 0.35538 0.0
C2318 C 0.86169 0.38256 0.71543 0.0
C2319 C 0.86704 0.38357 0.70063 0.0
C2320 C 0.8555 0.39465 0.72108 0.0
C2321 C 0.83831 0.42986 0.71003 0.0
H2322 H 0.8534 0.44027 0.75178 0.0
C2323 C 0.82577 0.48457 0.73836 0.0
C2324 C 0.82517 0.48385 0.75452 0.0
C2325 C 0.82942 0.47212 0.73079 0.0
C2326 C 0.84879 0.43742 0.74021 0.0
H2327 H 0.8697 0.39783 0.67995 0.0
H2328 H 0.85859 0.41901 0.68973 0.0
H2329 H 0.8623 0.41903 0.74053 0.0
H2330 H 0.82671 0.46934 0.77526 0.0
H2331 H 0.83221 0.4476 0.76215 0.0
H2332 H 0.82463 0.44823 0.70983 0.0
C2333 C 0.85922 0.40885 0.69696 0.0
C2334 C 0.85399 0.42523 0.73373 0.0
C2335 C 0.86556 0.39676 0.69136 0.0
C2336 C 0.82726 0.47025 0.76279 0.0
C2337 C 0.8306 0.45782 0.75527 0.0
C2338 C 0.83295 0.44204 0.71661 0.0
C2339 C 0.85436 0.40803 0.71201 0.0
C2340 C 0.84877 0.42121 0.71861 0.0
C2341 C 0.83235 0.4587 0.73926 0.0
C2342 C 0.83803 0.44591 0.73187 0.0
H2343 H 0.86244 0.37242 0.72267 0.0
H2344 H 0.85164 0.39356 0.73262 0.0
H2345 H 0.83404 0.42703 0.69836 0.0
H2346 H 0.82433 0.49497 0.73173 0.0
H2347 H 0.83066 0.47327 0.71846 0.0
C2348 C 0.1789 0.32754 0.70283 0.0
C2349 C 0.17765 0.34159 0.69525 0.0
C2350 C 0.16595 0.31863 0.70699 0.0
C2351 C 0.12549 0.32118 0.71328 0.0
H2352 H 0.12312 0.27788 0.71321 0.0
C2353 C 0.07098 0.28476 0.72661 0.0
C2354 C 0.07287 0.27337 0.73821 0.0
C2355 C 0.08349 0.292 0.7197 0.0
C2356 C 0.12365 0.28996 0.71331 0.0
H2357 H 0.16211 0.35729 0.68564 0.0
H2358 H 0.13936 0.34167 0.69244 0.0
H2359 H 0.14545 0.29284 0.70439 0.0
H2360 H 0.0893 0.26 0.75087 0.0
H2361 H 0.1111 0.27254 0.73862 0.0
H2362 H 0.10364 0.31828 0.72207 0.0
C2363 C 0.15029 0.33759 0.69563 0.0
C2364 C 0.13648 0.29856 0.70834 0.0
C2365 C 0.16327 0.34653 0.69165 0.0
C2366 C 0.08744 0.26875 0.742 0.0
C2367 C 0.09993 0.27591 0.73497 0.0
C2368 C 0.11263 0.3126 0.71807 0.0
C2369 C 0.15144 0.32356 0.7035 0.0
C2370 C 0.13762 0.3143 0.70835 0.0
C2371 C 0.09815 0.28793 0.72409 0.0
C2372 C 0.11158 0.2969 0.71822 0.0
H2373 H 0.18995 0.32361 0.70575 0.0
H2374 H 0.16737 0.30804 0.71324 0.0
H2375 H 0.12602 0.33322 0.71381 0.0
H2376 H 0.05994 0.28859 0.72335 0.0
H2377 H 0.08173 0.30107 0.71118 0.0
C2378 C 0.88403 0.72202 0.68771 0.0
C2379 C 0.88012 0.70999 0.67805 0.0
C2380 C 0.89896 0.7252 0.69379 0.0
C2381 C 0.93598 0.71029 0.70183 0.0
H2382 H 0.95126 0.75212 0.69736 0.0
C2383 C 0.99883 0.73061 0.71772 0.0
C2384 C 1.00142 0.74347 0.72647 0.0
C2385 C 0.98441 0.72638 0.71063 0.0
C2386 C 0.94715 0.74042 0.69881 0.0
H2387 H 0.88828 0.69134 0.66777 0.0
H2388 H 0.91463 0.69679 0.67857 0.0
H2389 H 0.92508 0.74429 0.6885 0.0
H2390 H 0.99102 0.76228 0.73414 0.0
H2391 H 0.96595 0.75486 0.72192 0.0
H2392 H 0.95802 0.70647 0.71237 0.0
C2393 C 0.90615 0.70377 0.68142 0.0
C2394 C 0.93215 0.73594 0.69375 0.0
C2395 C 0.89115 0.70062 0.67528 0.0
C2396 C 0.98944 0.75232 0.72746 0.0
C2397 C 0.97505 0.74809 0.72039 0.0
C2398 C 0.95101 0.71479 0.70697 0.0
C2399 C 0.91026 0.71637 0.69035 0.0
C2400 C 0.92635 0.72087 0.69538 0.0
C2401 C 0.9723 0.73494 0.71212 0.0
C2402 C 0.95671 0.72994 0.70566 0.0
H2403 H 0.87556 0.72924 0.69006 0.0
H2404 H 0.90174 0.73479 0.70092 0.0
H2405 H 0.93178 0.69861 0.70327 0.0
H2406 H 1.00782 0.72357 0.7167 0.0
H2407 H 0.9827 0.71632 0.70413 0.0
C2408 C 0.71475 0.18401 0.64382 0.0
C2409 C 0.71353 0.19192 0.65708 0.0
C2410 C 0.72291 0.19064 0.63171 0.0
C2411 C 0.752 0.22186 0.62272 0.0
H2412 H 0.73701 0.21488 0.58005 0.0
C2413 C 0.78951 0.23412 0.57234 0.0
C2414 C 0.78338 0.23939 0.55779 0.0
C2415 C 0.78034 0.23029 0.58442 0.0
C2416 C 0.74123 0.21713 0.59189 0.0
H2417 H 0.72011 0.21268 0.66836 0.0
H2418 H 0.7342 0.22441 0.64727 0.0
H2419 H 0.72257 0.2037 0.60116 0.0
H2420 H 0.76282 0.24523 0.54461 0.0
H2421 H 0.74654 0.23848 0.56596 0.0
H2422 H 0.77059 0.23533 0.61351 0.0
C2423 C 0.72903 0.21305 0.64615 0.0
C2424 C 0.73308 0.21051 0.60402 0.0
C2425 C 0.72091 0.2064 0.65821 0.0
C2426 C 0.76786 0.24131 0.55575 0.0
C2427 C 0.75855 0.23729 0.56791 0.0
C2428 C 0.76012 0.22845 0.61063 0.0
C2429 C 0.73003 0.20534 0.63263 0.0
C2430 C 0.73845 0.21265 0.61962 0.0
C2431 C 0.76469 0.23153 0.58234 0.0
C2432 C 0.755 0.22599 0.59505 0.0
H2433 H 0.70899 0.1729 0.64263 0.0
H2434 H 0.72361 0.18426 0.6216 0.0
H2435 H 0.75659 0.22371 0.63453 0.0
H2436 H 0.80144 0.23253 0.5743 0.0
H2437 H 0.78549 0.22574 0.59524 0.0
C2438 C 0.33256 0.18489 0.641 0.0
C2439 C 0.33578 0.19387 0.65383 0.0
C2440 C 0.32347 0.18972 0.62805 0.0
C2441 C 0.29669 0.21755 0.61397 0.0
H2442 H 0.31553 0.21704 0.57544 0.0
C2443 C 0.28904 0.26141 0.56428 0.0
C2444 C 0.29063 0.25783 0.54897 0.0
C2445 C 0.29038 0.25065 0.57642 0.0
C2446 C 0.30983 0.21698 0.58596 0.0
H2447 H 0.33162 0.21442 0.66373 0.0
H2448 H 0.31574 0.22301 0.6411 0.0
H2449 H 0.3257 0.20338 0.59834 0.0
H2450 H 0.29353 0.23978 0.53423 0.0
H2451 H 0.29562 0.22089 0.55545 0.0
H2452 H 0.28111 0.23156 0.60168 0.0
C2453 C 0.3201 0.21221 0.64099 0.0
C2454 C 0.31571 0.20915 0.59913 0.0
C2455 C 0.32925 0.2074 0.65387 0.0
C2456 C 0.2924 0.24294 0.54592 0.0
C2457 C 0.2937 0.23214 0.55809 0.0
C2458 C 0.29074 0.22532 0.60076 0.0
C2459 C 0.31738 0.20357 0.6278 0.0
C2460 C 0.30951 0.20975 0.61339 0.0
C2461 C 0.29325 0.23601 0.57354 0.0
C2462 C 0.29757 0.22553 0.58672 0.0
H2463 H 0.33758 0.17443 0.64079 0.0
H2464 H 0.32149 0.18279 0.6181 0.0
H2465 H 0.29153 0.21802 0.62476 0.0
H2466 H 0.28757 0.27274 0.56704 0.0
H2467 H 0.2901 0.2541 0.58815 0.0
C2468 C 0.36478 0.85662 0.64585 0.0
C2469 C 0.36324 0.84905 0.66029 0.0
C2470 C 0.35958 0.8496 0.63211 0.0
C2471 C 0.34618 0.81313 0.61487 0.0
H2472 H 0.32261 0.83784 0.58583 0.0
C2473 C 0.30817 0.78866 0.56236 0.0
C2474 C 0.30729 0.7974 0.54838 0.0
C2475 C 0.31565 0.79456 0.57594 0.0
C2476 C 0.32933 0.8308 0.59365 0.0
H2477 H 0.3559 0.82802 0.67179 0.0
H2478 H 0.34684 0.81553 0.6477 0.0
H2479 H 0.33532 0.84842 0.6093 0.0
H2480 H 0.3139 0.81919 0.5378 0.0
H2481 H 0.327 0.82943 0.56132 0.0
H2482 H 0.34014 0.79548 0.59915 0.0
C2483 C 0.35211 0.82691 0.64696 0.0
C2484 C 0.33664 0.83689 0.60716 0.0
C2485 C 0.35734 0.83399 0.66074 0.0
C2486 C 0.31411 0.8122 0.54837 0.0
C2487 C 0.32164 0.81808 0.56192 0.0
C2488 C 0.33889 0.80702 0.60127 0.0
C2489 C 0.35268 0.83482 0.63248 0.0
C2490 C 0.3452 0.82817 0.61796 0.0
C2491 C 0.32251 0.80937 0.57593 0.0
C2492 C 0.33036 0.81578 0.59045 0.0
H2493 H 0.36934 0.86824 0.64528 0.0
H2494 H 0.36054 0.85594 0.62119 0.0
H2495 H 0.35274 0.80611 0.62286 0.0
H2496 H 0.30289 0.77729 0.56287 0.0
H2497 H 0.31582 0.78757 0.58652 0.0
C2498 C 0.70677 0.84569 0.64302 0.0
C2499 C 0.696 0.85593 0.64366 0.0
C2500 C 0.71511 0.84578 0.63011 0.0
C2501 C 0.71212 0.85689 0.58844 0.0
H2502 H 0.75314 0.84556 0.5905 0.0
C2503 C 0.74494 0.85501 0.53392 0.0
C2504 C 0.75384 0.84304 0.53324 0.0
C2505 C 0.73816 0.85726 0.54743 0.0
C2506 C 0.74162 0.8486 0.58972 0.0
H2507 H 0.68609 0.87488 0.63198 0.0
H2508 H 0.70094 0.87539 0.60943 0.0
H2509 H 0.74185 0.84948 0.61439 0.0
H2510 H 0.76246 0.82398 0.54629 0.0
H2511 H 0.75043 0.82774 0.56976 0.0
H2512 H 0.71186 0.85593 0.56378 0.0
C2513 C 0.70275 0.86705 0.61873 0.0
C2514 C 0.73516 0.85089 0.60343 0.0
C2515 C 0.69439 0.86692 0.63168 0.0
C2516 C 0.75554 0.83319 0.54632 0.0
C2517 C 0.74882 0.83548 0.55987 0.0
C2518 C 0.71859 0.85465 0.57474 0.0
C2519 C 0.71288 0.85617 0.61757 0.0
C2520 C 0.72026 0.85493 0.60298 0.0
C2521 C 0.74016 0.84763 0.56064 0.0
C2522 C 0.73338 0.85034 0.57521 0.0
H2523 H 0.70821 0.83718 0.65222 0.0
H2524 H 0.72272 0.83718 0.62964 0.0
H2525 H 0.70053 0.85972 0.58762 0.0
H2526 H 0.74335 0.86274 0.52402 0.0
H2527 H 0.73165 0.86678 0.54765 0.0
C2528 C 0.71815 0.82203 0.36816 0.0
C2529 C 0.723 0.81846 0.35401 0.0
C2530 C 0.72843 0.82353 0.38126 0.0
C2531 C 0.76548 0.81338 0.39851 0.0
H2532 H 0.76356 0.84739 0.42362 0.0
C2533 C 0.80892 0.82738 0.4511 0.0
C2534 C 0.80314 0.83253 0.46416 0.0
C2535 C 0.79969 0.82549 0.43724 0.0
C2536 C 0.76414 0.83771 0.41688 0.0
H2537 H 0.74219 0.81371 0.34221 0.0
H2538 H 0.76037 0.81629 0.36523 0.0
H2539 H 0.74633 0.84411 0.40039 0.0
H2540 H 0.78341 0.84018 0.47273 0.0
H2541 H 0.76723 0.83669 0.44895 0.0
H2542 H 0.78325 0.80693 0.41508 0.0
C2543 C 0.74859 0.81778 0.36624 0.0
C2544 C 0.75428 0.83587 0.40353 0.0
C2545 C 0.73828 0.81637 0.35311 0.0
C2546 C 0.78812 0.83606 0.463 0.0
C2547 C 0.77889 0.83419 0.44922 0.0
C2548 C 0.77534 0.81519 0.41194 0.0
C2549 C 0.74378 0.8215 0.38043 0.0
C2550 C 0.75472 0.82361 0.39429 0.0
C2551 C 0.78455 0.82894 0.43613 0.0
C2552 C 0.77465 0.82728 0.42141 0.0
H2553 H 0.70646 0.82397 0.36899 0.0
H2554 H 0.72437 0.8263 0.39205 0.0
H2555 H 0.76603 0.80378 0.39163 0.0
H2556 H 0.82056 0.82474 0.45163 0.0
H2557 H 0.80451 0.82161 0.42734 0.0
C2558 C 0.71057 0.16257 0.38235 0.0
C2559 C 0.71282 0.17012 0.36803 0.0
C2560 C 0.71678 0.16884 0.39619 0.0
C2561 C 0.73562 0.20317 0.41426 0.0
H2562 H 0.75811 0.17482 0.43988 0.0
C2563 C 0.78055 0.22192 0.46397 0.0
C2564 C 0.78217 0.21246 0.47737 0.0
C2565 C 0.77109 0.21726 0.45097 0.0
C2566 C 0.75172 0.18288 0.43308 0.0
H2567 H 0.72232 0.19051 0.35686 0.0
H2568 H 0.73309 0.20175 0.38113 0.0
H2569 H 0.74227 0.16643 0.41712 0.0
H2570 H 0.7748 0.19078 0.48768 0.0
H2571 H 0.7581 0.18273 0.46522 0.0
H2572 H 0.74507 0.21964 0.43029 0.0
C2573 C 0.7265 0.19097 0.3817 0.0
C2574 C 0.7426 0.17804 0.41997 0.0
C2575 C 0.72027 0.18462 0.36782 0.0
C2576 C 0.77402 0.19825 0.47747 0.0
C2577 C 0.76443 0.19363 0.46454 0.0
C2578 C 0.74466 0.20801 0.42751 0.0
C2579 C 0.72541 0.18284 0.39599 0.0
C2580 C 0.73446 0.18811 0.41035 0.0
C2581 C 0.76286 0.20304 0.45105 0.0
C2582 C 0.7529 0.19793 0.43708 0.0
H2583 H 0.70492 0.15132 0.3827 0.0
H2584 H 0.71547 0.1624 0.407 0.0
H2585 H 0.72944 0.2112 0.40715 0.0
H2586 H 0.78682 0.23287 0.46343 0.0
H2587 H 0.77044 0.22474 0.44076 0.0
C2588 C 0.35818 0.21366 0.39526 0.0
C2589 C 0.37095 0.20567 0.39768 0.0
C2590 C 0.35447 0.22262 0.40678 0.0
C2591 C 0.37072 0.24181 0.44223 0.0
H2592 H 0.32857 0.24219 0.44996 0.0
C2593 C 0.35189 0.26965 0.49519 0.0
C2594 C 0.33888 0.27744 0.49284 0.0
C2595 C 0.35613 0.26124 0.48346 0.0
C2596 C 0.34038 0.24236 0.44784 0.0
H2597 H 0.38992 0.20056 0.4137 0.0
H2598 H 0.38346 0.21611 0.43409 0.0
H2599 H 0.33527 0.2268 0.42985 0.0
H2600 H 0.32049 0.28289 0.47597 0.0
H2601 H 0.32786 0.26826 0.45559 0.0
H2602 H 0.37581 0.25733 0.4603 0.0
C2603 C 0.37636 0.21569 0.42326 0.0
C2604 C 0.34423 0.23353 0.43629 0.0
C2605 C 0.38004 0.20673 0.41171 0.0
C2606 C 0.3304 0.27681 0.47834 0.0
C2607 C 0.33463 0.26841 0.46662 0.0
C2608 C 0.36687 0.25064 0.45381 0.0
C2609 C 0.3635 0.22373 0.42096 0.0
C2610 C 0.35945 0.23315 0.43331 0.0
C2611 C 0.34747 0.26041 0.46907 0.0
C2612 C 0.35164 0.25105 0.45674 0.0
H2613 H 0.35112 0.21295 0.38442 0.0
H2614 H 0.34462 0.22881 0.4045 0.0
H2615 H 0.38253 0.24196 0.44011 0.0
H2616 H 0.3586 0.26971 0.50624 0.0
H2617 H 0.366 0.25509 0.48581 0.0
C2618 C 0.35326 0.82136 0.36767 0.0
C2619 C 0.36676 0.83084 0.36876 0.0
C2620 C 0.34916 0.81191 0.38028 0.0
C2621 C 0.36333 0.79695 0.41976 0.0
H2622 H 0.32051 0.79269 0.42592 0.0
C2623 C 0.33843 0.7786 0.47851 0.0
C2624 C 0.32483 0.76913 0.47806 0.0
C2625 C 0.34465 0.78405 0.46477 0.0
C2626 C 0.33249 0.79358 0.42429 0.0
H2627 H 0.38676 0.83778 0.38353 0.0
H2628 H 0.37951 0.82164 0.40588 0.0
H2629 H 0.32921 0.80615 0.40285 0.0
H2630 H 0.3075 0.75744 0.46271 0.0
H2631 H 0.3183 0.76702 0.43881 0.0
H2632 H 0.36651 0.78486 0.44171 0.0
C2633 C 0.37218 0.8211 0.39522 0.0
C2634 C 0.33752 0.80128 0.41097 0.0
C2635 C 0.37637 0.8304 0.38247 0.0
C2636 C 0.31799 0.76469 0.46354 0.0
C2637 C 0.32412 0.77028 0.44981 0.0
C2638 C 0.35828 0.78939 0.43322 0.0
C2639 C 0.35833 0.81194 0.39443 0.0
C2640 C 0.35303 0.80314 0.40847 0.0
C2641 C 0.33733 0.78029 0.45024 0.0
C2642 C 0.34279 0.78764 0.43565 0.0
H2643 H 0.34573 0.82156 0.35714 0.0
H2644 H 0.33863 0.80477 0.37898 0.0
H2645 H 0.37532 0.7979 0.41823 0.0
H2646 H 0.34401 0.78225 0.48947 0.0
H2647 H 0.3548 0.79179 0.46552 0.0
C2648 C 0.67391 0.20114 0.70079 0.0
C2649 C 0.67336 0.18732 0.69388 0.0
C2650 C 0.66211 0.20444 0.70927 0.0
C2651 C 0.6217 0.19255 0.71566 0.0
H2652 H 0.63085 0.21604 0.75213 0.0
C2653 C 0.57616 0.20195 0.75704 0.0
C2654 C 0.57604 0.21658 0.76199 0.0
C2655 C 0.58811 0.19807 0.74908 0.0
C2656 C 0.62808 0.20957 0.7419 0.0
H2657 H 0.66006 0.16613 0.69037 0.0
H2658 H 0.63961 0.17161 0.70557 0.0
H2659 H 0.6514 0.20978 0.73768 0.0
H2660 H 0.58866 0.23846 0.76275 0.0
H2661 H 0.60947 0.23172 0.74889 0.0
H2662 H 0.59836 0.19224 0.72004 0.0
C2663 C 0.64901 0.18007 0.70424 0.0
C2664 C 0.63988 0.206 0.73356 0.0
C2665 C 0.66079 0.17682 0.69568 0.0
C2666 C 0.58831 0.22715 0.75899 0.0
C2667 C 0.60032 0.22324 0.75116 0.0
C2668 C 0.60991 0.19604 0.72407 0.0
C2669 C 0.64948 0.19395 0.71117 0.0
C2670 C 0.63688 0.19751 0.72026 0.0
C2671 C 0.60033 0.20868 0.746 0.0
C2672 C 0.61293 0.20466 0.73726 0.0
H2673 H 0.68355 0.20936 0.69968 0.0
H2674 H 0.66284 0.21532 0.71419 0.0
H2675 H 0.61886 0.18622 0.70536 0.0
H2676 H 0.56686 0.19356 0.75901 0.0
H2677 H 0.58782 0.18673 0.7454 0.0
C2678 C 0.36595 0.16882 0.71235 0.0
C2679 C 0.36247 0.16532 0.69678 0.0
C2680 C 0.36833 0.15749 0.72376 0.0
C2681 C 0.37429 0.11687 0.72935 0.0
H2682 H 0.35553 0.12011 0.7675 0.0
C2683 C 0.37091 0.06778 0.77509 0.0
C2684 C 0.35685 0.06464 0.78135 0.0
C2685 C 0.37426 0.08123 0.76662 0.0
C2686 C 0.3608 0.11898 0.7569 0.0
H2687 H 0.35947 0.14751 0.68073 0.0
H2688 H 0.36291 0.12759 0.70059 0.0
H2689 H 0.35647 0.14108 0.74863 0.0
H2690 H 0.3357 0.07372 0.78441 0.0
H2691 H 0.34122 0.09672 0.76926 0.0
H2692 H 0.37769 0.09441 0.73717 0.0
C2693 C 0.36412 0.13905 0.7041 0.0
C2694 C 0.36154 0.13113 0.74614 0.0
C2695 C 0.36191 0.1504 0.69271 0.0
C2696 C 0.34651 0.07557 0.77951 0.0
C2697 C 0.3498 0.08893 0.77098 0.0
C2698 C 0.37339 0.10466 0.74004 0.0
C2699 C 0.36713 0.1424 0.71982 0.0
C2700 C 0.368 0.13013 0.73205 0.0
C2701 C 0.3636 0.09185 0.76419 0.0
C2702 C 0.36631 0.10544 0.75379 0.0
H2703 H 0.3664 0.18028 0.71572 0.0
H2704 H 0.37089 0.16055 0.73569 0.0
H2705 H 0.37962 0.11578 0.71879 0.0
H2706 H 0.37915 0.05965 0.77624 0.0
H2707 H 0.3851 0.08319 0.76177 0.0
C2708 C 0.38401 0.83302 0.70172 0.0
C2709 C 0.38499 0.8435 0.68918 0.0
C2710 C 0.39622 0.82481 0.70674 0.0
C2711 C 0.43788 0.82806 0.70683 0.0
H2712 H 0.43339 0.78851 0.72699 0.0
C2713 C 0.48549 0.80545 0.749 0.0
C2714 C 0.48762 0.79015 0.74911 0.0
C2715 C 0.47316 0.81117 0.74024 0.0
C2716 C 0.43494 0.79949 0.72126 0.0
H2717 H 0.39902 0.85312 0.67145 0.0
H2718 H 0.4204 0.83848 0.6799 0.0
H2719 H 0.41146 0.79874 0.71308 0.0
H2720 H 0.47811 0.76889 0.73999 0.0
H2721 H 0.45697 0.77887 0.72451 0.0
H2722 H 0.46139 0.82877 0.71491 0.0
C2723 C 0.41028 0.83674 0.68607 0.0
C2724 C 0.42228 0.80544 0.71339 0.0
C2725 C 0.398 0.84494 0.68104 0.0
C2726 C 0.47705 0.78075 0.74013 0.0
C2727 C 0.46474 0.78647 0.73135 0.0
C2728 C 0.45055 0.8221 0.71468 0.0
C2729 C 0.40974 0.82693 0.69933 0.0
C2730 C 0.42351 0.81991 0.70625 0.0
C2731 C 0.46259 0.80176 0.73129 0.0
C2732 C 0.44923 0.80781 0.7222 0.0
H2733 H 0.37412 0.8319 0.70824 0.0
H2734 H 0.39535 0.81752 0.71705 0.0
H2735 H 0.4393 0.8393 0.70166 0.0
H2736 H 0.4934 0.81311 0.75561 0.0
H2737 H 0.47181 0.82296 0.74069 0.0
C2738 C 0.68316 0.89131 0.6665 0.0
C2739 C 0.69078 0.87834 0.66733 0.0
C2740 C 0.69053 0.90476 0.67181 0.0
C2741 C 0.72798 0.92476 0.68367 0.0
H2742 H 0.7048 0.94477 0.71059 0.0
C2743 C 0.75555 0.97161 0.72338 0.0
C2744 C 0.74712 0.98363 0.72555 0.0
C2745 C 0.7489 0.95915 0.71542 0.0
C2746 C 0.7114 0.93951 0.70293 0.0
H2747 H 0.71221 0.86933 0.67342 0.0
H2748 H 0.72531 0.89295 0.68266 0.0
H2749 H 0.69313 0.92282 0.69737 0.0
H2750 H 0.72513 0.99203 0.72077 0.0
H2751 H 0.71358 0.97043 0.70674 0.0
H2752 H 0.74627 0.94147 0.68926 0.0
C2753 C 0.71362 0.89276 0.6779 0.0
C2754 C 0.70469 0.92688 0.69533 0.0
C2755 C 0.70619 0.87926 0.67259 0.0
C2756 C 0.73188 0.98288 0.71952 0.0
C2757 C 0.72526 0.97046 0.71147 0.0
C2758 C 0.73469 0.93747 0.69122 0.0
C2759 C 0.70572 0.90555 0.67804 0.0
C2760 C 0.71288 0.91931 0.68562 0.0
C2761 C 0.73366 0.95839 0.70933 0.0
C2762 C 0.7265 0.945 0.701 0.0
H2763 H 0.67131 0.89084 0.66228 0.0
H2764 H 0.6842 0.91447 0.67142 0.0
H2765 H 0.73458 0.91927 0.67618 0.0
H2766 H 0.76724 0.97171 0.72808 0.0
H2767 H 0.75567 0.94999 0.71428 0.0
C2768 C 0.66461 0.81279 0.32897 0.0
C2769 C 0.67581 0.80904 0.31993 0.0
C2770 C 0.64932 0.81019 0.3238 0.0
C2771 C 0.62358 0.80375 0.28829 0.0
H2772 H 0.59473 0.78913 0.31782 0.0
C2773 C 0.56205 0.77865 0.27174 0.0
C2774 C 0.5509 0.7811 0.28157 0.0
C2775 C 0.57713 0.78426 0.27519 0.0
C2776 C 0.6026 0.79346 0.30946 0.0
H2777 H 0.68009 0.79969 0.29852 0.0
H2778 H 0.65322 0.79475 0.28945 0.0
H2779 H 0.62143 0.79352 0.32658 0.0
H2780 H 0.54659 0.79258 0.30186 0.0
H2781 H 0.57284 0.80251 0.30773 0.0
H2782 H 0.60464 0.80333 0.27111 0.0
C2783 C 0.65621 0.7999 0.30046 0.0
C2784 C 0.61793 0.79594 0.31448 0.0
C2785 C 0.67154 0.80256 0.30565 0.0
C2786 C 0.55492 0.79033 0.29415 0.0
C2787 C 0.56998 0.79594 0.29759 0.0
C2788 C 0.60821 0.80119 0.28324 0.0
C2789 C 0.64493 0.80375 0.30945 0.0
C2790 C 0.62862 0.8011 0.30397 0.0
C2791 C 0.58133 0.79245 0.28851 0.0
C2792 C 0.59755 0.79603 0.29379 0.0
H2793 H 0.66775 0.81812 0.33985 0.0
H2794 H 0.64096 0.81355 0.33089 0.0
H2795 H 0.6315 0.80793 0.27993 0.0
H2796 H 0.55935 0.7716 0.26193 0.0
H2797 H 0.58562 0.78136 0.26799 0.0
C2798 C 0.72114 0.11947 0.33663 0.0
C2799 C 0.7214 0.13387 0.32949 0.0
C2800 C 0.72792 0.10817 0.33016 0.0
C2801 C 0.75715 0.10264 0.30381 0.0
H2802 H 0.73923 0.06151 0.30505 0.0
C2803 C 0.79054 0.05337 0.29094 0.0
C2804 C 0.78284 0.04176 0.28222 0.0
C2805 C 0.78268 0.06456 0.29621 0.0
C2806 C 0.74435 0.07295 0.30449 0.0
H2807 H 0.72869 0.14776 0.30991 0.0
H2808 H 0.74043 0.12799 0.29836 0.0
H2809 H 0.72581 0.08104 0.31455 0.0
H2810 H 0.76075 0.03287 0.27227 0.0
H2811 H 0.74707 0.0524 0.28141 0.0
H2812 H 0.77563 0.09459 0.29363 0.0
C2813 C 0.73514 0.12542 0.30908 0.0
C2814 C 0.73671 0.08415 0.3101 0.0
C2815 C 0.7283 0.1367 0.31556 0.0
C2816 C 0.76706 0.04161 0.27898 0.0
C2817 C 0.75919 0.05278 0.2843 0.0
C2818 C 0.76481 0.09144 0.29826 0.0
C2819 C 0.73516 0.11102 0.31637 0.0
C2820 C 0.74303 0.09914 0.3099 0.0
C2821 C 0.7669 0.06445 0.29295 0.0
C2822 C 0.75856 0.07643 0.29858 0.0
H2823 H 0.71583 0.11704 0.34736 0.0
H2824 H 0.72783 0.0973 0.3362 0.0
H2825 H 0.76245 0.11402 0.30361 0.0
H2826 H 0.80268 0.05387 0.29369 0.0
H2827 H 0.78898 0.07323 0.30302 0.0
C2828 C 0.39537 0.19953 0.34187 0.0
C2829 C 0.39445 0.18784 0.35324 0.0
C2830 C 0.40632 0.20029 0.33123 0.0
C2831 C 0.43344 0.1792 0.3137 0.0
H2832 H 0.45663 0.21797 0.3108 0.0
C2833 C 0.49022 0.18877 0.28465 0.0
C2834 C 0.4938 0.20275 0.27712 0.0
C2835 C 0.47726 0.18619 0.29284 0.0
C2836 C 0.45015 0.20713 0.31119 0.0
H2837 H 0.40351 0.1673 0.36191 0.0
H2838 H 0.42267 0.16843 0.34309 0.0
H2839 H 0.4352 0.21455 0.32647 0.0
H2840 H 0.48618 0.22466 0.27149 0.0
H2841 H 0.46342 0.2201 0.28527 0.0
H2842 H 0.44836 0.17181 0.29828 0.0
C2843 C 0.41496 0.17706 0.34244 0.0
C2844 C 0.43785 0.20517 0.32024 0.0
C2845 C 0.40402 0.17637 0.35318 0.0
C2846 C 0.48386 0.21388 0.27743 0.0
C2847 C 0.47084 0.21125 0.28541 0.0
C2848 C 0.4457 0.18121 0.30446 0.0
C2849 C 0.41652 0.18928 0.33165 0.0
C2850 C 0.42935 0.1912 0.32163 0.0
C2851 C 0.4675 0.19748 0.29352 0.0
C2852 C 0.45424 0.19522 0.30309 0.0
H2853 H 0.38789 0.20833 0.34156 0.0
H2854 H 0.40704 0.20968 0.32286 0.0
H2855 H 0.42705 0.16833 0.31448 0.0
H2856 H 0.49773 0.18003 0.2847 0.0
H2857 H 0.4752 0.17551 0.29904 0.0
C2858 C 0.34768 0.87602 0.32683 0.0
C2859 C 0.36273 0.87589 0.33318 0.0
C2860 C 0.34262 0.88895 0.31917 0.0
C2861 C 0.35203 0.93023 0.31482 0.0
H2862 H 0.32185 0.92638 0.27975 0.0
C2863 C 0.327 0.98188 0.28207 0.0
C2864 C 0.31109 0.98052 0.28065 0.0
C2865 C 0.33488 0.96929 0.28649 0.0
C2866 C 0.3303 0.92766 0.28952 0.0
H2867 H 0.3843 0.88914 0.33656 0.0
H2868 H 0.37566 0.91169 0.32286 0.0
H2869 H 0.33244 0.90414 0.29169 0.0
H2870 H 0.29098 0.96495 0.28187 0.0
H2871 H 0.30457 0.94315 0.28912 0.0
H2872 H 0.34972 0.9538 0.31263 0.0
C2873 C 0.36764 0.90189 0.32396 0.0
C2874 C 0.33631 0.91488 0.29646 0.0
C2875 C 0.37265 0.88895 0.33169 0.0
C2876 C 0.30326 0.96632 0.28289 0.0
C2877 C 0.31106 0.9538 0.28699 0.0
C2878 C 0.34607 0.94305 0.30779 0.0
C2879 C 0.35253 0.90209 0.31756 0.0
C2880 C 0.34703 0.91591 0.30943 0.0
C2881 C 0.32695 0.95514 0.2892 0.0
C2882 C 0.33488 0.94188 0.29526 0.0
H2883 H 0.33985 0.86605 0.32772 0.0
H2884 H 0.33086 0.88867 0.31466 0.0
H2885 H 0.36015 0.93151 0.32485 0.0
H2886 H 0.33329 0.99273 0.28055 0.0
H2887 H 0.34713 0.97067 0.28802 0.0
C2888 C 0.72937 0.16471 0.68658 0.0
C2889 C 0.71611 0.16291 0.6766 0.0
C2890 C 0.7391 0.15333 0.68881 0.0
C2891 C 0.73822 0.11212 0.68514 0.0
H2892 H 0.78082 0.11953 0.69899 0.0
C2893 C 0.77426 0.06369 0.70651 0.0
C2894 C 0.78097 0.06564 0.72165 0.0
C2895 C 0.76863 0.07584 0.6977 0.0
C2896 C 0.76895 0.11728 0.69504 0.0
H2897 H 0.70272 0.14822 0.66071 0.0
H2898 H 0.72002 0.12855 0.66381 0.0
H2899 H 0.76659 0.14042 0.68923 0.0
H2900 H 0.78784 0.08181 0.73914 0.0
H2901 H 0.77861 0.10302 0.72366 0.0
H2902 H 0.74065 0.08897 0.69108 0.0
C2903 C 0.72285 0.13853 0.67031 0.0
C2904 C 0.76073 0.12927 0.68954 0.0
C2905 C 0.71304 0.14986 0.6683 0.0
C2906 C 0.78288 0.08006 0.72741 0.0
C2907 C 0.77758 0.09221 0.71854 0.0
C2908 C 0.74651 0.10012 0.69042 0.0
C2909 C 0.73581 0.13987 0.68098 0.0
C2910 C 0.74512 0.12694 0.68491 0.0
C2911 C 0.76989 0.09016 0.70381 0.0
C2912 C 0.76187 0.10259 0.69581 0.0
H2913 H 0.73171 0.1746 0.69332 0.0
H2914 H 0.74874 0.1548 0.69731 0.0
H2915 H 0.72622 0.10976 0.68197 0.0
H2916 H 0.77241 0.05263 0.70192 0.0
H2917 H 0.76279 0.07393 0.68637 0.0
C2918 C 0.72583 0.85058 0.33516 0.0
C2919 C 0.72516 0.83853 0.32548 0.0
C2920 C 0.73498 0.86374 0.33204 0.0
C2921 C 0.75169 0.88472 0.2991 0.0
H2922 H 0.77003 0.9108 0.3312 0.0
C2923 C 0.76758 0.94746 0.2864 0.0
C2924 C 0.78066 0.9544 0.29429 0.0
C2925 C 0.76242 0.93267 0.2903 0.0
C2926 C 0.76517 0.90359 0.32206 0.0
H2927 H 0.73374 0.83026 0.30544 0.0
H2928 H 0.75018 0.85317 0.30006 0.0
H2929 H 0.7594 0.88563 0.33833 0.0
H2930 H 0.7988 0.95119 0.31222 0.0
H2931 H 0.78994 0.92531 0.31892 0.0
H2932 H 0.75765 0.90258 0.28282 0.0
C2933 C 0.74346 0.85263 0.30991 0.0
C2934 C 0.7589 0.88921 0.32617 0.0
C2935 C 0.73421 0.83951 0.31301 0.0
C2936 C 0.78854 0.94621 0.30611 0.0
C2937 C 0.78346 0.93138 0.30994 0.0
C2938 C 0.75804 0.89906 0.29499 0.0
C2939 C 0.74366 0.86505 0.31917 0.0
C2940 C 0.75183 0.87969 0.31476 0.0
C2941 C 0.7703 0.92443 0.30211 0.0
C2942 C 0.7646 0.90878 0.30643 0.0
H2943 H 0.71868 0.85005 0.34467 0.0
H2944 H 0.73463 0.87311 0.33928 0.0
H2945 H 0.7462 0.87779 0.29 0.0
H2946 H 0.76118 0.95356 0.27738 0.0
H2947 H 0.75207 0.9278 0.28424 0.0
C2948 C 0.67868 0.17431 0.348 0.0
C2949 C 0.69115 0.17559 0.33905 0.0
C2950 C 0.6662 0.1825 0.34365 0.0
C2951 C 0.64742 0.19808 0.30775 0.0
H2952 H 0.62064 0.2134 0.33465 0.0
C2953 C 0.58553 0.20351 0.28798 0.0
C2954 C 0.58012 0.21766 0.28833 0.0
C2955 C 0.59935 0.2005 0.2958 0.0
C2956 C 0.62811 0.20932 0.32701 0.0
H2957 H 0.70101 0.18722 0.3194 0.0
H2958 H 0.67946 0.20169 0.31185 0.0
H2959 H 0.64502 0.20499 0.34566 0.0
H2960 H 0.58478 0.2395 0.29805 0.0
H2961 H 0.60915 0.23404 0.31213 0.0
H2962 H 0.63044 0.20187 0.28924 0.0
C2963 C 0.67906 0.19418 0.32204 0.0
C2964 C 0.642 0.20439 0.33331 0.0
C2965 C 0.69145 0.186 0.32639 0.0
C2966 C 0.58861 0.2285 0.29752 0.0
C2967 C 0.60254 0.22539 0.30556 0.0
C2968 C 0.63356 0.2028 0.30155 0.0
C2969 C 0.666 0.1921 0.33023 0.0
C2970 C 0.65177 0.19856 0.32375 0.0
C2971 C 0.60821 0.21145 0.30438 0.0
C2972 C 0.62363 0.20825 0.3111 0.0
H2973 H 0.67817 0.16624 0.35773 0.0
H2974 H 0.65635 0.18055 0.3502 0.0
H2975 H 0.65447 0.19347 0.30003 0.0
H2976 H 0.57929 0.19476 0.28124 0.0
H2977 H 0.60328 0.18959 0.29487 0.0
C2978 C 0.37028 0.15016 0.37136 0.0
C2979 C 0.37006 0.16377 0.36268 0.0
C2980 C 0.36398 0.13682 0.36485 0.0
C2981 C 0.35021 0.11936 0.32765 0.0
H2982 H 0.32556 0.09267 0.35401 0.0
C2983 C 0.32317 0.06146 0.30818 0.0
C2984 C 0.30824 0.05705 0.31179 0.0
C2985 C 0.33128 0.07417 0.31446 0.0
C2986 C 0.33231 0.10003 0.34645 0.0
H2987 H 0.36372 0.17422 0.34034 0.0
H2988 H 0.3526 0.15089 0.3288 0.0
H2989 H 0.33899 0.11541 0.36434 0.0
H2990 H 0.29019 0.06264 0.32496 0.0
H2991 H 0.30432 0.0848 0.33593 0.0
H2992 H 0.34318 0.10415 0.30963 0.0
C2993 C 0.35773 0.15044 0.34061 0.0
C2994 C 0.34019 0.11299 0.35244 0.0
C2995 C 0.36408 0.16379 0.34715 0.0
C2996 C 0.30172 0.06557 0.32207 0.0
C2997 C 0.30984 0.0783 0.32836 0.0
C2998 C 0.34233 0.10638 0.32165 0.0
C2999 C 0.35728 0.13683 0.3495 0.0
C3000 C 0.34923 0.12284 0.34312 0.0
C3001 C 0.32469 0.08283 0.32455 0.0
C3002 C 0.33324 0.09656 0.33097 0.0
H3003 H 0.37501 0.14994 0.38331 0.0
H3004 H 0.36415 0.12653 0.37193 0.0
H3005 H 0.35713 0.12663 0.32017 0.0
H3006 H 0.32866 0.05503 0.30053 0.0
H3007 H 0.34279 0.07714 0.3115 0.0
C3008 C 0.4081 0.83777 0.34868 0.0
C3009 C 0.39265 0.83264 0.34787 0.0
C3010 C 0.4189 0.8282 0.34594 0.0
C3011 C 0.4263 0.78874 0.34318 0.0
H3012 H 0.45397 0.80535 0.31322 0.0
C3013 C 0.47766 0.75929 0.32622 0.0
C3014 C 0.47977 0.75958 0.31027 0.0
C3015 C 0.46676 0.76743 0.3317 0.0
C3016 C 0.44631 0.80053 0.32157 0.0
H3017 H 0.37641 0.81332 0.34445 0.0
H3018 H 0.39537 0.79636 0.33995 0.0
H3019 H 0.43577 0.82083 0.322 0.0
H3020 H 0.47128 0.76838 0.28762 0.0
H3021 H 0.45275 0.78272 0.29722 0.0
H3022 H 0.43691 0.76837 0.34265 0.0
C3023 C 0.39912 0.80782 0.34265 0.0
C3024 C 0.43597 0.80945 0.32672 0.0
C3025 C 0.38828 0.81748 0.34527 0.0
C3026 C 0.4704 0.76804 0.29999 0.0
C3027 C 0.45966 0.77628 0.30549 0.0
C3028 C 0.43682 0.77984 0.33816 0.0
C3029 C 0.41451 0.81321 0.34247 0.0
C3030 C 0.42579 0.80366 0.33754 0.0
C3031 C 0.4578 0.7762 0.32141 0.0
C3032 C 0.44685 0.78561 0.32718 0.0
H3033 H 0.41172 0.84938 0.35086 0.0
H3034 H 0.43069 0.83264 0.34617 0.0
H3035 H 0.41863 0.78398 0.35155 0.0
H3036 H 0.48461 0.75305 0.3346 0.0
H3037 H 0.46566 0.7672 0.34406 0.0
C3038 C 0.3512 0.88322 0.71415 0.0
C3039 C 0.35601 0.88578 0.69918 0.0
C3040 C 0.34664 0.89489 0.72205 0.0
C3041 C 0.33276 0.93221 0.71765 0.0
H3042 H 0.35121 0.9362 0.75964 0.0
C3043 C 0.32662 0.983 0.75545 0.0
C3044 C 0.32689 0.98006 0.77155 0.0
C3045 C 0.32885 0.97162 0.74564 0.0
C3046 C 0.34569 0.93515 0.74804 0.0
H3047 H 0.35938 0.90241 0.68051 0.0
H3048 H 0.35106 0.92291 0.69422 0.0
H3049 H 0.35733 0.91614 0.74444 0.0
H3050 H 0.32848 0.96281 0.7899 0.0
H3051 H 0.33152 0.94296 0.77293 0.0
H3052 H 0.3209 0.95115 0.7214 0.0
C3053 C 0.35088 0.91185 0.69985 0.0
C3054 C 0.34929 0.92365 0.73929 0.0
C3055 C 0.35563 0.90016 0.69201 0.0
C3056 C 0.32843 0.96543 0.77754 0.0
C3057 C 0.33034 0.95407 0.76779 0.0
C3058 C 0.32898 0.94369 0.72651 0.0
C3059 C 0.3466 0.90939 0.71507 0.0
C3060 C 0.3428 0.92194 0.72405 0.0
C3061 C 0.33118 0.95708 0.75178 0.0
C3062 C 0.33528 0.94521 0.74192 0.0
H3063 H 0.35113 0.87217 0.71979 0.0
H3064 H 0.34319 0.8926 0.73367 0.0
H3065 H 0.32757 0.93115 0.70591 0.0
H3066 H 0.32554 0.99423 0.75058 0.0
H3067 H 0.32943 0.97438 0.73338 0.0
C3068 C 0.6573 0.82691 0.68994 0.0
C3069 C 0.65492 0.83321 0.67489 0.0
C3070 C 0.64608 0.81699 0.69618 0.0
C3071 C 0.60478 0.80573 0.6916 0.0
H3072 H 0.61589 0.77377 0.721 0.0
C3073 C 0.56048 0.76797 0.72515 0.0
C3074 C 0.56402 0.76833 0.74126 0.0
C3075 C 0.57142 0.77331 0.71498 0.0
C3076 C 0.61261 0.78259 0.71273 0.0
H3077 H 0.63931 0.83409 0.65437 0.0
H3078 H 0.61965 0.81642 0.66507 0.0
H3079 H 0.63537 0.78826 0.70695 0.0
H3080 H 0.58186 0.77365 0.75939 0.0
H3081 H 0.60092 0.78252 0.74177 0.0
H3082 H 0.582 0.8001 0.69763 0.0
C3083 C 0.63004 0.81929 0.67222 0.0
C3084 C 0.62378 0.79098 0.70476 0.0
C3085 C 0.64127 0.8293 0.66603 0.0
C3086 C 0.57882 0.7733 0.74701 0.0
C3087 C 0.58976 0.7783 0.73692 0.0
C3088 C 0.59357 0.79722 0.69948 0.0
C3089 C 0.63226 0.81306 0.68743 0.0
C3090 C 0.6201 0.80296 0.69443 0.0
C3091 C 0.58612 0.7787 0.72081 0.0
C3092 C 0.59744 0.78585 0.71046 0.0
H3093 H 0.6678 0.82985 0.69689 0.0
H3094 H 0.64813 0.81268 0.70802 0.0
H3095 H 0.6015 0.81493 0.68385 0.0
H3096 H 0.54911 0.76427 0.72046 0.0
H3097 H 0.56834 0.77347 0.70259 0.0
C3098 C 0.38459 0.20764 0.69793 0.0
C3099 C 0.38185 0.19416 0.69034 0.0
C3100 C 0.39918 0.2125 0.70408 0.0
C3101 C 0.43706 0.19962 0.71569 0.0
H3102 H 0.45041 0.24191 0.71098 0.0
C3103 C 0.49909 0.22261 0.73091 0.0
C3104 C 0.50123 0.23509 0.74023 0.0
C3105 C 0.48474 0.21797 0.72394 0.0
C3106 C 0.44681 0.23009 0.71245 0.0
H3107 H 0.39187 0.17501 0.6833 0.0
H3108 H 0.41757 0.18348 0.69389 0.0
H3109 H 0.42482 0.23273 0.70114 0.0
H3110 H 0.49007 0.25288 0.74895 0.0
H3111 H 0.46505 0.24483 0.73667 0.0
H3112 H 0.45913 0.197 0.7269 0.0
C3113 C 0.40846 0.19025 0.69534 0.0
C3114 C 0.43213 0.22482 0.70689 0.0
C3115 C 0.39381 0.18538 0.68927 0.0
C3116 C 0.48882 0.24322 0.74185 0.0
C3117 C 0.47449 0.23863 0.73479 0.0
C3118 C 0.45177 0.20488 0.72117 0.0
C3119 C 0.41136 0.20397 0.70266 0.0
C3120 C 0.42703 0.20953 0.70851 0.0
C3121 C 0.47223 0.22578 0.72603 0.0
C3122 C 0.45679 0.22017 0.71966 0.0
H3123 H 0.3754 0.21446 0.69894 0.0
H3124 H 0.40092 0.22295 0.70992 0.0
H3125 H 0.43346 0.18782 0.71734 0.0
H3126 H 0.5084 0.21611 0.72939 0.0
H3127 H 0.48338 0.20815 0.71706 0.0
C3128 C 0.69668 0.68672 0.13938 0.0
C3129 C 0.70247 0.69178 0.15394 0.0
C3130 C 0.70289 0.69285 0.12589 0.0
C3131 C 0.73652 0.7139 0.11072 0.0
H3132 H 0.70794 0.72816 0.0782 0.0
C3133 C 0.75676 0.75045 0.05794 0.0
C3134 C 0.74831 0.74893 0.04351 0.0
C3135 C 0.75137 0.74332 0.07142 0.0
C3136 C 0.71613 0.72404 0.08698 0.0
H3137 H 0.71923 0.70694 0.16607 0.0
H3138 H 0.73055 0.71742 0.14251 0.0
H3139 H 0.69869 0.71515 0.10135 0.0
H3140 H 0.72771 0.73847 0.03191 0.0
H3141 H 0.7185 0.72567 0.05518 0.0
H3142 H 0.75398 0.72241 0.0963 0.0
C3143 C 0.72125 0.70871 0.14146 0.0
C3144 C 0.71078 0.7166 0.10031 0.0
C3145 C 0.71485 0.70272 0.15491 0.0
C3146 C 0.73436 0.74008 0.04288 0.0
C3147 C 0.72907 0.73276 0.0563 0.0
C3148 C 0.74189 0.72113 0.09727 0.0
C3149 C 0.71512 0.70408 0.12676 0.0
C3150 C 0.72091 0.7115 0.11237 0.0
C3151 C 0.73747 0.73426 0.07082 0.0
C3152 C 0.73178 0.72639 0.08519 0.0
H3153 H 0.68697 0.67845 0.13846 0.0
H3154 H 0.69798 0.689 0.11475 0.0
H3155 H 0.7446 0.71001 0.11978 0.0
H3156 H 0.76749 0.7573 0.0588 0.0
H3157 H 0.75808 0.74506 0.08234 0.0
C3158 C 0.31939 0.69633 0.14487 0.0
C3159 C 0.32607 0.68285 0.14532 0.0
C3160 C 0.31115 0.70125 0.13141 0.0
C3161 C 0.29154 0.70889 0.10238 0.0
H3162 H 0.31305 0.70544 0.06604 0.0
C3163 C 0.2814 0.74657 0.0469 0.0
C3164 C 0.29504 0.75398 0.0423 0.0
C3165 C 0.2816 0.73411 0.05737 0.0
C3166 C 0.3068 0.70639 0.07603 0.0
H3167 H 0.32866 0.66339 0.1326 0.0
H3168 H 0.31386 0.67171 0.10907 0.0
H3169 H 0.31933 0.69051 0.08949 0.0
H3170 H 0.31946 0.75367 0.04426 0.0
H3171 H 0.31982 0.73218 0.06234 0.0
H3172 H 0.2799 0.72573 0.08918 0.0
C3173 C 0.31521 0.67868 0.11899 0.0
C3174 C 0.31028 0.6977 0.08947 0.0
C3175 C 0.32355 0.67383 0.13247 0.0
C3176 C 0.30876 0.74826 0.04766 0.0
C3177 C 0.30895 0.73581 0.05793 0.0
C3178 C 0.28812 0.71767 0.08893 0.0
C3179 C 0.30934 0.69269 0.11812 0.0
C3180 C 0.30317 0.69932 0.10304 0.0
C3181 C 0.29543 0.72878 0.06319 0.0
C3182 C 0.29623 0.717 0.07586 0.0
H3183 H 0.32113 0.70336 0.15474 0.0
H3184 H 0.30699 0.71217 0.13117 0.0
H3185 H 0.28561 0.71018 0.11252 0.0
H3186 H 0.27066 0.75076 0.04294 0.0
H3187 H 0.271 0.72888 0.06119 0.0
C3188 C 0.395 0.32521 0.16537 0.0
C3189 C 0.38489 0.32506 0.17688 0.0
C3190 C 0.39136 0.31645 0.15239 0.0
C3191 C 0.36327 0.28623 0.13549 0.0
H3192 H 0.37065 0.30816 0.09675 0.0
C3193 C 0.33742 0.26466 0.07544 0.0
C3194 C 0.33053 0.27563 0.06585 0.0
C3195 C 0.34687 0.26874 0.08878 0.0
C3196 C 0.36851 0.30183 0.10745 0.0
H3197 H 0.36371 0.31486 0.18458 0.0
H3198 H 0.35709 0.29982 0.16194 0.0
H3199 H 0.38186 0.31824 0.12104 0.0
H3200 H 0.32868 0.29947 0.06242 0.0
H3201 H 0.34493 0.30647 0.0853 0.0
H3202 H 0.34916 0.27024 0.1218 0.0
C3203 C 0.3679 0.30653 0.1628 0.0
C3204 C 0.37513 0.30754 0.12144 0.0
C3205 C 0.3716 0.31524 0.17575 0.0
C3206 C 0.33375 0.29071 0.06954 0.0
C3207 C 0.34322 0.29476 0.08266 0.0
C3208 C 0.35661 0.28052 0.12146 0.0
C3209 C 0.37749 0.30737 0.15066 0.0
C3210 C 0.37228 0.30005 0.13572 0.0
C3211 C 0.34976 0.28386 0.09261 0.0
C3212 C 0.35878 0.28849 0.10728 0.0
H3213 H 0.40531 0.33272 0.166 0.0
H3214 H 0.39918 0.31719 0.14346 0.0
H3215 H 0.361 0.27999 0.14621 0.0
H3216 H 0.3351 0.25294 0.07295 0.0
H3217 H 0.35178 0.26006 0.09615 0.0
C3218 C 0.71825 0.37399 0.14103 0.0
C3219 C 0.72142 0.36417 0.15376 0.0
C3220 C 0.7257 0.37355 0.12753 0.0
C3221 C 0.75692 0.35679 0.1104 0.0
H3222 H 0.72885 0.35609 0.07348 0.0
C3223 C 0.77469 0.3439 0.04997 0.0
C3224 C 0.76438 0.33418 0.04109 0.0
C3225 C 0.77054 0.34976 0.06345 0.0
C3226 C 0.73685 0.35622 0.08367 0.0
H3227 H 0.73508 0.34665 0.16277 0.0
H3228 H 0.74818 0.34579 0.13931 0.0
H3229 H 0.7206 0.36304 0.09783 0.0
H3230 H 0.74158 0.32297 0.0397 0.0
H3231 H 0.73439 0.33314 0.06301 0.0
H3232 H 0.77295 0.34926 0.0963 0.0
C3233 C 0.74021 0.35406 0.13969 0.0
C3234 C 0.73219 0.36044 0.09763 0.0
C3235 C 0.73278 0.35455 0.15317 0.0
C3236 C 0.74977 0.33061 0.04601 0.0
C3237 C 0.74562 0.33647 0.05943 0.0
C3238 C 0.7616 0.35256 0.09641 0.0
C3239 C 0.73635 0.36316 0.12647 0.0
C3240 C 0.74206 0.36052 0.11127 0.0
C3241 C 0.75595 0.3461 0.06837 0.0
C3242 C 0.75151 0.35192 0.08293 0.0
H3243 H 0.70925 0.3812 0.14114 0.0
H3244 H 0.72258 0.38087 0.11766 0.0
H3245 H 0.76488 0.35686 0.12063 0.0
H3246 H 0.78597 0.34709 0.04648 0.0
H3247 H 0.77873 0.35728 0.06994 0.0
C3248 C 0.71057 0.37953 0.86959 0.0
C3249 C 0.70781 0.36975 0.85739 0.0
C3250 C 0.72118 0.37666 0.88202 0.0
C3251 C 0.73994 0.34563 0.90223 0.0
H3252 H 0.76728 0.37719 0.92108 0.0
C3253 C 0.78454 0.33197 0.95132 0.0
C3254 C 0.78584 0.34092 0.96426 0.0
C3255 C 0.77657 0.33638 0.93751 0.0
C3256 C 0.75964 0.36828 0.916 0.0
H3257 H 0.71409 0.34965 0.84817 0.0
H3258 H 0.73266 0.34447 0.86992 0.0
H3259 H 0.75017 0.38313 0.89838 0.0
H3260 H 0.78041 0.36185 0.97261 0.0
H3261 H 0.76626 0.36947 0.94849 0.0
H3262 H 0.74914 0.33082 0.91988 0.0
C3263 C 0.72651 0.35426 0.87005 0.0
C3264 C 0.74985 0.37168 0.90301 0.0
C3265 C 0.71593 0.35717 0.85764 0.0
C3266 C 0.77961 0.35472 0.96284 0.0
C3267 C 0.77154 0.35911 0.949 0.0
C3268 C 0.74968 0.34225 0.91518 0.0
C3269 C 0.72918 0.36391 0.88245 0.0
C3270 C 0.73987 0.36039 0.89601 0.0
C3271 C 0.76962 0.34979 0.93631 0.0
C3272 C 0.75964 0.35352 0.92224 0.0
H3273 H 0.70434 0.38926 0.86959 0.0
H3274 H 0.72285 0.38421 0.89147 0.0
H3275 H 0.73219 0.33672 0.89729 0.0
H3276 H 0.78938 0.32135 0.95197 0.0
H3277 H 0.7756 0.32911 0.92783 0.0
C3278 C 0.70489 0.67177 0.8776 0.0
C3279 C 0.71006 0.67674 0.86325 0.0
C3280 C 0.71109 0.67855 0.89122 0.0
C3281 C 0.73582 0.71161 0.90637 0.0
H3282 H 0.74421 0.6843 0.9416 0.0
C3283 C 0.77475 0.73049 0.96028 0.0
C3284 C 0.76953 0.72606 0.97484 0.0
C3285 C 0.76769 0.7242 0.94673 0.0
C3286 C 0.74185 0.69211 0.93193 0.0
H3287 H 0.7255 0.69265 0.85163 0.0
H3288 H 0.73644 0.70463 0.87533 0.0
H3289 H 0.73047 0.67478 0.91801 0.0
H3290 H 0.75317 0.71098 0.98651 0.0
H3291 H 0.74096 0.69996 0.96294 0.0
H3292 H 0.74737 0.72891 0.92029 0.0
C3293 C 0.72738 0.69573 0.87619 0.0
C3294 C 0.73388 0.68666 0.91839 0.0
C3295 C 0.7211 0.68896 0.8626 0.0
C3296 C 0.75753 0.71466 0.97553 0.0
C3297 C 0.75052 0.70831 0.96199 0.0
C3298 C 0.74384 0.71705 0.9199 0.0
C3299 C 0.72276 0.69034 0.89076 0.0
C3300 C 0.73074 0.69633 0.9054 0.0
C3301 C 0.75528 0.71324 0.94737 0.0
C3302 C 0.74698 0.70736 0.93286 0.0
H3303 H 0.69662 0.66212 0.87833 0.0
H3304 H 0.70705 0.67424 0.90216 0.0
H3305 H 0.73347 0.71944 0.89672 0.0
H3306 H 0.78394 0.73925 0.95927 0.0
H3307 H 0.77182 0.72807 0.93569 0.0
C3308 C 0.34702 0.71311 0.87752 0.0
C3309 C 0.36107 0.70715 0.87971 0.0
C3310 C 0.3424 0.72188 0.88875 0.0
C3311 C 0.35721 0.74522 0.92164 0.0
H3312 H 0.316 0.73891 0.93337 0.0
C3313 C 0.33847 0.77288 0.9746 0.0
C3314 C 0.32376 0.77744 0.9737 0.0
C3315 C 0.34303 0.7647 0.96285 0.0
C3316 C 0.32749 0.74101 0.93009 0.0
H3317 H 0.38122 0.70548 0.89537 0.0
H3318 H 0.37331 0.72096 0.91496 0.0
H3319 H 0.32384 0.72397 0.91344 0.0
H3320 H 0.30246 0.77731 0.95946 0.0
H3321 H 0.31043 0.76328 0.93886 0.0
H3322 H 0.36087 0.76233 0.93815 0.0
C3323 C 0.36589 0.71899 0.90451 0.0
C3324 C 0.332 0.73239 0.91867 0.0
C3325 C 0.37043 0.71014 0.89333 0.0
C3326 C 0.31379 0.77379 0.96063 0.0
C3327 C 0.31837 0.76569 0.94883 0.0
C3328 C 0.35269 0.7539 0.93299 0.0
C3329 C 0.3518 0.72497 0.90237 0.0
C3330 C 0.34693 0.73434 0.91435 0.0
C3331 C 0.33302 0.76092 0.94981 0.0
C3332 C 0.33778 0.75188 0.93744 0.0
H3333 H 0.33969 0.71108 0.86703 0.0
H3334 H 0.33156 0.72644 0.88665 0.0
H3335 H 0.36874 0.74717 0.91842 0.0
H3336 H 0.34637 0.77529 0.98459 0.0
H3337 H 0.3543 0.76104 0.96419 0.0
C3338 C 0.36399 0.32761 0.8729 0.0
C3339 C 0.37861 0.33512 0.8737 0.0
C3340 C 0.35818 0.32049 0.88615 0.0
C3341 C 0.36261 0.32296 0.92867 0.0
H3342 H 0.3342 0.28733 0.92778 0.0
C3343 C 0.32263 0.30709 0.97733 0.0
C3344 C 0.31993 0.29189 0.98198 0.0
C3345 C 0.33069 0.31146 0.96441 0.0
C3346 C 0.34222 0.29722 0.92831 0.0
H3347 H 0.39895 0.34049 0.88866 0.0
H3348 H 0.38897 0.32778 0.91193 0.0
H3349 H 0.34738 0.29542 0.90485 0.0
H3350 H 0.3235 0.26937 0.97636 0.0
H3351 H 0.3377 0.27698 0.95406 0.0
H3352 H 0.35748 0.32475 0.95213 0.0
C3353 C 0.38187 0.32756 0.9011 0.0
C3354 C 0.34969 0.30193 0.91509 0.0
C3355 C 0.38769 0.33464 0.88778 0.0
C3356 C 0.32548 0.28118 0.97329 0.0
C3357 C 0.33351 0.28554 0.96035 0.0
C3358 C 0.35512 0.31826 0.94187 0.0
C3359 C 0.36687 0.32075 0.90055 0.0
C3360 C 0.35988 0.31496 0.91502 0.0
C3361 C 0.33624 0.30075 0.95573 0.0
C3362 C 0.34469 0.30541 0.94184 0.0
H3363 H 0.3568 0.32793 0.86214 0.0
H3364 H 0.34657 0.3155 0.88525 0.0
H3365 H 0.37022 0.33313 0.92903 0.0
H3366 H 0.31865 0.31567 0.98376 0.0
H3367 H 0.3324 0.32326 0.9611 0.0
C3368 C 0.65231 0.67895 0.1947 0.0
C3369 C 0.6645 0.68987 0.19276 0.0
C3370 C 0.64019 0.68191 0.2029 0.0
C3371 C 0.62095 0.71293 0.21628 0.0
H3372 H 0.6037 0.68219 0.24441 0.0
C3373 C 0.57524 0.72475 0.25622 0.0
C3374 C 0.56328 0.71354 0.25827 0.0
C3375 C 0.58785 0.72186 0.24872 0.0
C3376 C 0.60824 0.69086 0.23648 0.0
H3377 H 0.67362 0.71242 0.19787 0.0
H3378 H 0.6524 0.71774 0.21216 0.0
H3379 H 0.62499 0.67728 0.23028 0.0
H3380 H 0.55535 0.69043 0.25398 0.0
H3381 H 0.57723 0.6854 0.24085 0.0
H3382 H 0.60413 0.72647 0.22234 0.0
C3383 C 0.65211 0.70689 0.20724 0.0
C3384 C 0.62049 0.68804 0.22837 0.0
C3385 C 0.66427 0.70388 0.19907 0.0
C3386 C 0.5644 0.69928 0.25282 0.0
C3387 C 0.577 0.6964 0.24527 0.0
C3388 C 0.60867 0.71574 0.22435 0.0
C3389 C 0.63993 0.69592 0.20932 0.0
C3390 C 0.62699 0.69902 0.21812 0.0
C3391 C 0.58886 0.70768 0.24301 0.0
C3392 C 0.60211 0.70473 0.23456 0.0
H3393 H 0.65214 0.66814 0.18975 0.0
H3394 H 0.63091 0.67328 0.20404 0.0
H3395 H 0.62551 0.72158 0.20833 0.0
H3396 H 0.57491 0.73579 0.26049 0.0
H3397 H 0.59687 0.73075 0.24751 0.0
C3398 C 0.35632 0.64141 0.18494 0.0
C3399 C 0.35253 0.65529 0.18914 0.0
C3400 C 0.35901 0.63012 0.1963 0.0
C3401 C 0.34685 0.61562 0.23281 0.0
H3402 H 0.38261 0.59396 0.23707 0.0
C3403 C 0.35051 0.5655 0.27649 0.0
C3404 C 0.35725 0.55321 0.27194 0.0
C3405 C 0.35211 0.57924 0.26816 0.0
C3406 C 0.37245 0.59974 0.23593 0.0
H3407 H 0.34875 0.66859 0.20815 0.0
H3408 H 0.35295 0.64859 0.22818 0.0
H3409 H 0.38124 0.61541 0.21861 0.0
H3410 H 0.37115 0.54555 0.25539 0.0
H3411 H 0.37342 0.56922 0.24033 0.0
H3412 H 0.3375 0.5996 0.24921 0.0
C3413 C 0.35406 0.64652 0.21616 0.0
C3414 C 0.37176 0.61209 0.22544 0.0
C3415 C 0.35169 0.6579 0.20481 0.0
C3416 C 0.36603 0.55497 0.25922 0.0
C3417 C 0.36734 0.56859 0.25063 0.0
C3418 C 0.34738 0.60309 0.24303 0.0
C3419 C 0.35764 0.63251 0.21197 0.0
C3420 C 0.35892 0.62006 0.22374 0.0
C3421 C 0.36015 0.58086 0.2548 0.0
C3422 C 0.36014 0.59487 0.24469 0.0
H3423 H 0.35702 0.63931 0.17286 0.0
H3424 H 0.36165 0.61937 0.19281 0.0
H3425 H 0.33675 0.6215 0.23155 0.0
H3426 H 0.34377 0.56436 0.28635 0.0
H3427 H 0.34677 0.58847 0.27206 0.0
C3428 C 0.41011 0.31518 0.20615 0.0
C3429 C 0.41203 0.33023 0.20091 0.0
C3430 C 0.42274 0.30742 0.21103 0.0
C3431 C 0.46448 0.30875 0.20909 0.0
H3432 H 0.46281 0.28239 0.24597 0.0
C3433 C 0.50886 0.26722 0.22625 0.0
C3434 C 0.51347 0.2643 0.24198 0.0
C3435 C 0.49732 0.27639 0.22184 0.0
C3436 C 0.46354 0.28985 0.23577 0.0
H3437 H 0.42846 0.34881 0.19596 0.0
H3438 H 0.45054 0.33543 0.20447 0.0
H3439 H 0.44079 0.29549 0.23648 0.0
H3440 H 0.50977 0.26907 0.26547 0.0
H3441 H 0.48944 0.2853 0.25774 0.0
H3442 H 0.48723 0.30325 0.20842 0.0
C3443 C 0.43937 0.32949 0.20483 0.0
C3444 C 0.45081 0.29719 0.23017 0.0
C3445 C 0.42675 0.33721 0.2 0.0
C3446 C 0.50655 0.27121 0.25326 0.0
C3447 C 0.49481 0.28035 0.24882 0.0
C3448 C 0.47716 0.30141 0.21465 0.0
C3449 C 0.43756 0.31457 0.2107 0.0
C3450 C 0.45108 0.30667 0.21668 0.0
C3451 C 0.48993 0.2829 0.23302 0.0
C3452 C 0.47684 0.29174 0.22798 0.0
H3453 H 0.39883 0.30964 0.20704 0.0
H3454 H 0.4209 0.29587 0.21522 0.0
H3455 H 0.46513 0.31586 0.19863 0.0
H3456 H 0.51394 0.26209 0.21724 0.0
H3457 H 0.49381 0.2779 0.2096 0.0
C3458 C 0.72959 0.38343 0.19443 0.0
C3459 C 0.71901 0.38316 0.18143 0.0
C3460 C 0.73642 0.39705 0.19994 0.0
C3461 C 0.73033 0.43753 0.1982 0.0
H3462 H 0.77128 0.442 0.21793 0.0
C3463 C 0.76397 0.49454 0.21057 0.0
C3464 C 0.77324 0.49596 0.22451 0.0
C3465 C 0.75618 0.48079 0.20674 0.0
C3466 C 0.75974 0.44086 0.21266 0.0
H3467 H 0.70757 0.39665 0.16361 0.0
H3468 H 0.72002 0.42052 0.1726 0.0
H3469 H 0.76119 0.41814 0.20723 0.0
H3470 H 0.7813 0.4842 0.24564 0.0
H3471 H 0.76772 0.45996 0.23888 0.0
H3472 H 0.72913 0.46043 0.20323 0.0
C3473 C 0.72281 0.41029 0.17891 0.0
C3474 C 0.75394 0.42717 0.20648 0.0
C3475 C 0.71587 0.39665 0.17354 0.0
C3476 C 0.77405 0.48347 0.23492 0.0
C3477 C 0.76644 0.46958 0.23096 0.0
C3478 C 0.7362 0.45124 0.20422 0.0
C3479 C 0.73288 0.41072 0.19245 0.0
C3480 C 0.73917 0.42532 0.19906 0.0
C3481 C 0.75769 0.46804 0.21666 0.0
C3482 C 0.751 0.4531 0.21145 0.0
H3483 H 0.73197 0.37308 0.20075 0.0
H3484 H 0.74396 0.39684 0.21046 0.0
H3485 H 0.71879 0.4365 0.19296 0.0
H3486 H 0.76324 0.50397 0.20228 0.0
H3487 H 0.74963 0.47998 0.19561 0.0
C3488 C 0.64962 0.37102 0.81845 0.0
C3489 C 0.66291 0.36378 0.81923 0.0
C3490 C 0.63619 0.36453 0.81091 0.0
C3491 C 0.62106 0.33596 0.78292 0.0
H3492 H 0.58539 0.33284 0.80585 0.0
C3493 C 0.57146 0.29069 0.77255 0.0
C3494 C 0.55671 0.29372 0.77505 0.0
C3495 C 0.58372 0.30143 0.7753 0.0
C3496 C 0.59512 0.33387 0.79909 0.0
H3497 H 0.67293 0.34451 0.81249 0.0
H3498 H 0.64948 0.33301 0.79932 0.0
H3499 H 0.60829 0.34767 0.81568 0.0
H3500 H 0.54318 0.31077 0.78148 0.0
H3501 H 0.56461 0.32964 0.78606 0.0
H3502 H 0.60799 0.32192 0.76648 0.0
C3503 C 0.64937 0.34373 0.80442 0.0
C3504 C 0.60827 0.34235 0.80476 0.0
C3505 C 0.66273 0.35018 0.81204 0.0
C3506 C 0.55441 0.30804 0.77954 0.0
C3507 C 0.5667 0.31882 0.78226 0.0
C3508 C 0.60788 0.32754 0.77719 0.0
C3509 C 0.6359 0.35074 0.80393 0.0
C3510 C 0.62149 0.3432 0.79693 0.0
C3511 C 0.58155 0.31551 0.78055 0.0
C3512 C 0.59486 0.32609 0.78541 0.0
H3513 H 0.64958 0.38151 0.824 0.0
H3514 H 0.62602 0.37023 0.81064 0.0
H3515 H 0.63101 0.33661 0.7765 0.0
H3516 H 0.57366 0.27979 0.76906 0.0
H3517 H 0.59498 0.2984 0.77401 0.0
C3518 C 0.73153 0.64459 0.8192 0.0
C3519 C 0.71683 0.64105 0.82371 0.0
C3520 C 0.73863 0.63422 0.81166 0.0
C3521 C 0.73755 0.59353 0.80588 0.0
H3522 H 0.76549 0.60713 0.77512 0.0
C3523 C 0.77347 0.55306 0.77806 0.0
C3524 C 0.789 0.55798 0.77913 0.0
C3525 C 0.7628 0.56286 0.78092 0.0
C3526 C 0.75769 0.60314 0.78366 0.0
H3527 H 0.69799 0.62397 0.82407 0.0
H3528 H 0.71019 0.6058 0.81054 0.0
H3529 H 0.7503 0.62487 0.78517 0.0
H3530 H 0.80546 0.5771 0.78318 0.0
H3531 H 0.78699 0.59414 0.78778 0.0
H3532 H 0.74519 0.5718 0.80446 0.0
C3533 C 0.71634 0.61655 0.8129 0.0
C3534 C 0.74903 0.61333 0.78951 0.0
C3535 C 0.70928 0.62696 0.82049 0.0
C3536 C 0.79356 0.57299 0.7823 0.0
C3537 C 0.78296 0.58279 0.78486 0.0
C3538 C 0.74617 0.58329 0.79994 0.0
C3539 C 0.73117 0.62001 0.80845 0.0
C3540 C 0.73913 0.60877 0.801 0.0
C3541 C 0.76747 0.5778 0.78455 0.0
C3542 C 0.75663 0.58806 0.78905 0.0
H3543 H 0.73757 0.65537 0.8217 0.0
H3544 H 0.75013 0.63724 0.80872 0.0
H3545 H 0.73016 0.58959 0.81479 0.0
H3546 H 0.76967 0.5415 0.77577 0.0
H3547 H 0.75093 0.55872 0.78053 0.0
C3548 C 0.40548 0.68251 0.84885 0.0
C3549 C 0.39183 0.68726 0.84202 0.0
C3550 C 0.41815 0.68319 0.84033 0.0
C3551 C 0.43121 0.69048 0.80031 0.0
H3552 H 0.4692 0.70301 0.82358 0.0
C3553 C 0.48526 0.71883 0.77345 0.0
C3554 C 0.49939 0.71499 0.78029 0.0
C3555 C 0.47179 0.71277 0.77954 0.0
C3556 C 0.45874 0.6993 0.81692 0.0
H3557 H 0.38036 0.69616 0.82106 0.0
H3558 H 0.4026 0.69791 0.80613 0.0
H3559 H 0.44644 0.69756 0.83703 0.0
H3560 H 0.51028 0.70092 0.7982 0.0
H3561 H 0.48686 0.69045 0.80878 0.0
H3562 H 0.44365 0.69301 0.78006 0.0
C3563 C 0.40356 0.69321 0.8179 0.0
C3564 C 0.44562 0.69609 0.82466 0.0
C3565 C 0.39081 0.69227 0.8264 0.0
C3566 C 0.49965 0.70422 0.79269 0.0
C3567 C 0.48622 0.69827 0.79883 0.0
C3568 C 0.44435 0.6939 0.79252 0.0
C3569 C 0.41754 0.68901 0.82487 0.0
C3570 C 0.43162 0.69166 0.8165 0.0
C3571 C 0.47218 0.70284 0.79265 0.0
C3572 C 0.45826 0.69837 0.80076 0.0
H3573 H 0.40641 0.67867 0.86093 0.0
H3574 H 0.42853 0.67946 0.84603 0.0
H3575 H 0.42073 0.68693 0.79361 0.0
H3576 H 0.48462 0.72707 0.76388 0.0
H3577 H 0.46116 0.71654 0.77454 0.0
C3578 C 0.39105 0.39093 0.83496 0.0
C3579 C 0.38038 0.37835 0.83542 0.0
C3580 C 0.38759 0.40395 0.82632 0.0
C3581 C 0.36117 0.41779 0.79427 0.0
H3582 H 0.37441 0.45655 0.81088 0.0
C3583 C 0.33927 0.47272 0.76723 0.0
C3584 C 0.34959 0.48562 0.76667 0.0
C3585 C 0.34344 0.45954 0.77508 0.0
C3586 C 0.37079 0.44583 0.80597 0.0
H3587 H 0.3578 0.36942 0.82728 0.0
H3588 H 0.35152 0.39223 0.81239 0.0
H3589 H 0.38072 0.43388 0.82572 0.0
H3590 H 0.3725 0.49463 0.77388 0.0
H3591 H 0.37984 0.4716 0.78741 0.0
H3592 H 0.35113 0.42977 0.77457 0.0
C3593 C 0.36267 0.39204 0.8185 0.0
C3594 C 0.37441 0.4328 0.81449 0.0
C3595 C 0.36616 0.37902 0.82713 0.0
C3596 C 0.36429 0.48491 0.77396 0.0
C3597 C 0.36844 0.47173 0.78188 0.0
C3598 C 0.35753 0.43082 0.78576 0.0
C3599 C 0.37334 0.40469 0.81796 0.0
C3600 C 0.36962 0.41859 0.80879 0.0
C3601 C 0.35804 0.45891 0.78264 0.0
C3602 C 0.36225 0.44502 0.79151 0.0
H3603 H 0.40205 0.39067 0.84135 0.0
H3604 H 0.39616 0.41337 0.82606 0.0
H3605 H 0.35751 0.40707 0.78936 0.0
H3606 H 0.32792 0.47279 0.7616 0.0
H3607 H 0.33508 0.44994 0.77551 0.0
C3608 C 0.70081 0.64881 0.17441 0.0
C3609 C 0.70622 0.66399 0.17511 0.0
C3610 C 0.71084 0.63773 0.17601 0.0
C3611 C 0.7504 0.62968 0.17446 0.0
H3612 H 0.74041 0.59875 0.20583 0.0
C3613 C 0.79223 0.58624 0.19782 0.0
C3614 C 0.78614 0.57189 0.20266 0.0
C3615 C 0.78272 0.59752 0.19331 0.0
C3616 C 0.7433 0.60708 0.19681 0.0
H3617 H 0.72633 0.67957 0.17721 0.0
H3618 H 0.74407 0.66015 0.17958 0.0
H3619 H 0.72352 0.61814 0.19921 0.0
H3620 H 0.76533 0.5579 0.20582 0.0
H3621 H 0.74872 0.57724 0.19743 0.0
H3622 H 0.77007 0.61846 0.17183 0.0
C3623 C 0.73203 0.65684 0.17788 0.0
C3624 C 0.7336 0.61827 0.19307 0.0
C3625 C 0.72192 0.66795 0.17644 0.0
C3626 C 0.77035 0.56892 0.20239 0.0
C3627 C 0.76084 0.58009 0.19766 0.0
C3628 C 0.76005 0.61832 0.17804 0.0
C3629 C 0.72656 0.64159 0.17818 0.0
C3630 C 0.737 0.62969 0.18185 0.0
C3631 C 0.76686 0.59466 0.19332 0.0
C3632 C 0.75663 0.60682 0.18928 0.0
H3633 H 0.68874 0.64553 0.17323 0.0
H3634 H 0.70628 0.6261 0.17593 0.0
H3635 H 0.75329 0.63831 0.16572 0.0
H3636 H 0.80437 0.58888 0.19805 0.0
H3637 H 0.78786 0.60858 0.19026 0.0
C3638 C 0.7231 0.39575 0.83647 0.0
C3639 C 0.70777 0.39786 0.83699 0.0
C3640 C 0.73413 0.40794 0.83719 0.0
C3641 C 0.7388 0.44794 0.8277 0.0
H3642 H 0.7774 0.44701 0.8522 0.0
C3643 C 0.78377 0.49743 0.82313 0.0
C3644 C 0.79855 0.49388 0.82179 0.0
C3645 C 0.77286 0.4866 0.82842 0.0
C3646 C 0.76672 0.44742 0.84522 0.0
H3647 H 0.69186 0.41411 0.83906 0.0
H3648 H 0.71112 0.43563 0.83993 0.0
H3649 H 0.75787 0.42605 0.85451 0.0
H3650 H 0.81382 0.47658 0.82556 0.0
H3651 H 0.79468 0.45737 0.83435 0.0
H3652 H 0.74768 0.46884 0.81781 0.0
C3653 C 0.71462 0.42455 0.83896 0.0
C3654 C 0.75554 0.43543 0.84658 0.0
C3655 C 0.70362 0.41232 0.8384 0.0
C3656 C 0.80251 0.47957 0.82669 0.0
C3657 C 0.79151 0.4686 0.83172 0.0
C3658 C 0.75 0.45982 0.82621 0.0
C3659 C 0.72998 0.42249 0.83827 0.0
C3660 C 0.74152 0.43554 0.83773 0.0
C3661 C 0.77641 0.47185 0.83213 0.0
C3662 C 0.76416 0.45969 0.83484 0.0
H3663 H 0.72649 0.38468 0.83522 0.0
H3664 H 0.74585 0.40605 0.83642 0.0
H3665 H 0.7282 0.44822 0.82054 0.0
H3666 H 0.78056 0.50847 0.81948 0.0
H3667 H 0.76148 0.48965 0.82902 0.0
C3668 C 0.68259 0.68926 0.82478 0.0
C3669 C 0.6843 0.67928 0.8377 0.0
C3670 C 0.67009 0.69764 0.82254 0.0
C3671 C 0.63073 0.69714 0.83372 0.0
H3672 H 0.63273 0.73634 0.81261 0.0
C3673 C 0.57813 0.73076 0.82189 0.0
C3674 C 0.57593 0.73764 0.80699 0.0
C3675 C 0.59169 0.72454 0.82676 0.0
C3676 C 0.63195 0.72536 0.81843 0.0
H3677 H 0.67469 0.67065 0.85875 0.0
H3678 H 0.65301 0.68564 0.85523 0.0
H3679 H 0.65596 0.72443 0.81966 0.0
H3680 H 0.58656 0.74372 0.78571 0.0
H3681 H 0.61014 0.73286 0.79415 0.0
H3682 H 0.60669 0.6981 0.83245 0.0
C3683 C 0.66114 0.6868 0.84659 0.0
C3684 C 0.6453 0.71849 0.82248 0.0
C3685 C 0.67366 0.67837 0.84877 0.0
C3686 C 0.58777 0.73837 0.79719 0.0
C3687 C 0.60137 0.73227 0.80211 0.0
C3688 C 0.61739 0.70406 0.82976 0.0
C3689 C 0.65898 0.69631 0.83324 0.0
C3690 C 0.64488 0.70418 0.83001 0.0
C3691 C 0.60349 0.72517 0.81692 0.0
C3692 C 0.6178 0.71818 0.82189 0.0
H3693 H 0.69072 0.69019 0.81614 0.0
H3694 H 0.66884 0.70468 0.81206 0.0
H3695 H 0.62984 0.68604 0.83926 0.0
H3696 H 0.56924 0.72989 0.8297 0.0
H3697 H 0.59296 0.71928 0.83829 0.0
C3698 C 0.34915 0.6652 0.83321 0.0
C3699 C 0.36264 0.66688 0.8429 0.0
C3700 C 0.34455 0.65164 0.82619 0.0
C3701 C 0.35847 0.61582 0.81662 0.0
H3702 H 0.3158 0.60148 0.81432 0.0
C3703 C 0.33763 0.55588 0.79928 0.0
C3704 C 0.32517 0.55431 0.78809 0.0
C3705 C 0.34154 0.56939 0.80656 0.0
C3706 C 0.32774 0.60538 0.81478 0.0
H3707 H 0.382 0.65594 0.85283 0.0
H3708 H 0.37407 0.63217 0.8407 0.0
H3709 H 0.32431 0.62567 0.82518 0.0
H3710 H 0.3066 0.56556 0.7764 0.0
H3711 H 0.31339 0.58912 0.78922 0.0
H3712 H 0.3619 0.59545 0.80635 0.0
C3713 C 0.36708 0.64133 0.83824 0.0
C3714 C 0.33263 0.61929 0.82095 0.0
C3715 C 0.37168 0.65493 0.84519 0.0
C3716 C 0.31624 0.56635 0.78499 0.0
C3717 C 0.32014 0.57987 0.79234 0.0
C3718 C 0.35359 0.60189 0.81054 0.0
C3719 C 0.35335 0.63943 0.82878 0.0
C3720 C 0.34808 0.62471 0.82197 0.0
C3721 C 0.33308 0.58168 0.80291 0.0
C3722 C 0.33817 0.59647 0.80957 0.0
H3723 H 0.34207 0.67435 0.83126 0.0
H3724 H 0.33408 0.65073 0.81876 0.0
H3725 H 0.3704 0.61969 0.81694 0.0
H3726 H 0.34473 0.54684 0.80205 0.0
H3727 H 0.3514 0.5703 0.81488 0.0
C3728 C 0.40236 0.31978 0.8502 0.0
C3729 C 0.40648 0.33415 0.85561 0.0
C3730 C 0.41352 0.31033 0.84798 0.0
C3731 C 0.45359 0.31379 0.83939 0.0
H3732 H 0.44953 0.27047 0.84352 0.0
C3733 C 0.49156 0.27876 0.80873 0.0
C3734 C 0.49734 0.26635 0.81696 0.0
C3735 C 0.48047 0.28627 0.81462 0.0
C3736 C 0.4509 0.28257 0.84241 0.0
H3737 H 0.42515 0.34962 0.864 0.0
H3738 H 0.44468 0.33307 0.86065 0.0
H3739 H 0.43039 0.28453 0.85308 0.0
H3740 H 0.49564 0.25201 0.83779 0.0
H3741 H 0.47636 0.26525 0.84815 0.0
H3742 H 0.47403 0.31194 0.82877 0.0
C3743 C 0.43292 0.32912 0.85773 0.0
C3744 C 0.43986 0.29063 0.84778 0.0
C3745 C 0.42179 0.33853 0.85986 0.0
C3746 C 0.49157 0.26159 0.8312 0.0
C3747 C 0.4804 0.26909 0.83707 0.0
C3748 C 0.46455 0.30577 0.83399 0.0
C3749 C 0.42901 0.31513 0.85115 0.0
C3750 C 0.44103 0.30636 0.84628 0.0
C3751 C 0.4748 0.28162 0.82891 0.0
C3752 C 0.4633 0.29005 0.83528 0.0
H3753 H 0.39061 0.31632 0.84665 0.0
H3754 H 0.41006 0.29968 0.84283 0.0
H3755 H 0.4548 0.32587 0.83778 0.0
H3756 H 0.49579 0.28289 0.79784 0.0
H3757 H 0.4763 0.29575 0.8079 0.0
C3758 C 0.37157 0.36688 0.22245 0.0
C3759 C 0.37657 0.36818 0.20753 0.0
C3760 C 0.36554 0.37887 0.22853 0.0
C3761 C 0.34842 0.4144 0.21817 0.0
H3762 H 0.36227 0.42317 0.26066 0.0
C3763 C 0.33515 0.46779 0.24868 0.0
C3764 C 0.33357 0.46605 0.26467 0.0
C3765 C 0.33914 0.45581 0.24058 0.0
C3766 C 0.35804 0.42079 0.24886 0.0
H3767 H 0.379 0.38274 0.18707 0.0
H3768 H 0.36833 0.40384 0.19761 0.0
H3769 H 0.37158 0.40246 0.24885 0.0
H3770 H 0.33371 0.45026 0.28445 0.0
H3771 H 0.33994 0.42943 0.27039 0.0
H3772 H 0.33478 0.43279 0.21829 0.0
C3773 C 0.369 0.39355 0.20463 0.0
C3774 C 0.36345 0.40888 0.24206 0.0
C3775 C 0.37515 0.38155 0.19861 0.0
C3776 C 0.33505 0.45197 0.27216 0.0
C3777 C 0.33879 0.44005 0.2641 0.0
C3778 C 0.3429 0.42633 0.22503 0.0
C3779 C 0.3643 0.39242 0.21976 0.0
C3780 C 0.35862 0.40541 0.22668 0.0
C3781 C 0.34148 0.44191 0.24834 0.0
C3782 C 0.34751 0.42957 0.24056 0.0
H3783 H 0.3725 0.3566 0.22944 0.0
H3784 H 0.36183 0.37752 0.24012 0.0
H3785 H 0.34443 0.412 0.2063 0.0
H3786 H 0.33418 0.47857 0.24267 0.0
H3787 H 0.3411 0.45768 0.22845 0.0
C3788 C 0.68194 0.32409 0.18509 0.0
C3789 C 0.68022 0.33946 0.18351 0.0
C3790 C 0.66991 0.31384 0.18918 0.0
C3791 C 0.63451 0.31078 0.20838 0.0
H3792 H 0.62485 0.27429 0.18619 0.0
C3793 C 0.5814 0.27104 0.2196 0.0
C3794 C 0.58261 0.25557 0.21989 0.0
C3795 C 0.59295 0.28122 0.21436 0.0
C3796 C 0.62749 0.28432 0.19265 0.0
H3797 H 0.66466 0.35621 0.18484 0.0
H3798 H 0.64363 0.33835 0.19233 0.0
H3799 H 0.64588 0.29209 0.17902 0.0
H3800 H 0.59679 0.23864 0.2147 0.0
H3801 H 0.61715 0.25638 0.20581 0.0
H3802 H 0.61642 0.30297 0.22224 0.0
C3803 C 0.6543 0.33421 0.19047 0.0
C3804 C 0.63954 0.29454 0.1885 0.0
C3805 C 0.6663 0.34443 0.18623 0.0
C3806 C 0.59548 0.25048 0.21446 0.0
C3807 C 0.60714 0.26068 0.20935 0.0
C3808 C 0.62257 0.30052 0.21262 0.0
C3809 C 0.65595 0.31879 0.19192 0.0
C3810 C 0.64316 0.3079 0.19631 0.0
C3811 C 0.60612 0.27621 0.20942 0.0
C3812 C 0.61885 0.28716 0.20479 0.0
H3813 H 0.69263 0.32004 0.1832 0.0
H3814 H 0.67159 0.30206 0.1904 0.0
H3815 H 0.63717 0.32087 0.21476 0.0
H3816 H 0.5715 0.27527 0.22348 0.0
H3817 H 0.59155 0.29305 0.21423 0.0
C3818 C 0.38326 0.67675 0.18291 0.0
C3819 C 0.37076 0.68485 0.18379 0.0
C3820 C 0.39761 0.68227 0.18922 0.0
C3821 C 0.41944 0.71776 0.20082 0.0
H3822 H 0.448 0.69136 0.22062 0.0
C3823 C 0.47573 0.73841 0.23539 0.0
C3824 C 0.48847 0.73074 0.23382 0.0
C3825 C 0.46155 0.73339 0.22827 0.0
C3826 C 0.44021 0.69885 0.21494 0.0
H3827 H 0.36306 0.70461 0.19232 0.0
H3828 H 0.38809 0.71423 0.20374 0.0
H3829 H 0.42265 0.68102 0.21132 0.0
H3830 H 0.49642 0.71223 0.22285 0.0
H3831 H 0.47168 0.70353 0.2104 0.0
H3832 H 0.43699 0.73562 0.2047 0.0
C3833 C 0.38697 0.7038 0.19788 0.0
C3834 C 0.42567 0.69293 0.20962 0.0
C3835 C 0.37265 0.69829 0.1915 0.0
C3836 C 0.48685 0.71838 0.22436 0.0
C3837 C 0.47265 0.71331 0.21732 0.0
C3838 C 0.43395 0.72369 0.20623 0.0
C3839 C 0.39969 0.69598 0.19659 0.0
C3840 C 0.41509 0.70231 0.20249 0.0
C3841 C 0.45979 0.72056 0.21949 0.0
C3842 C 0.4445 0.71429 0.21333 0.0
H3843 H 0.382 0.66645 0.17681 0.0
H3844 H 0.40715 0.67604 0.18783 0.0
H3845 H 0.41169 0.72528 0.19512 0.0
H3846 H 0.47659 0.74799 0.24259 0.0
H3847 H 0.45185 0.73918 0.2302 0.0
loop_
_geom_bond_atom_site_label_1
_geom_bond_atom_site_label_2
_geom_bond_distance
_geom_bond_site_symmetry_2
_ccdc_geom_bond_type
C0 N1 1.317 . S
C0 N2 1.348 . S
C0 C3 1.485 . S
N1 C0 1.317 . S
N1 N5 1.370 . S
N2 C0 1.348 . S
N2 C4 1.346 . S
C3 C0 1.485 . S
C3 H7 0.960 . S
C3 H8 0.961 . S
C3 H9 0.960 . S
C4 N2 1.346 . S
C4 N5 1.307 . S
C4 C6 1.486 . S
N5 N1 1.370 . S
N5 C4 1.307 . S
C6 C4 1.486 . S
C6 H10 0.960 . S
C6 H11 0.960 . S
C6 H12 0.959 . S
H7 C3 0.960 . S
H8 C3 0.961 . S
H9 C3 0.960 . S
H10 C6 0.960 . S
H11 C6 0.960 . S
H12 C6 0.959 . S
C13 N14 1.317 . S
C13 N15 1.348 . S
C13 C16 1.485 . S
N14 C13 1.317 . S
N14 N18 1.370 . S
N15 C13 1.348 . S
N15 C17 1.346 . S
C16 C13 1.485 . S
C16 H20 0.960 . S
C16 H21 0.961 . S
C16 H22 0.960 . S
C17 N15 1.346 . S
C17 N18 1.307 . S
C17 C19 1.486 . S
N18 N14 1.370 . S
N18 C17 1.307 . S
C19 C17 1.486 . S
C19 H23 0.960 . S
C19 H24 0.960 . S
C19 H25 0.959 . S
H20 C16 0.960 . S
H21 C16 0.961 . S
H22 C16 0.960 . S
H23 C19 0.960 . S
H24 C19 0.960 . S
H25 C19 0.959 . S
C26 N27 1.317 . S
C26 N28 1.348 . S
C26 C29 1.485 . S
N27 C26 1.317 . S
N27 N31 1.370 . S
N28 C26 1.348 . S
N28 C30 1.346 . S
C29 C26 1.485 . S
C29 H33 0.960 . S
C29 H34 0.961 . S
C29 H35 0.960 . S
C30 N28 1.346 . S
C30 N31 1.307 . S
C30 C32 1.486 . S
N31 N27 1.370 . S
N31 C30 1.307 . S
C32 C30 1.486 . S
C32 H36 0.960 . S
C32 H37 0.960 . S
C32 H38 0.959 . S
H33 C29 0.960 . S
H34 C29 0.961 . S
H35 C29 0.960 . S
H36 C32 0.960 . S
H37 C32 0.960 . S
H38 C32 0.959 . S
C39 N40 1.317 . S
C39 N41 1.348 . S
C39 C42 1.485 . S
N40 C39 1.317 . S
N40 N44 1.370 . S
N41 C39 1.348 . S
N41 C43 1.346 . S
C42 C39 1.485 . S
C42 H46 0.960 . S
C42 H47 0.961 . S
C42 H48 0.960 . S
C43 N41 1.346 . S
C43 N44 1.307 . S
C43 C45 1.486 . S
N44 N40 1.370 . S
N44 C43 1.307 . S
C45 C43 1.486 . S
C45 H49 0.960 . S
C45 H50 0.960 . S
C45 H51 0.959 . S
H46 C42 0.960 . S
H47 C42 0.961 . S
H48 C42 0.960 . S
H49 C45 0.960 . S
H50 C45 0.960 . S
H51 C45 0.959 . S
C52 N53 1.317 . S
C52 N54 1.348 . S
C52 C55 1.485 . S
N53 C52 1.317 . S
N53 N57 1.370 . S
N54 C52 1.348 . S
N54 C56 1.346 . S
C55 C52 1.485 . S
C55 H59 0.960 . S
C55 H60 0.961 . S
C55 H61 0.960 . S
C56 N54 1.346 . S
C56 N57 1.307 . S
C56 C58 1.486 . S
N57 N53 1.370 . S
N57 C56 1.307 . S
C58 C56 1.486 . S
C58 H62 0.960 . S
C58 H63 0.960 . S
C58 H64 0.959 . S
H59 C55 0.960 . S
H60 C55 0.961 . S
H61 C55 0.960 . S
H62 C58 0.960 . S
H63 C58 0.960 . S
H64 C58 0.959 . S
C65 N66 1.317 . S
C65 N67 1.348 . S
C65 C68 1.485 . S
N66 C65 1.317 . S
N66 N70 1.370 . S
N67 C65 1.348 . S
N67 C69 1.346 . S
C68 C65 1.485 . S
C68 H72 0.960 . S
C68 H73 0.961 . S
C68 H74 0.960 . S
C69 N67 1.346 . S
C69 N70 1.307 . S
C69 C71 1.486 . S
N70 N66 1.370 . S
N70 C69 1.307 . S
C71 C69 1.486 . S
C71 H75 0.960 . S
C71 H76 0.960 . S
C71 H77 0.959 . S
H72 C68 0.960 . S
H73 C68 0.961 . S
H74 C68 0.960 . S
H75 C71 0.960 . S
H76 C71 0.960 . S
H77 C71 0.959 . S
C78 N79 1.317 . S
C78 N80 1.348 . S
C78 C81 1.485 . S
N79 C78 1.317 . S
N79 N83 1.370 . S
N80 C78 1.348 . S
N80 C82 1.346 . S
C81 C78 1.485 . S
C81 H85 0.960 . S
C81 H86 0.961 . S
C81 H87 0.960 . S
C82 N80 1.346 . S
C82 N83 1.307 . S
C82 C84 1.486 . S
N83 N79 1.370 . S
N83 C82 1.307 . S
C84 C82 1.486 . S
C84 H88 0.960 . S
C84 H89 0.960 . S
C84 H90 0.959 . S
H85 C81 0.960 . S
H86 C81 0.961 . S
H87 C81 0.960 . S
H88 C84 0.960 . S
H89 C84 0.960 . S
H90 C84 0.959 . S
C91 N92 1.317 . S
C91 N93 1.348 . S
C91 C94 1.485 . S
N92 C91 1.317 . S
N92 N96 1.370 . S
N93 C91 1.348 . S
N93 C95 1.346 . S
C94 C91 1.485 . S
C94 H98 0.960 . S
C94 H99 0.961 . S
C94 H100 0.960 . S
C95 N93 1.346 . S
C95 N96 1.307 . S
C95 C97 1.486 . S
N96 N92 1.370 . S
N96 C95 1.307 . S
C97 C95 1.486 . S
C97 H101 0.960 . S
C97 H102 0.960 . S
C97 H103 0.959 . S
H98 C94 0.960 . S
H99 C94 0.961 . S
H100 C94 0.960 . S
H101 C97 0.960 . S
H102 C97 0.960 . S
H103 C97 0.959 . S
C104 N105 1.317 . S
C104 N106 1.348 . S
C104 C107 1.485 . S
N105 C104 1.317 . S
N105 N109 1.370 . S
N106 C104 1.348 . S
N106 C108 1.346 . S
C107 C104 1.485 . S
C107 H111 0.960 . S
C107 H112 0.961 . S
C107 H113 0.960 . S
C108 N106 1.346 . S
C108 N109 1.307 . S
C108 C110 1.486 . S
N109 N105 1.370 . S
N109 C108 1.307 . S
C110 C108 1.486 . S
C110 H114 0.960 . S
C110 H115 0.960 . S
C110 H116 0.959 . S
H111 C107 0.960 . S
H112 C107 0.961 . S
H113 C107 0.960 . S
H114 C110 0.960 . S
H115 C110 0.960 . S
H116 C110 0.959 . S
C117 N118 1.317 . S
C117 N119 1.348 . S
C117 C120 1.485 . S
N118 C117 1.317 . S
N118 N122 1.370 . S
N119 C117 1.348 . S
N119 C121 1.346 . S
C120 C117 1.485 . S
C120 H124 0.960 . S
C120 H125 0.961 . S
C120 H126 0.960 . S
C121 N119 1.346 . S
C121 N122 1.307 . S
C121 C123 1.486 . S
N122 N118 1.370 . S
N122 C121 1.307 . S
C123 C121 1.486 . S
C123 H127 0.960 . S
C123 H128 0.960 . S
C123 H129 0.959 . S
H124 C120 0.960 . S
H125 C120 0.961 . S
H126 C120 0.960 . S
H127 C123 0.960 . S
H128 C123 0.960 . S
H129 C123 0.959 . S
C130 N131 1.317 . S
C130 N132 1.348 . S
C130 C133 1.485 . S
N131 C130 1.317 . S
N131 N135 1.370 . S
N132 C130 1.348 . S
N132 C134 1.346 . S
C133 C130 1.485 . S
C133 H137 0.960 . S
C133 H138 0.961 . S
C133 H139 0.960 . S
C134 N132 1.346 . S
C134 N135 1.307 . S
C134 C136 1.486 . S
N135 N131 1.370 . S
N135 C134 1.307 . S
C136 C134 1.486 . S
C136 H140 0.960 . S
C136 H141 0.960 . S
C136 H142 0.959 . S
H137 C133 0.960 . S
H138 C133 0.961 . S
H139 C133 0.960 . S
H140 C136 0.960 . S
H141 C136 0.960 . S
H142 C136 0.959 . S
C143 N144 1.317 . S
C143 N145 1.348 . S
C143 C146 1.485 . S
N144 C143 1.317 . S
N144 N148 1.370 . S
N145 C143 1.348 . S
N145 C147 1.346 . S
C146 C143 1.485 . S
C146 H150 0.960 . S
C146 H151 0.961 . S
C146 H152 0.960 . S
C147 N145 1.346 . S
C147 N148 1.307 . S
C147 C149 1.486 . S
N148 N144 1.370 . S
N148 C147 1.307 . S
C149 C147 1.486 . S
C149 H153 0.960 . S
C149 H154 0.960 . S
C149 H155 0.959 . S
H150 C146 0.960 . S
H151 C146 0.961 . S
H152 C146 0.960 . S
H153 C149 0.960 . S
H154 C149 0.960 . S
H155 C149 0.959 . S
C156 N157 1.317 . S
C156 N158 1.348 . S
C156 C159 1.485 . S
N157 C156 1.317 . S
N157 N161 1.370 . S
N158 C156 1.348 . S
N158 C160 1.346 . S
C159 C156 1.485 . S
C159 H163 0.960 . S
C159 H164 0.961 . S
C159 H165 0.960 . S
C160 N158 1.346 . S
C160 N161 1.307 . S
C160 C162 1.486 . S
N161 N157 1.370 . S
N161 C160 1.307 . S
C162 C160 1.486 . S
C162 H166 0.960 . S
C162 H167 0.960 . S
C162 H168 0.959 . S
H163 C159 0.960 . S
H164 C159 0.961 . S
H165 C159 0.960 . S
H166 C162 0.960 . S
H167 C162 0.960 . S
H168 C162 0.959 . S
C169 N170 1.317 . S
C169 N171 1.348 . S
C169 C172 1.485 . S
N170 C169 1.317 . S
N170 N174 1.370 . S
N171 C169 1.348 . S
N171 C173 1.346 . S
C172 C169 1.485 . S
C172 H176 0.960 . S
C172 H177 0.961 . S
C172 H178 0.960 . S
C173 N171 1.346 . S
C173 N174 1.307 . S
C173 C175 1.486 . S
N174 N170 1.370 . S
N174 C173 1.307 . S
C175 C173 1.486 . S
C175 H179 0.960 . S
C175 H180 0.960 . S
C175 H181 0.959 . S
H176 C172 0.960 . S
H177 C172 0.961 . S
H178 C172 0.960 . S
H179 C175 0.960 . S
H180 C175 0.960 . S
H181 C175 0.959 . S
C182 N183 1.317 . S
C182 N184 1.348 . S
C182 C185 1.485 . S
N183 C182 1.317 . S
N183 N187 1.370 . S
N184 C182 1.348 . S
N184 C186 1.346 . S
C185 C182 1.485 . S
C185 H189 0.960 . S
C185 H190 0.961 . S
C185 H191 0.960 . S
C186 N184 1.346 . S
C186 N187 1.307 . S
C186 C188 1.486 . S
N187 N183 1.370 . S
N187 C186 1.307 . S
C188 C186 1.486 . S
C188 H192 0.960 . S
C188 H193 0.960 . S
C188 H194 0.959 . S
H189 C185 0.960 . S
H190 C185 0.961 . S
H191 C185 0.960 . S
H192 C188 0.960 . S
H193 C188 0.960 . S
H194 C188 0.959 . S
C195 N196 1.317 . S
C195 N197 1.348 . S
C195 C198 1.485 . S
N196 C195 1.317 . S
N196 N200 1.370 . S
N197 C195 1.348 . S
N197 C199 1.346 . S
C198 C195 1.485 . S
C198 H202 0.960 . S
C198 H203 0.961 . S
C198 H204 0.960 . S
C199 N197 1.346 . S
C199 N200 1.307 . S
C199 C201 1.486 . S
N200 N196 1.370 . S
N200 C199 1.307 . S
C201 C199 1.486 . S
C201 H205 0.960 . S
C201 H206 0.960 . S
C201 H207 0.959 . S
H202 C198 0.960 . S
H203 C198 0.961 . S
H204 C198 0.960 . S
H205 C201 0.960 . S
H206 C201 0.960 . S
H207 C201 0.959 . S
C208 N209 1.317 . S
C208 N210 1.348 . S
C208 C211 1.485 . S
N209 C208 1.317 . S
N209 N213 1.370 . S
N210 C208 1.348 . S
N210 C212 1.346 . S
C211 C208 1.485 . S
C211 H215 0.960 . S
C211 H216 0.961 . S
C211 H217 0.960 . S
C212 N210 1.346 . S
C212 N213 1.307 . S
C212 C214 1.486 . S
N213 N209 1.370 . S
N213 C212 1.307 . S
C214 C212 1.486 . S
C214 H218 0.960 . S
C214 H219 0.960 . S
C214 H220 0.959 . S
H215 C211 0.960 . S
H216 C211 0.961 . S
H217 C211 0.960 . S
H218 C214 0.960 . S
H219 C214 0.960 . S
H220 C214 0.959 . S
C221 N222 1.317 . S
C221 N223 1.348 . S
C221 C224 1.485 . S
N222 C221 1.317 . S
N222 N226 1.370 . S
N223 C221 1.348 . S
N223 C225 1.346 . S
C224 C221 1.485 . S
C224 H228 0.960 . S
C224 H229 0.961 . S
C224 H230 0.960 . S
C225 N223 1.346 . S
C225 N226 1.307 . S
C225 C227 1.486 . S
N226 N222 1.370 . S
N226 C225 1.307 . S
C227 C225 1.486 . S
C227 H231 0.960 . S
C227 H232 0.960 . S
C227 H233 0.959 . S
H228 C224 0.960 . S
H229 C224 0.961 . S
H230 C224 0.960 . S
H231 C227 0.960 . S
H232 C227 0.960 . S
H233 C227 0.959 . S
C234 N235 1.317 . S
C234 N236 1.348 . S
C234 C237 1.485 . S
N235 C234 1.317 . S
N235 N239 1.370 . S
N236 C234 1.348 . S
N236 C238 1.346 . S
C237 C234 1.485 . S
C237 H241 0.960 . S
C237 H242 0.961 . S
C237 H243 0.960 . S
C238 N236 1.346 . S
C238 N239 1.307 . S
C238 C240 1.486 . S
N239 N235 1.370 . S
N239 C238 1.307 . S
C240 C238 1.486 . S
C240 H244 0.960 . S
C240 H245 0.960 . S
C240 H246 0.959 . S
H241 C237 0.960 . S
H242 C237 0.961 . S
H243 C237 0.960 . S
H244 C240 0.960 . S
H245 C240 0.960 . S
H246 C240 0.959 . S
C247 N248 1.317 . S
C247 N249 1.348 . S
C247 C250 1.485 . S
N248 C247 1.317 . S
N248 N252 1.370 . S
N249 C247 1.348 . S
N249 C251 1.346 . S
C250 C247 1.485 . S
C250 H254 0.960 . S
C250 H255 0.961 . S
C250 H256 0.960 . S
C251 N249 1.346 . S
C251 N252 1.307 . S
C251 C253 1.486 . S
N252 N248 1.370 . S
N252 C251 1.307 . S
C253 C251 1.486 . S
C253 H257 0.960 . S
C253 H258 0.960 . S
C253 H259 0.959 . S
H254 C250 0.960 . S
H255 C250 0.961 . S
H256 C250 0.960 . S
H257 C253 0.960 . S
H258 C253 0.960 . S
H259 C253 0.959 . S
C260 N261 1.317 . S
C260 N262 1.348 . S
C260 C263 1.485 . S
N261 C260 1.317 . S
N261 N265 1.370 . S
N262 C260 1.348 . S
N262 C264 1.346 . S
C263 C260 1.485 . S
C263 H267 0.960 . S
C263 H268 0.961 . S
C263 H269 0.960 . S
C264 N262 1.346 . S
C264 N265 1.307 . S
C264 C266 1.486 . S
N265 N261 1.370 . S
N265 C264 1.307 . S
C266 C264 1.486 . S
C266 H270 0.960 . S
C266 H271 0.960 . S
C266 H272 0.959 . S
H267 C263 0.960 . S
H268 C263 0.961 . S
H269 C263 0.960 . S
H270 C266 0.960 . S
H271 C266 0.960 . S
H272 C266 0.959 . S
C273 N274 1.317 . S
C273 N275 1.348 . S
C273 C276 1.485 . S
N274 C273 1.317 . S
N274 N278 1.370 . S
N275 C273 1.348 . S
N275 C277 1.346 . S
C276 C273 1.485 . S
C276 H280 0.960 . S
C276 H281 0.961 . S
C276 H282 0.960 . S
C277 N275 1.346 . S
C277 N278 1.307 . S
C277 C279 1.486 . S
N278 N274 1.370 . S
N278 C277 1.307 . S
C279 C277 1.486 . S
C279 H283 0.960 . S
C279 H284 0.960 . S
C279 H285 0.959 . S
H280 C276 0.960 . S
H281 C276 0.961 . S
H282 C276 0.960 . S
H283 C279 0.960 . S
H284 C279 0.960 . S
H285 C279 0.959 . S
C286 N287 1.317 . S
C286 N288 1.348 . S
C286 C289 1.485 . S
N287 C286 1.317 . S
N287 N291 1.370 . S
N288 C286 1.348 . S
N288 C290 1.346 . S
C289 C286 1.485 . S
C289 H293 0.960 . S
C289 H294 0.961 . S
C289 H295 0.960 . S
C290 N288 1.346 . S
C290 N291 1.307 . S
C290 C292 1.486 . S
N291 N287 1.370 . S
N291 C290 1.307 . S
C292 C290 1.486 . S
C292 H296 0.960 . S
C292 H297 0.960 . S
C292 H298 0.959 . S
H293 C289 0.960 . S
H294 C289 0.961 . S
H295 C289 0.960 . S
H296 C292 0.960 . S
H297 C292 0.960 . S
H298 C292 0.959 . S
C299 N300 1.317 . S
C299 N301 1.348 . S
C299 C302 1.485 . S
N300 C299 1.317 . S
N300 N304 1.370 . S
N301 C299 1.348 . S
N301 C303 1.346 . S
C302 C299 1.485 . S
C302 H306 0.960 . S
C302 H307 0.961 . S
C302 H308 0.960 . S
C303 N301 1.346 . S
C303 N304 1.307 . S
C303 C305 1.486 . S
N304 N300 1.370 . S
N304 C303 1.307 . S
C305 C303 1.486 . S
C305 H309 0.960 . S
C305 H310 0.960 . S
C305 H311 0.959 . S
H306 C302 0.960 . S
H307 C302 0.961 . S
H308 C302 0.960 . S
H309 C305 0.960 . S
H310 C305 0.960 . S
H311 C305 0.959 . S
C312 N313 1.317 . S
C312 N314 1.348 . S
C312 C315 1.485 . S
N313 C312 1.317 . S
N313 N317 1.370 . S
N314 C312 1.348 . S
N314 C316 1.346 . S
C315 C312 1.485 . S
C315 H319 0.960 . S
C315 H320 0.961 . S
C315 H321 0.960 . S
C316 N314 1.346 . S
C316 N317 1.307 . S
C316 C318 1.486 . S
N317 N313 1.370 . S
N317 C316 1.307 . S
C318 C316 1.486 . S
C318 H322 0.960 . S
C318 H323 0.960 . S
C318 H324 0.959 . S
H319 C315 0.960 . S
H320 C315 0.961 . S
H321 C315 0.960 . S
H322 C318 0.960 . S
H323 C318 0.960 . S
H324 C318 0.959 . S
C325 N326 1.317 . S
C325 N327 1.348 . S
C325 C328 1.485 . S
N326 C325 1.317 . S
N326 N330 1.370 . S
N327 C325 1.348 . S
N327 C329 1.346 . S
C328 C325 1.485 . S
C328 H332 0.960 . S
C328 H333 0.961 . S
C328 H334 0.960 . S
C329 N327 1.346 . S
C329 N330 1.307 . S
C329 C331 1.486 . S
N330 N326 1.370 . S
N330 C329 1.307 . S
C331 C329 1.486 . S
C331 H335 0.960 . S
C331 H336 0.960 . S
C331 H337 0.959 . S
H332 C328 0.960 . S
H333 C328 0.961 . S
H334 C328 0.960 . S
H335 C331 0.960 . S
H336 C331 0.960 . S
H337 C331 0.959 . S
C338 N339 1.317 . S
C338 N340 1.348 . S
C338 C341 1.485 . S
N339 C338 1.317 . S
N339 N343 1.370 . S
N340 C338 1.348 . S
N340 C342 1.346 . S
C341 C338 1.485 . S
C341 H345 0.960 . S
C341 H346 0.961 . S
C341 H347 0.960 . S
C342 N340 1.346 . S
C342 N343 1.307 . S
C342 C344 1.486 . S
N343 N339 1.370 . S
N343 C342 1.307 . S
C344 C342 1.486 . S
C344 H348 0.960 . S
C344 H349 0.960 . S
C344 H350 0.959 . S
H345 C341 0.960 . S
H346 C341 0.961 . S
H347 C341 0.960 . S
H348 C344 0.960 . S
H349 C344 0.960 . S
H350 C344 0.959 . S
C351 N352 1.317 . S
C351 N353 1.348 . S
C351 C354 1.485 . S
N352 C351 1.317 . S
N352 N356 1.370 . S
N353 C351 1.348 . S
N353 C355 1.346 . S
C354 C351 1.485 . S
C354 H358 0.960 . S
C354 H359 0.961 . S
C354 H360 0.960 . S
C355 N353 1.346 . S
C355 N356 1.307 . S
C355 C357 1.486 . S
N356 N352 1.370 . S
N356 C355 1.307 . S
C357 C355 1.486 . S
C357 H361 0.960 . S
C357 H362 0.960 . S
C357 H363 0.959 . S
H358 C354 0.960 . S
H359 C354 0.961 . S
H360 C354 0.960 . S
H361 C357 0.960 . S
H362 C357 0.960 . S
H363 C357 0.959 . S
C364 N365 1.317 . S
C364 N366 1.348 . S
C364 C367 1.485 . S
N365 C364 1.317 . S
N365 N369 1.370 . S
N366 C364 1.348 . S
N366 C368 1.346 . S
C367 C364 1.485 . S
C367 H371 0.960 . S
C367 H372 0.961 . S
C367 H373 0.960 . S
C368 N366 1.346 . S
C368 N369 1.307 . S
C368 C370 1.486 . S
N369 N365 1.370 . S
N369 C368 1.307 . S
C370 C368 1.486 . S
C370 H374 0.960 . S
C370 H375 0.960 . S
C370 H376 0.959 . S
H371 C367 0.960 . S
H372 C367 0.961 . S
H373 C367 0.960 . S
H374 C370 0.960 . S
H375 C370 0.960 . S
H376 C370 0.959 . S
C377 N378 1.317 . S
C377 N379 1.348 . S
C377 C380 1.485 . S
N378 C377 1.317 . S
N378 N382 1.370 . S
N379 C377 1.348 . S
N379 C381 1.346 . S
C380 C377 1.485 . S
C380 H384 0.960 . S
C380 H385 0.961 . S
C380 H386 0.960 . S
C381 N379 1.346 . S
C381 N382 1.307 . S
C381 C383 1.486 . S
N382 N378 1.370 . S
N382 C381 1.307 . S
C383 C381 1.486 . S
C383 H387 0.960 . S
C383 H388 0.960 . S
C383 H389 0.959 . S
H384 C380 0.960 . S
H385 C380 0.961 . S
H386 C380 0.960 . S
H387 C383 0.960 . S
H388 C383 0.960 . S
H389 C383 0.959 . S
C390 N391 1.317 . S
C390 N392 1.348 . S
C390 C393 1.485 . S
N391 C390 1.317 . S
N391 N395 1.370 . S
N392 C390 1.348 . S
N392 C394 1.346 . S
C393 C390 1.485 . S
C393 H397 0.960 . S
C393 H398 0.961 . S
C393 H399 0.960 . S
C394 N392 1.346 . S
C394 N395 1.307 . S
C394 C396 1.486 . S
N395 N391 1.370 . S
N395 C394 1.307 . S
C396 C394 1.486 . S
C396 H400 0.960 . S
C396 H401 0.960 . S
C396 H402 0.959 . S
H397 C393 0.960 . S
H398 C393 0.961 . S
H399 C393 0.960 . S
H400 C396 0.960 . S
H401 C396 0.960 . S
H402 C396 0.959 . S
C403 N404 1.317 . S
C403 N405 1.348 . S
C403 C406 1.485 . S
N404 C403 1.317 . S
N404 N408 1.370 . S
N405 C403 1.348 . S
N405 C407 1.346 . S
C406 C403 1.485 . S
C406 H410 0.960 . S
C406 H411 0.961 . S
C406 H412 0.960 . S
C407 N405 1.346 . S
C407 N408 1.307 . S
C407 C409 1.486 . S
N408 N404 1.370 . S
N408 C407 1.307 . S
C409 C407 1.486 . S
C409 H413 0.960 . S
C409 H414 0.960 . S
C409 H415 0.959 . S
H410 C406 0.960 . S
H411 C406 0.961 . S
H412 C406 0.960 . S
H413 C409 0.960 . S
H414 C409 0.960 . S
H415 C409 0.959 . S
Cu416 N417 1.999 . S
Cu416 O422 1.985 . S
Cu416 N427 1.985 . S
Cu416 O436 1.959 . S
N417 Cu416 1.999 . S
N417 C419 1.263 1_554 S
N417 C421 1.389 . S
N418 C419 1.358 . S
N418 C420 1.400 . S
C419 N417 1.263 1_556 S
C419 N418 1.358 . S
C419 H425 0.930 . S
C420 N418 1.400 . S
C420 C421 1.351 1_556 S
C420 H437 0.930 . S
C421 N417 1.389 . S
C421 C420 1.351 1_554 S
C421 H426 0.930 . S
O422 Cu416 1.985 . S
O422 C432 1.275 1_554 S
C423 O424 1.261 . S
C423 O436 1.251 . S
O424 C423 1.261 . S
H425 C419 0.930 . S
H426 C421 0.930 . S
N427 Cu416 1.985 . S
N427 C429 1.335 . S
N427 C430 1.390 . S
N428 C429 1.345 . S
N428 C431 1.336 . S
C429 N427 1.335 . S
C429 N428 1.345 . S
C429 H434 0.930 . S
C430 N427 1.390 . S
C430 C431 1.346 . S
C430 H435 0.930 . S
C431 N428 1.336 . S
C431 C430 1.346 . S
C431 H438 0.929 . S
C432 O422 1.275 1_556 S
C432 O433 1.216 . S
O433 C432 1.216 . S
H434 C429 0.930 . S
H435 C430 0.930 . S
O436 Cu416 1.959 . S
O436 C423 1.251 . S
H437 C420 0.930 . S
H438 C431 0.929 . S
Cu439 N440 1.999 . S
Cu439 O445 1.974 . S
Cu439 N450 1.985 1_554 S
Cu439 O459 1.959 1_554 S
N440 Cu439 1.999 . S
N440 C442 1.263 . S
N440 C444 1.389 . S
N441 C442 1.358 . S
N441 C443 1.400 . S
C442 N440 1.263 . S
C442 N441 1.358 . S
C442 H448 0.930 . S
C443 N441 1.400 . S
C443 C444 1.351 . S
C443 H460 0.930 . S
C444 N440 1.389 . S
C444 C443 1.351 . S
C444 H449 0.930 . S
O445 Cu439 1.974 . S
O445 C455 1.282 . S
C446 O447 1.261 . S
C446 O459 1.251 . S
O447 C446 1.261 . S
H448 C442 0.930 . S
H449 C444 0.930 . S
N450 Cu439 1.985 1_556 S
N450 C452 1.335 . S
N450 C453 1.376 1_556 S
N451 C452 1.345 . S
N451 C454 1.336 . S
C452 N450 1.335 . S
C452 N451 1.345 . S
C452 H457 0.930 . S
C453 N450 1.376 1_554 S
C453 C454 1.283 1_554 S
C453 H458 0.998 . S
C454 N451 1.336 . S
C454 C453 1.283 1_556 S
C454 H461 0.929 . S
C455 O445 1.282 . S
C455 O456 1.216 . S
O456 C455 1.216 . S
H457 C452 0.930 . S
H458 C453 0.998 . S
O459 Cu439 1.959 1_556 S
O459 C446 1.251 . S
H460 C443 0.930 . S
H461 C454 0.929 . S
Cu462 N463 1.999 1_554 S
Cu462 O468 1.974 1_554 S
Cu462 N473 1.985 . S
Cu462 O482 1.959 . S
N463 Cu462 1.999 1_556 S
N463 C465 1.263 . S
N463 C467 1.389 . S
N464 C465 1.358 . S
N464 C466 1.400 . S
C465 N463 1.263 . S
C465 N464 1.358 . S
C465 H471 0.930 . S
C466 N464 1.400 . S
C466 C467 1.351 . S
C466 H483 0.930 . S
C467 N463 1.389 . S
C467 C466 1.351 . S
C467 H472 0.930 1_556 S
O468 Cu462 1.974 1_556 S
O468 C478 1.282 . S
C469 O470 1.261 . S
C469 O482 1.251 . S
O470 C469 1.261 . S
H471 C465 0.930 . S
H472 C467 0.930 1_554 S
N473 Cu462 1.985 . S
N473 C475 1.335 . S
N473 C476 1.390 . S
N474 C475 1.345 . S
N474 C477 1.336 . S
C475 N473 1.335 . S
C475 N474 1.345 . S
C475 H480 0.930 . S
C476 N473 1.390 . S
C476 C477 1.346 . S
C476 H481 0.930 . S
C477 N474 1.336 . S
C477 C476 1.346 . S
C477 H484 0.929 . S
C478 O468 1.282 . S
C478 O479 1.216 . S
O479 C478 1.216 . S
H480 C475 0.930 . S
H481 C476 0.930 . S
O482 Cu462 1.959 . S
O482 C469 1.251 . S
H483 C466 0.930 . S
H484 C477 0.929 . S
Cu485 N486 1.999 . S
Cu485 O491 1.974 . S
Cu485 N496 1.985 1_554 S
Cu485 O505 1.959 1_554 S
N486 Cu485 1.999 . S
N486 C488 1.263 . S
N486 C490 1.389 . S
N487 C488 1.358 . S
N487 C489 1.400 . S
C488 N486 1.263 . S
C488 N487 1.358 . S
C488 H494 0.930 . S
C489 N487 1.400 . S
C489 C490 1.351 . S
C489 H506 0.930 . S
C490 N486 1.389 . S
C490 C489 1.351 . S
C490 H495 0.930 . S
O491 Cu485 1.974 . S
O491 C501 1.282 . S
C492 O493 1.261 . S
C492 O505 1.251 . S
O493 C492 1.261 . S
H494 C488 0.930 . S
H495 C490 0.930 . S
N496 Cu485 1.985 1_556 S
N496 C498 1.335 . S
N496 C499 1.390 . S
N497 C498 1.345 . S
N497 C500 1.336 . S
C498 N496 1.335 . S
C498 N497 1.345 . S
C498 H503 0.930 . S
C499 N496 1.390 . S
C499 C500 1.346 . S
C499 H504 0.930 1_556 S
C500 N497 1.336 . S
C500 C499 1.346 . S
C500 H507 0.929 . S
C501 O491 1.282 . S
C501 O502 1.216 . S
O502 C501 1.216 . S
H503 C498 0.930 . S
H504 C499 0.930 1_554 S
O505 Cu485 1.959 1_556 S
O505 C492 1.251 . S
H506 C489 0.930 . S
H507 C500 0.929 . S
Cu508 N509 1.999 . S
Cu508 O514 1.974 . S
Cu508 N519 1.985 1_455 S
Cu508 O528 1.959 1_455 S
N509 Cu508 1.999 . S
N509 C511 1.263 . S
N509 C513 1.389 . S
N510 C511 1.358 . S
N510 C512 1.400 . S
C511 N509 1.263 . S
C511 N510 1.358 . S
C511 H517 0.930 . S
C512 N510 1.400 . S
C512 C513 1.351 . S
C512 H529 0.930 . S
C513 N509 1.389 . S
C513 C512 1.351 . S
C513 H518 0.930 . S
O514 Cu508 1.974 . S
O514 C524 1.282 . S
C515 O516 1.261 . S
C515 O528 1.251 . S
O516 C515 1.261 . S
H517 C511 0.930 . S
H518 C513 0.930 . S
N519 Cu508 1.985 1_655 S
N519 C521 1.335 . S
N519 C522 1.390 1_655 S
N520 C521 1.345 . S
N520 C523 1.336 . S
C521 N519 1.335 . S
C521 N520 1.345 . S
C521 H526 0.930 . S
C522 N519 1.390 1_455 S
C522 C523 1.346 1_455 S
C522 H527 0.930 . S
C523 N520 1.336 . S
C523 C522 1.346 1_655 S
C523 H530 0.929 . S
C524 O514 1.282 . S
C524 O525 1.216 . S
O525 C524 1.216 . S
H526 C521 0.930 . S
H527 C522 0.930 . S
O528 Cu508 1.959 1_655 S
O528 C515 1.251 . S
H529 C512 0.930 . S
H530 C523 0.929 . S
Cu531 N532 1.999 . S
Cu531 O537 1.974 . S
Cu531 N542 1.985 1_545 S
Cu531 O551 1.959 1_545 S
N532 Cu531 1.999 . S
N532 C534 1.263 . S
N532 C536 1.389 . S
N533 C534 1.358 . S
N533 C535 1.400 . S
C534 N532 1.263 . S
C534 N533 1.358 . S
C534 H540 0.930 . S
C535 N533 1.400 . S
C535 C536 1.351 . S
C535 H552 0.930 . S
C536 N532 1.389 . S
C536 C535 1.351 . S
C536 H541 0.930 . S
O537 Cu531 1.974 . S
O537 C547 1.282 . S
C538 O539 1.261 . S
C538 O551 1.251 . S
O539 C538 1.261 . S
H540 C534 0.930 . S
H541 C536 0.930 . S
N542 Cu531 1.985 1_565 S
N542 C544 1.335 . S
N542 C545 1.390 . S
N543 C544 1.345 . S
N543 C546 1.336 . S
C544 N542 1.335 . S
C544 N543 1.345 . S
C544 H549 0.930 . S
C545 N542 1.390 . S
C545 C546 1.346 . S
C545 H550 0.930 . S
C546 N543 1.336 . S
C546 C545 1.346 . S
C546 H553 0.929 . S
C547 O537 1.282 . S
C547 O548 1.216 . S
O548 C547 1.216 . S
H549 C544 0.930 . S
H550 C545 0.930 . S
O551 Cu531 1.959 1_565 S
O551 C538 1.251 . S
H552 C535 0.930 . S
H553 C546 0.929 . S
Cu554 N555 1.999 . S
Cu554 O560 1.974 . S
Cu554 N565 1.985 . S
Cu554 O574 1.959 . S
N555 Cu554 1.999 . S
N555 C557 1.263 1_455 S
N555 C559 1.389 . S
N556 C557 1.358 . S
N556 C558 1.400 . S
C557 N555 1.263 1_655 S
C557 N556 1.358 . S
C557 H563 0.930 . S
C558 N556 1.400 . S
C558 C559 1.351 1_655 S
C558 H575 0.930 . S
C559 N555 1.389 . S
C559 C558 1.351 1_455 S
C559 H564 0.930 . S
O560 Cu554 1.974 . S
O560 C570 1.282 1_455 S
C561 O562 1.261 . S
C561 O574 1.251 . S
O562 C561 1.261 . S
H563 C557 0.930 . S
H564 C559 0.930 . S
N565 Cu554 1.985 . S
N565 C567 1.335 . S
N565 C568 1.390 . S
N566 C567 1.345 . S
N566 C569 1.336 . S
C567 N565 1.335 . S
C567 N566 1.345 . S
C567 H572 0.930 . S
C568 N565 1.390 . S
C568 C569 1.346 . S
C568 H573 0.930 . S
C569 N566 1.336 . S
C569 C568 1.346 . S
C569 H576 0.929 . S
C570 O560 1.282 1_655 S
C570 O571 1.216 1_655 S
O571 C570 1.216 1_455 S
H572 C567 0.930 . S
H573 C568 0.930 . S
O574 Cu554 1.959 . S
O574 C561 1.251 . S
H575 C558 0.930 . S
H576 C569 0.929 . S
Cu577 N578 1.999 . S
Cu577 O583 1.974 . S
Cu577 N588 1.985 . S
Cu577 O597 1.959 . S
N578 Cu577 1.999 . S
N578 C580 1.263 . S
N578 C582 1.389 . S
N579 C580 1.358 . S
N579 C581 1.400 . S
C580 N578 1.263 . S
C580 N579 1.358 . S
C580 H586 0.930 . S
C581 N579 1.400 . S
C581 C582 1.351 . S
C581 H598 0.930 . S
C582 N578 1.389 . S
C582 C581 1.351 . S
C582 H587 0.930 . S
O583 Cu577 1.974 . S
O583 C593 1.282 . S
C584 O585 1.233 1_565 S
C584 O597 1.225 1_565 S
O585 C584 1.233 1_545 S
H586 C580 0.930 . S
H587 C582 0.930 . S
N588 Cu577 1.985 . S
N588 C590 1.335 1_545 S
N588 C591 1.390 . S
N589 C590 1.345 . S
N589 C592 1.336 . S
C590 N588 1.335 1_565 S
C590 N589 1.345 . S
C590 H595 0.930 . S
C591 N588 1.390 . S
C591 C592 1.346 1_545 S
C591 H596 0.930 . S
C592 N589 1.336 . S
C592 C591 1.346 1_565 S
C592 H599 0.929 . S
C593 O583 1.282 . S
C593 O594 1.216 . S
O594 C593 1.216 . S
H595 C590 0.930 . S
H596 C591 0.930 . S
O597 Cu577 1.959 . S
O597 C584 1.225 1_545 S
H598 C581 0.930 . S
H599 C592 0.929 . S
Cu600 N601 1.999 . S
Cu600 O606 1.974 . S
Cu600 N611 1.985 1_455 S
Cu600 O620 1.959 1_455 S
N601 Cu600 1.999 . S
N601 C603 1.263 . S
N601 C605 1.389 . S
N602 C603 1.358 . S
N602 C604 1.400 . S
C603 N601 1.263 . S
C603 N602 1.358 . S
C603 H609 0.930 . S
C604 N602 1.400 . S
C604 C605 1.351 . S
C604 H621 0.930 . S
C605 N601 1.389 . S
C605 C604 1.351 . S
C605 H610 0.930 . S
O606 Cu600 1.974 . S
O606 C616 1.282 . S
C607 O608 1.261 . S
C607 O620 1.251 . S
O608 C607 1.261 . S
H609 C603 0.930 . S
H610 C605 0.930 . S
N611 Cu600 1.985 1_655 S
N611 C613 1.335 . S
N611 C614 1.390 1_655 S
N612 C613 1.345 . S
N612 C615 1.336 . S
C613 N611 1.335 . S
C613 N612 1.345 . S
C613 H618 0.930 . S
C614 N611 1.390 1_455 S
C614 C615 1.346 1_455 S
C614 H619 0.930 . S
C615 N612 1.336 . S
C615 C614 1.346 1_655 S
C615 H622 0.929 . S
C616 O606 1.282 . S
C616 O617 1.216 . S
O617 C616 1.216 . S
H618 C613 0.930 . S
H619 C614 0.930 . S
O620 Cu600 1.959 1_655 S
O620 C607 1.251 . S
H621 C604 0.930 . S
H622 C615 0.929 . S
Cu623 N624 1.999 . S
Cu623 O629 1.974 . S
Cu623 N634 1.985 1_545 S
Cu623 O643 1.959 1_545 S
N624 Cu623 1.999 . S
N624 C626 1.263 . S
N624 C628 1.389 . S
N625 C626 1.358 . S
N625 C627 1.400 . S
C626 N624 1.263 . S
C626 N625 1.358 . S
C626 H632 0.930 . S
C627 N625 1.400 . S
C627 C628 1.351 . S
C627 H644 0.930 . S
C628 N624 1.389 . S
C628 C627 1.351 . S
C628 H633 0.930 . S
O629 Cu623 1.974 . S
O629 C639 1.282 . S
C630 O631 1.261 . S
C630 O643 1.251 . S
O631 C630 1.261 . S
H632 C626 0.930 . S
H633 C628 0.930 . S
N634 Cu623 1.985 1_565 S
N634 C636 1.335 . S
N634 C637 1.390 . S
N635 C636 1.345 . S
N635 C638 1.336 . S
C636 N634 1.335 . S
C636 N635 1.345 . S
C636 H641 0.930 . S
C637 N634 1.390 . S
C637 C638 1.346 . S
C637 H642 0.871 1_565 S
C638 N635 1.336 . S
C638 C637 1.346 . S
C638 H645 0.929 . S
C639 O629 1.282 . S
C639 O640 1.216 . S
O640 C639 1.216 . S
H641 C636 0.930 . S
H642 C637 0.871 1_545 S
O643 Cu623 1.959 1_565 S
O643 C630 1.251 . S
H644 C627 0.930 . S
H645 C638 0.929 . S
Cu646 N647 1.999 . S
Cu646 O652 1.974 . S
Cu646 N657 1.985 . S
Cu646 O666 1.959 . S
N647 Cu646 1.999 . S
N647 C649 1.263 . S
N647 C651 1.389 . S
N648 C649 1.358 . S
N648 C650 1.400 . S
C649 N647 1.263 . S
C649 N648 1.358 . S
C649 H655 0.930 . S
C650 N648 1.400 . S
C650 C651 1.351 . S
C650 H667 0.930 . S
C651 N647 1.389 . S
C651 C650 1.351 . S
C651 H656 0.930 . S
O652 Cu646 1.974 . S
O652 C662 1.282 . S
C653 O654 1.261 . S
C653 O666 1.251 . S
O654 C653 1.261 . S
H655 C649 0.930 . S
H656 C651 0.930 . S
N657 Cu646 1.985 . S
N657 C659 1.335 . S
N657 C660 1.390 . S
N658 C659 1.345 . S
N658 C661 1.336 . S
C659 N657 1.335 . S
C659 N658 1.345 . S
C659 H664 0.930 . S
C660 N657 1.390 . S
C660 C661 1.346 . S
C660 H665 0.930 . S
C661 N658 1.336 . S
C661 C660 1.346 . S
C661 H668 0.929 . S
C662 O652 1.282 . S
C662 O663 1.216 . S
O663 C662 1.216 . S
H664 C659 0.930 . S
H665 C660 0.930 . S
O666 Cu646 1.959 . S
O666 C653 1.251 . S
H667 C650 0.930 . S
H668 C661 0.929 . S
Cu669 N670 1.999 . S
Cu669 O675 1.974 . S
Cu669 N680 1.985 . S
Cu669 O689 1.959 . S
N670 Cu669 1.999 . S
N670 C672 1.263 . S
N670 C674 1.389 . S
N671 C672 1.358 . S
N671 C673 1.400 . S
C672 N670 1.263 . S
C672 N671 1.358 . S
C672 H678 0.930 . S
C673 N671 1.400 . S
C673 C674 1.351 . S
C673 H690 0.930 . S
C674 N670 1.389 . S
C674 C673 1.351 . S
C674 H679 0.930 . S
O675 Cu669 1.974 . S
O675 C685 1.282 . S
C676 O677 1.261 . S
C676 O689 1.251 . S
O677 C676 1.261 . S
H678 C672 0.930 . S
H679 C674 0.930 . S
N680 Cu669 1.985 . S
N680 C682 1.335 . S
N680 C683 1.390 . S
N681 C682 1.340 1_565 S
N681 C684 1.328 1_565 S
C682 N680 1.335 . S
C682 N681 1.340 1_545 S
C682 H687 0.930 . S
C683 N680 1.390 . S
C683 C684 1.346 . S
C683 H688 0.930 . S
C684 N681 1.328 1_545 S
C684 C683 1.346 . S
C684 H691 0.929 . S
C685 O675 1.282 . S
C685 O686 1.216 . S
O686 C685 1.216 . S
H687 C682 0.930 . S
H688 C683 0.930 . S
O689 Cu669 1.959 . S
O689 C676 1.251 . S
H690 C673 0.930 . S
H691 C684 0.929 . S
Cu692 N693 1.999 . S
Cu692 O698 1.974 . S
Cu692 N703 1.985 . S
Cu692 O712 1.959 . S
N693 Cu692 1.999 . S
N693 C695 1.263 . S
N693 C697 1.389 . S
N694 C695 1.358 . S
N694 C696 1.400 . S
C695 N693 1.263 . S
C695 N694 1.358 . S
C695 H701 0.930 . S
C696 N694 1.400 . S
C696 C697 1.351 . S
C696 H713 0.930 . S
C697 N693 1.389 . S
C697 C696 1.351 . S
C697 H702 0.930 . S
O698 Cu692 1.974 . S
O698 C708 1.282 . S
C699 O700 1.261 . S
C699 O712 1.251 . S
O700 C699 1.261 . S
H701 C695 0.930 . S
H702 C697 0.930 . S
N703 Cu692 1.985 . S
N703 C705 1.335 . S
N703 C706 1.390 . S
N704 C705 1.345 . S
N704 C707 1.336 . S
C705 N703 1.335 . S
C705 N704 1.345 . S
C705 H710 0.930 . S
C706 N703 1.390 . S
C706 C707 1.346 . S
C706 H711 0.930 . S
C707 N704 1.336 . S
C707 C706 1.346 . S
C707 H714 0.929 . S
C708 O698 1.282 . S
C708 O709 1.216 . S
O709 C708 1.216 . S
H710 C705 0.930 . S
H711 C706 0.930 . S
O712 Cu692 1.959 . S
O712 C699 1.251 . S
H713 C696 0.930 . S
H714 C707 0.929 . S
Cu715 N716 1.999 . S
Cu715 O721 1.974 . S
Cu715 N726 1.985 . S
Cu715 O735 1.959 . S
N716 Cu715 1.999 . S
N716 C718 1.263 . S
N716 C720 1.389 . S
N717 C718 1.358 . S
N717 C719 1.400 . S
C718 N716 1.263 . S
C718 N717 1.358 . S
C718 H724 0.930 . S
C719 N717 1.400 . S
C719 C720 1.351 . S
C719 H736 0.930 . S
C720 N716 1.389 . S
C720 C719 1.351 . S
C720 H725 0.930 . S
O721 Cu715 1.974 . S
O721 C731 1.282 . S
C722 O723 1.261 . S
C722 O735 1.251 . S
O723 C722 1.261 . S
H724 C718 0.930 . S
H725 C720 0.930 . S
N726 Cu715 1.985 . S
N726 C728 1.335 . S
N726 C729 1.390 . S
N727 C728 1.345 . S
N727 C730 1.336 . S
C728 N726 1.335 . S
C728 N727 1.345 . S
C728 H733 0.930 . S
C729 N726 1.390 . S
C729 C730 1.346 . S
C729 H734 0.930 . S
C730 N727 1.336 . S
C730 C729 1.346 . S
C730 H737 0.929 . S
C731 O721 1.282 . S
C731 O732 1.216 . S
O732 C731 1.216 . S
H733 C728 0.930 . S
H734 C729 0.930 . S
O735 Cu715 1.959 . S
O735 C722 1.251 . S
H736 C719 0.930 . S
H737 C730 0.929 . S
Cu738 N739 1.999 . S
Cu738 O744 1.974 . S
Cu738 N749 1.985 . S
Cu738 O758 1.959 . S
N739 Cu738 1.999 . S
N739 C741 1.263 . S
N739 C743 1.389 . S
N740 C741 1.358 . S
N740 C742 1.400 . S
C741 N739 1.263 . S
C741 N740 1.358 . S
C741 H747 0.930 . S
C742 N740 1.400 . S
C742 C743 1.351 . S
C742 H759 0.930 . S
C743 N739 1.389 . S
C743 C742 1.351 . S
C743 H748 0.930 . S
O744 Cu738 1.974 . S
O744 C754 1.282 . S
C745 O746 1.261 . S
C745 O758 1.251 . S
O746 C745 1.261 . S
H747 C741 0.930 . S
H748 C743 0.930 . S
N749 Cu738 1.985 . S
N749 C751 1.335 . S
N749 C752 1.390 . S
N750 C751 1.345 . S
N750 C753 1.336 . S
C751 N749 1.335 . S
C751 N750 1.345 . S
C751 H756 0.930 . S
C752 N749 1.390 . S
C752 C753 1.346 . S
C752 H757 0.930 . S
C753 N750 1.336 . S
C753 C752 1.346 . S
C753 H760 0.929 . S
C754 O744 1.282 . S
C754 O755 1.216 . S
O755 C754 1.216 . S
H756 C751 0.930 . S
H757 C752 0.930 . S
O758 Cu738 1.959 . S
O758 C745 1.251 . S
H759 C742 0.930 . S
H760 C753 0.929 . S
Cu761 N762 1.999 . S
Cu761 O767 1.974 . S
Cu761 N772 1.985 . S
Cu761 O781 1.959 . S
N762 Cu761 1.999 . S
N762 C764 1.263 . S
N762 C766 1.389 . S
N763 C764 1.358 . S
N763 C765 1.400 . S
C764 N762 1.263 . S
C764 N763 1.358 . S
C764 H770 0.930 . S
C765 N763 1.400 . S
C765 C766 1.351 . S
C765 H782 0.930 . S
C766 N762 1.389 . S
C766 C765 1.351 . S
C766 H771 0.930 . S
O767 Cu761 1.974 . S
O767 C777 1.282 . S
C768 O769 1.261 . S
C768 O781 1.251 . S
O769 C768 1.261 . S
H770 C764 0.930 . S
H771 C766 0.930 . S
N772 Cu761 1.985 . S
N772 C774 1.335 . S
N772 C775 1.390 . S
N773 C774 1.345 . S
N773 C776 1.336 . S
C774 N772 1.335 . S
C774 N773 1.345 . S
C774 H779 0.930 . S
C775 N772 1.390 . S
C775 C776 1.346 . S
C775 H780 0.930 . S
C776 N773 1.336 . S
C776 C775 1.346 . S
C776 H783 0.929 . S
C777 O767 1.282 . S
C777 O778 1.216 . S
O778 C777 1.216 . S
H779 C774 0.930 . S
H780 C775 0.930 . S
O781 Cu761 1.959 . S
O781 C768 1.251 . S
H782 C765 0.930 . S
H783 C776 0.929 . S
Cu784 N785 1.999 . S
Cu784 O790 1.974 . S
Cu784 N795 1.985 . S
Cu784 O804 1.959 . S
N785 Cu784 1.999 . S
N785 C787 1.263 . S
N785 C789 1.389 . S
N786 C787 1.358 . S
N786 C788 1.400 . S
C787 N785 1.263 . S
C787 N786 1.358 . S
C787 H793 0.930 . S
C788 N786 1.400 . S
C788 C789 1.351 . S
C788 H805 0.930 . S
C789 N785 1.389 . S
C789 C788 1.351 . S
C789 H794 0.930 . S
O790 Cu784 1.974 . S
O790 C800 1.282 . S
C791 O792 1.261 . S
C791 O804 1.251 . S
O792 C791 1.261 . S
H793 C787 0.930 . S
H794 C789 0.930 . S
N795 Cu784 1.985 . S
N795 C797 1.335 . S
N795 C798 1.390 . S
N796 C797 1.345 . S
N796 C799 1.336 . S
C797 N795 1.335 . S
C797 N796 1.345 . S
C797 H802 0.930 . S
C798 N795 1.390 . S
C798 C799 1.346 . S
C798 H803 0.930 . S
C799 N796 1.336 . S
C799 C798 1.346 . S
C799 H806 0.929 . S
C800 O790 1.282 . S
C800 O801 1.216 . S
O801 C800 1.216 . S
H802 C797 0.930 . S
H803 C798 0.930 . S
O804 Cu784 1.959 . S
O804 C791 1.251 . S
H805 C788 0.930 . S
H806 C799 0.929 . S
Cu807 N808 1.999 . S
Cu807 O813 1.974 . S
Cu807 N818 1.985 . S
Cu807 O827 1.959 . S
N808 Cu807 1.999 . S
N808 C810 1.263 . S
N808 C812 1.389 . S
N809 C810 1.358 . S
N809 C811 1.400 . S
C810 N808 1.263 . S
C810 N809 1.358 . S
C810 H816 0.930 . S
C811 N809 1.400 . S
C811 C812 1.351 . S
C811 H828 0.930 . S
C812 N808 1.389 . S
C812 C811 1.351 . S
C812 H817 0.930 . S
O813 Cu807 1.974 . S
O813 C823 1.282 . S
C814 O815 1.261 . S
C814 O827 1.251 . S
O815 C814 1.261 . S
H816 C810 0.930 . S
H817 C812 0.930 . S
N818 Cu807 1.985 . S
N818 C820 1.335 . S
N818 C821 1.390 . S
N819 C820 1.345 . S
N819 C822 1.336 . S
C820 N818 1.335 . S
C820 N819 1.345 . S
C820 H825 0.930 . S
C821 N818 1.390 . S
C821 C822 1.346 . S
C821 H826 0.930 . S
C822 N819 1.336 . S
C822 C821 1.346 . S
C822 H829 0.929 . S
C823 O813 1.282 . S
C823 O824 1.216 . S
O824 C823 1.216 . S
H825 C820 0.930 . S
H826 C821 0.930 . S
O827 Cu807 1.959 . S
O827 C814 1.251 . S
H828 C811 0.930 . S
H829 C822 0.929 . S
Cu830 N831 1.999 . S
Cu830 O836 1.974 . S
Cu830 N841 1.985 . S
Cu830 O850 1.959 . S
N831 Cu830 1.999 . S
N831 C833 1.263 . S
N831 C835 1.389 . S
N832 C833 1.358 . S
N832 C834 1.400 . S
C833 N831 1.263 . S
C833 N832 1.358 . S
C833 H839 0.930 . S
C834 N832 1.400 . S
C834 C835 1.351 . S
C834 H851 0.930 . S
C835 N831 1.389 . S
C835 C834 1.351 . S
C835 H840 0.930 . S
O836 Cu830 1.974 . S
O836 C846 1.282 . S
C837 O838 1.261 . S
C837 O850 1.251 . S
O838 C837 1.261 . S
H839 C833 0.930 . S
H840 C835 0.930 . S
N841 Cu830 1.985 . S
N841 C843 1.335 . S
N841 C844 1.390 . S
N842 C843 1.345 . S
N842 C845 1.336 . S
C843 N841 1.335 . S
C843 N842 1.345 . S
C843 H848 0.930 . S
C844 N841 1.390 . S
C844 C845 1.346 . S
C844 H849 0.930 . S
C845 N842 1.336 . S
C845 C844 1.346 . S
C845 H852 0.929 . S
C846 O836 1.282 . S
C846 O847 1.216 . S
O847 C846 1.216 . S
H848 C843 0.930 . S
H849 C844 0.930 . S
O850 Cu830 1.959 . S
O850 C837 1.251 . S
H851 C834 0.930 . S
H852 C845 0.929 . S
Cu853 N854 1.999 . S
Cu853 O859 1.974 . S
Cu853 N864 1.985 . S
Cu853 O873 1.959 . S
N854 Cu853 1.999 . S
N854 C856 1.263 . S
N854 C858 1.389 . S
N855 C856 1.358 . S
N855 C857 1.400 . S
C856 N854 1.263 . S
C856 N855 1.358 . S
C856 H862 0.930 . S
C857 N855 1.400 . S
C857 C858 1.351 . S
C857 H874 0.930 . S
C858 N854 1.389 . S
C858 C857 1.351 . S
C858 H863 0.930 . S
O859 Cu853 1.974 . S
O859 C869 1.282 . S
C860 O861 1.261 . S
C860 O873 1.251 . S
O861 C860 1.261 . S
H862 C856 0.930 . S
H863 C858 0.930 . S
N864 Cu853 1.985 . S
N864 C866 1.335 . S
N864 C867 1.390 . S
N865 C866 1.345 . S
N865 C868 1.336 . S
C866 N864 1.335 . S
C866 N865 1.345 . S
C866 H871 0.930 . S
C867 N864 1.390 . S
C867 C868 1.346 . S
C867 H872 0.930 . S
C868 N865 1.336 . S
C868 C867 1.346 . S
C868 H875 0.929 . S
C869 O859 1.282 . S
C869 O870 1.216 . S
O870 C869 1.216 . S
H871 C866 0.930 . S
H872 C867 0.930 . S
O873 Cu853 1.959 . S
O873 C860 1.251 . S
H874 C857 0.930 . S
H875 C868 0.929 . S
Cu876 N877 1.999 . S
Cu876 O882 1.974 . S
Cu876 N887 1.985 . S
Cu876 O896 1.959 . S
N877 Cu876 1.999 . S
N877 C879 1.263 . S
N877 C881 1.389 . S
N878 C879 1.358 . S
N878 C880 1.400 . S
C879 N877 1.263 . S
C879 N878 1.358 . S
C879 H885 0.930 . S
C880 N878 1.400 . S
C880 C881 1.351 . S
C880 H897 0.930 . S
C881 N877 1.389 . S
C881 C880 1.351 . S
C881 H886 0.930 . S
O882 Cu876 1.974 . S
O882 C892 1.282 . S
C883 O884 1.261 . S
C883 O896 1.251 . S
O884 C883 1.261 . S
H885 C879 0.930 . S
H886 C881 0.930 . S
N887 Cu876 1.985 . S
N887 C889 1.335 . S
N887 C890 1.390 . S
N888 C889 1.345 . S
N888 C891 1.336 . S
C889 N887 1.335 . S
C889 N888 1.345 . S
C889 H894 0.930 . S
C890 N887 1.390 . S
C890 C891 1.346 . S
C890 H895 0.930 . S
C891 N888 1.336 . S
C891 C890 1.346 . S
C891 H898 0.929 . S
C892 O882 1.282 . S
C892 O893 1.216 . S
O893 C892 1.216 . S
H894 C889 0.930 . S
H895 C890 0.930 . S
O896 Cu876 1.959 . S
O896 C883 1.251 . S
H897 C880 0.930 . S
H898 C891 0.929 . S
Cu899 N900 1.999 . S
Cu899 O905 1.974 . S
Cu899 N910 1.985 . S
Cu899 O919 1.959 . S
N900 Cu899 1.999 . S
N900 C902 1.263 . S
N900 C904 1.389 . S
N901 C902 1.358 . S
N901 C903 1.400 . S
C902 N900 1.263 . S
C902 N901 1.358 . S
C902 H908 0.930 . S
C903 N901 1.400 . S
C903 C904 1.351 . S
C903 H920 0.930 . S
C904 N900 1.389 . S
C904 C903 1.351 . S
C904 H909 0.930 . S
O905 Cu899 1.974 . S
O905 C915 1.282 . S
C906 O907 1.261 . S
C906 O919 1.251 . S
O907 C906 1.261 . S
H908 C902 0.930 . S
H909 C904 0.930 . S
N910 Cu899 1.985 . S
N910 C912 1.335 . S
N910 C913 1.390 . S
N911 C912 1.345 . S
N911 C914 1.336 . S
C912 N910 1.335 . S
C912 N911 1.345 . S
C912 H917 0.930 . S
C913 N910 1.390 . S
C913 C914 1.346 . S
C913 H918 0.930 . S
C914 N911 1.336 . S
C914 C913 1.346 . S
C914 H921 0.929 . S
C915 O905 1.282 . S
C915 O916 1.216 . S
O916 C915 1.216 . S
H917 C912 0.930 . S
H918 C913 0.930 . S
O919 Cu899 1.959 . S
O919 C906 1.251 . S
H920 C903 0.930 . S
H921 C914 0.929 . S
Cu922 N923 1.999 . S
Cu922 O928 1.974 . S
Cu922 N933 1.985 . S
Cu922 O942 1.959 . S
N923 Cu922 1.999 . S
N923 C925 1.263 . S
N923 C927 1.389 . S
N924 C925 1.358 . S
N924 C926 1.400 . S
C925 N923 1.263 . S
C925 N924 1.358 . S
C925 H931 0.930 . S
C926 N924 1.400 . S
C926 C927 1.351 . S
C926 H943 0.930 . S
C927 N923 1.389 . S
C927 C926 1.351 . S
C927 H932 0.930 . S
O928 Cu922 1.974 . S
O928 C938 1.282 . S
C929 O930 1.261 . S
C929 O942 1.251 . S
O930 C929 1.261 . S
H931 C925 0.930 . S
H932 C927 0.930 . S
N933 Cu922 1.985 . S
N933 C935 1.335 . S
N933 C936 1.390 . S
N934 C935 1.345 . S
N934 C937 1.336 . S
C935 N933 1.335 . S
C935 N934 1.345 . S
C935 H940 0.930 . S
C936 N933 1.390 . S
C936 C937 1.346 . S
C936 H941 0.930 . S
C937 N934 1.336 . S
C937 C936 1.346 . S
C937 H944 0.929 . S
C938 O928 1.282 . S
C938 O939 1.216 . S
O939 C938 1.216 . S
H940 C935 0.930 . S
H941 C936 0.930 . S
O942 Cu922 1.959 . S
O942 C929 1.251 . S
H943 C926 0.930 . S
H944 C937 0.929 . S
Cu945 N946 1.999 . S
Cu945 O951 1.974 . S
Cu945 N956 1.985 . S
Cu945 O965 1.959 . S
N946 Cu945 1.999 . S
N946 C948 1.263 . S
N946 C950 1.389 . S
N947 C948 1.358 . S
N947 C949 1.400 . S
C948 N946 1.263 . S
C948 N947 1.358 . S
C948 H954 0.930 . S
C949 N947 1.400 . S
C949 C950 1.351 . S
C949 H966 0.930 . S
C950 N946 1.389 . S
C950 C949 1.351 . S
C950 H955 0.930 . S
O951 Cu945 1.974 . S
O951 C961 1.282 . S
C952 O953 1.261 . S
C952 O965 1.251 . S
O953 C952 1.261 . S
H954 C948 0.930 . S
H955 C950 0.930 . S
N956 Cu945 1.985 . S
N956 C958 1.335 . S
N956 C959 1.390 . S
N957 C958 1.345 . S
N957 C960 1.336 . S
C958 N956 1.335 . S
C958 N957 1.345 . S
C958 H963 0.930 . S
C959 N956 1.390 . S
C959 C960 1.346 . S
C959 H964 0.930 . S
C960 N957 1.336 . S
C960 C959 1.346 . S
C960 H967 0.929 . S
C961 O951 1.282 . S
C961 O962 1.216 . S
O962 C961 1.216 . S
H963 C958 0.930 . S
H964 C959 0.930 . S
O965 Cu945 1.959 . S
O965 C952 1.251 . S
H966 C949 0.930 . S
H967 C960 0.929 . S
C968 C969 1.349 . S
C968 C970 1.327 . S
C968 H993 0.950 . S
C969 C968 1.349 . S
C969 C985 1.349 . S
C970 C968 1.327 . S
C970 C989 1.429 . S
C970 H994 0.950 . S
C971 C988 1.574 . S
C971 C990 1.368 . S
C971 H995 0.949 . S
H972 C976 0.949 . S
C973 C974 1.349 . S
C973 C975 1.327 . S
C973 H996 0.950 . S
C974 C973 1.349 . S
C974 C986 1.349 . S
C975 C973 1.327 . S
C975 C991 1.429 . S
C975 H997 0.950 . S
C976 H972 0.949 . S
C976 C984 1.574 . S
C976 C992 1.368 . S
H977 C985 0.950 . S
H978 C983 0.950 . S
H979 C984 0.949 . S
H980 C986 0.950 . S
H981 C987 0.950 . S
H982 C988 0.949 . S
C983 H978 0.950 . S
C983 C985 1.327 . S
C983 C989 1.429 . S
C984 C976 1.574 . S
C984 H979 0.949 . S
C984 C990 1.368 . S
C985 C969 1.349 . S
C985 H977 0.950 . S
C985 C983 1.327 . S
C986 C974 1.349 . S
C986 H980 0.950 . S
C986 C987 1.327 . S
C987 H981 0.950 . S
C987 C986 1.327 . S
C987 C991 1.429 . S
C988 C971 1.574 . S
C988 H982 0.949 . S
C988 C992 1.368 . S
C989 C970 1.429 . S
C989 C983 1.429 . S
C989 C990 1.523 . S
C990 C971 1.368 . S
C990 C984 1.368 . S
C990 C989 1.523 . S
C991 C975 1.429 . S
C991 C987 1.429 . S
C991 C992 1.523 . S
C992 C976 1.368 . S
C992 C988 1.368 . S
C992 C991 1.523 . S
H993 C968 0.950 . S
H994 C970 0.950 . S
H995 C971 0.949 . S
H996 C973 0.950 . S
H997 C975 0.950 . S
C998 C999 1.349 . S
C998 C1000 1.327 . S
C998 H1023 0.950 . S
C999 C998 1.349 . S
C999 C1015 1.349 . S
C1000 C998 1.327 . S
C1000 C1019 1.429 . S
C1000 H1024 0.950 . S
C1001 C1018 1.574 . S
C1001 C1020 1.368 . S
C1001 H1025 0.949 . S
H1002 C1006 0.949 . S
C1003 C1004 1.349 . S
C1003 C1005 1.327 . S
C1003 H1026 0.950 . S
C1004 C1003 1.349 . S
C1004 C1016 1.349 . S
C1005 C1003 1.327 . S
C1005 C1021 1.429 . S
C1005 H1027 0.950 . S
C1006 H1002 0.949 . S
C1006 C1014 1.574 . S
C1006 C1022 1.368 . S
H1007 C1015 0.950 . S
H1008 C1013 0.950 . S
H1009 C1014 0.949 . S
H1010 C1016 0.950 . S
H1011 C1017 0.950 . S
H1012 C1018 0.949 . S
C1013 H1008 0.950 . S
C1013 C1015 1.327 . S
C1013 C1019 1.429 . S
C1014 C1006 1.574 . S
C1014 H1009 0.949 . S
C1014 C1020 1.368 . S
C1015 C999 1.349 . S
C1015 H1007 0.950 . S
C1015 C1013 1.327 . S
C1016 C1004 1.349 . S
C1016 H1010 0.950 . S
C1016 C1017 1.327 . S
C1017 H1011 0.950 . S
C1017 C1016 1.327 . S
C1017 C1021 1.429 . S
C1018 C1001 1.574 . S
C1018 H1012 0.949 . S
C1018 C1022 1.368 . S
C1019 C1000 1.429 . S
C1019 C1013 1.429 . S
C1019 C1020 1.523 . S
C1020 C1001 1.368 . S
C1020 C1014 1.368 . S
C1020 C1019 1.523 . S
C1021 C1005 1.429 . S
C1021 C1017 1.429 . S
C1021 C1022 1.523 . S
C1022 C1006 1.368 . S
C1022 C1018 1.368 . S
C1022 C1021 1.523 . S
H1023 C998 0.950 . S
H1024 C1000 0.950 . S
H1025 C1001 0.949 . S
H1026 C1003 0.950 . S
H1027 C1005 0.950 . S
C1028 C1029 1.349 . S
C1028 C1030 1.327 . S
C1028 H1053 0.950 . S
C1029 C1028 1.349 . S
C1029 C1045 1.349 . S
C1030 C1028 1.327 . S
C1030 C1049 1.429 . S
C1030 H1054 0.950 . S
C1031 C1048 1.574 . S
C1031 C1050 1.368 . S
C1031 H1055 0.949 . S
H1032 C1036 0.949 . S
C1033 C1034 1.349 . S
C1033 C1035 1.327 . S
C1033 H1056 0.950 . S
C1034 C1033 1.349 . S
C1034 C1046 1.349 . S
C1035 C1033 1.327 . S
C1035 C1051 1.429 . S
C1035 H1057 0.950 . S
C1036 H1032 0.949 . S
C1036 C1044 1.574 . S
C1036 C1052 1.368 . S
H1037 C1045 0.950 . S
H1038 C1043 0.950 . S
H1039 C1044 0.949 . S
H1040 C1046 0.950 . S
H1041 C1047 0.950 . S
H1042 C1048 0.949 . S
C1043 H1038 0.950 . S
C1043 C1045 1.327 . S
C1043 C1049 1.429 . S
C1044 C1036 1.574 . S
C1044 H1039 0.949 . S
C1044 C1050 1.368 . S
C1045 C1029 1.349 . S
C1045 H1037 0.950 . S
C1045 C1043 1.327 . S
C1046 C1034 1.349 . S
C1046 H1040 0.950 . S
C1046 C1047 1.327 . S
C1047 H1041 0.950 . S
C1047 C1046 1.327 . S
C1047 C1051 1.429 . S
C1048 C1031 1.574 . S
C1048 H1042 0.949 . S
C1048 C1052 1.368 . S
C1049 C1030 1.429 . S
C1049 C1043 1.429 . S
C1049 C1050 1.523 . S
C1050 C1031 1.368 . S
C1050 C1044 1.368 . S
C1050 C1049 1.523 . S
C1051 C1035 1.429 . S
C1051 C1047 1.429 . S
C1051 C1052 1.523 . S
C1052 C1036 1.368 . S
C1052 C1048 1.368 . S
C1052 C1051 1.523 . S
H1053 C1028 0.950 . S
H1054 C1030 0.950 . S
H1055 C1031 0.949 . S
H1056 C1033 0.950 . S
H1057 C1035 0.950 . S
C1058 C1059 1.349 . S
C1058 C1060 1.327 . S
C1058 H1083 0.950 . S
C1059 C1058 1.349 . S
C1059 C1075 1.349 . S
C1060 C1058 1.327 . S
C1060 C1079 1.429 . S
C1060 H1084 0.950 . S
C1061 C1078 1.574 . S
C1061 C1080 1.368 . S
C1061 H1085 0.949 . S
H1062 C1066 0.949 . S
C1063 C1064 1.349 . S
C1063 C1065 1.327 . S
C1063 H1086 0.950 . S
C1064 C1063 1.349 . S
C1064 C1076 1.349 . S
C1065 C1063 1.327 . S
C1065 C1081 1.429 . S
C1065 H1087 0.950 . S
C1066 H1062 0.949 . S
C1066 C1074 1.574 . S
C1066 C1082 1.368 . S
H1067 C1075 0.950 . S
H1068 C1073 0.950 . S
H1069 C1074 0.949 . S
H1070 C1076 0.950 . S
H1071 C1077 0.950 . S
H1072 C1078 0.949 . S
C1073 H1068 0.950 . S
C1073 C1075 1.327 . S
C1073 C1079 1.429 . S
C1074 C1066 1.574 . S
C1074 H1069 0.949 . S
C1074 C1080 1.368 . S
C1075 C1059 1.349 . S
C1075 H1067 0.950 . S
C1075 C1073 1.327 . S
C1076 C1064 1.349 . S
C1076 H1070 0.950 . S
C1076 C1077 1.327 . S
C1077 H1071 0.950 . S
C1077 C1076 1.327 . S
C1077 C1081 1.429 . S
C1078 C1061 1.574 . S
C1078 H1072 0.949 . S
C1078 C1082 1.368 . S
C1079 C1060 1.429 . S
C1079 C1073 1.429 . S
C1079 C1080 1.523 . S
C1080 C1061 1.368 . S
C1080 C1074 1.368 . S
C1080 C1079 1.523 . S
C1081 C1065 1.429 . S
C1081 C1077 1.429 . S
C1081 C1082 1.523 . S
C1082 C1066 1.368 . S
C1082 C1078 1.368 . S
C1082 C1081 1.523 . S
H1083 C1058 0.950 . S
H1084 C1060 0.950 . S
H1085 C1061 0.949 . S
H1086 C1063 0.950 . S
H1087 C1065 0.950 . S
C1088 C1089 1.349 . S
C1088 C1090 1.327 . S
C1088 H1113 0.950 . S
C1089 C1088 1.349 . S
C1089 C1105 1.349 . S
C1090 C1088 1.327 . S
C1090 C1109 1.429 . S
C1090 H1114 0.950 . S
C1091 C1108 1.574 . S
C1091 C1110 1.368 . S
C1091 H1115 0.949 . S
H1092 C1096 0.949 . S
C1093 C1094 1.349 . S
C1093 C1095 1.327 . S
C1093 H1116 0.950 . S
C1094 C1093 1.349 . S
C1094 C1106 1.349 . S
C1095 C1093 1.327 . S
C1095 C1111 1.429 . S
C1095 H1117 0.950 . S
C1096 H1092 0.949 . S
C1096 C1104 1.574 . S
C1096 C1112 1.368 . S
H1097 C1105 0.950 . S
H1098 C1103 0.950 . S
H1099 C1104 0.949 . S
H1100 C1106 0.950 . S
H1101 C1107 0.950 . S
H1102 C1108 0.949 . S
C1103 H1098 0.950 . S
C1103 C1105 1.327 . S
C1103 C1109 1.429 . S
C1104 C1096 1.574 . S
C1104 H1099 0.949 . S
C1104 C1110 1.368 . S
C1105 C1089 1.349 . S
C1105 H1097 0.950 . S
C1105 C1103 1.327 . S
C1106 C1094 1.349 . S
C1106 H1100 0.950 . S
C1106 C1107 1.327 . S
C1107 H1101 0.950 . S
C1107 C1106 1.327 . S
C1107 C1111 1.429 . S
C1108 C1091 1.574 . S
C1108 H1102 0.949 . S
C1108 C1112 1.368 . S
C1109 C1090 1.429 . S
C1109 C1103 1.429 . S
C1109 C1110 1.523 . S
C1110 C1091 1.368 . S
C1110 C1104 1.368 . S
C1110 C1109 1.523 . S
C1111 C1095 1.429 . S
C1111 C1107 1.429 . S
C1111 C1112 1.523 . S
C1112 C1096 1.368 . S
C1112 C1108 1.368 . S
C1112 C1111 1.523 . S
H1113 C1088 0.950 . S
H1114 C1090 0.950 . S
H1115 C1091 0.949 . S
H1116 C1093 0.950 . S
H1117 C1095 0.950 . S
C1118 C1119 1.349 . S
C1118 C1120 1.327 . S
C1118 H1143 0.950 . S
C1119 C1118 1.349 . S
C1119 C1135 1.349 . S
C1120 C1118 1.327 . S
C1120 C1139 1.429 . S
C1120 H1144 0.950 . S
C1121 C1138 1.574 . S
C1121 C1140 1.368 . S
C1121 H1145 0.949 . S
H1122 C1126 0.949 . S
C1123 C1124 1.349 . S
C1123 C1125 1.327 . S
C1123 H1146 0.950 . S
C1124 C1123 1.349 . S
C1124 C1136 1.349 . S
C1125 C1123 1.327 . S
C1125 C1141 1.429 . S
C1125 H1147 0.950 . S
C1126 H1122 0.949 . S
C1126 C1134 1.574 . S
C1126 C1142 1.368 . S
H1127 C1135 0.950 . S
H1128 C1133 0.950 . S
H1129 C1134 0.949 . S
H1130 C1136 0.950 . S
H1131 C1137 0.950 . S
H1132 C1138 0.949 . S
C1133 H1128 0.950 . S
C1133 C1135 1.327 . S
C1133 C1139 1.429 . S
C1134 C1126 1.574 . S
C1134 H1129 0.949 . S
C1134 C1140 1.368 . S
C1135 C1119 1.349 . S
C1135 H1127 0.950 . S
C1135 C1133 1.327 . S
C1136 C1124 1.349 . S
C1136 H1130 0.950 . S
C1136 C1137 1.327 . S
C1137 H1131 0.950 . S
C1137 C1136 1.327 . S
C1137 C1141 1.429 . S
C1138 C1121 1.574 . S
C1138 H1132 0.949 . S
C1138 C1142 1.368 . S
C1139 C1120 1.429 . S
C1139 C1133 1.429 . S
C1139 C1140 1.523 . S
C1140 C1121 1.368 . S
C1140 C1134 1.368 . S
C1140 C1139 1.523 . S
C1141 C1125 1.429 . S
C1141 C1137 1.429 . S
C1141 C1142 1.523 . S
C1142 C1126 1.368 . S
C1142 C1138 1.368 . S
C1142 C1141 1.523 . S
H1143 C1118 0.950 . S
H1144 C1120 0.950 . S
H1145 C1121 0.949 . S
H1146 C1123 0.950 . S
H1147 C1125 0.950 . S
C1148 C1149 1.349 . S
C1148 C1150 1.327 . S
C1148 H1173 0.950 . S
C1149 C1148 1.349 . S
C1149 C1165 1.349 . S
C1150 C1148 1.327 . S
C1150 C1169 1.429 . S
C1150 H1174 0.950 . S
C1151 C1168 1.574 . S
C1151 C1170 1.368 . S
C1151 H1175 0.949 . S
H1152 C1156 0.949 . S
C1153 C1154 1.349 . S
C1153 C1155 1.327 . S
C1153 H1176 0.950 . S
C1154 C1153 1.349 . S
C1154 C1166 1.349 . S
C1155 C1153 1.327 . S
C1155 C1171 1.429 . S
C1155 H1177 0.950 . S
C1156 H1152 0.949 . S
C1156 C1164 1.574 . S
C1156 C1172 1.368 . S
H1157 C1165 0.950 . S
H1158 C1163 0.950 . S
H1159 C1164 0.949 . S
H1160 C1166 0.950 . S
H1161 C1167 0.950 . S
H1162 C1168 0.949 . S
C1163 H1158 0.950 . S
C1163 C1165 1.327 . S
C1163 C1169 1.429 . S
C1164 C1156 1.574 . S
C1164 H1159 0.949 . S
C1164 C1170 1.368 . S
C1165 C1149 1.349 . S
C1165 H1157 0.950 . S
C1165 C1163 1.327 . S
C1166 C1154 1.349 . S
C1166 H1160 0.950 . S
C1166 C1167 1.327 . S
C1167 H1161 0.950 . S
C1167 C1166 1.327 . S
C1167 C1171 1.429 . S
C1168 C1151 1.574 . S
C1168 H1162 0.949 . S
C1168 C1172 1.368 . S
C1169 C1150 1.429 . S
C1169 C1163 1.429 . S
C1169 C1170 1.523 . S
C1170 C1151 1.368 . S
C1170 C1164 1.368 . S
C1170 C1169 1.523 . S
C1171 C1155 1.429 . S
C1171 C1167 1.429 . S
C1171 C1172 1.523 . S
C1172 C1156 1.368 . S
C1172 C1168 1.368 . S
C1172 C1171 1.523 . S
H1173 C1148 0.950 . S
H1174 C1150 0.950 . S
H1175 C1151 0.949 . S
H1176 C1153 0.950 . S
H1177 C1155 0.950 . S
C1178 C1179 1.349 . S
C1178 C1180 1.327 . S
C1178 H1203 0.950 . S
C1179 C1178 1.349 . S
C1179 C1195 1.349 . S
C1180 C1178 1.327 . S
C1180 C1199 1.429 . S
C1180 H1204 0.950 . S
C1181 C1198 1.574 . S
C1181 C1200 1.368 . S
C1181 H1205 0.949 . S
H1182 C1186 0.949 . S
C1183 C1184 1.349 . S
C1183 C1185 1.327 . S
C1183 H1206 0.950 . S
C1184 C1183 1.349 . S
C1184 C1196 1.349 . S
C1185 C1183 1.327 . S
C1185 C1201 1.429 . S
C1185 H1207 0.950 . S
C1186 H1182 0.949 . S
C1186 C1194 1.574 . S
C1186 C1202 1.368 . S
H1187 C1195 0.950 . S
H1188 C1193 0.950 . S
H1189 C1194 0.949 . S
H1190 C1196 0.950 . S
H1191 C1197 0.950 . S
H1192 C1198 0.949 . S
C1193 H1188 0.950 . S
C1193 C1195 1.327 . S
C1193 C1199 1.429 . S
C1194 C1186 1.574 . S
C1194 H1189 0.949 . S
C1194 C1200 1.368 . S
C1195 C1179 1.349 . S
C1195 H1187 0.950 . S
C1195 C1193 1.327 . S
C1196 C1184 1.349 . S
C1196 H1190 0.950 . S
C1196 C1197 1.327 . S
C1197 H1191 0.950 . S
C1197 C1196 1.327 . S
C1197 C1201 1.429 . S
C1198 C1181 1.574 . S
C1198 H1192 0.949 . S
C1198 C1202 1.368 . S
C1199 C1180 1.429 . S
C1199 C1193 1.429 . S
C1199 C1200 1.523 . S
C1200 C1181 1.368 . S
C1200 C1194 1.368 . S
C1200 C1199 1.523 . S
C1201 C1185 1.429 . S
C1201 C1197 1.429 . S
C1201 C1202 1.523 . S
C1202 C1186 1.368 . S
C1202 C1198 1.368 . S
C1202 C1201 1.523 . S
H1203 C1178 0.950 . S
H1204 C1180 0.950 . S
H1205 C1181 0.949 . S
H1206 C1183 0.950 . S
H1207 C1185 0.950 . S
C1208 C1209 1.349 . S
C1208 C1210 1.327 . S
C1208 H1233 0.950 . S
C1209 C1208 1.349 . S
C1209 C1225 1.349 . S
C1210 C1208 1.327 . S
C1210 C1229 1.429 . S
C1210 H1234 0.950 . S
C1211 C1228 1.574 . S
C1211 C1230 1.368 . S
C1211 H1235 0.949 . S
H1212 C1216 0.949 . S
C1213 C1214 1.349 . S
C1213 C1215 1.327 . S
C1213 H1236 0.950 . S
C1214 C1213 1.349 . S
C1214 C1226 1.349 . S
C1215 C1213 1.327 . S
C1215 C1231 1.429 . S
C1215 H1237 0.950 . S
C1216 H1212 0.949 . S
C1216 C1224 1.574 . S
C1216 C1232 1.368 . S
H1217 C1225 0.950 . S
H1218 C1223 0.950 . S
H1219 C1224 0.949 . S
H1220 C1226 0.950 . S
H1221 C1227 0.950 . S
H1222 C1228 0.949 . S
C1223 H1218 0.950 . S
C1223 C1225 1.327 . S
C1223 C1229 1.429 . S
C1224 C1216 1.574 . S
C1224 H1219 0.949 . S
C1224 C1230 1.368 . S
C1225 C1209 1.349 . S
C1225 H1217 0.950 . S
C1225 C1223 1.327 . S
C1226 C1214 1.349 . S
C1226 H1220 0.950 . S
C1226 C1227 1.327 . S
C1227 H1221 0.950 . S
C1227 C1226 1.327 . S
C1227 C1231 1.429 . S
C1228 C1211 1.574 . S
C1228 H1222 0.949 . S
C1228 C1232 1.368 . S
C1229 C1210 1.429 . S
C1229 C1223 1.429 . S
C1229 C1230 1.523 . S
C1230 C1211 1.368 . S
C1230 C1224 1.368 . S
C1230 C1229 1.523 . S
C1231 C1215 1.429 . S
C1231 C1227 1.429 . S
C1231 C1232 1.523 . S
C1232 C1216 1.368 . S
C1232 C1228 1.368 . S
C1232 C1231 1.523 . S
H1233 C1208 0.950 . S
H1234 C1210 0.950 . S
H1235 C1211 0.949 . S
H1236 C1213 0.950 . S
H1237 C1215 0.950 . S
C1238 C1239 1.349 . S
C1238 C1240 1.327 . S
C1238 H1263 0.950 . S
C1239 C1238 1.349 . S
C1239 C1255 1.349 . S
C1240 C1238 1.327 . S
C1240 C1259 1.429 . S
C1240 H1264 0.950 . S
C1241 C1258 1.574 . S
C1241 C1260 1.368 . S
C1241 H1265 0.949 . S
H1242 C1246 0.949 . S
C1243 C1244 1.349 . S
C1243 C1245 1.327 . S
C1243 H1266 0.950 . S
C1244 C1243 1.349 . S
C1244 C1256 1.349 . S
C1245 C1243 1.327 . S
C1245 C1261 1.429 . S
C1245 H1267 0.950 . S
C1246 H1242 0.949 . S
C1246 C1254 1.574 . S
C1246 C1262 1.368 . S
H1247 C1255 0.950 . S
H1248 C1253 0.950 . S
H1249 C1254 0.949 . S
H1250 C1256 0.950 . S
H1251 C1257 0.950 . S
H1252 C1258 0.949 . S
C1253 H1248 0.950 . S
C1253 C1255 1.327 . S
C1253 C1259 1.429 . S
C1254 C1246 1.574 . S
C1254 H1249 0.949 . S
C1254 C1260 1.368 . S
C1255 C1239 1.349 . S
C1255 H1247 0.950 . S
C1255 C1253 1.327 . S
C1256 C1244 1.349 . S
C1256 H1250 0.950 . S
C1256 C1257 1.327 . S
C1257 H1251 0.950 . S
C1257 C1256 1.327 . S
C1257 C1261 1.429 . S
C1258 C1241 1.574 . S
C1258 H1252 0.949 . S
C1258 C1262 1.368 . S
C1259 C1240 1.429 . S
C1259 C1253 1.429 . S
C1259 C1260 1.523 . S
C1260 C1241 1.368 . S
C1260 C1254 1.368 . S
C1260 C1259 1.523 . S
C1261 C1245 1.429 . S
C1261 C1257 1.429 . S
C1261 C1262 1.523 . S
C1262 C1246 1.368 . S
C1262 C1258 1.368 . S
C1262 C1261 1.523 . S
H1263 C1238 0.950 . S
H1264 C1240 0.950 . S
H1265 C1241 0.949 . S
H1266 C1243 0.950 . S
H1267 C1245 0.950 . S
C1268 C1269 1.349 . S
C1268 C1270 1.327 . S
C1268 H1293 0.950 . S
C1269 C1268 1.349 . S
C1269 C1285 1.349 . S
C1270 C1268 1.327 . S
C1270 C1289 1.429 . S
C1270 H1294 0.950 . S
C1271 C1288 1.574 . S
C1271 C1290 1.368 . S
C1271 H1295 0.949 . S
H1272 C1276 0.949 . S
C1273 C1274 1.349 . S
C1273 C1275 1.327 . S
C1273 H1296 0.950 . S
C1274 C1273 1.349 . S
C1274 C1286 1.349 . S
C1275 C1273 1.327 . S
C1275 C1291 1.429 . S
C1275 H1297 0.950 . S
C1276 H1272 0.949 . S
C1276 C1284 1.574 . S
C1276 C1292 1.368 . S
H1277 C1285 0.950 . S
H1278 C1283 0.950 . S
H1279 C1284 0.949 . S
H1280 C1286 0.950 . S
H1281 C1287 0.950 . S
H1282 C1288 0.949 . S
C1283 H1278 0.950 . S
C1283 C1285 1.327 . S
C1283 C1289 1.429 . S
C1284 C1276 1.574 . S
C1284 H1279 0.949 . S
C1284 C1290 1.368 . S
C1285 C1269 1.349 . S
C1285 H1277 0.950 . S
C1285 C1283 1.327 . S
C1286 C1274 1.349 . S
C1286 H1280 0.950 . S
C1286 C1287 1.327 . S
C1287 H1281 0.950 . S
C1287 C1286 1.327 . S
C1287 C1291 1.429 . S
C1288 C1271 1.574 . S
C1288 H1282 0.949 . S
C1288 C1292 1.368 . S
C1289 C1270 1.429 . S
C1289 C1283 1.429 . S
C1289 C1290 1.523 . S
C1290 C1271 1.368 . S
C1290 C1284 1.368 . S
C1290 C1289 1.523 . S
C1291 C1275 1.429 . S
C1291 C1287 1.429 . S
C1291 C1292 1.523 . S
C1292 C1276 1.368 . S
C1292 C1288 1.368 . S
C1292 C1291 1.523 . S
H1293 C1268 0.950 . S
H1294 C1270 0.950 . S
H1295 C1271 0.949 . S
H1296 C1273 0.950 . S
H1297 C1275 0.950 . S
C1298 C1299 1.349 . S
C1298 C1300 1.327 . S
C1298 H1323 0.950 . S
C1299 C1298 1.349 . S
C1299 C1315 1.349 . S
C1300 C1298 1.327 . S
C1300 C1319 1.429 . S
C1300 H1324 0.950 . S
C1301 C1318 1.574 . S
C1301 C1320 1.368 . S
C1301 H1325 0.949 . S
H1302 C1306 0.949 . S
C1303 C1304 1.349 . S
C1303 C1305 1.327 . S
C1303 H1326 0.950 . S
C1304 C1303 1.349 . S
C1304 C1316 1.349 . S
C1305 C1303 1.327 . S
C1305 C1321 1.429 . S
C1305 H1327 0.950 . S
C1306 H1302 0.949 . S
C1306 C1314 1.574 . S
C1306 C1322 1.368 . S
H1307 C1315 0.950 . S
H1308 C1313 0.950 . S
H1309 C1314 0.949 . S
H1310 C1316 0.950 . S
H1311 C1317 0.950 . S
H1312 C1318 0.949 . S
C1313 H1308 0.950 . S
C1313 C1315 1.327 . S
C1313 C1319 1.429 . S
C1314 C1306 1.574 . S
C1314 H1309 0.949 . S
C1314 C1320 1.368 . S
C1315 C1299 1.349 . S
C1315 H1307 0.950 . S
C1315 C1313 1.327 . S
C1316 C1304 1.349 . S
C1316 H1310 0.950 . S
C1316 C1317 1.327 . S
C1317 H1311 0.950 . S
C1317 C1316 1.327 . S
C1317 C1321 1.429 . S
C1318 C1301 1.574 . S
C1318 H1312 0.949 . S
C1318 C1322 1.368 . S
C1319 C1300 1.429 . S
C1319 C1313 1.429 . S
C1319 C1320 1.523 . S
C1320 C1301 1.368 . S
C1320 C1314 1.368 . S
C1320 C1319 1.523 . S
C1321 C1305 1.429 . S
C1321 C1317 1.429 . S
C1321 C1322 1.523 . S
C1322 C1306 1.368 . S
C1322 C1318 1.368 . S
C1322 C1321 1.523 . S
H1323 C1298 0.950 . S
H1324 C1300 0.950 . S
H1325 C1301 0.949 . S
H1326 C1303 0.950 . S
H1327 C1305 0.950 . S
C1328 C1329 1.349 . S
C1328 C1330 1.327 . S
C1328 H1353 0.950 . S
C1329 C1328 1.349 . S
C1329 C1345 1.349 . S
C1330 C1328 1.327 . S
C1330 C1349 1.429 . S
C1330 H1354 0.950 . S
C1331 C1348 1.574 . S
C1331 C1350 1.368 . S
C1331 H1355 0.949 . S
H1332 C1336 0.949 . S
C1333 C1334 1.349 . S
C1333 C1335 1.327 . S
C1333 H1356 0.950 . S
C1334 C1333 1.349 . S
C1334 C1346 1.349 . S
C1335 C1333 1.327 . S
C1335 C1351 1.429 . S
C1335 H1357 0.950 . S
C1336 H1332 0.949 . S
C1336 C1344 1.574 . S
C1336 C1352 1.368 . S
H1337 C1345 0.950 . S
H1338 C1343 0.950 . S
H1339 C1344 0.949 . S
H1340 C1346 0.950 . S
H1341 C1347 0.950 . S
H1342 C1348 0.949 . S
C1343 H1338 0.950 . S
C1343 C1345 1.327 . S
C1343 C1349 1.429 . S
C1344 C1336 1.574 . S
C1344 H1339 0.949 . S
C1344 C1350 1.368 . S
C1345 C1329 1.349 . S
C1345 H1337 0.950 . S
C1345 C1343 1.327 . S
C1346 C1334 1.349 . S
C1346 H1340 0.950 . S
C1346 C1347 1.327 . S
C1347 H1341 0.950 . S
C1347 C1346 1.327 . S
C1347 C1351 1.429 . S
C1348 C1331 1.574 . S
C1348 H1342 0.949 . S
C1348 C1352 1.368 . S
C1349 C1330 1.429 . S
C1349 C1343 1.429 . S
C1349 C1350 1.523 . S
C1350 C1331 1.368 . S
C1350 C1344 1.368 . S
C1350 C1349 1.523 . S
C1351 C1335 1.429 . S
C1351 C1347 1.429 . S
C1351 C1352 1.523 . S
C1352 C1336 1.368 . S
C1352 C1348 1.368 . S
C1352 C1351 1.523 . S
H1353 C1328 0.950 . S
H1354 C1330 0.950 . S
H1355 C1331 0.949 . S
H1356 C1333 0.950 . S
H1357 C1335 0.950 . S
C1358 C1359 1.349 . S
C1358 C1360 1.327 . S
C1358 H1383 0.950 . S
C1359 C1358 1.349 . S
C1359 C1375 1.349 . S
C1360 C1358 1.327 . S
C1360 C1379 1.429 . S
C1360 H1384 0.950 . S
C1361 C1378 1.574 . S
C1361 C1380 1.368 . S
C1361 H1385 0.949 . S
H1362 C1366 0.949 . S
C1363 C1364 1.349 . S
C1363 C1365 1.327 . S
C1363 H1386 0.950 . S
C1364 C1363 1.349 . S
C1364 C1376 1.349 . S
C1365 C1363 1.327 . S
C1365 C1381 1.429 . S
C1365 H1387 0.950 . S
C1366 H1362 0.949 . S
C1366 C1374 1.574 . S
C1366 C1382 1.368 . S
H1367 C1375 0.950 . S
H1368 C1373 0.950 . S
H1369 C1374 0.949 . S
H1370 C1376 0.950 . S
H1371 C1377 0.950 . S
H1372 C1378 0.949 . S
C1373 H1368 0.950 . S
C1373 C1375 1.327 . S
C1373 C1379 1.429 . S
C1374 C1366 1.574 . S
C1374 H1369 0.949 . S
C1374 C1380 1.368 . S
C1375 C1359 1.349 . S
C1375 H1367 0.950 . S
C1375 C1373 1.327 . S
C1376 C1364 1.349 . S
C1376 H1370 0.950 . S
C1376 C1377 1.327 . S
C1377 H1371 0.950 . S
C1377 C1376 1.327 . S
C1377 C1381 1.429 . S
C1378 C1361 1.574 . S
C1378 H1372 0.949 . S
C1378 C1382 1.368 . S
C1379 C1360 1.429 . S
C1379 C1373 1.429 . S
C1379 C1380 1.523 . S
C1380 C1361 1.368 . S
C1380 C1374 1.368 . S
C1380 C1379 1.523 . S
C1381 C1365 1.429 . S
C1381 C1377 1.429 . S
C1381 C1382 1.523 . S
C1382 C1366 1.368 . S
C1382 C1378 1.368 . S
C1382 C1381 1.523 . S
H1383 C1358 0.950 . S
H1384 C1360 0.950 . S
H1385 C1361 0.949 . S
H1386 C1363 0.950 . S
H1387 C1365 0.950 . S
C1388 C1389 1.349 . S
C1388 C1390 1.327 . S
C1388 H1413 0.950 . S
C1389 C1388 1.349 . S
C1389 C1405 1.349 . S
C1390 C1388 1.327 . S
C1390 C1409 1.429 . S
C1390 H1414 0.950 . S
C1391 C1408 1.574 . S
C1391 C1410 1.368 . S
C1391 H1415 0.949 . S
H1392 C1396 0.949 . S
C1393 C1394 1.349 1_655 S
C1393 C1395 1.327 . S
C1393 H1416 0.950 1_655 S
C1394 C1393 1.349 1_455 S
C1394 C1406 1.349 1_455 S
C1395 C1393 1.327 . S
C1395 C1411 1.429 . S
C1395 H1417 0.950 . S
C1396 H1392 0.949 . S
C1396 C1404 1.574 . S
C1396 C1412 1.368 . S
H1397 C1405 0.950 . S
H1398 C1403 0.950 . S
H1399 C1404 0.949 . S
H1400 C1406 0.950 1_455 S
H1401 C1407 0.950 . S
H1402 C1408 0.949 . S
C1403 H1398 0.950 . S
C1403 C1405 1.327 . S
C1403 C1409 1.429 . S
C1404 C1396 1.574 . S
C1404 H1399 0.949 . S
C1404 C1410 1.368 . S
C1405 C1389 1.349 . S
C1405 H1397 0.950 . S
C1405 C1403 1.327 . S
C1406 C1394 1.349 1_655 S
C1406 H1400 0.950 1_655 S
C1406 C1407 1.327 . S
C1407 H1401 0.950 . S
C1407 C1406 1.327 . S
C1407 C1411 1.429 . S
C1408 C1391 1.574 . S
C1408 H1402 0.949 . S
C1408 C1412 1.368 . S
C1409 C1390 1.429 . S
C1409 C1403 1.429 . S
C1409 C1410 1.523 . S
C1410 C1391 1.368 . S
C1410 C1404 1.368 . S
C1410 C1409 1.523 . S
C1411 C1395 1.429 . S
C1411 C1407 1.429 . S
C1411 C1412 1.523 . S
C1412 C1396 1.368 . S
C1412 C1408 1.368 . S
C1412 C1411 1.523 . S
H1413 C1388 0.950 . S
H1414 C1390 0.950 . S
H1415 C1391 0.949 . S
H1416 C1393 0.950 1_455 S
H1417 C1395 0.950 . S
C1418 C1419 1.349 . S
C1418 C1420 1.327 . S
C1418 H1443 0.950 . S
C1419 C1418 1.349 . S
C1419 C1435 1.349 . S
C1420 C1418 1.327 . S
C1420 C1439 1.429 . S
C1420 H1444 0.950 . S
C1421 C1438 1.574 . S
C1421 C1440 1.368 . S
C1421 H1445 0.949 . S
H1422 C1426 0.949 . S
C1423 C1424 1.349 . S
C1423 C1425 1.327 . S
C1423 H1446 0.950 . S
C1424 C1423 1.349 . S
C1424 C1436 1.345 1_565 S
C1425 C1423 1.327 . S
C1425 C1441 1.429 . S
C1425 H1447 0.950 . S
C1426 H1422 0.949 . S
C1426 C1434 1.574 . S
C1426 C1442 1.368 . S
H1427 C1435 0.950 . S
H1428 C1433 0.950 . S
H1429 C1434 0.949 . S
H1430 C1436 0.999 . S
H1431 C1437 0.950 . S
H1432 C1438 0.949 . S
C1433 H1428 0.950 . S
C1433 C1435 1.327 . S
C1433 C1439 1.429 . S
C1434 C1426 1.574 . S
C1434 H1429 0.949 . S
C1434 C1440 1.368 . S
C1435 C1419 1.349 . S
C1435 H1427 0.950 . S
C1435 C1433 1.327 . S
C1436 C1424 1.345 1_545 S
C1436 H1430 0.999 . S
C1436 C1437 1.284 1_545 S
C1437 H1431 0.950 . S
C1437 C1436 1.284 1_565 S
C1437 C1441 1.429 . S
C1438 C1421 1.574 . S
C1438 H1432 0.949 . S
C1438 C1442 1.368 . S
C1439 C1420 1.429 . S
C1439 C1433 1.429 . S
C1439 C1440 1.523 . S
C1440 C1421 1.368 . S
C1440 C1434 1.368 . S
C1440 C1439 1.523 . S
C1441 C1425 1.429 . S
C1441 C1437 1.429 . S
C1441 C1442 1.523 . S
C1442 C1426 1.368 . S
C1442 C1438 1.368 . S
C1442 C1441 1.523 . S
H1443 C1418 0.950 . S
H1444 C1420 0.950 . S
H1445 C1421 0.949 . S
H1446 C1423 0.950 . S
H1447 C1425 0.950 . S
C1448 C1449 1.349 . S
C1448 C1450 1.327 . S
C1448 H1473 0.950 . S
C1449 C1448 1.349 . S
C1449 C1465 1.349 . S
C1450 C1448 1.327 . S
C1450 C1469 1.429 . S
C1450 H1474 0.950 . S
C1451 C1468 1.574 . S
C1451 C1470 1.368 . S
C1451 H1475 0.949 . S
H1452 C1456 0.949 . S
C1453 C1454 1.349 . S
C1453 C1455 1.327 . S
C1453 H1476 0.950 . S
C1454 C1453 1.349 . S
C1454 C1466 1.349 . S
C1455 C1453 1.327 . S
C1455 C1471 1.429 . S
C1455 H1477 0.950 . S
C1456 H1452 0.949 . S
C1456 C1464 1.574 . S
C1456 C1472 1.368 . S
H1457 C1465 0.950 . S
H1458 C1463 0.950 . S
H1459 C1464 0.949 . S
H1460 C1466 0.950 . S
H1461 C1467 0.950 . S
H1462 C1468 0.949 . S
C1463 H1458 0.950 . S
C1463 C1465 1.327 . S
C1463 C1469 1.429 . S
C1464 C1456 1.574 . S
C1464 H1459 0.949 . S
C1464 C1470 1.368 . S
C1465 C1449 1.349 . S
C1465 H1457 0.950 . S
C1465 C1463 1.327 . S
C1466 C1454 1.349 . S
C1466 H1460 0.950 . S
C1466 C1467 1.327 . S
C1467 H1461 0.950 . S
C1467 C1466 1.327 . S
C1467 C1471 1.429 . S
C1468 C1451 1.574 . S
C1468 H1462 0.949 . S
C1468 C1472 1.368 . S
C1469 C1450 1.429 . S
C1469 C1463 1.429 . S
C1469 C1470 1.523 . S
C1470 C1451 1.368 . S
C1470 C1464 1.368 . S
C1470 C1469 1.523 . S
C1471 C1455 1.429 . S
C1471 C1467 1.429 . S
C1471 C1472 1.523 . S
C1472 C1456 1.368 . S
C1472 C1468 1.368 . S
C1472 C1471 1.523 . S
H1473 C1448 0.950 . S
H1474 C1450 0.950 . S
H1475 C1451 0.949 . S
H1476 C1453 0.950 . S
H1477 C1455 0.950 . S
C1478 C1479 1.349 . S
C1478 C1480 1.327 . S
C1478 H1503 0.950 . S
C1479 C1478 1.349 . S
C1479 C1495 1.349 . S
C1480 C1478 1.327 . S
C1480 C1499 1.429 . S
C1480 H1504 0.950 . S
C1481 C1498 1.574 . S
C1481 C1500 1.368 . S
C1481 H1505 0.949 . S
H1482 C1486 0.949 . S
C1483 C1484 1.349 . S
C1483 C1485 1.327 . S
C1483 H1506 0.950 . S
C1484 C1483 1.349 . S
C1484 C1496 1.349 . S
C1485 C1483 1.327 . S
C1485 C1501 1.429 . S
C1485 H1507 0.950 . S
C1486 H1482 0.949 . S
C1486 C1494 1.574 . S
C1486 C1502 1.368 . S
H1487 C1495 0.950 . S
H1488 C1493 0.950 . S
H1489 C1494 0.949 . S
H1490 C1496 0.950 . S
H1491 C1497 0.950 . S
H1492 C1498 0.949 . S
C1493 H1488 0.950 . S
C1493 C1495 1.327 . S
C1493 C1499 1.429 . S
C1494 C1486 1.574 . S
C1494 H1489 0.949 . S
C1494 C1500 1.368 . S
C1495 C1479 1.349 . S
C1495 H1487 0.950 . S
C1495 C1493 1.327 . S
C1496 C1484 1.349 . S
C1496 H1490 0.950 . S
C1496 C1497 1.327 . S
C1497 H1491 0.950 . S
C1497 C1496 1.327 . S
C1497 C1501 1.429 . S
C1498 C1481 1.574 . S
C1498 H1492 0.949 . S
C1498 C1502 1.368 . S
C1499 C1480 1.429 . S
C1499 C1493 1.429 . S
C1499 C1500 1.523 . S
C1500 C1481 1.368 . S
C1500 C1494 1.368 . S
C1500 C1499 1.523 . S
C1501 C1485 1.429 . S
C1501 C1497 1.429 . S
C1501 C1502 1.523 . S
C1502 C1486 1.368 . S
C1502 C1498 1.368 . S
C1502 C1501 1.523 . S
H1503 C1478 0.950 . S
H1504 C1480 0.950 . S
H1505 C1481 0.949 . S
H1506 C1483 0.950 . S
H1507 C1485 0.950 . S
C1508 C1509 1.349 . S
C1508 C1510 1.327 . S
C1508 H1533 0.950 . S
C1509 C1508 1.349 . S
C1509 C1525 1.349 . S
C1510 C1508 1.327 . S
C1510 C1529 1.429 . S
C1510 H1534 0.950 . S
C1511 C1528 1.574 . S
C1511 C1530 1.368 . S
C1511 H1535 0.949 . S
H1512 C1516 0.949 . S
C1513 C1514 1.349 . S
C1513 C1515 1.327 . S
C1513 H1536 0.950 . S
C1514 C1513 1.349 . S
C1514 C1526 1.349 . S
C1515 C1513 1.327 . S
C1515 C1531 1.429 . S
C1515 H1537 0.950 . S
C1516 H1512 0.949 . S
C1516 C1524 1.574 . S
C1516 C1532 1.368 . S
H1517 C1525 0.950 . S
H1518 C1523 0.950 . S
H1519 C1524 0.949 . S
H1520 C1526 0.950 . S
H1521 C1527 0.950 . S
H1522 C1528 0.949 . S
C1523 H1518 0.950 . S
C1523 C1525 1.327 . S
C1523 C1529 1.429 . S
C1524 C1516 1.574 . S
C1524 H1519 0.949 . S
C1524 C1530 1.368 . S
C1525 C1509 1.349 . S
C1525 H1517 0.950 . S
C1525 C1523 1.327 . S
C1526 C1514 1.349 . S
C1526 H1520 0.950 . S
C1526 C1527 1.327 . S
C1527 H1521 0.950 . S
C1527 C1526 1.327 . S
C1527 C1531 1.429 . S
C1528 C1511 1.574 . S
C1528 H1522 0.949 . S
C1528 C1532 1.368 . S
C1529 C1510 1.429 . S
C1529 C1523 1.429 . S
C1529 C1530 1.523 . S
C1530 C1511 1.368 . S
C1530 C1524 1.368 . S
C1530 C1529 1.523 . S
C1531 C1515 1.429 . S
C1531 C1527 1.429 . S
C1531 C1532 1.523 . S
C1532 C1516 1.368 . S
C1532 C1528 1.368 . S
C1532 C1531 1.523 . S
H1533 C1508 0.950 . S
H1534 C1510 0.950 . S
H1535 C1511 0.949 . S
H1536 C1513 0.950 . S
H1537 C1515 0.950 . S
C1538 C1539 1.349 . S
C1538 C1540 1.327 . S
C1538 H1563 0.950 . S
C1539 C1538 1.349 . S
C1539 C1555 1.349 . S
C1540 C1538 1.327 . S
C1540 C1559 1.429 . S
C1540 H1564 0.950 . S
C1541 C1558 1.574 . S
C1541 C1560 1.368 . S
C1541 H1565 0.949 . S
H1542 C1546 0.949 . S
C1543 C1544 1.349 . S
C1543 C1545 1.327 . S
C1543 H1566 0.950 . S
C1544 C1543 1.349 . S
C1544 C1556 1.349 . S
C1545 C1543 1.327 . S
C1545 C1561 1.429 . S
C1545 H1567 0.950 . S
C1546 H1542 0.949 . S
C1546 C1554 1.574 . S
C1546 C1562 1.368 . S
H1547 C1555 0.950 . S
H1548 C1553 0.950 . S
H1549 C1554 0.949 . S
H1550 C1556 0.950 . S
H1551 C1557 0.950 . S
H1552 C1558 0.949 . S
C1553 H1548 0.950 . S
C1553 C1555 1.327 . S
C1553 C1559 1.429 . S
C1554 C1546 1.574 . S
C1554 H1549 0.949 . S
C1554 C1560 1.368 . S
C1555 C1539 1.349 . S
C1555 H1547 0.950 . S
C1555 C1553 1.327 . S
C1556 C1544 1.349 . S
C1556 H1550 0.950 . S
C1556 C1557 1.327 . S
C1557 H1551 0.950 . S
C1557 C1556 1.327 . S
C1557 C1561 1.429 . S
C1558 C1541 1.574 . S
C1558 H1552 0.949 . S
C1558 C1562 1.368 . S
C1559 C1540 1.429 . S
C1559 C1553 1.429 . S
C1559 C1560 1.523 . S
C1560 C1541 1.368 . S
C1560 C1554 1.368 . S
C1560 C1559 1.523 . S
C1561 C1545 1.429 . S
C1561 C1557 1.429 . S
C1561 C1562 1.523 . S
C1562 C1546 1.368 . S
C1562 C1558 1.368 . S
C1562 C1561 1.523 . S
H1563 C1538 0.950 . S
H1564 C1540 0.950 . S
H1565 C1541 0.949 . S
H1566 C1543 0.950 . S
H1567 C1545 0.950 . S
C1568 C1569 1.349 . S
C1568 C1570 1.327 . S
C1568 H1593 0.950 . S
C1569 C1568 1.349 . S
C1569 C1585 1.349 . S
C1570 C1568 1.327 . S
C1570 C1589 1.429 . S
C1570 H1594 0.950 . S
C1571 C1588 1.574 . S
C1571 C1590 1.368 . S
C1571 H1595 0.949 . S
H1572 C1576 0.949 . S
C1573 C1574 1.349 . S
C1573 C1575 1.327 . S
C1573 H1596 0.950 . S
C1574 C1573 1.349 . S
C1574 C1586 1.349 . S
C1575 C1573 1.327 . S
C1575 C1591 1.429 . S
C1575 H1597 0.950 . S
C1576 H1572 0.949 . S
C1576 C1584 1.574 . S
C1576 C1592 1.368 . S
H1577 C1585 0.950 . S
H1578 C1583 0.950 . S
H1579 C1584 0.949 . S
H1580 C1586 0.950 . S
H1581 C1587 0.950 . S
H1582 C1588 0.949 . S
C1583 H1578 0.950 . S
C1583 C1585 1.327 . S
C1583 C1589 1.429 . S
C1584 C1576 1.574 . S
C1584 H1579 0.949 . S
C1584 C1590 1.368 . S
C1585 C1569 1.349 . S
C1585 H1577 0.950 . S
C1585 C1583 1.327 . S
C1586 C1574 1.349 . S
C1586 H1580 0.950 . S
C1586 C1587 1.327 . S
C1587 H1581 0.950 . S
C1587 C1586 1.327 . S
C1587 C1591 1.429 . S
C1588 C1571 1.574 . S
C1588 H1582 0.949 . S
C1588 C1592 1.368 . S
C1589 C1570 1.429 . S
C1589 C1583 1.429 . S
C1589 C1590 1.523 . S
C1590 C1571 1.368 . S
C1590 C1584 1.368 . S
C1590 C1589 1.523 . S
C1591 C1575 1.429 . S
C1591 C1587 1.429 . S
C1591 C1592 1.523 . S
C1592 C1576 1.368 . S
C1592 C1588 1.368 . S
C1592 C1591 1.523 . S
H1593 C1568 0.950 . S
H1594 C1570 0.950 . S
H1595 C1571 0.949 . S
H1596 C1573 0.950 . S
H1597 C1575 0.950 . S
C1598 C1599 1.349 . S
C1598 C1600 1.327 . S
C1598 H1623 0.950 . S
C1599 C1598 1.349 . S
C1599 C1615 1.349 . S
C1600 C1598 1.327 . S
C1600 C1619 1.429 . S
C1600 H1624 0.950 . S
C1601 C1618 1.574 . S
C1601 C1620 1.368 . S
C1601 H1625 0.949 . S
H1602 C1606 0.949 . S
C1603 C1604 1.349 . S
C1603 C1605 1.327 . S
C1603 H1626 0.950 . S
C1604 C1603 1.349 . S
C1604 C1616 1.349 . S
C1605 C1603 1.327 . S
C1605 C1621 1.429 . S
C1605 H1627 0.950 . S
C1606 H1602 0.949 . S
C1606 C1614 1.574 . S
C1606 C1622 1.368 . S
H1607 C1615 0.950 . S
H1608 C1613 0.950 . S
H1609 C1614 0.949 . S
H1610 C1616 0.950 . S
H1611 C1617 0.950 . S
H1612 C1618 0.949 . S
C1613 H1608 0.950 . S
C1613 C1615 1.327 . S
C1613 C1619 1.429 . S
C1614 C1606 1.574 . S
C1614 H1609 0.949 . S
C1614 C1620 1.368 . S
C1615 C1599 1.349 . S
C1615 H1607 0.950 . S
C1615 C1613 1.327 . S
C1616 C1604 1.349 . S
C1616 H1610 0.950 . S
C1616 C1617 1.327 . S
C1617 H1611 0.950 . S
C1617 C1616 1.327 . S
C1617 C1621 1.429 . S
C1618 C1601 1.574 . S
C1618 H1612 0.949 . S
C1618 C1622 1.368 . S
C1619 C1600 1.429 . S
C1619 C1613 1.429 . S
C1619 C1620 1.523 . S
C1620 C1601 1.368 . S
C1620 C1614 1.368 . S
C1620 C1619 1.523 . S
C1621 C1605 1.429 . S
C1621 C1617 1.429 . S
C1621 C1622 1.523 . S
C1622 C1606 1.368 . S
C1622 C1618 1.368 . S
C1622 C1621 1.523 . S
H1623 C1598 0.950 . S
H1624 C1600 0.950 . S
H1625 C1601 0.949 . S
H1626 C1603 0.950 . S
H1627 C1605 0.950 . S
C1628 C1629 1.349 . S
C1628 C1630 1.327 . S
C1628 H1653 0.950 . S
C1629 C1628 1.349 . S
C1629 C1645 1.349 . S
C1630 C1628 1.327 . S
C1630 C1649 1.429 . S
C1630 H1654 0.950 . S
C1631 C1648 1.574 . S
C1631 C1650 1.368 . S
C1631 H1655 0.949 . S
H1632 C1636 0.949 . S
C1633 C1634 1.349 . S
C1633 C1635 1.327 . S
C1633 H1656 0.950 . S
C1634 C1633 1.349 . S
C1634 C1646 1.349 . S
C1635 C1633 1.327 . S
C1635 C1651 1.429 . S
C1635 H1657 0.950 . S
C1636 H1632 0.949 . S
C1636 C1644 1.574 . S
C1636 C1652 1.368 . S
H1637 C1645 0.950 . S
H1638 C1643 0.950 . S
H1639 C1644 0.949 . S
H1640 C1646 0.950 . S
H1641 C1647 0.950 . S
H1642 C1648 0.949 . S
C1643 H1638 0.950 . S
C1643 C1645 1.327 . S
C1643 C1649 1.429 . S
C1644 C1636 1.574 . S
C1644 H1639 0.949 . S
C1644 C1650 1.368 . S
C1645 C1629 1.349 . S
C1645 H1637 0.950 . S
C1645 C1643 1.327 . S
C1646 C1634 1.349 . S
C1646 H1640 0.950 . S
C1646 C1647 1.327 . S
C1647 H1641 0.950 . S
C1647 C1646 1.327 . S
C1647 C1651 1.429 . S
C1648 C1631 1.574 . S
C1648 H1642 0.949 . S
C1648 C1652 1.368 . S
C1649 C1630 1.429 . S
C1649 C1643 1.429 . S
C1649 C1650 1.523 . S
C1650 C1631 1.368 . S
C1650 C1644 1.368 . S
C1650 C1649 1.523 . S
C1651 C1635 1.429 . S
C1651 C1647 1.429 . S
C1651 C1652 1.523 . S
C1652 C1636 1.368 . S
C1652 C1648 1.368 . S
C1652 C1651 1.523 . S
H1653 C1628 0.950 . S
H1654 C1630 0.950 . S
H1655 C1631 0.949 . S
H1656 C1633 0.950 . S
H1657 C1635 0.950 . S
C1658 C1659 1.349 . S
C1658 C1660 1.327 . S
C1658 H1683 0.950 . S
C1659 C1658 1.349 . S
C1659 C1675 1.349 . S
C1660 C1658 1.327 . S
C1660 C1679 1.429 . S
C1660 H1684 0.950 . S
C1661 C1678 1.574 . S
C1661 C1680 1.368 . S
C1661 H1685 0.949 . S
H1662 C1666 0.949 . S
C1663 C1664 1.349 . S
C1663 C1665 1.327 . S
C1663 H1686 0.950 . S
C1664 C1663 1.349 . S
C1664 C1676 1.349 . S
C1665 C1663 1.327 . S
C1665 C1681 1.429 . S
C1665 H1687 0.950 . S
C1666 H1662 0.949 . S
C1666 C1674 1.574 . S
C1666 C1682 1.368 . S
H1667 C1675 0.950 . S
H1668 C1673 0.950 . S
H1669 C1674 0.949 . S
H1670 C1676 0.950 . S
H1671 C1677 0.950 . S
H1672 C1678 0.949 . S
C1673 H1668 0.950 . S
C1673 C1675 1.327 . S
C1673 C1679 1.429 . S
C1674 C1666 1.574 . S
C1674 H1669 0.949 . S
C1674 C1680 1.368 . S
C1675 C1659 1.349 . S
C1675 H1667 0.950 . S
C1675 C1673 1.327 . S
C1676 C1664 1.349 . S
C1676 H1670 0.950 . S
C1676 C1677 1.327 . S
C1677 H1671 0.950 . S
C1677 C1676 1.327 . S
C1677 C1681 1.429 . S
C1678 C1661 1.574 . S
C1678 H1672 0.949 . S
C1678 C1682 1.368 . S
C1679 C1660 1.429 . S
C1679 C1673 1.429 . S
C1679 C1680 1.523 . S
C1680 C1661 1.368 . S
C1680 C1674 1.368 . S
C1680 C1679 1.523 . S
C1681 C1665 1.429 . S
C1681 C1677 1.429 . S
C1681 C1682 1.523 . S
C1682 C1666 1.368 . S
C1682 C1678 1.368 . S
C1682 C1681 1.523 . S
H1683 C1658 0.950 . S
H1684 C1660 0.950 . S
H1685 C1661 0.949 . S
H1686 C1663 0.950 . S
H1687 C1665 0.950 . S
C1688 C1689 1.349 . S
C1688 C1690 1.327 . S
C1688 H1713 0.950 . S
C1689 C1688 1.349 . S
C1689 C1705 1.349 . S
C1690 C1688 1.327 . S
C1690 C1709 1.429 . S
C1690 H1714 0.950 . S
C1691 C1708 1.574 . S
C1691 C1710 1.368 . S
C1691 H1715 0.949 . S
H1692 C1696 0.949 . S
C1693 C1694 1.349 . S
C1693 C1695 1.327 . S
C1693 H1716 0.950 . S
C1694 C1693 1.349 . S
C1694 C1706 1.349 . S
C1695 C1693 1.327 . S
C1695 C1711 1.429 . S
C1695 H1717 0.950 . S
C1696 H1692 0.949 . S
C1696 C1704 1.574 . S
C1696 C1712 1.368 . S
H1697 C1705 0.950 . S
H1698 C1703 0.950 . S
H1699 C1704 0.949 . S
H1700 C1706 0.950 . S
H1701 C1707 0.950 . S
H1702 C1708 0.949 . S
C1703 H1698 0.950 . S
C1703 C1705 1.327 . S
C1703 C1709 1.429 . S
C1704 C1696 1.574 . S
C1704 H1699 0.949 . S
C1704 C1710 1.368 . S
C1705 C1689 1.349 . S
C1705 H1697 0.950 . S
C1705 C1703 1.327 . S
C1706 C1694 1.349 . S
C1706 H1700 0.950 . S
C1706 C1707 1.327 . S
C1707 H1701 0.950 . S
C1707 C1706 1.327 . S
C1707 C1711 1.429 . S
C1708 C1691 1.574 . S
C1708 H1702 0.949 . S
C1708 C1712 1.368 . S
C1709 C1690 1.429 . S
C1709 C1703 1.429 . S
C1709 C1710 1.523 . S
C1710 C1691 1.368 . S
C1710 C1704 1.368 . S
C1710 C1709 1.523 . S
C1711 C1695 1.429 . S
C1711 C1707 1.429 . S
C1711 C1712 1.523 . S
C1712 C1696 1.368 . S
C1712 C1708 1.368 . S
C1712 C1711 1.523 . S
H1713 C1688 0.950 . S
H1714 C1690 0.950 . S
H1715 C1691 0.949 . S
H1716 C1693 0.950 . S
H1717 C1695 0.950 . S
C1718 C1719 1.349 . S
C1718 C1720 1.327 . S
C1718 H1743 0.950 . S
C1719 C1718 1.349 . S
C1719 C1735 1.349 . S
C1720 C1718 1.327 . S
C1720 C1739 1.429 . S
C1720 H1744 0.950 . S
C1721 C1738 1.574 . S
C1721 C1740 1.368 . S
C1721 H1745 0.949 . S
H1722 C1726 0.949 . S
C1723 C1724 1.349 . S
C1723 C1725 1.327 . S
C1723 H1746 0.950 . S
C1724 C1723 1.349 . S
C1724 C1736 1.349 . S
C1725 C1723 1.327 . S
C1725 C1741 1.429 . S
C1725 H1747 0.950 . S
C1726 H1722 0.949 . S
C1726 C1734 1.574 . S
C1726 C1742 1.368 . S
H1727 C1735 0.950 . S
H1728 C1733 0.950 . S
H1729 C1734 0.949 . S
H1730 C1736 0.950 . S
H1731 C1737 0.950 . S
H1732 C1738 0.949 . S
C1733 H1728 0.950 . S
C1733 C1735 1.327 . S
C1733 C1739 1.429 . S
C1734 C1726 1.574 . S
C1734 H1729 0.949 . S
C1734 C1740 1.368 . S
C1735 C1719 1.349 . S
C1735 H1727 0.950 . S
C1735 C1733 1.327 . S
C1736 C1724 1.349 . S
C1736 H1730 0.950 . S
C1736 C1737 1.327 . S
C1737 H1731 0.950 . S
C1737 C1736 1.327 . S
C1737 C1741 1.429 . S
C1738 C1721 1.574 . S
C1738 H1732 0.949 . S
C1738 C1742 1.368 . S
C1739 C1720 1.429 . S
C1739 C1733 1.429 . S
C1739 C1740 1.523 . S
C1740 C1721 1.368 . S
C1740 C1734 1.368 . S
C1740 C1739 1.523 . S
C1741 C1725 1.429 . S
C1741 C1737 1.429 . S
C1741 C1742 1.523 . S
C1742 C1726 1.368 . S
C1742 C1738 1.368 . S
C1742 C1741 1.523 . S
H1743 C1718 0.950 . S
H1744 C1720 0.950 . S
H1745 C1721 0.949 . S
H1746 C1723 0.950 . S
H1747 C1725 0.950 . S
C1748 C1749 1.349 . S
C1748 C1750 1.327 . S
C1748 H1773 0.950 . S
C1749 C1748 1.349 . S
C1749 C1765 1.349 . S
C1750 C1748 1.327 . S
C1750 C1769 1.429 . S
C1750 H1774 0.950 . S
C1751 C1768 1.574 . S
C1751 C1770 1.368 . S
C1751 H1775 0.949 . S
H1752 C1756 0.949 . S
C1753 C1754 1.349 . S
C1753 C1755 1.327 . S
C1753 H1776 0.950 . S
C1754 C1753 1.349 . S
C1754 C1766 1.349 . S
C1755 C1753 1.327 . S
C1755 C1771 1.429 . S
C1755 H1777 0.950 . S
C1756 H1752 0.949 . S
C1756 C1764 1.574 . S
C1756 C1772 1.368 . S
H1757 C1765 0.950 . S
H1758 C1763 0.950 . S
H1759 C1764 0.949 . S
H1760 C1766 0.950 . S
H1761 C1767 0.950 . S
H1762 C1768 0.949 . S
C1763 H1758 0.950 . S
C1763 C1765 1.327 . S
C1763 C1769 1.429 . S
C1764 C1756 1.574 . S
C1764 H1759 0.949 . S
C1764 C1770 1.368 . S
C1765 C1749 1.349 . S
C1765 H1757 0.950 . S
C1765 C1763 1.327 . S
C1766 C1754 1.349 . S
C1766 H1760 0.950 . S
C1766 C1767 1.327 . S
C1767 H1761 0.950 . S
C1767 C1766 1.327 . S
C1767 C1771 1.429 . S
C1768 C1751 1.574 . S
C1768 H1762 0.949 . S
C1768 C1772 1.368 . S
C1769 C1750 1.429 . S
C1769 C1763 1.429 . S
C1769 C1770 1.523 . S
C1770 C1751 1.368 . S
C1770 C1764 1.368 . S
C1770 C1769 1.523 . S
C1771 C1755 1.429 . S
C1771 C1767 1.429 . S
C1771 C1772 1.523 . S
C1772 C1756 1.368 . S
C1772 C1768 1.368 . S
C1772 C1771 1.523 . S
H1773 C1748 0.950 . S
H1774 C1750 0.950 . S
H1775 C1751 0.949 . S
H1776 C1753 0.950 . S
H1777 C1755 0.950 . S
C1778 C1779 1.349 . S
C1778 C1780 1.327 . S
C1778 H1803 0.950 . S
C1779 C1778 1.349 . S
C1779 C1795 1.349 . S
C1780 C1778 1.327 . S
C1780 C1799 1.429 . S
C1780 H1804 0.950 . S
C1781 C1798 1.574 . S
C1781 C1800 1.368 . S
C1781 H1805 0.949 . S
H1782 C1786 0.949 . S
C1783 C1784 1.349 . S
C1783 C1785 1.327 . S
C1783 H1806 0.950 . S
C1784 C1783 1.349 . S
C1784 C1796 1.349 . S
C1785 C1783 1.327 . S
C1785 C1801 1.429 . S
C1785 H1807 0.950 . S
C1786 H1782 0.949 . S
C1786 C1794 1.574 . S
C1786 C1802 1.368 . S
H1787 C1795 0.950 . S
H1788 C1793 0.950 . S
H1789 C1794 0.949 . S
H1790 C1796 0.950 . S
H1791 C1797 0.950 . S
H1792 C1798 0.949 . S
C1793 H1788 0.950 . S
C1793 C1795 1.327 . S
C1793 C1799 1.429 . S
C1794 C1786 1.574 . S
C1794 H1789 0.949 . S
C1794 C1800 1.368 . S
C1795 C1779 1.349 . S
C1795 H1787 0.950 . S
C1795 C1793 1.327 . S
C1796 C1784 1.349 . S
C1796 H1790 0.950 . S
C1796 C1797 1.327 . S
C1797 H1791 0.950 . S
C1797 C1796 1.327 . S
C1797 C1801 1.429 . S
C1798 C1781 1.574 . S
C1798 H1792 0.949 . S
C1798 C1802 1.368 . S
C1799 C1780 1.429 . S
C1799 C1793 1.429 . S
C1799 C1800 1.523 . S
C1800 C1781 1.368 . S
C1800 C1794 1.368 . S
C1800 C1799 1.523 . S
C1801 C1785 1.429 . S
C1801 C1797 1.429 . S
C1801 C1802 1.523 . S
C1802 C1786 1.368 . S
C1802 C1798 1.368 . S
C1802 C1801 1.523 . S
H1803 C1778 0.950 . S
H1804 C1780 0.950 . S
H1805 C1781 0.949 . S
H1806 C1783 0.950 . S
H1807 C1785 0.950 . S
C1808 C1809 1.349 . S
C1808 C1810 1.327 . S
C1808 H1833 0.950 . S
C1809 C1808 1.349 . S
C1809 C1825 1.349 . S
C1810 C1808 1.327 . S
C1810 C1829 1.429 . S
C1810 H1834 0.950 . S
C1811 C1828 1.574 . S
C1811 C1830 1.368 . S
C1811 H1835 0.949 . S
H1812 C1816 0.949 . S
C1813 C1814 1.349 . S
C1813 C1815 1.327 . S
C1813 H1836 0.950 . S
C1814 C1813 1.349 . S
C1814 C1826 1.349 . S
C1815 C1813 1.327 . S
C1815 C1831 1.429 . S
C1815 H1837 0.950 . S
C1816 H1812 0.949 . S
C1816 C1824 1.574 . S
C1816 C1832 1.368 . S
H1817 C1825 0.950 . S
H1818 C1823 0.950 . S
H1819 C1824 0.949 . S
H1820 C1826 0.950 . S
H1821 C1827 0.950 . S
H1822 C1828 0.949 . S
C1823 H1818 0.950 . S
C1823 C1825 1.327 . S
C1823 C1829 1.429 . S
C1824 C1816 1.574 . S
C1824 H1819 0.949 . S
C1824 C1830 1.368 . S
C1825 C1809 1.349 . S
C1825 H1817 0.950 . S
C1825 C1823 1.327 . S
C1826 C1814 1.349 . S
C1826 H1820 0.950 . S
C1826 C1827 1.327 . S
C1827 H1821 0.950 . S
C1827 C1826 1.327 . S
C1827 C1831 1.429 . S
C1828 C1811 1.574 . S
C1828 H1822 0.949 . S
C1828 C1832 1.368 . S
C1829 C1810 1.429 . S
C1829 C1823 1.429 . S
C1829 C1830 1.523 . S
C1830 C1811 1.368 . S
C1830 C1824 1.368 . S
C1830 C1829 1.523 . S
C1831 C1815 1.429 . S
C1831 C1827 1.429 . S
C1831 C1832 1.523 . S
C1832 C1816 1.368 . S
C1832 C1828 1.368 . S
C1832 C1831 1.523 . S
H1833 C1808 0.950 . S
H1834 C1810 0.950 . S
H1835 C1811 0.949 . S
H1836 C1813 0.950 . S
H1837 C1815 0.950 . S
C1838 C1839 1.349 . S
C1838 C1840 1.327 . S
C1838 H1863 0.950 . S
C1839 C1838 1.349 . S
C1839 C1855 1.349 . S
C1840 C1838 1.327 . S
C1840 C1859 1.429 . S
C1840 H1864 0.950 . S
C1841 C1858 1.574 . S
C1841 C1860 1.368 . S
C1841 H1865 0.949 . S
H1842 C1846 0.949 . S
C1843 C1844 1.349 . S
C1843 C1845 1.327 . S
C1843 H1866 0.950 . S
C1844 C1843 1.349 . S
C1844 C1856 1.349 . S
C1845 C1843 1.327 . S
C1845 C1861 1.429 . S
C1845 H1867 0.950 . S
C1846 H1842 0.949 . S
C1846 C1854 1.574 . S
C1846 C1862 1.368 . S
H1847 C1855 0.950 . S
H1848 C1853 0.950 . S
H1849 C1854 0.949 . S
H1850 C1856 0.950 . S
H1851 C1857 0.950 . S
H1852 C1858 0.949 . S
C1853 H1848 0.950 . S
C1853 C1855 1.327 . S
C1853 C1859 1.429 . S
C1854 C1846 1.574 . S
C1854 H1849 0.949 . S
C1854 C1860 1.368 . S
C1855 C1839 1.349 . S
C1855 H1847 0.950 . S
C1855 C1853 1.327 . S
C1856 C1844 1.349 . S
C1856 H1850 0.950 . S
C1856 C1857 1.327 . S
C1857 H1851 0.950 . S
C1857 C1856 1.327 . S
C1857 C1861 1.429 . S
C1858 C1841 1.574 . S
C1858 H1852 0.949 . S
C1858 C1862 1.368 . S
C1859 C1840 1.429 . S
C1859 C1853 1.429 . S
C1859 C1860 1.523 . S
C1860 C1841 1.368 . S
C1860 C1854 1.368 . S
C1860 C1859 1.523 . S
C1861 C1845 1.429 . S
C1861 C1857 1.429 . S
C1861 C1862 1.523 . S
C1862 C1846 1.368 . S
C1862 C1858 1.368 . S
C1862 C1861 1.523 . S
H1863 C1838 0.950 . S
H1864 C1840 0.950 . S
H1865 C1841 0.949 . S
H1866 C1843 0.950 . S
H1867 C1845 0.950 . S
C1868 C1869 1.349 . S
C1868 C1870 1.327 . S
C1868 H1893 0.950 . S
C1869 C1868 1.349 . S
C1869 C1885 1.349 . S
C1870 C1868 1.327 . S
C1870 C1889 1.429 . S
C1870 H1894 0.950 . S
C1871 C1888 1.574 . S
C1871 C1890 1.368 . S
C1871 H1895 0.949 . S
H1872 C1876 0.949 . S
C1873 C1874 1.349 . S
C1873 C1875 1.327 . S
C1873 H1896 0.950 . S
C1874 C1873 1.349 . S
C1874 C1886 1.349 . S
C1875 C1873 1.327 . S
C1875 C1891 1.429 . S
C1875 H1897 0.950 . S
C1876 H1872 0.949 . S
C1876 C1884 1.574 . S
C1876 C1892 1.368 . S
H1877 C1885 0.950 . S
H1878 C1883 0.950 . S
H1879 C1884 0.949 . S
H1880 C1886 0.950 . S
H1881 C1887 0.950 . S
H1882 C1888 0.949 . S
C1883 H1878 0.950 . S
C1883 C1885 1.327 . S
C1883 C1889 1.429 . S
C1884 C1876 1.574 . S
C1884 H1879 0.949 . S
C1884 C1890 1.368 . S
C1885 C1869 1.349 . S
C1885 H1877 0.950 . S
C1885 C1883 1.327 . S
C1886 C1874 1.349 . S
C1886 H1880 0.950 . S
C1886 C1887 1.327 . S
C1887 H1881 0.950 . S
C1887 C1886 1.327 . S
C1887 C1891 1.429 . S
C1888 C1871 1.574 . S
C1888 H1882 0.949 . S
C1888 C1892 1.368 . S
C1889 C1870 1.429 . S
C1889 C1883 1.429 . S
C1889 C1890 1.523 . S
C1890 C1871 1.368 . S
C1890 C1884 1.368 . S
C1890 C1889 1.523 . S
C1891 C1875 1.429 . S
C1891 C1887 1.429 . S
C1891 C1892 1.523 . S
C1892 C1876 1.368 . S
C1892 C1888 1.368 . S
C1892 C1891 1.523 . S
H1893 C1868 0.950 . S
H1894 C1870 0.950 . S
H1895 C1871 0.949 . S
H1896 C1873 0.950 . S
H1897 C1875 0.950 . S
C1898 C1899 1.349 . S
C1898 C1900 1.327 . S
C1898 H1923 0.950 . S
C1899 C1898 1.349 . S
C1899 C1915 1.349 . S
C1900 C1898 1.327 . S
C1900 C1919 1.429 . S
C1900 H1924 0.950 . S
C1901 C1918 1.574 . S
C1901 C1920 1.368 . S
C1901 H1925 0.949 . S
H1902 C1906 0.949 . S
C1903 C1904 1.349 . S
C1903 C1905 1.327 . S
C1903 H1926 0.950 . S
C1904 C1903 1.349 . S
C1904 C1916 1.349 . S
C1905 C1903 1.327 . S
C1905 C1921 1.429 . S
C1905 H1927 0.950 . S
C1906 H1902 0.949 . S
C1906 C1914 1.574 . S
C1906 C1922 1.368 . S
H1907 C1915 0.950 . S
H1908 C1913 0.950 . S
H1909 C1914 0.949 . S
H1910 C1916 0.950 . S
H1911 C1917 0.950 . S
H1912 C1918 0.949 . S
C1913 H1908 0.950 . S
C1913 C1915 1.327 . S
C1913 C1919 1.429 . S
C1914 C1906 1.574 . S
C1914 H1909 0.949 . S
C1914 C1920 1.368 . S
C1915 C1899 1.349 . S
C1915 H1907 0.950 . S
C1915 C1913 1.327 . S
C1916 C1904 1.349 . S
C1916 H1910 0.950 . S
C1916 C1917 1.327 . S
C1917 H1911 0.950 . S
C1917 C1916 1.327 . S
C1917 C1921 1.429 . S
C1918 C1901 1.574 . S
C1918 H1912 0.949 . S
C1918 C1922 1.368 . S
C1919 C1900 1.429 . S
C1919 C1913 1.429 . S
C1919 C1920 1.523 . S
C1920 C1901 1.368 . S
C1920 C1914 1.368 . S
C1920 C1919 1.523 . S
C1921 C1905 1.429 . S
C1921 C1917 1.429 . S
C1921 C1922 1.523 . S
C1922 C1906 1.368 . S
C1922 C1918 1.368 . S
C1922 C1921 1.523 . S
H1923 C1898 0.950 . S
H1924 C1900 0.950 . S
H1925 C1901 0.949 . S
H1926 C1903 0.950 . S
H1927 C1905 0.950 . S
C1928 C1929 1.349 . S
C1928 C1930 1.327 . S
C1928 H1953 0.950 . S
C1929 C1928 1.349 . S
C1929 C1945 1.349 . S
C1930 C1928 1.327 . S
C1930 C1949 1.429 . S
C1930 H1954 0.950 . S
C1931 C1948 1.574 . S
C1931 C1950 1.368 . S
C1931 H1955 0.949 . S
H1932 C1936 0.949 . S
C1933 C1934 1.349 . S
C1933 C1935 1.327 . S
C1933 H1956 0.950 . S
C1934 C1933 1.349 . S
C1934 C1946 1.349 . S
C1935 C1933 1.327 . S
C1935 C1951 1.429 . S
C1935 H1957 0.950 . S
C1936 H1932 0.949 . S
C1936 C1944 1.574 . S
C1936 C1952 1.368 . S
H1937 C1945 0.950 . S
H1938 C1943 0.950 . S
H1939 C1944 0.949 . S
H1940 C1946 0.950 . S
H1941 C1947 0.950 . S
H1942 C1948 0.949 . S
C1943 H1938 0.950 . S
C1943 C1945 1.327 . S
C1943 C1949 1.429 . S
C1944 C1936 1.574 . S
C1944 H1939 0.949 . S
C1944 C1950 1.368 . S
C1945 C1929 1.349 . S
C1945 H1937 0.950 . S
C1945 C1943 1.327 . S
C1946 C1934 1.349 . S
C1946 H1940 0.950 . S
C1946 C1947 1.327 . S
C1947 H1941 0.950 . S
C1947 C1946 1.327 . S
C1947 C1951 1.429 . S
C1948 C1931 1.574 . S
C1948 H1942 0.949 . S
C1948 C1952 1.368 . S
C1949 C1930 1.429 . S
C1949 C1943 1.429 . S
C1949 C1950 1.523 . S
C1950 C1931 1.368 . S
C1950 C1944 1.368 . S
C1950 C1949 1.523 . S
C1951 C1935 1.429 . S
C1951 C1947 1.429 . S
C1951 C1952 1.523 . S
C1952 C1936 1.368 . S
C1952 C1948 1.368 . S
C1952 C1951 1.523 . S
H1953 C1928 0.950 . S
H1954 C1930 0.950 . S
H1955 C1931 0.949 . S
H1956 C1933 0.950 . S
H1957 C1935 0.950 . S
C1958 C1959 1.349 . S
C1958 C1960 1.327 . S
C1958 H1983 0.950 . S
C1959 C1958 1.349 . S
C1959 C1975 1.349 . S
C1960 C1958 1.327 . S
C1960 C1979 1.429 . S
C1960 H1984 0.950 . S
C1961 C1978 1.574 . S
C1961 C1980 1.368 . S
C1961 H1985 0.949 . S
H1962 C1966 0.949 . S
C1963 C1964 1.349 . S
C1963 C1965 1.327 . S
C1963 H1986 0.950 . S
C1964 C1963 1.349 . S
C1964 C1976 1.349 . S
C1965 C1963 1.327 . S
C1965 C1981 1.429 . S
C1965 H1987 0.950 . S
C1966 H1962 0.949 . S
C1966 C1974 1.574 . S
C1966 C1982 1.368 . S
H1967 C1975 0.950 . S
H1968 C1973 0.950 . S
H1969 C1974 0.949 . S
H1970 C1976 0.950 . S
H1971 C1977 0.950 . S
H1972 C1978 0.949 . S
C1973 H1968 0.950 . S
C1973 C1975 1.327 . S
C1973 C1979 1.429 . S
C1974 C1966 1.574 . S
C1974 H1969 0.949 . S
C1974 C1980 1.368 . S
C1975 C1959 1.349 . S
C1975 H1967 0.950 . S
C1975 C1973 1.327 . S
C1976 C1964 1.349 . S
C1976 H1970 0.950 . S
C1976 C1977 1.327 . S
C1977 H1971 0.950 . S
C1977 C1976 1.327 . S
C1977 C1981 1.429 . S
C1978 C1961 1.574 . S
C1978 H1972 0.949 . S
C1978 C1982 1.368 . S
C1979 C1960 1.429 . S
C1979 C1973 1.429 . S
C1979 C1980 1.523 . S
C1980 C1961 1.368 . S
C1980 C1974 1.368 . S
C1980 C1979 1.523 . S
C1981 C1965 1.429 . S
C1981 C1977 1.429 . S
C1981 C1982 1.523 . S
C1982 C1966 1.368 . S
C1982 C1978 1.368 . S
C1982 C1981 1.523 . S
H1983 C1958 0.950 . S
H1984 C1960 0.950 . S
H1985 C1961 0.949 . S
H1986 C1963 0.950 . S
H1987 C1965 0.950 . S
C1988 C1989 1.349 . S
C1988 C1990 1.327 . S
C1988 H2013 0.950 . S
C1989 C1988 1.349 . S
C1989 C2005 1.349 . S
C1990 C1988 1.327 . S
C1990 C2009 1.429 . S
C1990 H2014 0.950 . S
C1991 C2008 1.574 . S
C1991 C2010 1.368 . S
C1991 H2015 0.949 . S
H1992 C1996 0.949 . S
C1993 C1994 1.349 . S
C1993 C1995 1.327 . S
C1993 H2016 0.950 . S
C1994 C1993 1.349 . S
C1994 C2006 1.349 . S
C1995 C1993 1.327 . S
C1995 C2011 1.429 . S
C1995 H2017 0.950 . S
C1996 H1992 0.949 . S
C1996 C2004 1.574 . S
C1996 C2012 1.368 . S
H1997 C2005 0.950 . S
H1998 C2003 0.950 . S
H1999 C2004 0.949 . S
H2000 C2006 0.950 . S
H2001 C2007 0.950 . S
H2002 C2008 0.949 . S
C2003 H1998 0.950 . S
C2003 C2005 1.327 . S
C2003 C2009 1.429 . S
C2004 C1996 1.574 . S
C2004 H1999 0.949 . S
C2004 C2010 1.368 . S
C2005 C1989 1.349 . S
C2005 H1997 0.950 . S
C2005 C2003 1.327 . S
C2006 C1994 1.349 . S
C2006 H2000 0.950 . S
C2006 C2007 1.327 . S
C2007 H2001 0.950 . S
C2007 C2006 1.327 . S
C2007 C2011 1.429 . S
C2008 C1991 1.574 . S
C2008 H2002 0.949 . S
C2008 C2012 1.368 . S
C2009 C1990 1.429 . S
C2009 C2003 1.429 . S
C2009 C2010 1.523 . S
C2010 C1991 1.368 . S
C2010 C2004 1.368 . S
C2010 C2009 1.523 . S
C2011 C1995 1.429 . S
C2011 C2007 1.429 . S
C2011 C2012 1.523 . S
C2012 C1996 1.368 . S
C2012 C2008 1.368 . S
C2012 C2011 1.523 . S
H2013 C1988 0.950 . S
H2014 C1990 0.950 . S
H2015 C1991 0.949 . S
H2016 C1993 0.950 . S
H2017 C1995 0.950 . S
C2018 C2019 1.349 . S
C2018 C2020 1.327 . S
C2018 H2043 0.950 . S
C2019 C2018 1.349 . S
C2019 C2035 1.349 . S
C2020 C2018 1.327 . S
C2020 C2039 1.429 . S
C2020 H2044 0.950 . S
C2021 C2038 1.574 . S
C2021 C2040 1.368 . S
C2021 H2045 0.949 . S
H2022 C2026 0.949 . S
C2023 C2024 1.349 . S
C2023 C2025 1.327 . S
C2023 H2046 0.950 . S
C2024 C2023 1.349 . S
C2024 C2036 1.349 . S
C2025 C2023 1.327 . S
C2025 C2041 1.429 . S
C2025 H2047 0.950 . S
C2026 H2022 0.949 . S
C2026 C2034 1.574 . S
C2026 C2042 1.368 . S
H2027 C2035 0.950 . S
H2028 C2033 0.950 . S
H2029 C2034 0.949 . S
H2030 C2036 0.950 . S
H2031 C2037 0.950 . S
H2032 C2038 0.949 . S
C2033 H2028 0.950 . S
C2033 C2035 1.327 . S
C2033 C2039 1.429 . S
C2034 C2026 1.574 . S
C2034 H2029 0.949 . S
C2034 C2040 1.368 . S
C2035 C2019 1.349 . S
C2035 H2027 0.950 . S
C2035 C2033 1.327 . S
C2036 C2024 1.349 . S
C2036 H2030 0.950 . S
C2036 C2037 1.327 . S
C2037 H2031 0.950 . S
C2037 C2036 1.327 . S
C2037 C2041 1.429 . S
C2038 C2021 1.574 . S
C2038 H2032 0.949 . S
C2038 C2042 1.368 . S
C2039 C2020 1.429 . S
C2039 C2033 1.429 . S
C2039 C2040 1.523 . S
C2040 C2021 1.368 . S
C2040 C2034 1.368 . S
C2040 C2039 1.523 . S
C2041 C2025 1.429 . S
C2041 C2037 1.429 . S
C2041 C2042 1.523 . S
C2042 C2026 1.368 . S
C2042 C2038 1.368 . S
C2042 C2041 1.523 . S
H2043 C2018 0.950 . S
H2044 C2020 0.950 . S
H2045 C2021 0.949 . S
H2046 C2023 0.950 . S
H2047 C2025 0.950 . S
C2048 C2049 1.349 . S
C2048 C2050 1.327 . S
C2048 H2073 0.950 . S
C2049 C2048 1.349 . S
C2049 C2065 1.349 . S
C2050 C2048 1.327 . S
C2050 C2069 1.429 . S
C2050 H2074 0.950 . S
C2051 C2068 1.574 . S
C2051 C2070 1.368 . S
C2051 H2075 0.949 . S
H2052 C2056 0.949 . S
C2053 C2054 1.349 . S
C2053 C2055 1.327 . S
C2053 H2076 0.950 . S
C2054 C2053 1.349 . S
C2054 C2066 1.349 . S
C2055 C2053 1.327 . S
C2055 C2071 1.429 . S
C2055 H2077 0.950 . S
C2056 H2052 0.949 . S
C2056 C2064 1.574 . S
C2056 C2072 1.368 . S
H2057 C2065 0.950 . S
H2058 C2063 0.950 . S
H2059 C2064 0.949 . S
H2060 C2066 0.950 . S
H2061 C2067 0.950 . S
H2062 C2068 0.949 . S
C2063 H2058 0.950 . S
C2063 C2065 1.327 . S
C2063 C2069 1.429 . S
C2064 C2056 1.574 . S
C2064 H2059 0.949 . S
C2064 C2070 1.368 . S
C2065 C2049 1.349 . S
C2065 H2057 0.950 . S
C2065 C2063 1.327 . S
C2066 C2054 1.349 . S
C2066 H2060 0.950 . S
C2066 C2067 1.327 . S
C2067 H2061 0.950 . S
C2067 C2066 1.327 . S
C2067 C2071 1.429 . S
C2068 C2051 1.574 . S
C2068 H2062 0.949 . S
C2068 C2072 1.368 . S
C2069 C2050 1.429 . S
C2069 C2063 1.429 . S
C2069 C2070 1.523 . S
C2070 C2051 1.368 . S
C2070 C2064 1.368 . S
C2070 C2069 1.523 . S
C2071 C2055 1.429 . S
C2071 C2067 1.429 . S
C2071 C2072 1.523 . S
C2072 C2056 1.368 . S
C2072 C2068 1.368 . S
C2072 C2071 1.523 . S
H2073 C2048 0.950 . S
H2074 C2050 0.950 . S
H2075 C2051 0.949 . S
H2076 C2053 0.950 . S
H2077 C2055 0.950 . S
C2078 C2079 1.349 . S
C2078 C2080 1.327 . S
C2078 H2103 0.950 . S
C2079 C2078 1.349 . S
C2079 C2095 1.349 . S
C2080 C2078 1.327 . S
C2080 C2099 1.429 . S
C2080 H2104 0.950 . S
C2081 C2098 1.574 . S
C2081 C2100 1.368 . S
C2081 H2105 0.949 . S
H2082 C2086 0.949 . S
C2083 C2084 1.349 . S
C2083 C2085 1.327 . S
C2083 H2106 0.950 . S
C2084 C2083 1.349 . S
C2084 C2096 1.349 . S
C2085 C2083 1.327 . S
C2085 C2101 1.429 . S
C2085 H2107 0.950 . S
C2086 H2082 0.949 . S
C2086 C2094 1.574 . S
C2086 C2102 1.368 . S
H2087 C2095 0.950 . S
H2088 C2093 0.950 . S
H2089 C2094 0.949 . S
H2090 C2096 0.950 . S
H2091 C2097 0.950 . S
H2092 C2098 0.949 . S
C2093 H2088 0.950 . S
C2093 C2095 1.327 . S
C2093 C2099 1.429 . S
C2094 C2086 1.574 . S
C2094 H2089 0.949 . S
C2094 C2100 1.368 . S
C2095 C2079 1.349 . S
C2095 H2087 0.950 . S
C2095 C2093 1.327 . S
C2096 C2084 1.349 . S
C2096 H2090 0.950 . S
C2096 C2097 1.327 . S
C2097 H2091 0.950 . S
C2097 C2096 1.327 . S
C2097 C2101 1.429 . S
C2098 C2081 1.574 . S
C2098 H2092 0.949 . S
C2098 C2102 1.368 . S
C2099 C2080 1.429 . S
C2099 C2093 1.429 . S
C2099 C2100 1.523 . S
C2100 C2081 1.368 . S
C2100 C2094 1.368 . S
C2100 C2099 1.523 . S
C2101 C2085 1.429 . S
C2101 C2097 1.429 . S
C2101 C2102 1.523 . S
C2102 C2086 1.368 . S
C2102 C2098 1.368 . S
C2102 C2101 1.523 . S
H2103 C2078 0.950 . S
H2104 C2080 0.950 . S
H2105 C2081 0.949 . S
H2106 C2083 0.950 . S
H2107 C2085 0.950 . S
C2108 C2109 1.349 . S
C2108 C2110 1.327 . S
C2108 H2133 0.950 . S
C2109 C2108 1.349 . S
C2109 C2125 1.349 . S
C2110 C2108 1.327 . S
C2110 C2129 1.429 . S
C2110 H2134 0.950 . S
C2111 C2128 1.574 . S
C2111 C2130 1.368 . S
C2111 H2135 0.949 . S
H2112 C2116 0.949 . S
C2113 C2114 1.349 . S
C2113 C2115 1.327 . S
C2113 H2136 0.950 . S
C2114 C2113 1.349 . S
C2114 C2126 1.349 . S
C2115 C2113 1.327 . S
C2115 C2131 1.429 . S
C2115 H2137 0.950 . S
C2116 H2112 0.949 . S
C2116 C2124 1.574 . S
C2116 C2132 1.368 . S
H2117 C2125 0.950 . S
H2118 C2123 0.950 . S
H2119 C2124 0.949 . S
H2120 C2126 0.950 . S
H2121 C2127 0.950 . S
H2122 C2128 0.949 . S
C2123 H2118 0.950 . S
C2123 C2125 1.327 . S
C2123 C2129 1.429 . S
C2124 C2116 1.574 . S
C2124 H2119 0.949 . S
C2124 C2130 1.368 . S
C2125 C2109 1.349 . S
C2125 H2117 0.950 . S
C2125 C2123 1.327 . S
C2126 C2114 1.349 . S
C2126 H2120 0.950 . S
C2126 C2127 1.327 . S
C2127 H2121 0.950 . S
C2127 C2126 1.327 . S
C2127 C2131 1.429 . S
C2128 C2111 1.574 . S
C2128 H2122 0.949 . S
C2128 C2132 1.368 . S
C2129 C2110 1.429 . S
C2129 C2123 1.429 . S
C2129 C2130 1.523 . S
C2130 C2111 1.368 . S
C2130 C2124 1.368 . S
C2130 C2129 1.523 . S
C2131 C2115 1.429 . S
C2131 C2127 1.429 . S
C2131 C2132 1.523 . S
C2132 C2116 1.368 . S
C2132 C2128 1.368 . S
C2132 C2131 1.523 . S
H2133 C2108 0.950 . S
H2134 C2110 0.950 . S
H2135 C2111 0.949 . S
H2136 C2113 0.950 . S
H2137 C2115 0.950 . S
C2138 C2139 1.349 . S
C2138 C2140 1.327 . S
C2138 H2163 0.950 . S
C2139 C2138 1.349 . S
C2139 C2155 1.349 . S
C2140 C2138 1.327 . S
C2140 C2159 1.429 . S
C2140 H2164 0.950 . S
C2141 C2158 1.574 . S
C2141 C2160 1.368 . S
C2141 H2165 0.949 . S
H2142 C2146 0.949 . S
C2143 C2144 1.349 . S
C2143 C2145 1.327 . S
C2143 H2166 0.950 . S
C2144 C2143 1.349 . S
C2144 C2156 1.349 . S
C2145 C2143 1.327 . S
C2145 C2161 1.429 . S
C2145 H2167 0.950 . S
C2146 H2142 0.949 . S
C2146 C2154 1.574 . S
C2146 C2162 1.368 . S
H2147 C2155 0.950 . S
H2148 C2153 0.950 . S
H2149 C2154 0.949 . S
H2150 C2156 0.950 . S
H2151 C2157 0.950 . S
H2152 C2158 0.949 . S
C2153 H2148 0.950 . S
C2153 C2155 1.327 . S
C2153 C2159 1.429 . S
C2154 C2146 1.574 . S
C2154 H2149 0.949 . S
C2154 C2160 1.368 . S
C2155 C2139 1.349 . S
C2155 H2147 0.950 . S
C2155 C2153 1.327 . S
C2156 C2144 1.349 . S
C2156 H2150 0.950 . S
C2156 C2157 1.327 . S
C2157 H2151 0.950 . S
C2157 C2156 1.327 . S
C2157 C2161 1.429 . S
C2158 C2141 1.574 . S
C2158 H2152 0.949 . S
C2158 C2162 1.368 . S
C2159 C2140 1.429 . S
C2159 C2153 1.429 . S
C2159 C2160 1.523 . S
C2160 C2141 1.368 . S
C2160 C2154 1.368 . S
C2160 C2159 1.523 . S
C2161 C2145 1.429 . S
C2161 C2157 1.429 . S
C2161 C2162 1.523 . S
C2162 C2146 1.368 . S
C2162 C2158 1.368 . S
C2162 C2161 1.523 . S
H2163 C2138 0.950 . S
H2164 C2140 0.950 . S
H2165 C2141 0.949 . S
H2166 C2143 0.950 . S
H2167 C2145 0.950 . S
C2168 C2169 1.349 . S
C2168 C2170 1.327 . S
C2168 H2193 0.950 . S
C2169 C2168 1.349 . S
C2169 C2185 1.349 . S
C2170 C2168 1.327 . S
C2170 C2189 1.429 . S
C2170 H2194 0.950 . S
C2171 C2188 1.574 . S
C2171 C2190 1.368 . S
C2171 H2195 0.949 . S
H2172 C2176 0.949 . S
C2173 C2174 1.349 . S
C2173 C2175 1.327 . S
C2173 H2196 0.950 . S
C2174 C2173 1.349 . S
C2174 C2186 1.349 . S
C2175 C2173 1.327 . S
C2175 C2191 1.429 . S
C2175 H2197 0.950 . S
C2176 H2172 0.949 . S
C2176 C2184 1.574 . S
C2176 C2192 1.368 . S
H2177 C2185 0.950 . S
H2178 C2183 0.950 . S
H2179 C2184 0.949 . S
H2180 C2186 0.950 . S
H2181 C2187 0.950 . S
H2182 C2188 0.949 . S
C2183 H2178 0.950 . S
C2183 C2185 1.327 . S
C2183 C2189 1.429 . S
C2184 C2176 1.574 . S
C2184 H2179 0.949 . S
C2184 C2190 1.368 . S
C2185 C2169 1.349 . S
C2185 H2177 0.950 . S
C2185 C2183 1.327 . S
C2186 C2174 1.349 . S
C2186 H2180 0.950 . S
C2186 C2187 1.327 . S
C2187 H2181 0.950 . S
C2187 C2186 1.327 . S
C2187 C2191 1.429 . S
C2188 C2171 1.574 . S
C2188 H2182 0.949 . S
C2188 C2192 1.368 . S
C2189 C2170 1.429 . S
C2189 C2183 1.429 . S
C2189 C2190 1.523 . S
C2190 C2171 1.368 . S
C2190 C2184 1.368 . S
C2190 C2189 1.523 . S
C2191 C2175 1.429 . S
C2191 C2187 1.429 . S
C2191 C2192 1.523 . S
C2192 C2176 1.368 . S
C2192 C2188 1.368 . S
C2192 C2191 1.523 . S
H2193 C2168 0.950 . S
H2194 C2170 0.950 . S
H2195 C2171 0.949 . S
H2196 C2173 0.950 . S
H2197 C2175 0.950 . S
C2198 C2199 1.349 . S
C2198 C2200 1.327 . S
C2198 H2223 0.950 . S
C2199 C2198 1.349 . S
C2199 C2215 1.349 . S
C2200 C2198 1.327 . S
C2200 C2219 1.429 . S
C2200 H2224 0.950 . S
C2201 C2218 1.574 . S
C2201 C2220 1.368 . S
C2201 H2225 0.949 . S
H2202 C2206 0.949 . S
C2203 C2204 1.349 . S
C2203 C2205 1.327 . S
C2203 H2226 0.950 . S
C2204 C2203 1.349 . S
C2204 C2216 1.349 . S
C2205 C2203 1.327 . S
C2205 C2221 1.429 . S
C2205 H2227 0.950 . S
C2206 H2202 0.949 . S
C2206 C2214 1.574 . S
C2206 C2222 1.368 . S
H2207 C2215 0.950 . S
H2208 C2213 0.950 . S
H2209 C2214 0.949 . S
H2210 C2216 0.950 . S
H2211 C2217 0.950 . S
H2212 C2218 0.949 . S
C2213 H2208 0.950 . S
C2213 C2215 1.327 . S
C2213 C2219 1.429 . S
C2214 C2206 1.574 . S
C2214 H2209 0.949 . S
C2214 C2220 1.368 . S
C2215 C2199 1.349 . S
C2215 H2207 0.950 . S
C2215 C2213 1.327 . S
C2216 C2204 1.349 . S
C2216 H2210 0.950 . S
C2216 C2217 1.327 . S
C2217 H2211 0.950 . S
C2217 C2216 1.327 . S
C2217 C2221 1.429 . S
C2218 C2201 1.574 . S
C2218 H2212 0.949 . S
C2218 C2222 1.368 . S
C2219 C2200 1.429 . S
C2219 C2213 1.429 . S
C2219 C2220 1.523 . S
C2220 C2201 1.368 . S
C2220 C2214 1.368 . S
C2220 C2219 1.523 . S
C2221 C2205 1.429 . S
C2221 C2217 1.429 . S
C2221 C2222 1.523 . S
C2222 C2206 1.368 . S
C2222 C2218 1.368 . S
C2222 C2221 1.523 . S
H2223 C2198 0.950 . S
H2224 C2200 0.950 . S
H2225 C2201 0.949 . S
H2226 C2203 0.950 . S
H2227 C2205 0.950 . S
C2228 C2229 1.349 . S
C2228 C2230 1.327 . S
C2228 H2253 0.950 . S
C2229 C2228 1.349 . S
C2229 C2245 1.349 . S
C2230 C2228 1.327 . S
C2230 C2249 1.429 . S
C2230 H2254 0.950 . S
C2231 C2248 1.574 . S
C2231 C2250 1.368 . S
C2231 H2255 0.949 . S
H2232 C2236 0.949 . S
C2233 C2234 1.349 . S
C2233 C2235 1.327 . S
C2233 H2256 0.950 . S
C2234 C2233 1.349 . S
C2234 C2246 1.349 . S
C2235 C2233 1.327 . S
C2235 C2251 1.429 . S
C2235 H2257 0.950 . S
C2236 H2232 0.949 . S
C2236 C2244 1.574 . S
C2236 C2252 1.368 . S
H2237 C2245 0.950 . S
H2238 C2243 0.950 . S
H2239 C2244 0.949 . S
H2240 C2246 0.950 . S
H2241 C2247 0.950 . S
H2242 C2248 0.949 . S
C2243 H2238 0.950 . S
C2243 C2245 1.327 . S
C2243 C2249 1.429 . S
C2244 C2236 1.574 . S
C2244 H2239 0.949 . S
C2244 C2250 1.368 . S
C2245 C2229 1.349 . S
C2245 H2237 0.950 . S
C2245 C2243 1.327 . S
C2246 C2234 1.349 . S
C2246 H2240 0.950 . S
C2246 C2247 1.327 . S
C2247 H2241 0.950 . S
C2247 C2246 1.327 . S
C2247 C2251 1.429 . S
C2248 C2231 1.574 . S
C2248 H2242 0.949 . S
C2248 C2252 1.368 . S
C2249 C2230 1.429 . S
C2249 C2243 1.429 . S
C2249 C2250 1.523 . S
C2250 C2231 1.368 . S
C2250 C2244 1.368 . S
C2250 C2249 1.523 . S
C2251 C2235 1.429 . S
C2251 C2247 1.429 . S
C2251 C2252 1.523 . S
C2252 C2236 1.368 . S
C2252 C2248 1.368 . S
C2252 C2251 1.523 . S
H2253 C2228 0.950 . S
H2254 C2230 0.950 . S
H2255 C2231 0.949 . S
H2256 C2233 0.950 . S
H2257 C2235 0.950 . S
C2258 C2259 1.349 . S
C2258 C2260 1.327 . S
C2258 H2283 0.950 . S
C2259 C2258 1.349 . S
C2259 C2275 1.349 . S
C2260 C2258 1.327 . S
C2260 C2279 1.429 . S
C2260 H2284 0.950 . S
C2261 C2278 1.574 . S
C2261 C2280 1.368 . S
C2261 H2285 0.949 . S
H2262 C2266 0.949 . S
C2263 C2264 1.349 . S
C2263 C2265 1.327 . S
C2263 H2286 0.950 . S
C2264 C2263 1.349 . S
C2264 C2276 1.349 . S
C2265 C2263 1.327 . S
C2265 C2281 1.429 . S
C2265 H2287 0.950 . S
C2266 H2262 0.949 . S
C2266 C2274 1.574 . S
C2266 C2282 1.368 . S
H2267 C2275 0.950 . S
H2268 C2273 0.950 . S
H2269 C2274 0.949 . S
H2270 C2276 0.950 . S
H2271 C2277 0.950 . S
H2272 C2278 0.949 . S
C2273 H2268 0.950 . S
C2273 C2275 1.327 . S
C2273 C2279 1.429 . S
C2274 C2266 1.574 . S
C2274 H2269 0.949 . S
C2274 C2280 1.368 . S
C2275 C2259 1.349 . S
C2275 H2267 0.950 . S
C2275 C2273 1.327 . S
C2276 C2264 1.349 . S
C2276 H2270 0.950 . S
C2276 C2277 1.327 . S
C2277 H2271 0.950 . S
C2277 C2276 1.327 . S
C2277 C2281 1.429 . S
C2278 C2261 1.574 . S
C2278 H2272 0.949 . S
C2278 C2282 1.368 . S
C2279 C2260 1.429 . S
C2279 C2273 1.429 . S
C2279 C2280 1.523 . S
C2280 C2261 1.368 . S
C2280 C2274 1.368 . S
C2280 C2279 1.523 . S
C2281 C2265 1.429 . S
C2281 C2277 1.429 . S
C2281 C2282 1.523 . S
C2282 C2266 1.368 . S
C2282 C2278 1.368 . S
C2282 C2281 1.523 . S
H2283 C2258 0.950 . S
H2284 C2260 0.950 . S
H2285 C2261 0.949 . S
H2286 C2263 0.950 . S
H2287 C2265 0.950 . S
C2288 C2289 1.349 . S
C2288 C2290 1.327 . S
C2288 H2313 0.950 . S
C2289 C2288 1.349 . S
C2289 C2305 1.349 . S
C2290 C2288 1.327 . S
C2290 C2309 1.429 . S
C2290 H2314 0.950 . S
C2291 C2308 1.574 . S
C2291 C2310 1.368 . S
C2291 H2315 0.949 . S
H2292 C2296 0.949 . S
C2293 C2294 1.349 . S
C2293 C2295 1.327 . S
C2293 H2316 0.950 . S
C2294 C2293 1.349 . S
C2294 C2306 1.349 . S
C2295 C2293 1.327 . S
C2295 C2311 1.429 . S
C2295 H2317 0.950 . S
C2296 H2292 0.949 . S
C2296 C2304 1.574 . S
C2296 C2312 1.368 . S
H2297 C2305 0.950 . S
H2298 C2303 0.950 . S
H2299 C2304 0.949 . S
H2300 C2306 0.950 . S
H2301 C2307 0.950 . S
H2302 C2308 0.949 . S
C2303 H2298 0.950 . S
C2303 C2305 1.327 . S
C2303 C2309 1.429 . S
C2304 C2296 1.574 . S
C2304 H2299 0.949 . S
C2304 C2310 1.368 . S
C2305 C2289 1.349 . S
C2305 H2297 0.950 . S
C2305 C2303 1.327 . S
C2306 C2294 1.349 . S
C2306 H2300 0.950 . S
C2306 C2307 1.327 . S
C2307 H2301 0.950 . S
C2307 C2306 1.327 . S
C2307 C2311 1.429 . S
C2308 C2291 1.574 . S
C2308 H2302 0.949 . S
C2308 C2312 1.368 . S
C2309 C2290 1.429 . S
C2309 C2303 1.429 . S
C2309 C2310 1.523 . S
C2310 C2291 1.368 . S
C2310 C2304 1.368 . S
C2310 C2309 1.523 . S
C2311 C2295 1.429 . S
C2311 C2307 1.429 . S
C2311 C2312 1.523 . S
C2312 C2296 1.368 . S
C2312 C2308 1.368 . S
C2312 C2311 1.523 . S
H2313 C2288 0.950 . S
H2314 C2290 0.950 . S
H2315 C2291 0.949 . S
H2316 C2293 0.950 . S
H2317 C2295 0.950 . S
C2318 C2319 1.349 . S
C2318 C2320 1.327 . S
C2318 H2343 0.950 . S
C2319 C2318 1.349 . S
C2319 C2335 1.349 . S
C2320 C2318 1.327 . S
C2320 C2339 1.429 . S
C2320 H2344 0.950 . S
C2321 C2338 1.574 . S
C2321 C2340 1.368 . S
C2321 H2345 0.949 . S
H2322 C2326 0.949 . S
C2323 C2324 1.349 . S
C2323 C2325 1.327 . S
C2323 H2346 0.950 . S
C2324 C2323 1.349 . S
C2324 C2336 1.349 . S
C2325 C2323 1.327 . S
C2325 C2341 1.429 . S
C2325 H2347 0.950 . S
C2326 H2322 0.949 . S
C2326 C2334 1.574 . S
C2326 C2342 1.368 . S
H2327 C2335 0.950 . S
H2328 C2333 0.950 . S
H2329 C2334 0.949 . S
H2330 C2336 0.950 . S
H2331 C2337 0.950 . S
H2332 C2338 0.949 . S
C2333 H2328 0.950 . S
C2333 C2335 1.327 . S
C2333 C2339 1.429 . S
C2334 C2326 1.574 . S
C2334 H2329 0.949 . S
C2334 C2340 1.368 . S
C2335 C2319 1.349 . S
C2335 H2327 0.950 . S
C2335 C2333 1.327 . S
C2336 C2324 1.349 . S
C2336 H2330 0.950 . S
C2336 C2337 1.327 . S
C2337 H2331 0.950 . S
C2337 C2336 1.327 . S
C2337 C2341 1.429 . S
C2338 C2321 1.574 . S
C2338 H2332 0.949 . S
C2338 C2342 1.368 . S
C2339 C2320 1.429 . S
C2339 C2333 1.429 . S
C2339 C2340 1.523 . S
C2340 C2321 1.368 . S
C2340 C2334 1.368 . S
C2340 C2339 1.523 . S
C2341 C2325 1.429 . S
C2341 C2337 1.429 . S
C2341 C2342 1.523 . S
C2342 C2326 1.368 . S
C2342 C2338 1.368 . S
C2342 C2341 1.523 . S
H2343 C2318 0.950 . S
H2344 C2320 0.950 . S
H2345 C2321 0.949 . S
H2346 C2323 0.950 . S
H2347 C2325 0.950 . S
C2348 C2349 1.349 . S
C2348 C2350 1.327 . S
C2348 H2373 0.950 . S
C2349 C2348 1.349 . S
C2349 C2365 1.349 . S
C2350 C2348 1.327 . S
C2350 C2369 1.429 . S
C2350 H2374 0.950 . S
C2351 C2368 1.574 . S
C2351 C2370 1.368 . S
C2351 H2375 0.949 . S
H2352 C2356 0.949 . S
C2353 C2354 1.349 . S
C2353 C2355 1.327 . S
C2353 H2376 0.950 . S
C2354 C2353 1.349 . S
C2354 C2366 1.349 . S
C2355 C2353 1.327 . S
C2355 C2371 1.429 . S
C2355 H2377 0.950 . S
C2356 H2352 0.949 . S
C2356 C2364 1.574 . S
C2356 C2372 1.368 . S
H2357 C2365 0.950 . S
H2358 C2363 0.950 . S
H2359 C2364 0.949 . S
H2360 C2366 0.950 . S
H2361 C2367 0.950 . S
H2362 C2368 0.949 . S
C2363 H2358 0.950 . S
C2363 C2365 1.327 . S
C2363 C2369 1.429 . S
C2364 C2356 1.574 . S
C2364 H2359 0.949 . S
C2364 C2370 1.368 . S
C2365 C2349 1.349 . S
C2365 H2357 0.950 . S
C2365 C2363 1.327 . S
C2366 C2354 1.349 . S
C2366 H2360 0.950 . S
C2366 C2367 1.327 . S
C2367 H2361 0.950 . S
C2367 C2366 1.327 . S
C2367 C2371 1.429 . S
C2368 C2351 1.574 . S
C2368 H2362 0.949 . S
C2368 C2372 1.368 . S
C2369 C2350 1.429 . S
C2369 C2363 1.429 . S
C2369 C2370 1.523 . S
C2370 C2351 1.368 . S
C2370 C2364 1.368 . S
C2370 C2369 1.523 . S
C2371 C2355 1.429 . S
C2371 C2367 1.429 . S
C2371 C2372 1.523 . S
C2372 C2356 1.368 . S
C2372 C2368 1.368 . S
C2372 C2371 1.523 . S
H2373 C2348 0.950 . S
H2374 C2350 0.950 . S
H2375 C2351 0.949 . S
H2376 C2353 0.950 . S
H2377 C2355 0.950 . S
C2378 C2379 1.349 . S
C2378 C2380 1.327 . S
C2378 H2403 0.950 . S
C2379 C2378 1.349 . S
C2379 C2395 1.349 . S
C2380 C2378 1.327 . S
C2380 C2399 1.429 . S
C2380 H2404 0.950 . S
C2381 C2398 1.574 . S
C2381 C2400 1.368 . S
C2381 H2405 0.949 . S
H2382 C2386 0.949 . S
C2383 C2384 1.349 . S
C2383 C2385 1.327 . S
C2383 H2406 0.950 . S
C2384 C2383 1.349 . S
C2384 C2396 1.349 . S
C2385 C2383 1.327 . S
C2385 C2401 1.429 . S
C2385 H2407 0.950 . S
C2386 H2382 0.949 . S
C2386 C2394 1.574 . S
C2386 C2402 1.368 . S
H2387 C2395 0.950 . S
H2388 C2393 0.950 . S
H2389 C2394 0.949 . S
H2390 C2396 0.950 . S
H2391 C2397 0.950 . S
H2392 C2398 0.949 . S
C2393 H2388 0.950 . S
C2393 C2395 1.327 . S
C2393 C2399 1.429 . S
C2394 C2386 1.574 . S
C2394 H2389 0.949 . S
C2394 C2400 1.368 . S
C2395 C2379 1.349 . S
C2395 H2387 0.950 . S
C2395 C2393 1.327 . S
C2396 C2384 1.349 . S
C2396 H2390 0.950 . S
C2396 C2397 1.327 . S
C2397 H2391 0.950 . S
C2397 C2396 1.327 . S
C2397 C2401 1.429 . S
C2398 C2381 1.574 . S
C2398 H2392 0.949 . S
C2398 C2402 1.368 . S
C2399 C2380 1.429 . S
C2399 C2393 1.429 . S
C2399 C2400 1.523 . S
C2400 C2381 1.368 . S
C2400 C2394 1.368 . S
C2400 C2399 1.523 . S
C2401 C2385 1.429 . S
C2401 C2397 1.429 . S
C2401 C2402 1.523 . S
C2402 C2386 1.368 . S
C2402 C2398 1.368 . S
C2402 C2401 1.523 . S
H2403 C2378 0.950 . S
H2404 C2380 0.950 . S
H2405 C2381 0.949 . S
H2406 C2383 0.950 . S
H2407 C2385 0.950 . S
C2408 C2409 1.349 . S
C2408 C2410 1.327 . S
C2408 H2433 0.950 . S
C2409 C2408 1.349 . S
C2409 C2425 1.349 . S
C2410 C2408 1.327 . S
C2410 C2429 1.429 . S
C2410 H2434 0.950 . S
C2411 C2428 1.574 . S
C2411 C2430 1.368 . S
C2411 H2435 0.949 . S
H2412 C2416 0.949 . S
C2413 C2414 1.349 . S
C2413 C2415 1.327 . S
C2413 H2436 0.950 . S
C2414 C2413 1.349 . S
C2414 C2426 1.349 . S
C2415 C2413 1.327 . S
C2415 C2431 1.429 . S
C2415 H2437 0.950 . S
C2416 H2412 0.949 . S
C2416 C2424 1.574 . S
C2416 C2432 1.368 . S
H2417 C2425 0.950 . S
H2418 C2423 0.950 . S
H2419 C2424 0.949 . S
H2420 C2426 0.950 . S
H2421 C2427 0.950 . S
H2422 C2428 0.949 . S
C2423 H2418 0.950 . S
C2423 C2425 1.327 . S
C2423 C2429 1.429 . S
C2424 C2416 1.574 . S
C2424 H2419 0.949 . S
C2424 C2430 1.368 . S
C2425 C2409 1.349 . S
C2425 H2417 0.950 . S
C2425 C2423 1.327 . S
C2426 C2414 1.349 . S
C2426 H2420 0.950 . S
C2426 C2427 1.327 . S
C2427 H2421 0.950 . S
C2427 C2426 1.327 . S
C2427 C2431 1.429 . S
C2428 C2411 1.574 . S
C2428 H2422 0.949 . S
C2428 C2432 1.368 . S
C2429 C2410 1.429 . S
C2429 C2423 1.429 . S
C2429 C2430 1.523 . S
C2430 C2411 1.368 . S
C2430 C2424 1.368 . S
C2430 C2429 1.523 . S
C2431 C2415 1.429 . S
C2431 C2427 1.429 . S
C2431 C2432 1.523 . S
C2432 C2416 1.368 . S
C2432 C2428 1.368 . S
C2432 C2431 1.523 . S
H2433 C2408 0.950 . S
H2434 C2410 0.950 . S
H2435 C2411 0.949 . S
H2436 C2413 0.950 . S
H2437 C2415 0.950 . S
C2438 C2439 1.349 . S
C2438 C2440 1.327 . S
C2438 H2463 0.950 . S
C2439 C2438 1.349 . S
C2439 C2455 1.349 . S
C2440 C2438 1.327 . S
C2440 C2459 1.429 . S
C2440 H2464 0.950 . S
C2441 C2458 1.574 . S
C2441 C2460 1.368 . S
C2441 H2465 0.949 . S
H2442 C2446 0.949 . S
C2443 C2444 1.349 . S
C2443 C2445 1.327 . S
C2443 H2466 0.950 . S
C2444 C2443 1.349 . S
C2444 C2456 1.349 . S
C2445 C2443 1.327 . S
C2445 C2461 1.429 . S
C2445 H2467 0.950 . S
C2446 H2442 0.949 . S
C2446 C2454 1.574 . S
C2446 C2462 1.368 . S
H2447 C2455 0.950 . S
H2448 C2453 0.950 . S
H2449 C2454 0.949 . S
H2450 C2456 0.950 . S
H2451 C2457 0.950 . S
H2452 C2458 0.949 . S
C2453 H2448 0.950 . S
C2453 C2455 1.327 . S
C2453 C2459 1.429 . S
C2454 C2446 1.574 . S
C2454 H2449 0.949 . S
C2454 C2460 1.368 . S
C2455 C2439 1.349 . S
C2455 H2447 0.950 . S
C2455 C2453 1.327 . S
C2456 C2444 1.349 . S
C2456 H2450 0.950 . S
C2456 C2457 1.327 . S
C2457 H2451 0.950 . S
C2457 C2456 1.327 . S
C2457 C2461 1.429 . S
C2458 C2441 1.574 . S
C2458 H2452 0.949 . S
C2458 C2462 1.368 . S
C2459 C2440 1.429 . S
C2459 C2453 1.429 . S
C2459 C2460 1.523 . S
C2460 C2441 1.368 . S
C2460 C2454 1.368 . S
C2460 C2459 1.523 . S
C2461 C2445 1.429 . S
C2461 C2457 1.429 . S
C2461 C2462 1.523 . S
C2462 C2446 1.368 . S
C2462 C2458 1.368 . S
C2462 C2461 1.523 . S
H2463 C2438 0.950 . S
H2464 C2440 0.950 . S
H2465 C2441 0.949 . S
H2466 C2443 0.950 . S
H2467 C2445 0.950 . S
C2468 C2469 1.349 . S
C2468 C2470 1.327 . S
C2468 H2493 0.950 . S
C2469 C2468 1.349 . S
C2469 C2485 1.349 . S
C2470 C2468 1.327 . S
C2470 C2489 1.429 . S
C2470 H2494 0.950 . S
C2471 C2488 1.574 . S
C2471 C2490 1.368 . S
C2471 H2495 0.949 . S
H2472 C2476 0.949 . S
C2473 C2474 1.349 . S
C2473 C2475 1.327 . S
C2473 H2496 0.950 . S
C2474 C2473 1.349 . S
C2474 C2486 1.349 . S
C2475 C2473 1.327 . S
C2475 C2491 1.429 . S
C2475 H2497 0.950 . S
C2476 H2472 0.949 . S
C2476 C2484 1.574 . S
C2476 C2492 1.368 . S
H2477 C2485 0.950 . S
H2478 C2483 0.950 . S
H2479 C2484 0.949 . S
H2480 C2486 0.950 . S
H2481 C2487 0.950 . S
H2482 C2488 0.949 . S
C2483 H2478 0.950 . S
C2483 C2485 1.327 . S
C2483 C2489 1.429 . S
C2484 C2476 1.574 . S
C2484 H2479 0.949 . S
C2484 C2490 1.368 . S
C2485 C2469 1.349 . S
C2485 H2477 0.950 . S
C2485 C2483 1.327 . S
C2486 C2474 1.349 . S
C2486 H2480 0.950 . S
C2486 C2487 1.327 . S
C2487 H2481 0.950 . S
C2487 C2486 1.327 . S
C2487 C2491 1.429 . S
C2488 C2471 1.574 . S
C2488 H2482 0.949 . S
C2488 C2492 1.368 . S
C2489 C2470 1.429 . S
C2489 C2483 1.429 . S
C2489 C2490 1.523 . S
C2490 C2471 1.368 . S
C2490 C2484 1.368 . S
C2490 C2489 1.523 . S
C2491 C2475 1.429 . S
C2491 C2487 1.429 . S
C2491 C2492 1.523 . S
C2492 C2476 1.368 . S
C2492 C2488 1.368 . S
C2492 C2491 1.523 . S
H2493 C2468 0.950 . S
H2494 C2470 0.950 . S
H2495 C2471 0.949 . S
H2496 C2473 0.950 . S
H2497 C2475 0.950 . S
C2498 C2499 1.349 . S
C2498 C2500 1.327 . S
C2498 H2523 0.950 . S
C2499 C2498 1.349 . S
C2499 C2515 1.349 . S
C2500 C2498 1.327 . S
C2500 C2519 1.429 . S
C2500 H2524 0.950 . S
C2501 C2518 1.574 . S
C2501 C2520 1.368 . S
C2501 H2525 0.949 . S
H2502 C2506 0.949 . S
C2503 C2504 1.349 . S
C2503 C2505 1.327 . S
C2503 H2526 0.950 . S
C2504 C2503 1.349 . S
C2504 C2516 1.349 . S
C2505 C2503 1.327 . S
C2505 C2521 1.429 . S
C2505 H2527 0.950 . S
C2506 H2502 0.949 . S
C2506 C2514 1.574 . S
C2506 C2522 1.368 . S
H2507 C2515 0.950 . S
H2508 C2513 0.950 . S
H2509 C2514 0.949 . S
H2510 C2516 0.950 . S
H2511 C2517 0.950 . S
H2512 C2518 0.949 . S
C2513 H2508 0.950 . S
C2513 C2515 1.327 . S
C2513 C2519 1.429 . S
C2514 C2506 1.574 . S
C2514 H2509 0.949 . S
C2514 C2520 1.368 . S
C2515 C2499 1.349 . S
C2515 H2507 0.950 . S
C2515 C2513 1.327 . S
C2516 C2504 1.349 . S
C2516 H2510 0.950 . S
C2516 C2517 1.327 . S
C2517 H2511 0.950 . S
C2517 C2516 1.327 . S
C2517 C2521 1.429 . S
C2518 C2501 1.574 . S
C2518 H2512 0.949 . S
C2518 C2522 1.368 . S
C2519 C2500 1.429 . S
C2519 C2513 1.429 . S
C2519 C2520 1.523 . S
C2520 C2501 1.368 . S
C2520 C2514 1.368 . S
C2520 C2519 1.523 . S
C2521 C2505 1.429 . S
C2521 C2517 1.429 . S
C2521 C2522 1.523 . S
C2522 C2506 1.368 . S
C2522 C2518 1.368 . S
C2522 C2521 1.523 . S
H2523 C2498 0.950 . S
H2524 C2500 0.950 . S
H2525 C2501 0.949 . S
H2526 C2503 0.950 . S
H2527 C2505 0.950 . S
C2528 C2529 1.349 . S
C2528 C2530 1.327 . S
C2528 H2553 0.950 . S
C2529 C2528 1.349 . S
C2529 C2545 1.349 . S
C2530 C2528 1.327 . S
C2530 C2549 1.429 . S
C2530 H2554 0.950 . S
C2531 C2548 1.574 . S
C2531 C2550 1.368 . S
C2531 H2555 0.949 . S
H2532 C2536 0.949 . S
C2533 C2534 1.349 . S
C2533 C2535 1.327 . S
C2533 H2556 0.950 . S
C2534 C2533 1.349 . S
C2534 C2546 1.349 . S
C2535 C2533 1.327 . S
C2535 C2551 1.429 . S
C2535 H2557 0.950 . S
C2536 H2532 0.949 . S
C2536 C2544 1.574 . S
C2536 C2552 1.368 . S
H2537 C2545 0.950 . S
H2538 C2543 0.950 . S
H2539 C2544 0.949 . S
H2540 C2546 0.950 . S
H2541 C2547 0.950 . S
H2542 C2548 0.949 . S
C2543 H2538 0.950 . S
C2543 C2545 1.327 . S
C2543 C2549 1.429 . S
C2544 C2536 1.574 . S
C2544 H2539 0.949 . S
C2544 C2550 1.368 . S
C2545 C2529 1.349 . S
C2545 H2537 0.950 . S
C2545 C2543 1.327 . S
C2546 C2534 1.349 . S
C2546 H2540 0.950 . S
C2546 C2547 1.327 . S
C2547 H2541 0.950 . S
C2547 C2546 1.327 . S
C2547 C2551 1.429 . S
C2548 C2531 1.574 . S
C2548 H2542 0.949 . S
C2548 C2552 1.368 . S
C2549 C2530 1.429 . S
C2549 C2543 1.429 . S
C2549 C2550 1.523 . S
C2550 C2531 1.368 . S
C2550 C2544 1.368 . S
C2550 C2549 1.523 . S
C2551 C2535 1.429 . S
C2551 C2547 1.429 . S
C2551 C2552 1.523 . S
C2552 C2536 1.368 . S
C2552 C2548 1.368 . S
C2552 C2551 1.523 . S
H2553 C2528 0.950 . S
H2554 C2530 0.950 . S
H2555 C2531 0.949 . S
H2556 C2533 0.950 . S
H2557 C2535 0.950 . S
C2558 C2559 1.349 . S
C2558 C2560 1.327 . S
C2558 H2583 0.950 . S
C2559 C2558 1.349 . S
C2559 C2575 1.349 . S
C2560 C2558 1.327 . S
C2560 C2579 1.429 . S
C2560 H2584 0.950 . S
C2561 C2578 1.574 . S
C2561 C2580 1.368 . S
C2561 H2585 0.949 . S
H2562 C2566 0.949 . S
C2563 C2564 1.349 . S
C2563 C2565 1.327 . S
C2563 H2586 0.950 . S
C2564 C2563 1.349 . S
C2564 C2576 1.349 . S
C2565 C2563 1.327 . S
C2565 C2581 1.429 . S
C2565 H2587 0.950 . S
C2566 H2562 0.949 . S
C2566 C2574 1.574 . S
C2566 C2582 1.368 . S
H2567 C2575 0.950 . S
H2568 C2573 0.950 . S
H2569 C2574 0.949 . S
H2570 C2576 0.950 . S
H2571 C2577 0.950 . S
H2572 C2578 0.949 . S
C2573 H2568 0.950 . S
C2573 C2575 1.327 . S
C2573 C2579 1.429 . S
C2574 C2566 1.574 . S
C2574 H2569 0.949 . S
C2574 C2580 1.368 . S
C2575 C2559 1.349 . S
C2575 H2567 0.950 . S
C2575 C2573 1.327 . S
C2576 C2564 1.349 . S
C2576 H2570 0.950 . S
C2576 C2577 1.327 . S
C2577 H2571 0.950 . S
C2577 C2576 1.327 . S
C2577 C2581 1.429 . S
C2578 C2561 1.574 . S
C2578 H2572 0.949 . S
C2578 C2582 1.368 . S
C2579 C2560 1.429 . S
C2579 C2573 1.429 . S
C2579 C2580 1.523 . S
C2580 C2561 1.368 . S
C2580 C2574 1.368 . S
C2580 C2579 1.523 . S
C2581 C2565 1.429 . S
C2581 C2577 1.429 . S
C2581 C2582 1.523 . S
C2582 C2566 1.368 . S
C2582 C2578 1.368 . S
C2582 C2581 1.523 . S
H2583 C2558 0.950 . S
H2584 C2560 0.950 . S
H2585 C2561 0.949 . S
H2586 C2563 0.950 . S
H2587 C2565 0.950 . S
C2588 C2589 1.349 . S
C2588 C2590 1.327 . S
C2588 H2613 0.950 . S
C2589 C2588 1.349 . S
C2589 C2605 1.349 . S
C2590 C2588 1.327 . S
C2590 C2609 1.429 . S
C2590 H2614 0.950 . S
C2591 C2608 1.574 . S
C2591 C2610 1.368 . S
C2591 H2615 0.949 . S
H2592 C2596 0.949 . S
C2593 C2594 1.349 . S
C2593 C2595 1.327 . S
C2593 H2616 0.950 . S
C2594 C2593 1.349 . S
C2594 C2606 1.349 . S
C2595 C2593 1.327 . S
C2595 C2611 1.429 . S
C2595 H2617 0.950 . S
C2596 H2592 0.949 . S
C2596 C2604 1.574 . S
C2596 C2612 1.368 . S
H2597 C2605 0.950 . S
H2598 C2603 0.950 . S
H2599 C2604 0.949 . S
H2600 C2606 0.950 . S
H2601 C2607 0.950 . S
H2602 C2608 0.949 . S
C2603 H2598 0.950 . S
C2603 C2605 1.327 . S
C2603 C2609 1.429 . S
C2604 C2596 1.574 . S
C2604 H2599 0.949 . S
C2604 C2610 1.368 . S
C2605 C2589 1.349 . S
C2605 H2597 0.950 . S
C2605 C2603 1.327 . S
C2606 C2594 1.349 . S
C2606 H2600 0.950 . S
C2606 C2607 1.327 . S
C2607 H2601 0.950 . S
C2607 C2606 1.327 . S
C2607 C2611 1.429 . S
C2608 C2591 1.574 . S
C2608 H2602 0.949 . S
C2608 C2612 1.368 . S
C2609 C2590 1.429 . S
C2609 C2603 1.429 . S
C2609 C2610 1.523 . S
C2610 C2591 1.368 . S
C2610 C2604 1.368 . S
C2610 C2609 1.523 . S
C2611 C2595 1.429 . S
C2611 C2607 1.429 . S
C2611 C2612 1.523 . S
C2612 C2596 1.368 . S
C2612 C2608 1.368 . S
C2612 C2611 1.523 . S
H2613 C2588 0.950 . S
H2614 C2590 0.950 . S
H2615 C2591 0.949 . S
H2616 C2593 0.950 . S
H2617 C2595 0.950 . S
C2618 C2619 1.349 . S
C2618 C2620 1.327 . S
C2618 H2643 0.950 . S
C2619 C2618 1.349 . S
C2619 C2635 1.349 . S
C2620 C2618 1.327 . S
C2620 C2639 1.429 . S
C2620 H2644 0.950 . S
C2621 C2638 1.574 . S
C2621 C2640 1.368 . S
C2621 H2645 0.949 . S
H2622 C2626 0.949 . S
C2623 C2624 1.349 . S
C2623 C2625 1.327 . S
C2623 H2646 0.950 . S
C2624 C2623 1.349 . S
C2624 C2636 1.349 . S
C2625 C2623 1.327 . S
C2625 C2641 1.429 . S
C2625 H2647 0.950 . S
C2626 H2622 0.949 . S
C2626 C2634 1.574 . S
C2626 C2642 1.368 . S
H2627 C2635 0.950 . S
H2628 C2633 0.950 . S
H2629 C2634 0.949 . S
H2630 C2636 0.950 . S
H2631 C2637 0.950 . S
H2632 C2638 0.949 . S
C2633 H2628 0.950 . S
C2633 C2635 1.327 . S
C2633 C2639 1.429 . S
C2634 C2626 1.574 . S
C2634 H2629 0.949 . S
C2634 C2640 1.368 . S
C2635 C2619 1.349 . S
C2635 H2627 0.950 . S
C2635 C2633 1.327 . S
C2636 C2624 1.349 . S
C2636 H2630 0.950 . S
C2636 C2637 1.327 . S
C2637 H2631 0.950 . S
C2637 C2636 1.327 . S
C2637 C2641 1.429 . S
C2638 C2621 1.574 . S
C2638 H2632 0.949 . S
C2638 C2642 1.368 . S
C2639 C2620 1.429 . S
C2639 C2633 1.429 . S
C2639 C2640 1.523 . S
C2640 C2621 1.368 . S
C2640 C2634 1.368 . S
C2640 C2639 1.523 . S
C2641 C2625 1.429 . S
C2641 C2637 1.429 . S
C2641 C2642 1.523 . S
C2642 C2626 1.368 . S
C2642 C2638 1.368 . S
C2642 C2641 1.523 . S
H2643 C2618 0.950 . S
H2644 C2620 0.950 . S
H2645 C2621 0.949 . S
H2646 C2623 0.950 . S
H2647 C2625 0.950 . S
C2648 C2649 1.349 . S
C2648 C2650 1.327 . S
C2648 H2673 0.950 . S
C2649 C2648 1.349 . S
C2649 C2665 1.349 . S
C2650 C2648 1.327 . S
C2650 C2669 1.429 . S
C2650 H2674 0.950 . S
C2651 C2668 1.574 . S
C2651 C2670 1.368 . S
C2651 H2675 0.949 . S
H2652 C2656 0.949 . S
C2653 C2654 1.349 . S
C2653 C2655 1.327 . S
C2653 H2676 0.950 . S
C2654 C2653 1.349 . S
C2654 C2666 1.349 . S
C2655 C2653 1.327 . S
C2655 C2671 1.429 . S
C2655 H2677 0.950 . S
C2656 H2652 0.949 . S
C2656 C2664 1.574 . S
C2656 C2672 1.368 . S
H2657 C2665 0.950 . S
H2658 C2663 0.950 . S
H2659 C2664 0.949 . S
H2660 C2666 0.950 . S
H2661 C2667 0.950 . S
H2662 C2668 0.949 . S
C2663 H2658 0.950 . S
C2663 C2665 1.327 . S
C2663 C2669 1.429 . S
C2664 C2656 1.574 . S
C2664 H2659 0.949 . S
C2664 C2670 1.368 . S
C2665 C2649 1.349 . S
C2665 H2657 0.950 . S
C2665 C2663 1.327 . S
C2666 C2654 1.349 . S
C2666 H2660 0.950 . S
C2666 C2667 1.327 . S
C2667 H2661 0.950 . S
C2667 C2666 1.327 . S
C2667 C2671 1.429 . S
C2668 C2651 1.574 . S
C2668 H2662 0.949 . S
C2668 C2672 1.368 . S
C2669 C2650 1.429 . S
C2669 C2663 1.429 . S
C2669 C2670 1.523 . S
C2670 C2651 1.368 . S
C2670 C2664 1.368 . S
C2670 C2669 1.523 . S
C2671 C2655 1.429 . S
C2671 C2667 1.429 . S
C2671 C2672 1.523 . S
C2672 C2656 1.368 . S
C2672 C2668 1.368 . S
C2672 C2671 1.523 . S
H2673 C2648 0.950 . S
H2674 C2650 0.950 . S
H2675 C2651 0.949 . S
H2676 C2653 0.950 . S
H2677 C2655 0.950 . S
C2678 C2679 1.349 . S
C2678 C2680 1.327 . S
C2678 H2703 0.950 . S
C2679 C2678 1.349 . S
C2679 C2695 1.349 . S
C2680 C2678 1.327 . S
C2680 C2699 1.429 . S
C2680 H2704 0.950 . S
C2681 C2698 1.574 . S
C2681 C2700 1.368 . S
C2681 H2705 0.949 . S
H2682 C2686 0.949 . S
C2683 C2684 1.349 . S
C2683 C2685 1.327 . S
C2683 H2706 0.950 . S
C2684 C2683 1.349 . S
C2684 C2696 1.349 . S
C2685 C2683 1.327 . S
C2685 C2701 1.429 . S
C2685 H2707 0.950 . S
C2686 H2682 0.949 . S
C2686 C2694 1.574 . S
C2686 C2702 1.368 . S
H2687 C2695 0.950 . S
H2688 C2693 0.950 . S
H2689 C2694 0.949 . S
H2690 C2696 0.950 . S
H2691 C2697 0.950 . S
H2692 C2698 0.949 . S
C2693 H2688 0.950 . S
C2693 C2695 1.327 . S
C2693 C2699 1.429 . S
C2694 C2686 1.574 . S
C2694 H2689 0.949 . S
C2694 C2700 1.368 . S
C2695 C2679 1.349 . S
C2695 H2687 0.950 . S
C2695 C2693 1.327 . S
C2696 C2684 1.349 . S
C2696 H2690 0.950 . S
C2696 C2697 1.327 . S
C2697 H2691 0.950 . S
C2697 C2696 1.327 . S
C2697 C2701 1.429 . S
C2698 C2681 1.574 . S
C2698 H2692 0.949 . S
C2698 C2702 1.368 . S
C2699 C2680 1.429 . S
C2699 C2693 1.429 . S
C2699 C2700 1.523 . S
C2700 C2681 1.368 . S
C2700 C2694 1.368 . S
C2700 C2699 1.523 . S
C2701 C2685 1.429 . S
C2701 C2697 1.429 . S
C2701 C2702 1.523 . S
C2702 C2686 1.368 . S
C2702 C2698 1.368 . S
C2702 C2701 1.523 . S
H2703 C2678 0.950 . S
H2704 C2680 0.950 . S
H2705 C2681 0.949 . S
H2706 C2683 0.950 . S
H2707 C2685 0.950 . S
C2708 C2709 1.349 . S
C2708 C2710 1.327 . S
C2708 H2733 0.950 . S
C2709 C2708 1.349 . S
C2709 C2725 1.349 . S
C2710 C2708 1.327 . S
C2710 C2729 1.429 . S
C2710 H2734 0.950 . S
C2711 C2728 1.574 . S
C2711 C2730 1.368 . S
C2711 H2735 0.949 . S
H2712 C2716 0.949 . S
C2713 C2714 1.349 . S
C2713 C2715 1.327 . S
C2713 H2736 0.950 . S
C2714 C2713 1.349 . S
C2714 C2726 1.349 . S
C2715 C2713 1.327 . S
C2715 C2731 1.429 . S
C2715 H2737 0.950 . S
C2716 H2712 0.949 . S
C2716 C2724 1.574 . S
C2716 C2732 1.368 . S
H2717 C2725 0.950 . S
H2718 C2723 0.950 . S
H2719 C2724 0.949 . S
H2720 C2726 0.950 . S
H2721 C2727 0.950 . S
H2722 C2728 0.949 . S
C2723 H2718 0.950 . S
C2723 C2725 1.327 . S
C2723 C2729 1.429 . S
C2724 C2716 1.574 . S
C2724 H2719 0.949 . S
C2724 C2730 1.368 . S
C2725 C2709 1.349 . S
C2725 H2717 0.950 . S
C2725 C2723 1.327 . S
C2726 C2714 1.349 . S
C2726 H2720 0.950 . S
C2726 C2727 1.327 . S
C2727 H2721 0.950 . S
C2727 C2726 1.327 . S
C2727 C2731 1.429 . S
C2728 C2711 1.574 . S
C2728 H2722 0.949 . S
C2728 C2732 1.368 . S
C2729 C2710 1.429 . S
C2729 C2723 1.429 . S
C2729 C2730 1.523 . S
C2730 C2711 1.368 . S
C2730 C2724 1.368 . S
C2730 C2729 1.523 . S
C2731 C2715 1.429 . S
C2731 C2727 1.429 . S
C2731 C2732 1.523 . S
C2732 C2716 1.368 . S
C2732 C2728 1.368 . S
C2732 C2731 1.523 . S
H2733 C2708 0.950 . S
H2734 C2710 0.950 . S
H2735 C2711 0.949 . S
H2736 C2713 0.950 . S
H2737 C2715 0.950 . S
C2738 C2739 1.349 . S
C2738 C2740 1.327 . S
C2738 H2763 0.950 . S
C2739 C2738 1.349 . S
C2739 C2755 1.349 . S
C2740 C2738 1.327 . S
C2740 C2759 1.429 . S
C2740 H2764 0.950 . S
C2741 C2758 1.574 . S
C2741 C2760 1.368 . S
C2741 H2765 0.949 . S
H2742 C2746 0.949 . S
C2743 C2744 1.349 . S
C2743 C2745 1.327 . S
C2743 H2766 0.950 . S
C2744 C2743 1.349 . S
C2744 C2756 1.349 . S
C2745 C2743 1.327 . S
C2745 C2761 1.429 . S
C2745 H2767 0.950 . S
C2746 H2742 0.949 . S
C2746 C2754 1.574 . S
C2746 C2762 1.368 . S
H2747 C2755 0.950 . S
H2748 C2753 0.950 . S
H2749 C2754 0.949 . S
H2750 C2756 0.950 . S
H2751 C2757 0.950 . S
H2752 C2758 0.949 . S
C2753 H2748 0.950 . S
C2753 C2755 1.327 . S
C2753 C2759 1.429 . S
C2754 C2746 1.574 . S
C2754 H2749 0.949 . S
C2754 C2760 1.368 . S
C2755 C2739 1.349 . S
C2755 H2747 0.950 . S
C2755 C2753 1.327 . S
C2756 C2744 1.349 . S
C2756 H2750 0.950 . S
C2756 C2757 1.327 . S
C2757 H2751 0.950 . S
C2757 C2756 1.327 . S
C2757 C2761 1.429 . S
C2758 C2741 1.574 . S
C2758 H2752 0.949 . S
C2758 C2762 1.368 . S
C2759 C2740 1.429 . S
C2759 C2753 1.429 . S
C2759 C2760 1.523 . S
C2760 C2741 1.368 . S
C2760 C2754 1.368 . S
C2760 C2759 1.523 . S
C2761 C2745 1.429 . S
C2761 C2757 1.429 . S
C2761 C2762 1.523 . S
C2762 C2746 1.368 . S
C2762 C2758 1.368 . S
C2762 C2761 1.523 . S
H2763 C2738 0.950 . S
H2764 C2740 0.950 . S
H2765 C2741 0.949 . S
H2766 C2743 0.950 . S
H2767 C2745 0.950 . S
C2768 C2769 1.349 . S
C2768 C2770 1.327 . S
C2768 H2793 0.950 . S
C2769 C2768 1.349 . S
C2769 C2785 1.349 . S
C2770 C2768 1.327 . S
C2770 C2789 1.429 . S
C2770 H2794 0.950 . S
C2771 C2788 1.574 . S
C2771 C2790 1.368 . S
C2771 H2795 0.949 . S
H2772 C2776 0.949 . S
C2773 C2774 1.349 . S
C2773 C2775 1.327 . S
C2773 H2796 0.950 . S
C2774 C2773 1.349 . S
C2774 C2786 1.349 . S
C2775 C2773 1.327 . S
C2775 C2791 1.429 . S
C2775 H2797 0.950 . S
C2776 H2772 0.949 . S
C2776 C2784 1.574 . S
C2776 C2792 1.368 . S
H2777 C2785 0.950 . S
H2778 C2783 0.950 . S
H2779 C2784 0.949 . S
H2780 C2786 0.950 . S
H2781 C2787 0.950 . S
H2782 C2788 0.949 . S
C2783 H2778 0.950 . S
C2783 C2785 1.327 . S
C2783 C2789 1.429 . S
C2784 C2776 1.574 . S
C2784 H2779 0.949 . S
C2784 C2790 1.368 . S
C2785 C2769 1.349 . S
C2785 H2777 0.950 . S
C2785 C2783 1.327 . S
C2786 C2774 1.349 . S
C2786 H2780 0.950 . S
C2786 C2787 1.327 . S
C2787 H2781 0.950 . S
C2787 C2786 1.327 . S
C2787 C2791 1.429 . S
C2788 C2771 1.574 . S
C2788 H2782 0.949 . S
C2788 C2792 1.368 . S
C2789 C2770 1.429 . S
C2789 C2783 1.429 . S
C2789 C2790 1.523 . S
C2790 C2771 1.368 . S
C2790 C2784 1.368 . S
C2790 C2789 1.523 . S
C2791 C2775 1.429 . S
C2791 C2787 1.429 . S
C2791 C2792 1.523 . S
C2792 C2776 1.368 . S
C2792 C2788 1.368 . S
C2792 C2791 1.523 . S
H2793 C2768 0.950 . S
H2794 C2770 0.950 . S
H2795 C2771 0.949 . S
H2796 C2773 0.950 . S
H2797 C2775 0.950 . S
C2798 C2799 1.349 . S
C2798 C2800 1.327 . S
C2798 H2823 0.950 . S
C2799 C2798 1.349 . S
C2799 C2815 1.349 . S
C2800 C2798 1.327 . S
C2800 C2819 1.429 . S
C2800 H2824 0.950 . S
C2801 C2818 1.574 . S
C2801 C2820 1.368 . S
C2801 H2825 0.949 . S
H2802 C2806 0.949 . S
C2803 C2804 1.349 . S
C2803 C2805 1.327 . S
C2803 H2826 0.950 . S
C2804 C2803 1.349 . S
C2804 C2816 1.349 . S
C2805 C2803 1.327 . S
C2805 C2821 1.429 . S
C2805 H2827 0.950 . S
C2806 H2802 0.949 . S
C2806 C2814 1.574 . S
C2806 C2822 1.368 . S
H2807 C2815 0.950 . S
H2808 C2813 0.950 . S
H2809 C2814 0.949 . S
H2810 C2816 0.950 . S
H2811 C2817 0.950 . S
H2812 C2818 0.949 . S
C2813 H2808 0.950 . S
C2813 C2815 1.327 . S
C2813 C2819 1.429 . S
C2814 C2806 1.574 . S
C2814 H2809 0.949 . S
C2814 C2820 1.368 . S
C2815 C2799 1.349 . S
C2815 H2807 0.950 . S
C2815 C2813 1.327 . S
C2816 C2804 1.349 . S
C2816 H2810 0.950 . S
C2816 C2817 1.327 . S
C2817 H2811 0.950 . S
C2817 C2816 1.327 . S
C2817 C2821 1.429 . S
C2818 C2801 1.574 . S
C2818 H2812 0.949 . S
C2818 C2822 1.368 . S
C2819 C2800 1.429 . S
C2819 C2813 1.429 . S
C2819 C2820 1.523 . S
C2820 C2801 1.368 . S
C2820 C2814 1.368 . S
C2820 C2819 1.523 . S
C2821 C2805 1.429 . S
C2821 C2817 1.429 . S
C2821 C2822 1.523 . S
C2822 C2806 1.368 . S
C2822 C2818 1.368 . S
C2822 C2821 1.523 . S
H2823 C2798 0.950 . S
H2824 C2800 0.950 . S
H2825 C2801 0.949 . S
H2826 C2803 0.950 . S
H2827 C2805 0.950 . S
C2828 C2829 1.349 . S
C2828 C2830 1.327 . S
C2828 H2853 0.950 . S
C2829 C2828 1.349 . S
C2829 C2845 1.349 . S
C2830 C2828 1.327 . S
C2830 C2849 1.429 . S
C2830 H2854 0.950 . S
C2831 C2848 1.574 . S
C2831 C2850 1.368 . S
C2831 H2855 0.949 . S
H2832 C2836 0.949 . S
C2833 C2834 1.349 . S
C2833 C2835 1.327 . S
C2833 H2856 0.950 . S
C2834 C2833 1.349 . S
C2834 C2846 1.349 . S
C2835 C2833 1.327 . S
C2835 C2851 1.429 . S
C2835 H2857 0.950 . S
C2836 H2832 0.949 . S
C2836 C2844 1.574 . S
C2836 C2852 1.368 . S
H2837 C2845 0.950 . S
H2838 C2843 0.950 . S
H2839 C2844 0.949 . S
H2840 C2846 0.950 . S
H2841 C2847 0.950 . S
H2842 C2848 0.949 . S
C2843 H2838 0.950 . S
C2843 C2845 1.327 . S
C2843 C2849 1.429 . S
C2844 C2836 1.574 . S
C2844 H2839 0.949 . S
C2844 C2850 1.368 . S
C2845 C2829 1.349 . S
C2845 H2837 0.950 . S
C2845 C2843 1.327 . S
C2846 C2834 1.349 . S
C2846 H2840 0.950 . S
C2846 C2847 1.327 . S
C2847 H2841 0.950 . S
C2847 C2846 1.327 . S
C2847 C2851 1.429 . S
C2848 C2831 1.574 . S
C2848 H2842 0.949 . S
C2848 C2852 1.368 . S
C2849 C2830 1.429 . S
C2849 C2843 1.429 . S
C2849 C2850 1.523 . S
C2850 C2831 1.368 . S
C2850 C2844 1.368 . S
C2850 C2849 1.523 . S
C2851 C2835 1.429 . S
C2851 C2847 1.429 . S
C2851 C2852 1.523 . S
C2852 C2836 1.368 . S
C2852 C2848 1.368 . S
C2852 C2851 1.523 . S
H2853 C2828 0.950 . S
H2854 C2830 0.950 . S
H2855 C2831 0.949 . S
H2856 C2833 0.950 . S
H2857 C2835 0.950 . S
C2858 C2859 1.349 . S
C2858 C2860 1.327 . S
C2858 H2883 0.950 . S
C2859 C2858 1.349 . S
C2859 C2875 1.349 . S
C2860 C2858 1.327 . S
C2860 C2879 1.429 . S
C2860 H2884 0.950 . S
C2861 C2878 1.574 . S
C2861 C2880 1.368 . S
C2861 H2885 0.949 . S
H2862 C2866 0.949 . S
C2863 C2864 1.349 . S
C2863 C2865 1.327 . S
C2863 H2886 0.950 . S
C2864 C2863 1.349 . S
C2864 C2876 1.349 . S
C2865 C2863 1.327 . S
C2865 C2881 1.429 . S
C2865 H2887 0.950 . S
C2866 H2862 0.949 . S
C2866 C2874 1.574 . S
C2866 C2882 1.368 . S
H2867 C2875 0.950 . S
H2868 C2873 0.950 . S
H2869 C2874 0.949 . S
H2870 C2876 0.950 . S
H2871 C2877 0.950 . S
H2872 C2878 0.949 . S
C2873 H2868 0.950 . S
C2873 C2875 1.327 . S
C2873 C2879 1.429 . S
C2874 C2866 1.574 . S
C2874 H2869 0.949 . S
C2874 C2880 1.368 . S
C2875 C2859 1.349 . S
C2875 H2867 0.950 . S
C2875 C2873 1.327 . S
C2876 C2864 1.349 . S
C2876 H2870 0.950 . S
C2876 C2877 1.327 . S
C2877 H2871 0.950 . S
C2877 C2876 1.327 . S
C2877 C2881 1.429 . S
C2878 C2861 1.574 . S
C2878 H2872 0.949 . S
C2878 C2882 1.368 . S
C2879 C2860 1.429 . S
C2879 C2873 1.429 . S
C2879 C2880 1.523 . S
C2880 C2861 1.368 . S
C2880 C2874 1.368 . S
C2880 C2879 1.523 . S
C2881 C2865 1.429 . S
C2881 C2877 1.429 . S
C2881 C2882 1.523 . S
C2882 C2866 1.368 . S
C2882 C2878 1.368 . S
C2882 C2881 1.523 . S
H2883 C2858 0.950 . S
H2884 C2860 0.950 . S
H2885 C2861 0.949 . S
H2886 C2863 0.950 . S
H2887 C2865 0.950 . S
C2888 C2889 1.349 . S
C2888 C2890 1.327 . S
C2888 H2913 0.950 . S
C2889 C2888 1.349 . S
C2889 C2905 1.349 . S
C2890 C2888 1.327 . S
C2890 C2909 1.429 . S
C2890 H2914 0.950 . S
C2891 C2908 1.574 . S
C2891 C2910 1.368 . S
C2891 H2915 0.949 . S
H2892 C2896 0.949 . S
C2893 C2894 1.349 . S
C2893 C2895 1.327 . S
C2893 H2916 0.950 . S
C2894 C2893 1.349 . S
C2894 C2906 1.349 . S
C2895 C2893 1.327 . S
C2895 C2911 1.429 . S
C2895 H2917 0.950 . S
C2896 H2892 0.949 . S
C2896 C2904 1.574 . S
C2896 C2912 1.368 . S
H2897 C2905 0.950 . S
H2898 C2903 0.950 . S
H2899 C2904 0.949 . S
H2900 C2906 0.950 . S
H2901 C2907 0.950 . S
H2902 C2908 0.949 . S
C2903 H2898 0.950 . S
C2903 C2905 1.327 . S
C2903 C2909 1.429 . S
C2904 C2896 1.574 . S
C2904 H2899 0.949 . S
C2904 C2910 1.368 . S
C2905 C2889 1.349 . S
C2905 H2897 0.950 . S
C2905 C2903 1.327 . S
C2906 C2894 1.349 . S
C2906 H2900 0.950 . S
C2906 C2907 1.327 . S
C2907 H2901 0.950 . S
C2907 C2906 1.327 . S
C2907 C2911 1.429 . S
C2908 C2891 1.574 . S
C2908 H2902 0.949 . S
C2908 C2912 1.368 . S
C2909 C2890 1.429 . S
C2909 C2903 1.429 . S
C2909 C2910 1.523 . S
C2910 C2891 1.368 . S
C2910 C2904 1.368 . S
C2910 C2909 1.523 . S
C2911 C2895 1.429 . S
C2911 C2907 1.429 . S
C2911 C2912 1.523 . S
C2912 C2896 1.368 . S
C2912 C2908 1.368 . S
C2912 C2911 1.523 . S
H2913 C2888 0.950 . S
H2914 C2890 0.950 . S
H2915 C2891 0.949 . S
H2916 C2893 0.950 . S
H2917 C2895 0.950 . S
C2918 C2919 1.349 . S
C2918 C2920 1.327 . S
C2918 H2943 0.950 . S
C2919 C2918 1.349 . S
C2919 C2935 1.349 . S
C2920 C2918 1.327 . S
C2920 C2939 1.429 . S
C2920 H2944 0.950 . S
C2921 C2938 1.574 . S
C2921 C2940 1.368 . S
C2921 H2945 0.949 . S
H2922 C2926 0.949 . S
C2923 C2924 1.349 . S
C2923 C2925 1.327 . S
C2923 H2946 0.950 . S
C2924 C2923 1.349 . S
C2924 C2936 1.349 . S
C2925 C2923 1.327 . S
C2925 C2941 1.429 . S
C2925 H2947 0.950 . S
C2926 H2922 0.949 . S
C2926 C2934 1.574 . S
C2926 C2942 1.368 . S
H2927 C2935 0.950 . S
H2928 C2933 0.950 . S
H2929 C2934 0.949 . S
H2930 C2936 0.950 . S
H2931 C2937 0.950 . S
H2932 C2938 0.949 . S
C2933 H2928 0.950 . S
C2933 C2935 1.327 . S
C2933 C2939 1.429 . S
C2934 C2926 1.574 . S
C2934 H2929 0.949 . S
C2934 C2940 1.368 . S
C2935 C2919 1.349 . S
C2935 H2927 0.950 . S
C2935 C2933 1.327 . S
C2936 C2924 1.349 . S
C2936 H2930 0.950 . S
C2936 C2937 1.327 . S
C2937 H2931 0.950 . S
C2937 C2936 1.327 . S
C2937 C2941 1.429 . S
C2938 C2921 1.574 . S
C2938 H2932 0.949 . S
C2938 C2942 1.368 . S
C2939 C2920 1.429 . S
C2939 C2933 1.429 . S
C2939 C2940 1.523 . S
C2940 C2921 1.368 . S
C2940 C2934 1.368 . S
C2940 C2939 1.523 . S
C2941 C2925 1.429 . S
C2941 C2937 1.429 . S
C2941 C2942 1.523 . S
C2942 C2926 1.368 . S
C2942 C2938 1.368 . S
C2942 C2941 1.523 . S
H2943 C2918 0.950 . S
H2944 C2920 0.950 . S
H2945 C2921 0.949 . S
H2946 C2923 0.950 . S
H2947 C2925 0.950 . S
C2948 C2949 1.349 . S
C2948 C2950 1.327 . S
C2948 H2973 0.950 . S
C2949 C2948 1.349 . S
C2949 C2965 1.349 . S
C2950 C2948 1.327 . S
C2950 C2969 1.429 . S
C2950 H2974 0.950 . S
C2951 C2968 1.574 . S
C2951 C2970 1.368 . S
C2951 H2975 0.949 . S
H2952 C2956 0.949 . S
C2953 C2954 1.349 . S
C2953 C2955 1.327 . S
C2953 H2976 0.950 . S
C2954 C2953 1.349 . S
C2954 C2966 1.349 . S
C2955 C2953 1.327 . S
C2955 C2971 1.429 . S
C2955 H2977 0.950 . S
C2956 H2952 0.949 . S
C2956 C2964 1.574 . S
C2956 C2972 1.368 . S
H2957 C2965 0.950 . S
H2958 C2963 0.950 . S
H2959 C2964 0.949 . S
H2960 C2966 0.950 . S
H2961 C2967 0.950 . S
H2962 C2968 0.949 . S
C2963 H2958 0.950 . S
C2963 C2965 1.327 . S
C2963 C2969 1.429 . S
C2964 C2956 1.574 . S
C2964 H2959 0.949 . S
C2964 C2970 1.368 . S
C2965 C2949 1.349 . S
C2965 H2957 0.950 . S
C2965 C2963 1.327 . S
C2966 C2954 1.349 . S
C2966 H2960 0.950 . S
C2966 C2967 1.327 . S
C2967 H2961 0.950 . S
C2967 C2966 1.327 . S
C2967 C2971 1.429 . S
C2968 C2951 1.574 . S
C2968 H2962 0.949 . S
C2968 C2972 1.368 . S
C2969 C2950 1.429 . S
C2969 C2963 1.429 . S
C2969 C2970 1.523 . S
C2970 C2951 1.368 . S
C2970 C2964 1.368 . S
C2970 C2969 1.523 . S
C2971 C2955 1.429 . S
C2971 C2967 1.429 . S
C2971 C2972 1.523 . S
C2972 C2956 1.368 . S
C2972 C2968 1.368 . S
C2972 C2971 1.523 . S
H2973 C2948 0.950 . S
H2974 C2950 0.950 . S
H2975 C2951 0.949 . S
H2976 C2953 0.950 . S
H2977 C2955 0.950 . S
C2978 C2979 1.349 . S
C2978 C2980 1.327 . S
C2978 H3003 0.950 . S
C2979 C2978 1.349 . S
C2979 C2995 1.349 . S
C2980 C2978 1.327 . S
C2980 C2999 1.429 . S
C2980 H3004 0.950 . S
C2981 C2998 1.574 . S
C2981 C3000 1.368 . S
C2981 H3005 0.949 . S
H2982 C2986 0.949 . S
C2983 C2984 1.349 . S
C2983 C2985 1.327 . S
C2983 H3006 0.950 . S
C2984 C2983 1.349 . S
C2984 C2996 1.349 . S
C2985 C2983 1.327 . S
C2985 C3001 1.429 . S
C2985 H3007 0.950 . S
C2986 H2982 0.949 . S
C2986 C2994 1.574 . S
C2986 C3002 1.368 . S
H2987 C2995 0.950 . S
H2988 C2993 0.950 . S
H2989 C2994 0.949 . S
H2990 C2996 0.950 . S
H2991 C2997 0.950 . S
H2992 C2998 0.949 . S
C2993 H2988 0.950 . S
C2993 C2995 1.327 . S
C2993 C2999 1.429 . S
C2994 C2986 1.574 . S
C2994 H2989 0.949 . S
C2994 C3000 1.368 . S
C2995 C2979 1.349 . S
C2995 H2987 0.950 . S
C2995 C2993 1.327 . S
C2996 C2984 1.349 . S
C2996 H2990 0.950 . S
C2996 C2997 1.327 . S
C2997 H2991 0.950 . S
C2997 C2996 1.327 . S
C2997 C3001 1.429 . S
C2998 C2981 1.574 . S
C2998 H2992 0.949 . S
C2998 C3002 1.368 . S
C2999 C2980 1.429 . S
C2999 C2993 1.429 . S
C2999 C3000 1.523 . S
C3000 C2981 1.368 . S
C3000 C2994 1.368 . S
C3000 C2999 1.523 . S
C3001 C2985 1.429 . S
C3001 C2997 1.429 . S
C3001 C3002 1.523 . S
C3002 C2986 1.368 . S
C3002 C2998 1.368 . S
C3002 C3001 1.523 . S
H3003 C2978 0.950 . S
H3004 C2980 0.950 . S
H3005 C2981 0.949 . S
H3006 C2983 0.950 . S
H3007 C2985 0.950 . S
C3008 C3009 1.349 . S
C3008 C3010 1.327 . S
C3008 H3033 0.950 . S
C3009 C3008 1.349 . S
C3009 C3025 1.349 . S
C3010 C3008 1.327 . S
C3010 C3029 1.429 . S
C3010 H3034 0.950 . S
C3011 C3028 1.574 . S
C3011 C3030 1.368 . S
C3011 H3035 0.949 . S
H3012 C3016 0.949 . S
C3013 C3014 1.349 . S
C3013 C3015 1.327 . S
C3013 H3036 0.950 . S
C3014 C3013 1.349 . S
C3014 C3026 1.349 . S
C3015 C3013 1.327 . S
C3015 C3031 1.429 . S
C3015 H3037 0.950 . S
C3016 H3012 0.949 . S
C3016 C3024 1.574 . S
C3016 C3032 1.368 . S
H3017 C3025 0.950 . S
H3018 C3023 0.950 . S
H3019 C3024 0.949 . S
H3020 C3026 0.950 . S
H3021 C3027 0.950 . S
H3022 C3028 0.949 . S
C3023 H3018 0.950 . S
C3023 C3025 1.327 . S
C3023 C3029 1.429 . S
C3024 C3016 1.574 . S
C3024 H3019 0.949 . S
C3024 C3030 1.368 . S
C3025 C3009 1.349 . S
C3025 H3017 0.950 . S
C3025 C3023 1.327 . S
C3026 C3014 1.349 . S
C3026 H3020 0.950 . S
C3026 C3027 1.327 . S
C3027 H3021 0.950 . S
C3027 C3026 1.327 . S
C3027 C3031 1.429 . S
C3028 C3011 1.574 . S
C3028 H3022 0.949 . S
C3028 C3032 1.368 . S
C3029 C3010 1.429 . S
C3029 C3023 1.429 . S
C3029 C3030 1.523 . S
C3030 C3011 1.368 . S
C3030 C3024 1.368 . S
C3030 C3029 1.523 . S
C3031 C3015 1.429 . S
C3031 C3027 1.429 . S
C3031 C3032 1.523 . S
C3032 C3016 1.368 . S
C3032 C3028 1.368 . S
C3032 C3031 1.523 . S
H3033 C3008 0.950 . S
H3034 C3010 0.950 . S
H3035 C3011 0.949 . S
H3036 C3013 0.950 . S
H3037 C3015 0.950 . S
C3038 C3039 1.349 . S
C3038 C3040 1.327 . S
C3038 H3063 0.950 . S
C3039 C3038 1.349 . S
C3039 C3055 1.349 . S
C3040 C3038 1.327 . S
C3040 C3059 1.429 . S
C3040 H3064 0.950 . S
C3041 C3058 1.574 . S
C3041 C3060 1.368 . S
C3041 H3065 0.949 . S
H3042 C3046 0.949 . S
C3043 C3044 1.349 . S
C3043 C3045 1.327 . S
C3043 H3066 0.950 . S
C3044 C3043 1.349 . S
C3044 C3056 1.349 . S
C3045 C3043 1.327 . S
C3045 C3061 1.429 . S
C3045 H3067 0.950 . S
C3046 H3042 0.949 . S
C3046 C3054 1.574 . S
C3046 C3062 1.368 . S
H3047 C3055 0.950 . S
H3048 C3053 0.950 . S
H3049 C3054 0.949 . S
H3050 C3056 0.950 . S
H3051 C3057 0.950 . S
H3052 C3058 0.949 . S
C3053 H3048 0.950 . S
C3053 C3055 1.327 . S
C3053 C3059 1.429 . S
C3054 C3046 1.574 . S
C3054 H3049 0.949 . S
C3054 C3060 1.368 . S
C3055 C3039 1.349 . S
C3055 H3047 0.950 . S
C3055 C3053 1.327 . S
C3056 C3044 1.349 . S
C3056 H3050 0.950 . S
C3056 C3057 1.327 . S
C3057 H3051 0.950 . S
C3057 C3056 1.327 . S
C3057 C3061 1.429 . S
C3058 C3041 1.574 . S
C3058 H3052 0.949 . S
C3058 C3062 1.368 . S
C3059 C3040 1.429 . S
C3059 C3053 1.429 . S
C3059 C3060 1.523 . S
C3060 C3041 1.368 . S
C3060 C3054 1.368 . S
C3060 C3059 1.523 . S
C3061 C3045 1.429 . S
C3061 C3057 1.429 . S
C3061 C3062 1.523 . S
C3062 C3046 1.368 . S
C3062 C3058 1.368 . S
C3062 C3061 1.523 . S
H3063 C3038 0.950 . S
H3064 C3040 0.950 . S
H3065 C3041 0.949 . S
H3066 C3043 0.950 . S
H3067 C3045 0.950 . S
C3068 C3069 1.349 . S
C3068 C3070 1.327 . S
C3068 H3093 0.950 . S
C3069 C3068 1.349 . S
C3069 C3085 1.349 . S
C3070 C3068 1.327 . S
C3070 C3089 1.429 . S
C3070 H3094 0.950 . S
C3071 C3088 1.574 . S
C3071 C3090 1.368 . S
C3071 H3095 0.949 . S
H3072 C3076 0.949 . S
C3073 C3074 1.349 . S
C3073 C3075 1.327 . S
C3073 H3096 0.950 . S
C3074 C3073 1.349 . S
C3074 C3086 1.349 . S
C3075 C3073 1.327 . S
C3075 C3091 1.429 . S
C3075 H3097 0.950 . S
C3076 H3072 0.949 . S
C3076 C3084 1.574 . S
C3076 C3092 1.368 . S
H3077 C3085 0.950 . S
H3078 C3083 0.950 . S
H3079 C3084 0.949 . S
H3080 C3086 0.950 . S
H3081 C3087 0.950 . S
H3082 C3088 0.949 . S
C3083 H3078 0.950 . S
C3083 C3085 1.327 . S
C3083 C3089 1.429 . S
C3084 C3076 1.574 . S
C3084 H3079 0.949 . S
C3084 C3090 1.368 . S
C3085 C3069 1.349 . S
C3085 H3077 0.950 . S
C3085 C3083 1.327 . S
C3086 C3074 1.349 . S
C3086 H3080 0.950 . S
C3086 C3087 1.327 . S
C3087 H3081 0.950 . S
C3087 C3086 1.327 . S
C3087 C3091 1.429 . S
C3088 C3071 1.574 . S
C3088 H3082 0.949 . S
C3088 C3092 1.368 . S
C3089 C3070 1.429 . S
C3089 C3083 1.429 . S
C3089 C3090 1.523 . S
C3090 C3071 1.368 . S
C3090 C3084 1.368 . S
C3090 C3089 1.523 . S
C3091 C3075 1.429 . S
C3091 C3087 1.429 . S
C3091 C3092 1.523 . S
C3092 C3076 1.368 . S
C3092 C3088 1.368 . S
C3092 C3091 1.523 . S
H3093 C3068 0.950 . S
H3094 C3070 0.950 . S
H3095 C3071 0.949 . S
H3096 C3073 0.950 . S
H3097 C3075 0.950 . S
C3098 C3099 1.349 . S
C3098 C3100 1.327 . S
C3098 H3123 0.950 . S
C3099 C3098 1.349 . S
C3099 C3115 1.349 . S
C3100 C3098 1.327 . S
C3100 C3119 1.429 . S
C3100 H3124 0.950 . S
C3101 C3118 1.574 . S
C3101 C3120 1.368 . S
C3101 H3125 0.949 . S
H3102 C3106 0.949 . S
C3103 C3104 1.349 . S
C3103 C3105 1.327 . S
C3103 H3126 0.950 . S
C3104 C3103 1.349 . S
C3104 C3116 1.349 . S
C3105 C3103 1.327 . S
C3105 C3121 1.429 . S
C3105 H3127 0.950 . S
C3106 H3102 0.949 . S
C3106 C3114 1.574 . S
C3106 C3122 1.368 . S
H3107 C3115 0.950 . S
H3108 C3113 0.950 . S
H3109 C3114 0.949 . S
H3110 C3116 0.950 . S
H3111 C3117 0.950 . S
H3112 C3118 0.949 . S
C3113 H3108 0.950 . S
C3113 C3115 1.327 . S
C3113 C3119 1.429 . S
C3114 C3106 1.574 . S
C3114 H3109 0.949 . S
C3114 C3120 1.368 . S
C3115 C3099 1.349 . S
C3115 H3107 0.950 . S
C3115 C3113 1.327 . S
C3116 C3104 1.349 . S
C3116 H3110 0.950 . S
C3116 C3117 1.327 . S
C3117 H3111 0.950 . S
C3117 C3116 1.327 . S
C3117 C3121 1.429 . S
C3118 C3101 1.574 . S
C3118 H3112 0.949 . S
C3118 C3122 1.368 . S
C3119 C3100 1.429 . S
C3119 C3113 1.429 . S
C3119 C3120 1.523 . S
C3120 C3101 1.368 . S
C3120 C3114 1.368 . S
C3120 C3119 1.523 . S
C3121 C3105 1.429 . S
C3121 C3117 1.429 . S
C3121 C3122 1.523 . S
C3122 C3106 1.368 . S
C3122 C3118 1.368 . S
C3122 C3121 1.523 . S
H3123 C3098 0.950 . S
H3124 C3100 0.950 . S
H3125 C3101 0.949 . S
H3126 C3103 0.950 . S
H3127 C3105 0.950 . S
C3128 C3129 1.349 . S
C3128 C3130 1.327 . S
C3128 H3153 0.950 . S
C3129 C3128 1.349 . S
C3129 C3145 1.349 . S
C3130 C3128 1.327 . S
C3130 C3149 1.429 . S
C3130 H3154 0.950 . S
C3131 C3148 1.574 . S
C3131 C3150 1.368 . S
C3131 H3155 0.949 . S
H3132 C3136 0.949 . S
C3133 C3134 1.349 . S
C3133 C3135 1.327 . S
C3133 H3156 0.950 . S
C3134 C3133 1.349 . S
C3134 C3146 1.349 . S
C3135 C3133 1.327 . S
C3135 C3151 1.429 . S
C3135 H3157 0.950 . S
C3136 H3132 0.949 . S
C3136 C3144 1.574 . S
C3136 C3152 1.368 . S
H3137 C3145 0.950 . S
H3138 C3143 0.950 . S
H3139 C3144 0.949 . S
H3140 C3146 0.950 . S
H3141 C3147 0.950 . S
H3142 C3148 0.949 . S
C3143 H3138 0.950 . S
C3143 C3145 1.327 . S
C3143 C3149 1.429 . S
C3144 C3136 1.574 . S
C3144 H3139 0.949 . S
C3144 C3150 1.368 . S
C3145 C3129 1.349 . S
C3145 H3137 0.950 . S
C3145 C3143 1.327 . S
C3146 C3134 1.349 . S
C3146 H3140 0.950 . S
C3146 C3147 1.327 . S
C3147 H3141 0.950 . S
C3147 C3146 1.327 . S
C3147 C3151 1.429 . S
C3148 C3131 1.574 . S
C3148 H3142 0.949 . S
C3148 C3152 1.368 . S
C3149 C3130 1.429 . S
C3149 C3143 1.429 . S
C3149 C3150 1.523 . S
C3150 C3131 1.368 . S
C3150 C3144 1.368 . S
C3150 C3149 1.523 . S
C3151 C3135 1.429 . S
C3151 C3147 1.429 . S
C3151 C3152 1.523 . S
C3152 C3136 1.368 . S
C3152 C3148 1.368 . S
C3152 C3151 1.523 . S
H3153 C3128 0.950 . S
H3154 C3130 0.950 . S
H3155 C3131 0.949 . S
H3156 C3133 0.950 . S
H3157 C3135 0.950 . S
C3158 C3159 1.349 . S
C3158 C3160 1.327 . S
C3158 H3183 0.950 . S
C3159 C3158 1.349 . S
C3159 C3175 1.349 . S
C3160 C3158 1.327 . S
C3160 C3179 1.429 . S
C3160 H3184 0.950 . S
C3161 C3178 1.574 . S
C3161 C3180 1.368 . S
C3161 H3185 0.949 . S
H3162 C3166 0.949 . S
C3163 C3164 1.349 . S
C3163 C3165 1.327 . S
C3163 H3186 0.950 . S
C3164 C3163 1.349 . S
C3164 C3176 1.349 . S
C3165 C3163 1.327 . S
C3165 C3181 1.429 . S
C3165 H3187 0.950 . S
C3166 H3162 0.949 . S
C3166 C3174 1.574 . S
C3166 C3182 1.368 . S
H3167 C3175 0.950 . S
H3168 C3173 0.950 . S
H3169 C3174 0.949 . S
H3170 C3176 0.950 . S
H3171 C3177 0.950 . S
H3172 C3178 0.949 . S
C3173 H3168 0.950 . S
C3173 C3175 1.327 . S
C3173 C3179 1.429 . S
C3174 C3166 1.574 . S
C3174 H3169 0.949 . S
C3174 C3180 1.368 . S
C3175 C3159 1.349 . S
C3175 H3167 0.950 . S
C3175 C3173 1.327 . S
C3176 C3164 1.349 . S
C3176 H3170 0.950 . S
C3176 C3177 1.327 . S
C3177 H3171 0.950 . S
C3177 C3176 1.327 . S
C3177 C3181 1.429 . S
C3178 C3161 1.574 . S
C3178 H3172 0.949 . S
C3178 C3182 1.368 . S
C3179 C3160 1.429 . S
C3179 C3173 1.429 . S
C3179 C3180 1.523 . S
C3180 C3161 1.368 . S
C3180 C3174 1.368 . S
C3180 C3179 1.523 . S
C3181 C3165 1.429 . S
C3181 C3177 1.429 . S
C3181 C3182 1.523 . S
C3182 C3166 1.368 . S
C3182 C3178 1.368 . S
C3182 C3181 1.523 . S
H3183 C3158 0.950 . S
H3184 C3160 0.950 . S
H3185 C3161 0.949 . S
H3186 C3163 0.950 . S
H3187 C3165 0.950 . S
C3188 C3189 1.349 . S
C3188 C3190 1.327 . S
C3188 H3213 0.950 . S
C3189 C3188 1.349 . S
C3189 C3205 1.349 . S
C3190 C3188 1.327 . S
C3190 C3209 1.429 . S
C3190 H3214 0.950 . S
C3191 C3208 1.574 . S
C3191 C3210 1.368 . S
C3191 H3215 0.949 . S
H3192 C3196 0.949 . S
C3193 C3194 1.349 . S
C3193 C3195 1.327 . S
C3193 H3216 0.950 . S
C3194 C3193 1.349 . S
C3194 C3206 1.349 . S
C3195 C3193 1.327 . S
C3195 C3211 1.429 . S
C3195 H3217 0.950 . S
C3196 H3192 0.949 . S
C3196 C3204 1.574 . S
C3196 C3212 1.368 . S
H3197 C3205 0.950 . S
H3198 C3203 0.950 . S
H3199 C3204 0.949 . S
H3200 C3206 0.950 . S
H3201 C3207 0.950 . S
H3202 C3208 0.949 . S
C3203 H3198 0.950 . S
C3203 C3205 1.327 . S
C3203 C3209 1.429 . S
C3204 C3196 1.574 . S
C3204 H3199 0.949 . S
C3204 C3210 1.368 . S
C3205 C3189 1.349 . S
C3205 H3197 0.950 . S
C3205 C3203 1.327 . S
C3206 C3194 1.349 . S
C3206 H3200 0.950 . S
C3206 C3207 1.327 . S
C3207 H3201 0.950 . S
C3207 C3206 1.327 . S
C3207 C3211 1.429 . S
C3208 C3191 1.574 . S
C3208 H3202 0.949 . S
C3208 C3212 1.368 . S
C3209 C3190 1.429 . S
C3209 C3203 1.429 . S
C3209 C3210 1.523 . S
C3210 C3191 1.368 . S
C3210 C3204 1.368 . S
C3210 C3209 1.523 . S
C3211 C3195 1.429 . S
C3211 C3207 1.429 . S
C3211 C3212 1.523 . S
C3212 C3196 1.368 . S
C3212 C3208 1.368 . S
C3212 C3211 1.523 . S
H3213 C3188 0.950 . S
H3214 C3190 0.950 . S
H3215 C3191 0.949 . S
H3216 C3193 0.950 . S
H3217 C3195 0.950 . S
C3218 C3219 1.349 . S
C3218 C3220 1.327 . S
C3218 H3243 0.950 . S
C3219 C3218 1.349 . S
C3219 C3235 1.349 . S
C3220 C3218 1.327 . S
C3220 C3239 1.429 . S
C3220 H3244 0.950 . S
C3221 C3238 1.574 . S
C3221 C3240 1.368 . S
C3221 H3245 0.949 . S
H3222 C3226 0.949 . S
C3223 C3224 1.349 . S
C3223 C3225 1.327 . S
C3223 H3246 0.950 . S
C3224 C3223 1.349 . S
C3224 C3236 1.349 . S
C3225 C3223 1.327 . S
C3225 C3241 1.429 . S
C3225 H3247 0.950 . S
C3226 H3222 0.949 . S
C3226 C3234 1.574 . S
C3226 C3242 1.368 . S
H3227 C3235 0.950 . S
H3228 C3233 0.950 . S
H3229 C3234 0.949 . S
H3230 C3236 0.950 . S
H3231 C3237 0.950 . S
H3232 C3238 0.949 . S
C3233 H3228 0.950 . S
C3233 C3235 1.327 . S
C3233 C3239 1.429 . S
C3234 C3226 1.574 . S
C3234 H3229 0.949 . S
C3234 C3240 1.368 . S
C3235 C3219 1.349 . S
C3235 H3227 0.950 . S
C3235 C3233 1.327 . S
C3236 C3224 1.349 . S
C3236 H3230 0.950 . S
C3236 C3237 1.327 . S
C3237 H3231 0.950 . S
C3237 C3236 1.327 . S
C3237 C3241 1.429 . S
C3238 C3221 1.574 . S
C3238 H3232 0.949 . S
C3238 C3242 1.368 . S
C3239 C3220 1.429 . S
C3239 C3233 1.429 . S
C3239 C3240 1.523 . S
C3240 C3221 1.368 . S
C3240 C3234 1.368 . S
C3240 C3239 1.523 . S
C3241 C3225 1.429 . S
C3241 C3237 1.429 . S
C3241 C3242 1.523 . S
C3242 C3226 1.368 . S
C3242 C3238 1.368 . S
C3242 C3241 1.523 . S
H3243 C3218 0.950 . S
H3244 C3220 0.950 . S
H3245 C3221 0.949 . S
H3246 C3223 0.950 . S
H3247 C3225 0.950 . S
C3248 C3249 1.349 . S
C3248 C3250 1.327 . S
C3248 H3273 0.950 . S
C3249 C3248 1.349 . S
C3249 C3265 1.349 . S
C3250 C3248 1.327 . S
C3250 C3269 1.429 . S
C3250 H3274 0.950 . S
C3251 C3268 1.574 . S
C3251 C3270 1.368 . S
C3251 H3275 0.949 . S
H3252 C3256 0.949 . S
C3253 C3254 1.349 . S
C3253 C3255 1.327 . S
C3253 H3276 0.950 . S
C3254 C3253 1.349 . S
C3254 C3266 1.349 . S
C3255 C3253 1.327 . S
C3255 C3271 1.429 . S
C3255 H3277 0.950 . S
C3256 H3252 0.949 . S
C3256 C3264 1.574 . S
C3256 C3272 1.368 . S
H3257 C3265 0.950 . S
H3258 C3263 0.950 . S
H3259 C3264 0.949 . S
H3260 C3266 0.950 . S
H3261 C3267 0.950 . S
H3262 C3268 0.949 . S
C3263 H3258 0.950 . S
C3263 C3265 1.327 . S
C3263 C3269 1.429 . S
C3264 C3256 1.574 . S
C3264 H3259 0.949 . S
C3264 C3270 1.368 . S
C3265 C3249 1.349 . S
C3265 H3257 0.950 . S
C3265 C3263 1.327 . S
C3266 C3254 1.349 . S
C3266 H3260 0.950 . S
C3266 C3267 1.327 . S
C3267 H3261 0.950 . S
C3267 C3266 1.327 . S
C3267 C3271 1.429 . S
C3268 C3251 1.574 . S
C3268 H3262 0.949 . S
C3268 C3272 1.368 . S
C3269 C3250 1.429 . S
C3269 C3263 1.429 . S
C3269 C3270 1.523 . S
C3270 C3251 1.368 . S
C3270 C3264 1.368 . S
C3270 C3269 1.523 . S
C3271 C3255 1.429 . S
C3271 C3267 1.429 . S
C3271 C3272 1.523 . S
C3272 C3256 1.368 . S
C3272 C3268 1.368 . S
C3272 C3271 1.523 . S
H3273 C3248 0.950 . S
H3274 C3250 0.950 . S
H3275 C3251 0.949 . S
H3276 C3253 0.950 . S
H3277 C3255 0.950 . S
C3278 C3279 1.349 . S
C3278 C3280 1.327 . S
C3278 H3303 0.950 . S
C3279 C3278 1.349 . S
C3279 C3295 1.349 . S
C3280 C3278 1.327 . S
C3280 C3299 1.429 . S
C3280 H3304 0.950 . S
C3281 C3298 1.574 . S
C3281 C3300 1.368 . S
C3281 H3305 0.949 . S
H3282 C3286 0.949 . S
C3283 C3284 1.349 . S
C3283 C3285 1.327 . S
C3283 H3306 0.950 . S
C3284 C3283 1.349 . S
C3284 C3296 1.349 . S
C3285 C3283 1.327 . S
C3285 C3301 1.429 . S
C3285 H3307 0.950 . S
C3286 H3282 0.949 . S
C3286 C3294 1.574 . S
C3286 C3302 1.368 . S
H3287 C3295 0.950 . S
H3288 C3293 0.950 . S
H3289 C3294 0.949 . S
H3290 C3296 0.950 . S
H3291 C3297 0.950 . S
H3292 C3298 0.949 . S
C3293 H3288 0.950 . S
C3293 C3295 1.327 . S
C3293 C3299 1.429 . S
C3294 C3286 1.574 . S
C3294 H3289 0.949 . S
C3294 C3300 1.368 . S
C3295 C3279 1.349 . S
C3295 H3287 0.950 . S
C3295 C3293 1.327 . S
C3296 C3284 1.349 . S
C3296 H3290 0.950 . S
C3296 C3297 1.327 . S
C3297 H3291 0.950 . S
C3297 C3296 1.327 . S
C3297 C3301 1.429 . S
C3298 C3281 1.574 . S
C3298 H3292 0.949 . S
C3298 C3302 1.368 . S
C3299 C3280 1.429 . S
C3299 C3293 1.429 . S
C3299 C3300 1.523 . S
C3300 C3281 1.368 . S
C3300 C3294 1.368 . S
C3300 C3299 1.523 . S
C3301 C3285 1.429 . S
C3301 C3297 1.429 . S
C3301 C3302 1.523 . S
C3302 C3286 1.368 . S
C3302 C3298 1.368 . S
C3302 C3301 1.523 . S
H3303 C3278 0.950 . S
H3304 C3280 0.950 . S
H3305 C3281 0.949 . S
H3306 C3283 0.950 . S
H3307 C3285 0.950 . S
C3308 C3309 1.349 . S
C3308 C3310 1.327 . S
C3308 H3333 0.950 . S
C3309 C3308 1.349 . S
C3309 C3325 1.349 . S
C3310 C3308 1.327 . S
C3310 C3329 1.429 . S
C3310 H3334 0.950 . S
C3311 C3328 1.574 . S
C3311 C3330 1.368 . S
C3311 H3335 0.949 . S
H3312 C3316 0.949 . S
C3313 C3314 1.349 . S
C3313 C3315 1.327 . S
C3313 H3336 0.950 . S
C3314 C3313 1.349 . S
C3314 C3326 1.349 . S
C3315 C3313 1.327 . S
C3315 C3331 1.429 . S
C3315 H3337 0.950 . S
C3316 H3312 0.949 . S
C3316 C3324 1.574 . S
C3316 C3332 1.368 . S
H3317 C3325 0.950 . S
H3318 C3323 0.950 . S
H3319 C3324 0.949 . S
H3320 C3326 0.950 . S
H3321 C3327 0.950 . S
H3322 C3328 0.949 . S
C3323 H3318 0.950 . S
C3323 C3325 1.327 . S
C3323 C3329 1.429 . S
C3324 C3316 1.574 . S
C3324 H3319 0.949 . S
C3324 C3330 1.368 . S
C3325 C3309 1.349 . S
C3325 H3317 0.950 . S
C3325 C3323 1.327 . S
C3326 C3314 1.349 . S
C3326 H3320 0.950 . S
C3326 C3327 1.327 . S
C3327 H3321 0.950 . S
C3327 C3326 1.327 . S
C3327 C3331 1.429 . S
C3328 C3311 1.574 . S
C3328 H3322 0.949 . S
C3328 C3332 1.368 . S
C3329 C3310 1.429 . S
C3329 C3323 1.429 . S
C3329 C3330 1.523 . S
C3330 C3311 1.368 . S
C3330 C3324 1.368 . S
C3330 C3329 1.523 . S
C3331 C3315 1.429 . S
C3331 C3327 1.429 . S
C3331 C3332 1.523 . S
C3332 C3316 1.368 . S
C3332 C3328 1.368 . S
C3332 C3331 1.523 . S
H3333 C3308 0.950 . S
H3334 C3310 0.950 . S
H3335 C3311 0.949 . S
H3336 C3313 0.950 . S
H3337 C3315 0.950 . S
C3338 C3339 1.349 . S
C3338 C3340 1.327 . S
C3338 H3363 0.950 . S
C3339 C3338 1.349 . S
C3339 C3355 1.349 . S
C3340 C3338 1.327 . S
C3340 C3359 1.429 . S
C3340 H3364 0.950 . S
C3341 C3358 1.574 . S
C3341 C3360 1.368 . S
C3341 H3365 0.949 . S
H3342 C3346 0.949 . S
C3343 C3344 1.349 . S
C3343 C3345 1.327 . S
C3343 H3366 0.950 . S
C3344 C3343 1.349 . S
C3344 C3356 1.349 . S
C3345 C3343 1.327 . S
C3345 C3361 1.429 . S
C3345 H3367 0.950 . S
C3346 H3342 0.949 . S
C3346 C3354 1.574 . S
C3346 C3362 1.368 . S
H3347 C3355 0.950 . S
H3348 C3353 0.950 . S
H3349 C3354 0.949 . S
H3350 C3356 0.950 . S
H3351 C3357 0.950 . S
H3352 C3358 0.949 . S
C3353 H3348 0.950 . S
C3353 C3355 1.327 . S
C3353 C3359 1.429 . S
C3354 C3346 1.574 . S
C3354 H3349 0.949 . S
C3354 C3360 1.368 . S
C3355 C3339 1.349 . S
C3355 H3347 0.950 . S
C3355 C3353 1.327 . S
C3356 C3344 1.349 . S
C3356 H3350 0.950 . S
C3356 C3357 1.327 . S
C3357 H3351 0.950 . S
C3357 C3356 1.327 . S
C3357 C3361 1.429 . S
C3358 C3341 1.574 . S
C3358 H3352 0.949 . S
C3358 C3362 1.368 . S
C3359 C3340 1.429 . S
C3359 C3353 1.429 . S
C3359 C3360 1.523 . S
C3360 C3341 1.368 . S
C3360 C3354 1.368 . S
C3360 C3359 1.523 . S
C3361 C3345 1.429 . S
C3361 C3357 1.429 . S
C3361 C3362 1.523 . S
C3362 C3346 1.368 . S
C3362 C3358 1.368 . S
C3362 C3361 1.523 . S
H3363 C3338 0.950 . S
H3364 C3340 0.950 . S
H3365 C3341 0.949 . S
H3366 C3343 0.950 . S
H3367 C3345 0.950 . S
C3368 C3369 1.349 . S
C3368 C3370 1.327 . S
C3368 H3393 0.950 . S
C3369 C3368 1.349 . S
C3369 C3385 1.349 . S
C3370 C3368 1.327 . S
C3370 C3389 1.429 . S
C3370 H3394 0.950 . S
C3371 C3388 1.574 . S
C3371 C3390 1.368 . S
C3371 H3395 0.949 . S
H3372 C3376 0.949 . S
C3373 C3374 1.349 . S
C3373 C3375 1.327 . S
C3373 H3396 0.950 . S
C3374 C3373 1.349 . S
C3374 C3386 1.349 . S
C3375 C3373 1.327 . S
C3375 C3391 1.429 . S
C3375 H3397 0.950 . S
C3376 H3372 0.949 . S
C3376 C3384 1.574 . S
C3376 C3392 1.368 . S
H3377 C3385 0.950 . S
H3378 C3383 0.950 . S
H3379 C3384 0.949 . S
H3380 C3386 0.950 . S
H3381 C3387 0.950 . S
H3382 C3388 0.949 . S
C3383 H3378 0.950 . S
C3383 C3385 1.327 . S
C3383 C3389 1.429 . S
C3384 C3376 1.574 . S
C3384 H3379 0.949 . S
C3384 C3390 1.368 . S
C3385 C3369 1.349 . S
C3385 H3377 0.950 . S
C3385 C3383 1.327 . S
C3386 C3374 1.349 . S
C3386 H3380 0.950 . S
C3386 C3387 1.327 . S
C3387 H3381 0.950 . S
C3387 C3386 1.327 . S
C3387 C3391 1.429 . S
C3388 C3371 1.574 . S
C3388 H3382 0.949 . S
C3388 C3392 1.368 . S
C3389 C3370 1.429 . S
C3389 C3383 1.429 . S
C3389 C3390 1.523 . S
C3390 C3371 1.368 . S
C3390 C3384 1.368 . S
C3390 C3389 1.523 . S
C3391 C3375 1.429 . S
C3391 C3387 1.429 . S
C3391 C3392 1.523 . S
C3392 C3376 1.368 . S
C3392 C3388 1.368 . S
C3392 C3391 1.523 . S
H3393 C3368 0.950 . S
H3394 C3370 0.950 . S
H3395 C3371 0.949 . S
H3396 C3373 0.950 . S
H3397 C3375 0.950 . S
C3398 C3399 1.349 . S
C3398 C3400 1.327 . S
C3398 H3423 0.950 . S
C3399 C3398 1.349 . S
C3399 C3415 1.349 . S
C3400 C3398 1.327 . S
C3400 C3419 1.429 . S
C3400 H3424 0.950 . S
C3401 C3418 1.574 . S
C3401 C3420 1.368 . S
C3401 H3425 0.949 . S
H3402 C3406 0.949 . S
C3403 C3404 1.349 . S
C3403 C3405 1.327 . S
C3403 H3426 0.950 . S
C3404 C3403 1.349 . S
C3404 C3416 1.349 . S
C3405 C3403 1.327 . S
C3405 C3421 1.429 . S
C3405 H3427 0.950 . S
C3406 H3402 0.949 . S
C3406 C3414 1.574 . S
C3406 C3422 1.368 . S
H3407 C3415 0.950 . S
H3408 C3413 0.950 . S
H3409 C3414 0.949 . S
H3410 C3416 0.950 . S
H3411 C3417 0.950 . S
H3412 C3418 0.949 . S
C3413 H3408 0.950 . S
C3413 C3415 1.327 . S
C3413 C3419 1.429 . S
C3414 C3406 1.574 . S
C3414 H3409 0.949 . S
C3414 C3420 1.368 . S
C3415 C3399 1.349 . S
C3415 H3407 0.950 . S
C3415 C3413 1.327 . S
C3416 C3404 1.349 . S
C3416 H3410 0.950 . S
C3416 C3417 1.327 . S
C3417 H3411 0.950 . S
C3417 C3416 1.327 . S
C3417 C3421 1.429 . S
C3418 C3401 1.574 . S
C3418 H3412 0.949 . S
C3418 C3422 1.368 . S
C3419 C3400 1.429 . S
C3419 C3413 1.429 . S
C3419 C3420 1.523 . S
C3420 C3401 1.368 . S
C3420 C3414 1.368 . S
C3420 C3419 1.523 . S
C3421 C3405 1.429 . S
C3421 C3417 1.429 . S
C3421 C3422 1.523 . S
C3422 C3406 1.368 . S
C3422 C3418 1.368 . S
C3422 C3421 1.523 . S
H3423 C3398 0.950 . S
H3424 C3400 0.950 . S
H3425 C3401 0.949 . S
H3426 C3403 0.950 . S
H3427 C3405 0.950 . S
C3428 C3429 1.349 . S
C3428 C3430 1.327 . S
C3428 H3453 0.950 . S
C3429 C3428 1.349 . S
C3429 C3445 1.349 . S
C3430 C3428 1.327 . S
C3430 C3449 1.429 . S
C3430 H3454 0.950 . S
C3431 C3448 1.574 . S
C3431 C3450 1.368 . S
C3431 H3455 0.949 . S
H3432 C3436 0.949 . S
C3433 C3434 1.349 . S
C3433 C3435 1.327 . S
C3433 H3456 0.950 . S
C3434 C3433 1.349 . S
C3434 C3446 1.349 . S
C3435 C3433 1.327 . S
C3435 C3451 1.429 . S
C3435 H3457 0.950 . S
C3436 H3432 0.949 . S
C3436 C3444 1.574 . S
C3436 C3452 1.368 . S
H3437 C3445 0.950 . S
H3438 C3443 0.950 . S
H3439 C3444 0.949 . S
H3440 C3446 0.950 . S
H3441 C3447 0.950 . S
H3442 C3448 0.949 . S
C3443 H3438 0.950 . S
C3443 C3445 1.327 . S
C3443 C3449 1.429 . S
C3444 C3436 1.574 . S
C3444 H3439 0.949 . S
C3444 C3450 1.368 . S
C3445 C3429 1.349 . S
C3445 H3437 0.950 . S
C3445 C3443 1.327 . S
C3446 C3434 1.349 . S
C3446 H3440 0.950 . S
C3446 C3447 1.327 . S
C3447 H3441 0.950 . S
C3447 C3446 1.327 . S
C3447 C3451 1.429 . S
C3448 C3431 1.574 . S
C3448 H3442 0.949 . S
C3448 C3452 1.368 . S
C3449 C3430 1.429 . S
C3449 C3443 1.429 . S
C3449 C3450 1.523 . S
C3450 C3431 1.368 . S
C3450 C3444 1.368 . S
C3450 C3449 1.523 . S
C3451 C3435 1.429 . S
C3451 C3447 1.429 . S
C3451 C3452 1.523 . S
C3452 C3436 1.368 . S
C3452 C3448 1.368 . S
C3452 C3451 1.523 . S
H3453 C3428 0.950 . S
H3454 C3430 0.950 . S
H3455 C3431 0.949 . S
H3456 C3433 0.950 . S
H3457 C3435 0.950 . S
C3458 C3459 1.349 . S
C3458 C3460 1.327 . S
C3458 H3483 0.950 . S
C3459 C3458 1.349 . S
C3459 C3475 1.349 . S
C3460 C3458 1.327 . S
C3460 C3479 1.429 . S
C3460 H3484 0.950 . S
C3461 C3478 1.574 . S
C3461 C3480 1.368 . S
C3461 H3485 0.949 . S
H3462 C3466 0.949 . S
C3463 C3464 1.349 . S
C3463 C3465 1.327 . S
C3463 H3486 0.950 . S
C3464 C3463 1.349 . S
C3464 C3476 1.349 . S
C3465 C3463 1.327 . S
C3465 C3481 1.429 . S
C3465 H3487 0.950 . S
C3466 H3462 0.949 . S
C3466 C3474 1.574 . S
C3466 C3482 1.368 . S
H3467 C3475 0.950 . S
H3468 C3473 0.950 . S
H3469 C3474 0.949 . S
H3470 C3476 0.950 . S
H3471 C3477 0.950 . S
H3472 C3478 0.949 . S
C3473 H3468 0.950 . S
C3473 C3475 1.327 . S
C3473 C3479 1.429 . S
C3474 C3466 1.574 . S
C3474 H3469 0.949 . S
C3474 C3480 1.368 . S
C3475 C3459 1.349 . S
C3475 H3467 0.950 . S
C3475 C3473 1.327 . S
C3476 C3464 1.349 . S
C3476 H3470 0.950 . S
C3476 C3477 1.327 . S
C3477 H3471 0.950 . S
C3477 C3476 1.327 . S
C3477 C3481 1.429 . S
C3478 C3461 1.574 . S
C3478 H3472 0.949 . S
C3478 C3482 1.368 . S
C3479 C3460 1.429 . S
C3479 C3473 1.429 . S
C3479 C3480 1.523 . S
C3480 C3461 1.368 . S
C3480 C3474 1.368 . S
C3480 C3479 1.523 . S
C3481 C3465 1.429 . S
C3481 C3477 1.429 . S
C3481 C3482 1.523 . S
C3482 C3466 1.368 . S
C3482 C3478 1.368 . S
C3482 C3481 1.523 . S
H3483 C3458 0.950 . S
H3484 C3460 0.950 . S
H3485 C3461 0.949 . S
H3486 C3463 0.950 . S
H3487 C3465 0.950 . S
C3488 C3489 1.349 . S
C3488 C3490 1.327 . S
C3488 H3513 0.950 . S
C3489 C3488 1.349 . S
C3489 C3505 1.349 . S
C3490 C3488 1.327 . S
C3490 C3509 1.429 . S
C3490 H3514 0.950 . S
C3491 C3508 1.574 . S
C3491 C3510 1.368 . S
C3491 H3515 0.949 . S
H3492 C3496 0.949 . S
C3493 C3494 1.349 . S
C3493 C3495 1.327 . S
C3493 H3516 0.950 . S
C3494 C3493 1.349 . S
C3494 C3506 1.349 . S
C3495 C3493 1.327 . S
C3495 C3511 1.429 . S
C3495 H3517 0.950 . S
C3496 H3492 0.949 . S
C3496 C3504 1.574 . S
C3496 C3512 1.368 . S
H3497 C3505 0.950 . S
H3498 C3503 0.950 . S
H3499 C3504 0.949 . S
H3500 C3506 0.950 . S
H3501 C3507 0.950 . S
H3502 C3508 0.949 . S
C3503 H3498 0.950 . S
C3503 C3505 1.327 . S
C3503 C3509 1.429 . S
C3504 C3496 1.574 . S
C3504 H3499 0.949 . S
C3504 C3510 1.368 . S
C3505 C3489 1.349 . S
C3505 H3497 0.950 . S
C3505 C3503 1.327 . S
C3506 C3494 1.349 . S
C3506 H3500 0.950 . S
C3506 C3507 1.327 . S
C3507 H3501 0.950 . S
C3507 C3506 1.327 . S
C3507 C3511 1.429 . S
C3508 C3491 1.574 . S
C3508 H3502 0.949 . S
C3508 C3512 1.368 . S
C3509 C3490 1.429 . S
C3509 C3503 1.429 . S
C3509 C3510 1.523 . S
C3510 C3491 1.368 . S
C3510 C3504 1.368 . S
C3510 C3509 1.523 . S
C3511 C3495 1.429 . S
C3511 C3507 1.429 . S
C3511 C3512 1.523 . S
C3512 C3496 1.368 . S
C3512 C3508 1.368 . S
C3512 C3511 1.523 . S
H3513 C3488 0.950 . S
H3514 C3490 0.950 . S
H3515 C3491 0.949 . S
H3516 C3493 0.950 . S
H3517 C3495 0.950 . S
C3518 C3519 1.349 . S
C3518 C3520 1.327 . S
C3518 H3543 0.950 . S
C3519 C3518 1.349 . S
C3519 C3535 1.349 . S
C3520 C3518 1.327 . S
C3520 C3539 1.429 . S
C3520 H3544 0.950 . S
C3521 C3538 1.574 . S
C3521 C3540 1.368 . S
C3521 H3545 0.949 . S
H3522 C3526 0.949 . S
C3523 C3524 1.349 . S
C3523 C3525 1.327 . S
C3523 H3546 0.950 . S
C3524 C3523 1.349 . S
C3524 C3536 1.349 . S
C3525 C3523 1.327 . S
C3525 C3541 1.429 . S
C3525 H3547 0.950 . S
C3526 H3522 0.949 . S
C3526 C3534 1.574 . S
C3526 C3542 1.368 . S
H3527 C3535 0.950 . S
H3528 C3533 0.950 . S
H3529 C3534 0.949 . S
H3530 C3536 0.950 . S
H3531 C3537 0.950 . S
H3532 C3538 0.949 . S
C3533 H3528 0.950 . S
C3533 C3535 1.327 . S
C3533 C3539 1.429 . S
C3534 C3526 1.574 . S
C3534 H3529 0.949 . S
C3534 C3540 1.368 . S
C3535 C3519 1.349 . S
C3535 H3527 0.950 . S
C3535 C3533 1.327 . S
C3536 C3524 1.349 . S
C3536 H3530 0.950 . S
C3536 C3537 1.327 . S
C3537 H3531 0.950 . S
C3537 C3536 1.327 . S
C3537 C3541 1.429 . S
C3538 C3521 1.574 . S
C3538 H3532 0.949 . S
C3538 C3542 1.368 . S
C3539 C3520 1.429 . S
C3539 C3533 1.429 . S
C3539 C3540 1.523 . S
C3540 C3521 1.368 . S
C3540 C3534 1.368 . S
C3540 C3539 1.523 . S
C3541 C3525 1.429 . S
C3541 C3537 1.429 . S
C3541 C3542 1.523 . S
C3542 C3526 1.368 . S
C3542 C3538 1.368 . S
C3542 C3541 1.523 . S
H3543 C3518 0.950 . S
H3544 C3520 0.950 . S
H3545 C3521 0.949 . S
H3546 C3523 0.950 . S
H3547 C3525 0.950 . S
C3548 C3549 1.349 . S
C3548 C3550 1.327 . S
C3548 H3573 0.950 . S
C3549 C3548 1.349 . S
C3549 C3565 1.349 . S
C3550 C3548 1.327 . S
C3550 C3569 1.429 . S
C3550 H3574 0.950 . S
C3551 C3568 1.574 . S
C3551 C3570 1.368 . S
C3551 H3575 0.949 . S
H3552 C3556 0.949 . S
C3553 C3554 1.349 . S
C3553 C3555 1.327 . S
C3553 H3576 0.950 . S
C3554 C3553 1.349 . S
C3554 C3566 1.349 . S
C3555 C3553 1.327 . S
C3555 C3571 1.429 . S
C3555 H3577 0.950 . S
C3556 H3552 0.949 . S
C3556 C3564 1.574 . S
C3556 C3572 1.368 . S
H3557 C3565 0.950 . S
H3558 C3563 0.950 . S
H3559 C3564 0.949 . S
H3560 C3566 0.950 . S
H3561 C3567 0.950 . S
H3562 C3568 0.949 . S
C3563 H3558 0.950 . S
C3563 C3565 1.327 . S
C3563 C3569 1.429 . S
C3564 C3556 1.574 . S
C3564 H3559 0.949 . S
C3564 C3570 1.368 . S
C3565 C3549 1.349 . S
C3565 H3557 0.950 . S
C3565 C3563 1.327 . S
C3566 C3554 1.349 . S
C3566 H3560 0.950 . S
C3566 C3567 1.327 . S
C3567 H3561 0.950 . S
C3567 C3566 1.327 . S
C3567 C3571 1.429 . S
C3568 C3551 1.574 . S
C3568 H3562 0.949 . S
C3568 C3572 1.368 . S
C3569 C3550 1.429 . S
C3569 C3563 1.429 . S
C3569 C3570 1.523 . S
C3570 C3551 1.368 . S
C3570 C3564 1.368 . S
C3570 C3569 1.523 . S
C3571 C3555 1.429 . S
C3571 C3567 1.429 . S
C3571 C3572 1.523 . S
C3572 C3556 1.368 . S
C3572 C3568 1.368 . S
C3572 C3571 1.523 . S
H3573 C3548 0.950 . S
H3574 C3550 0.950 . S
H3575 C3551 0.949 . S
H3576 C3553 0.950 . S
H3577 C3555 0.950 . S
C3578 C3579 1.349 . S
C3578 C3580 1.327 . S
C3578 H3603 0.950 . S
C3579 C3578 1.349 . S
C3579 C3595 1.349 . S
C3580 C3578 1.327 . S
C3580 C3599 1.429 . S
C3580 H3604 0.950 . S
C3581 C3598 1.574 . S
C3581 C3600 1.368 . S
C3581 H3605 0.949 . S
H3582 C3586 0.949 . S
C3583 C3584 1.349 . S
C3583 C3585 1.327 . S
C3583 H3606 0.950 . S
C3584 C3583 1.349 . S
C3584 C3596 1.349 . S
C3585 C3583 1.327 . S
C3585 C3601 1.429 . S
C3585 H3607 0.950 . S
C3586 H3582 0.949 . S
C3586 C3594 1.574 . S
C3586 C3602 1.368 . S
H3587 C3595 0.950 . S
H3588 C3593 0.950 . S
H3589 C3594 0.949 . S
H3590 C3596 0.950 . S
H3591 C3597 0.950 . S
H3592 C3598 0.949 . S
C3593 H3588 0.950 . S
C3593 C3595 1.327 . S
C3593 C3599 1.429 . S
C3594 C3586 1.574 . S
C3594 H3589 0.949 . S
C3594 C3600 1.368 . S
C3595 C3579 1.349 . S
C3595 H3587 0.950 . S
C3595 C3593 1.327 . S
C3596 C3584 1.349 . S
C3596 H3590 0.950 . S
C3596 C3597 1.327 . S
C3597 H3591 0.950 . S
C3597 C3596 1.327 . S
C3597 C3601 1.429 . S
C3598 C3581 1.574 . S
C3598 H3592 0.949 . S
C3598 C3602 1.368 . S
C3599 C3580 1.429 . S
C3599 C3593 1.429 . S
C3599 C3600 1.523 . S
C3600 C3581 1.368 . S
C3600 C3594 1.368 . S
C3600 C3599 1.523 . S
C3601 C3585 1.429 . S
C3601 C3597 1.429 . S
C3601 C3602 1.523 . S
C3602 C3586 1.368 . S
C3602 C3598 1.368 . S
C3602 C3601 1.523 . S
H3603 C3578 0.950 . S
H3604 C3580 0.950 . S
H3605 C3581 0.949 . S
H3606 C3583 0.950 . S
H3607 C3585 0.950 . S
C3608 C3609 1.349 . S
C3608 C3610 1.327 . S
C3608 H3633 0.950 . S
C3609 C3608 1.349 . S
C3609 C3625 1.349 . S
C3610 C3608 1.327 . S
C3610 C3629 1.429 . S
C3610 H3634 0.950 . S
C3611 C3628 1.574 . S
C3611 C3630 1.368 . S
C3611 H3635 0.949 . S
H3612 C3616 0.949 . S
C3613 C3614 1.349 . S
C3613 C3615 1.327 . S
C3613 H3636 0.950 . S
C3614 C3613 1.349 . S
C3614 C3626 1.349 . S
C3615 C3613 1.327 . S
C3615 C3631 1.429 . S
C3615 H3637 0.950 . S
C3616 H3612 0.949 . S
C3616 C3624 1.574 . S
C3616 C3632 1.368 . S
H3617 C3625 0.950 . S
H3618 C3623 0.950 . S
H3619 C3624 0.949 . S
H3620 C3626 0.950 . S
H3621 C3627 0.950 . S
H3622 C3628 0.949 . S
C3623 H3618 0.950 . S
C3623 C3625 1.327 . S
C3623 C3629 1.429 . S
C3624 C3616 1.574 . S
C3624 H3619 0.949 . S
C3624 C3630 1.368 . S
C3625 C3609 1.349 . S
C3625 H3617 0.950 . S
C3625 C3623 1.327 . S
C3626 C3614 1.349 . S
C3626 H3620 0.950 . S
C3626 C3627 1.327 . S
C3627 H3621 0.950 . S
C3627 C3626 1.327 . S
C3627 C3631 1.429 . S
C3628 C3611 1.574 . S
C3628 H3622 0.949 . S
C3628 C3632 1.368 . S
C3629 C3610 1.429 . S
C3629 C3623 1.429 . S
C3629 C3630 1.523 . S
C3630 C3611 1.368 . S
C3630 C3624 1.368 . S
C3630 C3629 1.523 . S
C3631 C3615 1.429 . S
C3631 C3627 1.429 . S
C3631 C3632 1.523 . S
C3632 C3616 1.368 . S
C3632 C3628 1.368 . S
C3632 C3631 1.523 . S
H3633 C3608 0.950 . S
H3634 C3610 0.950 . S
H3635 C3611 0.949 . S
H3636 C3613 0.950 . S
H3637 C3615 0.950 . S
C3638 C3639 1.349 . S
C3638 C3640 1.327 . S
C3638 H3663 0.950 . S
C3639 C3638 1.349 . S
C3639 C3655 1.349 . S
C3640 C3638 1.327 . S
C3640 C3659 1.429 . S
C3640 H3664 0.950 . S
C3641 C3658 1.574 . S
C3641 C3660 1.368 . S
C3641 H3665 0.949 . S
H3642 C3646 0.949 . S
C3643 C3644 1.349 . S
C3643 C3645 1.327 . S
C3643 H3666 0.950 . S
C3644 C3643 1.349 . S
C3644 C3656 1.349 . S
C3645 C3643 1.327 . S
C3645 C3661 1.429 . S
C3645 H3667 0.950 . S
C3646 H3642 0.949 . S
C3646 C3654 1.574 . S
C3646 C3662 1.368 . S
H3647 C3655 0.950 . S
H3648 C3653 0.950 . S
H3649 C3654 0.949 . S
H3650 C3656 0.950 . S
H3651 C3657 0.950 . S
H3652 C3658 0.949 . S
C3653 H3648 0.950 . S
C3653 C3655 1.327 . S
C3653 C3659 1.429 . S
C3654 C3646 1.574 . S
C3654 H3649 0.949 . S
C3654 C3660 1.368 . S
C3655 C3639 1.349 . S
C3655 H3647 0.950 . S
C3655 C3653 1.327 . S
C3656 C3644 1.349 . S
C3656 H3650 0.950 . S
C3656 C3657 1.327 . S
C3657 H3651 0.950 . S
C3657 C3656 1.327 . S
C3657 C3661 1.429 . S
C3658 C3641 1.574 . S
C3658 H3652 0.949 . S
C3658 C3662 1.368 . S
C3659 C3640 1.429 . S
C3659 C3653 1.429 . S
C3659 C3660 1.523 . S
C3660 C3641 1.368 . S
C3660 C3654 1.368 . S
C3660 C3659 1.523 . S
C3661 C3645 1.429 . S
C3661 C3657 1.429 . S
C3661 C3662 1.523 . S
C3662 C3646 1.368 . S
C3662 C3658 1.368 . S
C3662 C3661 1.523 . S
H3663 C3638 0.950 . S
H3664 C3640 0.950 . S
H3665 C3641 0.949 . S
H3666 C3643 0.950 . S
H3667 C3645 0.950 . S
C3668 C3669 1.349 . S
C3668 C3670 1.327 . S
C3668 H3693 0.950 . S
C3669 C3668 1.349 . S
C3669 C3685 1.349 . S
C3670 C3668 1.327 . S
C3670 C3689 1.429 . S
C3670 H3694 0.950 . S
C3671 C3688 1.574 . S
C3671 C3690 1.368 . S
C3671 H3695 0.949 . S
H3672 C3676 0.949 . S
C3673 C3674 1.349 . S
C3673 C3675 1.327 . S
C3673 H3696 0.950 . S
C3674 C3673 1.349 . S
C3674 C3686 1.349 . S
C3675 C3673 1.327 . S
C3675 C3691 1.429 . S
C3675 H3697 0.950 . S
C3676 H3672 0.949 . S
C3676 C3684 1.574 . S
C3676 C3692 1.368 . S
H3677 C3685 0.950 . S
H3678 C3683 0.950 . S
H3679 C3684 0.949 . S
H3680 C3686 0.950 . S
H3681 C3687 0.950 . S
H3682 C3688 0.949 . S
C3683 H3678 0.950 . S
C3683 C3685 1.327 . S
C3683 C3689 1.429 . S
C3684 C3676 1.574 . S
C3684 H3679 0.949 . S
C3684 C3690 1.368 . S
C3685 C3669 1.349 . S
C3685 H3677 0.950 . S
C3685 C3683 1.327 . S
C3686 C3674 1.349 . S
C3686 H3680 0.950 . S
C3686 C3687 1.327 . S
C3687 H3681 0.950 . S
C3687 C3686 1.327 . S
C3687 C3691 1.429 . S
C3688 C3671 1.574 . S
C3688 H3682 0.949 . S
C3688 C3692 1.368 . S
C3689 C3670 1.429 . S
C3689 C3683 1.429 . S
C3689 C3690 1.523 . S
C3690 C3671 1.368 . S
C3690 C3684 1.368 . S
C3690 C3689 1.523 . S
C3691 C3675 1.429 . S
C3691 C3687 1.429 . S
C3691 C3692 1.523 . S
C3692 C3676 1.368 . S
C3692 C3688 1.368 . S
C3692 C3691 1.523 . S
H3693 C3668 0.950 . S
H3694 C3670 0.950 . S
H3695 C3671 0.949 . S
H3696 C3673 0.950 . S
H3697 C3675 0.950 . S
C3698 C3699 1.349 . S
C3698 C3700 1.327 . S
C3698 H3723 0.950 . S
C3699 C3698 1.349 . S
C3699 C3715 1.349 . S
C3700 C3698 1.327 . S
C3700 C3719 1.429 . S
C3700 H3724 0.950 . S
C3701 C3718 1.574 . S
C3701 C3720 1.368 . S
C3701 H3725 0.949 . S
H3702 C3706 0.949 . S
C3703 C3704 1.349 . S
C3703 C3705 1.327 . S
C3703 H3726 0.950 . S
C3704 C3703 1.349 . S
C3704 C3716 1.349 . S
C3705 C3703 1.327 . S
C3705 C3721 1.429 . S
C3705 H3727 0.950 . S
C3706 H3702 0.949 . S
C3706 C3714 1.574 . S
C3706 C3722 1.368 . S
H3707 C3715 0.950 . S
H3708 C3713 0.950 . S
H3709 C3714 0.949 . S
H3710 C3716 0.950 . S
H3711 C3717 0.950 . S
H3712 C3718 0.949 . S
C3713 H3708 0.950 . S
C3713 C3715 1.327 . S
C3713 C3719 1.429 . S
C3714 C3706 1.574 . S
C3714 H3709 0.949 . S
C3714 C3720 1.368 . S
C3715 C3699 1.349 . S
C3715 H3707 0.950 . S
C3715 C3713 1.327 . S
C3716 C3704 1.349 . S
C3716 H3710 0.950 . S
C3716 C3717 1.327 . S
C3717 H3711 0.950 . S
C3717 C3716 1.327 . S
C3717 C3721 1.429 . S
C3718 C3701 1.574 . S
C3718 H3712 0.949 . S
C3718 C3722 1.368 . S
C3719 C3700 1.429 . S
C3719 C3713 1.429 . S
C3719 C3720 1.523 . S
C3720 C3701 1.368 . S
C3720 C3714 1.368 . S
C3720 C3719 1.523 . S
C3721 C3705 1.429 . S
C3721 C3717 1.429 . S
C3721 C3722 1.523 . S
C3722 C3706 1.368 . S
C3722 C3718 1.368 . S
C3722 C3721 1.523 . S
H3723 C3698 0.950 . S
H3724 C3700 0.950 . S
H3725 C3701 0.949 . S
H3726 C3703 0.950 . S
H3727 C3705 0.950 . S
C3728 C3729 1.349 . S
C3728 C3730 1.327 . S
C3728 H3753 0.950 . S
C3729 C3728 1.349 . S
C3729 C3745 1.349 . S
C3730 C3728 1.327 . S
C3730 C3749 1.429 . S
C3730 H3754 0.950 . S
C3731 C3748 1.574 . S
C3731 C3750 1.368 . S
C3731 H3755 0.949 . S
H3732 C3736 0.949 . S
C3733 C3734 1.349 . S
C3733 C3735 1.327 . S
C3733 H3756 0.950 . S
C3734 C3733 1.349 . S
C3734 C3746 1.349 . S
C3735 C3733 1.327 . S
C3735 C3751 1.429 . S
C3735 H3757 0.950 . S
C3736 H3732 0.949 . S
C3736 C3744 1.574 . S
C3736 C3752 1.368 . S
H3737 C3745 0.950 . S
H3738 C3743 0.950 . S
H3739 C3744 0.949 . S
H3740 C3746 0.950 . S
H3741 C3747 0.950 . S
H3742 C3748 0.949 . S
C3743 H3738 0.950 . S
C3743 C3745 1.327 . S
C3743 C3749 1.429 . S
C3744 C3736 1.574 . S
C3744 H3739 0.949 . S
C3744 C3750 1.368 . S
C3745 C3729 1.349 . S
C3745 H3737 0.950 . S
C3745 C3743 1.327 . S
C3746 C3734 1.349 . S
C3746 H3740 0.950 . S
C3746 C3747 1.327 . S
C3747 H3741 0.950 . S
C3747 C3746 1.327 . S
C3747 C3751 1.429 . S
C3748 C3731 1.574 . S
C3748 H3742 0.949 . S
C3748 C3752 1.368 . S
C3749 C3730 1.429 . S
C3749 C3743 1.429 . S
C3749 C3750 1.523 . S
C3750 C3731 1.368 . S
C3750 C3744 1.368 . S
C3750 C3749 1.523 . S
C3751 C3735 1.429 . S
C3751 C3747 1.429 . S
C3751 C3752 1.523 . S
C3752 C3736 1.368 . S
C3752 C3748 1.368 . S
C3752 C3751 1.523 . S
H3753 C3728 0.950 . S
H3754 C3730 0.950 . S
H3755 C3731 0.949 . S
H3756 C3733 0.950 . S
H3757 C3735 0.950 . S
C3758 C3759 1.349 . S
C3758 C3760 1.327 . S
C3758 H3783 0.950 . S
C3759 C3758 1.349 . S
C3759 C3775 1.349 . S
C3760 C3758 1.327 . S
C3760 C3779 1.429 . S
C3760 H3784 0.950 . S
C3761 C3778 1.574 . S
C3761 C3780 1.368 . S
C3761 H3785 0.949 . S
H3762 C3766 0.949 . S
C3763 C3764 1.349 . S
C3763 C3765 1.327 . S
C3763 H3786 0.950 . S
C3764 C3763 1.349 . S
C3764 C3776 1.349 . S
C3765 C3763 1.327 . S
C3765 C3781 1.429 . S
C3765 H3787 0.950 . S
C3766 H3762 0.949 . S
C3766 C3774 1.574 . S
C3766 C3782 1.368 . S
H3767 C3775 0.950 . S
H3768 C3773 0.950 . S
H3769 C3774 0.949 . S
H3770 C3776 0.950 . S
H3771 C3777 0.950 . S
H3772 C3778 0.949 . S
C3773 H3768 0.950 . S
C3773 C3775 1.327 . S
C3773 C3779 1.429 . S
C3774 C3766 1.574 . S
C3774 H3769 0.949 . S
C3774 C3780 1.368 . S
C3775 C3759 1.349 . S
C3775 H3767 0.950 . S
C3775 C3773 1.327 . S
C3776 C3764 1.349 . S
C3776 H3770 0.950 . S
C3776 C3777 1.327 . S
C3777 H3771 0.950 . S
C3777 C3776 1.327 . S
C3777 C3781 1.429 . S
C3778 C3761 1.574 . S
C3778 H3772 0.949 . S
C3778 C3782 1.368 . S
C3779 C3760 1.429 . S
C3779 C3773 1.429 . S
C3779 C3780 1.523 . S
C3780 C3761 1.368 . S
C3780 C3774 1.368 . S
C3780 C3779 1.523 . S
C3781 C3765 1.429 . S
C3781 C3777 1.429 . S
C3781 C3782 1.523 . S
C3782 C3766 1.368 . S
C3782 C3778 1.368 . S
C3782 C3781 1.523 . S
H3783 C3758 0.950 . S
H3784 C3760 0.950 . S
H3785 C3761 0.949 . S
H3786 C3763 0.950 . S
H3787 C3765 0.950 . S
C3788 C3789 1.349 . S
C3788 C3790 1.327 . S
C3788 H3813 0.950 . S
C3789 C3788 1.349 . S
C3789 C3805 1.349 . S
C3790 C3788 1.327 . S
C3790 C3809 1.429 . S
C3790 H3814 0.950 . S
C3791 C3808 1.574 . S
C3791 C3810 1.368 . S
C3791 H3815 0.949 . S
H3792 C3796 0.949 . S
C3793 C3794 1.349 . S
C3793 C3795 1.327 . S
C3793 H3816 0.950 . S
C3794 C3793 1.349 . S
C3794 C3806 1.349 . S
C3795 C3793 1.327 . S
C3795 C3811 1.429 . S
C3795 H3817 0.950 . S
C3796 H3792 0.949 . S
C3796 C3804 1.574 . S
C3796 C3812 1.368 . S
H3797 C3805 0.950 . S
H3798 C3803 0.950 . S
H3799 C3804 0.949 . S
H3800 C3806 0.950 . S
H3801 C3807 0.950 . S
H3802 C3808 0.949 . S
C3803 H3798 0.950 . S
C3803 C3805 1.327 . S
C3803 C3809 1.429 . S
C3804 C3796 1.574 . S
C3804 H3799 0.949 . S
C3804 C3810 1.368 . S
C3805 C3789 1.349 . S
C3805 H3797 0.950 . S
C3805 C3803 1.327 . S
C3806 C3794 1.349 . S
C3806 H3800 0.950 . S
C3806 C3807 1.327 . S
C3807 H3801 0.950 . S
C3807 C3806 1.327 . S
C3807 C3811 1.429 . S
C3808 C3791 1.574 . S
C3808 H3802 0.949 . S
C3808 C3812 1.368 . S
C3809 C3790 1.429 . S
C3809 C3803 1.429 . S
C3809 C3810 1.523 . S
C3810 C3791 1.368 . S
C3810 C3804 1.368 . S
C3810 C3809 1.523 . S
C3811 C3795 1.429 . S
C3811 C3807 1.429 . S
C3811 C3812 1.523 . S
C3812 C3796 1.368 . S
C3812 C3808 1.368 . S
C3812 C3811 1.523 . S
H3813 C3788 0.950 . S
H3814 C3790 0.950 . S
H3815 C3791 0.949 . S
H3816 C3793 0.950 . S
H3817 C3795 0.950 . S
C3818 C3819 1.349 . S
C3818 C3820 1.327 . S
C3818 H3843 0.950 . S
C3819 C3818 1.349 . S
C3819 C3835 1.349 . S
C3820 C3818 1.327 . S
C3820 C3839 1.429 . S
C3820 H3844 0.950 . S
C3821 C3838 1.574 . S
C3821 C3840 1.368 . S
C3821 H3845 0.949 . S
H3822 C3826 0.949 . S
C3823 C3824 1.349 . S
C3823 C3825 1.327 . S
C3823 H3846 0.950 . S
C3824 C3823 1.349 . S
C3824 C3836 1.349 . S
C3825 C3823 1.327 . S
C3825 C3841 1.429 . S
C3825 H3847 0.950 . S
C3826 H3822 0.949 . S
C3826 C3834 1.574 . S
C3826 C3842 1.368 . S
H3827 C3835 0.950 . S
H3828 C3833 0.950 . S
H3829 C3834 0.949 . S
H3830 C3836 0.950 . S
H3831 C3837 0.950 . S
H3832 C3838 0.949 . S
C3833 H3828 0.950 . S
C3833 C3835 1.327 . S
C3833 C3839 1.429 . S
C3834 C3826 1.574 . S
C3834 H3829 0.949 . S
C3834 C3840 1.368 . S
C3835 C3819 1.349 . S
C3835 H3827 0.950 . S
C3835 C3833 1.327 . S
C3836 C3824 1.349 . S
C3836 H3830 0.950 . S
C3836 C3837 1.327 . S
C3837 H3831 0.950 . S
C3837 C3836 1.327 . S
C3837 C3841 1.429 . S
C3838 C3821 1.574 . S
C3838 H3832 0.949 . S
C3838 C3842 1.368 . S
C3839 C3820 1.429 . S
C3839 C3833 1.429 . S
C3839 C3840 1.523 . S
C3840 C3821 1.368 . S
C3840 C3834 1.368 . S
C3840 C3839 1.523 . S
C3841 C3825 1.429 . S
C3841 C3837 1.429 . S
C3841 C3842 1.523 . S
C3842 C3826 1.368 . S
C3842 C3838 1.368 . S
C3842 C3841 1.523 . S
H3843 C3818 0.950 . S
H3844 C3820 0.950 . S
H3845 C3821 0.949 . S
H3846 C3823 0.950 . S
H3847 C3825 0.950 . S
C974 N428 1.716 . S
C969 N5 1.767 . S
C1004 C455 1.526 . S
C999 N15 1.534 . S
C1029 N31 1.740 . S
C1034 C469 1.756 . S
C1064 N487 1.518 . S
C1059 N40 1.579 . S
C1089 N53 1.405 . S
C1094 C492 1.387 . S
C1119 N70 1.651 . S
C1124 C432 1.667 . S
C1149 N80 1.507 . S
C1154 N451 1.472 . S
C1184 N464 1.761 . S
C1179 N92 1.791 . S
C1214 N510 1.698 . S
C1209 N2 1.796 . S
C1239 N14 1.425 . S
C1244 N533 1.390 . S
C1269 N27 1.776 . S
C1274 N556 1.755 . S
C1304 N589 1.664 . S
C1299 N44 1.725 . S
C1329 N54 1.266 . S
C1334 C616 1.273 . S
C1364 C639 1.325 . S
C1359 N67 1.323 . S
C1389 N83 1.260 . S
C1394 C662 1.254 . S
C1424 C676 1.589 1_565 S
C1419 N93 1.606 . S
C1449 N1 1.688 . S
C1454 C593 1.649 . S
C1479 N57 1.434 . S
C1484 N635 1.403 . S
C1514 N658 1.823 . S
C1509 N66 1.848 . S
C1539 N79 1.871 . S
C1544 N671 1.843 . S
C1574 N612 1.825 . S
C1569 N96 1.863 . S
C1604 C538 1.574 . S
C1599 N28 1.578 . S
C1629 N41 1.422 . S
C1634 C561 1.417 . S
C1664 C515 1.395 . S
C1659 N18 1.421 . S
C1694 C708 1.788 . S
C1689 N109 1.787 . S
C1719 N119 1.431 . S
C1724 C722 1.408 . S
C1749 N135 1.675 . S
C1754 N750 1.641 . S
C1784 N763 1.492 . S
C1779 N144 1.548 . S
C1809 N157 1.437 . S
C1814 C768 1.415 . S
C1839 N174 1.655 . S
C1844 N704 1.627 . S
C1869 N184 1.618 . S
C1874 N717 1.532 . S
C1899 N196 1.782 . S
C1904 C754 1.785 . S
C1934 N602 1.681 . S
C1929 N106 1.777 . S
C1959 N118 1.441 . S
C1964 N786 1.386 . S
C1994 N648 1.677 1_655 S
C1989 N131 1.695 . S
C2019 N148 1.798 . S
C2024 C823 1.798 . S
C2049 N158 1.388 . S
C2054 C524 1.389 . S
C2084 C837 1.383 . S
C2079 N171 1.384 . S
C2109 N187 1.347 . S
C2114 C570 1.335 . S
C2144 N855 1.562 . S
C2139 N197 1.661 . S
C2169 N105 1.710 . S
C2174 N819 1.676 . S
C2204 N832 1.398 . S
C2199 N161 1.460 . S
C2229 N170 1.879 . S
C2234 N566 1.850 . S
C2264 C860 1.801 . S
C2259 N183 1.819 . S
C2289 N200 1.862 . S
C2294 N520 1.825 . S
C2319 N132 1.487 . S
C2324 C791 1.483 . S
C2349 N145 1.444 . S
C2354 C653 1.440 . S
C2379 N122 1.294 . S
C2384 C607 1.279 . S
C2409 N213 1.825 . S
C2414 C745 1.825 . S
C2444 C777 1.424 . S
C2439 N223 1.430 . S
C2469 N239 1.688 . S
C2474 N694 1.670 . S
C2499 N248 1.559 . S
C2504 N727 1.541 . S
C2529 N261 1.455 . S
C2534 C731 1.452 . S
C2559 N278 1.692 . S
C2564 N740 1.675 . S
C2594 N773 1.457 . S
C2589 N288 1.494 . S
C2619 N300 1.835 . S
C2624 C699 1.840 . S
C2654 N888 1.810 . S
C2649 N210 1.838 . S
C2679 N222 1.424 . S
C2684 N625 1.372 . S
C2714 N911 1.626 . S
C2709 N235 1.676 . S
C2739 N252 1.769 . S
C2744 N681 1.714 . S
C2769 N262 1.332 . S
C2774 C929 1.319 . S
C2799 N275 1.413 . S
C2804 C547 1.416 . S
C2834 N947 1.220 . S
C2829 N291 1.261 . S
C2859 N301 1.642 . S
C2864 C584 1.682 . S
C2894 C685 1.689 . S
C2889 N209 1.728 . S
C2924 N543 1.386 . S
C2919 N265 1.419 . S
C2949 N274 1.945 . S
C2954 C952 1.972 . S
C2979 N287 1.798 . S
C2984 N579 1.772 . S
C3014 N924 1.808 . S
C3009 N304 1.914 . S
C3044 C630 1.488 . S
C3039 N236 1.493 . S
C3074 C915 1.406 . S
C3069 N249 1.426 . S
C3104 C892 1.324 . S
C3099 N226 1.327 . S
C3129 N317 1.719 . S
C3134 N474 1.671 . S
C3159 N327 1.417 . S
C3164 C501 1.417 . S
C3194 C423 1.752 . S
C3189 N343 1.734 . S
C3224 N441 1.456 . S
C3219 N352 1.513 . S
C3254 C446 1.465 . S
C3249 N365 1.494 . S
C3284 C478 1.674 . S
C3279 N382 1.659 . S
C3314 N497 1.578 . S
C3309 N392 1.616 . S
C3339 N404 1.791 . S
C3344 N418 1.764 . S
C3369 N314 1.735 . S
C3374 N934 1.711 . S
C3404 N842 1.390 . S
C3399 N326 1.402 . S
C3434 C961 1.816 . S
C3429 N339 1.809 . S
C3464 C869 1.659 . S
C3459 N356 1.656 . S
C3489 N366 1.357 . S
C3494 C883 1.344 . S
C3524 C800 1.357 . S
C3519 N379 1.355 . S
C3554 C906 1.403 . S
C3549 N395 1.396 . S
C3579 N405 1.628 . S
C3584 N809 1.536 . S
C3614 N865 1.654 . S
C3609 N313 1.692 . S
C3644 N796 1.397 . S
C3639 N369 1.426 . S
C3674 N901 1.863 . S
C3669 N378 1.854 . S
C3699 N391 1.907 . S
C3704 C814 1.883 . S
C3729 N408 1.870 . S
C3734 N878 1.766 . S
C3759 N340 1.594 . S
C3764 C846 1.592 . S
C3789 N353 1.391 . S
C3794 N957 1.355 . S
C3824 C938 1.343 . S
C3819 N330 1.348 . S
