# Generated by pormake.
# Topology ctn, (3,4)-cn, num edge types: 1
# Building blocks:
#     Node 0, Type 0, BuildingBlock: CUQRIR_clean_linker_1, # of connection points: 3
#     Node 1, Type 0, BuildingBlock: CUQRIR_clean_linker_1, # of connection points: 3
#     Node 2, Type 0, BuildingBlock: CUQRIR_clean_linker_1, # of connection points: 3
#     Node 3, Type 0, BuildingBlock: CUQRIR_clean_linker_1, # of connection points: 3
#     Node 4, Type 0, BuildingBlock: CUQRIR_clean_linker_1, # of connection points: 3
#     Node 5, Type 0, BuildingBlock: CUQRIR_clean_linker_1, # of connection points: 3
#     Node 6, Type 0, BuildingBlock: CUQRIR_clean_linker_1, # of connection points: 3
#     Node 7, Type 0, BuildingBlock: CUQRIR_clean_linker_1, # of connection points: 3
#     Node 8, Type 0, BuildingBlock: CUQRIR_clean_linker_1, # of connection points: 3
#     Node 9, Type 0, BuildingBlock: CUQRIR_clean_linker_1, # of connection points: 3
#     Node 10, Type 0, BuildingBlock: CUQRIR_clean_linker_1, # of connection points: 3
#     Node 11, Type 0, BuildingBlock: CUQRIR_clean_linker_1, # of connection points: 3
#     Node 12, Type 0, BuildingBlock: CUQRIR_clean_linker_1, # of connection points: 3
#     Node 13, Type 0, BuildingBlock: CUQRIR_clean_linker_1, # of connection points: 3
#     Node 14, Type 0, BuildingBlock: CUQRIR_clean_linker_1, # of connection points: 3
#     Node 15, Type 0, BuildingBlock: CUQRIR_clean_linker_1, # of connection points: 3
#     Node 16, Type 1, BuildingBlock: QUQFOY_clean_sbu_1, # of connection points: 4
#     Node 17, Type 1, BuildingBlock: QUQFOY_clean_sbu_1, # of connection points: 4
#     Node 18, Type 1, BuildingBlock: QUQFOY_clean_sbu_1, # of connection points: 4
#     Node 19, Type 1, BuildingBlock: QUQFOY_clean_sbu_1, # of connection points: 4
#     Node 20, Type 1, BuildingBlock: QUQFOY_clean_sbu_1, # of connection points: 4
#     Node 21, Type 1, BuildingBlock: QUQFOY_clean_sbu_1, # of connection points: 4
#     Node 22, Type 1, BuildingBlock: QUQFOY_clean_sbu_1, # of connection points: 4
#     Node 23, Type 1, BuildingBlock: QUQFOY_clean_sbu_1, # of connection points: 4
#     Node 24, Type 1, BuildingBlock: QUQFOY_clean_sbu_1, # of connection points: 4
#     Node 25, Type 1, BuildingBlock: QUQFOY_clean_sbu_1, # of connection points: 4
#     Node 26, Type 1, BuildingBlock: QUQFOY_clean_sbu_1, # of connection points: 4
#     Node 27, Type 1, BuildingBlock: QUQFOY_clean_sbu_1, # of connection points: 4
#     Edge 28, Type (0, 1), None
#     Edge 29, Type (0, 1), None
#     Edge 30, Type (0, 1), None
#     Edge 31, Type (0, 1), None
#     Edge 32, Type (0, 1), None
#     Edge 33, Type (0, 1), None
#     Edge 34, Type (0, 1), None
#     Edge 35, Type (0, 1), None
#     Edge 36, Type (0, 1), None
#     Edge 37, Type (0, 1), None
#     Edge 38, Type (0, 1), None
#     Edge 39, Type (0, 1), None
#     Edge 40, Type (0, 1), None
#     Edge 41, Type (0, 1), None
#     Edge 42, Type (0, 1), None
#     Edge 43, Type (0, 1), None
#     Edge 44, Type (0, 1), None
#     Edge 45, Type (0, 1), None
#     Edge 46, Type (0, 1), None
#     Edge 47, Type (0, 1), None
#     Edge 48, Type (0, 1), None
#     Edge 49, Type (0, 1), None
#     Edge 50, Type (0, 1), None
#     Edge 51, Type (0, 1), None
#     Edge 52, Type (0, 1), None
#     Edge 53, Type (0, 1), None
#     Edge 54, Type (0, 1), None
#     Edge 55, Type (0, 1), None
#     Edge 56, Type (0, 1), None
#     Edge 57, Type (0, 1), None
#     Edge 58, Type (0, 1), None
#     Edge 59, Type (0, 1), None
#     Edge 60, Type (0, 1), None
#     Edge 61, Type (0, 1), None
#     Edge 62, Type (0, 1), None
#     Edge 63, Type (0, 1), None
#     Edge 64, Type (0, 1), None
#     Edge 65, Type (0, 1), None
#     Edge 66, Type (0, 1), None
#     Edge 67, Type (0, 1), None
#     Edge 68, Type (0, 1), None
#     Edge 69, Type (0, 1), None
#     Edge 70, Type (0, 1), None
#     Edge 71, Type (0, 1), None
#     Edge 72, Type (0, 1), None
#     Edge 73, Type (0, 1), None
#     Edge 74, Type (0, 1), None
#     Edge 75, Type (0, 1), None
# Relax obj value: 0.130
# Max RMSD: 0.211
# Mean RMSD: 0.149
data_MOF--net-ctn--node1-QUQFOY_clean_sbu_1--node2-CUQRIR_clean_linker_1--edge1-none
_symmetry_space_group_name_H-M    P1
_symmetry_Int_Tables_number       1
_symmetry_cell_setting            triclinic
loop_
_symmetry_equiv_pos_as_xyz
'x, y, z'
_cell_length_a     20.425571
_cell_length_b     18.175862
_cell_length_c     19.347666
_cell_angle_alpha  102.61454
_cell_angle_beta   86.031252
_cell_angle_gamma 100.21186
loop_
_atom_site_label
_atom_site_type_symbol
_atom_site_fract_x
_atom_site_fract_y
_atom_site_fract_z
_atom_type_partial_charge
C0 C 0.11084 0.10134 0.18722 0.0
N1 N 0.10777 0.0964 0.11603 0.0
N2 N 0.05625 0.1247 0.22223 0.0
C3 C 0.16349 0.0764 0.22413 0.0
C4 C 0.02343 0.14245 0.17177 0.0
N5 N 0.05144 0.12057 0.1066 0.0
C6 C 0.9653 0.18545 0.18787 0.0
H7 H 0.16229 1.01382 0.20648 0.0
H8 H 0.15519 0.08949 0.28243 0.0
H9 H 0.21356 0.10678 0.21171 0.0
H10 H 0.96831 0.22202 0.24194 0.0
H11 H 0.91796 0.14414 0.18397 0.0
H12 H 0.96499 0.2233 0.15048 0.0
C13 C 0.28753 0.76045 0.27906 0.0
N14 N 0.30799 0.71326 0.31572 0.0
N15 N 0.33982 0.80012 0.2489 0.0
C16 C 0.21565 0.76936 0.27467 0.0
C17 C 0.39336 0.77885 0.27207 0.0
N18 N 0.37463 0.72981 0.31702 0.0
C19 C 0.4645 0.80405 0.24856 0.0
H20 H 0.19758 0.74173 0.22083 0.0
H21 H 0.21126 0.83076 0.28491 0.0
H22 H 0.1829 0.74449 0.31484 0.0
H23 H 0.47774 0.86713 0.26513 0.0
H24 H 0.4699 0.78873 0.19007 0.0
H25 H 0.50053 0.77609 0.26951 0.0
C26 C 0.98224 0.5454 0.11869 0.0
N27 N 1.01143 0.49043 0.13674 0.0
N28 N 0.92356 0.51436 0.08753 0.0
C29 C 1.01523 0.62739 0.12259 0.0
C30 C 0.91648 0.43961 0.08964 0.0
N31 N 0.97188 0.42301 0.11424 0.0
C32 C 0.85254 0.3836 0.07239 0.0
H33 H 1.00095 0.64992 0.07799 0.0
H34 H 0.07025 0.63267 0.12029 0.0
H35 H 0.99948 0.66324 0.17297 0.0
H36 H 0.85405 0.35461 1.01563 0.0
H37 H 0.8087 0.41325 0.08242 0.0
H38 H 0.84562 0.34002 0.10565 0.0
C39 C 0.72852 0.78273 0.2931 0.0
N40 N 0.77322 0.82316 0.25382 0.0
N41 N 0.68646 0.82803 0.33094 0.0
C42 C 0.72254 0.69817 0.29027 0.0
C43 C 0.70767 0.89667 0.31379 0.0
N44 N 0.76359 0.89533 0.27302 0.0
C45 C 0.6722 0.96525 0.33224 0.0
H46 H 0.67991 0.66686 0.25727 0.0
H47 H 0.71365 0.68599 0.3441 0.0
H48 H 0.76848 0.67605 0.26848 0.0
H49 H 0.67567 0.99061 0.38979 0.0
H50 H 0.61892 0.94774 0.31895 0.0
H51 H 0.69395 1.00953 0.30191 0.0
C52 C 0.02711 0.98403 0.51533 0.0
N53 N 0.07631 0.99866 0.56226 0.0
N54 N 1.0074 0.04891 0.5073 0.0
C55 C 0.99691 0.90339 0.47984 0.0
C56 C 0.0509 0.10472 0.54639 0.0
N57 N 0.09816 0.07422 0.57214 0.0
C58 C 0.04976 0.18911 0.55592 0.0
H59 H 1.00526 0.89529 0.42157 0.0
H60 H 0.94251 0.89315 0.49183 0.0
H61 H 1.02023 0.8601 0.49728 0.0
H62 H 0.07868 0.22241 0.60235 0.0
H63 H 0.99792 0.20046 0.56477 0.0
H64 H 0.07085 0.20884 0.50738 0.0
C65 C 0.18863 0.82209 0.8818 0.0
N66 N 0.22975 0.79618 0.91947 0.0
N67 N 0.20379 0.8039 0.81164 0.0
C68 C 0.12279 0.84698 0.91005 0.0
C69 C 0.25714 0.76834 0.80821 0.0
N70 N 0.27242 0.76137 0.87336 0.0
C71 C 0.28742 0.73076 0.73883 0.0
H72 H 0.11401 0.85289 0.96781 0.0
H73 H 0.08082 0.80427 0.8849 0.0
H74 H 0.11965 0.90165 0.89487 0.0
H75 H 0.34145 0.75349 0.73649 0.0
H76 H 0.26459 0.74232 0.69271 0.0
H77 H 0.28087 0.66801 0.73475 0.0
C78 C 0.97897 0.51664 0.48751 0.0
N79 N 0.0312 0.57461 0.49552 0.0
N80 N 0.92094 0.54262 0.48839 0.0
C81 C 0.985 0.43282 0.47286 0.0
C82 C 0.939 0.61903 0.4969 0.0
N83 N 1.00517 0.63912 0.50931 0.0
C84 C 0.89042 0.67438 0.50553 0.0
H85 H 0.94613 0.39854 0.43612 0.0
H86 H 0.9774 0.41263 0.52343 0.0
H87 H 0.03477 0.42233 0.45044 0.0
H88 H 0.86876 0.68282 0.56035 0.0
H89 H 0.84935 0.652 0.46811 0.0
H90 H 0.91533 0.73026 0.49462 0.0
C91 C 0.79482 0.78744 0.86364 0.0
N92 N 0.8493 0.75296 0.86448 0.0
N93 N 0.81189 0.86434 0.87503 0.0
C94 C 0.72385 0.74813 0.87017 0.0
C95 C 0.87879 0.87569 0.87312 0.0
N96 N 0.90131 0.80783 0.85585 0.0
C97 C 0.92249 0.95326 0.88253 0.0
H98 H 0.72088 0.68543 0.86235 0.0
H99 H 0.69349 0.76077 0.83016 0.0
H100 H 0.7026 0.77052 0.92342 0.0
H101 H 0.97574 0.94892 0.88522 0.0
H102 H 0.90822 0.99098 0.93236 0.0
H103 H 0.91553 0.98042 0.83804 0.0
C104 C 0.29481 0.28744 0.36364 0.0
N105 N 0.3493 0.25297 0.36448 0.0
N106 N 0.31189 0.36434 0.37503 0.0
C107 C 0.22385 0.24813 0.37018 0.0
C108 C 0.37879 0.37569 0.37312 0.0
N109 N 0.40131 0.30783 0.35585 0.0
C110 C 0.42248 0.45326 0.38253 0.0
H111 H 0.22088 0.18543 0.36236 0.0
H112 H 0.19349 0.26077 0.33016 0.0
H113 H 0.2026 0.27052 0.42342 0.0
H114 H 0.47574 0.44892 0.38521 0.0
H115 H 0.40822 0.49098 0.43236 0.0
H116 H 0.41552 0.48041 0.33803 0.0
C117 C 0.48224 0.0454 0.61869 0.0
N118 N 0.51143 0.99043 0.63674 0.0
N119 N 0.42356 1.01436 0.58753 0.0
C120 C 0.51523 0.12739 0.62259 0.0
C121 C 0.41648 0.93961 0.58964 0.0
N122 N 0.47188 0.92301 0.61424 0.0
C123 C 0.35254 0.88361 0.57239 0.0
H124 H 0.50095 0.14992 0.57799 0.0
H125 H 0.57025 0.13267 0.62029 0.0
H126 H 0.49949 0.16324 0.67297 0.0
H127 H 0.35405 0.85461 0.51563 0.0
H128 H 0.3087 0.91325 0.58242 0.0
H129 H 0.34562 0.84002 0.60565 0.0
C130 C 0.22852 0.28273 0.7931 0.0
N131 N 0.27322 0.32316 0.75382 0.0
N132 N 0.18646 0.32803 0.83094 0.0
C133 C 0.22254 0.19817 0.79027 0.0
C134 C 0.20767 0.39667 0.81379 0.0
N135 N 0.26358 0.39533 0.77302 0.0
C136 C 0.17219 0.46525 0.83224 0.0
H137 H 0.17991 0.16687 0.75727 0.0
H138 H 0.21365 0.186 0.8441 0.0
H139 H 0.26848 0.17605 0.76848 0.0
H140 H 0.17566 0.49061 0.88979 0.0
H141 H 0.11892 0.44775 0.81895 0.0
H142 H 0.19394 0.50953 0.80191 0.0
C143 C 0.78753 0.26045 0.77906 0.0
N144 N 0.80799 0.21326 0.81571 0.0
N145 N 0.83982 0.30012 0.7489 0.0
C146 C 0.71565 0.26936 0.77467 0.0
C147 C 0.89336 0.27885 0.77207 0.0
N148 N 0.87463 0.22981 0.81702 0.0
C149 C 0.9645 0.30405 0.74856 0.0
H150 H 0.69758 0.24173 0.72083 0.0
H151 H 0.71126 0.33076 0.78491 0.0
H152 H 0.6829 0.24449 0.81484 0.0
H153 H 0.97774 0.36713 0.76513 0.0
H154 H 0.9699 0.28873 0.69008 0.0
H155 H 1.00053 0.27609 0.76951 0.0
C156 C 0.61084 0.60134 0.68722 0.0
N157 N 0.60777 0.5964 0.61603 0.0
N158 N 0.55625 0.6247 0.72223 0.0
C159 C 0.66349 0.5764 0.72413 0.0
C160 C 0.52343 0.64245 0.67177 0.0
N161 N 0.55144 0.62057 0.6066 0.0
C162 C 0.4653 0.68545 0.68787 0.0
H163 H 0.66228 0.51382 0.70648 0.0
H164 H 0.65519 0.58949 0.78243 0.0
H165 H 0.71356 0.60677 0.71171 0.0
H166 H 0.46831 0.72202 0.74194 0.0
H167 H 0.41796 0.64414 0.68397 0.0
H168 H 0.46499 0.72331 0.65048 0.0
C169 C 0.5271 0.48403 1.01533 0.0
N170 N 0.57631 0.49866 0.06225 0.0
N171 N 0.50739 0.54891 1.0073 0.0
C172 C 0.4969 0.40339 0.97983 0.0
C173 C 0.5509 0.60472 0.04639 0.0
N174 N 0.59815 0.57421 0.07214 0.0
C175 C 0.54976 0.68911 0.05592 0.0
H176 H 0.50526 0.39529 0.92157 0.0
H177 H 0.44251 0.39315 0.99183 0.0
H178 H 0.52023 0.3601 0.99728 0.0
H179 H 0.57869 0.72241 0.10235 0.0
H180 H 0.49792 0.70046 0.06477 0.0
H181 H 0.57085 0.70884 1.00738 0.0
C182 C 0.68863 0.32209 0.3818 0.0
N183 N 0.72975 0.29618 0.41947 0.0
N184 N 0.70379 0.3039 0.31164 0.0
C185 C 0.62279 0.34697 0.41005 0.0
C186 C 0.75714 0.26834 0.30821 0.0
N187 N 0.77242 0.26136 0.37336 0.0
C188 C 0.78742 0.23075 0.23883 0.0
H189 H 0.61402 0.35289 0.46781 0.0
H190 H 0.58082 0.30427 0.3849 0.0
H191 H 0.61965 0.40164 0.39487 0.0
H192 H 0.84145 0.25348 0.23649 0.0
H193 H 0.76458 0.24231 0.19271 0.0
H194 H 0.78086 0.16801 0.23475 0.0
C195 C 0.47897 1.01663 0.98751 0.0
N196 N 0.53121 0.0746 0.99552 0.0
N197 N 0.42094 0.04262 0.98839 0.0
C198 C 0.485 0.93282 0.97286 0.0
C199 C 0.439 0.11903 0.9969 0.0
N200 N 0.50517 0.13912 1.00931 0.0
C201 C 0.39042 0.17438 1.00553 0.0
H202 H 0.44613 0.89854 0.93611 0.0
H203 H 0.4774 0.91262 0.02343 0.0
H204 H 0.53477 0.92233 0.95043 0.0
H205 H 0.36876 0.18281 0.06035 0.0
H206 H 0.34935 0.152 0.9681 0.0
H207 H 0.41533 0.23026 0.99462 0.0
O208 O 0.26662 0.77941 0.02216 0.0
Cd209 Cd 0.31463 0.86762 0.09158 0.0
Cd210 Cd 0.21232 0.97168 0.99499 0.0
O211 O 0.21305 0.87203 0.02817 0.0
O212 O 0.37966 0.83221 0.14308 0.0
O213 O 0.28522 0.86836 0.19043 0.0
C214 C 0.33655 0.83718 0.19538 0.0
C215 C 0.14727 0.05693 0.06681 0.0
C216 C 0.23111 0.81144 0.99149 0.0
C217 C 0.36014 1.00428 1.00203 0.0
O218 O 0.30865 1.01843 0.97672 0.0
O219 O 0.35713 0.95452 0.0403 0.0
O220 O 0.1306 0.02839 1.00231 0.0
O221 O 0.19986 0.03899 0.0864 0.0
O222 O 0.27863 0.61755 0.37729 0.0
Cd223 Cd 0.21785 0.52353 0.40184 0.0
Cd224 Cd 0.13023 0.53976 0.29037 0.0
O225 O 0.21781 0.61929 0.28792 0.0
O226 O 0.28404 0.47679 0.4406 0.0
O227 O 0.22451 0.41662 0.34713 0.0
C228 C 0.27186 0.41856 0.38882 0.0
C229 C 0.05895 0.50584 0.18783 0.0
C230 C 0.26826 0.64757 0.32693 0.0
C231 C 0.08424 0.56652 0.44956 0.0
O232 O 0.0762 0.56654 0.38474 0.0
O233 O 0.13519 0.5446 0.46803 0.0
O234 O 0.07629 0.57423 0.22346 0.0
O235 O 0.0833 0.45364 0.20816 0.0
O236 O 0.84396 0.75977 0.98398 0.0
Cd237 Cd 0.78346 0.72672 0.06899 0.0
Cd238 Cd 0.80314 0.59606 1.0069 0.0
O239 O 0.82234 0.64659 0.91514 0.0
O240 O 0.77674 0.82507 0.13592 0.0
O241 O 0.81016 0.72817 0.1673 0.0
C242 C 0.79075 0.79372 0.1855 0.0
C243 C 0.88287 0.54731 0.05499 0.0
C244 C 0.84568 0.71788 0.92177 0.0
C245 C 0.66464 0.6035 0.06319 0.0
O246 O 0.70735 0.55917 0.04754 0.0
O247 O 0.68359 0.67345 0.05985 0.0
O248 O 0.84776 0.50715 1.00253 0.0
O249 O 0.87666 0.61824 0.0766 0.0
O250 O 0.93875 0.99468 0.4173 0.0
Cd251 Cd 0.94106 1.01293 0.3193 0.0
Cd252 Cd 0.8686 0.11176 0.38696 0.0
O253 O 0.9467 0.11721 0.45534 0.0
O254 O 0.03039 1.02264 0.27602 0.0
O255 O 0.96905 0.11542 0.30213 0.0
C256 C 0.02164 0.09054 0.27216 0.0
C257 C 0.81403 0.21385 0.38481 0.0
C258 C 0.96118 0.05379 0.4617 0.0
C259 C 0.81559 0.95388 0.28544 0.0
O260 O 0.81107 1.00979 0.33771 0.0
O261 O 0.87173 0.94554 0.2563 0.0
O262 O 0.80065 0.17452 0.4335 0.0
O263 O 0.86246 0.19818 0.34054 0.0
O264 O 0.34396 0.25977 0.48398 0.0
Cd265 Cd 0.28346 0.22673 0.56899 0.0
Cd266 Cd 0.30314 0.09606 0.5069 0.0
O267 O 0.32234 0.14659 0.41515 0.0
O268 O 0.27674 0.32507 0.63592 0.0
O269 O 0.31016 0.22818 0.6673 0.0
C270 C 0.29075 0.29372 0.6855 0.0
C271 C 0.38288 0.04732 0.55499 0.0
C272 C 0.34568 0.21788 0.42177 0.0
C273 C 0.16464 0.1035 0.56319 0.0
O274 O 0.20736 0.05917 0.54754 0.0
O275 O 0.18359 0.17346 0.55985 0.0
O276 O 0.34776 1.00715 0.50253 0.0
O277 O 0.37667 0.11825 0.5766 0.0
O278 O 0.43874 0.49468 0.9173 0.0
Cd279 Cd 0.44105 0.51293 0.8193 0.0
Cd280 Cd 0.3686 0.61176 0.88696 0.0
O281 O 0.4467 0.61722 0.95534 0.0
O282 O 0.53039 0.52264 0.77602 0.0
O283 O 0.46905 0.61542 0.80214 0.0
C284 C 0.52164 0.59054 0.77216 0.0
C285 C 0.31403 0.71385 0.88481 0.0
C286 C 0.46118 0.55379 0.9617 0.0
C287 C 0.31559 0.45388 0.78544 0.0
O288 O 0.31107 0.50979 0.83771 0.0
O289 O 0.37173 0.44555 0.7563 0.0
O290 O 0.30065 0.67453 0.93351 0.0
O291 O 0.36246 0.69819 0.84054 0.0
O292 O 0.76662 0.27941 0.52216 0.0
Cd293 Cd 0.81464 0.36762 0.59158 0.0
Cd294 Cd 0.71231 0.47167 0.49499 0.0
O295 O 0.71305 0.37202 0.52817 0.0
O296 O 0.87966 0.33221 0.64308 0.0
O297 O 0.78522 0.36835 0.69043 0.0
C298 C 0.83655 0.33717 0.69538 0.0
C299 C 0.64727 0.55693 0.56681 0.0
C300 C 0.73112 0.31144 0.49149 0.0
C301 C 0.86013 0.50428 0.50203 0.0
O302 O 0.80865 0.51843 0.47672 0.0
O303 O 0.85713 0.45452 0.54031 0.0
O304 O 0.6306 0.52839 0.50231 0.0
O305 O 0.69986 0.53899 0.5864 0.0
O306 O 0.77863 0.11755 0.87729 0.0
Cd307 Cd 0.71785 1.02353 0.90184 0.0
Cd308 Cd 0.63024 0.03975 0.79037 0.0
O309 O 0.71781 0.11929 0.78792 0.0
O310 O 0.78404 0.97679 0.9406 0.0
O311 O 0.72451 0.91661 0.84713 0.0
C312 C 0.77187 0.91856 0.88882 0.0
C313 C 0.55895 1.00584 0.68783 0.0
C314 C 0.76826 0.14756 0.82693 0.0
C315 C 0.58424 0.06652 0.94956 0.0
O316 O 0.5762 0.06653 0.88474 0.0
O317 O 0.63519 0.0446 0.96803 0.0
O318 O 0.57629 0.07423 0.72345 0.0
O319 O 0.5833 0.95364 0.70815 0.0
O320 O 0.95042 0.29648 0.05987 0.0
Cd321 Cd 0.96744 0.19515 0.98981 0.0
Cd322 Cd 0.04376 0.29139 0.95073 0.0
O323 O 0.05051 0.35839 0.05282 0.0
O324 O 0.95919 0.11535 0.04457 0.0
O325 O 0.05694 0.16454 1.00303 0.0
C326 C 0.02354 0.12536 0.04598 0.0
C327 C 0.13511 0.31225 0.87675 0.0
C328 C 0.99329 0.35587 0.08225 0.0
C329 C 0.91435 0.22602 0.87057 0.0
O330 O 0.96029 0.28238 0.89144 0.0
O331 O 0.90807 0.16884 0.89987 0.0
O332 O 0.10049 0.36407 0.90476 0.0
O333 O 0.11987 0.24682 0.89444 0.0
O334 O 0.45042 0.79648 0.55987 0.0
Cd335 Cd 0.46744 0.69515 0.48981 0.0
Cd336 Cd 0.54376 0.79139 0.45073 0.0
O337 O 0.55051 0.85839 0.55282 0.0
O338 O 0.45919 0.61535 0.54457 0.0
O339 O 0.55694 0.66454 0.50303 0.0
C340 C 0.52353 0.62536 0.54598 0.0
C341 C 0.63511 0.81225 0.37675 0.0
C342 C 0.49329 0.85587 0.58225 0.0
C343 C 0.41435 0.72602 0.37057 0.0
O344 O 0.46029 0.78238 0.39144 0.0
O345 O 0.40807 0.66884 0.39987 0.0
O346 O 0.60049 0.86407 0.40475 0.0
O347 O 0.61987 0.74681 0.39444 0.0
O348 O 0.96841 0.73217 0.78047 0.0
Cd349 Cd 0.05469 0.73581 0.71406 0.0
Cd350 Cd 0.02902 0.84959 0.66945 0.0
O351 O 0.97456 0.85109 0.76992 0.0
O352 O 0.12663 0.70716 0.75708 0.0
O353 O 0.12416 0.82591 0.74501 0.0
C354 C 0.15407 0.77818 0.76596 0.0
C355 C 0.06339 0.96009 0.61714 0.0
C356 C 0.95013 0.79687 0.80244 0.0
C357 C 0.02589 0.69496 0.56699 0.0
O358 O 1.00085 0.75619 0.58429 0.0
O359 O 0.05963 0.67844 0.61188 0.0
O360 O 1.00245 0.93461 0.63357 0.0
O361 O 0.1079 0.92897 0.63888 0.0
O362 O 0.46841 0.23217 0.28047 0.0
Cd363 Cd 0.55468 0.2358 0.21406 0.0
Cd364 Cd 0.52902 0.34959 0.16945 0.0
O365 O 0.47456 0.35109 0.26992 0.0
O366 O 0.62663 0.20715 0.25708 0.0
O367 O 0.62416 0.32591 0.24501 0.0
C368 C 0.65407 0.27817 0.26596 0.0
C369 C 0.56339 0.46009 0.11714 0.0
C370 C 0.45013 0.29687 0.30244 0.0
C371 C 0.52589 0.19496 0.06699 0.0
O372 O 0.50085 0.25618 0.08429 0.0
O373 O 0.55962 0.17844 0.11188 0.0
O374 O 0.50245 0.4346 0.13356 0.0
O375 O 0.6079 0.42897 0.13887 0.0
loop_
_geom_bond_atom_site_label_1
_geom_bond_atom_site_label_2
_geom_bond_distance
_geom_bond_site_symmetry_2
_ccdc_geom_bond_type
C0 N1 1.317 . S
C0 N2 1.348 . S
C0 C3 1.485 . S
N1 C0 1.317 . S
N1 N5 1.370 . S
N2 C0 1.348 . S
N2 C4 1.346 . S
C3 C0 1.485 . S
C3 H7 0.960 . S
C3 H8 0.961 . S
C3 H9 0.960 . S
C4 N2 1.346 . S
C4 N5 1.307 . S
C4 C6 1.486 . S
N5 N1 1.370 . S
N5 C4 1.307 . S
C6 C4 1.486 . S
C6 H10 0.960 . S
C6 H11 0.960 1_455 S
C6 H12 0.959 . S
H7 C3 0.960 . S
H8 C3 0.961 . S
H9 C3 0.960 . S
H10 C6 0.960 . S
H11 C6 0.960 1_655 S
H12 C6 0.959 . S
C13 N14 1.317 . S
C13 N15 1.348 . S
C13 C16 1.485 . S
N14 C13 1.317 . S
N14 N18 1.370 . S
N15 C13 1.348 . S
N15 C17 1.346 . S
C16 C13 1.485 . S
C16 H20 0.960 . S
C16 H21 0.961 . S
C16 H22 0.960 . S
C17 N15 1.346 . S
C17 N18 1.307 . S
C17 C19 1.486 . S
N18 N14 1.370 . S
N18 C17 1.307 . S
C19 C17 1.486 . S
C19 H23 0.960 . S
C19 H24 0.960 . S
C19 H25 0.959 . S
H20 C16 0.960 . S
H21 C16 0.961 . S
H22 C16 0.960 . S
H23 C19 0.960 . S
H24 C19 0.960 . S
H25 C19 0.959 . S
C26 N27 1.317 . S
C26 N28 1.348 . S
C26 C29 1.485 . S
N27 C26 1.317 . S
N27 N31 1.370 . S
N28 C26 1.348 . S
N28 C30 1.346 . S
C29 C26 1.485 . S
C29 H33 0.960 . S
C29 H34 0.961 . S
C29 H35 0.960 . S
C30 N28 1.346 . S
C30 N31 1.307 . S
C30 C32 1.486 1_554 S
N31 N27 1.370 . S
N31 C30 1.307 . S
C32 C30 1.486 1_556 S
C32 H36 0.960 . S
C32 H37 0.960 . S
C32 H38 0.959 . S
H33 C29 0.960 . S
H34 C29 0.961 . S
H35 C29 0.960 . S
H36 C32 0.960 . S
H37 C32 0.960 . S
H38 C32 0.959 . S
C39 N40 1.317 . S
C39 N41 1.348 . S
C39 C42 1.485 . S
N40 C39 1.317 . S
N40 N44 1.370 . S
N41 C39 1.348 . S
N41 C43 1.346 . S
C42 C39 1.485 . S
C42 H46 0.960 . S
C42 H47 0.961 . S
C42 H48 0.960 . S
C43 N41 1.346 . S
C43 N44 1.307 . S
C43 C45 1.486 . S
N44 N40 1.370 . S
N44 C43 1.307 . S
C45 C43 1.486 . S
C45 H49 0.960 . S
C45 H50 0.960 . S
C45 H51 0.959 . S
H46 C42 0.960 . S
H47 C42 0.961 . S
H48 C42 0.960 . S
H49 C45 0.960 . S
H50 C45 0.960 . S
H51 C45 0.959 . S
C52 N53 1.317 . S
C52 N54 1.348 . S
C52 C55 1.485 1_455 S
N53 C52 1.317 . S
N53 N57 1.370 . S
N54 C52 1.348 . S
N54 C56 1.346 . S
C55 C52 1.485 1_655 S
C55 H59 0.960 . S
C55 H60 0.961 . S
C55 H61 0.960 . S
C56 N54 1.346 . S
C56 N57 1.307 . S
C56 C58 1.486 1_565 S
N57 N53 1.370 . S
N57 C56 1.307 . S
C58 C56 1.486 1_545 S
C58 H62 0.960 . S
C58 H63 0.960 . S
C58 H64 0.959 . S
H59 C55 0.960 . S
H60 C55 0.961 . S
H61 C55 0.960 . S
H62 C58 0.960 . S
H63 C58 0.960 . S
H64 C58 0.959 . S
C65 N66 1.317 . S
C65 N67 1.348 . S
C65 C68 1.485 . S
N66 C65 1.317 . S
N66 N70 1.370 . S
N67 C65 1.348 . S
N67 C69 1.346 . S
C68 C65 1.485 . S
C68 H72 0.960 . S
C68 H73 0.961 . S
C68 H74 0.960 . S
C69 N67 1.346 . S
C69 N70 1.307 . S
C69 C71 1.486 . S
N70 N66 1.370 . S
N70 C69 1.307 . S
C71 C69 1.486 . S
C71 H75 0.960 . S
C71 H76 0.960 . S
C71 H77 0.959 . S
H72 C68 0.960 . S
H73 C68 0.961 . S
H74 C68 0.960 . S
H75 C71 0.960 . S
H76 C71 0.960 . S
H77 C71 0.959 . S
C78 N79 1.317 . S
C78 N80 1.348 . S
C78 C81 1.485 . S
N79 C78 1.317 . S
N79 N83 1.370 . S
N80 C78 1.348 . S
N80 C82 1.346 . S
C81 C78 1.485 . S
C81 H85 0.960 . S
C81 H86 0.961 . S
C81 H87 0.960 . S
C82 N80 1.346 . S
C82 N83 1.307 . S
C82 C84 1.486 . S
N83 N79 1.370 . S
N83 C82 1.307 . S
C84 C82 1.486 . S
C84 H88 0.960 . S
C84 H89 0.960 . S
C84 H90 0.959 . S
H85 C81 0.960 . S
H86 C81 0.961 . S
H87 C81 0.960 . S
H88 C84 0.960 . S
H89 C84 0.960 . S
H90 C84 0.959 . S
C91 N92 1.317 . S
C91 N93 1.348 . S
C91 C94 1.485 . S
N92 C91 1.317 . S
N92 N96 1.370 . S
N93 C91 1.348 . S
N93 C95 1.346 . S
C94 C91 1.485 . S
C94 H98 0.960 . S
C94 H99 0.961 . S
C94 H100 0.960 . S
C95 N93 1.346 . S
C95 N96 1.307 . S
C95 C97 1.486 . S
N96 N92 1.370 . S
N96 C95 1.307 . S
C97 C95 1.486 . S
C97 H101 0.960 . S
C97 H102 0.960 . S
C97 H103 0.959 . S
H98 C94 0.960 . S
H99 C94 0.961 . S
H100 C94 0.960 . S
H101 C97 0.960 . S
H102 C97 0.960 . S
H103 C97 0.959 . S
C104 N105 1.317 . S
C104 N106 1.348 . S
C104 C107 1.485 . S
N105 C104 1.317 . S
N105 N109 1.370 . S
N106 C104 1.348 . S
N106 C108 1.346 . S
C107 C104 1.485 . S
C107 H111 0.960 . S
C107 H112 0.961 . S
C107 H113 0.960 . S
C108 N106 1.346 . S
C108 N109 1.307 . S
C108 C110 1.486 . S
N109 N105 1.370 . S
N109 C108 1.307 . S
C110 C108 1.486 . S
C110 H114 0.960 . S
C110 H115 0.960 . S
C110 H116 0.959 . S
H111 C107 0.960 . S
H112 C107 0.961 . S
H113 C107 0.960 . S
H114 C110 0.960 . S
H115 C110 0.960 . S
H116 C110 0.959 . S
C117 N118 1.317 . S
C117 N119 1.348 . S
C117 C120 1.485 1_565 S
N118 C117 1.317 . S
N118 N122 1.370 . S
N119 C117 1.348 . S
N119 C121 1.346 . S
C120 C117 1.485 1_545 S
C120 H124 0.960 . S
C120 H125 0.961 . S
C120 H126 0.960 . S
C121 N119 1.346 . S
C121 N122 1.307 . S
C121 C123 1.486 . S
N122 N118 1.370 . S
N122 C121 1.307 . S
C123 C121 1.486 . S
C123 H127 0.960 . S
C123 H128 0.960 . S
C123 H129 0.959 . S
H124 C120 0.960 . S
H125 C120 0.961 . S
H126 C120 0.960 . S
H127 C123 0.960 . S
H128 C123 0.960 . S
H129 C123 0.959 . S
C130 N131 1.317 . S
C130 N132 1.348 . S
C130 C133 1.485 . S
N131 C130 1.317 . S
N131 N135 1.370 . S
N132 C130 1.348 . S
N132 C134 1.346 . S
C133 C130 1.485 . S
C133 H137 0.960 . S
C133 H138 0.961 . S
C133 H139 0.960 . S
C134 N132 1.346 . S
C134 N135 1.307 . S
C134 C136 1.486 . S
N135 N131 1.370 . S
N135 C134 1.307 . S
C136 C134 1.486 . S
C136 H140 0.960 . S
C136 H141 0.960 . S
C136 H142 0.959 . S
H137 C133 0.960 . S
H138 C133 0.961 . S
H139 C133 0.960 . S
H140 C136 0.960 . S
H141 C136 0.960 . S
H142 C136 0.959 . S
C143 N144 1.317 . S
C143 N145 1.348 . S
C143 C146 1.485 . S
N144 C143 1.317 . S
N144 N148 1.370 . S
N145 C143 1.348 . S
N145 C147 1.346 . S
C146 C143 1.485 . S
C146 H150 0.960 . S
C146 H151 0.961 . S
C146 H152 0.960 . S
C147 N145 1.346 . S
C147 N148 1.307 . S
C147 C149 1.486 . S
N148 N144 1.370 . S
N148 C147 1.307 . S
C149 C147 1.486 . S
C149 H153 0.960 . S
C149 H154 0.960 . S
C149 H155 0.959 . S
H150 C146 0.960 . S
H151 C146 0.961 . S
H152 C146 0.960 . S
H153 C149 0.960 . S
H154 C149 0.960 . S
H155 C149 0.959 . S
C156 N157 1.317 . S
C156 N158 1.348 . S
C156 C159 1.485 . S
N157 C156 1.317 . S
N157 N161 1.370 . S
N158 C156 1.348 . S
N158 C160 1.346 . S
C159 C156 1.485 . S
C159 H163 0.960 . S
C159 H164 0.961 . S
C159 H165 0.960 . S
C160 N158 1.346 . S
C160 N161 1.307 . S
C160 C162 1.486 . S
N161 N157 1.370 . S
N161 C160 1.307 . S
C162 C160 1.486 . S
C162 H166 0.960 . S
C162 H167 0.960 . S
C162 H168 0.959 . S
H163 C159 0.960 . S
H164 C159 0.961 . S
H165 C159 0.960 . S
H166 C162 0.960 . S
H167 C162 0.960 . S
H168 C162 0.959 . S
C169 N170 1.317 . S
C169 N171 1.348 . S
C169 C172 1.485 . S
N170 C169 1.317 . S
N170 N174 1.370 . S
N171 C169 1.348 . S
N171 C173 1.346 . S
C172 C169 1.485 . S
C172 H176 0.960 . S
C172 H177 0.961 . S
C172 H178 0.960 . S
C173 N171 1.346 . S
C173 N174 1.307 . S
C173 C175 1.486 . S
N174 N170 1.370 . S
N174 C173 1.307 . S
C175 C173 1.486 . S
C175 H179 0.960 . S
C175 H180 0.960 . S
C175 H181 0.959 . S
H176 C172 0.960 . S
H177 C172 0.961 . S
H178 C172 0.960 . S
H179 C175 0.960 . S
H180 C175 0.960 . S
H181 C175 0.959 . S
C182 N183 1.317 . S
C182 N184 1.348 . S
C182 C185 1.485 . S
N183 C182 1.317 . S
N183 N187 1.370 . S
N184 C182 1.348 . S
N184 C186 1.346 . S
C185 C182 1.485 . S
C185 H189 0.960 . S
C185 H190 0.961 . S
C185 H191 0.960 . S
C186 N184 1.346 . S
C186 N187 1.307 . S
C186 C188 1.486 . S
N187 N183 1.370 . S
N187 C186 1.307 . S
C188 C186 1.486 . S
C188 H192 0.960 . S
C188 H193 0.960 . S
C188 H194 0.959 . S
H189 C185 0.960 . S
H190 C185 0.961 . S
H191 C185 0.960 . S
H192 C188 0.960 . S
H193 C188 0.960 . S
H194 C188 0.959 . S
C195 N196 1.317 . S
C195 N197 1.348 . S
C195 C198 1.485 1_545 S
N196 C195 1.317 . S
N196 N200 1.370 . S
N197 C195 1.348 . S
N197 C199 1.346 1_556 S
C198 C195 1.485 1_565 S
C198 H202 0.960 . S
C198 H203 0.961 . S
C198 H204 0.960 . S
C199 N197 1.346 1_554 S
C199 N200 1.307 1_554 S
C199 C201 1.486 . S
N200 N196 1.370 . S
N200 C199 1.307 1_556 S
C201 C199 1.486 . S
C201 H205 0.960 . S
C201 H206 0.960 . S
C201 H207 0.959 . S
H202 C198 0.960 . S
H203 C198 0.961 . S
H204 C198 0.960 . S
H205 C201 0.960 . S
H206 C201 0.960 . S
H207 C201 0.959 . S
O208 Cd209 2.223 1_556 S
O208 C216 1.315 . S
Cd209 O208 2.223 1_554 S
Cd209 O212 2.297 . S
Cd209 O213 2.439 . S
Cd209 O219 2.240 . S
Cd210 O211 2.240 . S
Cd210 O218 2.223 1_554 S
Cd210 O220 2.297 1_565 S
Cd210 O221 2.439 1_565 S
O211 Cd210 2.240 . S
O211 C216 1.279 1_554 S
O212 Cd209 2.297 . S
O212 C214 1.247 . S
O213 Cd209 2.439 . S
O213 C214 1.208 . S
C214 O212 1.247 . S
C214 O213 1.208 . S
C215 O220 1.247 . S
C215 O221 1.208 . S
C216 O208 1.315 . S
C216 O211 1.279 1_556 S
C217 O218 1.315 1_544 S
C217 O219 1.279 1_545 S
O218 Cd210 2.223 1_556 S
O218 C217 1.315 1_566 S
O219 Cd209 2.240 . S
O219 C217 1.279 1_565 S
O220 Cd210 2.297 1_545 S
O220 C215 1.247 . S
O221 Cd210 2.439 1_545 S
O221 C215 1.208 . S
O222 Cd223 2.223 . S
O222 C230 1.315 . S
Cd223 O222 2.223 . S
Cd223 O226 2.297 . S
Cd223 O227 2.439 . S
Cd223 O233 2.240 . S
Cd224 O225 2.240 . S
Cd224 O232 2.223 . S
Cd224 O234 2.297 1_455 S
Cd224 O235 2.439 . S
O225 Cd224 2.240 . S
O225 C230 1.279 . S
O226 Cd223 2.297 . S
O226 C228 1.247 . S
O227 Cd223 2.439 . S
O227 C228 1.208 . S
C228 O226 1.247 . S
C228 O227 1.208 . S
C229 O234 1.247 . S
C229 O235 1.208 1_655 S
C230 O222 1.315 . S
C230 O225 1.279 . S
C231 O232 1.315 . S
C231 O233 1.279 . S
O232 Cd224 2.223 . S
O232 C231 1.315 . S
O233 Cd223 2.240 . S
O233 C231 1.279 . S
O234 Cd224 2.297 1_655 S
O234 C229 1.247 . S
O235 Cd224 2.439 . S
O235 C229 1.208 1_455 S
O236 Cd237 2.223 1_556 S
O236 C244 1.315 . S
Cd237 O236 2.223 1_554 S
Cd237 O240 2.297 . S
Cd237 O241 2.439 . S
Cd237 O247 2.240 1_554 S
Cd238 O239 2.240 . S
Cd238 O246 2.223 . S
Cd238 O248 2.297 . S
Cd238 O249 2.439 1_556 S
O239 Cd238 2.240 . S
O239 C244 1.279 . S
O240 Cd237 2.297 . S
O240 C242 1.247 . S
O241 Cd237 2.439 . S
O241 C242 1.208 . S
C242 O240 1.247 . S
C242 O241 1.208 . S
C243 O248 1.247 1_554 S
C243 O249 1.208 . S
C244 O236 1.315 . S
C244 O239 1.279 . S
C245 O246 1.315 . S
C245 O247 1.279 . S
O246 Cd238 2.223 . S
O246 C245 1.315 . S
O247 Cd237 2.240 1_556 S
O247 C245 1.279 . S
O248 Cd238 2.297 . S
O248 C243 1.247 1_556 S
O249 Cd238 2.439 1_554 S
O249 C243 1.208 . S
O250 Cd251 2.223 . S
O250 C258 1.315 . S
Cd251 O250 2.223 . S
Cd251 O254 2.297 1_665 S
Cd251 O255 2.439 1_565 S
Cd251 O261 2.240 . S
Cd252 O253 2.240 . S
Cd252 O260 2.223 1_545 S
Cd252 O262 2.297 . S
Cd252 O263 2.439 . S
O253 Cd252 2.240 . S
O253 C258 1.279 1_545 S
O254 Cd251 2.297 1_445 S
O254 C256 1.247 . S
O255 Cd251 2.439 1_545 S
O255 C256 1.208 1_655 S
C256 O254 1.247 . S
C256 O255 1.208 1_455 S
C257 O262 1.247 . S
C257 O263 1.208 . S
C258 O250 1.315 . S
C258 O253 1.279 1_565 S
C259 O260 1.315 . S
C259 O261 1.279 . S
O260 Cd252 2.223 1_565 S
O260 C259 1.315 . S
O261 Cd251 2.240 . S
O261 C259 1.279 . S
O262 Cd252 2.297 . S
O262 C257 1.247 . S
O263 Cd252 2.439 . S
O263 C257 1.208 . S
O264 Cd265 2.223 . S
O264 C272 1.315 . S
Cd265 O264 2.223 . S
Cd265 O268 2.297 . S
Cd265 O269 2.439 . S
Cd265 O275 2.240 . S
Cd266 O267 2.240 . S
Cd266 O274 2.223 . S
Cd266 O276 2.297 1_545 S
Cd266 O277 2.439 . S
O267 Cd266 2.240 . S
O267 C272 1.279 . S
O268 Cd265 2.297 . S
O268 C270 1.247 . S
O269 Cd265 2.439 . S
O269 C270 1.208 . S
C270 O268 1.247 . S
C270 O269 1.208 . S
C271 O276 1.247 1_545 S
C271 O277 1.208 . S
C272 O264 1.315 . S
C272 O267 1.279 . S
C273 O274 1.315 . S
C273 O275 1.279 . S
O274 Cd266 2.223 . S
O274 C273 1.315 . S
O275 Cd265 2.240 . S
O275 C273 1.279 . S
O276 Cd266 2.297 1_565 S
O276 C271 1.247 1_565 S
O277 Cd266 2.439 . S
O277 C271 1.208 . S
O278 Cd279 2.223 . S
O278 C286 1.315 . S
Cd279 O278 2.223 . S
Cd279 O282 2.297 . S
Cd279 O283 2.439 . S
Cd279 O289 2.240 . S
Cd280 O281 2.240 . S
Cd280 O288 2.223 . S
Cd280 O290 2.297 . S
Cd280 O291 2.439 . S
O281 Cd280 2.240 . S
O281 C286 1.279 . S
O282 Cd279 2.297 . S
O282 C284 1.247 . S
O283 Cd279 2.439 . S
O283 C284 1.208 . S
C284 O282 1.247 . S
C284 O283 1.208 . S
C285 O290 1.247 . S
C285 O291 1.208 . S
C286 O278 1.315 . S
C286 O281 1.279 . S
C287 O288 1.315 . S
C287 O289 1.279 . S
O288 Cd280 2.223 . S
O288 C287 1.315 . S
O289 Cd279 2.240 . S
O289 C287 1.279 . S
O290 Cd280 2.297 . S
O290 C285 1.247 . S
O291 Cd280 2.439 . S
O291 C285 1.208 . S
O292 Cd293 2.223 . S
O292 C300 1.315 . S
Cd293 O292 2.223 . S
Cd293 O296 2.297 . S
Cd293 O297 2.439 . S
Cd293 O303 2.240 . S
Cd294 O295 2.240 . S
Cd294 O302 2.223 . S
Cd294 O304 2.297 . S
Cd294 O305 2.439 . S
O295 Cd294 2.240 . S
O295 C300 1.279 . S
O296 Cd293 2.297 . S
O296 C298 1.247 . S
O297 Cd293 2.439 . S
O297 C298 1.208 . S
C298 O296 1.247 . S
C298 O297 1.208 . S
C299 O304 1.247 . S
C299 O305 1.208 . S
C300 O292 1.315 . S
C300 O295 1.279 . S
C301 O302 1.315 . S
C301 O303 1.279 . S
O302 Cd294 2.223 . S
O302 C301 1.315 . S
O303 Cd293 2.240 . S
O303 C301 1.279 . S
O304 Cd294 2.297 . S
O304 C299 1.247 . S
O305 Cd294 2.439 . S
O305 C299 1.208 . S
O306 Cd307 2.223 1_545 S
O306 C314 1.315 . S
Cd307 O306 2.223 1_565 S
Cd307 O310 2.297 . S
Cd307 O311 2.439 . S
Cd307 O317 2.240 1_565 S
Cd308 O309 2.240 . S
Cd308 O316 2.223 . S
Cd308 O318 2.297 1_545 S
Cd308 O319 2.439 1_545 S
O309 Cd308 2.240 . S
O309 C314 1.279 . S
O310 Cd307 2.297 . S
O310 C312 1.247 . S
O311 Cd307 2.439 . S
O311 C312 1.208 . S
C312 O310 1.247 . S
C312 O311 1.208 . S
C313 O318 1.247 . S
C313 O319 1.208 . S
C314 O306 1.315 . S
C314 O309 1.279 . S
C315 O316 1.315 . S
C315 O317 1.279 . S
O316 Cd308 2.223 . S
O316 C315 1.315 . S
O317 Cd307 2.240 1_545 S
O317 C315 1.279 . S
O318 Cd308 2.297 1_565 S
O318 C313 1.247 . S
O319 Cd308 2.439 1_565 S
O319 C313 1.208 . S
O320 Cd321 2.223 1_554 S
O320 C328 1.315 . S
Cd321 O320 2.223 1_556 S
Cd321 O324 2.297 1_556 S
Cd321 O325 2.439 1_656 S
Cd321 O331 2.240 . S
Cd322 O323 2.240 1_456 S
Cd322 O330 2.223 1_455 S
Cd322 O332 2.297 . S
Cd322 O333 2.439 . S
O323 Cd322 2.240 1_654 S
O323 C328 1.279 . S
O324 Cd321 2.297 1_554 S
O324 C326 1.247 1_655 S
O325 Cd321 2.439 1_454 S
O325 C326 1.208 . S
C326 O324 1.247 1_455 S
C326 O325 1.208 . S
C327 O332 1.247 . S
C327 O333 1.208 . S
C328 O320 1.315 . S
C328 O323 1.279 . S
C329 O330 1.315 . S
C329 O331 1.279 . S
O330 Cd322 2.223 1_655 S
O330 C329 1.315 . S
O331 Cd321 2.240 . S
O331 C329 1.279 . S
O332 Cd322 2.297 . S
O332 C327 1.247 . S
O333 Cd322 2.439 . S
O333 C327 1.208 . S
O334 Cd335 2.223 . S
O334 C342 1.315 . S
Cd335 O334 2.223 . S
Cd335 O338 2.297 . S
Cd335 O339 2.439 . S
Cd335 O345 2.240 . S
Cd336 O337 2.240 . S
Cd336 O344 2.223 . S
Cd336 O346 2.297 . S
Cd336 O347 2.439 . S
O337 Cd336 2.240 . S
O337 C342 1.279 . S
O338 Cd335 2.297 . S
O338 C340 1.247 . S
O339 Cd335 2.439 . S
O339 C340 1.208 . S
C340 O338 1.247 . S
C340 O339 1.208 . S
C341 O346 1.247 . S
C341 O347 1.208 . S
C342 O334 1.315 . S
C342 O337 1.279 . S
C343 O344 1.315 . S
C343 O345 1.279 . S
O344 Cd336 2.223 . S
O344 C343 1.315 . S
O345 Cd335 2.240 . S
O345 C343 1.279 . S
O346 Cd336 2.297 . S
O346 C341 1.247 . S
O347 Cd336 2.439 . S
O347 C341 1.208 . S
O348 Cd349 2.223 1_655 S
O348 C356 1.315 . S
Cd349 O348 2.223 1_455 S
Cd349 O352 2.297 . S
Cd349 O353 2.439 . S
Cd349 O359 2.240 . S
Cd350 O351 2.240 . S
Cd350 O358 2.223 . S
Cd350 O360 2.297 1_655 S
Cd350 O361 2.439 1_655 S
O351 Cd350 2.240 . S
O351 C356 1.279 . S
O352 Cd349 2.297 . S
O352 C354 1.247 . S
O353 Cd349 2.439 . S
O353 C354 1.208 . S
C354 O352 1.247 . S
C354 O353 1.208 . S
C355 O360 1.247 . S
C355 O361 1.208 . S
C356 O348 1.315 . S
C356 O351 1.279 . S
C357 O358 1.315 . S
C357 O359 1.279 1_655 S
O358 Cd350 2.223 . S
O358 C357 1.315 . S
O359 Cd349 2.240 . S
O359 C357 1.279 1_455 S
O360 Cd350 2.297 1_455 S
O360 C355 1.247 . S
O361 Cd350 2.439 1_455 S
O361 C355 1.208 . S
O362 Cd363 2.223 . S
O362 C370 1.315 . S
Cd363 O362 2.223 . S
Cd363 O366 2.297 . S
Cd363 O367 2.439 . S
Cd363 O373 2.240 . S
Cd364 O365 2.240 . S
Cd364 O372 2.223 . S
Cd364 O374 2.297 . S
Cd364 O375 2.439 . S
O365 Cd364 2.240 . S
O365 C370 1.279 . S
O366 Cd363 2.297 . S
O366 C368 1.247 . S
O367 Cd363 2.439 . S
O367 C368 1.208 . S
C368 O366 1.247 . S
C368 O367 1.208 . S
C369 O374 1.247 . S
C369 O375 1.208 . S
C370 O362 1.315 . S
C370 O365 1.279 . S
C371 O372 1.315 . S
C371 O373 1.279 . S
O372 Cd364 2.223 . S
O372 C371 1.315 . S
O373 Cd363 2.240 . S
O373 C371 1.279 . S
O374 Cd364 2.297 . S
O374 C369 1.247 . S
O375 Cd364 2.439 . S
O375 C369 1.208 . S
C216 N66 1.491 . S
C231 N79 1.851 1_455 S
N92 C244 1.933 . S
C258 N54 1.523 1_655 S
C270 N131 1.893 . S
C284 N158 1.125 . S
N145 C298 1.738 . S
C313 N118 1.542 . S
N148 C329 1.994 . S
C342 N122 1.625 . S
N132 C327 1.448 . S
C340 N161 2.004 . S
N96 C356 2.218 . S
N53 C355 1.651 . S
N67 C354 1.303 . S
N83 C357 1.475 . S
N44 C259 1.905 . S
N187 C257 1.687 . S
C217 N197 1.275 1_554 S
C228 N106 1.550 . S
N57 C273 2.217 1_565 S
C314 N144 2.031 . S
C271 N119 1.627 1_545 S
C299 N157 1.659 . S
C300 N183 1.491 . S
N196 C315 1.851 . S
N105 C272 1.933 . S
C286 N171 1.523 . S
N40 C242 1.893 . S
C256 N2 1.125 . S
C214 N15 1.738 . S
C229 N27 1.542 . S
N18 C343 1.994 . S
N31 C328 1.625 . S
N41 C341 1.448 . S
N5 C326 2.004 . S
C370 N109 2.218 . S
C369 N170 1.651 1_554 S
C368 N184 1.303 . S
N200 C371 1.475 1_556 S
N135 C287 1.905 . S
C285 N70 1.687 . S
C301 N80 1.275 . S
C312 N93 1.550 . S
N174 C245 2.217 . S
C230 N14 2.031 . S
N28 C243 1.627 . S
C215 N1 1.659 . S
