# Generated by pormake.
# Topology rtl, (3,6)-cn, num edge types: 1
# Building blocks:
#     Node 0, Type 0, BuildingBlock: ESEHIV_clean_linker_0, # of connection points: 3
#     Node 1, Type 0, BuildingBlock: ESEHIV_clean_linker_0, # of connection points: 3
#     Node 2, Type 0, BuildingBlock: ESEHIV_clean_linker_0, # of connection points: 3
#     Node 3, Type 0, BuildingBlock: ESEHIV_clean_linker_0, # of connection points: 3
#     Node 4, Type 1, BuildingBlock: KUMBOL_clean_sbu_1, # of connection points: 6
#     Node 5, Type 1, BuildingBlock: KUMBOL_clean_sbu_1, # of connection points: 6
#     Edge 6, Type (0, 1), BuildingBlock: AJUNOK_clean_linker_0, # of connection points: 2
#     Edge 7, Type (0, 1), BuildingBlock: AJUNOK_clean_linker_0, # of connection points: 2
#     Edge 8, Type (0, 1), BuildingBlock: AJUNOK_clean_linker_0, # of connection points: 2
#     Edge 9, Type (0, 1), BuildingBlock: AJUNOK_clean_linker_0, # of connection points: 2
#     Edge 10, Type (0, 1), BuildingBlock: AJUNOK_clean_linker_0, # of connection points: 2
#     Edge 11, Type (0, 1), BuildingBlock: AJUNOK_clean_linker_0, # of connection points: 2
#     Edge 12, Type (0, 1), BuildingBlock: AJUNOK_clean_linker_0, # of connection points: 2
#     Edge 13, Type (0, 1), BuildingBlock: AJUNOK_clean_linker_0, # of connection points: 2
#     Edge 14, Type (0, 1), BuildingBlock: AJUNOK_clean_linker_0, # of connection points: 2
#     Edge 15, Type (0, 1), BuildingBlock: AJUNOK_clean_linker_0, # of connection points: 2
#     Edge 16, Type (0, 1), BuildingBlock: AJUNOK_clean_linker_0, # of connection points: 2
#     Edge 17, Type (0, 1), BuildingBlock: AJUNOK_clean_linker_0, # of connection points: 2
# Relax obj value: 0.019
# Max RMSD: 0.146
# Mean RMSD: 0.087
data_MOF--net-rtl--node1-KUMBOL_clean_sbu_1--node2-ESEHIV_clean_linker_0--edge1-AJUNOK_clean_linker_0
_symmetry_space_group_name_H-M    P1
_symmetry_Int_Tables_number       1
_symmetry_cell_setting            triclinic
loop_
_symmetry_equiv_pos_as_xyz
'x, y, z'
_cell_length_a     22.149346
_cell_length_b     23.194067
_cell_length_c     21.124485
_cell_angle_alpha  72.889949
_cell_angle_beta   98.279355
_cell_angle_gamma 91.460969
loop_
_atom_site_label
_atom_site_type_symbol
_atom_site_fract_x
_atom_site_fract_y
_atom_site_fract_z
_atom_type_partial_charge
H0 H 0.13136 0.89554 1.00481 0.0
H1 H 0.26969 0.7714 0.13444 0.0
H2 H 0.24367 0.79832 0.92143 0.0
C3 C 0.16886 0.86398 0.0122 0.0
C4 C 0.18667 0.85189 0.95666 0.0
C5 C 0.19775 0.83431 0.07693 0.0
C6 C 0.2455 0.79268 0.08494 0.0
C7 C 0.26201 0.77856 0.02913 0.0
C8 C 0.23239 0.80897 0.96502 0.0
H9 H 0.64351 0.60606 0.69559 0.0
H10 H 0.74359 0.73396 0.56083 0.0
H11 H 0.75358 0.73619 0.7658 0.0
C12 C 0.67405 0.64396 0.68611 0.0
C13 C 0.69444 0.66998 0.73735 0.0
C14 C 0.69285 0.66577 0.62304 0.0
C15 C 0.73136 0.71553 0.61062 0.0
C16 C 0.75436 0.74154 0.66151 0.0
C17 C 0.73539 0.7183 0.72519 0.0
H18 H 0.88007 0.08895 0.14504 0.0
H19 H 0.76725 0.18698 0.22617 0.0
H20 H 0.75873 0.22822 0.01164 0.0
C21 C 0.84401 0.12223 0.13696 0.0
C22 C 0.81765 0.15352 0.0717 0.0
C23 C 0.82702 0.136 0.19186 0.0
C24 C 0.78198 0.17986 0.18231 0.0
C25 C 0.75844 0.21572 0.11767 0.0
C26 C 0.77622 0.20164 0.06209 0.0
H27 H 0.39401 0.40805 0.42974 0.0
H28 H 0.27302 0.29645 0.5534 0.0
H29 H 0.3024 0.2618 0.37056 0.0
C30 C 0.36325 0.37032 0.43935 0.0
C31 C 0.35065 0.33747 0.39266 0.0
C32 C 0.33608 0.35478 0.49811 0.0
C33 C 0.29623 0.30616 0.50971 0.0
C34 C 0.28478 0.27086 0.4656 0.0
C35 C 0.31142 0.28764 0.40598 0.0
C36 C 0.9357 0.19608 0.49926 0.0
C37 C 0.83386 0.18263 0.44577 0.0
C38 C 0.88667 0.15892 0.4911 0.0
C39 C 0.8306 0.2441 0.4097 0.0
C40 C 0.9329 0.25766 0.46223 0.0
C41 C 0.87995 0.28151 0.41777 0.0
N42 N 0.98668 0.17168 0.54201 0.0
C43 C 0.0361 0.2063 0.55081 0.0
C44 C 0.98372 0.2933 0.47039 0.0
C45 C 0.03552 0.26748 0.51486 0.0
Gd46 Gd 0.07023 0.94295 0.5453 0.0
Gd47 Gd 0.98286 0.06891 0.59958 0.0
N48 N 0.89166 0.09914 0.52556 0.0
C49 C 0.78595 0.14377 0.43765 0.0
C50 C 0.84432 0.06145 0.51923 0.0
C51 C 0.79115 0.083 0.47475 0.0
H52 H 0.84691 0.01479 0.54813 0.0
H53 H 0.75408 0.05271 0.46936 0.0
H54 H 0.20111 0.01926 0.51228 0.0
H55 H 0.07568 0.18699 0.58642 0.0
H56 H 0.30412 0.0253 0.57102 0.0
H57 H 0.74473 0.16026 0.4031 0.0
H58 H 0.7901 0.26299 0.37529 0.0
H59 H 0.01681 0.80912 0.62439 0.0
H60 H 0.98342 0.34074 0.44262 0.0
H61 H 0.07489 0.29476 0.52178 0.0
H62 H 0.31615 0.85915 0.77138 0.0
H63 H 0.8769 0.32874 0.38899 0.0
H64 H 0.14877 0.72306 0.79323 0.0
H65 H 0.04841 0.72273 0.7245 0.0
N66 N 0.09837 0.85708 0.63656 0.0
C67 C 0.15475 0.857 0.67192 0.0
C68 C 0.0609 0.80901 0.65372 0.0
C69 C 0.13537 0.76063 0.74901 0.0
C70 C 0.07867 0.76026 0.71034 0.0
C71 C 0.1744 0.80913 0.72977 0.0
H72 H 0.24797 0.77495 0.81113 0.0
N73 N 0.17249 0.95008 0.59325 0.0
C74 C 0.19246 0.90535 0.65022 0.0
C75 C 0.29148 0.95109 0.65723 0.0
C76 C 0.25195 0.90561 0.68471 0.0
C77 C 0.2134 0.98978 0.56241 0.0
C78 C 0.27271 0.9922 0.59475 0.0
O79 O 0.97825 0.08129 0.48924 0.0
O80 O 0.98614 0.98654 0.47572 0.0
O81 O 0.11902 0.93868 0.46451 0.0
O82 O 0.06333 0.86453 0.50855 0.0
O83 O 0.94146 0.97497 0.62258 0.0
O84 O 0.97013 0.92496 0.55026 0.0
O85 O 0.05421 0.92872 0.65175 0.0
O86 O 0.06875 0.02312 0.66157 0.0
O87 O 0.9274 0.04852 0.67996 0.0
O88 O 0.97911 0.13049 0.65909 0.0
O89 O 0.09464 0.04209 0.50555 0.0
O90 O 0.08388 0.07688 0.59464 0.0
C91 C 0.96895 0.04352 0.45339 0.0
C92 C 0.93529 0.9311 0.59379 0.0
C93 C 0.06669 0.88797 0.39303 0.0
C94 C 0.07717 0.88029 0.28287 0.0
C95 C 0.97906 0.90708 0.30566 0.0
C96 C 1.00451 0.9027 0.37135 0.0
C97 C 0.0153 0.89632 0.26133 0.0
C98 C 0.1028 0.87616 0.34879 0.0
C99 C 0.09485 0.88809 0.46029 0.0
C100 C 0.27095 0.85916 0.74376 0.0
C101 C 0.23224 0.81106 0.76626 0.0
H102 H 0.33755 0.95287 0.68204 0.0
C103 C 0.07139 0.9647 0.68795 0.0
C104 C 0.10706 0.08149 0.53944 0.0
C105 C 0.96357 0.08537 0.77062 0.0
C106 C 0.94174 0.08979 0.8788 0.0
C107 C 0.03691 0.04465 0.87034 0.0
C108 C 0.02 0.0573 0.80135 0.0
C109 C 0.99786 0.06051 0.90905 0.0
C110 C 0.92473 0.10229 0.80938 0.0
C111 C 0.94438 0.09597 0.69859 0.0
H112 H 0.93125 0.919 0.28906 0.0
H113 H 0.97578 0.91104 0.40508 0.0
H114 H 0.99503 0.89989 0.21045 0.0
H115 H 0.15085 0.86477 0.36517 0.0
H116 H 0.08031 0.02249 0.89382 0.0
H117 H 0.05085 0.04527 0.77198 0.0
H118 H 0.0116 0.05039 0.96257 0.0
H119 H 0.88112 0.12419 0.78588 0.0
C120 C 0.68379 0.62262 0.06385 0.0
C121 C 0.65529 0.72835 0.03917 0.0
C122 C 0.64187 0.66658 0.06308 0.0
C123 C 0.71118 0.74543 0.01581 0.0
C124 C 0.73966 0.63992 0.03943 0.0
C125 C 0.75314 0.70136 0.01574 0.0
N126 N 0.66902 0.56327 0.086 0.0
C127 C 0.70884 0.51954 0.0854 0.0
C128 C 0.78017 0.595 0.03867 0.0
C129 C 0.76464 0.53461 0.06173 0.0
Gd130 Gd 0.45755 0.48223 0.99237 0.0
Gd131 Gd 0.57315 0.54467 0.12475 0.0
N132 N 0.58688 0.64894 0.08308 0.0
C133 C 0.6117 0.77124 0.03851 0.0
C134 C 0.54517 0.69055 0.08483 0.0
C135 C 0.55656 0.75221 0.06184 0.0
H136 H 0.5036 0.67643 0.10544 0.0
H137 H 0.52302 0.78499 0.06274 0.0
H138 H 0.49727 0.33322 0.04241 0.0
H139 H 0.69851 0.47289 0.10273 0.0
H140 H 0.45131 0.23637 0.09251 0.0
H141 H 0.62031 0.81908 0.02048 0.0
H142 H 0.72215 0.79265 0.99705 0.0
H143 H 0.34226 0.5847 0.947 0.0
H144 H 0.82341 0.60647 0.02015 0.0
H145 H 0.79568 0.49946 0.06132 0.0
H146 H 0.24542 0.28795 0.10219 0.0
H147 H 0.79582 0.7153 0.99686 0.0
H148 H 0.18216 0.49556 0.01489 0.0
H149 H 0.23426 0.58892 0.96095 0.0
N150 N 0.35315 0.49078 0.99767 0.0
C151 C 0.32462 0.43842 0.02405 0.0
C152 C 0.32098 0.54399 0.9731 0.0
C153 C 0.23001 0.49357 0.00988 0.0
C154 C 0.25929 0.54639 0.97969 0.0
C155 C 0.2624 0.43858 0.03172 0.0
H156 H 0.18671 0.38337 0.06702 0.0
N157 N 0.41785 0.38563 0.03546 0.0
C158 C 0.35787 0.38443 0.04363 0.0
C159 C 0.36383 0.27589 0.09013 0.0
C160 C 0.32948 0.32951 0.07173 0.0
C161 C 0.45089 0.33316 0.0515 0.0
C162 C 0.42463 0.27772 0.07945 0.0
O163 O 0.56434 0.591 0.01339 0.0
O164 O 0.55403 0.50846 0.97677 0.0
O165 O 0.4383 0.43907 0.91292 0.0
O166 O 0.43622 0.53656 0.88898 0.0
O167 O 0.47381 0.56961 0.10795 0.0
O168 O 0.44904 0.57844 0.99582 0.0
O169 O 0.43225 0.46626 0.09643 0.0
O170 O 0.52431 0.45665 0.16562 0.0
O171 O 0.55676 0.58107 0.20393 0.0
O172 O 0.64071 0.53168 0.21399 0.0
O173 O 0.54565 0.42719 0.03202 0.0
O174 O 0.59811 0.44979 0.12633 0.0
C175 C 0.57318 0.56342 0.96966 0.0
C176 C 0.44108 0.59351 0.04949 0.0
C177 C 0.37814 0.49363 0.8109 0.0
C178 C 0.34088 0.47518 0.7038 0.0
C179 C 0.27771 0.53042 0.75218 0.0
C180 C 0.32343 0.52464 0.80663 0.0
C181 C 0.28626 0.50597 0.70105 0.0
C182 C 0.38647 0.4686 0.75948 0.0
C183 C 0.42862 0.49016 0.86585 0.0
C184 C 0.26781 0.3297 0.08043 0.0
C185 C 0.23437 0.38405 0.06045 0.0
H186 H 0.34368 0.23282 0.11186 0.0
C187 C 0.46605 0.44376 0.15484 0.0
C188 C 0.58854 0.41593 0.08507 0.0
C189 C 0.60128 0.53128 0.31278 0.0
C190 C 0.61256 0.53844 0.42667 0.0
C191 C 0.55626 0.45598 0.39831 0.0
C192 C 0.56743 0.47879 0.33218 0.0
C193 C 0.5784 0.48577 0.44537 0.0
C194 C 0.624 0.56085 0.36013 0.0
C195 C 0.60734 0.55961 0.24219 0.0
H196 H 0.23553 0.55418 0.74945 0.0
H197 H 0.31621 0.54508 0.84474 0.0
H198 H 0.24977 0.51041 0.65974 0.0
H199 H 0.42887 0.44507 0.76214 0.0
H200 H 0.52954 0.41575 0.41291 0.0
H201 H 0.54854 0.45667 0.29568 0.0
H202 H 0.56882 0.4678 0.4963 0.0
H203 H 0.64857 0.60253 0.34461 0.0
C204 C 0.19675 0.20761 0.43493 0.0
C205 C 0.2437 0.21783 0.48289 0.0
C206 C 0.15325 0.16251 0.45308 0.0
C207 C 0.15436 0.1271 0.52 0.0
H208 H 0.19234 0.23589 0.38352 0.0
H209 H 0.11732 0.1567 0.41497 0.0
S210 S 0.27198 0.12935 0.66284 0.0
N211 N 0.29275 0.18231 0.59876 0.0
N212 N 0.20849 0.10164 0.63311 0.0
C213 C 0.20181 0.13551 0.56786 0.0
C214 C 0.24716 0.17965 0.54922 0.0
C215 C 0.35098 0.74022 0.99097 0.0
C216 C 0.3086 0.73108 0.03674 0.0
C217 C 0.39298 0.69493 0.99433 0.0
C218 C 0.39502 0.63958 0.04455 0.0
H219 H 0.35183 0.78278 0.9522 0.0
H220 H 0.42494 0.70373 0.95841 0.0
S221 S 0.29258 0.59062 0.17367 0.0
N222 N 0.26922 0.66006 0.13102 0.0
N223 N 0.35093 0.5766 0.13951 0.0
C224 C 0.35351 0.62963 0.0907 0.0
C225 C 0.30966 0.67502 0.08637 0.0
C226 C 0.84494 0.78723 0.60723 0.0
C227 C 0.80035 0.7906 0.6474 0.0
C228 C 0.88686 0.83323 0.5894 0.0
C229 C 0.888 0.88437 0.61255 0.0
H230 H 0.84777 0.74843 0.58909 0.0
H231 H 0.91899 0.828 0.55732 0.0
S232 S 0.78101 0.91611 0.71914 0.0
N233 N 0.75875 0.85074 0.70838 0.0
N234 N 0.84017 0.93559 0.67848 0.0
C235 C 0.84431 0.88819 0.65376 0.0
C236 C 0.80026 0.84171 0.67059 0.0
C237 C 0.66772 0.28307 0.05667 0.0
C238 C 0.71669 0.26813 0.10933 0.0
C239 C 0.62697 0.33069 0.04931 0.0
C240 C 0.63148 0.36407 0.09589 0.0
H241 H 0.66034 0.25764 0.02078 0.0
H242 H 0.59177 0.3413 1.00622 0.0
S243 S 0.75418 0.34634 0.24048 0.0
N244 N 0.77166 0.29624 0.20428 0.0
N245 N 0.68954 0.3782 0.19714 0.0
C246 C 0.67985 0.34905 0.14944 0.0
C247 C 0.72367 0.30317 0.15445 0.0
C248 C 0.15964 0.90462 0.13298 0.0
C249 C 0.17507 0.84537 0.13528 0.0
C250 C 0.12947 0.91577 0.18214 0.0
C251 C 0.11468 0.86821 0.23591 0.0
H252 H 0.16939 0.94259 0.09176 0.0
H253 H 0.11647 0.96174 0.17741 0.0
S254 S 0.14638 0.70553 0.26738 0.0
N255 N 0.17375 0.73867 0.19707 0.0
N256 N 0.11902 0.76041 0.29078 0.0
C257 C 0.13201 0.8092 0.24078 0.0
C258 C 0.16194 0.79757 0.19022 0.0
C259 C 0.67223 0.58242 0.83292 0.0
C260 C 0.67177 0.6453 0.80291 0.0
C261 C 0.64135 0.55659 0.88765 0.0
C262 C 0.60894 0.59257 0.9149 0.0
H263 H 0.69514 0.55272 0.81249 0.0
H264 H 0.64213 0.50789 0.90807 0.0
S265 S 0.5952 0.75968 0.85648 0.0
N266 N 0.63795 0.74308 0.80608 0.0
N267 N 0.57963 0.69457 0.90897 0.0
C268 C 0.61016 0.65567 0.88728 0.0
C269 C 0.64174 0.68202 0.8314 0.0
C270 C 0.86101 0.0509 0.29458 0.0
C271 C 0.86325 0.11201 0.25822 0.0
C272 C 0.89602 0.02854 0.35777 0.0
C273 C 0.93487 0.06655 0.38555 0.0
H274 H 0.83143 0.02064 0.27448 0.0
H275 H 0.89157 0.98167 0.38555 0.0
S276 S 0.96092 0.22882 0.30586 0.0
N277 N 0.90894 0.20937 0.25193 0.0
N278 N 0.97653 0.16718 0.36931 0.0
C279 C 0.93855 0.12739 0.34836 0.0
C280 C 0.90232 0.15016 0.28489 0.0
C281 C 0.36278 0.35717 0.61657 0.0
C282 C 0.3473 0.38885 0.54826 0.0
C283 C 0.36371 0.38611 0.66641 0.0
C284 C 0.34857 0.44777 0.6499 0.0
H285 H 0.37217 0.30904 0.63173 0.0
H286 H 0.37343 0.35937 0.71836 0.0
S287 S 0.31081 0.55238 0.47834 0.0
N288 N 0.3209 0.48615 0.46659 0.0
N289 N 0.32296 0.54077 0.56018 0.0
C290 C 0.33616 0.48065 0.58166 0.0
C291 C 0.33562 0.4512 0.53087 0.0
C292 C 0.61162 0.61951 0.55861 0.0
C293 C 0.67311 0.63522 0.57089 0.0
C294 C 0.59248 0.58804 0.51208 0.0
C295 C 0.63403 0.57143 0.47581 0.0
H296 H 0.57797 0.63175 0.58509 0.0
H297 H 0.54469 0.57708 0.50397 0.0
S298 S 0.80039 0.59866 0.49169 0.0
N299 N 0.77584 0.62937 0.5448 0.0
N300 N 0.73945 0.57121 0.45645 0.0
C301 C 0.69551 0.58681 0.48742 0.0
C302 C 0.71514 0.61849 0.53512 0.0
C303 C 0.8615 0.18273 0.9635 0.0
C304 C 0.83846 0.13796 0.0148 0.0
C305 C 0.89228 0.16709 0.91697 0.0
C306 C 0.90115 0.1063 0.92067 0.0
H307 H 0.85882 0.22979 0.96159 0.0
H308 H 0.91194 0.20248 0.88008 0.0
S309 S 0.84229 0.97288 0.03895 0.0
N310 N 0.82043 0.03082 0.06111 0.0
N311 N 0.87967 1.00179 0.97488 0.0
C312 C 0.87528 0.06154 0.96898 0.0
C313 C 0.84348 0.0773 0.01568 0.0
C314 C 0.34534 0.395 0.27113 0.0
C315 C 0.37827 0.35678 0.32969 0.0
C316 C 0.3733 0.42063 0.2137 0.0
C317 C 0.43553 0.40963 0.21296 0.0
H318 H 0.29821 0.40684 0.2705 0.0
H319 H 0.34644 0.45114 0.17053 0.0
S320 S 0.53872 0.30492 0.35049 0.0
N321 N 0.47424 0.30422 0.38151 0.0
N322 N 0.52652 0.35103 0.27344 0.0
C323 C 0.46767 0.3683 0.26996 0.0
C324 C 0.43921 0.34245 0.32843 0.0
C325 C 0.17952 0.93419 0.84956 0.0
C326 C 0.15519 0.88193 0.88955 0.0
C327 C 0.15097 0.96222 0.78446 0.0
C328 C 0.09785 0.93814 0.75786 0.0
H329 H 0.22109 0.95295 0.86853 0.0
H330 H 0.17142 1.0018 0.75418 0.0
S331 S 0.01541 0.8036 0.84432 0.0
N332 N 0.07472 0.80822 0.89971 0.0
N333 N 0.02073 0.86087 0.77703 0.0
C334 C 0.07272 0.88648 0.79796 0.0
C335 C 0.10157 0.85827 0.86411 0.0
loop_
_geom_bond_atom_site_label_1
_geom_bond_atom_site_label_2
_geom_bond_distance
_geom_bond_site_symmetry_2
_ccdc_geom_bond_type
H0 C3 0.931 . S
H1 C6 0.928 . S
H2 C8 0.930 . S
C3 H0 0.931 . S
C3 C4 1.413 . S
C3 C5 1.360 1_556 S
C4 C3 1.413 . S
C4 C8 1.429 . S
C5 C3 1.360 1_554 S
C5 C6 1.372 . S
C6 H1 0.928 . S
C6 C5 1.372 . S
C6 C7 1.404 . S
C7 C6 1.404 . S
C7 C8 1.391 1_554 S
C8 H2 0.930 . S
C8 C4 1.429 . S
C8 C7 1.391 1_556 S
H9 C12 0.931 . S
H10 C15 0.928 . S
H11 C17 0.930 . S
C12 H9 0.931 . S
C12 C13 1.413 . S
C12 C14 1.360 . S
C13 C12 1.413 . S
C13 C17 1.429 . S
C14 C12 1.360 . S
C14 C15 1.372 . S
C15 H10 0.928 . S
C15 C14 1.372 . S
C15 C16 1.404 . S
C16 C15 1.404 . S
C16 C17 1.391 . S
C17 H11 0.930 . S
C17 C13 1.429 . S
C17 C16 1.391 . S
H18 C21 0.931 . S
H19 C24 0.928 . S
H20 C26 0.930 . S
C21 H18 0.931 . S
C21 C22 1.413 . S
C21 C23 1.360 . S
C22 C21 1.413 . S
C22 C26 1.429 . S
C23 C21 1.360 . S
C23 C24 1.372 . S
C24 H19 0.928 . S
C24 C23 1.372 . S
C24 C25 1.404 . S
C25 C24 1.404 . S
C25 C26 1.391 . S
C26 H20 0.930 . S
C26 C22 1.429 . S
C26 C25 1.391 . S
H27 C30 0.931 . S
H28 C33 0.928 . S
H29 C35 0.930 . S
C30 H27 0.931 . S
C30 C31 1.413 . S
C30 C32 1.360 . S
C31 C30 1.413 . S
C31 C35 1.429 . S
C32 C30 1.360 . S
C32 C33 1.372 . S
C33 H28 0.928 . S
C33 C32 1.372 . S
C33 C34 1.404 . S
C34 C33 1.404 . S
C34 C35 1.391 . S
C35 H29 0.930 . S
C35 C31 1.429 . S
C35 C34 1.391 . S
C36 C38 1.422 . S
C36 C40 1.415 . S
C36 N42 1.369 . S
C37 C38 1.421 . S
C37 C39 1.417 . S
C37 C49 1.422 . S
C38 C36 1.422 . S
C38 C37 1.421 . S
C38 N48 1.359 . S
C39 C37 1.417 . S
C39 C41 1.329 . S
C39 H58 0.930 . S
C40 C36 1.415 . S
C40 C41 1.437 . S
C40 C44 1.413 . S
C41 C39 1.329 . S
C41 C40 1.437 . S
C41 H63 0.929 . S
N42 C36 1.369 . S
N42 C43 1.338 . S
N42 Gd47 2.622 . S
C43 N42 1.338 . S
C43 C45 1.378 . S
C43 H55 0.929 1_655 S
C44 C40 1.413 . S
C44 C45 1.348 . S
C44 H60 0.931 . S
C45 C43 1.378 . S
C45 C44 1.348 . S
C45 H61 0.930 1_655 S
Gd46 N66 2.622 . S
Gd46 N73 2.570 . S
Gd46 O80 2.353 1_465 S
Gd46 O81 2.468 . S
Gd46 O82 2.427 . S
Gd46 O84 2.388 1_455 S
Gd46 O85 2.386 . S
Gd46 O89 2.307 1_565 S
Gd46 C99 2.805 . S
Gd47 N42 2.622 . S
Gd47 N48 2.570 . S
Gd47 O79 2.386 . S
Gd47 O83 2.307 1_545 S
Gd47 O86 2.353 1_655 S
Gd47 O87 2.468 . S
Gd47 O88 2.427 . S
Gd47 O90 2.388 1_655 S
Gd47 C111 2.805 . S
N48 C38 1.359 . S
N48 Gd47 2.570 . S
N48 C50 1.343 . S
C49 C37 1.422 . S
C49 C51 1.321 . S
C49 H57 0.931 . S
C50 N48 1.343 . S
C50 C51 1.390 . S
C50 H52 0.931 . S
C51 C49 1.321 . S
C51 C50 1.390 . S
C51 H53 0.930 . S
H52 C50 0.931 . S
H53 C51 0.930 . S
H54 C77 0.931 . S
H55 C43 0.929 1_455 S
H56 C78 0.930 . S
H57 C49 0.931 . S
H58 C39 0.930 . S
H59 C68 0.929 1_655 S
H60 C44 0.931 . S
H61 C45 0.930 1_455 S
H62 C100 0.930 . S
H63 C41 0.929 . S
H64 C69 0.931 . S
H65 C70 0.930 1_655 S
N66 Gd46 2.622 . S
N66 C67 1.369 . S
N66 C68 1.338 . S
C67 N66 1.369 . S
C67 C71 1.415 . S
C67 C74 1.422 . S
C68 H59 0.929 1_455 S
C68 N66 1.338 . S
C68 C70 1.378 . S
C69 H64 0.931 . S
C69 C70 1.348 . S
C69 C71 1.413 . S
C70 H65 0.930 1_455 S
C70 C68 1.378 . S
C70 C69 1.348 . S
C71 C67 1.415 . S
C71 C69 1.413 . S
C71 C101 1.437 . S
H72 C101 0.929 . S
N73 Gd46 2.570 . S
N73 C74 1.359 . S
N73 C77 1.343 . S
C74 C67 1.422 . S
C74 N73 1.359 . S
C74 C76 1.421 . S
C75 C76 1.422 . S
C75 C78 1.321 . S
C75 H102 0.931 . S
C76 C74 1.421 . S
C76 C75 1.422 . S
C76 C100 1.417 . S
C77 H54 0.931 . S
C77 N73 1.343 . S
C77 C78 1.390 . S
C78 H56 0.930 . S
C78 C75 1.321 . S
C78 C77 1.390 . S
O79 Gd47 2.386 . S
O79 C91 1.265 . S
O80 Gd46 2.353 1_645 S
O80 C91 1.242 . S
O81 Gd46 2.468 . S
O81 C99 1.263 . S
O82 Gd46 2.427 . S
O82 C99 1.252 . S
O83 Gd47 2.307 1_565 S
O83 C92 1.261 . S
O84 Gd46 2.388 1_655 S
O84 C92 1.252 . S
O85 Gd46 2.386 . S
O85 C103 1.265 . S
O86 Gd47 2.353 1_455 S
O86 C103 1.242 1_545 S
O87 Gd47 2.468 . S
O87 C111 1.263 . S
O88 Gd47 2.427 . S
O88 C111 1.252 . S
O89 Gd46 2.307 1_545 S
O89 C104 1.261 . S
O90 Gd47 2.388 1_455 S
O90 C104 1.252 . S
C91 O79 1.265 . S
C91 O80 1.242 . S
C92 O83 1.261 . S
C92 O84 1.252 . S
C93 C96 1.394 . S
C93 C98 1.370 . S
C93 C99 1.500 . S
C94 C97 1.383 . S
C94 C98 1.395 . S
C95 C96 1.396 . S
C95 C97 1.365 . S
C95 H112 0.929 . S
C96 C93 1.394 . S
C96 C95 1.396 . S
C96 H113 0.930 . S
C97 C94 1.383 . S
C97 C95 1.365 . S
C97 H114 0.931 . S
C98 C93 1.370 . S
C98 C94 1.395 . S
C98 H115 0.930 . S
C99 Gd46 2.805 . S
C99 O81 1.263 . S
C99 O82 1.252 . S
C99 C93 1.500 . S
C100 H62 0.930 . S
C100 C76 1.417 . S
C100 C101 1.329 . S
C101 C71 1.437 . S
C101 H72 0.929 . S
C101 C100 1.329 . S
H102 C75 0.931 . S
C103 O85 1.265 . S
C103 O86 1.242 1_565 S
C104 O89 1.261 . S
C104 O90 1.252 . S
C105 C108 1.394 . S
C105 C110 1.370 . S
C105 C111 1.500 . S
C106 C109 1.383 . S
C106 C110 1.395 . S
C107 C108 1.396 . S
C107 C109 1.365 . S
C107 H116 0.929 . S
C108 C105 1.394 . S
C108 C107 1.396 . S
C108 H117 0.930 . S
C109 C106 1.383 . S
C109 C107 1.365 . S
C109 H118 0.931 . S
C110 C105 1.370 . S
C110 C106 1.395 . S
C110 H119 0.930 . S
C111 Gd47 2.805 . S
C111 O87 1.263 . S
C111 O88 1.252 . S
C111 C105 1.500 . S
H112 C95 0.929 . S
H113 C96 0.930 . S
H114 C97 0.931 . S
H115 C98 0.930 . S
H116 C107 0.929 . S
H117 C108 0.930 . S
H118 C109 0.931 . S
H119 C110 0.930 . S
C120 C122 1.422 . S
C120 C124 1.415 . S
C120 N126 1.369 . S
C121 C122 1.421 . S
C121 C123 1.417 . S
C121 C133 1.422 . S
C122 C120 1.422 . S
C122 C121 1.421 . S
C122 N132 1.359 . S
C123 C121 1.417 . S
C123 C125 1.329 . S
C123 H142 0.930 . S
C124 C120 1.415 . S
C124 C125 1.437 . S
C124 C128 1.413 . S
C125 C123 1.329 . S
C125 C124 1.437 . S
C125 H147 0.929 . S
N126 C120 1.369 . S
N126 C127 1.338 . S
N126 Gd131 2.622 . S
C127 N126 1.338 . S
C127 C129 1.378 . S
C127 H139 0.929 . S
C128 C124 1.413 . S
C128 C129 1.348 . S
C128 H144 0.931 . S
C129 C127 1.378 . S
C129 C128 1.348 . S
C129 H145 0.930 . S
Gd130 N150 2.621 . S
Gd130 N157 2.570 1_556 S
Gd130 O164 2.353 . S
Gd130 O165 2.468 . S
Gd130 O166 2.427 . S
Gd130 O168 2.389 . S
Gd130 O169 2.386 1_556 S
Gd130 O173 2.307 1_556 S
Gd130 C183 2.805 . S
Gd131 N126 2.622 . S
Gd131 N132 2.570 . S
Gd131 O163 2.386 . S
Gd131 O167 2.307 . S
Gd131 O170 2.353 . S
Gd131 O171 2.468 . S
Gd131 O172 2.427 . S
Gd131 O174 2.388 . S
Gd131 C195 2.805 . S
N132 C122 1.359 . S
N132 Gd131 2.570 . S
N132 C134 1.343 . S
C133 C121 1.422 . S
C133 C135 1.321 . S
C133 H141 0.931 . S
C134 N132 1.343 . S
C134 C135 1.390 . S
C134 H136 0.931 . S
C135 C133 1.321 . S
C135 C134 1.390 . S
C135 H137 0.930 . S
H136 C134 0.931 . S
H137 C135 0.930 . S
H138 C161 0.931 . S
H139 C127 0.929 . S
H140 C162 0.930 . S
H141 C133 0.931 . S
H142 C123 0.930 . S
H143 C152 0.929 . S
H144 C128 0.931 . S
H145 C129 0.930 . S
H146 C184 0.930 . S
H147 C125 0.929 . S
H148 C153 0.931 . S
H149 C154 0.930 . S
N150 Gd130 2.621 . S
N150 C151 1.369 1_556 S
N150 C152 1.338 . S
C151 N150 1.369 1_554 S
C151 C155 1.415 . S
C151 C158 1.422 . S
C152 H143 0.929 . S
C152 N150 1.338 . S
C152 C154 1.378 . S
C153 H148 0.931 . S
C153 C154 1.348 1_554 S
C153 C155 1.413 . S
C154 H149 0.930 . S
C154 C152 1.378 . S
C154 C153 1.348 1_556 S
C155 C151 1.415 . S
C155 C153 1.413 . S
C155 C185 1.437 . S
H156 C185 0.929 . S
N157 Gd130 2.570 1_554 S
N157 C158 1.359 . S
N157 C161 1.343 . S
C158 C151 1.422 . S
C158 N157 1.359 . S
C158 C160 1.421 . S
C159 C160 1.422 . S
C159 C162 1.321 . S
C159 H186 0.931 . S
C160 C158 1.421 . S
C160 C159 1.422 . S
C160 C184 1.417 . S
C161 H138 0.931 . S
C161 N157 1.343 . S
C161 C162 1.390 . S
C162 H140 0.930 . S
C162 C159 1.321 . S
C162 C161 1.390 . S
O163 Gd131 2.386 . S
O163 C175 1.265 1_554 S
O164 Gd130 2.353 . S
O164 C175 1.242 . S
O165 Gd130 2.468 . S
O165 C183 1.263 . S
O166 Gd130 2.427 . S
O166 C183 1.252 . S
O167 Gd131 2.307 . S
O167 C176 1.261 . S
O168 Gd130 2.389 . S
O168 C176 1.250 1_556 S
O169 Gd130 2.386 1_554 S
O169 C187 1.265 . S
O170 Gd131 2.353 . S
O170 C187 1.242 . S
O171 Gd131 2.468 . S
O171 C195 1.263 . S
O172 Gd131 2.427 . S
O172 C195 1.252 . S
O173 Gd130 2.307 1_554 S
O173 C188 1.261 . S
O174 Gd131 2.388 . S
O174 C188 1.252 . S
C175 O163 1.265 1_556 S
C175 O164 1.242 . S
C176 O167 1.261 . S
C176 O168 1.250 1_554 S
C177 C180 1.394 . S
C177 C182 1.370 . S
C177 C183 1.500 . S
C178 C181 1.383 . S
C178 C182 1.395 . S
C179 C180 1.396 . S
C179 C181 1.365 . S
C179 H196 0.929 . S
C180 C177 1.394 . S
C180 C179 1.396 . S
C180 H197 0.930 . S
C181 C178 1.383 . S
C181 C179 1.365 . S
C181 H198 0.931 . S
C182 C177 1.370 . S
C182 C178 1.395 . S
C182 H199 0.930 . S
C183 Gd130 2.805 . S
C183 O165 1.263 . S
C183 O166 1.252 . S
C183 C177 1.500 . S
C184 H146 0.930 . S
C184 C160 1.417 . S
C184 C185 1.329 . S
C185 C155 1.437 . S
C185 H156 0.929 . S
C185 C184 1.329 . S
H186 C159 0.931 . S
C187 O169 1.265 . S
C187 O170 1.242 . S
C188 O173 1.261 . S
C188 O174 1.252 . S
C189 C192 1.394 . S
C189 C194 1.370 . S
C189 C195 1.500 . S
C190 C193 1.383 . S
C190 C194 1.395 . S
C191 C192 1.396 . S
C191 C193 1.365 . S
C191 H200 0.929 . S
C192 C189 1.394 . S
C192 C191 1.396 . S
C192 H201 0.930 . S
C193 C190 1.383 . S
C193 C191 1.365 . S
C193 H202 0.931 . S
C194 C189 1.370 . S
C194 C190 1.395 . S
C194 H203 0.930 . S
C195 Gd131 2.805 . S
C195 O171 1.263 . S
C195 O172 1.252 . S
C195 C189 1.500 . S
H196 C179 0.929 . S
H197 C180 0.930 . S
H198 C181 0.931 . S
H199 C182 0.930 . S
H200 C191 0.929 . S
H201 C192 0.930 . S
H202 C193 0.931 . S
H203 C194 0.930 . S
C204 C205 1.369 . S
C204 C206 1.419 . S
C204 H208 0.930 . S
C205 C204 1.369 . S
C205 C214 1.429 . S
C206 C204 1.419 . S
C206 C207 1.363 . S
C206 H209 0.929 . S
C207 C206 1.363 . S
C207 C213 1.428 . S
H208 C204 0.930 . S
H209 C206 0.929 . S
S210 N211 1.613 . S
S210 N212 1.610 . S
N211 S210 1.613 . S
N211 C214 1.350 . S
N212 S210 1.610 . S
N212 C213 1.351 . S
C213 C207 1.428 . S
C213 N212 1.351 . S
C213 C214 1.434 . S
C214 C205 1.429 . S
C214 N211 1.350 . S
C214 C213 1.434 . S
C215 C216 1.369 . S
C215 C217 1.419 . S
C215 H219 0.930 . S
C216 C215 1.369 . S
C216 C225 1.429 . S
C217 C215 1.419 . S
C217 C218 1.363 . S
C217 H220 0.929 . S
C218 C217 1.363 . S
C218 C224 1.428 . S
H219 C215 0.930 . S
H220 C217 0.929 . S
S221 N222 1.613 . S
S221 N223 1.610 . S
N222 S221 1.613 . S
N222 C225 1.350 . S
N223 S221 1.610 . S
N223 C224 1.351 . S
C224 C218 1.428 . S
C224 N223 1.351 . S
C224 C225 1.434 . S
C225 C216 1.429 . S
C225 N222 1.350 . S
C225 C224 1.434 . S
C226 C227 1.369 . S
C226 C228 1.419 . S
C226 H230 0.930 . S
C227 C226 1.369 . S
C227 C236 1.429 . S
C228 C226 1.419 . S
C228 C229 1.363 . S
C228 H231 0.929 . S
C229 C228 1.363 . S
C229 C235 1.428 . S
H230 C226 0.930 . S
H231 C228 0.929 . S
S232 N233 1.613 . S
S232 N234 1.610 . S
N233 S232 1.613 . S
N233 C236 1.350 . S
N234 S232 1.610 . S
N234 C235 1.351 . S
C235 C229 1.428 . S
C235 N234 1.351 . S
C235 C236 1.434 . S
C236 C227 1.429 . S
C236 N233 1.350 . S
C236 C235 1.434 . S
C237 C238 1.369 . S
C237 C239 1.419 . S
C237 H241 0.930 1_554 S
C238 C237 1.369 . S
C238 C247 1.429 . S
C239 C237 1.419 . S
C239 C240 1.363 . S
C239 H242 0.929 1_554 S
C240 C239 1.363 . S
C240 C246 1.428 . S
H241 C237 0.930 1_556 S
H242 C239 0.929 1_556 S
S243 N244 1.613 . S
S243 N245 1.610 . S
N244 S243 1.613 . S
N244 C247 1.350 . S
N245 S243 1.610 . S
N245 C246 1.351 . S
C246 C240 1.428 . S
C246 N245 1.351 . S
C246 C247 1.434 . S
C247 C238 1.429 . S
C247 N244 1.350 . S
C247 C246 1.434 . S
C248 C249 1.369 . S
C248 C250 1.419 . S
C248 H252 0.930 . S
C249 C248 1.369 . S
C249 C258 1.429 . S
C250 C248 1.419 . S
C250 C251 1.363 . S
C250 H253 0.929 1_565 S
C251 C250 1.363 . S
C251 C257 1.428 . S
H252 C248 0.930 . S
H253 C250 0.929 1_545 S
S254 N255 1.613 . S
S254 N256 1.610 . S
N255 S254 1.613 . S
N255 C258 1.350 . S
N256 S254 1.610 . S
N256 C257 1.351 . S
C257 C251 1.428 . S
C257 N256 1.351 . S
C257 C258 1.434 . S
C258 C249 1.429 . S
C258 N255 1.350 . S
C258 C257 1.434 . S
C259 C260 1.369 . S
C259 C261 1.419 . S
C259 H263 0.930 . S
C260 C259 1.369 . S
C260 C269 1.429 . S
C261 C259 1.419 . S
C261 C262 1.363 . S
C261 H264 0.929 . S
C262 C261 1.363 . S
C262 C268 1.428 . S
H263 C259 0.930 . S
H264 C261 0.929 . S
S265 N266 1.613 . S
S265 N267 1.610 . S
N266 S265 1.613 . S
N266 C269 1.350 . S
N267 S265 1.610 . S
N267 C268 1.351 . S
C268 C262 1.428 . S
C268 N267 1.351 . S
C268 C269 1.434 . S
C269 C260 1.429 . S
C269 N266 1.350 . S
C269 C268 1.434 . S
C270 C271 1.369 . S
C270 C272 1.419 . S
C270 H274 0.921 1_545 S
C271 C270 1.369 . S
C271 C280 1.429 . S
C272 C270 1.419 . S
C272 C273 1.363 . S
C272 H275 0.929 1_545 S
C273 C272 1.363 . S
C273 C279 1.428 . S
H274 C270 0.921 1_565 S
H275 C272 0.929 1_565 S
S276 N277 1.613 . S
S276 N278 1.610 . S
N277 S276 1.613 . S
N277 C280 1.350 . S
N278 S276 1.610 . S
N278 C279 1.351 . S
C279 C273 1.428 . S
C279 N278 1.351 . S
C279 C280 1.434 . S
C280 C271 1.429 . S
C280 N277 1.350 . S
C280 C279 1.434 . S
C281 C282 1.369 . S
C281 C283 1.419 . S
C281 H285 0.930 . S
C282 C281 1.369 . S
C282 C291 1.429 . S
C283 C281 1.419 . S
C283 C284 1.363 . S
C283 H286 0.929 . S
C284 C283 1.363 . S
C284 C290 1.428 . S
H285 C281 0.930 . S
H286 C283 0.929 . S
S287 N288 1.613 . S
S287 N289 1.610 . S
N288 S287 1.613 . S
N288 C291 1.350 . S
N289 S287 1.610 . S
N289 C290 1.351 . S
C290 C284 1.428 . S
C290 N289 1.351 . S
C290 C291 1.434 . S
C291 C282 1.429 . S
C291 N288 1.350 . S
C291 C290 1.434 . S
C292 C293 1.369 . S
C292 C294 1.419 . S
C292 H296 0.930 . S
C293 C292 1.369 . S
C293 C302 1.429 . S
C294 C292 1.419 . S
C294 C295 1.363 . S
C294 H297 0.929 . S
C295 C294 1.363 . S
C295 C301 1.428 . S
H296 C292 0.930 . S
H297 C294 0.929 . S
S298 N299 1.613 . S
S298 N300 1.610 . S
N299 S298 1.613 . S
N299 C302 1.350 . S
N300 S298 1.610 . S
N300 C301 1.351 . S
C301 C295 1.428 . S
C301 N300 1.351 . S
C301 C302 1.434 . S
C302 C293 1.429 . S
C302 N299 1.350 . S
C302 C301 1.434 . S
C303 C304 1.369 1_556 S
C303 C305 1.419 . S
C303 H307 0.930 . S
C304 C303 1.369 1_554 S
C304 C313 1.429 1_554 S
C305 C303 1.419 . S
C305 C306 1.363 . S
C305 H308 0.929 . S
C306 C305 1.363 . S
C306 C312 1.428 . S
H307 C303 0.930 . S
H308 C305 0.929 . S
S309 N310 1.613 1_566 S
S309 N311 1.610 . S
N310 S309 1.613 1_544 S
N310 C313 1.350 1_554 S
N311 S309 1.610 . S
N311 C312 1.351 1_565 S
C312 C306 1.428 . S
C312 N311 1.351 1_545 S
C312 C313 1.434 . S
C313 C304 1.429 1_556 S
C313 N310 1.350 1_556 S
C313 C312 1.434 . S
C314 C315 1.369 . S
C314 C316 1.419 . S
C314 H318 0.930 . S
C315 C314 1.369 . S
C315 C324 1.429 . S
C316 C314 1.419 . S
C316 C317 1.363 . S
C316 H319 0.929 . S
C317 C316 1.363 . S
C317 C323 1.428 . S
H318 C314 0.930 . S
H319 C316 0.929 . S
S320 N321 1.613 . S
S320 N322 1.610 . S
N321 S320 1.613 . S
N321 C324 1.350 . S
N322 S320 1.610 . S
N322 C323 1.351 . S
C323 C317 1.428 . S
C323 N322 1.351 . S
C323 C324 1.434 . S
C324 C315 1.429 . S
C324 N321 1.350 . S
C324 C323 1.434 . S
C325 C326 1.369 . S
C325 C327 1.419 . S
C325 H329 0.930 . S
C326 C325 1.369 . S
C326 C335 1.429 . S
C327 C325 1.419 . S
C327 C328 1.363 . S
C327 H330 0.929 . S
C328 C327 1.363 . S
C328 C334 1.428 . S
H329 C325 0.930 . S
H330 C327 0.929 . S
S331 N332 1.613 1_545 S
S331 N333 1.610 1_545 S
N332 S331 1.613 1_565 S
N332 C335 1.350 . S
N333 S331 1.610 1_565 S
N333 C334 1.352 . S
C334 C328 1.428 . S
C334 N333 1.352 . S
C334 C335 1.434 . S
C335 C326 1.429 . S
C335 N332 1.350 . S
C335 C334 1.434 . S
C207 C104 1.556 . S
C205 C34 1.573 . S
C216 C7 1.544 . S
C218 C176 1.540 . S
C227 C16 1.571 . S
C229 C92 1.557 . S
C238 C25 1.544 . S
C240 C188 1.537 . S
C251 C94 1.348 . S
C249 C5 1.522 . S
C262 C175 1.569 . S
C260 C13 1.561 . S
C271 C23 1.543 . S
C273 C91 1.565 . S
C282 C32 1.514 . S
C284 C178 1.357 . S
C295 C190 1.360 . S
C293 C14 1.511 . S
C306 C106 1.358 . S
C304 C22 1.521 . S
C317 C187 1.567 . S
C315 C31 1.560 . S
C326 C4 1.541 . S
C328 C103 1.562 . S
