# Generated by pormake.
# Topology ptr, (4,4)-cn, num edge types: 1
# Building blocks:
#     Node 0, Type 0, BuildingBlock: QUQFOY_clean_sbu_1, # of connection points: 4
#     Node 1, Type 0, BuildingBlock: QUQFOY_clean_sbu_1, # of connection points: 4
#     Node 2, Type 0, BuildingBlock: QUQFOY_clean_sbu_1, # of connection points: 4
#     Node 3, Type 0, BuildingBlock: QUQFOY_clean_sbu_1, # of connection points: 4
#     Node 4, Type 0, BuildingBlock: QUQFOY_clean_sbu_1, # of connection points: 4
#     Node 5, Type 0, BuildingBlock: QUQFOY_clean_sbu_1, # of connection points: 4
#     Node 6, Type 0, BuildingBlock: QUQFOY_clean_sbu_1, # of connection points: 4
#     Node 7, Type 0, BuildingBlock: QUQFOY_clean_sbu_1, # of connection points: 4
#     Node 8, Type 0, BuildingBlock: QUQFOY_clean_sbu_1, # of connection points: 4
#     Node 9, Type 0, BuildingBlock: QUQFOY_clean_sbu_1, # of connection points: 4
#     Node 10, Type 0, BuildingBlock: QUQFOY_clean_sbu_1, # of connection points: 4
#     Node 11, Type 0, BuildingBlock: QUQFOY_clean_sbu_1, # of connection points: 4
#     Node 12, Type 0, BuildingBlock: QUQFOY_clean_sbu_1, # of connection points: 4
#     Node 13, Type 0, BuildingBlock: QUQFOY_clean_sbu_1, # of connection points: 4
#     Node 14, Type 0, BuildingBlock: QUQFOY_clean_sbu_1, # of connection points: 4
#     Node 15, Type 0, BuildingBlock: QUQFOY_clean_sbu_1, # of connection points: 4
#     Node 16, Type 0, BuildingBlock: QUQFOY_clean_sbu_1, # of connection points: 4
#     Node 17, Type 0, BuildingBlock: QUQFOY_clean_sbu_1, # of connection points: 4
#     Node 18, Type 1, BuildingBlock: KUFVIS_clean_linker_0, # of connection points: 4
#     Node 19, Type 1, BuildingBlock: KUFVIS_clean_linker_0, # of connection points: 4
#     Node 20, Type 1, BuildingBlock: KUFVIS_clean_linker_0, # of connection points: 4
#     Node 21, Type 1, BuildingBlock: KUFVIS_clean_linker_0, # of connection points: 4
#     Node 22, Type 1, BuildingBlock: KUFVIS_clean_linker_0, # of connection points: 4
#     Node 23, Type 1, BuildingBlock: KUFVIS_clean_linker_0, # of connection points: 4
#     Node 24, Type 1, BuildingBlock: KUFVIS_clean_linker_0, # of connection points: 4
#     Node 25, Type 1, BuildingBlock: KUFVIS_clean_linker_0, # of connection points: 4
#     Node 26, Type 1, BuildingBlock: KUFVIS_clean_linker_0, # of connection points: 4
#     Node 27, Type 1, BuildingBlock: KUFVIS_clean_linker_0, # of connection points: 4
#     Node 28, Type 1, BuildingBlock: KUFVIS_clean_linker_0, # of connection points: 4
#     Node 29, Type 1, BuildingBlock: KUFVIS_clean_linker_0, # of connection points: 4
#     Node 30, Type 1, BuildingBlock: KUFVIS_clean_linker_0, # of connection points: 4
#     Node 31, Type 1, BuildingBlock: KUFVIS_clean_linker_0, # of connection points: 4
#     Node 32, Type 1, BuildingBlock: KUFVIS_clean_linker_0, # of connection points: 4
#     Node 33, Type 1, BuildingBlock: KUFVIS_clean_linker_0, # of connection points: 4
#     Node 34, Type 1, BuildingBlock: KUFVIS_clean_linker_0, # of connection points: 4
#     Node 35, Type 1, BuildingBlock: KUFVIS_clean_linker_0, # of connection points: 4
#     Edge 36, Type (0, 1), BuildingBlock: UVAHIK_clean_linker_0, # of connection points: 2
#     Edge 37, Type (0, 1), BuildingBlock: UVAHIK_clean_linker_0, # of connection points: 2
#     Edge 38, Type (0, 1), BuildingBlock: UVAHIK_clean_linker_0, # of connection points: 2
#     Edge 39, Type (0, 1), BuildingBlock: UVAHIK_clean_linker_0, # of connection points: 2
#     Edge 40, Type (0, 1), BuildingBlock: UVAHIK_clean_linker_0, # of connection points: 2
#     Edge 41, Type (0, 1), BuildingBlock: UVAHIK_clean_linker_0, # of connection points: 2
#     Edge 42, Type (0, 1), BuildingBlock: UVAHIK_clean_linker_0, # of connection points: 2
#     Edge 43, Type (0, 1), BuildingBlock: UVAHIK_clean_linker_0, # of connection points: 2
#     Edge 44, Type (0, 1), BuildingBlock: UVAHIK_clean_linker_0, # of connection points: 2
#     Edge 45, Type (0, 1), BuildingBlock: UVAHIK_clean_linker_0, # of connection points: 2
#     Edge 46, Type (0, 1), BuildingBlock: UVAHIK_clean_linker_0, # of connection points: 2
#     Edge 47, Type (0, 1), BuildingBlock: UVAHIK_clean_linker_0, # of connection points: 2
#     Edge 48, Type (0, 1), BuildingBlock: UVAHIK_clean_linker_0, # of connection points: 2
#     Edge 49, Type (0, 1), BuildingBlock: UVAHIK_clean_linker_0, # of connection points: 2
#     Edge 50, Type (0, 1), BuildingBlock: UVAHIK_clean_linker_0, # of connection points: 2
#     Edge 51, Type (0, 1), BuildingBlock: UVAHIK_clean_linker_0, # of connection points: 2
#     Edge 52, Type (0, 1), BuildingBlock: UVAHIK_clean_linker_0, # of connection points: 2
#     Edge 53, Type (0, 1), BuildingBlock: UVAHIK_clean_linker_0, # of connection points: 2
#     Edge 54, Type (0, 1), BuildingBlock: UVAHIK_clean_linker_0, # of connection points: 2
#     Edge 55, Type (0, 1), BuildingBlock: UVAHIK_clean_linker_0, # of connection points: 2
#     Edge 56, Type (0, 1), BuildingBlock: UVAHIK_clean_linker_0, # of connection points: 2
#     Edge 57, Type (0, 1), BuildingBlock: UVAHIK_clean_linker_0, # of connection points: 2
#     Edge 58, Type (0, 1), BuildingBlock: UVAHIK_clean_linker_0, # of connection points: 2
#     Edge 59, Type (0, 1), BuildingBlock: UVAHIK_clean_linker_0, # of connection points: 2
#     Edge 60, Type (0, 1), BuildingBlock: UVAHIK_clean_linker_0, # of connection points: 2
#     Edge 61, Type (0, 1), BuildingBlock: UVAHIK_clean_linker_0, # of connection points: 2
#     Edge 62, Type (0, 1), BuildingBlock: UVAHIK_clean_linker_0, # of connection points: 2
#     Edge 63, Type (0, 1), BuildingBlock: UVAHIK_clean_linker_0, # of connection points: 2
#     Edge 64, Type (0, 1), BuildingBlock: UVAHIK_clean_linker_0, # of connection points: 2
#     Edge 65, Type (0, 1), BuildingBlock: UVAHIK_clean_linker_0, # of connection points: 2
#     Edge 66, Type (0, 1), BuildingBlock: UVAHIK_clean_linker_0, # of connection points: 2
#     Edge 67, Type (0, 1), BuildingBlock: UVAHIK_clean_linker_0, # of connection points: 2
#     Edge 68, Type (0, 1), BuildingBlock: UVAHIK_clean_linker_0, # of connection points: 2
#     Edge 69, Type (0, 1), BuildingBlock: UVAHIK_clean_linker_0, # of connection points: 2
#     Edge 70, Type (0, 1), BuildingBlock: UVAHIK_clean_linker_0, # of connection points: 2
#     Edge 71, Type (0, 1), BuildingBlock: UVAHIK_clean_linker_0, # of connection points: 2
#     Edge 72, Type (0, 1), BuildingBlock: UVAHIK_clean_linker_0, # of connection points: 2
#     Edge 73, Type (0, 1), BuildingBlock: UVAHIK_clean_linker_0, # of connection points: 2
#     Edge 74, Type (0, 1), BuildingBlock: UVAHIK_clean_linker_0, # of connection points: 2
#     Edge 75, Type (0, 1), BuildingBlock: UVAHIK_clean_linker_0, # of connection points: 2
#     Edge 76, Type (0, 1), BuildingBlock: UVAHIK_clean_linker_0, # of connection points: 2
#     Edge 77, Type (0, 1), BuildingBlock: UVAHIK_clean_linker_0, # of connection points: 2
#     Edge 78, Type (0, 1), BuildingBlock: UVAHIK_clean_linker_0, # of connection points: 2
#     Edge 79, Type (0, 1), BuildingBlock: UVAHIK_clean_linker_0, # of connection points: 2
#     Edge 80, Type (0, 1), BuildingBlock: UVAHIK_clean_linker_0, # of connection points: 2
#     Edge 81, Type (0, 1), BuildingBlock: UVAHIK_clean_linker_0, # of connection points: 2
#     Edge 82, Type (0, 1), BuildingBlock: UVAHIK_clean_linker_0, # of connection points: 2
#     Edge 83, Type (0, 1), BuildingBlock: UVAHIK_clean_linker_0, # of connection points: 2
#     Edge 84, Type (0, 1), BuildingBlock: UVAHIK_clean_linker_0, # of connection points: 2
#     Edge 85, Type (0, 1), BuildingBlock: UVAHIK_clean_linker_0, # of connection points: 2
#     Edge 86, Type (0, 1), BuildingBlock: UVAHIK_clean_linker_0, # of connection points: 2
#     Edge 87, Type (0, 1), BuildingBlock: UVAHIK_clean_linker_0, # of connection points: 2
#     Edge 88, Type (0, 1), BuildingBlock: UVAHIK_clean_linker_0, # of connection points: 2
#     Edge 89, Type (0, 1), BuildingBlock: UVAHIK_clean_linker_0, # of connection points: 2
#     Edge 90, Type (0, 1), BuildingBlock: UVAHIK_clean_linker_0, # of connection points: 2
#     Edge 91, Type (0, 1), BuildingBlock: UVAHIK_clean_linker_0, # of connection points: 2
#     Edge 92, Type (0, 1), BuildingBlock: UVAHIK_clean_linker_0, # of connection points: 2
#     Edge 93, Type (0, 1), BuildingBlock: UVAHIK_clean_linker_0, # of connection points: 2
#     Edge 94, Type (0, 1), BuildingBlock: UVAHIK_clean_linker_0, # of connection points: 2
#     Edge 95, Type (0, 1), BuildingBlock: UVAHIK_clean_linker_0, # of connection points: 2
#     Edge 96, Type (0, 1), BuildingBlock: UVAHIK_clean_linker_0, # of connection points: 2
#     Edge 97, Type (0, 1), BuildingBlock: UVAHIK_clean_linker_0, # of connection points: 2
#     Edge 98, Type (0, 1), BuildingBlock: UVAHIK_clean_linker_0, # of connection points: 2
#     Edge 99, Type (0, 1), BuildingBlock: UVAHIK_clean_linker_0, # of connection points: 2
#     Edge 100, Type (0, 1), BuildingBlock: UVAHIK_clean_linker_0, # of connection points: 2
#     Edge 101, Type (0, 1), BuildingBlock: UVAHIK_clean_linker_0, # of connection points: 2
#     Edge 102, Type (0, 1), BuildingBlock: UVAHIK_clean_linker_0, # of connection points: 2
#     Edge 103, Type (0, 1), BuildingBlock: UVAHIK_clean_linker_0, # of connection points: 2
#     Edge 104, Type (0, 1), BuildingBlock: UVAHIK_clean_linker_0, # of connection points: 2
#     Edge 105, Type (0, 1), BuildingBlock: UVAHIK_clean_linker_0, # of connection points: 2
#     Edge 106, Type (0, 1), BuildingBlock: UVAHIK_clean_linker_0, # of connection points: 2
#     Edge 107, Type (0, 1), BuildingBlock: UVAHIK_clean_linker_0, # of connection points: 2
# Relax obj value: 0.020
# Max RMSD: 0.074
# Mean RMSD: 0.059
data_MOF--net-ptr--node1-QUQFOY_clean_sbu_1--node2-KUFVIS_clean_linker_0--edge1-UVAHIK_clean_linker_0
_symmetry_space_group_name_H-M    P1
_symmetry_Int_Tables_number       1
_symmetry_cell_setting            triclinic
loop_
_symmetry_equiv_pos_as_xyz
'x, y, z'
_cell_length_a     102.36786
_cell_length_b     102.37302
_cell_length_c     64.859581
_cell_angle_alpha  90.011641
_cell_angle_beta   90.030052
_cell_angle_gamma 119.9559
loop_
_atom_site_label
_atom_site_type_symbol
_atom_site_fract_x
_atom_site_fract_y
_atom_site_fract_z
_atom_type_partial_charge
O0 O 0.02748 0.39244 0.03653 0.0
Cd1 Cd 0.03159 0.38408 0.0099 0.0
Cd2 Cd 0.99992 0.36819 0.00913 0.0
O3 O 1.00256 0.37984 0.0364 0.0
O4 O 0.05365 0.39115 0.01134 0.0
O5 O 0.03624 0.36706 0.01158 0.0
C6 C 0.05032 0.37727 0.01247 0.0
C7 C 0.98215 0.34239 0.00647 0.0
C8 C 1.01498 0.38949 0.04461 0.0
C9 C 1.01632 0.38998 0.97428 0.0
O10 O 1.00383 0.3805 0.9824 0.0
O11 O 0.02874 0.39278 0.98251 0.0
O12 O 0.9781 0.35245 0.00738 0.0
O13 O 0.99639 0.34694 0.00776 0.0
O14 O 0.63675 0.64158 0.03734 0.0
Cd15 Cd 0.64434 0.65377 0.01037 0.0
Cd16 Cd 0.66046 0.63779 0.00894 0.0
O17 O 0.64907 0.62898 0.03639 0.0
O18 O 0.63637 0.66803 0.01237 0.0
O19 O 0.66069 0.67578 0.01088 0.0
C20 C 0.65007 0.67904 0.0125 0.0
C21 C 0.68595 0.64447 0.00598 0.0
C22 C 0.63971 0.63194 0.04508 0.0
C23 C 0.63798 0.63231 0.97485 0.0
O24 O 0.64777 0.62951 0.98246 0.0
O25 O 0.63513 0.64181 0.9834 0.0
O26 O 0.67536 0.63061 0.00706 0.0
O27 O 0.68213 0.65473 0.00713 0.0
O28 O 0.3998 0.02237 0.98135 0.0
Cd29 Cd 0.39154 0.02839 0.00655 0.0
Cd30 Cd 0.3755 0.99732 0.01125 0.0
O31 O 0.38503 0.99767 0.98301 0.0
O32 O 0.39789 0.05008 0.00185 0.0
O33 O 0.37402 0.03218 0.0038 0.0
C34 C 0.38385 0.04625 0.00117 0.0
C35 C 0.34981 0.97982 0.01651 0.0
C36 C 0.39546 1.00927 0.97414 0.0
C37 C 0.39894 0.0159 0.04361 0.0
O38 O 0.38979 1.00289 0.03644 0.0
O39 O 0.40057 0.02769 0.03473 0.0
O40 O 0.35983 0.97573 0.0157 0.0
O41 O 0.35434 0.99399 0.01416 0.0
O42 O 1.00735 0.62837 0.9817 0.0
Cd43 Cd 1.00217 0.63729 0.00705 0.0
Cd44 Cd 0.03355 0.65243 0.01092 0.0
O45 O 0.03215 0.64263 0.98256 0.0
O46 O 0.98038 0.63098 0.00367 0.0
O47 O 0.99841 0.65483 0.00381 0.0
C48 C 0.98424 0.645 0.00233 0.0
C49 C 0.05215 0.67778 0.01601 0.0
C50 C 0.02024 0.63235 0.97403 0.0
C51 C 1.0149 0.62967 0.04383 0.0
O52 O 0.02788 0.63822 0.03615 0.0
O53 O 1.00318 0.62856 0.03537 0.0
O54 O 0.05549 0.66723 0.01473 0.0
O55 O 0.03812 0.67399 0.01416 0.0
O56 O 0.39914 0.38465 0.98149 0.0
Cd57 Cd 0.39017 0.37055 0.00678 0.0
Cd58 Cd 0.37466 0.38601 0.01034 0.0
O59 O 0.38455 0.39484 0.98214 0.0
O60 O 0.39644 0.35503 0.00358 0.0
O61 O 0.3726 0.34932 0.00345 0.0
C62 C 0.38241 0.34492 0.00214 0.0
C63 C 0.34884 0.37739 0.01489 0.0
C64 C 0.39502 0.39345 0.97376 0.0
C65 C 0.39732 0.39071 0.0436 0.0
O66 O 0.3886 0.39491 0.03583 0.0
O67 O 0.39872 0.38028 0.03514 0.0
O68 O 0.35864 0.39156 0.01392 0.0
O69 O 0.35368 0.36795 0.01305 0.0
O70 O 0.63596 0.99782 0.0321 0.0
Cd71 Cd 0.6448 0.99452 0.00531 0.0
Cd72 Cd 0.6603 0.02542 0.00502 0.0
O73 O 0.64865 0.02271 0.03228 0.0
O74 O 0.64021 0.97312 0.00637 0.0
O75 O 0.66344 0.99253 0.0067 0.0
C76 C 0.65451 0.9781 0.00746 0.0
C77 C 0.68626 0.04272 0.00303 0.0
C78 C 0.63893 1.01028 0.04034 0.0
C79 C 0.63851 1.00963 0.97005 0.0
O80 O 0.64809 0.02205 0.97828 0.0
O81 O 0.63572 0.99716 0.97808 0.0
O82 O 0.67645 0.04709 0.00403 0.0
O83 O 0.68135 0.02839 0.0037 0.0
O84 O 0.69311 0.72837 0.36807 0.0
Cd85 Cd 0.69889 0.72005 0.34284 0.0
Cd86 Cd 0.66768 0.70251 0.33956 0.0
O87 O 0.66846 0.71305 0.36722 0.0
O88 O 0.72083 0.72712 0.34633 0.0
O89 O 0.70337 0.70303 0.3459 0.0
C90 C 0.71742 0.71321 0.34762 0.0
C91 C 0.65051 0.67655 0.33603 0.0
C92 C 0.68008 0.72386 0.3756 0.0
C93 C 0.68474 0.72525 0.30563 0.0
O94 O 0.6721 0.71544 0.31311 0.0
O95 O 0.69697 0.72831 0.31467 0.0
O96 O 0.64612 0.68634 0.33648 0.0
O97 O 0.66478 0.68145 0.33793 0.0
O98 O 0.30323 0.9699 0.37209 0.0
Cd99 Cd 0.31156 0.98342 0.34631 0.0
Cd100 Cd 0.32856 0.96912 0.34362 0.0
O101 O 0.31806 0.95998 0.37148 0.0
O102 O 0.30533 0.999 0.3492 0.0
O103 O 0.32917 1.00472 0.34837 0.0
C104 C 0.3194 1.00915 0.34997 0.0
C105 C 0.3542 0.97663 0.33972 0.0
C106 C 0.30749 0.96123 0.37984 0.0
C107 C 0.30565 0.96321 0.30987 0.0
O108 O 0.31546 0.96041 0.31742 0.0
O109 O 0.30275 0.9726 0.3186 0.0
O110 O 0.34394 0.96264 0.34089 0.0
O111 O 0.34996 0.98655 0.34123 0.0
O112 O 0.0662 0.35431 0.31544 0.0
Cd113 Cd 0.05781 0.36001 0.34088 0.0
Cd114 Cd 0.0426 0.32885 0.34556 0.0
O115 O 0.05204 0.32953 0.31714 0.0
O116 O 0.06381 0.38165 0.33651 0.0
O117 O 0.04005 0.36349 0.33833 0.0
C118 C 0.04971 0.37763 0.3359 0.0
C119 C 0.01711 0.31098 0.35128 0.0
C120 C 0.06217 0.34129 0.30817 0.0
C121 C 0.06599 0.34788 0.37771 0.0
O122 O 0.05711 0.33481 0.37052 0.0
O123 O 0.06717 0.35954 0.36895 0.0
O124 O 0.02732 0.30715 0.35031 0.0
O125 O 0.02133 0.32507 0.34875 0.0
O126 O 0.67332 0.96434 0.31438 0.0
Cd127 Cd 0.67025 0.97431 0.34025 0.0
Cd128 Cd 0.70109 0.98952 0.33971 0.0
O129 O 0.69799 0.97878 0.31163 0.0
O130 O 0.64863 0.96895 0.33915 0.0
O131 O 0.66745 0.99242 0.33732 0.0
C132 C 0.6531 0.98309 0.33708 0.0
C133 C 0.71864 0.01533 0.34287 0.0
C134 C 0.68555 0.96808 0.30487 0.0
C135 C 0.68556 0.96798 0.37499 0.0
O136 O 0.69784 0.97635 0.36549 0.0
O137 O 0.6732 0.96646 0.36827 0.0
O138 O 0.72284 1.00547 0.34048 0.0
O139 O 0.70433 1.01057 0.34304 0.0
O140 O 0.06502 0.71906 0.31207 0.0
Cd141 Cd 0.05715 0.70518 0.33755 0.0
Cd142 Cd 0.03891 0.71823 0.34058 0.0
O143 O 0.04941 0.72808 0.31295 0.0
O144 O 0.06495 0.69084 0.33439 0.0
O145 O 0.04065 0.68339 0.33496 0.0
C146 C 0.05119 0.67998 0.33332 0.0
C147 C 1.01291 0.70924 0.34406 0.0
C148 C 0.06031 0.72743 0.30455 0.0
C149 C 0.06191 0.72477 0.37444 0.0
O150 O 0.05173 0.72708 0.36702 0.0
O151 O 0.06538 0.71588 0.36546 0.0
O152 O 0.02259 0.72344 0.34345 0.0
O153 O 0.01795 0.69996 0.3423 0.0
O154 O 0.30198 0.33117 0.36744 0.0
Cd155 Cd 0.31029 0.32719 0.34068 0.0
Cd156 Cd 0.3263 0.35916 0.34031 0.0
O157 O 0.31468 0.35608 0.36768 0.0
O158 O 0.3031 0.30509 0.34184 0.0
O159 O 0.32722 0.32241 0.34218 0.0
C160 C 0.31696 0.30834 0.34297 0.0
C161 C 0.35179 0.37802 0.33798 0.0
C162 C 0.30502 0.34363 0.37574 0.0
C163 C 0.30438 0.34277 0.3054 0.0
O164 O 0.31387 0.35521 0.31366 0.0
O165 O 0.3016 0.33029 0.31342 0.0
O166 O 0.34116 0.38126 0.33919 0.0
O167 O 0.348 0.36395 0.33865 0.0
O168 O 0.35712 0.06027 0.70439 0.0
Cd169 Cd 0.36314 0.05224 0.67907 0.0
Cd170 Cd 0.33171 0.03399 0.67619 0.0
O171 O 0.33252 0.04461 0.70376 0.0
O172 O 0.38522 0.05981 0.6824 0.0
O173 O 0.36819 0.03558 0.68202 0.0
C174 C 0.38216 0.046 0.6837 0.0
C175 C 0.3143 1.00813 0.67257 0.0
C176 C 0.34408 0.05556 0.71202 0.0
C177 C 0.3483 0.05676 0.64206 0.0
O178 O 0.33585 0.04672 0.64967 0.0
O179 O 0.3607 0.06028 0.65097 0.0
O180 O 0.31007 0.01804 0.67311 0.0
O181 O 0.32853 0.01284 0.67459 0.0
O182 O 0.96907 0.30546 0.70435 0.0
Cd183 Cd 0.97783 0.31938 0.67885 0.0
Cd184 Cd 0.99267 0.30302 0.67472 0.0
O185 O 0.98304 0.2946 0.70313 0.0
O186 O 0.97208 0.33524 0.68271 0.0
O187 O 0.99576 0.34048 0.68138 0.0
C188 C 0.98621 0.34517 0.68343 0.0
C189 C 0.01794 0.30964 0.66937 0.0
C190 C 0.97293 0.29641 0.71186 0.0
C191 C 0.96962 0.29892 0.64222 0.0
O192 O 0.97827 0.29451 0.64966 0.0
O193 O 0.9686 0.30955 0.65078 0.0
O194 O 1.00737 0.29578 0.67068 0.0
O195 O 1.01421 0.31992 0.67132 0.0
O196 O 0.73338 0.68833 0.64845 0.0
Cd197 Cd 0.72514 0.69449 0.67355 0.0
Cd198 Cd 0.70889 0.66337 0.67827 0.0
O199 O 0.71846 0.66365 0.6501 0.0
O200 O 0.73181 0.71624 0.66877 0.0
O201 O 0.70784 0.69858 0.67059 0.0
C202 C 0.71782 0.71261 0.66796 0.0
C203 C 0.68315 0.64603 0.68339 0.0
C204 C 0.72897 0.67522 0.64125 0.0
C205 C 0.73223 0.68187 0.71079 0.0
O206 O 0.72308 0.66888 0.70357 0.0
O207 O 0.73397 0.69369 0.70186 0.0
O208 O 0.69308 0.64182 0.68267 0.0
O209 O 0.6878 0.66022 0.68103 0.0
O210 O 0.3431 0.29607 0.64249 0.0
Cd211 Cd 0.33789 0.30453 0.66815 0.0
Cd212 Cd 0.36926 0.3216 0.67083 0.0
O213 O 0.36783 0.31092 0.64307 0.0
O214 O 0.3161 0.29836 0.6652 0.0
O215 O 0.33426 0.32218 0.66592 0.0
C216 C 0.32006 0.31245 0.66434 0.0
C217 C 0.38754 0.34719 0.67457 0.0
C218 C 0.35602 0.3003 0.63476 0.0
C219 C 0.35223 0.2989 0.70481 0.0
O220 O 0.36482 0.30867 0.6972 0.0
O221 O 0.33993 0.29591 0.69601 0.0
O222 O 0.39115 0.33683 0.67353 0.0
O223 O 0.37343 0.34309 0.67301 0.0
O224 O 0.72993 0.04612 0.64933 0.0
Cd225 Cd 0.7213 0.03377 0.67602 0.0
Cd226 Cd 0.70568 0.04943 0.6769 0.0
O227 O 0.71733 0.05844 0.64963 0.0
O228 O 0.72724 0.01789 0.67497 0.0
O229 O 0.7035 0.01255 0.67436 0.0
C230 C 0.71314 1.0079 0.67378 0.0
C231 C 0.6798 0.04124 0.67917 0.0
C232 C 0.72699 0.05571 0.64136 0.0
C233 C 0.72763 0.05511 0.71157 0.0
O234 O 0.71804 0.05806 0.70361 0.0
O235 O 0.73032 0.04543 0.70329 0.0
O236 O 0.6898 0.05535 0.67826 0.0
O237 O 0.68446 0.03162 0.67823 0.0
O238 O 0.96816 0.66479 0.70038 0.0
Cd239 Cd 0.97638 0.66061 0.67369 0.0
Cd240 Cd 0.99278 0.69198 0.67291 0.0
O241 O 0.98133 0.68968 0.70024 0.0
O242 O 0.96943 0.63859 0.67504 0.0
O243 O 0.99349 0.65613 0.67528 0.0
C244 C 0.98335 0.64202 0.67616 0.0
C245 C 0.01874 0.70924 0.67057 0.0
C246 C 0.97147 0.67739 0.70847 0.0
C247 C 0.97074 0.6761 0.63816 0.0
O248 O 0.98049 0.68851 0.64622 0.0
O249 O 0.96769 0.66361 0.64638 0.0
O250 O 1.00895 0.71363 0.67153 0.0
O251 O 1.01383 0.69491 0.67148 0.0
H252 H 0.23148 0.35143 0.12364 0.0
H253 H 0.19195 0.34259 0.08992 0.0
H254 H 0.19391 0.34828 0.15648 0.0
H255 H 0.16984 0.33482 0.15535 0.0
H256 H 0.13347 0.33565 0.12452 0.0
H257 H 0.17456 0.34938 0.09156 0.0
C258 C 0.22018 0.34986 0.12353 0.0
C259 C 0.21326 0.34972 0.1421 0.0
C260 C 0.2126 0.34753 0.10481 0.0
C261 C 0.19775 0.34492 0.10457 0.0
C262 C 0.19049 0.34505 0.12318 0.0
C263 C 0.19864 0.34763 0.14189 0.0
C264 C 0.17454 0.3423 0.12329 0.0
C265 C 0.16563 0.33723 0.14143 0.0
C266 C 0.15099 0.33507 0.14197 0.0
C267 C 0.14472 0.3371 0.124 0.0
C268 C 0.15307 0.342 0.10575 0.0
C269 C 0.16807 0.34494 0.10554 0.0
H270 H 0.69172 0.89458 0.12134 0.0
H271 H 0.68525 0.85626 0.08683 0.0
H272 H 0.68153 0.85439 0.1537 0.0
H273 H 0.68646 0.83663 0.15279 0.0
H274 H 0.67259 0.79523 0.12117 0.0
H275 H 0.67542 0.83233 0.08742 0.0
C276 C 0.6897 0.88311 0.12104 0.0
C277 C 0.68743 0.87533 0.13953 0.0
C278 C 0.6884 0.87605 0.10213 0.0
C279 C 0.68564 0.86114 0.10172 0.0
C280 C 0.6836 0.85294 0.1203 0.0
C281 C 0.68395 0.86022 0.13912 0.0
C282 C 0.68092 0.83694 0.12024 0.0
C283 C 0.68254 0.8303 0.13863 0.0
C284 C 0.67901 0.81518 0.13914 0.0
C285 C 0.6748 0.80677 0.12097 0.0
C286 C 0.67402 0.81315 0.10237 0.0
C287 C 0.67676 0.82804 0.10199 0.0
H288 H 0.23278 0.88592 0.12566 0.0
H289 H 0.19332 0.85637 0.09086 0.0
H290 H 0.19435 0.85155 0.15726 0.0
H291 H 0.17023 0.8426 0.15514 0.0
H292 H 0.13407 0.80532 0.12409 0.0
H293 H 0.17602 0.83162 0.09242 0.0
C294 C 0.22139 0.87635 0.12521 0.0
C295 C 0.21417 0.8694 0.14357 0.0
C296 C 0.21399 0.87155 0.10629 0.0
C297 C 0.19901 0.85956 0.10561 0.0
C298 C 0.19147 0.85203 0.12397 0.0
C299 C 0.1994 0.85712 0.14289 0.0
C300 C 0.1754 0.83916 0.12365 0.0
C301 C 0.16614 0.8358 0.14135 0.0
C302 C 0.15137 0.82353 0.14161 0.0
C303 C 0.14539 0.815 0.12374 0.0
C304 C 0.15413 0.81799 0.10591 0.0
C305 C 0.16921 0.82986 0.10601 0.0
H306 H 0.33968 0.12916 0.89341 0.0
H307 H 0.35465 0.17106 0.9249 0.0
H308 H 0.33863 0.16515 0.86171 0.0
H309 H 0.3532 0.18933 0.85975 0.0
H310 H 0.35508 0.22692 0.89102 0.0
H311 H 0.34706 0.18816 0.92612 0.0
C312 C 0.34133 0.14049 0.89353 0.0
C313 C 0.33894 0.14642 0.87549 0.0
C314 C 0.34677 0.14924 0.91137 0.0
C315 C 0.34986 0.16428 0.91121 0.0
C316 C 0.34687 0.17041 0.89339 0.0
C317 C 0.3413 0.16115 0.87563 0.0
C318 C 0.34964 0.18634 0.89302 0.0
C319 C 0.35228 0.19421 0.87408 0.0
C320 C 0.35409 0.20871 0.87333 0.0
C321 C 0.3537 0.2157 0.89159 0.0
C322 C 0.35137 0.20842 0.91056 0.0
C323 C 0.34931 0.19376 0.91134 0.0
H324 H 0.80206 0.13514 0.89308 0.0
H325 H 0.84135 0.16587 0.92713 0.0
H326 H 0.83926 0.17045 0.86078 0.0
H327 H 0.86339 0.18128 0.86191 0.0
H328 H 0.89971 0.21785 0.89376 0.0
H329 H 0.85846 0.19017 0.9261 0.0
C330 C 0.81326 0.14501 0.89332 0.0
C331 C 0.82008 0.15211 0.87485 0.0
C332 C 0.82082 0.15011 0.91208 0.0
C333 C 0.83555 0.16254 0.91247 0.0
C334 C 0.84271 0.17024 0.89401 0.0
C335 C 0.83459 0.16483 0.87525 0.0
C336 C 0.85859 0.18355 0.89412 0.0
C337 C 0.86754 0.18767 0.87601 0.0
C338 C 0.88221 0.20012 0.87577 0.0
C339 C 0.88841 0.20812 0.89396 0.0
C340 C 0.87997 0.20442 0.91212 0.0
C341 C 0.86498 0.19241 0.91211 0.0
H342 H 0.80994 0.68614 0.89335 0.0
H343 H 0.83805 0.67288 0.92543 0.0
H344 H 0.84717 0.6877 0.86168 0.0
H345 H 0.85802 0.67441 0.86009 0.0
H346 H 0.89387 0.67311 0.89176 0.0
H347 H 0.8624 0.68016 0.92661 0.0
C348 C 0.81984 0.68484 0.89361 0.0
C349 C 0.82803 0.68707 0.87549 0.0
C350 C 0.82355 0.67997 0.91168 0.0
C351 C 0.83577 0.67726 0.91157 0.0
C352 C 0.84476 0.68011 0.89365 0.0
C353 C 0.84065 0.68513 0.8757 0.0
C354 C 0.85822 0.67775 0.89341 0.0
C355 C 0.86373 0.67539 0.87451 0.0
C356 C 0.87661 0.6739 0.87391 0.0
C357 C 0.88391 0.67429 0.89224 0.0
C358 C 0.8787 0.67634 0.91118 0.0
C359 C 0.86593 0.67812 0.91182 0.0
H360 H 0.89728 0.68387 0.45594 0.0
H361 H 0.85749 0.67511 0.42292 0.0
H362 H 0.86012 0.68125 0.48938 0.0
H363 H 0.83592 0.6673 0.4884 0.0
H364 H 0.79958 0.66877 0.4584 0.0
H365 H 0.84059 0.68274 0.42508 0.0
C366 C 0.88601 0.6824 0.45602 0.0
C367 C 0.87932 0.68247 0.47471 0.0
C368 C 0.87825 0.67996 0.43743 0.0
C369 C 0.86345 0.6775 0.43745 0.0
C370 C 0.85643 0.67782 0.45616 0.0
C371 C 0.86473 0.68048 0.47473 0.0
C372 C 0.84053 0.67517 0.45653 0.0
C373 C 0.83167 0.6699 0.47467 0.0
C374 C 0.81705 0.66779 0.47544 0.0
C375 C 0.81079 0.67014 0.45768 0.0
C376 C 0.81913 0.67529 0.43945 0.0
C377 C 0.83409 0.67813 0.43902 0.0
H378 H 0.35935 0.2255 0.45383 0.0
H379 H 0.34437 0.18368 0.42206 0.0
H380 H 0.3598 0.18922 0.4855 0.0
H381 H 0.34512 0.16515 0.48734 0.0
H382 H 0.34114 0.12668 0.4559 0.0
H383 H 0.35134 0.16614 0.42099 0.0
C384 C 0.35769 0.21416 0.45358 0.0
C385 C 0.35984 0.2081 0.47167 0.0
C386 C 0.35235 0.20551 0.43561 0.0
C387 C 0.34912 0.19041 0.43579 0.0
C388 C 0.35184 0.18413 0.45368 0.0
C389 C 0.35734 0.19333 0.47152 0.0
C390 C 0.34866 0.16804 0.45407 0.0
C391 C 0.34571 0.16011 0.47299 0.0
C392 C 0.34321 0.14533 0.47372 0.0
C393 C 0.34299 0.13808 0.4554 0.0
C394 C 0.3457 0.14547 0.43647 0.0
C395 C 0.34874 0.16048 0.43575 0.0
H396 H 0.89106 0.22699 0.46033 0.0
H397 H 0.86317 0.18599 0.4275 0.0
H398 H 0.85358 0.19108 0.49131 0.0
H399 H 0.84248 0.16687 0.49233 0.0
H400 H 0.80653 0.13056 0.4596 0.0
H401 H 0.8387 0.16933 0.42588 0.0
C402 C 0.8812 0.21579 0.45993 0.0
C403 C 0.87286 0.20969 0.4779 0.0
C404 C 0.8776 0.20737 0.44176 0.0
C405 C 0.86536 0.1925 0.4415 0.0
C406 C 0.8562 0.18622 0.45926 0.0
C407 C 0.86022 0.19515 0.4774 0.0
C408 C 0.84261 0.17051 0.45911 0.0
C409 C 0.83686 0.16241 0.47778 0.0
C410 C 0.82382 0.14814 0.47797 0.0
C411 C 0.8166 0.14161 0.45944 0.0
C412 C 0.82205 0.14913 0.44071 0.0
C413 C 0.83499 0.16355 0.4405 0.0
H414 H 0.02474 0.47046 0.22744 0.0
H415 H 0.017 0.50167 0.2618 0.0
H416 H 0.02171 0.50515 0.19514 0.0
H417 H 1.008 0.51549 0.19682 0.0
H418 H 1.00978 0.55321 0.22737 0.0
H419 H 0.024 0.52606 0.25999 0.0
C420 C 0.02336 0.4803 0.22772 0.0
C421 C 0.02303 0.48708 0.20922 0.0
C422 C 0.02144 0.48569 0.24658 0.0
C423 C 0.01902 0.49807 0.24705 0.0
C424 C 0.01892 0.50542 0.22852 0.0
C425 C 0.02117 0.49976 0.20968 0.0
C426 C 1.01622 0.51865 0.22855 0.0
C427 C 1.01076 0.52229 0.2106 0.0
C428 C 1.0087 0.53483 0.21005 0.0
C429 C 1.01116 0.54337 0.22789 0.0
C430 C 1.01642 0.5401 0.24598 0.0
C431 C 0.01929 0.52799 0.24617 0.0
H432 H 0.47572 0.46197 0.2268 0.0
H433 H 0.50387 0.50285 0.25973 0.0
H434 H 0.51289 0.49795 0.19559 0.0
H435 H 0.52409 0.52198 0.19454 0.0
H436 H 0.55931 0.5591 0.22709 0.0
H437 H 0.52801 0.5201 0.26108 0.0
C438 C 0.48562 0.47313 0.22723 0.0
C439 C 0.49376 0.47932 0.20916 0.0
C440 C 0.48938 0.48147 0.24553 0.0
C441 C 0.50159 0.49638 0.24568 0.0
C442 C 0.51056 0.50275 0.2278 0.0
C443 C 0.50641 0.49385 0.20962 0.0
C444 C 0.52398 0.51859 0.22784 0.0
C445 C 0.52961 0.52664 0.20909 0.0
C446 C 0.54241 0.54108 0.20876 0.0
C447 C 0.54938 0.54794 0.22728 0.0
C448 C 0.54405 0.5405 0.24605 0.0
C449 C 0.53153 0.5258 0.24639 0.0
H450 H 0.47832 0.02107 0.22397 0.0
H451 H 0.50605 1.0075 0.25641 0.0
H452 H 0.51532 0.02189 0.19254 0.0
H453 H 0.52568 1.00799 0.19143 0.0
H454 H 0.56081 1.00574 0.22392 0.0
H455 H 0.53057 0.0152 0.25766 0.0
C456 C 0.48814 0.01966 0.22434 0.0
C457 C 0.49632 0.02171 0.20625 0.0
C458 C 0.49174 0.01476 0.24249 0.0
C459 C 0.50384 0.0119 0.2425 0.0
C460 C 0.51282 0.01456 0.22462 0.0
C461 C 0.50882 0.01955 0.20655 0.0
C462 C 0.52608 0.01192 0.22459 0.0
C463 C 0.53134 1.00896 0.2059 0.0
C464 C 0.54391 1.00692 0.20561 0.0
C465 C 0.55104 1.00726 0.2241 0.0
C466 C 0.54612 1.01003 0.24278 0.0
C467 C 0.53381 0.01254 0.24308 0.0
H468 H 0.56453 0.01866 0.78928 0.0
H469 H 0.52484 1.01028 0.75632 0.0
H470 H 0.52737 0.01585 0.82289 0.0
H471 H 0.50318 1.00205 0.82183 0.0
H472 H 0.46682 1.00359 0.79205 0.0
H473 H 0.50786 0.01784 0.75867 0.0
C474 C 0.55328 0.01723 0.78939 0.0
C475 C 0.54656 0.01714 0.80813 0.0
C476 C 0.54557 0.01498 0.77081 0.0
C477 C 0.53077 0.01255 0.77086 0.0
C478 C 0.52372 0.01274 0.78962 0.0
C479 C 0.53198 0.0152 0.8082 0.0
C480 C 0.50782 1.0101 0.79003 0.0
C481 C 0.49895 1.00472 0.80815 0.0
C482 C 0.48432 1.00259 0.80897 0.0
C483 C 0.47805 1.00501 0.79129 0.0
C484 C 0.48639 1.01028 0.77308 0.0
C485 C 0.50136 0.01315 0.77259 0.0
H486 H 0.02533 0.56021 0.79038 0.0
H487 H 1.01191 0.51902 0.75779 0.0
H488 H 0.02613 0.52403 0.82177 0.0
H489 H 1.01243 0.49992 0.82298 0.0
H490 H 1.00961 0.46226 0.79073 0.0
H491 H 0.01899 0.50177 0.75662 0.0
C492 C 0.02394 0.54899 0.79 0.0
C493 C 0.02591 0.54281 0.8081 0.0
C494 C 0.01914 0.54056 0.77178 0.0
C495 C 1.01626 0.52558 0.77175 0.0
C496 C 0.01883 0.51921 0.78965 0.0
C497 C 0.02379 0.52818 0.80774 0.0
C498 C 1.01608 0.50326 0.78974 0.0
C499 C 1.01325 0.49515 0.8085 0.0
C500 C 1.01113 0.48052 0.80892 0.0
C501 C 1.0112 0.47356 0.79047 0.0
C502 C 1.01381 0.48112 0.7717 0.0
C503 C 1.01645 0.49599 0.77128 0.0
H504 H 0.56544 0.55327 0.79212 0.0
H505 H 0.52638 0.52296 0.75731 0.0
H506 H 0.52761 0.51824 0.82376 0.0
H507 H 0.50354 0.5078 0.82216 0.0
H508 H 0.46768 0.47082 0.79037 0.0
H509 H 0.50906 0.4987 0.75833 0.0
C510 C 0.55418 0.54351 0.79167 0.0
C511 C 0.54706 0.53644 0.81002 0.0
C512 C 0.54684 0.53851 0.77275 0.0
C513 C 0.53201 0.52623 0.77209 0.0
C514 C 0.52456 0.51858 0.79046 0.0
C515 C 0.53249 0.52387 0.80935 0.0
C516 C 0.50863 0.50537 0.79015 0.0
C517 C 0.49952 0.50132 0.8081 0.0
C518 C 0.48491 0.48878 0.80829 0.0
C519 C 0.47888 0.48066 0.79013 0.0
C520 C 0.48744 0.48435 0.77203 0.0
C521 C 0.5024 0.49646 0.77219 0.0
H522 H 0.67741 0.79717 0.55892 0.0
H523 H 0.68845 0.83775 0.59152 0.0
H524 H 0.67314 0.83155 0.52787 0.0
H525 H 0.68407 0.85565 0.5267 0.0
H526 H 0.67957 0.88927 0.55951 0.0
H527 H 0.68001 0.85364 0.59349 0.0
C528 C 0.67817 0.80813 0.55921 0.0
C529 C 0.67526 0.81376 0.5413 0.0
C530 C 0.68272 0.81667 0.5773 0.0
C531 C 0.68441 0.83119 0.57752 0.0
C532 C 0.68088 0.837 0.5598 0.0
C533 C 0.67629 0.82794 0.54173 0.0
C534 C 0.68157 0.85212 0.56004 0.0
C535 C 0.68254 0.85975 0.54133 0.0
C536 C 0.68124 0.87275 0.54114 0.0
C537 C 0.68006 0.87892 0.55972 0.0
C538 C 0.68013 0.87234 0.57857 0.0
C539 C 0.68068 0.85887 0.57875 0.0
H540 H 0.13427 0.80206 0.55923 0.0
H541 H 0.17396 0.8315 0.59356 0.0
H542 H 0.17222 0.83686 0.52736 0.0
H543 H 0.19635 0.84645 0.52872 0.0
H544 H 0.2331 0.88252 0.56072 0.0
H545 H 0.19138 0.85591 0.5926 0.0
C546 C 0.14562 0.81169 0.55957 0.0
C547 C 0.15263 0.8188 0.54117 0.0
C548 C 0.1532 0.8164 0.57837 0.0
C549 C 0.16814 0.82845 0.5789 0.0
C550 C 0.17547 0.83617 0.56054 0.0
C551 C 0.16735 0.83117 0.54174 0.0
C552 C 0.19154 0.84908 0.56077 0.0
C553 C 0.2006 0.85286 0.5428 0.0
C554 C 0.21544 0.86501 0.54266 0.0
C555 C 0.22169 0.873 0.56085 0.0
C556 C 0.21312 0.86961 0.57888 0.0
C557 C 0.19799 0.85792 0.57874 0.0
H558 H 0.14416 0.35307 0.55925 0.0
H559 H 0.17094 0.33831 0.59168 0.0
H560 H 0.18131 0.35386 0.52836 0.0
H561 H 0.19103 0.3395 0.52679 0.0
H562 H 0.22517 0.33541 0.55902 0.0
H563 H 0.19536 0.34521 0.5933 0.0
C564 C 0.15389 0.3515 0.55971 0.0
C565 C 0.16227 0.35372 0.54179 0.0
C566 C 0.15711 0.34618 0.57778 0.0
C567 C 0.16905 0.34306 0.57788 0.0
C568 C 0.17823 0.34587 0.56018 0.0
C569 C 0.17463 0.35135 0.54222 0.0
C570 C 0.1912 0.34278 0.5601 0.0
C571 C 0.19647 0.34001 0.54129 0.0
C572 C 0.20879 0.33757 0.54085 0.0
C573 C 0.21559 0.33723 0.55931 0.0
C574 C 0.21064 0.33976 0.57814 0.0
C575 C 0.19863 0.34274 0.5786 0.0
C576 C 1.00245 0.39993 0.06716 0.0
C577 C 1.01507 0.39845 0.06261 0.0
C578 C 1.00326 0.40997 0.08245 0.0
C579 C 0.0315 0.44366 0.11174 0.0
H580 H 0.99708 0.43538 0.14575 0.0
C581 C 0.03499 0.47637 0.18622 0.0
C582 C 0.02366 0.48007 0.18952 0.0
C583 C 0.03426 0.46759 0.16929 0.0
C584 C 1.00673 0.43792 0.13618 0.0
H585 H 0.03817 0.40574 0.07128 0.0
H586 H 0.03939 0.4227 0.09844 0.0
H587 H 0.99485 0.41683 0.12031 0.0
H588 H 1.00294 0.47791 0.17746 0.0
H589 H 1.00157 0.46238 0.14784 0.0
H590 H 0.04348 0.46455 0.12821 0.0
C591 C 0.02902 0.41658 0.08973 0.0
C592 C 1.00547 0.4273 0.12157 0.0
C593 C 0.02828 0.40672 0.07428 0.0
C594 C 1.01189 0.47532 0.17514 0.0
C595 C 1.01103 0.46633 0.15835 0.0
C596 C 0.03281 0.45419 0.12653 0.0
C597 C 1.01664 0.41862 0.09372 0.0
C598 C 0.01787 0.42998 0.10921 0.0
C599 C 0.02206 0.46214 0.15549 0.0
C600 C 0.02045 0.45141 0.13895 0.0
H601 H 0.99214 0.39382 0.05833 0.0
H602 H 0.99353 0.41131 0.08489 0.0
H603 H 0.0412 0.44634 0.10221 0.0
H604 H 0.04416 0.47988 0.19714 0.0
H605 H 0.04288 0.46448 0.16753 0.0
C606 C 0.62282 0.628 0.07518 0.0
C607 C 0.63094 0.62305 0.06318 0.0
C608 C 0.61301 0.6188 0.0906 0.0
C609 C 0.60212 0.58414 0.1216 0.0
H610 H 0.56496 0.58504 0.12873 0.0
C611 C 0.55401 0.54201 0.17445 0.0
C612 C 0.54931 0.54889 0.18913 0.0
C613 C 0.56299 0.55032 0.15777 0.0
C614 C 0.57529 0.58469 0.12691 0.0
H615 H 0.63539 0.60468 0.05832 0.0
H616 H 0.61801 0.58847 0.08482 0.0
H617 H 0.58324 0.60126 0.10303 0.0
H618 H 0.54957 0.56951 0.1974 0.0
H619 H 0.56495 0.58395 0.168 0.0
H620 H 0.59394 0.56734 0.14534 0.0
C621 C 0.61941 0.59958 0.08266 0.0
C622 C 0.58586 0.59407 0.1123 0.0
C623 C 0.62939 0.60889 0.0674 0.0
C624 C 0.55304 0.56396 0.18624 0.0
C625 C 0.56181 0.57219 0.16942 0.0
C626 C 0.59145 0.57461 0.13603 0.0
C627 C 0.61088 0.60431 0.09423 0.0
C628 C 0.59951 0.59406 0.10959 0.0
C629 C 0.56722 0.56558 0.15533 0.0
C630 C 0.578 0.5749 0.13897 0.0
H631 H 0.62384 0.63891 0.07243 0.0
H632 H 0.60698 0.62303 0.09954 0.0
H633 H 0.61255 0.58393 0.1202 0.0
H634 H 0.5514 0.53045 0.17646 0.0
H635 H 0.56691 0.54492 0.14703 0.0
C636 C 0.41116 1.00531 0.0664 0.0
C637 C 0.40885 0.01735 0.0612 0.0
C638 C 0.42175 1.00713 0.08139 0.0
C639 C 0.44183 0.02869 0.12682 0.0
H640 H 0.47153 0.01722 0.11258 0.0
C641 C 0.48718 0.03622 0.18557 0.0
C642 C 0.49058 0.02455 0.18677 0.0
C643 C 0.47899 0.03707 0.16887 0.0
C644 C 0.46324 0.02033 0.11696 0.0
H645 H 0.4155 0.04057 0.06822 0.0
H646 H 0.43371 0.04356 0.09493 0.0
H647 H 0.45281 0.01457 0.08713 0.0
H648 H 0.48858 1.00493 0.17125 0.0
H649 H 0.47392 1.00606 0.14242 0.0
H650 H 0.45165 0.0338 0.15688 0.0
C651 C 0.42742 0.0328 0.08715 0.0
C652 C 0.45254 0.01885 0.10232 0.0
C653 C 0.41701 0.03108 0.07187 0.0
C654 C 0.48628 0.01417 0.17051 0.0
C655 C 0.47786 0.01485 0.15397 0.0
C656 C 0.45235 0.02993 0.1416 0.0
C657 C 0.43009 0.02092 0.09177 0.0
C658 C 0.44168 0.02293 0.10715 0.0
C659 C 0.47373 0.02608 0.15319 0.0
C660 C 0.46317 0.02568 0.13694 0.0
H661 H 0.40513 0.99461 0.05842 0.0
H662 H 0.42348 0.99774 0.08483 0.0
H663 H 0.4335 0.03181 0.13099 0.0
H664 H 0.49041 0.04438 0.19794 0.0
H665 H 0.47643 0.04614 0.16859 0.0
C666 C 0.4181 0.01917 0.95121 0.0
C667 C 0.40362 1.00745 0.95649 0.0
C668 C 0.42655 0.01701 0.93606 0.0
C669 C 0.424 0.9954 0.89026 0.0
H670 H 0.46496 1.00566 0.9037 0.0
C671 C 0.46082 0.98789 0.82986 0.0
C672 C 0.47593 0.99943 0.82866 0.0
C673 C 0.45197 0.98686 0.84688 0.0
C674 C 0.45362 1.00289 0.89955 0.0
H675 H 0.38647 0.98445 0.94947 0.0
H676 H 0.40113 0.98087 0.92247 0.0
H677 H 0.44938 1.00852 0.92971 0.0
H678 H 0.49383 0.01861 0.84455 0.0
H679 H 0.47841 0.01719 0.87394 0.0
H680 H 0.42832 0.99046 0.85989 0.0
C681 C 0.40595 0.99164 0.93032 0.0
C682 C 0.44468 1.00448 0.91452 0.0
C683 C 0.39758 0.99369 0.94576 0.0
C684 C 0.48226 1.00947 0.84525 0.0
C685 C 0.47336 1.00862 0.86212 0.0
C686 C 0.43301 0.99405 0.87517 0.0
C687 C 0.42062 1.00319 0.9256 0.0
C688 C 0.42984 1.00088 0.90996 0.0
C689 C 0.45796 0.99755 0.86292 0.0
C690 C 0.44801 0.99789 0.87953 0.0
H691 H 0.42313 0.02988 0.95922 0.0
H692 H 0.43776 0.02616 0.93254 0.0
H693 H 0.41262 0.99265 0.88632 0.0
H694 H 0.4557 0.97999 0.81724 0.0
H695 H 0.44031 0.97792 0.84714 0.0
C696 C 0.02903 0.41263 0.9512 0.0
C697 C 1.01626 0.39872 0.9561 0.0
C698 C 0.02836 0.42169 0.93556 0.0
C699 C 1.00764 0.4209 0.88899 0.0
H700 H 0.02145 0.46285 0.90158 0.0
C701 C 0.99796 0.45775 0.83142 0.0
C702 C 1.0098 0.47257 0.82855 0.0
C703 C 0.99811 0.44918 0.84808 0.0
C704 C 0.0177 0.45122 0.89768 0.0
H705 H 0.99298 0.38317 0.94788 0.0
H706 H 0.99195 0.39885 0.9203 0.0
H707 H 0.02385 0.44683 0.92743 0.0
H708 H 0.0308 0.49028 0.84112 0.0
H709 H 0.03134 0.47526 0.87 0.0
H710 H 1.00187 0.42523 0.85914 0.0
C711 C 1.00242 0.40278 0.92868 0.0
C712 C 0.01908 0.44205 0.91252 0.0
C713 C 1.00301 0.39383 0.9445 0.0
C714 C 0.02145 0.47893 0.84317 0.0
C715 C 0.02173 0.47029 0.8597 0.0
C716 C 1.00644 0.43009 0.87407 0.0
C717 C 1.015 0.41692 0.92429 0.0
C718 C 1.014 0.42678 0.90834 0.0
C719 C 1.01027 0.45515 0.86206 0.0
C720 C 1.01137 0.44537 0.87823 0.0
H721 H 0.03938 0.41676 0.9599 0.0
H722 H 0.03826 0.43248 0.93234 0.0
H723 H 1.00379 0.40921 0.88527 0.0
H724 H 0.98882 0.45264 0.82036 0.0
H725 H 0.98886 0.43774 0.84968 0.0
C726 C 0.63369 0.61507 0.94505 0.0
C727 C 0.6289 0.62336 0.95698 0.0
C728 C 0.62441 0.60528 0.92964 0.0
C729 C 0.59001 0.59503 0.89838 0.0
H730 H 0.59032 0.55759 0.8909 0.0
C731 C 0.54788 0.54772 0.84454 0.0
C732 C 0.55475 0.54305 0.82983 0.0
C733 C 0.55612 0.55644 0.86145 0.0
C734 C 0.59014 0.568 0.89282 0.0
H735 H 0.61071 0.62809 0.96179 0.0
H736 H 0.59436 0.61075 0.93532 0.0
H737 H 0.60654 0.57558 0.91695 0.0
H738 H 0.57527 0.54304 0.82176 0.0
H739 H 0.58958 0.55798 0.85157 0.0
H740 H 0.5734 0.58724 0.87439 0.0
C741 C 0.60541 0.61201 0.93752 0.0
C742 C 0.59951 0.5784 0.90763 0.0
C743 C 0.61479 0.62196 0.95276 0.0
C744 C 0.56973 0.5465 0.83293 0.0
C745 C 0.57789 0.55502 0.84998 0.0
C746 C 0.5805 0.58454 0.88375 0.0
C747 C 0.61 0.60336 0.92596 0.0
C748 C 0.59972 0.59214 0.91046 0.0
C749 C 0.5713 0.56043 0.8641 0.0
C750 C 0.58057 0.57099 0.88069 0.0
H751 H 0.64455 0.61597 0.9478 0.0
H752 H 0.62852 0.59914 0.92072 0.0
H753 H 0.58998 0.60555 0.89986 0.0
H754 H 0.53639 0.54531 0.84237 0.0
H755 H 0.55073 0.56037 0.87221 0.0
C756 C 0.03504 0.62983 0.94494 0.0
C757 C 0.02151 0.62402 0.95615 0.0
C758 C 0.03663 0.62132 0.92927 0.0
C759 C 0.02295 0.58244 0.91334 0.0
H760 H 0.03706 0.59887 0.85879 0.0
C761 C 0.01836 0.54494 0.844 0.0
C762 C 0.02862 0.55129 0.82766 0.0
C763 C 0.01895 0.55382 0.86076 0.0
C764 C 0.03342 0.59415 0.87404 0.0
H765 H 0.999 0.60476 0.95951 0.0
H766 H 1.00191 0.58985 0.9324 0.0
H767 H 0.03507 0.61461 0.88535 0.0
H768 H 0.04814 0.57157 0.81658 0.0
H769 H 0.04973 0.58694 0.84629 0.0
H770 H 0.02157 0.5621 0.90237 0.0
C771 C 1.01123 0.60101 0.93572 0.0
C772 C 0.03218 0.60318 0.88921 0.0
C773 C 1.00954 0.60961 0.95112 0.0
C774 C 0.04007 0.56644 0.82898 0.0
C775 C 0.04083 0.57527 0.8459 0.0
C776 C 0.02443 0.57347 0.89829 0.0
C777 C 0.02483 0.60672 0.92477 0.0
C778 C 0.02674 0.59735 0.90891 0.0
C779 C 0.02996 0.56923 0.86171 0.0
C780 C 0.02949 0.57912 0.87831 0.0
H781 H 0.04447 0.64089 0.94844 0.0
H782 H 0.04724 0.62598 0.92107 0.0
H783 H 0.01893 0.57774 0.92852 0.0
H784 H 1.00928 0.53334 0.8432 0.0
H785 H 1.01026 0.54874 0.87241 0.0
C786 C 0.41788 0.40575 0.95111 0.0
C787 C 0.40339 0.40316 0.95599 0.0
C788 C 0.42647 0.41608 0.93577 0.0
C789 C 0.42426 0.43467 0.8891 0.0
H790 H 0.46522 0.46534 0.9025 0.0
C791 C 0.46112 0.47916 0.82882 0.0
C792 C 0.47631 0.48297 0.82775 0.0
C793 C 0.45222 0.47111 0.84568 0.0
C794 C 0.45388 0.45677 0.89835 0.0
H795 H 0.38638 0.40905 0.94807 0.0
H796 H 0.40129 0.42681 0.92079 0.0
H797 H 0.44955 0.4471 0.92864 0.0
H798 H 0.49426 0.48177 0.84366 0.0
H799 H 0.47875 0.46736 0.87277 0.0
H800 H 0.42865 0.44375 0.85862 0.0
C801 C 0.40601 0.42094 0.92908 0.0
C802 C 0.4449 0.44635 0.9134 0.0
C803 C 0.3975 0.41079 0.94469 0.0
C804 C 0.48262 0.47916 0.84427 0.0
C805 C 0.47368 0.47088 0.86097 0.0
C806 C 0.43331 0.44492 0.87393 0.0
C807 C 0.42068 0.42387 0.92472 0.0
C808 C 0.43003 0.43515 0.90888 0.0
C809 C 0.45824 0.4664 0.86169 0.0
C810 C 0.4483 0.45608 0.87828 0.0
H811 H 0.42279 0.40013 0.95957 0.0
H812 H 0.43768 0.41802 0.93256 0.0
H813 H 0.41287 0.42607 0.88517 0.0
H814 H 0.456 0.48202 0.81628 0.0
H815 H 0.44052 0.46826 0.84588 0.0
C816 C 0.63444 0.02318 0.94077 0.0
C817 C 0.62962 1.00984 0.95211 0.0
C818 C 0.62535 0.02394 0.92527 0.0
C819 C 0.58589 1.00751 0.90985 0.0
H820 H 0.60228 0.02536 0.85663 0.0
C821 C 0.54841 1.00629 0.84183 0.0
C822 C 0.55469 0.01813 0.8275 0.0
C823 C 0.55719 1.0057 0.85798 0.0
C824 C 0.59753 0.0206 0.87153 0.0
H825 H 0.61155 0.98673 0.95577 0.0
H826 H 0.59558 0.98813 0.92878 0.0
H827 H 0.61849 0.02308 0.8821 0.0
H828 H 0.57466 0.03911 0.81946 0.0
H829 H 0.58979 0.03854 0.84813 0.0
H830 H 0.56501 1.00531 0.89955 0.0
C831 C 0.60643 0.99799 0.93195 0.0
C832 C 0.60684 0.0192 0.88607 0.0
C833 C 0.61563 0.99716 0.94726 0.0
C834 C 0.5696 0.02983 0.83029 0.0
C835 C 0.5783 0.02937 0.84658 0.0
C836 C 0.5766 1.00908 0.89539 0.0
C837 C 0.61113 0.01144 0.92095 0.0
C838 C 0.60112 0.01262 0.90536 0.0
C839 C 0.5724 0.01704 0.86025 0.0
C840 C 0.58229 0.01566 0.876 0.0
H841 H 0.64515 0.03316 0.94412 0.0
H842 H 0.62924 0.03448 0.91712 0.0
H843 H 0.58123 1.00256 0.92471 0.0
H844 H 0.537 0.99704 0.83983 0.0
H845 H 0.55225 0.99596 0.86804 0.0
C846 C 0.62902 0.02304 0.06338 0.0
C847 C 0.63003 1.01021 0.05841 0.0
C848 C 0.61927 0.02244 0.07896 0.0
C849 C 0.59923 1.00187 0.12543 0.0
H850 H 0.57147 0.01617 0.11286 0.0
C851 C 0.55331 0.99339 0.18343 0.0
C852 C 0.55044 1.00533 0.18604 0.0
C853 C 0.56189 0.99326 0.16676 0.0
C854 C 0.57925 0.01229 0.11677 0.0
H855 H 0.62202 0.98684 0.06641 0.0
H856 H 0.6053 0.98592 0.09391 0.0
H857 H 0.58967 0.01818 0.08695 0.0
H858 H 0.55382 0.02625 0.17306 0.0
H859 H 0.56916 0.02633 0.1442 0.0
H860 H 0.58927 0.99638 0.15536 0.0
C861 C 0.61195 0.9964 0.08563 0.0
C862 C 0.58966 0.01343 0.10188 0.0
C863 C 0.6215 0.99692 0.06985 0.0
C864 C 0.55573 0.01682 0.1712 0.0
C865 C 0.56453 0.01684 0.15468 0.0
C866 C 0.58898 1.00091 0.1404 0.0
C867 C 0.61053 1.00906 0.0901 0.0
C868 C 0.59973 1.00819 0.10605 0.0
C869 C 0.56806 1.00524 0.15252 0.0
C870 C 0.57878 1.00604 0.13628 0.0
H871 H 0.63537 0.03343 0.0548 0.0
H872 H 0.61851 0.03241 0.08224 0.0
H873 H 0.60697 0.99788 0.12913 0.0
H874 H 0.54929 0.98437 0.19466 0.0
H875 H 0.56397 0.98392 0.16534 0.0
C876 C 0.02496 0.61695 0.06658 0.0
C877 C 1.0133 0.61989 0.06163 0.0
C878 C 0.02296 0.60653 0.08193 0.0
C879 C 1.00204 0.58836 0.12858 0.0
H880 H 1.0114 0.55699 0.1153 0.0
C881 C 0.9943 0.54418 0.18943 0.0
C882 C 1.00562 0.54027 0.19046 0.0
C883 C 0.99333 0.55205 0.17242 0.0
C884 C 1.00889 0.56575 0.11941 0.0
H885 H 0.99055 0.61454 0.06944 0.0
H886 H 0.98725 0.59663 0.09676 0.0
H887 H 1.01422 0.57526 0.08903 0.0
H888 H 0.02446 0.54102 0.17429 0.0
H889 H 0.02313 0.55508 0.14491 0.0
H890 H 0.99738 0.57944 0.15915 0.0
C891 C 0.99786 0.6023 0.08851 0.0
C892 C 1.01046 0.57618 0.10429 0.0
C893 C 0.99976 0.61253 0.07288 0.0
C894 C 1.01549 0.54371 0.17373 0.0
C895 C 1.01469 0.5518 0.15686 0.0
C896 C 1.00071 0.57809 0.14382 0.0
C897 C 1.00935 0.59901 0.09292 0.0
C898 C 1.00716 0.58765 0.10878 0.0
C899 C 1.00385 0.55645 0.15621 0.0
C900 C 1.00422 0.56669 0.13951 0.0
H901 H 0.03551 0.62236 0.05817 0.0
H902 H 0.03206 0.60432 0.0852 0.0
H903 H 0.99952 0.59716 0.13248 0.0
H904 H 0.98652 0.5416 0.20214 0.0
H905 H 0.98456 0.55503 0.17227 0.0
C906 C 0.40965 0.41347 0.06648 0.0
C907 C 0.40699 0.39897 0.06147 0.0
C908 C 0.42004 0.42199 0.08183 0.0
C909 C 0.43885 0.41951 0.12821 0.0
H910 H 0.46957 0.46046 0.11497 0.0
C911 C 0.48403 0.45575 0.18808 0.0
C912 C 0.48789 0.47094 0.18954 0.0
C913 C 0.47582 0.44702 0.17117 0.0
C914 C 0.46099 0.44912 0.11907 0.0
H915 H 0.41278 0.38186 0.06918 0.0
H916 H 0.43063 0.39664 0.09646 0.0
H917 H 0.45106 0.44499 0.08894 0.0
H918 H 0.48665 0.48908 0.17427 0.0
H919 H 0.47197 0.47385 0.14508 0.0
H920 H 0.44822 0.42369 0.15852 0.0
C921 C 0.42477 0.40143 0.08828 0.0
C922 C 0.45041 0.44025 0.10409 0.0
C923 C 0.41457 0.39299 0.07267 0.0
C924 C 0.484 0.47744 0.17335 0.0
C925 C 0.47556 0.46866 0.1566 0.0
C926 C 0.44927 0.42844 0.1433 0.0
C927 C 0.4278 0.41611 0.09275 0.0
C928 C 0.43919 0.42539 0.10855 0.0
C929 C 0.471 0.4532 0.15553 0.0
C930 C 0.46047 0.44342 0.13899 0.0
H931 H 0.40407 0.41845 0.0581 0.0
H932 H 0.42205 0.43322 0.08514 0.0
H933 H 0.43024 0.40812 0.13209 0.0
H934 H 0.48695 0.4505 0.20037 0.0
H935 H 0.47292 0.4353 0.17068 0.0
C936 C 0.66483 0.72604 0.40444 0.0
C937 C 0.67836 0.73216 0.39317 0.0
C938 C 0.66296 0.73445 0.42001 0.0
C939 C 0.67564 0.77321 0.43567 0.0
H940 H 0.66352 0.7573 0.49089 0.0
C941 C 0.68179 0.81129 0.50496 0.0
C942 C 0.67216 0.80501 0.52193 0.0
C943 C 0.6808 0.80225 0.48817 0.0
C944 C 0.66658 0.76186 0.47547 0.0
H945 H 0.70054 0.7519 0.38954 0.0
H946 H 0.69713 0.76659 0.41641 0.0
H947 H 0.66514 0.7415 0.46408 0.0
H948 H 0.65332 0.78468 0.53423 0.0
H949 H 0.651 0.76902 0.50452 0.0
H950 H 0.67684 0.79345 0.44673 0.0
C951 C 0.68803 0.75528 0.41323 0.0
C952 C 0.6676 0.75279 0.46015 0.0
C953 C 0.69001 0.7468 0.39797 0.0
C954 C 0.66092 0.78976 0.52131 0.0
C955 C 0.65974 0.78077 0.50438 0.0
C956 C 0.67437 0.7822 0.45087 0.0
C957 C 0.67446 0.74924 0.42431 0.0
C958 C 0.67239 0.75847 0.4402 0.0
C959 C 0.66999 0.78676 0.48786 0.0
C960 C 0.67006 0.77676 0.47111 0.0
H961 H 0.65565 0.71481 0.40111 0.0
H962 H 0.65239 0.72955 0.42834 0.0
H963 H 0.67917 0.77778 0.42031 0.0
H964 H 0.69069 0.82298 0.50522 0.0
H965 H 0.68904 0.8073 0.47596 0.0
C966 C 0.30474 0.94345 0.40845 0.0
C967 C 0.29905 0.95139 0.39746 0.0
C968 C 0.29604 0.93307 0.42376 0.0
C969 C 0.25692 0.90778 0.43857 0.0
H970 H 0.27248 0.9091 0.49346 0.0
C971 C 0.2182 0.87486 0.50677 0.0
C972 C 0.22415 0.8706 0.52325 0.0
C973 C 0.2274 0.88309 0.49022 0.0
C974 C 0.268 0.90829 0.4781 0.0
H975 H 0.27985 0.95479 0.39419 0.0
H976 H 0.26468 0.93655 0.42064 0.0
H977 H 0.28875 0.92707 0.46751 0.0
H978 H 0.244 0.87063 0.53478 0.0
H979 H 0.2599 0.88432 0.50544 0.0
H980 H 0.23628 0.88889 0.44883 0.0
C981 C 0.27585 0.93839 0.41741 0.0
C982 C 0.27734 0.9187 0.46328 0.0
C983 C 0.28461 0.94893 0.40239 0.0
C984 C 0.23918 0.87385 0.52226 0.0
C985 C 0.24831 0.88186 0.50556 0.0
C986 C 0.24765 0.89721 0.45326 0.0
C987 C 0.28141 0.93025 0.42809 0.0
C988 C 0.27181 0.9187 0.44348 0.0
C989 C 0.24271 0.88707 0.48965 0.0
C990 C 0.25297 0.89745 0.47336 0.0
H991 H 0.31581 0.94508 0.40502 0.0
H992 H 0.30059 0.92693 0.43178 0.0
H993 H 0.25245 0.9074 0.4233 0.0
H994 H 0.20671 0.87269 0.50731 0.0
H995 H 0.22265 0.88701 0.47847 0.0
C996 C 0.07873 0.33779 0.40037 0.0
C997 C 0.07605 0.34959 0.39524 0.0
C998 C 0.08936 0.33982 0.41543 0.0
C999 C 0.10867 0.36124 0.46127 0.0
H1000 H 0.13908 0.35064 0.44747 0.0
C1001 C 0.15324 0.36842 0.52121 0.0
C1002 C 0.1568 0.35684 0.52224 0.0
C1003 C 0.1453 0.36946 0.50434 0.0
C1004 C 0.13059 0.3535 0.45172 0.0
H1005 H 0.08209 0.37263 0.40243 0.0
H1006 H 0.10036 0.37598 0.42927 0.0
H1007 H 0.12059 0.34798 0.42162 0.0
H1008 H 0.15533 0.33762 0.50622 0.0
H1009 H 0.14112 0.33908 0.4771 0.0
H1010 H 0.11805 0.36608 0.49159 0.0
C1011 C 0.09434 0.36524 0.42137 0.0
C1012 C 0.12004 0.35203 0.43684 0.0
C1013 C 0.08389 0.36332 0.40602 0.0
C1014 C 0.15292 0.34679 0.50564 0.0
C1015 C 0.14475 0.34766 0.48893 0.0
C1016 C 0.11906 0.36248 0.47628 0.0
C1017 C 0.09736 0.35359 0.42596 0.0
C1018 C 0.1089 0.35577 0.44152 0.0
C1019 C 0.14045 0.35877 0.48829 0.0
C1020 C 0.13011 0.35851 0.47179 0.0
H1021 H 0.07296 0.3271 0.39232 0.0
H1022 H 0.09135 0.3306 0.41884 0.0
H1023 H 0.10013 0.3641 0.46531 0.0
H1024 H 0.15616 0.37634 0.53383 0.0
H1025 H 0.1426 0.37843 0.5042 0.0
C1026 C 0.06448 0.32606 0.27947 0.0
C1027 C 0.07034 0.33976 0.2903 0.0
C1028 C 0.07288 0.32427 0.26382 0.0
C1029 C 0.11163 0.33785 0.24747 0.0
H1030 H 0.09496 0.3234 0.19309 0.0
C1031 C 0.14894 0.34251 0.17796 0.0
C1032 C 0.14258 0.33226 0.1616 0.0
C1033 C 0.14009 0.34185 0.19479 0.0
C1034 C 0.09975 0.32713 0.2083 0.0
H1035 H 0.08955 0.36238 0.29296 0.0
H1036 H 0.10425 0.35913 0.26589 0.0
H1037 H 0.07929 0.32544 0.21971 0.0
H1038 H 0.12233 0.31266 0.15055 0.0
H1039 H 0.10702 0.31094 0.18039 0.0
H1040 H 0.13196 0.33928 0.23641 0.0
C1041 C 0.09315 0.34982 0.26951 0.0
C1042 C 0.09076 0.32839 0.2235 0.0
C1043 C 0.08466 0.3517 0.28488 0.0
C1044 C 0.12747 0.32073 0.16298 0.0
C1045 C 0.11867 0.31989 0.17997 0.0
C1046 C 0.12055 0.33634 0.2324 0.0
C1047 C 0.0874 0.33605 0.25895 0.0
C1048 C 0.09668 0.33399 0.24313 0.0
C1049 C 0.12471 0.33076 0.19579 0.0
C1050 C 0.11483 0.33117 0.21247 0.0
H1051 H 0.05349 0.31665 0.28328 0.0
H1052 H 0.0682 0.31354 0.25591 0.0
H1053 H 0.1164 0.34199 0.2626 0.0
H1054 H 0.16051 0.35164 0.17711 0.0
H1055 H 0.14517 0.35055 0.20644 0.0
C1056 C 0.67181 0.73008 0.27618 0.0
C1057 C 0.6851 0.73404 0.28723 0.0
C1058 C 0.67184 0.73914 0.26004 0.0
C1059 C 0.69219 0.77815 0.24095 0.0
H1060 H 0.67011 0.76033 0.1905 0.0
C1061 C 0.69304 0.81348 0.16994 0.0
C1062 C 0.67966 0.80777 0.15844 0.0
C1063 C 0.69411 0.80509 0.18628 0.0
C1064 C 0.67616 0.7655 0.2046 0.0
H1065 H 0.70894 0.75052 0.28962 0.0
H1066 H 0.70894 0.76633 0.26142 0.0
H1067 H 0.67144 0.74421 0.21699 0.0
H1068 H 0.65668 0.78938 0.1557 0.0
H1069 H 0.65834 0.775 0.18447 0.0
H1070 H 0.69673 0.79945 0.22865 0.0
C1071 C 0.69849 0.75625 0.26538 0.0
C1072 C 0.67697 0.75624 0.21975 0.0
C1073 C 0.6985 0.74711 0.28143 0.0
C1074 C 0.66717 0.79395 0.16422 0.0
C1075 C 0.66819 0.78566 0.18057 0.0
C1076 C 0.69131 0.78744 0.2258 0.0
C1077 C 0.68513 0.75244 0.25464 0.0
C1078 C 0.68489 0.76243 0.23817 0.0
C1079 C 0.68179 0.79089 0.19146 0.0
C1080 C 0.68315 0.78121 0.20751 0.0
H1081 H 0.66129 0.72012 0.28023 0.0
H1082 H 0.66133 0.73596 0.25217 0.0
H1083 H 0.69826 0.78324 0.25507 0.0
H1084 H 0.70285 0.82406 0.16566 0.0
H1085 H 0.70478 0.80945 0.19427 0.0
C1086 C 0.28264 0.95331 0.28748 0.0
C1087 C 0.2966 0.95439 0.29187 0.0
C1088 C 0.27328 0.94358 0.27204 0.0
C1089 C 0.26696 0.91005 0.24152 0.0
H1090 H 0.2415 0.9199 0.20847 0.0
C1091 C 0.23682 0.87895 0.16645 0.0
C1092 C 0.22195 0.87585 0.1634 0.0
C1093 C 0.2451 0.88729 0.18355 0.0
C1094 C 0.24841 0.91692 0.21777 0.0
H1095 H 0.31197 0.94664 0.28282 0.0
H1096 H 0.29599 0.93019 0.25539 0.0
H1097 H 0.2582 0.9378 0.23424 0.0
H1098 H 0.2039 0.87859 0.17608 0.0
H1099 H 0.21846 0.89333 0.206 0.0
H1100 H 0.25747 0.88938 0.22441 0.0
C1101 C 0.29197 0.93642 0.26432 0.0
C1102 C 0.258 0.92718 0.23257 0.0
C1103 C 0.30124 0.94598 0.27994 0.0
C1104 C 0.2153 0.88071 0.1782 0.0
C1105 C 0.22367 0.88926 0.19516 0.0
C1106 C 0.25752 0.8999 0.22652 0.0
C1107 C 0.27773 0.93484 0.26042 0.0
C1108 C 0.26745 0.92391 0.24463 0.0
C1109 C 0.23875 0.89288 0.19777 0.0
C1110 C 0.24817 0.90324 0.21447 0.0
H1111 H 0.27866 0.95953 0.2965 0.0
H1112 H 0.26235 0.94258 0.26971 0.0
H1113 H 0.27379 0.90695 0.25078 0.0
H1114 H 0.2422 0.87534 0.15521 0.0
H1115 H 0.25672 0.88997 0.18511 0.0
C1116 C 0.69871 0.96337 0.27555 0.0
C1117 C 0.68547 0.95907 0.2869 0.0
C1118 C 0.69894 0.95413 0.25983 0.0
C1119 C 0.67981 0.91458 0.24278 0.0
H1120 H 0.69938 0.93138 0.19056 0.0
C1121 C 0.67576 0.87762 0.17237 0.0
C1122 C 0.68821 0.8832 0.15907 0.0
C1123 C 0.67568 0.8864 0.18891 0.0
C1124 C 0.69408 0.9265 0.20517 0.0
H1125 H 0.66198 0.94176 0.29025 0.0
H1126 H 0.66242 0.92567 0.26284 0.0
H1127 H 0.69856 0.94791 0.21686 0.0
H1128 H 0.71068 0.90179 0.15326 0.0
H1129 H 0.71084 0.91686 0.18246 0.0
H1130 H 0.67546 0.89318 0.23121 0.0
C1131 C 0.67265 0.93615 0.26624 0.0
C1132 C 0.69356 0.936 0.22021 0.0
C1133 C 0.67238 0.94545 0.28183 0.0
C1134 C 0.70089 0.8973 0.16323 0.0
C1135 C 0.7009 0.90598 0.17984 0.0
C1136 C 0.68043 0.90507 0.22778 0.0
C1137 C 0.68597 0.94031 0.25521 0.0
C1138 C 0.68641 0.93016 0.23918 0.0
C1139 C 0.68813 0.90086 0.19254 0.0
C1140 C 0.68759 0.91091 0.20877 0.0
H1141 H 0.709 0.97376 0.27905 0.0
H1142 H 0.7094 0.9576 0.25168 0.0
H1143 H 0.67438 0.90977 0.25736 0.0
H1144 H 0.66579 0.86684 0.16933 0.0
H1145 H 0.66561 0.88211 0.19826 0.0
C1146 C 0.08324 0.7407 0.28227 0.0
C1147 C 0.06857 0.73759 0.2871 0.0
C1148 C 0.09177 0.75144 0.26735 0.0
C1149 C 0.08958 0.77039 0.22129 0.0
H1150 H 0.13012 0.80142 0.23594 0.0
C1151 C 0.12741 0.81469 0.16149 0.0
C1152 C 0.14256 0.8183 0.16099 0.0
C1153 C 0.11823 0.80691 0.17827 0.0
C1154 C 0.1189 0.79277 0.23147 0.0
H1155 H 0.05118 0.74301 0.27949 0.0
H1156 H 0.06601 0.76151 0.25284 0.0
H1157 H 0.11418 0.78292 0.26165 0.0
H1158 H 0.16017 0.81712 0.1779 0.0
H1159 H 0.14418 0.8032 0.20688 0.0
H1160 H 0.09441 0.77962 0.19089 0.0
C1161 C 0.07091 0.75571 0.2609 0.0
C1162 C 0.10976 0.78221 0.24625 0.0
C1163 C 0.06244 0.74514 0.27613 0.0
C1164 C 0.14857 0.81466 0.17804 0.0
C1165 C 0.13935 0.80666 0.19468 0.0
C1166 C 0.09881 0.78079 0.20638 0.0
C1167 C 0.08575 0.75915 0.25665 0.0
C1168 C 0.09508 0.77083 0.24125 0.0
C1169 C 0.12392 0.80229 0.19478 0.0
C1170 C 0.11368 0.79204 0.21118 0.0
H1171 H 0.08835 0.73516 0.29047 0.0
H1172 H 0.10312 0.75375 0.26418 0.0
H1173 H 0.07834 0.76166 0.21701 0.0
H1174 H 0.12253 0.81743 0.14852 0.0
H1175 H 0.10655 0.80413 0.17798 0.0
C1176 C 0.28165 0.33023 0.2824 0.0
C1177 C 0.29559 0.34295 0.28736 0.0
C1178 C 0.27252 0.33102 0.26695 0.0
C1179 C 0.27311 0.35217 0.22095 0.0
H1180 H 0.23121 0.33823 0.23401 0.0
C1181 C 0.23608 0.36259 0.1646 0.0
C1182 C 0.22125 0.3508 0.16163 0.0
C1183 C 0.2447 0.36222 0.18106 0.0
C1184 C 0.24282 0.34202 0.22998 0.0
H1185 H 0.31111 0.36628 0.27941 0.0
H1186 H 0.29532 0.36753 0.25218 0.0
H1187 H 0.24733 0.33555 0.25942 0.0
H1188 H 0.20357 0.32965 0.17382 0.0
H1189 H 0.21867 0.32872 0.20234 0.0
H1190 H 0.26867 0.35828 0.1914 0.0
C1191 C 0.29141 0.357 0.26036 0.0
C1192 C 0.25205 0.34048 0.24456 0.0
C1193 C 0.30044 0.35628 0.27599 0.0
C1194 C 0.21493 0.33897 0.17596 0.0
C1195 C 0.22362 0.33846 0.19228 0.0
C1196 C 0.26386 0.35354 0.20628 0.0
C1197 C 0.27724 0.34447 0.25593 0.0
C1198 C 0.26731 0.34561 0.24022 0.0
C1199 C 0.23877 0.34989 0.19472 0.0
C1200 C 0.2486 0.34857 0.21062 0.0
H1201 H 0.27755 0.31981 0.29093 0.0
H1202 H 0.26171 0.32115 0.2637 0.0
H1203 H 0.28478 0.35606 0.2171 0.0
H1204 H 0.24117 0.37187 0.15377 0.0
H1205 H 0.25615 0.37144 0.18274 0.0
C1206 C 0.29511 0.35627 0.39904 0.0
C1207 C 0.2962 0.34349 0.39393 0.0
C1208 C 0.28534 0.35554 0.41466 0.0
C1209 C 0.26513 0.33447 0.46083 0.0
H1210 H 0.23726 0.34869 0.44845 0.0
C1211 C 0.21834 0.32449 0.51804 0.0
C1212 C 0.21547 0.33638 0.52119 0.0
C1213 C 0.22712 0.32475 0.5014 0.0
C1214 C 0.24507 0.34482 0.45229 0.0
H1215 H 0.28833 0.32013 0.40177 0.0
H1216 H 0.27156 0.31899 0.4293 0.0
H1217 H 0.25577 0.35121 0.42269 0.0
H1218 H 0.21902 0.35761 0.50911 0.0
H1219 H 0.23468 0.35834 0.48027 0.0
H1220 H 0.25484 0.32844 0.49053 0.0
C1221 C 0.27817 0.32951 0.42111 0.0
C1222 C 0.25566 0.34627 0.4375 0.0
C1223 C 0.28775 0.33016 0.40531 0.0
C1224 C 0.22094 0.34821 0.50685 0.0
C1225 C 0.22992 0.3486 0.49033 0.0
C1226 C 0.25468 0.33319 0.47569 0.0
C1227 C 0.27666 0.3421 0.4257 0.0
C1228 C 0.26575 0.34105 0.44161 0.0
C1229 C 0.23348 0.33707 0.48771 0.0
C1230 C 0.24443 0.33826 0.4716 0.0
H1231 H 0.30141 0.36669 0.3905 0.0
H1232 H 0.28451 0.36546 0.41803 0.0
H1233 H 0.27288 0.3305 0.46449 0.0
H1234 H 0.21417 0.3152 0.52887 0.0
H1235 H 0.22923 0.31545 0.49958 0.0
C1236 C 0.67232 0.95044 0.40456 0.0
C1237 C 0.68552 0.95899 0.39297 0.0
C1238 C 0.67197 0.94099 0.4204 0.0
C1239 C 0.69026 0.9198 0.43756 0.0
H1240 H 0.67163 0.91844 0.4901 0.0
C1241 C 0.69324 0.8864 0.50824 0.0
C1242 C 0.68086 0.88011 0.52168 0.0
C1243 C 0.69368 0.89541 0.49168 0.0
C1244 C 0.67666 0.91846 0.47541 0.0
H1245 H 0.70879 0.96448 0.38924 0.0
H1246 H 0.70812 0.94796 0.41683 0.0
H1247 H 0.67279 0.93575 0.46351 0.0
H1248 H 0.65889 0.87745 0.52783 0.0
H1249 H 0.65931 0.89259 0.49858 0.0
H1250 H 0.69396 0.90235 0.44933 0.0
C1251 C 0.69803 0.94852 0.41356 0.0
C1252 C 0.67738 0.92846 0.4602 0.0
C1253 C 0.69843 0.95808 0.39786 0.0
C1254 C 0.66861 0.88229 0.51771 0.0
C1255 C 0.66894 0.8911 0.50109 0.0
C1256 C 0.68943 0.90968 0.45273 0.0
C1257 C 0.68476 0.93977 0.42487 0.0
C1258 C 0.68417 0.92924 0.44111 0.0
C1259 C 0.68166 0.89816 0.48819 0.0
C1260 C 0.68258 0.90884 0.47185 0.0
H1261 H 0.66216 0.95085 0.4012 0.0
H1262 H 0.66154 0.93432 0.42877 0.0
H1263 H 0.69542 0.92002 0.42289 0.0
H1264 H 0.70287 0.88497 0.51115 0.0
H1265 H 0.7037 0.90072 0.48217 0.0
C1266 C 0.06575 0.74169 0.4046 0.0
C1267 C 0.07075 0.73364 0.39255 0.0
C1268 C 0.07481 0.75128 0.42035 0.0
C1269 C 0.10896 0.76111 0.45212 0.0
H1270 H 0.10849 0.79835 0.461 0.0
C1271 C 0.15142 0.80783 0.50628 0.0
C1272 C 0.14471 0.81239 0.52141 0.0
C1273 C 0.143 0.79927 0.48936 0.0
C1274 C 0.10871 0.78798 0.45869 0.0
H1275 H 0.08914 0.72918 0.38785 0.0
H1276 H 0.10509 0.74616 0.41482 0.0
H1277 H 0.09233 0.78072 0.43456 0.0
H1278 H 0.1243 0.81236 0.53019 0.0
H1279 H 0.10967 0.79771 0.50037 0.0
H1280 H 0.12559 0.76861 0.47607 0.0
C1281 C 0.09402 0.74486 0.41251 0.0
C1282 C 0.09936 0.77779 0.44365 0.0
C1283 C 0.08487 0.73512 0.39695 0.0
C1284 C 0.12972 0.80898 0.51871 0.0
C1285 C 0.12137 0.80063 0.50165 0.0
C1286 C 0.11845 0.7714 0.46695 0.0
C1287 C 0.08921 0.75323 0.42428 0.0
C1288 C 0.09926 0.76415 0.44025 0.0
C1289 C 0.1278 0.79532 0.48711 0.0
C1290 C 0.11836 0.7849 0.47048 0.0
H1291 H 0.05488 0.74074 0.4017 0.0
H1292 H 0.07053 0.75723 0.42937 0.0
H1293 H 0.10905 0.75065 0.45026 0.0
H1294 H 0.16292 0.81019 0.5081 0.0
H1295 H 0.14826 0.79543 0.47827 0.0
C1296 C 0.35377 0.07855 0.73422 0.0
C1297 C 0.34223 0.06385 0.72949 0.0
C1298 C 0.3516 0.08707 0.74923 0.0
C1299 C 0.3307 0.08479 0.79558 0.0
H1300 H 0.33992 0.12528 0.78117 0.0
C1301 C 0.32405 0.12241 0.85563 0.0
C1302 C 0.33552 0.13758 0.85616 0.0
C1303 C 0.32271 0.11326 0.83882 0.0
C1304 C 0.33744 0.11407 0.78557 0.0
H1305 H 0.31953 0.0464 0.73733 0.0
H1306 H 0.31594 0.06122 0.7641 0.0
H1307 H 0.34247 0.10941 0.75529 0.0
H1308 H 0.35425 0.15525 0.83931 0.0
H1309 H 0.35229 0.13931 0.81028 0.0
H1310 H 0.32638 0.08956 0.82606 0.0
C1311 C 0.32657 0.06614 0.75592 0.0
C1312 C 0.33885 0.10497 0.77069 0.0
C1313 C 0.32864 0.05769 0.74061 0.0
C1314 C 0.34517 0.14363 0.83914 0.0
C1315 C 0.34401 0.13444 0.82248 0.0
C1316 C 0.32953 0.09397 0.81058 0.0
C1317 C 0.33795 0.08101 0.7601 0.0
C1318 C 0.33564 0.0903 0.77561 0.0
C1319 C 0.33301 0.11901 0.82233 0.0
C1320 C 0.33304 0.10882 0.80586 0.0
H1321 H 0.36436 0.08368 0.72591 0.0
H1322 H 0.36061 0.09844 0.75234 0.0
H1323 H 0.32826 0.07355 0.79979 0.0
H1324 H 0.31642 0.1175 0.86855 0.0
H1325 H 0.31385 0.10156 0.83906 0.0
C1326 C 0.95024 0.28455 0.73482 0.0
C1327 C 0.96456 0.28678 0.72967 0.0
C1328 C 0.94153 0.27414 0.75002 0.0
C1329 C 0.94322 0.25454 0.79589 0.0
H1330 H 0.90207 0.22466 0.78201 0.0
C1331 C 0.90583 0.20939 0.855 0.0
C1332 C 0.89075 0.20594 0.85629 0.0
C1333 C 0.91477 0.21755 0.83824 0.0
C1334 C 0.91346 0.233 0.78628 0.0
H1335 H 0.98118 0.28025 0.73703 0.0
H1336 H 0.96608 0.26238 0.76407 0.0
H1337 H 0.91799 0.24321 0.75633 0.0
H1338 H 0.87302 0.20784 0.84088 0.0
H1339 H 0.88864 0.22245 0.81196 0.0
H1340 H 0.93866 0.24492 0.82605 0.0
C1341 C 0.96158 0.26857 0.7561 0.0
C1342 C 0.92259 0.2436 0.77151 0.0
C1343 C 0.9702 0.27879 0.74062 0.0
C1344 C 0.88457 0.21018 0.84008 0.0
C1345 C 0.89357 0.21857 0.82348 0.0
C1346 C 0.93404 0.24411 0.81079 0.0
C1347 C 0.94705 0.26595 0.76066 0.0
C1348 C 0.93752 0.25452 0.77621 0.0
C1349 C 0.90893 0.22273 0.82259 0.0
C1350 C 0.91898 0.23322 0.80625 0.0
H1351 H 0.94552 0.29046 0.72663 0.0
H1352 H 0.93043 0.27245 0.75341 0.0
H1353 H 0.95467 0.26291 0.79995 0.0
H1354 H 0.91082 0.20619 0.86731 0.0
H1355 H 0.9264 0.22014 0.83787 0.0
C1356 C 0.74429 0.67125 0.73379 0.0
C1357 C 0.74197 0.68327 0.72856 0.0
C1358 C 0.75471 0.67301 0.74905 0.0
C1359 C 0.77394 0.69413 0.7951 0.0
H1360 H 0.80422 0.68332 0.78147 0.0
C1361 C 0.81857 0.70142 0.85503 0.0
C1362 C 0.82224 0.68993 0.85607 0.0
C1363 C 0.81051 0.70234 0.83821 0.0
C1364 C 0.79576 0.68623 0.78569 0.0
H1365 H 0.74839 0.7064 0.73578 0.0
H1366 H 0.76627 0.70929 0.76296 0.0
H1367 H 0.78584 0.68078 0.75553 0.0
H1368 H 0.82079 0.67067 0.84017 0.0
H1369 H 0.80633 0.67189 0.81116 0.0
H1370 H 0.78325 0.69891 0.82546 0.0
C1371 C 0.76014 0.69859 0.755 0.0
C1372 C 0.78527 0.68482 0.77075 0.0
C1373 C 0.74992 0.69693 0.73945 0.0
C1374 C 0.81828 0.67978 0.83957 0.0
C1375 C 0.80998 0.68052 0.82292 0.0
C1376 C 0.78426 0.69529 0.81016 0.0
C1377 C 0.76282 0.68673 0.75967 0.0
C1378 C 0.77421 0.68867 0.77536 0.0
C1379 C 0.80564 0.69158 0.82224 0.0
C1380 C 0.79528 0.69127 0.80573 0.0
H1381 H 0.73842 0.6606 0.72565 0.0
H1382 H 0.75645 0.66364 0.75251 0.0
H1383 H 0.76545 0.69708 0.79908 0.0
H1384 H 0.82154 0.70941 0.86756 0.0
H1385 H 0.80777 0.71128 0.83803 0.0
C1386 C 0.75159 0.68498 0.6183 0.0
C1387 C 0.73708 0.67333 0.6236 0.0
C1388 C 0.75996 0.68277 0.60309 0.0
C1389 C 0.75712 0.66116 0.55715 0.0
H1390 H 0.79806 0.67116 0.57024 0.0
C1391 C 0.79354 0.65332 0.4964 0.0
C1392 C 0.80869 0.66477 0.49514 0.0
C1393 C 0.78477 0.65239 0.51347 0.0
C1394 C 0.78672 0.66846 0.56619 0.0
H1395 H 0.7198 0.65038 0.61655 0.0
H1396 H 0.73432 0.64671 0.58944 0.0
H1397 H 0.78263 0.67412 0.59643 0.0
H1398 H 0.82672 0.6839 0.51095 0.0
H1399 H 0.81143 0.68264 0.54042 0.0
H1400 H 0.76128 0.6562 0.5267 0.0
C1401 C 0.73923 0.65747 0.59733 0.0
C1402 C 0.77787 0.67011 0.58125 0.0
C1403 C 0.73094 0.65958 0.61283 0.0
C1404 C 0.81512 0.67482 0.5117 0.0
C1405 C 0.8063 0.67406 0.52861 0.0
C1406 C 0.76604 0.65976 0.54196 0.0
C1407 C 0.75392 0.66896 0.59257 0.0
C1408 C 0.76304 0.66659 0.57682 0.0
C1409 C 0.79087 0.66308 0.52949 0.0
C1410 C 0.78103 0.6635 0.54619 0.0
H1411 H 0.7567 0.69568 0.62634 0.0
H1412 H 0.7712 0.69187 0.59955 0.0
H1413 H 0.74575 0.65848 0.5533 0.0
H1414 H 0.78835 0.64541 0.48382 0.0
H1415 H 0.77308 0.64351 0.51379 0.0
C1416 C 0.33498 0.06007 0.61178 0.0
C1417 C 0.34815 0.0653 0.62368 0.0
C1418 C 0.33431 0.06882 0.59571 0.0
C1419 C 0.3506 0.108 0.57887 0.0
H1420 H 0.33386 0.09058 0.52555 0.0
C1421 C 0.35338 0.14407 0.50828 0.0
C1422 C 0.34182 0.13755 0.49355 0.0
C1423 C 0.35358 0.13561 0.52511 0.0
C1424 C 0.33831 0.0956 0.54045 0.0
H1425 H 0.37105 0.08375 0.62774 0.0
H1426 H 0.3698 0.09907 0.59975 0.0
H1427 H 0.33574 0.0749 0.55228 0.0
H1428 H 0.32089 0.1175 0.48546 0.0
H1429 H 0.32081 0.10292 0.51525 0.0
H1430 H 0.35292 0.12863 0.56727 0.0
C1431 C 0.36001 0.08819 0.60293 0.0
C1432 C 0.33947 0.08661 0.55572 0.0
C1433 C 0.36076 0.07935 0.61883 0.0
C1434 C 0.32998 0.12274 0.49658 0.0
C1435 C 0.33006 0.11436 0.51352 0.0
C1436 C 0.34927 0.11697 0.56367 0.0
C1437 C 0.34673 0.08309 0.59135 0.0
C1438 C 0.34567 0.09271 0.57507 0.0
C1439 C 0.34211 0.12049 0.52766 0.0
C1440 C 0.34313 0.1109 0.54422 0.0
H1441 H 0.32508 0.04931 0.6151 0.0
H1442 H 0.32391 0.06462 0.58711 0.0
H1443 H 0.35524 0.11296 0.59375 0.0
H1444 H 0.36272 0.15541 0.50614 0.0
H1445 H 0.36311 0.14071 0.53552 0.0
C1446 C 0.95673 0.2761 0.6196 0.0
C1447 C 0.95962 0.29067 0.62463 0.0
C1448 C 0.94612 0.2676 0.60448 0.0
C1449 C 0.92714 0.27007 0.55847 0.0
H1450 H 0.89627 0.22929 0.57221 0.0
C1451 C 0.88224 0.23335 0.49863 0.0
C1452 C 0.87849 0.21818 0.49746 0.0
C1453 C 0.89028 0.24222 0.51552 0.0
C1454 C 0.90489 0.24058 0.56799 0.0
H1455 H 0.95397 0.30792 0.6172 0.0
H1456 H 0.93571 0.29317 0.59028 0.0
H1457 H 0.91485 0.24489 0.5981 0.0
H1458 H 0.87972 0.20021 0.51324 0.0
H1459 H 0.89411 0.21568 0.54243 0.0
H1460 H 0.91778 0.26569 0.52815 0.0
C1461 C 0.94157 0.28831 0.59829 0.0
C1462 C 0.9155 0.24952 0.58288 0.0
C1463 C 0.95201 0.29674 0.61369 0.0
C1464 C 0.88229 0.21183 0.51393 0.0
C1465 C 0.89056 0.22075 0.53068 0.0
C1466 C 0.9167 0.26106 0.54346 0.0
C1467 C 0.93834 0.27357 0.59381 0.0
C1468 C 0.92679 0.26431 0.57821 0.0
C1469 C 0.89503 0.23619 0.53145 0.0
C1470 C 0.90547 0.24613 0.54794 0.0
H1471 H 0.96233 0.27104 0.62778 0.0
H1472 H 0.94396 0.25632 0.60115 0.0
H1473 H 0.93581 0.28141 0.55444 0.0
H1474 H 0.87938 0.23848 0.4861 0.0
H1475 H 0.89312 0.25392 0.51578 0.0
C1476 C 0.34554 0.27731 0.61239 0.0
C1477 C 0.35744 0.29182 0.61718 0.0
C1478 C 0.34733 0.26855 0.59736 0.0
C1479 C 0.36822 0.27009 0.5512 0.0
H1480 H 0.35754 0.22918 0.56566 0.0
C1481 C 0.37475 0.23197 0.49184 0.0
C1482 C 0.3631 0.21688 0.49105 0.0
C1483 C 0.37595 0.24114 0.50856 0.0
C1484 C 0.36042 0.2405 0.56123 0.0
H1485 H 0.38039 0.30868 0.60938 0.0
H1486 H 0.38332 0.29346 0.5826 0.0
H1487 H 0.35522 0.24533 0.59131 0.0
H1488 H 0.34389 0.19938 0.50737 0.0
H1489 H 0.34564 0.21537 0.53624 0.0
H1490 H 0.37275 0.2652 0.52091 0.0
C1491 C 0.37269 0.28886 0.59074 0.0
C1492 C 0.35914 0.24976 0.57599 0.0
C1493 C 0.371 0.29756 0.60606 0.0
C1494 C 0.35311 0.21092 0.50775 0.0
C1495 C 0.35415 0.22014 0.52432 0.0
C1496 C 0.36927 0.26076 0.53631 0.0
C1497 C 0.36096 0.27417 0.58653 0.0
C1498 C 0.36291 0.2646 0.57107 0.0
C1499 C 0.36535 0.2355 0.52471 0.0
C1500 C 0.36527 0.24577 0.54105 0.0
H1501 H 0.33496 0.27251 0.6207 0.0
H1502 H 0.33804 0.25732 0.59423 0.0
H1503 H 0.3711 0.28145 0.54696 0.0
H1504 H 0.38262 0.2368 0.47915 0.0
H1505 H 0.38498 0.25276 0.50852 0.0
C1506 C 0.74444 0.05997 0.61178 0.0
C1507 C 0.73591 0.06466 0.62338 0.0
C1508 C 0.75407 0.06913 0.59616 0.0
C1509 C 0.77651 0.1086 0.58061 0.0
H1510 H 0.77744 0.09229 0.52707 0.0
C1511 C 0.81155 0.14623 0.51205 0.0
C1512 C 0.81701 0.14003 0.49743 0.0
C1513 C 0.80246 0.13741 0.52835 0.0
C1514 C 0.77758 0.09702 0.54205 0.0
H1515 H 0.73065 0.08258 0.62739 0.0
H1516 H 0.74763 0.09864 0.6002 0.0
H1517 H 0.75944 0.07597 0.55289 0.0
H1518 H 0.81811 0.12016 0.48897 0.0
H1519 H 0.80293 0.10498 0.51791 0.0
H1520 H 0.79486 0.12957 0.57004 0.0
C1521 C 0.74681 0.08785 0.60325 0.0
C1522 C 0.76715 0.08765 0.55679 0.0
C1523 C 0.737 0.07859 0.61868 0.0
C1524 C 0.81398 0.12517 0.50005 0.0
C1525 C 0.80511 0.11643 0.51649 0.0
C1526 C 0.7871 0.11795 0.56595 0.0
C1527 C 0.75556 0.08328 0.59198 0.0
C1528 C 0.76647 0.09333 0.57621 0.0
C1529 C 0.79879 0.12225 0.53048 0.0
C1530 C 0.78779 0.11229 0.54644 0.0
H1531 H 0.74387 0.04932 0.615 0.0
H1532 H 0.76072 0.06533 0.58778 0.0
H1533 H 0.77637 0.11324 0.59556 0.0
H1534 H 0.81358 0.15761 0.51016 0.0
H1535 H 0.79773 0.14229 0.53866 0.0
C1536 C 0.94792 0.66371 0.6153 0.0
C1537 C 0.96195 0.67635 0.62013 0.0
C1538 C 0.93882 0.66455 0.59985 0.0
C1539 C 0.93952 0.68545 0.55357 0.0
H1540 H 0.89774 0.67199 0.56678 0.0
C1541 C 0.9024 0.69542 0.49673 0.0
C1542 C 0.88749 0.6837 0.49412 0.0
C1543 C 0.9111 0.6952 0.51319 0.0
C1544 C 0.90932 0.67563 0.5627 0.0
H1545 H 0.97766 0.69958 0.61197 0.0
H1546 H 0.96191 0.70091 0.58471 0.0
H1547 H 0.91386 0.66943 0.59231 0.0
H1548 H 0.86977 0.66281 0.50691 0.0
H1549 H 0.88501 0.66213 0.53541 0.0
H1550 H 0.93503 0.69128 0.52385 0.0
C1551 C 0.95792 0.69041 0.593 0.0
C1552 C 0.91855 0.67418 0.57736 0.0
C1553 C 0.96692 0.68965 0.60864 0.0
C1554 C 0.8812 0.67208 0.50876 0.0
C1555 C 0.88997 0.67172 0.52509 0.0
C1556 C 0.93027 0.68674 0.53883 0.0
C1557 C 0.94366 0.67796 0.5887 0.0
C1558 C 0.93376 0.67912 0.57296 0.0
C1559 C 0.90517 0.68308 0.52721 0.0
C1560 C 0.91504 0.68192 0.5432 0.0
H1561 H 0.94373 0.65332 0.62392 0.0
H1562 H 0.92795 0.65473 0.5967 0.0
H1563 H 0.95116 0.68921 0.54968 0.0
H1564 H 0.90747 0.70455 0.48566 0.0
H1565 H 0.92259 0.70438 0.51461 0.0
C1566 C 0.962 0.6906 0.73147 0.0
C1567 C 0.9628 0.67763 0.72662 0.0
C1568 C 0.95241 0.69023 0.74712 0.0
C1569 C 0.93236 0.66986 0.79378 0.0
H1570 H 0.90483 0.68448 0.78134 0.0
C1571 C 0.88597 0.66065 0.85118 0.0
C1572 C 0.88318 0.67261 0.85422 0.0
C1573 C 0.89467 0.66078 0.83452 0.0
C1574 C 0.91254 0.68051 0.7852 0.0
H1575 H 0.95459 0.65427 0.73493 0.0
H1576 H 0.93814 0.65376 0.7625 0.0
H1577 H 0.92308 0.68652 0.75546 0.0
H1578 H 0.88681 0.69382 0.84201 0.0
H1579 H 0.90236 0.69432 0.81311 0.0
H1580 H 0.92224 0.66418 0.82361 0.0
C1581 C 0.94483 0.66416 0.75409 0.0
C1582 C 0.92299 0.68168 0.77034 0.0
C1583 C 0.95423 0.66446 0.73826 0.0
C1584 C 0.88866 0.68438 0.8398 0.0
C1585 C 0.89758 0.68464 0.82327 0.0
C1586 C 0.92206 0.66885 0.80871 0.0
C1587 C 0.94362 0.67696 0.75845 0.0
C1588 C 0.93294 0.67628 0.77445 0.0
C1589 C 0.90105 0.67303 0.82073 0.0
C1590 C 0.91192 0.67405 0.8046 0.0
H1591 H 0.9684 0.7009 0.72272 0.0
H1592 H 0.9518 0.7003 0.7503 0.0
H1593 H 0.94001 0.66577 0.79746 0.0
H1594 H 0.8818 0.65143 0.86211 0.0
H1595 H 0.8967 0.65142 0.83278 0.0
C1596 C 0.33917 0.27624 0.7278 0.0
C1597 C 0.35203 0.29012 0.7231 0.0
C1598 C 0.33954 0.26719 0.74371 0.0
C1599 C 0.3594 0.26812 0.79126 0.0
H1600 H 0.34524 0.22596 0.77969 0.0
C1601 C 0.36761 0.23135 0.85071 0.0
C1602 C 0.35566 0.21658 0.85354 0.0
C1603 C 0.36778 0.23985 0.83377 0.0
C1604 C 0.34908 0.23765 0.7833 0.0
H1605 H 0.3752 0.30561 0.7319 0.0
H1606 H 0.37571 0.28995 0.75993 0.0
H1607 H 0.34355 0.24192 0.75307 0.0
H1608 H 0.33478 0.1989 0.84067 0.0
H1609 H 0.33478 0.21382 0.81127 0.0
H1610 H 0.36455 0.26392 0.82157 0.0
C1611 C 0.36539 0.28603 0.7512 0.0
C1612 C 0.34812 0.24679 0.76802 0.0
C1613 C 0.3651 0.29498 0.73511 0.0
C1614 C 0.34421 0.21022 0.83866 0.0
C1615 C 0.34424 0.2188 0.82182 0.0
C1616 C 0.36019 0.25896 0.80661 0.0
C1617 C 0.35269 0.27194 0.75545 0.0
C1618 C 0.35333 0.26213 0.77182 0.0
C1619 C 0.35584 0.23388 0.81944 0.0
C1620 C 0.35513 0.24361 0.80284 0.0
H1621 H 0.32895 0.27213 0.7188 0.0
H1622 H 0.32954 0.25645 0.7468 0.0
H1623 H 0.36333 0.27986 0.7947 0.0
H1624 H 0.37661 0.23647 0.86198 0.0
H1625 H 0.37713 0.25124 0.83218 0.0
C1626 C 0.73208 0.07267 0.74108 0.0
C1627 C 0.73671 0.06413 0.72942 0.0
C1628 C 0.74143 0.08253 0.75641 0.0
C1629 C 0.77587 0.09272 0.78774 0.0
H1630 H 0.77587 0.13035 0.79482 0.0
C1631 C 0.8188 0.14052 0.8404 0.0
C1632 C 0.81215 0.14539 0.8552 0.0
C1633 C 0.81032 0.13162 0.82373 0.0
C1634 C 0.77598 0.11988 0.79301 0.0
H1635 H 0.75471 0.05906 0.72499 0.0
H1636 H 0.77117 0.07652 0.75125 0.0
H1637 H 0.75941 0.11221 0.76908 0.0
H1638 H 0.79176 0.14551 0.86369 0.0
H1639 H 0.77704 0.13031 0.83427 0.0
H1640 H 0.79269 0.10064 0.81148 0.0
C1641 C 0.76018 0.0754 0.74896 0.0
C1642 C 0.76645 0.10939 0.77838 0.0
C1643 C 0.75073 0.06538 0.73382 0.0
C1644 C 0.79715 0.14193 0.85242 0.0
C1645 C 0.78875 0.13325 0.8356 0.0
C1646 C 0.78555 0.10331 0.80216 0.0
C1647 C 0.75576 0.08429 0.76027 0.0
C1648 C 0.76613 0.09558 0.77567 0.0
C1649 C 0.79512 0.12766 0.82141 0.0
C1650 C 0.78561 0.11694 0.80507 0.0
H1651 H 0.7213 0.07191 0.73818 0.0
H1652 H 0.73741 0.08885 0.76513 0.0
H1653 H 0.77583 0.08216 0.78639 0.0
H1654 H 0.83031 0.14292 0.84232 0.0
H1655 H 0.81554 0.12756 0.81291 0.0
C1656 C 0.05876 0.3585 0.02011 0.0
C1657 C 0.06234 0.37338 0.01578 0.0
C1658 C 0.07014 0.35522 0.02512 0.0
C1659 C 0.10874 0.37369 0.04655 0.0
H1660 H 0.10715 0.33629 0.03142 0.0
C1661 C 0.15238 0.35936 0.07898 0.0
C1662 C 0.14597 0.34491 0.08769 0.0
C1663 C 0.1439 0.36302 0.06563 0.0
C1664 C 0.10776 0.34679 0.0358 0.0
H1665 H 0.08076 0.39636 0.01242 0.0
H1666 H 0.10052 0.39062 0.02084 0.0
H1667 H 0.08867 0.34225 0.0171 0.0
H1668 H 0.1262 0.32264 0.08807 0.0
H1669 H 0.11145 0.32893 0.0649 0.0
H1670 H 0.1275 0.37806 0.06569 0.0
C1671 C 0.08893 0.38151 0.02078 0.0
C1672 C 0.09713 0.35018 0.02763 0.0
C1673 C 0.07757 0.38479 0.01583 0.0
C1674 C 0.1314 0.33388 0.08155 0.0
C1675 C 0.12297 0.33749 0.0682 0.0
C1676 C 0.11934 0.37029 0.05471 0.0
C1677 C 0.08536 0.36675 0.02589 0.0
C1678 C 0.09733 0.36357 0.03317 0.0
C1679 C 0.12889 0.35226 0.06068 0.0
C1680 C 0.11885 0.35668 0.04974 0.0
H1681 H 0.04714 0.34945 0.02024 0.0
H1682 H 0.06695 0.34374 0.02915 0.0
H1683 H 0.10913 0.38399 0.05144 0.0
H1684 H 0.16355 0.3681 0.08357 0.0
H1685 H 0.14889 0.37444 0.05986 0.0
C1686 C 0.66809 0.70704 0.01452 0.0
C1687 C 0.6533 0.69477 0.01541 0.0
C1688 C 0.67102 0.72172 0.01857 0.0
C1689 C 0.65196 0.74469 0.02528 0.0
H1690 H 0.68693 0.76985 0.059 0.0
C1691 C 0.65691 0.79107 0.08071 0.0
C1692 C 0.67108 0.80397 0.08353 0.0
C1693 C 0.65518 0.77971 0.0671 0.0
C1694 C 0.67726 0.76311 0.04924 0.0
H1695 H 0.62995 0.68838 0.02091 0.0
H1696 H 0.63504 0.71369 0.02849 0.0
H1697 H 0.68332 0.74606 0.04573 0.0
H1698 H 0.6944 0.81552 0.07383 0.0
H1699 H 0.69142 0.79566 0.04991 0.0
H1700 H 0.64555 0.7615 0.02985 0.0
C1701 C 0.64441 0.71216 0.0242 0.0
C1702 C 0.67518 0.74942 0.04158 0.0
C1703 C 0.64149 0.69756 0.02 0.0
C1704 C 0.6833 0.80579 0.07156 0.0
C1705 C 0.68162 0.79435 0.05811 0.0
C1706 C 0.65396 0.75832 0.03314 0.0
C1707 C 0.65923 0.72447 0.02375 0.0
C1708 C 0.66233 0.73985 0.02985 0.0
C1709 C 0.66767 0.78093 0.05633 0.0
C1710 C 0.6665 0.76755 0.04553 0.0
H1711 H 0.67744 0.70529 0.01092 0.0
H1712 H 0.68256 0.7309 0.01775 0.0
H1713 H 0.6421 0.73783 0.01591 0.0
H1714 H 0.64743 0.7893 0.09014 0.0
H1715 H 0.64432 0.76948 0.06623 0.0
C1716 C 0.32926 0.95319 0.02234 0.0
C1717 C 0.33375 0.96855 0.02047 0.0
C1718 C 0.31432 0.94252 0.02699 0.0
C1719 C 0.28033 0.939 0.05171 0.0
H1720 H 0.26149 0.89849 0.02928 0.0
C1721 C 0.22283 0.89321 0.08213 0.0
C1722 C 0.22241 0.87977 0.0877 0.0
C1723 C 0.23428 0.90364 0.06926 0.0
C1724 C 0.26658 0.90975 0.0357 0.0
H1725 H 0.3259 0.98468 0.02159 0.0
H1726 H 0.29975 0.966 0.02966 0.0
H1727 H 0.28586 0.91785 0.01595 0.0
H1728 H 0.23312 0.86633 0.08373 0.0
H1729 H 0.25304 0.88437 0.06113 0.0
H1730 H 0.26133 0.93084 0.07189 0.0
C1731 C 0.30786 0.96224 0.0277 0.0
C1732 C 0.28058 0.92085 0.02809 0.0
C1733 C 0.32284 0.97295 0.02298 0.0
C1734 C 0.23301 0.87646 0.07918 0.0
C1735 C 0.24446 0.88686 0.06631 0.0
C1736 C 0.26635 0.92791 0.05932 0.0
C1737 C 0.30344 0.94689 0.02993 0.0
C1738 C 0.28779 0.93554 0.03632 0.0
C1739 C 0.24561 0.90086 0.06187 0.0
C1740 C 0.25943 0.91305 0.05172 0.0
H1741 H 0.33734 0.94938 0.02052 0.0
H1742 H 0.31143 0.93087 0.02889 0.0
H1743 H 0.2856 0.95012 0.05861 0.0
H1744 H 0.21494 0.89612 0.0889 0.0
H1745 H 0.23469 0.9142 0.06593 0.0
C1746 C 0.36402 0.05366 -0.00387 0.0
C1747 C 0.3793 0.05768 -0.00311 0.0
C1748 C 0.35986 0.0644 0.99108 0.0
C1749 C 0.37489 0.10586 0.98571 0.0
H1750 H 0.34153 0.09313 0.94763 0.0
C1751 C 0.36483 0.14669 0.93468 0.0
C1752 C 0.34991 0.14235 0.92938 0.0
C1753 C 0.3679 0.13735 0.94715 0.0
C1754 C 0.3507 0.09687 0.95858 0.0
H1755 H 0.40219 0.07624 0.99334 0.0
H1756 H 0.39495 0.09481 0.98423 0.0
H1757 H 0.3477 0.07472 0.96094 0.0
H1758 H 0.3265 0.12556 0.93402 0.0
H1759 H 0.33175 0.10952 0.95632 0.0
H1760 H 0.3781 0.12816 0.98278 0.0
C1761 C 0.38615 0.08345 0.98783 0.0
C1762 C 0.35425 0.08626 0.96624 0.0
C1763 C 0.39031 0.07274 0.99292 0.0
C1764 C 0.33809 0.12918 0.93804 0.0
C1765 C 0.34113 0.11991 0.95056 0.0
C1766 C 0.37134 0.11652 0.97799 0.0
C1767 C 0.37087 0.07941 0.98662 0.0
C1768 C 0.36649 0.09062 0.97973 0.0
C1769 C 0.35608 0.12351 0.9545 0.0
C1770 C 0.35927 0.11217 0.96418 0.0
H1771 H 0.35526 0.04219 -0.00079 0.0
H1772 H 0.34798 0.06091 0.9906 0.0
H1773 H 0.38426 0.1096 -0.00368 0.0
H1774 H 0.37412 0.15666 0.92786 0.0
H1775 H 0.37954 0.14045 0.94977 0.0
C1776 C 0.97514 0.31532 0.00096 0.0
C1777 C 0.9708 0.3263 0.00283 0.0
C1778 C 0.96455 0.30044 -0.00432 0.0
C1779 C 0.92315 0.27336 0.99075 0.0
H1780 H 0.93615 0.25493 0.94947 0.0
C1781 C 0.8825 0.22412 0.93722 0.0
C1782 C 0.88711 0.21405 0.93042 0.0
C1783 C 0.89181 0.23614 0.9503 0.0
C1784 C 0.93234 0.25973 0.9613 0.0
H1785 H 0.95177 0.33009 0.00128 0.0
H1786 H 0.93344 0.30433 0.99179 0.0
H1787 H 0.9543 0.27909 0.96416 0.0
H1788 H 0.90439 0.20786 0.93298 0.0
H1789 H 0.92039 0.22844 0.9563 0.0
H1790 H 0.90103 0.25409 0.98731 0.0
C1791 C 0.94496 0.30709 -0.00534 0.0
C1792 C 0.9428 0.27365 0.96976 0.0
C1793 C 0.95553 0.32193 -2e-05 0.0
C1794 C 0.90058 0.21547 0.93813 0.0
C1795 C 0.90981 0.22737 0.95125 0.0
C1796 C 0.91264 0.25941 0.98223 0.0
C1797 C 0.94935 0.29618 0.99209 0.0
C1798 C 0.93834 0.28076 0.98443 0.0
C1799 C 0.90588 0.23826 0.95676 0.0
C1800 C 0.91709 0.25248 0.96724 0.0
H1801 H 0.98679 0.31828 0.00314 0.0
H1802 H 0.96831 0.2923 -0.00583 0.0
H1803 H 0.91933 0.27839 0.00222 0.0
H1804 H 0.87228 0.22339 0.93119 0.0
H1805 H 0.88844 0.24433 0.95414 0.0
C1806 C 0.71314 0.66318 -0.00164 0.0
C1807 C 0.7018 0.64829 0.00246 0.0
C1808 C 0.72777 0.66643 0.99322 0.0
C1809 C 0.74775 0.64802 0.97106 0.0
H1810 H 0.78363 0.68511 0.98684 0.0
C1811 C 0.80561 0.66239 0.9383 0.0
C1812 C 0.81369 0.67694 0.92992 0.0
C1813 C 0.7935 0.65864 0.95173 0.0
C1814 C 0.77372 0.67469 0.98228 0.0
H1815 H 0.69713 0.62523 0.00525 0.0
H1816 H 0.72256 0.6309 -0.00341 0.0
H1817 H 0.75922 0.67913 0.00124 0.0
H1818 H 0.8163 0.69927 0.93017 0.0
H1819 H 0.79533 0.69282 0.95348 0.0
H1820 H 0.76208 0.64376 0.95165 0.0
C1821 C 0.72014 0.64005 -0.00306 0.0
C1822 C 0.75971 0.67129 0.9905 0.0
C1823 C 0.70555 0.63682 0.00203 0.0
C1824 C 0.81025 0.68796 0.93646 0.0
C1825 C 0.79823 0.68425 0.94989 0.0
C1826 C 0.76172 0.65142 0.96285 0.0
C1827 C 0.73138 0.65485 0.99208 0.0
C1828 C 0.7465 0.65802 0.98473 0.0
C1829 C 0.78931 0.6694 0.95707 0.0
C1830 C 0.77487 0.66492 0.96805 0.0
H1831 H 0.71063 0.67228 -0.00147 0.0
H1832 H 0.73608 0.67793 0.98939 0.0
H1833 H 0.73781 0.6378 0.96599 0.0
H1834 H 0.80796 0.65366 0.93338 0.0
H1835 H 0.78702 0.64714 0.95724 0.0
C1836 C 0.95729 0.63876 0.00073 0.0
C1837 C 0.97267 0.64946 -0.00131 0.0
C1838 C 0.94622 0.6425 -0.0039 0.0
C1839 C 0.93996 0.67488 0.98545 0.0
H1840 H 0.90518 0.64444 0.95568 0.0
C1841 C 0.90225 0.68724 0.93199 0.0
C1842 C 0.88696 0.67628 0.92987 0.0
C1843 C 0.91162 0.68489 0.94531 0.0
C1844 C 0.91463 0.65299 0.96436 0.0
H1845 H 0.9885 0.67265 0.99064 0.0
H1846 H 0.96919 0.67912 0.98196 0.0
H1847 H 0.92385 0.63852 0.96865 0.0
H1848 H 0.86922 0.65474 0.94087 0.0
H1849 H 0.88554 0.65063 0.96449 0.0
H1850 H 0.93091 0.68953 0.98026 0.0
C1851 C 0.96565 0.66787 0.98755 0.0
C1852 C 0.92541 0.6496 0.97181 0.0
C1853 C 0.97675 0.66415 0.99241 0.0
C1854 C 0.88092 0.66345 0.94249 0.0
C1855 C 0.89032 0.66103 0.95576 0.0
C1856 C 0.92919 0.67831 0.97785 0.0
C1857 C 0.95021 0.65702 0.98904 0.0
C1858 C 0.93833 0.66053 0.98227 0.0
C1859 C 0.90591 0.67142 0.95664 0.0
C1860 C 0.91647 0.66744 0.967 0.0
H1861 H 0.95375 0.62738 0.00577 0.0
H1862 H 0.9345 0.63393 -0.00208 0.0
H1863 H 0.94961 0.68353 -0.00629 0.0
H1864 H 0.90718 0.69711 0.92214 0.0
H1865 H 0.92355 0.69308 0.94546 0.0
C1866 C 0.36327 0.31837 0.99198 0.0
C1867 C 0.37791 0.3289 -0.00144 0.0
C1868 C 0.35953 0.30355 0.98714 0.0
C1869 C 0.37784 0.2815 0.97197 0.0
H1870 H 0.33771 0.24722 0.97939 0.0
C1871 C 0.36395 0.2233 0.94216 0.0
C1872 C 0.35131 0.21675 0.92917 0.0
C1873 C 0.36629 0.23503 0.95553 0.0
C1874 C 0.34898 0.25668 0.97728 0.0
H1875 H 0.39987 0.3319 0.00621 0.0
H1876 H 0.39328 0.3061 -0.0016 0.0
H1877 H 0.34369 0.27187 0.99304 0.0
H1878 H 0.33072 0.21646 0.92083 0.0
H1879 H 0.33459 0.23671 0.94433 0.0
H1880 H 0.38308 0.26645 0.95594 0.0
C1881 C 0.38477 0.30932 -0.00367 0.0
C1882 C 0.3524 0.27084 0.98499 0.0
C1883 C 0.38854 0.32413 0.00093 0.0
C1884 C 0.34044 0.22122 0.93096 0.0
C1885 C 0.3427 0.23285 0.9444 0.0
C1886 C 0.37446 0.26737 0.96442 0.0
C1887 C 0.37032 0.29888 0.98896 0.0
C1888 C 0.36682 0.28351 0.98216 0.0
C1889 C 0.35599 0.24037 0.95614 0.0
C1890 C 0.35994 0.25482 0.96668 0.0
H1891 H 0.35483 0.3217 0.98996 0.0
H1892 H 0.34834 0.29592 0.98131 0.0
H1893 H 0.38898 0.29098 0.96908 0.0
H1894 H 0.37259 0.22018 0.9408 0.0
H1895 H 0.37655 0.24046 0.96459 0.0
C1896 C 0.71312 0.04919 -0.00314 0.0
C1897 C 0.70249 0.05386 0.00016 0.0
C1898 C 0.72817 0.05976 0.99236 0.0
C1899 C 0.75624 0.10101 0.99295 0.0
H1900 H 0.77376 0.09106 0.94686 0.0
C1901 C 0.8028 0.14539 0.94058 0.0
C1902 C 0.81283 0.14181 0.93084 0.0
C1903 C 0.79167 0.13504 0.95386 0.0
C1904 C 0.76925 0.09397 0.96006 0.0
H1905 H 0.69951 0.07337 0.00206 0.0
H1906 H 0.72557 0.09168 -0.00594 0.0
H1907 H 0.74972 0.07197 0.96087 0.0
H1908 H 0.8197 0.12507 0.92792 0.0
H1909 H 0.80055 0.10709 0.95161 0.0
H1910 H 0.7756 0.12319 0.99162 0.0
C1911 C 0.72239 0.0799 -0.00486 0.0
C1912 C 0.75539 0.08298 0.9681 0.0
C1913 C 0.70738 0.06936 -0.00042 0.0
C1914 C 0.81224 0.12816 0.9356 0.0
C1915 C 0.80113 0.1178 0.9489 0.0
C1916 C 0.77012 0.11201 0.98489 0.0
C1917 C 0.73295 0.07525 0.99113 0.0
C1918 C 0.74854 0.08643 0.98435 0.0
C1919 C 0.7903 0.12084 0.95751 0.0
C1920 C 0.77665 0.10873 0.96805 0.0
H1921 H 0.70975 0.03734 -0.00274 0.0
H1922 H 0.73603 0.05579 0.98961 0.0
H1923 H 0.75143 0.10399 0.00571 0.0
H1924 H 0.80284 0.15571 0.9367 0.0
H1925 H 0.78346 0.13773 0.96 0.0
C1926 C 0.65031 0.95188 0.01101 0.0
C1927 C 0.66032 0.96754 0.01066 0.0
C1928 C 0.65543 0.9419 0.01595 0.0
C1929 C 0.68556 0.94069 0.04513 0.0
H1930 H 0.66897 0.90087 0.02094 0.0
C1931 C 0.70091 0.89872 0.07945 0.0
C1932 C 0.68861 0.88428 0.08323 0.0
C1933 C 0.6995 0.90856 0.06586 0.0
C1934 C 0.67369 0.91193 0.0279 0.0
H1935 H 0.6837 0.98492 0.01443 0.0
H1936 H 0.69265 0.96746 0.02299 0.0
H1937 H 0.66259 0.91897 0.00623 0.0
H1938 H 0.66556 0.86842 0.07483 0.0
H1939 H 0.66296 0.88558 0.05126 0.0
H1940 H 0.69618 0.93361 0.06725 0.0
C1941 C 0.6808 0.96293 0.01965 0.0
C1942 C 0.67003 0.92231 0.01946 0.0
C1943 C 0.67568 0.97293 0.01464 0.0
C1944 C 0.67528 0.87941 0.07192 0.0
C1945 C 0.6738 0.88931 0.05847 0.0
C1946 C 0.68917 0.93033 0.05359 0.0
C1947 C 0.67068 0.9473 0.02072 0.0
C1948 C 0.67573 0.93674 0.02819 0.0
C1949 C 0.68568 0.90425 0.056 0.0
C1950 C 0.68311 0.91571 0.04531 0.0
H1951 H 0.63841 0.94732 0.00801 0.0
H1952 H 0.64729 0.92997 0.01684 0.0
H1953 H 0.68996 0.95159 0.05249 0.0
H1954 H 0.71129 0.90275 0.08807 0.0
H1955 H 0.70902 0.91982 0.06395 0.0
C1956 C 0.07926 0.6973 0.02143 0.0
C1957 C 0.06407 0.69359 0.02009 0.0
C1958 C 0.09051 0.71195 0.02642 0.0
C1959 C 0.09885 0.75165 0.03013 0.0
H1960 H 0.12842 0.75513 0.07042 0.0
C1961 C 0.13296 0.8041 0.08109 0.0
C1962 C 0.14733 0.80758 0.08815 0.0
C1963 C 0.12458 0.79162 0.06839 0.0
C1964 C 0.12049 0.75445 0.05882 0.0
H1965 H 0.04888 0.70252 0.02247 0.0
H1966 H 0.06852 0.72808 0.03144 0.0
H1967 H 0.11007 0.73044 0.05727 0.0
H1968 H 0.16465 0.80141 0.08627 0.0
H1969 H 0.15013 0.77967 0.06365 0.0
H1970 H 0.1091 0.77569 0.03214 0.0
C1971 C 0.07175 0.71968 0.02839 0.0
C1972 C 0.1099 0.74023 0.0513 0.0
C1973 C 0.06047 0.70499 0.02336 0.0
C1974 C 0.15365 0.79903 0.08094 0.0
C1975 C 0.14523 0.78647 0.06823 0.0
C1976 C 0.10948 0.7659 0.03765 0.0
C1977 C 0.0869 0.72329 0.03025 0.0
C1978 C 0.09879 0.7386 0.03709 0.0
C1979 C 0.13036 0.78228 0.06246 0.0
C1980 C 0.1203 0.76747 0.05235 0.0
H1981 H 0.08248 0.68883 0.01886 0.0
H1982 H 0.10207 0.71436 0.02737 0.0
H1983 H 0.09063 0.75085 0.01895 0.0
H1984 H 0.12782 0.81051 0.08649 0.0
H1985 H 0.11318 0.78874 0.06442 0.0
C1986 C 0.32783 0.38292 0.02007 0.0
C1987 C 0.33267 0.37229 0.01857 0.0
C1988 C 0.3128 0.37838 0.02461 0.0
C1989 C 0.27928 0.3477 0.04983 0.0
H1990 H 0.25946 0.3683 0.02689 0.0
C1991 C 0.22157 0.33486 0.0806 0.0
C1992 C 0.22078 0.34772 0.08595 0.0
C1993 C 0.23302 0.33605 0.06757 0.0
C1994 C 0.26483 0.36243 0.03346 0.0
H1995 H 0.32537 0.34847 0.02017 0.0
H1996 H 0.29906 0.3405 0.02804 0.0
H1997 H 0.28399 0.37378 0.01355 0.0
H1998 H 0.23077 0.37173 0.08134 0.0
H1999 H 0.2507 0.3739 0.05849 0.0
H2000 H 0.26042 0.33672 0.07017 0.0
C2001 C 0.30696 0.3524 0.02589 0.0
C2002 C 0.27891 0.36559 0.02583 0.0
C2003 C 0.32203 0.35695 0.02129 0.0
C2004 C 0.23095 0.3616 0.07698 0.0
C2005 C 0.24241 0.36282 0.06397 0.0
C2006 C 0.26522 0.34455 0.05745 0.0
C2007 C 0.30219 0.36308 0.0278 0.0
C2008 C 0.28647 0.35851 0.03423 0.0
C2009 C 0.24399 0.35017 0.05981 0.0
C2010 C 0.25793 0.35209 0.04966 0.0
H2011 H 0.33571 0.39484 0.01808 0.0
H2012 H 0.30963 0.38696 0.02626 0.0
H2013 H 0.28483 0.34217 0.05686 0.0
H2014 H 0.21402 0.32409 0.08771 0.0
H2015 H 0.23374 0.32604 0.06444 0.0
C2016 C 0.74454 0.72061 0.35255 0.0
C2017 C 0.7293 0.70924 0.35167 0.0
C2018 C 0.75574 0.71715 0.35765 0.0
C2019 C 0.76362 0.68551 0.36291 0.0
H2020 H 0.79377 0.71234 0.40203 0.0
C2021 C 0.79751 0.66777 0.41537 0.0
C2022 C 0.81209 0.67861 0.42171 0.0
C2023 C 0.78913 0.67172 0.40242 0.0
C2024 C 0.78567 0.70487 0.39076 0.0
H2025 H 0.71395 0.68524 0.35496 0.0
H2026 H 0.73349 0.67921 0.36416 0.0
H2027 H 0.77556 0.71872 0.38837 0.0
H2028 H 0.82975 0.70185 0.41839 0.0
H2029 H 0.81519 0.7088 0.39539 0.0
H2030 H 0.77354 0.67145 0.36582 0.0
C2031 C 0.73681 0.6908 0.36064 0.0
C2032 C 0.77516 0.70852 0.38294 0.0
C2033 C 0.72558 0.69426 0.35548 0.0
C2034 C 0.81857 0.69326 0.41362 0.0
C2035 C 0.81015 0.69726 0.40068 0.0
C2036 C 0.77415 0.68186 0.37075 0.0
C2037 C 0.75202 0.70224 0.36208 0.0
C2038 C 0.76384 0.69878 0.36915 0.0
C2039 C 0.79512 0.68666 0.39554 0.0
C2040 C 0.78516 0.69137 0.38505 0.0
H2041 H 0.74784 0.73226 0.34955 0.0
H2042 H 0.76735 0.72622 0.35824 0.0
H2043 H 0.75524 0.67788 0.35205 0.0
H2044 H 0.79224 0.65639 0.42143 0.0
H2045 H 0.7776 0.66328 0.39895 0.0
C2046 C 0.31303 0.02964 0.35471 0.0
C2047 C 0.32402 0.02526 0.35326 0.0
C2048 C 0.31713 0.0446 0.35894 0.0
C2049 C 0.34741 0.07902 0.38322 0.0
H2050 H 0.32534 0.09728 0.36019 0.0
C2051 C 0.35863 0.13668 0.41241 0.0
C2052 C 0.34555 0.137 0.41795 0.0
C2053 C 0.35769 0.12515 0.39975 0.0
C2054 C 0.33162 0.09235 0.36677 0.0
H2055 H 0.34802 0.03333 0.3546 0.0
H2056 H 0.35521 0.05953 0.36189 0.0
H2057 H 0.32055 0.07284 0.3474 0.0
H2058 H 0.32138 0.12605 0.41408 0.0
H2059 H 0.31966 0.10601 0.39183 0.0
H2060 H 0.35815 0.09826 0.40302 0.0
C2061 C 0.34338 0.05131 0.35997 0.0
C2062 C 0.32885 0.07831 0.35947 0.0
C2063 C 0.33926 0.03631 0.35569 0.0
C2064 C 0.33166 0.12623 0.40955 0.0
C2065 C 0.3307 0.11471 0.39689 0.0
C2066 C 0.35018 0.09305 0.39051 0.0
C2067 C 0.33234 0.05563 0.36185 0.0
C2068 C 0.33647 0.0713 0.36792 0.0
C2069 C 0.34362 0.11366 0.39253 0.0
C2070 C 0.3421 0.09977 0.38269 0.0
H2071 H 0.30118 0.02144 0.35295 0.0
H2072 H 0.30829 0.04741 0.36058 0.0
H2073 H 0.35336 0.07392 0.39029 0.0
H2074 H 0.36941 0.14469 0.41909 0.0
H2075 H 0.36789 0.12481 0.39647 0.0
C2076 C 0.99716 0.28446 0.35946 0.0
C2077 C 1.00118 0.29955 0.35573 0.0
C2078 C 0.98234 0.27374 0.36467 0.0
C2079 C 0.94781 0.27082 0.38705 0.0
H2080 H 0.92962 0.22904 0.36985 0.0
C2081 C 0.88891 0.22773 0.41551 0.0
C2082 C 0.88756 0.21444 0.42376 0.0
C2083 C 0.90116 0.23712 0.403 0.0
C2084 C 0.93456 0.24065 0.37483 0.0
H2085 H 0.99263 0.31508 0.35399 0.0
H2086 H 0.96671 0.29633 0.36284 0.0
H2087 H 0.95424 0.24767 0.35621 0.0
H2088 H 0.89743 0.20007 0.42461 0.0
H2089 H 0.91895 0.21647 0.40271 0.0
H2090 H 0.92835 0.26384 0.40596 0.0
C2091 C 0.97509 0.29283 0.36206 0.0
C2092 C 0.94869 0.25134 0.36704 0.0
C2093 C 0.98994 0.30358 0.35688 0.0
C2094 C 0.8981 0.21013 0.41809 0.0
C2095 C 0.91045 0.21958 0.40563 0.0
C2096 C 0.9337 0.26017 0.39478 0.0
C2097 C 0.97112 0.27779 0.36626 0.0
C2098 C 0.95559 0.26655 0.37325 0.0
C2099 C 0.91246 0.23351 0.39867 0.0
C2100 C 0.92693 0.24491 0.38894 0.0
H2101 H 1.00552 0.28094 0.35873 0.0
H2102 H 0.97981 0.26235 0.36807 0.0
H2103 H 0.95284 0.28233 0.39252 0.0
H2104 H 0.88097 0.23134 0.41984 0.0
H2105 H 0.90216 0.24758 0.39755 0.0
C2106 C 0.05585 0.4043 0.33003 0.0
C2107 C 0.04496 0.38896 0.33203 0.0
C2108 C 0.05161 0.41502 0.32543 0.0
C2109 C 0.02102 0.4186 0.30109 0.0
H2110 H 0.04286 0.45917 0.32331 0.0
C2111 C 1.00888 0.4642 0.27102 0.0
C2112 C 0.0218 0.47768 0.26533 0.0
C2113 C 1.01007 0.45384 0.28386 0.0
C2114 C 0.03666 0.4479 0.31694 0.0
H2115 H 0.02098 0.37293 0.3312 0.0
H2116 H 1.01355 0.39167 0.32322 0.0
H2117 H 0.048 0.43984 0.33646 0.0
H2118 H 0.04594 0.49127 0.26911 0.0
H2119 H 0.04811 0.47335 0.29164 0.0
H2120 H 1.01001 0.42672 0.28113 0.0
C2121 C 0.02541 0.39538 0.32503 0.0
C2122 C 0.03962 0.43681 0.32445 0.0
C2123 C 0.02966 0.38464 0.3297 0.0
C2124 C 0.03578 0.48112 0.27376 0.0
C2125 C 0.03699 0.47077 0.28658 0.0
C2126 C 0.01807 0.42968 0.29357 0.0
C2127 C 0.03636 0.41071 0.32267 0.0
C2128 C 0.03207 0.42209 0.31632 0.0
C2129 C 0.02425 0.45672 0.29109 0.0
C2130 C 0.02605 0.44456 0.3011 0.0
H2131 H 0.06774 0.40806 0.3317 0.0
H2132 H 0.06038 0.42665 0.32343 0.0
H2133 H 1.01512 0.40747 0.29426 0.0
H2134 H 0.99804 0.46119 0.26432 0.0
H2135 H 0.99999 0.44325 0.28727 0.0
C2136 C 0.6442 0.6497 0.3299 0.0
C2137 C 0.63946 0.66033 0.33268 0.0
C2138 C 0.63371 0.63462 0.32534 0.0
C2139 C 0.59252 0.60648 0.32549 0.0
H2140 H 0.60282 0.58832 0.28059 0.0
C2141 C 0.54841 0.55869 0.27419 0.0
C2142 C 0.55216 0.54864 0.26486 0.0
C2143 C 0.55869 0.57011 0.28723 0.0
C2144 C 0.59981 0.59302 0.29347 0.0
H2145 H 0.61991 0.66329 0.33343 0.0
H2146 H 0.60175 0.63719 0.32536 0.0
H2147 H 0.62176 0.61264 0.29412 0.0
H2148 H 0.56914 0.54205 0.26251 0.0
H2149 H 0.58697 0.56166 0.28585 0.0
H2150 H 0.5704 0.58702 0.32437 0.0
C2151 C 0.61352 0.6404 0.3269 0.0
C2152 C 0.61071 0.60704 0.30122 0.0
C2153 C 0.62398 0.65543 0.33138 0.0
C2154 C 0.56591 0.54951 0.26988 0.0
C2155 C 0.57619 0.5609 0.28296 0.0
C2156 C 0.5816 0.59244 0.31774 0.0
C2157 C 0.61824 0.62981 0.32356 0.0
C2158 C 0.60713 0.61412 0.31703 0.0
C2159 C 0.57299 0.57175 0.29108 0.0
C2160 C 0.58501 0.58566 0.30133 0.0
H2161 H 0.65603 0.65309 0.33085 0.0
H2162 H 0.63773 0.62675 0.32307 0.0
H2163 H 0.58943 0.61148 0.33792 0.0
H2164 H 0.53803 0.55845 0.27009 0.0
H2165 H 0.55586 0.57831 0.29299 0.0
C2166 C 0.37438 0.96983 0.33547 0.0
C2167 C 0.37013 0.98094 0.33578 0.0
C2168 C 0.38903 0.97348 0.33003 0.0
C2169 C 0.42801 1.00548 0.32212 0.0
H2170 H 0.43078 0.97787 0.28384 0.0
C2171 C 0.47801 0.02257 0.26685 0.0
C2172 C 0.48182 0.01174 0.26068 0.0
C2173 C 0.46608 0.01879 0.28048 0.0
C2174 C 0.43032 0.98557 0.29487 0.0
H2175 H 0.37813 1.00473 0.33128 0.0
H2176 H 0.40369 0.0111 0.32148 0.0
H2177 H 0.40654 0.97143 0.29876 0.0
H2178 H 0.47686 0.98875 0.26502 0.0
H2179 H 0.45609 0.98212 0.2892 0.0
H2180 H 0.45179 0.01983 0.31768 0.0
C2181 C 0.39572 0.99957 0.32569 0.0
C2182 C 0.41636 0.98188 0.30342 0.0
C2183 C 0.38104 0.99591 0.33121 0.0
C2184 C 0.47421 0.99734 0.26961 0.0
C2185 C 0.4622 0.99351 0.28324 0.0
C2186 C 0.442 1.00918 0.31355 0.0
C2187 C 0.39982 0.98834 0.32467 0.0
C2188 C 0.41496 0.99188 0.31691 0.0
C2189 C 0.45765 1.00404 0.28824 0.0
C2190 C 0.44329 0.99937 0.29954 0.0
H2191 H 0.36631 0.9582 0.33908 0.0
H2192 H 0.39184 0.9646 0.3298 0.0
H2193 H 0.4274 0.01334 0.33271 0.0
H2194 H 0.48373 0.03378 0.2602 0.0
H2195 H 0.46288 0.02717 0.28383 0.0
C2196 C 0.6265 0.97767 0.33316 0.0
C2197 C 0.64202 0.98821 0.33355 0.0
C2198 C 0.61601 0.98212 0.32819 0.0
C2199 C 0.61309 0.01164 0.2996 0.0
H2200 H 0.57292 0.99236 0.32318 0.0
C2201 C 0.5682 0.02346 0.2661 0.0
C2202 C 0.55446 1.01045 0.26157 0.0
C2203 C 0.57853 0.02274 0.27953 0.0
C2204 C 0.58409 0.99785 0.31643 0.0
H2205 H 0.65863 0.01184 0.32973 0.0
H2206 H 0.64029 0.01967 0.32119 0.0
H2207 H 0.59202 0.98743 0.33785 0.0
H2208 H 0.54039 0.98668 0.26796 0.0
H2209 H 0.55832 0.98534 0.2915 0.0
H2210 H 0.6051 0.0217 0.27782 0.0
C2211 C 0.63625 1.00789 0.32448 0.0
C2212 C 0.59504 0.99501 0.32481 0.0
C2213 C 0.64677 1.00342 0.32948 0.0
C2214 C 0.55078 0.99693 0.27165 0.0
C2215 C 0.5611 0.99618 0.28507 0.0
C2216 C 0.60216 0.01449 0.29125 0.0
C2217 C 0.62074 0.99725 0.32347 0.0
C2218 C 0.6096 1.00161 0.31622 0.0
C2219 C 0.57537 1.00895 0.28851 0.0
C2220 C 0.58742 1.00741 0.29928 0.0
H2221 H 0.62242 0.96585 0.33621 0.0
H2222 H 0.60421 0.97357 0.32729 0.0
H2223 H 0.62408 0.01676 0.29237 0.0
H2224 H 0.57137 0.03394 0.25816 0.0
H2225 H 0.58931 0.03284 0.28207 0.0
C2226 C 0.03288 0.65251 0.32659 0.0
C2227 C 0.04776 0.66425 0.32967 0.0
C2228 C 0.02988 0.6379 0.32191 0.0
C2229 C 0.04832 0.61794 0.29961 0.0
H2230 H 1.01261 0.58217 0.3192 0.0
C2231 C 0.03461 0.55926 0.27096 0.0
C2232 C 0.01977 0.55042 0.26377 0.0
C2233 C 0.03849 0.57186 0.2835 0.0
C2234 C 0.02263 0.59204 0.31357 0.0
H2235 H 0.07112 0.66967 0.33089 0.0
H2236 H 0.0659 0.64427 0.32298 0.0
H2237 H 0.01838 0.60695 0.33192 0.0
H2238 H 0.99717 0.54704 0.26523 0.0
H2239 H 1.00383 0.56882 0.28706 0.0
H2240 H 0.05239 0.60316 0.28085 0.0
C2241 C 0.05654 0.64636 0.32383 0.0
C2242 C 0.02591 0.60626 0.32082 0.0
C2243 C 0.05953 0.66094 0.32848 0.0
C2244 C 1.00868 0.55365 0.27067 0.0
C2245 C 1.01252 0.56615 0.28322 0.0
C2246 C 0.04504 0.60375 0.29237 0.0
C2247 C 0.04171 0.63468 0.32019 0.0
C2248 C 0.03868 0.61942 0.31369 0.0
C2249 C 0.02759 0.57579 0.28912 0.0
C2250 C 0.03203 0.59061 0.29898 0.0
H2251 H 0.02355 0.65467 0.32737 0.0
H2252 H 0.01833 0.62924 0.31899 0.0
H2253 H 0.05813 0.62781 0.29352 0.0
H2254 H 0.04339 0.5571 0.2657 0.0
H2255 H 0.05016 0.57889 0.28805 0.0
C2256 C 0.37905 0.38667 0.33049 0.0
C2257 C 0.36765 0.39013 0.33482 0.0
C2258 C 0.39368 0.39815 0.32563 0.0
C2259 C 0.41363 0.43685 0.30464 0.0
H2260 H 0.44953 0.43545 0.31985 0.0
C2261 C 0.47147 0.48077 0.27248 0.0
C2262 C 0.47956 0.47442 0.26373 0.0
C2263 C 0.45937 0.47224 0.28585 0.0
C2264 C 0.43961 0.43601 0.31546 0.0
H2265 H 0.36291 0.40843 0.33837 0.0
H2266 H 0.38836 0.42835 0.33021 0.0
H2267 H 0.4251 0.41679 0.33395 0.0
H2268 H 0.4822 0.45472 0.26326 0.0
H2269 H 0.46125 0.43989 0.28645 0.0
H2270 H 0.42797 0.45572 0.28569 0.0
C2271 C 0.38596 0.41678 0.33014 0.0
C2272 C 0.4256 0.42528 0.3235 0.0
C2273 C 0.37137 0.40534 0.33494 0.0
C2274 C 0.47614 0.45988 0.26984 0.0
C2275 C 0.46414 0.4514 0.2832 0.0
C2276 C 0.42761 0.44755 0.29661 0.0
C2277 C 0.39725 0.41333 0.32503 0.0
C2278 C 0.41238 0.42541 0.31792 0.0
C2279 C 0.45521 0.45724 0.29074 0.0
C2280 C 0.44076 0.44712 0.30161 0.0
H2281 H 0.37656 0.37508 0.33023 0.0
H2282 H 0.40203 0.39504 0.32159 0.0
H2283 H 0.40369 0.43719 0.29972 0.0
H2284 H 0.47381 0.49191 0.2679 0.0
H2285 H 0.45288 0.47717 0.29164 0.0
C2286 C 0.33566 0.29973 0.35026 0.0
C2287 C 0.32077 0.29625 0.34622 0.0
C2288 C 0.33888 0.28831 0.35524 0.0
C2289 C 0.32044 0.2499 0.37716 0.0
H2290 H 0.35737 0.25089 0.36095 0.0
C2291 C 0.33464 0.20611 0.40933 0.0
C2292 C 0.34926 0.21243 0.4175 0.0
C2293 C 0.33089 0.21456 0.39606 0.0
C2294 C 0.34701 0.25045 0.36564 0.0
H2295 H 0.29769 0.27793 0.34334 0.0
H2296 H 0.30332 0.25809 0.35173 0.0
H2297 H 0.35145 0.26945 0.34682 0.0
H2298 H 0.37168 0.23197 0.41698 0.0
H2299 H 0.36523 0.24667 0.39398 0.0
H2300 H 0.31618 0.23124 0.39643 0.0
C2301 C 0.31249 0.26965 0.35145 0.0
C2302 C 0.34363 0.26112 0.35757 0.0
C2303 C 0.30927 0.28105 0.34652 0.0
C2304 C 0.36032 0.22683 0.41087 0.0
C2305 C 0.35661 0.23524 0.39762 0.0
C2306 C 0.32382 0.23926 0.38523 0.0
C2307 C 0.32728 0.27314 0.35626 0.0
C2308 C 0.33042 0.26113 0.36348 0.0
C2309 C 0.34171 0.22945 0.39067 0.0
C2310 C 0.33727 0.23953 0.37987 0.0
H2311 H 0.34477 0.31133 0.3502 0.0
H2312 H 0.35038 0.29144 0.35903 0.0
H2313 H 0.31028 0.24967 0.38233 0.0
H2314 H 0.32588 0.19507 0.41429 0.0
H2315 H 0.31936 0.20965 0.39071 0.0
C2316 C 0.72575 0.0416 0.354 0.0
C2317 C 0.72998 0.03142 0.34629 0.0
C2318 C 0.73672 0.05639 0.35916 0.0
C2319 C 0.7771 0.07842 0.37366 0.0
H2320 H 0.77041 0.11243 0.37011 0.0
C2321 C 0.82031 0.13554 0.40792 0.0
C2322 C 0.81386 0.14127 0.42172 0.0
C2323 C 0.81122 0.12433 0.3937 0.0
C2324 C 0.77246 0.10305 0.37114 0.0
H2325 H 0.74901 0.02905 0.33686 0.0
H2326 H 0.76803 0.05482 0.34528 0.0
H2327 H 0.75207 0.08825 0.35495 0.0
H2328 H 0.79323 0.14073 0.43057 0.0
H2329 H 0.7774 0.12139 0.40568 0.0
H2330 H 0.79727 0.09306 0.39022 0.0
C2331 C 0.7563 0.05133 0.34795 0.0
C2332 C 0.76191 0.08915 0.36255 0.0
C2333 C 0.74536 0.03654 0.34299 0.0
C2334 C 0.79847 0.13657 0.41991 0.0
C2335 C 0.78941 0.12548 0.40565 0.0
C2336 C 0.78766 0.0923 0.38213 0.0
C2337 C 0.75218 0.06137 0.35657 0.0
C2338 C 0.76396 0.07657 0.36402 0.0
C2339 C 0.79555 0.11873 0.39301 0.0
C2340 C 0.78535 0.10472 0.38133 0.0
H2341 H 0.714 0.038 0.35676 0.0
H2342 H 0.73308 0.0637 0.36595 0.0
H2343 H 0.77898 0.06898 0.37548 0.0
H2344 H 0.83212 0.13886 0.40921 0.0
H2345 H 0.81633 0.11951 0.38398 0.0
C2346 C 0.99167 0.71446 0.3488 0.0
C2347 C 0.99669 0.70396 0.34753 0.0
C2348 C 0.97666 0.70981 0.35353 0.0
C2349 C 0.94382 0.67938 0.3801 0.0
H2350 H 0.92329 0.69939 0.35758 0.0
C2351 C 0.88685 0.66695 0.41327 0.0
C2352 C 0.88614 0.67988 0.41843 0.0
C2353 C 0.89799 0.66792 0.3998 0.0
C2354 C 0.92886 0.69369 0.36403 0.0
H2355 H 0.98967 0.68022 0.34963 0.0
H2356 H 0.96337 0.67206 0.35784 0.0
H2357 H 0.94752 0.70473 0.34325 0.0
H2358 H 0.89595 0.7038 0.41308 0.0
H2359 H 0.91536 0.7056 0.38947 0.0
H2360 H 0.92548 0.66872 0.40132 0.0
C2361 C 0.97114 0.68395 0.35536 0.0
C2362 C 0.94277 0.69676 0.35584 0.0
C2363 C 0.9862 0.68861 0.35055 0.0
C2364 C 0.89607 0.69361 0.40889 0.0
C2365 C 0.90722 0.69462 0.39543 0.0
C2366 C 0.92993 0.6763 0.38829 0.0
C2367 C 0.96622 0.69453 0.35717 0.0
C2368 C 0.9506 0.6899 0.36408 0.0
C2369 C 0.90872 0.68191 0.3914 0.0
C2370 C 0.92241 0.68366 0.38067 0.0
H2371 H 0.99943 0.72638 0.34656 0.0
H2372 H 0.97337 0.71832 0.35507 0.0
H2373 H 0.94958 0.67403 0.38704 0.0
H2374 H 0.87948 0.65631 0.42079 0.0
H2375 H 0.89866 0.65787 0.39679 0.0
C2376 C 0.39097 0.02749 0.69111 0.0
C2377 C 0.39431 0.0424 0.68769 0.0
C2378 C 0.40244 0.02434 0.69614 0.0
C2379 C 0.44079 0.04256 0.71865 0.0
H2380 H 0.44031 1.00632 0.70012 0.0
C2381 C 0.48536 0.02839 0.74797 0.0
C2382 C 0.47926 0.01362 0.75546 0.0
C2383 C 0.47667 0.0323 0.7354 0.0
C2384 C 0.4406 0.01649 0.70546 0.0
H2385 H 0.41245 0.06565 0.6862 0.0
H2386 H 0.43237 0.06016 0.69469 0.0
H2387 H 0.42154 0.01229 0.68692 0.0
H2388 H 0.45985 0.99113 0.75451 0.0
H2389 H 0.44476 0.99783 0.73263 0.0
H2390 H 0.45955 0.04659 0.73757 0.0
C2391 C 0.42088 0.05089 0.69386 0.0
C2392 C 0.4298 0.01989 0.69793 0.0
C2393 C 0.40943 0.05403 0.68888 0.0
C2394 C 0.46483 1.0026 0.74886 0.0
C2395 C 0.45619 1.00646 0.73627 0.0
C2396 C 0.45156 0.03917 0.72616 0.0
C2397 C 0.41753 0.03603 0.69785 0.0
C2398 C 0.42961 0.03286 0.70467 0.0
C2399 C 0.46177 0.02147 0.73002 0.0
C2400 C 0.45148 0.02597 0.71993 0.0
H2401 H 0.37945 0.01826 0.69035 0.0
H2402 H 0.3994 0.01278 0.69932 0.0
H2403 H 0.44088 0.05253 0.72444 0.0
H2404 H 0.4964 0.03713 0.75298 0.0
H2405 H 0.48141 0.04392 0.73059 0.0
C2406 C 1.00645 0.37211 0.68961 0.0
C2407 C 0.99114 0.36131 0.68699 0.0
C2408 C 1.01083 0.38717 0.69402 0.0
C2409 C 0.99715 0.41482 0.69339 0.0
H2410 H 0.02588 0.43388 0.73781 0.0
C2411 C 1.00008 0.46253 0.74396 0.0
C2412 C 1.01386 0.47293 0.75298 0.0
C2413 C 0.99914 0.45113 0.73107 0.0
C2414 C 0.01809 0.42892 0.72506 0.0
H2415 H 0.96847 0.35798 0.68649 0.0
H2416 H 0.97607 0.38403 0.69432 0.0
H2417 H 0.02082 0.40952 0.72479 0.0
H2418 H 0.03759 0.48014 0.75498 0.0
H2419 H 0.03613 0.4605 0.73194 0.0
H2420 H 0.99409 0.43405 0.69413 0.0
C2421 C 0.98474 0.38099 0.69275 0.0
C2422 C 1.01516 0.41489 0.71761 0.0
C2423 C 0.98037 0.36598 0.68841 0.0
C2424 C 0.0269 0.47241 0.74783 0.0
C2425 C 0.02599 0.46101 0.73492 0.0
C2426 C 1.00009 0.42887 0.70084 0.0
C2427 C 1.00001 0.39177 0.69582 0.0
C2428 C 1.0044 0.40748 0.702 0.0
C2429 C 1.01197 0.44984 0.7271 0.0
C2430 C 1.01036 0.43597 0.71708 0.0
H2431 H 1.01503 0.36891 0.68855 0.0
H2432 H 0.0227 0.3952 0.69611 0.0
H2433 H 0.989 0.40957 0.68109 0.0
H2434 H 0.98982 0.46251 0.74818 0.0
H2435 H 0.98814 0.44267 0.72555 0.0
C2436 C 0.65625 0.63941 0.6899 0.0
C2437 C 0.66704 0.63486 0.68728 0.0
C2438 C 0.64124 0.6288 0.69458 0.0
C2439 C 0.61356 0.58752 0.69464 0.0
H2440 H 0.59473 0.59763 0.73885 0.0
C2441 C 0.56553 0.54317 0.74525 0.0
C2442 C 0.55521 0.54673 0.75415 0.0
C2443 C 0.57705 0.55354 0.73244 0.0
C2444 C 0.59962 0.59467 0.72616 0.0
H2445 H 0.67037 0.61553 0.68707 0.0
H2446 H 0.64438 0.59718 0.69536 0.0
H2447 H 0.61908 0.61674 0.72564 0.0
H2448 H 0.54829 0.56348 0.75601 0.0
H2449 H 0.56812 0.58148 0.73308 0.0
H2450 H 0.59426 0.5653 0.6956 0.0
C2451 C 0.64741 0.60888 0.69359 0.0
C2452 C 0.61366 0.60567 0.7186 0.0
C2453 C 0.66239 0.61945 0.68899 0.0
C2454 C 0.55596 0.56039 0.74895 0.0
C2455 C 0.56747 0.57077 0.73612 0.0
C2456 C 0.59951 0.57651 0.7022 0.0
C2457 C 0.63665 0.6134 0.69665 0.0
C2458 C 0.62097 0.60216 0.70304 0.0
C2459 C 0.57855 0.56774 0.7284 0.0
C2460 C 0.59248 0.57985 0.71836 0.0
H2461 H 0.65944 0.65118 0.68863 0.0
H2462 H 0.63322 0.63267 0.69665 0.0
H2463 H 0.61874 0.58449 0.68238 0.0
H2464 H 0.56539 0.53286 0.7495 0.0
H2465 H 0.58543 0.55084 0.727 0.0
C2466 C 0.69831 0.72046 0.66299 0.0
C2467 C 0.71351 0.7242 0.66356 0.0
C2468 C 0.69437 0.73135 0.65788 0.0
C2469 C 0.71016 0.77292 0.65187 0.0
H2470 H 0.67639 0.76048 0.61459 0.0
C2471 C 0.70076 0.81386 0.60021 0.0
C2472 C 0.68588 0.80993 0.59543 0.0
C2473 C 0.70367 0.80446 0.61279 0.0
C2474 C 0.68569 0.76414 0.62532 0.0
H2475 H 0.73652 0.74244 0.65956 0.0
H2476 H 0.72968 0.76126 0.6503 0.0
H2477 H 0.68218 0.74181 0.628 0.0
H2478 H 0.66238 0.79376 0.60087 0.0
H2479 H 0.66738 0.77759 0.62335 0.0
H2480 H 0.71389 0.79539 0.64856 0.0
C2481 C 0.72076 0.75001 0.65413 0.0
C2482 C 0.68902 0.75339 0.63303 0.0
C2483 C 0.72468 0.73915 0.6593 0.0
C2484 C 0.67396 0.79709 0.60459 0.0
C2485 C 0.67684 0.78774 0.61719 0.0
C2486 C 0.70685 0.78371 0.64407 0.0
C2487 C 0.70555 0.74625 0.65315 0.0
C2488 C 0.7014 0.75763 0.64623 0.0
C2489 C 0.69172 0.79094 0.62071 0.0
C2490 C 0.69464 0.77947 0.63054 0.0
H2491 H 0.68943 0.70908 0.6663 0.0
H2492 H 0.68255 0.72808 0.65758 0.0
H2493 H 0.71964 0.77658 0.66225 0.0
H2494 H 0.71011 0.82354 0.59294 0.0
H2495 H 0.71526 0.80724 0.61506 0.0
C2496 C 0.30769 0.98116 0.66717 0.0
C2497 C 0.30316 0.99201 0.66877 0.0
C2498 C 0.29724 0.96621 0.66199 0.0
C2499 C 0.25596 0.93876 0.65719 0.0
H2500 H 0.26918 0.92036 0.61615 0.0
C2501 C 0.21556 0.88932 0.6039 0.0
C2502 C 0.22027 0.87932 0.59711 0.0
C2503 C 0.22482 0.90137 0.61696 0.0
C2504 C 0.26532 0.92515 0.62792 0.0
H2505 H 0.28397 0.99552 0.66679 0.0
H2506 H 0.2659 0.96964 0.65749 0.0
H2507 H 0.28719 0.94465 0.63066 0.0
H2508 H 0.23763 0.87324 0.59976 0.0
H2509 H 0.25354 0.89388 0.62305 0.0
H2510 H 0.23393 0.91936 0.65388 0.0
C2511 C 0.27745 0.97255 0.6605 0.0
C2512 C 0.2757 0.93914 0.63627 0.0
C2513 C 0.28787 0.98746 0.6657 0.0
C2514 C 0.23376 0.88081 0.60486 0.0
C2515 C 0.24293 0.89274 0.61798 0.0
C2516 C 0.24554 0.92474 0.64879 0.0
C2517 C 0.28202 0.96176 0.65826 0.0
C2518 C 0.27115 0.94625 0.65082 0.0
C2519 C 0.23892 0.90357 0.62345 0.0
C2520 C 0.25006 0.91783 0.63388 0.0
H2521 H 0.31937 0.98426 0.66954 0.0
H2522 H 0.30113 0.95815 0.66071 0.0
H2523 H 0.25209 0.9438 0.66858 0.0
H2524 H 0.20531 0.88852 0.59786 0.0
H2525 H 0.22139 0.90951 0.62077 0.0
C2526 C 0.04509 0.3284 0.66153 0.0
C2527 C 0.03371 0.31345 0.66517 0.0
C2528 C 0.05973 0.33171 0.65636 0.0
C2529 C 0.08003 0.31373 0.63379 0.0
H2530 H 0.11568 0.35028 0.65168 0.0
C2531 C 0.1385 0.32823 0.60347 0.0
C2532 C 0.14689 0.34293 0.59565 0.0
C2533 C 0.1261 0.32433 0.61638 0.0
C2534 C 0.10584 0.34002 0.64653 0.0
H2535 H 0.02896 0.29031 0.66695 0.0
H2536 H 0.05441 0.29609 0.65823 0.0
H2537 H 0.091 0.34415 0.66522 0.0
H2538 H 0.14972 0.36534 0.59643 0.0
H2539 H 0.12823 0.35864 0.61886 0.0
H2540 H 0.09472 0.30977 0.6147 0.0
C2541 C 0.05201 0.30525 0.65898 0.0
C2542 C 0.09167 0.33653 0.65424 0.0
C2543 C 0.03741 0.30195 0.66408 0.0
C2544 C 0.14343 0.35392 0.60229 0.0
C2545 C 0.13112 0.35007 0.6152 0.0
C2546 C 0.09416 0.31721 0.62609 0.0
C2547 C 0.06332 0.32014 0.65475 0.0
C2548 C 0.07855 0.32345 0.64773 0.0
C2549 C 0.12192 0.33509 0.62176 0.0
C2550 C 0.10723 0.33052 0.63209 0.0
H2551 H 0.04262 0.33752 0.66223 0.0
H2552 H 0.0681 0.34329 0.653 0.0
H2553 H 0.07018 0.30367 0.62816 0.0
H2554 H 0.14086 0.31952 0.59847 0.0
H2555 H 0.1194 0.31274 0.62143 0.0
C2556 C 0.29324 0.30617 0.65952 0.0
C2557 C 0.3086 0.31712 0.66105 0.0
C2558 C 0.2824 0.31034 0.65534 0.0
C2559 C 0.27836 0.34081 0.63142 0.0
H2560 H 0.23804 0.31876 0.65433 0.0
C2561 C 0.23217 0.35249 0.60254 0.0
C2562 C 0.21876 0.33948 0.59683 0.0
C2563 C 0.24268 0.35142 0.61521 0.0
C2564 C 0.24924 0.32503 0.64778 0.0
H2565 H 0.32455 0.34111 0.65988 0.0
H2566 H 0.3056 0.34841 0.65268 0.0
H2567 H 0.25761 0.31378 0.66695 0.0
H2568 H 0.20546 0.31531 0.60044 0.0
H2569 H 0.22363 0.31335 0.62271 0.0
H2570 H 0.26993 0.35173 0.61184 0.0
C2571 C 0.30196 0.33656 0.6545 0.0
C2572 C 0.26046 0.32215 0.65498 0.0
C2573 C 0.31282 0.33238 0.65873 0.0
C2574 C 0.21555 0.32553 0.60511 0.0
C2575 C 0.22603 0.32444 0.61778 0.0
C2576 C 0.26714 0.34368 0.62424 0.0
C2577 C 0.28661 0.32557 0.65256 0.0
C2578 C 0.2751 0.32978 0.64658 0.0
C2579 C 0.24003 0.33728 0.62226 0.0
C2580 C 0.25235 0.33562 0.63201 0.0
H2581 H 0.28955 0.2943 0.6612 0.0
H2582 H 0.27076 0.30153 0.65365 0.0
H2583 H 0.28941 0.34676 0.62438 0.0
H2584 H 0.23501 0.36332 0.59595 0.0
H2585 H 0.25323 0.36156 0.6186 0.0
C2586 C 0.71891 0.98683 0.67312 0.0
C2587 C 0.7084 0.99175 0.67075 0.0
C2588 C 0.715 0.97198 0.66844 0.0
C2589 C 0.68246 0.9337 0.65653 0.0
H2590 H 0.71284 0.92951 0.62633 0.0
C2591 C 0.6696 0.88494 0.60046 0.0
C2592 C 0.68042 0.88047 0.59765 0.0
C2593 C 0.67212 0.89633 0.6145 0.0
C2594 C 0.7043 0.93036 0.63513 0.0
H2595 H 0.68535 0.98475 0.66223 0.0
H2596 H 0.6786 0.95892 0.65354 0.0
H2597 H 0.719 0.95386 0.6405 0.0
H2598 H 0.70178 0.88354 0.60839 0.0
H2599 H 0.70615 0.90337 0.63324 0.0
H2600 H 0.66759 0.91022 0.65028 0.0
C2601 C 0.68982 0.96646 0.65938 0.0
C2602 C 0.70784 0.94439 0.64327 0.0
C2603 C 0.6937 0.98131 0.66427 0.0
C2604 C 0.6932 0.88669 0.61041 0.0
C2605 C 0.69578 0.89817 0.62441 0.0
C2606 C 0.6789 0.91964 0.64826 0.0
C2607 C 0.70051 0.96166 0.66103 0.0
C2608 C 0.69692 0.94634 0.65384 0.0
C2609 C 0.68557 0.90358 0.62595 0.0
C2610 C 0.68972 0.91785 0.63719 0.0
H2611 H 0.73028 0.99453 0.67829 0.0
H2612 H 0.72344 0.96866 0.67037 0.0
H2613 H 0.67383 0.93468 0.66486 0.0
H2614 H 0.6597 0.88038 0.59068 0.0
H2615 H 0.66404 0.90022 0.61516 0.0
C2616 C 0.04557 0.71566 0.66415 0.0
C2617 C 0.03496 0.72035 0.66746 0.0
C2618 C 0.0606 0.72621 0.65945 0.0
C2619 C 0.08863 0.76747 0.65946 0.0
H2620 H 0.10606 0.75726 0.61355 0.0
C2621 C 0.1349 0.81157 0.60653 0.0
C2622 C 0.14506 0.80806 0.59703 0.0
C2623 C 0.12378 0.80125 0.61984 0.0
C2624 C 0.10157 0.76024 0.62669 0.0
H2625 H 0.03198 0.73987 0.66911 0.0
H2626 H 0.05798 0.75812 0.66075 0.0
H2627 H 0.08208 0.73822 0.62782 0.0
H2628 H 0.15212 0.79144 0.59451 0.0
H2629 H 0.13294 0.77348 0.61822 0.0
H2630 H 0.10792 0.78968 0.65781 0.0
C2631 C 0.05482 0.74636 0.66199 0.0
C2632 C 0.08775 0.74928 0.63488 0.0
C2633 C 0.03984 0.73584 0.66664 0.0
C2634 C 0.14456 0.79448 0.60201 0.0
C2635 C 0.13344 0.78414 0.61532 0.0
C2636 C 0.10246 0.77845 0.65125 0.0
C2637 C 0.06536 0.74168 0.65801 0.0
C2638 C 0.08093 0.75284 0.65107 0.0
C2639 C 0.12253 0.78714 0.62375 0.0
C2640 C 0.10895 0.77506 0.63446 0.0
H2641 H 0.04221 0.70382 0.66471 0.0
H2642 H 0.06845 0.72222 0.65672 0.0
H2643 H 0.08385 0.77054 0.67218 0.0
H2644 H 0.13487 0.82183 0.60248 0.0
H2645 H 0.1155 0.8039 0.62584 0.0
C2646 C 1.00224 0.63379 0.68406 0.0
C2647 C 0.98735 0.63009 0.67953 0.0
C2648 C 1.0056 0.6225 0.68925 0.0
C2649 C 0.98725 0.584 0.71085 0.0
H2650 H 0.02495 0.58592 0.69668 0.0
C2651 C 1.00189 0.54094 0.74456 0.0
C2652 C 1.01628 0.54754 0.75355 0.0
C2653 C 0.99823 0.54926 0.73092 0.0
C2654 C 1.01436 0.58521 0.70078 0.0
H2655 H 0.96445 0.61155 0.67592 0.0
H2656 H 0.97035 0.59194 0.68463 0.0
H2657 H 0.01886 0.60417 0.68182 0.0
H2658 H 0.03843 0.56747 0.75416 0.0
H2659 H 0.03212 0.58194 0.73051 0.0
H2660 H 0.98291 0.56538 0.73026 0.0
C2661 C 0.97939 0.60356 0.68461 0.0
C2662 C 1.0109 0.59571 0.6923 0.0
C2663 C 0.97603 0.61482 0.6795 0.0
C2664 C 0.02725 0.56212 0.74744 0.0
C2665 C 0.02363 0.5704 0.7338 0.0
C2666 C 0.99071 0.57353 0.71931 0.0
C2667 C 0.99416 0.60726 0.68997 0.0
C2668 C 0.9974 0.59539 0.69751 0.0
C2669 C 1.00891 0.56429 0.72598 0.0
C2670 C 1.00443 0.57415 0.71469 0.0
H2671 H 1.01122 0.64544 0.68426 0.0
H2672 H 0.01708 0.6258 0.69347 0.0
H2673 H 0.97686 0.58352 0.71549 0.0
H2674 H 0.9932 0.52975 0.74911 0.0
H2675 H 0.98685 0.54413 0.72492 0.0
C2676 C 0.39534 0.37413 0.68292 0.0
C2677 C 0.39927 0.3631 0.67845 0.0
C2678 C 0.40645 0.38878 0.68843 0.0
C2679 C 0.44472 0.40912 0.71087 0.0
H2680 H 0.44262 0.44477 0.69643 0.0
C2681 C 0.48733 0.46681 0.74489 0.0
C2682 C 0.48061 0.47454 0.75374 0.0
C2683 C 0.47914 0.45484 0.73119 0.0
C2684 C 0.44337 0.43492 0.70061 0.0
H2685 H 0.41803 0.35902 0.67531 0.0
H2686 H 0.43732 0.3845 0.68456 0.0
H2687 H 0.4246 0.42043 0.68138 0.0
H2688 H 0.46061 0.47667 0.75402 0.0
H2689 H 0.44635 0.4559 0.73026 0.0
H2690 H 0.46315 0.42343 0.73053 0.0
C2691 C 0.42566 0.38181 0.68426 0.0
C2692 C 0.43301 0.42096 0.69203 0.0
C2693 C 0.41458 0.36719 0.67884 0.0
C2694 C 0.46604 0.47087 0.74741 0.0
C2695 C 0.45789 0.45899 0.73372 0.0
C2696 C 0.45506 0.42305 0.71944 0.0
C2697 C 0.42173 0.39273 0.68953 0.0
C2698 C 0.4334 0.40783 0.6973 0.0
C2699 C 0.46411 0.45043 0.72604 0.0
C2700 C 0.45437 0.4361 0.71471 0.0
H2701 H 0.38365 0.37135 0.6828 0.0
H2702 H 0.40298 0.39685 0.69257 0.0
H2703 H 0.44524 0.39924 0.71558 0.0
H2704 H 0.49851 0.46935 0.7496 0.0
H2705 H 0.48435 0.44864 0.7253 0.0
C2706 C 0.65906 0.0473 0.68335 0.0
C2707 C 0.66364 0.03644 0.68221 0.0
C2708 C 0.64412 0.04308 0.68789 0.0
C2709 C 0.61055 0.01303 0.71393 0.0
H2710 H 0.59135 0.03444 0.69172 0.0
C2711 C 0.55373 1.00184 0.74618 0.0
C2712 C 0.55347 0.01495 0.75178 0.0
C2713 C 0.56487 1.00267 0.73283 0.0
C2714 C 0.59654 0.02834 0.69807 0.0
H2715 H 0.65589 0.01254 0.68427 0.0
H2716 H 0.62972 1.00514 0.69204 0.0
H2717 H 0.61545 0.03917 0.67765 0.0
H2718 H 0.5641 0.03903 0.74733 0.0
H2719 H 0.58348 0.04057 0.72388 0.0
H2720 H 0.59193 1.00254 0.73475 0.0
C2721 C 0.63777 0.01696 0.68967 0.0
C2722 C 0.61039 0.03108 0.69004 0.0
C2723 C 0.65276 0.02119 0.6851 0.0
C2724 C 0.56387 0.02873 0.74278 0.0
C2725 C 0.57501 0.02958 0.72942 0.0
C2726 C 0.59672 1.01028 0.72194 0.0
C2727 C 0.6333 0.02789 0.69142 0.0
C2728 C 0.61774 0.0237 0.69818 0.0
C2729 C 0.57604 0.01666 0.72498 0.0
C2730 C 0.58967 0.01813 0.71442 0.0
H2731 H 0.66712 0.05915 0.68123 0.0
H2732 H 0.6412 0.05185 0.68938 0.0
H2733 H 0.61594 1.00729 0.72081 0.0
H2734 H 0.546 0.99115 0.7533 0.0
H2735 H 0.56519 0.99247 0.7295 0.0
loop_
_geom_bond_atom_site_label_1
_geom_bond_atom_site_label_2
_geom_bond_distance
_geom_bond_site_symmetry_2
_ccdc_geom_bond_type
O0 Cd1 2.223 . S
O0 C8 1.315 . S
Cd1 O0 2.223 . S
Cd1 O4 2.297 . S
Cd1 O5 2.439 . S
Cd1 O11 2.240 1_554 S
Cd2 O3 2.240 . S
Cd2 O10 2.223 1_554 S
Cd2 O12 2.297 1_554 S
Cd2 O13 2.447 . S
O3 Cd2 2.240 . S
O3 C8 1.279 1_655 S
O4 Cd1 2.297 . S
O4 C6 1.247 . S
O5 Cd1 2.439 . S
O5 C6 1.208 . S
C6 O4 1.247 . S
C6 O5 1.208 . S
C7 O12 1.247 . S
C7 O13 1.198 1_556 S
C8 O0 1.315 . S
C8 O3 1.279 1_455 S
C9 O10 1.315 . S
C9 O11 1.279 1_655 S
O10 Cd2 2.223 1_556 S
O10 C9 1.315 . S
O11 Cd1 2.240 1_556 S
O11 C9 1.279 1_455 S
O12 Cd2 2.297 1_556 S
O12 C7 1.247 . S
O13 Cd2 2.447 . S
O13 C7 1.198 1_554 S
O14 Cd15 2.223 . S
O14 C22 1.315 . S
Cd15 O14 2.223 . S
Cd15 O18 2.297 . S
Cd15 O19 2.439 . S
Cd15 O25 2.240 1_554 S
Cd16 O17 2.240 . S
Cd16 O24 2.223 1_554 S
Cd16 O26 2.297 1_554 S
Cd16 O27 2.448 . S
O17 Cd16 2.240 . S
O17 C22 1.279 . S
O18 Cd15 2.297 . S
O18 C20 1.247 . S
O19 Cd15 2.439 . S
O19 C20 1.208 . S
C20 O18 1.247 . S
C20 O19 1.208 . S
C21 O26 1.247 . S
C21 O27 1.197 1_556 S
C22 O14 1.315 . S
C22 O17 1.279 . S
C23 O24 1.315 . S
C23 O25 1.279 . S
O24 Cd16 2.223 1_556 S
O24 C23 1.315 . S
O25 Cd15 2.240 1_556 S
O25 C23 1.279 . S
O26 Cd16 2.297 1_556 S
O26 C21 1.247 . S
O27 Cd16 2.448 . S
O27 C21 1.197 1_554 S
O28 Cd29 2.223 1_556 S
O28 C36 1.315 . S
Cd29 O28 2.223 1_554 S
Cd29 O32 2.297 1_554 S
Cd29 O33 2.447 . S
Cd29 O39 2.240 . S
Cd30 O31 2.240 1_554 S
Cd30 O38 2.223 . S
Cd30 O40 2.297 . S
Cd30 O41 2.439 . S
O31 Cd30 2.240 1_556 S
O31 C36 1.279 1_565 S
O32 Cd29 2.297 1_556 S
O32 C34 1.247 . S
O33 Cd29 2.447 . S
O33 C34 1.199 1_554 S
C34 O32 1.247 . S
C34 O33 1.199 1_556 S
C35 O40 1.247 . S
C35 O41 1.208 . S
C36 O28 1.315 . S
C36 O31 1.279 1_545 S
C37 O38 1.315 . S
C37 O39 1.279 1_565 S
O38 Cd30 2.223 . S
O38 C37 1.315 . S
O39 Cd29 2.240 . S
O39 C37 1.279 1_545 S
O40 Cd30 2.297 . S
O40 C35 1.247 . S
O41 Cd30 2.439 . S
O41 C35 1.208 . S
O42 Cd43 2.223 1_556 S
O42 C50 1.315 . S
Cd43 O42 2.223 1_554 S
Cd43 O46 2.297 1_554 S
Cd43 O47 2.444 . S
Cd43 O53 2.240 . S
Cd44 O45 2.240 1_554 S
Cd44 O52 2.223 . S
Cd44 O54 2.297 . S
Cd44 O55 2.439 . S
O45 Cd44 2.240 1_556 S
O45 C50 1.279 1_455 S
O46 Cd43 2.297 1_556 S
O46 C48 1.247 . S
O47 Cd43 2.444 . S
O47 C48 1.202 1_554 S
C48 O46 1.247 . S
C48 O47 1.202 1_556 S
C49 O54 1.247 . S
C49 O55 1.208 . S
C50 O42 1.315 . S
C50 O45 1.279 1_655 S
C51 O52 1.315 . S
C51 O53 1.279 1_455 S
O52 Cd44 2.223 . S
O52 C51 1.315 . S
O53 Cd43 2.240 . S
O53 C51 1.279 1_655 S
O54 Cd44 2.297 . S
O54 C49 1.247 . S
O55 Cd44 2.439 . S
O55 C49 1.208 . S
O56 Cd57 2.223 1_556 S
O56 C64 1.315 . S
Cd57 O56 2.223 1_554 S
Cd57 O60 2.297 1_554 S
Cd57 O61 2.437 . S
Cd57 O67 2.240 . S
Cd58 O59 2.240 1_554 S
Cd58 O66 2.223 . S
Cd58 O68 2.297 . S
Cd58 O69 2.439 . S
O59 Cd58 2.240 1_556 S
O59 C64 1.279 . S
O60 Cd57 2.297 1_556 S
O60 C62 1.247 . S
O61 Cd57 2.437 . S
O61 C62 1.211 1_554 S
C62 O60 1.247 . S
C62 O61 1.211 1_556 S
C63 O68 1.247 . S
C63 O69 1.208 . S
C64 O56 1.315 . S
C64 O59 1.279 . S
C65 O66 1.315 . S
C65 O67 1.279 . S
O66 Cd58 2.223 . S
O66 C65 1.315 . S
O67 Cd57 2.240 . S
O67 C65 1.279 . S
O68 Cd58 2.297 . S
O68 C63 1.247 . S
O69 Cd58 2.439 . S
O69 C63 1.208 . S
O70 Cd71 2.223 . S
O70 C78 1.315 . S
Cd71 O70 2.223 . S
Cd71 O74 2.297 . S
Cd71 O75 2.439 . S
Cd71 O81 2.240 1_554 S
Cd72 O73 2.240 . S
Cd72 O80 2.223 1_554 S
Cd72 O82 2.297 1_554 S
Cd72 O83 2.450 . S
O73 Cd72 2.240 . S
O73 C78 1.279 1_545 S
O74 Cd71 2.297 . S
O74 C76 1.247 . S
O75 Cd71 2.439 . S
O75 C76 1.208 . S
C76 O74 1.247 . S
C76 O75 1.208 . S
C77 O82 1.247 . S
C77 O83 1.195 1_556 S
C78 O70 1.315 . S
C78 O73 1.279 1_565 S
C79 O80 1.315 . S
C79 O81 1.279 1_545 S
O80 Cd72 2.223 1_556 S
O80 C79 1.315 . S
O81 Cd71 2.240 1_556 S
O81 C79 1.279 1_565 S
O82 Cd72 2.297 1_556 S
O82 C77 1.247 . S
O83 Cd72 2.450 . S
O83 C77 1.195 1_554 S
O84 Cd85 2.223 . S
O84 C92 1.315 . S
Cd85 O84 2.223 . S
Cd85 O88 2.297 . S
Cd85 O89 2.439 . S
Cd85 O95 2.240 . S
Cd86 O87 2.240 . S
Cd86 O94 2.223 . S
Cd86 O96 2.297 . S
Cd86 O97 2.439 . S
O87 Cd86 2.240 . S
O87 C92 1.279 . S
O88 Cd85 2.297 . S
O88 C90 1.247 . S
O89 Cd85 2.439 . S
O89 C90 1.208 . S
C90 O88 1.247 . S
C90 O89 1.208 . S
C91 O96 1.247 . S
C91 O97 1.208 . S
C92 O84 1.315 . S
C92 O87 1.279 . S
C93 O94 1.315 . S
C93 O95 1.279 . S
O94 Cd86 2.223 . S
O94 C93 1.315 . S
O95 Cd85 2.240 . S
O95 C93 1.279 . S
O96 Cd86 2.297 . S
O96 C91 1.247 . S
O97 Cd86 2.439 . S
O97 C91 1.208 . S
O98 Cd99 2.223 . S
O98 C106 1.315 . S
Cd99 O98 2.223 . S
Cd99 O102 2.297 1_565 S
Cd99 O103 2.439 1_565 S
Cd99 O109 2.240 . S
Cd100 O101 2.240 . S
Cd100 O108 2.223 . S
Cd100 O110 2.297 . S
Cd100 O111 2.439 . S
O101 Cd100 2.240 . S
O101 C106 1.279 . S
O102 Cd99 2.297 1_545 S
O102 C104 1.247 . S
O103 Cd99 2.439 1_545 S
O103 C104 1.208 . S
C104 O102 1.247 . S
C104 O103 1.208 . S
C105 O110 1.247 . S
C105 O111 1.208 . S
C106 O98 1.315 . S
C106 O101 1.279 . S
C107 O108 1.315 . S
C107 O109 1.279 . S
O108 Cd100 2.223 . S
O108 C107 1.315 . S
O109 Cd99 2.240 . S
O109 C107 1.279 . S
O110 Cd100 2.297 . S
O110 C105 1.247 . S
O111 Cd100 2.439 . S
O111 C105 1.208 . S
O112 Cd113 2.223 . S
O112 C120 1.315 . S
Cd113 O112 2.223 . S
Cd113 O116 2.297 . S
Cd113 O117 2.439 . S
Cd113 O123 2.240 . S
Cd114 O115 2.240 . S
Cd114 O122 2.223 . S
Cd114 O124 2.297 1_455 S
Cd114 O125 2.439 1_455 S
O115 Cd114 2.240 . S
O115 C120 1.279 . S
O116 Cd113 2.297 . S
O116 C118 1.247 . S
O117 Cd113 2.439 . S
O117 C118 1.208 . S
C118 O116 1.247 . S
C118 O117 1.208 . S
C119 O124 1.247 . S
C119 O125 1.208 . S
C120 O112 1.315 . S
C120 O115 1.279 . S
C121 O122 1.315 . S
C121 O123 1.279 . S
O122 Cd114 2.223 . S
O122 C121 1.315 . S
O123 Cd113 2.240 . S
O123 C121 1.279 . S
O124 Cd114 2.297 1_655 S
O124 C119 1.247 . S
O125 Cd114 2.439 1_655 S
O125 C119 1.208 . S
O126 Cd127 2.223 . S
O126 C134 1.315 . S
Cd127 O126 2.223 . S
Cd127 O130 2.297 . S
Cd127 O131 2.439 . S
Cd127 O137 2.240 . S
Cd128 O129 2.240 . S
Cd128 O136 2.223 . S
Cd128 O138 2.297 1_565 S
Cd128 O139 2.439 1_565 S
O129 Cd128 2.240 . S
O129 C134 1.279 . S
O130 Cd127 2.297 . S
O130 C132 1.247 . S
O131 Cd127 2.439 . S
O131 C132 1.208 . S
C132 O130 1.247 . S
C132 O131 1.208 . S
C133 O138 1.247 . S
C133 O139 1.208 . S
C134 O126 1.315 . S
C134 O129 1.279 . S
C135 O136 1.315 . S
C135 O137 1.279 . S
O136 Cd128 2.223 . S
O136 C135 1.315 . S
O137 Cd127 2.240 . S
O137 C135 1.279 . S
O138 Cd128 2.297 1_545 S
O138 C133 1.247 . S
O139 Cd128 2.439 1_545 S
O139 C133 1.208 . S
O140 Cd141 2.223 . S
O140 C148 1.315 . S
Cd141 O140 2.223 . S
Cd141 O144 2.297 . S
Cd141 O145 2.439 . S
Cd141 O151 2.240 . S
Cd142 O143 2.240 . S
Cd142 O150 2.223 . S
Cd142 O152 2.297 1_455 S
Cd142 O153 2.439 1_455 S
O143 Cd142 2.240 . S
O143 C148 1.279 . S
O144 Cd141 2.297 . S
O144 C146 1.247 . S
O145 Cd141 2.439 . S
O145 C146 1.208 . S
C146 O144 1.247 . S
C146 O145 1.208 . S
C147 O152 1.247 . S
C147 O153 1.208 . S
C148 O140 1.315 . S
C148 O143 1.279 . S
C149 O150 1.315 . S
C149 O151 1.279 . S
O150 Cd142 2.223 . S
O150 C149 1.315 . S
O151 Cd141 2.240 . S
O151 C149 1.279 . S
O152 Cd142 2.297 1_655 S
O152 C147 1.247 . S
O153 Cd142 2.439 1_655 S
O153 C147 1.208 . S
O154 Cd155 2.223 . S
O154 C162 1.315 . S
Cd155 O154 2.223 . S
Cd155 O158 2.297 . S
Cd155 O159 2.439 . S
Cd155 O165 2.240 . S
Cd156 O157 2.240 . S
Cd156 O164 2.223 . S
Cd156 O166 2.297 . S
Cd156 O167 2.439 . S
O157 Cd156 2.240 . S
O157 C162 1.279 . S
O158 Cd155 2.297 . S
O158 C160 1.247 . S
O159 Cd155 2.439 . S
O159 C160 1.208 . S
C160 O158 1.247 . S
C160 O159 1.208 . S
C161 O166 1.247 . S
C161 O167 1.208 . S
C162 O154 1.315 . S
C162 O157 1.279 . S
C163 O164 1.315 . S
C163 O165 1.279 . S
O164 Cd156 2.223 . S
O164 C163 1.315 . S
O165 Cd155 2.240 . S
O165 C163 1.279 . S
O166 Cd156 2.297 . S
O166 C161 1.247 . S
O167 Cd156 2.439 . S
O167 C161 1.208 . S
O168 Cd169 2.223 . S
O168 C176 1.315 . S
Cd169 O168 2.223 . S
Cd169 O172 2.297 . S
Cd169 O173 2.439 . S
Cd169 O179 2.240 . S
Cd170 O171 2.240 . S
Cd170 O178 2.223 . S
Cd170 O180 2.297 1_545 S
Cd170 O181 2.439 1_545 S
O171 Cd170 2.240 . S
O171 C176 1.279 . S
O172 Cd169 2.297 . S
O172 C174 1.247 . S
O173 Cd169 2.439 . S
O173 C174 1.208 . S
C174 O172 1.247 . S
C174 O173 1.208 . S
C175 O180 1.247 . S
C175 O181 1.208 . S
C176 O168 1.315 . S
C176 O171 1.279 . S
C177 O178 1.315 . S
C177 O179 1.279 . S
O178 Cd170 2.223 . S
O178 C177 1.315 . S
O179 Cd169 2.240 . S
O179 C177 1.279 . S
O180 Cd170 2.297 1_565 S
O180 C175 1.247 . S
O181 Cd170 2.439 1_565 S
O181 C175 1.208 . S
O182 Cd183 2.223 . S
O182 C190 1.315 . S
Cd183 O182 2.223 . S
Cd183 O186 2.297 . S
Cd183 O187 2.439 . S
Cd183 O193 2.240 . S
Cd184 O185 2.240 . S
Cd184 O192 2.223 . S
Cd184 O194 2.297 1_655 S
Cd184 O195 2.439 1_655 S
O185 Cd184 2.240 . S
O185 C190 1.279 . S
O186 Cd183 2.297 . S
O186 C188 1.247 . S
O187 Cd183 2.439 . S
O187 C188 1.208 . S
C188 O186 1.247 . S
C188 O187 1.208 . S
C189 O194 1.247 . S
C189 O195 1.208 . S
C190 O182 1.315 . S
C190 O185 1.279 . S
C191 O192 1.315 . S
C191 O193 1.279 . S
O192 Cd184 2.223 . S
O192 C191 1.315 . S
O193 Cd183 2.240 . S
O193 C191 1.279 . S
O194 Cd184 2.297 1_455 S
O194 C189 1.247 . S
O195 Cd184 2.439 1_455 S
O195 C189 1.208 . S
O196 Cd197 2.223 . S
O196 C204 1.315 . S
Cd197 O196 2.223 . S
Cd197 O200 2.297 . S
Cd197 O201 2.439 . S
Cd197 O207 2.240 . S
Cd198 O199 2.240 . S
Cd198 O206 2.223 . S
Cd198 O208 2.297 . S
Cd198 O209 2.439 . S
O199 Cd198 2.240 . S
O199 C204 1.279 . S
O200 Cd197 2.297 . S
O200 C202 1.247 . S
O201 Cd197 2.439 . S
O201 C202 1.208 . S
C202 O200 1.247 . S
C202 O201 1.208 . S
C203 O208 1.247 . S
C203 O209 1.208 . S
C204 O196 1.315 . S
C204 O199 1.279 . S
C205 O206 1.315 . S
C205 O207 1.279 . S
O206 Cd198 2.223 . S
O206 C205 1.315 . S
O207 Cd197 2.240 . S
O207 C205 1.279 . S
O208 Cd198 2.297 . S
O208 C203 1.247 . S
O209 Cd198 2.439 . S
O209 C203 1.208 . S
O210 Cd211 2.223 . S
O210 C218 1.315 . S
Cd211 O210 2.223 . S
Cd211 O214 2.297 . S
Cd211 O215 2.439 . S
Cd211 O221 2.240 . S
Cd212 O213 2.240 . S
Cd212 O220 2.223 . S
Cd212 O222 2.297 . S
Cd212 O223 2.439 . S
O213 Cd212 2.240 . S
O213 C218 1.279 . S
O214 Cd211 2.297 . S
O214 C216 1.247 . S
O215 Cd211 2.439 . S
O215 C216 1.208 . S
C216 O214 1.247 . S
C216 O215 1.208 . S
C217 O222 1.247 . S
C217 O223 1.208 . S
C218 O210 1.315 . S
C218 O213 1.279 . S
C219 O220 1.315 . S
C219 O221 1.279 . S
O220 Cd212 2.223 . S
O220 C219 1.315 . S
O221 Cd211 2.240 . S
O221 C219 1.279 . S
O222 Cd212 2.297 . S
O222 C217 1.247 . S
O223 Cd212 2.439 . S
O223 C217 1.208 . S
O224 Cd225 2.223 . S
O224 C232 1.315 . S
Cd225 O224 2.223 . S
Cd225 O228 2.297 1_545 S
Cd225 O229 2.439 1_545 S
Cd225 O235 2.240 . S
Cd226 O227 2.240 . S
Cd226 O234 2.223 . S
Cd226 O236 2.297 . S
Cd226 O237 2.439 . S
O227 Cd226 2.240 . S
O227 C232 1.279 . S
O228 Cd225 2.297 1_565 S
O228 C230 1.247 . S
O229 Cd225 2.439 1_565 S
O229 C230 1.208 . S
C230 O228 1.247 . S
C230 O229 1.208 . S
C231 O236 1.247 . S
C231 O237 1.208 . S
C232 O224 1.315 . S
C232 O227 1.279 . S
C233 O234 1.315 . S
C233 O235 1.279 . S
O234 Cd226 2.223 . S
O234 C233 1.315 . S
O235 Cd225 2.240 . S
O235 C233 1.279 . S
O236 Cd226 2.297 . S
O236 C231 1.247 . S
O237 Cd226 2.439 . S
O237 C231 1.208 . S
O238 Cd239 2.223 . S
O238 C246 1.315 . S
Cd239 O238 2.223 . S
Cd239 O242 2.297 . S
Cd239 O243 2.439 . S
Cd239 O249 2.240 . S
Cd240 O241 2.240 . S
Cd240 O248 2.223 . S
Cd240 O250 2.297 1_655 S
Cd240 O251 2.439 1_655 S
O241 Cd240 2.240 . S
O241 C246 1.279 . S
O242 Cd239 2.297 . S
O242 C244 1.247 . S
O243 Cd239 2.439 . S
O243 C244 1.208 . S
C244 O242 1.247 . S
C244 O243 1.208 . S
C245 O250 1.247 . S
C245 O251 1.208 . S
C246 O238 1.315 . S
C246 O241 1.279 . S
C247 O248 1.315 . S
C247 O249 1.279 . S
O248 Cd240 2.223 . S
O248 C247 1.315 . S
O249 Cd239 2.240 . S
O249 C247 1.279 . S
O250 Cd240 2.297 1_455 S
O250 C245 1.247 . S
O251 Cd240 2.439 1_455 S
O251 C245 1.208 . S
H252 C258 0.930 . S
H253 C261 0.931 . S
H254 C263 0.931 . S
H255 C265 0.930 . S
H256 C267 0.930 . S
H257 C269 0.931 . S
C258 H252 0.930 . S
C258 C259 1.380 . S
C258 C260 1.394 . S
C259 C258 1.380 . S
C259 C263 1.382 . S
C260 C258 1.394 . S
C260 C261 1.400 . S
C261 H253 0.931 . S
C261 C260 1.400 . S
C261 C262 1.375 . S
C262 C261 1.375 . S
C262 C263 1.415 . S
C262 C264 1.501 . S
C263 H254 0.931 . S
C263 C259 1.382 . S
C263 C262 1.415 . S
C264 C262 1.501 . S
C264 C265 1.384 . S
C264 C269 1.408 . S
C265 H255 0.930 . S
C265 C264 1.384 . S
C265 C266 1.389 . S
C266 C265 1.389 . S
C266 C267 1.405 . S
C267 H256 0.930 . S
C267 C266 1.405 . S
C267 C268 1.364 . S
C268 C267 1.364 . S
C268 C269 1.400 . S
C269 H257 0.931 . S
C269 C264 1.408 . S
C269 C268 1.400 . S
H270 C276 0.930 . S
H271 C279 0.931 . S
H272 C281 0.931 . S
H273 C283 0.930 . S
H274 C285 0.930 . S
H275 C287 0.931 . S
C276 H270 0.930 . S
C276 C277 1.380 . S
C276 C278 1.394 . S
C277 C276 1.380 . S
C277 C281 1.382 . S
C278 C276 1.394 . S
C278 C279 1.400 . S
C279 H271 0.931 . S
C279 C278 1.400 . S
C279 C280 1.375 . S
C280 C279 1.375 . S
C280 C281 1.415 . S
C280 C282 1.501 . S
C281 H272 0.931 . S
C281 C277 1.382 . S
C281 C280 1.415 . S
C282 C280 1.501 . S
C282 C283 1.384 . S
C282 C287 1.408 . S
C283 H273 0.930 . S
C283 C282 1.384 . S
C283 C284 1.389 . S
C284 C283 1.389 . S
C284 C285 1.405 . S
C285 H274 0.930 . S
C285 C284 1.405 . S
C285 C286 1.364 . S
C286 C285 1.364 . S
C286 C287 1.400 . S
C287 H275 0.931 . S
C287 C282 1.408 . S
C287 C286 1.400 . S
H288 C294 0.930 . S
H289 C297 0.931 . S
H290 C299 0.931 . S
H291 C301 0.930 . S
H292 C303 0.930 . S
H293 C305 0.931 . S
C294 H288 0.930 . S
C294 C295 1.380 . S
C294 C296 1.394 . S
C295 C294 1.380 . S
C295 C299 1.382 . S
C296 C294 1.394 . S
C296 C297 1.400 . S
C297 H289 0.931 . S
C297 C296 1.400 . S
C297 C298 1.375 . S
C298 C297 1.375 . S
C298 C299 1.415 . S
C298 C300 1.501 . S
C299 H290 0.931 . S
C299 C295 1.382 . S
C299 C298 1.415 . S
C300 C298 1.501 . S
C300 C301 1.384 . S
C300 C305 1.408 . S
C301 H291 0.930 . S
C301 C300 1.384 . S
C301 C302 1.389 . S
C302 C301 1.389 . S
C302 C303 1.405 . S
C303 H292 0.930 . S
C303 C302 1.405 . S
C303 C304 1.364 . S
C304 C303 1.364 . S
C304 C305 1.400 . S
C305 H293 0.931 . S
C305 C300 1.408 . S
C305 C304 1.400 . S
H306 C312 0.930 . S
H307 C315 0.931 . S
H308 C317 0.931 . S
H309 C319 0.930 . S
H310 C321 0.930 . S
H311 C323 0.931 . S
C312 H306 0.930 . S
C312 C313 1.380 . S
C312 C314 1.394 . S
C313 C312 1.380 . S
C313 C317 1.382 . S
C314 C312 1.394 . S
C314 C315 1.400 . S
C315 H307 0.931 . S
C315 C314 1.400 . S
C315 C316 1.375 . S
C316 C315 1.375 . S
C316 C317 1.415 . S
C316 C318 1.501 . S
C317 H308 0.931 . S
C317 C313 1.382 . S
C317 C316 1.415 . S
C318 C316 1.501 . S
C318 C319 1.384 . S
C318 C323 1.408 . S
C319 H309 0.930 . S
C319 C318 1.384 . S
C319 C320 1.389 . S
C320 C319 1.389 . S
C320 C321 1.405 . S
C321 H310 0.930 . S
C321 C320 1.405 . S
C321 C322 1.364 . S
C322 C321 1.364 . S
C322 C323 1.400 . S
C323 H311 0.931 . S
C323 C318 1.408 . S
C323 C322 1.400 . S
H324 C330 0.930 . S
H325 C333 0.931 . S
H326 C335 0.931 . S
H327 C337 0.930 . S
H328 C339 0.930 . S
H329 C341 0.931 . S
C330 H324 0.930 . S
C330 C331 1.380 . S
C330 C332 1.394 . S
C331 C330 1.380 . S
C331 C335 1.382 . S
C332 C330 1.394 . S
C332 C333 1.400 . S
C333 H325 0.931 . S
C333 C332 1.400 . S
C333 C334 1.375 . S
C334 C333 1.375 . S
C334 C335 1.415 . S
C334 C336 1.501 . S
C335 H326 0.931 . S
C335 C331 1.382 . S
C335 C334 1.415 . S
C336 C334 1.501 . S
C336 C337 1.384 . S
C336 C341 1.408 . S
C337 H327 0.930 . S
C337 C336 1.384 . S
C337 C338 1.389 . S
C338 C337 1.389 . S
C338 C339 1.405 . S
C339 H328 0.930 . S
C339 C338 1.405 . S
C339 C340 1.364 . S
C340 C339 1.364 . S
C340 C341 1.400 . S
C341 H329 0.931 . S
C341 C336 1.408 . S
C341 C340 1.400 . S
H342 C348 0.930 . S
H343 C351 0.931 . S
H344 C353 0.931 . S
H345 C355 0.930 . S
H346 C357 0.930 . S
H347 C359 0.931 . S
C348 H342 0.930 . S
C348 C349 1.380 . S
C348 C350 1.394 . S
C349 C348 1.380 . S
C349 C353 1.382 . S
C350 C348 1.394 . S
C350 C351 1.400 . S
C351 H343 0.931 . S
C351 C350 1.400 . S
C351 C352 1.375 . S
C352 C351 1.375 . S
C352 C353 1.415 . S
C352 C354 1.501 . S
C353 H344 0.931 . S
C353 C349 1.382 . S
C353 C352 1.415 . S
C354 C352 1.501 . S
C354 C355 1.384 . S
C354 C359 1.408 . S
C355 H345 0.930 . S
C355 C354 1.384 . S
C355 C356 1.389 . S
C356 C355 1.389 . S
C356 C357 1.405 . S
C357 H346 0.930 . S
C357 C356 1.405 . S
C357 C358 1.364 . S
C358 C357 1.364 . S
C358 C359 1.400 . S
C359 H347 0.931 . S
C359 C354 1.408 . S
C359 C358 1.400 . S
H360 C366 0.930 . S
H361 C369 0.931 . S
H362 C371 0.931 . S
H363 C373 0.930 . S
H364 C375 0.930 . S
H365 C377 0.931 . S
C366 H360 0.930 . S
C366 C367 1.380 . S
C366 C368 1.394 . S
C367 C366 1.380 . S
C367 C371 1.382 . S
C368 C366 1.394 . S
C368 C369 1.400 . S
C369 H361 0.931 . S
C369 C368 1.400 . S
C369 C370 1.375 . S
C370 C369 1.375 . S
C370 C371 1.415 . S
C370 C372 1.501 . S
C371 H362 0.931 . S
C371 C367 1.382 . S
C371 C370 1.415 . S
C372 C370 1.501 . S
C372 C373 1.384 . S
C372 C377 1.408 . S
C373 H363 0.930 . S
C373 C372 1.384 . S
C373 C374 1.389 . S
C374 C373 1.389 . S
C374 C375 1.405 . S
C375 H364 0.930 . S
C375 C374 1.405 . S
C375 C376 1.364 . S
C376 C375 1.364 . S
C376 C377 1.400 . S
C377 H365 0.931 . S
C377 C372 1.408 . S
C377 C376 1.400 . S
H378 C384 0.930 . S
H379 C387 0.931 . S
H380 C389 0.931 . S
H381 C391 0.930 . S
H382 C393 0.930 . S
H383 C395 0.931 . S
C384 H378 0.930 . S
C384 C385 1.380 . S
C384 C386 1.394 . S
C385 C384 1.380 . S
C385 C389 1.382 . S
C386 C384 1.394 . S
C386 C387 1.400 . S
C387 H379 0.931 . S
C387 C386 1.400 . S
C387 C388 1.375 . S
C388 C387 1.375 . S
C388 C389 1.415 . S
C388 C390 1.501 . S
C389 H380 0.931 . S
C389 C385 1.382 . S
C389 C388 1.415 . S
C390 C388 1.501 . S
C390 C391 1.384 . S
C390 C395 1.408 . S
C391 H381 0.930 . S
C391 C390 1.384 . S
C391 C392 1.389 . S
C392 C391 1.389 . S
C392 C393 1.405 . S
C393 H382 0.930 . S
C393 C392 1.405 . S
C393 C394 1.364 . S
C394 C393 1.364 . S
C394 C395 1.400 . S
C395 H383 0.931 . S
C395 C390 1.408 . S
C395 C394 1.400 . S
H396 C402 0.930 . S
H397 C405 0.931 . S
H398 C407 0.931 . S
H399 C409 0.930 . S
H400 C411 0.930 . S
H401 C413 0.931 . S
C402 H396 0.930 . S
C402 C403 1.380 . S
C402 C404 1.394 . S
C403 C402 1.380 . S
C403 C407 1.382 . S
C404 C402 1.394 . S
C404 C405 1.400 . S
C405 H397 0.931 . S
C405 C404 1.400 . S
C405 C406 1.375 . S
C406 C405 1.375 . S
C406 C407 1.415 . S
C406 C408 1.501 . S
C407 H398 0.931 . S
C407 C403 1.382 . S
C407 C406 1.415 . S
C408 C406 1.501 . S
C408 C409 1.384 . S
C408 C413 1.408 . S
C409 H399 0.930 . S
C409 C408 1.384 . S
C409 C410 1.389 . S
C410 C409 1.389 . S
C410 C411 1.405 . S
C411 H400 0.930 . S
C411 C410 1.405 . S
C411 C412 1.364 . S
C412 C411 1.364 . S
C412 C413 1.400 . S
C413 H401 0.931 . S
C413 C408 1.408 . S
C413 C412 1.400 . S
H414 C420 0.922 . S
H415 C423 0.931 . S
H416 C425 0.931 . S
H417 C427 0.930 . S
H418 C429 0.930 . S
H419 C431 0.940 1_655 S
C420 H414 0.922 . S
C420 C421 1.387 . S
C420 C422 1.396 1_655 S
C421 C420 1.387 . S
C421 C425 1.382 . S
C422 C420 1.396 1_455 S
C422 C423 1.400 . S
C423 H415 0.931 . S
C423 C422 1.400 . S
C423 C424 1.375 . S
C424 C423 1.375 . S
C424 C425 1.415 1_455 S
C424 C426 1.501 . S
C425 H416 0.931 . S
C425 C421 1.382 . S
C425 C424 1.415 1_655 S
C426 C424 1.501 . S
C426 C427 1.384 . S
C426 C431 1.417 . S
C427 H417 0.930 . S
C427 C426 1.384 . S
C427 C428 1.389 . S
C428 C427 1.389 . S
C428 C429 1.405 . S
C429 H418 0.930 . S
C429 C428 1.405 . S
C429 C430 1.361 . S
C430 C429 1.361 . S
C430 C431 1.394 . S
C431 H419 0.940 1_455 S
C431 C426 1.417 . S
C431 C430 1.394 . S
H432 C438 0.930 . S
H433 C441 0.931 . S
H434 C443 0.931 . S
H435 C445 0.930 . S
H436 C447 0.930 . S
H437 C449 0.931 . S
C438 H432 0.930 . S
C438 C439 1.380 . S
C438 C440 1.394 . S
C439 C438 1.380 . S
C439 C443 1.382 . S
C440 C438 1.394 . S
C440 C441 1.400 . S
C441 H433 0.931 . S
C441 C440 1.400 . S
C441 C442 1.375 . S
C442 C441 1.375 . S
C442 C443 1.415 . S
C442 C444 1.501 . S
C443 H434 0.931 . S
C443 C439 1.382 . S
C443 C442 1.415 . S
C444 C442 1.501 . S
C444 C445 1.384 . S
C444 C449 1.408 . S
C445 H435 0.930 . S
C445 C444 1.384 . S
C445 C446 1.389 . S
C446 C445 1.389 . S
C446 C447 1.405 . S
C447 H436 0.930 . S
C447 C446 1.405 . S
C447 C448 1.364 . S
C448 C447 1.364 . S
C448 C449 1.400 . S
C449 H437 0.931 . S
C449 C444 1.408 . S
C449 C448 1.400 . S
H450 C456 0.941 . S
H451 C459 0.931 . S
H452 C461 0.931 . S
H453 C463 0.930 . S
H454 C465 0.930 . S
H455 C467 0.919 1_545 S
C456 H450 0.941 . S
C456 C457 1.377 . S
C456 C458 1.386 1_545 S
C457 C456 1.377 . S
C457 C461 1.382 . S
C458 C456 1.386 1_565 S
C458 C459 1.400 . S
C459 H451 0.931 . S
C459 C458 1.400 . S
C459 C460 1.375 . S
C460 C459 1.375 . S
C460 C461 1.415 1_565 S
C460 C462 1.501 . S
C461 H452 0.931 . S
C461 C457 1.382 . S
C461 C460 1.415 1_545 S
C462 C460 1.501 . S
C462 C463 1.384 . S
C462 C467 1.402 . S
C463 H453 0.930 . S
C463 C462 1.384 . S
C463 C464 1.389 . S
C464 C463 1.389 . S
C464 C465 1.405 . S
C465 H454 0.930 . S
C465 C464 1.405 . S
C465 C466 1.369 . S
C466 C465 1.369 . S
C466 C467 1.407 . S
C467 H455 0.919 1_565 S
C467 C462 1.402 . S
C467 C466 1.407 . S
H468 C474 0.913 . S
H469 C477 0.931 . S
H470 C479 0.927 1_545 S
H471 C481 0.930 . S
H472 C483 0.898 . S
H473 C485 0.931 . S
C474 H468 0.913 . S
C474 C475 1.380 . S
C474 C476 1.416 1_545 S
C475 C474 1.380 . S
C475 C479 1.399 1_545 S
C476 C474 1.416 1_565 S
C476 C477 1.374 . S
C477 H469 0.931 . S
C477 C476 1.374 . S
C477 C478 1.375 . S
C478 C477 1.375 . S
C478 C479 1.416 . S
C478 C480 1.501 . S
C479 H470 0.927 1_565 S
C479 C475 1.399 1_565 S
C479 C478 1.416 . S
C480 C478 1.501 . S
C480 C481 1.384 . S
C480 C485 1.408 1_565 S
C481 H471 0.930 . S
C481 C480 1.384 . S
C481 C482 1.389 . S
C482 C481 1.389 . S
C482 C483 1.433 . S
C483 H472 0.898 . S
C483 C482 1.433 . S
C483 C484 1.374 1_565 S
C484 C483 1.374 1_545 S
C484 C485 1.400 . S
C485 H473 0.931 . S
C485 C480 1.408 1_545 S
C485 C484 1.400 . S
H486 C492 0.953 . S
H487 C495 0.931 . S
H488 C497 0.934 1_655 S
H489 C499 0.930 . S
H490 C501 0.972 . S
H491 C503 0.931 . S
C492 H486 0.953 . S
C492 C493 1.380 . S
C492 C494 1.366 1_655 S
C493 C492 1.380 . S
C493 C497 1.364 1_655 S
C494 C492 1.366 1_455 S
C494 C495 1.436 . S
C495 H487 0.931 . S
C495 C494 1.436 . S
C495 C496 1.375 . S
C496 C495 1.375 . S
C496 C497 1.413 . S
C496 C498 1.501 . S
C497 H488 0.934 1_455 S
C497 C493 1.364 1_455 S
C497 C496 1.413 . S
C498 C496 1.501 . S
C498 C499 1.384 . S
C498 C503 1.408 1_455 S
C499 H489 0.930 . S
C499 C498 1.384 . S
C499 C500 1.389 . S
C500 C499 1.389 . S
C500 C501 1.397 . S
C501 H490 0.972 . S
C501 C500 1.397 . S
C501 C502 1.336 1_455 S
C502 C501 1.336 1_655 S
C502 C503 1.400 . S
C503 H491 0.931 . S
C503 C498 1.408 1_655 S
C503 C502 1.400 . S
H504 C510 0.930 . S
H505 C513 0.931 . S
H506 C515 0.931 . S
H507 C517 0.930 . S
H508 C519 0.930 . S
H509 C521 0.931 . S
C510 H504 0.930 . S
C510 C511 1.380 . S
C510 C512 1.394 . S
C511 C510 1.380 . S
C511 C515 1.382 . S
C512 C510 1.394 . S
C512 C513 1.400 . S
C513 H505 0.931 . S
C513 C512 1.400 . S
C513 C514 1.375 . S
C514 C513 1.375 . S
C514 C515 1.415 . S
C514 C516 1.501 . S
C515 H506 0.931 . S
C515 C511 1.382 . S
C515 C514 1.415 . S
C516 C514 1.501 . S
C516 C517 1.384 . S
C516 C521 1.408 . S
C517 H507 0.930 . S
C517 C516 1.384 . S
C517 C518 1.389 . S
C518 C517 1.389 . S
C518 C519 1.405 . S
C519 H508 0.930 . S
C519 C518 1.405 . S
C519 C520 1.364 . S
C520 C519 1.364 . S
C520 C521 1.400 . S
C521 H509 0.931 . S
C521 C516 1.408 . S
C521 C520 1.400 . S
H522 C528 0.930 . S
H523 C531 0.931 . S
H524 C533 0.931 . S
H525 C535 0.930 . S
H526 C537 0.930 . S
H527 C539 0.931 . S
C528 H522 0.930 . S
C528 C529 1.380 . S
C528 C530 1.394 . S
C529 C528 1.380 . S
C529 C533 1.382 . S
C530 C528 1.394 . S
C530 C531 1.400 . S
C531 H523 0.931 . S
C531 C530 1.400 . S
C531 C532 1.375 . S
C532 C531 1.375 . S
C532 C533 1.415 . S
C532 C534 1.501 . S
C533 H524 0.931 . S
C533 C529 1.382 . S
C533 C532 1.415 . S
C534 C532 1.501 . S
C534 C535 1.384 . S
C534 C539 1.408 . S
C535 H525 0.930 . S
C535 C534 1.384 . S
C535 C536 1.389 . S
C536 C535 1.389 . S
C536 C537 1.405 . S
C537 H526 0.930 . S
C537 C536 1.405 . S
C537 C538 1.364 . S
C538 C537 1.364 . S
C538 C539 1.400 . S
C539 H527 0.931 . S
C539 C534 1.408 . S
C539 C538 1.400 . S
H540 C546 0.930 . S
H541 C549 0.931 . S
H542 C551 0.931 . S
H543 C553 0.930 . S
H544 C555 0.930 . S
H545 C557 0.931 . S
C546 H540 0.930 . S
C546 C547 1.380 . S
C546 C548 1.394 . S
C547 C546 1.380 . S
C547 C551 1.382 . S
C548 C546 1.394 . S
C548 C549 1.400 . S
C549 H541 0.931 . S
C549 C548 1.400 . S
C549 C550 1.375 . S
C550 C549 1.375 . S
C550 C551 1.415 . S
C550 C552 1.501 . S
C551 H542 0.931 . S
C551 C547 1.382 . S
C551 C550 1.415 . S
C552 C550 1.501 . S
C552 C553 1.384 . S
C552 C557 1.408 . S
C553 H543 0.930 . S
C553 C552 1.384 . S
C553 C554 1.389 . S
C554 C553 1.389 . S
C554 C555 1.405 . S
C555 H544 0.930 . S
C555 C554 1.405 . S
C555 C556 1.364 . S
C556 C555 1.364 . S
C556 C557 1.400 . S
C557 H545 0.931 . S
C557 C552 1.408 . S
C557 C556 1.400 . S
H558 C564 0.930 . S
H559 C567 0.931 . S
H560 C569 0.931 . S
H561 C571 0.930 . S
H562 C573 0.930 . S
H563 C575 0.931 . S
C564 H558 0.930 . S
C564 C565 1.380 . S
C564 C566 1.394 . S
C565 C564 1.380 . S
C565 C569 1.382 . S
C566 C564 1.394 . S
C566 C567 1.400 . S
C567 H559 0.931 . S
C567 C566 1.400 . S
C567 C568 1.375 . S
C568 C567 1.375 . S
C568 C569 1.415 . S
C568 C570 1.501 . S
C569 H560 0.931 . S
C569 C565 1.382 . S
C569 C568 1.415 . S
C570 C568 1.501 . S
C570 C571 1.384 . S
C570 C575 1.408 . S
C571 H561 0.930 . S
C571 C570 1.384 . S
C571 C572 1.389 . S
C572 C571 1.389 . S
C572 C573 1.405 . S
C573 H562 0.930 . S
C573 C572 1.405 . S
C573 C574 1.364 . S
C574 C573 1.364 . S
C574 C575 1.400 . S
C575 H563 0.931 . S
C575 C570 1.408 . S
C575 C574 1.400 . S
C576 C577 1.340 1_655 S
C576 C578 1.327 . S
C576 H601 0.950 . S
C577 C576 1.340 1_455 S
C577 C593 1.340 . S
C578 C576 1.327 . S
C578 C597 1.422 . S
C578 H602 0.950 . S
C579 C596 1.574 . S
C579 C598 1.384 1_455 S
C579 H603 0.949 . S
H580 C584 0.949 . S
C581 C582 1.349 1_455 S
C581 C583 1.327 . S
C581 H604 0.950 . S
C582 C581 1.349 1_655 S
C582 C594 1.349 . S
C583 C581 1.327 . S
C583 C599 1.429 1_455 S
C583 H605 0.950 . S
C584 H580 0.949 . S
C584 C592 1.574 . S
C584 C600 1.368 . S
H585 C593 0.950 . S
H586 C591 0.950 . S
H587 C592 0.949 . S
H588 C594 0.950 . S
H589 C595 0.950 . S
H590 C596 0.949 . S
C591 H586 0.950 . S
C591 C593 1.327 . S
C591 C597 1.422 1_455 S
C592 C584 1.574 . S
C592 H587 0.949 . S
C592 C598 1.385 . S
C593 C577 1.340 . S
C593 H585 0.950 . S
C593 C591 1.327 . S
C594 C582 1.349 . S
C594 H588 0.950 . S
C594 C595 1.327 . S
C595 H589 0.950 . S
C595 C594 1.327 . S
C595 C599 1.429 . S
C596 C579 1.574 . S
C596 H590 0.949 . S
C596 C600 1.368 1_455 S
C597 C578 1.422 . S
C597 C591 1.422 1_655 S
C597 C598 1.501 . S
C598 C579 1.384 1_655 S
C598 C592 1.385 . S
C598 C597 1.501 . S
C599 C583 1.429 1_655 S
C599 C595 1.429 . S
C599 C600 1.523 . S
C600 C584 1.368 . S
C600 C596 1.368 1_655 S
C600 C599 1.523 . S
H601 C576 0.950 . S
H602 C578 0.950 . S
H603 C579 0.949 . S
H604 C581 0.950 . S
H605 C583 0.950 . S
C606 C607 1.349 . S
C606 C608 1.327 . S
C606 H631 0.950 . S
C607 C606 1.349 . S
C607 C623 1.349 . S
C608 C606 1.327 . S
C608 C627 1.429 . S
C608 H632 0.950 . S
C609 C626 1.574 . S
C609 C628 1.368 . S
C609 H633 0.949 . S
H610 C614 0.949 . S
C611 C612 1.349 . S
C611 C613 1.327 . S
C611 H634 0.950 . S
C612 C611 1.349 . S
C612 C624 1.349 . S
C613 C611 1.327 . S
C613 C629 1.429 . S
C613 H635 0.950 . S
C614 H610 0.949 . S
C614 C622 1.574 . S
C614 C630 1.368 . S
H615 C623 0.950 . S
H616 C621 0.950 . S
H617 C622 0.949 . S
H618 C624 0.950 . S
H619 C625 0.950 . S
H620 C626 0.949 . S
C621 H616 0.950 . S
C621 C623 1.327 . S
C621 C627 1.429 . S
C622 C614 1.574 . S
C622 H617 0.949 . S
C622 C628 1.368 . S
C623 C607 1.349 . S
C623 H615 0.950 . S
C623 C621 1.327 . S
C624 C612 1.349 . S
C624 H618 0.950 . S
C624 C625 1.327 . S
C625 H619 0.950 . S
C625 C624 1.327 . S
C625 C629 1.429 . S
C626 C609 1.574 . S
C626 H620 0.949 . S
C626 C630 1.368 . S
C627 C608 1.429 . S
C627 C621 1.429 . S
C627 C628 1.523 . S
C628 C609 1.368 . S
C628 C622 1.368 . S
C628 C627 1.523 . S
C629 C613 1.429 . S
C629 C625 1.429 . S
C629 C630 1.523 . S
C630 C614 1.368 . S
C630 C626 1.368 . S
C630 C629 1.523 . S
H631 C606 0.950 . S
H632 C608 0.950 . S
H633 C609 0.949 . S
H634 C611 0.950 . S
H635 C613 0.950 . S
C636 C637 1.376 . S
C636 C638 1.327 . S
C636 H661 0.950 . S
C637 C636 1.376 . S
C637 C653 1.332 1_565 S
C638 C636 1.327 . S
C638 C657 1.406 1_565 S
C638 H662 0.950 . S
C639 C656 1.574 . S
C639 C658 1.432 . S
C639 H663 0.949 . S
H640 C644 0.949 . S
C641 C642 1.349 . S
C641 C643 1.327 . S
C641 H664 0.950 . S
C642 C641 1.349 . S
C642 C654 1.349 1_545 S
C643 C641 1.327 . S
C643 C659 1.429 . S
C643 H665 0.950 . S
C644 H640 0.949 . S
C644 C652 1.574 . S
C644 C660 1.368 1_565 S
H645 C653 0.950 . S
H646 C651 0.950 . S
H647 C652 0.949 . S
H648 C654 0.950 . S
H649 C655 0.950 . S
H650 C656 0.949 . S
C651 H646 0.950 . S
C651 C653 1.327 . S
C651 C657 1.468 . S
C652 C644 1.574 . S
C652 H647 0.949 . S
C652 C658 1.281 1_565 S
C653 C637 1.332 1_545 S
C653 H645 0.950 . S
C653 C651 1.327 . S
C654 C642 1.349 1_565 S
C654 H648 0.950 . S
C654 C655 1.327 . S
C655 H649 0.950 . S
C655 C654 1.327 . S
C655 C659 1.429 1_565 S
C656 C639 1.574 . S
C656 H650 0.949 . S
C656 C660 1.368 . S
C657 C638 1.406 1_545 S
C657 C651 1.468 . S
C657 C658 1.542 . S
C658 C639 1.432 . S
C658 C652 1.281 1_545 S
C658 C657 1.542 . S
C659 C643 1.429 . S
C659 C655 1.429 1_545 S
C659 C660 1.523 . S
C660 C644 1.368 1_545 S
C660 C656 1.368 . S
C660 C659 1.523 . S
H661 C636 0.950 . S
H662 C638 0.950 . S
H663 C639 0.949 . S
H664 C641 0.950 . S
H665 C643 0.950 . S
C666 C667 1.359 . S
C666 C668 1.327 . S
C666 H691 0.950 . S
C667 C666 1.359 . S
C667 C683 1.322 1_545 S
C668 C666 1.327 . S
C668 C687 1.406 1_545 S
C668 H692 0.950 . S
C669 C686 1.574 . S
C669 C688 1.425 . S
C669 H693 0.949 . S
H670 C674 0.949 . S
C671 C672 1.349 . S
C671 C673 1.327 . S
C671 H694 0.950 . S
C672 C671 1.349 . S
C672 C684 1.349 1_565 S
C673 C671 1.327 . S
C673 C689 1.429 . S
C673 H695 0.950 . S
C674 H670 0.949 . S
C674 C682 1.574 . S
C674 C690 1.368 1_545 S
H675 C683 0.950 . S
H676 C681 0.950 . S
H677 C682 0.949 . S
H678 C684 0.950 . S
H679 C685 0.950 . S
H680 C686 0.949 . S
C681 H676 0.950 . S
C681 C683 1.327 . S
C681 C687 1.436 . S
C682 C674 1.574 . S
C682 H677 0.949 . S
C682 C688 1.343 1_545 S
C683 C667 1.322 1_565 S
C683 H675 0.950 . S
C683 C681 1.327 . S
C684 C672 1.349 1_545 S
C684 H678 0.950 . S
C684 C685 1.327 . S
C685 H679 0.950 . S
C685 C684 1.327 . S
C685 C689 1.429 1_545 S
C686 C669 1.574 . S
C686 H680 0.949 . S
C686 C690 1.368 . S
C687 C668 1.406 1_565 S
C687 C681 1.436 . S
C687 C688 1.502 . S
C688 C669 1.425 . S
C688 C682 1.343 1_565 S
C688 C687 1.502 . S
C689 C673 1.429 . S
C689 C685 1.429 1_565 S
C689 C690 1.523 . S
C690 C674 1.368 1_565 S
C690 C686 1.368 . S
C690 C689 1.523 . S
H691 C666 0.950 . S
H692 C668 0.950 . S
H693 C669 0.949 . S
H694 C671 0.950 . S
H695 C673 0.950 . S
C696 C697 1.343 1_455 S
C696 C698 1.327 . S
C696 H721 0.950 . S
C697 C696 1.343 1_655 S
C697 C713 1.361 . S
C698 C696 1.327 . S
C698 C717 1.466 . S
C698 H722 0.950 . S
C699 C716 1.574 . S
C699 C718 1.368 1_655 S
C699 H723 0.949 . S
H700 C704 0.949 . S
C701 C702 1.349 1_655 S
C701 C703 1.327 . S
C701 H724 0.950 . S
C702 C701 1.349 1_455 S
C702 C714 1.349 . S
C703 C701 1.327 . S
C703 C719 1.429 1_655 S
C703 H725 0.950 . S
C704 H700 0.949 . S
C704 C712 1.574 . S
C704 C720 1.368 . S
H705 C713 0.950 . S
H706 C711 0.950 . S
H707 C712 0.949 . S
H708 C714 0.950 . S
H709 C715 0.950 . S
H710 C716 0.949 . S
C711 H706 0.950 . S
C711 C713 1.327 . S
C711 C717 1.413 1_655 S
C712 C704 1.574 . S
C712 H707 0.949 . S
C712 C718 1.368 . S
C713 C697 1.361 . S
C713 H705 0.950 . S
C713 C711 1.327 . S
C714 C702 1.349 . S
C714 H708 0.950 . S
C714 C715 1.327 . S
C715 H709 0.950 . S
C715 C714 1.327 . S
C715 C719 1.429 . S
C716 C699 1.574 . S
C716 H710 0.949 . S
C716 C720 1.368 1_655 S
C717 C698 1.466 . S
C717 C711 1.413 1_455 S
C717 C718 1.504 . S
C718 C699 1.368 1_455 S
C718 C712 1.368 . S
C718 C717 1.504 . S
C719 C703 1.429 1_455 S
C719 C715 1.429 . S
C719 C720 1.523 . S
C720 C704 1.368 . S
C720 C716 1.368 1_455 S
C720 C719 1.523 . S
H721 C696 0.950 . S
H722 C698 0.950 . S
H723 C699 0.949 . S
H724 C701 0.950 . S
H725 C703 0.950 . S
C726 C727 1.349 . S
C726 C728 1.327 . S
C726 H751 0.950 . S
C727 C726 1.349 . S
C727 C743 1.349 . S
C728 C726 1.327 . S
C728 C747 1.429 . S
C728 H752 0.950 . S
C729 C746 1.574 . S
C729 C748 1.368 . S
C729 H753 0.949 . S
H730 C734 0.949 . S
C731 C732 1.349 . S
C731 C733 1.327 . S
C731 H754 0.950 . S
C732 C731 1.349 . S
C732 C744 1.349 . S
C733 C731 1.327 . S
C733 C749 1.429 . S
C733 H755 0.950 . S
C734 H730 0.949 . S
C734 C742 1.574 . S
C734 C750 1.368 . S
H735 C743 0.950 . S
H736 C741 0.950 . S
H737 C742 0.949 . S
H738 C744 0.950 . S
H739 C745 0.950 . S
H740 C746 0.949 . S
C741 H736 0.950 . S
C741 C743 1.327 . S
C741 C747 1.429 . S
C742 C734 1.574 . S
C742 H737 0.949 . S
C742 C748 1.368 . S
C743 C727 1.349 . S
C743 H735 0.950 . S
C743 C741 1.327 . S
C744 C732 1.349 . S
C744 H738 0.950 . S
C744 C745 1.327 . S
C745 H739 0.950 . S
C745 C744 1.327 . S
C745 C749 1.429 . S
C746 C729 1.574 . S
C746 H740 0.949 . S
C746 C750 1.368 . S
C747 C728 1.429 . S
C747 C741 1.429 . S
C747 C748 1.523 . S
C748 C729 1.368 . S
C748 C742 1.368 . S
C748 C747 1.523 . S
C749 C733 1.429 . S
C749 C745 1.429 . S
C749 C750 1.523 . S
C750 C734 1.368 . S
C750 C746 1.368 . S
C750 C749 1.523 . S
H751 C726 0.950 . S
H752 C728 0.950 . S
H753 C729 0.949 . S
H754 C731 0.950 . S
H755 C733 0.950 . S
C756 C757 1.305 1_455 S
C756 C758 1.327 . S
C756 H781 0.950 . S
C757 C756 1.305 1_655 S
C757 C773 1.374 . S
C758 C756 1.327 . S
C758 C777 1.406 1_455 S
C758 H782 0.950 . S
C759 C776 1.574 . S
C759 C778 1.398 . S
C759 H783 0.949 . S
H760 C764 0.949 . S
C761 C762 1.394 . S
C761 C763 1.327 . S
C761 H784 0.950 . S
C762 C761 1.394 . S
C762 C774 1.324 1_655 S
C763 C761 1.327 . S
C763 C779 1.452 . S
C763 H785 0.950 . S
C764 H760 0.949 . S
C764 C772 1.574 . S
C764 C780 1.340 1_455 S
H765 C773 0.950 . S
H766 C771 0.950 . S
H767 C772 0.949 . S
H768 C774 0.950 . S
H769 C775 0.950 . S
H770 C776 0.949 . S
C771 H766 0.950 . S
C771 C773 1.327 . S
C771 C777 1.473 . S
C772 C764 1.574 . S
C772 H767 0.949 . S
C772 C778 1.324 1_455 S
C773 C757 1.374 . S
C773 H765 0.950 . S
C773 C771 1.327 . S
C774 C762 1.324 1_455 S
C774 H768 0.950 . S
C774 C775 1.327 . S
C775 H769 0.950 . S
C775 C774 1.327 . S
C775 C779 1.384 1_455 S
C776 C759 1.574 . S
C776 H770 0.949 . S
C776 C780 1.413 . S
C777 C758 1.406 1_655 S
C777 C771 1.473 . S
C777 C778 1.523 . S
C778 C759 1.398 . S
C778 C772 1.324 1_655 S
C778 C777 1.523 . S
C779 C763 1.452 . S
C779 C775 1.384 1_655 S
C779 C780 1.523 . S
C780 C764 1.340 1_655 S
C780 C776 1.413 . S
C780 C779 1.523 . S
H781 C756 0.950 . S
H782 C758 0.950 . S
H783 C759 0.949 . S
H784 C761 0.950 . S
H785 C763 0.950 . S
C786 C787 1.349 . S
C786 C788 1.327 . S
C786 H811 0.950 . S
C787 C786 1.349 . S
C787 C803 1.349 . S
C788 C786 1.327 . S
C788 C807 1.429 . S
C788 H812 0.950 . S
C789 C806 1.574 . S
C789 C808 1.368 . S
C789 H813 0.949 . S
H790 C794 0.949 . S
C791 C792 1.349 . S
C791 C793 1.327 . S
C791 H814 0.950 . S
C792 C791 1.349 . S
C792 C804 1.349 . S
C793 C791 1.327 . S
C793 C809 1.429 . S
C793 H815 0.950 . S
C794 H790 0.949 . S
C794 C802 1.574 . S
C794 C810 1.368 . S
H795 C803 0.950 . S
H796 C801 0.950 . S
H797 C802 0.949 . S
H798 C804 0.950 . S
H799 C805 0.950 . S
H800 C806 0.949 . S
C801 H796 0.950 . S
C801 C803 1.327 . S
C801 C807 1.429 . S
C802 C794 1.574 . S
C802 H797 0.949 . S
C802 C808 1.368 . S
C803 C787 1.349 . S
C803 H795 0.950 . S
C803 C801 1.327 . S
C804 C792 1.349 . S
C804 H798 0.950 . S
C804 C805 1.327 . S
C805 H799 0.950 . S
C805 C804 1.327 . S
C805 C809 1.429 . S
C806 C789 1.574 . S
C806 H800 0.949 . S
C806 C810 1.368 . S
C807 C788 1.429 . S
C807 C801 1.429 . S
C807 C808 1.523 . S
C808 C789 1.368 . S
C808 C802 1.368 . S
C808 C807 1.523 . S
C809 C793 1.429 . S
C809 C805 1.429 . S
C809 C810 1.523 . S
C810 C794 1.368 . S
C810 C806 1.368 . S
C810 C809 1.523 . S
H811 C786 0.950 . S
H812 C788 0.950 . S
H813 C789 0.949 . S
H814 C791 0.950 . S
H815 C793 0.950 . S
C816 C817 1.395 . S
C816 C818 1.327 . S
C816 H841 0.950 . S
C817 C816 1.395 . S
C817 C833 1.332 1_545 S
C818 C816 1.327 . S
C818 C837 1.446 . S
C818 H842 0.950 . S
C819 C836 1.574 . S
C819 C838 1.347 1_565 S
C819 H843 0.949 . S
H820 C824 0.949 . S
C821 C822 1.304 1_565 S
C821 C823 1.327 . S
C821 H844 0.950 . S
C822 C821 1.304 1_545 S
C822 C834 1.369 . S
C823 C821 1.327 . S
C823 C839 1.414 1_565 S
C823 H845 0.950 . S
C824 H820 0.949 . S
C824 C832 1.574 . S
C824 C840 1.393 . S
H825 C833 0.950 . S
H826 C831 0.950 . S
H827 C832 0.949 . S
H828 C834 0.950 . S
H829 C835 0.950 . S
H830 C836 0.949 . S
C831 H826 0.950 . S
C831 C833 1.327 . S
C831 C837 1.384 1_565 S
C832 C824 1.574 . S
C832 H827 0.949 . S
C832 C838 1.414 . S
C833 C817 1.332 1_565 S
C833 H825 0.950 . S
C833 C831 1.327 . S
C834 C822 1.369 . S
C834 H828 0.950 . S
C834 C835 1.327 . S
C835 H829 0.950 . S
C835 C834 1.327 . S
C835 C839 1.475 . S
C836 C819 1.574 . S
C836 H830 0.949 . S
C836 C840 1.325 1_565 S
C837 C818 1.446 . S
C837 C831 1.384 1_545 S
C837 C838 1.523 . S
C838 C819 1.347 1_545 S
C838 C832 1.414 . S
C838 C837 1.523 . S
C839 C823 1.414 1_545 S
C839 C835 1.475 . S
C839 C840 1.523 . S
C840 C824 1.393 . S
C840 C836 1.325 1_545 S
C840 C839 1.523 . S
H841 C816 0.950 . S
H842 C818 0.950 . S
H843 C819 0.949 . S
H844 C821 0.950 . S
H845 C823 0.950 . S
C846 C847 1.306 1_545 S
C846 C848 1.327 . S
C846 H871 0.950 . S
C847 C846 1.306 1_565 S
C847 C863 1.375 . S
C848 C846 1.327 . S
C848 C867 1.405 1_545 S
C848 H872 0.950 . S
C849 C866 1.574 . S
C849 C868 1.399 . S
C849 H873 0.949 . S
H850 C854 0.949 . S
C851 C852 1.396 . S
C851 C853 1.327 . S
C851 H874 0.950 . S
C852 C851 1.396 . S
C852 C864 1.322 1_565 S
C853 C851 1.327 . S
C853 C869 1.454 . S
C853 H875 0.950 . S
C854 H850 0.949 . S
C854 C862 1.574 . S
C854 C870 1.338 1_545 S
H855 C863 0.950 . S
H856 C861 0.950 . S
H857 C862 0.949 . S
H858 C864 0.950 . S
H859 C865 0.950 . S
H860 C866 0.949 . S
C861 H856 0.950 . S
C861 C863 1.327 . S
C861 C867 1.472 . S
C862 C854 1.574 . S
C862 H857 0.949 . S
C862 C868 1.324 1_545 S
C863 C847 1.375 . S
C863 H855 0.950 . S
C863 C861 1.327 . S
C864 C852 1.322 1_545 S
C864 H858 0.950 . S
C864 C865 1.327 . S
C865 H859 0.950 . S
C865 C864 1.327 . S
C865 C869 1.383 1_545 S
C866 C849 1.574 . S
C866 H860 0.949 . S
C866 C870 1.414 . S
C867 C848 1.405 1_565 S
C867 C861 1.472 . S
C867 C868 1.523 . S
C868 C849 1.399 . S
C868 C862 1.324 1_565 S
C868 C867 1.523 . S
C869 C853 1.454 . S
C869 C865 1.383 1_565 S
C869 C870 1.523 . S
C870 C854 1.338 1_565 S
C870 C866 1.414 . S
C870 C869 1.523 . S
H871 C846 0.950 . S
H872 C848 0.950 . S
H873 C849 0.949 . S
H874 C851 0.950 . S
H875 C853 0.950 . S
C876 C877 1.391 . S
C876 C878 1.327 . S
C876 H901 0.950 . S
C877 C876 1.391 . S
C877 C893 1.338 1_455 S
C878 C876 1.327 . S
C878 C897 1.441 . S
C878 H902 0.950 . S
C879 C896 1.574 . S
C879 C898 1.352 1_655 S
C879 H903 0.949 . S
H880 C884 0.949 . S
C881 C882 1.310 1_655 S
C881 C883 1.327 . S
C881 H904 0.950 . S
C882 C881 1.310 1_455 S
C882 C894 1.363 . S
C883 C881 1.327 . S
C883 C899 1.420 1_655 S
C883 H905 0.950 . S
C884 H880 0.949 . S
C884 C892 1.574 . S
C884 C900 1.387 . S
H885 C893 0.950 . S
H886 C891 0.950 . S
H887 C892 0.949 . S
H888 C894 0.950 . S
H889 C895 0.950 . S
H890 C896 0.949 . S
C891 H886 0.950 . S
C891 C893 1.327 . S
C891 C897 1.389 1_655 S
C892 C884 1.574 . S
C892 H887 0.949 . S
C892 C898 1.409 . S
C893 C877 1.338 1_655 S
C893 H885 0.950 . S
C893 C891 1.327 . S
C894 C882 1.363 . S
C894 H888 0.950 . S
C894 C895 1.327 . S
C895 H889 0.950 . S
C895 C894 1.327 . S
C895 C899 1.470 . S
C896 C879 1.574 . S
C896 H890 0.949 . S
C896 C900 1.331 1_655 S
C897 C878 1.441 . S
C897 C891 1.389 1_455 S
C897 C898 1.523 . S
C898 C879 1.352 1_455 S
C898 C892 1.409 . S
C898 C897 1.523 . S
C899 C883 1.420 1_455 S
C899 C895 1.470 . S
C899 C900 1.523 . S
C900 C884 1.387 . S
C900 C896 1.331 1_455 S
C900 C899 1.523 . S
H901 C876 0.950 . S
H902 C878 0.950 . S
H903 C879 0.949 . S
H904 C881 0.950 . S
H905 C883 0.950 . S
C906 C907 1.349 . S
C906 C908 1.327 . S
C906 H931 0.950 . S
C907 C906 1.349 . S
C907 C923 1.349 . S
C908 C906 1.327 . S
C908 C927 1.429 . S
C908 H932 0.950 . S
C909 C926 1.574 . S
C909 C928 1.368 . S
C909 H933 0.949 . S
H910 C914 0.949 . S
C911 C912 1.349 . S
C911 C913 1.327 . S
C911 H934 0.950 . S
C912 C911 1.349 . S
C912 C924 1.349 . S
C913 C911 1.327 . S
C913 C929 1.429 . S
C913 H935 0.950 . S
C914 H910 0.949 . S
C914 C922 1.574 . S
C914 C930 1.368 . S
H915 C923 0.950 . S
H916 C921 0.950 . S
H917 C922 0.949 . S
H918 C924 0.950 . S
H919 C925 0.950 . S
H920 C926 0.949 . S
C921 H916 0.950 . S
C921 C923 1.327 . S
C921 C927 1.429 . S
C922 C914 1.574 . S
C922 H917 0.949 . S
C922 C928 1.368 . S
C923 C907 1.349 . S
C923 H915 0.950 . S
C923 C921 1.327 . S
C924 C912 1.349 . S
C924 H918 0.950 . S
C924 C925 1.327 . S
C925 H919 0.950 . S
C925 C924 1.327 . S
C925 C929 1.429 . S
C926 C909 1.574 . S
C926 H920 0.949 . S
C926 C930 1.368 . S
C927 C908 1.429 . S
C927 C921 1.429 . S
C927 C928 1.523 . S
C928 C909 1.368 . S
C928 C922 1.368 . S
C928 C927 1.523 . S
C929 C913 1.429 . S
C929 C925 1.429 . S
C929 C930 1.523 . S
C930 C914 1.368 . S
C930 C926 1.368 . S
C930 C929 1.523 . S
H931 C906 0.950 . S
H932 C908 0.950 . S
H933 C909 0.949 . S
H934 C911 0.950 . S
H935 C913 0.950 . S
C936 C937 1.349 . S
C936 C938 1.327 . S
C936 H961 0.950 . S
C937 C936 1.349 . S
C937 C953 1.349 . S
C938 C936 1.327 . S
C938 C957 1.429 . S
C938 H962 0.950 . S
C939 C956 1.574 . S
C939 C958 1.368 . S
C939 H963 0.949 . S
H940 C944 0.949 . S
C941 C942 1.349 . S
C941 C943 1.327 . S
C941 H964 0.950 . S
C942 C941 1.349 . S
C942 C954 1.349 . S
C943 C941 1.327 . S
C943 C959 1.429 . S
C943 H965 0.950 . S
C944 H940 0.949 . S
C944 C952 1.574 . S
C944 C960 1.368 . S
H945 C953 0.950 . S
H946 C951 0.950 . S
H947 C952 0.949 . S
H948 C954 0.950 . S
H949 C955 0.950 . S
H950 C956 0.949 . S
C951 H946 0.950 . S
C951 C953 1.327 . S
C951 C957 1.429 . S
C952 C944 1.574 . S
C952 H947 0.949 . S
C952 C958 1.368 . S
C953 C937 1.349 . S
C953 H945 0.950 . S
C953 C951 1.327 . S
C954 C942 1.349 . S
C954 H948 0.950 . S
C954 C955 1.327 . S
C955 H949 0.950 . S
C955 C954 1.327 . S
C955 C959 1.429 . S
C956 C939 1.574 . S
C956 H950 0.949 . S
C956 C960 1.368 . S
C957 C938 1.429 . S
C957 C951 1.429 . S
C957 C958 1.523 . S
C958 C939 1.368 . S
C958 C952 1.368 . S
C958 C957 1.523 . S
C959 C943 1.429 . S
C959 C955 1.429 . S
C959 C960 1.523 . S
C960 C944 1.368 . S
C960 C956 1.368 . S
C960 C959 1.523 . S
H961 C936 0.950 . S
H962 C938 0.950 . S
H963 C939 0.949 . S
H964 C941 0.950 . S
H965 C943 0.950 . S
C966 C967 1.349 . S
C966 C968 1.327 . S
C966 H991 0.950 . S
C967 C966 1.349 . S
C967 C983 1.349 . S
C968 C966 1.327 . S
C968 C987 1.429 . S
C968 H992 0.950 . S
C969 C986 1.574 . S
C969 C988 1.368 . S
C969 H993 0.949 . S
H970 C974 0.949 . S
C971 C972 1.349 . S
C971 C973 1.327 . S
C971 H994 0.950 . S
C972 C971 1.349 . S
C972 C984 1.349 . S
C973 C971 1.327 . S
C973 C989 1.429 . S
C973 H995 0.950 . S
C974 H970 0.949 . S
C974 C982 1.574 . S
C974 C990 1.368 . S
H975 C983 0.950 . S
H976 C981 0.950 . S
H977 C982 0.949 . S
H978 C984 0.950 . S
H979 C985 0.950 . S
H980 C986 0.949 . S
C981 H976 0.950 . S
C981 C983 1.327 . S
C981 C987 1.429 . S
C982 C974 1.574 . S
C982 H977 0.949 . S
C982 C988 1.368 . S
C983 C967 1.349 . S
C983 H975 0.950 . S
C983 C981 1.327 . S
C984 C972 1.349 . S
C984 H978 0.950 . S
C984 C985 1.327 . S
C985 H979 0.950 . S
C985 C984 1.327 . S
C985 C989 1.429 . S
C986 C969 1.574 . S
C986 H980 0.949 . S
C986 C990 1.368 . S
C987 C968 1.429 . S
C987 C981 1.429 . S
C987 C988 1.523 . S
C988 C969 1.368 . S
C988 C982 1.368 . S
C988 C987 1.523 . S
C989 C973 1.429 . S
C989 C985 1.429 . S
C989 C990 1.523 . S
C990 C974 1.368 . S
C990 C986 1.368 . S
C990 C989 1.523 . S
H991 C966 0.950 . S
H992 C968 0.950 . S
H993 C969 0.949 . S
H994 C971 0.950 . S
H995 C973 0.950 . S
C996 C997 1.349 . S
C996 C998 1.327 . S
C996 H1021 0.950 . S
C997 C996 1.349 . S
C997 C1013 1.349 . S
C998 C996 1.327 . S
C998 C1017 1.429 . S
C998 H1022 0.950 . S
C999 C1016 1.574 . S
C999 C1018 1.368 . S
C999 H1023 0.949 . S
H1000 C1004 0.949 . S
C1001 C1002 1.349 . S
C1001 C1003 1.327 . S
C1001 H1024 0.950 . S
C1002 C1001 1.349 . S
C1002 C1014 1.349 . S
C1003 C1001 1.327 . S
C1003 C1019 1.429 . S
C1003 H1025 0.950 . S
C1004 H1000 0.949 . S
C1004 C1012 1.574 . S
C1004 C1020 1.368 . S
H1005 C1013 0.950 . S
H1006 C1011 0.950 . S
H1007 C1012 0.949 . S
H1008 C1014 0.950 . S
H1009 C1015 0.950 . S
H1010 C1016 0.949 . S
C1011 H1006 0.950 . S
C1011 C1013 1.327 . S
C1011 C1017 1.429 . S
C1012 C1004 1.574 . S
C1012 H1007 0.949 . S
C1012 C1018 1.368 . S
C1013 C997 1.349 . S
C1013 H1005 0.950 . S
C1013 C1011 1.327 . S
C1014 C1002 1.349 . S
C1014 H1008 0.950 . S
C1014 C1015 1.327 . S
C1015 H1009 0.950 . S
C1015 C1014 1.327 . S
C1015 C1019 1.429 . S
C1016 C999 1.574 . S
C1016 H1010 0.949 . S
C1016 C1020 1.368 . S
C1017 C998 1.429 . S
C1017 C1011 1.429 . S
C1017 C1018 1.523 . S
C1018 C999 1.368 . S
C1018 C1012 1.368 . S
C1018 C1017 1.523 . S
C1019 C1003 1.429 . S
C1019 C1015 1.429 . S
C1019 C1020 1.523 . S
C1020 C1004 1.368 . S
C1020 C1016 1.368 . S
C1020 C1019 1.523 . S
H1021 C996 0.950 . S
H1022 C998 0.950 . S
H1023 C999 0.949 . S
H1024 C1001 0.950 . S
H1025 C1003 0.950 . S
C1026 C1027 1.349 . S
C1026 C1028 1.327 . S
C1026 H1051 0.950 . S
C1027 C1026 1.349 . S
C1027 C1043 1.349 . S
C1028 C1026 1.327 . S
C1028 C1047 1.429 . S
C1028 H1052 0.950 . S
C1029 C1046 1.574 . S
C1029 C1048 1.368 . S
C1029 H1053 0.949 . S
H1030 C1034 0.949 . S
C1031 C1032 1.349 . S
C1031 C1033 1.327 . S
C1031 H1054 0.950 . S
C1032 C1031 1.349 . S
C1032 C1044 1.349 . S
C1033 C1031 1.327 . S
C1033 C1049 1.429 . S
C1033 H1055 0.950 . S
C1034 H1030 0.949 . S
C1034 C1042 1.574 . S
C1034 C1050 1.368 . S
H1035 C1043 0.950 . S
H1036 C1041 0.950 . S
H1037 C1042 0.949 . S
H1038 C1044 0.950 . S
H1039 C1045 0.950 . S
H1040 C1046 0.949 . S
C1041 H1036 0.950 . S
C1041 C1043 1.327 . S
C1041 C1047 1.429 . S
C1042 C1034 1.574 . S
C1042 H1037 0.949 . S
C1042 C1048 1.368 . S
C1043 C1027 1.349 . S
C1043 H1035 0.950 . S
C1043 C1041 1.327 . S
C1044 C1032 1.349 . S
C1044 H1038 0.950 . S
C1044 C1045 1.327 . S
C1045 H1039 0.950 . S
C1045 C1044 1.327 . S
C1045 C1049 1.429 . S
C1046 C1029 1.574 . S
C1046 H1040 0.949 . S
C1046 C1050 1.368 . S
C1047 C1028 1.429 . S
C1047 C1041 1.429 . S
C1047 C1048 1.523 . S
C1048 C1029 1.368 . S
C1048 C1042 1.368 . S
C1048 C1047 1.523 . S
C1049 C1033 1.429 . S
C1049 C1045 1.429 . S
C1049 C1050 1.523 . S
C1050 C1034 1.368 . S
C1050 C1046 1.368 . S
C1050 C1049 1.523 . S
H1051 C1026 0.950 . S
H1052 C1028 0.950 . S
H1053 C1029 0.949 . S
H1054 C1031 0.950 . S
H1055 C1033 0.950 . S
C1056 C1057 1.349 . S
C1056 C1058 1.327 . S
C1056 H1081 0.950 . S
C1057 C1056 1.349 . S
C1057 C1073 1.349 . S
C1058 C1056 1.327 . S
C1058 C1077 1.429 . S
C1058 H1082 0.950 . S
C1059 C1076 1.574 . S
C1059 C1078 1.368 . S
C1059 H1083 0.949 . S
H1060 C1064 0.949 . S
C1061 C1062 1.349 . S
C1061 C1063 1.327 . S
C1061 H1084 0.950 . S
C1062 C1061 1.349 . S
C1062 C1074 1.349 . S
C1063 C1061 1.327 . S
C1063 C1079 1.429 . S
C1063 H1085 0.950 . S
C1064 H1060 0.949 . S
C1064 C1072 1.574 . S
C1064 C1080 1.368 . S
H1065 C1073 0.950 . S
H1066 C1071 0.950 . S
H1067 C1072 0.949 . S
H1068 C1074 0.950 . S
H1069 C1075 0.950 . S
H1070 C1076 0.949 . S
C1071 H1066 0.950 . S
C1071 C1073 1.327 . S
C1071 C1077 1.429 . S
C1072 C1064 1.574 . S
C1072 H1067 0.949 . S
C1072 C1078 1.368 . S
C1073 C1057 1.349 . S
C1073 H1065 0.950 . S
C1073 C1071 1.327 . S
C1074 C1062 1.349 . S
C1074 H1068 0.950 . S
C1074 C1075 1.327 . S
C1075 H1069 0.950 . S
C1075 C1074 1.327 . S
C1075 C1079 1.429 . S
C1076 C1059 1.574 . S
C1076 H1070 0.949 . S
C1076 C1080 1.368 . S
C1077 C1058 1.429 . S
C1077 C1071 1.429 . S
C1077 C1078 1.523 . S
C1078 C1059 1.368 . S
C1078 C1072 1.368 . S
C1078 C1077 1.523 . S
C1079 C1063 1.429 . S
C1079 C1075 1.429 . S
C1079 C1080 1.523 . S
C1080 C1064 1.368 . S
C1080 C1076 1.368 . S
C1080 C1079 1.523 . S
H1081 C1056 0.950 . S
H1082 C1058 0.950 . S
H1083 C1059 0.949 . S
H1084 C1061 0.950 . S
H1085 C1063 0.950 . S
C1086 C1087 1.349 . S
C1086 C1088 1.327 . S
C1086 H1111 0.950 . S
C1087 C1086 1.349 . S
C1087 C1103 1.349 . S
C1088 C1086 1.327 . S
C1088 C1107 1.429 . S
C1088 H1112 0.950 . S
C1089 C1106 1.574 . S
C1089 C1108 1.368 . S
C1089 H1113 0.949 . S
H1090 C1094 0.949 . S
C1091 C1092 1.349 . S
C1091 C1093 1.327 . S
C1091 H1114 0.950 . S
C1092 C1091 1.349 . S
C1092 C1104 1.349 . S
C1093 C1091 1.327 . S
C1093 C1109 1.429 . S
C1093 H1115 0.950 . S
C1094 H1090 0.949 . S
C1094 C1102 1.574 . S
C1094 C1110 1.368 . S
H1095 C1103 0.950 . S
H1096 C1101 0.950 . S
H1097 C1102 0.949 . S
H1098 C1104 0.950 . S
H1099 C1105 0.950 . S
H1100 C1106 0.949 . S
C1101 H1096 0.950 . S
C1101 C1103 1.327 . S
C1101 C1107 1.429 . S
C1102 C1094 1.574 . S
C1102 H1097 0.949 . S
C1102 C1108 1.368 . S
C1103 C1087 1.349 . S
C1103 H1095 0.950 . S
C1103 C1101 1.327 . S
C1104 C1092 1.349 . S
C1104 H1098 0.950 . S
C1104 C1105 1.327 . S
C1105 H1099 0.950 . S
C1105 C1104 1.327 . S
C1105 C1109 1.429 . S
C1106 C1089 1.574 . S
C1106 H1100 0.949 . S
C1106 C1110 1.368 . S
C1107 C1088 1.429 . S
C1107 C1101 1.429 . S
C1107 C1108 1.523 . S
C1108 C1089 1.368 . S
C1108 C1102 1.368 . S
C1108 C1107 1.523 . S
C1109 C1093 1.429 . S
C1109 C1105 1.429 . S
C1109 C1110 1.523 . S
C1110 C1094 1.368 . S
C1110 C1106 1.368 . S
C1110 C1109 1.523 . S
H1111 C1086 0.950 . S
H1112 C1088 0.950 . S
H1113 C1089 0.949 . S
H1114 C1091 0.950 . S
H1115 C1093 0.950 . S
C1116 C1117 1.349 . S
C1116 C1118 1.327 . S
C1116 H1141 0.950 . S
C1117 C1116 1.349 . S
C1117 C1133 1.349 . S
C1118 C1116 1.327 . S
C1118 C1137 1.429 . S
C1118 H1142 0.950 . S
C1119 C1136 1.574 . S
C1119 C1138 1.368 . S
C1119 H1143 0.949 . S
H1120 C1124 0.949 . S
C1121 C1122 1.349 . S
C1121 C1123 1.327 . S
C1121 H1144 0.950 . S
C1122 C1121 1.349 . S
C1122 C1134 1.349 . S
C1123 C1121 1.327 . S
C1123 C1139 1.429 . S
C1123 H1145 0.950 . S
C1124 H1120 0.949 . S
C1124 C1132 1.574 . S
C1124 C1140 1.368 . S
H1125 C1133 0.950 . S
H1126 C1131 0.950 . S
H1127 C1132 0.949 . S
H1128 C1134 0.950 . S
H1129 C1135 0.950 . S
H1130 C1136 0.949 . S
C1131 H1126 0.950 . S
C1131 C1133 1.327 . S
C1131 C1137 1.429 . S
C1132 C1124 1.574 . S
C1132 H1127 0.949 . S
C1132 C1138 1.368 . S
C1133 C1117 1.349 . S
C1133 H1125 0.950 . S
C1133 C1131 1.327 . S
C1134 C1122 1.349 . S
C1134 H1128 0.950 . S
C1134 C1135 1.327 . S
C1135 H1129 0.950 . S
C1135 C1134 1.327 . S
C1135 C1139 1.429 . S
C1136 C1119 1.574 . S
C1136 H1130 0.949 . S
C1136 C1140 1.368 . S
C1137 C1118 1.429 . S
C1137 C1131 1.429 . S
C1137 C1138 1.523 . S
C1138 C1119 1.368 . S
C1138 C1132 1.368 . S
C1138 C1137 1.523 . S
C1139 C1123 1.429 . S
C1139 C1135 1.429 . S
C1139 C1140 1.523 . S
C1140 C1124 1.368 . S
C1140 C1136 1.368 . S
C1140 C1139 1.523 . S
H1141 C1116 0.950 . S
H1142 C1118 0.950 . S
H1143 C1119 0.949 . S
H1144 C1121 0.950 . S
H1145 C1123 0.950 . S
C1146 C1147 1.349 . S
C1146 C1148 1.327 . S
C1146 H1171 0.950 . S
C1147 C1146 1.349 . S
C1147 C1163 1.349 . S
C1148 C1146 1.327 . S
C1148 C1167 1.429 . S
C1148 H1172 0.950 . S
C1149 C1166 1.574 . S
C1149 C1168 1.368 . S
C1149 H1173 0.949 . S
H1150 C1154 0.949 . S
C1151 C1152 1.349 . S
C1151 C1153 1.327 . S
C1151 H1174 0.950 . S
C1152 C1151 1.349 . S
C1152 C1164 1.349 . S
C1153 C1151 1.327 . S
C1153 C1169 1.429 . S
C1153 H1175 0.950 . S
C1154 H1150 0.949 . S
C1154 C1162 1.574 . S
C1154 C1170 1.368 . S
H1155 C1163 0.950 . S
H1156 C1161 0.950 . S
H1157 C1162 0.949 . S
H1158 C1164 0.950 . S
H1159 C1165 0.950 . S
H1160 C1166 0.949 . S
C1161 H1156 0.950 . S
C1161 C1163 1.327 . S
C1161 C1167 1.429 . S
C1162 C1154 1.574 . S
C1162 H1157 0.949 . S
C1162 C1168 1.368 . S
C1163 C1147 1.349 . S
C1163 H1155 0.950 . S
C1163 C1161 1.327 . S
C1164 C1152 1.349 . S
C1164 H1158 0.950 . S
C1164 C1165 1.327 . S
C1165 H1159 0.950 . S
C1165 C1164 1.327 . S
C1165 C1169 1.429 . S
C1166 C1149 1.574 . S
C1166 H1160 0.949 . S
C1166 C1170 1.368 . S
C1167 C1148 1.429 . S
C1167 C1161 1.429 . S
C1167 C1168 1.523 . S
C1168 C1149 1.368 . S
C1168 C1162 1.368 . S
C1168 C1167 1.523 . S
C1169 C1153 1.429 . S
C1169 C1165 1.429 . S
C1169 C1170 1.523 . S
C1170 C1154 1.368 . S
C1170 C1166 1.368 . S
C1170 C1169 1.523 . S
H1171 C1146 0.950 . S
H1172 C1148 0.950 . S
H1173 C1149 0.949 . S
H1174 C1151 0.950 . S
H1175 C1153 0.950 . S
C1176 C1177 1.349 . S
C1176 C1178 1.327 . S
C1176 H1201 0.950 . S
C1177 C1176 1.349 . S
C1177 C1193 1.349 . S
C1178 C1176 1.327 . S
C1178 C1197 1.429 . S
C1178 H1202 0.950 . S
C1179 C1196 1.574 . S
C1179 C1198 1.368 . S
C1179 H1203 0.949 . S
H1180 C1184 0.949 . S
C1181 C1182 1.349 . S
C1181 C1183 1.327 . S
C1181 H1204 0.950 . S
C1182 C1181 1.349 . S
C1182 C1194 1.349 . S
C1183 C1181 1.327 . S
C1183 C1199 1.429 . S
C1183 H1205 0.950 . S
C1184 H1180 0.949 . S
C1184 C1192 1.574 . S
C1184 C1200 1.368 . S
H1185 C1193 0.950 . S
H1186 C1191 0.950 . S
H1187 C1192 0.949 . S
H1188 C1194 0.950 . S
H1189 C1195 0.950 . S
H1190 C1196 0.949 . S
C1191 H1186 0.950 . S
C1191 C1193 1.327 . S
C1191 C1197 1.429 . S
C1192 C1184 1.574 . S
C1192 H1187 0.949 . S
C1192 C1198 1.368 . S
C1193 C1177 1.349 . S
C1193 H1185 0.950 . S
C1193 C1191 1.327 . S
C1194 C1182 1.349 . S
C1194 H1188 0.950 . S
C1194 C1195 1.327 . S
C1195 H1189 0.950 . S
C1195 C1194 1.327 . S
C1195 C1199 1.429 . S
C1196 C1179 1.574 . S
C1196 H1190 0.949 . S
C1196 C1200 1.368 . S
C1197 C1178 1.429 . S
C1197 C1191 1.429 . S
C1197 C1198 1.523 . S
C1198 C1179 1.368 . S
C1198 C1192 1.368 . S
C1198 C1197 1.523 . S
C1199 C1183 1.429 . S
C1199 C1195 1.429 . S
C1199 C1200 1.523 . S
C1200 C1184 1.368 . S
C1200 C1196 1.368 . S
C1200 C1199 1.523 . S
H1201 C1176 0.950 . S
H1202 C1178 0.950 . S
H1203 C1179 0.949 . S
H1204 C1181 0.950 . S
H1205 C1183 0.950 . S
C1206 C1207 1.349 . S
C1206 C1208 1.327 . S
C1206 H1231 0.950 . S
C1207 C1206 1.349 . S
C1207 C1223 1.349 . S
C1208 C1206 1.327 . S
C1208 C1227 1.429 . S
C1208 H1232 0.950 . S
C1209 C1226 1.574 . S
C1209 C1228 1.368 . S
C1209 H1233 0.949 . S
H1210 C1214 0.949 . S
C1211 C1212 1.349 . S
C1211 C1213 1.327 . S
C1211 H1234 0.950 . S
C1212 C1211 1.349 . S
C1212 C1224 1.349 . S
C1213 C1211 1.327 . S
C1213 C1229 1.429 . S
C1213 H1235 0.950 . S
C1214 H1210 0.949 . S
C1214 C1222 1.574 . S
C1214 C1230 1.368 . S
H1215 C1223 0.950 . S
H1216 C1221 0.950 . S
H1217 C1222 0.949 . S
H1218 C1224 0.950 . S
H1219 C1225 0.950 . S
H1220 C1226 0.949 . S
C1221 H1216 0.950 . S
C1221 C1223 1.327 . S
C1221 C1227 1.429 . S
C1222 C1214 1.574 . S
C1222 H1217 0.949 . S
C1222 C1228 1.368 . S
C1223 C1207 1.349 . S
C1223 H1215 0.950 . S
C1223 C1221 1.327 . S
C1224 C1212 1.349 . S
C1224 H1218 0.950 . S
C1224 C1225 1.327 . S
C1225 H1219 0.950 . S
C1225 C1224 1.327 . S
C1225 C1229 1.429 . S
C1226 C1209 1.574 . S
C1226 H1220 0.949 . S
C1226 C1230 1.368 . S
C1227 C1208 1.429 . S
C1227 C1221 1.429 . S
C1227 C1228 1.523 . S
C1228 C1209 1.368 . S
C1228 C1222 1.368 . S
C1228 C1227 1.523 . S
C1229 C1213 1.429 . S
C1229 C1225 1.429 . S
C1229 C1230 1.523 . S
C1230 C1214 1.368 . S
C1230 C1226 1.368 . S
C1230 C1229 1.523 . S
H1231 C1206 0.950 . S
H1232 C1208 0.950 . S
H1233 C1209 0.949 . S
H1234 C1211 0.950 . S
H1235 C1213 0.950 . S
C1236 C1237 1.349 . S
C1236 C1238 1.327 . S
C1236 H1261 0.950 . S
C1237 C1236 1.349 . S
C1237 C1253 1.349 . S
C1238 C1236 1.327 . S
C1238 C1257 1.429 . S
C1238 H1262 0.950 . S
C1239 C1256 1.574 . S
C1239 C1258 1.368 . S
C1239 H1263 0.949 . S
H1240 C1244 0.949 . S
C1241 C1242 1.349 . S
C1241 C1243 1.327 . S
C1241 H1264 0.950 . S
C1242 C1241 1.349 . S
C1242 C1254 1.349 . S
C1243 C1241 1.327 . S
C1243 C1259 1.429 . S
C1243 H1265 0.950 . S
C1244 H1240 0.949 . S
C1244 C1252 1.574 . S
C1244 C1260 1.368 . S
H1245 C1253 0.950 . S
H1246 C1251 0.950 . S
H1247 C1252 0.949 . S
H1248 C1254 0.950 . S
H1249 C1255 0.950 . S
H1250 C1256 0.949 . S
C1251 H1246 0.950 . S
C1251 C1253 1.327 . S
C1251 C1257 1.429 . S
C1252 C1244 1.574 . S
C1252 H1247 0.949 . S
C1252 C1258 1.368 . S
C1253 C1237 1.349 . S
C1253 H1245 0.950 . S
C1253 C1251 1.327 . S
C1254 C1242 1.349 . S
C1254 H1248 0.950 . S
C1254 C1255 1.327 . S
C1255 H1249 0.950 . S
C1255 C1254 1.327 . S
C1255 C1259 1.429 . S
C1256 C1239 1.574 . S
C1256 H1250 0.949 . S
C1256 C1260 1.368 . S
C1257 C1238 1.429 . S
C1257 C1251 1.429 . S
C1257 C1258 1.523 . S
C1258 C1239 1.368 . S
C1258 C1252 1.368 . S
C1258 C1257 1.523 . S
C1259 C1243 1.429 . S
C1259 C1255 1.429 . S
C1259 C1260 1.523 . S
C1260 C1244 1.368 . S
C1260 C1256 1.368 . S
C1260 C1259 1.523 . S
H1261 C1236 0.950 . S
H1262 C1238 0.950 . S
H1263 C1239 0.949 . S
H1264 C1241 0.950 . S
H1265 C1243 0.950 . S
C1266 C1267 1.349 . S
C1266 C1268 1.327 . S
C1266 H1291 0.950 . S
C1267 C1266 1.349 . S
C1267 C1283 1.349 . S
C1268 C1266 1.327 . S
C1268 C1287 1.429 . S
C1268 H1292 0.950 . S
C1269 C1286 1.574 . S
C1269 C1288 1.368 . S
C1269 H1293 0.949 . S
H1270 C1274 0.949 . S
C1271 C1272 1.349 . S
C1271 C1273 1.327 . S
C1271 H1294 0.950 . S
C1272 C1271 1.349 . S
C1272 C1284 1.349 . S
C1273 C1271 1.327 . S
C1273 C1289 1.429 . S
C1273 H1295 0.950 . S
C1274 H1270 0.949 . S
C1274 C1282 1.574 . S
C1274 C1290 1.368 . S
H1275 C1283 0.950 . S
H1276 C1281 0.950 . S
H1277 C1282 0.949 . S
H1278 C1284 0.950 . S
H1279 C1285 0.950 . S
H1280 C1286 0.949 . S
C1281 H1276 0.950 . S
C1281 C1283 1.327 . S
C1281 C1287 1.429 . S
C1282 C1274 1.574 . S
C1282 H1277 0.949 . S
C1282 C1288 1.368 . S
C1283 C1267 1.349 . S
C1283 H1275 0.950 . S
C1283 C1281 1.327 . S
C1284 C1272 1.349 . S
C1284 H1278 0.950 . S
C1284 C1285 1.327 . S
C1285 H1279 0.950 . S
C1285 C1284 1.327 . S
C1285 C1289 1.429 . S
C1286 C1269 1.574 . S
C1286 H1280 0.949 . S
C1286 C1290 1.368 . S
C1287 C1268 1.429 . S
C1287 C1281 1.429 . S
C1287 C1288 1.523 . S
C1288 C1269 1.368 . S
C1288 C1282 1.368 . S
C1288 C1287 1.523 . S
C1289 C1273 1.429 . S
C1289 C1285 1.429 . S
C1289 C1290 1.523 . S
C1290 C1274 1.368 . S
C1290 C1286 1.368 . S
C1290 C1289 1.523 . S
H1291 C1266 0.950 . S
H1292 C1268 0.950 . S
H1293 C1269 0.949 . S
H1294 C1271 0.950 . S
H1295 C1273 0.950 . S
C1296 C1297 1.349 . S
C1296 C1298 1.327 . S
C1296 H1321 0.950 . S
C1297 C1296 1.349 . S
C1297 C1313 1.349 . S
C1298 C1296 1.327 . S
C1298 C1317 1.429 . S
C1298 H1322 0.950 . S
C1299 C1316 1.574 . S
C1299 C1318 1.368 . S
C1299 H1323 0.949 . S
H1300 C1304 0.949 . S
C1301 C1302 1.349 . S
C1301 C1303 1.327 . S
C1301 H1324 0.950 . S
C1302 C1301 1.349 . S
C1302 C1314 1.349 . S
C1303 C1301 1.327 . S
C1303 C1319 1.429 . S
C1303 H1325 0.950 . S
C1304 H1300 0.949 . S
C1304 C1312 1.574 . S
C1304 C1320 1.368 . S
H1305 C1313 0.950 . S
H1306 C1311 0.950 . S
H1307 C1312 0.949 . S
H1308 C1314 0.950 . S
H1309 C1315 0.950 . S
H1310 C1316 0.949 . S
C1311 H1306 0.950 . S
C1311 C1313 1.327 . S
C1311 C1317 1.429 . S
C1312 C1304 1.574 . S
C1312 H1307 0.949 . S
C1312 C1318 1.368 . S
C1313 C1297 1.349 . S
C1313 H1305 0.950 . S
C1313 C1311 1.327 . S
C1314 C1302 1.349 . S
C1314 H1308 0.950 . S
C1314 C1315 1.327 . S
C1315 H1309 0.950 . S
C1315 C1314 1.327 . S
C1315 C1319 1.429 . S
C1316 C1299 1.574 . S
C1316 H1310 0.949 . S
C1316 C1320 1.368 . S
C1317 C1298 1.429 . S
C1317 C1311 1.429 . S
C1317 C1318 1.523 . S
C1318 C1299 1.368 . S
C1318 C1312 1.368 . S
C1318 C1317 1.523 . S
C1319 C1303 1.429 . S
C1319 C1315 1.429 . S
C1319 C1320 1.523 . S
C1320 C1304 1.368 . S
C1320 C1316 1.368 . S
C1320 C1319 1.523 . S
H1321 C1296 0.950 . S
H1322 C1298 0.950 . S
H1323 C1299 0.949 . S
H1324 C1301 0.950 . S
H1325 C1303 0.950 . S
C1326 C1327 1.349 . S
C1326 C1328 1.327 . S
C1326 H1351 0.950 . S
C1327 C1326 1.349 . S
C1327 C1343 1.349 . S
C1328 C1326 1.327 . S
C1328 C1347 1.429 . S
C1328 H1352 0.950 . S
C1329 C1346 1.574 . S
C1329 C1348 1.368 . S
C1329 H1353 0.949 . S
H1330 C1334 0.949 . S
C1331 C1332 1.349 . S
C1331 C1333 1.327 . S
C1331 H1354 0.950 . S
C1332 C1331 1.349 . S
C1332 C1344 1.349 . S
C1333 C1331 1.327 . S
C1333 C1349 1.429 . S
C1333 H1355 0.950 . S
C1334 H1330 0.949 . S
C1334 C1342 1.574 . S
C1334 C1350 1.368 . S
H1335 C1343 0.950 . S
H1336 C1341 0.950 . S
H1337 C1342 0.949 . S
H1338 C1344 0.950 . S
H1339 C1345 0.950 . S
H1340 C1346 0.949 . S
C1341 H1336 0.950 . S
C1341 C1343 1.327 . S
C1341 C1347 1.429 . S
C1342 C1334 1.574 . S
C1342 H1337 0.949 . S
C1342 C1348 1.368 . S
C1343 C1327 1.349 . S
C1343 H1335 0.950 . S
C1343 C1341 1.327 . S
C1344 C1332 1.349 . S
C1344 H1338 0.950 . S
C1344 C1345 1.327 . S
C1345 H1339 0.950 . S
C1345 C1344 1.327 . S
C1345 C1349 1.429 . S
C1346 C1329 1.574 . S
C1346 H1340 0.949 . S
C1346 C1350 1.368 . S
C1347 C1328 1.429 . S
C1347 C1341 1.429 . S
C1347 C1348 1.523 . S
C1348 C1329 1.368 . S
C1348 C1342 1.368 . S
C1348 C1347 1.523 . S
C1349 C1333 1.429 . S
C1349 C1345 1.429 . S
C1349 C1350 1.523 . S
C1350 C1334 1.368 . S
C1350 C1346 1.368 . S
C1350 C1349 1.523 . S
H1351 C1326 0.950 . S
H1352 C1328 0.950 . S
H1353 C1329 0.949 . S
H1354 C1331 0.950 . S
H1355 C1333 0.950 . S
C1356 C1357 1.349 . S
C1356 C1358 1.327 . S
C1356 H1381 0.950 . S
C1357 C1356 1.349 . S
C1357 C1373 1.349 . S
C1358 C1356 1.327 . S
C1358 C1377 1.429 . S
C1358 H1382 0.950 . S
C1359 C1376 1.574 . S
C1359 C1378 1.368 . S
C1359 H1383 0.949 . S
H1360 C1364 0.949 . S
C1361 C1362 1.349 . S
C1361 C1363 1.327 . S
C1361 H1384 0.950 . S
C1362 C1361 1.349 . S
C1362 C1374 1.349 . S
C1363 C1361 1.327 . S
C1363 C1379 1.429 . S
C1363 H1385 0.950 . S
C1364 H1360 0.949 . S
C1364 C1372 1.574 . S
C1364 C1380 1.368 . S
H1365 C1373 0.950 . S
H1366 C1371 0.950 . S
H1367 C1372 0.949 . S
H1368 C1374 0.950 . S
H1369 C1375 0.950 . S
H1370 C1376 0.949 . S
C1371 H1366 0.950 . S
C1371 C1373 1.327 . S
C1371 C1377 1.429 . S
C1372 C1364 1.574 . S
C1372 H1367 0.949 . S
C1372 C1378 1.368 . S
C1373 C1357 1.349 . S
C1373 H1365 0.950 . S
C1373 C1371 1.327 . S
C1374 C1362 1.349 . S
C1374 H1368 0.950 . S
C1374 C1375 1.327 . S
C1375 H1369 0.950 . S
C1375 C1374 1.327 . S
C1375 C1379 1.429 . S
C1376 C1359 1.574 . S
C1376 H1370 0.949 . S
C1376 C1380 1.368 . S
C1377 C1358 1.429 . S
C1377 C1371 1.429 . S
C1377 C1378 1.523 . S
C1378 C1359 1.368 . S
C1378 C1372 1.368 . S
C1378 C1377 1.523 . S
C1379 C1363 1.429 . S
C1379 C1375 1.429 . S
C1379 C1380 1.523 . S
C1380 C1364 1.368 . S
C1380 C1376 1.368 . S
C1380 C1379 1.523 . S
H1381 C1356 0.950 . S
H1382 C1358 0.950 . S
H1383 C1359 0.949 . S
H1384 C1361 0.950 . S
H1385 C1363 0.950 . S
C1386 C1387 1.349 . S
C1386 C1388 1.327 . S
C1386 H1411 0.950 . S
C1387 C1386 1.349 . S
C1387 C1403 1.349 . S
C1388 C1386 1.327 . S
C1388 C1407 1.429 . S
C1388 H1412 0.950 . S
C1389 C1406 1.574 . S
C1389 C1408 1.368 . S
C1389 H1413 0.949 . S
H1390 C1394 0.949 . S
C1391 C1392 1.349 . S
C1391 C1393 1.327 . S
C1391 H1414 0.950 . S
C1392 C1391 1.349 . S
C1392 C1404 1.349 . S
C1393 C1391 1.327 . S
C1393 C1409 1.429 . S
C1393 H1415 0.950 . S
C1394 H1390 0.949 . S
C1394 C1402 1.574 . S
C1394 C1410 1.368 . S
H1395 C1403 0.950 . S
H1396 C1401 0.950 . S
H1397 C1402 0.949 . S
H1398 C1404 0.950 . S
H1399 C1405 0.950 . S
H1400 C1406 0.949 . S
C1401 H1396 0.950 . S
C1401 C1403 1.327 . S
C1401 C1407 1.429 . S
C1402 C1394 1.574 . S
C1402 H1397 0.949 . S
C1402 C1408 1.368 . S
C1403 C1387 1.349 . S
C1403 H1395 0.950 . S
C1403 C1401 1.327 . S
C1404 C1392 1.349 . S
C1404 H1398 0.950 . S
C1404 C1405 1.327 . S
C1405 H1399 0.950 . S
C1405 C1404 1.327 . S
C1405 C1409 1.429 . S
C1406 C1389 1.574 . S
C1406 H1400 0.949 . S
C1406 C1410 1.368 . S
C1407 C1388 1.429 . S
C1407 C1401 1.429 . S
C1407 C1408 1.523 . S
C1408 C1389 1.368 . S
C1408 C1402 1.368 . S
C1408 C1407 1.523 . S
C1409 C1393 1.429 . S
C1409 C1405 1.429 . S
C1409 C1410 1.523 . S
C1410 C1394 1.368 . S
C1410 C1406 1.368 . S
C1410 C1409 1.523 . S
H1411 C1386 0.950 . S
H1412 C1388 0.950 . S
H1413 C1389 0.949 . S
H1414 C1391 0.950 . S
H1415 C1393 0.950 . S
C1416 C1417 1.349 . S
C1416 C1418 1.327 . S
C1416 H1441 0.950 . S
C1417 C1416 1.349 . S
C1417 C1433 1.349 . S
C1418 C1416 1.327 . S
C1418 C1437 1.429 . S
C1418 H1442 0.950 . S
C1419 C1436 1.574 . S
C1419 C1438 1.368 . S
C1419 H1443 0.949 . S
H1420 C1424 0.949 . S
C1421 C1422 1.349 . S
C1421 C1423 1.327 . S
C1421 H1444 0.950 . S
C1422 C1421 1.349 . S
C1422 C1434 1.349 . S
C1423 C1421 1.327 . S
C1423 C1439 1.429 . S
C1423 H1445 0.950 . S
C1424 H1420 0.949 . S
C1424 C1432 1.574 . S
C1424 C1440 1.368 . S
H1425 C1433 0.950 . S
H1426 C1431 0.950 . S
H1427 C1432 0.949 . S
H1428 C1434 0.950 . S
H1429 C1435 0.950 . S
H1430 C1436 0.949 . S
C1431 H1426 0.950 . S
C1431 C1433 1.327 . S
C1431 C1437 1.429 . S
C1432 C1424 1.574 . S
C1432 H1427 0.949 . S
C1432 C1438 1.368 . S
C1433 C1417 1.349 . S
C1433 H1425 0.950 . S
C1433 C1431 1.327 . S
C1434 C1422 1.349 . S
C1434 H1428 0.950 . S
C1434 C1435 1.327 . S
C1435 H1429 0.950 . S
C1435 C1434 1.327 . S
C1435 C1439 1.429 . S
C1436 C1419 1.574 . S
C1436 H1430 0.949 . S
C1436 C1440 1.368 . S
C1437 C1418 1.429 . S
C1437 C1431 1.429 . S
C1437 C1438 1.523 . S
C1438 C1419 1.368 . S
C1438 C1432 1.368 . S
C1438 C1437 1.523 . S
C1439 C1423 1.429 . S
C1439 C1435 1.429 . S
C1439 C1440 1.523 . S
C1440 C1424 1.368 . S
C1440 C1436 1.368 . S
C1440 C1439 1.523 . S
H1441 C1416 0.950 . S
H1442 C1418 0.950 . S
H1443 C1419 0.949 . S
H1444 C1421 0.950 . S
H1445 C1423 0.950 . S
C1446 C1447 1.349 . S
C1446 C1448 1.327 . S
C1446 H1471 0.950 . S
C1447 C1446 1.349 . S
C1447 C1463 1.349 . S
C1448 C1446 1.327 . S
C1448 C1467 1.429 . S
C1448 H1472 0.950 . S
C1449 C1466 1.574 . S
C1449 C1468 1.368 . S
C1449 H1473 0.949 . S
H1450 C1454 0.949 . S
C1451 C1452 1.349 . S
C1451 C1453 1.327 . S
C1451 H1474 0.950 . S
C1452 C1451 1.349 . S
C1452 C1464 1.349 . S
C1453 C1451 1.327 . S
C1453 C1469 1.429 . S
C1453 H1475 0.950 . S
C1454 H1450 0.949 . S
C1454 C1462 1.574 . S
C1454 C1470 1.368 . S
H1455 C1463 0.950 . S
H1456 C1461 0.950 . S
H1457 C1462 0.949 . S
H1458 C1464 0.950 . S
H1459 C1465 0.950 . S
H1460 C1466 0.949 . S
C1461 H1456 0.950 . S
C1461 C1463 1.327 . S
C1461 C1467 1.429 . S
C1462 C1454 1.574 . S
C1462 H1457 0.949 . S
C1462 C1468 1.368 . S
C1463 C1447 1.349 . S
C1463 H1455 0.950 . S
C1463 C1461 1.327 . S
C1464 C1452 1.349 . S
C1464 H1458 0.950 . S
C1464 C1465 1.327 . S
C1465 H1459 0.950 . S
C1465 C1464 1.327 . S
C1465 C1469 1.429 . S
C1466 C1449 1.574 . S
C1466 H1460 0.949 . S
C1466 C1470 1.368 . S
C1467 C1448 1.429 . S
C1467 C1461 1.429 . S
C1467 C1468 1.523 . S
C1468 C1449 1.368 . S
C1468 C1462 1.368 . S
C1468 C1467 1.523 . S
C1469 C1453 1.429 . S
C1469 C1465 1.429 . S
C1469 C1470 1.523 . S
C1470 C1454 1.368 . S
C1470 C1466 1.368 . S
C1470 C1469 1.523 . S
H1471 C1446 0.950 . S
H1472 C1448 0.950 . S
H1473 C1449 0.949 . S
H1474 C1451 0.950 . S
H1475 C1453 0.950 . S
C1476 C1477 1.349 . S
C1476 C1478 1.327 . S
C1476 H1501 0.950 . S
C1477 C1476 1.349 . S
C1477 C1493 1.349 . S
C1478 C1476 1.327 . S
C1478 C1497 1.429 . S
C1478 H1502 0.950 . S
C1479 C1496 1.574 . S
C1479 C1498 1.368 . S
C1479 H1503 0.949 . S
H1480 C1484 0.949 . S
C1481 C1482 1.349 . S
C1481 C1483 1.327 . S
C1481 H1504 0.950 . S
C1482 C1481 1.349 . S
C1482 C1494 1.349 . S
C1483 C1481 1.327 . S
C1483 C1499 1.429 . S
C1483 H1505 0.950 . S
C1484 H1480 0.949 . S
C1484 C1492 1.574 . S
C1484 C1500 1.368 . S
H1485 C1493 0.950 . S
H1486 C1491 0.950 . S
H1487 C1492 0.949 . S
H1488 C1494 0.950 . S
H1489 C1495 0.950 . S
H1490 C1496 0.949 . S
C1491 H1486 0.950 . S
C1491 C1493 1.327 . S
C1491 C1497 1.429 . S
C1492 C1484 1.574 . S
C1492 H1487 0.949 . S
C1492 C1498 1.368 . S
C1493 C1477 1.349 . S
C1493 H1485 0.950 . S
C1493 C1491 1.327 . S
C1494 C1482 1.349 . S
C1494 H1488 0.950 . S
C1494 C1495 1.327 . S
C1495 H1489 0.950 . S
C1495 C1494 1.327 . S
C1495 C1499 1.429 . S
C1496 C1479 1.574 . S
C1496 H1490 0.949 . S
C1496 C1500 1.368 . S
C1497 C1478 1.429 . S
C1497 C1491 1.429 . S
C1497 C1498 1.523 . S
C1498 C1479 1.368 . S
C1498 C1492 1.368 . S
C1498 C1497 1.523 . S
C1499 C1483 1.429 . S
C1499 C1495 1.429 . S
C1499 C1500 1.523 . S
C1500 C1484 1.368 . S
C1500 C1496 1.368 . S
C1500 C1499 1.523 . S
H1501 C1476 0.950 . S
H1502 C1478 0.950 . S
H1503 C1479 0.949 . S
H1504 C1481 0.950 . S
H1505 C1483 0.950 . S
C1506 C1507 1.349 . S
C1506 C1508 1.327 . S
C1506 H1531 0.950 . S
C1507 C1506 1.349 . S
C1507 C1523 1.349 . S
C1508 C1506 1.327 . S
C1508 C1527 1.429 . S
C1508 H1532 0.950 . S
C1509 C1526 1.574 . S
C1509 C1528 1.368 . S
C1509 H1533 0.949 . S
H1510 C1514 0.949 . S
C1511 C1512 1.349 . S
C1511 C1513 1.327 . S
C1511 H1534 0.950 . S
C1512 C1511 1.349 . S
C1512 C1524 1.349 . S
C1513 C1511 1.327 . S
C1513 C1529 1.429 . S
C1513 H1535 0.950 . S
C1514 H1510 0.949 . S
C1514 C1522 1.574 . S
C1514 C1530 1.368 . S
H1515 C1523 0.950 . S
H1516 C1521 0.950 . S
H1517 C1522 0.949 . S
H1518 C1524 0.950 . S
H1519 C1525 0.950 . S
H1520 C1526 0.949 . S
C1521 H1516 0.950 . S
C1521 C1523 1.327 . S
C1521 C1527 1.429 . S
C1522 C1514 1.574 . S
C1522 H1517 0.949 . S
C1522 C1528 1.368 . S
C1523 C1507 1.349 . S
C1523 H1515 0.950 . S
C1523 C1521 1.327 . S
C1524 C1512 1.349 . S
C1524 H1518 0.950 . S
C1524 C1525 1.327 . S
C1525 H1519 0.950 . S
C1525 C1524 1.327 . S
C1525 C1529 1.429 . S
C1526 C1509 1.574 . S
C1526 H1520 0.949 . S
C1526 C1530 1.368 . S
C1527 C1508 1.429 . S
C1527 C1521 1.429 . S
C1527 C1528 1.523 . S
C1528 C1509 1.368 . S
C1528 C1522 1.368 . S
C1528 C1527 1.523 . S
C1529 C1513 1.429 . S
C1529 C1525 1.429 . S
C1529 C1530 1.523 . S
C1530 C1514 1.368 . S
C1530 C1526 1.368 . S
C1530 C1529 1.523 . S
H1531 C1506 0.950 . S
H1532 C1508 0.950 . S
H1533 C1509 0.949 . S
H1534 C1511 0.950 . S
H1535 C1513 0.950 . S
C1536 C1537 1.349 . S
C1536 C1538 1.327 . S
C1536 H1561 0.950 . S
C1537 C1536 1.349 . S
C1537 C1553 1.349 . S
C1538 C1536 1.327 . S
C1538 C1557 1.429 . S
C1538 H1562 0.950 . S
C1539 C1556 1.574 . S
C1539 C1558 1.368 . S
C1539 H1563 0.949 . S
H1540 C1544 0.949 . S
C1541 C1542 1.349 . S
C1541 C1543 1.327 . S
C1541 H1564 0.950 . S
C1542 C1541 1.349 . S
C1542 C1554 1.349 . S
C1543 C1541 1.327 . S
C1543 C1559 1.429 . S
C1543 H1565 0.950 . S
C1544 H1540 0.949 . S
C1544 C1552 1.574 . S
C1544 C1560 1.368 . S
H1545 C1553 0.950 . S
H1546 C1551 0.950 . S
H1547 C1552 0.949 . S
H1548 C1554 0.950 . S
H1549 C1555 0.950 . S
H1550 C1556 0.949 . S
C1551 H1546 0.950 . S
C1551 C1553 1.327 . S
C1551 C1557 1.429 . S
C1552 C1544 1.574 . S
C1552 H1547 0.949 . S
C1552 C1558 1.368 . S
C1553 C1537 1.349 . S
C1553 H1545 0.950 . S
C1553 C1551 1.327 . S
C1554 C1542 1.349 . S
C1554 H1548 0.950 . S
C1554 C1555 1.327 . S
C1555 H1549 0.950 . S
C1555 C1554 1.327 . S
C1555 C1559 1.429 . S
C1556 C1539 1.574 . S
C1556 H1550 0.949 . S
C1556 C1560 1.368 . S
C1557 C1538 1.429 . S
C1557 C1551 1.429 . S
C1557 C1558 1.523 . S
C1558 C1539 1.368 . S
C1558 C1552 1.368 . S
C1558 C1557 1.523 . S
C1559 C1543 1.429 . S
C1559 C1555 1.429 . S
C1559 C1560 1.523 . S
C1560 C1544 1.368 . S
C1560 C1556 1.368 . S
C1560 C1559 1.523 . S
H1561 C1536 0.950 . S
H1562 C1538 0.950 . S
H1563 C1539 0.949 . S
H1564 C1541 0.950 . S
H1565 C1543 0.950 . S
C1566 C1567 1.349 . S
C1566 C1568 1.327 . S
C1566 H1591 0.950 . S
C1567 C1566 1.349 . S
C1567 C1583 1.349 . S
C1568 C1566 1.327 . S
C1568 C1587 1.429 . S
C1568 H1592 0.950 . S
C1569 C1586 1.574 . S
C1569 C1588 1.368 . S
C1569 H1593 0.949 . S
H1570 C1574 0.949 . S
C1571 C1572 1.349 . S
C1571 C1573 1.327 . S
C1571 H1594 0.950 . S
C1572 C1571 1.349 . S
C1572 C1584 1.349 . S
C1573 C1571 1.327 . S
C1573 C1589 1.429 . S
C1573 H1595 0.950 . S
C1574 H1570 0.949 . S
C1574 C1582 1.574 . S
C1574 C1590 1.368 . S
H1575 C1583 0.950 . S
H1576 C1581 0.950 . S
H1577 C1582 0.949 . S
H1578 C1584 0.950 . S
H1579 C1585 0.950 . S
H1580 C1586 0.949 . S
C1581 H1576 0.950 . S
C1581 C1583 1.327 . S
C1581 C1587 1.429 . S
C1582 C1574 1.574 . S
C1582 H1577 0.949 . S
C1582 C1588 1.368 . S
C1583 C1567 1.349 . S
C1583 H1575 0.950 . S
C1583 C1581 1.327 . S
C1584 C1572 1.349 . S
C1584 H1578 0.950 . S
C1584 C1585 1.327 . S
C1585 H1579 0.950 . S
C1585 C1584 1.327 . S
C1585 C1589 1.429 . S
C1586 C1569 1.574 . S
C1586 H1580 0.949 . S
C1586 C1590 1.368 . S
C1587 C1568 1.429 . S
C1587 C1581 1.429 . S
C1587 C1588 1.523 . S
C1588 C1569 1.368 . S
C1588 C1582 1.368 . S
C1588 C1587 1.523 . S
C1589 C1573 1.429 . S
C1589 C1585 1.429 . S
C1589 C1590 1.523 . S
C1590 C1574 1.368 . S
C1590 C1586 1.368 . S
C1590 C1589 1.523 . S
H1591 C1566 0.950 . S
H1592 C1568 0.950 . S
H1593 C1569 0.949 . S
H1594 C1571 0.950 . S
H1595 C1573 0.950 . S
C1596 C1597 1.349 . S
C1596 C1598 1.327 . S
C1596 H1621 0.950 . S
C1597 C1596 1.349 . S
C1597 C1613 1.349 . S
C1598 C1596 1.327 . S
C1598 C1617 1.429 . S
C1598 H1622 0.950 . S
C1599 C1616 1.574 . S
C1599 C1618 1.368 . S
C1599 H1623 0.949 . S
H1600 C1604 0.949 . S
C1601 C1602 1.349 . S
C1601 C1603 1.327 . S
C1601 H1624 0.950 . S
C1602 C1601 1.349 . S
C1602 C1614 1.349 . S
C1603 C1601 1.327 . S
C1603 C1619 1.429 . S
C1603 H1625 0.950 . S
C1604 H1600 0.949 . S
C1604 C1612 1.574 . S
C1604 C1620 1.368 . S
H1605 C1613 0.950 . S
H1606 C1611 0.950 . S
H1607 C1612 0.949 . S
H1608 C1614 0.950 . S
H1609 C1615 0.950 . S
H1610 C1616 0.949 . S
C1611 H1606 0.950 . S
C1611 C1613 1.327 . S
C1611 C1617 1.429 . S
C1612 C1604 1.574 . S
C1612 H1607 0.949 . S
C1612 C1618 1.368 . S
C1613 C1597 1.349 . S
C1613 H1605 0.950 . S
C1613 C1611 1.327 . S
C1614 C1602 1.349 . S
C1614 H1608 0.950 . S
C1614 C1615 1.327 . S
C1615 H1609 0.950 . S
C1615 C1614 1.327 . S
C1615 C1619 1.429 . S
C1616 C1599 1.574 . S
C1616 H1610 0.949 . S
C1616 C1620 1.368 . S
C1617 C1598 1.429 . S
C1617 C1611 1.429 . S
C1617 C1618 1.523 . S
C1618 C1599 1.368 . S
C1618 C1612 1.368 . S
C1618 C1617 1.523 . S
C1619 C1603 1.429 . S
C1619 C1615 1.429 . S
C1619 C1620 1.523 . S
C1620 C1604 1.368 . S
C1620 C1616 1.368 . S
C1620 C1619 1.523 . S
H1621 C1596 0.950 . S
H1622 C1598 0.950 . S
H1623 C1599 0.949 . S
H1624 C1601 0.950 . S
H1625 C1603 0.950 . S
C1626 C1627 1.349 . S
C1626 C1628 1.327 . S
C1626 H1651 0.950 . S
C1627 C1626 1.349 . S
C1627 C1643 1.349 . S
C1628 C1626 1.327 . S
C1628 C1647 1.429 . S
C1628 H1652 0.950 . S
C1629 C1646 1.574 . S
C1629 C1648 1.368 . S
C1629 H1653 0.949 . S
H1630 C1634 0.949 . S
C1631 C1632 1.349 . S
C1631 C1633 1.327 . S
C1631 H1654 0.950 . S
C1632 C1631 1.349 . S
C1632 C1644 1.349 . S
C1633 C1631 1.327 . S
C1633 C1649 1.429 . S
C1633 H1655 0.950 . S
C1634 H1630 0.949 . S
C1634 C1642 1.574 . S
C1634 C1650 1.368 . S
H1635 C1643 0.950 . S
H1636 C1641 0.950 . S
H1637 C1642 0.949 . S
H1638 C1644 0.950 . S
H1639 C1645 0.950 . S
H1640 C1646 0.949 . S
C1641 H1636 0.950 . S
C1641 C1643 1.327 . S
C1641 C1647 1.429 . S
C1642 C1634 1.574 . S
C1642 H1637 0.949 . S
C1642 C1648 1.368 . S
C1643 C1627 1.349 . S
C1643 H1635 0.950 . S
C1643 C1641 1.327 . S
C1644 C1632 1.349 . S
C1644 H1638 0.950 . S
C1644 C1645 1.327 . S
C1645 H1639 0.950 . S
C1645 C1644 1.327 . S
C1645 C1649 1.429 . S
C1646 C1629 1.574 . S
C1646 H1640 0.949 . S
C1646 C1650 1.368 . S
C1647 C1628 1.429 . S
C1647 C1641 1.429 . S
C1647 C1648 1.523 . S
C1648 C1629 1.368 . S
C1648 C1642 1.368 . S
C1648 C1647 1.523 . S
C1649 C1633 1.429 . S
C1649 C1645 1.429 . S
C1649 C1650 1.523 . S
C1650 C1634 1.368 . S
C1650 C1646 1.368 . S
C1650 C1649 1.523 . S
H1651 C1626 0.950 . S
H1652 C1628 0.950 . S
H1653 C1629 0.949 . S
H1654 C1631 0.950 . S
H1655 C1633 0.950 . S
C1656 C1657 1.349 . S
C1656 C1658 1.327 . S
C1656 H1681 0.950 . S
C1657 C1656 1.349 . S
C1657 C1673 1.349 . S
C1658 C1656 1.327 . S
C1658 C1677 1.429 . S
C1658 H1682 0.950 . S
C1659 C1676 1.574 . S
C1659 C1678 1.368 . S
C1659 H1683 0.949 . S
H1660 C1664 0.949 . S
C1661 C1662 1.349 . S
C1661 C1663 1.327 . S
C1661 H1684 0.950 . S
C1662 C1661 1.349 . S
C1662 C1674 1.349 . S
C1663 C1661 1.327 . S
C1663 C1679 1.429 . S
C1663 H1685 0.950 . S
C1664 H1660 0.949 . S
C1664 C1672 1.574 . S
C1664 C1680 1.368 . S
H1665 C1673 0.950 . S
H1666 C1671 0.950 . S
H1667 C1672 0.949 . S
H1668 C1674 0.950 . S
H1669 C1675 0.950 . S
H1670 C1676 0.949 . S
C1671 H1666 0.950 . S
C1671 C1673 1.327 . S
C1671 C1677 1.429 . S
C1672 C1664 1.574 . S
C1672 H1667 0.949 . S
C1672 C1678 1.368 . S
C1673 C1657 1.349 . S
C1673 H1665 0.950 . S
C1673 C1671 1.327 . S
C1674 C1662 1.349 . S
C1674 H1668 0.950 . S
C1674 C1675 1.327 . S
C1675 H1669 0.950 . S
C1675 C1674 1.327 . S
C1675 C1679 1.429 . S
C1676 C1659 1.574 . S
C1676 H1670 0.949 . S
C1676 C1680 1.368 . S
C1677 C1658 1.429 . S
C1677 C1671 1.429 . S
C1677 C1678 1.523 . S
C1678 C1659 1.368 . S
C1678 C1672 1.368 . S
C1678 C1677 1.523 . S
C1679 C1663 1.429 . S
C1679 C1675 1.429 . S
C1679 C1680 1.523 . S
C1680 C1664 1.368 . S
C1680 C1676 1.368 . S
C1680 C1679 1.523 . S
H1681 C1656 0.950 . S
H1682 C1658 0.950 . S
H1683 C1659 0.949 . S
H1684 C1661 0.950 . S
H1685 C1663 0.950 . S
C1686 C1687 1.349 . S
C1686 C1688 1.327 . S
C1686 H1711 0.950 . S
C1687 C1686 1.349 . S
C1687 C1703 1.349 . S
C1688 C1686 1.327 . S
C1688 C1707 1.429 . S
C1688 H1712 0.950 . S
C1689 C1706 1.574 . S
C1689 C1708 1.368 . S
C1689 H1713 0.949 . S
H1690 C1694 0.949 . S
C1691 C1692 1.349 . S
C1691 C1693 1.327 . S
C1691 H1714 0.950 . S
C1692 C1691 1.349 . S
C1692 C1704 1.349 . S
C1693 C1691 1.327 . S
C1693 C1709 1.429 . S
C1693 H1715 0.950 . S
C1694 H1690 0.949 . S
C1694 C1702 1.574 . S
C1694 C1710 1.368 . S
H1695 C1703 0.950 . S
H1696 C1701 0.950 . S
H1697 C1702 0.949 . S
H1698 C1704 0.950 . S
H1699 C1705 0.950 . S
H1700 C1706 0.949 . S
C1701 H1696 0.950 . S
C1701 C1703 1.327 . S
C1701 C1707 1.429 . S
C1702 C1694 1.574 . S
C1702 H1697 0.949 . S
C1702 C1708 1.368 . S
C1703 C1687 1.349 . S
C1703 H1695 0.950 . S
C1703 C1701 1.327 . S
C1704 C1692 1.349 . S
C1704 H1698 0.950 . S
C1704 C1705 1.327 . S
C1705 H1699 0.950 . S
C1705 C1704 1.327 . S
C1705 C1709 1.429 . S
C1706 C1689 1.574 . S
C1706 H1700 0.949 . S
C1706 C1710 1.368 . S
C1707 C1688 1.429 . S
C1707 C1701 1.429 . S
C1707 C1708 1.523 . S
C1708 C1689 1.368 . S
C1708 C1702 1.368 . S
C1708 C1707 1.523 . S
C1709 C1693 1.429 . S
C1709 C1705 1.429 . S
C1709 C1710 1.523 . S
C1710 C1694 1.368 . S
C1710 C1706 1.368 . S
C1710 C1709 1.523 . S
H1711 C1686 0.950 . S
H1712 C1688 0.950 . S
H1713 C1689 0.949 . S
H1714 C1691 0.950 . S
H1715 C1693 0.950 . S
C1716 C1717 1.349 . S
C1716 C1718 1.327 . S
C1716 H1741 0.950 . S
C1717 C1716 1.349 . S
C1717 C1733 1.349 . S
C1718 C1716 1.327 . S
C1718 C1737 1.429 . S
C1718 H1742 0.950 . S
C1719 C1736 1.574 . S
C1719 C1738 1.368 . S
C1719 H1743 0.949 . S
H1720 C1724 0.949 . S
C1721 C1722 1.349 . S
C1721 C1723 1.327 . S
C1721 H1744 0.950 . S
C1722 C1721 1.349 . S
C1722 C1734 1.349 . S
C1723 C1721 1.327 . S
C1723 C1739 1.429 . S
C1723 H1745 0.950 . S
C1724 H1720 0.949 . S
C1724 C1732 1.574 . S
C1724 C1740 1.368 . S
H1725 C1733 0.950 . S
H1726 C1731 0.950 . S
H1727 C1732 0.949 . S
H1728 C1734 0.950 . S
H1729 C1735 0.950 . S
H1730 C1736 0.949 . S
C1731 H1726 0.950 . S
C1731 C1733 1.327 . S
C1731 C1737 1.429 . S
C1732 C1724 1.574 . S
C1732 H1727 0.949 . S
C1732 C1738 1.368 . S
C1733 C1717 1.349 . S
C1733 H1725 0.950 . S
C1733 C1731 1.327 . S
C1734 C1722 1.349 . S
C1734 H1728 0.950 . S
C1734 C1735 1.327 . S
C1735 H1729 0.950 . S
C1735 C1734 1.327 . S
C1735 C1739 1.429 . S
C1736 C1719 1.574 . S
C1736 H1730 0.949 . S
C1736 C1740 1.368 . S
C1737 C1718 1.429 . S
C1737 C1731 1.429 . S
C1737 C1738 1.523 . S
C1738 C1719 1.368 . S
C1738 C1732 1.368 . S
C1738 C1737 1.523 . S
C1739 C1723 1.429 . S
C1739 C1735 1.429 . S
C1739 C1740 1.523 . S
C1740 C1724 1.368 . S
C1740 C1736 1.368 . S
C1740 C1739 1.523 . S
H1741 C1716 0.950 . S
H1742 C1718 0.950 . S
H1743 C1719 0.949 . S
H1744 C1721 0.950 . S
H1745 C1723 0.950 . S
C1746 C1747 1.349 . S
C1746 C1748 1.327 . S
C1746 H1771 0.950 . S
C1747 C1746 1.349 . S
C1747 C1763 1.349 . S
C1748 C1746 1.327 . S
C1748 C1767 1.429 . S
C1748 H1772 0.950 . S
C1749 C1766 1.574 . S
C1749 C1768 1.368 . S
C1749 H1773 0.949 . S
H1750 C1754 0.949 . S
C1751 C1752 1.349 . S
C1751 C1753 1.327 . S
C1751 H1774 0.950 . S
C1752 C1751 1.349 . S
C1752 C1764 1.349 . S
C1753 C1751 1.327 . S
C1753 C1769 1.429 . S
C1753 H1775 0.950 . S
C1754 H1750 0.949 . S
C1754 C1762 1.574 . S
C1754 C1770 1.368 . S
H1755 C1763 0.950 . S
H1756 C1761 0.950 . S
H1757 C1762 0.949 . S
H1758 C1764 0.950 . S
H1759 C1765 0.950 . S
H1760 C1766 0.949 . S
C1761 H1756 0.950 . S
C1761 C1763 1.327 . S
C1761 C1767 1.429 . S
C1762 C1754 1.574 . S
C1762 H1757 0.949 . S
C1762 C1768 1.368 . S
C1763 C1747 1.349 . S
C1763 H1755 0.950 . S
C1763 C1761 1.327 . S
C1764 C1752 1.349 . S
C1764 H1758 0.950 . S
C1764 C1765 1.327 . S
C1765 H1759 0.950 . S
C1765 C1764 1.327 . S
C1765 C1769 1.429 . S
C1766 C1749 1.574 . S
C1766 H1760 0.949 . S
C1766 C1770 1.368 . S
C1767 C1748 1.429 . S
C1767 C1761 1.429 . S
C1767 C1768 1.523 . S
C1768 C1749 1.368 . S
C1768 C1762 1.368 . S
C1768 C1767 1.523 . S
C1769 C1753 1.429 . S
C1769 C1765 1.429 . S
C1769 C1770 1.523 . S
C1770 C1754 1.368 . S
C1770 C1766 1.368 . S
C1770 C1769 1.523 . S
H1771 C1746 0.950 . S
H1772 C1748 0.950 . S
H1773 C1749 0.949 . S
H1774 C1751 0.950 . S
H1775 C1753 0.950 . S
C1776 C1777 1.349 . S
C1776 C1778 1.327 . S
C1776 H1801 0.950 . S
C1777 C1776 1.349 . S
C1777 C1793 1.349 . S
C1778 C1776 1.327 . S
C1778 C1797 1.429 . S
C1778 H1802 0.950 . S
C1779 C1796 1.574 . S
C1779 C1798 1.368 . S
C1779 H1803 0.949 . S
H1780 C1784 0.949 . S
C1781 C1782 1.349 . S
C1781 C1783 1.327 . S
C1781 H1804 0.950 . S
C1782 C1781 1.349 . S
C1782 C1794 1.349 . S
C1783 C1781 1.327 . S
C1783 C1799 1.429 . S
C1783 H1805 0.950 . S
C1784 H1780 0.949 . S
C1784 C1792 1.574 . S
C1784 C1800 1.368 . S
H1785 C1793 0.950 1_554 S
H1786 C1791 0.950 . S
H1787 C1792 0.949 . S
H1788 C1794 0.950 . S
H1789 C1795 0.950 . S
H1790 C1796 0.949 . S
C1791 H1786 0.950 . S
C1791 C1793 1.327 . S
C1791 C1797 1.429 . S
C1792 C1784 1.574 . S
C1792 H1787 0.949 . S
C1792 C1798 1.368 . S
C1793 C1777 1.349 . S
C1793 H1785 0.950 1_556 S
C1793 C1791 1.327 . S
C1794 C1782 1.349 . S
C1794 H1788 0.950 . S
C1794 C1795 1.327 . S
C1795 H1789 0.950 . S
C1795 C1794 1.327 . S
C1795 C1799 1.429 . S
C1796 C1779 1.574 . S
C1796 H1790 0.949 . S
C1796 C1800 1.368 . S
C1797 C1778 1.429 . S
C1797 C1791 1.429 . S
C1797 C1798 1.523 . S
C1798 C1779 1.368 . S
C1798 C1792 1.368 . S
C1798 C1797 1.523 . S
C1799 C1783 1.429 . S
C1799 C1795 1.429 . S
C1799 C1800 1.523 . S
C1800 C1784 1.368 . S
C1800 C1796 1.368 . S
C1800 C1799 1.523 . S
H1801 C1776 0.950 . S
H1802 C1778 0.950 . S
H1803 C1779 0.949 . S
H1804 C1781 0.950 . S
H1805 C1783 0.950 . S
C1806 C1807 1.349 . S
C1806 C1808 1.327 . S
C1806 H1831 0.950 . S
C1807 C1806 1.349 . S
C1807 C1823 1.349 . S
C1808 C1806 1.327 . S
C1808 C1827 1.429 . S
C1808 H1832 0.950 . S
C1809 C1826 1.574 . S
C1809 C1828 1.368 . S
C1809 H1833 0.949 . S
H1810 C1814 0.949 . S
C1811 C1812 1.349 . S
C1811 C1813 1.327 . S
C1811 H1834 0.950 . S
C1812 C1811 1.349 . S
C1812 C1824 1.349 . S
C1813 C1811 1.327 . S
C1813 C1829 1.429 . S
C1813 H1835 0.950 . S
C1814 H1810 0.949 . S
C1814 C1822 1.574 . S
C1814 C1830 1.368 . S
H1815 C1823 0.950 . S
H1816 C1821 0.950 . S
H1817 C1822 0.949 . S
H1818 C1824 0.950 . S
H1819 C1825 0.950 . S
H1820 C1826 0.949 . S
C1821 H1816 0.950 . S
C1821 C1823 1.327 . S
C1821 C1827 1.429 . S
C1822 C1814 1.574 . S
C1822 H1817 0.949 . S
C1822 C1828 1.368 . S
C1823 C1807 1.349 . S
C1823 H1815 0.950 . S
C1823 C1821 1.327 . S
C1824 C1812 1.349 . S
C1824 H1818 0.950 . S
C1824 C1825 1.327 . S
C1825 H1819 0.950 . S
C1825 C1824 1.327 . S
C1825 C1829 1.429 . S
C1826 C1809 1.574 . S
C1826 H1820 0.949 . S
C1826 C1830 1.368 . S
C1827 C1808 1.429 . S
C1827 C1821 1.429 . S
C1827 C1828 1.523 . S
C1828 C1809 1.368 . S
C1828 C1822 1.368 . S
C1828 C1827 1.523 . S
C1829 C1813 1.429 . S
C1829 C1825 1.429 . S
C1829 C1830 1.523 . S
C1830 C1814 1.368 . S
C1830 C1826 1.368 . S
C1830 C1829 1.523 . S
H1831 C1806 0.950 . S
H1832 C1808 0.950 . S
H1833 C1809 0.949 . S
H1834 C1811 0.950 . S
H1835 C1813 0.950 . S
C1836 C1837 1.349 . S
C1836 C1838 1.327 . S
C1836 H1861 0.950 . S
C1837 C1836 1.349 . S
C1837 C1853 1.349 . S
C1838 C1836 1.327 . S
C1838 C1857 1.429 . S
C1838 H1862 0.950 . S
C1839 C1856 1.574 . S
C1839 C1858 1.368 . S
C1839 H1863 0.949 . S
H1840 C1844 0.949 . S
C1841 C1842 1.349 . S
C1841 C1843 1.327 . S
C1841 H1864 0.950 . S
C1842 C1841 1.349 . S
C1842 C1854 1.349 . S
C1843 C1841 1.327 . S
C1843 C1859 1.429 . S
C1843 H1865 0.950 . S
C1844 H1840 0.949 . S
C1844 C1852 1.574 . S
C1844 C1860 1.368 . S
H1845 C1853 0.950 1_554 S
H1846 C1851 0.950 . S
H1847 C1852 0.949 . S
H1848 C1854 0.950 . S
H1849 C1855 0.950 . S
H1850 C1856 0.949 . S
C1851 H1846 0.950 . S
C1851 C1853 1.327 . S
C1851 C1857 1.429 . S
C1852 C1844 1.574 . S
C1852 H1847 0.949 . S
C1852 C1858 1.368 . S
C1853 C1837 1.349 . S
C1853 H1845 0.950 1_556 S
C1853 C1851 1.327 . S
C1854 C1842 1.349 . S
C1854 H1848 0.950 . S
C1854 C1855 1.327 . S
C1855 H1849 0.950 . S
C1855 C1854 1.327 . S
C1855 C1859 1.429 . S
C1856 C1839 1.574 . S
C1856 H1850 0.949 . S
C1856 C1860 1.368 . S
C1857 C1838 1.429 . S
C1857 C1851 1.429 . S
C1857 C1858 1.523 . S
C1858 C1839 1.368 . S
C1858 C1852 1.368 . S
C1858 C1857 1.523 . S
C1859 C1843 1.429 . S
C1859 C1855 1.429 . S
C1859 C1860 1.523 . S
C1860 C1844 1.368 . S
C1860 C1856 1.368 . S
C1860 C1859 1.523 . S
H1861 C1836 0.950 . S
H1862 C1838 0.950 . S
H1863 C1839 0.949 . S
H1864 C1841 0.950 . S
H1865 C1843 0.950 . S
C1866 C1867 1.349 . S
C1866 C1868 1.327 . S
C1866 H1891 0.959 . S
C1867 C1866 1.349 . S
C1867 C1883 1.349 . S
C1868 C1866 1.327 . S
C1868 C1887 1.429 . S
C1868 H1892 0.950 . S
C1869 C1886 1.574 . S
C1869 C1888 1.368 . S
C1869 H1893 0.949 . S
H1870 C1874 0.949 . S
C1871 C1872 1.349 . S
C1871 C1873 1.327 . S
C1871 H1894 0.950 . S
C1872 C1871 1.349 . S
C1872 C1884 1.349 . S
C1873 C1871 1.327 . S
C1873 C1889 1.429 . S
C1873 H1895 0.950 . S
C1874 H1870 0.949 . S
C1874 C1882 1.574 . S
C1874 C1890 1.368 . S
H1875 C1883 0.950 . S
H1876 C1881 0.950 . S
H1877 C1882 0.949 . S
H1878 C1884 0.950 . S
H1879 C1885 0.950 . S
H1880 C1886 0.949 . S
C1881 H1876 0.950 . S
C1881 C1883 1.327 . S
C1881 C1887 1.429 . S
C1882 C1874 1.574 . S
C1882 H1877 0.949 . S
C1882 C1888 1.368 . S
C1883 C1867 1.349 . S
C1883 H1875 0.950 . S
C1883 C1881 1.327 . S
C1884 C1872 1.349 . S
C1884 H1878 0.950 . S
C1884 C1885 1.327 . S
C1885 H1879 0.950 . S
C1885 C1884 1.327 . S
C1885 C1889 1.429 . S
C1886 C1869 1.574 . S
C1886 H1880 0.949 . S
C1886 C1890 1.368 . S
C1887 C1868 1.429 . S
C1887 C1881 1.429 . S
C1887 C1888 1.523 . S
C1888 C1869 1.368 . S
C1888 C1882 1.368 . S
C1888 C1887 1.523 . S
C1889 C1873 1.429 . S
C1889 C1885 1.429 . S
C1889 C1890 1.523 . S
C1890 C1874 1.368 . S
C1890 C1886 1.368 . S
C1890 C1889 1.523 . S
H1891 C1866 0.959 . S
H1892 C1868 0.950 . S
H1893 C1869 0.949 . S
H1894 C1871 0.950 . S
H1895 C1873 0.950 . S
C1896 C1897 1.349 . S
C1896 C1898 1.327 . S
C1896 H1921 0.950 . S
C1897 C1896 1.349 . S
C1897 C1913 1.349 . S
C1898 C1896 1.327 . S
C1898 C1917 1.429 . S
C1898 H1922 0.950 . S
C1899 C1916 1.574 . S
C1899 C1918 1.368 . S
C1899 H1923 0.949 . S
H1900 C1904 0.949 . S
C1901 C1902 1.349 . S
C1901 C1903 1.327 . S
C1901 H1924 0.950 . S
C1902 C1901 1.349 . S
C1902 C1914 1.349 . S
C1903 C1901 1.327 . S
C1903 C1919 1.429 . S
C1903 H1925 0.950 . S
C1904 H1900 0.949 . S
C1904 C1912 1.574 . S
C1904 C1920 1.368 . S
H1905 C1913 0.950 1_554 S
H1906 C1911 0.950 . S
H1907 C1912 0.949 . S
H1908 C1914 0.950 . S
H1909 C1915 0.950 . S
H1910 C1916 0.949 . S
C1911 H1906 0.950 . S
C1911 C1913 1.327 . S
C1911 C1917 1.429 . S
C1912 C1904 1.574 . S
C1912 H1907 0.949 . S
C1912 C1918 1.368 . S
C1913 C1897 1.349 . S
C1913 H1905 0.950 1_556 S
C1913 C1911 1.327 . S
C1914 C1902 1.349 . S
C1914 H1908 0.950 . S
C1914 C1915 1.327 . S
C1915 H1909 0.950 . S
C1915 C1914 1.327 . S
C1915 C1919 1.429 . S
C1916 C1899 1.574 . S
C1916 H1910 0.949 . S
C1916 C1920 1.368 . S
C1917 C1898 1.429 . S
C1917 C1911 1.429 . S
C1917 C1918 1.523 . S
C1918 C1899 1.368 . S
C1918 C1912 1.368 . S
C1918 C1917 1.523 . S
C1919 C1903 1.429 . S
C1919 C1915 1.429 . S
C1919 C1920 1.523 . S
C1920 C1904 1.368 . S
C1920 C1916 1.368 . S
C1920 C1919 1.523 . S
H1921 C1896 0.950 . S
H1922 C1898 0.950 . S
H1923 C1899 0.949 . S
H1924 C1901 0.950 . S
H1925 C1903 0.950 . S
C1926 C1927 1.349 . S
C1926 C1928 1.327 . S
C1926 H1951 0.950 . S
C1927 C1926 1.349 . S
C1927 C1943 1.349 . S
C1928 C1926 1.327 . S
C1928 C1947 1.429 . S
C1928 H1952 0.950 . S
C1929 C1946 1.574 . S
C1929 C1948 1.368 . S
C1929 H1953 0.949 . S
H1930 C1934 0.949 . S
C1931 C1932 1.349 . S
C1931 C1933 1.327 . S
C1931 H1954 0.950 . S
C1932 C1931 1.349 . S
C1932 C1944 1.349 . S
C1933 C1931 1.327 . S
C1933 C1949 1.429 . S
C1933 H1955 0.950 . S
C1934 H1930 0.949 . S
C1934 C1942 1.574 . S
C1934 C1950 1.368 . S
H1935 C1943 0.950 . S
H1936 C1941 0.950 . S
H1937 C1942 0.949 . S
H1938 C1944 0.950 . S
H1939 C1945 0.950 . S
H1940 C1946 0.949 . S
C1941 H1936 0.950 . S
C1941 C1943 1.327 . S
C1941 C1947 1.429 . S
C1942 C1934 1.574 . S
C1942 H1937 0.949 . S
C1942 C1948 1.368 . S
C1943 C1927 1.349 . S
C1943 H1935 0.950 . S
C1943 C1941 1.327 . S
C1944 C1932 1.349 . S
C1944 H1938 0.950 . S
C1944 C1945 1.327 . S
C1945 H1939 0.950 . S
C1945 C1944 1.327 . S
C1945 C1949 1.429 . S
C1946 C1929 1.574 . S
C1946 H1940 0.949 . S
C1946 C1950 1.368 . S
C1947 C1928 1.429 . S
C1947 C1941 1.429 . S
C1947 C1948 1.523 . S
C1948 C1929 1.368 . S
C1948 C1942 1.368 . S
C1948 C1947 1.523 . S
C1949 C1933 1.429 . S
C1949 C1945 1.429 . S
C1949 C1950 1.523 . S
C1950 C1934 1.368 . S
C1950 C1946 1.368 . S
C1950 C1949 1.523 . S
H1951 C1926 0.950 . S
H1952 C1928 0.950 . S
H1953 C1929 0.949 . S
H1954 C1931 0.950 . S
H1955 C1933 0.950 . S
C1956 C1957 1.349 . S
C1956 C1958 1.327 . S
C1956 H1981 0.950 . S
C1957 C1956 1.349 . S
C1957 C1973 1.349 . S
C1958 C1956 1.327 . S
C1958 C1977 1.429 . S
C1958 H1982 0.950 . S
C1959 C1976 1.574 . S
C1959 C1978 1.368 . S
C1959 H1983 0.949 . S
H1960 C1964 0.949 . S
C1961 C1962 1.349 . S
C1961 C1963 1.327 . S
C1961 H1984 0.950 . S
C1962 C1961 1.349 . S
C1962 C1974 1.349 . S
C1963 C1961 1.327 . S
C1963 C1979 1.429 . S
C1963 H1985 0.950 . S
C1964 H1960 0.949 . S
C1964 C1972 1.574 . S
C1964 C1980 1.368 . S
H1965 C1973 0.950 . S
H1966 C1971 0.950 . S
H1967 C1972 0.949 . S
H1968 C1974 0.950 . S
H1969 C1975 0.950 . S
H1970 C1976 0.949 . S
C1971 H1966 0.950 . S
C1971 C1973 1.327 . S
C1971 C1977 1.429 . S
C1972 C1964 1.574 . S
C1972 H1967 0.949 . S
C1972 C1978 1.368 . S
C1973 C1957 1.349 . S
C1973 H1965 0.950 . S
C1973 C1971 1.327 . S
C1974 C1962 1.349 . S
C1974 H1968 0.950 . S
C1974 C1975 1.327 . S
C1975 H1969 0.950 . S
C1975 C1974 1.327 . S
C1975 C1979 1.429 . S
C1976 C1959 1.574 . S
C1976 H1970 0.949 . S
C1976 C1980 1.368 . S
C1977 C1958 1.429 . S
C1977 C1971 1.429 . S
C1977 C1978 1.523 . S
C1978 C1959 1.368 . S
C1978 C1972 1.368 . S
C1978 C1977 1.523 . S
C1979 C1963 1.429 . S
C1979 C1975 1.429 . S
C1979 C1980 1.523 . S
C1980 C1964 1.368 . S
C1980 C1976 1.368 . S
C1980 C1979 1.523 . S
H1981 C1956 0.950 . S
H1982 C1958 0.950 . S
H1983 C1959 0.949 . S
H1984 C1961 0.950 . S
H1985 C1963 0.950 . S
C1986 C1987 1.349 . S
C1986 C1988 1.327 . S
C1986 H2011 0.950 . S
C1987 C1986 1.349 . S
C1987 C2003 1.349 . S
C1988 C1986 1.327 . S
C1988 C2007 1.429 . S
C1988 H2012 0.950 . S
C1989 C2006 1.574 . S
C1989 C2008 1.368 . S
C1989 H2013 0.949 . S
H1990 C1994 0.949 . S
C1991 C1992 1.349 . S
C1991 C1993 1.327 . S
C1991 H2014 0.950 . S
C1992 C1991 1.349 . S
C1992 C2004 1.349 . S
C1993 C1991 1.327 . S
C1993 C2009 1.429 . S
C1993 H2015 0.950 . S
C1994 H1990 0.949 . S
C1994 C2002 1.574 . S
C1994 C2010 1.368 . S
H1995 C2003 0.950 . S
H1996 C2001 0.950 . S
H1997 C2002 0.949 . S
H1998 C2004 0.950 . S
H1999 C2005 0.950 . S
H2000 C2006 0.949 . S
C2001 H1996 0.950 . S
C2001 C2003 1.327 . S
C2001 C2007 1.429 . S
C2002 C1994 1.574 . S
C2002 H1997 0.949 . S
C2002 C2008 1.368 . S
C2003 C1987 1.349 . S
C2003 H1995 0.950 . S
C2003 C2001 1.327 . S
C2004 C1992 1.349 . S
C2004 H1998 0.950 . S
C2004 C2005 1.327 . S
C2005 H1999 0.950 . S
C2005 C2004 1.327 . S
C2005 C2009 1.429 . S
C2006 C1989 1.574 . S
C2006 H2000 0.949 . S
C2006 C2010 1.368 . S
C2007 C1988 1.429 . S
C2007 C2001 1.429 . S
C2007 C2008 1.523 . S
C2008 C1989 1.368 . S
C2008 C2002 1.368 . S
C2008 C2007 1.523 . S
C2009 C1993 1.429 . S
C2009 C2005 1.429 . S
C2009 C2010 1.523 . S
C2010 C1994 1.368 . S
C2010 C2006 1.368 . S
C2010 C2009 1.523 . S
H2011 C1986 0.950 . S
H2012 C1988 0.950 . S
H2013 C1989 0.949 . S
H2014 C1991 0.950 . S
H2015 C1993 0.950 . S
C2016 C2017 1.349 . S
C2016 C2018 1.327 . S
C2016 H2041 0.950 . S
C2017 C2016 1.349 . S
C2017 C2033 1.349 . S
C2018 C2016 1.327 . S
C2018 C2037 1.429 . S
C2018 H2042 0.950 . S
C2019 C2036 1.574 . S
C2019 C2038 1.368 . S
C2019 H2043 0.949 . S
H2020 C2024 0.949 . S
C2021 C2022 1.349 . S
C2021 C2023 1.327 . S
C2021 H2044 0.950 . S
C2022 C2021 1.349 . S
C2022 C2034 1.349 . S
C2023 C2021 1.327 . S
C2023 C2039 1.429 . S
C2023 H2045 0.950 . S
C2024 H2020 0.949 . S
C2024 C2032 1.574 . S
C2024 C2040 1.368 . S
H2025 C2033 0.950 . S
H2026 C2031 0.950 . S
H2027 C2032 0.949 . S
H2028 C2034 0.950 . S
H2029 C2035 0.950 . S
H2030 C2036 0.949 . S
C2031 H2026 0.950 . S
C2031 C2033 1.327 . S
C2031 C2037 1.429 . S
C2032 C2024 1.574 . S
C2032 H2027 0.949 . S
C2032 C2038 1.368 . S
C2033 C2017 1.349 . S
C2033 H2025 0.950 . S
C2033 C2031 1.327 . S
C2034 C2022 1.349 . S
C2034 H2028 0.950 . S
C2034 C2035 1.327 . S
C2035 H2029 0.950 . S
C2035 C2034 1.327 . S
C2035 C2039 1.429 . S
C2036 C2019 1.574 . S
C2036 H2030 0.949 . S
C2036 C2040 1.368 . S
C2037 C2018 1.429 . S
C2037 C2031 1.429 . S
C2037 C2038 1.523 . S
C2038 C2019 1.368 . S
C2038 C2032 1.368 . S
C2038 C2037 1.523 . S
C2039 C2023 1.429 . S
C2039 C2035 1.429 . S
C2039 C2040 1.523 . S
C2040 C2024 1.368 . S
C2040 C2036 1.368 . S
C2040 C2039 1.523 . S
H2041 C2016 0.950 . S
H2042 C2018 0.950 . S
H2043 C2019 0.949 . S
H2044 C2021 0.950 . S
H2045 C2023 0.950 . S
C2046 C2047 1.349 . S
C2046 C2048 1.327 . S
C2046 H2071 0.950 . S
C2047 C2046 1.349 . S
C2047 C2063 1.349 . S
C2048 C2046 1.327 . S
C2048 C2067 1.429 . S
C2048 H2072 0.950 . S
C2049 C2066 1.574 . S
C2049 C2068 1.368 . S
C2049 H2073 0.949 . S
H2050 C2054 0.949 . S
C2051 C2052 1.349 . S
C2051 C2053 1.327 . S
C2051 H2074 0.950 . S
C2052 C2051 1.349 . S
C2052 C2064 1.349 . S
C2053 C2051 1.327 . S
C2053 C2069 1.429 . S
C2053 H2075 0.950 . S
C2054 H2050 0.949 . S
C2054 C2062 1.574 . S
C2054 C2070 1.368 . S
H2055 C2063 0.950 . S
H2056 C2061 0.950 . S
H2057 C2062 0.949 . S
H2058 C2064 0.950 . S
H2059 C2065 0.950 . S
H2060 C2066 0.949 . S
C2061 H2056 0.950 . S
C2061 C2063 1.327 . S
C2061 C2067 1.429 . S
C2062 C2054 1.574 . S
C2062 H2057 0.949 . S
C2062 C2068 1.368 . S
C2063 C2047 1.349 . S
C2063 H2055 0.950 . S
C2063 C2061 1.327 . S
C2064 C2052 1.349 . S
C2064 H2058 0.950 . S
C2064 C2065 1.327 . S
C2065 H2059 0.950 . S
C2065 C2064 1.327 . S
C2065 C2069 1.429 . S
C2066 C2049 1.574 . S
C2066 H2060 0.949 . S
C2066 C2070 1.368 . S
C2067 C2048 1.429 . S
C2067 C2061 1.429 . S
C2067 C2068 1.523 . S
C2068 C2049 1.368 . S
C2068 C2062 1.368 . S
C2068 C2067 1.523 . S
C2069 C2053 1.429 . S
C2069 C2065 1.429 . S
C2069 C2070 1.523 . S
C2070 C2054 1.368 . S
C2070 C2066 1.368 . S
C2070 C2069 1.523 . S
H2071 C2046 0.950 . S
H2072 C2048 0.950 . S
H2073 C2049 0.949 . S
H2074 C2051 0.950 . S
H2075 C2053 0.950 . S
C2076 C2077 1.349 . S
C2076 C2078 1.327 . S
C2076 H2101 0.950 . S
C2077 C2076 1.349 . S
C2077 C2093 1.349 . S
C2078 C2076 1.327 . S
C2078 C2097 1.429 . S
C2078 H2102 0.950 . S
C2079 C2096 1.574 . S
C2079 C2098 1.368 . S
C2079 H2103 0.949 . S
H2080 C2084 0.949 . S
C2081 C2082 1.349 . S
C2081 C2083 1.327 . S
C2081 H2104 0.950 . S
C2082 C2081 1.349 . S
C2082 C2094 1.349 . S
C2083 C2081 1.327 . S
C2083 C2099 1.429 . S
C2083 H2105 0.950 . S
C2084 H2080 0.949 . S
C2084 C2092 1.574 . S
C2084 C2100 1.368 . S
H2085 C2093 0.950 . S
H2086 C2091 0.950 . S
H2087 C2092 0.949 . S
H2088 C2094 0.950 . S
H2089 C2095 0.950 . S
H2090 C2096 0.949 . S
C2091 H2086 0.950 . S
C2091 C2093 1.327 . S
C2091 C2097 1.429 . S
C2092 C2084 1.574 . S
C2092 H2087 0.949 . S
C2092 C2098 1.368 . S
C2093 C2077 1.349 . S
C2093 H2085 0.950 . S
C2093 C2091 1.327 . S
C2094 C2082 1.349 . S
C2094 H2088 0.950 . S
C2094 C2095 1.327 . S
C2095 H2089 0.950 . S
C2095 C2094 1.327 . S
C2095 C2099 1.429 . S
C2096 C2079 1.574 . S
C2096 H2090 0.949 . S
C2096 C2100 1.368 . S
C2097 C2078 1.429 . S
C2097 C2091 1.429 . S
C2097 C2098 1.523 . S
C2098 C2079 1.368 . S
C2098 C2092 1.368 . S
C2098 C2097 1.523 . S
C2099 C2083 1.429 . S
C2099 C2095 1.429 . S
C2099 C2100 1.523 . S
C2100 C2084 1.368 . S
C2100 C2096 1.368 . S
C2100 C2099 1.523 . S
H2101 C2076 0.950 . S
H2102 C2078 0.950 . S
H2103 C2079 0.949 . S
H2104 C2081 0.950 . S
H2105 C2083 0.950 . S
C2106 C2107 1.349 . S
C2106 C2108 1.327 . S
C2106 H2131 0.950 . S
C2107 C2106 1.349 . S
C2107 C2123 1.293 1_455 S
C2108 C2106 1.327 . S
C2108 C2127 1.429 . S
C2108 H2132 0.950 . S
C2109 C2126 1.574 . S
C2109 C2128 1.368 1_655 S
C2109 H2133 0.949 . S
H2110 C2114 0.949 . S
C2111 C2112 1.349 1_655 S
C2111 C2113 1.327 . S
C2111 H2134 0.950 . S
C2112 C2111 1.349 1_455 S
C2112 C2124 1.349 . S
C2113 C2111 1.327 . S
C2113 C2129 1.429 1_655 S
C2113 H2135 0.950 . S
C2114 H2110 0.949 . S
C2114 C2122 1.574 . S
C2114 C2130 1.368 . S
H2115 C2123 0.971 . S
H2116 C2121 0.950 . S
H2117 C2122 0.949 . S
H2118 C2124 0.950 . S
H2119 C2125 0.950 . S
H2120 C2126 0.949 . S
C2121 H2116 0.950 . S
C2121 C2123 1.369 . S
C2121 C2127 1.429 1_655 S
C2122 C2114 1.574 . S
C2122 H2117 0.949 . S
C2122 C2128 1.368 . S
C2123 C2107 1.293 1_655 S
C2123 H2115 0.971 . S
C2123 C2121 1.369 . S
C2124 C2112 1.349 . S
C2124 H2118 0.950 . S
C2124 C2125 1.327 . S
C2125 H2119 0.950 . S
C2125 C2124 1.327 . S
C2125 C2129 1.429 . S
C2126 C2109 1.574 . S
C2126 H2120 0.949 . S
C2126 C2130 1.368 1_655 S
C2127 C2108 1.429 . S
C2127 C2121 1.429 1_455 S
C2127 C2128 1.523 . S
C2128 C2109 1.368 1_455 S
C2128 C2122 1.368 . S
C2128 C2127 1.523 . S
C2129 C2113 1.429 1_455 S
C2129 C2125 1.429 . S
C2129 C2130 1.523 . S
C2130 C2114 1.368 . S
C2130 C2126 1.368 1_455 S
C2130 C2129 1.523 . S
H2131 C2106 0.950 . S
H2132 C2108 0.950 . S
H2133 C2109 0.949 . S
H2134 C2111 0.950 . S
H2135 C2113 0.950 . S
C2136 C2137 1.349 . S
C2136 C2138 1.327 . S
C2136 H2161 0.950 . S
C2137 C2136 1.349 . S
C2137 C2153 1.349 . S
C2138 C2136 1.327 . S
C2138 C2157 1.429 . S
C2138 H2162 0.950 . S
C2139 C2156 1.574 . S
C2139 C2158 1.368 . S
C2139 H2163 0.949 . S
H2140 C2144 0.949 . S
C2141 C2142 1.349 . S
C2141 C2143 1.327 . S
C2141 H2164 0.950 . S
C2142 C2141 1.349 . S
C2142 C2154 1.349 . S
C2143 C2141 1.327 . S
C2143 C2159 1.429 . S
C2143 H2165 0.950 . S
C2144 H2140 0.949 . S
C2144 C2152 1.574 . S
C2144 C2160 1.368 . S
H2145 C2153 0.950 . S
H2146 C2151 0.950 . S
H2147 C2152 0.949 . S
H2148 C2154 0.950 . S
H2149 C2155 0.950 . S
H2150 C2156 0.949 . S
C2151 H2146 0.950 . S
C2151 C2153 1.327 . S
C2151 C2157 1.429 . S
C2152 C2144 1.574 . S
C2152 H2147 0.949 . S
C2152 C2158 1.368 . S
C2153 C2137 1.349 . S
C2153 H2145 0.950 . S
C2153 C2151 1.327 . S
C2154 C2142 1.349 . S
C2154 H2148 0.950 . S
C2154 C2155 1.327 . S
C2155 H2149 0.950 . S
C2155 C2154 1.327 . S
C2155 C2159 1.429 . S
C2156 C2139 1.574 . S
C2156 H2150 0.949 . S
C2156 C2160 1.368 . S
C2157 C2138 1.429 . S
C2157 C2151 1.429 . S
C2157 C2158 1.523 . S
C2158 C2139 1.368 . S
C2158 C2152 1.368 . S
C2158 C2157 1.523 . S
C2159 C2143 1.429 . S
C2159 C2155 1.429 . S
C2159 C2160 1.523 . S
C2160 C2144 1.368 . S
C2160 C2156 1.368 . S
C2160 C2159 1.523 . S
H2161 C2136 0.950 . S
H2162 C2138 0.950 . S
H2163 C2139 0.949 . S
H2164 C2141 0.950 . S
H2165 C2143 0.950 . S
C2166 C2167 1.349 . S
C2166 C2168 1.327 . S
C2166 H2191 0.950 . S
C2167 C2166 1.349 . S
C2167 C2183 1.349 . S
C2168 C2166 1.327 . S
C2168 C2187 1.429 . S
C2168 H2192 0.950 . S
C2169 C2186 1.602 1_565 S
C2169 C2188 1.372 . S
C2169 H2193 0.929 1_565 S
H2170 C2174 0.949 . S
C2171 C2172 1.349 1_545 S
C2171 C2173 1.327 . S
C2171 H2194 0.950 . S
C2172 C2171 1.349 1_565 S
C2172 C2184 1.349 . S
C2173 C2171 1.327 . S
C2173 C2189 1.429 1_545 S
C2173 H2195 0.950 . S
C2174 H2170 0.949 . S
C2174 C2182 1.574 . S
C2174 C2190 1.368 . S
H2175 C2183 0.925 1_545 S
H2176 C2181 0.950 1_545 S
H2177 C2182 0.949 . S
H2178 C2184 0.950 . S
H2179 C2185 0.950 . S
H2180 C2186 0.949 . S
C2181 H2176 0.950 1_565 S
C2181 C2183 1.327 . S
C2181 C2187 1.429 . S
C2182 C2174 1.574 . S
C2182 H2177 0.949 . S
C2182 C2188 1.368 . S
C2183 C2167 1.349 . S
C2183 H2175 0.925 1_565 S
C2183 C2181 1.327 . S
C2184 C2172 1.349 . S
C2184 H2178 0.950 . S
C2184 C2185 1.327 . S
C2185 H2179 0.950 . S
C2185 C2184 1.327 . S
C2185 C2189 1.429 . S
C2186 C2169 1.602 1_545 S
C2186 H2180 0.949 . S
C2186 C2190 1.363 1_545 S
C2187 C2168 1.429 . S
C2187 C2181 1.429 . S
C2187 C2188 1.523 . S
C2188 C2169 1.372 . S
C2188 C2182 1.368 . S
C2188 C2187 1.523 . S
C2189 C2173 1.429 1_565 S
C2189 C2185 1.429 . S
C2189 C2190 1.523 . S
C2190 C2174 1.368 . S
C2190 C2186 1.363 1_565 S
C2190 C2189 1.523 . S
H2191 C2166 0.950 . S
H2192 C2168 0.950 . S
H2193 C2169 0.929 1_545 S
H2194 C2171 0.950 . S
H2195 C2173 0.950 . S
C2196 C2197 1.349 . S
C2196 C2198 1.327 . S
C2196 H2221 0.950 . S
C2197 C2196 1.349 . S
C2197 C2213 1.349 1_565 S
C2198 C2196 1.327 . S
C2198 C2217 1.429 . S
C2198 H2222 0.950 . S
C2199 C2216 1.574 . S
C2199 C2218 1.368 1_545 S
C2199 H2223 0.949 . S
H2200 C2204 0.949 . S
C2201 C2202 1.350 1_545 S
C2201 C2203 1.327 . S
C2201 H2224 0.950 . S
C2202 C2201 1.350 1_565 S
C2202 C2214 1.346 . S
C2203 C2201 1.327 . S
C2203 C2219 1.429 1_545 S
C2203 H2225 0.950 . S
C2204 H2200 0.949 . S
C2204 C2212 1.574 . S
C2204 C2220 1.368 . S
H2205 C2213 0.950 . S
H2206 C2211 0.950 . S
H2207 C2212 0.949 . S
H2208 C2214 0.950 . S
H2209 C2215 0.950 . S
H2210 C2216 0.949 . S
C2211 H2206 0.950 . S
C2211 C2213 1.327 . S
C2211 C2217 1.429 1_545 S
C2212 C2204 1.574 . S
C2212 H2207 0.949 . S
C2212 C2218 1.368 . S
C2213 C2197 1.349 1_545 S
C2213 H2205 0.950 . S
C2213 C2211 1.327 . S
C2214 C2202 1.346 . S
C2214 H2208 0.950 . S
C2214 C2215 1.327 . S
C2215 H2209 0.950 . S
C2215 C2214 1.327 . S
C2215 C2219 1.429 . S
C2216 C2199 1.574 . S
C2216 H2210 0.949 . S
C2216 C2220 1.368 1_545 S
C2217 C2198 1.429 . S
C2217 C2211 1.429 1_565 S
C2217 C2218 1.523 . S
C2218 C2199 1.368 1_565 S
C2218 C2212 1.368 . S
C2218 C2217 1.523 . S
C2219 C2203 1.429 1_565 S
C2219 C2215 1.429 . S
C2219 C2220 1.523 . S
C2220 C2204 1.368 . S
C2220 C2216 1.368 1_565 S
C2220 C2219 1.523 . S
H2221 C2196 0.950 . S
H2222 C2198 0.950 . S
H2223 C2199 0.949 . S
H2224 C2201 0.950 . S
H2225 C2203 0.950 . S
C2226 C2227 1.353 . S
C2226 C2228 1.334 1_455 S
C2226 H2251 0.939 1_455 S
C2227 C2226 1.353 . S
C2227 C2243 1.349 . S
C2228 C2226 1.334 1_655 S
C2228 C2247 1.429 1_655 S
C2228 H2252 0.950 . S
C2229 C2246 1.574 . S
C2229 C2248 1.368 . S
C2229 H2253 0.949 . S
H2230 C2234 0.949 . S
C2231 C2232 1.348 . S
C2231 C2233 1.327 . S
C2231 H2254 0.950 . S
C2232 C2231 1.348 . S
C2232 C2244 1.352 1_455 S
C2233 C2231 1.327 . S
C2233 C2249 1.429 . S
C2233 H2255 0.950 . S
C2234 H2230 0.949 . S
C2234 C2242 1.574 . S
C2234 C2250 1.368 1_655 S
H2235 C2243 0.950 . S
H2236 C2241 0.950 . S
H2237 C2242 0.949 . S
H2238 C2244 0.950 . S
H2239 C2245 0.950 . S
H2240 C2246 0.949 . S
C2241 H2236 0.950 . S
C2241 C2243 1.327 . S
C2241 C2247 1.429 . S
C2242 C2234 1.574 . S
C2242 H2237 0.949 . S
C2242 C2248 1.368 1_655 S
C2243 C2227 1.349 . S
C2243 H2235 0.950 . S
C2243 C2241 1.327 . S
C2244 C2232 1.352 1_655 S
C2244 H2238 0.950 . S
C2244 C2245 1.327 . S
C2245 H2239 0.950 . S
C2245 C2244 1.327 . S
C2245 C2249 1.429 1_655 S
C2246 C2229 1.574 . S
C2246 H2240 0.949 . S
C2246 C2250 1.368 . S
C2247 C2228 1.429 1_455 S
C2247 C2241 1.429 . S
C2247 C2248 1.523 . S
C2248 C2229 1.368 . S
C2248 C2242 1.368 1_455 S
C2248 C2247 1.523 . S
C2249 C2233 1.429 . S
C2249 C2245 1.429 1_455 S
C2249 C2250 1.523 . S
C2250 C2234 1.368 1_455 S
C2250 C2246 1.368 . S
C2250 C2249 1.523 . S
H2251 C2226 0.939 1_655 S
H2252 C2228 0.950 . S
H2253 C2229 0.949 . S
H2254 C2231 0.950 . S
H2255 C2233 0.950 . S
C2256 C2257 1.349 . S
C2256 C2258 1.327 . S
C2256 H2281 0.950 . S
C2257 C2256 1.349 . S
C2257 C2273 1.349 . S
C2258 C2256 1.327 . S
C2258 C2277 1.429 . S
C2258 H2282 0.950 . S
C2259 C2276 1.574 . S
C2259 C2278 1.368 . S
C2259 H2283 0.949 . S
H2260 C2264 0.949 . S
C2261 C2262 1.349 . S
C2261 C2263 1.327 . S
C2261 H2284 0.950 . S
C2262 C2261 1.349 . S
C2262 C2274 1.349 . S
C2263 C2261 1.327 . S
C2263 C2279 1.429 . S
C2263 H2285 0.950 . S
C2264 H2260 0.949 . S
C2264 C2272 1.574 . S
C2264 C2280 1.368 . S
H2265 C2273 0.950 . S
H2266 C2271 0.950 . S
H2267 C2272 0.949 . S
H2268 C2274 0.950 . S
H2269 C2275 0.950 . S
H2270 C2276 0.949 . S
C2271 H2266 0.950 . S
C2271 C2273 1.327 . S
C2271 C2277 1.429 . S
C2272 C2264 1.574 . S
C2272 H2267 0.949 . S
C2272 C2278 1.368 . S
C2273 C2257 1.349 . S
C2273 H2265 0.950 . S
C2273 C2271 1.327 . S
C2274 C2262 1.349 . S
C2274 H2268 0.950 . S
C2274 C2275 1.327 . S
C2275 H2269 0.950 . S
C2275 C2274 1.327 . S
C2275 C2279 1.429 . S
C2276 C2259 1.574 . S
C2276 H2270 0.949 . S
C2276 C2280 1.368 . S
C2277 C2258 1.429 . S
C2277 C2271 1.429 . S
C2277 C2278 1.523 . S
C2278 C2259 1.368 . S
C2278 C2272 1.368 . S
C2278 C2277 1.523 . S
C2279 C2263 1.429 . S
C2279 C2275 1.429 . S
C2279 C2280 1.523 . S
C2280 C2264 1.368 . S
C2280 C2276 1.368 . S
C2280 C2279 1.523 . S
H2281 C2256 0.950 . S
H2282 C2258 0.950 . S
H2283 C2259 0.949 . S
H2284 C2261 0.950 . S
H2285 C2263 0.950 . S
C2286 C2287 1.349 . S
C2286 C2288 1.327 . S
C2286 H2311 0.950 . S
C2287 C2286 1.349 . S
C2287 C2303 1.349 . S
C2288 C2286 1.327 . S
C2288 C2307 1.429 . S
C2288 H2312 0.950 . S
C2289 C2306 1.574 . S
C2289 C2308 1.368 . S
C2289 H2313 0.949 . S
H2290 C2294 0.949 . S
C2291 C2292 1.349 . S
C2291 C2293 1.327 . S
C2291 H2314 0.950 . S
C2292 C2291 1.349 . S
C2292 C2304 1.349 . S
C2293 C2291 1.327 . S
C2293 C2309 1.429 . S
C2293 H2315 0.950 . S
C2294 H2290 0.949 . S
C2294 C2302 1.574 . S
C2294 C2310 1.368 . S
H2295 C2303 0.950 . S
H2296 C2301 0.950 . S
H2297 C2302 0.949 . S
H2298 C2304 0.950 . S
H2299 C2305 0.950 . S
H2300 C2306 0.949 . S
C2301 H2296 0.950 . S
C2301 C2303 1.327 . S
C2301 C2307 1.429 . S
C2302 C2294 1.574 . S
C2302 H2297 0.949 . S
C2302 C2308 1.368 . S
C2303 C2287 1.349 . S
C2303 H2295 0.950 . S
C2303 C2301 1.327 . S
C2304 C2292 1.349 . S
C2304 H2298 0.950 . S
C2304 C2305 1.327 . S
C2305 H2299 0.950 . S
C2305 C2304 1.327 . S
C2305 C2309 1.429 . S
C2306 C2289 1.574 . S
C2306 H2300 0.949 . S
C2306 C2310 1.368 . S
C2307 C2288 1.429 . S
C2307 C2301 1.429 . S
C2307 C2308 1.523 . S
C2308 C2289 1.368 . S
C2308 C2302 1.368 . S
C2308 C2307 1.523 . S
C2309 C2293 1.429 . S
C2309 C2305 1.429 . S
C2309 C2310 1.523 . S
C2310 C2294 1.368 . S
C2310 C2306 1.368 . S
C2310 C2309 1.523 . S
H2311 C2286 0.950 . S
H2312 C2288 0.950 . S
H2313 C2289 0.949 . S
H2314 C2291 0.950 . S
H2315 C2293 0.950 . S
C2316 C2317 1.349 . S
C2316 C2318 1.327 . S
C2316 H2341 0.950 . S
C2317 C2316 1.349 . S
C2317 C2333 1.349 . S
C2318 C2316 1.327 . S
C2318 C2337 1.429 . S
C2318 H2342 0.950 . S
C2319 C2336 1.574 . S
C2319 C2338 1.368 . S
C2319 H2343 0.949 . S
H2320 C2324 0.949 . S
C2321 C2322 1.349 . S
C2321 C2323 1.327 . S
C2321 H2344 0.950 . S
C2322 C2321 1.349 . S
C2322 C2334 1.349 . S
C2323 C2321 1.327 . S
C2323 C2339 1.429 . S
C2323 H2345 0.950 . S
C2324 H2320 0.949 . S
C2324 C2332 1.574 . S
C2324 C2340 1.368 . S
H2325 C2333 0.950 . S
H2326 C2331 0.950 . S
H2327 C2332 0.949 . S
H2328 C2334 0.950 . S
H2329 C2335 0.950 . S
H2330 C2336 0.949 . S
C2331 H2326 0.950 . S
C2331 C2333 1.327 . S
C2331 C2337 1.429 . S
C2332 C2324 1.574 . S
C2332 H2327 0.949 . S
C2332 C2338 1.368 . S
C2333 C2317 1.349 . S
C2333 H2325 0.950 . S
C2333 C2331 1.327 . S
C2334 C2322 1.349 . S
C2334 H2328 0.950 . S
C2334 C2335 1.327 . S
C2335 H2329 0.950 . S
C2335 C2334 1.327 . S
C2335 C2339 1.429 . S
C2336 C2319 1.574 . S
C2336 H2330 0.949 . S
C2336 C2340 1.368 . S
C2337 C2318 1.429 . S
C2337 C2331 1.429 . S
C2337 C2338 1.523 . S
C2338 C2319 1.368 . S
C2338 C2332 1.368 . S
C2338 C2337 1.523 . S
C2339 C2323 1.429 . S
C2339 C2335 1.429 . S
C2339 C2340 1.523 . S
C2340 C2324 1.368 . S
C2340 C2336 1.368 . S
C2340 C2339 1.523 . S
H2341 C2316 0.950 . S
H2342 C2318 0.950 . S
H2343 C2319 0.949 . S
H2344 C2321 0.950 . S
H2345 C2323 0.950 . S
C2346 C2347 1.349 . S
C2346 C2348 1.327 . S
C2346 H2371 0.950 . S
C2347 C2346 1.349 . S
C2347 C2363 1.349 . S
C2348 C2346 1.327 . S
C2348 C2367 1.429 . S
C2348 H2372 0.950 . S
C2349 C2366 1.574 . S
C2349 C2368 1.368 . S
C2349 H2373 0.949 . S
H2350 C2354 0.949 . S
C2351 C2352 1.349 . S
C2351 C2353 1.327 . S
C2351 H2374 0.950 . S
C2352 C2351 1.349 . S
C2352 C2364 1.349 . S
C2353 C2351 1.327 . S
C2353 C2369 1.429 . S
C2353 H2375 0.950 . S
C2354 H2350 0.949 . S
C2354 C2362 1.574 . S
C2354 C2370 1.368 . S
H2355 C2363 0.950 . S
H2356 C2361 0.950 . S
H2357 C2362 0.949 . S
H2358 C2364 0.950 . S
H2359 C2365 0.950 . S
H2360 C2366 0.949 . S
C2361 H2356 0.950 . S
C2361 C2363 1.327 . S
C2361 C2367 1.429 . S
C2362 C2354 1.574 . S
C2362 H2357 0.949 . S
C2362 C2368 1.368 . S
C2363 C2347 1.349 . S
C2363 H2355 0.950 . S
C2363 C2361 1.327 . S
C2364 C2352 1.349 . S
C2364 H2358 0.950 . S
C2364 C2365 1.327 . S
C2365 H2359 0.950 . S
C2365 C2364 1.327 . S
C2365 C2369 1.429 . S
C2366 C2349 1.574 . S
C2366 H2360 0.949 . S
C2366 C2370 1.368 . S
C2367 C2348 1.429 . S
C2367 C2361 1.429 . S
C2367 C2368 1.523 . S
C2368 C2349 1.368 . S
C2368 C2362 1.368 . S
C2368 C2367 1.523 . S
C2369 C2353 1.429 . S
C2369 C2365 1.429 . S
C2369 C2370 1.523 . S
C2370 C2354 1.368 . S
C2370 C2366 1.368 . S
C2370 C2369 1.523 . S
H2371 C2346 0.950 . S
H2372 C2348 0.950 . S
H2373 C2349 0.949 . S
H2374 C2351 0.950 . S
H2375 C2353 0.950 . S
C2376 C2377 1.346 . S
C2376 C2378 1.289 1_545 S
C2376 H2401 0.951 1_545 S
C2377 C2376 1.346 . S
C2377 C2393 1.349 . S
C2378 C2376 1.289 1_565 S
C2378 C2397 1.399 1_565 S
C2378 H2402 1.024 . S
C2379 C2396 1.574 . S
C2379 C2398 1.368 . S
C2379 H2403 0.949 . S
H2380 C2384 0.949 . S
C2381 C2382 1.349 . S
C2381 C2383 1.327 . S
C2381 H2404 0.950 . S
C2382 C2381 1.349 . S
C2382 C2394 1.349 1_545 S
C2383 C2381 1.327 . S
C2383 C2399 1.429 . S
C2383 H2405 0.950 . S
C2384 H2380 0.949 . S
C2384 C2392 1.574 . S
C2384 C2400 1.368 1_565 S
H2385 C2393 0.950 . S
H2386 C2391 0.950 . S
H2387 C2392 0.949 . S
H2388 C2394 0.950 . S
H2389 C2395 0.950 . S
H2390 C2396 0.949 . S
C2391 H2386 0.950 . S
C2391 C2393 1.327 . S
C2391 C2397 1.429 . S
C2392 C2384 1.574 . S
C2392 H2387 0.949 . S
C2392 C2398 1.368 1_565 S
C2393 C2377 1.349 . S
C2393 H2385 0.950 . S
C2393 C2391 1.327 . S
C2394 C2382 1.349 1_565 S
C2394 H2388 0.950 . S
C2394 C2395 1.327 . S
C2395 H2389 0.950 . S
C2395 C2394 1.327 . S
C2395 C2399 1.429 1_565 S
C2396 C2379 1.574 . S
C2396 H2390 0.949 . S
C2396 C2400 1.368 . S
C2397 C2378 1.399 1_545 S
C2397 C2391 1.429 . S
C2397 C2398 1.523 . S
C2398 C2379 1.368 . S
C2398 C2392 1.368 1_545 S
C2398 C2397 1.523 . S
C2399 C2383 1.429 . S
C2399 C2395 1.429 1_545 S
C2399 C2400 1.523 . S
C2400 C2384 1.368 1_545 S
C2400 C2396 1.368 . S
C2400 C2399 1.523 . S
H2401 C2376 0.951 1_565 S
H2402 C2378 1.024 . S
H2403 C2379 0.949 . S
H2404 C2381 0.950 . S
H2405 C2383 0.950 . S
C2406 C2407 1.349 . S
C2406 C2408 1.327 . S
C2406 H2431 0.950 . S
C2407 C2406 1.349 . S
C2407 C2423 1.349 . S
C2408 C2406 1.327 . S
C2408 C2427 1.429 . S
C2408 H2432 0.950 . S
C2409 C2426 1.574 . S
C2409 C2428 1.368 . S
C2409 H2433 0.949 . S
H2410 C2414 0.938 1_455 S
C2411 C2412 1.349 . S
C2411 C2413 1.327 . S
C2411 H2434 0.950 . S
C2412 C2411 1.349 . S
C2412 C2424 1.356 . S
C2413 C2411 1.327 . S
C2413 C2429 1.429 . S
C2413 H2435 0.950 . S
C2414 H2410 0.938 1_655 S
C2414 C2422 1.574 . S
C2414 C2430 1.368 . S
H2415 C2423 0.950 . S
H2416 C2421 0.950 . S
H2417 C2422 0.978 . S
H2418 C2424 0.947 1_455 S
H2419 C2425 0.906 1_455 S
H2420 C2426 0.949 . S
C2421 H2416 0.950 . S
C2421 C2423 1.327 . S
C2421 C2427 1.429 . S
C2422 C2414 1.574 . S
C2422 H2417 0.978 . S
C2422 C2428 1.368 . S
C2423 C2407 1.349 . S
C2423 H2415 0.950 . S
C2423 C2421 1.327 . S
C2424 C2412 1.356 . S
C2424 H2418 0.947 1_655 S
C2424 C2425 1.354 . S
C2425 H2419 0.906 1_655 S
C2425 C2424 1.354 . S
C2425 C2429 1.444 . S
C2426 C2409 1.574 . S
C2426 H2420 0.949 . S
C2426 C2430 1.368 . S
C2427 C2408 1.429 . S
C2427 C2421 1.429 . S
C2427 C2428 1.523 . S
C2428 C2409 1.368 . S
C2428 C2422 1.368 . S
C2428 C2427 1.523 . S
C2429 C2413 1.429 . S
C2429 C2425 1.444 . S
C2429 C2430 1.523 . S
C2430 C2414 1.368 . S
C2430 C2426 1.368 . S
C2430 C2429 1.523 . S
H2431 C2406 0.950 . S
H2432 C2408 0.950 . S
H2433 C2409 0.949 . S
H2434 C2411 0.950 . S
H2435 C2413 0.950 . S
C2436 C2437 1.349 . S
C2436 C2438 1.327 . S
C2436 H2461 0.950 . S
C2437 C2436 1.349 . S
C2437 C2453 1.349 . S
C2438 C2436 1.327 . S
C2438 C2457 1.429 . S
C2438 H2462 0.950 . S
C2439 C2456 1.574 . S
C2439 C2458 1.368 . S
C2439 H2463 0.949 . S
H2440 C2444 0.949 . S
C2441 C2442 1.349 . S
C2441 C2443 1.327 . S
C2441 H2464 0.950 . S
C2442 C2441 1.349 . S
C2442 C2454 1.349 . S
C2443 C2441 1.327 . S
C2443 C2459 1.429 . S
C2443 H2465 0.950 . S
C2444 H2440 0.949 . S
C2444 C2452 1.574 . S
C2444 C2460 1.368 . S
H2445 C2453 0.950 . S
H2446 C2451 0.950 . S
H2447 C2452 0.949 . S
H2448 C2454 0.950 . S
H2449 C2455 0.950 . S
H2450 C2456 0.949 . S
C2451 H2446 0.950 . S
C2451 C2453 1.327 . S
C2451 C2457 1.429 . S
C2452 C2444 1.574 . S
C2452 H2447 0.949 . S
C2452 C2458 1.368 . S
C2453 C2437 1.349 . S
C2453 H2445 0.950 . S
C2453 C2451 1.327 . S
C2454 C2442 1.349 . S
C2454 H2448 0.950 . S
C2454 C2455 1.327 . S
C2455 H2449 0.950 . S
C2455 C2454 1.327 . S
C2455 C2459 1.429 . S
C2456 C2439 1.574 . S
C2456 H2450 0.949 . S
C2456 C2460 1.368 . S
C2457 C2438 1.429 . S
C2457 C2451 1.429 . S
C2457 C2458 1.523 . S
C2458 C2439 1.368 . S
C2458 C2452 1.368 . S
C2458 C2457 1.523 . S
C2459 C2443 1.429 . S
C2459 C2455 1.429 . S
C2459 C2460 1.523 . S
C2460 C2444 1.368 . S
C2460 C2456 1.368 . S
C2460 C2459 1.523 . S
H2461 C2436 0.950 . S
H2462 C2438 0.950 . S
H2463 C2439 0.949 . S
H2464 C2441 0.950 . S
H2465 C2443 0.950 . S
C2466 C2467 1.349 . S
C2466 C2468 1.327 . S
C2466 H2491 0.950 . S
C2467 C2466 1.349 . S
C2467 C2483 1.349 . S
C2468 C2466 1.327 . S
C2468 C2487 1.429 . S
C2468 H2492 0.950 . S
C2469 C2486 1.574 . S
C2469 C2488 1.368 . S
C2469 H2493 0.949 . S
H2470 C2474 0.949 . S
C2471 C2472 1.349 . S
C2471 C2473 1.327 . S
C2471 H2494 0.950 . S
C2472 C2471 1.349 . S
C2472 C2484 1.349 . S
C2473 C2471 1.327 . S
C2473 C2489 1.429 . S
C2473 H2495 0.950 . S
C2474 H2470 0.949 . S
C2474 C2482 1.574 . S
C2474 C2490 1.368 . S
H2475 C2483 0.950 . S
H2476 C2481 0.950 . S
H2477 C2482 0.949 . S
H2478 C2484 0.950 . S
H2479 C2485 0.950 . S
H2480 C2486 0.949 . S
C2481 H2476 0.950 . S
C2481 C2483 1.327 . S
C2481 C2487 1.429 . S
C2482 C2474 1.574 . S
C2482 H2477 0.949 . S
C2482 C2488 1.368 . S
C2483 C2467 1.349 . S
C2483 H2475 0.950 . S
C2483 C2481 1.327 . S
C2484 C2472 1.349 . S
C2484 H2478 0.950 . S
C2484 C2485 1.327 . S
C2485 H2479 0.950 . S
C2485 C2484 1.327 . S
C2485 C2489 1.429 . S
C2486 C2469 1.574 . S
C2486 H2480 0.949 . S
C2486 C2490 1.368 . S
C2487 C2468 1.429 . S
C2487 C2481 1.429 . S
C2487 C2488 1.523 . S
C2488 C2469 1.368 . S
C2488 C2482 1.368 . S
C2488 C2487 1.523 . S
C2489 C2473 1.429 . S
C2489 C2485 1.429 . S
C2489 C2490 1.523 . S
C2490 C2474 1.368 . S
C2490 C2486 1.368 . S
C2490 C2489 1.523 . S
H2491 C2466 0.950 . S
H2492 C2468 0.950 . S
H2493 C2469 0.949 . S
H2494 C2471 0.950 . S
H2495 C2473 0.950 . S
C2496 C2497 1.349 . S
C2496 C2498 1.327 . S
C2496 H2521 0.950 . S
C2497 C2496 1.349 . S
C2497 C2513 1.349 . S
C2498 C2496 1.327 . S
C2498 C2517 1.429 . S
C2498 H2522 0.950 . S
C2499 C2516 1.574 . S
C2499 C2518 1.368 . S
C2499 H2523 0.949 . S
H2500 C2504 0.949 . S
C2501 C2502 1.349 . S
C2501 C2503 1.327 . S
C2501 H2524 0.950 . S
C2502 C2501 1.349 . S
C2502 C2514 1.349 . S
C2503 C2501 1.327 . S
C2503 C2519 1.429 . S
C2503 H2525 0.950 . S
C2504 H2500 0.949 . S
C2504 C2512 1.574 . S
C2504 C2520 1.368 . S
H2505 C2513 0.950 . S
H2506 C2511 0.950 . S
H2507 C2512 0.949 . S
H2508 C2514 0.950 . S
H2509 C2515 0.950 . S
H2510 C2516 0.949 . S
C2511 H2506 0.950 . S
C2511 C2513 1.327 . S
C2511 C2517 1.429 . S
C2512 C2504 1.574 . S
C2512 H2507 0.949 . S
C2512 C2518 1.368 . S
C2513 C2497 1.349 . S
C2513 H2505 0.950 . S
C2513 C2511 1.327 . S
C2514 C2502 1.349 . S
C2514 H2508 0.950 . S
C2514 C2515 1.327 . S
C2515 H2509 0.950 . S
C2515 C2514 1.327 . S
C2515 C2519 1.429 . S
C2516 C2499 1.574 . S
C2516 H2510 0.949 . S
C2516 C2520 1.368 . S
C2517 C2498 1.429 . S
C2517 C2511 1.429 . S
C2517 C2518 1.523 . S
C2518 C2499 1.368 . S
C2518 C2512 1.368 . S
C2518 C2517 1.523 . S
C2519 C2503 1.429 . S
C2519 C2515 1.429 . S
C2519 C2520 1.523 . S
C2520 C2504 1.368 . S
C2520 C2516 1.368 . S
C2520 C2519 1.523 . S
H2521 C2496 0.950 . S
H2522 C2498 0.950 . S
H2523 C2499 0.949 . S
H2524 C2501 0.950 . S
H2525 C2503 0.950 . S
C2526 C2527 1.349 . S
C2526 C2528 1.327 . S
C2526 H2551 0.950 . S
C2527 C2526 1.349 . S
C2527 C2543 1.349 . S
C2528 C2526 1.327 . S
C2528 C2547 1.429 . S
C2528 H2552 0.950 . S
C2529 C2546 1.574 . S
C2529 C2548 1.368 . S
C2529 H2553 0.949 . S
H2530 C2534 0.949 . S
C2531 C2532 1.349 . S
C2531 C2533 1.327 . S
C2531 H2554 0.950 . S
C2532 C2531 1.349 . S
C2532 C2544 1.349 . S
C2533 C2531 1.327 . S
C2533 C2549 1.429 . S
C2533 H2555 0.950 . S
C2534 H2530 0.949 . S
C2534 C2542 1.574 . S
C2534 C2550 1.368 . S
H2535 C2543 0.950 . S
H2536 C2541 0.950 . S
H2537 C2542 0.949 . S
H2538 C2544 0.950 . S
H2539 C2545 0.950 . S
H2540 C2546 0.949 . S
C2541 H2536 0.950 . S
C2541 C2543 1.327 . S
C2541 C2547 1.429 . S
C2542 C2534 1.574 . S
C2542 H2537 0.949 . S
C2542 C2548 1.368 . S
C2543 C2527 1.349 . S
C2543 H2535 0.950 . S
C2543 C2541 1.327 . S
C2544 C2532 1.349 . S
C2544 H2538 0.950 . S
C2544 C2545 1.327 . S
C2545 H2539 0.950 . S
C2545 C2544 1.327 . S
C2545 C2549 1.429 . S
C2546 C2529 1.574 . S
C2546 H2540 0.949 . S
C2546 C2550 1.368 . S
C2547 C2528 1.429 . S
C2547 C2541 1.429 . S
C2547 C2548 1.523 . S
C2548 C2529 1.368 . S
C2548 C2542 1.368 . S
C2548 C2547 1.523 . S
C2549 C2533 1.429 . S
C2549 C2545 1.429 . S
C2549 C2550 1.523 . S
C2550 C2534 1.368 . S
C2550 C2546 1.368 . S
C2550 C2549 1.523 . S
H2551 C2526 0.950 . S
H2552 C2528 0.950 . S
H2553 C2529 0.949 . S
H2554 C2531 0.950 . S
H2555 C2533 0.950 . S
C2556 C2557 1.349 . S
C2556 C2558 1.327 . S
C2556 H2581 0.950 . S
C2557 C2556 1.349 . S
C2557 C2573 1.349 . S
C2558 C2556 1.327 . S
C2558 C2577 1.429 . S
C2558 H2582 0.950 . S
C2559 C2576 1.574 . S
C2559 C2578 1.368 . S
C2559 H2583 0.949 . S
H2560 C2564 0.949 . S
C2561 C2562 1.349 . S
C2561 C2563 1.327 . S
C2561 H2584 0.950 . S
C2562 C2561 1.349 . S
C2562 C2574 1.349 . S
C2563 C2561 1.327 . S
C2563 C2579 1.429 . S
C2563 H2585 0.950 . S
C2564 H2560 0.949 . S
C2564 C2572 1.574 . S
C2564 C2580 1.368 . S
H2565 C2573 0.950 . S
H2566 C2571 0.950 . S
H2567 C2572 0.949 . S
H2568 C2574 0.950 . S
H2569 C2575 0.950 . S
H2570 C2576 0.949 . S
C2571 H2566 0.950 . S
C2571 C2573 1.327 . S
C2571 C2577 1.429 . S
C2572 C2564 1.574 . S
C2572 H2567 0.949 . S
C2572 C2578 1.368 . S
C2573 C2557 1.349 . S
C2573 H2565 0.950 . S
C2573 C2571 1.327 . S
C2574 C2562 1.349 . S
C2574 H2568 0.950 . S
C2574 C2575 1.327 . S
C2575 H2569 0.950 . S
C2575 C2574 1.327 . S
C2575 C2579 1.429 . S
C2576 C2559 1.574 . S
C2576 H2570 0.949 . S
C2576 C2580 1.368 . S
C2577 C2558 1.429 . S
C2577 C2571 1.429 . S
C2577 C2578 1.523 . S
C2578 C2559 1.368 . S
C2578 C2572 1.368 . S
C2578 C2577 1.523 . S
C2579 C2563 1.429 . S
C2579 C2575 1.429 . S
C2579 C2580 1.523 . S
C2580 C2564 1.368 . S
C2580 C2576 1.368 . S
C2580 C2579 1.523 . S
H2581 C2556 0.950 . S
H2582 C2558 0.950 . S
H2583 C2559 0.949 . S
H2584 C2561 0.950 . S
H2585 C2563 0.950 . S
C2586 C2587 1.349 . S
C2586 C2588 1.327 . S
C2586 H2611 0.950 . S
C2587 C2586 1.349 . S
C2587 C2603 1.349 . S
C2588 C2586 1.327 . S
C2588 C2607 1.429 . S
C2588 H2612 0.950 . S
C2589 C2606 1.574 . S
C2589 C2608 1.368 . S
C2589 H2613 0.949 . S
H2590 C2594 0.949 . S
C2591 C2592 1.349 . S
C2591 C2593 1.327 . S
C2591 H2614 0.950 . S
C2592 C2591 1.349 . S
C2592 C2604 1.349 . S
C2593 C2591 1.327 . S
C2593 C2609 1.429 . S
C2593 H2615 0.950 . S
C2594 H2590 0.949 . S
C2594 C2602 1.574 . S
C2594 C2610 1.368 . S
H2595 C2603 0.950 . S
H2596 C2601 0.950 . S
H2597 C2602 0.949 . S
H2598 C2604 0.950 . S
H2599 C2605 0.950 . S
H2600 C2606 0.949 . S
C2601 H2596 0.950 . S
C2601 C2603 1.327 . S
C2601 C2607 1.429 . S
C2602 C2594 1.574 . S
C2602 H2597 0.949 . S
C2602 C2608 1.368 . S
C2603 C2587 1.349 . S
C2603 H2595 0.950 . S
C2603 C2601 1.327 . S
C2604 C2592 1.349 . S
C2604 H2598 0.950 . S
C2604 C2605 1.327 . S
C2605 H2599 0.950 . S
C2605 C2604 1.327 . S
C2605 C2609 1.429 . S
C2606 C2589 1.574 . S
C2606 H2600 0.949 . S
C2606 C2610 1.368 . S
C2607 C2588 1.429 . S
C2607 C2601 1.429 . S
C2607 C2608 1.523 . S
C2608 C2589 1.368 . S
C2608 C2602 1.368 . S
C2608 C2607 1.523 . S
C2609 C2593 1.429 . S
C2609 C2605 1.429 . S
C2609 C2610 1.523 . S
C2610 C2594 1.368 . S
C2610 C2606 1.368 . S
C2610 C2609 1.523 . S
H2611 C2586 0.950 . S
H2612 C2588 0.950 . S
H2613 C2589 0.949 . S
H2614 C2591 0.950 . S
H2615 C2593 0.950 . S
C2616 C2617 1.349 . S
C2616 C2618 1.327 . S
C2616 H2641 0.950 . S
C2617 C2616 1.349 . S
C2617 C2633 1.349 . S
C2618 C2616 1.327 . S
C2618 C2637 1.429 . S
C2618 H2642 0.950 . S
C2619 C2636 1.574 . S
C2619 C2638 1.368 . S
C2619 H2643 0.949 . S
H2620 C2624 0.949 . S
C2621 C2622 1.349 . S
C2621 C2623 1.327 . S
C2621 H2644 0.950 . S
C2622 C2621 1.349 . S
C2622 C2634 1.349 . S
C2623 C2621 1.327 . S
C2623 C2639 1.429 . S
C2623 H2645 0.950 . S
C2624 H2620 0.949 . S
C2624 C2632 1.574 . S
C2624 C2640 1.368 . S
H2625 C2633 0.950 . S
H2626 C2631 0.950 . S
H2627 C2632 0.949 . S
H2628 C2634 0.950 . S
H2629 C2635 0.950 . S
H2630 C2636 0.949 . S
C2631 H2626 0.950 . S
C2631 C2633 1.327 . S
C2631 C2637 1.429 . S
C2632 C2624 1.574 . S
C2632 H2627 0.949 . S
C2632 C2638 1.368 . S
C2633 C2617 1.349 . S
C2633 H2625 0.950 . S
C2633 C2631 1.327 . S
C2634 C2622 1.349 . S
C2634 H2628 0.950 . S
C2634 C2635 1.327 . S
C2635 H2629 0.950 . S
C2635 C2634 1.327 . S
C2635 C2639 1.429 . S
C2636 C2619 1.574 . S
C2636 H2630 0.949 . S
C2636 C2640 1.368 . S
C2637 C2618 1.429 . S
C2637 C2631 1.429 . S
C2637 C2638 1.523 . S
C2638 C2619 1.368 . S
C2638 C2632 1.368 . S
C2638 C2637 1.523 . S
C2639 C2623 1.429 . S
C2639 C2635 1.429 . S
C2639 C2640 1.523 . S
C2640 C2624 1.368 . S
C2640 C2636 1.368 . S
C2640 C2639 1.523 . S
H2641 C2616 0.950 . S
H2642 C2618 0.950 . S
H2643 C2619 0.949 . S
H2644 C2621 0.950 . S
H2645 C2623 0.950 . S
C2646 C2647 1.349 . S
C2646 C2648 1.327 . S
C2646 H2671 0.950 1_655 S
C2647 C2646 1.349 . S
C2647 C2663 1.349 . S
C2648 C2646 1.327 . S
C2648 C2667 1.429 . S
C2648 H2672 0.950 1_655 S
C2649 C2666 1.574 . S
C2649 C2668 1.368 . S
C2649 H2673 0.949 . S
H2650 C2654 0.949 . S
C2651 C2652 1.355 . S
C2651 C2653 1.327 . S
C2651 H2674 0.950 . S
C2652 C2651 1.355 . S
C2652 C2664 1.347 1_655 S
C2653 C2651 1.327 . S
C2653 C2669 1.429 . S
C2653 H2675 0.950 . S
C2654 H2650 0.949 . S
C2654 C2662 1.574 . S
C2654 C2670 1.368 1_455 S
H2655 C2663 0.950 . S
H2656 C2661 0.950 . S
H2657 C2662 0.949 . S
H2658 C2664 0.950 . S
H2659 C2665 0.950 . S
H2660 C2666 0.949 . S
C2661 H2656 0.950 . S
C2661 C2663 1.327 . S
C2661 C2667 1.429 . S
C2662 C2654 1.574 . S
C2662 H2657 0.949 . S
C2662 C2668 1.368 1_455 S
C2663 C2647 1.349 . S
C2663 H2655 0.950 . S
C2663 C2661 1.327 . S
C2664 C2652 1.347 1_455 S
C2664 H2658 0.950 . S
C2664 C2665 1.327 . S
C2665 H2659 0.950 . S
C2665 C2664 1.327 . S
C2665 C2669 1.429 1_455 S
C2666 C2649 1.574 . S
C2666 H2660 0.949 . S
C2666 C2670 1.368 . S
C2667 C2648 1.429 . S
C2667 C2661 1.429 . S
C2667 C2668 1.523 . S
C2668 C2649 1.368 . S
C2668 C2662 1.368 1_655 S
C2668 C2667 1.523 . S
C2669 C2653 1.429 . S
C2669 C2665 1.429 1_655 S
C2669 C2670 1.523 . S
C2670 C2654 1.368 1_655 S
C2670 C2666 1.368 . S
C2670 C2669 1.523 . S
H2671 C2646 0.950 1_455 S
H2672 C2648 0.950 1_455 S
H2673 C2649 0.949 . S
H2674 C2651 0.950 . S
H2675 C2653 0.950 . S
C2676 C2677 1.349 . S
C2676 C2678 1.327 . S
C2676 H2701 0.950 . S
C2677 C2676 1.349 . S
C2677 C2693 1.349 . S
C2678 C2676 1.327 . S
C2678 C2697 1.429 . S
C2678 H2702 0.950 . S
C2679 C2696 1.574 . S
C2679 C2698 1.368 . S
C2679 H2703 0.949 . S
H2680 C2684 0.949 . S
C2681 C2682 1.349 . S
C2681 C2683 1.327 . S
C2681 H2704 0.950 . S
C2682 C2681 1.349 . S
C2682 C2694 1.349 . S
C2683 C2681 1.327 . S
C2683 C2699 1.429 . S
C2683 H2705 0.950 . S
C2684 H2680 0.949 . S
C2684 C2692 1.574 . S
C2684 C2700 1.368 . S
H2685 C2693 0.950 . S
H2686 C2691 0.950 . S
H2687 C2692 0.949 . S
H2688 C2694 0.950 . S
H2689 C2695 0.950 . S
H2690 C2696 0.949 . S
C2691 H2686 0.950 . S
C2691 C2693 1.327 . S
C2691 C2697 1.429 . S
C2692 C2684 1.574 . S
C2692 H2687 0.949 . S
C2692 C2698 1.368 . S
C2693 C2677 1.349 . S
C2693 H2685 0.950 . S
C2693 C2691 1.327 . S
C2694 C2682 1.349 . S
C2694 H2688 0.950 . S
C2694 C2695 1.327 . S
C2695 H2689 0.950 . S
C2695 C2694 1.327 . S
C2695 C2699 1.429 . S
C2696 C2679 1.574 . S
C2696 H2690 0.949 . S
C2696 C2700 1.368 . S
C2697 C2678 1.429 . S
C2697 C2691 1.429 . S
C2697 C2698 1.523 . S
C2698 C2679 1.368 . S
C2698 C2692 1.368 . S
C2698 C2697 1.523 . S
C2699 C2683 1.429 . S
C2699 C2695 1.429 . S
C2699 C2700 1.523 . S
C2700 C2684 1.368 . S
C2700 C2696 1.368 . S
C2700 C2699 1.523 . S
H2701 C2676 0.950 . S
H2702 C2678 0.950 . S
H2703 C2679 0.949 . S
H2704 C2681 0.950 . S
H2705 C2683 0.950 . S
C2706 C2707 1.349 . S
C2706 C2708 1.327 . S
C2706 H2731 0.950 . S
C2707 C2706 1.349 . S
C2707 C2723 1.349 1_545 S
C2708 C2706 1.327 . S
C2708 C2727 1.429 . S
C2708 H2732 0.950 . S
C2709 C2726 1.574 . S
C2709 C2728 1.368 1_565 S
C2709 H2733 0.949 . S
H2710 C2714 0.949 . S
C2711 C2712 1.352 1_565 S
C2711 C2713 1.327 . S
C2711 H2734 0.950 . S
C2712 C2711 1.352 1_545 S
C2712 C2724 1.347 . S
C2713 C2711 1.327 . S
C2713 C2729 1.429 1_565 S
C2713 H2735 0.950 . S
C2714 H2710 0.949 . S
C2714 C2722 1.574 . S
C2714 C2730 1.368 . S
H2715 C2723 0.950 . S
H2716 C2721 0.950 . S
H2717 C2722 0.949 . S
H2718 C2724 0.950 . S
H2719 C2725 0.950 . S
H2720 C2726 0.949 . S
C2721 H2716 0.950 . S
C2721 C2723 1.327 . S
C2721 C2727 1.429 1_565 S
C2722 C2714 1.574 . S
C2722 H2717 0.949 . S
C2722 C2728 1.368 . S
C2723 C2707 1.349 1_565 S
C2723 H2715 0.950 . S
C2723 C2721 1.327 . S
C2724 C2712 1.347 . S
C2724 H2718 0.950 . S
C2724 C2725 1.327 . S
C2725 H2719 0.950 . S
C2725 C2724 1.327 . S
C2725 C2729 1.429 . S
C2726 C2709 1.574 . S
C2726 H2720 0.949 . S
C2726 C2730 1.368 1_565 S
C2727 C2708 1.429 . S
C2727 C2721 1.429 1_545 S
C2727 C2728 1.523 . S
C2728 C2709 1.368 1_545 S
C2728 C2722 1.368 . S
C2728 C2727 1.523 . S
C2729 C2713 1.429 1_545 S
C2729 C2725 1.429 . S
C2729 C2730 1.523 . S
C2730 C2714 1.368 . S
C2730 C2726 1.368 1_545 S
C2730 C2729 1.523 . S
H2731 C2706 0.950 . S
H2732 C2708 0.950 . S
H2733 C2709 0.949 . S
H2734 C2711 0.950 . S
H2735 C2713 0.950 . S
C577 C8 1.572 . S
C582 C421 1.525 . S
C607 C22 1.555 . S
C612 C446 1.541 . S
C642 C457 1.529 . S
C637 C37 1.542 . S
C667 C36 1.570 . S
C672 C482 1.532 . S
C697 C9 1.544 . S
C702 C500 1.539 . S
C727 C23 1.555 . S
C732 C511 1.535 . S
C757 C50 1.557 . S
C762 C493 1.512 . S
C792 C518 1.529 . S
C787 C64 1.538 . S
C822 C475 1.533 . S
C817 C79 1.519 . S
C847 C78 1.556 . S
C852 C464 1.505 . S
C882 C428 1.552 . S
C877 C51 1.519 . S
C907 C65 1.538 . S
C912 C439 1.527 . S
C937 C92 1.560 . S
C942 C529 1.540 . S
C967 C106 1.562 . S
C972 C554 1.549 . S
C1002 C565 1.537 . S
C997 C121 1.558 . S
C1027 C120 1.553 . S
C1032 C266 1.540 . S
C1057 C93 1.557 . S
C1062 C284 1.544 . S
C1087 C107 1.557 . S
C1092 C295 1.537 . S
C1117 C134 1.535 . S
C1122 C277 1.525 . S
C1147 C148 1.540 . S
C1152 C302 1.531 . S
C1182 C259 1.529 . S
C1177 C163 1.539 . S
C1212 C572 1.536 . S
C1207 C162 1.545 . S
C1242 C536 1.532 . S
C1237 C135 1.541 . S
C1272 C547 1.535 . S
C1267 C149 1.546 . S
C1297 C176 1.552 . S
C1302 C313 1.532 . S
C1327 C190 1.557 . S
C1332 C338 1.544 . S
C1357 C205 1.556 . S
C1362 C349 1.536 . S
C1387 C204 1.562 . S
C1392 C374 1.548 . S
C1422 C392 1.545 . S
C1417 C177 1.558 . S
C1452 C403 1.542 . S
C1447 C191 1.563 . S
C1482 C385 1.533 . S
C1477 C218 1.544 . S
C1512 C410 1.536 . S
C1507 C232 1.545 . S
C1537 C247 1.541 . S
C1542 C367 1.530 . S
C1572 C356 1.528 . S
C1567 C246 1.537 . S
C1597 C219 1.540 . S
C1602 C320 1.531 . S
C1632 C331 1.530 . S
C1627 C233 1.540 . S
C1662 C268 1.457 . S
C1657 C6 1.484 . S
C1687 C20 1.477 . S
C1692 C286 1.450 . S
C1722 C296 1.457 . S
C1717 C35 1.480 . S
C1752 C314 1.456 . S
C1747 C34 1.480 . S
C1782 C340 1.454 . S
C1777 C7 1.481 . S
C1812 C350 1.454 . S
C1807 C21 1.476 . S
C1837 C48 1.498 . S
C1842 C358 1.468 . S
C1867 C62 1.489 . S
C1872 C322 1.452 . S
C1897 C77 1.493 . S
C1902 C332 1.460 . S
C1927 C76 1.493 . S
C1932 C278 1.471 . S
C1962 C304 1.456 . S
C1957 C49 1.492 . S
C1987 C63 1.489 . S
C1992 C260 1.460 . S
C2022 C376 1.457 . S
C2017 C90 1.484 . S
C2047 C104 1.487 . S
C2052 C394 1.461 . S
C2077 C119 1.487 . S
C2082 C404 1.464 . S
C2112 C422 1.454 . S
C2107 C118 1.469 . S
C2137 C91 1.483 . S
C2142 C448 1.457 . S
C2167 C105 1.478 . S
C2172 C458 1.460 . S
C2197 C132 1.490 . S
C2202 C466 1.459 . S
C2227 C146 1.489 . S
C2232 C430 1.451 . S
C2262 C440 1.466 . S
C2257 C161 1.494 . S
C2287 C160 1.492 . S
C2292 C386 1.463 . S
C2317 C133 1.500 . S
C2322 C412 1.463 . S
C2352 C368 1.471 . S
C2347 C147 1.500 . S
C2382 C484 1.454 . S
C2377 C174 1.473 . S
C2407 C188 1.478 . S
C2412 C502 1.456 . S
C2437 C203 1.482 . S
C2442 C512 1.459 . S
C2472 C530 1.457 . S
C2467 C202 1.479 . S
C2502 C556 1.462 . S
C2497 C175 1.489 . S
C2527 C189 1.487 . S
C2532 C566 1.465 . S
C2557 C216 1.497 . S
C2562 C574 1.460 . S
C2587 C230 1.500 . S
C2592 C538 1.463 . S
C2622 C548 1.470 . S
C2617 C245 1.499 . S
C2652 C494 1.431 1_655 S
C2647 C244 1.478 . S
C2682 C520 1.459 . S
C2677 C217 1.496 . S
C2707 C231 1.488 . S
C2712 C476 1.485 1_545 S
