# Generated by pormake.
# Topology anh, (6,3)-cn, num edge types: 1
# Building blocks:
#     Node 0, Type 0, BuildingBlock: VOLQOD_clean_sbu_1, # of connection points: 6
#     Node 1, Type 0, BuildingBlock: VOLQOD_clean_sbu_1, # of connection points: 6
#     Node 2, Type 0, BuildingBlock: VOLQOD_clean_sbu_1, # of connection points: 6
#     Node 3, Type 1, BuildingBlock: QEWDON_clean_linker_0, # of connection points: 3
#     Node 4, Type 1, BuildingBlock: QEWDON_clean_linker_0, # of connection points: 3
#     Node 5, Type 1, BuildingBlock: QEWDON_clean_linker_0, # of connection points: 3
#     Node 6, Type 1, BuildingBlock: QEWDON_clean_linker_0, # of connection points: 3
#     Node 7, Type 1, BuildingBlock: QEWDON_clean_linker_0, # of connection points: 3
#     Node 8, Type 1, BuildingBlock: QEWDON_clean_linker_0, # of connection points: 3
#     Edge 9, Type (0, 1), BuildingBlock: XUDNAN_clean_linker_2, # of connection points: 2
#     Edge 10, Type (0, 1), BuildingBlock: XUDNAN_clean_linker_2, # of connection points: 2
#     Edge 11, Type (0, 1), BuildingBlock: XUDNAN_clean_linker_2, # of connection points: 2
#     Edge 12, Type (0, 1), BuildingBlock: XUDNAN_clean_linker_2, # of connection points: 2
#     Edge 13, Type (0, 1), BuildingBlock: XUDNAN_clean_linker_2, # of connection points: 2
#     Edge 14, Type (0, 1), BuildingBlock: XUDNAN_clean_linker_2, # of connection points: 2
#     Edge 15, Type (0, 1), BuildingBlock: XUDNAN_clean_linker_2, # of connection points: 2
#     Edge 16, Type (0, 1), BuildingBlock: XUDNAN_clean_linker_2, # of connection points: 2
#     Edge 17, Type (0, 1), BuildingBlock: XUDNAN_clean_linker_2, # of connection points: 2
#     Edge 18, Type (0, 1), BuildingBlock: XUDNAN_clean_linker_2, # of connection points: 2
#     Edge 19, Type (0, 1), BuildingBlock: XUDNAN_clean_linker_2, # of connection points: 2
#     Edge 20, Type (0, 1), BuildingBlock: XUDNAN_clean_linker_2, # of connection points: 2
#     Edge 21, Type (0, 1), BuildingBlock: XUDNAN_clean_linker_2, # of connection points: 2
#     Edge 22, Type (0, 1), BuildingBlock: XUDNAN_clean_linker_2, # of connection points: 2
#     Edge 23, Type (0, 1), BuildingBlock: XUDNAN_clean_linker_2, # of connection points: 2
#     Edge 24, Type (0, 1), BuildingBlock: XUDNAN_clean_linker_2, # of connection points: 2
#     Edge 25, Type (0, 1), BuildingBlock: XUDNAN_clean_linker_2, # of connection points: 2
#     Edge 26, Type (0, 1), BuildingBlock: XUDNAN_clean_linker_2, # of connection points: 2
# Relax obj value: 0.173
# Max RMSD: 0.224
# Mean RMSD: 0.177
data_MOF--net-anh--node1-VOLQOD_clean_sbu_1--node2-QEWDON_clean_linker_0--edge1-XUDNAN_clean_linker_2
_symmetry_space_group_name_H-M    P1
_symmetry_Int_Tables_number       1
_symmetry_cell_setting            triclinic
loop_
_symmetry_equiv_pos_as_xyz
'x, y, z'
_cell_length_a     30.848228
_cell_length_b     30.813895
_cell_length_c     55.961004
_cell_angle_alpha  94.430681
_cell_angle_beta   94.21679
_cell_angle_gamma 120.25309
loop_
_atom_site_label
_atom_site_type_symbol
_atom_site_fract_x
_atom_site_fract_y
_atom_site_fract_z
_atom_type_partial_charge
O0 O 0.00328 0.54939 0.22041 0.0
Zn1 Zn 0.02012 0.58073 0.18991 0.0
O2 O 0.02282 0.53453 0.1652 0.0
Zn3 Zn 0.96979 0.51554 0.13924 0.0
Zn4 Zn 0.01414 0.47381 0.17925 0.0
Zn5 Zn 0.08554 0.56932 0.15117 0.0
O6 O 0.99307 0.51935 0.10666 0.0
O7 O 0.07592 0.5721 0.11491 0.0
O8 O 0.96685 0.59796 0.18003 0.0
O9 O 0.93785 0.55818 0.14255 0.0
O10 O 0.91497 0.44565 0.14097 0.0
O11 O 0.94308 0.41234 0.16732 0.0
O12 O 0.07139 0.46107 0.17175 0.0
O13 O 0.08855 0.64459 0.19791 0.0
O14 O 0.12029 0.53049 0.15507 0.0
O15 O 0.13278 0.63843 0.16962 0.0
C16 C 0.00626 0.51367 0.22882 0.0
C17 C 0.03613 0.54593 0.09969 0.0
C18 C 0.90785 0.40891 0.15233 0.0
C19 C 0.93831 0.58709 0.16019 0.0
C20 C 0.11164 0.48935 0.16262 0.0
C21 C 0.12935 0.66239 0.18828 0.0
O22 O 0.01566 0.48417 0.21591 0.0
O23 O 0.54459 0.07807 0.45005 0.0
Zn24 Zn 0.52169 0.06075 0.48255 0.0
O25 O 0.57552 0.06171 0.50382 0.0
Zn26 Zn 0.6006 0.11529 0.53124 0.0
Zn27 Zn 0.6302 0.06917 0.48516 0.0
Zn28 Zn 0.54787 0.99865 0.51701 0.0
O29 O 0.59029 0.08819 0.56366 0.0
O30 O 0.54156 0.00547 0.5522 0.0
O31 O 0.50828 0.11517 0.49526 0.0
O32 O 0.56365 0.15369 0.52859 0.0
O33 O 0.67422 0.16634 0.53004 0.0
O34 O 0.69293 0.13749 0.49698 0.0
O35 O 0.64543 0.01204 0.48827 0.0
O36 O 0.45733 0.99068 0.47666 0.0
O37 O 0.59211 0.97005 0.51391 0.0
O38 O 0.48117 0.94716 0.49848 0.0
C39 C 0.5797 0.07877 0.43916 0.0
C40 C 0.56322 0.04324 0.56874 0.0
C41 C 0.705 0.17125 0.51498 0.0
C42 C 0.52842 0.14955 0.51346 0.0
C43 C 0.62756 0.9768 0.50168 0.0
C44 C 0.44905 0.94906 0.48369 0.0
O45 O 0.61316 0.07155 0.4497 0.0
O46 O 0.53569 0.54644 0.77255 0.0
Zn47 Zn 0.51607 0.52493 0.80528 0.0
O48 O 0.57211 0.56854 0.83096 0.0
Zn49 Zn 0.55015 0.59752 0.85595 0.0
Zn50 Zn 0.62646 0.62399 0.81722 0.0
Zn51 Zn 0.59648 0.52898 0.84634 0.0
O52 O 0.55785 0.57805 0.88873 0.0
O53 O 0.58211 0.52245 0.881 0.0
O54 O 0.45245 0.52679 0.81117 0.0
O55 O 0.47686 0.57228 0.84754 0.0
O56 O 0.58464 0.67331 0.85769 0.0
O57 O 0.62861 0.68988 0.82649 0.0
O58 O 0.6941 0.63176 0.82899 0.0
O59 O 0.5018 0.4529 0.80288 0.0
O60 O 0.67178 0.56309 0.84712 0.0
O61 O 0.56364 0.45871 0.8285 0.0
C62 C 0.57647 0.58001 0.76561 0.0
C63 C 0.56864 0.54583 0.89562 0.0
C64 C 0.61193 0.70402 0.84376 0.0
C65 C 0.4431 0.54636 0.82957 0.0
C66 C 0.70563 0.60372 0.84023 0.0
C67 C 0.52544 0.43311 0.81237 0.0
O68 O 0.61485 0.61119 0.78076 0.0
H69 H 0.56678 0.11063 0.2471 0.0
C70 C 0.53842 0.07066 0.24505 0.0
C71 C 0.52833 0.04486 0.26555 0.0
C72 C 0.51036 0.04509 0.22225 0.0
H73 H 0.47903 0.97521 0.27933 0.0
C74 C 0.48885 0.99415 0.26333 0.0
C75 C 0.45962 0.96873 0.24104 0.0
C76 C 0.47255 0.99348 0.2205 0.0
C77 C 0.51633 0.07188 0.20043 0.0
H78 H 0.45064 0.97309 0.2032 0.0
C79 C 0.56374 0.11166 0.19583 0.0
C80 C 0.568 0.13373 0.17419 0.0
C81 C 0.47327 0.05656 0.1836 0.0
H82 H 0.4357 0.02867 0.18698 0.0
C83 C 0.47767 0.07641 0.1619 0.0
H84 H 0.59685 0.12527 0.20897 0.0
C85 C 0.52458 0.11366 0.15696 0.0
H86 H 0.52639 0.12699 0.13952 0.0
H87 H 0.44444 0.06284 0.14881 0.0
H88 H 0.53581 0.59085 0.57952 0.0
C89 C 0.53238 0.55532 0.57249 0.0
C90 C 0.5438 0.52778 0.58808 0.0
C91 C 0.51386 0.53571 0.5481 0.0
H92 H 0.55147 0.46285 0.59069 0.0
C93 C 0.53978 0.48198 0.57868 0.0
C94 C 0.52199 0.46196 0.5541 0.0
C95 C 0.50751 0.48872 0.53934 0.0
C96 C 0.50071 0.56351 0.53133 0.0
H97 H 0.49136 0.4735 0.5207 0.0
C98 C 0.53609 0.61402 0.52865 0.0
C99 C 0.52559 0.6377 0.51043 0.0
C100 C 0.45398 0.53791 0.51635 0.0
H101 H 0.42601 0.49917 0.51819 0.0
C102 C 0.44314 0.56173 0.49865 0.0
H103 H 0.57241 0.63404 0.53996 0.0
C104 C 0.47887 0.61115 0.49551 0.0
H105 H 0.46977 0.62894 0.4816 0.0
H106 H 0.40712 0.54165 0.48716 0.0
H107 H 0.14705 0.63766 0.9307 0.0
C108 C 0.1157 0.64072 0.9228 0.0
C109 C 0.07104 0.62166 0.93367 0.0
C110 C 0.1196 0.66347 0.9016 0.0
H111 H 0.99646 0.61156 0.93186 0.0
C112 C 0.03051 0.62552 0.9232 0.0
C113 C 0.03393 0.6481 0.90203 0.0
C114 C 0.07875 0.6671 0.89143 0.0
C115 C 0.16548 0.68287 0.88933 0.0
H116 H 0.08146 0.68347 0.87474 0.0
C117 C 0.18241 0.65045 0.88096 0.0
C118 C 0.22134 0.66734 0.86621 0.0
C119 C 0.18931 0.7328 0.88371 0.0
H120 H 0.17673 0.7583 0.88995 0.0
C121 C 0.22887 0.74993 0.86963 0.0
H122 H 0.16376 0.61162 0.88485 0.0
C123 C 0.2445 0.71724 0.86068 0.0
H124 H 0.27477 0.73089 0.84947 0.0
H125 H 0.2469 0.78838 0.86531 0.0
H126 H 0.98065 0.52724 0.41902 0.0
C127 C 0.01968 0.55811 0.42248 0.0
C128 C 0.04988 0.57144 0.40355 0.0
C129 C 0.03906 0.58581 0.4457 0.0
H130 H 0.12401 0.62305 0.39407 0.0
C131 C 0.10045 0.61161 0.40848 0.0
C132 C 0.12024 0.63932 0.43162 0.0
C133 C 0.08925 0.6266 0.45006 0.0
C134 C 0.00646 0.57429 0.46524 0.0
H135 H 0.10446 0.64804 0.46796 0.0
C136 C 0.98035 0.52521 0.47201 0.0
C137 C 0.95163 0.5156 0.4915 0.0
C138 C 0.00258 0.61331 0.47767 0.0
H139 H 0.02207 0.65125 0.47266 0.0
C140 C 0.97324 0.60371 0.49654 0.0
H141 H 0.98394 0.49519 0.46274 0.0
C142 C 0.94803 0.55534 0.50347 0.0
H143 H 0.92536 0.54895 0.51815 0.0
H144 H 0.97018 0.63394 0.5059 0.0
H145 H 0.52107 0.99179 0.7558 0.0
C146 C 0.51763 0.02498 0.7591 0.0
C147 C 0.52278 0.05492 0.74047 0.0
C148 C 0.50646 0.03694 0.78176 0.0
H149 H 0.51883 0.11937 0.73051 0.0
C150 C 0.51655 0.09687 0.74485 0.0
C151 C 0.50637 0.10972 0.76743 0.0
C152 C 0.50208 0.0801 0.78587 0.0
C153 C 0.49585 0.00299 0.80077 0.0
H154 H 0.49383 0.08992 0.8033 0.0
C155 C 0.52695 0.98303 0.80676 0.0
C156 C 0.51721 0.95282 0.82563 0.0
C157 C 0.4541 0.99091 0.81332 0.0
H158 H 0.42886 0.00472 0.80877 0.0
C159 C 0.44405 0.96051 0.83173 0.0
H160 H 0.55937 0.99217 0.79734 0.0
C161 C 0.47543 0.94176 0.83795 0.0
H162 H 0.46656 0.91789 0.85222 0.0
H163 H 0.41175 0.9514 0.84121 0.0
H164 H 0.50697 0.5664 0.07206 0.0
C165 C 0.54095 0.57143 0.08211 0.0
C166 C 0.57125 0.55637 0.07074 0.0
C167 C 0.55544 0.5948 0.10616 0.0
H168 H 0.63769 0.55042 0.07532 0.0
C169 C 0.6151 0.56307 0.08405 0.0
C170 C 0.63091 0.5875 0.10803 0.0
C171 C 0.6007 0.60355 0.11884 0.0
C172 C 0.5252 0.6134 0.11765 0.0
H173 H 0.61249 0.62363 0.13703 0.0
C174 C 0.47482 0.57963 0.12109 0.0
C175 C 0.44659 0.59762 0.13256 0.0
C176 C 0.54727 0.66531 0.12553 0.0
H177 H 0.58601 0.69181 0.12301 0.0
C178 C 0.51932 0.68352 0.1364 0.0
H179 H 0.45835 0.53943 0.11545 0.0
C180 C 0.46939 0.65013 0.13983 0.0
H181 H 0.44853 0.66568 0.14798 0.0
H182 H 0.53638 0.72373 0.14214 0.0
H183 H 0.20091 0.53619 0.19084 0.0
H184 H 0.1145 0.42184 0.12935 0.0
H185 H 0.19306 0.42686 0.11828 0.0
H186 H 0.29405 0.61313 0.16255 0.0
H187 H 0.34588 0.63496 0.18635 0.0
H188 H 0.28301 0.61221 0.19375 0.0
H189 H 0.28769 0.54564 0.21763 0.0
H190 H 0.35147 0.56911 0.21093 0.0
H191 H 0.30455 0.50277 0.20329 0.0
H192 H 0.28197 0.45978 0.10863 0.0
H193 H 0.37185 0.51238 0.10297 0.0
H194 H 0.40044 0.60379 0.17173 0.0
C195 C 0.19836 0.50992 0.176 0.0
C196 C 0.15184 0.47734 0.1614 0.0
C197 C 0.14971 0.44552 0.14122 0.0
C198 C 0.19423 0.44853 0.13473 0.0
C199 C 0.24023 0.4833 0.14876 0.0
C200 C 0.24238 0.51263 0.16936 0.0
C201 C 0.29649 0.55215 0.1794 0.0
C202 C 0.30532 0.60624 0.18055 0.0
C203 C 0.3109 0.54177 0.20429 0.0
C204 C 0.32435 0.54257 0.1605 0.0
C205 C 0.29153 0.50232 0.14315 0.0
C206 C 0.30819 0.49032 0.12251 0.0
C207 C 0.35945 0.52046 0.11946 0.0
C208 C 0.39352 0.56237 0.1369 0.0
C209 C 0.37556 0.57236 0.15793 0.0
H210 H 0.75419 0.21878 0.47786 0.0
H211 H 0.76164 0.23564 0.55595 0.0
H212 H 0.8338 0.3233 0.55843 0.0
H213 H 0.89277 0.30225 0.47425 0.0
H214 H 0.88066 0.32795 0.44843 0.0
H215 H 0.83626 0.2638 0.45303 0.0
H216 H 0.76445 0.28436 0.45129 0.0
H217 H 0.80855 0.34851 0.4469 0.0
H218 H 0.7715 0.33643 0.47167 0.0
H219 H 0.89785 0.4112 0.55228 0.0
H220 H 0.9479 0.49422 0.53807 0.0
H221 H 0.896 0.42211 0.46369 0.0
C222 C 0.77231 0.24031 0.49552 0.0
C223 C 0.75306 0.2202 0.51678 0.0
C224 C 0.77629 0.2502 0.53951 0.0
C225 C 0.81732 0.29994 0.54107 0.0
C226 C 0.83442 0.31922 0.51972 0.0
C227 C 0.81271 0.29036 0.49735 0.0
C228 C 0.83406 0.32197 0.47709 0.0
C229 C 0.86264 0.30285 0.46233 0.0
C230 C 0.79214 0.32287 0.46079 0.0
C231 C 0.8701 0.37342 0.49154 0.0
C232 C 0.87031 0.37072 0.51609 0.0
C233 C 0.89835 0.41369 0.5331 0.0
C234 C 0.92634 0.46074 0.52484 0.0
C235 C 0.92571 0.46474 0.49976 0.0
C236 C 0.89788 0.42021 0.48295 0.0
H237 H 0.60689 0.75502 0.80707 0.0
H238 H 0.62626 0.76486 0.88515 0.0
H239 H 0.61995 0.84185 0.88857 0.0
H240 H 0.66872 0.89608 0.80275 0.0
H241 H 0.62167 0.88467 0.7781 0.0
H242 H 0.6406 0.83866 0.78171 0.0
H243 H 0.54699 0.76932 0.78219 0.0
H244 H 0.52782 0.81495 0.77878 0.0
H245 H 0.51127 0.77893 0.80393 0.0
H246 H 0.59765 0.90762 0.88371 0.0
H247 H 0.55723 0.95527 0.87111 0.0
H248 H 0.54762 0.90081 0.796 0.0
C249 C 0.61215 0.77488 0.82486 0.0
C250 C 0.61825 0.75493 0.84589 0.0
C251 C 0.62242 0.78021 0.86888 0.0
C252 C 0.61905 0.824 0.87096 0.0
C253 C 0.61108 0.84173 0.84987 0.0
C254 C 0.60772 0.81803 0.82721 0.0
C255 C 0.59098 0.83964 0.8075 0.0
C256 C 0.63301 0.86636 0.79157 0.0
C257 C 0.54133 0.79825 0.79223 0.0
C258 C 0.58317 0.87748 0.82265 0.0
C259 C 0.59625 0.87895 0.847 0.0
C260 C 0.58816 0.90751 0.86469 0.0
C261 C 0.56494 0.9342 0.85738 0.0
C262 C 0.54951 0.93177 0.8326 0.0
C263 C 0.56009 0.9042 0.81501 0.0
H264 H 0.89667 0.60301 0.11949 0.0
H265 H 0.89213 0.60324 0.19677 0.0
H266 H 0.81647 0.61166 0.19258 0.0
H267 H 0.85107 0.69498 0.11313 0.0
H268 H 0.81602 0.66211 0.08391 0.0
H269 H 0.87365 0.66332 0.09371 0.0
H270 H 0.82504 0.56516 0.08619 0.0
H271 H 0.76717 0.56353 0.07684 0.0
H272 H 0.77013 0.52963 0.10116 0.0
H273 H 0.7327 0.60317 0.17864 0.0
H274 H 0.65377 0.59009 0.15705 0.0
H275 H 0.71852 0.60596 0.08952 0.0
C276 C 0.88062 0.60639 0.13561 0.0
C277 C 0.90015 0.60255 0.15845 0.0
C278 C 0.87803 0.6067 0.17914 0.0
C279 C 0.83493 0.61126 0.17692 0.0
C280 C 0.81539 0.61296 0.15398 0.0
C281 C 0.83836 0.6121 0.13378 0.0
C282 C 0.80858 0.6121 0.11105 0.0
C283 C 0.83915 0.66105 0.09979 0.0
C284 C 0.79175 0.56479 0.09275 0.0
C285 C 0.76396 0.61046 0.12145 0.0
C286 C 0.7685 0.611 0.14621 0.0
C287 C 0.72945 0.60442 0.15935 0.0
C288 C 0.68468 0.59721 0.14686 0.0
C289 C 0.67935 0.59718 0.12143 0.0
C290 C 0.72034 0.60494 0.10883 0.0
H291 H 0.34843 0.92152 0.47962 0.0
H292 H 0.4497 0.86731 0.46357 0.0
H293 H 0.37657 0.78361 0.44653 0.0
H294 H 0.2565 0.80725 0.49967 0.0
H295 H 0.20246 0.81023 0.4875 0.0
H296 H 0.26264 0.86772 0.49622 0.0
H297 H 0.25969 0.89287 0.45327 0.0
H298 H 0.19936 0.8355 0.44444 0.0
H299 H 0.25116 0.84948 0.42735 0.0
H300 H 0.29354 0.70599 0.43179 0.0
H301 H 0.20426 0.63632 0.42288 0.0
H302 H 0.15555 0.73756 0.45118 0.0
C303 C 0.35492 0.89213 0.47213 0.0
C304 C 0.40445 0.90069 0.47257 0.0
C305 C 0.41186 0.86124 0.46323 0.0
C306 C 0.37066 0.81374 0.45347 0.0
C307 C 0.32219 0.80604 0.45353 0.0
C308 C 0.31393 0.84383 0.4628 0.0
C309 C 0.25773 0.82402 0.46226 0.0
C310 C 0.24405 0.82751 0.48794 0.0
C311 C 0.24101 0.85214 0.44585 0.0
C312 C 0.23597 0.76933 0.45138 0.0
C313 C 0.27389 0.7601 0.44615 0.0
C314 C 0.26344 0.71266 0.43582 0.0
C315 C 0.21277 0.67341 0.43079 0.0
C316 C 0.17337 0.68169 0.43647 0.0
C317 C 0.18517 0.73028 0.44687 0.0
H318 H 0.56161 0.37596 0.83098 0.0
H319 H 0.45566 0.37076 0.77358 0.0
H320 H 0.43601 0.2853 0.757 0.0
H321 H 0.61172 0.31723 0.79563 0.0
H322 H 0.61773 0.2821 0.81866 0.0
H323 H 0.62061 0.34113 0.82714 0.0
H324 H 0.54726 0.29634 0.85276 0.0
H325 H 0.54431 0.23714 0.84446 0.0
H326 H 0.48845 0.24154 0.83887 0.0
H327 H 0.43329 0.20371 0.74475 0.0
H328 H 0.44461 0.1298 0.73893 0.0
H329 H 0.55097 0.18772 0.8047 0.0
C330 C 0.53375 0.35668 0.8151 0.0
C331 C 0.51017 0.38016 0.80359 0.0
C332 C 0.47407 0.35354 0.7828 0.0
C333 C 0.46269 0.30499 0.77321 0.0
C334 C 0.48735 0.28342 0.78477 0.0
C335 C 0.52175 0.30819 0.80539 0.0
C336 C 0.54426 0.27741 0.8139 0.0
C337 C 0.60199 0.30619 0.81381 0.0
C338 C 0.53021 0.2622 0.83898 0.0
C339 C 0.51789 0.23187 0.79456 0.0
C340 C 0.48516 0.23603 0.77794 0.0
C341 C 0.45837 0.19977 0.75779 0.0
C342 C 0.46525 0.15817 0.75455 0.0
C343 C 0.49851 0.15317 0.77141 0.0
C344 C 0.52479 0.19034 0.79174 0.0
H345 H 0.63118 0.92694 0.53865 0.0
H346 H 0.65136 0.93611 0.4631 0.0
H347 H 0.64552 0.85277 0.45947 0.0
H348 H 0.69334 0.84683 0.55051 0.0
H349 H 0.64684 0.81258 0.57004 0.0
H350 H 0.66892 0.87865 0.56853 0.0
H351 H 0.57623 0.85629 0.55803 0.0
H352 H 0.55388 0.79041 0.55897 0.0
H353 H 0.53768 0.81056 0.53206 0.0
H354 H 0.61295 0.76096 0.46119 0.0
H355 H 0.56418 0.6718 0.46894 0.0
H356 H 0.5663 0.72192 0.54365 0.0
C357 C 0.63709 0.91252 0.52169 0.0
C358 C 0.64208 0.93789 0.50119 0.0
C359 C 0.64853 0.91768 0.47911 0.0
C360 C 0.64499 0.87021 0.47691 0.0
C361 C 0.63614 0.84425 0.49709 0.0
C362 C 0.63366 0.86541 0.51929 0.0
C363 C 0.61616 0.82728 0.53718 0.0
C364 C 0.65888 0.84223 0.55779 0.0
C365 C 0.56815 0.82077 0.5471 0.0
C366 C 0.60516 0.78021 0.5211 0.0
C367 C 0.61796 0.79094 0.49818 0.0
C368 C 0.60451 0.75243 0.47927 0.0
C369 C 0.57658 0.70194 0.48377 0.0
C370 C 0.5624 0.6904 0.50698 0.0
C371 C 0.5782 0.73002 0.52598 0.0
H372 H 0.74301 0.54979 0.86115 0.0
H373 H 0.79018 0.69262 0.83325 0.0
H374 H 0.87969 0.71929 0.84542 0.0
H375 H 0.83532 0.5992 0.91285 0.0
H376 H 0.84458 0.54583 0.91129 0.0
H377 H 0.78447 0.53726 0.89953 0.0
H378 H 0.79002 0.49861 0.85786 0.0
H379 H 0.85001 0.50673 0.86954 0.0
H380 H 0.8449 0.53387 0.84283 0.0
H381 H 0.96405 0.73153 0.86232 0.0
H382 H 0.03642 0.72737 0.88145 0.0
H383 H 0.93302 0.57549 0.89714 0.0
C384 C 0.77204 0.58661 0.85742 0.0
C385 C 0.75947 0.61914 0.84625 0.0
C386 C 0.79881 0.66697 0.84174 0.0
C387 C 0.84976 0.68248 0.84861 0.0
C388 C 0.86067 0.64963 0.85985 0.0
C389 C 0.82288 0.60257 0.86407 0.0
C390 C 0.84442 0.57453 0.87668 0.0
C391 C 0.82611 0.56359 0.90156 0.0
C392 C 0.83158 0.52554 0.86077 0.0
C393 C 0.90031 0.6134 0.87915 0.0
C394 C 0.909 0.65645 0.86932 0.0
C395 C 0.9577 0.69782 0.86988 0.0
C396 C 0.99857 0.695 0.88069 0.0
C397 C 0.99048 0.65107 0.89078 0.0
C398 C 0.94054 0.60985 0.88988 0.0
H399 H 0.22372 0.71108 0.17351 0.0
H400 H 0.13864 0.72033 0.23024 0.0
H401 H 0.21616 0.79545 0.2516 0.0
H402 H 0.33922 0.74881 0.21218 0.0
H403 H 0.37977 0.78523 0.19093 0.0
H404 H 0.31784 0.73136 0.18019 0.0
H405 H 0.29493 0.78795 0.15671 0.0
H406 H 0.35694 0.84178 0.16713 0.0
H407 H 0.30147 0.84452 0.17262 0.0
H408 H 0.30211 0.86992 0.2665 0.0
H409 H 0.3889 0.94354 0.2721 0.0
H410 H 0.41879 0.88528 0.2061 0.0
C411 C 0.22122 0.72892 0.19038 0.0
C412 C 0.17496 0.70969 0.20017 0.0
C413 C 0.17352 0.73432 0.22231 0.0
C414 C 0.21744 0.77685 0.23468 0.0
C415 C 0.26248 0.79423 0.2247 0.0
C416 C 0.26464 0.77138 0.20296 0.0
C417 C 0.3175 0.79866 0.19578 0.0
C418 C 0.33989 0.76394 0.19471 0.0
C419 C 0.3177 0.81947 0.17164 0.0
C420 C 0.34455 0.84099 0.21671 0.0
C421 C 0.31224 0.8373 0.23333 0.0
C422 C 0.32793 0.87299 0.25374 0.0
C423 C 0.37755 0.91445 0.25688 0.0
C424 C 0.4109 0.92005 0.23965 0.0
C425 C 0.39429 0.88206 0.21961 0.0
H426 H 0.52171 0.20094 0.55416 0.0
H427 H 0.51051 0.19121 0.47597 0.0
H428 H 0.50485 0.2684 0.47791 0.0
H429 H 0.43057 0.24692 0.55938 0.0
H430 H 0.46498 0.28695 0.58743 0.0
H431 H 0.46506 0.22908 0.57982 0.0
H432 H 0.5631 0.28008 0.58535 0.0
H433 H 0.56334 0.33816 0.59256 0.0
H434 H 0.59568 0.33195 0.56816 0.0
H435 H 0.5166 0.3535 0.48876 0.0
H436 H 0.52646 0.43308 0.50658 0.0
H437 H 0.51363 0.38127 0.57746 0.0
C438 C 0.51689 0.21456 0.53748 0.0
C439 C 0.51651 0.19029 0.5149 0.0
C440 C 0.51033 0.20902 0.4934 0.0
C441 C 0.50743 0.25298 0.49433 0.0
C442 C 0.50925 0.27683 0.51686 0.0
C443 C 0.51214 0.25754 0.53801 0.0
C444 C 0.51294 0.29069 0.55976 0.0
C445 C 0.46556 0.26168 0.57234 0.0
C446 C 0.56167 0.31144 0.57749 0.0
C447 C 0.5121 0.33258 0.54753 0.0
C448 C 0.51068 0.32399 0.52285 0.0
C449 C 0.51532 0.35967 0.50794 0.0
C450 C 0.52031 0.40491 0.51839 0.0
C451 C 0.51872 0.41385 0.54357 0.0
C452 C 0.51472 0.37665 0.55822 0.0
H453 H 0.4008 0.55605 0.869 0.0
H454 H 0.3765 0.53419 0.79064 0.0
H455 H 0.30539 0.54981 0.7917 0.0
H456 H 0.26328 0.50268 0.87844 0.0
H457 H 0.28141 0.54942 0.90444 0.0
H458 H 0.32242 0.52569 0.89738 0.0
H459 H 0.39591 0.61766 0.89711 0.0
H460 H 0.35525 0.64166 0.90381 0.0
H461 H 0.38753 0.65722 0.87741 0.0
H462 H 0.25087 0.58604 0.80135 0.0
H463 H 0.2126 0.63315 0.81884 0.0
H464 H 0.27012 0.62834 0.89088 0.0
C465 C 0.37936 0.55278 0.85205 0.0
C466 C 0.39402 0.54387 0.82973 0.0
C467 C 0.36548 0.54038 0.80793 0.0
C468 C 0.32512 0.54931 0.80838 0.0
C469 C 0.31328 0.56053 0.83077 0.0
C470 C 0.33894 0.56117 0.85223 0.0
C471 C 0.32276 0.57938 0.87385 0.0
C472 C 0.29585 0.53674 0.88944 0.0
C473 C 0.36805 0.62678 0.8889 0.0
C474 C 0.28613 0.59182 0.8612 0.0
C475 C 0.28063 0.58008 0.83636 0.0
C476 C 0.25358 0.59385 0.82076 0.0
C477 C 0.23219 0.6207 0.83079 0.0
C478 C 0.23781 0.6332 0.85612 0.0
C479 C 0.26415 0.61769 0.87149 0.0
H480 H 0.8691 0.32235 0.17582 0.0
H481 H 0.82634 0.39693 0.12401 0.0
H482 H 0.73717 0.33551 0.12498 0.0
H483 H 0.76475 0.1916 0.14974 0.0
H484 H 0.7552 0.16959 0.1789 0.0
H485 H 0.81715 0.21822 0.17364 0.0
H486 H 0.81999 0.27654 0.21035 0.0
H487 H 0.75769 0.2285 0.21545 0.0
H488 H 0.77028 0.29104 0.21123 0.0
H489 H 0.65466 0.27783 0.13617 0.0
H490 H 0.57836 0.21064 0.1492 0.0
H491 H 0.66848 0.16074 0.18893 0.0
C492 C 0.84097 0.32498 0.16429 0.0
C493 C 0.8552 0.36517 0.15009 0.0
C494 C 0.817 0.3671 0.13525 0.0
C495 C 0.76591 0.33239 0.13569 0.0
C496 C 0.75315 0.29486 0.15056 0.0
C497 C 0.78913 0.2895 0.164 0.0
C498 C 0.76371 0.24437 0.17799 0.0
C499 C 0.77593 0.20351 0.16956 0.0
C500 C 0.77884 0.26114 0.20538 0.0
C501 C 0.70817 0.22654 0.17066 0.0
C502 C 0.7036 0.25713 0.15517 0.0
C503 C 0.65732 0.25203 0.14743 0.0
C504 C 0.61395 0.21313 0.15483 0.0
C505 C 0.61637 0.17809 0.16914 0.0
C506 C 0.66466 0.18587 0.17763 0.0
H507 H 0.10907 0.61828 0.07587 0.0
H508 H 0.96896 0.47251 0.06395 0.0
H509 H 0.96917 0.47213 0.01999 0.0
H510 H 0.07622 0.66996 0.02914 0.0
H511 H 0.13856 0.7046 0.02014 0.0
H512 H 0.13145 0.69092 0.05077 0.0
H513 H 0.18414 0.64723 0.04699 0.0
H514 H 0.19131 0.66071 0.01626 0.0
H515 H 0.16503 0.59647 0.02282 0.0
H516 H 0.97912 0.49012 0.97791 0.0
H517 H 0.99714 0.52741 0.93977 0.0
H518 H 0.13054 0.66187 0.97774 0.0
C519 C 0.07907 0.58587 0.06397 0.0
C520 C 0.0391 0.54531 0.07337 0.0
C521 C -8e-05 0.50406 0.05721 0.0
C522 C -0.00015 0.5033 0.03218 0.0
C523 C 0.0392 0.54409 0.02347 0.0
C524 C 0.07813 0.58471 0.03878 0.0
C525 C 0.11334 0.62559 0.02453 0.0
C526 C 0.11495 0.67572 0.03156 0.0
C527 C 0.16662 0.63292 0.02785 0.0
C528 C 0.08723 0.60211 0.99894 0.0
C529 C 0.04492 0.55475 0.99881 0.0
C530 C 0.01253 0.52682 0.97769 0.0
C531 C 0.02298 0.54825 0.95615 0.0
C532 C 0.0654 0.59712 0.95587 0.0
C533 C 0.09852 0.62395 0.97745 0.0
H534 H 0.60248 0.03437 0.4017 0.0
H535 H 0.56005 0.1461 0.41967 0.0
H536 H 0.55874 0.16137 0.37698 0.0
H537 H 0.67811 0.09358 0.35191 0.0
H538 H 0.65345 0.03304 0.33381 0.0
H539 H 0.66065 0.03772 0.36634 0.0
H540 H 0.56579 0.96942 0.36473 0.0
H541 H 0.55858 0.96425 0.33231 0.0
H542 H 0.51846 0.97854 0.34896 0.0
H543 H 0.55365 0.15853 0.33203 0.0
H544 H 0.53376 0.12945 0.28805 0.0
H545 H 0.57482 0.0164 0.29884 0.0
C546 C 0.59428 0.06298 0.39667 0.0
C547 C 0.58204 0.0896 0.41391 0.0
C548 C 0.56976 0.12553 0.40666 0.0
C549 C 0.56937 0.13477 0.38252 0.0
C550 C 0.5809 0.1074 0.3658 0.0
C551 C 0.59257 0.07179 0.37251 0.0
C552 C 0.59626 0.04236 0.35058 0.0
C553 C 0.65035 0.05229 0.35068 0.0
C554 C 0.55745 0.98529 0.34906 0.0
C555 C 0.58314 0.06573 0.3305 0.0
C556 C 0.57591 0.10424 0.33966 0.0
C557 C 0.56 0.12901 0.32462 0.0
C558 C 0.54914 0.11256 0.29966 0.0
C559 C 0.5534 0.0712 0.29015 0.0
C560 C 0.57221 0.04875 0.3057 0.0
H561 H 0.51846 0.50456 0.72804 0.0
H562 H 0.64207 0.66071 0.74395 0.0
H563 H 0.64767 0.66466 0.70025 0.0
H564 H 0.56979 0.46934 0.67952 0.0
H565 H 0.50894 0.42795 0.66184 0.0
H566 H 0.51385 0.43789 0.69431 0.0
H567 H 0.44799 0.46651 0.69089 0.0
H568 H 0.44277 0.45654 0.65842 0.0
H569 H 0.45882 0.51742 0.6737 0.0
H570 H 0.63779 0.65215 0.6545 0.0
H571 H 0.61612 0.62243 0.61048 0.0
H572 H 0.50224 0.47349 0.62489 0.0
C573 C 0.54653 0.53969 0.72233 0.0
C574 C 0.57962 0.58246 0.7394 0.0
C575 C 0.61633 0.62747 0.7312 0.0
C576 C 0.61974 0.63011 0.70642 0.0
C577 C 0.5866 0.58722 0.69008 0.0
C578 C 0.55099 0.54273 0.69772 0.0
C579 C 0.52073 0.50163 0.67654 0.0
C580 C 0.52883 0.45655 0.67816 0.0
C581 C 0.46424 0.48454 0.67479 0.0
C582 C 0.54458 0.53004 0.65578 0.0
C583 C 0.58228 0.57947 0.66391 0.0
C584 C 0.6086 0.61341 0.64794 0.0
C585 C 0.59602 0.59632 0.62302 0.0
C586 C 0.55793 0.54564 0.61439 0.0
C587 C 0.53212 0.51221 0.63105 0.0
H588 H 0.60268 0.11373 0.60964 0.0
H589 H 0.50809 0.9521 0.58559 0.0
H590 H 0.4944 0.93661 0.62765 0.0
H591 H 0.66046 0.10278 0.66702 0.0
H592 H 0.66018 0.15562 0.6831 0.0
H593 H 0.66589 0.15383 0.65126 0.0
H594 H 0.58787 0.16402 0.64308 0.0
H595 H 0.58205 0.16598 0.67484 0.0
H596 H 0.5291 0.11988 0.65329 0.0
H597 H 0.48532 0.93907 0.67188 0.0
H598 H 0.48006 0.96002 0.71466 0.0
H599 H 0.58332 0.11932 0.71022 0.0
C600 C 0.57953 0.07501 0.61321 0.0
C601 C 0.55652 0.0342 0.59422 0.0
C602 C 0.52622 0.98411 0.59975 0.0
C603 C 0.51832 0.97482 0.62364 0.0
C604 C 0.54126 0.01591 0.64188 0.0
C605 C 0.57136 0.065 0.63698 0.0
C606 C 0.58953 0.10263 0.65973 0.0
C607 C 0.64746 0.13034 0.66562 0.0
C608 C 0.57101 0.14033 0.6576 0.0
C609 C 0.56378 0.06714 0.67803 0.0
C610 C 0.53652 0.01723 0.66745 0.0
C611 C 0.50716 0.97797 0.68048 0.0
C612 C 0.50467 0.9902 0.70483 0.0
C613 C 0.5313 0.0413 0.71588 0.0
C614 C 0.56223 0.0799 0.70232 0.0
H615 H 0.5495 0.59467 0.93277 0.0
H616 H 0.57988 0.47328 0.91611 0.0
H617 H 0.57478 0.45667 0.95859 0.0
H618 H 0.62427 0.64258 0.98956 0.0
H619 H 0.58217 0.6583 0.00343 0.0
H620 H 0.58404 0.65751 0.97136 0.0
H621 H 0.48732 0.59364 0.96374 0.0
H622 H 0.48527 0.59393 0.99586 0.0
H623 H 0.46154 0.53494 0.97653 0.0
H624 H 0.57131 0.45667 0.00344 0.0
H625 H 0.5744 0.47642 0.04742 0.0
H626 H 0.54712 0.59819 0.03456 0.0
C627 C 0.55456 0.5642 0.93793 0.0
C628 C 0.56495 0.53518 0.92102 0.0
C629 C 0.57186 0.49604 0.92868 0.0
C630 C 0.56877 0.48613 0.95276 0.0
C631 C 0.55858 0.51556 0.96894 0.0
C632 C 0.55173 0.55389 0.96185 0.0
C633 C 0.54436 0.5821 0.98304 0.0
C634 C 0.58621 0.63844 0.98708 0.0
C635 C 0.49147 0.57575 0.97958 0.0
C636 C 0.54923 0.55438 0.00329 0.0
C637 C 0.5568 0.51571 0.99476 0.0
C638 C 0.56499 0.48656 0.01029 0.0
C639 C 0.56678 0.49811 0.03522 0.0
C640 C 0.56071 0.53864 0.04439 0.0
C641 C 0.5507 0.56625 0.02808 0.0
H642 H 0.06783 0.50946 0.26531 0.0
H643 H 0.92643 0.50578 0.24923 0.0
H644 H 0.9158 0.50627 0.29255 0.0
H645 H 0.03388 0.4355 0.3185 0.0
H646 H 0.09636 0.47591 0.33486 0.0
H647 H 0.08794 0.46465 0.30229 0.0
H648 H 0.13419 0.56148 0.30077 0.0
H649 H 0.1425 0.573 0.33323 0.0
H650 H 0.11125 0.59848 0.31571 0.0
H651 H 0.92558 0.5184 0.33733 0.0
H652 H 0.95716 0.54614 0.3807 0.0
H653 H 0.09376 0.54444 0.36866 0.0
C654 C 0.03383 0.50683 0.27095 0.0
C655 C 0.99733 0.50649 0.25407 0.0
C656 C 0.95432 0.50533 0.26199 0.0
C657 C 0.94792 0.50541 0.2865 0.0
C658 C 0.98516 0.50713 0.3029 0.0
C659 C 0.02738 0.50792 0.29551 0.0
C660 C 0.06491 0.51669 0.3171 0.0
C661 C 0.07112 0.47042 0.31825 0.0
C662 C 0.11622 0.5653 0.31667 0.0
C663 C 0.03804 0.52257 0.33764 0.0
C664 C 0.99161 0.51577 0.32905 0.0
C665 C 0.96142 0.52284 0.34435 0.0
C666 C 0.97961 0.53837 0.36903 0.0
C667 C 0.02782 0.54719 0.37819 0.0
C668 C 0.05673 0.53795 0.36225 0.0
loop_
_geom_bond_atom_site_label_1
_geom_bond_atom_site_label_2
_geom_bond_distance
_geom_bond_site_symmetry_2
_ccdc_geom_bond_type
O0 Zn1 1.953 . S
O0 C16 1.225 . S
Zn1 O0 1.953 . S
Zn1 O2 1.949 . S
Zn1 O8 1.919 1_455 S
Zn1 O13 1.924 . S
O2 Zn1 1.949 . S
O2 Zn3 1.923 1_455 S
O2 Zn4 1.950 . S
O2 Zn5 1.945 . S
Zn3 O2 1.923 1_655 S
Zn3 O6 1.933 1_655 S
Zn3 O9 1.941 . S
Zn3 O10 1.965 . S
Zn4 O2 1.950 . S
Zn4 O11 1.938 . S
Zn4 O12 1.906 . S
Zn4 O22 1.953 . S
Zn5 O2 1.945 . S
Zn5 O7 1.932 . S
Zn5 O14 1.977 . S
Zn5 O15 1.910 . S
O6 Zn3 1.933 1_455 S
O6 C17 1.226 . S
O7 Zn5 1.932 . S
O7 C17 1.307 . S
O8 Zn1 1.919 1_655 S
O8 C19 1.253 . S
O9 Zn3 1.941 . S
O9 C19 1.283 . S
O10 Zn3 1.965 . S
O10 C18 1.303 . S
O11 Zn4 1.938 . S
O11 C18 1.247 1_455 S
O12 Zn4 1.906 . S
O12 C20 1.304 . S
O13 Zn1 1.924 . S
O13 C21 1.311 . S
O14 Zn5 1.977 . S
O14 C20 1.272 . S
O15 Zn5 1.910 . S
O15 C21 1.231 . S
C16 O0 1.225 . S
C16 O22 1.298 . S
C17 O6 1.226 . S
C17 O7 1.307 . S
C18 O10 1.303 . S
C18 O11 1.247 1_655 S
C19 O8 1.253 . S
C19 O9 1.283 . S
C20 O12 1.304 . S
C20 O14 1.272 . S
C21 O13 1.311 . S
C21 O15 1.231 . S
O22 Zn4 1.953 . S
O22 C16 1.298 . S
O23 Zn24 1.953 . S
O23 C39 1.225 . S
Zn24 O23 1.953 . S
Zn24 O25 1.949 . S
Zn24 O31 1.919 . S
Zn24 O36 1.924 . S
O25 Zn24 1.949 . S
O25 Zn26 1.923 . S
O25 Zn27 1.950 . S
O25 Zn28 1.945 . S
Zn26 O25 1.923 . S
Zn26 O29 1.933 . S
Zn26 O32 1.941 . S
Zn26 O33 1.965 . S
Zn27 O25 1.950 . S
Zn27 O34 1.938 . S
Zn27 O35 1.893 1_545 S
Zn27 O45 1.953 . S
Zn28 O25 1.945 . S
Zn28 O30 1.932 . S
Zn28 O37 1.977 1_545 S
Zn28 O38 1.910 1_545 S
O29 Zn26 1.933 . S
O29 C40 1.226 . S
O30 Zn28 1.932 . S
O30 C40 1.307 . S
O31 Zn24 1.919 . S
O31 C42 1.253 . S
O32 Zn26 1.941 . S
O32 C42 1.283 . S
O33 Zn26 1.965 . S
O33 C41 1.303 . S
O34 Zn27 1.938 . S
O34 C41 1.247 . S
O35 Zn27 1.893 1_565 S
O35 C43 1.311 . S
O36 Zn24 1.924 . S
O36 C44 1.311 1_545 S
O37 Zn28 1.977 1_565 S
O37 C43 1.272 . S
O38 Zn28 1.910 1_565 S
O38 C44 1.231 . S
C39 O23 1.225 . S
C39 O45 1.298 . S
C40 O29 1.226 . S
C40 O30 1.307 . S
C41 O33 1.303 . S
C41 O34 1.247 . S
C42 O31 1.253 . S
C42 O32 1.283 . S
C43 O35 1.311 . S
C43 O37 1.272 . S
C44 O36 1.311 1_565 S
C44 O38 1.231 . S
O45 Zn27 1.953 . S
O45 C39 1.298 . S
O46 Zn47 1.953 . S
O46 C62 1.225 . S
Zn47 O46 1.953 . S
Zn47 O48 1.949 . S
Zn47 O54 1.919 . S
Zn47 O59 1.924 . S
O48 Zn47 1.949 . S
O48 Zn49 1.923 . S
O48 Zn50 1.950 . S
O48 Zn51 1.945 . S
Zn49 O48 1.923 . S
Zn49 O52 1.933 . S
Zn49 O55 1.941 . S
Zn49 O56 1.965 . S
Zn50 O48 1.950 . S
Zn50 O57 1.938 . S
Zn50 O58 1.906 . S
Zn50 O68 1.953 . S
Zn51 O48 1.945 . S
Zn51 O53 1.932 . S
Zn51 O60 1.977 . S
Zn51 O61 1.910 . S
O52 Zn49 1.933 . S
O52 C63 1.226 . S
O53 Zn51 1.932 . S
O53 C63 1.307 . S
O54 Zn47 1.919 . S
O54 C65 1.253 . S
O55 Zn49 1.941 . S
O55 C65 1.283 . S
O56 Zn49 1.965 . S
O56 C64 1.303 . S
O57 Zn50 1.938 . S
O57 C64 1.247 . S
O58 Zn50 1.906 . S
O58 C66 1.304 . S
O59 Zn47 1.924 . S
O59 C67 1.311 . S
O60 Zn51 1.977 . S
O60 C66 1.272 . S
O61 Zn51 1.910 . S
O61 C67 1.231 . S
C62 O46 1.225 . S
C62 O68 1.298 . S
C63 O52 1.226 . S
C63 O53 1.307 . S
C64 O56 1.303 . S
C64 O57 1.247 . S
C65 O54 1.253 . S
C65 O55 1.283 . S
C66 O58 1.304 . S
C66 O60 1.272 . S
C67 O59 1.311 . S
C67 O61 1.231 . S
O68 Zn50 1.953 . S
O68 C62 1.298 . S
H69 C70 0.949 . S
C70 H69 0.949 . S
C70 C71 1.395 . S
C70 C72 1.391 . S
C71 C70 1.395 . S
C71 C74 1.390 . S
C72 C70 1.391 . S
C72 C76 1.387 . S
C72 C77 1.491 . S
H73 C74 0.950 1_565 S
C74 C71 1.390 . S
C74 H73 0.950 1_545 S
C74 C75 1.378 . S
C75 C74 1.378 . S
C75 C76 1.409 . S
C76 C72 1.387 . S
C76 C75 1.409 . S
C76 H78 0.951 . S
C77 C72 1.491 . S
C77 C79 1.382 . S
C77 C81 1.404 . S
H78 C76 0.951 . S
C79 C77 1.382 . S
C79 C80 1.390 . S
C79 H84 0.949 . S
C80 C79 1.390 . S
C80 C85 1.399 . S
C81 C77 1.404 . S
C81 H82 0.950 . S
C81 C83 1.375 . S
H82 C81 0.950 . S
C83 C81 1.375 . S
C83 C85 1.382 . S
C83 H87 0.950 . S
H84 C79 0.949 . S
C85 C80 1.399 . S
C85 C83 1.382 . S
C85 H86 0.952 . S
H86 C85 0.952 . S
H87 C83 0.950 . S
H88 C89 0.949 . S
C89 H88 0.949 . S
C89 C90 1.395 . S
C89 C91 1.391 . S
C90 C89 1.395 . S
C90 C93 1.390 . S
C91 C89 1.391 . S
C91 C95 1.387 . S
C91 C96 1.491 . S
H92 C93 0.950 . S
C93 C90 1.390 . S
C93 H92 0.950 . S
C93 C94 1.378 . S
C94 C93 1.378 . S
C94 C95 1.409 . S
C95 C91 1.387 . S
C95 C94 1.409 . S
C95 H97 0.951 . S
C96 C91 1.491 . S
C96 C98 1.382 . S
C96 C100 1.404 . S
H97 C95 0.951 . S
C98 C96 1.382 . S
C98 C99 1.390 . S
C98 H103 0.949 . S
C99 C98 1.390 . S
C99 C104 1.399 . S
C100 C96 1.404 . S
C100 H101 0.950 . S
C100 C102 1.375 . S
H101 C100 0.950 . S
C102 C100 1.375 . S
C102 C104 1.382 . S
C102 H106 0.950 . S
H103 C98 0.949 . S
C104 C99 1.399 . S
C104 C102 1.382 . S
C104 H105 0.952 . S
H105 C104 0.952 . S
H106 C102 0.950 . S
H107 C108 0.949 . S
C108 H107 0.949 . S
C108 C109 1.395 . S
C108 C110 1.391 . S
C109 C108 1.395 . S
C109 C112 1.390 . S
C110 C108 1.391 . S
C110 C114 1.387 . S
C110 C115 1.491 . S
H111 C112 0.950 1_655 S
C112 C109 1.390 . S
C112 H111 0.950 1_455 S
C112 C113 1.380 . S
C113 C112 1.380 . S
C113 C114 1.432 . S
C114 C110 1.387 . S
C114 C113 1.432 . S
C114 H116 0.951 . S
C115 C110 1.491 . S
C115 C117 1.382 . S
C115 C119 1.404 . S
H116 C114 0.951 . S
C117 C115 1.382 . S
C117 C118 1.390 . S
C117 H122 0.949 . S
C118 C117 1.390 . S
C118 C123 1.399 . S
C119 C115 1.404 . S
C119 H120 0.950 . S
C119 C121 1.375 . S
H120 C119 0.950 . S
C121 C119 1.375 . S
C121 C123 1.382 . S
C121 H125 0.950 . S
H122 C117 0.949 . S
C123 C118 1.399 . S
C123 C121 1.382 . S
C123 H124 0.952 . S
H124 C123 0.952 . S
H125 C121 0.950 . S
H126 C127 0.949 1_655 S
C127 H126 0.949 1_455 S
C127 C128 1.395 . S
C127 C129 1.391 . S
C128 C127 1.395 . S
C128 C131 1.390 . S
C129 C127 1.391 . S
C129 C133 1.387 . S
C129 C134 1.491 1_455 S
H130 C131 0.950 . S
C131 C128 1.390 . S
C131 H130 0.950 . S
C131 C132 1.378 . S
C132 C131 1.378 . S
C132 C133 1.409 . S
C133 C129 1.387 . S
C133 C132 1.409 . S
C133 H135 0.951 . S
C134 C129 1.491 1_655 S
C134 C136 1.382 . S
C134 C138 1.404 . S
H135 C133 0.951 . S
C136 C134 1.382 . S
C136 C137 1.390 . S
C136 H141 0.949 . S
C137 C136 1.390 . S
C137 C142 1.399 . S
C138 C134 1.404 . S
C138 H139 0.950 . S
C138 C140 1.375 . S
H139 C138 0.950 . S
C140 C138 1.375 . S
C140 C142 1.382 . S
C140 H144 0.950 . S
H141 C136 0.949 . S
C142 C137 1.399 . S
C142 C140 1.382 . S
C142 H143 0.952 . S
H143 C142 0.952 . S
H144 C140 0.950 . S
H145 C146 0.949 1_565 S
C146 H145 0.949 1_545 S
C146 C147 1.395 . S
C146 C148 1.391 . S
C147 C146 1.395 . S
C147 C150 1.390 . S
C148 C146 1.391 . S
C148 C152 1.387 . S
C148 C153 1.491 1_545 S
H149 C150 0.950 . S
C150 C147 1.390 . S
C150 H149 0.950 . S
C150 C151 1.378 . S
C151 C150 1.378 . S
C151 C152 1.409 . S
C152 C148 1.387 . S
C152 C151 1.409 . S
C152 H154 0.951 . S
C153 C148 1.491 1_565 S
C153 C155 1.382 . S
C153 C157 1.404 . S
H154 C152 0.951 . S
C155 C153 1.382 . S
C155 C156 1.390 . S
C155 H160 0.949 . S
C156 C155 1.390 . S
C156 C161 1.399 . S
C157 C153 1.404 . S
C157 H158 0.950 1_565 S
C157 C159 1.375 . S
H158 C157 0.950 1_545 S
C159 C157 1.375 . S
C159 C161 1.382 . S
C159 H163 0.950 . S
H160 C155 0.949 . S
C161 C156 1.399 . S
C161 C159 1.382 . S
C161 H162 0.952 . S
H162 C161 0.952 . S
H163 C159 0.950 . S
H164 C165 0.949 . S
C165 H164 0.949 . S
C165 C166 1.395 . S
C165 C167 1.391 . S
C166 C165 1.395 . S
C166 C169 1.390 . S
C167 C165 1.391 . S
C167 C171 1.387 . S
C167 C172 1.491 . S
H168 C169 0.950 . S
C169 C166 1.390 . S
C169 H168 0.950 . S
C169 C170 1.378 . S
C170 C169 1.378 . S
C170 C171 1.409 . S
C171 C167 1.387 . S
C171 C170 1.409 . S
C171 H173 0.951 . S
C172 C167 1.491 . S
C172 C174 1.382 . S
C172 C176 1.404 . S
H173 C171 0.951 . S
C174 C172 1.382 . S
C174 C175 1.390 . S
C174 H179 0.949 . S
C175 C174 1.390 . S
C175 C180 1.399 . S
C176 C172 1.404 . S
C176 H177 0.950 . S
C176 C178 1.375 . S
H177 C176 0.950 . S
C178 C176 1.375 . S
C178 C180 1.382 . S
C178 H182 0.950 . S
H179 C174 0.949 . S
C180 C175 1.399 . S
C180 C178 1.382 . S
C180 H181 0.952 . S
H181 C180 0.952 . S
H182 C178 0.950 . S
H183 C195 0.930 . S
H184 C197 0.930 . S
H185 C198 0.930 . S
H186 C202 0.959 . S
H187 C202 0.959 . S
H188 C202 0.961 . S
H189 C203 0.960 . S
H190 C203 0.961 . S
H191 C203 0.959 . S
H192 C206 0.929 . S
H193 C207 0.931 . S
H194 C209 0.930 . S
C195 H183 0.930 . S
C195 C196 1.399 . S
C195 C200 1.399 . S
C196 C195 1.399 . S
C196 C197 1.376 . S
C197 H184 0.930 . S
C197 C196 1.376 . S
C197 C198 1.388 . S
C198 H185 0.930 . S
C198 C197 1.388 . S
C198 C199 1.390 . S
C199 C198 1.390 . S
C199 C200 1.394 . S
C199 C205 1.465 . S
C200 C195 1.399 . S
C200 C199 1.394 . S
C200 C201 1.516 . S
C201 C200 1.516 . S
C201 C202 1.502 . S
C201 C203 1.561 . S
C201 C204 1.526 . S
C202 H186 0.959 . S
C202 H187 0.959 . S
C202 H188 0.961 . S
C202 C201 1.502 . S
C203 H189 0.960 . S
C203 H190 0.961 . S
C203 H191 0.959 . S
C203 C201 1.561 . S
C204 C201 1.526 . S
C204 C205 1.396 . S
C204 C209 1.390 . S
C205 C199 1.465 . S
C205 C204 1.396 . S
C205 C206 1.399 . S
C206 H192 0.929 . S
C206 C205 1.399 . S
C206 C207 1.385 . S
C207 H193 0.931 . S
C207 C206 1.385 . S
C207 C208 1.389 . S
C208 C207 1.389 . S
C208 C209 1.387 . S
C209 H194 0.930 . S
C209 C204 1.390 . S
C209 C208 1.387 . S
H210 C222 0.930 . S
H211 C224 0.930 . S
H212 C225 0.930 . S
H213 C229 0.959 . S
H214 C229 0.959 . S
H215 C229 0.961 . S
H216 C230 0.960 . S
H217 C230 0.961 . S
H218 C230 0.959 . S
H219 C233 0.929 . S
H220 C234 0.931 . S
H221 C236 0.930 . S
C222 H210 0.930 . S
C222 C223 1.399 . S
C222 C227 1.399 . S
C223 C222 1.399 . S
C223 C224 1.376 . S
C224 H211 0.930 . S
C224 C223 1.376 . S
C224 C225 1.388 . S
C225 H212 0.930 . S
C225 C224 1.388 . S
C225 C226 1.390 . S
C226 C225 1.390 . S
C226 C227 1.394 . S
C226 C232 1.465 . S
C227 C222 1.399 . S
C227 C226 1.394 . S
C227 C228 1.516 . S
C228 C227 1.516 . S
C228 C229 1.502 . S
C228 C230 1.561 . S
C228 C231 1.526 . S
C229 H213 0.959 . S
C229 H214 0.959 . S
C229 H215 0.961 . S
C229 C228 1.502 . S
C230 H216 0.960 . S
C230 H217 0.961 . S
C230 H218 0.959 . S
C230 C228 1.561 . S
C231 C228 1.526 . S
C231 C232 1.396 . S
C231 C236 1.390 . S
C232 C226 1.465 . S
C232 C231 1.396 . S
C232 C233 1.399 . S
C233 H219 0.929 . S
C233 C232 1.399 . S
C233 C234 1.385 . S
C234 H220 0.931 . S
C234 C233 1.385 . S
C234 C235 1.389 . S
C235 C234 1.389 . S
C235 C236 1.387 . S
C236 H221 0.930 . S
C236 C231 1.390 . S
C236 C235 1.387 . S
H237 C249 0.930 . S
H238 C251 0.930 . S
H239 C252 0.930 . S
H240 C256 0.959 . S
H241 C256 0.959 . S
H242 C256 0.961 . S
H243 C257 0.960 . S
H244 C257 0.961 . S
H245 C257 0.959 . S
H246 C260 0.929 . S
H247 C261 0.931 . S
H248 C263 0.930 . S
C249 H237 0.930 . S
C249 C250 1.399 . S
C249 C254 1.399 . S
C250 C249 1.399 . S
C250 C251 1.376 . S
C251 H238 0.930 . S
C251 C250 1.376 . S
C251 C252 1.388 . S
C252 H239 0.930 . S
C252 C251 1.388 . S
C252 C253 1.390 . S
C253 C252 1.390 . S
C253 C254 1.394 . S
C253 C259 1.465 . S
C254 C249 1.399 . S
C254 C253 1.394 . S
C254 C255 1.516 . S
C255 C254 1.516 . S
C255 C256 1.502 . S
C255 C257 1.561 . S
C255 C258 1.526 . S
C256 H240 0.959 . S
C256 H241 0.959 . S
C256 H242 0.961 . S
C256 C255 1.502 . S
C257 H243 0.960 . S
C257 H244 0.961 . S
C257 H245 0.959 . S
C257 C255 1.561 . S
C258 C255 1.526 . S
C258 C259 1.396 . S
C258 C263 1.390 . S
C259 C253 1.465 . S
C259 C258 1.396 . S
C259 C260 1.399 . S
C260 H246 0.929 . S
C260 C259 1.399 . S
C260 C261 1.385 . S
C261 H247 0.931 . S
C261 C260 1.385 . S
C261 C262 1.389 . S
C262 C261 1.389 . S
C262 C263 1.387 . S
C263 H248 0.930 . S
C263 C258 1.390 . S
C263 C262 1.387 . S
H264 C276 0.930 . S
H265 C278 0.930 . S
H266 C279 0.930 . S
H267 C283 0.959 . S
H268 C283 0.959 . S
H269 C283 0.961 . S
H270 C284 0.960 . S
H271 C284 0.961 . S
H272 C284 0.959 . S
H273 C287 0.929 . S
H274 C288 0.931 . S
H275 C290 0.930 . S
C276 H264 0.930 . S
C276 C277 1.399 . S
C276 C281 1.399 . S
C277 C276 1.399 . S
C277 C278 1.376 . S
C278 H265 0.930 . S
C278 C277 1.376 . S
C278 C279 1.388 . S
C279 H266 0.930 . S
C279 C278 1.388 . S
C279 C280 1.390 . S
C280 C279 1.390 . S
C280 C281 1.394 . S
C280 C286 1.465 . S
C281 C276 1.399 . S
C281 C280 1.394 . S
C281 C282 1.516 . S
C282 C281 1.516 . S
C282 C283 1.502 . S
C282 C284 1.561 . S
C282 C285 1.526 . S
C283 H267 0.959 . S
C283 H268 0.959 . S
C283 H269 0.961 . S
C283 C282 1.502 . S
C284 H270 0.960 . S
C284 H271 0.961 . S
C284 H272 0.959 . S
C284 C282 1.561 . S
C285 C282 1.526 . S
C285 C286 1.396 . S
C285 C290 1.390 . S
C286 C280 1.465 . S
C286 C285 1.396 . S
C286 C287 1.399 . S
C287 H273 0.929 . S
C287 C286 1.399 . S
C287 C288 1.385 . S
C288 H274 0.931 . S
C288 C287 1.385 . S
C288 C289 1.389 . S
C289 C288 1.389 . S
C289 C290 1.387 . S
C290 H275 0.930 . S
C290 C285 1.390 . S
C290 C289 1.387 . S
H291 C303 0.930 . S
H292 C305 0.930 . S
H293 C306 0.930 . S
H294 C310 0.959 . S
H295 C310 0.959 . S
H296 C310 0.961 . S
H297 C311 0.960 . S
H298 C311 0.961 . S
H299 C311 0.959 . S
H300 C314 0.929 . S
H301 C315 0.931 . S
H302 C317 0.930 . S
C303 H291 0.930 . S
C303 C304 1.399 . S
C303 C308 1.399 . S
C304 C303 1.399 . S
C304 C305 1.376 . S
C305 H292 0.930 . S
C305 C304 1.376 . S
C305 C306 1.388 . S
C306 H293 0.930 . S
C306 C305 1.388 . S
C306 C307 1.390 . S
C307 C306 1.390 . S
C307 C308 1.394 . S
C307 C313 1.465 . S
C308 C303 1.399 . S
C308 C307 1.394 . S
C308 C309 1.516 . S
C309 C308 1.516 . S
C309 C310 1.502 . S
C309 C311 1.561 . S
C309 C312 1.526 . S
C310 H294 0.959 . S
C310 H295 0.959 . S
C310 H296 0.961 . S
C310 C309 1.502 . S
C311 H297 0.960 . S
C311 H298 0.961 . S
C311 H299 0.959 . S
C311 C309 1.561 . S
C312 C309 1.526 . S
C312 C313 1.396 . S
C312 C317 1.390 . S
C313 C307 1.465 . S
C313 C312 1.396 . S
C313 C314 1.399 . S
C314 H300 0.929 . S
C314 C313 1.399 . S
C314 C315 1.385 . S
C315 H301 0.931 . S
C315 C314 1.385 . S
C315 C316 1.389 . S
C316 C315 1.389 . S
C316 C317 1.387 . S
C317 H302 0.930 . S
C317 C312 1.390 . S
C317 C316 1.387 . S
H318 C330 0.930 . S
H319 C332 0.930 . S
H320 C333 0.930 . S
H321 C337 0.959 . S
H322 C337 0.959 . S
H323 C337 0.961 . S
H324 C338 0.960 . S
H325 C338 0.961 . S
H326 C338 0.959 . S
H327 C341 0.929 . S
H328 C342 0.931 . S
H329 C344 0.930 . S
C330 H318 0.930 . S
C330 C331 1.399 . S
C330 C335 1.399 . S
C331 C330 1.399 . S
C331 C332 1.376 . S
C332 H319 0.930 . S
C332 C331 1.376 . S
C332 C333 1.388 . S
C333 H320 0.930 . S
C333 C332 1.388 . S
C333 C334 1.390 . S
C334 C333 1.390 . S
C334 C335 1.394 . S
C334 C340 1.465 . S
C335 C330 1.399 . S
C335 C334 1.394 . S
C335 C336 1.516 . S
C336 C335 1.516 . S
C336 C337 1.502 . S
C336 C338 1.561 . S
C336 C339 1.526 . S
C337 H321 0.959 . S
C337 H322 0.959 . S
C337 H323 0.961 . S
C337 C336 1.502 . S
C338 H324 0.960 . S
C338 H325 0.961 . S
C338 H326 0.959 . S
C338 C336 1.561 . S
C339 C336 1.526 . S
C339 C340 1.396 . S
C339 C344 1.390 . S
C340 C334 1.465 . S
C340 C339 1.396 . S
C340 C341 1.399 . S
C341 H327 0.929 . S
C341 C340 1.399 . S
C341 C342 1.385 . S
C342 H328 0.931 . S
C342 C341 1.385 . S
C342 C343 1.389 . S
C343 C342 1.389 . S
C343 C344 1.387 . S
C344 H329 0.930 . S
C344 C339 1.390 . S
C344 C343 1.387 . S
H345 C357 0.930 . S
H346 C359 0.930 . S
H347 C360 0.930 . S
H348 C364 0.959 . S
H349 C364 0.959 . S
H350 C364 0.961 . S
H351 C365 0.960 . S
H352 C365 0.961 . S
H353 C365 0.959 . S
H354 C368 0.929 . S
H355 C369 0.931 . S
H356 C371 0.930 . S
C357 H345 0.930 . S
C357 C358 1.399 . S
C357 C362 1.399 . S
C358 C357 1.399 . S
C358 C359 1.376 . S
C359 H346 0.930 . S
C359 C358 1.376 . S
C359 C360 1.388 . S
C360 H347 0.930 . S
C360 C359 1.388 . S
C360 C361 1.390 . S
C361 C360 1.390 . S
C361 C362 1.394 . S
C361 C367 1.465 . S
C362 C357 1.399 . S
C362 C361 1.394 . S
C362 C363 1.516 . S
C363 C362 1.516 . S
C363 C364 1.502 . S
C363 C365 1.561 . S
C363 C366 1.526 . S
C364 H348 0.959 . S
C364 H349 0.959 . S
C364 H350 0.961 . S
C364 C363 1.502 . S
C365 H351 0.960 . S
C365 H352 0.961 . S
C365 H353 0.959 . S
C365 C363 1.561 . S
C366 C363 1.526 . S
C366 C367 1.396 . S
C366 C371 1.390 . S
C367 C361 1.465 . S
C367 C366 1.396 . S
C367 C368 1.399 . S
C368 H354 0.929 . S
C368 C367 1.399 . S
C368 C369 1.385 . S
C369 H355 0.931 . S
C369 C368 1.385 . S
C369 C370 1.389 . S
C370 C369 1.389 . S
C370 C371 1.387 . S
C371 H356 0.930 . S
C371 C366 1.390 . S
C371 C370 1.387 . S
H372 C384 0.930 . S
H373 C386 0.930 . S
H374 C387 0.930 . S
H375 C391 0.959 . S
H376 C391 0.959 . S
H377 C391 0.961 . S
H378 C392 0.960 . S
H379 C392 0.961 . S
H380 C392 0.959 . S
H381 C395 0.929 . S
H382 C396 0.931 1_455 S
H383 C398 0.930 . S
C384 H372 0.930 . S
C384 C385 1.399 . S
C384 C389 1.399 . S
C385 C384 1.399 . S
C385 C386 1.376 . S
C386 H373 0.930 . S
C386 C385 1.376 . S
C386 C387 1.388 . S
C387 H374 0.930 . S
C387 C386 1.388 . S
C387 C388 1.390 . S
C388 C387 1.390 . S
C388 C389 1.394 . S
C388 C394 1.465 . S
C389 C384 1.399 . S
C389 C388 1.394 . S
C389 C390 1.516 . S
C390 C389 1.516 . S
C390 C391 1.502 . S
C390 C392 1.561 . S
C390 C393 1.526 . S
C391 H375 0.959 . S
C391 H376 0.959 . S
C391 H377 0.961 . S
C391 C390 1.502 . S
C392 H378 0.960 . S
C392 H379 0.961 . S
C392 H380 0.959 . S
C392 C390 1.561 . S
C393 C390 1.526 . S
C393 C394 1.396 . S
C393 C398 1.390 . S
C394 C388 1.465 . S
C394 C393 1.396 . S
C394 C395 1.399 . S
C395 H381 0.929 . S
C395 C394 1.399 . S
C395 C396 1.385 . S
C396 H382 0.931 1_655 S
C396 C395 1.385 . S
C396 C397 1.389 . S
C397 C396 1.389 . S
C397 C398 1.387 . S
C398 H383 0.930 . S
C398 C393 1.390 . S
C398 C397 1.387 . S
H399 C411 0.930 . S
H400 C413 0.930 . S
H401 C414 0.930 . S
H402 C418 0.959 . S
H403 C418 0.959 . S
H404 C418 0.961 . S
H405 C419 0.960 . S
H406 C419 0.961 . S
H407 C419 0.959 . S
H408 C422 0.929 . S
H409 C423 0.931 . S
H410 C425 0.930 . S
C411 H399 0.930 . S
C411 C412 1.399 . S
C411 C416 1.399 . S
C412 C411 1.399 . S
C412 C413 1.376 . S
C413 H400 0.930 . S
C413 C412 1.376 . S
C413 C414 1.388 . S
C414 H401 0.930 . S
C414 C413 1.388 . S
C414 C415 1.390 . S
C415 C414 1.390 . S
C415 C416 1.394 . S
C415 C421 1.465 . S
C416 C411 1.399 . S
C416 C415 1.394 . S
C416 C417 1.516 . S
C417 C416 1.516 . S
C417 C418 1.502 . S
C417 C419 1.561 . S
C417 C420 1.526 . S
C418 H402 0.959 . S
C418 H403 0.959 . S
C418 H404 0.961 . S
C418 C417 1.502 . S
C419 H405 0.960 . S
C419 H406 0.961 . S
C419 H407 0.959 . S
C419 C417 1.561 . S
C420 C417 1.526 . S
C420 C421 1.396 . S
C420 C425 1.390 . S
C421 C415 1.465 . S
C421 C420 1.396 . S
C421 C422 1.399 . S
C422 H408 0.929 . S
C422 C421 1.399 . S
C422 C423 1.385 . S
C423 H409 0.931 . S
C423 C422 1.385 . S
C423 C424 1.389 . S
C424 C423 1.389 . S
C424 C425 1.387 . S
C425 H410 0.930 . S
C425 C420 1.390 . S
C425 C424 1.387 . S
H426 C438 0.930 . S
H427 C440 0.930 . S
H428 C441 0.930 . S
H429 C445 0.959 . S
H430 C445 0.959 . S
H431 C445 0.961 . S
H432 C446 0.960 . S
H433 C446 0.961 . S
H434 C446 0.959 . S
H435 C449 0.929 . S
H436 C450 0.931 . S
H437 C452 0.930 . S
C438 H426 0.930 . S
C438 C439 1.399 . S
C438 C443 1.399 . S
C439 C438 1.399 . S
C439 C440 1.376 . S
C440 H427 0.930 . S
C440 C439 1.376 . S
C440 C441 1.388 . S
C441 H428 0.930 . S
C441 C440 1.388 . S
C441 C442 1.390 . S
C442 C441 1.390 . S
C442 C443 1.394 . S
C442 C448 1.465 . S
C443 C438 1.399 . S
C443 C442 1.394 . S
C443 C444 1.516 . S
C444 C443 1.516 . S
C444 C445 1.502 . S
C444 C446 1.561 . S
C444 C447 1.526 . S
C445 H429 0.959 . S
C445 H430 0.959 . S
C445 H431 0.961 . S
C445 C444 1.502 . S
C446 H432 0.960 . S
C446 H433 0.961 . S
C446 H434 0.959 . S
C446 C444 1.561 . S
C447 C444 1.526 . S
C447 C448 1.396 . S
C447 C452 1.390 . S
C448 C442 1.465 . S
C448 C447 1.396 . S
C448 C449 1.399 . S
C449 H435 0.929 . S
C449 C448 1.399 . S
C449 C450 1.385 . S
C450 H436 0.931 . S
C450 C449 1.385 . S
C450 C451 1.389 . S
C451 C450 1.389 . S
C451 C452 1.387 . S
C452 H437 0.930 . S
C452 C447 1.390 . S
C452 C451 1.387 . S
H453 C465 0.930 . S
H454 C467 0.930 . S
H455 C468 0.930 . S
H456 C472 0.959 . S
H457 C472 0.959 . S
H458 C472 0.961 . S
H459 C473 0.960 . S
H460 C473 0.961 . S
H461 C473 0.959 . S
H462 C476 0.929 . S
H463 C477 0.931 . S
H464 C479 0.930 . S
C465 H453 0.930 . S
C465 C466 1.399 . S
C465 C470 1.399 . S
C466 C465 1.399 . S
C466 C467 1.376 . S
C467 H454 0.930 . S
C467 C466 1.376 . S
C467 C468 1.388 . S
C468 H455 0.930 . S
C468 C467 1.388 . S
C468 C469 1.390 . S
C469 C468 1.390 . S
C469 C470 1.394 . S
C469 C475 1.465 . S
C470 C465 1.399 . S
C470 C469 1.394 . S
C470 C471 1.516 . S
C471 C470 1.516 . S
C471 C472 1.502 . S
C471 C473 1.561 . S
C471 C474 1.526 . S
C472 H456 0.959 . S
C472 H457 0.959 . S
C472 H458 0.961 . S
C472 C471 1.502 . S
C473 H459 0.960 . S
C473 H460 0.961 . S
C473 H461 0.959 . S
C473 C471 1.561 . S
C474 C471 1.526 . S
C474 C475 1.396 . S
C474 C479 1.390 . S
C475 C469 1.465 . S
C475 C474 1.396 . S
C475 C476 1.399 . S
C476 H462 0.929 . S
C476 C475 1.399 . S
C476 C477 1.385 . S
C477 H463 0.931 . S
C477 C476 1.385 . S
C477 C478 1.389 . S
C478 C477 1.389 . S
C478 C479 1.387 . S
C479 H464 0.930 . S
C479 C474 1.390 . S
C479 C478 1.387 . S
H480 C492 0.930 . S
H481 C494 0.930 . S
H482 C495 0.930 . S
H483 C499 0.959 . S
H484 C499 0.959 . S
H485 C499 0.961 . S
H486 C500 0.960 . S
H487 C500 0.961 . S
H488 C500 0.959 . S
H489 C503 0.929 . S
H490 C504 0.931 . S
H491 C506 0.930 . S
C492 H480 0.930 . S
C492 C493 1.399 . S
C492 C497 1.399 . S
C493 C492 1.399 . S
C493 C494 1.376 . S
C494 H481 0.930 . S
C494 C493 1.376 . S
C494 C495 1.388 . S
C495 H482 0.930 . S
C495 C494 1.388 . S
C495 C496 1.390 . S
C496 C495 1.390 . S
C496 C497 1.394 . S
C496 C502 1.465 . S
C497 C492 1.399 . S
C497 C496 1.394 . S
C497 C498 1.516 . S
C498 C497 1.516 . S
C498 C499 1.502 . S
C498 C500 1.561 . S
C498 C501 1.526 . S
C499 H483 0.959 . S
C499 H484 0.959 . S
C499 H485 0.961 . S
C499 C498 1.502 . S
C500 H486 0.960 . S
C500 H487 0.961 . S
C500 H488 0.959 . S
C500 C498 1.561 . S
C501 C498 1.526 . S
C501 C502 1.396 . S
C501 C506 1.390 . S
C502 C496 1.465 . S
C502 C501 1.396 . S
C502 C503 1.399 . S
C503 H489 0.929 . S
C503 C502 1.399 . S
C503 C504 1.385 . S
C504 H490 0.931 . S
C504 C503 1.385 . S
C504 C505 1.389 . S
C505 C504 1.389 . S
C505 C506 1.387 . S
C506 H491 0.930 . S
C506 C501 1.390 . S
C506 C505 1.387 . S
H507 C519 0.930 . S
H508 C521 0.930 . S
H509 C522 0.930 . S
H510 C526 0.959 1_556 S
H511 C526 0.959 1_556 S
H512 C526 0.961 . S
H513 C527 0.960 . S
H514 C527 0.941 1_556 S
H515 C527 0.959 . S
H516 C530 0.929 . S
H517 C531 0.931 . S
H518 C533 0.930 . S
C519 H507 0.930 . S
C519 C520 1.399 . S
C519 C524 1.399 . S
C520 C519 1.399 . S
C520 C521 1.376 . S
C521 H508 0.930 . S
C521 C520 1.376 . S
C521 C522 1.388 . S
C522 H509 0.930 . S
C522 C521 1.388 . S
C522 C523 1.390 . S
C523 C522 1.390 . S
C523 C524 1.394 . S
C523 C529 1.465 . S
C524 C519 1.399 . S
C524 C523 1.394 . S
C524 C525 1.516 . S
C525 C524 1.516 . S
C525 C526 1.502 . S
C525 C527 1.561 . S
C525 C528 1.526 1_554 S
C526 H510 0.959 1_554 S
C526 H511 0.959 1_554 S
C526 H512 0.961 . S
C526 C525 1.502 . S
C527 H513 0.960 . S
C527 H514 0.941 1_554 S
C527 H515 0.959 . S
C527 C525 1.561 . S
C528 C525 1.526 1_556 S
C528 C529 1.396 1_556 S
C528 C533 1.390 . S
C529 C523 1.465 . S
C529 C528 1.396 1_554 S
C529 C530 1.399 1_554 S
C530 H516 0.929 . S
C530 C529 1.399 1_556 S
C530 C531 1.385 . S
C531 H517 0.931 . S
C531 C530 1.385 . S
C531 C532 1.389 . S
C532 C531 1.389 . S
C532 C533 1.387 . S
C533 H518 0.930 . S
C533 C528 1.390 . S
C533 C532 1.387 . S
H534 C546 0.920 1_565 S
H535 C548 0.930 . S
H536 C549 0.930 . S
H537 C553 0.959 1_545 S
H538 C553 0.959 . S
H539 C553 0.961 . S
H540 C554 0.960 . S
H541 C554 0.961 . S
H542 C554 0.959 . S
H543 C557 0.929 . S
H544 C558 0.931 . S
H545 C560 0.930 . S
C546 H534 0.920 1_545 S
C546 C547 1.399 . S
C546 C551 1.399 . S
C547 C546 1.399 . S
C547 C548 1.376 . S
C548 H535 0.930 . S
C548 C547 1.376 . S
C548 C549 1.388 . S
C549 H536 0.930 . S
C549 C548 1.388 . S
C549 C550 1.390 . S
C550 C549 1.390 . S
C550 C551 1.394 . S
C550 C556 1.465 . S
C551 C546 1.399 . S
C551 C550 1.394 . S
C551 C552 1.516 . S
C552 C551 1.516 . S
C552 C553 1.502 1_545 S
C552 C554 1.561 1_545 S
C552 C555 1.526 . S
C553 H537 0.959 1_565 S
C553 H538 0.959 . S
C553 H539 0.961 . S
C553 C552 1.502 1_565 S
C554 H540 0.960 . S
C554 H541 0.961 . S
C554 H542 0.959 . S
C554 C552 1.561 1_565 S
C555 C552 1.526 . S
C555 C556 1.396 . S
C555 C560 1.390 . S
C556 C550 1.465 . S
C556 C555 1.396 . S
C556 C557 1.399 . S
C557 H543 0.929 . S
C557 C556 1.399 . S
C557 C558 1.385 . S
C558 H544 0.931 . S
C558 C557 1.385 . S
C558 C559 1.389 . S
C559 C558 1.389 . S
C559 C560 1.387 . S
C560 H545 0.930 . S
C560 C555 1.390 . S
C560 C559 1.387 . S
H561 C573 0.930 . S
H562 C575 0.930 . S
H563 C576 0.930 . S
H564 C580 0.959 . S
H565 C580 0.959 . S
H566 C580 0.961 . S
H567 C581 0.960 . S
H568 C581 0.961 . S
H569 C581 0.959 . S
H570 C584 0.929 . S
H571 C585 0.931 . S
H572 C587 0.930 . S
C573 H561 0.930 . S
C573 C574 1.399 . S
C573 C578 1.399 . S
C574 C573 1.399 . S
C574 C575 1.376 . S
C575 H562 0.930 . S
C575 C574 1.376 . S
C575 C576 1.388 . S
C576 H563 0.930 . S
C576 C575 1.388 . S
C576 C577 1.390 . S
C577 C576 1.390 . S
C577 C578 1.394 . S
C577 C583 1.465 . S
C578 C573 1.399 . S
C578 C577 1.394 . S
C578 C579 1.516 . S
C579 C578 1.516 . S
C579 C580 1.502 . S
C579 C581 1.561 . S
C579 C582 1.526 . S
C580 H564 0.959 . S
C580 H565 0.959 . S
C580 H566 0.961 . S
C580 C579 1.502 . S
C581 H567 0.960 . S
C581 H568 0.961 . S
C581 H569 0.959 . S
C581 C579 1.561 . S
C582 C579 1.526 . S
C582 C583 1.396 . S
C582 C587 1.390 . S
C583 C577 1.465 . S
C583 C582 1.396 . S
C583 C584 1.399 . S
C584 H570 0.929 . S
C584 C583 1.399 . S
C584 C585 1.385 . S
C585 H571 0.931 . S
C585 C584 1.385 . S
C585 C586 1.389 . S
C586 C585 1.389 . S
C586 C587 1.387 . S
C587 H572 0.930 . S
C587 C582 1.390 . S
C587 C586 1.387 . S
H588 C600 0.930 . S
H589 C602 0.926 1_565 S
H590 C603 0.930 1_565 S
H591 C607 0.959 . S
H592 C607 0.959 . S
H593 C607 0.961 . S
H594 C608 0.960 . S
H595 C608 0.961 . S
H596 C608 0.959 . S
H597 C611 0.929 1_565 S
H598 C612 0.931 1_565 S
H599 C614 0.930 . S
C600 H588 0.930 . S
C600 C601 1.399 . S
C600 C605 1.399 . S
C601 C600 1.399 . S
C601 C602 1.376 . S
C602 H589 0.926 1_545 S
C602 C601 1.376 . S
C602 C603 1.388 . S
C603 H590 0.930 1_545 S
C603 C602 1.388 . S
C603 C604 1.390 . S
C604 C603 1.390 . S
C604 C605 1.394 . S
C604 C610 1.465 . S
C605 C600 1.399 . S
C605 C604 1.394 . S
C605 C606 1.516 . S
C606 C605 1.516 . S
C606 C607 1.502 . S
C606 C608 1.561 . S
C606 C609 1.526 . S
C607 H591 0.959 . S
C607 H592 0.959 . S
C607 H593 0.961 . S
C607 C606 1.502 . S
C608 H594 0.960 . S
C608 H595 0.961 . S
C608 H596 0.959 . S
C608 C606 1.561 . S
C609 C606 1.526 . S
C609 C610 1.396 . S
C609 C614 1.390 . S
C610 C604 1.465 . S
C610 C609 1.396 . S
C610 C611 1.399 . S
C611 H597 0.929 1_545 S
C611 C610 1.399 . S
C611 C612 1.385 . S
C612 H598 0.931 1_545 S
C612 C611 1.385 . S
C612 C613 1.389 . S
C613 C612 1.389 . S
C613 C614 1.387 . S
C614 H599 0.930 . S
C614 C609 1.390 . S
C614 C613 1.387 . S
H615 C627 0.930 . S
H616 C629 0.930 . S
H617 C630 0.930 . S
H618 C634 0.959 1_554 S
H619 C634 0.959 1_554 S
H620 C634 0.961 . S
H621 C635 0.960 . S
H622 C635 0.961 1_554 S
H623 C635 0.959 . S
H624 C638 0.929 1_556 S
H625 C639 0.931 . S
H626 C641 0.930 . S
C627 H615 0.930 . S
C627 C628 1.399 . S
C627 C632 1.399 . S
C628 C627 1.399 . S
C628 C629 1.376 . S
C629 H616 0.930 . S
C629 C628 1.376 . S
C629 C630 1.388 . S
C630 H617 0.930 . S
C630 C629 1.388 . S
C630 C631 1.390 . S
C631 C630 1.390 . S
C631 C632 1.394 . S
C631 C637 1.465 . S
C632 C627 1.399 . S
C632 C631 1.394 . S
C632 C633 1.516 . S
C633 C632 1.516 . S
C633 C634 1.502 . S
C633 C635 1.561 . S
C633 C636 1.526 1_556 S
C634 H618 0.959 1_556 S
C634 H619 0.959 1_556 S
C634 H620 0.961 . S
C634 C633 1.502 . S
C635 H621 0.960 . S
C635 H622 0.961 1_556 S
C635 H623 0.959 . S
C635 C633 1.561 . S
C636 C633 1.526 1_554 S
C636 C637 1.396 1_554 S
C636 C641 1.390 . S
C637 C631 1.465 . S
C637 C636 1.396 1_556 S
C637 C638 1.399 1_556 S
C638 H624 0.929 1_554 S
C638 C637 1.399 1_554 S
C638 C639 1.385 . S
C639 H625 0.931 . S
C639 C638 1.385 . S
C639 C640 1.389 . S
C640 C639 1.389 . S
C640 C641 1.387 . S
C641 H626 0.930 . S
C641 C636 1.390 . S
C641 C640 1.387 . S
H642 C654 0.930 . S
H643 C656 0.930 . S
H644 C657 0.930 . S
H645 C661 0.959 . S
H646 C661 0.959 . S
H647 C661 0.961 . S
H648 C662 0.960 . S
H649 C662 0.961 . S
H650 C662 0.959 . S
H651 C665 0.929 . S
H652 C666 0.931 . S
H653 C668 0.930 . S
C654 H642 0.930 . S
C654 C655 1.399 . S
C654 C659 1.399 . S
C655 C654 1.399 . S
C655 C656 1.376 1_455 S
C656 H643 0.930 . S
C656 C655 1.376 1_655 S
C656 C657 1.388 . S
C657 H644 0.930 . S
C657 C656 1.388 . S
C657 C658 1.390 1_655 S
C658 C657 1.390 1_455 S
C658 C659 1.394 . S
C658 C664 1.465 . S
C659 C654 1.399 . S
C659 C658 1.394 . S
C659 C660 1.516 . S
C660 C659 1.516 . S
C660 C661 1.502 . S
C660 C662 1.561 . S
C660 C663 1.526 . S
C661 H645 0.959 . S
C661 H646 0.959 . S
C661 H647 0.961 . S
C661 C660 1.502 . S
C662 H648 0.960 . S
C662 H649 0.961 . S
C662 H650 0.959 . S
C662 C660 1.561 . S
C663 C660 1.526 . S
C663 C664 1.396 . S
C663 C668 1.390 . S
C664 C658 1.465 . S
C664 C663 1.396 . S
C664 C665 1.399 1_455 S
C665 H651 0.929 . S
C665 C664 1.399 1_655 S
C665 C666 1.385 . S
C666 H652 0.931 . S
C666 C665 1.385 . S
C666 C667 1.389 1_655 S
C667 C666 1.389 1_455 S
C667 C668 1.387 . S
C668 H653 0.930 . S
C668 C663 1.390 . S
C668 C667 1.387 . S
C196 C20 1.306 . S
C208 C175 1.264 . S
C223 C41 1.316 . S
C235 C137 1.204 . S
C250 C64 1.328 . S
C262 C156 1.258 . S
C277 C19 1.232 . S
C289 C170 1.372 . S
C316 C132 1.313 . S
C304 C44 1.279 . S
C343 C151 1.218 . S
C331 C67 1.271 . S
C358 C43 1.254 . S
C370 C99 1.193 . S
C385 C66 1.217 . S
C397 C113 1.185 1_655 S
C412 C21 1.317 . S
C424 C75 1.280 1_565 S
C451 C94 1.349 . S
C439 C42 1.216 . S
C478 C118 1.283 . S
C466 C65 1.300 . S
C493 C18 1.324 . S
C505 C80 1.212 . S
C532 C109 1.584 . S
C520 C17 1.554 . S
C547 C39 1.591 . S
C559 C71 1.573 . S
C574 C62 1.563 . S
C586 C90 1.584 . S
C613 C147 1.570 . S
C601 C40 1.578 . S
C640 C166 1.570 . S
C628 C63 1.559 . S
C655 C16 1.580 . S
C667 C128 1.578 . S
