# Generated by pormake.
# Topology anh, (6,3)-cn, num edge types: 1
# Building blocks:
#     Node 0, Type 0, BuildingBlock: GEDQOX_clean_sbu_0, # of connection points: 6
#     Node 1, Type 0, BuildingBlock: GEDQOX_clean_sbu_0, # of connection points: 6
#     Node 2, Type 0, BuildingBlock: GEDQOX_clean_sbu_0, # of connection points: 6
#     Node 3, Type 1, BuildingBlock: ESEHIV_clean_linker_0, # of connection points: 3
#     Node 4, Type 1, BuildingBlock: ESEHIV_clean_linker_0, # of connection points: 3
#     Node 5, Type 1, BuildingBlock: ESEHIV_clean_linker_0, # of connection points: 3
#     Node 6, Type 1, BuildingBlock: ESEHIV_clean_linker_0, # of connection points: 3
#     Node 7, Type 1, BuildingBlock: ESEHIV_clean_linker_0, # of connection points: 3
#     Node 8, Type 1, BuildingBlock: ESEHIV_clean_linker_0, # of connection points: 3
#     Edge 9, Type (0, 1), BuildingBlock: MIFKUJ_clean_linker_0, # of connection points: 2
#     Edge 10, Type (0, 1), BuildingBlock: MIFKUJ_clean_linker_0, # of connection points: 2
#     Edge 11, Type (0, 1), BuildingBlock: MIFKUJ_clean_linker_0, # of connection points: 2
#     Edge 12, Type (0, 1), BuildingBlock: MIFKUJ_clean_linker_0, # of connection points: 2
#     Edge 13, Type (0, 1), BuildingBlock: MIFKUJ_clean_linker_0, # of connection points: 2
#     Edge 14, Type (0, 1), BuildingBlock: MIFKUJ_clean_linker_0, # of connection points: 2
#     Edge 15, Type (0, 1), BuildingBlock: MIFKUJ_clean_linker_0, # of connection points: 2
#     Edge 16, Type (0, 1), BuildingBlock: MIFKUJ_clean_linker_0, # of connection points: 2
#     Edge 17, Type (0, 1), BuildingBlock: MIFKUJ_clean_linker_0, # of connection points: 2
#     Edge 18, Type (0, 1), BuildingBlock: MIFKUJ_clean_linker_0, # of connection points: 2
#     Edge 19, Type (0, 1), BuildingBlock: MIFKUJ_clean_linker_0, # of connection points: 2
#     Edge 20, Type (0, 1), BuildingBlock: MIFKUJ_clean_linker_0, # of connection points: 2
#     Edge 21, Type (0, 1), BuildingBlock: MIFKUJ_clean_linker_0, # of connection points: 2
#     Edge 22, Type (0, 1), BuildingBlock: MIFKUJ_clean_linker_0, # of connection points: 2
#     Edge 23, Type (0, 1), BuildingBlock: MIFKUJ_clean_linker_0, # of connection points: 2
#     Edge 24, Type (0, 1), BuildingBlock: MIFKUJ_clean_linker_0, # of connection points: 2
#     Edge 25, Type (0, 1), BuildingBlock: MIFKUJ_clean_linker_0, # of connection points: 2
#     Edge 26, Type (0, 1), BuildingBlock: MIFKUJ_clean_linker_0, # of connection points: 2
# Relax obj value: 0.178
# Max RMSD: 0.209
# Mean RMSD: 0.156
data_MOF--net-anh--node1-GEDQOX_clean_sbu_0--node2-ESEHIV_clean_linker_0--edge1-MIFKUJ_clean_linker_0
_symmetry_space_group_name_H-M    P1
_symmetry_Int_Tables_number       1
_symmetry_cell_setting            triclinic
loop_
_symmetry_equiv_pos_as_xyz
'x, y, z'
_cell_length_a     37.522281
_cell_length_b     36.076501
_cell_length_c     67.408438
_cell_angle_alpha  93.606844
_cell_angle_beta   89.798085
_cell_angle_gamma 106.63105
loop_
_atom_site_label
_atom_site_type_symbol
_atom_site_fract_x
_atom_site_fract_y
_atom_site_fract_z
_atom_type_partial_charge
Nd0 Nd 0.08459 0.56889 0.14335 0.0
Nd1 Nd 0.05793 0.47623 0.14497 0.0
C2 C 0.1181 0.6373 0.13055 0.0
C3 C 0.15336 0.66598 0.13706 0.0
C4 C 0.1791 0.68397 0.12296 0.0
C5 C 0.21434 0.70782 0.12902 0.0
C6 C 0.22449 0.71392 0.14932 0.0
C7 C 0.19838 0.69618 0.16337 0.0
C8 C 0.16332 0.67236 0.15732 0.0
C9 C 0.08076 0.54899 0.18231 0.0
C10 C 0.14823 0.51928 0.14738 0.0
C11 C 1.02492 0.40355 0.15279 0.0
C12 C 0.98926 0.37889 0.16023 0.0
C13 C 0.98255 0.37636 0.18072 0.0
C14 C 0.94986 0.35087 0.18749 0.0
C15 C 0.92311 0.32738 0.17396 0.0
C16 C 0.92966 0.33036 0.15349 0.0
C17 C 0.96237 0.35565 0.14672 0.0
C18 C 0.07678 0.50544 0.10864 0.0
C19 C 0.99406 0.5263 0.14345 0.0
O20 O 0.12186 0.60497 0.12201 0.0
O21 O 0.09045 0.63172 0.14311 0.0
O22 O 0.08959 0.58464 0.17731 0.0
O23 O 0.07401 0.5267 0.16684 0.0
O24 O 0.14047 0.55211 0.144 0.0
O25 O 0.12152 0.48647 0.14967 0.0
O26 O 1.04711 0.42865 0.16548 0.0
O27 O 1.02424 0.41686 0.13519 0.0
O28 O 0.08369 0.47406 0.11388 0.0
O29 O 0.05911 0.51846 0.12192 0.0
O30 O 1.00214 0.49373 0.14737 0.0
O31 O 1.02071 0.5584 0.13969 0.0
H32 H 0.17227 0.67878 0.10723 0.0
H33 H 0.23395 0.72067 0.11781 0.0
H34 H 0.20503 0.70066 0.17912 0.0
H35 H 0.14428 0.65832 0.16851 0.0
H36 H 1.00274 0.39363 0.19157 0.0
H37 H 0.94561 0.34943 0.20335 0.0
H38 H 0.91001 0.31225 0.14264 0.0
H39 H 0.9669 0.35645 0.13085 0.0
Nd40 Nd 0.50273 0.98219 0.52276 0.0
Nd41 Nd 0.58919 0.00742 0.51178 0.0
C42 C 0.4355 0.94968 0.53608 0.0
C43 C 0.40689 0.91405 0.52919 0.0
C44 C 0.37723 0.89691 0.5414 0.0
C45 C 0.35036 0.86273 0.53469 0.0
C46 C 0.35276 0.84521 0.51564 0.0
C47 C 0.38272 0.86269 0.50352 0.0
C48 C 0.40959 0.89659 0.51027 0.0
C49 C 0.5193 0.98982 0.48336 0.0
C50 C 0.54855 0.91541 0.51723 0.0
C51 C 0.65027 0.03088 0.49103 0.0
C52 C 0.68177 0.06602 0.49008 0.0
C53 C 0.67749 0.10296 0.49483 0.0
C54 C 0.70726 0.13617 0.49278 0.0
C55 C 0.74188 0.13298 0.48603 0.0
C56 C 0.74622 0.09578 0.48192 0.0
C57 C 0.71641 0.06265 0.48388 0.0
C58 C 0.58069 0.0153 0.55249 0.0
C59 C 0.54542 0.07333 0.52216 0.0
O60 O 0.46562 0.94465 0.54377 0.0
O61 O 0.44267 0.97753 0.52381 0.0
O62 O 0.49127 0.99878 0.49152 0.0
O63 O 0.53588 0.97528 0.49558 0.0
O64 O 0.51721 0.92404 0.52152 0.0
O65 O 0.57936 0.94166 0.51227 0.0
O66 O 0.61782 0.03361 0.48525 0.0
O67 O 0.64861 0.01121 0.50689 0.0
O68 O 0.61302 0.02404 0.54409 0.0
O69 O 0.55594 1.00443 0.53921 0.0
O70 O 0.57108 0.06337 0.51123 0.0
O71 O 0.51961 0.04748 0.53154 0.0
H72 H 0.37494 0.90986 0.55611 0.0
H73 H 0.32797 0.84981 0.54452 0.0
H74 H 0.38522 0.85051 0.48866 0.0
H75 H 0.43245 0.90935 0.50066 0.0
H76 H 0.65096 0.10616 0.49978 0.0
H77 H 0.70282 0.16432 0.49592 0.0
H78 H 0.77267 0.09222 0.47707 0.0
H79 H 0.72028 0.03436 0.48031 0.0
Nd80 Nd 0.50254 0.48308 0.83808 0.0
Nd81 Nd 0.58346 0.50542 0.85109 0.0
C82 C 0.43835 0.46746 0.81923 0.0
C83 C 0.42057 0.49683 0.81371 0.0
C84 C 0.40267 0.49406 0.79517 0.0
C85 C 0.39126 0.5254 0.78899 0.0
C86 C 0.3986 0.55997 0.80112 0.0
C87 C 0.4157 0.56212 0.81975 0.0
C88 C 0.42656 0.531 0.82599 0.0
C89 C 0.51458 0.49521 0.87849 0.0
C90 C 0.54348 0.57413 0.84622 0.0
C91 C 0.65052 0.52866 0.86731 0.0
C92 C 0.68391 0.51488 0.866 0.0
C93 C 0.68658 0.4828 0.87612 0.0
C94 C 0.71875 0.47064 0.87476 0.0
C95 C 0.74859 0.49017 0.86316 0.0
C96 C 0.74541 0.52163 0.85273 0.0
C97 C 0.71359 0.534 0.85425 0.0
C98 C 0.57173 0.49424 0.81079 0.0
C99 C 0.54333 0.41389 0.84204 0.0
O100 O 0.46939 0.46893 0.81 0.0
O101 O 0.44088 0.46368 0.83835 0.0
O102 O 0.48932 0.50602 0.86924 0.0
O103 O 0.53097 0.47747 0.86666 0.0
O104 O 0.51768 0.54833 0.83546 0.0
O105 O 0.56871 0.56359 0.85635 0.0
O106 O 0.62165 0.50738 0.87638 0.0
O107 O 0.6415 0.54257 0.85123 0.0
O108 O 0.59684 0.48313 0.81999 0.0
O109 O 0.55522 0.51172 0.8227 0.0
O110 O 0.57182 0.43971 0.85106 0.0
O111 O 0.51518 0.42393 0.83444 0.0
H112 H 0.39836 0.46817 0.78535 0.0
H113 H 0.37749 0.523 0.77468 0.0
H114 H 0.42068 0.58808 0.82957 0.0
H115 H 0.44072 0.5342 0.84025 0.0
H116 H 0.66409 0.46737 0.88527 0.0
H117 H 0.72058 0.44644 0.88303 0.0
H118 H 0.76821 0.53789 0.84403 0.0
H119 H 0.71243 0.55893 0.84639 0.0
H120 H 0.52772 0.95639 0.26723 0.0
H121 H 0.6236 0.05547 0.27377 0.0
H122 H 0.58433 1.00606 0.21522 0.0
C123 C 0.55021 0.9776 0.26049 0.0
C124 C 0.55273 0.97774 0.23966 0.0
C125 C 0.57559 1.00558 0.27278 0.0
C126 C 0.6041 0.03379 0.2642 0.0
C127 C 0.60777 0.0341 0.24343 0.0
C128 C 0.58161 1.00624 0.23123 0.0
H129 H 0.55526 0.56325 0.59703 0.0
H130 H 0.55345 0.44377 0.59451 0.0
H131 H 0.54249 0.4975 0.54046 0.0
C132 C 0.55286 0.53625 0.58838 0.0
C133 C 0.54828 0.5345 0.56759 0.0
C134 C 0.55491 0.50379 0.59817 0.0
C135 C 0.55244 0.46912 0.58696 0.0
C136 C 0.54786 0.46635 0.56619 0.0
C137 C 0.54649 0.49946 0.55645 0.0
H138 H 0.10867 0.65508 0.93239 0.0
H139 H 0.22309 0.70638 0.91803 0.0
H140 H 0.1381 0.67715 0.87199 0.0
C141 C 0.12941 0.66753 0.92157 0.0
C142 C 0.11927 0.66426 0.9015 0.0
C143 C 0.16663 0.68312 0.92768 0.0
C144 C 0.19408 0.69633 0.91345 0.0
C145 C 0.18396 0.69449 0.89319 0.0
C146 C 0.14632 0.67908 0.88751 0.0
H147 H 1.00478 0.43854 0.39083 0.0
H148 H 0.09937 0.53968 0.39537 0.0
H149 H 1.05088 0.48764 0.44837 0.0
C150 C 1.02545 0.46002 0.39989 0.0
C151 C 1.02461 0.45915 0.42075 0.0
C152 C 1.05212 0.48911 0.39061 0.0
C153 C 0.0784 0.51733 0.4024 0.0
C154 C 0.07788 0.51711 0.4232 0.0
C155 C 1.05077 0.48818 0.43231 0.0
H156 H 0.55238 0.04598 0.76597 0.0
H157 H 0.55186 0.92685 0.76645 0.0
H158 H 0.54724 0.99237 0.82166 0.0
C159 C 0.55165 0.02088 0.77419 0.0
C160 C 0.5491 0.02332 0.795 0.0
C161 C 0.55288 0.9864 0.76381 0.0
C162 C 0.55117 0.95373 0.77441 0.0
C163 C 0.54966 0.95582 0.79528 0.0
C164 C 0.54902 0.99084 0.80559 0.0
H165 H 0.51118 0.5212 0.09434 0.0
H166 H 0.62773 0.53138 0.09246 0.0
H167 H 0.57178 0.52295 0.14889 0.0
C168 C 0.53698 0.52325 0.10212 0.0
C169 C 0.53679 0.52192 0.12291 0.0
C170 C 0.56933 0.52653 0.09108 0.0
C171 C 0.6027 0.52866 0.10103 0.0
C172 C 0.60457 0.52744 0.12182 0.0
C173 C 0.57112 0.52405 0.13289 0.0
H174 H 0.20818 0.57548 0.16447 0.0
H175 H 0.27354 0.57642 0.16582 0.0
H176 H 0.24655 0.46658 0.13155 0.0
H177 H 0.18062 0.46406 0.13209 0.0
H178 H 0.2955 0.46277 0.15373 0.0
H179 H 0.29613 0.57602 0.11632 0.0
H180 H 0.28668 0.64042 0.11229 0.0
H181 H 0.35686 0.68773 0.16322 0.0
H182 H 0.36672 0.62394 0.16748 0.0
H183 H 0.47186 0.46494 0.11519 0.0
H184 H 0.4087 0.46574 0.12295 0.0
H185 H 0.45166 0.57134 0.15974 0.0
H186 H 0.51558 0.57138 0.15103 0.0
H187 H 0.39716 0.58051 0.14077 0.0
H188 H 0.4022 0.4754 0.17794 0.0
H189 H 0.41395 0.41379 0.18527 0.0
H190 H 0.33444 0.35312 0.14014 0.0
H191 H 0.32255 0.41445 0.13235 0.0
C192 C 0.21616 0.55139 0.1573 0.0
C193 C 0.1887 0.51965 0.14819 0.0
C194 C 0.2541 0.55219 0.15777 0.0
C195 C 0.26658 0.52223 0.14819 0.0
C196 C 0.2388 0.49043 0.13913 0.0
C197 C 0.20068 0.48893 0.13937 0.0
C198 C 0.30778 0.52307 0.14777 0.0
C199 C 0.31737 0.48857 0.15048 0.0
C200 C 0.33788 0.55692 0.14486 0.0
C201 C 0.3319 0.5952 0.14223 0.0
C202 C 0.30944 0.60025 0.1266 0.0
C203 C 0.30404 0.63656 0.12429 0.0
C204 C 0.32113 0.66806 0.13747 0.0
C205 C 0.34369 0.66335 0.15299 0.0
C206 C 0.34924 0.62716 0.15533 0.0
C207 C 0.46807 0.48783 0.12544 0.0
C208 C 0.4994 0.51768 0.13273 0.0
C209 C 0.43148 0.48829 0.12994 0.0
C210 C 0.42427 0.5183 0.14228 0.0
C211 C 0.45564 0.54758 0.15021 0.0
C212 C 0.49253 0.54729 0.14552 0.0
C213 C 0.38433 0.51984 0.1458 0.0
C214 C 0.37512 0.55472 0.14385 0.0
C215 C 0.35464 0.48661 0.14986 0.0
C216 C 0.36172 0.44962 0.15445 0.0
C217 C 0.38741 0.44897 0.16948 0.0
C218 C 0.39407 0.41409 0.17373 0.0
C219 C 0.37502 0.37958 0.16315 0.0
C220 C 0.3492 0.37988 0.14832 0.0
C221 C 0.34246 0.41469 0.14399 0.0
H222 H 0.38021 0.3526 0.16647 0.0
H223 H 0.31696 0.69613 0.13562 0.0
H224 H 0.7633 0.20216 0.50861 0.0
H225 H 0.81326 0.26043 0.50178 0.0
H226 H 0.84038 0.2016 0.44869 0.0
H227 H 0.79042 0.14371 0.45518 0.0
H228 H 0.90252 0.24167 0.47044 0.0
H229 H 0.78899 0.26487 0.44619 0.0
H230 H 0.72554 0.27089 0.45058 0.0
H231 H 0.76586 0.36263 0.49582 0.0
H232 H 0.82952 0.35684 0.49184 0.0
H233 H 1.00156 0.38219 0.40862 0.0
H234 H 0.95538 0.3303 0.42384 0.0
H235 H 0.93947 0.41172 0.47027 0.0
H236 H 0.98471 0.46438 0.45456 0.0
H237 H 0.87415 0.36432 0.45772 0.0
H238 H 0.98828 0.34787 0.47961 0.0
H239 H 1.05195 0.34188 0.47686 0.0
H240 H 1.01191 0.2383 0.43872 0.0
H241 H 0.94803 0.24397 0.44099 0.0
C242 C 0.7798 0.2017 0.49543 0.0
C243 C 0.77286 0.16818 0.48246 0.0
C244 C 0.8084 0.23497 0.4916 0.0
C245 C 0.83042 0.23536 0.47468 0.0
C246 C 0.82388 0.20183 0.4619 0.0
C247 C 0.79536 0.16868 0.46569 0.0
C248 C 0.85985 0.27074 0.46983 0.0
C249 C 0.89634 0.26845 0.46754 0.0
C250 C 0.85198 0.30609 0.46681 0.0
C251 C 0.81391 0.31017 0.46885 0.0
C252 C 0.78428 0.2862 0.45714 0.0
C253 C 0.7483 0.28959 0.45954 0.0
C254 C 0.74166 0.31707 0.4735 0.0
C255 C 0.77104 0.34134 0.48502 0.0
C256 C 0.80708 0.33805 0.48269 0.0
C257 C 0.98802 0.38924 0.42196 0.0
C258 C 0.99684 0.42751 0.43034 0.0
C259 C 0.96192 0.3594 0.4308 0.0
C260 C 0.94437 0.36697 0.44839 0.0
C261 C 0.95284 0.40516 0.45677 0.0
C262 C 0.97892 0.43515 0.44786 0.0
C263 C 0.91672 0.33488 0.45767 0.0
C264 C 0.88058 0.33779 0.46086 0.0
C265 C 0.92499 0.30017 0.46174 0.0
C266 C 0.96336 0.29651 0.46037 0.0
C267 C 0.99307 0.32396 0.47052 0.0
C268 C 1.0292 0.3206 0.46906 0.0
C269 C 1.03598 0.28977 0.45759 0.0
C270 C 1.00662 0.26218 0.44759 0.0
C271 C 0.97043 0.26542 0.44898 0.0
H272 H 0.06398 0.28722 0.45648 0.0
H273 H 0.71377 0.31959 0.47538 0.0
H274 H 0.60099 0.63932 0.85741 0.0
H275 H 0.60423 0.70701 0.85237 0.0
H276 H 0.49218 0.6699 0.8284 0.0
H277 H 0.48935 0.60304 0.83294 0.0
H278 H 0.53122 0.71633 0.80546 0.0
H279 H 0.52257 0.7197 0.87735 0.0
H280 H 0.54247 0.71355 0.91145 0.0
H281 H 0.64641 0.79937 0.9028 0.0
H282 H 0.62721 0.80569 0.86852 0.0
H283 H 0.49098 0.89173 0.79752 0.0
H284 H 0.49081 0.82982 0.81061 0.0
H285 H 0.60594 0.87813 0.82858 0.0
H286 H 0.6055 0.94068 0.81613 0.0
H287 H 0.57024 0.82843 0.85496 0.0
H288 H 0.58099 0.82489 0.78404 0.0
H289 H 0.56291 0.83249 0.74973 0.0
H290 H 0.45805 0.7468 0.75647 0.0
H291 H 0.47531 0.73919 0.79094 0.0
C292 C 0.57688 0.64577 0.85139 0.0
C293 C 0.54485 0.61565 0.84559 0.0
C294 C 0.57868 0.68456 0.84857 0.0
C295 C 0.54824 0.69396 0.84022 0.0
C296 C 0.51606 0.66379 0.83493 0.0
C297 C 0.51441 0.62533 0.83758 0.0
C298 C 0.55006 0.7345 0.83565 0.0
C299 C 0.53924 0.74061 0.81647 0.0
C300 C 0.56199 0.76683 0.84964 0.0
C301 C 0.5735 0.7629 0.87026 0.0
C302 C 0.54971 0.73709 0.88264 0.0
C303 C 0.56088 0.7336 0.90203 0.0
C304 C 0.59572 0.756 0.90928 0.0
C305 C 0.61944 0.78199 0.89716 0.0
C306 C 0.6084 0.78555 0.87775 0.0
C307 C 0.51592 0.88926 0.8047 0.0
C308 C 0.54822 0.92075 0.8059 0.0
C309 C 0.51595 0.85386 0.81204 0.0
C310 C 0.54863 0.84892 0.8202 0.0
C311 C 0.58043 0.8811 0.82231 0.0
C312 C 0.58021 0.91677 0.81521 0.0
C313 C 0.55024 0.80961 0.82506 0.0
C314 C 0.56204 0.80392 0.84411 0.0
C315 C 0.53949 0.77751 0.81095 0.0
C316 C 0.5293 0.78171 0.79012 0.0
C317 C 0.55399 0.80784 0.77824 0.0
C318 C 0.5439 0.81215 0.75876 0.0
C319 C 0.50933 0.7902 0.75093 0.0
C320 C 0.48481 0.76382 0.76255 0.0
C321 C 0.49473 0.75948 0.78206 0.0
H322 H 0.50156 0.79358 0.73585 0.0
H323 H 0.60432 0.75326 0.9243 0.0
H324 H 0.96428 0.58526 0.13403 0.0
H325 H 0.89907 0.58516 0.13288 0.0
H326 H 0.86538 0.46783 0.1509 0.0
H327 H 0.9306 0.46751 0.15161 0.0
H328 H 0.81717 0.47224 0.12457 0.0
H329 H 0.86527 0.55289 0.18298 0.0
H330 H 0.90809 0.60698 0.20288 0.0
H331 H 0.88047 0.68867 0.16652 0.0
H332 H 0.83783 0.63501 0.14623 0.0
H333 H 0.62743 0.47173 0.14076 0.0
H334 H 0.69177 0.47072 0.14713 0.0
H335 H 0.73272 0.58605 0.12692 0.0
H336 H 0.66873 0.58709 0.12084 0.0
H337 H 0.77649 0.5809 0.15609 0.0
H338 H 0.72981 0.4994 0.09712 0.0
H339 H 0.6866 0.44498 0.0776 0.0
H340 H 0.71127 0.36434 0.11577 0.0
H341 H 0.75425 0.41838 0.1357 0.0
C342 C 0.94315 0.55936 0.13783 0.0
C343 C 0.95349 0.52647 0.14301 0.0
C344 C 0.90544 0.55939 0.13728 0.0
C345 C 0.87632 0.5267 0.14212 0.0
C346 C 0.88661 0.49367 0.1471 0.0
C347 C 0.92433 0.49357 0.14758 0.0
C348 C 0.83552 0.52679 0.14179 0.0
C349 C 0.80844 0.49585 0.13179 0.0
C350 C 0.82309 0.55758 0.15079 0.0
C351 C 0.84863 0.58991 0.16297 0.0
C352 C 0.86852 0.58238 0.17914 0.0
C353 C 0.89273 0.61296 0.19051 0.0
C354 C 0.89707 0.65124 0.18594 0.0
C355 C 0.87712 0.65901 0.17003 0.0
C356 C 0.85291 0.62852 0.1586 0.0
C357 C 0.65008 0.49735 0.13831 0.0
C358 C 0.64243 0.5298 0.13063 0.0
C359 C 0.6872 0.49656 0.14162 0.0
C360 C 0.71804 0.52808 0.13722 0.0
C361 C 0.71014 0.56116 0.1305 0.0
C362 C 0.67322 0.56187 0.12714 0.0
C363 C 0.75826 0.5265 0.1388 0.0
C364 C 0.78524 0.55721 0.14899 0.0
C365 C 0.77055 0.49545 0.13003 0.0
C366 C 0.74492 0.46295 0.11802 0.0
C367 C 0.72582 0.47008 0.10143 0.0
C368 C 0.70139 0.43931 0.09028 0.0
C369 C 0.69612 0.40124 0.09547 0.0
C370 C 0.71533 0.39385 0.11179 0.0
C371 C 0.73973 0.42454 0.12301 0.0
H372 H 0.6772 0.37745 0.08683 0.0
H373 H 0.91583 0.67488 0.19475 0.0
H374 H 0.2772 0.82529 0.5212 0.0
H375 H 0.2302 0.76727 0.50763 0.0
H376 H 0.31604 0.7261 0.4792 0.0
H377 H 0.3633 0.78329 0.49316 0.0
H378 H 0.25716 0.72412 0.45368 0.0
H379 H 0.27589 0.68431 0.51882 0.0
H380 H 0.27906 0.69077 0.55545 0.0
H381 H 0.16473 0.69102 0.55737 0.0
H382 H 0.16103 0.68512 0.52071 0.0
H383 H 0.15306 0.53739 0.41943 0.0
H384 H 0.19929 0.59074 0.43732 0.0
H385 H 0.11202 0.61935 0.47136 0.0
H386 H 0.0658 0.56486 0.45393 0.0
H387 H 0.17058 0.62887 0.49439 0.0
H388 H 0.15046 0.66922 0.43014 0.0
H389 H 0.1456 0.66356 0.39353 0.0
H390 H 0.26025 0.66506 0.38976 0.0
H391 H 0.26565 0.67014 0.42637 0.0
C392 C 0.2862 0.80361 0.51236 0.0
C393 C 0.32411 0.80915 0.50822 0.0
C394 C 0.25925 0.77054 0.50454 0.0
C395 C 0.26967 0.74242 0.49242 0.0
C396 C 0.30742 0.7476 0.48843 0.0
C397 C 0.33437 0.78044 0.49635 0.0
C398 C 0.2412 0.70811 0.48336 0.0
C399 C 0.23852 0.70301 0.46256 0.0
C400 C 0.21617 0.68131 0.49498 0.0
C401 C 0.2183 0.68468 0.51702 0.0
C402 C 0.25152 0.68608 0.52705 0.0
C403 C 0.25339 0.68957 0.54782 0.0
C404 C 0.22215 0.69141 0.55873 0.0
C405 C 0.18893 0.68965 0.5489 0.0
C406 C 0.18692 0.6862 0.52812 0.0
C407 C 0.14386 0.55493 0.43085 0.0
C408 C 0.10593 0.54735 0.43521 0.0
C409 C 0.17022 0.58548 0.441 0.0
C410 C 0.15907 0.60971 0.45535 0.0
C411 C 0.12128 0.6012 0.46028 0.0
C412 C 0.09492 0.57014 0.45034 0.0
C413 C 0.1867 0.6446 0.46465 0.0
C414 C 0.18916 0.64996 0.48548 0.0
C415 C 0.21129 0.67199 0.45305 0.0
C416 C 0.20836 0.66973 0.43101 0.0
C417 C 0.17458 0.66814 0.42151 0.0
C418 C 0.17174 0.66504 0.40076 0.0
C419 C 0.20257 0.66386 0.38933 0.0
C420 C 0.23637 0.66593 0.39863 0.0
C421 C 0.23936 0.66896 0.41938 0.0
H422 H 0.2003 0.66142 0.37326 0.0
H423 H 0.22366 0.69412 0.57481 0.0
H424 H 0.59177 0.38081 0.85931 0.0
H425 H 0.59219 0.31314 0.85592 0.0
H426 H 0.49552 0.28563 0.81729 0.0
H427 H 0.49435 0.35311 0.82097 0.0
H428 H 0.48887 0.23041 0.84237 0.0
H429 H 0.58514 0.29852 0.79926 0.0
H430 H 0.64215 0.34919 0.79128 0.0
H431 H 0.70451 0.3072 0.83338 0.0
H432 H 0.64773 0.25656 0.84179 0.0
H433 H 0.49956 0.06215 0.78636 0.0
H434 H 0.49835 0.12644 0.79942 0.0
H435 H 0.59009 0.13237 0.83907 0.0
H436 H 0.59143 0.06755 0.82585 0.0
H437 H 0.6017 0.19761 0.8179 0.0
H438 H 0.50561 0.1243 0.85799 0.0
H439 H 0.44824 0.07349 0.86521 0.0
H440 H 0.38509 0.12484 0.82811 0.0
H441 H 0.44218 0.17566 0.82042 0.0
C442 C 0.57051 0.3604 0.85011 0.0
C443 C 0.54312 0.37255 0.84032 0.0
C444 C 0.57088 0.32165 0.84814 0.0
C445 C 0.5442 0.29426 0.83612 0.0
C446 C 0.51643 0.30616 0.82664 0.0
C447 C 0.51587 0.34485 0.82871 0.0
C448 C 0.54549 0.25335 0.83311 0.0
C449 C 0.51345 0.22326 0.83687 0.0
C450 C 0.5779 0.24387 0.8265 0.0
C451 C 0.61212 0.27403 0.8213 0.0
C452 C 0.61096 0.30026 0.8069 0.0
C453 C 0.64324 0.32894 0.80229 0.0
C454 C 0.67691 0.33148 0.81186 0.0
C455 C 0.6784 0.30524 0.82601 0.0
C456 C 0.64619 0.27652 0.83069 0.0
C457 C 0.51914 0.07693 0.79807 0.0
C458 C 0.54563 0.05992 0.80508 0.0
C459 C 0.51833 0.11362 0.80559 0.0
C460 C 0.544 0.13423 0.82031 0.0
C461 C 0.56995 0.11694 0.82775 0.0
C462 C 0.57055 0.07988 0.82031 0.0
C463 C 0.54486 0.1747 0.82682 0.0
C464 C 0.57728 0.20474 0.82368 0.0
C465 C 0.51274 0.18413 0.8339 0.0
C466 C 0.47827 0.15366 0.83852 0.0
C467 C 0.47955 0.1246 0.85124 0.0
C468 C 0.44706 0.09582 0.85544 0.0
C469 C 0.41305 0.0959 0.84709 0.0
C470 C 0.41145 0.12481 0.83456 0.0
C471 C 0.44387 0.15364 0.8303 0.0
H472 H 0.38793 0.07359 0.85036 0.0
H473 H 0.70186 0.35373 0.80828 0.0
H474 H 0.48938 0.84993 0.51449 0.0
H475 H 0.48961 0.78323 0.51927 0.0
H476 H 0.60851 0.82185 0.52839 0.0
H477 H 0.60869 0.88857 0.52319 0.0
H478 H 0.53063 0.73291 0.49984 0.0
H479 H 0.62121 0.77426 0.57111 0.0
H480 H 0.63598 0.82462 0.59881 0.0
H481 H 0.53005 0.8455 0.59084 0.0
H482 H 0.51444 0.79491 0.56333 0.0
H483 H 0.58284 0.56789 0.53423 0.0
H484 H 0.58236 0.63066 0.52205 0.0
H485 H 0.50525 0.64301 0.56784 0.0
H486 H 0.50538 0.58072 0.57985 0.0
H487 H 0.56348 0.70679 0.56775 0.0
H488 H 0.47743 0.62386 0.5197 0.0
H489 H 0.45704 0.57154 0.49327 0.0
H490 H 0.54526 0.63133 0.45606 0.0
H491 H 0.56648 0.68379 0.48239 0.0
C492 C 0.51566 0.84419 0.51726 0.0
C493 C 0.54903 0.87461 0.51849 0.0
C494 C 0.51575 0.80601 0.51988 0.0
C495 C 0.54905 0.7976 0.52421 0.0
C496 C 0.58251 0.82773 0.52503 0.0
C497 C 0.58256 0.86582 0.52203 0.0
C498 C 0.5484 0.7579 0.52927 0.0
C499 C 0.53806 0.72716 0.51463 0.0
C500 C 0.55759 0.75034 0.54864 0.0
C501 C 0.56689 0.78114 0.565 0.0
C502 C 0.6011 0.78962 0.57528 0.0
C503 C 0.60959 0.81816 0.59095 0.0
C504 C 0.58397 0.83824 0.59656 0.0
C505 C 0.5499 0.82998 0.58644 0.0
C506 C 0.54125 0.80144 0.57078 0.0
C507 C 0.56526 0.58371 0.54141 0.0
C508 C 0.54453 0.56956 0.55817 0.0
C509 C 0.5651 0.61962 0.53449 0.0
C510 C 0.54402 0.6418 0.54415 0.0
C511 C 0.5221 0.62677 0.56029 0.0
C512 C 0.52222 0.5911 0.56715 0.0
C513 C 0.54588 0.68148 0.5383 0.0
C514 C 0.55653 0.71241 0.55284 0.0
C515 C 0.53651 0.689 0.51892 0.0
C516 C 0.52379 0.65752 0.5031 0.0
C517 C 0.49268 0.62568 0.50595 0.0
C518 C 0.48093 0.59604 0.49098 0.0
C519 C 0.49991 0.59805 0.47302 0.0
C520 C 0.53062 0.62978 0.46999 0.0
C521 C 0.54251 0.65948 0.48492 0.0
H522 H 0.49076 0.57508 0.46144 0.0
H523 H 0.59044 0.86004 0.60881 0.0
H524 H 0.78479 0.47742 0.89586 0.0
H525 H 0.85182 0.48899 0.89894 0.0
H526 H 0.86239 0.4984 0.83563 0.0
H527 H 0.7951 0.48594 0.83231 0.0
H528 H 0.91906 0.47111 0.88006 0.0
H529 H 0.90955 0.59127 0.83273 0.0
H530 H 0.86342 0.6226 0.82132 0.0
H531 H 0.80572 0.60174 0.87649 0.0
H532 H 0.85176 0.57072 0.88825 0.0
H533 H 0.10114 0.60657 0.87214 0.0
H534 H 1.0392 0.56356 0.86326 0.0
H535 H 0.99099 0.62453 0.90801 0.0
H536 H 1.05287 0.66777 0.91692 0.0
H537 H 0.95491 0.61244 0.87053 0.0
H538 H 1.00045 0.54154 0.91837 0.0
H539 H 1.04482 0.50997 0.93159 0.0
H540 H 1.03035 0.43387 0.87879 0.0
H541 H 0.98606 0.46514 0.86519 0.0
C542 C 0.80103 0.47971 0.88244 0.0
C543 C 0.78498 0.482 0.86391 0.0
C544 C 0.83939 0.48624 0.88423 0.0
C545 C 0.86187 0.4953 0.86756 0.0
C546 C 0.84533 0.49167 0.84866 0.0
C547 C 0.80697 0.48494 0.84683 0.0
C548 C 0.90084 0.5187 0.87062 0.0
C549 C 0.9272 0.50187 0.87773 0.0
C550 C 0.91099 0.55894 0.86795 0.0
C551 C 0.88381 0.57843 0.86125 0.0
C552 C 0.88708 0.59356 0.84242 0.0
C553 C 0.86097 0.61123 0.8359 0.0
C554 C 0.83163 0.61411 0.84816 0.0
C555 C 0.82845 0.59949 0.86701 0.0
C556 C 0.85449 0.5818 0.87358 0.0
C557 C 0.07723 0.61118 0.87984 0.0
C558 C 0.0816 0.64073 0.89505 0.0
C559 C 1.04205 0.58635 0.87493 0.0
C560 C 1.0108 0.59086 0.8851 0.0
C561 C 1.01496 0.62071 0.90005 0.0
C562 C 1.05016 0.64533 0.9051 0.0
C563 C 0.97349 0.56498 0.87993 0.0
C564 C 0.94724 0.58152 0.87247 0.0
C565 C 0.96361 0.52467 0.88249 0.0
C566 C 0.99026 0.50595 0.89067 0.0
C567 C 1.00699 0.51831 0.9095 0.0
C568 C 1.03206 0.50043 0.91708 0.0
C569 C 1.04053 0.47008 0.906 0.0
C570 C 1.02382 0.45743 0.88734 0.0
C571 C 0.99868 0.47517 0.8797 0.0
H572 H 0.05995 0.45628 0.9119 0.0
H573 H 0.81137 0.62767 0.84307 0.0
H574 H 0.26482 0.78327 0.1355 0.0
H575 H 0.32474 0.8255 0.14813 0.0
H576 H 0.32896 0.74266 0.19085 0.0
H577 H 0.26934 0.70019 0.1782 0.0
H578 H 0.3426 0.81438 0.20828 0.0
H579 H 0.38612 0.75526 0.15159 0.0
H580 H 0.38768 0.73398 0.11621 0.0
H581 H 0.41646 0.85237 0.10055 0.0
H582 H 0.41442 0.8743 0.13585 0.0
H583 H 0.52425 0.90029 0.24481 0.0
H584 H 0.47242 0.85393 0.22672 0.0
H585 H 0.46546 0.9419 0.1877 0.0
H586 H 0.51723 0.9888 0.20592 0.0
H587 H 0.4541 0.86778 0.16779 0.0
H588 H 0.40873 0.92582 0.22512 0.0
H589 H 0.40714 0.94563 0.26072 0.0
H590 H 0.38196 0.82678 0.27523 0.0
H591 H 0.38398 0.80631 0.23972 0.0
C592 C 0.27878 0.77376 0.14737 0.0
C593 C 0.26207 0.73853 0.15598 0.0
C594 C 0.31303 0.79795 0.15459 0.0
C595 C 0.33137 0.78725 0.17045 0.0
C596 C 0.31519 0.75167 0.17872 0.0
C597 C 0.281 0.72752 0.17153 0.0
C598 C 0.36636 0.81402 0.17916 0.0
C599 C 0.36713 0.82556 0.19946 0.0
C600 C 0.39812 0.82936 0.16757 0.0
C601 C 0.39973 0.81638 0.14635 0.0
C602 C 0.39246 0.77672 0.14059 0.0
C603 C 0.39348 0.76455 0.12055 0.0
C604 C 0.40208 0.79181 0.10613 0.0
C605 C 0.40976 0.83129 0.11174 0.0
C606 C 0.40869 0.84361 0.13176 0.0
C607 C 0.51182 0.9098 0.23233 0.0
C608 C 0.52451 0.94844 0.22701 0.0
C609 C 0.48231 0.8832 0.22195 0.0
C610 C 0.46473 0.89462 0.20606 0.0
C611 C 0.47863 0.93251 0.19994 0.0
C612 C 0.50823 0.95925 0.21035 0.0
C613 C 0.43025 0.86779 0.19689 0.0
C614 C 0.42954 0.85643 0.17655 0.0
C615 C 0.39849 0.85237 0.20843 0.0
C616 C 0.39687 0.86458 0.22978 0.0
C617 C 0.40313 0.90394 0.23591 0.0
C618 C 0.40212 0.91529 0.25607 0.0
C619 C 0.39455 0.88749 0.27023 0.0
C620 C 0.38788 0.84828 0.26425 0.0
C621 C 0.38893 0.83679 0.24411 0.0
H622 H 0.39378 0.89633 0.28583 0.0
H623 H 0.40286 0.78234 0.09062 0.0
H624 H 0.58698 0.13248 0.50084 0.0
H625 H 0.58664 0.20019 0.50281 0.0
H626 H 0.50453 0.17615 0.54882 0.0
H627 H 0.50392 0.10806 0.54655 0.0
H628 H 0.48708 0.22062 0.52283 0.0
H629 H 0.60117 0.22223 0.55795 0.0
H630 H 0.66219 0.2095 0.56012 0.0
H631 H 0.70156 0.28156 0.51168 0.0
H632 H 0.6406 0.29436 0.50908 0.0
H633 H 0.50046 0.39738 0.57501 0.0
H634 H 0.49983 0.33286 0.56185 0.0
H635 H 0.58427 0.38297 0.51985 0.0
H636 H 0.58573 0.44832 0.53362 0.0
H637 H 0.60255 0.32755 0.53743 0.0
H638 H 0.49379 0.3335 0.5044 0.0
H639 H 0.43318 0.34614 0.50015 0.0
H640 H 0.38408 0.2605 0.54133 0.0
H641 H 0.44451 0.24771 0.54607 0.0
C642 C 0.56886 0.14153 0.51143 0.0
C643 C 0.54556 0.11471 0.52361 0.0
C644 C 0.56881 0.18041 0.51258 0.0
C645 C 0.54594 0.19359 0.52616 0.0
C646 C 0.52246 0.16679 0.53822 0.0
C647 C 0.52223 0.12782 0.53695 0.0
C648 C 0.54622 0.23515 0.5279 0.0
C649 C 0.51228 0.24396 0.52621 0.0
C650 C 0.57934 0.26595 0.53131 0.0
C651 C 0.61622 0.25893 0.5332 0.0
C652 C 0.62279 0.23522 0.54771 0.0
C653 C 0.65736 0.228 0.54901 0.0
C654 C 0.68569 0.2446 0.536 0.0
C655 C 0.67957 0.26866 0.52172 0.0
C656 C 0.64503 0.27594 0.52034 0.0
C657 C 0.51855 0.39473 0.56277 0.0
C658 C 0.54328 0.42793 0.5554 0.0
C659 C 0.518 0.35773 0.55514 0.0
C660 C 0.54177 0.35278 0.5397 0.0
C661 C 0.5656 0.38596 0.53174 0.0
C662 C 0.56619 0.42327 0.53946 0.0
C663 C 0.54313 0.3129 0.5331 0.0
C664 C 0.57736 0.30434 0.53381 0.0
C665 C 0.51034 0.28234 0.52849 0.0
C666 C 0.4738 0.2898 0.52567 0.0
C667 C 0.47014 0.31753 0.51266 0.0
C668 C 0.43579 0.3247 0.51014 0.0
C669 C 0.40481 0.30418 0.52048 0.0
C670 C 0.4081 0.27638 0.53333 0.0
C671 C 0.44239 0.26911 0.53591 0.0
H672 H 0.37825 0.30978 0.51852 0.0
H673 H 0.7124 0.2389 0.537 0.0
H674 H 0.44115 0.63464 0.79885 0.0
H675 H 0.4181 0.69166 0.80234 0.0
H676 H 0.3054 0.61729 0.79639 0.0
H677 H 0.32844 0.56063 0.79227 0.0
H678 H 0.30913 0.68995 0.7859 0.0
H679 H 0.35419 0.63295 0.84547 0.0
H680 H 0.40501 0.61861 0.86389 0.0
H681 H 0.47449 0.73454 0.85736 0.0
H682 H 0.42395 0.74945 0.83908 0.0
H683 H 0.18527 0.65332 0.85821 0.0
H684 H 0.23217 0.66567 0.83295 0.0
H685 H 0.29562 0.76828 0.86722 0.0
H686 H 0.24761 0.75616 0.89291 0.0
H687 H 0.33674 0.723 0.85783 0.0
H688 H 0.26635 0.77768 0.81888 0.0
H689 H 0.21107 0.78891 0.80363 0.0
H690 H 0.18717 0.67835 0.77095 0.0
H691 H 0.24186 0.66605 0.78621 0.0
C692 C 0.41156 0.63081 0.79729 0.0
C693 C 0.38638 0.59339 0.79564 0.0
C694 C 0.39844 0.66336 0.79934 0.0
C695 C 0.36005 0.65866 0.80026 0.0
C696 C 0.33518 0.62168 0.79584 0.0
C697 C 0.3483 0.58919 0.79349 0.0
C698 C 0.34537 0.68884 0.81034 0.0
C699 C 0.31541 0.69802 0.80154 0.0
C700 C 0.35492 0.70135 0.83047 0.0
C701 C 0.38555 0.6922 0.84093 0.0
C702 C 0.38037 0.65527 0.848 0.0
C703 C 0.40904 0.64708 0.85844 0.0
C704 C 0.4429 0.67565 0.86187 0.0
C705 C 0.44823 0.71244 0.85479 0.0
C706 C 0.41959 0.72081 0.84442 0.0
C707 C 0.20848 0.67932 0.86019 0.0
C708 C 0.21244 0.70402 0.87752 0.0
C709 C 0.23531 0.68654 0.84557 0.0
C710 C 0.267 0.71861 0.84782 0.0
C711 C 0.27103 0.74378 0.86499 0.0
C712 C 0.24386 0.73659 0.87973 0.0
C713 C 0.29809 0.7206 0.8339 0.0
C714 C 0.33143 0.71762 0.84194 0.0
C715 C 0.29155 0.71402 0.81311 0.0
C716 C 0.25852 0.72107 0.80366 0.0
C717 C 0.24927 0.75567 0.80849 0.0
C718 C 0.21799 0.76222 0.79984 0.0
C719 C 0.19567 0.73439 0.7863 0.0
C720 C 0.20457 0.69995 0.78139 0.0
C721 C 0.23582 0.69323 0.78999 0.0
H722 H 0.17145 0.73951 0.77964 0.0
H723 H 0.465 0.66913 0.86995 0.0
H724 H 0.91761 0.28023 0.20484 0.0
H725 H 0.86263 0.23105 0.21543 0.0
H726 H 0.79703 0.25937 0.16945 0.0
H727 H 0.85173 0.30952 0.15913 0.0
H728 H 0.7592 0.24838 0.20378 0.0
H729 H 0.82748 0.17972 0.16329 0.0
H730 H 0.8825 0.15996 0.15235 0.0
H731 H 0.88935 0.11392 0.20896 0.0
H732 H 0.83466 0.13391 0.22035 0.0
H733 H 0.60673 0.07739 0.21143 0.0
H734 H 0.6589 0.127 0.19816 0.0
H735 H 0.73208 0.10658 0.24274 0.0
H736 H 0.68046 0.05654 0.25572 0.0
H737 H 0.76448 0.11301 0.20699 0.0
H738 H 0.69763 0.18422 0.24783 0.0
H739 H 0.64251 0.20392 0.25866 0.0
H740 H 0.63271 0.24479 0.20103 0.0
H741 H 0.68751 0.22482 0.18977 0.0
C742 C 0.8914 0.27644 0.19714 0.0
C743 C 0.88918 0.29875 0.18105 0.0
C744 C 0.86004 0.248 0.20309 0.0
C745 C 0.82581 0.24106 0.19303 0.0
C746 C 0.82319 0.26402 0.17735 0.0
C747 C 0.85457 0.29248 0.17138 0.0
C748 C 0.79294 0.20949 0.19872 0.0
C749 C 0.76017 0.21866 0.2042 0.0
C750 C 0.79432 0.17079 0.19954 0.0
C751 C 0.82717 0.15865 0.19273 0.0
C752 C 0.84089 0.16566 0.17346 0.0
C753 C 0.87199 0.15437 0.16717 0.0
C754 C 0.88947 0.13579 0.17997 0.0
C755 C 0.87581 0.12837 0.19908 0.0
C756 C 0.84474 0.13964 0.20545 0.0
C757 C 0.63403 0.08324 0.21826 0.0
C758 C 0.63939 0.06324 0.23473 0.0
C759 C 0.66375 0.1118 0.21077 0.0
C760 C 0.69934 0.12086 0.21961 0.0
C761 C 0.70488 0.10023 0.23573 0.0
C762 C 0.67526 0.07184 0.24323 0.0
C763 C 0.73092 0.15197 0.21229 0.0
C764 C 0.76345 0.14268 0.20647 0.0
C765 C 0.72927 0.19051 0.21113 0.0
C766 C 0.69641 0.20263 0.2179 0.0
C767 C 0.68354 0.19711 0.23742 0.0
C768 C 0.65239 0.20838 0.24364 0.0
C769 C 0.63405 0.22549 0.23052 0.0
C770 C 0.6469 0.23147 0.21117 0.0
C771 C 0.67801 0.2202 0.20486 0.0
H772 H 0.60994 0.2342 0.23537 0.0
H773 H 0.91353 0.12706 0.17507 0.0
H774 H 0.12269 0.48665 0.08072 0.0
H775 H 0.14462 0.51975 0.05038 0.0
H776 H 0.08126 0.60035 0.06461 0.0
H777 H 0.05884 0.56703 0.09471 0.0
H778 H 0.07412 0.57417 0.02523 0.0
H779 H 0.17464 0.62413 0.07408 0.0
H780 H 0.22067 0.61543 0.09801 0.0
H781 H 0.2712 0.56211 0.0514 0.0
H782 H 0.22496 0.56972 0.02727 0.0
H783 H 0.14321 0.71585 0.96055 0.0
H784 H 0.13665 0.68951 0.99335 0.0
H785 H 0.20043 0.61184 0.97422 0.0
H786 H 0.20732 0.63854 0.94138 0.0
H787 H 0.2091 0.63404 0.01524 0.0
H788 H 0.11309 0.58037 0.96691 0.0
H789 H 0.06742 0.58252 0.94113 0.0
H790 H 1.0083 0.63406 0.98415 0.0
H791 H 1.0542 0.63312 0.01012 0.0
C792 C 0.11336 0.51132 0.07729 0.0
C793 C 0.0893 0.52448 0.09008 0.0
C794 C 0.12599 0.53028 0.06003 0.0
C795 C 0.1149 0.5628 0.05536 0.0
C796 C 0.09022 0.57538 0.06794 0.0
C797 C 0.07756 0.55642 0.08515 0.0
C798 C 0.12922 0.58414 0.03753 0.0
C799 C 0.10358 0.58768 0.02319 0.0
C800 C 0.16777 0.60053 0.03448 0.0
C801 C 0.19619 0.59721 0.04891 0.0
C802 C 0.19547 0.6104 0.06896 0.0
C803 C 0.22159 0.60564 0.08256 0.0
C804 C 0.24878 0.58816 0.0762 0.0
C805 C 0.25007 0.57558 0.05627 0.0
C806 C 0.22393 0.58011 0.04264 0.0
C807 C 0.15741 0.69457 0.96372 0.0
C808 C 0.17575 0.67915 0.94855 0.0
C809 C 0.15337 0.67928 0.98235 0.0
C810 C 0.16728 0.64811 0.98599 0.0
C811 C 0.18938 0.63579 0.97165 0.0
C812 C 0.19355 0.65124 0.95296 0.0
C813 C 0.15393 0.62486 0.0033 0.0
C814 C 0.17965 0.62072 0.01738 0.0
C815 C 0.11547 0.60708 0.00591 0.0
C816 C 0.08734 0.60705 0.99043 0.0
C817 C 0.09051 0.59242 0.97086 0.0
C818 C 0.06453 0.59333 0.95621 0.0
C819 C 1.03497 0.60839 0.96099 0.0
C820 C 1.03126 0.62245 0.98046 0.0
C821 C 0.05725 0.62174 0.99516 0.0
H822 H 1.01494 0.60913 0.94962 0.0
H823 H 0.26893 0.58432 0.08665 0.0
H824 H 0.5007 0.03788 0.45859 0.0
H825 H 0.51364 0.04305 0.42317 0.0
H826 H 0.57038 0.95463 0.42484 0.0
H827 H 0.55938 0.95128 0.46065 0.0
H828 H 0.60564 1.00409 0.40143 0.0
H829 H 0.47684 0.93681 0.40669 0.0
H830 H 0.41238 0.92535 0.41825 0.0
H831 H 0.40508 0.02808 0.39168 0.0
H832 H 0.46969 0.04045 0.38019 0.0
H833 H 0.57429 0.94633 0.29613 0.0
H834 H 0.56795 0.94593 0.33244 0.0
H835 H 0.56133 0.06347 0.33473 0.0
H836 H 0.56877 0.06439 0.29849 0.0
H837 H 0.50111 0.99872 0.35537 0.0
H838 H 0.6336 0.06263 0.35008 0.0
H839 H 0.69633 0.06699 0.33745 0.0
H840 H 0.69332 0.96011 0.36303 0.0
H841 H 0.63027 0.9548 0.37554 0.0
C842 C 0.51611 0.01974 0.45138 0.0
C843 C 0.52871 0.99389 0.46222 0.0
C844 C 0.52329 0.02248 0.4311 0.0
C845 C 0.54207 0.99842 0.42111 0.0
C846 C 0.55563 0.97335 0.43212 0.0
C847 C 0.54926 0.97133 0.45255 0.0
C848 C 0.54706 0.99909 0.39918 0.0
C849 C 0.58259 1.00247 0.39141 0.0
C850 C 0.51716 0.99717 0.38594 0.0
C851 C 0.47823 0.98974 0.39275 0.0
C852 C 0.46157 0.95709 0.40343 0.0
C853 C 0.425 0.95042 0.40995 0.0
C854 C 0.40468 0.97602 0.40575 0.0
C855 C 0.42087 0.0083 0.39495 0.0
C856 C 0.45745 0.01514 0.38842 0.0
C857 C 0.57161 0.97206 0.30444 0.0
C858 C 0.57207 1.00542 0.29464 0.0
C859 C 0.56808 0.97183 0.32509 0.0
C860 C 0.56427 1.0047 0.33615 0.0
C861 C 0.56434 0.03791 0.32638 0.0
C862 C 0.56869 0.03845 0.30578 0.0
C863 C 0.55948 1.00406 0.35792 0.0
C864 C 0.52397 1.00045 0.36554 0.0
C865 C 0.5891 1.00478 0.37094 0.0
C866 C 0.62706 0.00809 0.36353 0.0
C867 C 0.64615 0.03985 0.35283 0.0
C868 C 0.6818 0.04254 0.34573 0.0
C869 C 0.69876 0.01378 0.34938 0.0
C870 C 0.68013 0.98233 0.36018 0.0
C871 C 0.64445 0.97948 0.36729 0.0
H872 H 0.72636 0.01592 0.34388 0.0
H873 H 0.37637 0.97081 0.41081 0.0
H874 H 0.60933 0.46281 0.78297 0.0
H875 H 0.60611 0.46519 0.74682 0.0
H876 H 0.52376 0.52744 0.75335 0.0
H877 H 0.52661 0.5248 0.7895 0.0
H878 H 0.50559 0.47225 0.72326 0.0
H879 H 0.61336 0.5752 0.7444 0.0
H880 H 0.67361 0.6047 0.76164 0.0
H881 H 0.72307 0.53045 0.72585 0.0
H882 H 0.66294 0.5001 0.70858 0.0
H883 H 0.51746 0.53696 0.62558 0.0
H884 H 0.52067 0.5367 0.66181 0.0
H885 H 0.60208 0.47314 0.65672 0.0
H886 H 0.59977 0.47423 0.6205 0.0
H887 H 0.62049 0.53026 0.68618 0.0
H888 H 0.512 0.42694 0.6653 0.0
H889 H 0.4516 0.39793 0.64813 0.0
H890 H 0.40334 0.47375 0.68353 0.0
H891 H 0.46364 0.50362 0.70072 0.0
C892 C 0.59044 0.47684 0.77667 0.0
C893 C 0.56838 0.4938 0.78899 0.0
C894 C 0.58873 0.47833 0.75605 0.0
C895 C 0.5651 0.49701 0.74742 0.0
C896 C 0.54227 0.51301 0.7597 0.0
C897 C 0.54396 0.51151 0.78033 0.0
C898 C 0.56452 0.50025 0.72561 0.0
C899 C 0.53061 0.4854 0.71518 0.0
C900 C 0.5973 0.51681 0.71504 0.0
C901 C 0.63355 0.53512 0.72533 0.0
C902 C 0.63701 0.56495 0.74031 0.0
C903 C 0.67115 0.58186 0.75007 0.0
C904 C 0.70213 0.56938 0.74488 0.0
C905 C 0.69904 0.54004 0.72988 0.0
C906 C 0.66494 0.523 0.72008 0.0
C907 C 0.53643 0.52342 0.63219 0.0
C908 C 0.55825 0.50546 0.62018 0.0
C909 C 0.53798 0.52297 0.65288 0.0
C910 C 0.56122 0.50441 0.66194 0.0
C911 C 0.58381 0.48744 0.65003 0.0
C912 C 0.58227 0.48785 0.62934 0.0
C913 C 0.56159 0.5021 0.68382 0.0
C914 C 0.59546 0.51716 0.69426 0.0
C915 C 0.52875 0.48582 0.69441 0.0
C916 C 0.49243 0.46778 0.68415 0.0
C917 C 0.48859 0.43764 0.66931 0.0
C918 C 0.45436 0.42101 0.65959 0.0
C919 C 0.42368 0.43406 0.66469 0.0
C920 C 0.42715 0.46371 0.67957 0.0
C921 C 0.46134 0.48049 0.68931 0.0
H922 H 0.3972 0.42114 0.65716 0.0
H923 H 0.72854 0.58251 0.75245 0.0
H924 H 0.63018 0.05046 0.5819 0.0
H925 H 0.62314 0.04334 0.61764 0.0
H926 H 0.51193 0.96731 0.60744 0.0
H927 H 0.51841 0.97602 0.5717 0.0
H928 H 0.51239 0.01057 0.63954 0.0
H929 H 0.58943 0.93369 0.61543 0.0
H930 H 0.64227 0.91965 0.59779 0.0
H931 H 0.71889 1.00119 0.63785 0.0
H932 H 0.66659 0.01647 0.65545 0.0
H933 H 0.50771 0.93542 0.73642 0.0
H934 H 0.5104 0.93706 0.69999 0.0
H935 H 0.60782 0.03589 0.70562 0.0
H936 H 0.60481 0.03479 0.74192 0.0
H937 H 0.61156 0.97504 0.67575 0.0
H938 H 0.53203 0.0541 0.6978 0.0
H939 H 0.47802 0.06566 0.71531 0.0
H940 H 0.40426 0.97391 0.67884 0.0
H941 H 0.45794 0.96141 0.66131 0.0
C942 C 0.60409 0.03259 0.58734 0.0
C943 C 0.57488 0.01361 0.57409 0.0
C944 C 0.60018 0.02826 0.60774 0.0
C945 C 0.56736 1.00391 0.61525 0.0
C946 C 0.53761 0.98604 0.60205 0.0
C947 C 0.54129 0.99101 0.58163 0.0
C948 C 0.56447 0.99667 0.63679 0.0
C949 C 0.53382 1.00218 0.64734 0.0
C950 C 0.59249 0.9859 0.64712 0.0
C951 C 0.62404 0.97644 0.63668 0.0
C952 C 0.61755 0.94882 0.62041 0.0
C953 C 0.6474 0.94063 0.61042 0.0
C954 C 0.68389 0.95949 0.61671 0.0
C955 C 0.6906 0.9866 0.633 0.0
C956 C 0.66087 0.99506 0.64298 0.0
C957 C 0.52986 0.95718 0.72981 0.0
C958 C 0.55599 0.98507 0.74188 0.0
C959 C 0.5313 0.95819 0.70908 0.0
C960 C 0.55923 0.98671 0.70017 0.0
C961 C 0.58608 0.01368 0.71222 0.0
C962 C 0.58426 0.01311 0.7329 0.0
C963 C 0.55991 0.98951 0.67833 0.0
C964 C 0.59008 0.98307 0.66779 0.0
C965 C 0.53126 0.99883 0.66797 0.0
C966 C 0.499 1.00651 0.67841 0.0
C967 C 0.50431 0.03615 0.69364 0.0
C968 C 0.47376 0.04292 0.70354 0.0
C969 C 0.43773 0.02046 0.69823 0.0
C970 C 0.43218 0.99124 0.68296 0.0
C971 C 0.46266 0.98431 0.67303 0.0
H972 H 0.41411 0.02575 0.70591 0.0
H973 H 0.70695 0.95308 0.60896 0.0
H974 H 0.56183 0.4674 0.89968 0.0
H975 H 0.57359 0.47527 0.93557 0.0
H976 H 0.49521 0.54224 0.94228 0.0
H977 H 0.48372 0.53488 0.90621 0.0
H978 H 0.55849 0.57468 0.96471 0.0
H979 H 0.47058 0.44857 0.95372 0.0
H980 H 0.44687 0.3824 0.93804 0.0
H981 H 0.54257 0.35373 0.95965 0.0
H982 H 0.56712 0.41993 0.97524 0.0
H983 H 0.53193 0.56464 0.06868 0.0
H984 H 0.5252 0.5611 0.03257 0.0
H985 H 0.59721 0.48689 0.02713 0.0
H986 H 0.60266 0.48882 0.06337 0.0
H987 H 0.53851 0.45862 0.0038 0.0
H988 H 0.6262 0.58364 0.01544 0.0
H989 H 0.65092 0.64987 0.0309 0.0
H990 H 0.55749 0.68092 0.00797 0.0
H991 H 0.53193 0.61469 0.9926 0.0
C992 C 0.5472 0.48394 0.90879 0.0
C993 C 0.52175 0.50043 0.90018 0.0
C994 C 0.55383 0.48826 0.92931 0.0
C995 C 0.53496 0.50896 0.94166 0.0
C996 C 0.51002 0.52608 0.93305 0.0
C997 C 0.50335 0.52173 0.91247 0.0
C998 C 0.54102 0.51231 0.96357 0.0
C999 C 0.55367 0.54934 0.97332 0.0
C1000 C 0.5357 0.47923 0.97472 0.0
C1001 C 0.52085 0.43932 0.96549 0.0
C1002 C 0.4867 0.42824 0.95501 0.0
C1003 C 0.47309 0.39072 0.94615 0.0
C1004 C 0.49325 0.36391 0.9478 0.0
C1005 C 0.52701 0.37454 0.95836 0.0
C1006 C 0.54077 0.41205 0.96723 0.0
C1007 C 0.54626 0.54743 0.05983 0.0
C1008 C 0.56773 0.52688 0.06898 0.0
C1009 C 0.54273 0.5458 0.03913 0.0
C1010 C 0.56101 0.52406 0.02705 0.0
C1011 C 0.5829 0.50395 0.03611 0.0
C1012 C 0.58628 0.50538 0.05685 0.0
C1013 C 0.55604 0.52106 0.00504 0.0
C1014 C 0.54349 0.48405 0.99524 0.0
C1015 C 0.56162 0.55418 0.99384 0.0
C1016 C 0.57698 0.59408 0.00302 0.0
C1017 C 0.61078 0.6045 0.01382 0.0
C1018 C 0.62496 0.64206 0.02254 0.0
C1019 C 0.60574 0.66956 0.02046 0.0
C1020 C 0.57233 0.65958 0.00959 0.0
C1021 C 0.558 0.62205 0.00085 0.0
H1022 H 0.61677 0.69862 0.02722 0.0
H1023 H 0.48267 0.33488 0.94093 0.0
H1024 H 0.06895 0.47639 0.19603 0.0
H1025 H 0.06444 0.45931 0.23084 0.0
H1026 H 0.08048 0.57953 0.2499 0.0
H1027 H 0.08559 0.59653 0.21538 0.0
H1028 H 0.12219 0.54958 0.27165 0.0
H1029 H 0.99354 0.51084 0.24882 0.0
H1030 H 0.94145 0.4743 0.22667 0.0
H1031 H 0.95715 0.36701 0.24328 0.0
H1032 H 1.00968 0.40297 0.26536 0.0
H1033 H 0.05945 0.55218 0.36901 0.0
H1034 H 0.06389 0.55541 0.333 0.0
H1035 H 1.05042 0.43242 0.32639 0.0
H1036 H 1.04567 0.42894 0.3626 0.0
H1037 H 1.01111 0.45546 0.29786 0.0
H1038 H 0.13591 0.4949 0.32348 0.0
H1039 H 0.18704 0.5321 0.34603 0.0
H1040 H 0.17857 0.6385 0.32412 0.0
H1041 H 0.12703 0.60197 0.30162 0.0
C1042 C 0.07127 0.49897 0.20768 0.0
C1043 C 0.07737 0.53766 0.20303 0.0
C1044 C 0.0687 0.48926 0.22754 0.0
C1045 C 0.07186 0.51814 0.243 0.0
C1046 C 0.07807 0.55677 0.23827 0.0
C1047 C 0.08085 0.56643 0.21851 0.0
C1048 C 0.06893 0.50876 0.2642 0.0
C1049 C 0.09778 0.52916 0.27738 0.0
C1050 C 1.03764 0.48122 0.27161 0.0
C1051 C 1.00575 0.45959 0.25858 0.0
C1052 C 0.98602 0.47946 0.24765 0.0
C1053 C 0.95641 0.45886 0.23513 0.0
C1054 C 0.94605 0.41837 0.23354 0.0
C1055 C 0.96523 0.39838 0.24452 0.0
C1056 C 0.99491 0.41885 0.25705 0.0
C1057 C 0.05751 0.52582 0.35991 0.0
C1058 C 1.05266 0.49039 0.36864 0.0
C1059 C 0.05999 0.52769 0.33933 0.0
C1060 C 0.05818 0.49428 0.32703 0.0
C1061 C 1.05203 0.45856 0.33562 0.0
C1062 C 1.0493 0.45663 0.35627 0.0
C1063 C 0.06383 0.49724 0.30532 0.0
C1064 C 1.03567 0.47552 0.29207 0.0
C1065 C 0.09577 0.52362 0.29779 0.0
C1066 C 0.12744 0.54567 0.31094 0.0
C1067 C 0.14485 0.52624 0.32353 0.0
C1068 C 0.1739 0.54721 0.3363 0.0
C1069 C 0.186 0.58764 0.33653 0.0
C1070 C 0.16916 0.60718 0.32392 0.0
C1071 C 0.14007 0.58635 0.31113 0.0
H1072 H 0.20845 0.60382 0.34646 0.0
H1073 H 0.9231 0.40249 0.22384 0.0
loop_
_geom_bond_atom_site_label_1
_geom_bond_atom_site_label_2
_geom_bond_distance
_geom_bond_site_symmetry_2
_ccdc_geom_bond_type
Nd0 C2 2.836 . S
Nd0 O20 2.500 . S
Nd0 O21 2.492 . S
Nd0 O22 2.487 . S
Nd0 O23 2.682 . S
Nd0 O24 2.410 . S
Nd0 O29 2.414 . S
Nd0 O31 2.424 1_455 S
Nd1 C11 2.862 . S
Nd1 O23 2.417 1_655 S
Nd1 O25 2.390 1_655 S
Nd1 O26 2.524 . S
Nd1 O27 2.514 . S
Nd1 O28 2.488 1_655 S
Nd1 O29 2.678 1_655 S
Nd1 O30 2.441 . S
C2 Nd0 2.836 . S
C2 C3 1.498 . S
C2 O20 1.258 . S
C2 O21 1.239 . S
C3 C2 1.498 . S
C3 C4 1.366 . S
C3 C8 1.407 . S
C4 C3 1.366 . S
C4 C5 1.392 . S
C4 H32 0.930 . S
C5 C4 1.392 . S
C5 C6 1.398 . S
C5 H33 0.929 . S
C6 C5 1.398 . S
C6 C7 1.352 . S
C7 C6 1.352 . S
C7 C8 1.384 . S
C7 H34 0.930 . S
C8 C3 1.407 . S
C8 C7 1.384 . S
C8 H35 0.929 . S
C9 O22 1.241 . S
C9 O23 1.273 . S
C10 O24 1.251 . S
C10 O25 1.268 . S
C11 Nd1 2.862 . S
C11 C12 1.498 . S
C11 O26 1.258 . S
C11 O27 1.239 . S
C12 C11 1.498 . S
C12 C13 1.366 . S
C12 C17 1.407 . S
C13 C12 1.366 . S
C13 C14 1.392 . S
C13 H36 0.930 . S
C14 C13 1.392 . S
C14 C15 1.398 . S
C14 H37 0.929 . S
C15 C14 1.398 . S
C15 C16 1.352 . S
C16 C15 1.352 . S
C16 C17 1.384 . S
C16 H38 0.930 . S
C17 C12 1.407 . S
C17 C16 1.384 . S
C17 H39 0.929 . S
C18 O28 1.241 . S
C18 O29 1.273 . S
C19 O30 1.251 . S
C19 O31 1.268 . S
O20 Nd0 2.500 . S
O20 C2 1.258 . S
O21 Nd0 2.492 . S
O21 C2 1.239 . S
O22 Nd0 2.487 . S
O22 C9 1.241 . S
O23 Nd0 2.682 . S
O23 Nd1 2.417 1_455 S
O23 C9 1.273 . S
O24 Nd0 2.410 . S
O24 C10 1.251 . S
O25 Nd1 2.390 1_455 S
O25 C10 1.268 . S
O26 Nd1 2.524 . S
O26 C11 1.258 . S
O27 Nd1 2.514 . S
O27 C11 1.239 . S
O28 Nd1 2.488 1_455 S
O28 C18 1.241 . S
O29 Nd0 2.414 . S
O29 Nd1 2.678 1_455 S
O29 C18 1.273 . S
O30 Nd1 2.441 . S
O30 C19 1.251 . S
O31 Nd0 2.424 1_655 S
O31 C19 1.268 . S
H32 C4 0.930 . S
H33 C5 0.929 . S
H34 C7 0.930 . S
H35 C8 0.929 . S
H36 C13 0.930 . S
H37 C14 0.929 . S
H38 C16 0.930 . S
H39 C17 0.929 . S
Nd40 C42 2.815 1_545 S
Nd40 O60 2.479 1_545 S
Nd40 O61 2.474 1_545 S
Nd40 O62 2.487 . S
Nd40 O63 2.685 . S
Nd40 O64 2.380 1_545 S
Nd40 O69 2.410 . S
Nd40 O71 2.454 . S
Nd41 C51 2.836 . S
Nd41 O63 2.414 . S
Nd41 O65 2.424 1_545 S
Nd41 O66 2.500 . S
Nd41 O67 2.492 . S
Nd41 O68 2.487 . S
Nd41 O69 2.682 . S
Nd41 O70 2.410 . S
C42 Nd40 2.815 1_565 S
C42 C43 1.498 . S
C42 O60 1.258 . S
C42 O61 1.239 . S
C43 C42 1.498 . S
C43 C44 1.366 . S
C43 C48 1.407 . S
C44 C43 1.366 . S
C44 C45 1.392 . S
C44 H72 0.930 . S
C45 C44 1.392 . S
C45 C46 1.398 . S
C45 H73 0.929 . S
C46 C45 1.398 . S
C46 C47 1.352 . S
C47 C46 1.352 . S
C47 C48 1.384 . S
C47 H74 0.930 . S
C48 C43 1.407 . S
C48 C47 1.384 . S
C48 H75 0.929 . S
C49 O62 1.242 . S
C49 O63 1.273 . S
C50 O64 1.251 . S
C50 O65 1.268 . S
C51 Nd41 2.836 . S
C51 C52 1.498 . S
C51 O66 1.258 . S
C51 O67 1.239 . S
C52 C51 1.498 . S
C52 C53 1.366 . S
C52 C57 1.407 . S
C53 C52 1.366 . S
C53 C54 1.392 . S
C53 H76 0.930 . S
C54 C53 1.392 . S
C54 C55 1.398 . S
C54 H77 0.929 . S
C55 C54 1.398 . S
C55 C56 1.352 . S
C56 C55 1.352 . S
C56 C57 1.384 . S
C56 H78 0.930 . S
C57 C52 1.407 . S
C57 C56 1.384 . S
C57 H79 0.929 . S
C58 O68 1.241 . S
C58 O69 1.273 . S
C59 O70 1.251 . S
C59 O71 1.268 . S
O60 Nd40 2.479 1_565 S
O60 C42 1.258 . S
O61 Nd40 2.474 1_565 S
O61 C42 1.239 . S
O62 Nd40 2.487 . S
O62 C49 1.242 . S
O63 Nd40 2.685 . S
O63 Nd41 2.414 . S
O63 C49 1.273 . S
O64 Nd40 2.380 1_565 S
O64 C50 1.251 . S
O65 Nd41 2.424 1_565 S
O65 C50 1.268 . S
O66 Nd41 2.500 . S
O66 C51 1.258 . S
O67 Nd41 2.492 . S
O67 C51 1.239 . S
O68 Nd41 2.487 . S
O68 C58 1.241 . S
O69 Nd40 2.410 . S
O69 Nd41 2.682 . S
O69 C58 1.273 . S
O70 Nd41 2.410 . S
O70 C59 1.251 . S
O71 Nd40 2.454 . S
O71 C59 1.268 . S
H72 C44 0.930 . S
H73 C45 0.929 . S
H74 C47 0.930 . S
H75 C48 0.929 . S
H76 C53 0.930 . S
H77 C54 0.929 . S
H78 C56 0.930 . S
H79 C57 0.929 . S
Nd80 C82 2.836 . S
Nd80 O100 2.500 . S
Nd80 O101 2.492 . S
Nd80 O102 2.487 . S
Nd80 O103 2.682 . S
Nd80 O104 2.410 . S
Nd80 O109 2.414 . S
Nd80 O111 2.424 . S
Nd81 C91 2.836 . S
Nd81 O103 2.414 . S
Nd81 O105 2.424 . S
Nd81 O106 2.500 . S
Nd81 O107 2.492 . S
Nd81 O108 2.487 . S
Nd81 O109 2.682 . S
Nd81 O110 2.410 . S
C82 Nd80 2.836 . S
C82 C83 1.498 . S
C82 O100 1.258 . S
C82 O101 1.239 . S
C83 C82 1.498 . S
C83 C84 1.366 . S
C83 C88 1.407 . S
C84 C83 1.366 . S
C84 C85 1.392 . S
C84 H112 0.930 . S
C85 C84 1.392 . S
C85 C86 1.398 . S
C85 H113 0.929 . S
C86 C85 1.398 . S
C86 C87 1.352 . S
C87 C86 1.352 . S
C87 C88 1.384 . S
C87 H114 0.930 . S
C88 C83 1.407 . S
C88 C87 1.384 . S
C88 H115 0.929 . S
C89 O102 1.241 . S
C89 O103 1.273 . S
C90 O104 1.251 . S
C90 O105 1.268 . S
C91 Nd81 2.836 . S
C91 C92 1.498 . S
C91 O106 1.258 . S
C91 O107 1.239 . S
C92 C91 1.498 . S
C92 C93 1.366 . S
C92 C97 1.407 . S
C93 C92 1.366 . S
C93 C94 1.392 . S
C93 H116 0.930 . S
C94 C93 1.392 . S
C94 C95 1.398 . S
C94 H117 0.929 . S
C95 C94 1.398 . S
C95 C96 1.352 . S
C96 C95 1.352 . S
C96 C97 1.384 . S
C96 H118 0.930 . S
C97 C92 1.407 . S
C97 C96 1.384 . S
C97 H119 0.929 . S
C98 O108 1.241 . S
C98 O109 1.273 . S
C99 O110 1.251 . S
C99 O111 1.268 . S
O100 Nd80 2.500 . S
O100 C82 1.258 . S
O101 Nd80 2.492 . S
O101 C82 1.239 . S
O102 Nd80 2.487 . S
O102 C89 1.241 . S
O103 Nd80 2.682 . S
O103 Nd81 2.414 . S
O103 C89 1.273 . S
O104 Nd80 2.410 . S
O104 C90 1.251 . S
O105 Nd81 2.424 . S
O105 C90 1.268 . S
O106 Nd81 2.500 . S
O106 C91 1.258 . S
O107 Nd81 2.492 . S
O107 C91 1.239 . S
O108 Nd81 2.487 . S
O108 C98 1.241 . S
O109 Nd80 2.414 . S
O109 Nd81 2.682 . S
O109 C98 1.273 . S
O110 Nd81 2.410 . S
O110 C99 1.251 . S
O111 Nd80 2.424 . S
O111 C99 1.268 . S
H112 C84 0.930 . S
H113 C85 0.929 . S
H114 C87 0.930 . S
H115 C88 0.929 . S
H116 C93 0.930 . S
H117 C94 0.929 . S
H118 C96 0.930 . S
H119 C97 0.929 . S
H120 C123 0.922 1_565 S
H121 C126 0.928 . S
H122 C128 0.930 . S
C123 H120 0.922 1_545 S
C123 C124 1.413 1_545 S
C123 C125 1.369 . S
C124 C123 1.413 1_565 S
C124 C128 1.429 1_565 S
C125 C123 1.369 . S
C125 C126 1.372 . S
C126 H121 0.928 . S
C126 C125 1.372 . S
C126 C127 1.404 . S
C127 C126 1.404 . S
C127 C128 1.391 . S
C128 H122 0.930 . S
C128 C124 1.429 1_545 S
C128 C127 1.391 . S
H129 C132 0.931 . S
H130 C135 0.928 . S
H131 C137 0.930 . S
C132 H129 0.931 . S
C132 C133 1.413 . S
C132 C134 1.360 . S
C133 C132 1.413 . S
C133 C137 1.429 . S
C134 C132 1.360 . S
C134 C135 1.372 . S
C135 H130 0.928 . S
C135 C134 1.372 . S
C135 C136 1.404 . S
C136 C135 1.404 . S
C136 C137 1.391 . S
C137 H131 0.930 . S
C137 C133 1.429 . S
C137 C136 1.391 . S
H138 C141 0.931 1_655 S
H139 C144 0.928 . S
H140 C146 0.930 . S
C141 H138 0.931 1_455 S
C141 C142 1.413 . S
C141 C143 1.360 . S
C142 C141 1.413 . S
C142 C146 1.429 . S
C143 C141 1.360 . S
C143 C144 1.372 . S
C144 H139 0.928 . S
C144 C143 1.372 . S
C144 C145 1.404 . S
C145 C144 1.404 . S
C145 C146 1.391 . S
C146 H140 0.930 . S
C146 C142 1.429 . S
C146 C145 1.391 . S
H147 C150 0.931 . S
H148 C153 0.928 . S
H149 C155 0.930 . S
C150 H147 0.931 . S
C150 C151 1.413 . S
C150 C152 1.353 1_655 S
C151 C150 1.413 . S
C151 C155 1.416 1_655 S
C152 C150 1.353 1_455 S
C152 C153 1.378 . S
C153 H148 0.928 . S
C153 C152 1.378 . S
C153 C154 1.404 . S
C154 C153 1.404 . S
C154 C155 1.406 . S
C155 H149 0.930 . S
C155 C151 1.416 1_455 S
C155 C154 1.406 . S
H156 C159 0.931 . S
H157 C162 0.928 . S
H158 C164 0.930 . S
C159 H156 0.931 . S
C159 C160 1.413 . S
C159 C161 1.360 . S
C160 C159 1.413 . S
C160 C164 1.429 . S
C161 C159 1.360 . S
C161 C162 1.372 1_545 S
C162 H157 0.928 . S
C162 C161 1.372 1_565 S
C162 C163 1.404 . S
C163 C162 1.404 . S
C163 C164 1.391 1_565 S
C164 H158 0.930 . S
C164 C160 1.429 . S
C164 C163 1.391 1_545 S
H165 C168 0.931 . S
H166 C171 0.928 . S
H167 C173 0.930 . S
C168 H165 0.931 . S
C168 C169 1.413 . S
C168 C170 1.360 . S
C169 C168 1.413 . S
C169 C173 1.429 . S
C170 C168 1.360 . S
C170 C171 1.372 . S
C171 H166 0.928 . S
C171 C170 1.372 . S
C171 C172 1.404 . S
C172 C171 1.404 . S
C172 C173 1.391 . S
C173 H167 0.930 . S
C173 C169 1.429 . S
C173 C172 1.391 . S
H174 C192 0.951 . S
H175 C194 0.951 . S
H176 C196 0.950 . S
H177 C197 0.950 . S
H178 C199 0.950 . S
H179 C202 0.950 . S
H180 C203 0.950 . S
H181 C205 0.950 . S
H182 C206 0.950 . S
H183 C207 0.951 . S
H184 C209 0.951 . S
H185 C211 0.950 . S
H186 C212 0.950 . S
H187 C214 0.950 . S
H188 C217 0.950 . S
H189 C218 0.950 . S
H190 C220 0.950 . S
H191 C221 0.950 . S
C192 H174 0.951 . S
C192 C193 1.366 . S
C192 C194 1.388 . S
C193 C192 1.366 . S
C193 C197 1.385 . S
C194 H175 0.951 . S
C194 C192 1.388 . S
C194 C195 1.366 . S
C195 C194 1.366 . S
C195 C196 1.414 . S
C195 C198 1.499 . S
C196 H176 0.950 . S
C196 C195 1.414 . S
C196 C197 1.374 . S
C197 H177 0.950 . S
C197 C193 1.385 . S
C197 C196 1.374 . S
C198 C195 1.499 . S
C198 C199 1.373 . S
C198 C200 1.389 . S
C199 H178 0.950 . S
C199 C198 1.373 . S
C199 C215 1.377 . S
C200 C198 1.389 . S
C200 C201 1.524 . S
C200 C214 1.377 . S
C201 C200 1.524 . S
C201 C202 1.397 . S
C201 C206 1.363 . S
C202 H179 0.950 . S
C202 C201 1.397 . S
C202 C203 1.334 . S
C203 H180 0.950 . S
C203 C202 1.334 . S
C203 C204 1.287 . S
C204 C203 1.287 . S
C204 C205 1.524 . S
C204 H223 0.913 . S
C205 H181 0.950 . S
C205 C204 1.524 . S
C205 C206 1.415 . S
C206 H182 0.950 . S
C206 C201 1.363 . S
C206 C205 1.415 . S
C207 H183 0.951 . S
C207 C208 1.366 . S
C207 C209 1.388 . S
C208 C207 1.366 . S
C208 C212 1.385 . S
C209 H184 0.951 . S
C209 C207 1.388 . S
C209 C210 1.366 . S
C210 C209 1.366 . S
C210 C211 1.414 . S
C210 C213 1.499 . S
C211 H185 0.950 . S
C211 C210 1.414 . S
C211 C212 1.374 . S
C212 H186 0.950 . S
C212 C208 1.385 . S
C212 C211 1.374 . S
C213 C210 1.499 . S
C213 C214 1.373 . S
C213 C215 1.389 . S
C214 H187 0.950 . S
C214 C200 1.377 . S
C214 C213 1.373 . S
C215 C199 1.377 . S
C215 C213 1.389 . S
C215 C216 1.524 . S
C216 C215 1.524 . S
C216 C217 1.397 . S
C216 C221 1.363 . S
C217 H188 0.950 . S
C217 C216 1.397 . S
C217 C218 1.334 . S
C218 H189 0.950 . S
C218 C217 1.334 . S
C218 C219 1.287 . S
C219 C218 1.287 . S
C219 C220 1.524 . S
C219 H222 0.999 . S
C220 H190 0.950 . S
C220 C219 1.524 . S
C220 C221 1.415 . S
C221 H191 0.950 . S
C221 C216 1.363 . S
C221 C220 1.415 . S
H222 C219 0.999 . S
H223 C204 0.913 . S
H224 C242 0.951 . S
H225 C244 0.951 . S
H226 C246 0.950 . S
H227 C247 0.950 . S
H228 C249 0.950 . S
H229 C252 0.950 . S
H230 C253 0.950 . S
H231 C255 0.950 . S
H232 C256 0.950 . S
H233 C257 0.951 . S
H234 C259 0.951 . S
H235 C261 0.950 . S
H236 C262 0.950 . S
H237 C264 0.950 . S
H238 C267 0.950 . S
H239 C268 0.950 . S
H240 C270 0.950 . S
H241 C271 0.950 . S
C242 H224 0.951 . S
C242 C243 1.366 . S
C242 C244 1.388 . S
C243 C242 1.366 . S
C243 C247 1.385 . S
C244 H225 0.951 . S
C244 C242 1.388 . S
C244 C245 1.366 . S
C245 C244 1.366 . S
C245 C246 1.414 . S
C245 C248 1.499 . S
C246 H226 0.950 . S
C246 C245 1.414 . S
C246 C247 1.374 . S
C247 H227 0.950 . S
C247 C243 1.385 . S
C247 C246 1.374 . S
C248 C245 1.499 . S
C248 C249 1.373 . S
C248 C250 1.389 . S
C249 H228 0.950 . S
C249 C248 1.373 . S
C249 C265 1.377 . S
C250 C248 1.389 . S
C250 C251 1.524 . S
C250 C264 1.377 . S
C251 C250 1.524 . S
C251 C252 1.397 . S
C251 C256 1.363 . S
C252 H229 0.950 . S
C252 C251 1.397 . S
C252 C253 1.334 . S
C253 H230 0.950 . S
C253 C252 1.334 . S
C253 C254 1.287 . S
C254 C253 1.287 . S
C254 C255 1.524 . S
C254 H273 0.913 . S
C255 H231 0.950 . S
C255 C254 1.524 . S
C255 C256 1.415 . S
C256 H232 0.950 . S
C256 C251 1.363 . S
C256 C255 1.415 . S
C257 H233 0.951 . S
C257 C258 1.366 . S
C257 C259 1.388 . S
C258 C257 1.366 . S
C258 C262 1.385 . S
C259 H234 0.951 . S
C259 C257 1.388 . S
C259 C260 1.366 . S
C260 C259 1.366 . S
C260 C261 1.414 . S
C260 C263 1.499 . S
C261 H235 0.950 . S
C261 C260 1.414 . S
C261 C262 1.374 . S
C262 H236 0.950 . S
C262 C258 1.385 . S
C262 C261 1.374 . S
C263 C260 1.499 . S
C263 C264 1.373 . S
C263 C265 1.389 . S
C264 H237 0.950 . S
C264 C250 1.377 . S
C264 C263 1.373 . S
C265 C249 1.377 . S
C265 C263 1.389 . S
C265 C266 1.524 . S
C266 C265 1.524 . S
C266 C267 1.397 . S
C266 C271 1.363 . S
C267 H238 0.950 . S
C267 C266 1.397 . S
C267 C268 1.334 . S
C268 H239 0.950 . S
C268 C267 1.334 . S
C268 C269 1.287 . S
C269 C268 1.287 . S
C269 C270 1.524 . S
C269 H272 0.999 . S
C270 H240 0.950 . S
C270 C269 1.524 . S
C270 C271 1.415 . S
C271 H241 0.950 . S
C271 C266 1.363 . S
C271 C270 1.415 . S
H272 C269 0.999 . S
H273 C254 0.913 . S
H274 C292 0.951 . S
H275 C294 0.951 . S
H276 C296 0.950 . S
H277 C297 0.950 . S
H278 C299 0.950 . S
H279 C302 0.950 . S
H280 C303 0.950 . S
H281 C305 0.950 . S
H282 C306 0.950 . S
H283 C307 0.951 . S
H284 C309 0.951 . S
H285 C311 0.950 . S
H286 C312 0.950 . S
H287 C314 0.950 . S
H288 C317 0.950 . S
H289 C318 0.950 . S
H290 C320 0.950 . S
H291 C321 0.950 . S
C292 H274 0.951 . S
C292 C293 1.366 . S
C292 C294 1.388 . S
C293 C292 1.366 . S
C293 C297 1.385 . S
C294 H275 0.951 . S
C294 C292 1.388 . S
C294 C295 1.366 . S
C295 C294 1.366 . S
C295 C296 1.414 . S
C295 C298 1.499 . S
C296 H276 0.950 . S
C296 C295 1.414 . S
C296 C297 1.374 . S
C297 H277 0.950 . S
C297 C293 1.385 . S
C297 C296 1.374 . S
C298 C295 1.499 . S
C298 C299 1.373 . S
C298 C300 1.389 . S
C299 H278 0.950 . S
C299 C298 1.373 . S
C299 C315 1.377 . S
C300 C298 1.389 . S
C300 C301 1.524 . S
C300 C314 1.377 . S
C301 C300 1.524 . S
C301 C302 1.397 . S
C301 C306 1.363 . S
C302 H279 0.950 . S
C302 C301 1.397 . S
C302 C303 1.334 . S
C303 H280 0.950 . S
C303 C302 1.334 . S
C303 C304 1.287 . S
C304 C303 1.287 . S
C304 C305 1.524 . S
C304 H323 0.913 . S
C305 H281 0.950 . S
C305 C304 1.524 . S
C305 C306 1.415 . S
C306 H282 0.950 . S
C306 C301 1.363 . S
C306 C305 1.415 . S
C307 H283 0.951 . S
C307 C308 1.366 . S
C307 C309 1.388 . S
C308 C307 1.366 . S
C308 C312 1.385 . S
C309 H284 0.951 . S
C309 C307 1.388 . S
C309 C310 1.366 . S
C310 C309 1.366 . S
C310 C311 1.414 . S
C310 C313 1.499 . S
C311 H285 0.950 . S
C311 C310 1.414 . S
C311 C312 1.374 . S
C312 H286 0.950 . S
C312 C308 1.385 . S
C312 C311 1.374 . S
C313 C310 1.499 . S
C313 C314 1.373 . S
C313 C315 1.389 . S
C314 H287 0.950 . S
C314 C300 1.377 . S
C314 C313 1.373 . S
C315 C299 1.377 . S
C315 C313 1.389 . S
C315 C316 1.524 . S
C316 C315 1.524 . S
C316 C317 1.397 . S
C316 C321 1.363 . S
C317 H288 0.950 . S
C317 C316 1.397 . S
C317 C318 1.334 . S
C318 H289 0.950 . S
C318 C317 1.334 . S
C318 C319 1.287 . S
C319 C318 1.287 . S
C319 C320 1.524 . S
C319 H322 0.999 . S
C320 H290 0.950 . S
C320 C319 1.524 . S
C320 C321 1.415 . S
C321 H291 0.950 . S
C321 C316 1.363 . S
C321 C320 1.415 . S
H322 C319 0.999 . S
H323 C304 0.913 . S
H324 C342 0.951 . S
H325 C344 0.951 . S
H326 C346 0.950 . S
H327 C347 0.950 . S
H328 C349 0.950 . S
H329 C352 0.950 . S
H330 C353 0.950 . S
H331 C355 0.950 . S
H332 C356 0.950 . S
H333 C357 0.951 . S
H334 C359 0.951 . S
H335 C361 0.950 . S
H336 C362 0.950 . S
H337 C364 0.950 . S
H338 C367 0.950 . S
H339 C368 0.950 . S
H340 C370 0.950 . S
H341 C371 0.950 . S
C342 H324 0.951 . S
C342 C343 1.366 . S
C342 C344 1.388 . S
C343 C342 1.366 . S
C343 C347 1.385 . S
C344 H325 0.951 . S
C344 C342 1.388 . S
C344 C345 1.366 . S
C345 C344 1.366 . S
C345 C346 1.414 . S
C345 C348 1.499 . S
C346 H326 0.950 . S
C346 C345 1.414 . S
C346 C347 1.374 . S
C347 H327 0.950 . S
C347 C343 1.385 . S
C347 C346 1.374 . S
C348 C345 1.499 . S
C348 C349 1.373 . S
C348 C350 1.389 . S
C349 H328 0.950 . S
C349 C348 1.373 . S
C349 C365 1.377 . S
C350 C348 1.389 . S
C350 C351 1.524 . S
C350 C364 1.377 . S
C351 C350 1.524 . S
C351 C352 1.397 . S
C351 C356 1.363 . S
C352 H329 0.950 . S
C352 C351 1.397 . S
C352 C353 1.334 . S
C353 H330 0.950 . S
C353 C352 1.334 . S
C353 C354 1.287 . S
C354 C353 1.287 . S
C354 C355 1.524 . S
C354 H373 0.913 . S
C355 H331 0.950 . S
C355 C354 1.524 . S
C355 C356 1.415 . S
C356 H332 0.950 . S
C356 C351 1.363 . S
C356 C355 1.415 . S
C357 H333 0.951 . S
C357 C358 1.366 . S
C357 C359 1.388 . S
C358 C357 1.366 . S
C358 C362 1.385 . S
C359 H334 0.951 . S
C359 C357 1.388 . S
C359 C360 1.366 . S
C360 C359 1.366 . S
C360 C361 1.414 . S
C360 C363 1.499 . S
C361 H335 0.950 . S
C361 C360 1.414 . S
C361 C362 1.374 . S
C362 H336 0.950 . S
C362 C358 1.385 . S
C362 C361 1.374 . S
C363 C360 1.499 . S
C363 C364 1.373 . S
C363 C365 1.389 . S
C364 H337 0.950 . S
C364 C350 1.377 . S
C364 C363 1.373 . S
C365 C349 1.377 . S
C365 C363 1.389 . S
C365 C366 1.524 . S
C366 C365 1.524 . S
C366 C367 1.397 . S
C366 C371 1.363 . S
C367 H338 0.950 . S
C367 C366 1.397 . S
C367 C368 1.334 . S
C368 H339 0.950 . S
C368 C367 1.334 . S
C368 C369 1.287 . S
C369 C368 1.287 . S
C369 C370 1.524 . S
C369 H372 0.999 . S
C370 H340 0.950 . S
C370 C369 1.524 . S
C370 C371 1.415 . S
C371 H341 0.950 . S
C371 C366 1.363 . S
C371 C370 1.415 . S
H372 C369 0.999 . S
H373 C354 0.913 . S
H374 C392 0.951 . S
H375 C394 0.951 . S
H376 C396 0.950 . S
H377 C397 0.950 . S
H378 C399 0.950 . S
H379 C402 0.950 . S
H380 C403 0.950 . S
H381 C405 0.950 . S
H382 C406 0.950 . S
H383 C407 0.951 . S
H384 C409 0.951 . S
H385 C411 0.950 . S
H386 C412 0.950 . S
H387 C414 0.950 . S
H388 C417 0.950 . S
H389 C418 0.950 . S
H390 C420 0.950 . S
H391 C421 0.950 . S
C392 H374 0.951 . S
C392 C393 1.366 . S
C392 C394 1.388 . S
C393 C392 1.366 . S
C393 C397 1.385 . S
C394 H375 0.951 . S
C394 C392 1.388 . S
C394 C395 1.366 . S
C395 C394 1.366 . S
C395 C396 1.414 . S
C395 C398 1.499 . S
C396 H376 0.950 . S
C396 C395 1.414 . S
C396 C397 1.374 . S
C397 H377 0.950 . S
C397 C393 1.385 . S
C397 C396 1.374 . S
C398 C395 1.499 . S
C398 C399 1.373 . S
C398 C400 1.389 . S
C399 H378 0.950 . S
C399 C398 1.373 . S
C399 C415 1.377 . S
C400 C398 1.389 . S
C400 C401 1.524 . S
C400 C414 1.377 . S
C401 C400 1.524 . S
C401 C402 1.397 . S
C401 C406 1.363 . S
C402 H379 0.950 . S
C402 C401 1.397 . S
C402 C403 1.334 . S
C403 H380 0.950 . S
C403 C402 1.334 . S
C403 C404 1.287 . S
C404 C403 1.287 . S
C404 C405 1.524 . S
C404 H423 0.913 . S
C405 H381 0.950 . S
C405 C404 1.524 . S
C405 C406 1.415 . S
C406 H382 0.950 . S
C406 C401 1.363 . S
C406 C405 1.415 . S
C407 H383 0.951 . S
C407 C408 1.366 . S
C407 C409 1.388 . S
C408 C407 1.366 . S
C408 C412 1.385 . S
C409 H384 0.951 . S
C409 C407 1.388 . S
C409 C410 1.366 . S
C410 C409 1.366 . S
C410 C411 1.414 . S
C410 C413 1.499 . S
C411 H385 0.950 . S
C411 C410 1.414 . S
C411 C412 1.374 . S
C412 H386 0.950 . S
C412 C408 1.385 . S
C412 C411 1.374 . S
C413 C410 1.499 . S
C413 C414 1.373 . S
C413 C415 1.389 . S
C414 H387 0.950 . S
C414 C400 1.377 . S
C414 C413 1.373 . S
C415 C399 1.377 . S
C415 C413 1.389 . S
C415 C416 1.524 . S
C416 C415 1.524 . S
C416 C417 1.397 . S
C416 C421 1.363 . S
C417 H388 0.950 . S
C417 C416 1.397 . S
C417 C418 1.334 . S
C418 H389 0.950 . S
C418 C417 1.334 . S
C418 C419 1.287 . S
C419 C418 1.287 . S
C419 C420 1.524 . S
C419 H422 0.999 . S
C420 H390 0.950 . S
C420 C419 1.524 . S
C420 C421 1.415 . S
C421 H391 0.950 . S
C421 C416 1.363 . S
C421 C420 1.415 . S
H422 C419 0.999 . S
H423 C404 0.913 . S
H424 C442 0.951 . S
H425 C444 0.951 . S
H426 C446 0.950 . S
H427 C447 0.950 . S
H428 C449 0.950 . S
H429 C452 0.950 . S
H430 C453 0.950 . S
H431 C455 0.950 . S
H432 C456 0.950 . S
H433 C457 0.951 . S
H434 C459 0.951 . S
H435 C461 0.950 . S
H436 C462 0.950 . S
H437 C464 0.950 . S
H438 C467 0.950 . S
H439 C468 0.950 . S
H440 C470 0.950 . S
H441 C471 0.950 . S
C442 H424 0.951 . S
C442 C443 1.366 . S
C442 C444 1.388 . S
C443 C442 1.366 . S
C443 C447 1.385 . S
C444 H425 0.951 . S
C444 C442 1.388 . S
C444 C445 1.366 . S
C445 C444 1.366 . S
C445 C446 1.414 . S
C445 C448 1.499 . S
C446 H426 0.950 . S
C446 C445 1.414 . S
C446 C447 1.374 . S
C447 H427 0.950 . S
C447 C443 1.385 . S
C447 C446 1.374 . S
C448 C445 1.499 . S
C448 C449 1.373 . S
C448 C450 1.389 . S
C449 H428 0.950 . S
C449 C448 1.373 . S
C449 C465 1.377 . S
C450 C448 1.389 . S
C450 C451 1.524 . S
C450 C464 1.377 . S
C451 C450 1.524 . S
C451 C452 1.397 . S
C451 C456 1.363 . S
C452 H429 0.950 . S
C452 C451 1.397 . S
C452 C453 1.334 . S
C453 H430 0.950 . S
C453 C452 1.334 . S
C453 C454 1.287 . S
C454 C453 1.287 . S
C454 C455 1.524 . S
C454 H473 0.913 . S
C455 H431 0.950 . S
C455 C454 1.524 . S
C455 C456 1.415 . S
C456 H432 0.950 . S
C456 C451 1.363 . S
C456 C455 1.415 . S
C457 H433 0.951 . S
C457 C458 1.366 . S
C457 C459 1.388 . S
C458 C457 1.366 . S
C458 C462 1.385 . S
C459 H434 0.951 . S
C459 C457 1.388 . S
C459 C460 1.366 . S
C460 C459 1.366 . S
C460 C461 1.414 . S
C460 C463 1.499 . S
C461 H435 0.950 . S
C461 C460 1.414 . S
C461 C462 1.374 . S
C462 H436 0.950 . S
C462 C458 1.385 . S
C462 C461 1.374 . S
C463 C460 1.499 . S
C463 C464 1.373 . S
C463 C465 1.389 . S
C464 H437 0.950 . S
C464 C450 1.377 . S
C464 C463 1.373 . S
C465 C449 1.377 . S
C465 C463 1.389 . S
C465 C466 1.524 . S
C466 C465 1.524 . S
C466 C467 1.397 . S
C466 C471 1.363 . S
C467 H438 0.950 . S
C467 C466 1.397 . S
C467 C468 1.334 . S
C468 H439 0.950 . S
C468 C467 1.334 . S
C468 C469 1.287 . S
C469 C468 1.287 . S
C469 C470 1.524 . S
C469 H472 0.999 . S
C470 H440 0.950 . S
C470 C469 1.524 . S
C470 C471 1.415 . S
C471 H441 0.950 . S
C471 C466 1.363 . S
C471 C470 1.415 . S
H472 C469 0.999 . S
H473 C454 0.913 . S
H474 C492 0.951 . S
H475 C494 0.951 . S
H476 C496 0.950 . S
H477 C497 0.950 . S
H478 C499 0.950 . S
H479 C502 0.950 . S
H480 C503 0.950 . S
H481 C505 0.950 . S
H482 C506 0.950 . S
H483 C507 0.951 . S
H484 C509 0.951 . S
H485 C511 0.950 . S
H486 C512 0.950 . S
H487 C514 0.950 . S
H488 C517 0.950 . S
H489 C518 0.950 . S
H490 C520 0.950 . S
H491 C521 0.950 . S
C492 H474 0.951 . S
C492 C493 1.366 . S
C492 C494 1.388 . S
C493 C492 1.366 . S
C493 C497 1.385 . S
C494 H475 0.951 . S
C494 C492 1.388 . S
C494 C495 1.366 . S
C495 C494 1.366 . S
C495 C496 1.414 . S
C495 C498 1.499 . S
C496 H476 0.950 . S
C496 C495 1.414 . S
C496 C497 1.374 . S
C497 H477 0.950 . S
C497 C493 1.385 . S
C497 C496 1.374 . S
C498 C495 1.499 . S
C498 C499 1.373 . S
C498 C500 1.389 . S
C499 H478 0.950 . S
C499 C498 1.373 . S
C499 C515 1.377 . S
C500 C498 1.389 . S
C500 C501 1.524 . S
C500 C514 1.377 . S
C501 C500 1.524 . S
C501 C502 1.397 . S
C501 C506 1.363 . S
C502 H479 0.950 . S
C502 C501 1.397 . S
C502 C503 1.334 . S
C503 H480 0.950 . S
C503 C502 1.334 . S
C503 C504 1.287 . S
C504 C503 1.287 . S
C504 C505 1.524 . S
C504 H523 0.913 . S
C505 H481 0.950 . S
C505 C504 1.524 . S
C505 C506 1.415 . S
C506 H482 0.950 . S
C506 C501 1.363 . S
C506 C505 1.415 . S
C507 H483 0.951 . S
C507 C508 1.366 . S
C507 C509 1.388 . S
C508 C507 1.366 . S
C508 C512 1.385 . S
C509 H484 0.951 . S
C509 C507 1.388 . S
C509 C510 1.366 . S
C510 C509 1.366 . S
C510 C511 1.414 . S
C510 C513 1.499 . S
C511 H485 0.950 . S
C511 C510 1.414 . S
C511 C512 1.374 . S
C512 H486 0.950 . S
C512 C508 1.385 . S
C512 C511 1.374 . S
C513 C510 1.499 . S
C513 C514 1.373 . S
C513 C515 1.389 . S
C514 H487 0.950 . S
C514 C500 1.377 . S
C514 C513 1.373 . S
C515 C499 1.377 . S
C515 C513 1.389 . S
C515 C516 1.524 . S
C516 C515 1.524 . S
C516 C517 1.397 . S
C516 C521 1.363 . S
C517 H488 0.950 . S
C517 C516 1.397 . S
C517 C518 1.334 . S
C518 H489 0.950 . S
C518 C517 1.334 . S
C518 C519 1.287 . S
C519 C518 1.287 . S
C519 C520 1.524 . S
C519 H522 0.999 . S
C520 H490 0.950 . S
C520 C519 1.524 . S
C520 C521 1.415 . S
C521 H491 0.950 . S
C521 C516 1.363 . S
C521 C520 1.415 . S
H522 C519 0.999 . S
H523 C504 0.913 . S
H524 C542 0.951 . S
H525 C544 0.951 . S
H526 C546 0.950 . S
H527 C547 0.950 . S
H528 C549 0.950 . S
H529 C552 0.950 . S
H530 C553 0.950 . S
H531 C555 0.950 . S
H532 C556 0.950 . S
H533 C557 0.951 1_455 S
H534 C559 0.951 . S
H535 C561 0.950 . S
H536 C562 0.950 . S
H537 C564 0.950 . S
H538 C567 0.950 . S
H539 C568 0.950 . S
H540 C570 0.950 . S
H541 C571 0.950 . S
C542 H524 0.951 . S
C542 C543 1.366 . S
C542 C544 1.388 . S
C543 C542 1.366 . S
C543 C547 1.385 . S
C544 H525 0.951 . S
C544 C542 1.388 . S
C544 C545 1.366 . S
C545 C544 1.366 . S
C545 C546 1.414 . S
C545 C548 1.499 . S
C546 H526 0.950 . S
C546 C545 1.414 . S
C546 C547 1.374 . S
C547 H527 0.950 . S
C547 C543 1.385 . S
C547 C546 1.374 . S
C548 C545 1.499 . S
C548 C549 1.373 . S
C548 C550 1.389 . S
C549 H528 0.950 . S
C549 C548 1.373 . S
C549 C565 1.377 . S
C550 C548 1.389 . S
C550 C551 1.524 . S
C550 C564 1.377 . S
C551 C550 1.524 . S
C551 C552 1.397 . S
C551 C556 1.363 . S
C552 H529 0.950 . S
C552 C551 1.397 . S
C552 C553 1.334 . S
C553 H530 0.950 . S
C553 C552 1.334 . S
C553 C554 1.287 . S
C554 C553 1.287 . S
C554 C555 1.524 . S
C554 H573 0.913 . S
C555 H531 0.950 . S
C555 C554 1.524 . S
C555 C556 1.415 . S
C556 H532 0.950 . S
C556 C551 1.363 . S
C556 C555 1.415 . S
C557 H533 0.951 1_655 S
C557 C558 1.366 . S
C557 C559 1.388 . S
C558 C557 1.366 . S
C558 C562 1.385 . S
C559 H534 0.951 . S
C559 C557 1.388 . S
C559 C560 1.366 . S
C560 C559 1.366 . S
C560 C561 1.414 . S
C560 C563 1.499 . S
C561 H535 0.950 . S
C561 C560 1.414 . S
C561 C562 1.374 . S
C562 H536 0.950 . S
C562 C558 1.385 . S
C562 C561 1.374 . S
C563 C560 1.499 . S
C563 C564 1.373 . S
C563 C565 1.389 . S
C564 H537 0.950 . S
C564 C550 1.377 . S
C564 C563 1.373 . S
C565 C549 1.377 . S
C565 C563 1.389 . S
C565 C566 1.524 . S
C566 C565 1.524 . S
C566 C567 1.397 . S
C566 C571 1.363 . S
C567 H538 0.950 . S
C567 C566 1.397 . S
C567 C568 1.334 . S
C568 H539 0.950 . S
C568 C567 1.334 . S
C568 C569 1.287 . S
C569 C568 1.287 . S
C569 C570 1.524 . S
C569 H572 0.999 . S
C570 H540 0.950 . S
C570 C569 1.524 . S
C570 C571 1.415 . S
C571 H541 0.950 . S
C571 C566 1.363 . S
C571 C570 1.415 . S
H572 C569 0.999 . S
H573 C554 0.913 . S
H574 C592 0.951 . S
H575 C594 0.951 . S
H576 C596 0.950 . S
H577 C597 0.950 . S
H578 C599 0.950 . S
H579 C602 0.950 . S
H580 C603 0.950 . S
H581 C605 0.950 . S
H582 C606 0.950 . S
H583 C607 0.951 . S
H584 C609 0.951 . S
H585 C611 0.950 . S
H586 C612 0.950 . S
H587 C614 0.950 . S
H588 C617 0.950 . S
H589 C618 0.950 . S
H590 C620 0.950 . S
H591 C621 0.950 . S
C592 H574 0.951 . S
C592 C593 1.366 . S
C592 C594 1.388 . S
C593 C592 1.366 . S
C593 C597 1.385 . S
C594 H575 0.951 . S
C594 C592 1.388 . S
C594 C595 1.366 . S
C595 C594 1.366 . S
C595 C596 1.414 . S
C595 C598 1.499 . S
C596 H576 0.950 . S
C596 C595 1.414 . S
C596 C597 1.374 . S
C597 H577 0.950 . S
C597 C593 1.385 . S
C597 C596 1.374 . S
C598 C595 1.499 . S
C598 C599 1.373 . S
C598 C600 1.389 . S
C599 H578 0.950 . S
C599 C598 1.373 . S
C599 C615 1.377 . S
C600 C598 1.389 . S
C600 C601 1.524 . S
C600 C614 1.377 . S
C601 C600 1.524 . S
C601 C602 1.397 . S
C601 C606 1.363 . S
C602 H579 0.950 . S
C602 C601 1.397 . S
C602 C603 1.334 . S
C603 H580 0.950 . S
C603 C602 1.334 . S
C603 C604 1.287 . S
C604 C603 1.287 . S
C604 C605 1.524 . S
C604 H623 0.913 . S
C605 H581 0.950 . S
C605 C604 1.524 . S
C605 C606 1.415 . S
C606 H582 0.950 . S
C606 C601 1.363 . S
C606 C605 1.415 . S
C607 H583 0.951 . S
C607 C608 1.366 . S
C607 C609 1.388 . S
C608 C607 1.366 . S
C608 C612 1.385 . S
C609 H584 0.951 . S
C609 C607 1.388 . S
C609 C610 1.366 . S
C610 C609 1.366 . S
C610 C611 1.414 . S
C610 C613 1.499 . S
C611 H585 0.950 . S
C611 C610 1.414 . S
C611 C612 1.374 . S
C612 H586 0.950 . S
C612 C608 1.385 . S
C612 C611 1.374 . S
C613 C610 1.499 . S
C613 C614 1.373 . S
C613 C615 1.389 . S
C614 H587 0.950 . S
C614 C600 1.377 . S
C614 C613 1.373 . S
C615 C599 1.377 . S
C615 C613 1.389 . S
C615 C616 1.524 . S
C616 C615 1.524 . S
C616 C617 1.397 . S
C616 C621 1.363 . S
C617 H588 0.950 . S
C617 C616 1.397 . S
C617 C618 1.334 . S
C618 H589 0.950 . S
C618 C617 1.334 . S
C618 C619 1.287 . S
C619 C618 1.287 . S
C619 C620 1.524 . S
C619 H622 0.999 . S
C620 H590 0.950 . S
C620 C619 1.524 . S
C620 C621 1.415 . S
C621 H591 0.950 . S
C621 C616 1.363 . S
C621 C620 1.415 . S
H622 C619 0.999 . S
H623 C604 0.913 . S
H624 C642 0.951 . S
H625 C644 0.951 . S
H626 C646 0.950 . S
H627 C647 0.950 . S
H628 C649 0.950 . S
H629 C652 0.950 . S
H630 C653 0.950 . S
H631 C655 0.950 . S
H632 C656 0.950 . S
H633 C657 0.951 . S
H634 C659 0.951 . S
H635 C661 0.950 . S
H636 C662 0.950 . S
H637 C664 0.950 . S
H638 C667 0.950 . S
H639 C668 0.950 . S
H640 C670 0.950 . S
H641 C671 0.950 . S
C642 H624 0.951 . S
C642 C643 1.366 . S
C642 C644 1.388 . S
C643 C642 1.366 . S
C643 C647 1.385 . S
C644 H625 0.951 . S
C644 C642 1.388 . S
C644 C645 1.366 . S
C645 C644 1.366 . S
C645 C646 1.414 . S
C645 C648 1.499 . S
C646 H626 0.950 . S
C646 C645 1.414 . S
C646 C647 1.374 . S
C647 H627 0.950 . S
C647 C643 1.385 . S
C647 C646 1.374 . S
C648 C645 1.499 . S
C648 C649 1.373 . S
C648 C650 1.389 . S
C649 H628 0.950 . S
C649 C648 1.373 . S
C649 C665 1.377 . S
C650 C648 1.389 . S
C650 C651 1.524 . S
C650 C664 1.377 . S
C651 C650 1.524 . S
C651 C652 1.397 . S
C651 C656 1.363 . S
C652 H629 0.950 . S
C652 C651 1.397 . S
C652 C653 1.334 . S
C653 H630 0.950 . S
C653 C652 1.334 . S
C653 C654 1.287 . S
C654 C653 1.287 . S
C654 C655 1.524 . S
C654 H673 0.913 . S
C655 H631 0.950 . S
C655 C654 1.524 . S
C655 C656 1.415 . S
C656 H632 0.950 . S
C656 C651 1.363 . S
C656 C655 1.415 . S
C657 H633 0.951 . S
C657 C658 1.366 . S
C657 C659 1.388 . S
C658 C657 1.366 . S
C658 C662 1.385 . S
C659 H634 0.951 . S
C659 C657 1.388 . S
C659 C660 1.366 . S
C660 C659 1.366 . S
C660 C661 1.414 . S
C660 C663 1.499 . S
C661 H635 0.950 . S
C661 C660 1.414 . S
C661 C662 1.374 . S
C662 H636 0.950 . S
C662 C658 1.385 . S
C662 C661 1.374 . S
C663 C660 1.499 . S
C663 C664 1.373 . S
C663 C665 1.389 . S
C664 H637 0.950 . S
C664 C650 1.377 . S
C664 C663 1.373 . S
C665 C649 1.377 . S
C665 C663 1.389 . S
C665 C666 1.524 . S
C666 C665 1.524 . S
C666 C667 1.397 . S
C666 C671 1.363 . S
C667 H638 0.950 . S
C667 C666 1.397 . S
C667 C668 1.334 . S
C668 H639 0.950 . S
C668 C667 1.334 . S
C668 C669 1.287 . S
C669 C668 1.287 . S
C669 C670 1.524 . S
C669 H672 0.999 . S
C670 H640 0.950 . S
C670 C669 1.524 . S
C670 C671 1.415 . S
C671 H641 0.950 . S
C671 C666 1.363 . S
C671 C670 1.415 . S
H672 C669 0.999 . S
H673 C654 0.913 . S
H674 C692 0.951 . S
H675 C694 0.951 . S
H676 C696 0.950 . S
H677 C697 0.950 . S
H678 C699 0.950 . S
H679 C702 0.950 . S
H680 C703 0.950 . S
H681 C705 0.950 . S
H682 C706 0.950 . S
H683 C707 0.951 . S
H684 C709 0.951 . S
H685 C711 0.950 . S
H686 C712 0.950 . S
H687 C714 0.950 . S
H688 C717 0.950 . S
H689 C718 0.950 . S
H690 C720 0.950 . S
H691 C721 0.950 . S
C692 H674 0.951 . S
C692 C693 1.366 . S
C692 C694 1.388 . S
C693 C692 1.366 . S
C693 C697 1.385 . S
C694 H675 0.951 . S
C694 C692 1.388 . S
C694 C695 1.366 . S
C695 C694 1.366 . S
C695 C696 1.414 . S
C695 C698 1.499 . S
C696 H676 0.950 . S
C696 C695 1.414 . S
C696 C697 1.374 . S
C697 H677 0.950 . S
C697 C693 1.385 . S
C697 C696 1.374 . S
C698 C695 1.499 . S
C698 C699 1.373 . S
C698 C700 1.389 . S
C699 H678 0.950 . S
C699 C698 1.373 . S
C699 C715 1.377 . S
C700 C698 1.389 . S
C700 C701 1.524 . S
C700 C714 1.377 . S
C701 C700 1.524 . S
C701 C702 1.397 . S
C701 C706 1.363 . S
C702 H679 0.950 . S
C702 C701 1.397 . S
C702 C703 1.334 . S
C703 H680 0.950 . S
C703 C702 1.334 . S
C703 C704 1.287 . S
C704 C703 1.287 . S
C704 C705 1.524 . S
C704 H723 0.913 . S
C705 H681 0.950 . S
C705 C704 1.524 . S
C705 C706 1.415 . S
C706 H682 0.950 . S
C706 C701 1.363 . S
C706 C705 1.415 . S
C707 H683 0.951 . S
C707 C708 1.366 . S
C707 C709 1.388 . S
C708 C707 1.366 . S
C708 C712 1.385 . S
C709 H684 0.951 . S
C709 C707 1.388 . S
C709 C710 1.366 . S
C710 C709 1.366 . S
C710 C711 1.414 . S
C710 C713 1.499 . S
C711 H685 0.950 . S
C711 C710 1.414 . S
C711 C712 1.374 . S
C712 H686 0.950 . S
C712 C708 1.385 . S
C712 C711 1.374 . S
C713 C710 1.499 . S
C713 C714 1.373 . S
C713 C715 1.389 . S
C714 H687 0.950 . S
C714 C700 1.377 . S
C714 C713 1.373 . S
C715 C699 1.377 . S
C715 C713 1.389 . S
C715 C716 1.524 . S
C716 C715 1.524 . S
C716 C717 1.397 . S
C716 C721 1.363 . S
C717 H688 0.950 . S
C717 C716 1.397 . S
C717 C718 1.334 . S
C718 H689 0.950 . S
C718 C717 1.334 . S
C718 C719 1.287 . S
C719 C718 1.287 . S
C719 C720 1.524 . S
C719 H722 0.999 . S
C720 H690 0.950 . S
C720 C719 1.524 . S
C720 C721 1.415 . S
C721 H691 0.950 . S
C721 C716 1.363 . S
C721 C720 1.415 . S
H722 C719 0.999 . S
H723 C704 0.913 . S
H724 C742 0.951 . S
H725 C744 0.951 . S
H726 C746 0.950 . S
H727 C747 0.950 . S
H728 C749 0.950 . S
H729 C752 0.950 . S
H730 C753 0.950 . S
H731 C755 0.950 . S
H732 C756 0.950 . S
H733 C757 0.951 . S
H734 C759 0.951 . S
H735 C761 0.950 . S
H736 C762 0.950 . S
H737 C764 0.950 . S
H738 C767 0.950 . S
H739 C768 0.950 . S
H740 C770 0.950 . S
H741 C771 0.950 . S
C742 H724 0.951 . S
C742 C743 1.366 . S
C742 C744 1.388 . S
C743 C742 1.366 . S
C743 C747 1.385 . S
C744 H725 0.951 . S
C744 C742 1.388 . S
C744 C745 1.366 . S
C745 C744 1.366 . S
C745 C746 1.414 . S
C745 C748 1.499 . S
C746 H726 0.950 . S
C746 C745 1.414 . S
C746 C747 1.374 . S
C747 H727 0.950 . S
C747 C743 1.385 . S
C747 C746 1.374 . S
C748 C745 1.499 . S
C748 C749 1.373 . S
C748 C750 1.389 . S
C749 H728 0.950 . S
C749 C748 1.373 . S
C749 C765 1.377 . S
C750 C748 1.389 . S
C750 C751 1.524 . S
C750 C764 1.377 . S
C751 C750 1.524 . S
C751 C752 1.397 . S
C751 C756 1.363 . S
C752 H729 0.950 . S
C752 C751 1.397 . S
C752 C753 1.334 . S
C753 H730 0.950 . S
C753 C752 1.334 . S
C753 C754 1.287 . S
C754 C753 1.287 . S
C754 C755 1.524 . S
C754 H773 0.913 . S
C755 H731 0.950 . S
C755 C754 1.524 . S
C755 C756 1.415 . S
C756 H732 0.950 . S
C756 C751 1.363 . S
C756 C755 1.415 . S
C757 H733 0.951 . S
C757 C758 1.366 . S
C757 C759 1.388 . S
C758 C757 1.366 . S
C758 C762 1.385 . S
C759 H734 0.951 . S
C759 C757 1.388 . S
C759 C760 1.366 . S
C760 C759 1.366 . S
C760 C761 1.414 . S
C760 C763 1.499 . S
C761 H735 0.950 . S
C761 C760 1.414 . S
C761 C762 1.374 . S
C762 H736 0.950 . S
C762 C758 1.385 . S
C762 C761 1.374 . S
C763 C760 1.499 . S
C763 C764 1.373 . S
C763 C765 1.389 . S
C764 H737 0.950 . S
C764 C750 1.377 . S
C764 C763 1.373 . S
C765 C749 1.377 . S
C765 C763 1.389 . S
C765 C766 1.524 . S
C766 C765 1.524 . S
C766 C767 1.397 . S
C766 C771 1.363 . S
C767 H738 0.950 . S
C767 C766 1.397 . S
C767 C768 1.334 . S
C768 H739 0.950 . S
C768 C767 1.334 . S
C768 C769 1.287 . S
C769 C768 1.287 . S
C769 C770 1.524 . S
C769 H772 0.999 . S
C770 H740 0.950 . S
C770 C769 1.524 . S
C770 C771 1.415 . S
C771 H741 0.950 . S
C771 C766 1.363 . S
C771 C770 1.415 . S
H772 C769 0.999 . S
H773 C754 0.913 . S
H774 C792 0.951 1_655 S
H775 C794 0.945 1_655 S
H776 C796 0.950 . S
H777 C797 0.950 . S
H778 C799 0.950 . S
H779 C802 0.950 . S
H780 C803 0.950 . S
H781 C805 0.950 . S
H782 C806 0.950 . S
H783 C807 0.951 . S
H784 C809 0.951 . S
H785 C811 0.950 . S
H786 C812 0.950 . S
H787 C814 0.950 . S
H788 C817 0.939 1_556 S
H789 C818 0.950 . S
H790 C820 0.950 . S
H791 C821 0.950 . S
C792 H774 0.951 1_455 S
C792 C793 1.366 . S
C792 C794 1.388 . S
C793 C792 1.366 . S
C793 C797 1.385 . S
C794 H775 0.945 1_455 S
C794 C792 1.388 . S
C794 C795 1.366 . S
C795 C794 1.366 . S
C795 C796 1.414 . S
C795 C798 1.499 . S
C796 H776 0.950 . S
C796 C795 1.414 . S
C796 C797 1.374 . S
C797 H777 0.950 . S
C797 C793 1.385 . S
C797 C796 1.374 . S
C798 C795 1.499 . S
C798 C799 1.373 . S
C798 C800 1.389 . S
C799 H778 0.950 . S
C799 C798 1.373 . S
C799 C815 1.377 . S
C800 C798 1.389 . S
C800 C801 1.524 . S
C800 C814 1.377 . S
C801 C800 1.524 . S
C801 C802 1.397 . S
C801 C806 1.363 . S
C802 H779 0.950 . S
C802 C801 1.397 . S
C802 C803 1.334 . S
C803 H780 0.950 . S
C803 C802 1.334 . S
C803 C804 1.287 . S
C804 C803 1.287 . S
C804 C805 1.524 . S
C804 H823 0.913 . S
C805 H781 0.950 . S
C805 C804 1.524 . S
C805 C806 1.415 . S
C806 H782 0.950 . S
C806 C801 1.363 . S
C806 C805 1.415 . S
C807 H783 0.951 . S
C807 C808 1.366 . S
C807 C809 1.388 . S
C808 C807 1.366 . S
C808 C812 1.385 . S
C809 H784 0.951 . S
C809 C807 1.388 . S
C809 C810 1.366 . S
C810 C809 1.366 . S
C810 C811 1.414 . S
C810 C813 1.499 1_556 S
C811 H785 0.950 . S
C811 C810 1.414 . S
C811 C812 1.374 . S
C812 H786 0.950 . S
C812 C808 1.385 . S
C812 C811 1.374 . S
C813 C810 1.499 1_554 S
C813 C814 1.373 . S
C813 C815 1.389 . S
C814 H787 0.950 . S
C814 C800 1.377 . S
C814 C813 1.373 . S
C815 C799 1.377 . S
C815 C813 1.389 . S
C815 C816 1.524 . S
C816 C815 1.524 . S
C816 C817 1.420 1_455 S
C816 C821 1.363 . S
C817 H788 0.939 1_554 S
C817 C816 1.420 1_655 S
C817 C818 1.323 1_554 S
C818 H789 0.950 . S
C818 C817 1.323 1_556 S
C818 C819 1.287 1_556 S
C819 C818 1.287 1_554 S
C819 C820 1.524 1_655 S
C819 H822 0.990 1_554 S
C820 H790 0.950 . S
C820 C819 1.524 1_455 S
C820 C821 1.415 . S
C821 H791 0.950 . S
C821 C816 1.363 . S
C821 C820 1.415 . S
H822 C819 0.990 1_556 S
H823 C804 0.913 . S
H824 C842 0.951 . S
H825 C844 0.951 . S
H826 C846 0.950 . S
H827 C847 0.950 . S
H828 C849 0.950 1_565 S
H829 C852 0.950 . S
H830 C853 0.950 . S
H831 C855 0.950 . S
H832 C856 0.950 . S
H833 C857 0.951 . S
H834 C859 0.951 . S
H835 C861 0.950 . S
H836 C862 0.950 . S
H837 C864 0.950 . S
H838 C867 0.950 . S
H839 C868 0.950 1_545 S
H840 C870 0.950 . S
H841 C871 0.950 . S
C842 H824 0.951 . S
C842 C843 1.366 . S
C842 C844 1.388 . S
C843 C842 1.366 . S
C843 C847 1.385 1_545 S
C844 H825 0.951 . S
C844 C842 1.388 . S
C844 C845 1.366 . S
C845 C844 1.366 . S
C845 C846 1.414 1_545 S
C845 C848 1.499 . S
C846 H826 0.950 . S
C846 C845 1.414 1_565 S
C846 C847 1.374 . S
C847 H827 0.950 . S
C847 C843 1.385 1_565 S
C847 C846 1.374 . S
C848 C845 1.499 . S
C848 C849 1.373 . S
C848 C850 1.389 . S
C849 H828 0.950 1_545 S
C849 C848 1.373 . S
C849 C865 1.377 . S
C850 C848 1.389 . S
C850 C851 1.524 . S
C850 C864 1.377 . S
C851 C850 1.524 . S
C851 C852 1.397 . S
C851 C856 1.363 . S
C852 H829 0.950 . S
C852 C851 1.397 . S
C852 C853 1.334 . S
C853 H830 0.950 . S
C853 C852 1.334 . S
C853 C854 1.287 . S
C854 C853 1.287 . S
C854 C855 1.524 . S
C854 H873 0.913 . S
C855 H831 0.950 . S
C855 C854 1.524 . S
C855 C856 1.415 . S
C856 H832 0.950 . S
C856 C851 1.363 . S
C856 C855 1.415 . S
C857 H833 0.951 . S
C857 C858 1.366 1_565 S
C857 C859 1.388 . S
C858 C857 1.366 1_545 S
C858 C862 1.385 . S
C859 H834 0.951 . S
C859 C857 1.388 . S
C859 C860 1.366 1_565 S
C860 C859 1.366 1_545 S
C860 C861 1.414 . S
C860 C863 1.499 . S
C861 H835 0.950 . S
C861 C860 1.414 . S
C861 C862 1.374 . S
C862 H836 0.950 . S
C862 C858 1.385 . S
C862 C861 1.374 . S
C863 C860 1.499 . S
C863 C864 1.373 . S
C863 C865 1.389 . S
C864 H837 0.950 . S
C864 C850 1.377 . S
C864 C863 1.373 . S
C865 C849 1.377 . S
C865 C863 1.389 . S
C865 C866 1.524 1_545 S
C866 C865 1.524 1_565 S
C866 C867 1.397 1_565 S
C866 C871 1.363 . S
C867 H838 0.950 . S
C867 C866 1.397 1_545 S
C867 C868 1.334 1_545 S
C868 H839 0.950 1_565 S
C868 C867 1.334 1_565 S
C868 C869 1.287 . S
C869 C868 1.287 . S
C869 C870 1.524 . S
C869 H872 0.999 . S
C870 H840 0.950 . S
C870 C869 1.524 . S
C870 C871 1.415 . S
C871 H841 0.950 . S
C871 C866 1.363 . S
C871 C870 1.415 . S
H872 C869 0.999 . S
H873 C854 0.913 . S
H874 C892 0.951 . S
H875 C894 0.951 . S
H876 C896 0.950 . S
H877 C897 0.950 . S
H878 C899 0.950 . S
H879 C902 0.950 . S
H880 C903 0.950 . S
H881 C905 0.950 . S
H882 C906 0.950 . S
H883 C907 0.951 . S
H884 C909 0.951 . S
H885 C911 0.950 . S
H886 C912 0.950 . S
H887 C914 0.950 . S
H888 C917 0.950 . S
H889 C918 0.950 . S
H890 C920 0.950 . S
H891 C921 0.950 . S
C892 H874 0.951 . S
C892 C893 1.366 . S
C892 C894 1.388 . S
C893 C892 1.366 . S
C893 C897 1.385 . S
C894 H875 0.951 . S
C894 C892 1.388 . S
C894 C895 1.366 . S
C895 C894 1.366 . S
C895 C896 1.414 . S
C895 C898 1.499 . S
C896 H876 0.950 . S
C896 C895 1.414 . S
C896 C897 1.374 . S
C897 H877 0.950 . S
C897 C893 1.385 . S
C897 C896 1.374 . S
C898 C895 1.499 . S
C898 C899 1.373 . S
C898 C900 1.389 . S
C899 H878 0.950 . S
C899 C898 1.373 . S
C899 C915 1.377 . S
C900 C898 1.389 . S
C900 C901 1.524 . S
C900 C914 1.377 . S
C901 C900 1.524 . S
C901 C902 1.397 . S
C901 C906 1.363 . S
C902 H879 0.950 . S
C902 C901 1.397 . S
C902 C903 1.334 . S
C903 H880 0.950 . S
C903 C902 1.334 . S
C903 C904 1.287 . S
C904 C903 1.287 . S
C904 C905 1.524 . S
C904 H923 0.913 . S
C905 H881 0.950 . S
C905 C904 1.524 . S
C905 C906 1.415 . S
C906 H882 0.950 . S
C906 C901 1.363 . S
C906 C905 1.415 . S
C907 H883 0.951 . S
C907 C908 1.366 . S
C907 C909 1.388 . S
C908 C907 1.366 . S
C908 C912 1.385 . S
C909 H884 0.951 . S
C909 C907 1.388 . S
C909 C910 1.366 . S
C910 C909 1.366 . S
C910 C911 1.414 . S
C910 C913 1.499 . S
C911 H885 0.950 . S
C911 C910 1.414 . S
C911 C912 1.374 . S
C912 H886 0.950 . S
C912 C908 1.385 . S
C912 C911 1.374 . S
C913 C910 1.499 . S
C913 C914 1.373 . S
C913 C915 1.389 . S
C914 H887 0.950 . S
C914 C900 1.377 . S
C914 C913 1.373 . S
C915 C899 1.377 . S
C915 C913 1.389 . S
C915 C916 1.524 . S
C916 C915 1.524 . S
C916 C917 1.397 . S
C916 C921 1.363 . S
C917 H888 0.950 . S
C917 C916 1.397 . S
C917 C918 1.334 . S
C918 H889 0.950 . S
C918 C917 1.334 . S
C918 C919 1.287 . S
C919 C918 1.287 . S
C919 C920 1.524 . S
C919 H922 0.999 . S
C920 H890 0.950 . S
C920 C919 1.524 . S
C920 C921 1.415 . S
C921 H891 0.950 . S
C921 C916 1.363 . S
C921 C920 1.415 . S
H922 C919 0.999 . S
H923 C904 0.913 . S
H924 C942 0.951 . S
H925 C944 0.951 . S
H926 C946 0.950 . S
H927 C947 0.950 . S
H928 C949 0.950 . S
H929 C952 0.950 . S
H930 C953 0.950 . S
H931 C955 0.950 . S
H932 C956 0.950 . S
H933 C957 0.951 . S
H934 C959 0.951 . S
H935 C961 0.950 . S
H936 C962 0.950 . S
H937 C964 0.950 1_565 S
H938 C967 0.950 . S
H939 C968 0.950 . S
H940 C970 0.950 . S
H941 C971 0.950 1_565 S
C942 H924 0.951 . S
C942 C943 1.366 . S
C942 C944 1.388 . S
C943 C942 1.366 . S
C943 C947 1.385 1_545 S
C944 H925 0.951 . S
C944 C942 1.388 . S
C944 C945 1.366 . S
C945 C944 1.366 . S
C945 C946 1.414 1_545 S
C945 C948 1.499 . S
C946 H926 0.950 . S
C946 C945 1.414 1_565 S
C946 C947 1.374 . S
C947 H927 0.950 . S
C947 C943 1.385 1_565 S
C947 C946 1.374 . S
C948 C945 1.499 . S
C948 C949 1.373 . S
C948 C950 1.403 . S
C949 H928 0.950 . S
C949 C948 1.373 . S
C949 C965 1.377 . S
C950 C948 1.403 . S
C950 C951 1.509 1_545 S
C950 C964 1.376 . S
C951 C950 1.509 1_565 S
C951 C952 1.397 . S
C951 C956 1.363 1_565 S
C952 H929 0.950 . S
C952 C951 1.397 . S
C952 C953 1.334 . S
C953 H930 0.950 . S
C953 C952 1.334 . S
C953 C954 1.287 . S
C954 C953 1.287 . S
C954 C955 1.524 . S
C954 H973 0.913 . S
C955 H931 0.950 . S
C955 C954 1.524 . S
C955 C956 1.415 1_565 S
C956 H932 0.950 . S
C956 C951 1.363 1_545 S
C956 C955 1.415 1_545 S
C957 H933 0.951 . S
C957 C958 1.366 1_565 S
C957 C959 1.388 . S
C958 C957 1.366 1_545 S
C958 C962 1.385 . S
C959 H934 0.951 . S
C959 C957 1.388 . S
C959 C960 1.366 1_565 S
C960 C959 1.366 1_545 S
C960 C961 1.414 . S
C960 C963 1.499 . S
C961 H935 0.950 . S
C961 C960 1.414 . S
C961 C962 1.374 . S
C962 H936 0.950 . S
C962 C958 1.385 . S
C962 C961 1.374 . S
C963 C960 1.499 . S
C963 C964 1.373 . S
C963 C965 1.389 . S
C964 H937 0.950 1_545 S
C964 C950 1.376 . S
C964 C963 1.373 . S
C965 C949 1.377 . S
C965 C963 1.389 . S
C965 C966 1.524 . S
C966 C965 1.524 . S
C966 C967 1.397 . S
C966 C971 1.363 . S
C967 H938 0.950 . S
C967 C966 1.397 . S
C967 C968 1.334 . S
C968 H939 0.950 . S
C968 C967 1.334 . S
C968 C969 1.287 . S
C969 C968 1.287 . S
C969 C970 1.524 . S
C969 H972 0.999 . S
C970 H940 0.950 . S
C970 C969 1.524 . S
C970 C971 1.415 . S
C971 H941 0.950 1_545 S
C971 C966 1.363 . S
C971 C970 1.415 . S
H972 C969 0.999 . S
H973 C954 0.913 . S
H974 C992 0.951 . S
H975 C994 0.951 . S
H976 C996 0.950 . S
H977 C997 0.950 . S
H978 C999 0.950 . S
H979 C1002 0.950 . S
H980 C1003 0.950 . S
H981 C1005 0.950 . S
H982 C1006 0.950 . S
H983 C1007 0.951 . S
H984 C1009 0.951 . S
H985 C1011 0.950 . S
H986 C1012 0.950 . S
H987 C1014 0.950 . S
H988 C1017 0.950 . S
H989 C1018 0.950 . S
H990 C1020 0.950 . S
H991 C1021 0.950 . S
C992 H974 0.951 . S
C992 C993 1.366 . S
C992 C994 1.388 . S
C993 C992 1.366 . S
C993 C997 1.385 . S
C994 H975 0.951 . S
C994 C992 1.388 . S
C994 C995 1.366 . S
C995 C994 1.366 . S
C995 C996 1.414 . S
C995 C998 1.499 . S
C996 H976 0.950 . S
C996 C995 1.414 . S
C996 C997 1.374 . S
C997 H977 0.950 . S
C997 C993 1.385 . S
C997 C996 1.374 . S
C998 C995 1.499 . S
C998 C999 1.373 . S
C998 C1000 1.389 . S
C999 H978 0.950 . S
C999 C998 1.373 . S
C999 C1015 1.377 . S
C1000 C998 1.389 . S
C1000 C1001 1.524 . S
C1000 C1014 1.377 . S
C1001 C1000 1.524 . S
C1001 C1002 1.397 . S
C1001 C1006 1.363 . S
C1002 H979 0.950 . S
C1002 C1001 1.397 . S
C1002 C1003 1.334 . S
C1003 H980 0.950 . S
C1003 C1002 1.334 . S
C1003 C1004 1.287 . S
C1004 C1003 1.287 . S
C1004 C1005 1.524 . S
C1004 H1023 0.913 . S
C1005 H981 0.950 . S
C1005 C1004 1.524 . S
C1005 C1006 1.415 . S
C1006 H982 0.950 . S
C1006 C1001 1.363 . S
C1006 C1005 1.415 . S
C1007 H983 0.951 . S
C1007 C1008 1.366 . S
C1007 C1009 1.388 . S
C1008 C1007 1.366 . S
C1008 C1012 1.385 . S
C1009 H984 0.951 . S
C1009 C1007 1.388 . S
C1009 C1010 1.366 . S
C1010 C1009 1.366 . S
C1010 C1011 1.414 . S
C1010 C1013 1.499 1_554 S
C1011 H985 0.950 . S
C1011 C1010 1.414 . S
C1011 C1012 1.374 . S
C1012 H986 0.950 . S
C1012 C1008 1.385 . S
C1012 C1011 1.374 . S
C1013 C1010 1.499 1_556 S
C1013 C1014 1.373 . S
C1013 C1015 1.389 . S
C1014 H987 0.950 . S
C1014 C1000 1.377 . S
C1014 C1013 1.373 . S
C1015 C999 1.377 . S
C1015 C1013 1.389 . S
C1015 C1016 1.505 1_556 S
C1016 C1015 1.505 1_554 S
C1016 C1017 1.422 . S
C1016 C1021 1.355 1_554 S
C1017 H988 0.950 . S
C1017 C1016 1.422 . S
C1017 C1018 1.334 . S
C1018 H989 0.950 . S
C1018 C1017 1.334 . S
C1018 C1019 1.287 . S
C1019 C1018 1.287 . S
C1019 C1020 1.524 . S
C1019 H1022 0.999 . S
C1020 H990 0.950 . S
C1020 C1019 1.524 . S
C1020 C1021 1.415 1_554 S
C1021 H991 0.950 . S
C1021 C1016 1.355 1_556 S
C1021 C1020 1.415 1_556 S
H1022 C1019 0.999 . S
H1023 C1004 0.913 . S
H1024 C1042 0.951 . S
H1025 C1044 0.951 . S
H1026 C1046 0.950 . S
H1027 C1047 0.950 . S
H1028 C1049 0.950 . S
H1029 C1052 0.950 . S
H1030 C1053 0.950 . S
H1031 C1055 0.950 . S
H1032 C1056 0.950 . S
H1033 C1057 0.951 . S
H1034 C1059 0.951 . S
H1035 C1061 0.950 . S
H1036 C1062 0.950 . S
H1037 C1064 0.950 . S
H1038 C1067 0.950 . S
H1039 C1068 0.950 . S
H1040 C1070 0.950 . S
H1041 C1071 0.950 . S
C1042 H1024 0.951 . S
C1042 C1043 1.366 1_655 S
C1042 C1044 1.388 . S
C1043 C1042 1.366 1_455 S
C1043 C1047 1.385 . S
C1044 H1025 0.951 . S
C1044 C1042 1.388 . S
C1044 C1045 1.366 1_655 S
C1045 C1044 1.366 1_455 S
C1045 C1046 1.414 . S
C1045 C1048 1.499 . S
C1046 H1026 0.950 . S
C1046 C1045 1.414 . S
C1046 C1047 1.374 . S
C1047 H1027 0.950 . S
C1047 C1043 1.385 . S
C1047 C1046 1.374 . S
C1048 C1045 1.499 . S
C1048 C1049 1.373 . S
C1048 C1050 1.389 1_455 S
C1049 H1028 0.950 . S
C1049 C1048 1.373 . S
C1049 C1065 1.377 . S
C1050 C1048 1.389 1_655 S
C1050 C1051 1.524 . S
C1050 C1064 1.377 . S
C1051 C1050 1.524 . S
C1051 C1052 1.397 . S
C1051 C1056 1.363 . S
C1052 H1029 0.950 . S
C1052 C1051 1.397 . S
C1052 C1053 1.334 . S
C1053 H1030 0.950 . S
C1053 C1052 1.334 . S
C1053 C1054 1.287 . S
C1054 C1053 1.287 . S
C1054 C1055 1.524 . S
C1054 H1073 0.913 . S
C1055 H1031 0.950 . S
C1055 C1054 1.524 . S
C1055 C1056 1.415 . S
C1056 H1032 0.950 . S
C1056 C1051 1.363 . S
C1056 C1055 1.415 . S
C1057 H1033 0.951 . S
C1057 C1058 1.367 . S
C1057 C1059 1.388 . S
C1058 C1057 1.367 . S
C1058 C1062 1.385 1_455 S
C1059 H1034 0.951 . S
C1059 C1057 1.388 . S
C1059 C1060 1.366 . S
C1060 C1059 1.366 . S
C1060 C1061 1.414 1_455 S
C1060 C1063 1.499 . S
C1061 H1035 0.950 . S
C1061 C1060 1.414 1_655 S
C1061 C1062 1.374 . S
C1062 H1036 0.950 . S
C1062 C1058 1.385 1_655 S
C1062 C1061 1.374 . S
C1063 C1060 1.499 . S
C1063 C1064 1.373 1_455 S
C1063 C1065 1.389 . S
C1064 H1037 0.950 . S
C1064 C1050 1.377 . S
C1064 C1063 1.373 1_655 S
C1065 C1049 1.377 . S
C1065 C1063 1.389 . S
C1065 C1066 1.524 . S
C1066 C1065 1.524 . S
C1066 C1067 1.397 . S
C1066 C1071 1.363 . S
C1067 H1038 0.950 . S
C1067 C1066 1.397 . S
C1067 C1068 1.334 . S
C1068 H1039 0.950 . S
C1068 C1067 1.334 . S
C1068 C1069 1.287 . S
C1069 C1068 1.287 . S
C1069 C1070 1.524 . S
C1069 H1072 0.999 . S
C1070 H1040 0.950 . S
C1070 C1069 1.524 . S
C1070 C1071 1.415 . S
C1071 H1041 0.950 . S
C1071 C1066 1.363 . S
C1071 C1070 1.415 . S
H1072 C1069 0.999 . S
H1073 C1054 0.913 . S
C193 C10 2.954 . S
C208 C169 2.924 . S
C243 C55 1.181 . S
C258 C151 1.199 . S
C293 C90 1.746 . S
C308 C163 1.732 . S
C343 C19 2.808 . S
C358 C172 2.820 . S
C408 C154 1.260 . S
C393 C46 1.233 . S
C458 C160 1.858 . S
C443 C99 1.842 . S
C493 C50 1.768 . S
C508 C133 1.751 . S
C543 C95 0.517 . S
C558 C142 0.467 1_655 S
C593 C6 1.271 . S
C608 C124 1.292 . S
C658 C136 1.799 . S
C643 C59 1.801 . S
C708 C145 0.290 . S
C693 C86 0.441 . S
C743 C15 1.205 . S
C758 C127 1.221 . S
C808 C143 1.104 . S
C793 C18 1.083 . S
C843 C49 1.444 . S
C858 C125 1.490 . S
C893 C98 1.331 . S
C908 C134 1.370 . S
C958 C161 1.378 . S
C943 C58 1.330 . S
C1008 C170 1.776 . S
C993 C89 1.705 . S
C1043 C9 1.451 . S
C1058 C152 1.510 . S
