# Generated by pormake.
# Topology ana-f, (3,3)-cn, num edge types: 1
# Building blocks:
#     Node 0, Type 0, BuildingBlock: OLANEW_clean_sbu_2, # of connection points: 3
#     Node 1, Type 0, BuildingBlock: OLANEW_clean_sbu_2, # of connection points: 3
#     Node 2, Type 0, BuildingBlock: OLANEW_clean_sbu_2, # of connection points: 3
#     Node 3, Type 0, BuildingBlock: OLANEW_clean_sbu_2, # of connection points: 3
#     Node 4, Type 0, BuildingBlock: OLANEW_clean_sbu_2, # of connection points: 3
#     Node 5, Type 0, BuildingBlock: OLANEW_clean_sbu_2, # of connection points: 3
#     Node 6, Type 0, BuildingBlock: OLANEW_clean_sbu_2, # of connection points: 3
#     Node 7, Type 0, BuildingBlock: OLANEW_clean_sbu_2, # of connection points: 3
#     Node 8, Type 0, BuildingBlock: OLANEW_clean_sbu_2, # of connection points: 3
#     Node 9, Type 0, BuildingBlock: OLANEW_clean_sbu_2, # of connection points: 3
#     Node 10, Type 0, BuildingBlock: OLANEW_clean_sbu_2, # of connection points: 3
#     Node 11, Type 0, BuildingBlock: OLANEW_clean_sbu_2, # of connection points: 3
#     Node 12, Type 0, BuildingBlock: OLANEW_clean_sbu_2, # of connection points: 3
#     Node 13, Type 0, BuildingBlock: OLANEW_clean_sbu_2, # of connection points: 3
#     Node 14, Type 0, BuildingBlock: OLANEW_clean_sbu_2, # of connection points: 3
#     Node 15, Type 0, BuildingBlock: OLANEW_clean_sbu_2, # of connection points: 3
#     Node 16, Type 0, BuildingBlock: OLANEW_clean_sbu_2, # of connection points: 3
#     Node 17, Type 0, BuildingBlock: OLANEW_clean_sbu_2, # of connection points: 3
#     Node 18, Type 0, BuildingBlock: OLANEW_clean_sbu_2, # of connection points: 3
#     Node 19, Type 0, BuildingBlock: OLANEW_clean_sbu_2, # of connection points: 3
#     Node 20, Type 0, BuildingBlock: OLANEW_clean_sbu_2, # of connection points: 3
#     Node 21, Type 0, BuildingBlock: OLANEW_clean_sbu_2, # of connection points: 3
#     Node 22, Type 0, BuildingBlock: OLANEW_clean_sbu_2, # of connection points: 3
#     Node 23, Type 0, BuildingBlock: OLANEW_clean_sbu_2, # of connection points: 3
#     Node 24, Type 0, BuildingBlock: OLANEW_clean_sbu_2, # of connection points: 3
#     Node 25, Type 0, BuildingBlock: OLANEW_clean_sbu_2, # of connection points: 3
#     Node 26, Type 0, BuildingBlock: OLANEW_clean_sbu_2, # of connection points: 3
#     Node 27, Type 0, BuildingBlock: OLANEW_clean_sbu_2, # of connection points: 3
#     Node 28, Type 0, BuildingBlock: OLANEW_clean_sbu_2, # of connection points: 3
#     Node 29, Type 0, BuildingBlock: OLANEW_clean_sbu_2, # of connection points: 3
#     Node 30, Type 0, BuildingBlock: OLANEW_clean_sbu_2, # of connection points: 3
#     Node 31, Type 0, BuildingBlock: OLANEW_clean_sbu_2, # of connection points: 3
#     Node 32, Type 0, BuildingBlock: OLANEW_clean_sbu_2, # of connection points: 3
#     Node 33, Type 0, BuildingBlock: OLANEW_clean_sbu_2, # of connection points: 3
#     Node 34, Type 0, BuildingBlock: OLANEW_clean_sbu_2, # of connection points: 3
#     Node 35, Type 0, BuildingBlock: OLANEW_clean_sbu_2, # of connection points: 3
#     Node 36, Type 0, BuildingBlock: OLANEW_clean_sbu_2, # of connection points: 3
#     Node 37, Type 0, BuildingBlock: OLANEW_clean_sbu_2, # of connection points: 3
#     Node 38, Type 0, BuildingBlock: OLANEW_clean_sbu_2, # of connection points: 3
#     Node 39, Type 0, BuildingBlock: OLANEW_clean_sbu_2, # of connection points: 3
#     Node 40, Type 0, BuildingBlock: OLANEW_clean_sbu_2, # of connection points: 3
#     Node 41, Type 0, BuildingBlock: OLANEW_clean_sbu_2, # of connection points: 3
#     Node 42, Type 0, BuildingBlock: OLANEW_clean_sbu_2, # of connection points: 3
#     Node 43, Type 0, BuildingBlock: OLANEW_clean_sbu_2, # of connection points: 3
#     Node 44, Type 0, BuildingBlock: OLANEW_clean_sbu_2, # of connection points: 3
#     Node 45, Type 0, BuildingBlock: OLANEW_clean_sbu_2, # of connection points: 3
#     Node 46, Type 0, BuildingBlock: OLANEW_clean_sbu_2, # of connection points: 3
#     Node 47, Type 0, BuildingBlock: OLANEW_clean_sbu_2, # of connection points: 3
#     Node 48, Type 0, BuildingBlock: OLANEW_clean_sbu_2, # of connection points: 3
#     Node 49, Type 0, BuildingBlock: OLANEW_clean_sbu_2, # of connection points: 3
#     Node 50, Type 0, BuildingBlock: OLANEW_clean_sbu_2, # of connection points: 3
#     Node 51, Type 0, BuildingBlock: OLANEW_clean_sbu_2, # of connection points: 3
#     Node 52, Type 0, BuildingBlock: OLANEW_clean_sbu_2, # of connection points: 3
#     Node 53, Type 0, BuildingBlock: OLANEW_clean_sbu_2, # of connection points: 3
#     Node 54, Type 0, BuildingBlock: OLANEW_clean_sbu_2, # of connection points: 3
#     Node 55, Type 0, BuildingBlock: OLANEW_clean_sbu_2, # of connection points: 3
#     Node 56, Type 0, BuildingBlock: OLANEW_clean_sbu_2, # of connection points: 3
#     Node 57, Type 0, BuildingBlock: OLANEW_clean_sbu_2, # of connection points: 3
#     Node 58, Type 0, BuildingBlock: OLANEW_clean_sbu_2, # of connection points: 3
#     Node 59, Type 0, BuildingBlock: OLANEW_clean_sbu_2, # of connection points: 3
#     Node 60, Type 0, BuildingBlock: OLANEW_clean_sbu_2, # of connection points: 3
#     Node 61, Type 0, BuildingBlock: OLANEW_clean_sbu_2, # of connection points: 3
#     Node 62, Type 0, BuildingBlock: OLANEW_clean_sbu_2, # of connection points: 3
#     Node 63, Type 0, BuildingBlock: OLANEW_clean_sbu_2, # of connection points: 3
#     Node 64, Type 0, BuildingBlock: OLANEW_clean_sbu_2, # of connection points: 3
#     Node 65, Type 0, BuildingBlock: OLANEW_clean_sbu_2, # of connection points: 3
#     Node 66, Type 0, BuildingBlock: OLANEW_clean_sbu_2, # of connection points: 3
#     Node 67, Type 0, BuildingBlock: OLANEW_clean_sbu_2, # of connection points: 3
#     Node 68, Type 0, BuildingBlock: OLANEW_clean_sbu_2, # of connection points: 3
#     Node 69, Type 0, BuildingBlock: OLANEW_clean_sbu_2, # of connection points: 3
#     Node 70, Type 0, BuildingBlock: OLANEW_clean_sbu_2, # of connection points: 3
#     Node 71, Type 0, BuildingBlock: OLANEW_clean_sbu_2, # of connection points: 3
#     Node 72, Type 0, BuildingBlock: OLANEW_clean_sbu_2, # of connection points: 3
#     Node 73, Type 0, BuildingBlock: OLANEW_clean_sbu_2, # of connection points: 3
#     Node 74, Type 0, BuildingBlock: OLANEW_clean_sbu_2, # of connection points: 3
#     Node 75, Type 0, BuildingBlock: OLANEW_clean_sbu_2, # of connection points: 3
#     Node 76, Type 0, BuildingBlock: OLANEW_clean_sbu_2, # of connection points: 3
#     Node 77, Type 0, BuildingBlock: OLANEW_clean_sbu_2, # of connection points: 3
#     Node 78, Type 0, BuildingBlock: OLANEW_clean_sbu_2, # of connection points: 3
#     Node 79, Type 0, BuildingBlock: OLANEW_clean_sbu_2, # of connection points: 3
#     Node 80, Type 0, BuildingBlock: OLANEW_clean_sbu_2, # of connection points: 3
#     Node 81, Type 0, BuildingBlock: OLANEW_clean_sbu_2, # of connection points: 3
#     Node 82, Type 0, BuildingBlock: OLANEW_clean_sbu_2, # of connection points: 3
#     Node 83, Type 0, BuildingBlock: OLANEW_clean_sbu_2, # of connection points: 3
#     Node 84, Type 0, BuildingBlock: OLANEW_clean_sbu_2, # of connection points: 3
#     Node 85, Type 0, BuildingBlock: OLANEW_clean_sbu_2, # of connection points: 3
#     Node 86, Type 0, BuildingBlock: OLANEW_clean_sbu_2, # of connection points: 3
#     Node 87, Type 0, BuildingBlock: OLANEW_clean_sbu_2, # of connection points: 3
#     Node 88, Type 0, BuildingBlock: OLANEW_clean_sbu_2, # of connection points: 3
#     Node 89, Type 0, BuildingBlock: OLANEW_clean_sbu_2, # of connection points: 3
#     Node 90, Type 0, BuildingBlock: OLANEW_clean_sbu_2, # of connection points: 3
#     Node 91, Type 0, BuildingBlock: OLANEW_clean_sbu_2, # of connection points: 3
#     Node 92, Type 0, BuildingBlock: OLANEW_clean_sbu_2, # of connection points: 3
#     Node 93, Type 0, BuildingBlock: OLANEW_clean_sbu_2, # of connection points: 3
#     Node 94, Type 0, BuildingBlock: OLANEW_clean_sbu_2, # of connection points: 3
#     Node 95, Type 0, BuildingBlock: OLANEW_clean_sbu_2, # of connection points: 3
#     Node 96, Type 1, BuildingBlock: MIDCAF_clean_linker_0, # of connection points: 3
#     Node 97, Type 1, BuildingBlock: MIDCAF_clean_linker_0, # of connection points: 3
#     Node 98, Type 1, BuildingBlock: MIDCAF_clean_linker_0, # of connection points: 3
#     Node 99, Type 1, BuildingBlock: MIDCAF_clean_linker_0, # of connection points: 3
#     Node 100, Type 1, BuildingBlock: MIDCAF_clean_linker_0, # of connection points: 3
#     Node 101, Type 1, BuildingBlock: MIDCAF_clean_linker_0, # of connection points: 3
#     Node 102, Type 1, BuildingBlock: MIDCAF_clean_linker_0, # of connection points: 3
#     Node 103, Type 1, BuildingBlock: MIDCAF_clean_linker_0, # of connection points: 3
#     Node 104, Type 1, BuildingBlock: MIDCAF_clean_linker_0, # of connection points: 3
#     Node 105, Type 1, BuildingBlock: MIDCAF_clean_linker_0, # of connection points: 3
#     Node 106, Type 1, BuildingBlock: MIDCAF_clean_linker_0, # of connection points: 3
#     Node 107, Type 1, BuildingBlock: MIDCAF_clean_linker_0, # of connection points: 3
#     Node 108, Type 1, BuildingBlock: MIDCAF_clean_linker_0, # of connection points: 3
#     Node 109, Type 1, BuildingBlock: MIDCAF_clean_linker_0, # of connection points: 3
#     Node 110, Type 1, BuildingBlock: MIDCAF_clean_linker_0, # of connection points: 3
#     Node 111, Type 1, BuildingBlock: MIDCAF_clean_linker_0, # of connection points: 3
#     Node 112, Type 1, BuildingBlock: MIDCAF_clean_linker_0, # of connection points: 3
#     Node 113, Type 1, BuildingBlock: MIDCAF_clean_linker_0, # of connection points: 3
#     Node 114, Type 1, BuildingBlock: MIDCAF_clean_linker_0, # of connection points: 3
#     Node 115, Type 1, BuildingBlock: MIDCAF_clean_linker_0, # of connection points: 3
#     Node 116, Type 1, BuildingBlock: MIDCAF_clean_linker_0, # of connection points: 3
#     Node 117, Type 1, BuildingBlock: MIDCAF_clean_linker_0, # of connection points: 3
#     Node 118, Type 1, BuildingBlock: MIDCAF_clean_linker_0, # of connection points: 3
#     Node 119, Type 1, BuildingBlock: MIDCAF_clean_linker_0, # of connection points: 3
#     Node 120, Type 1, BuildingBlock: MIDCAF_clean_linker_0, # of connection points: 3
#     Node 121, Type 1, BuildingBlock: MIDCAF_clean_linker_0, # of connection points: 3
#     Node 122, Type 1, BuildingBlock: MIDCAF_clean_linker_0, # of connection points: 3
#     Node 123, Type 1, BuildingBlock: MIDCAF_clean_linker_0, # of connection points: 3
#     Node 124, Type 1, BuildingBlock: MIDCAF_clean_linker_0, # of connection points: 3
#     Node 125, Type 1, BuildingBlock: MIDCAF_clean_linker_0, # of connection points: 3
#     Node 126, Type 1, BuildingBlock: MIDCAF_clean_linker_0, # of connection points: 3
#     Node 127, Type 1, BuildingBlock: MIDCAF_clean_linker_0, # of connection points: 3
#     Node 128, Type 1, BuildingBlock: MIDCAF_clean_linker_0, # of connection points: 3
#     Node 129, Type 1, BuildingBlock: MIDCAF_clean_linker_0, # of connection points: 3
#     Node 130, Type 1, BuildingBlock: MIDCAF_clean_linker_0, # of connection points: 3
#     Node 131, Type 1, BuildingBlock: MIDCAF_clean_linker_0, # of connection points: 3
#     Node 132, Type 1, BuildingBlock: MIDCAF_clean_linker_0, # of connection points: 3
#     Node 133, Type 1, BuildingBlock: MIDCAF_clean_linker_0, # of connection points: 3
#     Node 134, Type 1, BuildingBlock: MIDCAF_clean_linker_0, # of connection points: 3
#     Node 135, Type 1, BuildingBlock: MIDCAF_clean_linker_0, # of connection points: 3
#     Node 136, Type 1, BuildingBlock: MIDCAF_clean_linker_0, # of connection points: 3
#     Node 137, Type 1, BuildingBlock: MIDCAF_clean_linker_0, # of connection points: 3
#     Node 138, Type 1, BuildingBlock: MIDCAF_clean_linker_0, # of connection points: 3
#     Node 139, Type 1, BuildingBlock: MIDCAF_clean_linker_0, # of connection points: 3
#     Node 140, Type 1, BuildingBlock: MIDCAF_clean_linker_0, # of connection points: 3
#     Node 141, Type 1, BuildingBlock: MIDCAF_clean_linker_0, # of connection points: 3
#     Node 142, Type 1, BuildingBlock: MIDCAF_clean_linker_0, # of connection points: 3
#     Node 143, Type 1, BuildingBlock: MIDCAF_clean_linker_0, # of connection points: 3
#     Node 144, Type 1, BuildingBlock: MIDCAF_clean_linker_0, # of connection points: 3
#     Node 145, Type 1, BuildingBlock: MIDCAF_clean_linker_0, # of connection points: 3
#     Node 146, Type 1, BuildingBlock: MIDCAF_clean_linker_0, # of connection points: 3
#     Node 147, Type 1, BuildingBlock: MIDCAF_clean_linker_0, # of connection points: 3
#     Node 148, Type 1, BuildingBlock: MIDCAF_clean_linker_0, # of connection points: 3
#     Node 149, Type 1, BuildingBlock: MIDCAF_clean_linker_0, # of connection points: 3
#     Node 150, Type 1, BuildingBlock: MIDCAF_clean_linker_0, # of connection points: 3
#     Node 151, Type 1, BuildingBlock: MIDCAF_clean_linker_0, # of connection points: 3
#     Node 152, Type 1, BuildingBlock: MIDCAF_clean_linker_0, # of connection points: 3
#     Node 153, Type 1, BuildingBlock: MIDCAF_clean_linker_0, # of connection points: 3
#     Node 154, Type 1, BuildingBlock: MIDCAF_clean_linker_0, # of connection points: 3
#     Node 155, Type 1, BuildingBlock: MIDCAF_clean_linker_0, # of connection points: 3
#     Node 156, Type 1, BuildingBlock: MIDCAF_clean_linker_0, # of connection points: 3
#     Node 157, Type 1, BuildingBlock: MIDCAF_clean_linker_0, # of connection points: 3
#     Node 158, Type 1, BuildingBlock: MIDCAF_clean_linker_0, # of connection points: 3
#     Node 159, Type 1, BuildingBlock: MIDCAF_clean_linker_0, # of connection points: 3
#     Node 160, Type 1, BuildingBlock: MIDCAF_clean_linker_0, # of connection points: 3
#     Node 161, Type 1, BuildingBlock: MIDCAF_clean_linker_0, # of connection points: 3
#     Node 162, Type 1, BuildingBlock: MIDCAF_clean_linker_0, # of connection points: 3
#     Node 163, Type 1, BuildingBlock: MIDCAF_clean_linker_0, # of connection points: 3
#     Node 164, Type 1, BuildingBlock: MIDCAF_clean_linker_0, # of connection points: 3
#     Node 165, Type 1, BuildingBlock: MIDCAF_clean_linker_0, # of connection points: 3
#     Node 166, Type 1, BuildingBlock: MIDCAF_clean_linker_0, # of connection points: 3
#     Node 167, Type 1, BuildingBlock: MIDCAF_clean_linker_0, # of connection points: 3
#     Node 168, Type 1, BuildingBlock: MIDCAF_clean_linker_0, # of connection points: 3
#     Node 169, Type 1, BuildingBlock: MIDCAF_clean_linker_0, # of connection points: 3
#     Node 170, Type 1, BuildingBlock: MIDCAF_clean_linker_0, # of connection points: 3
#     Node 171, Type 1, BuildingBlock: MIDCAF_clean_linker_0, # of connection points: 3
#     Node 172, Type 1, BuildingBlock: MIDCAF_clean_linker_0, # of connection points: 3
#     Node 173, Type 1, BuildingBlock: MIDCAF_clean_linker_0, # of connection points: 3
#     Node 174, Type 1, BuildingBlock: MIDCAF_clean_linker_0, # of connection points: 3
#     Node 175, Type 1, BuildingBlock: MIDCAF_clean_linker_0, # of connection points: 3
#     Node 176, Type 1, BuildingBlock: MIDCAF_clean_linker_0, # of connection points: 3
#     Node 177, Type 1, BuildingBlock: MIDCAF_clean_linker_0, # of connection points: 3
#     Node 178, Type 1, BuildingBlock: MIDCAF_clean_linker_0, # of connection points: 3
#     Node 179, Type 1, BuildingBlock: MIDCAF_clean_linker_0, # of connection points: 3
#     Node 180, Type 1, BuildingBlock: MIDCAF_clean_linker_0, # of connection points: 3
#     Node 181, Type 1, BuildingBlock: MIDCAF_clean_linker_0, # of connection points: 3
#     Node 182, Type 1, BuildingBlock: MIDCAF_clean_linker_0, # of connection points: 3
#     Node 183, Type 1, BuildingBlock: MIDCAF_clean_linker_0, # of connection points: 3
#     Node 184, Type 1, BuildingBlock: MIDCAF_clean_linker_0, # of connection points: 3
#     Node 185, Type 1, BuildingBlock: MIDCAF_clean_linker_0, # of connection points: 3
#     Node 186, Type 1, BuildingBlock: MIDCAF_clean_linker_0, # of connection points: 3
#     Node 187, Type 1, BuildingBlock: MIDCAF_clean_linker_0, # of connection points: 3
#     Node 188, Type 1, BuildingBlock: MIDCAF_clean_linker_0, # of connection points: 3
#     Node 189, Type 1, BuildingBlock: MIDCAF_clean_linker_0, # of connection points: 3
#     Node 190, Type 1, BuildingBlock: MIDCAF_clean_linker_0, # of connection points: 3
#     Node 191, Type 1, BuildingBlock: MIDCAF_clean_linker_0, # of connection points: 3
#     Edge 192, Type (0, 1), None
#     Edge 193, Type (0, 1), None
#     Edge 194, Type (0, 1), None
#     Edge 195, Type (0, 1), None
#     Edge 196, Type (0, 1), None
#     Edge 197, Type (0, 1), None
#     Edge 198, Type (0, 1), None
#     Edge 199, Type (0, 1), None
#     Edge 200, Type (0, 1), None
#     Edge 201, Type (0, 1), None
#     Edge 202, Type (0, 1), None
#     Edge 203, Type (0, 1), None
#     Edge 204, Type (0, 1), None
#     Edge 205, Type (0, 1), None
#     Edge 206, Type (0, 1), None
#     Edge 207, Type (0, 1), None
#     Edge 208, Type (0, 1), None
#     Edge 209, Type (0, 1), None
#     Edge 210, Type (0, 1), None
#     Edge 211, Type (0, 1), None
#     Edge 212, Type (0, 1), None
#     Edge 213, Type (0, 1), None
#     Edge 214, Type (0, 1), None
#     Edge 215, Type (0, 1), None
#     Edge 216, Type (0, 1), None
#     Edge 217, Type (0, 1), None
#     Edge 218, Type (0, 1), None
#     Edge 219, Type (0, 1), None
#     Edge 220, Type (0, 1), None
#     Edge 221, Type (0, 1), None
#     Edge 222, Type (0, 1), None
#     Edge 223, Type (0, 1), None
#     Edge 224, Type (0, 1), None
#     Edge 225, Type (0, 1), None
#     Edge 226, Type (0, 1), None
#     Edge 227, Type (0, 1), None
#     Edge 228, Type (0, 1), None
#     Edge 229, Type (0, 1), None
#     Edge 230, Type (0, 1), None
#     Edge 231, Type (0, 1), None
#     Edge 232, Type (0, 1), None
#     Edge 233, Type (0, 1), None
#     Edge 234, Type (0, 1), None
#     Edge 235, Type (0, 1), None
#     Edge 236, Type (0, 1), None
#     Edge 237, Type (0, 1), None
#     Edge 238, Type (0, 1), None
#     Edge 239, Type (0, 1), None
#     Edge 240, Type (0, 1), None
#     Edge 241, Type (0, 1), None
#     Edge 242, Type (0, 1), None
#     Edge 243, Type (0, 1), None
#     Edge 244, Type (0, 1), None
#     Edge 245, Type (0, 1), None
#     Edge 246, Type (0, 1), None
#     Edge 247, Type (0, 1), None
#     Edge 248, Type (0, 1), None
#     Edge 249, Type (0, 1), None
#     Edge 250, Type (0, 1), None
#     Edge 251, Type (0, 1), None
#     Edge 252, Type (0, 1), None
#     Edge 253, Type (0, 1), None
#     Edge 254, Type (0, 1), None
#     Edge 255, Type (0, 1), None
#     Edge 256, Type (0, 1), None
#     Edge 257, Type (0, 1), None
#     Edge 258, Type (0, 1), None
#     Edge 259, Type (0, 1), None
#     Edge 260, Type (0, 1), None
#     Edge 261, Type (0, 1), None
#     Edge 262, Type (0, 1), None
#     Edge 263, Type (0, 1), None
#     Edge 264, Type (0, 1), None
#     Edge 265, Type (0, 1), None
#     Edge 266, Type (0, 1), None
#     Edge 267, Type (0, 1), None
#     Edge 268, Type (0, 1), None
#     Edge 269, Type (0, 1), None
#     Edge 270, Type (0, 1), None
#     Edge 271, Type (0, 1), None
#     Edge 272, Type (0, 1), None
#     Edge 273, Type (0, 1), None
#     Edge 274, Type (0, 1), None
#     Edge 275, Type (0, 1), None
#     Edge 276, Type (0, 1), None
#     Edge 277, Type (0, 1), None
#     Edge 278, Type (0, 1), None
#     Edge 279, Type (0, 1), None
#     Edge 280, Type (0, 1), None
#     Edge 281, Type (0, 1), None
#     Edge 282, Type (0, 1), None
#     Edge 283, Type (0, 1), None
#     Edge 284, Type (0, 1), None
#     Edge 285, Type (0, 1), None
#     Edge 286, Type (0, 1), None
#     Edge 287, Type (0, 1), None
#     Edge 288, Type (0, 1), None
#     Edge 289, Type (0, 1), None
#     Edge 290, Type (0, 1), None
#     Edge 291, Type (0, 1), None
#     Edge 292, Type (0, 1), None
#     Edge 293, Type (0, 1), None
#     Edge 294, Type (0, 1), None
#     Edge 295, Type (0, 1), None
#     Edge 296, Type (0, 1), None
#     Edge 297, Type (0, 1), None
#     Edge 298, Type (0, 1), None
#     Edge 299, Type (0, 1), None
#     Edge 300, Type (0, 1), None
#     Edge 301, Type (0, 1), None
#     Edge 302, Type (0, 1), None
#     Edge 303, Type (0, 1), None
#     Edge 304, Type (0, 1), None
#     Edge 305, Type (0, 1), None
#     Edge 306, Type (0, 1), None
#     Edge 307, Type (0, 1), None
#     Edge 308, Type (0, 1), None
#     Edge 309, Type (0, 1), None
#     Edge 310, Type (0, 1), None
#     Edge 311, Type (0, 1), None
#     Edge 312, Type (0, 1), None
#     Edge 313, Type (0, 1), None
#     Edge 314, Type (0, 1), None
#     Edge 315, Type (0, 1), None
#     Edge 316, Type (0, 1), None
#     Edge 317, Type (0, 1), None
#     Edge 318, Type (0, 1), None
#     Edge 319, Type (0, 1), None
#     Edge 320, Type (0, 1), None
#     Edge 321, Type (0, 1), None
#     Edge 322, Type (0, 1), None
#     Edge 323, Type (0, 1), None
#     Edge 324, Type (0, 1), None
#     Edge 325, Type (0, 1), None
#     Edge 326, Type (0, 1), None
#     Edge 327, Type (0, 1), None
#     Edge 328, Type (0, 1), None
#     Edge 329, Type (0, 1), None
#     Edge 330, Type (0, 1), None
#     Edge 331, Type (0, 1), None
#     Edge 332, Type (0, 1), None
#     Edge 333, Type (0, 1), None
#     Edge 334, Type (0, 1), None
#     Edge 335, Type (0, 1), None
#     Edge 336, Type (0, 1), None
#     Edge 337, Type (0, 1), None
#     Edge 338, Type (0, 1), None
#     Edge 339, Type (0, 1), None
#     Edge 340, Type (0, 1), None
#     Edge 341, Type (0, 1), None
#     Edge 342, Type (0, 1), None
#     Edge 343, Type (0, 1), None
#     Edge 344, Type (0, 1), None
#     Edge 345, Type (0, 1), None
#     Edge 346, Type (0, 1), None
#     Edge 347, Type (0, 1), None
#     Edge 348, Type (0, 1), None
#     Edge 349, Type (0, 1), None
#     Edge 350, Type (0, 1), None
#     Edge 351, Type (0, 1), None
#     Edge 352, Type (0, 1), None
#     Edge 353, Type (0, 1), None
#     Edge 354, Type (0, 1), None
#     Edge 355, Type (0, 1), None
#     Edge 356, Type (0, 1), None
#     Edge 357, Type (0, 1), None
#     Edge 358, Type (0, 1), None
#     Edge 359, Type (0, 1), None
#     Edge 360, Type (0, 1), None
#     Edge 361, Type (0, 1), None
#     Edge 362, Type (0, 1), None
#     Edge 363, Type (0, 1), None
#     Edge 364, Type (0, 1), None
#     Edge 365, Type (0, 1), None
#     Edge 366, Type (0, 1), None
#     Edge 367, Type (0, 1), None
#     Edge 368, Type (0, 1), None
#     Edge 369, Type (0, 1), None
#     Edge 370, Type (0, 1), None
#     Edge 371, Type (0, 1), None
#     Edge 372, Type (0, 1), None
#     Edge 373, Type (0, 1), None
#     Edge 374, Type (0, 1), None
#     Edge 375, Type (0, 1), None
#     Edge 376, Type (0, 1), None
#     Edge 377, Type (0, 1), None
#     Edge 378, Type (0, 1), None
#     Edge 379, Type (0, 1), None
#     Edge 380, Type (0, 1), None
#     Edge 381, Type (0, 1), None
#     Edge 382, Type (0, 1), None
#     Edge 383, Type (0, 1), None
#     Edge 384, Type (0, 1), None
#     Edge 385, Type (0, 1), None
#     Edge 386, Type (0, 1), None
#     Edge 387, Type (0, 1), None
#     Edge 388, Type (0, 1), None
#     Edge 389, Type (0, 1), None
#     Edge 390, Type (0, 1), None
#     Edge 391, Type (0, 1), None
#     Edge 392, Type (0, 1), None
#     Edge 393, Type (0, 1), None
#     Edge 394, Type (0, 1), None
#     Edge 395, Type (0, 1), None
#     Edge 396, Type (0, 1), None
#     Edge 397, Type (0, 1), None
#     Edge 398, Type (0, 1), None
#     Edge 399, Type (0, 1), None
#     Edge 400, Type (0, 1), None
#     Edge 401, Type (0, 1), None
#     Edge 402, Type (0, 1), None
#     Edge 403, Type (0, 1), None
#     Edge 404, Type (0, 1), None
#     Edge 405, Type (0, 1), None
#     Edge 406, Type (0, 1), None
#     Edge 407, Type (0, 1), None
#     Edge 408, Type (0, 1), None
#     Edge 409, Type (0, 1), None
#     Edge 410, Type (0, 1), None
#     Edge 411, Type (0, 1), None
#     Edge 412, Type (0, 1), None
#     Edge 413, Type (0, 1), None
#     Edge 414, Type (0, 1), None
#     Edge 415, Type (0, 1), None
#     Edge 416, Type (0, 1), None
#     Edge 417, Type (0, 1), None
#     Edge 418, Type (0, 1), None
#     Edge 419, Type (0, 1), None
#     Edge 420, Type (0, 1), None
#     Edge 421, Type (0, 1), None
#     Edge 422, Type (0, 1), None
#     Edge 423, Type (0, 1), None
#     Edge 424, Type (0, 1), None
#     Edge 425, Type (0, 1), None
#     Edge 426, Type (0, 1), None
#     Edge 427, Type (0, 1), None
#     Edge 428, Type (0, 1), None
#     Edge 429, Type (0, 1), None
#     Edge 430, Type (0, 1), None
#     Edge 431, Type (0, 1), None
#     Edge 432, Type (0, 1), None
#     Edge 433, Type (0, 1), None
#     Edge 434, Type (0, 1), None
#     Edge 435, Type (0, 1), None
#     Edge 436, Type (0, 1), None
#     Edge 437, Type (0, 1), None
#     Edge 438, Type (0, 1), None
#     Edge 439, Type (0, 1), None
#     Edge 440, Type (0, 1), None
#     Edge 441, Type (0, 1), None
#     Edge 442, Type (0, 1), None
#     Edge 443, Type (0, 1), None
#     Edge 444, Type (0, 1), None
#     Edge 445, Type (0, 1), None
#     Edge 446, Type (0, 1), None
#     Edge 447, Type (0, 1), None
#     Edge 448, Type (0, 1), None
#     Edge 449, Type (0, 1), None
#     Edge 450, Type (0, 1), None
#     Edge 451, Type (0, 1), None
#     Edge 452, Type (0, 1), None
#     Edge 453, Type (0, 1), None
#     Edge 454, Type (0, 1), None
#     Edge 455, Type (0, 1), None
#     Edge 456, Type (0, 1), None
#     Edge 457, Type (0, 1), None
#     Edge 458, Type (0, 1), None
#     Edge 459, Type (0, 1), None
#     Edge 460, Type (0, 1), None
#     Edge 461, Type (0, 1), None
#     Edge 462, Type (0, 1), None
#     Edge 463, Type (0, 1), None
#     Edge 464, Type (0, 1), None
#     Edge 465, Type (0, 1), None
#     Edge 466, Type (0, 1), None
#     Edge 467, Type (0, 1), None
#     Edge 468, Type (0, 1), None
#     Edge 469, Type (0, 1), None
#     Edge 470, Type (0, 1), None
#     Edge 471, Type (0, 1), None
#     Edge 472, Type (0, 1), None
#     Edge 473, Type (0, 1), None
#     Edge 474, Type (0, 1), None
#     Edge 475, Type (0, 1), None
#     Edge 476, Type (0, 1), None
#     Edge 477, Type (0, 1), None
#     Edge 478, Type (0, 1), None
#     Edge 479, Type (0, 1), None
# Relax obj value: 0.043
# Max RMSD: 0.090
# Mean RMSD: 0.068
data_MOF--net-ana-f--node1-OLANEW_clean_sbu_2--node2-MIDCAF_clean_linker_0--edge1-none
_symmetry_space_group_name_H-M    P1
_symmetry_Int_Tables_number       1
_symmetry_cell_setting            triclinic
loop_
_symmetry_equiv_pos_as_xyz
'x, y, z'
_cell_length_a     100.36349
_cell_length_b     100.48345
_cell_length_c     100.48344
_cell_angle_alpha  90.000001
_cell_angle_beta   89.999999
_cell_angle_gamma 89.999999
loop_
_atom_site_label
_atom_site_type_symbol
_atom_site_fract_x
_atom_site_fract_y
_atom_site_fract_z
_atom_type_partial_charge
O0 O 0.04136 0.19586 0.40915 0.0
Cd1 Cd 0.02393 0.19189 0.42559 0.0
O2 O 0.04851 0.17577 0.41356 0.0
Cd3 Cd 0.06214 0.15887 0.41221 0.0
O4 O 0.08025 0.14755 0.41599 0.0
C5 C 0.08046 0.13871 0.42503 0.0
O6 O 0.06941 0.13594 0.43146 0.0
C7 C 0.04988 0.1867 0.40731 0.0
C8 C 0.0016 0.18007 0.41428 0.0
O9 O 0.0029 0.19276 0.41469 0.0
O10 O 0.01091 0.17291 0.41926 0.0
O11 O 0.05366 0.79099 0.65936 0.0
Cd12 Cd 0.05762 0.77345 0.67567 0.0
O13 O 0.07375 0.79813 0.66388 0.0
Cd14 Cd 0.09066 0.81177 0.66262 0.0
O15 O 0.10204 0.82983 0.6664 0.0
C16 C 0.11094 0.83001 0.67538 0.0
O17 O 0.11374 0.81894 0.68176 0.0
C18 C 0.06282 0.79952 0.6576 0.0
C19 C 0.06944 0.75125 0.66413 0.0
O20 O 0.05674 0.75255 0.66456 0.0
O21 O 0.07662 0.7605 0.66921 0.0
O22 O 0.4584 0.80372 0.90927 0.0
Cd23 Cd 0.47584 0.80772 0.9257 0.0
O24 O 0.45121 0.82378 0.91371 0.0
Cd25 Cd 0.43753 0.84065 0.9124 0.0
O26 O 0.4194 0.85192 0.91623 0.0
C27 C 0.41919 0.86076 0.92526 0.0
O28 O 0.43025 0.86356 0.93166 0.0
C29 C 0.44985 0.81285 0.90745 0.0
C30 C 0.49822 0.81943 0.91438 0.0
O31 O 0.49688 0.80675 0.91483 0.0
O32 O 0.48892 0.82663 0.91933 0.0
O33 O 0.44634 0.20848 0.15948 0.0
Cd34 Cd 0.44237 0.22606 0.17574 0.0
O35 O 0.42628 0.20129 0.16406 0.0
Cd36 Cd 0.4094 0.18762 0.16287 0.0
O37 O 0.39803 0.16956 0.16664 0.0
C38 C 0.38914 0.16936 0.17563 0.0
O39 O 0.38636 0.18041 0.18205 0.0
C40 C 0.4372 0.19992 0.15776 0.0
C41 C 0.43056 0.24822 0.16414 0.0
O42 O 0.44326 0.24693 0.16459 0.0
O43 O 0.42338 0.23899 0.16923 0.0
O44 O 0.04136 0.8031 0.08981 0.0
Cd45 Cd 0.02393 0.80708 0.07337 0.0
O46 O 0.04851 0.82319 0.0854 0.0
Cd47 Cd 0.06214 0.8401 0.08675 0.0
O48 O 0.08025 0.85141 0.08297 0.0
C49 C 0.08046 0.86025 0.07393 0.0
O50 O 0.06941 0.86302 0.06751 0.0
C51 C 0.04988 0.81226 0.09165 0.0
C52 C 0.0016 0.81889 0.08468 0.0
O53 O 0.0029 0.8062 0.08427 0.0
O54 O 0.01091 0.82605 0.0797 0.0
O55 O 0.44634 0.79048 0.33948 0.0
Cd56 Cd 0.44237 0.7729 0.32322 0.0
O57 O 0.42629 0.79767 0.3349 0.0
Cd58 Cd 0.4094 0.81134 0.3361 0.0
O59 O 0.39803 0.8294 0.33233 0.0
C60 C 0.38914 0.8296 0.32333 0.0
O61 O 0.38636 0.81855 0.31691 0.0
C62 C 0.4372 0.79904 0.3412 0.0
C63 C 0.43056 0.75074 0.33482 0.0
O64 O 0.44326 0.75203 0.33437 0.0
O65 O 0.42338 0.75998 0.32973 0.0
O66 O 0.4584 0.19524 0.58969 0.0
Cd67 Cd 0.47584 0.19124 0.57326 0.0
O68 O 0.45121 0.17518 0.58525 0.0
Cd69 Cd 0.43753 0.15831 0.58656 0.0
O70 O 0.4194 0.14704 0.58274 0.0
C71 C 0.41919 0.13821 0.5737 0.0
O72 O 0.43025 0.1354 0.5673 0.0
C73 C 0.44985 0.18611 0.59151 0.0
C74 C 0.49822 0.17953 0.58458 0.0
O75 O 0.49688 0.19221 0.58414 0.0
O76 O 0.48892 0.17233 0.57963 0.0
O77 O 0.05366 0.20797 0.8396 0.0
Cd78 Cd 0.05762 0.22551 0.82329 0.0
O79 O 0.07375 0.20083 0.83508 0.0
Cd80 Cd 0.09066 0.18719 0.83634 0.0
O81 O 0.10204 0.16913 0.83256 0.0
C82 C 0.11094 0.16895 0.82358 0.0
O83 O 0.11374 0.18002 0.8172 0.0
C84 C 0.06282 0.19944 0.84136 0.0
C85 C 0.06943 0.24771 0.83483 0.0
O86 O 0.05674 0.24641 0.8344 0.0
O87 O 0.07661 0.23846 0.82975 0.0
O88 O 0.40855 0.04124 0.19545 0.0
Cd89 Cd 0.42487 0.02368 0.19154 0.0
O90 O 0.41335 0.04856 0.17552 0.0
Cd91 Cd 0.4124 0.06236 0.15874 0.0
O92 O 0.41641 0.0805 0.14758 0.0
C93 C 0.42545 0.0807 0.13875 0.0
O94 O 0.43179 0.06962 0.13588 0.0
C95 C 0.40695 0.04987 0.18637 0.0
C96 C 0.41342 0.00136 0.17987 0.0
O97 O 0.41382 0.00274 0.19254 0.0
O98 O 0.41846 0.0106 0.17265 0.0
O99 O 0.2084 0.15927 0.44524 0.0
Cd100 Cd 0.22584 0.1757 0.44124 0.0
O101 O 0.20121 0.16371 0.42518 0.0
Cd102 Cd 0.18753 0.1624 0.40831 0.0
O103 O 0.1694 0.16623 0.39704 0.0
C104 C 0.16919 0.17526 0.38821 0.0
O105 O 0.18025 0.18166 0.3854 0.0
C106 C 0.19985 0.15745 0.43611 0.0
C107 C 0.24822 0.16438 0.42953 0.0
O108 O 0.24688 0.16483 0.44221 0.0
O109 O 0.23892 0.16933 0.42233 0.0
O110 O 0.09121 0.95798 0.69569 0.0
Cd111 Cd 0.07487 0.97554 0.69184 0.0
O112 O 0.08643 0.95074 0.67572 0.0
Cd113 Cd 0.08741 0.93701 0.65888 0.0
O114 O 0.08345 0.91892 0.64763 0.0
C115 C 0.07439 0.91873 0.63881 0.0
O116 O 0.06801 0.92981 0.636 0.0
C117 C 0.09283 0.94939 0.68658 0.0
C118 C 0.08631 0.99781 0.68008 0.0
O119 O 0.08595 0.99646 0.69276 0.0
O120 O 0.08122 0.98858 0.6729 0.0
O121 O 0.29136 0.83981 0.94586 0.0
Cd122 Cd 0.27393 0.82337 0.94188 0.0
O123 O 0.29851 0.8354 0.92577 0.0
Cd124 Cd 0.31214 0.83675 0.90887 0.0
O125 O 0.33025 0.83297 0.89755 0.0
C126 C 0.33046 0.82393 0.88871 0.0
O127 O 0.31941 0.81751 0.88594 0.0
C128 C 0.29988 0.84165 0.9367 0.0
C129 C 0.2516 0.83468 0.93007 0.0
O130 O 0.2529 0.83427 0.94276 0.0
O131 O 0.26091 0.8297 0.92291 0.0
O132 O 0.40855 0.95772 0.30351 0.0
Cd133 Cd 0.42487 0.97528 0.30742 0.0
O134 O 0.41335 0.95041 0.32345 0.0
Cd135 Cd 0.4124 0.9366 0.34022 0.0
O136 O 0.41641 0.91846 0.35138 0.0
C137 C 0.42546 0.91826 0.36022 0.0
O138 O 0.43179 0.92934 0.36308 0.0
C139 C 0.40695 0.94909 0.31259 0.0
C140 C 0.41342 0.9976 0.31909 0.0
O141 O 0.41382 0.99622 0.30642 0.0
O142 O 0.41846 0.98837 0.32631 0.0
O143 O 0.29136 0.15915 0.5531 0.0
Cd144 Cd 0.27393 0.17559 0.55708 0.0
O145 O 0.29851 0.16356 0.57319 0.0
Cd146 Cd 0.31214 0.16221 0.5901 0.0
O147 O 0.33025 0.16599 0.60141 0.0
C148 C 0.33046 0.17503 0.61025 0.0
O149 O 0.31941 0.18146 0.61302 0.0
C150 C 0.29988 0.15731 0.56226 0.0
C151 C 0.2516 0.16428 0.56889 0.0
O152 O 0.2529 0.16469 0.5562 0.0
O153 O 0.26091 0.16926 0.57605 0.0
O154 O 0.09121 0.04098 0.80327 0.0
Cd155 Cd 0.07487 0.02342 0.80712 0.0
O156 O 0.08643 0.04822 0.82324 0.0
Cd157 Cd 0.08741 0.06195 0.84008 0.0
O158 O 0.08345 0.08004 0.85133 0.0
C159 C 0.07439 0.08023 0.86015 0.0
O160 O 0.06801 0.06915 0.86296 0.0
C161 C 0.09283 0.04957 0.81238 0.0
C162 C 0.08631 0.00115 0.81888 0.0
O163 O 0.08595 0.0025 0.8062 0.0
O164 O 0.08122 0.01038 0.82606 0.0
O165 O 0.2084 0.83969 0.05372 0.0
Cd166 Cd 0.22584 0.82326 0.05772 0.0
O167 O 0.20121 0.83525 0.07378 0.0
Cd168 Cd 0.18753 0.83656 0.09065 0.0
O169 O 0.1694 0.83274 0.10192 0.0
C170 C 0.16919 0.8237 0.11076 0.0
O171 O 0.18025 0.8173 0.11356 0.0
C172 C 0.19985 0.84151 0.06285 0.0
C173 C 0.24822 0.83458 0.06943 0.0
O174 O 0.24688 0.83414 0.05675 0.0
O175 O 0.23892 0.82963 0.07663 0.0
O176 O 0.19634 0.40948 0.04048 0.0
Cd177 Cd 0.19237 0.42574 0.0229 0.0
O178 O 0.17629 0.41406 0.04767 0.0
Cd179 Cd 0.1594 0.41287 0.06134 0.0
O180 O 0.14803 0.41664 0.0794 0.0
C181 C 0.13914 0.42563 0.0796 0.0
O182 O 0.13636 0.43205 0.06855 0.0
C183 C 0.1872 0.40776 0.04904 0.0
C184 C 0.18056 0.41414 0.00074 0.0
O185 O 0.19326 0.41459 0.00203 0.0
O186 O 0.17338 0.41923 0.00997 0.0
O187 O 0.69634 0.08948 0.95849 0.0
Cd188 Cd 0.69237 0.07322 0.97606 0.0
O189 O 0.67629 0.0849 0.95129 0.0
Cd190 Cd 0.6594 0.08609 0.93762 0.0
O191 O 0.64803 0.08232 0.91956 0.0
C192 C 0.63914 0.07333 0.91936 0.0
O193 O 0.63636 0.06691 0.93041 0.0
C194 C 0.6872 0.0912 0.94993 0.0
C195 C 0.68056 0.08482 0.99822 0.0
O196 O 0.69326 0.08437 0.99693 0.0
O197 O 0.67338 0.07973 0.98899 0.0
O198 O 0.15855 0.44545 0.20772 0.0
Cd199 Cd 0.17487 0.44154 0.22528 0.0
O200 O 0.16335 0.42552 0.20041 0.0
Cd201 Cd 0.1624 0.40874 0.1866 0.0
O202 O 0.16641 0.39758 0.16846 0.0
C203 C 0.17546 0.38875 0.16826 0.0
O204 O 0.18179 0.38588 0.17934 0.0
C205 C 0.15695 0.43637 0.19909 0.0
C206 C 0.16342 0.42987 0.2476 0.0
O207 O 0.16382 0.44254 0.24622 0.0
O208 O 0.16846 0.42265 0.23837 0.0
O209 O 0.80366 0.90936 0.45797 0.0
Cd210 Cd 0.80762 0.92567 0.47551 0.0
O211 O 0.82375 0.91388 0.45083 0.0
Cd212 Cd 0.84066 0.91262 0.43719 0.0
O213 O 0.85204 0.9164 0.41913 0.0
C214 C 0.86094 0.92538 0.41895 0.0
O215 O 0.86374 0.93176 0.43002 0.0
C216 C 0.81282 0.9076 0.44944 0.0
C217 C 0.81944 0.91413 0.49771 0.0
O218 O 0.80674 0.91456 0.49641 0.0
O219 O 0.82662 0.91921 0.48846 0.0
O220 O 0.84121 0.05327 0.20798 0.0
Cd221 Cd 0.82487 0.05712 0.22554 0.0
O222 O 0.83643 0.07324 0.20074 0.0
Cd223 Cd 0.83741 0.09008 0.18701 0.0
O224 O 0.83345 0.10133 0.16892 0.0
C225 C 0.82439 0.11015 0.16873 0.0
O226 O 0.81801 0.11296 0.17981 0.0
C227 C 0.84283 0.06238 0.19939 0.0
C228 C 0.83631 0.06888 0.24781 0.0
O229 O 0.83595 0.0562 0.24646 0.0
O230 O 0.83122 0.07606 0.23858 0.0
O231 O 0.30366 0.5896 0.54099 0.0
Cd232 Cd 0.30762 0.57329 0.52345 0.0
O233 O 0.32375 0.58508 0.54813 0.0
Cd234 Cd 0.34066 0.58634 0.56177 0.0
O235 O 0.35204 0.58256 0.57983 0.0
C236 C 0.36094 0.57358 0.58001 0.0
O237 O 0.36374 0.5672 0.56894 0.0
C238 C 0.31282 0.59136 0.54952 0.0
C239 C 0.31944 0.58483 0.50125 0.0
O240 O 0.30674 0.5844 0.50255 0.0
O241 O 0.32662 0.57975 0.5105 0.0
O242 O 0.15855 0.55351 0.29124 0.0
Cd243 Cd 0.17487 0.55742 0.27368 0.0
O244 O 0.16335 0.57345 0.29856 0.0
Cd245 Cd 0.1624 0.59022 0.31236 0.0
O246 O 0.16641 0.60138 0.3305 0.0
C247 C 0.17546 0.61021 0.3307 0.0
O248 O 0.18179 0.61308 0.31962 0.0
C249 C 0.15695 0.56259 0.29987 0.0
C250 C 0.16342 0.56909 0.25136 0.0
O251 O 0.16382 0.55642 0.25274 0.0
O252 O 0.16846 0.57631 0.2606 0.0
O253 O 0.34121 0.44569 0.79098 0.0
Cd254 Cd 0.32487 0.44184 0.77342 0.0
O255 O 0.33643 0.42572 0.79822 0.0
Cd256 Cd 0.33741 0.40888 0.81195 0.0
O257 O 0.33345 0.39763 0.83004 0.0
C258 C 0.32439 0.38881 0.83023 0.0
O259 O 0.31801 0.386 0.81915 0.0
C260 C 0.34283 0.43658 0.79957 0.0
C261 C 0.33631 0.43008 0.75115 0.0
O262 O 0.33595 0.44276 0.7525 0.0
O263 O 0.33122 0.4229 0.76038 0.0
O264 O 0.94942 0.84097 0.5833 0.0
Cd265 Cd 0.96337 0.85231 0.56698 0.0
O266 O 0.9378 0.85869 0.58892 0.0
Cd267 Cd 0.94312 0.87135 0.5721 0.0
O268 O 0.92534 0.88029 0.56328 0.0
C269 C 0.91684 0.88354 0.57208 0.0
O270 O 0.92025 0.88254 0.58467 0.0
C271 C 0.94082 0.84654 0.59072 0.0
C272 C 0.98877 0.85432 0.57802 0.0
O273 O 0.98048 0.86398 0.57881 0.0
O274 O 0.98521 0.84387 0.57164 0.0
O275 O 0.90813 0.19875 0.3343 0.0
Cd276 Cd 0.89683 0.21259 0.31786 0.0
O277 O 0.89042 0.1871 0.33993 0.0
Cd278 Cd 0.8778 0.19232 0.32304 0.0
O279 O 0.869 0.17453 0.3141 0.0
C280 C 0.86575 0.16599 0.32286 0.0
O281 O 0.86667 0.16935 0.33546 0.0
C282 C 0.90256 0.19017 0.34174 0.0
C283 C 0.89492 0.23807 0.32865 0.0
O284 O 0.88521 0.22983 0.32952 0.0
O285 O 0.90537 0.23441 0.32232 0.0
O286 O 0.5506 0.15838 0.08347 0.0
Cd287 Cd 0.53664 0.14703 0.06715 0.0
O288 O 0.56217 0.14065 0.08916 0.0
Cd289 Cd 0.55686 0.12796 0.07236 0.0
O290 O 0.57464 0.11898 0.06358 0.0
C291 C 0.58312 0.11573 0.0724 0.0
O292 O 0.57969 0.11677 0.08498 0.0
C293 C 0.55918 0.1528 0.09091 0.0
C294 C 0.51124 0.14506 0.07818 0.0
O295 O 0.51952 0.13539 0.07898 0.0
O296 O 0.51482 0.15551 0.0718 0.0
O297 O 0.5916 0.80065 0.83421 0.0
Cd298 Cd 0.60286 0.78686 0.8177 0.0
O299 O 0.60948 0.81185 0.8402 0.0
Cd300 Cd 0.62204 0.80669 0.82326 0.0
O301 O 0.63083 0.82445 0.81426 0.0
C302 C 0.63411 0.83301 0.82299 0.0
O303 O 0.6332 0.82967 0.8356 0.0
C304 C 0.59726 0.80899 0.84185 0.0
C305 C 0.60477 0.76135 0.82841 0.0
O306 O 0.61449 0.76958 0.82928 0.0
O307 O 0.59431 0.76504 0.8221 0.0
O308 O 0.94942 0.15799 0.91566 0.0
Cd309 Cd 0.96337 0.14665 0.93198 0.0
O310 O 0.9378 0.14027 0.91004 0.0
Cd311 Cd 0.94312 0.12761 0.92686 0.0
O312 O 0.92534 0.11867 0.93568 0.0
C313 C 0.91684 0.11542 0.92688 0.0
O314 O 0.92025 0.11642 0.91429 0.0
C315 C 0.94082 0.15242 0.90824 0.0
C316 C 0.98877 0.14464 0.92095 0.0
O317 O 0.98048 0.13498 0.92015 0.0
O318 O 0.98521 0.15509 0.92732 0.0
O319 O 0.5916 0.19831 0.66476 0.0
Cd320 Cd 0.60286 0.2121 0.68126 0.0
O321 O 0.60948 0.18711 0.65876 0.0
Cd322 Cd 0.62204 0.19227 0.67571 0.0
O323 O 0.63083 0.17452 0.6847 0.0
C324 C 0.63411 0.16596 0.67597 0.0
O325 O 0.6332 0.16929 0.66336 0.0
C326 C 0.59726 0.18997 0.65711 0.0
C327 C 0.60477 0.23761 0.67055 0.0
O328 O 0.61449 0.22938 0.66968 0.0
O329 O 0.59431 0.23393 0.67686 0.0
O330 O 0.5506 0.84059 0.41549 0.0
Cd331 Cd 0.53665 0.85193 0.43181 0.0
O332 O 0.56217 0.85831 0.40981 0.0
Cd333 Cd 0.55686 0.871 0.42661 0.0
O334 O 0.57464 0.87999 0.43538 0.0
C335 C 0.58312 0.88323 0.42656 0.0
O336 O 0.57969 0.88219 0.41398 0.0
C337 C 0.55918 0.84616 0.40805 0.0
C338 C 0.51124 0.8539 0.42078 0.0
O339 O 0.51952 0.86357 0.41998 0.0
O340 O 0.51482 0.84345 0.42716 0.0
O341 O 0.90813 0.80021 0.16466 0.0
Cd342 Cd 0.89683 0.78637 0.1811 0.0
O343 O 0.89042 0.81186 0.15903 0.0
Cd344 Cd 0.8778 0.80665 0.17592 0.0
O345 O 0.869 0.82443 0.18486 0.0
C346 C 0.86575 0.83297 0.1761 0.0
O347 O 0.86667 0.82961 0.1635 0.0
C348 C 0.90256 0.80879 0.15722 0.0
C349 C 0.89492 0.76089 0.17031 0.0
O350 O 0.88521 0.76913 0.16944 0.0
O351 O 0.90537 0.76455 0.17664 0.0
O352 O 0.58367 0.94875 0.8415 0.0
Cd353 Cd 0.56732 0.96254 0.85299 0.0
O354 O 0.58989 0.93755 0.85928 0.0
Cd355 Cd 0.57311 0.94271 0.87208 0.0
O356 O 0.56433 0.92496 0.8811 0.0
C357 C 0.57316 0.91646 0.88429 0.0
O358 O 0.58576 0.91986 0.88318 0.0
C359 C 0.59138 0.9404 0.84706 0.0
C360 C 0.57819 0.98799 0.855 0.0
O361 O 0.57911 0.97968 0.86463 0.0
O362 O 0.57175 0.98441 0.84458 0.0
O363 O 0.8006 0.83347 0.59059 0.0
Cd364 Cd 0.78665 0.81715 0.60193 0.0
O365 O 0.81217 0.83916 0.60831 0.0
Cd366 Cd 0.80686 0.82236 0.621 0.0
O367 O 0.82464 0.81358 0.62999 0.0
C368 C 0.83312 0.8224 0.63323 0.0
O369 O 0.82969 0.83498 0.63219 0.0
C370 C 0.80918 0.84091 0.59616 0.0
C371 C 0.76124 0.82818 0.6039 0.0
O372 O 0.76952 0.82898 0.61357 0.0
O373 O 0.76482 0.8218 0.59345 0.0
O374 O 0.91634 0.05016 0.3414 0.0
Cd375 Cd 0.93271 0.03633 0.35282 0.0
O376 O 0.91044 0.06164 0.35911 0.0
Cd377 Cd 0.92724 0.05645 0.37187 0.0
O378 O 0.93597 0.07424 0.38088 0.0
C379 C 0.92712 0.08269 0.38411 0.0
O380 O 0.91453 0.07924 0.38304 0.0
C381 C 0.90878 0.05866 0.34694 0.0
C382 C 0.92183 0.01088 0.35476 0.0
O383 O 0.92093 0.01916 0.36442 0.0
O384 O 0.92825 0.01449 0.34434 0.0
O385 O 0.69942 0.16566 0.09097 0.0
Cd386 Cd 0.71337 0.18198 0.10231 0.0
O387 O 0.6878 0.16004 0.10869 0.0
Cd388 Cd 0.69312 0.17686 0.12135 0.0
O389 O 0.67534 0.18568 0.13029 0.0
C390 C 0.66684 0.17688 0.13354 0.0
O391 O 0.67025 0.16429 0.13254 0.0
C392 C 0.69082 0.15824 0.09654 0.0
C393 C 0.73877 0.17094 0.10432 0.0
O394 O 0.73048 0.17015 0.11398 0.0
O395 O 0.73521 0.17732 0.09387 0.0
O396 O 0.58367 0.05021 0.65746 0.0
Cd397 Cd 0.56732 0.03642 0.64597 0.0
O398 O 0.58989 0.06141 0.63968 0.0
Cd399 Cd 0.57311 0.05625 0.62688 0.0
O400 O 0.56433 0.074 0.61786 0.0
C401 C 0.57316 0.0825 0.61467 0.0
O402 O 0.58576 0.07911 0.61578 0.0
C403 C 0.59138 0.05856 0.6519 0.0
C404 C 0.57819 0.01097 0.64396 0.0
O405 O 0.57911 0.01928 0.63433 0.0
O406 O 0.57175 0.01455 0.65438 0.0
O407 O 0.69942 0.8333 0.40799 0.0
Cd408 Cd 0.71337 0.81698 0.39665 0.0
O409 O 0.6878 0.83892 0.39027 0.0
Cd410 Cd 0.69312 0.8221 0.37761 0.0
O411 O 0.67534 0.81328 0.36867 0.0
C412 C 0.66684 0.82208 0.36542 0.0
O413 O 0.67025 0.83467 0.36642 0.0
C414 C 0.69082 0.84072 0.40242 0.0
C415 C 0.73877 0.82802 0.39464 0.0
O416 O 0.73048 0.82881 0.38498 0.0
O417 O 0.73521 0.82164 0.40509 0.0
O418 O 0.91634 0.9488 0.15756 0.0
Cd419 Cd 0.93271 0.96263 0.14614 0.0
O420 O 0.91044 0.93732 0.13985 0.0
Cd421 Cd 0.92724 0.94251 0.12709 0.0
O422 O 0.93597 0.92472 0.11809 0.0
C423 C 0.92712 0.91627 0.11486 0.0
O424 O 0.91453 0.91972 0.11592 0.0
C425 C 0.90878 0.94031 0.15202 0.0
C426 C 0.92183 0.98808 0.1442 0.0
O427 O 0.92093 0.97981 0.13454 0.0
O428 O 0.92825 0.98447 0.15462 0.0
O429 O 0.8006 0.16549 0.90838 0.0
Cd430 Cd 0.78665 0.18181 0.89703 0.0
O431 O 0.81217 0.1598 0.89065 0.0
Cd432 Cd 0.80686 0.1766 0.87796 0.0
O433 O 0.82464 0.18538 0.86897 0.0
C434 C 0.83312 0.17656 0.86573 0.0
O435 O 0.82969 0.16398 0.86677 0.0
C436 C 0.80918 0.15805 0.9028 0.0
C437 C 0.76124 0.17078 0.89506 0.0
O438 O 0.76952 0.16998 0.88539 0.0
O439 O 0.76482 0.17716 0.90551 0.0
O440 O 0.8416 0.58421 0.94831 0.0
Cd441 Cd 0.85286 0.5677 0.9621 0.0
O442 O 0.85948 0.5902 0.93711 0.0
Cd443 Cd 0.87204 0.57326 0.94227 0.0
O444 O 0.88084 0.56426 0.92452 0.0
C445 C 0.88411 0.57299 0.91596 0.0
O446 O 0.8832 0.5856 0.91929 0.0
C447 C 0.84726 0.59185 0.93997 0.0
C448 C 0.85477 0.57841 0.98761 0.0
O449 O 0.86449 0.57928 0.97938 0.0
O450 O 0.84431 0.5721 0.98393 0.0
O451 O 0.3416 0.91476 0.05065 0.0
Cd452 Cd 0.35286 0.93126 0.03686 0.0
O453 O 0.35948 0.90876 0.06185 0.0
Cd454 Cd 0.37204 0.92571 0.05669 0.0
O455 O 0.38083 0.9347 0.07445 0.0
C456 C 0.38411 0.92597 0.08301 0.0
O457 O 0.3832 0.91336 0.07967 0.0
C458 C 0.34726 0.90711 0.05899 0.0
C459 C 0.35477 0.92055 0.01135 0.0
O460 O 0.36449 0.91968 0.01958 0.0
O461 O 0.34431 0.92686 0.01504 0.0
O462 O 0.83367 0.5915 0.80021 0.0
Cd463 Cd 0.81732 0.60299 0.78642 0.0
O464 O 0.83989 0.60928 0.81141 0.0
Cd465 Cd 0.82311 0.62208 0.80625 0.0
O466 O 0.81433 0.6311 0.824 0.0
C467 C 0.82316 0.63429 0.8325 0.0
O468 O 0.83576 0.63318 0.82911 0.0
C469 C 0.84138 0.59706 0.80856 0.0
C470 C 0.82819 0.605 0.76097 0.0
O471 O 0.82911 0.61463 0.76928 0.0
O472 O 0.82175 0.59458 0.76455 0.0
O473 O 0.15813 0.0843 0.55021 0.0
Cd474 Cd 0.14683 0.06786 0.53637 0.0
O475 O 0.14042 0.08993 0.56186 0.0
Cd476 Cd 0.1278 0.07304 0.55665 0.0
O477 O 0.119 0.0641 0.57443 0.0
C478 C 0.11575 0.07286 0.58297 0.0
O479 O 0.11667 0.08546 0.57961 0.0
C480 C 0.15256 0.09174 0.55879 0.0
C481 C 0.14492 0.07865 0.51089 0.0
O482 O 0.13521 0.07952 0.51913 0.0
O483 O 0.15537 0.07232 0.51455 0.0
O484 O 0.16634 0.90756 0.80016 0.0
Cd485 Cd 0.18271 0.89614 0.78633 0.0
O486 O 0.16044 0.88985 0.81164 0.0
Cd487 Cd 0.17724 0.87709 0.80645 0.0
O488 O 0.18597 0.86809 0.82424 0.0
C489 C 0.17712 0.86486 0.83269 0.0
O490 O 0.16453 0.86592 0.82924 0.0
C491 C 0.15878 0.90202 0.80866 0.0
C492 C 0.17183 0.8942 0.76088 0.0
O493 O 0.17093 0.88454 0.76916 0.0
O494 O 0.17825 0.90462 0.76449 0.0
O495 O 0.65813 0.41466 0.44875 0.0
Cd496 Cd 0.64683 0.4311 0.46259 0.0
O497 O 0.64042 0.40903 0.4371 0.0
Cd498 Cd 0.6278 0.42592 0.44232 0.0
O499 O 0.619 0.43486 0.42453 0.0
C500 C 0.61575 0.4261 0.41599 0.0
O501 O 0.61667 0.4135 0.41935 0.0
C502 C 0.65256 0.40722 0.44017 0.0
C503 C 0.64492 0.42031 0.48807 0.0
O504 O 0.63521 0.41944 0.47983 0.0
O505 O 0.65537 0.42664 0.48441 0.0
O506 O 0.83367 0.40746 0.69875 0.0
Cd507 Cd 0.81732 0.39597 0.71254 0.0
O508 O 0.83989 0.38968 0.68755 0.0
Cd509 Cd 0.82311 0.37688 0.69271 0.0
O510 O 0.81433 0.36786 0.67496 0.0
C511 C 0.82316 0.36467 0.66646 0.0
O512 O 0.83576 0.36578 0.66986 0.0
C513 C 0.84138 0.4019 0.6904 0.0
C514 C 0.82819 0.39396 0.73799 0.0
O515 O 0.82911 0.38433 0.72968 0.0
O516 O 0.82175 0.40438 0.73441 0.0
O517 O 0.66634 0.5914 0.1988 0.0
Cd518 Cd 0.68271 0.60282 0.21263 0.0
O519 O 0.66044 0.60911 0.18732 0.0
Cd520 Cd 0.67724 0.62187 0.19251 0.0
O521 O 0.68597 0.63088 0.17472 0.0
C522 C 0.67712 0.6341 0.16627 0.0
O523 O 0.66453 0.63304 0.16972 0.0
C524 C 0.65878 0.59694 0.19031 0.0
C525 C 0.67183 0.60476 0.23808 0.0
O526 O 0.67093 0.61442 0.2298 0.0
O527 O 0.67825 0.59434 0.23447 0.0
O528 O 0.54136 0.69586 0.90915 0.0
Cd529 Cd 0.52393 0.69188 0.92559 0.0
O530 O 0.54851 0.67577 0.91356 0.0
Cd531 Cd 0.56214 0.65887 0.91221 0.0
O532 O 0.58025 0.64755 0.91599 0.0
C533 C 0.58046 0.63871 0.92503 0.0
O534 O 0.56941 0.63594 0.93146 0.0
C535 C 0.54988 0.6867 0.90731 0.0
C536 C 0.5016 0.68007 0.91428 0.0
O537 O 0.5029 0.69276 0.91469 0.0
O538 O 0.51091 0.67291 0.91926 0.0
O539 O 0.55366 0.29099 0.15936 0.0
Cd540 Cd 0.55762 0.27345 0.17567 0.0
O541 O 0.57375 0.29813 0.16388 0.0
Cd542 Cd 0.59066 0.31177 0.16262 0.0
O543 O 0.60204 0.32983 0.1664 0.0
C544 C 0.61094 0.33001 0.17538 0.0
O545 O 0.61374 0.31894 0.18176 0.0
C546 C 0.56282 0.29952 0.1576 0.0
C547 C 0.56943 0.25125 0.16413 0.0
O548 O 0.55674 0.25255 0.16456 0.0
O549 O 0.57661 0.2605 0.16921 0.0
O550 O 0.9584 0.30372 0.40927 0.0
Cd551 Cd 0.97584 0.30772 0.4257 0.0
O552 O 0.95121 0.32378 0.41371 0.0
Cd553 Cd 0.93753 0.34065 0.4124 0.0
O554 O 0.9194 0.35192 0.41623 0.0
C555 C 0.91919 0.36076 0.42526 0.0
O556 O 0.93025 0.36356 0.43166 0.0
C557 C 0.94985 0.31285 0.40745 0.0
C558 C 0.99822 0.31943 0.41438 0.0
O559 O 0.99688 0.30675 0.41483 0.0
O560 O 0.98892 0.32663 0.41933 0.0
O561 O 0.94634 0.70848 0.65948 0.0
Cd562 Cd 0.94237 0.72606 0.67574 0.0
O563 O 0.92629 0.70129 0.66406 0.0
Cd564 Cd 0.9094 0.68762 0.66287 0.0
O565 O 0.89803 0.66956 0.66664 0.0
C566 C 0.88914 0.66936 0.67563 0.0
O567 O 0.88636 0.68041 0.68205 0.0
C568 C 0.9372 0.69992 0.65776 0.0
C569 C 0.93056 0.74822 0.66414 0.0
O570 O 0.94326 0.74693 0.66459 0.0
O571 O 0.92338 0.73899 0.66924 0.0
O572 O 0.54136 0.3031 0.58981 0.0
Cd573 Cd 0.52393 0.30708 0.57337 0.0
O574 O 0.54851 0.32319 0.5854 0.0
Cd575 Cd 0.56214 0.3401 0.58675 0.0
O576 O 0.58025 0.35141 0.58297 0.0
C577 C 0.58046 0.36025 0.57393 0.0
O578 O 0.56941 0.36302 0.56751 0.0
C579 C 0.54988 0.31226 0.59165 0.0
C580 C 0.5016 0.31889 0.58468 0.0
O581 O 0.5029 0.3062 0.58427 0.0
O582 O 0.51091 0.32605 0.5797 0.0
O583 O 0.94634 0.29048 0.83948 0.0
Cd584 Cd 0.94237 0.2729 0.82322 0.0
O585 O 0.92628 0.29767 0.8349 0.0
Cd586 Cd 0.9094 0.31134 0.8361 0.0
O587 O 0.89803 0.3294 0.83233 0.0
C588 C 0.88914 0.3296 0.82333 0.0
O589 O 0.88636 0.31855 0.81691 0.0
C590 C 0.9372 0.29904 0.8412 0.0
C591 C 0.93056 0.25074 0.83482 0.0
O592 O 0.94326 0.25203 0.83437 0.0
O593 O 0.92338 0.25997 0.82973 0.0
O594 O 0.9584 0.69524 0.08969 0.0
Cd595 Cd 0.97584 0.69124 0.07326 0.0
O596 O 0.95121 0.67518 0.08525 0.0
Cd597 Cd 0.93753 0.65831 0.08656 0.0
O598 O 0.9194 0.64704 0.08274 0.0
C599 C 0.91919 0.63821 0.0737 0.0
O600 O 0.93025 0.6354 0.0673 0.0
C601 C 0.94985 0.68611 0.09151 0.0
C602 C 0.99822 0.67953 0.08458 0.0
O603 O 0.99688 0.69221 0.08414 0.0
O604 O 0.98892 0.67233 0.07963 0.0
O605 O 0.55366 0.70797 0.3396 0.0
Cd606 Cd 0.55762 0.72551 0.32329 0.0
O607 O 0.57375 0.70083 0.33508 0.0
Cd608 Cd 0.59066 0.68719 0.33634 0.0
O609 O 0.60204 0.66913 0.33256 0.0
C610 C 0.61094 0.66895 0.32358 0.0
O611 O 0.61374 0.68002 0.3172 0.0
C612 C 0.56282 0.69944 0.34136 0.0
C613 C 0.56944 0.74771 0.33483 0.0
O614 O 0.55674 0.74641 0.3344 0.0
O615 O 0.57662 0.73846 0.32975 0.0
O616 O 0.90855 0.54124 0.69545 0.0
Cd617 Cd 0.92487 0.52368 0.69154 0.0
O618 O 0.91335 0.54856 0.67552 0.0
Cd619 Cd 0.9124 0.56236 0.65874 0.0
O620 O 0.91641 0.5805 0.64758 0.0
C621 C 0.92546 0.5807 0.63875 0.0
O622 O 0.93179 0.56962 0.63588 0.0
C623 C 0.90695 0.54987 0.68637 0.0
C624 C 0.91342 0.50136 0.67987 0.0
O625 O 0.91382 0.50274 0.69254 0.0
O626 O 0.91846 0.5106 0.67265 0.0
O627 O 0.7084 0.65927 0.94524 0.0
Cd628 Cd 0.72584 0.6757 0.94124 0.0
O629 O 0.70121 0.66371 0.92518 0.0
Cd630 Cd 0.68753 0.6624 0.90831 0.0
O631 O 0.6694 0.66623 0.89704 0.0
C632 C 0.66919 0.67526 0.88821 0.0
O633 O 0.68025 0.68166 0.8854 0.0
C634 C 0.69985 0.65745 0.93611 0.0
C635 C 0.74822 0.66438 0.92953 0.0
O636 O 0.74688 0.66483 0.94221 0.0
O637 O 0.73892 0.66933 0.92233 0.0
O638 O 0.59121 0.45798 0.19569 0.0
Cd639 Cd 0.57487 0.47554 0.19184 0.0
O640 O 0.58643 0.45074 0.17572 0.0
Cd641 Cd 0.58741 0.43701 0.15888 0.0
O642 O 0.58345 0.41892 0.14763 0.0
C643 C 0.57439 0.41873 0.13881 0.0
O644 O 0.56801 0.42981 0.136 0.0
C645 C 0.59283 0.44939 0.18658 0.0
C646 C 0.58631 0.49781 0.18008 0.0
O647 O 0.58595 0.49646 0.19276 0.0
O648 O 0.58122 0.48858 0.1729 0.0
O649 O 0.79136 0.33981 0.44586 0.0
Cd650 Cd 0.77393 0.32337 0.44188 0.0
O651 O 0.79851 0.3354 0.42577 0.0
Cd652 Cd 0.81214 0.33675 0.40887 0.0
O653 O 0.83025 0.33297 0.39755 0.0
C654 C 0.83046 0.32393 0.38871 0.0
O655 O 0.81941 0.31751 0.38594 0.0
C656 C 0.79988 0.34165 0.4367 0.0
C657 C 0.7516 0.33468 0.43007 0.0
O658 O 0.7529 0.33427 0.44276 0.0
O659 O 0.76091 0.3297 0.42291 0.0
O660 O 0.90855 0.45772 0.80351 0.0
Cd661 Cd 0.92487 0.47528 0.80742 0.0
O662 O 0.91335 0.45041 0.82345 0.0
Cd663 Cd 0.9124 0.4366 0.84022 0.0
O664 O 0.91641 0.41846 0.85138 0.0
C665 C 0.92545 0.41826 0.86022 0.0
O666 O 0.93179 0.42934 0.86308 0.0
C667 C 0.90695 0.44909 0.81259 0.0
C668 C 0.91342 0.4976 0.81909 0.0
O669 O 0.91382 0.49622 0.80642 0.0
O670 O 0.91846 0.48837 0.82631 0.0
O671 O 0.79136 0.65915 0.0531 0.0
Cd672 Cd 0.77393 0.67559 0.05708 0.0
O673 O 0.79851 0.66356 0.07319 0.0
Cd674 Cd 0.81214 0.66221 0.0901 0.0
O675 O 0.83025 0.66599 0.10141 0.0
C676 C 0.83046 0.67503 0.11025 0.0
O677 O 0.81941 0.68146 0.11302 0.0
C678 C 0.79988 0.65731 0.06226 0.0
C679 C 0.7516 0.66428 0.06889 0.0
O680 O 0.7529 0.66469 0.0562 0.0
O681 O 0.76091 0.66926 0.07605 0.0
O682 O 0.59121 0.54098 0.30327 0.0
Cd683 Cd 0.57487 0.52342 0.30712 0.0
O684 O 0.58643 0.54822 0.32324 0.0
Cd685 Cd 0.58741 0.56195 0.34008 0.0
O686 O 0.58345 0.58004 0.35133 0.0
C687 C 0.57439 0.58023 0.36015 0.0
O688 O 0.56801 0.56915 0.36296 0.0
C689 C 0.59283 0.54957 0.31238 0.0
C690 C 0.58631 0.50115 0.31888 0.0
O691 O 0.58595 0.5025 0.3062 0.0
O692 O 0.58122 0.51038 0.32606 0.0
O693 O 0.7084 0.33969 0.55372 0.0
Cd694 Cd 0.72584 0.32326 0.55772 0.0
O695 O 0.70121 0.33525 0.57378 0.0
Cd696 Cd 0.68753 0.33656 0.59065 0.0
O697 O 0.6694 0.33274 0.60192 0.0
C698 C 0.66919 0.3237 0.61076 0.0
O699 O 0.68025 0.3173 0.61356 0.0
C700 C 0.69985 0.34151 0.56285 0.0
C701 C 0.74822 0.33458 0.56943 0.0
O702 O 0.74688 0.33414 0.55675 0.0
O703 O 0.73892 0.32963 0.57663 0.0
O704 O 0.69634 0.90948 0.54048 0.0
Cd705 Cd 0.69237 0.92574 0.5229 0.0
O706 O 0.67629 0.91406 0.54767 0.0
Cd707 Cd 0.6594 0.91287 0.56134 0.0
O708 O 0.64803 0.91664 0.5794 0.0
C709 C 0.63914 0.92563 0.5796 0.0
O710 O 0.63636 0.93205 0.56855 0.0
C711 C 0.6872 0.90776 0.54904 0.0
C712 C 0.68056 0.91414 0.50074 0.0
O713 O 0.69326 0.91459 0.50203 0.0
O714 O 0.67338 0.91923 0.50998 0.0
O715 O 0.19634 0.58948 0.45848 0.0
Cd716 Cd 0.19237 0.57322 0.47606 0.0
O717 O 0.17629 0.5849 0.45129 0.0
Cd718 Cd 0.1594 0.5861 0.43762 0.0
O719 O 0.14803 0.58233 0.41956 0.0
C720 C 0.13914 0.57333 0.41936 0.0
O721 O 0.13636 0.56691 0.43041 0.0
C722 C 0.1872 0.5912 0.44992 0.0
C723 C 0.18056 0.58482 0.49822 0.0
O724 O 0.19326 0.58437 0.49693 0.0
O725 O 0.17338 0.57973 0.48899 0.0
O726 O 0.65855 0.94545 0.70772 0.0
Cd727 Cd 0.67487 0.94154 0.72528 0.0
O728 O 0.66335 0.92552 0.70041 0.0
Cd729 Cd 0.6624 0.90874 0.6866 0.0
O730 O 0.66641 0.89758 0.66846 0.0
C731 C 0.67546 0.88875 0.66826 0.0
O732 O 0.68179 0.88588 0.67934 0.0
C733 C 0.65695 0.93637 0.69909 0.0
C734 C 0.66342 0.92987 0.7476 0.0
O735 O 0.66382 0.94254 0.74622 0.0
O736 O 0.66846 0.92265 0.73837 0.0
O737 O 0.30366 0.40936 0.95797 0.0
Cd738 Cd 0.30762 0.42567 0.97551 0.0
O739 O 0.32375 0.41388 0.95083 0.0
Cd740 Cd 0.34066 0.41262 0.93719 0.0
O741 O 0.35204 0.4164 0.91913 0.0
C742 C 0.36094 0.42538 0.91895 0.0
O743 O 0.36374 0.43176 0.93002 0.0
C744 C 0.31282 0.4076 0.94944 0.0
C745 C 0.31944 0.41413 0.99771 0.0
O746 O 0.30674 0.41456 0.99641 0.0
O747 O 0.32662 0.41921 0.98846 0.0
O748 O 0.34121 0.55327 0.70798 0.0
Cd749 Cd 0.32487 0.55712 0.72554 0.0
O750 O 0.33643 0.57324 0.70074 0.0
Cd751 Cd 0.33741 0.59008 0.68701 0.0
O752 O 0.33345 0.60133 0.66892 0.0
C753 C 0.32439 0.61015 0.66873 0.0
O754 O 0.31801 0.61296 0.67981 0.0
C755 C 0.34283 0.56238 0.69939 0.0
C756 C 0.33631 0.56888 0.74781 0.0
O757 O 0.33595 0.5562 0.74646 0.0
O758 O 0.33122 0.57606 0.73858 0.0
O759 O 0.80366 0.0896 0.04099 0.0
Cd760 Cd 0.80762 0.07329 0.02345 0.0
O761 O 0.82375 0.08508 0.04813 0.0
Cd762 Cd 0.84066 0.08634 0.06177 0.0
O763 O 0.85204 0.08256 0.07983 0.0
C764 C 0.86094 0.07358 0.08001 0.0
O765 O 0.86374 0.0672 0.06894 0.0
C766 C 0.81282 0.09136 0.04952 0.0
C767 C 0.81944 0.08483 0.00125 0.0
O768 O 0.80674 0.0844 0.00255 0.0
O769 O 0.82662 0.07975 0.0105 0.0
O770 O 0.65855 0.05351 0.79124 0.0
Cd771 Cd 0.67487 0.05742 0.77368 0.0
O772 O 0.66335 0.07345 0.79856 0.0
Cd773 Cd 0.6624 0.09022 0.81236 0.0
O774 O 0.66641 0.10138 0.8305 0.0
C775 C 0.67546 0.11021 0.8307 0.0
O776 O 0.68179 0.11308 0.81962 0.0
C777 C 0.65695 0.06259 0.79987 0.0
C778 C 0.66342 0.06909 0.75136 0.0
O779 O 0.66382 0.05642 0.75274 0.0
O780 O 0.66846 0.07631 0.7606 0.0
O781 O 0.84121 0.94569 0.29098 0.0
Cd782 Cd 0.82488 0.94184 0.27342 0.0
O783 O 0.83643 0.92572 0.29822 0.0
Cd784 Cd 0.83741 0.90888 0.31195 0.0
O785 O 0.83345 0.89763 0.33004 0.0
C786 C 0.82439 0.88881 0.33023 0.0
O787 O 0.81801 0.886 0.31915 0.0
C788 C 0.84283 0.93658 0.29957 0.0
C789 C 0.83631 0.93008 0.25115 0.0
O790 O 0.83595 0.94276 0.2525 0.0
O791 O 0.83122 0.9229 0.26038 0.0
O792 O 0.44942 0.34097 0.0833 0.0
Cd793 Cd 0.46337 0.35231 0.06698 0.0
O794 O 0.4378 0.35869 0.08892 0.0
Cd795 Cd 0.44312 0.37135 0.0721 0.0
O796 O 0.42534 0.38029 0.06328 0.0
C797 C 0.41684 0.38354 0.07208 0.0
O798 O 0.42025 0.38254 0.08467 0.0
C799 C 0.44082 0.34654 0.09072 0.0
C800 C 0.48877 0.35432 0.07802 0.0
O801 O 0.48048 0.36398 0.07881 0.0
O802 O 0.48521 0.34387 0.07164 0.0
O803 O 0.40813 0.69875 0.8343 0.0
Cd804 Cd 0.39683 0.71259 0.81786 0.0
O805 O 0.39042 0.6871 0.83993 0.0
Cd806 Cd 0.3778 0.69232 0.82304 0.0
O807 O 0.369 0.67453 0.8141 0.0
C808 C 0.36575 0.66599 0.82286 0.0
O809 O 0.36667 0.66935 0.83546 0.0
C810 C 0.40256 0.69017 0.84174 0.0
C811 C 0.39492 0.73807 0.82865 0.0
O812 O 0.38521 0.72983 0.82952 0.0
O813 O 0.40537 0.73441 0.82232 0.0
O814 O 0.0506 0.65837 0.58347 0.0
Cd815 Cd 0.03665 0.64703 0.56715 0.0
O816 O 0.06217 0.64065 0.58916 0.0
Cd817 Cd 0.05686 0.62796 0.57236 0.0
O818 O 0.07464 0.61897 0.56358 0.0
C819 C 0.08312 0.61573 0.5724 0.0
O820 O 0.07969 0.61677 0.58498 0.0
C821 C 0.05918 0.6528 0.59091 0.0
C822 C 0.01124 0.64506 0.57818 0.0
O823 O 0.01952 0.63539 0.57898 0.0
O824 O 0.01482 0.65551 0.5718 0.0
O825 O 0.0916 0.30065 0.33421 0.0
Cd826 Cd 0.10286 0.28686 0.3177 0.0
O827 O 0.10948 0.31185 0.3402 0.0
Cd828 Cd 0.12204 0.30669 0.32326 0.0
O829 O 0.13083 0.32445 0.31426 0.0
C830 C 0.13411 0.33301 0.32299 0.0
O831 O 0.1332 0.32967 0.3356 0.0
C832 C 0.09726 0.30899 0.34185 0.0
C833 C 0.10477 0.26135 0.32841 0.0
O834 O 0.11449 0.26958 0.32928 0.0
O835 O 0.09431 0.26504 0.3221 0.0
O836 O 0.44942 0.65799 0.41566 0.0
Cd837 Cd 0.46337 0.64665 0.43198 0.0
O838 O 0.4378 0.64027 0.41004 0.0
Cd839 Cd 0.44312 0.62761 0.42686 0.0
O840 O 0.42534 0.61867 0.43568 0.0
C841 C 0.41684 0.61542 0.42688 0.0
O842 O 0.42025 0.61642 0.41429 0.0
C843 C 0.44082 0.65242 0.40824 0.0
C844 C 0.48877 0.64464 0.42094 0.0
O845 O 0.48048 0.63498 0.42015 0.0
O846 O 0.48521 0.65509 0.42732 0.0
O847 O 0.0916 0.69831 0.16476 0.0
Cd848 Cd 0.10286 0.7121 0.18126 0.0
O849 O 0.10948 0.68711 0.15876 0.0
Cd850 Cd 0.12204 0.69227 0.17571 0.0
O851 O 0.13083 0.67451 0.1847 0.0
C852 C 0.13411 0.66596 0.17597 0.0
O853 O 0.1332 0.66929 0.16336 0.0
C854 C 0.09726 0.68997 0.15711 0.0
C855 C 0.10477 0.73761 0.17055 0.0
O856 O 0.11449 0.72938 0.16968 0.0
O857 O 0.09431 0.73393 0.17686 0.0
O858 O 0.0506 0.34059 0.91549 0.0
Cd859 Cd 0.03664 0.35193 0.93181 0.0
O860 O 0.06217 0.35831 0.90981 0.0
Cd861 Cd 0.05686 0.371 0.92661 0.0
O862 O 0.07464 0.37999 0.93538 0.0
C863 C 0.08312 0.38323 0.92656 0.0
O864 O 0.07969 0.38219 0.91398 0.0
C865 C 0.05918 0.34616 0.90805 0.0
C866 C 0.01124 0.3539 0.92078 0.0
O867 O 0.01952 0.36357 0.91998 0.0
O868 O 0.01482 0.34345 0.92716 0.0
O869 O 0.40813 0.30021 0.66466 0.0
Cd870 Cd 0.39683 0.28637 0.6811 0.0
O871 O 0.39042 0.31186 0.65903 0.0
Cd872 Cd 0.3778 0.30665 0.67592 0.0
O873 O 0.369 0.32443 0.68486 0.0
C874 C 0.36575 0.33297 0.6761 0.0
O875 O 0.36667 0.32961 0.6635 0.0
C876 C 0.40256 0.30879 0.65722 0.0
C877 C 0.39491 0.26089 0.67031 0.0
O878 O 0.38521 0.26913 0.66944 0.0
O879 O 0.40537 0.26455 0.67664 0.0
O880 O 0.08367 0.44875 0.3415 0.0
Cd881 Cd 0.06732 0.46254 0.35299 0.0
O882 O 0.08989 0.43755 0.35928 0.0
Cd883 Cd 0.07311 0.44271 0.37208 0.0
O884 O 0.06433 0.42496 0.3811 0.0
C885 C 0.07316 0.41646 0.38429 0.0
O886 O 0.08576 0.41986 0.38318 0.0
C887 C 0.09138 0.4404 0.34706 0.0
C888 C 0.07819 0.48799 0.355 0.0
O889 O 0.07911 0.47968 0.36463 0.0
O890 O 0.07175 0.48441 0.34458 0.0
O891 O 0.3006 0.33347 0.09059 0.0
Cd892 Cd 0.28665 0.31715 0.10193 0.0
O893 O 0.31217 0.33916 0.10831 0.0
Cd894 Cd 0.30686 0.32236 0.121 0.0
O895 O 0.32464 0.31358 0.12999 0.0
C896 C 0.33312 0.3224 0.13323 0.0
O897 O 0.32969 0.33498 0.13219 0.0
C898 C 0.30918 0.34091 0.09616 0.0
C899 C 0.26124 0.32818 0.1039 0.0
O900 O 0.26952 0.32898 0.11357 0.0
O901 O 0.26482 0.3218 0.09345 0.0
O902 O 0.41634 0.55016 0.8414 0.0
Cd903 Cd 0.43271 0.53633 0.85282 0.0
O904 O 0.41044 0.56164 0.85911 0.0
Cd905 Cd 0.42724 0.55645 0.87187 0.0
O906 O 0.43597 0.57424 0.88088 0.0
C907 C 0.42712 0.58269 0.8841 0.0
O908 O 0.41453 0.57924 0.88304 0.0
C909 C 0.40878 0.55866 0.84694 0.0
C910 C 0.42184 0.51088 0.85476 0.0
O911 O 0.42093 0.51916 0.86442 0.0
O912 O 0.42825 0.51449 0.84434 0.0
O913 O 0.19942 0.66566 0.59097 0.0
Cd914 Cd 0.21337 0.68198 0.60231 0.0
O915 O 0.1878 0.66004 0.60869 0.0
Cd916 Cd 0.19312 0.67686 0.62135 0.0
O917 O 0.17534 0.68568 0.63029 0.0
C918 C 0.16684 0.67688 0.63354 0.0
O919 O 0.17025 0.66429 0.63254 0.0
C920 C 0.19082 0.65824 0.59654 0.0
C921 C 0.23877 0.67094 0.60432 0.0
O922 O 0.23048 0.67015 0.61398 0.0
O923 O 0.23521 0.67732 0.59387 0.0
O924 O 0.08367 0.55021 0.15746 0.0
Cd925 Cd 0.06732 0.53642 0.14597 0.0
O926 O 0.08989 0.56141 0.13968 0.0
Cd927 Cd 0.07311 0.55625 0.12688 0.0
O928 O 0.06433 0.574 0.11786 0.0
C929 C 0.07316 0.5825 0.11467 0.0
O930 O 0.08576 0.5791 0.11578 0.0
C931 C 0.09138 0.55856 0.1519 0.0
C932 C 0.07819 0.51097 0.14396 0.0
O933 O 0.07911 0.51928 0.13433 0.0
O934 O 0.07175 0.51455 0.15438 0.0
O935 O 0.19942 0.3333 0.90799 0.0
Cd936 Cd 0.21337 0.31698 0.89665 0.0
O937 O 0.1878 0.33892 0.89027 0.0
Cd938 Cd 0.19312 0.3221 0.87761 0.0
O939 O 0.17534 0.31328 0.86867 0.0
C940 C 0.16684 0.32208 0.86542 0.0
O941 O 0.17025 0.33467 0.86642 0.0
C942 C 0.19082 0.34072 0.90242 0.0
C943 C 0.23877 0.32802 0.89464 0.0
O944 O 0.23048 0.32881 0.88498 0.0
O945 O 0.23521 0.32164 0.90509 0.0
O946 O 0.41634 0.4488 0.65756 0.0
Cd947 Cd 0.43271 0.46263 0.64614 0.0
O948 O 0.41044 0.43732 0.63985 0.0
Cd949 Cd 0.42724 0.44251 0.62709 0.0
O950 O 0.43597 0.42472 0.61809 0.0
C951 C 0.42712 0.41627 0.61486 0.0
O952 O 0.41453 0.41972 0.61592 0.0
C953 C 0.40878 0.44031 0.65202 0.0
C954 C 0.42183 0.48808 0.6442 0.0
O955 O 0.42093 0.47981 0.63454 0.0
O956 O 0.42825 0.48447 0.65462 0.0
O957 O 0.3006 0.66549 0.40837 0.0
Cd958 Cd 0.28665 0.68181 0.39703 0.0
O959 O 0.31217 0.65981 0.39065 0.0
Cd960 Cd 0.30686 0.6766 0.37796 0.0
O961 O 0.32464 0.68538 0.36897 0.0
C962 C 0.33312 0.67656 0.36573 0.0
O963 O 0.32969 0.66398 0.36677 0.0
C964 C 0.30918 0.65805 0.4028 0.0
C965 C 0.26124 0.67078 0.39506 0.0
O966 O 0.26952 0.66998 0.38539 0.0
O967 O 0.26482 0.67716 0.40551 0.0
O968 O 0.3416 0.08421 0.44831 0.0
Cd969 Cd 0.35286 0.0677 0.4621 0.0
O970 O 0.35948 0.0902 0.43711 0.0
Cd971 Cd 0.37204 0.07326 0.44227 0.0
O972 O 0.38084 0.06426 0.42452 0.0
C973 C 0.38411 0.07299 0.41596 0.0
O974 O 0.3832 0.0856 0.41929 0.0
C975 C 0.34726 0.09185 0.43997 0.0
C976 C 0.35477 0.07841 0.48761 0.0
O977 O 0.36449 0.07928 0.47938 0.0
O978 O 0.34431 0.0721 0.48393 0.0
O979 O 0.8416 0.41476 0.55065 0.0
Cd980 Cd 0.85286 0.43126 0.53686 0.0
O981 O 0.85948 0.40876 0.56185 0.0
Cd982 Cd 0.87204 0.42571 0.55669 0.0
O983 O 0.88083 0.4347 0.57445 0.0
C984 C 0.88411 0.42597 0.583 0.0
O985 O 0.8832 0.41336 0.57967 0.0
C986 C 0.84726 0.40711 0.55899 0.0
C987 C 0.85477 0.42055 0.51135 0.0
O988 O 0.86449 0.41968 0.51958 0.0
O989 O 0.84431 0.42686 0.51504 0.0
O990 O 0.33367 0.0915 0.30021 0.0
Cd991 Cd 0.31732 0.10299 0.28642 0.0
O992 O 0.33989 0.10928 0.31141 0.0
Cd993 Cd 0.32311 0.12208 0.30625 0.0
O994 O 0.31433 0.1311 0.324 0.0
C995 C 0.32316 0.13429 0.3325 0.0
O996 O 0.33576 0.13318 0.32911 0.0
C997 C 0.34138 0.09706 0.30856 0.0
C998 C 0.32819 0.105 0.26097 0.0
O999 O 0.32911 0.11463 0.26928 0.0
O1000 O 0.32175 0.09458 0.26455 0.0
O1001 O 0.65813 0.5843 0.05021 0.0
Cd1002 Cd 0.64683 0.56786 0.03637 0.0
O1003 O 0.64042 0.58993 0.06186 0.0
Cd1004 Cd 0.6278 0.57304 0.05665 0.0
O1005 O 0.619 0.5641 0.07443 0.0
C1006 C 0.61575 0.57286 0.08297 0.0
O1007 O 0.61667 0.58546 0.07961 0.0
C1008 C 0.65256 0.59174 0.05879 0.0
C1009 C 0.64492 0.57865 0.01089 0.0
O1010 O 0.63521 0.57952 0.01913 0.0
O1011 O 0.65537 0.57232 0.01455 0.0
O1012 O 0.66634 0.40756 0.30016 0.0
Cd1013 Cd 0.68271 0.39614 0.28633 0.0
O1014 O 0.66044 0.38985 0.31164 0.0
Cd1015 Cd 0.67724 0.37709 0.30645 0.0
O1016 O 0.68597 0.36808 0.32424 0.0
C1017 C 0.67712 0.36486 0.33269 0.0
O1018 O 0.66453 0.36592 0.32924 0.0
C1019 C 0.65878 0.40202 0.30866 0.0
C1020 C 0.67183 0.3942 0.26088 0.0
O1021 O 0.67093 0.38454 0.26916 0.0
O1022 O 0.67825 0.40462 0.26449 0.0
O1023 O 0.15813 0.91466 0.94875 0.0
Cd1024 Cd 0.14683 0.9311 0.96259 0.0
O1025 O 0.14042 0.90903 0.9371 0.0
Cd1026 Cd 0.1278 0.92592 0.94232 0.0
O1027 O 0.119 0.93486 0.92453 0.0
C1028 C 0.11575 0.9261 0.91599 0.0
O1029 O 0.11667 0.9135 0.91935 0.0
C1030 C 0.15256 0.90722 0.94017 0.0
C1031 C 0.14491 0.92031 0.98807 0.0
O1032 O 0.13521 0.91944 0.97983 0.0
O1033 O 0.15537 0.92664 0.98441 0.0
O1034 O 0.33367 0.90746 0.19875 0.0
Cd1035 Cd 0.31732 0.89597 0.21254 0.0
O1036 O 0.33989 0.88968 0.18755 0.0
Cd1037 Cd 0.32311 0.87688 0.19271 0.0
O1038 O 0.31433 0.86786 0.17496 0.0
C1039 C 0.32316 0.86467 0.16646 0.0
O1040 O 0.33576 0.86578 0.16986 0.0
C1041 C 0.34138 0.9019 0.1904 0.0
C1042 C 0.32819 0.89396 0.23799 0.0
O1043 O 0.32911 0.88433 0.22968 0.0
O1044 O 0.32175 0.90438 0.23441 0.0
O1045 O 0.16634 0.0914 0.6988 0.0
Cd1046 Cd 0.18271 0.10282 0.71263 0.0
O1047 O 0.16044 0.10911 0.68732 0.0
Cd1048 Cd 0.17724 0.12187 0.69251 0.0
O1049 O 0.18597 0.13088 0.67472 0.0
C1050 C 0.17712 0.13411 0.66627 0.0
O1051 O 0.16453 0.13304 0.66972 0.0
C1052 C 0.15878 0.09694 0.69031 0.0
C1053 C 0.17183 0.10476 0.73808 0.0
O1054 O 0.17093 0.11442 0.72981 0.0
O1055 O 0.17825 0.09434 0.73447 0.0
C1056 C 0.07391 0.18366 0.4014 0.0
C1057 C 0.06137 0.18907 0.39842 0.0
C1058 C 0.06008 0.19743 0.38729 0.0
C1059 C 0.07111 0.20028 0.37926 0.0
H1060 H 0.0847 0.22419 0.34715 0.0
H1061 H 0.08406 0.24466 0.33409 0.0
H1062 H 0.12673 0.2486 0.33813 0.0
H1063 H 0.12743 0.22807 0.35099 0.0
H1064 H 0.14371 0.20365 0.36217 0.0
H1065 H 0.16499 0.19478 0.3697 0.0
H1066 H 0.14432 0.16564 0.39367 0.0
H1067 H 0.12307 0.17447 0.38619 0.0
H1068 H 0.09445 0.18221 0.39611 0.0
H1069 H 0.07542 0.17778 0.41028 0.0
H1070 H 0.05054 0.20183 0.38483 0.0
H1071 H 0.06979 0.20685 0.37081 0.0
N1072 N 0.09519 0.20872 0.36548 0.0
N1073 N 0.11814 0.20648 0.36159 0.0
N1074 N 0.10743 0.19233 0.3767 0.0
C1075 C 0.10641 0.21274 0.35905 0.0
C1076 C 0.11871 0.19618 0.37032 0.0
C1077 C 0.09563 0.19851 0.37435 0.0
C1078 C 0.1061 0.22453 0.35019 0.0
C1079 C 0.09396 0.22935 0.34514 0.0
C1080 C 0.0936 0.24105 0.33761 0.0
C1081 C 0.10534 0.24828 0.33515 0.0
C1082 C 0.11751 0.24328 0.3399 0.0
C1083 C 0.1179 0.23148 0.34725 0.0
C1084 C 0.13164 0.18991 0.37371 0.0
C1085 C 0.14368 0.19525 0.36893 0.0
C1086 C 0.1559 0.19017 0.37324 0.0
C1087 C 0.15635 0.1796 0.3824 0.0
C1088 C 0.14434 0.17384 0.38667 0.0
C1089 C 0.13213 0.17894 0.3824 0.0
C1090 C 0.08368 0.19485 0.38223 0.0
C1091 C 0.0849 0.1864 0.39334 0.0
C1092 C 0.07577 0.89391 0.63725 0.0
C1093 C 0.07002 0.90593 0.63298 0.0
C1094 C 0.05946 0.9055 0.62381 0.0
C1095 C 0.05437 0.89331 0.61945 0.0
H1096 H 0.02169 0.87702 0.6011 0.0
H1097 H 0.0013 0.87627 0.58798 0.0
H1098 H 0.0055 0.83369 0.58384 0.0
H1099 H 0.02582 0.83437 0.59715 0.0
H1100 H 0.04282 0.81949 0.62106 0.0
H1101 H 0.04778 0.80023 0.63505 0.0
H1102 H 0.0717 0.82503 0.6607 0.0
H1103 H 0.06733 0.84407 0.64656 0.0
H1104 H 0.07515 0.87268 0.63671 0.0
H1105 H 0.08397 0.89388 0.64425 0.0
H1106 H 0.05484 0.91459 0.62028 0.0
H1107 H 0.04598 0.89335 0.61267 0.0
N1108 N 0.04325 0.86779 0.6119 0.0
N1109 N 0.04102 0.84485 0.61572 0.0
N1110 N 0.05728 0.85708 0.62714 0.0
C1111 C 0.03703 0.85607 0.60927 0.0
C1112 C 0.05114 0.84529 0.6247 0.0
C1113 C 0.05348 0.86836 0.62074 0.0
C1114 C 0.02535 0.85573 0.60027 0.0
C1115 C 0.01837 0.8675 0.59728 0.0
C1116 C 0.00665 0.86708 0.58979 0.0
C1117 C 0.00177 0.85492 0.58493 0.0
C1118 C 0.00902 0.84322 0.58743 0.0
C1119 C 0.02064 0.84361 0.59511 0.0
C1120 C 0.05476 0.83334 0.63258 0.0
C1121 C 0.04935 0.82079 0.62954 0.0
C1122 C 0.05217 0.80975 0.63756 0.0
C1123 C 0.06048 0.81103 0.64874 0.0
C1124 C 0.06586 0.82354 0.65179 0.0
C1125 C 0.06315 0.83454 0.64374 0.0
C1126 C 0.05972 0.88127 0.6242 0.0
C1127 C 0.07068 0.88173 0.63293 0.0
C1128 C 0.35531 0.82543 0.88711 0.0
C1129 C 0.34329 0.81963 0.88286 0.0
C1130 C 0.34375 0.80907 0.87371 0.0
C1131 C 0.35597 0.80402 0.86935 0.0
H1132 H 0.37225 0.77127 0.85133 0.0
H1133 H 0.37296 0.75076 0.83844 0.0
H1134 H 0.41562 0.75478 0.83433 0.0
H1135 H 0.41497 0.77523 0.84741 0.0
H1136 H 0.4299 0.79264 0.87102 0.0
H1137 H 0.44918 0.79772 0.88498 0.0
H1138 H 0.4243 0.8217 0.91049 0.0
H1139 H 0.40525 0.81722 0.89637 0.0
H1140 H 0.37657 0.82486 0.88656 0.0
H1141 H 0.35532 0.83363 0.8941 0.0
H1142 H 0.33467 0.80442 0.87019 0.0
H1143 H 0.35595 0.79562 0.8626 0.0
N1144 N 0.38152 0.79287 0.86194 0.0
N1145 N 0.40449 0.79069 0.86575 0.0
N1146 N 0.39224 0.80705 0.87701 0.0
C1147 C 0.39326 0.78664 0.85935 0.0
C1148 C 0.40405 0.8009 0.87463 0.0
C1149 C 0.38095 0.80317 0.87067 0.0
C1150 C 0.39358 0.77486 0.85049 0.0
C1151 C 0.38178 0.76788 0.84757 0.0
C1152 C 0.38218 0.75609 0.84021 0.0
C1153 C 0.39435 0.75113 0.83542 0.0
C1154 C 0.40608 0.75837 0.83787 0.0
C1155 C 0.40571 0.77006 0.84541 0.0
C1156 C 0.41601 0.8046 0.88247 0.0
C1157 C 0.42859 0.79921 0.87946 0.0
C1158 C 0.43963 0.80209 0.88746 0.0
C1159 C 0.43835 0.81045 0.89859 0.0
C1160 C 0.4258 0.81583 0.9016 0.0
C1161 C 0.4148 0.81305 0.89358 0.0
C1162 C 0.36801 0.8094 0.8741 0.0
C1163 C 0.36752 0.82036 0.88279 0.0
C1164 C 0.42415 0.10553 0.1373 0.0
C1165 C 0.42985 0.09352 0.13297 0.0
C1166 C 0.4404 0.09395 0.12379 0.0
C1167 C 0.44551 0.10615 0.11947 0.0
H1168 H 0.47827 0.1224 0.10124 0.0
H1169 H 0.49867 0.12313 0.08812 0.0
H1170 H 0.49455 0.16572 0.08402 0.0
H1171 H 0.47422 0.16506 0.09733 0.0
H1172 H 0.45715 0.17995 0.12119 0.0
H1173 H 0.4522 0.19922 0.13518 0.0
H1174 H 0.42837 0.1744 0.16091 0.0
H1175 H 0.43274 0.15536 0.14676 0.0
H1176 H 0.42484 0.12677 0.13685 0.0
H1177 H 0.41596 0.10556 0.14433 0.0
H1178 H 0.44498 0.08487 0.12021 0.0
H1179 H 0.4539 0.10611 0.11268 0.0
N1180 N 0.45672 0.13166 0.11202 0.0
N1181 N 0.45899 0.15458 0.11588 0.0
N1182 N 0.4427 0.14236 0.12727 0.0
C1183 C 0.46296 0.14337 0.10941 0.0
C1184 C 0.44886 0.15414 0.12486 0.0
C1185 C 0.44649 0.13109 0.12086 0.0
C1186 C 0.47465 0.14369 0.10042 0.0
C1187 C 0.48161 0.13191 0.09743 0.0
C1188 C 0.49334 0.13232 0.08994 0.0
C1189 C 0.49824 0.14448 0.08509 0.0
C1190 C 0.491 0.15619 0.08761 0.0
C1191 C 0.47939 0.15582 0.09528 0.0
C1192 C 0.44526 0.16609 0.13275 0.0
C1193 C 0.45065 0.17865 0.12969 0.0
C1194 C 0.44783 0.18969 0.13771 0.0
C1195 C 0.43955 0.18841 0.14891 0.0
C1196 C 0.43419 0.17589 0.15197 0.0
C1197 C 0.43689 0.16489 0.14393 0.0
C1198 C 0.44021 0.11818 0.12428 0.0
C1199 C 0.42927 0.11772 0.13302 0.0
C1200 C 0.07391 0.8153 0.09756 0.0
C1201 C 0.06137 0.80989 0.10054 0.0
C1202 C 0.06008 0.80153 0.11167 0.0
C1203 C 0.07111 0.79868 0.1197 0.0
H1204 H 0.0847 0.77477 0.15181 0.0
H1205 H 0.08406 0.7543 0.16487 0.0
H1206 H 0.12672 0.75036 0.16083 0.0
H1207 H 0.12743 0.77089 0.14797 0.0
H1208 H 0.14371 0.79531 0.13679 0.0
H1209 H 0.16499 0.80418 0.12926 0.0
H1210 H 0.14432 0.83332 0.10529 0.0
H1211 H 0.12307 0.82449 0.11277 0.0
H1212 H 0.09445 0.81675 0.10285 0.0
H1213 H 0.07542 0.82118 0.08868 0.0
H1214 H 0.05054 0.79713 0.11413 0.0
H1215 H 0.06979 0.79211 0.12815 0.0
N1216 N 0.09519 0.79024 0.13348 0.0
N1217 N 0.11814 0.79248 0.13737 0.0
N1218 N 0.10743 0.80663 0.12226 0.0
C1219 C 0.10641 0.78622 0.13992 0.0
C1220 C 0.11871 0.80278 0.12864 0.0
C1221 C 0.09563 0.80045 0.12461 0.0
C1222 C 0.1061 0.77443 0.14877 0.0
C1223 C 0.09396 0.76961 0.15382 0.0
C1224 C 0.0936 0.75791 0.16135 0.0
C1225 C 0.10534 0.75069 0.16381 0.0
C1226 C 0.11751 0.75568 0.15906 0.0
C1227 C 0.1179 0.76748 0.15171 0.0
C1228 C 0.13164 0.80906 0.12526 0.0
C1229 C 0.14368 0.80371 0.13004 0.0
C1230 C 0.1559 0.80879 0.12572 0.0
C1231 C 0.15635 0.81936 0.11656 0.0
C1232 C 0.14434 0.82512 0.11229 0.0
C1233 C 0.13213 0.82002 0.11656 0.0
C1234 C 0.08368 0.80411 0.11673 0.0
C1235 C 0.0849 0.81256 0.10562 0.0
C1236 C 0.42415 0.89343 0.36166 0.0
C1237 C 0.42985 0.90544 0.36599 0.0
C1238 C 0.4404 0.90501 0.37517 0.0
C1239 C 0.44551 0.89281 0.37949 0.0
H1240 H 0.47827 0.87656 0.39772 0.0
H1241 H 0.49867 0.87584 0.41084 0.0
H1242 H 0.49455 0.83324 0.41494 0.0
H1243 H 0.47422 0.8339 0.40163 0.0
H1244 H 0.45715 0.81901 0.37777 0.0
H1245 H 0.4522 0.79974 0.36378 0.0
H1246 H 0.42837 0.82456 0.33806 0.0
H1247 H 0.43274 0.84361 0.3522 0.0
H1248 H 0.42484 0.87219 0.36211 0.0
H1249 H 0.41596 0.8934 0.35463 0.0
H1250 H 0.44498 0.91409 0.37875 0.0
H1251 H 0.4539 0.89285 0.38628 0.0
N1252 N 0.45672 0.8673 0.38694 0.0
N1253 N 0.45899 0.84438 0.38308 0.0
N1254 N 0.4427 0.8566 0.37169 0.0
C1255 C 0.46296 0.85559 0.38955 0.0
C1256 C 0.44886 0.84482 0.3741 0.0
C1257 C 0.44649 0.86787 0.3781 0.0
C1258 C 0.47465 0.85527 0.39854 0.0
C1259 C 0.48161 0.86705 0.40153 0.0
C1260 C 0.49334 0.86664 0.40902 0.0
C1261 C 0.49824 0.85448 0.41387 0.0
C1262 C 0.491 0.84277 0.41135 0.0
C1263 C 0.47939 0.84314 0.40368 0.0
C1264 C 0.44526 0.83287 0.36621 0.0
C1265 C 0.45065 0.82031 0.36927 0.0
C1266 C 0.44783 0.80928 0.36125 0.0
C1267 C 0.43955 0.81055 0.35005 0.0
C1268 C 0.43419 0.82307 0.34699 0.0
C1269 C 0.4369 0.83407 0.35503 0.0
C1270 C 0.44021 0.88078 0.37468 0.0
C1271 C 0.42927 0.88124 0.36594 0.0
C1272 C 0.35531 0.17353 0.61185 0.0
C1273 C 0.34329 0.17933 0.6161 0.0
C1274 C 0.34375 0.18989 0.62525 0.0
C1275 C 0.35597 0.19494 0.62961 0.0
H1276 H 0.37225 0.22769 0.64763 0.0
H1277 H 0.37296 0.2482 0.66052 0.0
H1278 H 0.41562 0.24418 0.66463 0.0
H1279 H 0.41497 0.22373 0.65155 0.0
H1280 H 0.4299 0.20632 0.62794 0.0
H1281 H 0.44918 0.20124 0.61398 0.0
H1282 H 0.4243 0.17726 0.58847 0.0
H1283 H 0.40525 0.18174 0.60259 0.0
H1284 H 0.37657 0.1741 0.6124 0.0
H1285 H 0.35532 0.16533 0.60486 0.0
H1286 H 0.33467 0.19454 0.62877 0.0
H1287 H 0.35595 0.20334 0.63636 0.0
N1288 N 0.38152 0.20609 0.63702 0.0
N1289 N 0.40449 0.20827 0.63321 0.0
N1290 N 0.39224 0.19191 0.62195 0.0
C1291 C 0.39326 0.21232 0.63961 0.0
C1292 C 0.40405 0.19806 0.62433 0.0
C1293 C 0.38095 0.1958 0.62829 0.0
C1294 C 0.39358 0.22411 0.64847 0.0
C1295 C 0.38178 0.23108 0.65139 0.0
C1296 C 0.38218 0.24287 0.65875 0.0
C1297 C 0.39435 0.24783 0.66354 0.0
C1298 C 0.40608 0.24059 0.66109 0.0
C1299 C 0.40571 0.2289 0.65355 0.0
C1300 C 0.41601 0.19436 0.61649 0.0
C1301 C 0.42859 0.19975 0.6195 0.0
C1302 C 0.43963 0.19687 0.6115 0.0
C1303 C 0.43835 0.18851 0.60037 0.0
C1304 C 0.4258 0.18313 0.59736 0.0
C1305 C 0.4148 0.18591 0.60538 0.0
C1306 C 0.36801 0.18956 0.62486 0.0
C1307 C 0.36752 0.1786 0.61617 0.0
C1308 C 0.07577 0.10505 0.86172 0.0
C1309 C 0.07002 0.09303 0.86598 0.0
C1310 C 0.05946 0.09346 0.87515 0.0
C1311 C 0.05437 0.10565 0.87951 0.0
H1312 H 0.02169 0.12194 0.89786 0.0
H1313 H 0.0013 0.12269 0.91098 0.0
H1314 H 0.0055 0.16527 0.91512 0.0
H1315 H 0.02582 0.16459 0.90181 0.0
H1316 H 0.04282 0.17947 0.8779 0.0
H1317 H 0.04778 0.19873 0.86391 0.0
H1318 H 0.0717 0.17393 0.83826 0.0
H1319 H 0.06733 0.15489 0.8524 0.0
H1320 H 0.07515 0.12628 0.86225 0.0
H1321 H 0.08397 0.10508 0.85471 0.0
H1322 H 0.05484 0.08437 0.87868 0.0
H1323 H 0.04598 0.10561 0.88629 0.0
N1324 N 0.04325 0.13117 0.88706 0.0
N1325 N 0.04102 0.15411 0.88324 0.0
N1326 N 0.05728 0.14188 0.87183 0.0
C1327 C 0.03703 0.14289 0.88969 0.0
C1328 C 0.05114 0.15367 0.87426 0.0
C1329 C 0.05348 0.1306 0.87822 0.0
C1330 C 0.02535 0.14323 0.89869 0.0
C1331 C 0.01837 0.13146 0.90168 0.0
C1332 C 0.00665 0.13188 0.90918 0.0
C1333 C 0.00177 0.14404 0.91404 0.0
C1334 C 0.00902 0.15574 0.91153 0.0
C1335 C 0.02064 0.15535 0.90385 0.0
C1336 C 0.05476 0.16562 0.86638 0.0
C1337 C 0.04935 0.17817 0.86942 0.0
C1338 C 0.05217 0.18921 0.8614 0.0
C1339 C 0.06047 0.18793 0.85022 0.0
C1340 C 0.06586 0.17542 0.84717 0.0
C1341 C 0.06315 0.16442 0.85522 0.0
C1342 C 0.05972 0.11769 0.87476 0.0
C1343 C 0.07068 0.11723 0.86604 0.0
C1344 C 0.38742 0.14456 0.17409 0.0
C1345 C 0.38321 0.15657 0.17989 0.0
C1346 C 0.37398 0.15614 0.1904 0.0
C1347 C 0.36952 0.14394 0.19539 0.0
H1348 H 0.35121 0.12765 0.228 0.0
H1349 H 0.33822 0.12692 0.24846 0.0
H1350 H 0.33373 0.08438 0.24415 0.0
H1351 H 0.34692 0.08504 0.22375 0.0
H1352 H 0.37044 0.07001 0.20632 0.0
H1353 H 0.38427 0.05065 0.20124 0.0
H1354 H 0.41035 0.07544 0.17776 0.0
H1355 H 0.39636 0.09458 0.18224 0.0
H1356 H 0.38675 0.12333 0.17458 0.0
H1357 H 0.39447 0.14453 0.16592 0.0
H1358 H 0.37048 0.16521 0.19505 0.0
H1359 H 0.36271 0.14398 0.20374 0.0
N1360 N 0.36185 0.11842 0.20639 0.0
N1361 N 0.36547 0.09544 0.20847 0.0
N1362 N 0.37694 0.10767 0.19224 0.0
C1363 C 0.35913 0.10669 0.21255 0.0
C1364 C 0.37441 0.09586 0.19832 0.0
C1365 C 0.37066 0.11898 0.19615 0.0
C1366 C 0.35019 0.10638 0.22428 0.0
C1367 C 0.34734 0.11815 0.23131 0.0
C1368 C 0.33992 0.11774 0.24307 0.0
C1369 C 0.33501 0.10559 0.24794 0.0
C1370 C 0.33738 0.0939 0.24063 0.0
C1371 C 0.34498 0.09427 0.22898 0.0
C1372 C 0.38219 0.08386 0.1946 0.0
C1373 C 0.37898 0.07129 0.19985 0.0
C1374 C 0.38691 0.0602 0.19697 0.0
C1375 C 0.39817 0.06144 0.18875 0.0
C1376 C 0.40137 0.07398 0.18352 0.0
C1377 C 0.39341 0.08503 0.18629 0.0
C1378 C 0.37423 0.1319 0.18999 0.0
C1379 C 0.383 0.13237 0.17909 0.0
C1380 C 0.10531 0.13711 0.42353 0.0
C1381 C 0.09329 0.13286 0.42933 0.0
C1382 C 0.09375 0.12371 0.43989 0.0
C1383 C 0.10597 0.11935 0.44494 0.0
H1384 H 0.12225 0.10133 0.47769 0.0
H1385 H 0.12296 0.08844 0.4982 0.0
H1386 H 0.16562 0.08433 0.49418 0.0
H1387 H 0.16497 0.09741 0.47373 0.0
H1388 H 0.1799 0.12102 0.45632 0.0
H1389 H 0.19918 0.13498 0.45124 0.0
H1390 H 0.1743 0.16049 0.42726 0.0
H1391 H 0.15525 0.14637 0.43174 0.0
H1392 H 0.12657 0.13656 0.4241 0.0
H1393 H 0.10532 0.1441 0.41533 0.0
H1394 H 0.08467 0.12019 0.44454 0.0
H1395 H 0.10595 0.1126 0.45334 0.0
N1396 N 0.13152 0.11194 0.45609 0.0
N1397 N 0.15449 0.11575 0.45827 0.0
N1398 N 0.14224 0.12701 0.44191 0.0
C1399 C 0.14326 0.10935 0.46232 0.0
C1400 C 0.15405 0.12463 0.44806 0.0
C1401 C 0.13095 0.12067 0.4458 0.0
C1402 C 0.14358 0.10049 0.47411 0.0
C1403 C 0.13178 0.09757 0.48108 0.0
C1404 C 0.13218 0.09021 0.49287 0.0
C1405 C 0.14435 0.08542 0.49783 0.0
C1406 C 0.15608 0.08787 0.49059 0.0
C1407 C 0.15571 0.09541 0.4789 0.0
C1408 C 0.16601 0.13247 0.44436 0.0
C1409 C 0.17859 0.12946 0.44975 0.0
C1410 C 0.18963 0.13746 0.44687 0.0
C1411 C 0.18835 0.14859 0.43851 0.0
C1412 C 0.1758 0.1516 0.43313 0.0
C1413 C 0.1648 0.14358 0.43591 0.0
C1414 C 0.11801 0.1241 0.43956 0.0
C1415 C 0.11752 0.13279 0.4286 0.0
C1416 C 0.09849 0.92531 0.68361 0.0
C1417 C 0.10165 0.93784 0.6889 0.0
C1418 C 0.1129 0.93908 0.69713 0.0
C1419 C 0.12087 0.928 0.69996 0.0
H1420 H 0.15302 0.91425 0.72375 0.0
H1421 H 0.16622 0.91487 0.74413 0.0
H1422 H 0.16186 0.8723 0.74829 0.0
H1423 H 0.14885 0.87162 0.72784 0.0
H1424 H 0.13737 0.85535 0.70353 0.0
H1425 H 0.12962 0.83413 0.69478 0.0
H1426 H 0.10556 0.85485 0.66574 0.0
H1427 H 0.11326 0.87605 0.67446 0.0
H1428 H 0.10358 0.90474 0.68223 0.0
H1429 H 0.08952 0.92385 0.67784 0.0
H1430 H 0.1155 0.94861 0.70144 0.0
H1431 H 0.12941 0.92927 0.70643 0.0
N1432 N 0.13448 0.90386 0.70844 0.0
N1433 N 0.13816 0.8809 0.70627 0.0
N1434 N 0.12303 0.89167 0.69219 0.0
C1435 C 0.14086 0.89261 0.71247 0.0
C1436 C 0.12934 0.88036 0.69604 0.0
C1437 C 0.12552 0.90345 0.6983 0.0
C1438 C 0.1498 0.8929 0.7242 0.0
C1439 C 0.15499 0.905 0.72894 0.0
C1440 C 0.1626 0.90535 0.74059 0.0
C1441 C 0.16501 0.89364 0.74785 0.0
C1442 C 0.16012 0.8815 0.74294 0.0
C1443 C 0.15269 0.88112 0.73118 0.0
C1444 C 0.12581 0.86744 0.68983 0.0
C1445 C 0.13055 0.8554 0.69518 0.0
C1446 C 0.1261 0.84321 0.69016 0.0
C1447 C 0.11686 0.8428 0.67966 0.0
C1448 C 0.11262 0.85481 0.6739 0.0
C1449 C 0.11703 0.86699 0.67893 0.0
C1450 C 0.11771 0.91544 0.69464 0.0
C1451 C 0.10649 0.91427 0.68633 0.0
C1452 C 0.32391 0.84756 0.93366 0.0
C1453 C 0.31137 0.85054 0.93907 0.0
C1454 C 0.31008 0.86167 0.94743 0.0
C1455 C 0.32111 0.8697 0.95028 0.0
H1456 H 0.3347 0.90181 0.97419 0.0
H1457 H 0.33406 0.91487 0.99466 0.0
H1458 H 0.37673 0.91083 0.9986 0.0
H1459 H 0.37743 0.89797 0.97807 0.0
H1460 H 0.39371 0.88679 0.95365 0.0
H1461 H 0.41499 0.87926 0.94478 0.0
H1462 H 0.39432 0.85529 0.91564 0.0
H1463 H 0.37307 0.86277 0.92447 0.0
H1464 H 0.34445 0.85285 0.93221 0.0
H1465 H 0.32542 0.83868 0.92778 0.0
H1466 H 0.30054 0.86413 0.95183 0.0
H1467 H 0.31979 0.87815 0.95685 0.0
N1468 N 0.34519 0.88348 0.95872 0.0
N1469 N 0.36814 0.88737 0.95648 0.0
N1470 N 0.35743 0.87226 0.94233 0.0
C1471 C 0.35641 0.88992 0.96274 0.0
C1472 C 0.36871 0.87864 0.94618 0.0
C1473 C 0.34563 0.87461 0.94851 0.0
C1474 C 0.3561 0.89877 0.97453 0.0
C1475 C 0.34396 0.90382 0.97935 0.0
C1476 C 0.3436 0.91135 0.99105 0.0
C1477 C 0.35534 0.91381 0.99828 0.0
C1478 C 0.36751 0.90906 0.99328 0.0
C1479 C 0.3679 0.90171 0.98148 0.0
C1480 C 0.38164 0.87526 0.93991 0.0
C1481 C 0.39368 0.88004 0.94525 0.0
C1482 C 0.4059 0.87572 0.94017 0.0
C1483 C 0.40635 0.86656 0.9296 0.0
C1484 C 0.39434 0.86229 0.92384 0.0
C1485 C 0.38213 0.86656 0.92894 0.0
C1486 C 0.33368 0.86673 0.94485 0.0
C1487 C 0.3349 0.85562 0.9364 0.0
C1488 C 0.38743 0.8544 0.32488 0.0
C1489 C 0.38321 0.84239 0.31907 0.0
C1490 C 0.37398 0.84282 0.30856 0.0
C1491 C 0.36952 0.85502 0.30357 0.0
H1492 H 0.35121 0.87131 0.27096 0.0
H1493 H 0.33822 0.87204 0.2505 0.0
H1494 H 0.33373 0.91458 0.25482 0.0
H1495 H 0.34692 0.91392 0.27521 0.0
H1496 H 0.37044 0.92895 0.29265 0.0
H1497 H 0.38427 0.94831 0.29772 0.0
H1498 H 0.41035 0.92352 0.3212 0.0
H1499 H 0.39636 0.90439 0.31672 0.0
H1500 H 0.38675 0.87563 0.32438 0.0
H1501 H 0.39448 0.85443 0.33304 0.0
H1502 H 0.37049 0.83375 0.30391 0.0
H1503 H 0.36271 0.85498 0.29522 0.0
N1504 N 0.36185 0.88054 0.29257 0.0
N1505 N 0.36547 0.90352 0.2905 0.0
N1506 N 0.37694 0.8913 0.30672 0.0
C1507 C 0.35913 0.89227 0.28641 0.0
C1508 C 0.37442 0.9031 0.30065 0.0
C1509 C 0.37066 0.87999 0.30281 0.0
C1510 C 0.35019 0.89258 0.27468 0.0
C1511 C 0.34734 0.88082 0.26765 0.0
C1512 C 0.33992 0.88122 0.25589 0.0
C1513 C 0.33501 0.89337 0.25102 0.0
C1514 C 0.33738 0.90506 0.25833 0.0
C1515 C 0.34498 0.90469 0.26998 0.0
C1516 C 0.38219 0.9151 0.30436 0.0
C1517 C 0.37898 0.92767 0.29911 0.0
C1518 C 0.38691 0.93876 0.30199 0.0
C1519 C 0.39817 0.93752 0.31021 0.0
C1520 C 0.40137 0.92498 0.31544 0.0
C1521 C 0.39341 0.91393 0.31267 0.0
C1522 C 0.37423 0.86706 0.30897 0.0
C1523 C 0.383 0.86659 0.31987 0.0
C1524 C 0.32391 0.1514 0.5653 0.0
C1525 C 0.31137 0.14842 0.55989 0.0
C1526 C 0.31008 0.13729 0.55153 0.0
C1527 C 0.32111 0.12926 0.54868 0.0
H1528 H 0.3347 0.09715 0.52477 0.0
H1529 H 0.33406 0.08409 0.5043 0.0
H1530 H 0.37673 0.08813 0.50036 0.0
H1531 H 0.37743 0.10099 0.52089 0.0
H1532 H 0.39371 0.11217 0.54531 0.0
H1533 H 0.41499 0.1197 0.55418 0.0
H1534 H 0.39432 0.14367 0.58332 0.0
H1535 H 0.37307 0.13619 0.57449 0.0
H1536 H 0.34445 0.14611 0.56675 0.0
H1537 H 0.32542 0.16028 0.57118 0.0
H1538 H 0.30054 0.13483 0.54713 0.0
H1539 H 0.31979 0.12081 0.54211 0.0
N1540 N 0.34519 0.11548 0.54024 0.0
N1541 N 0.36814 0.11159 0.54248 0.0
N1542 N 0.35743 0.1267 0.55663 0.0
C1543 C 0.35641 0.10905 0.53622 0.0
C1544 C 0.36871 0.12032 0.55278 0.0
C1545 C 0.34563 0.12435 0.55045 0.0
C1546 C 0.3561 0.10019 0.52443 0.0
C1547 C 0.34396 0.09514 0.51961 0.0
C1548 C 0.3436 0.08761 0.50791 0.0
C1549 C 0.35534 0.08515 0.50069 0.0
C1550 C 0.36751 0.0899 0.50568 0.0
C1551 C 0.3679 0.09725 0.51748 0.0
C1552 C 0.38164 0.12371 0.55906 0.0
C1553 C 0.39368 0.11893 0.55371 0.0
C1554 C 0.4059 0.12324 0.55879 0.0
C1555 C 0.40635 0.1324 0.56936 0.0
C1556 C 0.39434 0.13667 0.57512 0.0
C1557 C 0.38213 0.1324 0.57002 0.0
C1558 C 0.33368 0.13223 0.55411 0.0
C1559 C 0.3349 0.14334 0.56256 0.0
C1560 C 0.09849 0.07365 0.81535 0.0
C1561 C 0.10165 0.06112 0.81006 0.0
C1562 C 0.1129 0.05988 0.80183 0.0
C1563 C 0.12087 0.07096 0.799 0.0
H1564 H 0.15302 0.08471 0.77521 0.0
H1565 H 0.16622 0.0841 0.75483 0.0
H1566 H 0.16186 0.12666 0.75068 0.0
H1567 H 0.14885 0.12734 0.77112 0.0
H1568 H 0.13737 0.14361 0.79543 0.0
H1569 H 0.12962 0.16483 0.80418 0.0
H1570 H 0.10556 0.14411 0.83322 0.0
H1571 H 0.11326 0.12291 0.8245 0.0
H1572 H 0.10358 0.09422 0.81673 0.0
H1573 H 0.08952 0.07511 0.82112 0.0
H1574 H 0.1155 0.05035 0.79752 0.0
H1575 H 0.12941 0.06969 0.79253 0.0
N1576 N 0.13448 0.0951 0.79052 0.0
N1577 N 0.13816 0.11807 0.79269 0.0
N1578 N 0.12303 0.1073 0.80678 0.0
C1579 C 0.14086 0.10635 0.78649 0.0
C1580 C 0.12934 0.1186 0.80293 0.0
C1581 C 0.12552 0.09551 0.80066 0.0
C1582 C 0.1498 0.10606 0.77476 0.0
C1583 C 0.15499 0.09396 0.77002 0.0
C1584 C 0.1626 0.09361 0.75837 0.0
C1585 C 0.16501 0.10532 0.75111 0.0
C1586 C 0.16012 0.11746 0.75603 0.0
C1587 C 0.15269 0.11784 0.76778 0.0
C1588 C 0.12581 0.13152 0.80913 0.0
C1589 C 0.13055 0.14356 0.80378 0.0
C1590 C 0.1261 0.15575 0.8088 0.0
C1591 C 0.11686 0.15616 0.8193 0.0
C1592 C 0.11262 0.14415 0.82506 0.0
C1593 C 0.11703 0.13197 0.82003 0.0
C1594 C 0.11771 0.08352 0.80432 0.0
C1595 C 0.10649 0.08469 0.81263 0.0
C1596 C 0.10531 0.86185 0.07543 0.0
C1597 C 0.09329 0.8661 0.06963 0.0
C1598 C 0.09375 0.87525 0.05907 0.0
C1599 C 0.10597 0.87961 0.05402 0.0
H1600 H 0.12225 0.89763 0.02127 0.0
H1601 H 0.12296 0.91052 0.00076 0.0
H1602 H 0.16562 0.91463 0.00478 0.0
H1603 H 0.16497 0.90155 0.02523 0.0
H1604 H 0.1799 0.87794 0.04264 0.0
H1605 H 0.19918 0.86398 0.04772 0.0
H1606 H 0.1743 0.83847 0.0717 0.0
H1607 H 0.15525 0.85259 0.06722 0.0
H1608 H 0.12657 0.8624 0.07486 0.0
H1609 H 0.10532 0.85486 0.08363 0.0
H1610 H 0.08467 0.87877 0.05442 0.0
H1611 H 0.10595 0.88636 0.04562 0.0
N1612 N 0.13152 0.88702 0.04287 0.0
N1613 N 0.15449 0.88321 0.04069 0.0
N1614 N 0.14224 0.87195 0.05705 0.0
C1615 C 0.14326 0.88961 0.03664 0.0
C1616 C 0.15405 0.87433 0.0509 0.0
C1617 C 0.13095 0.87829 0.05317 0.0
C1618 C 0.14358 0.89847 0.02486 0.0
C1619 C 0.13178 0.90139 0.01788 0.0
C1620 C 0.13218 0.90875 0.00609 0.0
C1621 C 0.14435 0.91354 0.00113 0.0
C1622 C 0.15608 0.91109 0.00837 0.0
C1623 C 0.15571 0.90355 0.02006 0.0
C1624 C 0.16601 0.86649 0.0546 0.0
C1625 C 0.17859 0.8695 0.04921 0.0
C1626 C 0.18963 0.8615 0.05209 0.0
C1627 C 0.18835 0.85037 0.06045 0.0
C1628 C 0.1758 0.84736 0.06583 0.0
C1629 C 0.1648 0.85538 0.06305 0.0
C1630 C 0.11801 0.87486 0.0594 0.0
C1631 C 0.11752 0.86617 0.07036 0.0
C1632 C 0.17415 0.3873 0.14343 0.0
C1633 C 0.17985 0.38297 0.15544 0.0
C1634 C 0.1904 0.37379 0.15501 0.0
C1635 C 0.19552 0.36947 0.14281 0.0
H1636 H 0.22827 0.35124 0.12656 0.0
H1637 H 0.24867 0.33812 0.12583 0.0
H1638 H 0.24455 0.33402 0.08324 0.0
H1639 H 0.22422 0.34733 0.0839 0.0
H1640 H 0.20715 0.37119 0.06901 0.0
H1641 H 0.2022 0.38518 0.04974 0.0
H1642 H 0.17837 0.41091 0.07456 0.0
H1643 H 0.18274 0.39676 0.09361 0.0
H1644 H 0.17484 0.38685 0.12219 0.0
H1645 H 0.16596 0.39433 0.1434 0.0
H1646 H 0.19498 0.37021 0.16409 0.0
H1647 H 0.2039 0.36268 0.14285 0.0
N1648 N 0.20672 0.36202 0.1173 0.0
N1649 N 0.20899 0.36588 0.09438 0.0
N1650 N 0.1927 0.37727 0.1066 0.0
C1651 C 0.21296 0.35941 0.10559 0.0
C1652 C 0.19886 0.37486 0.09482 0.0
C1653 C 0.19649 0.37086 0.11787 0.0
C1654 C 0.22466 0.35042 0.10527 0.0
C1655 C 0.23161 0.34743 0.11705 0.0
C1656 C 0.24334 0.33994 0.11664 0.0
C1657 C 0.24824 0.33509 0.10448 0.0
C1658 C 0.24101 0.33761 0.09277 0.0
C1659 C 0.22939 0.34528 0.09314 0.0
C1660 C 0.19526 0.38275 0.08287 0.0
C1661 C 0.20065 0.37969 0.07031 0.0
C1662 C 0.19784 0.38771 0.05927 0.0
C1663 C 0.18955 0.39891 0.06055 0.0
C1664 C 0.18419 0.40198 0.07307 0.0
C1665 C 0.1869 0.39393 0.08407 0.0
C1666 C 0.19021 0.37428 0.13078 0.0
C1667 C 0.17928 0.38303 0.13124 0.0
C1668 C 0.67415 0.11166 0.85553 0.0
C1669 C 0.67985 0.11599 0.84352 0.0
C1670 C 0.6904 0.12517 0.84395 0.0
C1671 C 0.69552 0.12949 0.85615 0.0
H1672 H 0.72827 0.14772 0.8724 0.0
H1673 H 0.74867 0.16084 0.87313 0.0
H1674 H 0.74455 0.16494 0.91572 0.0
H1675 H 0.72422 0.15163 0.91506 0.0
H1676 H 0.70715 0.12777 0.92995 0.0
H1677 H 0.7022 0.11378 0.94922 0.0
H1678 H 0.67837 0.08806 0.9244 0.0
H1679 H 0.68274 0.1022 0.90536 0.0
H1680 H 0.67484 0.11211 0.87677 0.0
H1681 H 0.66596 0.10463 0.85556 0.0
H1682 H 0.69498 0.12875 0.83487 0.0
H1683 H 0.7039 0.13628 0.85611 0.0
N1684 N 0.70672 0.13694 0.88166 0.0
N1685 N 0.70899 0.13308 0.90458 0.0
N1686 N 0.6927 0.12169 0.89237 0.0
C1687 C 0.71296 0.13955 0.89337 0.0
C1688 C 0.69886 0.1241 0.90415 0.0
C1689 C 0.69649 0.1281 0.88109 0.0
C1690 C 0.72466 0.14854 0.89369 0.0
C1691 C 0.73161 0.15153 0.88191 0.0
C1692 C 0.74334 0.15902 0.88232 0.0
C1693 C 0.74824 0.16387 0.89448 0.0
C1694 C 0.74101 0.16135 0.90619 0.0
C1695 C 0.72939 0.15368 0.90582 0.0
C1696 C 0.69526 0.11621 0.91609 0.0
C1697 C 0.70065 0.11927 0.92865 0.0
C1698 C 0.69784 0.11125 0.93969 0.0
C1699 C 0.68955 0.10005 0.93841 0.0
C1700 C 0.68419 0.09699 0.92589 0.0
C1701 C 0.6869 0.10503 0.91489 0.0
C1702 C 0.69021 0.12468 0.86818 0.0
C1703 C 0.67927 0.11594 0.86772 0.0
C1704 C 0.13743 0.42409 0.1044 0.0
C1705 C 0.13321 0.42989 0.09239 0.0
C1706 C 0.12399 0.4404 0.09282 0.0
C1707 C 0.11952 0.44539 0.10502 0.0
H1708 H 0.10121 0.478 0.12131 0.0
H1709 H 0.08822 0.49846 0.12204 0.0
H1710 H 0.08373 0.49415 0.16458 0.0
H1711 H 0.09692 0.47375 0.16392 0.0
H1712 H 0.12044 0.45632 0.17895 0.0
H1713 H 0.13427 0.45124 0.19831 0.0
H1714 H 0.16035 0.42776 0.17352 0.0
H1715 H 0.14636 0.43224 0.15439 0.0
H1716 H 0.13675 0.42458 0.12563 0.0
H1717 H 0.14448 0.41592 0.10443 0.0
H1718 H 0.12049 0.44505 0.08375 0.0
H1719 H 0.11271 0.45374 0.10498 0.0
N1720 N 0.11185 0.45639 0.13054 0.0
N1721 N 0.11547 0.45847 0.15352 0.0
N1722 N 0.12694 0.44225 0.1413 0.0
C1723 C 0.10913 0.46255 0.14227 0.0
C1724 C 0.12442 0.44831 0.1531 0.0
C1725 C 0.12066 0.44615 0.12999 0.0
C1726 C 0.10019 0.47428 0.14258 0.0
C1727 C 0.09734 0.48131 0.13081 0.0
C1728 C 0.08992 0.49307 0.13122 0.0
C1729 C 0.08501 0.49794 0.14337 0.0
C1730 C 0.08738 0.49063 0.15506 0.0
C1731 C 0.09498 0.47898 0.15469 0.0
C1732 C 0.13219 0.4446 0.1651 0.0
C1733 C 0.12898 0.44985 0.17767 0.0
C1734 C 0.13691 0.44697 0.18876 0.0
C1735 C 0.14817 0.43875 0.18752 0.0
C1736 C 0.15137 0.43352 0.17498 0.0
C1737 C 0.14341 0.43629 0.16393 0.0
C1738 C 0.12423 0.43999 0.11706 0.0
C1739 C 0.133 0.42909 0.11659 0.0
C1740 C 0.82577 0.88725 0.35505 0.0
C1741 C 0.82002 0.88298 0.34303 0.0
C1742 C 0.80946 0.87381 0.34346 0.0
C1743 C 0.80437 0.86945 0.35565 0.0
H1744 H 0.77169 0.8511 0.37194 0.0
H1745 H 0.7513 0.83798 0.37269 0.0
H1746 H 0.7555 0.83384 0.41527 0.0
H1747 H 0.77582 0.84715 0.41459 0.0
H1748 H 0.79282 0.87106 0.42947 0.0
H1749 H 0.79778 0.88505 0.44873 0.0
H1750 H 0.8217 0.9107 0.42393 0.0
H1751 H 0.81733 0.89656 0.40489 0.0
H1752 H 0.82515 0.88671 0.37628 0.0
H1753 H 0.83397 0.89425 0.35508 0.0
H1754 H 0.80484 0.87028 0.33437 0.0
H1755 H 0.79598 0.86267 0.35561 0.0
N1756 N 0.79325 0.8619 0.38117 0.0
N1757 N 0.79102 0.86572 0.40411 0.0
N1758 N 0.80728 0.87714 0.39188 0.0
C1759 C 0.78703 0.85927 0.39289 0.0
C1760 C 0.80114 0.8747 0.40367 0.0
C1761 C 0.80348 0.87074 0.3806 0.0
C1762 C 0.77535 0.85027 0.39323 0.0
C1763 C 0.76837 0.84728 0.38146 0.0
C1764 C 0.75665 0.83979 0.38188 0.0
C1765 C 0.75177 0.83493 0.39404 0.0
C1766 C 0.75902 0.83743 0.40574 0.0
C1767 C 0.77064 0.84511 0.40535 0.0
C1768 C 0.80476 0.88258 0.41562 0.0
C1769 C 0.79935 0.87954 0.42817 0.0
C1770 C 0.80217 0.88756 0.43921 0.0
C1771 C 0.81048 0.89874 0.43793 0.0
C1772 C 0.81586 0.90179 0.42542 0.0
C1773 C 0.81315 0.89374 0.41442 0.0
C1774 C 0.80972 0.8742 0.36769 0.0
C1775 C 0.82068 0.88293 0.36723 0.0
C1776 C 0.84849 0.06535 0.17531 0.0
C1777 C 0.85165 0.06006 0.18784 0.0
C1778 C 0.8629 0.05183 0.18908 0.0
C1779 C 0.87087 0.049 0.178 0.0
H1780 H 0.90302 0.02521 0.16425 0.0
H1781 H 0.91622 0.00483 0.16487 0.0
H1782 H 0.91186 0.00068 0.1223 0.0
H1783 H 0.89885 0.02112 0.12162 0.0
H1784 H 0.88737 0.04543 0.10535 0.0
H1785 H 0.87962 0.05418 0.08413 0.0
H1786 H 0.85556 0.08322 0.10485 0.0
H1787 H 0.86326 0.0745 0.12605 0.0
H1788 H 0.85358 0.06673 0.15474 0.0
H1789 H 0.83952 0.07112 0.17385 0.0
H1790 H 0.8655 0.04752 0.19861 0.0
H1791 H 0.87941 0.04253 0.17928 0.0
N1792 N 0.88448 0.04052 0.15386 0.0
N1793 N 0.88816 0.04269 0.1309 0.0
N1794 N 0.87303 0.05678 0.14167 0.0
C1795 C 0.89086 0.03649 0.14261 0.0
C1796 C 0.87935 0.05293 0.13036 0.0
C1797 C 0.87552 0.05066 0.15345 0.0
C1798 C 0.8998 0.02476 0.1429 0.0
C1799 C 0.90499 0.02002 0.155 0.0
C1800 C 0.9126 0.00837 0.15535 0.0
C1801 C 0.91501 0.00111 0.14364 0.0
C1802 C 0.91012 0.00603 0.1315 0.0
C1803 C 0.90269 0.01778 0.13112 0.0
C1804 C 0.87581 0.05913 0.11745 0.0
C1805 C 0.88055 0.05378 0.1054 0.0
C1806 C 0.8761 0.0588 0.09321 0.0
C1807 C 0.86686 0.0693 0.0928 0.0
C1808 C 0.86262 0.07506 0.10481 0.0
C1809 C 0.86703 0.07003 0.11699 0.0
C1810 C 0.86771 0.05432 0.16544 0.0
C1811 C 0.85649 0.06263 0.16428 0.0
C1812 C 0.32577 0.61172 0.64391 0.0
C1813 C 0.32002 0.61598 0.65593 0.0
C1814 C 0.30946 0.62515 0.6555 0.0
C1815 C 0.30437 0.62951 0.64331 0.0
H1816 H 0.27169 0.64786 0.62702 0.0
H1817 H 0.2513 0.66098 0.62627 0.0
H1818 H 0.2555 0.66512 0.58369 0.0
H1819 H 0.27582 0.65181 0.58437 0.0
H1820 H 0.29282 0.6279 0.56949 0.0
H1821 H 0.29778 0.61391 0.55023 0.0
H1822 H 0.3217 0.58826 0.57503 0.0
H1823 H 0.31733 0.6024 0.59407 0.0
H1824 H 0.32515 0.61225 0.62268 0.0
H1825 H 0.33397 0.60471 0.64388 0.0
H1826 H 0.30484 0.62868 0.66459 0.0
H1827 H 0.29598 0.63629 0.64335 0.0
N1828 N 0.29325 0.63706 0.61779 0.0
N1829 N 0.29102 0.63324 0.59485 0.0
N1830 N 0.30728 0.62182 0.60708 0.0
C1831 C 0.28703 0.63969 0.60607 0.0
C1832 C 0.30114 0.62426 0.59529 0.0
C1833 C 0.30348 0.62822 0.61836 0.0
C1834 C 0.27535 0.64869 0.60573 0.0
C1835 C 0.26837 0.65168 0.6175 0.0
C1836 C 0.25665 0.65918 0.61708 0.0
C1837 C 0.25177 0.66404 0.60492 0.0
C1838 C 0.25902 0.66153 0.59322 0.0
C1839 C 0.27064 0.65385 0.59361 0.0
C1840 C 0.30476 0.61638 0.58334 0.0
C1841 C 0.29935 0.61942 0.57079 0.0
C1842 C 0.30217 0.6114 0.55975 0.0
C1843 C 0.31048 0.60022 0.56103 0.0
C1844 C 0.31586 0.59717 0.57354 0.0
C1845 C 0.31315 0.60522 0.58454 0.0
C1846 C 0.30972 0.62476 0.63127 0.0
C1847 C 0.32068 0.61604 0.63173 0.0
C1848 C 0.13743 0.57487 0.39456 0.0
C1849 C 0.13321 0.56907 0.40657 0.0
C1850 C 0.12398 0.55856 0.40614 0.0
C1851 C 0.11952 0.55357 0.39394 0.0
H1852 H 0.10121 0.52096 0.37765 0.0
H1853 H 0.08822 0.5005 0.37692 0.0
H1854 H 0.08373 0.50482 0.33438 0.0
H1855 H 0.09692 0.52521 0.33504 0.0
H1856 H 0.12044 0.54265 0.32001 0.0
H1857 H 0.13427 0.54772 0.30065 0.0
H1858 H 0.16035 0.5712 0.32544 0.0
H1859 H 0.14636 0.56672 0.34458 0.0
H1860 H 0.13675 0.57438 0.37333 0.0
H1861 H 0.14448 0.58304 0.39453 0.0
H1862 H 0.12049 0.55391 0.41521 0.0
H1863 H 0.11271 0.54522 0.39398 0.0
N1864 N 0.11185 0.54257 0.36842 0.0
N1865 N 0.11547 0.5405 0.34544 0.0
N1866 N 0.12694 0.55672 0.35767 0.0
C1867 C 0.10913 0.53641 0.35669 0.0
C1868 C 0.12442 0.55065 0.34586 0.0
C1869 C 0.12066 0.55281 0.36898 0.0
C1870 C 0.10019 0.52468 0.35638 0.0
C1871 C 0.09734 0.51765 0.36815 0.0
C1872 C 0.08992 0.50589 0.36774 0.0
C1873 C 0.08501 0.50102 0.35559 0.0
C1874 C 0.08738 0.50833 0.3439 0.0
C1875 C 0.09498 0.51998 0.34427 0.0
C1876 C 0.13219 0.55436 0.33386 0.0
C1877 C 0.12898 0.54911 0.32129 0.0
C1878 C 0.13691 0.55199 0.3102 0.0
C1879 C 0.14817 0.56021 0.31144 0.0
C1880 C 0.15137 0.56544 0.32398 0.0
C1881 C 0.14341 0.56267 0.33503 0.0
C1882 C 0.12423 0.55897 0.3819 0.0
C1883 C 0.133 0.56987 0.38237 0.0
C1884 C 0.34849 0.43361 0.82365 0.0
C1885 C 0.35165 0.4389 0.81112 0.0
C1886 C 0.3629 0.44713 0.80988 0.0
C1887 C 0.37087 0.44996 0.82096 0.0
H1888 H 0.40302 0.47375 0.83471 0.0
H1889 H 0.41622 0.49413 0.83409 0.0
H1890 H 0.41186 0.49828 0.87666 0.0
H1891 H 0.39885 0.47784 0.87734 0.0
H1892 H 0.38737 0.45353 0.89361 0.0
H1893 H 0.37962 0.44478 0.91483 0.0
H1894 H 0.35556 0.41574 0.89411 0.0
H1895 H 0.36326 0.42446 0.87291 0.0
H1896 H 0.35358 0.43223 0.84422 0.0
H1897 H 0.33952 0.42784 0.82511 0.0
H1898 H 0.3655 0.45144 0.80035 0.0
H1899 H 0.37941 0.45643 0.81969 0.0
N1900 N 0.38448 0.45844 0.8451 0.0
N1901 N 0.38816 0.45627 0.86806 0.0
N1902 N 0.37303 0.44218 0.85729 0.0
C1903 C 0.39086 0.46247 0.85635 0.0
C1904 C 0.37935 0.44603 0.8686 0.0
C1905 C 0.37552 0.4483 0.84551 0.0
C1906 C 0.3998 0.4742 0.85606 0.0
C1907 C 0.40499 0.47894 0.84396 0.0
C1908 C 0.4126 0.49059 0.84361 0.0
C1909 C 0.41501 0.49785 0.85532 0.0
C1910 C 0.41012 0.49294 0.86746 0.0
C1911 C 0.40269 0.48118 0.86784 0.0
C1912 C 0.37581 0.43983 0.88152 0.0
C1913 C 0.38055 0.44518 0.89356 0.0
C1914 C 0.3761 0.44016 0.90575 0.0
C1915 C 0.36686 0.42966 0.90616 0.0
C1916 C 0.36262 0.4239 0.89415 0.0
C1917 C 0.36703 0.42893 0.88197 0.0
C1918 C 0.36771 0.44464 0.83352 0.0
C1919 C 0.35649 0.43633 0.83469 0.0
C1920 C 0.85692 0.82895 0.63592 0.0
C1921 C 0.8472 0.81888 0.63588 0.0
C1922 C 0.85128 0.80555 0.63721 0.0
C1923 C 0.86486 0.80236 0.63797 0.0
H1924 H 0.89418 0.77463 0.65296 0.0
H1925 H 0.9041 0.75494 0.66317 0.0
H1926 H 0.94318 0.76827 0.651 0.0
H1927 H 0.93338 0.78782 0.64081 0.0
H1928 H 0.93399 0.80826 0.61571 0.0
H1929 H 0.94698 0.82177 0.60028 0.0
H1930 H 0.91823 0.85358 0.60408 0.0
H1931 H 0.9052 0.84006 0.61936 0.0
H1932 H 0.87766 0.83375 0.63597 0.0
H1933 H 0.85416 0.83932 0.63496 0.0
H1934 H 0.84402 0.79758 0.63726 0.0
H1935 H 0.86777 0.79199 0.63853 0.0
N1936 N 0.89397 0.79788 0.64141 0.0
N1937 N 0.91501 0.8032 0.63266 0.0
N1938 N 0.89695 0.81741 0.62893 0.0
C1939 C 0.90713 0.79491 0.63989 0.0
C1940 C 0.91001 0.81444 0.62714 0.0
C1941 C 0.88887 0.80919 0.636 0.0
C1942 C 0.91296 0.78284 0.64604 0.0
C1943 C 0.90489 0.77336 0.65246 0.0
C1944 C 0.91057 0.76206 0.6583 0.0
C1945 C 0.92443 0.76006 0.65791 0.0
C1946 C 0.93247 0.76952 0.6515 0.0
C1947 C 0.92681 0.78074 0.64562 0.0
C1948 C 0.91849 0.82304 0.61869 0.0
C1949 C 0.93051 0.81818 0.61336 0.0
C1950 C 0.93794 0.82591 0.60448 0.0
C1951 C 0.93361 0.83872 0.6009 0.0
C1952 C 0.92186 0.84375 0.60663 0.0
C1953 C 0.91435 0.83597 0.61536 0.0
C1954 C 0.87455 0.81243 0.63718 0.0
C1955 C 0.87042 0.82575 0.63645 0.0
C1956 C 0.92051 0.10644 0.38688 0.0
C1957 C 0.93062 0.09675 0.38678 0.0
C1958 C 0.94395 0.10086 0.38807 0.0
C1959 C 0.94712 0.11443 0.38885 0.0
H1960 H 0.97501 0.14373 0.4035 0.0
H1961 H 0.99486 0.15365 0.41343 0.0
H1962 H 0.98134 0.19267 0.40141 0.0
H1963 H 0.96163 0.18287 0.3915 0.0
H1964 H 0.94094 0.18349 0.36669 0.0
H1965 H 0.92734 0.19641 0.35128 0.0
H1966 H 0.89558 0.16763 0.35518 0.0
H1967 H 0.90918 0.15466 0.37044 0.0
H1968 H 0.91565 0.12713 0.38698 0.0
H1969 H 0.91012 0.10365 0.38596 0.0
H1970 H 0.95196 0.09363 0.38807 0.0
H1971 H 0.95749 0.11736 0.38936 0.0
N1972 N 0.95158 0.1435 0.39222 0.0
N1973 N 0.94616 0.16451 0.38353 0.0
N1974 N 0.93191 0.14646 0.37993 0.0
C1975 C 0.95453 0.15664 0.39068 0.0
C1976 C 0.93485 0.15951 0.37811 0.0
C1977 C 0.94021 0.13839 0.38692 0.0
C1978 C 0.96669 0.16247 0.39668 0.0
C1979 C 0.97627 0.15442 0.40297 0.0
C1980 C 0.98766 0.1601 0.40865 0.0
C1981 C 0.98966 0.17394 0.40822 0.0
C1982 C 0.9801 0.18197 0.40194 0.0
C1983 C 0.96878 0.17631 0.39622 0.0
C1984 C 0.92619 0.16798 0.36972 0.0
C1985 C 0.931 0.17999 0.36437 0.0
C1986 C 0.92323 0.18739 0.35551 0.0
C1987 C 0.91041 0.18302 0.35195 0.0
C1988 C 0.90541 0.17128 0.35771 0.0
C1989 C 0.91324 0.16381 0.36643 0.0
C1990 C 0.93701 0.12409 0.3881 0.0
C1991 C 0.92367 0.11993 0.38742 0.0
C1992 C 0.57812 0.1556 0.10685 0.0
C1993 C 0.56638 0.16064 0.10109 0.0
C1994 C 0.56206 0.17346 0.10464 0.0
C1995 C 0.56949 0.18119 0.11351 0.0
H1996 H 0.56662 0.21161 0.14089 0.0
H1997 H 0.55682 0.23118 0.15102 0.0
H1998 H 0.59589 0.24452 0.16321 0.0
H1999 H 0.60581 0.22479 0.15306 0.0
H2000 H 0.63223 0.20736 0.13871 0.0
H2001 H 0.65598 0.20173 0.13749 0.0
H2002 H 0.64578 0.15999 0.1353 0.0
H2003 H 0.62229 0.16561 0.13625 0.0
H2004 H 0.59477 0.1593 0.11959 0.0
H2005 H 0.58174 0.14576 0.10432 0.0
H2006 H 0.55304 0.1776 0.10042 0.0
H2007 H 0.56602 0.19113 0.11583 0.0
N2008 N 0.58498 0.1962 0.1328 0.0
N2009 N 0.60601 0.20151 0.14158 0.0
N2010 N 0.60303 0.18195 0.12913 0.0
C2011 C 0.59286 0.20449 0.14003 0.0
C2012 C 0.61111 0.19018 0.1362 0.0
C2013 C 0.58998 0.18493 0.12731 0.0
C2014 C 0.58703 0.21658 0.14614 0.0
C2015 C 0.57318 0.21869 0.14569 0.0
C2016 C 0.56752 0.22993 0.15154 0.0
C2017 C 0.57556 0.2394 0.15793 0.0
C2018 C 0.58942 0.23739 0.15835 0.0
C2019 C 0.5951 0.22607 0.15254 0.0
C2020 C 0.62542 0.18692 0.1374 0.0
C2021 C 0.63513 0.19698 0.13819 0.0
C2022 C 0.6487 0.19377 0.13746 0.0
C2023 C 0.65276 0.18043 0.13617 0.0
C2024 C 0.64303 0.17038 0.13622 0.0
C2025 C 0.62953 0.17359 0.13672 0.0
C2026 C 0.5815 0.17634 0.11887 0.0
C2027 C 0.58563 0.16339 0.11557 0.0
C2028 C 0.57968 0.89269 0.88707 0.0
C2029 C 0.56961 0.90241 0.88698 0.0
C2030 C 0.55626 0.89837 0.88829 0.0
C2031 C 0.55304 0.88481 0.88906 0.0
H2032 H 0.52498 0.85565 0.90361 0.0
H2033 H 0.50506 0.84582 0.91351 0.0
H2034 H 0.51844 0.80674 0.90155 0.0
H2035 H 0.53821 0.81644 0.89167 0.0
H2036 H 0.55882 0.81587 0.86664 0.0
H2037 H 0.57237 0.80293 0.8512 0.0
H2038 H 0.60443 0.83131 0.85555 0.0
H2039 H 0.59088 0.8443 0.87085 0.0
H2040 H 0.58445 0.87197 0.88717 0.0
H2041 H 0.59007 0.89543 0.88613 0.0
H2042 H 0.54828 0.90563 0.8883 0.0
H2043 H 0.54265 0.88192 0.88959 0.0
N2044 N 0.54844 0.85576 0.8924 0.0
N2045 N 0.55376 0.83473 0.88369 0.0
N2046 N 0.56811 0.85271 0.88013 0.0
C2047 C 0.54542 0.84263 0.89084 0.0
C2048 C 0.5651 0.83968 0.8783 0.0
C2049 C 0.55984 0.86081 0.88712 0.0
C2050 C 0.53323 0.83686 0.89682 0.0
C2051 C 0.52367 0.84496 0.90309 0.0
C2052 C 0.51224 0.83934 0.90875 0.0
C2053 C 0.51019 0.8255 0.90833 0.0
C2054 C 0.51973 0.81743 0.90207 0.0
C2055 C 0.53108 0.82303 0.89637 0.0
C2056 C 0.57373 0.83119 0.8699 0.0
C2057 C 0.56881 0.81928 0.86442 0.0
C2058 C 0.57656 0.81187 0.85553 0.0
C2059 C 0.58944 0.81613 0.85209 0.0
C2060 C 0.59455 0.82775 0.85799 0.0
C2061 C 0.58675 0.83524 0.86673 0.0
C2062 C 0.56311 0.87511 0.88831 0.0
C2063 C 0.57646 0.87921 0.88761 0.0
C2064 C 0.85692 0.17001 0.86304 0.0
C2065 C 0.8472 0.18008 0.86308 0.0
C2066 C 0.85128 0.19341 0.86175 0.0
C2067 C 0.86486 0.1966 0.86099 0.0
H2068 H 0.89418 0.22433 0.846 0.0
H2069 H 0.9041 0.24402 0.83579 0.0
H2070 H 0.94318 0.23069 0.84796 0.0
H2071 H 0.93338 0.21114 0.85816 0.0
H2072 H 0.93399 0.19071 0.88325 0.0
H2073 H 0.94698 0.17719 0.89868 0.0
H2074 H 0.91823 0.14538 0.89488 0.0
H2075 H 0.9052 0.1589 0.8796 0.0
H2076 H 0.87766 0.16521 0.86299 0.0
H2077 H 0.85416 0.15964 0.864 0.0
H2078 H 0.84402 0.20138 0.86171 0.0
H2079 H 0.86777 0.20697 0.86043 0.0
N2080 N 0.89397 0.20108 0.85755 0.0
N2081 N 0.91501 0.19576 0.8663 0.0
N2082 N 0.89695 0.18155 0.87003 0.0
C2083 C 0.90712 0.20405 0.85907 0.0
C2084 C 0.91 0.18452 0.87182 0.0
C2085 C 0.88886 0.18977 0.86296 0.0
C2086 C 0.91296 0.21612 0.85292 0.0
C2087 C 0.90489 0.2256 0.8465 0.0
C2088 C 0.91057 0.2369 0.84066 0.0
C2089 C 0.92443 0.2389 0.84105 0.0
C2090 C 0.93247 0.22944 0.84746 0.0
C2091 C 0.92681 0.21822 0.85334 0.0
C2092 C 0.91849 0.17592 0.88027 0.0
C2093 C 0.93051 0.18078 0.8856 0.0
C2094 C 0.93794 0.17305 0.89448 0.0
C2095 C 0.93361 0.16024 0.89806 0.0
C2096 C 0.92186 0.15521 0.89233 0.0
C2097 C 0.91435 0.16299 0.8836 0.0
C2098 C 0.87455 0.18653 0.86179 0.0
C2099 C 0.87042 0.17321 0.86252 0.0
C2100 C 0.57968 0.10627 0.61189 0.0
C2101 C 0.56961 0.09655 0.61198 0.0
C2102 C 0.55626 0.10059 0.61067 0.0
C2103 C 0.55304 0.11415 0.6099 0.0
H2104 H 0.52498 0.14331 0.59535 0.0
H2105 H 0.50506 0.15314 0.58545 0.0
H2106 H 0.51844 0.19222 0.59741 0.0
H2107 H 0.53821 0.18252 0.60729 0.0
H2108 H 0.55882 0.18309 0.63232 0.0
H2109 H 0.57237 0.19603 0.64776 0.0
H2110 H 0.60443 0.16765 0.64341 0.0
H2111 H 0.59088 0.15466 0.62811 0.0
H2112 H 0.58445 0.12699 0.6118 0.0
H2113 H 0.59007 0.10353 0.61283 0.0
H2114 H 0.54828 0.09333 0.61066 0.0
H2115 H 0.54265 0.11704 0.60937 0.0
N2116 N 0.54844 0.1432 0.60656 0.0
N2117 N 0.55376 0.16423 0.61527 0.0
N2118 N 0.56811 0.14625 0.61883 0.0
C2119 C 0.54542 0.15633 0.60812 0.0
C2120 C 0.5651 0.15928 0.62066 0.0
C2121 C 0.55984 0.13815 0.61184 0.0
C2122 C 0.53323 0.1621 0.60214 0.0
C2123 C 0.52367 0.154 0.59587 0.0
C2124 C 0.51224 0.15963 0.59021 0.0
C2125 C 0.51019 0.17346 0.59063 0.0
C2126 C 0.51973 0.18153 0.59689 0.0
C2127 C 0.53108 0.17593 0.60259 0.0
C2128 C 0.57373 0.16777 0.62906 0.0
C2129 C 0.56881 0.17969 0.63454 0.0
C2130 C 0.57656 0.18709 0.64343 0.0
C2131 C 0.58944 0.18283 0.64687 0.0
C2132 C 0.59455 0.17121 0.64097 0.0
C2133 C 0.58675 0.16373 0.63223 0.0
C2134 C 0.56311 0.12385 0.61065 0.0
C2135 C 0.57646 0.11975 0.61135 0.0
C2136 C 0.57812 0.84336 0.39211 0.0
C2137 C 0.56638 0.83832 0.39787 0.0
C2138 C 0.56206 0.8255 0.39432 0.0
C2139 C 0.56949 0.81777 0.38545 0.0
H2140 H 0.56662 0.78735 0.35807 0.0
H2141 H 0.55682 0.76778 0.34794 0.0
H2142 H 0.59589 0.75444 0.33575 0.0
H2143 H 0.60581 0.77417 0.3459 0.0
H2144 H 0.63223 0.79161 0.36025 0.0
H2145 H 0.65598 0.79723 0.36147 0.0
H2146 H 0.64578 0.83897 0.36366 0.0
H2147 H 0.62229 0.83335 0.36271 0.0
H2148 H 0.59477 0.83966 0.37937 0.0
H2149 H 0.58174 0.8532 0.39464 0.0
H2150 H 0.55304 0.82136 0.39854 0.0
H2151 H 0.56602 0.80783 0.38313 0.0
N2152 N 0.58498 0.80276 0.36616 0.0
N2153 N 0.60601 0.79746 0.35739 0.0
N2154 N 0.60303 0.81701 0.36983 0.0
C2155 C 0.59287 0.79447 0.35893 0.0
C2156 C 0.61111 0.80878 0.36276 0.0
C2157 C 0.58998 0.81403 0.37165 0.0
C2158 C 0.58703 0.78238 0.35282 0.0
C2159 C 0.57318 0.78028 0.35327 0.0
C2160 C 0.56752 0.76903 0.34742 0.0
C2161 C 0.57557 0.75956 0.34103 0.0
C2162 C 0.58942 0.76157 0.34061 0.0
C2163 C 0.5951 0.77289 0.34642 0.0
C2164 C 0.62542 0.81204 0.36156 0.0
C2165 C 0.63513 0.80198 0.36077 0.0
C2166 C 0.6487 0.80519 0.36151 0.0
C2167 C 0.65276 0.81853 0.36279 0.0
C2168 C 0.64303 0.82858 0.36274 0.0
C2169 C 0.62953 0.82537 0.36224 0.0
C2170 C 0.5815 0.82263 0.38009 0.0
C2171 C 0.58563 0.83557 0.38339 0.0
C2172 C 0.92051 0.89252 0.11208 0.0
C2173 C 0.93062 0.90221 0.11218 0.0
C2174 C 0.94395 0.8981 0.11089 0.0
C2175 C 0.94712 0.88453 0.11012 0.0
H2176 H 0.97501 0.85523 0.09547 0.0
H2177 H 0.99486 0.84531 0.08553 0.0
H2178 H 0.98134 0.8063 0.09755 0.0
H2179 H 0.96163 0.81609 0.10746 0.0
H2180 H 0.94094 0.81547 0.13227 0.0
H2181 H 0.92734 0.80255 0.14768 0.0
H2182 H 0.89558 0.83133 0.14378 0.0
H2183 H 0.90918 0.8443 0.12852 0.0
H2184 H 0.91565 0.87183 0.11198 0.0
H2185 H 0.91012 0.89531 0.11301 0.0
H2186 H 0.95196 0.90533 0.11089 0.0
H2187 H 0.95749 0.8816 0.1096 0.0
N2188 N 0.95158 0.85546 0.10674 0.0
N2189 N 0.94616 0.83445 0.11543 0.0
N2190 N 0.93191 0.8525 0.11903 0.0
C2191 C 0.95453 0.84232 0.10828 0.0
C2192 C 0.93485 0.83945 0.12085 0.0
C2193 C 0.94021 0.86057 0.11204 0.0
C2194 C 0.96669 0.83649 0.10228 0.0
C2195 C 0.97627 0.84454 0.09599 0.0
C2196 C 0.98766 0.83886 0.09031 0.0
C2197 C 0.98966 0.82502 0.09074 0.0
C2198 C 0.9801 0.81699 0.09702 0.0
C2199 C 0.96878 0.82265 0.10274 0.0
C2200 C 0.92619 0.83099 0.12924 0.0
C2201 C 0.931 0.81897 0.13459 0.0
C2202 C 0.92323 0.81157 0.14345 0.0
C2203 C 0.91041 0.81594 0.14701 0.0
C2204 C 0.90541 0.82768 0.14125 0.0
C2205 C 0.91324 0.83515 0.13253 0.0
C2206 C 0.93701 0.87488 0.11086 0.0
C2207 C 0.92367 0.87903 0.11154 0.0
C2208 C 0.63681 0.85683 0.82933 0.0
C2209 C 0.63666 0.84705 0.81933 0.0
C2210 C 0.6378 0.85103 0.80596 0.0
C2211 C 0.63845 0.86457 0.80266 0.0
H2212 H 0.65281 0.8937 0.77447 0.0
H2213 H 0.66268 0.9035 0.75454 0.0
H2214 H 0.65039 0.94256 0.76768 0.0
H2215 H 0.64054 0.93289 0.78746 0.0
H2216 H 0.61572 0.93345 0.80836 0.0
H2217 H 0.60039 0.94639 0.82204 0.0
H2218 H 0.60525 0.91814 0.85411 0.0
H2219 H 0.62043 0.90515 0.84043 0.0
H2220 H 0.63684 0.87757 0.83398 0.0
H2221 H 0.63601 0.85414 0.83974 0.0
H2222 H 0.63776 0.84372 0.79803 0.0
H2223 H 0.63885 0.86741 0.79227 0.0
N2224 N 0.64162 0.89363 0.7979 0.0
N2225 N 0.63285 0.91464 0.80319 0.0
N2226 N 0.62949 0.8967 0.81763 0.0
C2227 C 0.63997 0.90673 0.79484 0.0
C2228 C 0.62757 0.9097 0.81459 0.0
C2229 C 0.63645 0.88859 0.80935 0.0
C2230 C 0.64587 0.91248 0.7826 0.0
C2231 C 0.65221 0.90438 0.7731 0.0
C2232 C 0.65785 0.90999 0.76167 0.0
C2233 C 0.65733 0.92381 0.75955 0.0
C2234 C 0.65099 0.93188 0.76902 0.0
C2235 C 0.6453 0.9263 0.78038 0.0
C2236 C 0.61922 0.9182 0.82326 0.0
C2237 C 0.61363 0.93007 0.81838 0.0
C2238 C 0.60481 0.93748 0.8262 0.0
C2239 C 0.60154 0.93326 0.83913 0.0
C2240 C 0.60755 0.92168 0.84419 0.0
C2241 C 0.61622 0.91419 0.83632 0.0
C2242 C 0.63775 0.87432 0.81267 0.0
C2243 C 0.63723 0.87029 0.82604 0.0
C2244 C 0.82812 0.85685 0.59336 0.0
C2245 C 0.81638 0.85109 0.58832 0.0
C2246 C 0.81206 0.85464 0.5755 0.0
C2247 C 0.81949 0.86351 0.56777 0.0
H2248 H 0.81662 0.89089 0.53735 0.0
H2249 H 0.80682 0.90102 0.51778 0.0
H2250 H 0.84589 0.91321 0.50444 0.0
H2251 H 0.85581 0.90306 0.52417 0.0
H2252 H 0.88223 0.88871 0.54161 0.0
H2253 H 0.90598 0.88749 0.54723 0.0
H2254 H 0.89578 0.8853 0.58897 0.0
H2255 H 0.87229 0.88625 0.58335 0.0
H2256 H 0.84477 0.86959 0.58966 0.0
H2257 H 0.83174 0.85432 0.6032 0.0
H2258 H 0.80304 0.85042 0.57136 0.0
H2259 H 0.81602 0.86583 0.55783 0.0
N2260 N 0.83498 0.8828 0.55276 0.0
N2261 N 0.85601 0.89158 0.54746 0.0
N2262 N 0.85303 0.87913 0.56701 0.0
C2263 C 0.84287 0.89003 0.54447 0.0
C2264 C 0.86111 0.8862 0.55878 0.0
C2265 C 0.83998 0.87731 0.56403 0.0
C2266 C 0.83703 0.89614 0.53238 0.0
C2267 C 0.82318 0.89569 0.53028 0.0
C2268 C 0.81752 0.90154 0.51903 0.0
C2269 C 0.82557 0.90793 0.50956 0.0
C2270 C 0.83942 0.90835 0.51157 0.0
C2271 C 0.8451 0.90254 0.52289 0.0
C2272 C 0.87542 0.8874 0.56204 0.0
C2273 C 0.88513 0.88819 0.55198 0.0
C2274 C 0.8987 0.88746 0.55519 0.0
C2275 C 0.90276 0.88617 0.56853 0.0
C2276 C 0.89303 0.88622 0.57858 0.0
C2277 C 0.87953 0.88672 0.57537 0.0
C2278 C 0.8315 0.86887 0.57263 0.0
C2279 C 0.83563 0.86557 0.58557 0.0
C2280 C 0.89269 0.07745 0.34408 0.0
C2281 C 0.89859 0.0658 0.33905 0.0
C2282 C 0.89518 0.0615 0.32619 0.0
C2283 C 0.88632 0.06889 0.31839 0.0
H2284 H 0.85932 0.06601 0.28761 0.0
H2285 H 0.84941 0.05626 0.2679 0.0
H2286 H 0.83701 0.09526 0.25469 0.0
H2287 H 0.84694 0.10513 0.27455 0.0
H2288 H 0.86098 0.13151 0.29222 0.0
H2289 H 0.86204 0.15521 0.29794 0.0
H2290 H 0.86395 0.14489 0.33966 0.0
H2291 H 0.86315 0.12144 0.33395 0.0
H2292 H 0.87984 0.094 0.34032 0.0
H2293 H 0.8951 0.08105 0.35396 0.0
H2294 H 0.89952 0.05254 0.32205 0.0
H2295 H 0.88412 0.06545 0.30842 0.0
N2296 N 0.86708 0.08431 0.30324 0.0
N2297 N 0.85824 0.10529 0.29793 0.0
N2298 N 0.87049 0.1023 0.31761 0.0
C2299 C 0.8599 0.09219 0.29491 0.0
C2300 C 0.86347 0.11037 0.30934 0.0
C2301 C 0.87242 0.08929 0.31459 0.0
C2302 C 0.85394 0.08639 0.28271 0.0
C2303 C 0.85452 0.07257 0.28053 0.0
C2304 C 0.8488 0.06694 0.26921 0.0
C2305 C 0.84241 0.07498 0.25974 0.0
C2306 C 0.84188 0.0888 0.26182 0.0
C2307 C 0.84756 0.09445 0.27322 0.0
C2308 C 0.86216 0.12464 0.31264 0.0
C2309 C 0.8614 0.13437 0.30261 0.0
C2310 C 0.86204 0.14792 0.30587 0.0
C2311 C 0.86321 0.15193 0.31924 0.0
C2312 C 0.86312 0.14217 0.32926 0.0
C2313 C 0.86271 0.1287 0.32599 0.0
C2314 C 0.88083 0.08082 0.32324 0.0
C2315 C 0.88397 0.08492 0.33624 0.0
C2316 C 0.60692 0.11304 0.07895 0.0
C2317 C 0.5972 0.11308 0.06888 0.0
C2318 C 0.60128 0.11175 0.05555 0.0
C2319 C 0.61486 0.11099 0.05236 0.0
H2320 H 0.64418 0.096 0.02463 0.0
H2321 H 0.6541 0.08579 0.00494 0.0
H2322 H 0.69318 0.09796 0.01827 0.0
H2323 H 0.68338 0.10816 0.03782 0.0
H2324 H 0.68399 0.13325 0.05825 0.0
H2325 H 0.69698 0.14868 0.07177 0.0
H2326 H 0.66823 0.14488 0.10358 0.0
H2327 H 0.6552 0.1296 0.09006 0.0
H2328 H 0.62766 0.11299 0.08375 0.0
H2329 H 0.60416 0.114 0.08932 0.0
H2330 H 0.59402 0.11171 0.04758 0.0
H2331 H 0.61777 0.11043 0.04199 0.0
N2332 N 0.64397 0.10755 0.04788 0.0
N2333 N 0.66501 0.1163 0.0532 0.0
N2334 N 0.64695 0.12003 0.06741 0.0
C2335 C 0.65712 0.10907 0.04491 0.0
C2336 C 0.66001 0.12182 0.06444 0.0
C2337 C 0.63887 0.11296 0.05919 0.0
C2338 C 0.66296 0.10292 0.03284 0.0
C2339 C 0.65489 0.0965 0.02336 0.0
C2340 C 0.66057 0.09066 0.01206 0.0
C2341 C 0.67443 0.09105 0.01006 0.0
C2342 C 0.68247 0.09746 0.01952 0.0
C2343 C 0.67681 0.10334 0.03075 0.0
C2344 C 0.66849 0.13027 0.07304 0.0
C2345 C 0.68051 0.1356 0.06818 0.0
C2346 C 0.68794 0.14448 0.07591 0.0
C2347 C 0.68361 0.14806 0.08872 0.0
C2348 C 0.67186 0.14233 0.09375 0.0
C2349 C 0.66435 0.1336 0.08597 0.0
C2350 C 0.62455 0.11179 0.06243 0.0
C2351 C 0.62042 0.11252 0.07575 0.0
C2352 C 0.63681 0.14213 0.66963 0.0
C2353 C 0.63666 0.15191 0.67963 0.0
C2354 C 0.6378 0.14793 0.693 0.0
C2355 C 0.63845 0.13439 0.6963 0.0
H2356 H 0.65281 0.10526 0.72449 0.0
H2357 H 0.66268 0.09546 0.74442 0.0
H2358 H 0.65039 0.0564 0.73128 0.0
H2359 H 0.64054 0.06608 0.7115 0.0
H2360 H 0.61572 0.06551 0.6906 0.0
H2361 H 0.60039 0.05257 0.67692 0.0
H2362 H 0.60525 0.08082 0.64485 0.0
H2363 H 0.62043 0.09381 0.65853 0.0
H2364 H 0.63684 0.12139 0.66498 0.0
H2365 H 0.63601 0.14482 0.65922 0.0
H2366 H 0.63776 0.15524 0.70093 0.0
H2367 H 0.63885 0.13155 0.7067 0.0
N2368 N 0.64162 0.10533 0.70107 0.0
N2369 N 0.63285 0.08433 0.69577 0.0
N2370 N 0.62949 0.10226 0.68133 0.0
C2371 C 0.63997 0.09223 0.70412 0.0
C2372 C 0.62757 0.08926 0.68437 0.0
C2373 C 0.63645 0.11037 0.68961 0.0
C2374 C 0.64587 0.08648 0.71636 0.0
C2375 C 0.65221 0.09458 0.72586 0.0
C2376 C 0.65785 0.08897 0.73729 0.0
C2377 C 0.65733 0.07515 0.73941 0.0
C2378 C 0.65099 0.06708 0.72994 0.0
C2379 C 0.6453 0.07267 0.71858 0.0
C2380 C 0.61922 0.08076 0.6757 0.0
C2381 C 0.61363 0.06889 0.68058 0.0
C2382 C 0.60481 0.06148 0.67276 0.0
C2383 C 0.60154 0.0657 0.65983 0.0
C2384 C 0.60755 0.07728 0.65477 0.0
C2385 C 0.61622 0.08477 0.66264 0.0
C2386 C 0.63775 0.12464 0.68629 0.0
C2387 C 0.63723 0.12867 0.67293 0.0
C2388 C 0.60692 0.88592 0.42001 0.0
C2389 C 0.5972 0.88588 0.43008 0.0
C2390 C 0.60128 0.88721 0.44341 0.0
C2391 C 0.61486 0.88797 0.4466 0.0
H2392 H 0.64418 0.90296 0.47433 0.0
H2393 H 0.6541 0.91317 0.49402 0.0
H2394 H 0.69318 0.901 0.48069 0.0
H2395 H 0.68338 0.89081 0.46115 0.0
H2396 H 0.68399 0.86571 0.44071 0.0
H2397 H 0.69698 0.85028 0.42719 0.0
H2398 H 0.66823 0.85408 0.39538 0.0
H2399 H 0.6552 0.86936 0.4089 0.0
H2400 H 0.62766 0.88597 0.41521 0.0
H2401 H 0.60416 0.88496 0.40964 0.0
H2402 H 0.59402 0.88726 0.45138 0.0
H2403 H 0.61777 0.88853 0.45697 0.0
N2404 N 0.64397 0.89141 0.45108 0.0
N2405 N 0.66501 0.88266 0.44576 0.0
N2406 N 0.64695 0.87893 0.43155 0.0
C2407 C 0.65713 0.88989 0.45405 0.0
C2408 C 0.66001 0.87714 0.43452 0.0
C2409 C 0.63887 0.886 0.43977 0.0
C2410 C 0.66296 0.89604 0.46612 0.0
C2411 C 0.65489 0.90246 0.4756 0.0
C2412 C 0.66057 0.9083 0.4869 0.0
C2413 C 0.67443 0.90791 0.4889 0.0
C2414 C 0.68247 0.9015 0.47944 0.0
C2415 C 0.67681 0.89562 0.46822 0.0
C2416 C 0.66849 0.86869 0.42592 0.0
C2417 C 0.68051 0.86336 0.43078 0.0
C2418 C 0.68794 0.85448 0.42305 0.0
C2419 C 0.68361 0.8509 0.41024 0.0
C2420 C 0.67186 0.85663 0.40521 0.0
C2421 C 0.66435 0.86536 0.41299 0.0
C2422 C 0.62455 0.88718 0.43653 0.0
C2423 C 0.62042 0.88645 0.42321 0.0
C2424 C 0.89269 0.92151 0.15488 0.0
C2425 C 0.89859 0.93316 0.15991 0.0
C2426 C 0.89518 0.93746 0.17278 0.0
C2427 C 0.88632 0.93007 0.18057 0.0
H2428 H 0.85932 0.93296 0.21135 0.0
H2429 H 0.84941 0.9427 0.23106 0.0
H2430 H 0.83701 0.9037 0.24427 0.0
H2431 H 0.84694 0.89383 0.22441 0.0
H2432 H 0.86098 0.86745 0.20674 0.0
H2433 H 0.86204 0.84375 0.20103 0.0
H2434 H 0.86395 0.85408 0.15931 0.0
H2435 H 0.86315 0.87752 0.16501 0.0
H2436 H 0.87984 0.90496 0.15864 0.0
H2437 H 0.8951 0.91792 0.14501 0.0
H2438 H 0.89952 0.94642 0.17691 0.0
H2439 H 0.88412 0.93351 0.19054 0.0
N2440 N 0.86708 0.91465 0.19572 0.0
N2441 N 0.85824 0.89367 0.20103 0.0
N2442 N 0.87049 0.89666 0.18136 0.0
C2443 C 0.8599 0.90678 0.20406 0.0
C2444 C 0.86347 0.88859 0.18962 0.0
C2445 C 0.87242 0.90968 0.18437 0.0
C2446 C 0.85394 0.91257 0.21625 0.0
C2447 C 0.85452 0.92639 0.21843 0.0
C2448 C 0.8488 0.93202 0.22975 0.0
C2449 C 0.84241 0.92398 0.23923 0.0
C2450 C 0.84188 0.91016 0.23714 0.0
C2451 C 0.84756 0.90451 0.22574 0.0
C2452 C 0.86216 0.87432 0.18632 0.0
C2453 C 0.8614 0.86459 0.19636 0.0
C2454 C 0.86204 0.85104 0.19309 0.0
C2455 C 0.86321 0.84703 0.17973 0.0
C2456 C 0.86312 0.85679 0.16971 0.0
C2457 C 0.86271 0.87026 0.17297 0.0
C2458 C 0.88083 0.91814 0.17572 0.0
C2459 C 0.88397 0.91404 0.16272 0.0
C2460 C 0.82812 0.14211 0.9056 0.0
C2461 C 0.81639 0.14787 0.91064 0.0
C2462 C 0.81206 0.14432 0.92346 0.0
C2463 C 0.81949 0.13545 0.93119 0.0
H2464 H 0.81662 0.10807 0.96161 0.0
H2465 H 0.80682 0.09794 0.98118 0.0
H2466 H 0.84589 0.08575 0.99452 0.0
H2467 H 0.85581 0.0959 0.97479 0.0
H2468 H 0.88223 0.11025 0.95736 0.0
H2469 H 0.90598 0.11147 0.95173 0.0
H2470 H 0.89578 0.11366 0.90999 0.0
H2471 H 0.87229 0.11271 0.91561 0.0
H2472 H 0.84477 0.12937 0.9093 0.0
H2473 H 0.83174 0.14464 0.89576 0.0
H2474 H 0.80304 0.14854 0.9276 0.0
H2475 H 0.81602 0.13313 0.94113 0.0
N2476 N 0.83498 0.11616 0.9462 0.0
N2477 N 0.85601 0.10739 0.95151 0.0
N2478 N 0.85303 0.11983 0.93195 0.0
C2479 C 0.84287 0.10893 0.95449 0.0
C2480 C 0.86111 0.11276 0.94018 0.0
C2481 C 0.83998 0.12165 0.93493 0.0
C2482 C 0.83704 0.10282 0.96658 0.0
C2483 C 0.82318 0.10327 0.96869 0.0
C2484 C 0.81753 0.09742 0.97993 0.0
C2485 C 0.82557 0.09103 0.9894 0.0
C2486 C 0.83942 0.09061 0.98739 0.0
C2487 C 0.8451 0.09642 0.97607 0.0
C2488 C 0.87542 0.11156 0.93692 0.0
C2489 C 0.88513 0.11077 0.94698 0.0
C2490 C 0.89871 0.11151 0.94377 0.0
C2491 C 0.90276 0.11279 0.93043 0.0
C2492 C 0.89303 0.11274 0.92038 0.0
C2493 C 0.87953 0.11224 0.92359 0.0
C2494 C 0.8315 0.13009 0.92634 0.0
C2495 C 0.83563 0.13339 0.91339 0.0
C2496 C 0.82968 0.63707 0.85627 0.0
C2497 C 0.81961 0.63698 0.84655 0.0
C2498 C 0.80626 0.63829 0.85059 0.0
C2499 C 0.80304 0.63906 0.86415 0.0
H2500 H 0.77498 0.65361 0.89331 0.0
H2501 H 0.75506 0.66351 0.90314 0.0
H2502 H 0.76844 0.65155 0.94222 0.0
H2503 H 0.78821 0.64167 0.93252 0.0
H2504 H 0.80882 0.61664 0.93309 0.0
H2505 H 0.82237 0.6012 0.94603 0.0
H2506 H 0.85443 0.60555 0.91765 0.0
H2507 H 0.84088 0.62085 0.90466 0.0
H2508 H 0.83445 0.63717 0.87699 0.0
H2509 H 0.84007 0.63613 0.85353 0.0
H2510 H 0.79829 0.6383 0.84333 0.0
H2511 H 0.79265 0.63959 0.86704 0.0
N2512 N 0.79844 0.6424 0.8932 0.0
N2513 N 0.80376 0.63369 0.91423 0.0
N2514 N 0.81811 0.63013 0.89625 0.0
C2515 C 0.79542 0.64084 0.90633 0.0
C2516 C 0.8151 0.6283 0.90928 0.0
C2517 C 0.80984 0.63712 0.88815 0.0
C2518 C 0.78323 0.64682 0.9121 0.0
C2519 C 0.77367 0.65309 0.904 0.0
C2520 C 0.76225 0.65875 0.90963 0.0
C2521 C 0.76019 0.65833 0.92346 0.0
C2522 C 0.76973 0.65207 0.93153 0.0
C2523 C 0.78108 0.64637 0.92593 0.0
C2524 C 0.82373 0.6199 0.91777 0.0
C2525 C 0.81881 0.61442 0.92969 0.0
C2526 C 0.82656 0.60553 0.93709 0.0
C2527 C 0.83944 0.60209 0.93283 0.0
C2528 C 0.84455 0.60799 0.92121 0.0
C2529 C 0.83675 0.61673 0.91373 0.0
C2530 C 0.81311 0.63831 0.87385 0.0
C2531 C 0.82646 0.63761 0.86975 0.0
C2532 C 0.32968 0.86189 0.14269 0.0
C2533 C 0.31961 0.86198 0.15241 0.0
C2534 C 0.30626 0.86067 0.14837 0.0
C2535 C 0.30304 0.8599 0.13481 0.0
H2536 H 0.27498 0.84535 0.10565 0.0
H2537 H 0.25506 0.83545 0.09582 0.0
H2538 H 0.26844 0.84741 0.05674 0.0
H2539 H 0.28821 0.85729 0.06644 0.0
H2540 H 0.30882 0.88232 0.06587 0.0
H2541 H 0.32237 0.89776 0.05293 0.0
H2542 H 0.35443 0.89341 0.08131 0.0
H2543 H 0.34088 0.87811 0.0943 0.0
H2544 H 0.33445 0.8618 0.12197 0.0
H2545 H 0.34007 0.86283 0.14543 0.0
H2546 H 0.29828 0.86066 0.15563 0.0
H2547 H 0.29265 0.85937 0.13192 0.0
N2548 N 0.29844 0.85656 0.10576 0.0
N2549 N 0.30376 0.86527 0.08473 0.0
N2550 N 0.31811 0.86883 0.10271 0.0
C2551 C 0.29542 0.85812 0.09264 0.0
C2552 C 0.3151 0.87066 0.08968 0.0
C2553 C 0.30984 0.86184 0.11081 0.0
C2554 C 0.28323 0.85214 0.08686 0.0
C2555 C 0.27367 0.84587 0.09496 0.0
C2556 C 0.26225 0.84021 0.08934 0.0
C2557 C 0.26019 0.84063 0.0755 0.0
C2558 C 0.26973 0.84689 0.06743 0.0
C2559 C 0.28108 0.85259 0.07303 0.0
C2560 C 0.32373 0.87906 0.08119 0.0
C2561 C 0.31881 0.88454 0.06928 0.0
C2562 C 0.32656 0.89343 0.06187 0.0
C2563 C 0.33944 0.89687 0.06613 0.0
C2564 C 0.34455 0.89097 0.07775 0.0
C2565 C 0.33675 0.88223 0.08524 0.0
C2566 C 0.31311 0.86065 0.12511 0.0
C2567 C 0.32646 0.86135 0.12921 0.0
C2568 C 0.88681 0.57933 0.89213 0.0
C2569 C 0.88667 0.56933 0.90191 0.0
C2570 C 0.8878 0.55596 0.89793 0.0
C2571 C 0.88845 0.55266 0.88439 0.0
H2572 H 0.90281 0.52447 0.85526 0.0
H2573 H 0.91268 0.50454 0.84546 0.0
H2574 H 0.90039 0.51768 0.8064 0.0
H2575 H 0.89054 0.53746 0.81608 0.0
H2576 H 0.86572 0.55836 0.81551 0.0
H2577 H 0.85039 0.57204 0.80257 0.0
H2578 H 0.85525 0.60411 0.83082 0.0
H2579 H 0.87043 0.59043 0.84381 0.0
H2580 H 0.88684 0.58398 0.87139 0.0
H2581 H 0.88601 0.58974 0.89482 0.0
H2582 H 0.88776 0.54803 0.90524 0.0
H2583 H 0.88885 0.54227 0.88155 0.0
N2584 N 0.89163 0.5479 0.85533 0.0
N2585 N 0.88285 0.55319 0.83433 0.0
N2586 N 0.87949 0.56763 0.85226 0.0
C2587 C 0.88997 0.54484 0.84223 0.0
C2588 C 0.87757 0.56459 0.83926 0.0
C2589 C 0.88645 0.55935 0.86037 0.0
C2590 C 0.89587 0.5326 0.83648 0.0
C2591 C 0.90221 0.5231 0.84458 0.0
C2592 C 0.90785 0.51167 0.83897 0.0
C2593 C 0.90733 0.50955 0.82515 0.0
C2594 C 0.90099 0.51902 0.81708 0.0
C2595 C 0.8953 0.53038 0.82267 0.0
C2596 C 0.86922 0.57326 0.83076 0.0
C2597 C 0.86363 0.56838 0.81889 0.0
C2598 C 0.85481 0.5762 0.81148 0.0
C2599 C 0.85154 0.58913 0.8157 0.0
C2600 C 0.85755 0.59419 0.82728 0.0
C2601 C 0.86622 0.58632 0.83477 0.0
C2602 C 0.88775 0.56267 0.87464 0.0
C2603 C 0.88723 0.57604 0.87867 0.0
C2604 C 0.17051 0.13688 0.64252 0.0
C2605 C 0.18061 0.13678 0.65221 0.0
C2606 C 0.19395 0.13807 0.6481 0.0
C2607 C 0.19712 0.13885 0.63453 0.0
H2608 H 0.22501 0.15349 0.60523 0.0
H2609 H 0.24486 0.16343 0.59531 0.0
H2610 H 0.23134 0.15141 0.5563 0.0
H2611 H 0.21163 0.1415 0.56609 0.0
H2612 H 0.19094 0.11669 0.56547 0.0
H2613 H 0.17734 0.10128 0.55255 0.0
H2614 H 0.14558 0.10518 0.58133 0.0
H2615 H 0.15918 0.12044 0.5943 0.0
H2616 H 0.16565 0.13698 0.62183 0.0
H2617 H 0.16012 0.13596 0.64531 0.0
H2618 H 0.20196 0.13807 0.65533 0.0
H2619 H 0.20749 0.13936 0.6316 0.0
N2620 N 0.20158 0.14222 0.60546 0.0
N2621 N 0.19616 0.13353 0.58445 0.0
N2622 N 0.18191 0.12993 0.6025 0.0
C2623 C 0.20453 0.14068 0.59232 0.0
C2624 C 0.18485 0.12811 0.58945 0.0
C2625 C 0.19021 0.13692 0.61057 0.0
C2626 C 0.21669 0.14668 0.58649 0.0
C2627 C 0.22627 0.15297 0.59454 0.0
C2628 C 0.23766 0.15865 0.58886 0.0
C2629 C 0.23966 0.15822 0.57502 0.0
C2630 C 0.2301 0.15194 0.56699 0.0
C2631 C 0.21878 0.14622 0.57265 0.0
C2632 C 0.17619 0.11972 0.58099 0.0
C2633 C 0.181 0.11437 0.56897 0.0
C2634 C 0.17323 0.10551 0.56157 0.0
C2635 C 0.16041 0.10195 0.56594 0.0
C2636 C 0.15541 0.10771 0.57768 0.0
C2637 C 0.16324 0.11643 0.58515 0.0
C2638 C 0.18701 0.1381 0.62488 0.0
C2639 C 0.17367 0.13742 0.62903 0.0
C2640 C 0.14269 0.90488 0.82745 0.0
C2641 C 0.14859 0.90991 0.8158 0.0
C2642 C 0.14518 0.92278 0.8115 0.0
C2643 C 0.13632 0.93057 0.81889 0.0
H2644 H 0.10932 0.96135 0.81601 0.0
H2645 H 0.09941 0.98106 0.80626 0.0
H2646 H 0.08701 0.99427 0.84526 0.0
H2647 H 0.09694 0.97441 0.85513 0.0
H2648 H 0.11098 0.95674 0.88151 0.0
H2649 H 0.11204 0.95103 0.90521 0.0
H2650 H 0.11395 0.90931 0.89489 0.0
H2651 H 0.11315 0.91501 0.87144 0.0
H2652 H 0.12984 0.90864 0.844 0.0
H2653 H 0.1451 0.89501 0.83105 0.0
H2654 H 0.14952 0.92691 0.80254 0.0
H2655 H 0.13412 0.94054 0.81545 0.0
N2656 N 0.11708 0.94572 0.83431 0.0
N2657 N 0.10824 0.95103 0.85529 0.0
N2658 N 0.12049 0.93135 0.8523 0.0
C2659 C 0.1099 0.95406 0.84219 0.0
C2660 C 0.11347 0.93962 0.86037 0.0
C2661 C 0.12242 0.93437 0.83929 0.0
C2662 C 0.10394 0.96625 0.83639 0.0
C2663 C 0.10452 0.96843 0.82257 0.0
C2664 C 0.0988 0.97975 0.81694 0.0
C2665 C 0.09241 0.98923 0.82498 0.0
C2666 C 0.09188 0.98714 0.8388 0.0
C2667 C 0.09756 0.97574 0.84445 0.0
C2668 C 0.11216 0.93632 0.87464 0.0
C2669 C 0.1114 0.94636 0.88437 0.0
C2670 C 0.11204 0.94309 0.89792 0.0
C2671 C 0.11321 0.92973 0.90193 0.0
C2672 C 0.11312 0.91971 0.89217 0.0
C2673 C 0.11271 0.92297 0.8787 0.0
C2674 C 0.13083 0.92572 0.83082 0.0
C2675 C 0.13397 0.91272 0.83492 0.0
C2676 C 0.67051 0.36208 0.35644 0.0
C2677 C 0.68061 0.36218 0.34675 0.0
C2678 C 0.69395 0.36089 0.35086 0.0
C2679 C 0.69712 0.36012 0.36443 0.0
H2680 H 0.72501 0.34547 0.39373 0.0
H2681 H 0.74486 0.33553 0.40365 0.0
H2682 H 0.73134 0.34755 0.44267 0.0
H2683 H 0.71163 0.35746 0.43287 0.0
H2684 H 0.69094 0.38227 0.43349 0.0
H2685 H 0.67734 0.39768 0.44641 0.0
H2686 H 0.64558 0.39378 0.41763 0.0
H2687 H 0.65918 0.37852 0.40466 0.0
H2688 H 0.66565 0.36198 0.37713 0.0
H2689 H 0.66012 0.36301 0.35365 0.0
H2690 H 0.70196 0.36089 0.34363 0.0
H2691 H 0.70749 0.3596 0.36736 0.0
N2692 N 0.70158 0.35674 0.3935 0.0
N2693 N 0.69616 0.36543 0.41451 0.0
N2694 N 0.68191 0.36903 0.39646 0.0
C2695 C 0.70453 0.35828 0.40664 0.0
C2696 C 0.68485 0.37085 0.40951 0.0
C2697 C 0.69021 0.36204 0.38839 0.0
C2698 C 0.71669 0.35228 0.41247 0.0
C2699 C 0.72627 0.34599 0.40442 0.0
C2700 C 0.73766 0.34031 0.4101 0.0
C2701 C 0.73966 0.34074 0.42394 0.0
C2702 C 0.7301 0.34702 0.43197 0.0
C2703 C 0.71878 0.35274 0.42631 0.0
C2704 C 0.67619 0.37924 0.41798 0.0
C2705 C 0.681 0.38459 0.42999 0.0
C2706 C 0.67323 0.39345 0.43739 0.0
C2707 C 0.66041 0.39701 0.43302 0.0
C2708 C 0.65541 0.39125 0.42128 0.0
C2709 C 0.66324 0.38253 0.41381 0.0
C2710 C 0.68701 0.36086 0.37409 0.0
C2711 C 0.67367 0.36154 0.36993 0.0
C2712 C 0.88681 0.41963 0.60683 0.0
C2713 C 0.88667 0.42963 0.59705 0.0
C2714 C 0.8878 0.443 0.60103 0.0
C2715 C 0.88845 0.4463 0.61457 0.0
H2716 H 0.90281 0.47449 0.6437 0.0
H2717 H 0.91268 0.49442 0.6535 0.0
H2718 H 0.90039 0.48128 0.69256 0.0
H2719 H 0.89054 0.4615 0.68289 0.0
H2720 H 0.86572 0.4406 0.68345 0.0
H2721 H 0.85039 0.42692 0.69639 0.0
H2722 H 0.85525 0.39485 0.66814 0.0
H2723 H 0.87043 0.40853 0.65515 0.0
H2724 H 0.88684 0.41498 0.62757 0.0
H2725 H 0.88601 0.40922 0.60414 0.0
H2726 H 0.88776 0.45093 0.59372 0.0
H2727 H 0.88885 0.4567 0.61741 0.0
N2728 N 0.89162 0.45107 0.64363 0.0
N2729 N 0.88285 0.44577 0.66463 0.0
N2730 N 0.87949 0.43133 0.6467 0.0
C2731 C 0.88997 0.45412 0.65673 0.0
C2732 C 0.87757 0.43437 0.6597 0.0
C2733 C 0.88645 0.43961 0.63859 0.0
C2734 C 0.89587 0.46636 0.66248 0.0
C2735 C 0.90221 0.47586 0.65438 0.0
C2736 C 0.90785 0.48729 0.65999 0.0
C2737 C 0.90733 0.48941 0.67381 0.0
C2738 C 0.90099 0.47994 0.68188 0.0
C2739 C 0.8953 0.46858 0.6763 0.0
C2740 C 0.86922 0.4257 0.6682 0.0
C2741 C 0.86363 0.43058 0.68007 0.0
C2742 C 0.85481 0.42276 0.68748 0.0
C2743 C 0.85154 0.40983 0.68326 0.0
C2744 C 0.85755 0.40477 0.67168 0.0
C2745 C 0.86622 0.41264 0.66419 0.0
C2746 C 0.88775 0.43629 0.62432 0.0
C2747 C 0.88723 0.42293 0.62029 0.0
C2748 C 0.64269 0.59408 0.17151 0.0
C2749 C 0.64859 0.58905 0.18316 0.0
C2750 C 0.64518 0.57618 0.18746 0.0
C2751 C 0.63632 0.56839 0.18007 0.0
H2752 H 0.60932 0.53761 0.18295 0.0
H2753 H 0.59941 0.5179 0.1927 0.0
H2754 H 0.58701 0.50469 0.1537 0.0
H2755 H 0.59694 0.52455 0.14383 0.0
H2756 H 0.61098 0.54222 0.11745 0.0
H2757 H 0.61204 0.54794 0.09375 0.0
H2758 H 0.61395 0.58965 0.10408 0.0
H2759 H 0.61315 0.58395 0.12752 0.0
H2760 H 0.62984 0.59032 0.15496 0.0
H2761 H 0.6451 0.60395 0.16792 0.0
H2762 H 0.64952 0.57205 0.19642 0.0
H2763 H 0.63412 0.55842 0.18351 0.0
N2764 N 0.61708 0.55324 0.16465 0.0
N2765 N 0.60824 0.54793 0.14367 0.0
N2766 N 0.62049 0.56761 0.14666 0.0
C2767 C 0.6099 0.5449 0.15677 0.0
C2768 C 0.61347 0.55934 0.13859 0.0
C2769 C 0.62242 0.56459 0.15968 0.0
C2770 C 0.60394 0.53271 0.16257 0.0
C2771 C 0.60452 0.53053 0.17639 0.0
C2772 C 0.5988 0.51921 0.18202 0.0
C2773 C 0.59241 0.50974 0.17398 0.0
C2774 C 0.59188 0.51182 0.16016 0.0
C2775 C 0.59756 0.52322 0.15451 0.0
C2776 C 0.61216 0.56264 0.12432 0.0
C2777 C 0.6114 0.55261 0.11459 0.0
C2778 C 0.61204 0.55587 0.10104 0.0
C2779 C 0.61321 0.56924 0.09703 0.0
C2780 C 0.61312 0.57925 0.10679 0.0
C2781 C 0.61271 0.57599 0.12026 0.0
C2782 C 0.63083 0.57324 0.16814 0.0
C2783 C 0.63397 0.58624 0.16404 0.0
C2784 C 0.57391 0.68366 0.9014 0.0
C2785 C 0.56137 0.68907 0.89842 0.0
C2786 C 0.56008 0.69743 0.88729 0.0
C2787 C 0.57111 0.70028 0.87926 0.0
H2788 H 0.5847 0.72419 0.84715 0.0
H2789 H 0.58406 0.74466 0.83409 0.0
H2790 H 0.62672 0.7486 0.83813 0.0
H2791 H 0.62743 0.72807 0.85099 0.0
H2792 H 0.64371 0.70365 0.86217 0.0
H2793 H 0.66499 0.69478 0.8697 0.0
H2794 H 0.64432 0.66564 0.89367 0.0
H2795 H 0.62307 0.67447 0.88619 0.0
H2796 H 0.59445 0.68221 0.89611 0.0
H2797 H 0.57542 0.67778 0.91028 0.0
H2798 H 0.55054 0.70183 0.88483 0.0
H2799 H 0.56979 0.70685 0.87081 0.0
N2800 N 0.59519 0.70872 0.86548 0.0
N2801 N 0.61814 0.70648 0.86159 0.0
N2802 N 0.60743 0.69233 0.8767 0.0
C2803 C 0.60641 0.71274 0.85905 0.0
C2804 C 0.61871 0.69618 0.87032 0.0
C2805 C 0.59563 0.69851 0.87435 0.0
C2806 C 0.6061 0.72453 0.85019 0.0
C2807 C 0.59396 0.72935 0.84514 0.0
C2808 C 0.5936 0.74105 0.83761 0.0
C2809 C 0.60534 0.74828 0.83515 0.0
C2810 C 0.61751 0.74328 0.8399 0.0
C2811 C 0.6179 0.73148 0.84725 0.0
C2812 C 0.63164 0.68991 0.87371 0.0
C2813 C 0.64368 0.69525 0.86893 0.0
C2814 C 0.6559 0.69017 0.87324 0.0
C2815 C 0.65635 0.6796 0.8824 0.0
C2816 C 0.64434 0.67384 0.88667 0.0
C2817 C 0.63213 0.67894 0.8824 0.0
C2818 C 0.58368 0.69485 0.88223 0.0
C2819 C 0.5849 0.6864 0.89334 0.0
C2820 C 0.57577 0.39391 0.13725 0.0
C2821 C 0.57002 0.40593 0.13298 0.0
C2822 C 0.55946 0.4055 0.12381 0.0
C2823 C 0.55437 0.39331 0.11945 0.0
H2824 H 0.52169 0.37702 0.1011 0.0
H2825 H 0.5013 0.37627 0.08798 0.0
H2826 H 0.5055 0.33369 0.08384 0.0
H2827 H 0.52582 0.33437 0.09715 0.0
H2828 H 0.54282 0.31949 0.12106 0.0
H2829 H 0.54778 0.30023 0.13505 0.0
H2830 H 0.5717 0.32503 0.1607 0.0
H2831 H 0.56733 0.34407 0.14656 0.0
H2832 H 0.57515 0.37268 0.13671 0.0
H2833 H 0.58397 0.39388 0.14425 0.0
H2834 H 0.55484 0.41459 0.12028 0.0
H2835 H 0.54598 0.39335 0.11267 0.0
N2836 N 0.54325 0.36779 0.1119 0.0
N2837 N 0.54102 0.34485 0.11572 0.0
N2838 N 0.55728 0.35708 0.12714 0.0
C2839 C 0.53703 0.35607 0.10927 0.0
C2840 C 0.55114 0.34529 0.1247 0.0
C2841 C 0.55348 0.36836 0.12074 0.0
C2842 C 0.52535 0.35573 0.10027 0.0
C2843 C 0.51837 0.3675 0.09728 0.0
C2844 C 0.50665 0.36708 0.08978 0.0
C2845 C 0.50177 0.35492 0.08492 0.0
C2846 C 0.50902 0.34322 0.08743 0.0
C2847 C 0.52064 0.34361 0.09511 0.0
C2848 C 0.55476 0.33334 0.13258 0.0
C2849 C 0.54935 0.32079 0.12954 0.0
C2850 C 0.55217 0.30975 0.13756 0.0
C2851 C 0.56047 0.31103 0.14874 0.0
C2852 C 0.56586 0.32354 0.15179 0.0
C2853 C 0.56315 0.33454 0.14374 0.0
C2854 C 0.55972 0.38127 0.1242 0.0
C2855 C 0.57068 0.38173 0.13293 0.0
C2856 C 0.85531 0.32543 0.38711 0.0
C2857 C 0.84329 0.31963 0.38286 0.0
C2858 C 0.84375 0.30907 0.37371 0.0
C2859 C 0.85597 0.30402 0.36935 0.0
H2860 H 0.87225 0.27127 0.35133 0.0
H2861 H 0.87296 0.25076 0.33844 0.0
H2862 H 0.91562 0.25478 0.33433 0.0
H2863 H 0.91497 0.27523 0.34741 0.0
H2864 H 0.9299 0.29264 0.37102 0.0
H2865 H 0.94918 0.29772 0.38498 0.0
H2866 H 0.9243 0.3217 0.41049 0.0
H2867 H 0.90525 0.31722 0.39637 0.0
H2868 H 0.87657 0.32486 0.38656 0.0
H2869 H 0.85532 0.33363 0.3941 0.0
H2870 H 0.83467 0.30442 0.37019 0.0
H2871 H 0.85595 0.29562 0.3626 0.0
N2872 N 0.88152 0.29287 0.36194 0.0
N2873 N 0.90449 0.29069 0.36575 0.0
N2874 N 0.89224 0.30705 0.37701 0.0
C2875 C 0.89326 0.28664 0.35935 0.0
C2876 C 0.90405 0.3009 0.37463 0.0
C2877 C 0.88095 0.30317 0.37067 0.0
C2878 C 0.89358 0.27486 0.35049 0.0
C2879 C 0.88178 0.26788 0.34757 0.0
C2880 C 0.88218 0.25609 0.34021 0.0
C2881 C 0.89435 0.25113 0.33542 0.0
C2882 C 0.90608 0.25837 0.33787 0.0
C2883 C 0.90571 0.27006 0.34541 0.0
C2884 C 0.91601 0.3046 0.38247 0.0
C2885 C 0.92859 0.29921 0.37946 0.0
C2886 C 0.93963 0.30209 0.38746 0.0
C2887 C 0.93835 0.31045 0.39859 0.0
C2888 C 0.9258 0.31583 0.4016 0.0
C2889 C 0.9148 0.31305 0.39358 0.0
C2890 C 0.86801 0.3094 0.3741 0.0
C2891 C 0.86752 0.32036 0.38279 0.0
C2892 C 0.92415 0.60553 0.6373 0.0
C2893 C 0.92985 0.59352 0.63297 0.0
C2894 C 0.9404 0.59395 0.62379 0.0
C2895 C 0.94551 0.60615 0.61947 0.0
H2896 H 0.97827 0.6224 0.60124 0.0
H2897 H 0.99867 0.62313 0.58812 0.0
H2898 H 0.99455 0.66572 0.58402 0.0
H2899 H 0.97422 0.66506 0.59733 0.0
H2900 H 0.95715 0.67995 0.62119 0.0
H2901 H 0.9522 0.69922 0.63518 0.0
H2902 H 0.92837 0.6744 0.66091 0.0
H2903 H 0.93274 0.65536 0.64676 0.0
H2904 H 0.92484 0.62677 0.63685 0.0
H2905 H 0.91596 0.60556 0.64433 0.0
H2906 H 0.94498 0.58487 0.62021 0.0
H2907 H 0.9539 0.60611 0.61268 0.0
N2908 N 0.95672 0.63166 0.61202 0.0
N2909 N 0.95899 0.65458 0.61588 0.0
N2910 N 0.9427 0.64236 0.62727 0.0
C2911 C 0.96296 0.64337 0.60941 0.0
C2912 C 0.94886 0.65414 0.62486 0.0
C2913 C 0.94649 0.63109 0.62086 0.0
C2914 C 0.97465 0.64369 0.60042 0.0
C2915 C 0.98161 0.63191 0.59743 0.0
C2916 C 0.99334 0.63232 0.58994 0.0
C2917 C 0.99824 0.64448 0.58509 0.0
C2918 C 0.991 0.65619 0.58761 0.0
C2919 C 0.97939 0.65582 0.59528 0.0
C2920 C 0.94526 0.66609 0.63275 0.0
C2921 C 0.95065 0.67865 0.62969 0.0
C2922 C 0.94783 0.68969 0.63771 0.0
C2923 C 0.93955 0.68841 0.64891 0.0
C2924 C 0.93419 0.67589 0.65197 0.0
C2925 C 0.9369 0.66489 0.64393 0.0
C2926 C 0.94021 0.61818 0.62428 0.0
C2927 C 0.92927 0.61772 0.63303 0.0
C2928 C 0.57391 0.3153 0.59756 0.0
C2929 C 0.56137 0.30989 0.60054 0.0
C2930 C 0.56008 0.30153 0.61167 0.0
C2931 C 0.57111 0.29868 0.6197 0.0
H2932 H 0.5847 0.27477 0.65181 0.0
H2933 H 0.58406 0.2543 0.66487 0.0
H2934 H 0.62673 0.25036 0.66083 0.0
H2935 H 0.62743 0.27089 0.64797 0.0
H2936 H 0.64371 0.29531 0.63679 0.0
H2937 H 0.66499 0.30418 0.62926 0.0
H2938 H 0.64432 0.33332 0.60529 0.0
H2939 H 0.62307 0.32449 0.61277 0.0
H2940 H 0.59445 0.31675 0.60285 0.0
H2941 H 0.57542 0.32118 0.58868 0.0
H2942 H 0.55054 0.29713 0.61413 0.0
H2943 H 0.56979 0.29211 0.62815 0.0
N2944 N 0.59519 0.29024 0.63348 0.0
N2945 N 0.61814 0.29248 0.63737 0.0
N2946 N 0.60743 0.30663 0.62226 0.0
C2947 C 0.60641 0.28622 0.63992 0.0
C2948 C 0.61871 0.30278 0.62864 0.0
C2949 C 0.59563 0.30045 0.62461 0.0
C2950 C 0.6061 0.27443 0.64877 0.0
C2951 C 0.59396 0.26961 0.65382 0.0
C2952 C 0.5936 0.25791 0.66135 0.0
C2953 C 0.60534 0.25069 0.66381 0.0
C2954 C 0.61751 0.25568 0.65906 0.0
C2955 C 0.6179 0.26748 0.65171 0.0
C2956 C 0.63164 0.30906 0.62526 0.0
C2957 C 0.64368 0.30371 0.63004 0.0
C2958 C 0.6559 0.30879 0.62572 0.0
C2959 C 0.65635 0.31936 0.61656 0.0
C2960 C 0.64434 0.32512 0.61229 0.0
C2961 C 0.63213 0.32002 0.61656 0.0
C2962 C 0.58368 0.30411 0.61673 0.0
C2963 C 0.5849 0.31256 0.60562 0.0
C2964 C 0.92415 0.39343 0.86166 0.0
C2965 C 0.92985 0.40544 0.86599 0.0
C2966 C 0.9404 0.40501 0.87517 0.0
C2967 C 0.94551 0.39281 0.87949 0.0
H2968 H 0.97827 0.37656 0.89772 0.0
H2969 H 0.99867 0.37583 0.91084 0.0
H2970 H 0.99455 0.33324 0.91494 0.0
H2971 H 0.97422 0.3339 0.90164 0.0
H2972 H 0.95715 0.31901 0.87777 0.0
H2973 H 0.9522 0.29974 0.86378 0.0
H2974 H 0.92837 0.32456 0.83806 0.0
H2975 H 0.93274 0.34361 0.8522 0.0
H2976 H 0.92484 0.37219 0.86211 0.0
H2977 H 0.91596 0.3934 0.85463 0.0
H2978 H 0.94498 0.41409 0.87875 0.0
H2979 H 0.9539 0.39285 0.88628 0.0
N2980 N 0.95672 0.3673 0.88694 0.0
N2981 N 0.95899 0.34438 0.88308 0.0
N2982 N 0.9427 0.3566 0.87169 0.0
C2983 C 0.96296 0.35559 0.88955 0.0
C2984 C 0.94886 0.34482 0.8741 0.0
C2985 C 0.94649 0.36787 0.8781 0.0
C2986 C 0.97465 0.35527 0.89854 0.0
C2987 C 0.98161 0.36705 0.90153 0.0
C2988 C 0.99334 0.36664 0.90902 0.0
C2989 C 0.99824 0.35448 0.91387 0.0
C2990 C 0.991 0.34277 0.91135 0.0
C2991 C 0.97939 0.34314 0.90368 0.0
C2992 C 0.94526 0.33287 0.86621 0.0
C2993 C 0.95065 0.32031 0.86927 0.0
C2994 C 0.94783 0.30928 0.86125 0.0
C2995 C 0.93955 0.31055 0.85005 0.0
C2996 C 0.93419 0.32307 0.84699 0.0
C2997 C 0.93689 0.33407 0.85503 0.0
C2998 C 0.94021 0.38078 0.87468 0.0
C2999 C 0.92927 0.38124 0.86594 0.0
C3000 C 0.85531 0.67353 0.11185 0.0
C3001 C 0.84329 0.67933 0.1161 0.0
C3002 C 0.84375 0.68989 0.12525 0.0
C3003 C 0.85597 0.69494 0.12961 0.0
H3004 H 0.87225 0.72769 0.14763 0.0
H3005 H 0.87296 0.7482 0.16052 0.0
H3006 H 0.91562 0.74418 0.16463 0.0
H3007 H 0.91497 0.72373 0.15155 0.0
H3008 H 0.9299 0.70632 0.12794 0.0
H3009 H 0.94918 0.70124 0.11398 0.0
H3010 H 0.9243 0.67726 0.08847 0.0
H3011 H 0.90525 0.68174 0.10259 0.0
H3012 H 0.87657 0.6741 0.1124 0.0
H3013 H 0.85532 0.66533 0.10486 0.0
H3014 H 0.83467 0.69454 0.12877 0.0
H3015 H 0.85595 0.70334 0.13636 0.0
N3016 N 0.88152 0.70609 0.13702 0.0
N3017 N 0.90449 0.70827 0.13321 0.0
N3018 N 0.89224 0.69191 0.12195 0.0
C3019 C 0.89326 0.71232 0.13961 0.0
C3020 C 0.90405 0.69806 0.12433 0.0
C3021 C 0.88095 0.6958 0.12829 0.0
C3022 C 0.89358 0.72411 0.14847 0.0
C3023 C 0.88178 0.73108 0.15139 0.0
C3024 C 0.88218 0.74287 0.15875 0.0
C3025 C 0.89435 0.74783 0.16354 0.0
C3026 C 0.90608 0.74059 0.16109 0.0
C3027 C 0.90571 0.7289 0.15355 0.0
C3028 C 0.91601 0.69436 0.11649 0.0
C3029 C 0.92859 0.69975 0.1195 0.0
C3030 C 0.93963 0.69687 0.1115 0.0
C3031 C 0.93835 0.68851 0.10037 0.0
C3032 C 0.9258 0.68313 0.09736 0.0
C3033 C 0.9148 0.68591 0.10538 0.0
C3034 C 0.86801 0.68956 0.12486 0.0
C3035 C 0.86752 0.6786 0.11617 0.0
C3036 C 0.57577 0.60505 0.36172 0.0
C3037 C 0.57002 0.59303 0.36598 0.0
C3038 C 0.55946 0.59346 0.37515 0.0
C3039 C 0.55437 0.60565 0.37951 0.0
H3040 H 0.52169 0.62194 0.39786 0.0
H3041 H 0.5013 0.62269 0.41098 0.0
H3042 H 0.5055 0.66527 0.41512 0.0
H3043 H 0.52582 0.66459 0.40181 0.0
H3044 H 0.54282 0.67947 0.3779 0.0
H3045 H 0.54778 0.69873 0.36391 0.0
H3046 H 0.5717 0.67393 0.33826 0.0
H3047 H 0.56733 0.65489 0.3524 0.0
H3048 H 0.57515 0.62628 0.36225 0.0
H3049 H 0.58397 0.60508 0.35471 0.0
H3050 H 0.55484 0.58437 0.37868 0.0
H3051 H 0.54598 0.60561 0.38629 0.0
N3052 N 0.54325 0.63117 0.38706 0.0
N3053 N 0.54102 0.65411 0.38324 0.0
N3054 N 0.55728 0.64188 0.37182 0.0
C3055 C 0.53703 0.64289 0.38969 0.0
C3056 C 0.55114 0.65367 0.37426 0.0
C3057 C 0.55348 0.6306 0.37822 0.0
C3058 C 0.52535 0.64323 0.39869 0.0
C3059 C 0.51837 0.63146 0.40168 0.0
C3060 C 0.50665 0.63188 0.40918 0.0
C3061 C 0.50177 0.64404 0.41404 0.0
C3062 C 0.50902 0.65574 0.41153 0.0
C3063 C 0.52064 0.65535 0.40385 0.0
C3064 C 0.55476 0.66562 0.36638 0.0
C3065 C 0.54935 0.67817 0.36942 0.0
C3066 C 0.55217 0.68921 0.3614 0.0
C3067 C 0.56048 0.68793 0.35022 0.0
C3068 C 0.56586 0.67542 0.34717 0.0
C3069 C 0.56315 0.66442 0.35522 0.0
C3070 C 0.55972 0.61769 0.37476 0.0
C3071 C 0.57068 0.61723 0.36604 0.0
C3072 C 0.88743 0.64456 0.67409 0.0
C3073 C 0.88321 0.65657 0.67989 0.0
C3074 C 0.87398 0.65614 0.6904 0.0
C3075 C 0.86952 0.64394 0.69539 0.0
H3076 H 0.85121 0.62765 0.728 0.0
H3077 H 0.83822 0.62692 0.74846 0.0
H3078 H 0.83373 0.58438 0.74415 0.0
H3079 H 0.84692 0.58504 0.72375 0.0
H3080 H 0.87044 0.57001 0.70632 0.0
H3081 H 0.88427 0.55065 0.70124 0.0
H3082 H 0.91035 0.57544 0.67776 0.0
H3083 H 0.89636 0.59458 0.68224 0.0
H3084 H 0.88675 0.62333 0.67458 0.0
H3085 H 0.89448 0.64453 0.66592 0.0
H3086 H 0.87049 0.66521 0.69505 0.0
H3087 H 0.86271 0.64398 0.70374 0.0
N3088 N 0.86185 0.61842 0.70639 0.0
N3089 N 0.86547 0.59544 0.70847 0.0
N3090 N 0.87694 0.60767 0.69224 0.0
C3091 C 0.85913 0.60669 0.71255 0.0
C3092 C 0.87442 0.59586 0.69832 0.0
C3093 C 0.87066 0.61898 0.69615 0.0
C3094 C 0.85019 0.60638 0.72428 0.0
C3095 C 0.84734 0.61815 0.73131 0.0
C3096 C 0.83992 0.61774 0.74307 0.0
C3097 C 0.83501 0.60559 0.74794 0.0
C3098 C 0.83738 0.5939 0.74063 0.0
C3099 C 0.84498 0.59427 0.72898 0.0
C3100 C 0.88219 0.58386 0.6946 0.0
C3101 C 0.87898 0.57129 0.69985 0.0
C3102 C 0.88691 0.5602 0.69697 0.0
C3103 C 0.89817 0.56144 0.68875 0.0
C3104 C 0.90137 0.57398 0.68352 0.0
C3105 C 0.89341 0.58503 0.68629 0.0
C3106 C 0.87423 0.6319 0.68999 0.0
C3107 C 0.883 0.63237 0.67909 0.0
C3108 C 0.60531 0.63711 0.92353 0.0
C3109 C 0.59329 0.63286 0.92933 0.0
C3110 C 0.59375 0.62371 0.93989 0.0
C3111 C 0.60597 0.61935 0.94494 0.0
H3112 H 0.62225 0.60133 0.97769 0.0
H3113 H 0.62296 0.58844 0.9982 0.0
H3114 H 0.66562 0.58433 0.99418 0.0
H3115 H 0.66497 0.59741 0.97373 0.0
H3116 H 0.6799 0.62102 0.95632 0.0
H3117 H 0.69918 0.63498 0.95124 0.0
H3118 H 0.6743 0.66049 0.92726 0.0
H3119 H 0.65525 0.64637 0.93174 0.0
H3120 H 0.62657 0.63656 0.9241 0.0
H3121 H 0.60532 0.6441 0.91533 0.0
H3122 H 0.58467 0.62019 0.94454 0.0
H3123 H 0.60595 0.6126 0.95334 0.0
N3124 N 0.63152 0.61194 0.95609 0.0
N3125 N 0.65449 0.61575 0.95827 0.0
N3126 N 0.64224 0.62701 0.94191 0.0
C3127 C 0.64326 0.60935 0.96232 0.0
C3128 C 0.65405 0.62463 0.94806 0.0
C3129 C 0.63095 0.62067 0.94579 0.0
C3130 C 0.64358 0.60049 0.97411 0.0
C3131 C 0.63178 0.59757 0.98108 0.0
C3132 C 0.63218 0.59021 0.99287 0.0
C3133 C 0.64435 0.58542 0.99783 0.0
C3134 C 0.65608 0.58787 0.99059 0.0
C3135 C 0.65571 0.59541 0.9789 0.0
C3136 C 0.66601 0.63247 0.94436 0.0
C3137 C 0.67859 0.62946 0.94975 0.0
C3138 C 0.68963 0.63746 0.94687 0.0
C3139 C 0.68835 0.64859 0.93851 0.0
C3140 C 0.6758 0.6516 0.93313 0.0
C3141 C 0.6648 0.64358 0.93591 0.0
C3142 C 0.61801 0.6241 0.93956 0.0
C3143 C 0.61752 0.63279 0.9286 0.0
C3144 C 0.59849 0.42531 0.18361 0.0
C3145 C 0.60165 0.43784 0.1889 0.0
C3146 C 0.6129 0.43908 0.19713 0.0
C3147 C 0.62087 0.428 0.19996 0.0
H3148 H 0.65302 0.41425 0.22375 0.0
H3149 H 0.66622 0.41487 0.24413 0.0
H3150 H 0.66186 0.3723 0.24829 0.0
H3151 H 0.64885 0.37162 0.22784 0.0
H3152 H 0.63737 0.35535 0.20353 0.0
H3153 H 0.62962 0.33413 0.19478 0.0
H3154 H 0.60556 0.35485 0.16574 0.0
H3155 H 0.61326 0.37605 0.17446 0.0
H3156 H 0.60358 0.40474 0.18223 0.0
H3157 H 0.58952 0.42385 0.17784 0.0
H3158 H 0.6155 0.44861 0.20144 0.0
H3159 H 0.62941 0.42927 0.20643 0.0
N3160 N 0.63448 0.40386 0.20844 0.0
N3161 N 0.63816 0.38089 0.20627 0.0
N3162 N 0.62303 0.39167 0.19219 0.0
C3163 C 0.64086 0.39261 0.21247 0.0
C3164 C 0.62934 0.38036 0.19603 0.0
C3165 C 0.62552 0.40345 0.1983 0.0
C3166 C 0.6498 0.3929 0.2242 0.0
C3167 C 0.65499 0.405 0.22894 0.0
C3168 C 0.6626 0.40535 0.24059 0.0
C3169 C 0.66501 0.39364 0.24785 0.0
C3170 C 0.66012 0.3815 0.24294 0.0
C3171 C 0.65269 0.38112 0.23118 0.0
C3172 C 0.62581 0.36744 0.18983 0.0
C3173 C 0.63055 0.3554 0.19518 0.0
C3174 C 0.6261 0.34321 0.19016 0.0
C3175 C 0.61686 0.3428 0.17966 0.0
C3176 C 0.61262 0.35481 0.1739 0.0
C3177 C 0.61703 0.36699 0.17893 0.0
C3178 C 0.61771 0.41544 0.19464 0.0
C3179 C 0.60649 0.41427 0.18633 0.0
C3180 C 0.82391 0.34756 0.43366 0.0
C3181 C 0.81137 0.35054 0.43907 0.0
C3182 C 0.81008 0.36167 0.44743 0.0
C3183 C 0.82111 0.3697 0.45028 0.0
H3184 H 0.8347 0.40181 0.47419 0.0
H3185 H 0.83406 0.41487 0.49466 0.0
H3186 H 0.87673 0.41083 0.4986 0.0
H3187 H 0.87743 0.39797 0.47807 0.0
H3188 H 0.89371 0.38679 0.45365 0.0
H3189 H 0.91499 0.37926 0.44478 0.0
H3190 H 0.89432 0.35529 0.41564 0.0
H3191 H 0.87307 0.36277 0.42447 0.0
H3192 H 0.84445 0.35285 0.43221 0.0
H3193 H 0.82542 0.33868 0.42778 0.0
H3194 H 0.80054 0.36413 0.45183 0.0
H3195 H 0.81979 0.37815 0.45685 0.0
N3196 N 0.84519 0.38348 0.45872 0.0
N3197 N 0.86814 0.38737 0.45648 0.0
N3198 N 0.85743 0.37226 0.44233 0.0
C3199 C 0.85641 0.38992 0.46274 0.0
C3200 C 0.86871 0.37864 0.44618 0.0
C3201 C 0.84563 0.37461 0.44851 0.0
C3202 C 0.8561 0.39877 0.47453 0.0
C3203 C 0.84396 0.40382 0.47935 0.0
C3204 C 0.8436 0.41135 0.49105 0.0
C3205 C 0.85534 0.41381 0.49828 0.0
C3206 C 0.86751 0.40906 0.49328 0.0
C3207 C 0.8679 0.40171 0.48148 0.0
C3208 C 0.88164 0.37526 0.43991 0.0
C3209 C 0.89368 0.38004 0.44525 0.0
C3210 C 0.9059 0.37572 0.44017 0.0
C3211 C 0.90635 0.36656 0.4296 0.0
C3212 C 0.89434 0.36229 0.42384 0.0
C3213 C 0.88213 0.36656 0.42894 0.0
C3214 C 0.83368 0.36673 0.44485 0.0
C3215 C 0.8349 0.35562 0.4364 0.0
C3216 C 0.88742 0.3544 0.82488 0.0
C3217 C 0.88321 0.34239 0.81907 0.0
C3218 C 0.87398 0.34282 0.80856 0.0
C3219 C 0.86952 0.35502 0.80357 0.0
H3220 H 0.85121 0.37131 0.77096 0.0
H3221 H 0.83822 0.37204 0.7505 0.0
H3222 H 0.83373 0.41458 0.75482 0.0
H3223 H 0.84692 0.41392 0.77521 0.0
H3224 H 0.87044 0.42895 0.79265 0.0
H3225 H 0.88427 0.44831 0.79772 0.0
H3226 H 0.91035 0.42352 0.8212 0.0
H3227 H 0.89636 0.40439 0.81672 0.0
H3228 H 0.88675 0.37563 0.82438 0.0
H3229 H 0.89447 0.35443 0.83304 0.0
H3230 H 0.87048 0.33375 0.80391 0.0
H3231 H 0.86271 0.35498 0.79522 0.0
N3232 N 0.86185 0.38054 0.79257 0.0
N3233 N 0.86547 0.40352 0.7905 0.0
N3234 N 0.87694 0.3913 0.80672 0.0
C3235 C 0.85913 0.39227 0.78641 0.0
C3236 C 0.87441 0.4031 0.80065 0.0
C3237 C 0.87066 0.37999 0.80281 0.0
C3238 C 0.85019 0.39258 0.77468 0.0
C3239 C 0.84734 0.38082 0.76765 0.0
C3240 C 0.83992 0.38122 0.75589 0.0
C3241 C 0.83501 0.39337 0.75102 0.0
C3242 C 0.83738 0.40506 0.75833 0.0
C3243 C 0.84498 0.40469 0.76998 0.0
C3244 C 0.88219 0.4151 0.80436 0.0
C3245 C 0.87898 0.42767 0.79911 0.0
C3246 C 0.88691 0.43876 0.80199 0.0
C3247 C 0.89817 0.43752 0.81021 0.0
C3248 C 0.90137 0.42498 0.81544 0.0
C3249 C 0.89341 0.41393 0.81267 0.0
C3250 C 0.87423 0.36706 0.80897 0.0
C3251 C 0.883 0.36659 0.81987 0.0
C3252 C 0.82391 0.6514 0.0653 0.0
C3253 C 0.81137 0.64842 0.05989 0.0
C3254 C 0.81008 0.63729 0.05153 0.0
C3255 C 0.82111 0.62926 0.04868 0.0
H3256 H 0.8347 0.59715 0.02477 0.0
H3257 H 0.83406 0.58409 0.0043 0.0
H3258 H 0.87673 0.58813 0.00036 0.0
H3259 H 0.87743 0.60099 0.02089 0.0
H3260 H 0.89371 0.61217 0.04531 0.0
H3261 H 0.91499 0.6197 0.05418 0.0
H3262 H 0.89432 0.64367 0.08332 0.0
H3263 H 0.87307 0.63619 0.07449 0.0
H3264 H 0.84445 0.64611 0.06675 0.0
H3265 H 0.82542 0.66028 0.07118 0.0
H3266 H 0.80054 0.63483 0.04713 0.0
H3267 H 0.81979 0.62081 0.04211 0.0
N3268 N 0.84519 0.61548 0.04024 0.0
N3269 N 0.86814 0.61159 0.04248 0.0
N3270 N 0.85743 0.6267 0.05663 0.0
C3271 C 0.85641 0.60905 0.03622 0.0
C3272 C 0.86871 0.62032 0.05278 0.0
C3273 C 0.84563 0.62435 0.05045 0.0
C3274 C 0.8561 0.60019 0.02443 0.0
C3275 C 0.84396 0.59514 0.01961 0.0
C3276 C 0.8436 0.58761 0.00791 0.0
C3277 C 0.85534 0.58515 0.00069 0.0
C3278 C 0.86751 0.5899 0.00568 0.0
C3279 C 0.8679 0.59725 0.01748 0.0
C3280 C 0.88164 0.62371 0.05906 0.0
C3281 C 0.89368 0.61893 0.05371 0.0
C3282 C 0.9059 0.62324 0.05879 0.0
C3283 C 0.90635 0.6324 0.06936 0.0
C3284 C 0.89434 0.63667 0.07512 0.0
C3285 C 0.88213 0.6324 0.07002 0.0
C3286 C 0.83368 0.63223 0.05411 0.0
C3287 C 0.8349 0.64334 0.06256 0.0
C3288 C 0.59849 0.57365 0.31535 0.0
C3289 C 0.60165 0.56112 0.31006 0.0
C3290 C 0.6129 0.55988 0.30183 0.0
C3291 C 0.62087 0.57096 0.299 0.0
H3292 H 0.65302 0.58471 0.27521 0.0
H3293 H 0.66622 0.58409 0.25483 0.0
H3294 H 0.66186 0.62666 0.25068 0.0
H3295 H 0.64885 0.62734 0.27112 0.0
H3296 H 0.63737 0.64361 0.29543 0.0
H3297 H 0.62962 0.66483 0.30418 0.0
H3298 H 0.60556 0.64411 0.33322 0.0
H3299 H 0.61326 0.62291 0.3245 0.0
H3300 H 0.60358 0.59422 0.31673 0.0
H3301 H 0.58952 0.57511 0.32112 0.0
H3302 H 0.6155 0.55035 0.29752 0.0
H3303 H 0.62941 0.56969 0.29253 0.0
N3304 N 0.63448 0.5951 0.29052 0.0
N3305 N 0.63816 0.61807 0.29269 0.0
N3306 N 0.62303 0.6073 0.30678 0.0
C3307 C 0.64086 0.60635 0.28649 0.0
C3308 C 0.62935 0.6186 0.30293 0.0
C3309 C 0.62552 0.59551 0.30066 0.0
C3310 C 0.6498 0.60606 0.27476 0.0
C3311 C 0.65499 0.59396 0.27002 0.0
C3312 C 0.6626 0.59361 0.25837 0.0
C3313 C 0.66501 0.60532 0.25111 0.0
C3314 C 0.66012 0.61746 0.25602 0.0
C3315 C 0.65269 0.61784 0.26778 0.0
C3316 C 0.62581 0.63152 0.30913 0.0
C3317 C 0.63055 0.64356 0.30378 0.0
C3318 C 0.6261 0.65575 0.3088 0.0
C3319 C 0.61686 0.65616 0.3193 0.0
C3320 C 0.61262 0.64415 0.32506 0.0
C3321 C 0.61703 0.63197 0.32003 0.0
C3322 C 0.61771 0.58352 0.30432 0.0
C3323 C 0.60649 0.58469 0.31263 0.0
C3324 C 0.60531 0.36185 0.57543 0.0
C3325 C 0.59329 0.3661 0.56963 0.0
C3326 C 0.59375 0.37525 0.55907 0.0
C3327 C 0.60597 0.37961 0.55402 0.0
H3328 H 0.62225 0.39763 0.52127 0.0
H3329 H 0.62296 0.41052 0.50076 0.0
H3330 H 0.66562 0.41463 0.50478 0.0
H3331 H 0.66497 0.40155 0.52523 0.0
H3332 H 0.6799 0.37794 0.54264 0.0
H3333 H 0.69918 0.36398 0.54772 0.0
H3334 H 0.6743 0.33847 0.5717 0.0
H3335 H 0.65525 0.35259 0.56722 0.0
H3336 H 0.62657 0.3624 0.57486 0.0
H3337 H 0.60532 0.35486 0.58363 0.0
H3338 H 0.58467 0.37877 0.55442 0.0
H3339 H 0.60595 0.38636 0.54562 0.0
N3340 N 0.63152 0.38702 0.54287 0.0
N3341 N 0.65449 0.38321 0.54069 0.0
N3342 N 0.64224 0.37195 0.55705 0.0
C3343 C 0.64326 0.38961 0.53664 0.0
C3344 C 0.65405 0.37433 0.5509 0.0
C3345 C 0.63095 0.37829 0.55317 0.0
C3346 C 0.64358 0.39847 0.52486 0.0
C3347 C 0.63178 0.40139 0.51788 0.0
C3348 C 0.63218 0.40875 0.50609 0.0
C3349 C 0.64435 0.41354 0.50113 0.0
C3350 C 0.65608 0.41109 0.50837 0.0
C3351 C 0.65571 0.40355 0.52006 0.0
C3352 C 0.66601 0.36649 0.5546 0.0
C3353 C 0.67859 0.3695 0.54921 0.0
C3354 C 0.68963 0.3615 0.55209 0.0
C3355 C 0.68835 0.35037 0.56045 0.0
C3356 C 0.6758 0.34736 0.56583 0.0
C3357 C 0.6648 0.35538 0.56305 0.0
C3358 C 0.61801 0.37486 0.5594 0.0
C3359 C 0.61752 0.36617 0.57036 0.0
C3360 C 0.67415 0.8873 0.64343 0.0
C3361 C 0.67985 0.88297 0.65544 0.0
C3362 C 0.6904 0.87379 0.65501 0.0
C3363 C 0.69551 0.86947 0.64281 0.0
H3364 H 0.72827 0.85124 0.62656 0.0
H3365 H 0.74867 0.83812 0.62584 0.0
H3366 H 0.74455 0.83402 0.58324 0.0
H3367 H 0.72422 0.84733 0.5839 0.0
H3368 H 0.70715 0.87119 0.56901 0.0
H3369 H 0.7022 0.88518 0.54974 0.0
H3370 H 0.67837 0.91091 0.57456 0.0
H3371 H 0.68274 0.89676 0.59361 0.0
H3372 H 0.67484 0.88685 0.62219 0.0
H3373 H 0.66596 0.89433 0.6434 0.0
H3374 H 0.69498 0.87021 0.66409 0.0
H3375 H 0.7039 0.86268 0.64285 0.0
N3376 N 0.70672 0.86202 0.6173 0.0
N3377 N 0.70899 0.86588 0.59438 0.0
N3378 N 0.6927 0.87727 0.6066 0.0
C3379 C 0.71296 0.85941 0.60559 0.0
C3380 C 0.69886 0.87486 0.59482 0.0
C3381 C 0.69649 0.87086 0.61787 0.0
C3382 C 0.72465 0.85042 0.60527 0.0
C3383 C 0.73161 0.84743 0.61705 0.0
C3384 C 0.74334 0.83994 0.61664 0.0
C3385 C 0.74824 0.83509 0.60448 0.0
C3386 C 0.741 0.83761 0.59277 0.0
C3387 C 0.72939 0.84528 0.59314 0.0
C3388 C 0.69526 0.88275 0.58287 0.0
C3389 C 0.70065 0.87969 0.57031 0.0
C3390 C 0.69783 0.88771 0.55928 0.0
C3391 C 0.68955 0.89891 0.56055 0.0
C3392 C 0.68419 0.90197 0.57307 0.0
C3393 C 0.6869 0.89393 0.58407 0.0
C3394 C 0.69021 0.87428 0.63078 0.0
C3395 C 0.67927 0.88303 0.63124 0.0
C3396 C 0.17415 0.61166 0.35553 0.0
C3397 C 0.17985 0.61599 0.34352 0.0
C3398 C 0.1904 0.62517 0.34395 0.0
C3399 C 0.19551 0.62949 0.35615 0.0
H3400 H 0.22827 0.64772 0.3724 0.0
H3401 H 0.24867 0.66084 0.37313 0.0
H3402 H 0.24455 0.66494 0.41572 0.0
H3403 H 0.22422 0.65163 0.41506 0.0
H3404 H 0.20715 0.62777 0.42995 0.0
H3405 H 0.2022 0.61378 0.44922 0.0
H3406 H 0.17837 0.58806 0.4244 0.0
H3407 H 0.18274 0.6022 0.40536 0.0
H3408 H 0.17484 0.61211 0.37677 0.0
H3409 H 0.16596 0.60463 0.35556 0.0
H3410 H 0.19498 0.62875 0.33487 0.0
H3411 H 0.2039 0.63628 0.35611 0.0
N3412 N 0.20672 0.63694 0.38166 0.0
N3413 N 0.20899 0.63308 0.40458 0.0
N3414 N 0.1927 0.62169 0.39236 0.0
C3415 C 0.21296 0.63955 0.39337 0.0
C3416 C 0.19886 0.6241 0.40414 0.0
C3417 C 0.19649 0.6281 0.38109 0.0
C3418 C 0.22465 0.64854 0.39369 0.0
C3419 C 0.23161 0.65153 0.38191 0.0
C3420 C 0.24334 0.65902 0.38232 0.0
C3421 C 0.24824 0.66387 0.39448 0.0
C3422 C 0.241 0.66135 0.40619 0.0
C3423 C 0.22939 0.65368 0.40582 0.0
C3424 C 0.19526 0.61621 0.41609 0.0
C3425 C 0.20065 0.61927 0.42865 0.0
C3426 C 0.19783 0.61125 0.43969 0.0
C3427 C 0.18955 0.60005 0.43841 0.0
C3428 C 0.18419 0.59699 0.42589 0.0
C3429 C 0.1869 0.60503 0.41489 0.0
C3430 C 0.19021 0.62468 0.36818 0.0
C3431 C 0.17927 0.61594 0.36772 0.0
C3432 C 0.63743 0.92409 0.6044 0.0
C3433 C 0.63321 0.92989 0.59239 0.0
C3434 C 0.62398 0.9404 0.59282 0.0
C3435 C 0.61952 0.94539 0.60502 0.0
H3436 H 0.60121 0.978 0.62131 0.0
H3437 H 0.58822 0.99846 0.62204 0.0
H3438 H 0.58373 0.99415 0.66458 0.0
H3439 H 0.59692 0.97375 0.66392 0.0
H3440 H 0.62044 0.95632 0.67895 0.0
H3441 H 0.63427 0.95124 0.69831 0.0
H3442 H 0.66035 0.92776 0.67352 0.0
H3443 H 0.64636 0.93224 0.65439 0.0
H3444 H 0.63675 0.92458 0.62563 0.0
H3445 H 0.64448 0.91592 0.60443 0.0
H3446 H 0.62049 0.94505 0.58375 0.0
H3447 H 0.61271 0.95374 0.60498 0.0
N3448 N 0.61185 0.95639 0.63054 0.0
N3449 N 0.61547 0.95847 0.65352 0.0
N3450 N 0.62694 0.94224 0.6413 0.0
C3451 C 0.60913 0.96255 0.64227 0.0
C3452 C 0.62441 0.94832 0.6531 0.0
C3453 C 0.62066 0.94615 0.62999 0.0
C3454 C 0.60019 0.97428 0.64258 0.0
C3455 C 0.59734 0.98131 0.63082 0.0
C3456 C 0.58992 0.99307 0.63122 0.0
C3457 C 0.58501 0.99794 0.64337 0.0
C3458 C 0.58738 0.99063 0.65506 0.0
C3459 C 0.59498 0.97898 0.65469 0.0
C3460 C 0.63219 0.9446 0.6651 0.0
C3461 C 0.62898 0.94985 0.67767 0.0
C3462 C 0.63691 0.94697 0.68876 0.0
C3463 C 0.64817 0.93875 0.68752 0.0
C3464 C 0.65137 0.93352 0.67498 0.0
C3465 C 0.64341 0.93629 0.66393 0.0
C3466 C 0.62423 0.93999 0.61706 0.0
C3467 C 0.633 0.92909 0.61659 0.0
C3468 C 0.32577 0.38724 0.85505 0.0
C3469 C 0.32002 0.38298 0.84303 0.0
C3470 C 0.30946 0.37381 0.84346 0.0
C3471 C 0.30437 0.36945 0.85565 0.0
H3472 H 0.27169 0.3511 0.87194 0.0
H3473 H 0.2513 0.33798 0.87269 0.0
H3474 H 0.2555 0.33384 0.91527 0.0
H3475 H 0.27582 0.34715 0.91459 0.0
H3476 H 0.29283 0.37106 0.92947 0.0
H3477 H 0.29779 0.38505 0.94873 0.0
H3478 H 0.3217 0.4107 0.92393 0.0
H3479 H 0.31733 0.39656 0.90489 0.0
H3480 H 0.32515 0.38671 0.87628 0.0
H3481 H 0.33397 0.39425 0.85508 0.0
H3482 H 0.30484 0.37028 0.83437 0.0
H3483 H 0.29598 0.36267 0.85561 0.0
N3484 N 0.29325 0.3619 0.88117 0.0
N3485 N 0.29102 0.36572 0.90411 0.0
N3486 N 0.30728 0.37714 0.89188 0.0
C3487 C 0.28703 0.35927 0.89289 0.0
C3488 C 0.30114 0.3747 0.90367 0.0
C3489 C 0.30348 0.37074 0.8806 0.0
C3490 C 0.27535 0.35027 0.89323 0.0
C3491 C 0.26837 0.34728 0.88146 0.0
C3492 C 0.25665 0.33979 0.88188 0.0
C3493 C 0.25177 0.33493 0.89404 0.0
C3494 C 0.25902 0.33743 0.90574 0.0
C3495 C 0.27064 0.34511 0.90535 0.0
C3496 C 0.30476 0.38258 0.91562 0.0
C3497 C 0.29935 0.37954 0.92817 0.0
C3498 C 0.30217 0.38756 0.93921 0.0
C3499 C 0.31048 0.39874 0.93793 0.0
C3500 C 0.31586 0.40179 0.92542 0.0
C3501 C 0.31315 0.39374 0.91442 0.0
C3502 C 0.30972 0.3742 0.86769 0.0
C3503 C 0.32068 0.38293 0.86723 0.0
C3504 C 0.34849 0.56535 0.67531 0.0
C3505 C 0.35165 0.56006 0.68784 0.0
C3506 C 0.3629 0.55183 0.68908 0.0
C3507 C 0.37087 0.549 0.678 0.0
H3508 H 0.40302 0.52521 0.66425 0.0
H3509 H 0.41622 0.50483 0.66487 0.0
H3510 H 0.41186 0.50068 0.6223 0.0
H3511 H 0.39885 0.52112 0.62162 0.0
H3512 H 0.38737 0.54543 0.60535 0.0
H3513 H 0.37962 0.55418 0.58413 0.0
H3514 H 0.35556 0.58322 0.60485 0.0
H3515 H 0.36326 0.5745 0.62605 0.0
H3516 H 0.35358 0.56673 0.65474 0.0
H3517 H 0.33952 0.57112 0.67385 0.0
H3518 H 0.3655 0.54752 0.69861 0.0
H3519 H 0.37941 0.54253 0.67927 0.0
N3520 N 0.38448 0.54052 0.65386 0.0
N3521 N 0.38816 0.54269 0.6309 0.0
N3522 N 0.37303 0.55678 0.64167 0.0
C3523 C 0.39086 0.53649 0.64261 0.0
C3524 C 0.37935 0.55293 0.63036 0.0
C3525 C 0.37552 0.55066 0.65345 0.0
C3526 C 0.3998 0.52476 0.6429 0.0
C3527 C 0.40499 0.52002 0.655 0.0
C3528 C 0.4126 0.50837 0.65535 0.0
C3529 C 0.41501 0.50111 0.64364 0.0
C3530 C 0.41012 0.50603 0.6315 0.0
C3531 C 0.40269 0.51778 0.63112 0.0
C3532 C 0.37581 0.55913 0.61744 0.0
C3533 C 0.38055 0.55378 0.6054 0.0
C3534 C 0.3761 0.5588 0.59321 0.0
C3535 C 0.36686 0.5693 0.5928 0.0
C3536 C 0.36262 0.57506 0.60481 0.0
C3537 C 0.36703 0.57003 0.61699 0.0
C3538 C 0.36771 0.55432 0.66544 0.0
C3539 C 0.35649 0.56263 0.66427 0.0
C3540 C 0.82577 0.11172 0.14391 0.0
C3541 C 0.82002 0.11598 0.15593 0.0
C3542 C 0.80946 0.12515 0.1555 0.0
C3543 C 0.80437 0.12951 0.14331 0.0
H3544 H 0.77169 0.14786 0.12702 0.0
H3545 H 0.7513 0.16098 0.12627 0.0
H3546 H 0.7555 0.16512 0.08369 0.0
H3547 H 0.77582 0.15181 0.08437 0.0
H3548 H 0.79283 0.1279 0.06949 0.0
H3549 H 0.79779 0.11391 0.05023 0.0
H3550 H 0.8217 0.08826 0.07503 0.0
H3551 H 0.81733 0.1024 0.09407 0.0
H3552 H 0.82515 0.11225 0.12268 0.0
H3553 H 0.83397 0.10471 0.14388 0.0
H3554 H 0.80484 0.12868 0.16459 0.0
H3555 H 0.79598 0.13629 0.14335 0.0
N3556 N 0.79325 0.13706 0.11779 0.0
N3557 N 0.79102 0.13324 0.09485 0.0
N3558 N 0.80728 0.12183 0.10708 0.0
C3559 C 0.78703 0.13969 0.10607 0.0
C3560 C 0.80114 0.12426 0.09529 0.0
C3561 C 0.80348 0.12822 0.11836 0.0
C3562 C 0.77535 0.14869 0.10574 0.0
C3563 C 0.76837 0.15168 0.1175 0.0
C3564 C 0.75665 0.15918 0.11708 0.0
C3565 C 0.75177 0.16404 0.10492 0.0
C3566 C 0.75902 0.16153 0.09322 0.0
C3567 C 0.77064 0.15385 0.09361 0.0
C3568 C 0.80476 0.11638 0.08334 0.0
C3569 C 0.79935 0.11942 0.07079 0.0
C3570 C 0.80217 0.1114 0.05975 0.0
C3571 C 0.81048 0.10022 0.06103 0.0
C3572 C 0.81586 0.09717 0.07354 0.0
C3573 C 0.81315 0.10522 0.08454 0.0
C3574 C 0.80972 0.12476 0.13127 0.0
C3575 C 0.82068 0.11604 0.13173 0.0
C3576 C 0.63743 0.07487 0.89456 0.0
C3577 C 0.63321 0.06907 0.90657 0.0
C3578 C 0.62399 0.05856 0.90614 0.0
C3579 C 0.61952 0.05357 0.89394 0.0
H3580 H 0.60121 0.02096 0.87765 0.0
H3581 H 0.58822 0.0005 0.87692 0.0
H3582 H 0.58373 0.00482 0.83438 0.0
H3583 H 0.59692 0.02521 0.83504 0.0
H3584 H 0.62044 0.04264 0.82001 0.0
H3585 H 0.63427 0.04772 0.80065 0.0
H3586 H 0.66035 0.0712 0.82544 0.0
H3587 H 0.64636 0.06672 0.84457 0.0
H3588 H 0.63675 0.07438 0.87333 0.0
H3589 H 0.64448 0.08304 0.89453 0.0
H3590 H 0.62049 0.05391 0.91521 0.0
H3591 H 0.61271 0.04522 0.89398 0.0
N3592 N 0.61185 0.04257 0.86842 0.0
N3593 N 0.61547 0.04049 0.84544 0.0
N3594 N 0.62694 0.05672 0.85767 0.0
C3595 C 0.60913 0.03641 0.85669 0.0
C3596 C 0.62442 0.05065 0.84586 0.0
C3597 C 0.62066 0.05281 0.86898 0.0
C3598 C 0.60019 0.02468 0.85638 0.0
C3599 C 0.59734 0.01765 0.86815 0.0
C3600 C 0.58992 0.00589 0.86774 0.0
C3601 C 0.58501 0.00102 0.85559 0.0
C3602 C 0.58738 0.00833 0.8439 0.0
C3603 C 0.59498 0.01998 0.84427 0.0
C3604 C 0.63219 0.05436 0.83386 0.0
C3605 C 0.62898 0.04911 0.82129 0.0
C3606 C 0.63691 0.05199 0.8102 0.0
C3607 C 0.64817 0.06021 0.81144 0.0
C3608 C 0.65137 0.06544 0.82398 0.0
C3609 C 0.64341 0.06267 0.83503 0.0
C3610 C 0.62423 0.05897 0.8819 0.0
C3611 C 0.633 0.06987 0.88237 0.0
C3612 C 0.84849 0.93361 0.32365 0.0
C3613 C 0.85165 0.9389 0.31112 0.0
C3614 C 0.8629 0.94713 0.30988 0.0
C3615 C 0.87087 0.94996 0.32096 0.0
H3616 H 0.90302 0.97375 0.33471 0.0
H3617 H 0.91622 0.99413 0.3341 0.0
H3618 H 0.91186 0.99829 0.37666 0.0
H3619 H 0.89885 0.97784 0.37734 0.0
H3620 H 0.88737 0.95353 0.39361 0.0
H3621 H 0.87962 0.94478 0.41483 0.0
H3622 H 0.85556 0.91574 0.39411 0.0
H3623 H 0.86326 0.92446 0.37291 0.0
H3624 H 0.85358 0.93223 0.34422 0.0
H3625 H 0.83952 0.92784 0.32511 0.0
H3626 H 0.8655 0.95144 0.30035 0.0
H3627 H 0.87941 0.95643 0.31969 0.0
N3628 N 0.88448 0.95844 0.3451 0.0
N3629 N 0.88816 0.95627 0.36807 0.0
N3630 N 0.87303 0.94218 0.3573 0.0
C3631 C 0.89086 0.96247 0.35635 0.0
C3632 C 0.87935 0.94603 0.3686 0.0
C3633 C 0.87552 0.9483 0.34551 0.0
C3634 C 0.8998 0.9742 0.35606 0.0
C3635 C 0.90499 0.97894 0.34396 0.0
C3636 C 0.9126 0.99059 0.34361 0.0
C3637 C 0.91501 0.99785 0.35532 0.0
C3638 C 0.91012 0.99294 0.36746 0.0
C3639 C 0.90269 0.98118 0.36784 0.0
C3640 C 0.87581 0.93983 0.38152 0.0
C3641 C 0.88055 0.94518 0.39356 0.0
C3642 C 0.8761 0.94016 0.40575 0.0
C3643 C 0.86686 0.92966 0.40616 0.0
C3644 C 0.86262 0.9239 0.39415 0.0
C3645 C 0.86703 0.92893 0.38197 0.0
C3646 C 0.86771 0.94464 0.33352 0.0
C3647 C 0.85649 0.93633 0.33469 0.0
C3648 C 0.35692 0.32895 0.13592 0.0
C3649 C 0.3472 0.31888 0.13588 0.0
C3650 C 0.35128 0.30555 0.13721 0.0
C3651 C 0.36486 0.30236 0.13797 0.0
H3652 H 0.39418 0.27463 0.15296 0.0
H3653 H 0.4041 0.25494 0.16317 0.0
H3654 H 0.44318 0.26827 0.151 0.0
H3655 H 0.43338 0.28782 0.1408 0.0
H3656 H 0.43399 0.30825 0.11571 0.0
H3657 H 0.44698 0.32177 0.10028 0.0
H3658 H 0.41823 0.35358 0.10408 0.0
H3659 H 0.4052 0.34006 0.11936 0.0
H3660 H 0.37766 0.33375 0.13597 0.0
H3661 H 0.35416 0.33933 0.13496 0.0
H3662 H 0.34402 0.29758 0.13726 0.0
H3663 H 0.36777 0.29199 0.13853 0.0
N3664 N 0.39397 0.29788 0.14141 0.0
N3665 N 0.41501 0.3032 0.13266 0.0
N3666 N 0.39695 0.31741 0.12893 0.0
C3667 C 0.40712 0.29491 0.13989 0.0
C3668 C 0.41 0.31444 0.12714 0.0
C3669 C 0.38887 0.30919 0.136 0.0
C3670 C 0.41296 0.28284 0.14604 0.0
C3671 C 0.40489 0.27336 0.15246 0.0
C3672 C 0.41057 0.26206 0.1583 0.0
C3673 C 0.42443 0.26006 0.15791 0.0
C3674 C 0.43247 0.26952 0.1515 0.0
C3675 C 0.42681 0.28074 0.14562 0.0
C3676 C 0.41849 0.32304 0.11869 0.0
C3677 C 0.43051 0.31818 0.11336 0.0
C3678 C 0.43794 0.32591 0.10448 0.0
C3679 C 0.43361 0.33872 0.1009 0.0
C3680 C 0.42186 0.34375 0.10663 0.0
C3681 C 0.41435 0.33597 0.11536 0.0
C3682 C 0.37455 0.31243 0.13717 0.0
C3683 C 0.37042 0.32576 0.13645 0.0
C3684 C 0.42051 0.60644 0.88688 0.0
C3685 C 0.43062 0.59675 0.88678 0.0
C3686 C 0.44395 0.60086 0.88807 0.0
C3687 C 0.44712 0.61443 0.88884 0.0
H3688 H 0.47501 0.64373 0.90349 0.0
H3689 H 0.49486 0.65365 0.91343 0.0
H3690 H 0.48134 0.69267 0.90141 0.0
H3691 H 0.46163 0.68287 0.8915 0.0
H3692 H 0.44094 0.68349 0.86669 0.0
H3693 H 0.42734 0.69641 0.85128 0.0
H3694 H 0.39558 0.66763 0.85518 0.0
H3695 H 0.40918 0.65466 0.87044 0.0
H3696 H 0.41565 0.62713 0.88698 0.0
H3697 H 0.41012 0.60365 0.88596 0.0
H3698 H 0.45196 0.59363 0.88807 0.0
H3699 H 0.45749 0.61736 0.88936 0.0
N3700 N 0.45158 0.6435 0.89222 0.0
N3701 N 0.44616 0.66451 0.88353 0.0
N3702 N 0.43191 0.64646 0.87993 0.0
C3703 C 0.45453 0.65664 0.89068 0.0
C3704 C 0.43485 0.65951 0.87811 0.0
C3705 C 0.44021 0.63839 0.88692 0.0
C3706 C 0.46669 0.66247 0.89668 0.0
C3707 C 0.47627 0.65442 0.90297 0.0
C3708 C 0.48766 0.6601 0.90865 0.0
C3709 C 0.48966 0.67394 0.90822 0.0
C3710 C 0.4801 0.68197 0.90194 0.0
C3711 C 0.46878 0.67631 0.89622 0.0
C3712 C 0.42619 0.66798 0.86972 0.0
C3713 C 0.431 0.67999 0.86437 0.0
C3714 C 0.42323 0.68739 0.85551 0.0
C3715 C 0.41041 0.68302 0.85195 0.0
C3716 C 0.40541 0.67128 0.85771 0.0
C3717 C 0.41324 0.66381 0.86643 0.0
C3718 C 0.43701 0.62409 0.8881 0.0
C3719 C 0.42367 0.61993 0.88742 0.0
C3720 C 0.07812 0.6556 0.60685 0.0
C3721 C 0.06638 0.66064 0.60109 0.0
C3722 C 0.06206 0.67346 0.60464 0.0
C3723 C 0.06949 0.68119 0.61351 0.0
H3724 H 0.06662 0.71161 0.64089 0.0
H3725 H 0.05682 0.73118 0.65102 0.0
H3726 H 0.09589 0.74452 0.66321 0.0
H3727 H 0.10581 0.72479 0.65306 0.0
H3728 H 0.13223 0.70736 0.63871 0.0
H3729 H 0.15598 0.70173 0.63749 0.0
H3730 H 0.14578 0.65999 0.6353 0.0
H3731 H 0.12229 0.66561 0.63625 0.0
H3732 H 0.09477 0.6593 0.61959 0.0
H3733 H 0.08174 0.64576 0.60432 0.0
H3734 H 0.05304 0.6776 0.60042 0.0
H3735 H 0.06602 0.69113 0.61583 0.0
N3736 N 0.08498 0.6962 0.6328 0.0
N3737 N 0.10601 0.7015 0.64158 0.0
N3738 N 0.10303 0.68195 0.62913 0.0
C3739 C 0.09287 0.70449 0.64003 0.0
C3740 C 0.11111 0.69018 0.6362 0.0
C3741 C 0.08998 0.68493 0.62731 0.0
C3742 C 0.08703 0.71658 0.64614 0.0
C3743 C 0.07318 0.71869 0.64569 0.0
C3744 C 0.06752 0.72993 0.65154 0.0
C3745 C 0.07557 0.7394 0.65793 0.0
C3746 C 0.08942 0.73739 0.65835 0.0
C3747 C 0.0951 0.72607 0.65254 0.0
C3748 C 0.12542 0.68692 0.6374 0.0
C3749 C 0.13513 0.69698 0.63819 0.0
C3750 C 0.1487 0.69377 0.63746 0.0
C3751 C 0.15276 0.68043 0.63617 0.0
C3752 C 0.14303 0.67038 0.63622 0.0
C3753 C 0.12953 0.67359 0.63672 0.0
C3754 C 0.0815 0.67634 0.61887 0.0
C3755 C 0.08563 0.66339 0.61557 0.0
C3756 C 0.07968 0.39269 0.38707 0.0
C3757 C 0.06961 0.40241 0.38698 0.0
C3758 C 0.05626 0.39837 0.38829 0.0
C3759 C 0.05304 0.38481 0.38906 0.0
H3760 H 0.02498 0.35565 0.40361 0.0
H3761 H 0.00506 0.34582 0.41351 0.0
H3762 H 0.01844 0.30674 0.40155 0.0
H3763 H 0.03821 0.31644 0.39167 0.0
H3764 H 0.05882 0.31587 0.36664 0.0
H3765 H 0.07237 0.30293 0.3512 0.0
H3766 H 0.10443 0.33131 0.35555 0.0
H3767 H 0.09088 0.3443 0.37085 0.0
H3768 H 0.08445 0.37197 0.38717 0.0
H3769 H 0.09007 0.39543 0.38613 0.0
H3770 H 0.04828 0.40563 0.3883 0.0
H3771 H 0.04265 0.38192 0.38959 0.0
N3772 N 0.04844 0.35576 0.3924 0.0
N3773 N 0.05376 0.33473 0.38369 0.0
N3774 N 0.06811 0.35271 0.38013 0.0
C3775 C 0.04542 0.34263 0.39084 0.0
C3776 C 0.0651 0.33968 0.3783 0.0
C3777 C 0.05984 0.36081 0.38712 0.0
C3778 C 0.03323 0.33686 0.39682 0.0
C3779 C 0.02367 0.34496 0.40309 0.0
C3780 C 0.01224 0.33934 0.40875 0.0
C3781 C 0.01019 0.3255 0.40833 0.0
C3782 C 0.01973 0.31743 0.40207 0.0
C3783 C 0.03108 0.32303 0.39637 0.0
C3784 C 0.07373 0.33119 0.3699 0.0
C3785 C 0.06881 0.31928 0.36442 0.0
C3786 C 0.07656 0.31187 0.35553 0.0
C3787 C 0.08944 0.31613 0.35209 0.0
C3788 C 0.09455 0.32775 0.35799 0.0
C3789 C 0.08675 0.33524 0.36673 0.0
C3790 C 0.06311 0.37511 0.38831 0.0
C3791 C 0.07646 0.37921 0.38761 0.0
C3792 C 0.35692 0.67001 0.36304 0.0
C3793 C 0.3472 0.68008 0.36308 0.0
C3794 C 0.35128 0.69341 0.36175 0.0
C3795 C 0.36486 0.6966 0.36099 0.0
H3796 H 0.39418 0.72433 0.346 0.0
H3797 H 0.4041 0.74402 0.33579 0.0
H3798 H 0.44318 0.73069 0.34796 0.0
H3799 H 0.43338 0.71115 0.35816 0.0
H3800 H 0.43399 0.69071 0.38325 0.0
H3801 H 0.44698 0.67719 0.39868 0.0
H3802 H 0.41823 0.64538 0.39488 0.0
H3803 H 0.4052 0.6589 0.3796 0.0
H3804 H 0.37766 0.66521 0.36299 0.0
H3805 H 0.35416 0.65964 0.364 0.0
H3806 H 0.34402 0.70138 0.3617 0.0
H3807 H 0.36777 0.70697 0.36043 0.0
N3808 N 0.39397 0.70108 0.35755 0.0
N3809 N 0.41501 0.69576 0.3663 0.0
N3810 N 0.39695 0.68155 0.37003 0.0
C3811 C 0.40713 0.70405 0.35907 0.0
C3812 C 0.41001 0.68452 0.37182 0.0
C3813 C 0.38887 0.68977 0.36296 0.0
C3814 C 0.41296 0.71612 0.35292 0.0
C3815 C 0.40489 0.7256 0.3465 0.0
C3816 C 0.41057 0.7369 0.34066 0.0
C3817 C 0.42443 0.7389 0.34105 0.0
C3818 C 0.43247 0.72944 0.34746 0.0
C3819 C 0.42681 0.71822 0.35334 0.0
C3820 C 0.41849 0.67592 0.38027 0.0
C3821 C 0.43051 0.68078 0.3856 0.0
C3822 C 0.43794 0.67305 0.39448 0.0
C3823 C 0.43361 0.66024 0.39806 0.0
C3824 C 0.42186 0.65521 0.39233 0.0
C3825 C 0.41435 0.66299 0.3836 0.0
C3826 C 0.37455 0.68653 0.36179 0.0
C3827 C 0.37042 0.67321 0.36252 0.0
C3828 C 0.07968 0.60627 0.11189 0.0
C3829 C 0.06961 0.59655 0.11198 0.0
C3830 C 0.05626 0.60059 0.11067 0.0
C3831 C 0.05304 0.61415 0.1099 0.0
H3832 H 0.02498 0.64331 0.09535 0.0
H3833 H 0.00506 0.65314 0.08545 0.0
H3834 H 0.01844 0.69222 0.09741 0.0
H3835 H 0.03821 0.68252 0.10729 0.0
H3836 H 0.05882 0.68309 0.13232 0.0
H3837 H 0.07237 0.69603 0.14776 0.0
H3838 H 0.10443 0.66765 0.14341 0.0
H3839 H 0.09088 0.65466 0.12811 0.0
H3840 H 0.08445 0.62699 0.1118 0.0
H3841 H 0.09007 0.60353 0.11283 0.0
H3842 H 0.04828 0.59333 0.11066 0.0
H3843 H 0.04265 0.61704 0.10937 0.0
N3844 N 0.04844 0.6432 0.10656 0.0
N3845 N 0.05376 0.66423 0.11527 0.0
N3846 N 0.06811 0.64625 0.11883 0.0
C3847 C 0.04542 0.65633 0.10812 0.0
C3848 C 0.0651 0.65928 0.12066 0.0
C3849 C 0.05984 0.63815 0.11184 0.0
C3850 C 0.03323 0.6621 0.10214 0.0
C3851 C 0.02367 0.654 0.09587 0.0
C3852 C 0.01224 0.65963 0.09021 0.0
C3853 C 0.01019 0.67346 0.09063 0.0
C3854 C 0.01973 0.68153 0.09689 0.0
C3855 C 0.03108 0.67593 0.10259 0.0
C3856 C 0.07373 0.66777 0.12906 0.0
C3857 C 0.06881 0.67969 0.13454 0.0
C3858 C 0.07656 0.68709 0.14343 0.0
C3859 C 0.08944 0.68283 0.14687 0.0
C3860 C 0.09455 0.67121 0.14097 0.0
C3861 C 0.08675 0.66373 0.13223 0.0
C3862 C 0.06311 0.62385 0.11065 0.0
C3863 C 0.07646 0.61975 0.11135 0.0
C3864 C 0.07812 0.34336 0.89211 0.0
C3865 C 0.06638 0.33832 0.89787 0.0
C3866 C 0.06206 0.3255 0.89432 0.0
C3867 C 0.06949 0.31777 0.88545 0.0
H3868 H 0.06662 0.28735 0.85807 0.0
H3869 H 0.05682 0.26778 0.84794 0.0
H3870 H 0.09589 0.25444 0.83575 0.0
H3871 H 0.10581 0.27417 0.8459 0.0
H3872 H 0.13223 0.2916 0.86025 0.0
H3873 H 0.15598 0.29723 0.86147 0.0
H3874 H 0.14578 0.33897 0.86366 0.0
H3875 H 0.12229 0.33335 0.86271 0.0
H3876 H 0.09477 0.33966 0.87937 0.0
H3877 H 0.08174 0.3532 0.89464 0.0
H3878 H 0.05304 0.32136 0.89854 0.0
H3879 H 0.06602 0.30783 0.88313 0.0
N3880 N 0.08498 0.30276 0.86616 0.0
N3881 N 0.10601 0.29746 0.85739 0.0
N3882 N 0.10303 0.31701 0.86983 0.0
C3883 C 0.09286 0.29447 0.85893 0.0
C3884 C 0.11111 0.30878 0.86276 0.0
C3885 C 0.08998 0.31403 0.87165 0.0
C3886 C 0.08703 0.28238 0.85282 0.0
C3887 C 0.07318 0.28027 0.85327 0.0
C3888 C 0.06752 0.26903 0.84742 0.0
C3889 C 0.07556 0.25956 0.84103 0.0
C3890 C 0.08942 0.26157 0.84061 0.0
C3891 C 0.0951 0.27289 0.84642 0.0
C3892 C 0.12542 0.31204 0.86156 0.0
C3893 C 0.13513 0.30198 0.86077 0.0
C3894 C 0.1487 0.30519 0.86151 0.0
C3895 C 0.15276 0.31853 0.86279 0.0
C3896 C 0.14303 0.32858 0.86274 0.0
C3897 C 0.12953 0.32537 0.86224 0.0
C3898 C 0.0815 0.32262 0.88009 0.0
C3899 C 0.08563 0.33557 0.88339 0.0
C3900 C 0.42051 0.39252 0.61208 0.0
C3901 C 0.43062 0.40221 0.61218 0.0
C3902 C 0.44395 0.3981 0.61089 0.0
C3903 C 0.44712 0.38453 0.61012 0.0
H3904 H 0.47501 0.35523 0.59547 0.0
H3905 H 0.49486 0.34531 0.58553 0.0
H3906 H 0.48134 0.3063 0.59755 0.0
H3907 H 0.46163 0.31609 0.60746 0.0
H3908 H 0.44094 0.31547 0.63227 0.0
H3909 H 0.42734 0.30255 0.64768 0.0
H3910 H 0.39558 0.33133 0.64378 0.0
H3911 H 0.40918 0.3443 0.62852 0.0
H3912 H 0.41565 0.37183 0.61198 0.0
H3913 H 0.41012 0.39531 0.61301 0.0
H3914 H 0.45196 0.40533 0.61089 0.0
H3915 H 0.45749 0.3816 0.6096 0.0
N3916 N 0.45158 0.35546 0.60674 0.0
N3917 N 0.44616 0.33445 0.61543 0.0
N3918 N 0.43191 0.3525 0.61903 0.0
C3919 C 0.45453 0.34232 0.60828 0.0
C3920 C 0.43485 0.33945 0.62085 0.0
C3921 C 0.44021 0.36057 0.61204 0.0
C3922 C 0.46669 0.33649 0.60228 0.0
C3923 C 0.47627 0.34454 0.59599 0.0
C3924 C 0.48766 0.33886 0.59031 0.0
C3925 C 0.48966 0.32502 0.59074 0.0
C3926 C 0.4801 0.31699 0.59702 0.0
C3927 C 0.46878 0.32265 0.60274 0.0
C3928 C 0.42619 0.33099 0.62924 0.0
C3929 C 0.431 0.31897 0.63459 0.0
C3930 C 0.42323 0.31157 0.64345 0.0
C3931 C 0.41041 0.31594 0.64701 0.0
C3932 C 0.40541 0.32768 0.64125 0.0
C3933 C 0.41324 0.33515 0.63253 0.0
C3934 C 0.43701 0.37488 0.61086 0.0
C3935 C 0.42367 0.37903 0.61154 0.0
C3936 C 0.13681 0.35683 0.32933 0.0
C3937 C 0.13666 0.34705 0.31933 0.0
C3938 C 0.1378 0.35103 0.30596 0.0
C3939 C 0.13845 0.36457 0.30266 0.0
H3940 H 0.15281 0.3937 0.27447 0.0
H3941 H 0.16268 0.4035 0.25454 0.0
H3942 H 0.15039 0.44256 0.26768 0.0
H3943 H 0.14054 0.43289 0.28746 0.0
H3944 H 0.11572 0.43345 0.30836 0.0
H3945 H 0.10039 0.44639 0.32204 0.0
H3946 H 0.10525 0.41814 0.35411 0.0
H3947 H 0.12043 0.40515 0.34043 0.0
H3948 H 0.13684 0.37757 0.33398 0.0
H3949 H 0.13601 0.35414 0.33974 0.0
H3950 H 0.13776 0.34372 0.29803 0.0
H3951 H 0.13885 0.36741 0.29227 0.0
N3952 N 0.14162 0.39363 0.2979 0.0
N3953 N 0.13285 0.41463 0.30319 0.0
N3954 N 0.12949 0.3967 0.31763 0.0
C3955 C 0.13997 0.40673 0.29484 0.0
C3956 C 0.12757 0.4097 0.31459 0.0
C3957 C 0.13645 0.38859 0.30935 0.0
C3958 C 0.14587 0.41248 0.2826 0.0
C3959 C 0.15221 0.40438 0.2731 0.0
C3960 C 0.15785 0.40999 0.26167 0.0
C3961 C 0.15733 0.42381 0.25955 0.0
C3962 C 0.15099 0.43188 0.26902 0.0
C3963 C 0.1453 0.4263 0.28038 0.0
C3964 C 0.11922 0.4182 0.32326 0.0
C3965 C 0.11363 0.43007 0.31838 0.0
C3966 C 0.10481 0.43748 0.3262 0.0
C3967 C 0.10154 0.43326 0.33913 0.0
C3968 C 0.10755 0.42168 0.34419 0.0
C3969 C 0.11622 0.41419 0.33632 0.0
C3970 C 0.13775 0.37432 0.31267 0.0
C3971 C 0.13723 0.37029 0.32604 0.0
C3972 C 0.32812 0.35685 0.09336 0.0
C3973 C 0.31639 0.35109 0.08832 0.0
C3974 C 0.31206 0.35464 0.0755 0.0
C3975 C 0.31949 0.36351 0.06777 0.0
H3976 H 0.31662 0.39089 0.03735 0.0
H3977 H 0.30682 0.40102 0.01778 0.0
H3978 H 0.34589 0.41321 0.00444 0.0
H3979 H 0.35581 0.40306 0.02417 0.0
H3980 H 0.38223 0.38871 0.04161 0.0
H3981 H 0.40598 0.38749 0.04723 0.0
H3982 H 0.39578 0.3853 0.08897 0.0
H3983 H 0.37229 0.38625 0.08335 0.0
H3984 H 0.34477 0.36959 0.08966 0.0
H3985 H 0.33174 0.35432 0.1032 0.0
H3986 H 0.30304 0.35042 0.07136 0.0
H3987 H 0.31602 0.36583 0.05783 0.0
N3988 N 0.33498 0.3828 0.05276 0.0
N3989 N 0.35601 0.39158 0.04746 0.0
N3990 N 0.35303 0.37913 0.06701 0.0
C3991 C 0.34287 0.39003 0.04447 0.0
C3992 C 0.36111 0.3862 0.05878 0.0
C3993 C 0.33998 0.37731 0.06403 0.0
C3994 C 0.33704 0.39614 0.03238 0.0
C3995 C 0.32318 0.39569 0.03027 0.0
C3996 C 0.31753 0.40154 0.01903 0.0
C3997 C 0.32557 0.40793 0.00956 0.0
C3998 C 0.33942 0.40835 0.01157 0.0
C3999 C 0.3451 0.40254 0.02289 0.0
C4000 C 0.37542 0.3874 0.06204 0.0
C4001 C 0.38513 0.38819 0.05198 0.0
C4002 C 0.39871 0.38746 0.05519 0.0
C4003 C 0.40276 0.38617 0.06853 0.0
C4004 C 0.39303 0.38622 0.07858 0.0
C4005 C 0.37953 0.38672 0.07537 0.0
C4006 C 0.3315 0.36887 0.07263 0.0
C4007 C 0.33563 0.36557 0.08557 0.0
C4008 C 0.39269 0.57745 0.84408 0.0
C4009 C 0.39859 0.5658 0.83905 0.0
C4010 C 0.39518 0.5615 0.82618 0.0
C4011 C 0.38632 0.56889 0.81839 0.0
H4012 H 0.35932 0.56601 0.78761 0.0
H4013 H 0.34941 0.55626 0.7679 0.0
H4014 H 0.33701 0.59526 0.75469 0.0
H4015 H 0.34694 0.60513 0.77455 0.0
H4016 H 0.36098 0.63151 0.79222 0.0
H4017 H 0.36204 0.65521 0.79794 0.0
H4018 H 0.36395 0.64488 0.83965 0.0
H4019 H 0.36315 0.62144 0.83395 0.0
H4020 H 0.37984 0.594 0.84032 0.0
H4021 H 0.3951 0.58105 0.85395 0.0
H4022 H 0.39952 0.55254 0.82205 0.0
H4023 H 0.38412 0.56545 0.80842 0.0
N4024 N 0.36708 0.58431 0.80324 0.0
N4025 N 0.35824 0.60529 0.79793 0.0
N4026 N 0.37049 0.6023 0.81761 0.0
C4027 C 0.3599 0.59219 0.7949 0.0
C4028 C 0.36347 0.61037 0.80934 0.0
C4029 C 0.37242 0.58929 0.81459 0.0
C4030 C 0.35394 0.58639 0.78271 0.0
C4031 C 0.35452 0.57257 0.78053 0.0
C4032 C 0.3488 0.56694 0.76921 0.0
C4033 C 0.34241 0.57498 0.75974 0.0
C4034 C 0.34188 0.5888 0.76182 0.0
C4035 C 0.34756 0.59445 0.77322 0.0
C4036 C 0.36216 0.62464 0.81264 0.0
C4037 C 0.3614 0.63437 0.80261 0.0
C4038 C 0.36204 0.64792 0.80587 0.0
C4039 C 0.36321 0.65193 0.81924 0.0
C4040 C 0.36312 0.64217 0.82925 0.0
C4041 C 0.36271 0.6287 0.82599 0.0
C4042 C 0.38083 0.58082 0.82324 0.0
C4043 C 0.38397 0.58492 0.83624 0.0
C4044 C 0.10692 0.61304 0.57895 0.0
C4045 C 0.0972 0.61308 0.56888 0.0
C4046 C 0.10128 0.61175 0.55555 0.0
C4047 C 0.11486 0.61099 0.55236 0.0
H4048 H 0.14418 0.596 0.52463 0.0
H4049 H 0.1541 0.58579 0.50494 0.0
H4050 H 0.19318 0.59796 0.51827 0.0
H4051 H 0.18338 0.60816 0.53782 0.0
H4052 H 0.18399 0.63325 0.55826 0.0
H4053 H 0.19698 0.64868 0.57177 0.0
H4054 H 0.16823 0.64488 0.60358 0.0
H4055 H 0.1552 0.6296 0.59006 0.0
H4056 H 0.12766 0.61299 0.58375 0.0
H4057 H 0.10416 0.614 0.58932 0.0
H4058 H 0.09402 0.6117 0.54758 0.0
H4059 H 0.11777 0.61043 0.54199 0.0
N4060 N 0.14397 0.60755 0.54788 0.0
N4061 N 0.16501 0.6163 0.5532 0.0
N4062 N 0.14695 0.62003 0.56741 0.0
C4063 C 0.15713 0.60907 0.54491 0.0
C4064 C 0.16001 0.62182 0.56444 0.0
C4065 C 0.13887 0.61296 0.55919 0.0
C4066 C 0.16296 0.60292 0.53284 0.0
C4067 C 0.15489 0.5965 0.52336 0.0
C4068 C 0.16057 0.59066 0.51206 0.0
C4069 C 0.17443 0.59105 0.51006 0.0
C4070 C 0.18247 0.59746 0.51952 0.0
C4071 C 0.17681 0.60334 0.53074 0.0
C4072 C 0.16849 0.63027 0.57304 0.0
C4073 C 0.18051 0.6356 0.56818 0.0
C4074 C 0.18794 0.64448 0.57591 0.0
C4075 C 0.18361 0.64806 0.58872 0.0
C4076 C 0.17186 0.64233 0.59375 0.0
C4077 C 0.16435 0.6336 0.58597 0.0
C4078 C 0.12455 0.61179 0.56243 0.0
C4079 C 0.12042 0.61252 0.57575 0.0
C4080 C 0.13681 0.64213 0.16963 0.0
C4081 C 0.13666 0.65191 0.17963 0.0
C4082 C 0.1378 0.64793 0.193 0.0
C4083 C 0.13845 0.63439 0.1963 0.0
H4084 H 0.15281 0.60526 0.22449 0.0
H4085 H 0.16268 0.59546 0.24442 0.0
H4086 H 0.15039 0.5564 0.23128 0.0
H4087 H 0.14054 0.56608 0.2115 0.0
H4088 H 0.11572 0.56551 0.1906 0.0
H4089 H 0.10039 0.55257 0.17692 0.0
H4090 H 0.10525 0.58082 0.14485 0.0
H4091 H 0.12043 0.59381 0.15853 0.0
H4092 H 0.13684 0.62139 0.16498 0.0
H4093 H 0.13601 0.64482 0.15922 0.0
H4094 H 0.13776 0.65524 0.20093 0.0
H4095 H 0.13885 0.63155 0.2067 0.0
N4096 N 0.14162 0.60533 0.20107 0.0
N4097 N 0.13285 0.58433 0.19577 0.0
N4098 N 0.12949 0.60226 0.18133 0.0
C4099 C 0.13997 0.59223 0.20412 0.0
C4100 C 0.12757 0.58926 0.18437 0.0
C4101 C 0.13645 0.61037 0.18961 0.0
C4102 C 0.14587 0.58648 0.21636 0.0
C4103 C 0.15221 0.59458 0.22586 0.0
C4104 C 0.15785 0.58897 0.23729 0.0
C4105 C 0.15733 0.57515 0.23941 0.0
C4106 C 0.15099 0.56708 0.22994 0.0
C4107 C 0.1453 0.57267 0.21858 0.0
C4108 C 0.11922 0.58076 0.1757 0.0
C4109 C 0.11363 0.56889 0.18058 0.0
C4110 C 0.10481 0.56148 0.17276 0.0
C4111 C 0.10154 0.5657 0.15983 0.0
C4112 C 0.10755 0.57728 0.15477 0.0
C4113 C 0.11622 0.58477 0.16264 0.0
C4114 C 0.13775 0.62464 0.18629 0.0
C4115 C 0.13723 0.62867 0.17293 0.0
C4116 C 0.10692 0.38592 0.92001 0.0
C4117 C 0.0972 0.38588 0.93008 0.0
C4118 C 0.10128 0.38721 0.94341 0.0
C4119 C 0.11486 0.38797 0.9466 0.0
H4120 H 0.14418 0.40296 0.97433 0.0
H4121 H 0.1541 0.41317 0.99402 0.0
H4122 H 0.19318 0.401 0.98069 0.0
H4123 H 0.18338 0.3908 0.96114 0.0
H4124 H 0.18399 0.36571 0.94071 0.0
H4125 H 0.19698 0.35028 0.92719 0.0
H4126 H 0.16823 0.35408 0.89538 0.0
H4127 H 0.1552 0.36936 0.9089 0.0
H4128 H 0.12766 0.38597 0.91521 0.0
H4129 H 0.10416 0.38496 0.90964 0.0
H4130 H 0.09402 0.38726 0.95138 0.0
H4131 H 0.11777 0.38853 0.95697 0.0
N4132 N 0.14397 0.39141 0.95108 0.0
N4133 N 0.16501 0.38266 0.94576 0.0
N4134 N 0.14695 0.37893 0.93155 0.0
C4135 C 0.15712 0.38989 0.95405 0.0
C4136 C 0.16001 0.37714 0.93452 0.0
C4137 C 0.13887 0.386 0.93977 0.0
C4138 C 0.16296 0.39604 0.96612 0.0
C4139 C 0.15489 0.40246 0.9756 0.0
C4140 C 0.16057 0.4083 0.9869 0.0
C4141 C 0.17443 0.40791 0.9889 0.0
C4142 C 0.18247 0.4015 0.97944 0.0
C4143 C 0.17681 0.39562 0.96822 0.0
C4144 C 0.16849 0.36869 0.92592 0.0
C4145 C 0.18051 0.36336 0.93078 0.0
C4146 C 0.18794 0.35448 0.92305 0.0
C4147 C 0.18361 0.3509 0.91024 0.0
C4148 C 0.17186 0.35663 0.90521 0.0
C4149 C 0.16435 0.36536 0.91299 0.0
C4150 C 0.12455 0.38717 0.93653 0.0
C4151 C 0.12042 0.38644 0.92321 0.0
C4152 C 0.39269 0.42151 0.65488 0.0
C4153 C 0.39859 0.43316 0.65991 0.0
C4154 C 0.39518 0.43746 0.67278 0.0
C4155 C 0.38632 0.43007 0.68057 0.0
H4156 H 0.35932 0.43296 0.71135 0.0
H4157 H 0.34941 0.4427 0.73106 0.0
H4158 H 0.33701 0.4037 0.74427 0.0
H4159 H 0.34694 0.39383 0.72441 0.0
H4160 H 0.36098 0.36745 0.70674 0.0
H4161 H 0.36204 0.34375 0.70103 0.0
H4162 H 0.36395 0.35408 0.65931 0.0
H4163 H 0.36315 0.37752 0.66501 0.0
H4164 H 0.37984 0.40496 0.65864 0.0
H4165 H 0.3951 0.41792 0.64501 0.0
H4166 H 0.39952 0.44642 0.67691 0.0
H4167 H 0.38412 0.43351 0.69054 0.0
N4168 N 0.36708 0.41465 0.69572 0.0
N4169 N 0.35824 0.39367 0.70103 0.0
N4170 N 0.37049 0.39666 0.68135 0.0
C4171 C 0.3599 0.40678 0.70406 0.0
C4172 C 0.36347 0.38859 0.68962 0.0
C4173 C 0.37242 0.40968 0.68437 0.0
C4174 C 0.35394 0.41257 0.71625 0.0
C4175 C 0.35452 0.42639 0.71843 0.0
C4176 C 0.3488 0.43202 0.72975 0.0
C4177 C 0.34241 0.42398 0.73922 0.0
C4178 C 0.34188 0.41016 0.73714 0.0
C4179 C 0.34756 0.40451 0.72574 0.0
C4180 C 0.36216 0.37432 0.68632 0.0
C4181 C 0.3614 0.36459 0.69636 0.0
C4182 C 0.36204 0.35104 0.69309 0.0
C4183 C 0.36321 0.34703 0.67973 0.0
C4184 C 0.36312 0.35679 0.66971 0.0
C4185 C 0.36271 0.37026 0.67297 0.0
C4186 C 0.38083 0.41814 0.67572 0.0
C4187 C 0.38397 0.41404 0.66272 0.0
C4188 C 0.32812 0.64211 0.4056 0.0
C4189 C 0.31638 0.64787 0.41064 0.0
C4190 C 0.31206 0.64432 0.42346 0.0
C4191 C 0.31949 0.63545 0.43119 0.0
H4192 H 0.31662 0.60807 0.46161 0.0
H4193 H 0.30682 0.59794 0.48118 0.0
H4194 H 0.34589 0.58575 0.49452 0.0
H4195 H 0.35581 0.5959 0.47479 0.0
H4196 H 0.38223 0.61025 0.45736 0.0
H4197 H 0.40598 0.61147 0.45173 0.0
H4198 H 0.39578 0.61366 0.40999 0.0
H4199 H 0.37229 0.61271 0.41561 0.0
H4200 H 0.34477 0.62937 0.4093 0.0
H4201 H 0.33174 0.64464 0.39576 0.0
H4202 H 0.30304 0.64854 0.4276 0.0
H4203 H 0.31602 0.63313 0.44113 0.0
N4204 N 0.33498 0.61616 0.4462 0.0
N4205 N 0.35601 0.60739 0.45151 0.0
N4206 N 0.35303 0.61983 0.43195 0.0
C4207 C 0.34287 0.60893 0.45449 0.0
C4208 C 0.36111 0.61276 0.44018 0.0
C4209 C 0.33998 0.62165 0.43493 0.0
C4210 C 0.33703 0.60282 0.46658 0.0
C4211 C 0.32318 0.60327 0.46869 0.0
C4212 C 0.31752 0.59742 0.47993 0.0
C4213 C 0.32557 0.59103 0.4894 0.0
C4214 C 0.33942 0.59061 0.48739 0.0
C4215 C 0.3451 0.59642 0.47607 0.0
C4216 C 0.37542 0.61156 0.43692 0.0
C4217 C 0.38513 0.61077 0.44698 0.0
C4218 C 0.3987 0.61151 0.44377 0.0
C4219 C 0.40276 0.61279 0.43043 0.0
C4220 C 0.39303 0.61274 0.42038 0.0
C4221 C 0.37953 0.61224 0.42359 0.0
C4222 C 0.3315 0.63009 0.42634 0.0
C4223 C 0.33563 0.63339 0.41339 0.0
C4224 C 0.32968 0.13707 0.35627 0.0
C4225 C 0.31961 0.13698 0.34655 0.0
C4226 C 0.30626 0.13829 0.35059 0.0
C4227 C 0.30304 0.13906 0.36415 0.0
H4228 H 0.27498 0.15361 0.39331 0.0
H4229 H 0.25506 0.16351 0.40314 0.0
H4230 H 0.26844 0.15155 0.44222 0.0
H4231 H 0.28821 0.14167 0.43252 0.0
H4232 H 0.30882 0.11664 0.43309 0.0
H4233 H 0.32237 0.1012 0.44603 0.0
H4234 H 0.35443 0.10555 0.41765 0.0
H4235 H 0.34088 0.12085 0.40466 0.0
H4236 H 0.33445 0.13717 0.37699 0.0
H4237 H 0.34007 0.13613 0.35353 0.0
H4238 H 0.29829 0.1383 0.34333 0.0
H4239 H 0.29265 0.13959 0.36704 0.0
N4240 N 0.29844 0.1424 0.3932 0.0
N4241 N 0.30376 0.13369 0.41423 0.0
N4242 N 0.31811 0.13013 0.39625 0.0
C4243 C 0.29542 0.14084 0.40633 0.0
C4244 C 0.3151 0.1283 0.40928 0.0
C4245 C 0.30984 0.13712 0.38815 0.0
C4246 C 0.28323 0.14682 0.4121 0.0
C4247 C 0.27367 0.15309 0.404 0.0
C4248 C 0.26225 0.15875 0.40963 0.0
C4249 C 0.26019 0.15833 0.42346 0.0
C4250 C 0.26973 0.15207 0.43153 0.0
C4251 C 0.28108 0.14637 0.42593 0.0
C4252 C 0.32373 0.1199 0.41777 0.0
C4253 C 0.31881 0.11442 0.42969 0.0
C4254 C 0.32656 0.10553 0.43709 0.0
C4255 C 0.33944 0.10209 0.43283 0.0
C4256 C 0.34455 0.10799 0.42121 0.0
C4257 C 0.33675 0.11673 0.41373 0.0
C4258 C 0.31311 0.13831 0.37385 0.0
C4259 C 0.32646 0.13761 0.36975 0.0
C4260 C 0.82968 0.36189 0.64269 0.0
C4261 C 0.81961 0.36198 0.65241 0.0
C4262 C 0.80626 0.36067 0.64837 0.0
C4263 C 0.80304 0.3599 0.63481 0.0
H4264 H 0.77498 0.34535 0.60565 0.0
H4265 H 0.75506 0.33545 0.59582 0.0
H4266 H 0.76844 0.34741 0.55674 0.0
H4267 H 0.78821 0.35729 0.56644 0.0
H4268 H 0.80882 0.38232 0.56587 0.0
H4269 H 0.82237 0.39776 0.55293 0.0
H4270 H 0.85443 0.39341 0.58131 0.0
H4271 H 0.84088 0.37811 0.5943 0.0
H4272 H 0.83445 0.3618 0.62197 0.0
H4273 H 0.84007 0.36283 0.64543 0.0
H4274 H 0.79828 0.36066 0.65563 0.0
H4275 H 0.79265 0.35937 0.63192 0.0
N4276 N 0.79844 0.35656 0.60576 0.0
N4277 N 0.80376 0.36527 0.58473 0.0
N4278 N 0.81811 0.36883 0.60271 0.0
C4279 C 0.79542 0.35812 0.59263 0.0
C4280 C 0.8151 0.37066 0.58968 0.0
C4281 C 0.80984 0.36184 0.61081 0.0
C4282 C 0.78323 0.35214 0.58686 0.0
C4283 C 0.77367 0.34587 0.59496 0.0
C4284 C 0.76224 0.34021 0.58934 0.0
C4285 C 0.76019 0.34063 0.5755 0.0
C4286 C 0.76973 0.34689 0.56743 0.0
C4287 C 0.78108 0.35259 0.57303 0.0
C4288 C 0.82373 0.37906 0.58119 0.0
C4289 C 0.81881 0.38454 0.56928 0.0
C4290 C 0.82656 0.39343 0.56187 0.0
C4291 C 0.83944 0.39687 0.56613 0.0
C4292 C 0.84455 0.39097 0.57775 0.0
C4293 C 0.83675 0.38223 0.58524 0.0
C4294 C 0.81311 0.36065 0.62511 0.0
C4295 C 0.82646 0.36135 0.62921 0.0
C4296 C 0.38681 0.07933 0.39213 0.0
C4297 C 0.38667 0.06933 0.40191 0.0
C4298 C 0.3878 0.05596 0.39793 0.0
C4299 C 0.38845 0.05266 0.38439 0.0
H4300 H 0.40281 0.02447 0.35526 0.0
H4301 H 0.41268 0.00454 0.34546 0.0
H4302 H 0.40039 0.01768 0.3064 0.0
H4303 H 0.39054 0.03746 0.31608 0.0
H4304 H 0.36572 0.05836 0.31551 0.0
H4305 H 0.35039 0.07204 0.30257 0.0
H4306 H 0.35525 0.10411 0.33082 0.0
H4307 H 0.37043 0.09043 0.34381 0.0
H4308 H 0.38684 0.08398 0.37139 0.0
H4309 H 0.38601 0.08974 0.39482 0.0
H4310 H 0.38776 0.04803 0.40524 0.0
H4311 H 0.38885 0.04227 0.38155 0.0
N4312 N 0.39163 0.0479 0.35533 0.0
N4313 N 0.38285 0.05319 0.33433 0.0
N4314 N 0.37949 0.06763 0.35226 0.0
C4315 C 0.38997 0.04484 0.34223 0.0
C4316 C 0.37757 0.06459 0.33926 0.0
C4317 C 0.38645 0.05935 0.36037 0.0
C4318 C 0.39587 0.0326 0.33648 0.0
C4319 C 0.40221 0.0231 0.34458 0.0
C4320 C 0.40785 0.01167 0.33897 0.0
C4321 C 0.40733 0.00955 0.32515 0.0
C4322 C 0.40099 0.01902 0.31708 0.0
C4323 C 0.3953 0.03038 0.32267 0.0
C4324 C 0.36922 0.07326 0.33076 0.0
C4325 C 0.36363 0.06838 0.31889 0.0
C4326 C 0.35481 0.0762 0.31148 0.0
C4327 C 0.35154 0.08913 0.3157 0.0
C4328 C 0.35755 0.09419 0.32728 0.0
C4329 C 0.36622 0.08632 0.33477 0.0
C4330 C 0.38775 0.06267 0.37464 0.0
C4331 C 0.38723 0.07604 0.37867 0.0
C4332 C 0.67051 0.63688 0.14252 0.0
C4333 C 0.68061 0.63678 0.15221 0.0
C4334 C 0.69395 0.63807 0.1481 0.0
C4335 C 0.69712 0.63884 0.13453 0.0
H4336 H 0.72501 0.65349 0.10523 0.0
H4337 H 0.74486 0.66343 0.09531 0.0
H4338 H 0.73134 0.65141 0.0563 0.0
H4339 H 0.71163 0.6415 0.06609 0.0
H4340 H 0.69094 0.61669 0.06547 0.0
H4341 H 0.67734 0.60128 0.05255 0.0
H4342 H 0.64558 0.60518 0.08133 0.0
H4343 H 0.65918 0.62044 0.0943 0.0
H4344 H 0.66565 0.63698 0.12183 0.0
H4345 H 0.66012 0.63596 0.14531 0.0
H4346 H 0.70196 0.63807 0.15533 0.0
H4347 H 0.70749 0.63936 0.1316 0.0
N4348 N 0.70158 0.64222 0.10546 0.0
N4349 N 0.69616 0.63353 0.08445 0.0
N4350 N 0.68191 0.62993 0.1025 0.0
C4351 C 0.70453 0.64068 0.09232 0.0
C4352 C 0.68485 0.62811 0.08945 0.0
C4353 C 0.69021 0.63692 0.11057 0.0
C4354 C 0.71669 0.64668 0.08649 0.0
C4355 C 0.72627 0.65297 0.09454 0.0
C4356 C 0.73766 0.65865 0.08886 0.0
C4357 C 0.73966 0.65822 0.07502 0.0
C4358 C 0.7301 0.65194 0.06699 0.0
C4359 C 0.71878 0.64622 0.07265 0.0
C4360 C 0.67619 0.61972 0.08099 0.0
C4361 C 0.681 0.61437 0.06897 0.0
C4362 C 0.67323 0.60551 0.06157 0.0
C4363 C 0.66041 0.60195 0.06594 0.0
C4364 C 0.65541 0.60771 0.07768 0.0
C4365 C 0.66324 0.61643 0.08515 0.0
C4366 C 0.68701 0.6381 0.12488 0.0
C4367 C 0.67367 0.63742 0.12903 0.0
C4368 C 0.64269 0.40488 0.32745 0.0
C4369 C 0.64859 0.40991 0.3158 0.0
C4370 C 0.64518 0.42278 0.3115 0.0
C4371 C 0.63632 0.43057 0.31889 0.0
H4372 H 0.60932 0.46135 0.31601 0.0
H4373 H 0.59941 0.48106 0.30626 0.0
H4374 H 0.58701 0.49427 0.34526 0.0
H4375 H 0.59694 0.47441 0.35513 0.0
H4376 H 0.61098 0.45674 0.38151 0.0
H4377 H 0.61204 0.45103 0.40521 0.0
H4378 H 0.61395 0.40931 0.39489 0.0
H4379 H 0.61315 0.41501 0.37144 0.0
H4380 H 0.62984 0.40864 0.344 0.0
H4381 H 0.6451 0.39501 0.33105 0.0
H4382 H 0.64952 0.42691 0.30254 0.0
H4383 H 0.63411 0.44054 0.31545 0.0
N4384 N 0.61708 0.44572 0.33431 0.0
N4385 N 0.60824 0.45103 0.35529 0.0
N4386 N 0.62049 0.43135 0.3523 0.0
C4387 C 0.6099 0.45406 0.34219 0.0
C4388 C 0.61347 0.43962 0.36037 0.0
C4389 C 0.62242 0.43437 0.33929 0.0
C4390 C 0.60394 0.46625 0.33639 0.0
C4391 C 0.60452 0.46843 0.32257 0.0
C4392 C 0.5988 0.47975 0.31694 0.0
C4393 C 0.59241 0.48923 0.32498 0.0
C4394 C 0.59188 0.48714 0.3388 0.0
C4395 C 0.59756 0.47574 0.34445 0.0
C4396 C 0.61216 0.43632 0.37464 0.0
C4397 C 0.6114 0.44636 0.38437 0.0
C4398 C 0.61204 0.44309 0.39792 0.0
C4399 C 0.61321 0.42973 0.40193 0.0
C4400 C 0.61312 0.41971 0.39217 0.0
C4401 C 0.61271 0.42297 0.3787 0.0
C4402 C 0.63083 0.42572 0.33082 0.0
C4403 C 0.63397 0.41272 0.33492 0.0
C4404 C 0.17051 0.86208 0.85644 0.0
C4405 C 0.18061 0.86218 0.84675 0.0
C4406 C 0.19395 0.86089 0.85086 0.0
C4407 C 0.19712 0.86012 0.86443 0.0
H4408 H 0.22501 0.84547 0.89373 0.0
H4409 H 0.24486 0.83553 0.90365 0.0
H4410 H 0.23134 0.84755 0.94267 0.0
H4411 H 0.21163 0.85746 0.93287 0.0
H4412 H 0.19094 0.88227 0.93349 0.0
H4413 H 0.17734 0.89768 0.94641 0.0
H4414 H 0.14558 0.89378 0.91763 0.0
H4415 H 0.15918 0.87852 0.90466 0.0
H4416 H 0.16565 0.86198 0.87713 0.0
H4417 H 0.16012 0.86301 0.85365 0.0
H4418 H 0.20196 0.86089 0.84363 0.0
H4419 H 0.20749 0.8596 0.86736 0.0
N4420 N 0.20158 0.85674 0.8935 0.0
N4421 N 0.19616 0.86543 0.91451 0.0
N4422 N 0.18191 0.86903 0.89646 0.0
C4423 C 0.20453 0.85828 0.90664 0.0
C4424 C 0.18485 0.87085 0.90951 0.0
C4425 C 0.19021 0.86204 0.88839 0.0
C4426 C 0.21669 0.85228 0.91247 0.0
C4427 C 0.22627 0.84599 0.90442 0.0
C4428 C 0.23766 0.84031 0.9101 0.0
C4429 C 0.23966 0.84074 0.92394 0.0
C4430 C 0.2301 0.84702 0.93197 0.0
C4431 C 0.21878 0.85274 0.92631 0.0
C4432 C 0.17619 0.87924 0.91798 0.0
C4433 C 0.181 0.88459 0.92999 0.0
C4434 C 0.17323 0.89345 0.93739 0.0
C4435 C 0.16041 0.89701 0.93302 0.0
C4436 C 0.15541 0.89125 0.92128 0.0
C4437 C 0.16324 0.88253 0.91381 0.0
C4438 C 0.18701 0.86086 0.87409 0.0
C4439 C 0.17367 0.86154 0.86993 0.0
C4440 C 0.38681 0.91963 0.10683 0.0
C4441 C 0.38667 0.92963 0.09705 0.0
C4442 C 0.3878 0.943 0.10103 0.0
C4443 C 0.38845 0.9463 0.11457 0.0
H4444 H 0.40281 0.97449 0.1437 0.0
H4445 H 0.41268 0.99442 0.1535 0.0
H4446 H 0.40039 0.98128 0.19256 0.0
H4447 H 0.39054 0.9615 0.18289 0.0
H4448 H 0.36572 0.9406 0.18345 0.0
H4449 H 0.35039 0.92692 0.19639 0.0
H4450 H 0.35525 0.89485 0.16814 0.0
H4451 H 0.37043 0.90853 0.15515 0.0
H4452 H 0.38684 0.91498 0.12757 0.0
H4453 H 0.38601 0.90922 0.10414 0.0
H4454 H 0.38776 0.95093 0.09372 0.0
H4455 H 0.38885 0.9567 0.11741 0.0
N4456 N 0.39163 0.95107 0.14363 0.0
N4457 N 0.38285 0.94577 0.16464 0.0
N4458 N 0.37949 0.93133 0.1467 0.0
C4459 C 0.38997 0.95412 0.15673 0.0
C4460 C 0.37757 0.93437 0.1597 0.0
C4461 C 0.38645 0.93961 0.13859 0.0
C4462 C 0.39587 0.96636 0.16248 0.0
C4463 C 0.40221 0.97586 0.15438 0.0
C4464 C 0.40785 0.98729 0.15999 0.0
C4465 C 0.40733 0.98941 0.17381 0.0
C4466 C 0.40099 0.97994 0.18188 0.0
C4467 C 0.3953 0.96858 0.1763 0.0
C4468 C 0.36922 0.9257 0.1682 0.0
C4469 C 0.36363 0.93058 0.18007 0.0
C4470 C 0.35481 0.92276 0.18748 0.0
C4471 C 0.35154 0.90983 0.18326 0.0
C4472 C 0.35755 0.90477 0.17168 0.0
C4473 C 0.36622 0.91264 0.16419 0.0
C4474 C 0.38775 0.93629 0.12432 0.0
C4475 C 0.38723 0.92293 0.12029 0.0
C4476 C 0.14269 0.09408 0.67151 0.0
C4477 C 0.14859 0.08905 0.68316 0.0
C4478 C 0.14518 0.07619 0.68746 0.0
C4479 C 0.13632 0.06839 0.68007 0.0
H4480 H 0.10932 0.03761 0.68296 0.0
H4481 H 0.09941 0.0179 0.6927 0.0
H4482 H 0.08701 0.00469 0.6537 0.0
H4483 H 0.09694 0.02455 0.64383 0.0
H4484 H 0.11098 0.04222 0.61745 0.0
H4485 H 0.11204 0.04794 0.59375 0.0
H4486 H 0.11395 0.08965 0.60408 0.0
H4487 H 0.11315 0.08395 0.62752 0.0
H4488 H 0.12984 0.09032 0.65496 0.0
H4489 H 0.1451 0.10396 0.66792 0.0
H4490 H 0.14951 0.07205 0.69642 0.0
H4491 H 0.13411 0.05842 0.68351 0.0
N4492 N 0.11708 0.05324 0.66465 0.0
N4493 N 0.10824 0.04793 0.64367 0.0
N4494 N 0.12049 0.06761 0.64666 0.0
C4495 C 0.1099 0.0449 0.65678 0.0
C4496 C 0.11347 0.05934 0.63859 0.0
C4497 C 0.12242 0.06459 0.65968 0.0
C4498 C 0.10394 0.03271 0.66257 0.0
C4499 C 0.10452 0.03053 0.67639 0.0
C4500 C 0.0988 0.01921 0.68202 0.0
C4501 C 0.09241 0.00974 0.67398 0.0
C4502 C 0.09188 0.01182 0.66016 0.0
C4503 C 0.09756 0.02322 0.65451 0.0
C4504 C 0.11216 0.06264 0.62432 0.0
C4505 C 0.1114 0.05261 0.61459 0.0
C4506 C 0.11204 0.05587 0.60104 0.0
C4507 C 0.11321 0.06924 0.59703 0.0
C4508 C 0.11312 0.07925 0.60679 0.0
C4509 C 0.11271 0.07599 0.62026 0.0
C4510 C 0.13083 0.07324 0.66814 0.0
C4511 C 0.13397 0.08624 0.66404 0.0
loop_
_geom_bond_atom_site_label_1
_geom_bond_atom_site_label_2
_geom_bond_distance
_geom_bond_site_symmetry_2
_ccdc_geom_bond_type
O0 Cd1 2.300 . S
O0 C7 1.275 . S
Cd1 O0 2.300 . S
Cd1 O9 2.381 . S
Cd1 O10 2.378 . S
O2 Cd3 2.385 . S
O2 C7 1.255 . S
Cd3 O2 2.385 . S
Cd3 O4 2.317 . S
O4 Cd3 2.317 . S
O4 C5 1.232 . S
C5 O4 1.232 . S
C5 O6 1.218 . S
O6 C5 1.218 . S
C7 O0 1.275 . S
C7 O2 1.255 . S
C8 O9 1.258 . S
C8 O10 1.256 . S
O9 Cd1 2.381 . S
O9 C8 1.258 . S
O10 Cd1 2.378 . S
O10 C8 1.256 . S
O11 Cd12 2.300 . S
O11 C18 1.275 . S
Cd12 O11 2.300 . S
Cd12 O20 2.381 . S
Cd12 O21 2.378 . S
O13 Cd14 2.385 . S
O13 C18 1.255 . S
Cd14 O13 2.385 . S
Cd14 O15 2.317 . S
O15 Cd14 2.317 . S
O15 C16 1.232 . S
C16 O15 1.232 . S
C16 O17 1.218 . S
O17 C16 1.218 . S
C18 O11 1.275 . S
C18 O13 1.255 . S
C19 O20 1.258 . S
C19 O21 1.256 . S
O20 Cd12 2.381 . S
O20 C19 1.258 . S
O21 Cd12 2.378 . S
O21 C19 1.256 . S
O22 Cd23 2.300 . S
O22 C29 1.275 . S
Cd23 O22 2.300 . S
Cd23 O31 2.381 . S
Cd23 O32 2.378 . S
O24 Cd25 2.385 . S
O24 C29 1.255 . S
Cd25 O24 2.385 . S
Cd25 O26 2.317 . S
O26 Cd25 2.317 . S
O26 C27 1.232 . S
C27 O26 1.232 . S
C27 O28 1.218 . S
O28 C27 1.218 . S
C29 O22 1.275 . S
C29 O24 1.255 . S
C30 O31 1.258 . S
C30 O32 1.256 . S
O31 Cd23 2.381 . S
O31 C30 1.258 . S
O32 Cd23 2.378 . S
O32 C30 1.256 . S
O33 Cd34 2.300 . S
O33 C40 1.275 . S
Cd34 O33 2.300 . S
Cd34 O42 2.381 . S
Cd34 O43 2.378 . S
O35 Cd36 2.385 . S
O35 C40 1.255 . S
Cd36 O35 2.385 . S
Cd36 O37 2.317 . S
O37 Cd36 2.317 . S
O37 C38 1.232 . S
C38 O37 1.232 . S
C38 O39 1.218 . S
O39 C38 1.218 . S
C40 O33 1.275 . S
C40 O35 1.255 . S
C41 O42 1.258 . S
C41 O43 1.256 . S
O42 Cd34 2.381 . S
O42 C41 1.258 . S
O43 Cd34 2.378 . S
O43 C41 1.256 . S
O44 Cd45 2.300 . S
O44 C51 1.275 . S
Cd45 O44 2.300 . S
Cd45 O53 2.381 . S
Cd45 O54 2.378 . S
O46 Cd47 2.385 . S
O46 C51 1.255 . S
Cd47 O46 2.385 . S
Cd47 O48 2.317 . S
O48 Cd47 2.317 . S
O48 C49 1.232 . S
C49 O48 1.232 . S
C49 O50 1.218 . S
O50 C49 1.218 . S
C51 O44 1.275 . S
C51 O46 1.255 . S
C52 O53 1.258 . S
C52 O54 1.256 . S
O53 Cd45 2.381 . S
O53 C52 1.258 . S
O54 Cd45 2.378 . S
O54 C52 1.256 . S
O55 Cd56 2.300 . S
O55 C62 1.275 . S
Cd56 O55 2.300 . S
Cd56 O64 2.381 . S
Cd56 O65 2.378 . S
O57 Cd58 2.385 . S
O57 C62 1.255 . S
Cd58 O57 2.385 . S
Cd58 O59 2.317 . S
O59 Cd58 2.317 . S
O59 C60 1.232 . S
C60 O59 1.232 . S
C60 O61 1.218 . S
O61 C60 1.218 . S
C62 O55 1.275 . S
C62 O57 1.255 . S
C63 O64 1.258 . S
C63 O65 1.256 . S
O64 Cd56 2.381 . S
O64 C63 1.258 . S
O65 Cd56 2.378 . S
O65 C63 1.256 . S
O66 Cd67 2.300 . S
O66 C73 1.275 . S
Cd67 O66 2.300 . S
Cd67 O75 2.381 . S
Cd67 O76 2.378 . S
O68 Cd69 2.385 . S
O68 C73 1.255 . S
Cd69 O68 2.385 . S
Cd69 O70 2.317 . S
O70 Cd69 2.317 . S
O70 C71 1.232 . S
C71 O70 1.232 . S
C71 O72 1.218 . S
O72 C71 1.218 . S
C73 O66 1.275 . S
C73 O68 1.255 . S
C74 O75 1.258 . S
C74 O76 1.256 . S
O75 Cd67 2.381 . S
O75 C74 1.258 . S
O76 Cd67 2.378 . S
O76 C74 1.256 . S
O77 Cd78 2.300 . S
O77 C84 1.275 . S
Cd78 O77 2.300 . S
Cd78 O86 2.381 . S
Cd78 O87 2.378 . S
O79 Cd80 2.385 . S
O79 C84 1.255 . S
Cd80 O79 2.385 . S
Cd80 O81 2.317 . S
O81 Cd80 2.317 . S
O81 C82 1.232 . S
C82 O81 1.232 . S
C82 O83 1.218 . S
O83 C82 1.218 . S
C84 O77 1.275 . S
C84 O79 1.255 . S
C85 O86 1.258 . S
C85 O87 1.256 . S
O86 Cd78 2.381 . S
O86 C85 1.258 . S
O87 Cd78 2.378 . S
O87 C85 1.256 . S
O88 Cd89 2.300 . S
O88 C95 1.275 . S
Cd89 O88 2.300 . S
Cd89 O97 2.381 . S
Cd89 O98 2.378 . S
O90 Cd91 2.385 . S
O90 C95 1.255 . S
Cd91 O90 2.385 . S
Cd91 O92 2.317 . S
O92 Cd91 2.317 . S
O92 C93 1.232 . S
C93 O92 1.232 . S
C93 O94 1.218 . S
O94 C93 1.218 . S
C95 O88 1.275 . S
C95 O90 1.255 . S
C96 O97 1.258 . S
C96 O98 1.256 . S
O97 Cd89 2.381 . S
O97 C96 1.258 . S
O98 Cd89 2.378 . S
O98 C96 1.256 . S
O99 Cd100 2.300 . S
O99 C106 1.275 . S
Cd100 O99 2.300 . S
Cd100 O108 2.381 . S
Cd100 O109 2.378 . S
O101 Cd102 2.385 . S
O101 C106 1.255 . S
Cd102 O101 2.385 . S
Cd102 O103 2.317 . S
O103 Cd102 2.317 . S
O103 C104 1.232 . S
C104 O103 1.232 . S
C104 O105 1.218 . S
O105 C104 1.218 . S
C106 O99 1.275 . S
C106 O101 1.255 . S
C107 O108 1.258 . S
C107 O109 1.256 . S
O108 Cd100 2.381 . S
O108 C107 1.258 . S
O109 Cd100 2.378 . S
O109 C107 1.256 . S
O110 Cd111 2.300 . S
O110 C117 1.275 . S
Cd111 O110 2.300 . S
Cd111 O119 2.381 . S
Cd111 O120 2.378 . S
O112 Cd113 2.385 . S
O112 C117 1.255 . S
Cd113 O112 2.385 . S
Cd113 O114 2.317 . S
O114 Cd113 2.317 . S
O114 C115 1.232 . S
C115 O114 1.232 . S
C115 O116 1.218 . S
O116 C115 1.218 . S
C117 O110 1.275 . S
C117 O112 1.255 . S
C118 O119 1.258 . S
C118 O120 1.256 . S
O119 Cd111 2.381 . S
O119 C118 1.258 . S
O120 Cd111 2.378 . S
O120 C118 1.256 . S
O121 Cd122 2.300 . S
O121 C128 1.275 . S
Cd122 O121 2.300 . S
Cd122 O130 2.381 . S
Cd122 O131 2.378 . S
O123 Cd124 2.385 . S
O123 C128 1.255 . S
Cd124 O123 2.385 . S
Cd124 O125 2.317 . S
O125 Cd124 2.317 . S
O125 C126 1.232 . S
C126 O125 1.232 . S
C126 O127 1.218 . S
O127 C126 1.218 . S
C128 O121 1.275 . S
C128 O123 1.255 . S
C129 O130 1.258 . S
C129 O131 1.256 . S
O130 Cd122 2.381 . S
O130 C129 1.258 . S
O131 Cd122 2.378 . S
O131 C129 1.256 . S
O132 Cd133 2.300 . S
O132 C139 1.275 . S
Cd133 O132 2.300 . S
Cd133 O141 2.381 . S
Cd133 O142 2.378 . S
O134 Cd135 2.385 . S
O134 C139 1.255 . S
Cd135 O134 2.385 . S
Cd135 O136 2.317 . S
O136 Cd135 2.317 . S
O136 C137 1.232 . S
C137 O136 1.232 . S
C137 O138 1.218 . S
O138 C137 1.218 . S
C139 O132 1.275 . S
C139 O134 1.255 . S
C140 O141 1.258 . S
C140 O142 1.256 . S
O141 Cd133 2.381 . S
O141 C140 1.258 . S
O142 Cd133 2.378 . S
O142 C140 1.256 . S
O143 Cd144 2.300 . S
O143 C150 1.275 . S
Cd144 O143 2.300 . S
Cd144 O152 2.381 . S
Cd144 O153 2.378 . S
O145 Cd146 2.385 . S
O145 C150 1.255 . S
Cd146 O145 2.385 . S
Cd146 O147 2.317 . S
O147 Cd146 2.317 . S
O147 C148 1.232 . S
C148 O147 1.232 . S
C148 O149 1.218 . S
O149 C148 1.218 . S
C150 O143 1.275 . S
C150 O145 1.255 . S
C151 O152 1.258 . S
C151 O153 1.256 . S
O152 Cd144 2.381 . S
O152 C151 1.258 . S
O153 Cd144 2.378 . S
O153 C151 1.256 . S
O154 Cd155 2.300 . S
O154 C161 1.275 . S
Cd155 O154 2.300 . S
Cd155 O163 2.381 . S
Cd155 O164 2.378 . S
O156 Cd157 2.385 . S
O156 C161 1.255 . S
Cd157 O156 2.385 . S
Cd157 O158 2.317 . S
O158 Cd157 2.317 . S
O158 C159 1.232 . S
C159 O158 1.232 . S
C159 O160 1.218 . S
O160 C159 1.218 . S
C161 O154 1.275 . S
C161 O156 1.255 . S
C162 O163 1.258 . S
C162 O164 1.256 . S
O163 Cd155 2.381 . S
O163 C162 1.258 . S
O164 Cd155 2.378 . S
O164 C162 1.256 . S
O165 Cd166 2.300 . S
O165 C172 1.275 . S
Cd166 O165 2.300 . S
Cd166 O174 2.381 . S
Cd166 O175 2.378 . S
O167 Cd168 2.385 . S
O167 C172 1.255 . S
Cd168 O167 2.385 . S
Cd168 O169 2.317 . S
O169 Cd168 2.317 . S
O169 C170 1.232 . S
C170 O169 1.232 . S
C170 O171 1.218 . S
O171 C170 1.218 . S
C172 O165 1.275 . S
C172 O167 1.255 . S
C173 O174 1.258 . S
C173 O175 1.256 . S
O174 Cd166 2.381 . S
O174 C173 1.258 . S
O175 Cd166 2.378 . S
O175 C173 1.256 . S
O176 Cd177 2.300 . S
O176 C183 1.275 . S
Cd177 O176 2.300 . S
Cd177 O185 2.381 . S
Cd177 O186 2.378 . S
O178 Cd179 2.385 . S
O178 C183 1.255 . S
Cd179 O178 2.385 . S
Cd179 O180 2.317 . S
O180 Cd179 2.317 . S
O180 C181 1.232 . S
C181 O180 1.232 . S
C181 O182 1.218 . S
O182 C181 1.218 . S
C183 O176 1.275 . S
C183 O178 1.255 . S
C184 O185 1.258 . S
C184 O186 1.256 . S
O185 Cd177 2.381 . S
O185 C184 1.258 . S
O186 Cd177 2.378 . S
O186 C184 1.256 . S
O187 Cd188 2.300 . S
O187 C194 1.275 . S
Cd188 O187 2.300 . S
Cd188 O196 2.381 . S
Cd188 O197 2.378 . S
O189 Cd190 2.385 . S
O189 C194 1.255 . S
Cd190 O189 2.385 . S
Cd190 O191 2.317 . S
O191 Cd190 2.317 . S
O191 C192 1.232 . S
C192 O191 1.232 . S
C192 O193 1.218 . S
O193 C192 1.218 . S
C194 O187 1.275 . S
C194 O189 1.255 . S
C195 O196 1.258 . S
C195 O197 1.256 . S
O196 Cd188 2.381 . S
O196 C195 1.258 . S
O197 Cd188 2.378 . S
O197 C195 1.256 . S
O198 Cd199 2.300 . S
O198 C205 1.275 . S
Cd199 O198 2.300 . S
Cd199 O207 2.381 . S
Cd199 O208 2.378 . S
O200 Cd201 2.385 . S
O200 C205 1.255 . S
Cd201 O200 2.385 . S
Cd201 O202 2.317 . S
O202 Cd201 2.317 . S
O202 C203 1.232 . S
C203 O202 1.232 . S
C203 O204 1.218 . S
O204 C203 1.218 . S
C205 O198 1.275 . S
C205 O200 1.255 . S
C206 O207 1.258 . S
C206 O208 1.256 . S
O207 Cd199 2.381 . S
O207 C206 1.258 . S
O208 Cd199 2.378 . S
O208 C206 1.256 . S
O209 Cd210 2.300 . S
O209 C216 1.275 . S
Cd210 O209 2.300 . S
Cd210 O218 2.381 . S
Cd210 O219 2.378 . S
O211 Cd212 2.385 . S
O211 C216 1.255 . S
Cd212 O211 2.385 . S
Cd212 O213 2.317 . S
O213 Cd212 2.317 . S
O213 C214 1.232 . S
C214 O213 1.232 . S
C214 O215 1.218 . S
O215 C214 1.218 . S
C216 O209 1.275 . S
C216 O211 1.255 . S
C217 O218 1.258 . S
C217 O219 1.256 . S
O218 Cd210 2.381 . S
O218 C217 1.258 . S
O219 Cd210 2.378 . S
O219 C217 1.256 . S
O220 Cd221 2.300 . S
O220 C227 1.275 . S
Cd221 O220 2.300 . S
Cd221 O229 2.381 . S
Cd221 O230 2.378 . S
O222 Cd223 2.385 . S
O222 C227 1.255 . S
Cd223 O222 2.385 . S
Cd223 O224 2.317 . S
O224 Cd223 2.317 . S
O224 C225 1.232 . S
C225 O224 1.232 . S
C225 O226 1.218 . S
O226 C225 1.218 . S
C227 O220 1.275 . S
C227 O222 1.255 . S
C228 O229 1.258 . S
C228 O230 1.256 . S
O229 Cd221 2.381 . S
O229 C228 1.258 . S
O230 Cd221 2.378 . S
O230 C228 1.256 . S
O231 Cd232 2.300 . S
O231 C238 1.275 . S
Cd232 O231 2.300 . S
Cd232 O240 2.381 . S
Cd232 O241 2.378 . S
O233 Cd234 2.385 . S
O233 C238 1.255 . S
Cd234 O233 2.385 . S
Cd234 O235 2.317 . S
O235 Cd234 2.317 . S
O235 C236 1.232 . S
C236 O235 1.232 . S
C236 O237 1.218 . S
O237 C236 1.218 . S
C238 O231 1.275 . S
C238 O233 1.255 . S
C239 O240 1.258 . S
C239 O241 1.256 . S
O240 Cd232 2.381 . S
O240 C239 1.258 . S
O241 Cd232 2.378 . S
O241 C239 1.256 . S
O242 Cd243 2.300 . S
O242 C249 1.275 . S
Cd243 O242 2.300 . S
Cd243 O251 2.381 . S
Cd243 O252 2.378 . S
O244 Cd245 2.385 . S
O244 C249 1.255 . S
Cd245 O244 2.385 . S
Cd245 O246 2.317 . S
O246 Cd245 2.317 . S
O246 C247 1.232 . S
C247 O246 1.232 . S
C247 O248 1.218 . S
O248 C247 1.218 . S
C249 O242 1.275 . S
C249 O244 1.255 . S
C250 O251 1.258 . S
C250 O252 1.256 . S
O251 Cd243 2.381 . S
O251 C250 1.258 . S
O252 Cd243 2.378 . S
O252 C250 1.256 . S
O253 Cd254 2.300 . S
O253 C260 1.275 . S
Cd254 O253 2.300 . S
Cd254 O262 2.381 . S
Cd254 O263 2.378 . S
O255 Cd256 2.385 . S
O255 C260 1.255 . S
Cd256 O255 2.385 . S
Cd256 O257 2.317 . S
O257 Cd256 2.317 . S
O257 C258 1.232 . S
C258 O257 1.232 . S
C258 O259 1.218 . S
O259 C258 1.218 . S
C260 O253 1.275 . S
C260 O255 1.255 . S
C261 O262 1.258 . S
C261 O263 1.256 . S
O262 Cd254 2.381 . S
O262 C261 1.258 . S
O263 Cd254 2.378 . S
O263 C261 1.256 . S
O264 Cd265 2.300 . S
O264 C271 1.275 . S
Cd265 O264 2.300 . S
Cd265 O273 2.381 . S
Cd265 O274 2.378 . S
O266 Cd267 2.385 . S
O266 C271 1.255 . S
Cd267 O266 2.385 . S
Cd267 O268 2.317 . S
O268 Cd267 2.317 . S
O268 C269 1.232 . S
C269 O268 1.232 . S
C269 O270 1.218 . S
O270 C269 1.218 . S
C271 O264 1.275 . S
C271 O266 1.255 . S
C272 O273 1.258 . S
C272 O274 1.256 . S
O273 Cd265 2.381 . S
O273 C272 1.258 . S
O274 Cd265 2.378 . S
O274 C272 1.256 . S
O275 Cd276 2.300 . S
O275 C282 1.275 . S
Cd276 O275 2.300 . S
Cd276 O284 2.381 . S
Cd276 O285 2.378 . S
O277 Cd278 2.385 . S
O277 C282 1.255 . S
Cd278 O277 2.385 . S
Cd278 O279 2.317 . S
O279 Cd278 2.317 . S
O279 C280 1.232 . S
C280 O279 1.232 . S
C280 O281 1.218 . S
O281 C280 1.218 . S
C282 O275 1.275 . S
C282 O277 1.255 . S
C283 O284 1.258 . S
C283 O285 1.256 . S
O284 Cd276 2.381 . S
O284 C283 1.258 . S
O285 Cd276 2.378 . S
O285 C283 1.256 . S
O286 Cd287 2.300 . S
O286 C293 1.275 . S
Cd287 O286 2.300 . S
Cd287 O295 2.381 . S
Cd287 O296 2.378 . S
O288 Cd289 2.385 . S
O288 C293 1.255 . S
Cd289 O288 2.385 . S
Cd289 O290 2.317 . S
O290 Cd289 2.317 . S
O290 C291 1.232 . S
C291 O290 1.232 . S
C291 O292 1.218 . S
O292 C291 1.218 . S
C293 O286 1.275 . S
C293 O288 1.255 . S
C294 O295 1.258 . S
C294 O296 1.256 . S
O295 Cd287 2.381 . S
O295 C294 1.258 . S
O296 Cd287 2.378 . S
O296 C294 1.256 . S
O297 Cd298 2.300 . S
O297 C304 1.275 . S
Cd298 O297 2.300 . S
Cd298 O306 2.381 . S
Cd298 O307 2.378 . S
O299 Cd300 2.385 . S
O299 C304 1.255 . S
Cd300 O299 2.385 . S
Cd300 O301 2.317 . S
O301 Cd300 2.317 . S
O301 C302 1.232 . S
C302 O301 1.232 . S
C302 O303 1.218 . S
O303 C302 1.218 . S
C304 O297 1.275 . S
C304 O299 1.255 . S
C305 O306 1.258 . S
C305 O307 1.256 . S
O306 Cd298 2.381 . S
O306 C305 1.258 . S
O307 Cd298 2.378 . S
O307 C305 1.256 . S
O308 Cd309 2.300 . S
O308 C315 1.275 . S
Cd309 O308 2.300 . S
Cd309 O317 2.381 . S
Cd309 O318 2.378 . S
O310 Cd311 2.385 . S
O310 C315 1.255 . S
Cd311 O310 2.385 . S
Cd311 O312 2.317 . S
O312 Cd311 2.317 . S
O312 C313 1.232 . S
C313 O312 1.232 . S
C313 O314 1.218 . S
O314 C313 1.218 . S
C315 O308 1.275 . S
C315 O310 1.255 . S
C316 O317 1.258 . S
C316 O318 1.256 . S
O317 Cd309 2.381 . S
O317 C316 1.258 . S
O318 Cd309 2.378 . S
O318 C316 1.256 . S
O319 Cd320 2.300 . S
O319 C326 1.275 . S
Cd320 O319 2.300 . S
Cd320 O328 2.381 . S
Cd320 O329 2.378 . S
O321 Cd322 2.385 . S
O321 C326 1.255 . S
Cd322 O321 2.385 . S
Cd322 O323 2.317 . S
O323 Cd322 2.317 . S
O323 C324 1.232 . S
C324 O323 1.232 . S
C324 O325 1.218 . S
O325 C324 1.218 . S
C326 O319 1.275 . S
C326 O321 1.255 . S
C327 O328 1.258 . S
C327 O329 1.256 . S
O328 Cd320 2.381 . S
O328 C327 1.258 . S
O329 Cd320 2.378 . S
O329 C327 1.256 . S
O330 Cd331 2.300 . S
O330 C337 1.275 . S
Cd331 O330 2.300 . S
Cd331 O339 2.381 . S
Cd331 O340 2.378 . S
O332 Cd333 2.385 . S
O332 C337 1.255 . S
Cd333 O332 2.385 . S
Cd333 O334 2.317 . S
O334 Cd333 2.317 . S
O334 C335 1.232 . S
C335 O334 1.232 . S
C335 O336 1.218 . S
O336 C335 1.218 . S
C337 O330 1.275 . S
C337 O332 1.255 . S
C338 O339 1.258 . S
C338 O340 1.256 . S
O339 Cd331 2.381 . S
O339 C338 1.258 . S
O340 Cd331 2.378 . S
O340 C338 1.256 . S
O341 Cd342 2.300 . S
O341 C348 1.275 . S
Cd342 O341 2.300 . S
Cd342 O350 2.381 . S
Cd342 O351 2.378 . S
O343 Cd344 2.385 . S
O343 C348 1.255 . S
Cd344 O343 2.385 . S
Cd344 O345 2.317 . S
O345 Cd344 2.317 . S
O345 C346 1.232 . S
C346 O345 1.232 . S
C346 O347 1.218 . S
O347 C346 1.218 . S
C348 O341 1.275 . S
C348 O343 1.255 . S
C349 O350 1.258 . S
C349 O351 1.256 . S
O350 Cd342 2.381 . S
O350 C349 1.258 . S
O351 Cd342 2.378 . S
O351 C349 1.256 . S
O352 Cd353 2.300 . S
O352 C359 1.275 . S
Cd353 O352 2.300 . S
Cd353 O361 2.381 . S
Cd353 O362 2.378 . S
O354 Cd355 2.385 . S
O354 C359 1.255 . S
Cd355 O354 2.385 . S
Cd355 O356 2.317 . S
O356 Cd355 2.317 . S
O356 C357 1.232 . S
C357 O356 1.232 . S
C357 O358 1.218 . S
O358 C357 1.218 . S
C359 O352 1.275 . S
C359 O354 1.255 . S
C360 O361 1.258 . S
C360 O362 1.256 . S
O361 Cd353 2.381 . S
O361 C360 1.258 . S
O362 Cd353 2.378 . S
O362 C360 1.256 . S
O363 Cd364 2.300 . S
O363 C370 1.275 . S
Cd364 O363 2.300 . S
Cd364 O372 2.381 . S
Cd364 O373 2.378 . S
O365 Cd366 2.385 . S
O365 C370 1.255 . S
Cd366 O365 2.385 . S
Cd366 O367 2.317 . S
O367 Cd366 2.317 . S
O367 C368 1.232 . S
C368 O367 1.232 . S
C368 O369 1.218 . S
O369 C368 1.218 . S
C370 O363 1.275 . S
C370 O365 1.255 . S
C371 O372 1.258 . S
C371 O373 1.256 . S
O372 Cd364 2.381 . S
O372 C371 1.258 . S
O373 Cd364 2.378 . S
O373 C371 1.256 . S
O374 Cd375 2.300 . S
O374 C381 1.275 . S
Cd375 O374 2.300 . S
Cd375 O383 2.381 . S
Cd375 O384 2.378 . S
O376 Cd377 2.385 . S
O376 C381 1.255 . S
Cd377 O376 2.385 . S
Cd377 O378 2.317 . S
O378 Cd377 2.317 . S
O378 C379 1.232 . S
C379 O378 1.232 . S
C379 O380 1.218 . S
O380 C379 1.218 . S
C381 O374 1.275 . S
C381 O376 1.255 . S
C382 O383 1.258 . S
C382 O384 1.256 . S
O383 Cd375 2.381 . S
O383 C382 1.258 . S
O384 Cd375 2.378 . S
O384 C382 1.256 . S
O385 Cd386 2.300 . S
O385 C392 1.275 . S
Cd386 O385 2.300 . S
Cd386 O394 2.381 . S
Cd386 O395 2.378 . S
O387 Cd388 2.385 . S
O387 C392 1.255 . S
Cd388 O387 2.385 . S
Cd388 O389 2.317 . S
O389 Cd388 2.317 . S
O389 C390 1.232 . S
C390 O389 1.232 . S
C390 O391 1.218 . S
O391 C390 1.218 . S
C392 O385 1.275 . S
C392 O387 1.255 . S
C393 O394 1.258 . S
C393 O395 1.256 . S
O394 Cd386 2.381 . S
O394 C393 1.258 . S
O395 Cd386 2.378 . S
O395 C393 1.256 . S
O396 Cd397 2.300 . S
O396 C403 1.275 . S
Cd397 O396 2.300 . S
Cd397 O405 2.381 . S
Cd397 O406 2.378 . S
O398 Cd399 2.385 . S
O398 C403 1.255 . S
Cd399 O398 2.385 . S
Cd399 O400 2.317 . S
O400 Cd399 2.317 . S
O400 C401 1.232 . S
C401 O400 1.232 . S
C401 O402 1.218 . S
O402 C401 1.218 . S
C403 O396 1.275 . S
C403 O398 1.255 . S
C404 O405 1.258 . S
C404 O406 1.256 . S
O405 Cd397 2.381 . S
O405 C404 1.258 . S
O406 Cd397 2.378 . S
O406 C404 1.256 . S
O407 Cd408 2.300 . S
O407 C414 1.275 . S
Cd408 O407 2.300 . S
Cd408 O416 2.381 . S
Cd408 O417 2.378 . S
O409 Cd410 2.385 . S
O409 C414 1.255 . S
Cd410 O409 2.385 . S
Cd410 O411 2.317 . S
O411 Cd410 2.317 . S
O411 C412 1.232 . S
C412 O411 1.232 . S
C412 O413 1.218 . S
O413 C412 1.218 . S
C414 O407 1.275 . S
C414 O409 1.255 . S
C415 O416 1.258 . S
C415 O417 1.256 . S
O416 Cd408 2.381 . S
O416 C415 1.258 . S
O417 Cd408 2.378 . S
O417 C415 1.256 . S
O418 Cd419 2.300 . S
O418 C425 1.275 . S
Cd419 O418 2.300 . S
Cd419 O427 2.381 . S
Cd419 O428 2.378 . S
O420 Cd421 2.385 . S
O420 C425 1.255 . S
Cd421 O420 2.385 . S
Cd421 O422 2.317 . S
O422 Cd421 2.317 . S
O422 C423 1.232 . S
C423 O422 1.232 . S
C423 O424 1.218 . S
O424 C423 1.218 . S
C425 O418 1.275 . S
C425 O420 1.255 . S
C426 O427 1.258 . S
C426 O428 1.256 . S
O427 Cd419 2.381 . S
O427 C426 1.258 . S
O428 Cd419 2.378 . S
O428 C426 1.256 . S
O429 Cd430 2.300 . S
O429 C436 1.275 . S
Cd430 O429 2.300 . S
Cd430 O438 2.381 . S
Cd430 O439 2.378 . S
O431 Cd432 2.385 . S
O431 C436 1.255 . S
Cd432 O431 2.385 . S
Cd432 O433 2.317 . S
O433 Cd432 2.317 . S
O433 C434 1.232 . S
C434 O433 1.232 . S
C434 O435 1.218 . S
O435 C434 1.218 . S
C436 O429 1.275 . S
C436 O431 1.255 . S
C437 O438 1.258 . S
C437 O439 1.256 . S
O438 Cd430 2.381 . S
O438 C437 1.258 . S
O439 Cd430 2.378 . S
O439 C437 1.256 . S
O440 Cd441 2.300 . S
O440 C447 1.275 . S
Cd441 O440 2.300 . S
Cd441 O449 2.381 . S
Cd441 O450 2.378 . S
O442 Cd443 2.385 . S
O442 C447 1.255 . S
Cd443 O442 2.385 . S
Cd443 O444 2.317 . S
O444 Cd443 2.317 . S
O444 C445 1.232 . S
C445 O444 1.232 . S
C445 O446 1.218 . S
O446 C445 1.218 . S
C447 O440 1.275 . S
C447 O442 1.255 . S
C448 O449 1.258 . S
C448 O450 1.256 . S
O449 Cd441 2.381 . S
O449 C448 1.258 . S
O450 Cd441 2.378 . S
O450 C448 1.256 . S
O451 Cd452 2.300 . S
O451 C458 1.275 . S
Cd452 O451 2.300 . S
Cd452 O460 2.381 . S
Cd452 O461 2.378 . S
O453 Cd454 2.385 . S
O453 C458 1.255 . S
Cd454 O453 2.385 . S
Cd454 O455 2.317 . S
O455 Cd454 2.317 . S
O455 C456 1.232 . S
C456 O455 1.232 . S
C456 O457 1.218 . S
O457 C456 1.218 . S
C458 O451 1.275 . S
C458 O453 1.255 . S
C459 O460 1.258 . S
C459 O461 1.256 . S
O460 Cd452 2.381 . S
O460 C459 1.258 . S
O461 Cd452 2.378 . S
O461 C459 1.256 . S
O462 Cd463 2.300 . S
O462 C469 1.275 . S
Cd463 O462 2.300 . S
Cd463 O471 2.381 . S
Cd463 O472 2.378 . S
O464 Cd465 2.385 . S
O464 C469 1.255 . S
Cd465 O464 2.385 . S
Cd465 O466 2.317 . S
O466 Cd465 2.317 . S
O466 C467 1.232 . S
C467 O466 1.232 . S
C467 O468 1.218 . S
O468 C467 1.218 . S
C469 O462 1.275 . S
C469 O464 1.255 . S
C470 O471 1.258 . S
C470 O472 1.256 . S
O471 Cd463 2.381 . S
O471 C470 1.258 . S
O472 Cd463 2.378 . S
O472 C470 1.256 . S
O473 Cd474 2.300 . S
O473 C480 1.275 . S
Cd474 O473 2.300 . S
Cd474 O482 2.381 . S
Cd474 O483 2.378 . S
O475 Cd476 2.385 . S
O475 C480 1.255 . S
Cd476 O475 2.385 . S
Cd476 O477 2.317 . S
O477 Cd476 2.317 . S
O477 C478 1.232 . S
C478 O477 1.232 . S
C478 O479 1.218 . S
O479 C478 1.218 . S
C480 O473 1.275 . S
C480 O475 1.255 . S
C481 O482 1.258 . S
C481 O483 1.256 . S
O482 Cd474 2.381 . S
O482 C481 1.258 . S
O483 Cd474 2.378 . S
O483 C481 1.256 . S
O484 Cd485 2.300 . S
O484 C491 1.275 . S
Cd485 O484 2.300 . S
Cd485 O493 2.381 . S
Cd485 O494 2.378 . S
O486 Cd487 2.385 . S
O486 C491 1.255 . S
Cd487 O486 2.385 . S
Cd487 O488 2.317 . S
O488 Cd487 2.317 . S
O488 C489 1.232 . S
C489 O488 1.232 . S
C489 O490 1.218 . S
O490 C489 1.218 . S
C491 O484 1.275 . S
C491 O486 1.255 . S
C492 O493 1.258 . S
C492 O494 1.256 . S
O493 Cd485 2.381 . S
O493 C492 1.258 . S
O494 Cd485 2.378 . S
O494 C492 1.256 . S
O495 Cd496 2.300 . S
O495 C502 1.275 . S
Cd496 O495 2.300 . S
Cd496 O504 2.381 . S
Cd496 O505 2.378 . S
O497 Cd498 2.385 . S
O497 C502 1.255 . S
Cd498 O497 2.385 . S
Cd498 O499 2.317 . S
O499 Cd498 2.317 . S
O499 C500 1.232 . S
C500 O499 1.232 . S
C500 O501 1.218 . S
O501 C500 1.218 . S
C502 O495 1.275 . S
C502 O497 1.255 . S
C503 O504 1.258 . S
C503 O505 1.256 . S
O504 Cd496 2.381 . S
O504 C503 1.258 . S
O505 Cd496 2.378 . S
O505 C503 1.256 . S
O506 Cd507 2.300 . S
O506 C513 1.275 . S
Cd507 O506 2.300 . S
Cd507 O515 2.381 . S
Cd507 O516 2.378 . S
O508 Cd509 2.385 . S
O508 C513 1.255 . S
Cd509 O508 2.385 . S
Cd509 O510 2.317 . S
O510 Cd509 2.317 . S
O510 C511 1.232 . S
C511 O510 1.232 . S
C511 O512 1.218 . S
O512 C511 1.218 . S
C513 O506 1.275 . S
C513 O508 1.255 . S
C514 O515 1.258 . S
C514 O516 1.256 . S
O515 Cd507 2.381 . S
O515 C514 1.258 . S
O516 Cd507 2.378 . S
O516 C514 1.256 . S
O517 Cd518 2.300 . S
O517 C524 1.275 . S
Cd518 O517 2.300 . S
Cd518 O526 2.381 . S
Cd518 O527 2.378 . S
O519 Cd520 2.385 . S
O519 C524 1.255 . S
Cd520 O519 2.385 . S
Cd520 O521 2.317 . S
O521 Cd520 2.317 . S
O521 C522 1.232 . S
C522 O521 1.232 . S
C522 O523 1.218 . S
O523 C522 1.218 . S
C524 O517 1.275 . S
C524 O519 1.255 . S
C525 O526 1.258 . S
C525 O527 1.256 . S
O526 Cd518 2.381 . S
O526 C525 1.258 . S
O527 Cd518 2.378 . S
O527 C525 1.256 . S
O528 Cd529 2.300 . S
O528 C535 1.275 . S
Cd529 O528 2.300 . S
Cd529 O537 2.381 . S
Cd529 O538 2.378 . S
O530 Cd531 2.385 . S
O530 C535 1.255 . S
Cd531 O530 2.385 . S
Cd531 O532 2.317 . S
O532 Cd531 2.317 . S
O532 C533 1.232 . S
C533 O532 1.232 . S
C533 O534 1.218 . S
O534 C533 1.218 . S
C535 O528 1.275 . S
C535 O530 1.255 . S
C536 O537 1.258 . S
C536 O538 1.256 . S
O537 Cd529 2.381 . S
O537 C536 1.258 . S
O538 Cd529 2.378 . S
O538 C536 1.256 . S
O539 Cd540 2.300 . S
O539 C546 1.275 . S
Cd540 O539 2.300 . S
Cd540 O548 2.381 . S
Cd540 O549 2.378 . S
O541 Cd542 2.385 . S
O541 C546 1.255 . S
Cd542 O541 2.385 . S
Cd542 O543 2.317 . S
O543 Cd542 2.317 . S
O543 C544 1.232 . S
C544 O543 1.232 . S
C544 O545 1.218 . S
O545 C544 1.218 . S
C546 O539 1.275 . S
C546 O541 1.255 . S
C547 O548 1.258 . S
C547 O549 1.256 . S
O548 Cd540 2.381 . S
O548 C547 1.258 . S
O549 Cd540 2.378 . S
O549 C547 1.256 . S
O550 Cd551 2.300 . S
O550 C557 1.275 . S
Cd551 O550 2.300 . S
Cd551 O559 2.381 . S
Cd551 O560 2.378 . S
O552 Cd553 2.385 . S
O552 C557 1.255 . S
Cd553 O552 2.385 . S
Cd553 O554 2.317 . S
O554 Cd553 2.317 . S
O554 C555 1.232 . S
C555 O554 1.232 . S
C555 O556 1.218 . S
O556 C555 1.218 . S
C557 O550 1.275 . S
C557 O552 1.255 . S
C558 O559 1.258 . S
C558 O560 1.256 . S
O559 Cd551 2.381 . S
O559 C558 1.258 . S
O560 Cd551 2.378 . S
O560 C558 1.256 . S
O561 Cd562 2.300 . S
O561 C568 1.275 . S
Cd562 O561 2.300 . S
Cd562 O570 2.381 . S
Cd562 O571 2.378 . S
O563 Cd564 2.385 . S
O563 C568 1.255 . S
Cd564 O563 2.385 . S
Cd564 O565 2.317 . S
O565 Cd564 2.317 . S
O565 C566 1.232 . S
C566 O565 1.232 . S
C566 O567 1.218 . S
O567 C566 1.218 . S
C568 O561 1.275 . S
C568 O563 1.255 . S
C569 O570 1.258 . S
C569 O571 1.256 . S
O570 Cd562 2.381 . S
O570 C569 1.258 . S
O571 Cd562 2.378 . S
O571 C569 1.256 . S
O572 Cd573 2.300 . S
O572 C579 1.275 . S
Cd573 O572 2.300 . S
Cd573 O581 2.381 . S
Cd573 O582 2.378 . S
O574 Cd575 2.385 . S
O574 C579 1.255 . S
Cd575 O574 2.385 . S
Cd575 O576 2.317 . S
O576 Cd575 2.317 . S
O576 C577 1.232 . S
C577 O576 1.232 . S
C577 O578 1.218 . S
O578 C577 1.218 . S
C579 O572 1.275 . S
C579 O574 1.255 . S
C580 O581 1.258 . S
C580 O582 1.256 . S
O581 Cd573 2.381 . S
O581 C580 1.258 . S
O582 Cd573 2.378 . S
O582 C580 1.256 . S
O583 Cd584 2.300 . S
O583 C590 1.275 . S
Cd584 O583 2.300 . S
Cd584 O592 2.381 . S
Cd584 O593 2.378 . S
O585 Cd586 2.385 . S
O585 C590 1.255 . S
Cd586 O585 2.385 . S
Cd586 O587 2.317 . S
O587 Cd586 2.317 . S
O587 C588 1.232 . S
C588 O587 1.232 . S
C588 O589 1.218 . S
O589 C588 1.218 . S
C590 O583 1.275 . S
C590 O585 1.255 . S
C591 O592 1.258 . S
C591 O593 1.256 . S
O592 Cd584 2.381 . S
O592 C591 1.258 . S
O593 Cd584 2.378 . S
O593 C591 1.256 . S
O594 Cd595 2.300 . S
O594 C601 1.275 . S
Cd595 O594 2.300 . S
Cd595 O603 2.381 . S
Cd595 O604 2.378 . S
O596 Cd597 2.385 . S
O596 C601 1.255 . S
Cd597 O596 2.385 . S
Cd597 O598 2.317 . S
O598 Cd597 2.317 . S
O598 C599 1.232 . S
C599 O598 1.232 . S
C599 O600 1.218 . S
O600 C599 1.218 . S
C601 O594 1.275 . S
C601 O596 1.255 . S
C602 O603 1.258 . S
C602 O604 1.256 . S
O603 Cd595 2.381 . S
O603 C602 1.258 . S
O604 Cd595 2.378 . S
O604 C602 1.256 . S
O605 Cd606 2.300 . S
O605 C612 1.275 . S
Cd606 O605 2.300 . S
Cd606 O614 2.381 . S
Cd606 O615 2.378 . S
O607 Cd608 2.385 . S
O607 C612 1.255 . S
Cd608 O607 2.385 . S
Cd608 O609 2.317 . S
O609 Cd608 2.317 . S
O609 C610 1.232 . S
C610 O609 1.232 . S
C610 O611 1.218 . S
O611 C610 1.218 . S
C612 O605 1.275 . S
C612 O607 1.255 . S
C613 O614 1.258 . S
C613 O615 1.256 . S
O614 Cd606 2.381 . S
O614 C613 1.258 . S
O615 Cd606 2.378 . S
O615 C613 1.256 . S
O616 Cd617 2.300 . S
O616 C623 1.275 . S
Cd617 O616 2.300 . S
Cd617 O625 2.381 . S
Cd617 O626 2.378 . S
O618 Cd619 2.385 . S
O618 C623 1.255 . S
Cd619 O618 2.385 . S
Cd619 O620 2.317 . S
O620 Cd619 2.317 . S
O620 C621 1.232 . S
C621 O620 1.232 . S
C621 O622 1.218 . S
O622 C621 1.218 . S
C623 O616 1.275 . S
C623 O618 1.255 . S
C624 O625 1.258 . S
C624 O626 1.256 . S
O625 Cd617 2.381 . S
O625 C624 1.258 . S
O626 Cd617 2.378 . S
O626 C624 1.256 . S
O627 Cd628 2.300 . S
O627 C634 1.275 . S
Cd628 O627 2.300 . S
Cd628 O636 2.381 . S
Cd628 O637 2.378 . S
O629 Cd630 2.385 . S
O629 C634 1.255 . S
Cd630 O629 2.385 . S
Cd630 O631 2.317 . S
O631 Cd630 2.317 . S
O631 C632 1.232 . S
C632 O631 1.232 . S
C632 O633 1.218 . S
O633 C632 1.218 . S
C634 O627 1.275 . S
C634 O629 1.255 . S
C635 O636 1.258 . S
C635 O637 1.256 . S
O636 Cd628 2.381 . S
O636 C635 1.258 . S
O637 Cd628 2.378 . S
O637 C635 1.256 . S
O638 Cd639 2.300 . S
O638 C645 1.275 . S
Cd639 O638 2.300 . S
Cd639 O647 2.381 . S
Cd639 O648 2.378 . S
O640 Cd641 2.385 . S
O640 C645 1.255 . S
Cd641 O640 2.385 . S
Cd641 O642 2.317 . S
O642 Cd641 2.317 . S
O642 C643 1.232 . S
C643 O642 1.232 . S
C643 O644 1.218 . S
O644 C643 1.218 . S
C645 O638 1.275 . S
C645 O640 1.255 . S
C646 O647 1.258 . S
C646 O648 1.256 . S
O647 Cd639 2.381 . S
O647 C646 1.258 . S
O648 Cd639 2.378 . S
O648 C646 1.256 . S
O649 Cd650 2.300 . S
O649 C656 1.275 . S
Cd650 O649 2.300 . S
Cd650 O658 2.381 . S
Cd650 O659 2.378 . S
O651 Cd652 2.385 . S
O651 C656 1.255 . S
Cd652 O651 2.385 . S
Cd652 O653 2.317 . S
O653 Cd652 2.317 . S
O653 C654 1.232 . S
C654 O653 1.232 . S
C654 O655 1.218 . S
O655 C654 1.218 . S
C656 O649 1.275 . S
C656 O651 1.255 . S
C657 O658 1.258 . S
C657 O659 1.256 . S
O658 Cd650 2.381 . S
O658 C657 1.258 . S
O659 Cd650 2.378 . S
O659 C657 1.256 . S
O660 Cd661 2.300 . S
O660 C667 1.275 . S
Cd661 O660 2.300 . S
Cd661 O669 2.381 . S
Cd661 O670 2.378 . S
O662 Cd663 2.385 . S
O662 C667 1.255 . S
Cd663 O662 2.385 . S
Cd663 O664 2.317 . S
O664 Cd663 2.317 . S
O664 C665 1.232 . S
C665 O664 1.232 . S
C665 O666 1.218 . S
O666 C665 1.218 . S
C667 O660 1.275 . S
C667 O662 1.255 . S
C668 O669 1.258 . S
C668 O670 1.256 . S
O669 Cd661 2.381 . S
O669 C668 1.258 . S
O670 Cd661 2.378 . S
O670 C668 1.256 . S
O671 Cd672 2.300 . S
O671 C678 1.275 . S
Cd672 O671 2.300 . S
Cd672 O680 2.381 . S
Cd672 O681 2.378 . S
O673 Cd674 2.385 . S
O673 C678 1.255 . S
Cd674 O673 2.385 . S
Cd674 O675 2.317 . S
O675 Cd674 2.317 . S
O675 C676 1.232 . S
C676 O675 1.232 . S
C676 O677 1.218 . S
O677 C676 1.218 . S
C678 O671 1.275 . S
C678 O673 1.255 . S
C679 O680 1.258 . S
C679 O681 1.256 . S
O680 Cd672 2.381 . S
O680 C679 1.258 . S
O681 Cd672 2.378 . S
O681 C679 1.256 . S
O682 Cd683 2.300 . S
O682 C689 1.275 . S
Cd683 O682 2.300 . S
Cd683 O691 2.381 . S
Cd683 O692 2.378 . S
O684 Cd685 2.385 . S
O684 C689 1.255 . S
Cd685 O684 2.385 . S
Cd685 O686 2.317 . S
O686 Cd685 2.317 . S
O686 C687 1.232 . S
C687 O686 1.232 . S
C687 O688 1.218 . S
O688 C687 1.218 . S
C689 O682 1.275 . S
C689 O684 1.255 . S
C690 O691 1.258 . S
C690 O692 1.256 . S
O691 Cd683 2.381 . S
O691 C690 1.258 . S
O692 Cd683 2.378 . S
O692 C690 1.256 . S
O693 Cd694 2.300 . S
O693 C700 1.275 . S
Cd694 O693 2.300 . S
Cd694 O702 2.381 . S
Cd694 O703 2.378 . S
O695 Cd696 2.385 . S
O695 C700 1.255 . S
Cd696 O695 2.385 . S
Cd696 O697 2.317 . S
O697 Cd696 2.317 . S
O697 C698 1.232 . S
C698 O697 1.232 . S
C698 O699 1.218 . S
O699 C698 1.218 . S
C700 O693 1.275 . S
C700 O695 1.255 . S
C701 O702 1.258 . S
C701 O703 1.256 . S
O702 Cd694 2.381 . S
O702 C701 1.258 . S
O703 Cd694 2.378 . S
O703 C701 1.256 . S
O704 Cd705 2.300 . S
O704 C711 1.275 . S
Cd705 O704 2.300 . S
Cd705 O713 2.381 . S
Cd705 O714 2.378 . S
O706 Cd707 2.385 . S
O706 C711 1.255 . S
Cd707 O706 2.385 . S
Cd707 O708 2.317 . S
O708 Cd707 2.317 . S
O708 C709 1.232 . S
C709 O708 1.232 . S
C709 O710 1.218 . S
O710 C709 1.218 . S
C711 O704 1.275 . S
C711 O706 1.255 . S
C712 O713 1.258 . S
C712 O714 1.256 . S
O713 Cd705 2.381 . S
O713 C712 1.258 . S
O714 Cd705 2.378 . S
O714 C712 1.256 . S
O715 Cd716 2.300 . S
O715 C722 1.275 . S
Cd716 O715 2.300 . S
Cd716 O724 2.381 . S
Cd716 O725 2.378 . S
O717 Cd718 2.385 . S
O717 C722 1.255 . S
Cd718 O717 2.385 . S
Cd718 O719 2.317 . S
O719 Cd718 2.317 . S
O719 C720 1.232 . S
C720 O719 1.232 . S
C720 O721 1.218 . S
O721 C720 1.218 . S
C722 O715 1.275 . S
C722 O717 1.255 . S
C723 O724 1.258 . S
C723 O725 1.256 . S
O724 Cd716 2.381 . S
O724 C723 1.258 . S
O725 Cd716 2.378 . S
O725 C723 1.256 . S
O726 Cd727 2.300 . S
O726 C733 1.275 . S
Cd727 O726 2.300 . S
Cd727 O735 2.381 . S
Cd727 O736 2.378 . S
O728 Cd729 2.385 . S
O728 C733 1.255 . S
Cd729 O728 2.385 . S
Cd729 O730 2.317 . S
O730 Cd729 2.317 . S
O730 C731 1.232 . S
C731 O730 1.232 . S
C731 O732 1.218 . S
O732 C731 1.218 . S
C733 O726 1.275 . S
C733 O728 1.255 . S
C734 O735 1.258 . S
C734 O736 1.256 . S
O735 Cd727 2.381 . S
O735 C734 1.258 . S
O736 Cd727 2.378 . S
O736 C734 1.256 . S
O737 Cd738 2.300 . S
O737 C744 1.275 . S
Cd738 O737 2.300 . S
Cd738 O746 2.381 . S
Cd738 O747 2.378 . S
O739 Cd740 2.385 . S
O739 C744 1.255 . S
Cd740 O739 2.385 . S
Cd740 O741 2.317 . S
O741 Cd740 2.317 . S
O741 C742 1.232 . S
C742 O741 1.232 . S
C742 O743 1.218 . S
O743 C742 1.218 . S
C744 O737 1.275 . S
C744 O739 1.255 . S
C745 O746 1.258 . S
C745 O747 1.256 . S
O746 Cd738 2.381 . S
O746 C745 1.258 . S
O747 Cd738 2.378 . S
O747 C745 1.256 . S
O748 Cd749 2.300 . S
O748 C755 1.275 . S
Cd749 O748 2.300 . S
Cd749 O757 2.381 . S
Cd749 O758 2.378 . S
O750 Cd751 2.385 . S
O750 C755 1.255 . S
Cd751 O750 2.385 . S
Cd751 O752 2.317 . S
O752 Cd751 2.317 . S
O752 C753 1.232 . S
C753 O752 1.232 . S
C753 O754 1.218 . S
O754 C753 1.218 . S
C755 O748 1.275 . S
C755 O750 1.255 . S
C756 O757 1.258 . S
C756 O758 1.256 . S
O757 Cd749 2.381 . S
O757 C756 1.258 . S
O758 Cd749 2.378 . S
O758 C756 1.256 . S
O759 Cd760 2.300 . S
O759 C766 1.275 . S
Cd760 O759 2.300 . S
Cd760 O768 2.381 . S
Cd760 O769 2.378 . S
O761 Cd762 2.385 . S
O761 C766 1.255 . S
Cd762 O761 2.385 . S
Cd762 O763 2.317 . S
O763 Cd762 2.317 . S
O763 C764 1.232 . S
C764 O763 1.232 . S
C764 O765 1.218 . S
O765 C764 1.218 . S
C766 O759 1.275 . S
C766 O761 1.255 . S
C767 O768 1.258 . S
C767 O769 1.256 . S
O768 Cd760 2.381 . S
O768 C767 1.258 . S
O769 Cd760 2.378 . S
O769 C767 1.256 . S
O770 Cd771 2.300 . S
O770 C777 1.275 . S
Cd771 O770 2.300 . S
Cd771 O779 2.381 . S
Cd771 O780 2.378 . S
O772 Cd773 2.385 . S
O772 C777 1.255 . S
Cd773 O772 2.385 . S
Cd773 O774 2.317 . S
O774 Cd773 2.317 . S
O774 C775 1.232 . S
C775 O774 1.232 . S
C775 O776 1.218 . S
O776 C775 1.218 . S
C777 O770 1.275 . S
C777 O772 1.255 . S
C778 O779 1.258 . S
C778 O780 1.256 . S
O779 Cd771 2.381 . S
O779 C778 1.258 . S
O780 Cd771 2.378 . S
O780 C778 1.256 . S
O781 Cd782 2.300 . S
O781 C788 1.275 . S
Cd782 O781 2.300 . S
Cd782 O790 2.381 . S
Cd782 O791 2.378 . S
O783 Cd784 2.385 . S
O783 C788 1.255 . S
Cd784 O783 2.385 . S
Cd784 O785 2.317 . S
O785 Cd784 2.317 . S
O785 C786 1.232 . S
C786 O785 1.232 . S
C786 O787 1.218 . S
O787 C786 1.218 . S
C788 O781 1.275 . S
C788 O783 1.255 . S
C789 O790 1.258 . S
C789 O791 1.256 . S
O790 Cd782 2.381 . S
O790 C789 1.258 . S
O791 Cd782 2.378 . S
O791 C789 1.256 . S
O792 Cd793 2.300 . S
O792 C799 1.275 . S
Cd793 O792 2.300 . S
Cd793 O801 2.381 . S
Cd793 O802 2.378 . S
O794 Cd795 2.385 . S
O794 C799 1.255 . S
Cd795 O794 2.385 . S
Cd795 O796 2.317 . S
O796 Cd795 2.317 . S
O796 C797 1.232 . S
C797 O796 1.232 . S
C797 O798 1.218 . S
O798 C797 1.218 . S
C799 O792 1.275 . S
C799 O794 1.255 . S
C800 O801 1.258 . S
C800 O802 1.256 . S
O801 Cd793 2.381 . S
O801 C800 1.258 . S
O802 Cd793 2.378 . S
O802 C800 1.256 . S
O803 Cd804 2.300 . S
O803 C810 1.275 . S
Cd804 O803 2.300 . S
Cd804 O812 2.381 . S
Cd804 O813 2.378 . S
O805 Cd806 2.385 . S
O805 C810 1.255 . S
Cd806 O805 2.385 . S
Cd806 O807 2.317 . S
O807 Cd806 2.317 . S
O807 C808 1.232 . S
C808 O807 1.232 . S
C808 O809 1.218 . S
O809 C808 1.218 . S
C810 O803 1.275 . S
C810 O805 1.255 . S
C811 O812 1.258 . S
C811 O813 1.256 . S
O812 Cd804 2.381 . S
O812 C811 1.258 . S
O813 Cd804 2.378 . S
O813 C811 1.256 . S
O814 Cd815 2.300 . S
O814 C821 1.275 . S
Cd815 O814 2.300 . S
Cd815 O823 2.381 . S
Cd815 O824 2.378 . S
O816 Cd817 2.385 . S
O816 C821 1.255 . S
Cd817 O816 2.385 . S
Cd817 O818 2.317 . S
O818 Cd817 2.317 . S
O818 C819 1.232 . S
C819 O818 1.232 . S
C819 O820 1.218 . S
O820 C819 1.218 . S
C821 O814 1.275 . S
C821 O816 1.255 . S
C822 O823 1.258 . S
C822 O824 1.256 . S
O823 Cd815 2.381 . S
O823 C822 1.258 . S
O824 Cd815 2.378 . S
O824 C822 1.256 . S
O825 Cd826 2.300 . S
O825 C832 1.275 . S
Cd826 O825 2.300 . S
Cd826 O834 2.381 . S
Cd826 O835 2.378 . S
O827 Cd828 2.385 . S
O827 C832 1.255 . S
Cd828 O827 2.385 . S
Cd828 O829 2.317 . S
O829 Cd828 2.317 . S
O829 C830 1.232 . S
C830 O829 1.232 . S
C830 O831 1.218 . S
O831 C830 1.218 . S
C832 O825 1.275 . S
C832 O827 1.255 . S
C833 O834 1.258 . S
C833 O835 1.256 . S
O834 Cd826 2.381 . S
O834 C833 1.258 . S
O835 Cd826 2.378 . S
O835 C833 1.256 . S
O836 Cd837 2.300 . S
O836 C843 1.275 . S
Cd837 O836 2.300 . S
Cd837 O845 2.381 . S
Cd837 O846 2.378 . S
O838 Cd839 2.385 . S
O838 C843 1.255 . S
Cd839 O838 2.385 . S
Cd839 O840 2.317 . S
O840 Cd839 2.317 . S
O840 C841 1.232 . S
C841 O840 1.232 . S
C841 O842 1.218 . S
O842 C841 1.218 . S
C843 O836 1.275 . S
C843 O838 1.255 . S
C844 O845 1.258 . S
C844 O846 1.256 . S
O845 Cd837 2.381 . S
O845 C844 1.258 . S
O846 Cd837 2.378 . S
O846 C844 1.256 . S
O847 Cd848 2.300 . S
O847 C854 1.275 . S
Cd848 O847 2.300 . S
Cd848 O856 2.381 . S
Cd848 O857 2.378 . S
O849 Cd850 2.385 . S
O849 C854 1.255 . S
Cd850 O849 2.385 . S
Cd850 O851 2.317 . S
O851 Cd850 2.317 . S
O851 C852 1.232 . S
C852 O851 1.232 . S
C852 O853 1.218 . S
O853 C852 1.218 . S
C854 O847 1.275 . S
C854 O849 1.255 . S
C855 O856 1.258 . S
C855 O857 1.256 . S
O856 Cd848 2.381 . S
O856 C855 1.258 . S
O857 Cd848 2.378 . S
O857 C855 1.256 . S
O858 Cd859 2.300 . S
O858 C865 1.275 . S
Cd859 O858 2.300 . S
Cd859 O867 2.381 . S
Cd859 O868 2.378 . S
O860 Cd861 2.385 . S
O860 C865 1.255 . S
Cd861 O860 2.385 . S
Cd861 O862 2.317 . S
O862 Cd861 2.317 . S
O862 C863 1.232 . S
C863 O862 1.232 . S
C863 O864 1.218 . S
O864 C863 1.218 . S
C865 O858 1.275 . S
C865 O860 1.255 . S
C866 O867 1.258 . S
C866 O868 1.256 . S
O867 Cd859 2.381 . S
O867 C866 1.258 . S
O868 Cd859 2.378 . S
O868 C866 1.256 . S
O869 Cd870 2.300 . S
O869 C876 1.275 . S
Cd870 O869 2.300 . S
Cd870 O878 2.381 . S
Cd870 O879 2.378 . S
O871 Cd872 2.385 . S
O871 C876 1.255 . S
Cd872 O871 2.385 . S
Cd872 O873 2.317 . S
O873 Cd872 2.317 . S
O873 C874 1.232 . S
C874 O873 1.232 . S
C874 O875 1.218 . S
O875 C874 1.218 . S
C876 O869 1.275 . S
C876 O871 1.255 . S
C877 O878 1.258 . S
C877 O879 1.256 . S
O878 Cd870 2.381 . S
O878 C877 1.258 . S
O879 Cd870 2.378 . S
O879 C877 1.256 . S
O880 Cd881 2.300 . S
O880 C887 1.275 . S
Cd881 O880 2.300 . S
Cd881 O889 2.381 . S
Cd881 O890 2.378 . S
O882 Cd883 2.385 . S
O882 C887 1.255 . S
Cd883 O882 2.385 . S
Cd883 O884 2.317 . S
O884 Cd883 2.317 . S
O884 C885 1.232 . S
C885 O884 1.232 . S
C885 O886 1.218 . S
O886 C885 1.218 . S
C887 O880 1.275 . S
C887 O882 1.255 . S
C888 O889 1.258 . S
C888 O890 1.256 . S
O889 Cd881 2.381 . S
O889 C888 1.258 . S
O890 Cd881 2.378 . S
O890 C888 1.256 . S
O891 Cd892 2.300 . S
O891 C898 1.275 . S
Cd892 O891 2.300 . S
Cd892 O900 2.381 . S
Cd892 O901 2.378 . S
O893 Cd894 2.385 . S
O893 C898 1.255 . S
Cd894 O893 2.385 . S
Cd894 O895 2.317 . S
O895 Cd894 2.317 . S
O895 C896 1.232 . S
C896 O895 1.232 . S
C896 O897 1.218 . S
O897 C896 1.218 . S
C898 O891 1.275 . S
C898 O893 1.255 . S
C899 O900 1.258 . S
C899 O901 1.256 . S
O900 Cd892 2.381 . S
O900 C899 1.258 . S
O901 Cd892 2.378 . S
O901 C899 1.256 . S
O902 Cd903 2.300 . S
O902 C909 1.275 . S
Cd903 O902 2.300 . S
Cd903 O911 2.381 . S
Cd903 O912 2.378 . S
O904 Cd905 2.385 . S
O904 C909 1.255 . S
Cd905 O904 2.385 . S
Cd905 O906 2.317 . S
O906 Cd905 2.317 . S
O906 C907 1.232 . S
C907 O906 1.232 . S
C907 O908 1.218 . S
O908 C907 1.218 . S
C909 O902 1.275 . S
C909 O904 1.255 . S
C910 O911 1.258 . S
C910 O912 1.256 . S
O911 Cd903 2.381 . S
O911 C910 1.258 . S
O912 Cd903 2.378 . S
O912 C910 1.256 . S
O913 Cd914 2.300 . S
O913 C920 1.275 . S
Cd914 O913 2.300 . S
Cd914 O922 2.381 . S
Cd914 O923 2.378 . S
O915 Cd916 2.385 . S
O915 C920 1.255 . S
Cd916 O915 2.385 . S
Cd916 O917 2.317 . S
O917 Cd916 2.317 . S
O917 C918 1.232 . S
C918 O917 1.232 . S
C918 O919 1.218 . S
O919 C918 1.218 . S
C920 O913 1.275 . S
C920 O915 1.255 . S
C921 O922 1.258 . S
C921 O923 1.256 . S
O922 Cd914 2.381 . S
O922 C921 1.258 . S
O923 Cd914 2.378 . S
O923 C921 1.256 . S
O924 Cd925 2.300 . S
O924 C931 1.275 . S
Cd925 O924 2.300 . S
Cd925 O933 2.381 . S
Cd925 O934 2.378 . S
O926 Cd927 2.385 . S
O926 C931 1.255 . S
Cd927 O926 2.385 . S
Cd927 O928 2.317 . S
O928 Cd927 2.317 . S
O928 C929 1.232 . S
C929 O928 1.232 . S
C929 O930 1.218 . S
O930 C929 1.218 . S
C931 O924 1.275 . S
C931 O926 1.255 . S
C932 O933 1.258 . S
C932 O934 1.256 . S
O933 Cd925 2.381 . S
O933 C932 1.258 . S
O934 Cd925 2.378 . S
O934 C932 1.256 . S
O935 Cd936 2.300 . S
O935 C942 1.275 . S
Cd936 O935 2.300 . S
Cd936 O944 2.381 . S
Cd936 O945 2.378 . S
O937 Cd938 2.385 . S
O937 C942 1.255 . S
Cd938 O937 2.385 . S
Cd938 O939 2.317 . S
O939 Cd938 2.317 . S
O939 C940 1.232 . S
C940 O939 1.232 . S
C940 O941 1.218 . S
O941 C940 1.218 . S
C942 O935 1.275 . S
C942 O937 1.255 . S
C943 O944 1.258 . S
C943 O945 1.256 . S
O944 Cd936 2.381 . S
O944 C943 1.258 . S
O945 Cd936 2.378 . S
O945 C943 1.256 . S
O946 Cd947 2.300 . S
O946 C953 1.275 . S
Cd947 O946 2.300 . S
Cd947 O955 2.381 . S
Cd947 O956 2.378 . S
O948 Cd949 2.385 . S
O948 C953 1.255 . S
Cd949 O948 2.385 . S
Cd949 O950 2.317 . S
O950 Cd949 2.317 . S
O950 C951 1.232 . S
C951 O950 1.232 . S
C951 O952 1.218 . S
O952 C951 1.218 . S
C953 O946 1.275 . S
C953 O948 1.255 . S
C954 O955 1.258 . S
C954 O956 1.256 . S
O955 Cd947 2.381 . S
O955 C954 1.258 . S
O956 Cd947 2.378 . S
O956 C954 1.256 . S
O957 Cd958 2.300 . S
O957 C964 1.275 . S
Cd958 O957 2.300 . S
Cd958 O966 2.381 . S
Cd958 O967 2.378 . S
O959 Cd960 2.385 . S
O959 C964 1.255 . S
Cd960 O959 2.385 . S
Cd960 O961 2.317 . S
O961 Cd960 2.317 . S
O961 C962 1.232 . S
C962 O961 1.232 . S
C962 O963 1.218 . S
O963 C962 1.218 . S
C964 O957 1.275 . S
C964 O959 1.255 . S
C965 O966 1.258 . S
C965 O967 1.256 . S
O966 Cd958 2.381 . S
O966 C965 1.258 . S
O967 Cd958 2.378 . S
O967 C965 1.256 . S
O968 Cd969 2.300 . S
O968 C975 1.275 . S
Cd969 O968 2.300 . S
Cd969 O977 2.381 . S
Cd969 O978 2.378 . S
O970 Cd971 2.385 . S
O970 C975 1.255 . S
Cd971 O970 2.385 . S
Cd971 O972 2.317 . S
O972 Cd971 2.317 . S
O972 C973 1.232 . S
C973 O972 1.232 . S
C973 O974 1.218 . S
O974 C973 1.218 . S
C975 O968 1.275 . S
C975 O970 1.255 . S
C976 O977 1.258 . S
C976 O978 1.256 . S
O977 Cd969 2.381 . S
O977 C976 1.258 . S
O978 Cd969 2.378 . S
O978 C976 1.256 . S
O979 Cd980 2.300 . S
O979 C986 1.275 . S
Cd980 O979 2.300 . S
Cd980 O988 2.381 . S
Cd980 O989 2.378 . S
O981 Cd982 2.385 . S
O981 C986 1.255 . S
Cd982 O981 2.385 . S
Cd982 O983 2.317 . S
O983 Cd982 2.317 . S
O983 C984 1.232 . S
C984 O983 1.232 . S
C984 O985 1.218 . S
O985 C984 1.218 . S
C986 O979 1.275 . S
C986 O981 1.255 . S
C987 O988 1.258 . S
C987 O989 1.256 . S
O988 Cd980 2.381 . S
O988 C987 1.258 . S
O989 Cd980 2.378 . S
O989 C987 1.256 . S
O990 Cd991 2.300 . S
O990 C997 1.275 . S
Cd991 O990 2.300 . S
Cd991 O999 2.381 . S
Cd991 O1000 2.378 . S
O992 Cd993 2.385 . S
O992 C997 1.255 . S
Cd993 O992 2.385 . S
Cd993 O994 2.317 . S
O994 Cd993 2.317 . S
O994 C995 1.232 . S
C995 O994 1.232 . S
C995 O996 1.218 . S
O996 C995 1.218 . S
C997 O990 1.275 . S
C997 O992 1.255 . S
C998 O999 1.258 . S
C998 O1000 1.256 . S
O999 Cd991 2.381 . S
O999 C998 1.258 . S
O1000 Cd991 2.378 . S
O1000 C998 1.256 . S
O1001 Cd1002 2.300 . S
O1001 C1008 1.275 . S
Cd1002 O1001 2.300 . S
Cd1002 O1010 2.381 . S
Cd1002 O1011 2.378 . S
O1003 Cd1004 2.385 . S
O1003 C1008 1.255 . S
Cd1004 O1003 2.385 . S
Cd1004 O1005 2.317 . S
O1005 Cd1004 2.317 . S
O1005 C1006 1.232 . S
C1006 O1005 1.232 . S
C1006 O1007 1.218 . S
O1007 C1006 1.218 . S
C1008 O1001 1.275 . S
C1008 O1003 1.255 . S
C1009 O1010 1.258 . S
C1009 O1011 1.256 . S
O1010 Cd1002 2.381 . S
O1010 C1009 1.258 . S
O1011 Cd1002 2.378 . S
O1011 C1009 1.256 . S
O1012 Cd1013 2.300 . S
O1012 C1019 1.275 . S
Cd1013 O1012 2.300 . S
Cd1013 O1021 2.381 . S
Cd1013 O1022 2.378 . S
O1014 Cd1015 2.385 . S
O1014 C1019 1.255 . S
Cd1015 O1014 2.385 . S
Cd1015 O1016 2.317 . S
O1016 Cd1015 2.317 . S
O1016 C1017 1.232 . S
C1017 O1016 1.232 . S
C1017 O1018 1.218 . S
O1018 C1017 1.218 . S
C1019 O1012 1.275 . S
C1019 O1014 1.255 . S
C1020 O1021 1.258 . S
C1020 O1022 1.256 . S
O1021 Cd1013 2.381 . S
O1021 C1020 1.258 . S
O1022 Cd1013 2.378 . S
O1022 C1020 1.256 . S
O1023 Cd1024 2.300 . S
O1023 C1030 1.275 . S
Cd1024 O1023 2.300 . S
Cd1024 O1032 2.381 . S
Cd1024 O1033 2.378 . S
O1025 Cd1026 2.385 . S
O1025 C1030 1.255 . S
Cd1026 O1025 2.385 . S
Cd1026 O1027 2.317 . S
O1027 Cd1026 2.317 . S
O1027 C1028 1.232 . S
C1028 O1027 1.232 . S
C1028 O1029 1.218 . S
O1029 C1028 1.218 . S
C1030 O1023 1.275 . S
C1030 O1025 1.255 . S
C1031 O1032 1.258 . S
C1031 O1033 1.256 . S
O1032 Cd1024 2.381 . S
O1032 C1031 1.258 . S
O1033 Cd1024 2.378 . S
O1033 C1031 1.256 . S
O1034 Cd1035 2.300 . S
O1034 C1041 1.275 . S
Cd1035 O1034 2.300 . S
Cd1035 O1043 2.381 . S
Cd1035 O1044 2.378 . S
O1036 Cd1037 2.385 . S
O1036 C1041 1.255 . S
Cd1037 O1036 2.385 . S
Cd1037 O1038 2.317 . S
O1038 Cd1037 2.317 . S
O1038 C1039 1.232 . S
C1039 O1038 1.232 . S
C1039 O1040 1.218 . S
O1040 C1039 1.218 . S
C1041 O1034 1.275 . S
C1041 O1036 1.255 . S
C1042 O1043 1.258 . S
C1042 O1044 1.256 . S
O1043 Cd1035 2.381 . S
O1043 C1042 1.258 . S
O1044 Cd1035 2.378 . S
O1044 C1042 1.256 . S
O1045 Cd1046 2.300 . S
O1045 C1052 1.275 . S
Cd1046 O1045 2.300 . S
Cd1046 O1054 2.381 . S
Cd1046 O1055 2.378 . S
O1047 Cd1048 2.385 . S
O1047 C1052 1.255 . S
Cd1048 O1047 2.385 . S
Cd1048 O1049 2.317 . S
O1049 Cd1048 2.317 . S
O1049 C1050 1.232 . S
C1050 O1049 1.232 . S
C1050 O1051 1.218 . S
O1051 C1050 1.218 . S
C1052 O1045 1.275 . S
C1052 O1047 1.255 . S
C1053 O1054 1.258 . S
C1053 O1055 1.256 . S
O1054 Cd1046 2.381 . S
O1054 C1053 1.258 . S
O1055 Cd1046 2.378 . S
O1055 C1053 1.256 . S
C1056 C1057 1.384 . S
C1056 H1069 0.947 . S
C1056 C1091 1.382 . S
C1057 C1056 1.384 . S
C1057 C1058 1.378 . S
C1058 C1057 1.378 . S
C1058 C1059 1.378 . S
C1058 H1070 0.952 . S
C1059 C1058 1.378 . S
C1059 H1071 0.950 . S
C1059 C1090 1.383 . S
H1060 C1079 0.947 . S
H1061 C1080 0.946 . S
H1062 C1082 0.953 . S
H1063 C1083 0.945 . S
H1064 C1085 0.952 . S
H1065 C1086 0.949 . S
H1066 C1088 0.950 . S
H1067 C1089 0.948 . S
H1068 C1091 0.951 . S
H1069 C1056 0.947 . S
H1070 C1058 0.952 . S
H1071 C1059 0.950 . S
N1072 C1075 1.382 . S
N1072 C1077 1.363 . S
N1073 C1075 1.371 . S
N1073 C1076 1.372 . S
N1074 C1076 1.361 . S
N1074 C1077 1.377 . S
C1075 N1072 1.382 . S
C1075 N1073 1.371 . S
C1075 C1078 1.480 . S
C1076 N1073 1.372 . S
C1076 N1074 1.361 . S
C1076 C1084 1.457 . S
C1077 N1072 1.363 . S
C1077 N1074 1.377 . S
C1077 C1090 1.479 . S
C1078 C1075 1.480 . S
C1078 C1079 1.383 . S
C1078 C1083 1.385 . S
C1079 H1060 0.947 . S
C1079 C1078 1.383 . S
C1079 C1080 1.388 . S
C1080 H1061 0.946 . S
C1080 C1079 1.388 . S
C1080 C1081 1.384 . S
C1081 C1080 1.384 . S
C1081 C1082 1.377 . S
C1082 H1062 0.953 . S
C1082 C1081 1.377 . S
C1082 C1083 1.369 . S
C1083 H1063 0.945 . S
C1083 C1078 1.385 . S
C1083 C1082 1.369 . S
C1084 C1076 1.457 . S
C1084 C1085 1.372 . S
C1084 C1089 1.364 . S
C1085 H1064 0.952 . S
C1085 C1084 1.372 . S
C1085 C1086 1.389 . S
C1086 H1065 0.949 . S
C1086 C1085 1.389 . S
C1086 C1087 1.387 . S
C1087 C1086 1.387 . S
C1087 C1088 1.372 . S
C1088 H1066 0.950 . S
C1088 C1087 1.372 . S
C1088 C1089 1.379 . S
C1089 H1067 0.948 . S
C1089 C1084 1.364 . S
C1089 C1088 1.379 . S
C1090 C1059 1.383 . S
C1090 C1077 1.479 . S
C1090 C1091 1.398 . S
C1091 C1056 1.382 . S
C1091 H1068 0.951 . S
C1091 C1090 1.398 . S
C1092 C1093 1.384 . S
C1092 H1105 0.947 . S
C1092 C1127 1.382 . S
C1093 C1092 1.384 . S
C1093 C1094 1.378 . S
C1094 C1093 1.378 . S
C1094 C1095 1.378 . S
C1094 H1106 0.952 . S
C1095 C1094 1.378 . S
C1095 H1107 0.950 . S
C1095 C1126 1.383 . S
H1096 C1115 0.947 . S
H1097 C1116 0.946 . S
H1098 C1118 0.953 . S
H1099 C1119 0.945 . S
H1100 C1121 0.952 . S
H1101 C1122 0.949 . S
H1102 C1124 0.950 . S
H1103 C1125 0.948 . S
H1104 C1127 0.951 . S
H1105 C1092 0.947 . S
H1106 C1094 0.952 . S
H1107 C1095 0.950 . S
N1108 C1111 1.382 . S
N1108 C1113 1.363 . S
N1109 C1111 1.371 . S
N1109 C1112 1.372 . S
N1110 C1112 1.361 . S
N1110 C1113 1.377 . S
C1111 N1108 1.382 . S
C1111 N1109 1.371 . S
C1111 C1114 1.480 . S
C1112 N1109 1.372 . S
C1112 N1110 1.361 . S
C1112 C1120 1.457 . S
C1113 N1108 1.363 . S
C1113 N1110 1.377 . S
C1113 C1126 1.479 . S
C1114 C1111 1.480 . S
C1114 C1115 1.383 . S
C1114 C1119 1.385 . S
C1115 H1096 0.947 . S
C1115 C1114 1.383 . S
C1115 C1116 1.388 . S
C1116 H1097 0.946 . S
C1116 C1115 1.388 . S
C1116 C1117 1.384 . S
C1117 C1116 1.384 . S
C1117 C1118 1.377 . S
C1118 H1098 0.953 . S
C1118 C1117 1.377 . S
C1118 C1119 1.369 . S
C1119 H1099 0.945 . S
C1119 C1114 1.385 . S
C1119 C1118 1.369 . S
C1120 C1112 1.457 . S
C1120 C1121 1.372 . S
C1120 C1125 1.364 . S
C1121 H1100 0.952 . S
C1121 C1120 1.372 . S
C1121 C1122 1.389 . S
C1122 H1101 0.949 . S
C1122 C1121 1.389 . S
C1122 C1123 1.387 . S
C1123 C1122 1.387 . S
C1123 C1124 1.372 . S
C1124 H1102 0.950 . S
C1124 C1123 1.372 . S
C1124 C1125 1.379 . S
C1125 H1103 0.948 . S
C1125 C1120 1.364 . S
C1125 C1124 1.379 . S
C1126 C1095 1.383 . S
C1126 C1113 1.479 . S
C1126 C1127 1.398 . S
C1127 C1092 1.382 . S
C1127 H1104 0.951 . S
C1127 C1126 1.398 . S
C1128 C1129 1.384 . S
C1128 H1141 0.947 . S
C1128 C1163 1.382 . S
C1129 C1128 1.384 . S
C1129 C1130 1.378 . S
C1130 C1129 1.378 . S
C1130 C1131 1.378 . S
C1130 H1142 0.952 . S
C1131 C1130 1.378 . S
C1131 H1143 0.950 . S
C1131 C1162 1.383 . S
H1132 C1151 0.947 . S
H1133 C1152 0.946 . S
H1134 C1154 0.953 . S
H1135 C1155 0.945 . S
H1136 C1157 0.952 . S
H1137 C1158 0.949 . S
H1138 C1160 0.950 . S
H1139 C1161 0.948 . S
H1140 C1163 0.951 . S
H1141 C1128 0.947 . S
H1142 C1130 0.952 . S
H1143 C1131 0.950 . S
N1144 C1147 1.382 . S
N1144 C1149 1.363 . S
N1145 C1147 1.371 . S
N1145 C1148 1.372 . S
N1146 C1148 1.361 . S
N1146 C1149 1.377 . S
C1147 N1144 1.382 . S
C1147 N1145 1.371 . S
C1147 C1150 1.480 . S
C1148 N1145 1.372 . S
C1148 N1146 1.361 . S
C1148 C1156 1.457 . S
C1149 N1144 1.363 . S
C1149 N1146 1.377 . S
C1149 C1162 1.479 . S
C1150 C1147 1.480 . S
C1150 C1151 1.383 . S
C1150 C1155 1.385 . S
C1151 H1132 0.947 . S
C1151 C1150 1.383 . S
C1151 C1152 1.388 . S
C1152 H1133 0.946 . S
C1152 C1151 1.388 . S
C1152 C1153 1.384 . S
C1153 C1152 1.384 . S
C1153 C1154 1.377 . S
C1154 H1134 0.953 . S
C1154 C1153 1.377 . S
C1154 C1155 1.369 . S
C1155 H1135 0.945 . S
C1155 C1150 1.385 . S
C1155 C1154 1.369 . S
C1156 C1148 1.457 . S
C1156 C1157 1.372 . S
C1156 C1161 1.364 . S
C1157 H1136 0.952 . S
C1157 C1156 1.372 . S
C1157 C1158 1.389 . S
C1158 H1137 0.949 . S
C1158 C1157 1.389 . S
C1158 C1159 1.387 . S
C1159 C1158 1.387 . S
C1159 C1160 1.372 . S
C1160 H1138 0.950 . S
C1160 C1159 1.372 . S
C1160 C1161 1.379 . S
C1161 H1139 0.948 . S
C1161 C1156 1.364 . S
C1161 C1160 1.379 . S
C1162 C1131 1.383 . S
C1162 C1149 1.479 . S
C1162 C1163 1.398 . S
C1163 C1128 1.382 . S
C1163 H1140 0.951 . S
C1163 C1162 1.398 . S
C1164 C1165 1.384 . S
C1164 H1177 0.947 . S
C1164 C1199 1.382 . S
C1165 C1164 1.384 . S
C1165 C1166 1.378 . S
C1166 C1165 1.378 . S
C1166 C1167 1.378 . S
C1166 H1178 0.952 . S
C1167 C1166 1.378 . S
C1167 H1179 0.950 . S
C1167 C1198 1.383 . S
H1168 C1187 0.947 . S
H1169 C1188 0.946 . S
H1170 C1190 0.953 . S
H1171 C1191 0.945 . S
H1172 C1193 0.952 . S
H1173 C1194 0.949 . S
H1174 C1196 0.950 . S
H1175 C1197 0.948 . S
H1176 C1199 0.951 . S
H1177 C1164 0.947 . S
H1178 C1166 0.952 . S
H1179 C1167 0.950 . S
N1180 C1183 1.382 . S
N1180 C1185 1.363 . S
N1181 C1183 1.371 . S
N1181 C1184 1.372 . S
N1182 C1184 1.361 . S
N1182 C1185 1.377 . S
C1183 N1180 1.382 . S
C1183 N1181 1.371 . S
C1183 C1186 1.480 . S
C1184 N1181 1.372 . S
C1184 N1182 1.361 . S
C1184 C1192 1.457 . S
C1185 N1180 1.363 . S
C1185 N1182 1.377 . S
C1185 C1198 1.479 . S
C1186 C1183 1.480 . S
C1186 C1187 1.383 . S
C1186 C1191 1.385 . S
C1187 H1168 0.947 . S
C1187 C1186 1.383 . S
C1187 C1188 1.388 . S
C1188 H1169 0.946 . S
C1188 C1187 1.388 . S
C1188 C1189 1.384 . S
C1189 C1188 1.384 . S
C1189 C1190 1.377 . S
C1190 H1170 0.953 . S
C1190 C1189 1.377 . S
C1190 C1191 1.369 . S
C1191 H1171 0.945 . S
C1191 C1186 1.385 . S
C1191 C1190 1.369 . S
C1192 C1184 1.457 . S
C1192 C1193 1.372 . S
C1192 C1197 1.364 . S
C1193 H1172 0.952 . S
C1193 C1192 1.372 . S
C1193 C1194 1.389 . S
C1194 H1173 0.949 . S
C1194 C1193 1.389 . S
C1194 C1195 1.387 . S
C1195 C1194 1.387 . S
C1195 C1196 1.372 . S
C1196 H1174 0.950 . S
C1196 C1195 1.372 . S
C1196 C1197 1.379 . S
C1197 H1175 0.948 . S
C1197 C1192 1.364 . S
C1197 C1196 1.379 . S
C1198 C1167 1.383 . S
C1198 C1185 1.479 . S
C1198 C1199 1.398 . S
C1199 C1164 1.382 . S
C1199 H1176 0.951 . S
C1199 C1198 1.398 . S
C1200 C1201 1.384 . S
C1200 H1213 0.947 . S
C1200 C1235 1.382 . S
C1201 C1200 1.384 . S
C1201 C1202 1.378 . S
C1202 C1201 1.378 . S
C1202 C1203 1.378 . S
C1202 H1214 0.952 . S
C1203 C1202 1.378 . S
C1203 H1215 0.950 . S
C1203 C1234 1.383 . S
H1204 C1223 0.947 . S
H1205 C1224 0.946 . S
H1206 C1226 0.953 . S
H1207 C1227 0.945 . S
H1208 C1229 0.952 . S
H1209 C1230 0.949 . S
H1210 C1232 0.950 . S
H1211 C1233 0.948 . S
H1212 C1235 0.951 . S
H1213 C1200 0.947 . S
H1214 C1202 0.952 . S
H1215 C1203 0.950 . S
N1216 C1219 1.382 . S
N1216 C1221 1.363 . S
N1217 C1219 1.371 . S
N1217 C1220 1.372 . S
N1218 C1220 1.361 . S
N1218 C1221 1.377 . S
C1219 N1216 1.382 . S
C1219 N1217 1.371 . S
C1219 C1222 1.480 . S
C1220 N1217 1.372 . S
C1220 N1218 1.361 . S
C1220 C1228 1.457 . S
C1221 N1216 1.363 . S
C1221 N1218 1.377 . S
C1221 C1234 1.479 . S
C1222 C1219 1.480 . S
C1222 C1223 1.383 . S
C1222 C1227 1.385 . S
C1223 H1204 0.947 . S
C1223 C1222 1.383 . S
C1223 C1224 1.388 . S
C1224 H1205 0.946 . S
C1224 C1223 1.388 . S
C1224 C1225 1.384 . S
C1225 C1224 1.384 . S
C1225 C1226 1.377 . S
C1226 H1206 0.953 . S
C1226 C1225 1.377 . S
C1226 C1227 1.369 . S
C1227 H1207 0.945 . S
C1227 C1222 1.385 . S
C1227 C1226 1.369 . S
C1228 C1220 1.457 . S
C1228 C1229 1.372 . S
C1228 C1233 1.364 . S
C1229 H1208 0.952 . S
C1229 C1228 1.372 . S
C1229 C1230 1.389 . S
C1230 H1209 0.949 . S
C1230 C1229 1.389 . S
C1230 C1231 1.387 . S
C1231 C1230 1.387 . S
C1231 C1232 1.372 . S
C1232 H1210 0.950 . S
C1232 C1231 1.372 . S
C1232 C1233 1.379 . S
C1233 H1211 0.948 . S
C1233 C1228 1.364 . S
C1233 C1232 1.379 . S
C1234 C1203 1.383 . S
C1234 C1221 1.479 . S
C1234 C1235 1.398 . S
C1235 C1200 1.382 . S
C1235 H1212 0.951 . S
C1235 C1234 1.398 . S
C1236 C1237 1.384 . S
C1236 H1249 0.947 . S
C1236 C1271 1.382 . S
C1237 C1236 1.384 . S
C1237 C1238 1.378 . S
C1238 C1237 1.378 . S
C1238 C1239 1.378 . S
C1238 H1250 0.952 . S
C1239 C1238 1.378 . S
C1239 H1251 0.950 . S
C1239 C1270 1.383 . S
H1240 C1259 0.947 . S
H1241 C1260 0.946 . S
H1242 C1262 0.953 . S
H1243 C1263 0.945 . S
H1244 C1265 0.952 . S
H1245 C1266 0.949 . S
H1246 C1268 0.950 . S
H1247 C1269 0.948 . S
H1248 C1271 0.951 . S
H1249 C1236 0.947 . S
H1250 C1238 0.952 . S
H1251 C1239 0.950 . S
N1252 C1255 1.382 . S
N1252 C1257 1.363 . S
N1253 C1255 1.371 . S
N1253 C1256 1.372 . S
N1254 C1256 1.361 . S
N1254 C1257 1.377 . S
C1255 N1252 1.382 . S
C1255 N1253 1.371 . S
C1255 C1258 1.480 . S
C1256 N1253 1.372 . S
C1256 N1254 1.361 . S
C1256 C1264 1.457 . S
C1257 N1252 1.363 . S
C1257 N1254 1.377 . S
C1257 C1270 1.479 . S
C1258 C1255 1.480 . S
C1258 C1259 1.383 . S
C1258 C1263 1.385 . S
C1259 H1240 0.947 . S
C1259 C1258 1.383 . S
C1259 C1260 1.388 . S
C1260 H1241 0.946 . S
C1260 C1259 1.388 . S
C1260 C1261 1.384 . S
C1261 C1260 1.384 . S
C1261 C1262 1.377 . S
C1262 H1242 0.953 . S
C1262 C1261 1.377 . S
C1262 C1263 1.369 . S
C1263 H1243 0.945 . S
C1263 C1258 1.385 . S
C1263 C1262 1.369 . S
C1264 C1256 1.457 . S
C1264 C1265 1.372 . S
C1264 C1269 1.364 . S
C1265 H1244 0.952 . S
C1265 C1264 1.372 . S
C1265 C1266 1.389 . S
C1266 H1245 0.949 . S
C1266 C1265 1.389 . S
C1266 C1267 1.387 . S
C1267 C1266 1.387 . S
C1267 C1268 1.372 . S
C1268 H1246 0.950 . S
C1268 C1267 1.372 . S
C1268 C1269 1.379 . S
C1269 H1247 0.948 . S
C1269 C1264 1.364 . S
C1269 C1268 1.379 . S
C1270 C1239 1.383 . S
C1270 C1257 1.479 . S
C1270 C1271 1.398 . S
C1271 C1236 1.382 . S
C1271 H1248 0.951 . S
C1271 C1270 1.398 . S
C1272 C1273 1.384 . S
C1272 H1285 0.947 . S
C1272 C1307 1.382 . S
C1273 C1272 1.384 . S
C1273 C1274 1.378 . S
C1274 C1273 1.378 . S
C1274 C1275 1.378 . S
C1274 H1286 0.952 . S
C1275 C1274 1.378 . S
C1275 H1287 0.950 . S
C1275 C1306 1.383 . S
H1276 C1295 0.947 . S
H1277 C1296 0.946 . S
H1278 C1298 0.953 . S
H1279 C1299 0.945 . S
H1280 C1301 0.952 . S
H1281 C1302 0.949 . S
H1282 C1304 0.950 . S
H1283 C1305 0.948 . S
H1284 C1307 0.951 . S
H1285 C1272 0.947 . S
H1286 C1274 0.952 . S
H1287 C1275 0.950 . S
N1288 C1291 1.382 . S
N1288 C1293 1.363 . S
N1289 C1291 1.371 . S
N1289 C1292 1.372 . S
N1290 C1292 1.361 . S
N1290 C1293 1.377 . S
C1291 N1288 1.382 . S
C1291 N1289 1.371 . S
C1291 C1294 1.480 . S
C1292 N1289 1.372 . S
C1292 N1290 1.361 . S
C1292 C1300 1.457 . S
C1293 N1288 1.363 . S
C1293 N1290 1.377 . S
C1293 C1306 1.479 . S
C1294 C1291 1.480 . S
C1294 C1295 1.383 . S
C1294 C1299 1.385 . S
C1295 H1276 0.947 . S
C1295 C1294 1.383 . S
C1295 C1296 1.388 . S
C1296 H1277 0.946 . S
C1296 C1295 1.388 . S
C1296 C1297 1.384 . S
C1297 C1296 1.384 . S
C1297 C1298 1.377 . S
C1298 H1278 0.953 . S
C1298 C1297 1.377 . S
C1298 C1299 1.369 . S
C1299 H1279 0.945 . S
C1299 C1294 1.385 . S
C1299 C1298 1.369 . S
C1300 C1292 1.457 . S
C1300 C1301 1.372 . S
C1300 C1305 1.364 . S
C1301 H1280 0.952 . S
C1301 C1300 1.372 . S
C1301 C1302 1.389 . S
C1302 H1281 0.949 . S
C1302 C1301 1.389 . S
C1302 C1303 1.387 . S
C1303 C1302 1.387 . S
C1303 C1304 1.372 . S
C1304 H1282 0.950 . S
C1304 C1303 1.372 . S
C1304 C1305 1.379 . S
C1305 H1283 0.948 . S
C1305 C1300 1.364 . S
C1305 C1304 1.379 . S
C1306 C1275 1.383 . S
C1306 C1293 1.479 . S
C1306 C1307 1.398 . S
C1307 C1272 1.382 . S
C1307 H1284 0.951 . S
C1307 C1306 1.398 . S
C1308 C1309 1.384 . S
C1308 H1321 0.947 . S
C1308 C1343 1.382 . S
C1309 C1308 1.384 . S
C1309 C1310 1.378 . S
C1310 C1309 1.378 . S
C1310 C1311 1.378 . S
C1310 H1322 0.952 . S
C1311 C1310 1.378 . S
C1311 H1323 0.950 . S
C1311 C1342 1.383 . S
H1312 C1331 0.947 . S
H1313 C1332 0.946 . S
H1314 C1334 0.953 . S
H1315 C1335 0.945 . S
H1316 C1337 0.952 . S
H1317 C1338 0.949 . S
H1318 C1340 0.950 . S
H1319 C1341 0.948 . S
H1320 C1343 0.951 . S
H1321 C1308 0.947 . S
H1322 C1310 0.952 . S
H1323 C1311 0.950 . S
N1324 C1327 1.382 . S
N1324 C1329 1.363 . S
N1325 C1327 1.371 . S
N1325 C1328 1.372 . S
N1326 C1328 1.361 . S
N1326 C1329 1.377 . S
C1327 N1324 1.382 . S
C1327 N1325 1.371 . S
C1327 C1330 1.480 . S
C1328 N1325 1.372 . S
C1328 N1326 1.361 . S
C1328 C1336 1.457 . S
C1329 N1324 1.363 . S
C1329 N1326 1.377 . S
C1329 C1342 1.479 . S
C1330 C1327 1.480 . S
C1330 C1331 1.383 . S
C1330 C1335 1.385 . S
C1331 H1312 0.947 . S
C1331 C1330 1.383 . S
C1331 C1332 1.388 . S
C1332 H1313 0.946 . S
C1332 C1331 1.388 . S
C1332 C1333 1.384 . S
C1333 C1332 1.384 . S
C1333 C1334 1.377 . S
C1334 H1314 0.953 . S
C1334 C1333 1.377 . S
C1334 C1335 1.369 . S
C1335 H1315 0.945 . S
C1335 C1330 1.385 . S
C1335 C1334 1.369 . S
C1336 C1328 1.457 . S
C1336 C1337 1.372 . S
C1336 C1341 1.364 . S
C1337 H1316 0.952 . S
C1337 C1336 1.372 . S
C1337 C1338 1.389 . S
C1338 H1317 0.949 . S
C1338 C1337 1.389 . S
C1338 C1339 1.387 . S
C1339 C1338 1.387 . S
C1339 C1340 1.372 . S
C1340 H1318 0.950 . S
C1340 C1339 1.372 . S
C1340 C1341 1.379 . S
C1341 H1319 0.948 . S
C1341 C1336 1.364 . S
C1341 C1340 1.379 . S
C1342 C1311 1.383 . S
C1342 C1329 1.479 . S
C1342 C1343 1.398 . S
C1343 C1308 1.382 . S
C1343 H1320 0.951 . S
C1343 C1342 1.398 . S
C1344 C1345 1.384 . S
C1344 H1357 0.947 . S
C1344 C1379 1.382 . S
C1345 C1344 1.384 . S
C1345 C1346 1.378 . S
C1346 C1345 1.378 . S
C1346 C1347 1.378 . S
C1346 H1358 0.952 . S
C1347 C1346 1.378 . S
C1347 H1359 0.950 . S
C1347 C1378 1.383 . S
H1348 C1367 0.947 . S
H1349 C1368 0.946 . S
H1350 C1370 0.953 . S
H1351 C1371 0.945 . S
H1352 C1373 0.952 . S
H1353 C1374 0.949 . S
H1354 C1376 0.950 . S
H1355 C1377 0.948 . S
H1356 C1379 0.951 . S
H1357 C1344 0.947 . S
H1358 C1346 0.952 . S
H1359 C1347 0.950 . S
N1360 C1363 1.382 . S
N1360 C1365 1.363 . S
N1361 C1363 1.371 . S
N1361 C1364 1.372 . S
N1362 C1364 1.361 . S
N1362 C1365 1.377 . S
C1363 N1360 1.382 . S
C1363 N1361 1.371 . S
C1363 C1366 1.480 . S
C1364 N1361 1.372 . S
C1364 N1362 1.361 . S
C1364 C1372 1.457 . S
C1365 N1360 1.363 . S
C1365 N1362 1.377 . S
C1365 C1378 1.479 . S
C1366 C1363 1.480 . S
C1366 C1367 1.383 . S
C1366 C1371 1.385 . S
C1367 H1348 0.947 . S
C1367 C1366 1.383 . S
C1367 C1368 1.388 . S
C1368 H1349 0.946 . S
C1368 C1367 1.388 . S
C1368 C1369 1.384 . S
C1369 C1368 1.384 . S
C1369 C1370 1.377 . S
C1370 H1350 0.953 . S
C1370 C1369 1.377 . S
C1370 C1371 1.369 . S
C1371 H1351 0.945 . S
C1371 C1366 1.385 . S
C1371 C1370 1.369 . S
C1372 C1364 1.457 . S
C1372 C1373 1.372 . S
C1372 C1377 1.364 . S
C1373 H1352 0.952 . S
C1373 C1372 1.372 . S
C1373 C1374 1.389 . S
C1374 H1353 0.949 . S
C1374 C1373 1.389 . S
C1374 C1375 1.387 . S
C1375 C1374 1.387 . S
C1375 C1376 1.372 . S
C1376 H1354 0.950 . S
C1376 C1375 1.372 . S
C1376 C1377 1.379 . S
C1377 H1355 0.948 . S
C1377 C1372 1.364 . S
C1377 C1376 1.379 . S
C1378 C1347 1.383 . S
C1378 C1365 1.479 . S
C1378 C1379 1.398 . S
C1379 C1344 1.382 . S
C1379 H1356 0.951 . S
C1379 C1378 1.398 . S
C1380 C1381 1.384 . S
C1380 H1393 0.947 . S
C1380 C1415 1.382 . S
C1381 C1380 1.384 . S
C1381 C1382 1.378 . S
C1382 C1381 1.378 . S
C1382 C1383 1.378 . S
C1382 H1394 0.952 . S
C1383 C1382 1.378 . S
C1383 H1395 0.950 . S
C1383 C1414 1.383 . S
H1384 C1403 0.947 . S
H1385 C1404 0.946 . S
H1386 C1406 0.953 . S
H1387 C1407 0.945 . S
H1388 C1409 0.952 . S
H1389 C1410 0.949 . S
H1390 C1412 0.950 . S
H1391 C1413 0.948 . S
H1392 C1415 0.951 . S
H1393 C1380 0.947 . S
H1394 C1382 0.952 . S
H1395 C1383 0.950 . S
N1396 C1399 1.382 . S
N1396 C1401 1.363 . S
N1397 C1399 1.371 . S
N1397 C1400 1.372 . S
N1398 C1400 1.361 . S
N1398 C1401 1.377 . S
C1399 N1396 1.382 . S
C1399 N1397 1.371 . S
C1399 C1402 1.480 . S
C1400 N1397 1.372 . S
C1400 N1398 1.361 . S
C1400 C1408 1.457 . S
C1401 N1396 1.363 . S
C1401 N1398 1.377 . S
C1401 C1414 1.479 . S
C1402 C1399 1.480 . S
C1402 C1403 1.383 . S
C1402 C1407 1.385 . S
C1403 H1384 0.947 . S
C1403 C1402 1.383 . S
C1403 C1404 1.388 . S
C1404 H1385 0.946 . S
C1404 C1403 1.388 . S
C1404 C1405 1.384 . S
C1405 C1404 1.384 . S
C1405 C1406 1.377 . S
C1406 H1386 0.953 . S
C1406 C1405 1.377 . S
C1406 C1407 1.369 . S
C1407 H1387 0.945 . S
C1407 C1402 1.385 . S
C1407 C1406 1.369 . S
C1408 C1400 1.457 . S
C1408 C1409 1.372 . S
C1408 C1413 1.364 . S
C1409 H1388 0.952 . S
C1409 C1408 1.372 . S
C1409 C1410 1.389 . S
C1410 H1389 0.949 . S
C1410 C1409 1.389 . S
C1410 C1411 1.387 . S
C1411 C1410 1.387 . S
C1411 C1412 1.372 . S
C1412 H1390 0.950 . S
C1412 C1411 1.372 . S
C1412 C1413 1.379 . S
C1413 H1391 0.948 . S
C1413 C1408 1.364 . S
C1413 C1412 1.379 . S
C1414 C1383 1.383 . S
C1414 C1401 1.479 . S
C1414 C1415 1.398 . S
C1415 C1380 1.382 . S
C1415 H1392 0.951 . S
C1415 C1414 1.398 . S
C1416 C1417 1.384 . S
C1416 H1429 0.947 . S
C1416 C1451 1.382 . S
C1417 C1416 1.384 . S
C1417 C1418 1.378 . S
C1418 C1417 1.378 . S
C1418 C1419 1.378 . S
C1418 H1430 0.952 . S
C1419 C1418 1.378 . S
C1419 H1431 0.950 . S
C1419 C1450 1.383 . S
H1420 C1439 0.947 . S
H1421 C1440 0.946 . S
H1422 C1442 0.953 . S
H1423 C1443 0.945 . S
H1424 C1445 0.952 . S
H1425 C1446 0.949 . S
H1426 C1448 0.950 . S
H1427 C1449 0.948 . S
H1428 C1451 0.951 . S
H1429 C1416 0.947 . S
H1430 C1418 0.952 . S
H1431 C1419 0.950 . S
N1432 C1435 1.382 . S
N1432 C1437 1.363 . S
N1433 C1435 1.371 . S
N1433 C1436 1.372 . S
N1434 C1436 1.361 . S
N1434 C1437 1.377 . S
C1435 N1432 1.382 . S
C1435 N1433 1.371 . S
C1435 C1438 1.480 . S
C1436 N1433 1.372 . S
C1436 N1434 1.361 . S
C1436 C1444 1.457 . S
C1437 N1432 1.363 . S
C1437 N1434 1.377 . S
C1437 C1450 1.479 . S
C1438 C1435 1.480 . S
C1438 C1439 1.383 . S
C1438 C1443 1.385 . S
C1439 H1420 0.947 . S
C1439 C1438 1.383 . S
C1439 C1440 1.388 . S
C1440 H1421 0.946 . S
C1440 C1439 1.388 . S
C1440 C1441 1.384 . S
C1441 C1440 1.384 . S
C1441 C1442 1.377 . S
C1442 H1422 0.953 . S
C1442 C1441 1.377 . S
C1442 C1443 1.369 . S
C1443 H1423 0.945 . S
C1443 C1438 1.385 . S
C1443 C1442 1.369 . S
C1444 C1436 1.457 . S
C1444 C1445 1.372 . S
C1444 C1449 1.364 . S
C1445 H1424 0.952 . S
C1445 C1444 1.372 . S
C1445 C1446 1.389 . S
C1446 H1425 0.949 . S
C1446 C1445 1.389 . S
C1446 C1447 1.387 . S
C1447 C1446 1.387 . S
C1447 C1448 1.372 . S
C1448 H1426 0.950 . S
C1448 C1447 1.372 . S
C1448 C1449 1.379 . S
C1449 H1427 0.948 . S
C1449 C1444 1.364 . S
C1449 C1448 1.379 . S
C1450 C1419 1.383 . S
C1450 C1437 1.479 . S
C1450 C1451 1.398 . S
C1451 C1416 1.382 . S
C1451 H1428 0.951 . S
C1451 C1450 1.398 . S
C1452 C1453 1.384 . S
C1452 H1465 0.947 . S
C1452 C1487 1.382 . S
C1453 C1452 1.384 . S
C1453 C1454 1.378 . S
C1454 C1453 1.378 . S
C1454 C1455 1.378 . S
C1454 H1466 0.952 . S
C1455 C1454 1.378 . S
C1455 H1467 0.950 . S
C1455 C1486 1.383 . S
H1456 C1475 0.947 . S
H1457 C1476 0.946 . S
H1458 C1478 0.953 . S
H1459 C1479 0.945 . S
H1460 C1481 0.952 . S
H1461 C1482 0.949 . S
H1462 C1484 0.950 . S
H1463 C1485 0.948 . S
H1464 C1487 0.951 . S
H1465 C1452 0.947 . S
H1466 C1454 0.952 . S
H1467 C1455 0.950 . S
N1468 C1471 1.382 . S
N1468 C1473 1.363 . S
N1469 C1471 1.371 . S
N1469 C1472 1.372 . S
N1470 C1472 1.361 . S
N1470 C1473 1.377 . S
C1471 N1468 1.382 . S
C1471 N1469 1.371 . S
C1471 C1474 1.480 . S
C1472 N1469 1.372 . S
C1472 N1470 1.361 . S
C1472 C1480 1.457 . S
C1473 N1468 1.363 . S
C1473 N1470 1.377 . S
C1473 C1486 1.479 . S
C1474 C1471 1.480 . S
C1474 C1475 1.383 . S
C1474 C1479 1.385 . S
C1475 H1456 0.947 . S
C1475 C1474 1.383 . S
C1475 C1476 1.388 . S
C1476 H1457 0.946 . S
C1476 C1475 1.388 . S
C1476 C1477 1.384 . S
C1477 C1476 1.384 . S
C1477 C1478 1.377 . S
C1478 H1458 0.953 . S
C1478 C1477 1.377 . S
C1478 C1479 1.369 . S
C1479 H1459 0.945 . S
C1479 C1474 1.385 . S
C1479 C1478 1.369 . S
C1480 C1472 1.457 . S
C1480 C1481 1.372 . S
C1480 C1485 1.364 . S
C1481 H1460 0.952 . S
C1481 C1480 1.372 . S
C1481 C1482 1.389 . S
C1482 H1461 0.949 . S
C1482 C1481 1.389 . S
C1482 C1483 1.387 . S
C1483 C1482 1.387 . S
C1483 C1484 1.372 . S
C1484 H1462 0.950 . S
C1484 C1483 1.372 . S
C1484 C1485 1.379 . S
C1485 H1463 0.948 . S
C1485 C1480 1.364 . S
C1485 C1484 1.379 . S
C1486 C1455 1.383 . S
C1486 C1473 1.479 . S
C1486 C1487 1.398 . S
C1487 C1452 1.382 . S
C1487 H1464 0.951 . S
C1487 C1486 1.398 . S
C1488 C1489 1.384 . S
C1488 H1501 0.947 . S
C1488 C1523 1.382 . S
C1489 C1488 1.384 . S
C1489 C1490 1.378 . S
C1490 C1489 1.378 . S
C1490 C1491 1.378 . S
C1490 H1502 0.952 . S
C1491 C1490 1.378 . S
C1491 H1503 0.950 . S
C1491 C1522 1.383 . S
H1492 C1511 0.947 . S
H1493 C1512 0.946 . S
H1494 C1514 0.953 . S
H1495 C1515 0.945 . S
H1496 C1517 0.952 . S
H1497 C1518 0.949 . S
H1498 C1520 0.950 . S
H1499 C1521 0.948 . S
H1500 C1523 0.951 . S
H1501 C1488 0.947 . S
H1502 C1490 0.952 . S
H1503 C1491 0.950 . S
N1504 C1507 1.382 . S
N1504 C1509 1.363 . S
N1505 C1507 1.371 . S
N1505 C1508 1.372 . S
N1506 C1508 1.361 . S
N1506 C1509 1.377 . S
C1507 N1504 1.382 . S
C1507 N1505 1.371 . S
C1507 C1510 1.480 . S
C1508 N1505 1.372 . S
C1508 N1506 1.361 . S
C1508 C1516 1.457 . S
C1509 N1504 1.363 . S
C1509 N1506 1.377 . S
C1509 C1522 1.479 . S
C1510 C1507 1.480 . S
C1510 C1511 1.383 . S
C1510 C1515 1.385 . S
C1511 H1492 0.947 . S
C1511 C1510 1.383 . S
C1511 C1512 1.388 . S
C1512 H1493 0.946 . S
C1512 C1511 1.388 . S
C1512 C1513 1.384 . S
C1513 C1512 1.384 . S
C1513 C1514 1.377 . S
C1514 H1494 0.953 . S
C1514 C1513 1.377 . S
C1514 C1515 1.369 . S
C1515 H1495 0.945 . S
C1515 C1510 1.385 . S
C1515 C1514 1.369 . S
C1516 C1508 1.457 . S
C1516 C1517 1.372 . S
C1516 C1521 1.364 . S
C1517 H1496 0.952 . S
C1517 C1516 1.372 . S
C1517 C1518 1.389 . S
C1518 H1497 0.949 . S
C1518 C1517 1.389 . S
C1518 C1519 1.387 . S
C1519 C1518 1.387 . S
C1519 C1520 1.372 . S
C1520 H1498 0.950 . S
C1520 C1519 1.372 . S
C1520 C1521 1.379 . S
C1521 H1499 0.948 . S
C1521 C1516 1.364 . S
C1521 C1520 1.379 . S
C1522 C1491 1.383 . S
C1522 C1509 1.479 . S
C1522 C1523 1.398 . S
C1523 C1488 1.382 . S
C1523 H1500 0.951 . S
C1523 C1522 1.398 . S
C1524 C1525 1.384 . S
C1524 H1537 0.947 . S
C1524 C1559 1.382 . S
C1525 C1524 1.384 . S
C1525 C1526 1.378 . S
C1526 C1525 1.378 . S
C1526 C1527 1.378 . S
C1526 H1538 0.952 . S
C1527 C1526 1.378 . S
C1527 H1539 0.950 . S
C1527 C1558 1.383 . S
H1528 C1547 0.947 . S
H1529 C1548 0.946 . S
H1530 C1550 0.953 . S
H1531 C1551 0.945 . S
H1532 C1553 0.952 . S
H1533 C1554 0.949 . S
H1534 C1556 0.950 . S
H1535 C1557 0.948 . S
H1536 C1559 0.951 . S
H1537 C1524 0.947 . S
H1538 C1526 0.952 . S
H1539 C1527 0.950 . S
N1540 C1543 1.382 . S
N1540 C1545 1.363 . S
N1541 C1543 1.371 . S
N1541 C1544 1.372 . S
N1542 C1544 1.361 . S
N1542 C1545 1.377 . S
C1543 N1540 1.382 . S
C1543 N1541 1.371 . S
C1543 C1546 1.480 . S
C1544 N1541 1.372 . S
C1544 N1542 1.361 . S
C1544 C1552 1.457 . S
C1545 N1540 1.363 . S
C1545 N1542 1.377 . S
C1545 C1558 1.479 . S
C1546 C1543 1.480 . S
C1546 C1547 1.383 . S
C1546 C1551 1.385 . S
C1547 H1528 0.947 . S
C1547 C1546 1.383 . S
C1547 C1548 1.388 . S
C1548 H1529 0.946 . S
C1548 C1547 1.388 . S
C1548 C1549 1.384 . S
C1549 C1548 1.384 . S
C1549 C1550 1.377 . S
C1550 H1530 0.953 . S
C1550 C1549 1.377 . S
C1550 C1551 1.369 . S
C1551 H1531 0.945 . S
C1551 C1546 1.385 . S
C1551 C1550 1.369 . S
C1552 C1544 1.457 . S
C1552 C1553 1.372 . S
C1552 C1557 1.364 . S
C1553 H1532 0.952 . S
C1553 C1552 1.372 . S
C1553 C1554 1.389 . S
C1554 H1533 0.949 . S
C1554 C1553 1.389 . S
C1554 C1555 1.387 . S
C1555 C1554 1.387 . S
C1555 C1556 1.372 . S
C1556 H1534 0.950 . S
C1556 C1555 1.372 . S
C1556 C1557 1.379 . S
C1557 H1535 0.948 . S
C1557 C1552 1.364 . S
C1557 C1556 1.379 . S
C1558 C1527 1.383 . S
C1558 C1545 1.479 . S
C1558 C1559 1.398 . S
C1559 C1524 1.382 . S
C1559 H1536 0.951 . S
C1559 C1558 1.398 . S
C1560 C1561 1.384 . S
C1560 H1573 0.947 . S
C1560 C1595 1.382 . S
C1561 C1560 1.384 . S
C1561 C1562 1.378 . S
C1562 C1561 1.378 . S
C1562 C1563 1.378 . S
C1562 H1574 0.952 . S
C1563 C1562 1.378 . S
C1563 H1575 0.950 . S
C1563 C1594 1.383 . S
H1564 C1583 0.947 . S
H1565 C1584 0.946 . S
H1566 C1586 0.953 . S
H1567 C1587 0.945 . S
H1568 C1589 0.952 . S
H1569 C1590 0.949 . S
H1570 C1592 0.950 . S
H1571 C1593 0.948 . S
H1572 C1595 0.951 . S
H1573 C1560 0.947 . S
H1574 C1562 0.952 . S
H1575 C1563 0.950 . S
N1576 C1579 1.382 . S
N1576 C1581 1.363 . S
N1577 C1579 1.371 . S
N1577 C1580 1.372 . S
N1578 C1580 1.361 . S
N1578 C1581 1.377 . S
C1579 N1576 1.382 . S
C1579 N1577 1.371 . S
C1579 C1582 1.480 . S
C1580 N1577 1.372 . S
C1580 N1578 1.361 . S
C1580 C1588 1.457 . S
C1581 N1576 1.363 . S
C1581 N1578 1.377 . S
C1581 C1594 1.479 . S
C1582 C1579 1.480 . S
C1582 C1583 1.383 . S
C1582 C1587 1.385 . S
C1583 H1564 0.947 . S
C1583 C1582 1.383 . S
C1583 C1584 1.388 . S
C1584 H1565 0.946 . S
C1584 C1583 1.388 . S
C1584 C1585 1.384 . S
C1585 C1584 1.384 . S
C1585 C1586 1.377 . S
C1586 H1566 0.953 . S
C1586 C1585 1.377 . S
C1586 C1587 1.369 . S
C1587 H1567 0.945 . S
C1587 C1582 1.385 . S
C1587 C1586 1.369 . S
C1588 C1580 1.457 . S
C1588 C1589 1.372 . S
C1588 C1593 1.364 . S
C1589 H1568 0.952 . S
C1589 C1588 1.372 . S
C1589 C1590 1.389 . S
C1590 H1569 0.949 . S
C1590 C1589 1.389 . S
C1590 C1591 1.387 . S
C1591 C1590 1.387 . S
C1591 C1592 1.372 . S
C1592 H1570 0.950 . S
C1592 C1591 1.372 . S
C1592 C1593 1.379 . S
C1593 H1571 0.948 . S
C1593 C1588 1.364 . S
C1593 C1592 1.379 . S
C1594 C1563 1.383 . S
C1594 C1581 1.479 . S
C1594 C1595 1.398 . S
C1595 C1560 1.382 . S
C1595 H1572 0.951 . S
C1595 C1594 1.398 . S
C1596 C1597 1.384 . S
C1596 H1609 0.947 . S
C1596 C1631 1.382 . S
C1597 C1596 1.384 . S
C1597 C1598 1.378 . S
C1598 C1597 1.378 . S
C1598 C1599 1.378 . S
C1598 H1610 0.952 . S
C1599 C1598 1.378 . S
C1599 H1611 0.950 . S
C1599 C1630 1.383 . S
H1600 C1619 0.947 . S
H1601 C1620 0.946 . S
H1602 C1622 0.953 . S
H1603 C1623 0.945 . S
H1604 C1625 0.952 . S
H1605 C1626 0.949 . S
H1606 C1628 0.950 . S
H1607 C1629 0.948 . S
H1608 C1631 0.951 . S
H1609 C1596 0.947 . S
H1610 C1598 0.952 . S
H1611 C1599 0.950 . S
N1612 C1615 1.382 . S
N1612 C1617 1.363 . S
N1613 C1615 1.371 . S
N1613 C1616 1.372 . S
N1614 C1616 1.361 . S
N1614 C1617 1.377 . S
C1615 N1612 1.382 . S
C1615 N1613 1.371 . S
C1615 C1618 1.480 . S
C1616 N1613 1.372 . S
C1616 N1614 1.361 . S
C1616 C1624 1.457 . S
C1617 N1612 1.363 . S
C1617 N1614 1.377 . S
C1617 C1630 1.479 . S
C1618 C1615 1.480 . S
C1618 C1619 1.383 . S
C1618 C1623 1.385 . S
C1619 H1600 0.947 . S
C1619 C1618 1.383 . S
C1619 C1620 1.388 . S
C1620 H1601 0.946 . S
C1620 C1619 1.388 . S
C1620 C1621 1.384 . S
C1621 C1620 1.384 . S
C1621 C1622 1.377 . S
C1622 H1602 0.953 . S
C1622 C1621 1.377 . S
C1622 C1623 1.369 . S
C1623 H1603 0.945 . S
C1623 C1618 1.385 . S
C1623 C1622 1.369 . S
C1624 C1616 1.457 . S
C1624 C1625 1.372 . S
C1624 C1629 1.364 . S
C1625 H1604 0.952 . S
C1625 C1624 1.372 . S
C1625 C1626 1.389 . S
C1626 H1605 0.949 . S
C1626 C1625 1.389 . S
C1626 C1627 1.387 . S
C1627 C1626 1.387 . S
C1627 C1628 1.372 . S
C1628 H1606 0.950 . S
C1628 C1627 1.372 . S
C1628 C1629 1.379 . S
C1629 H1607 0.948 . S
C1629 C1624 1.364 . S
C1629 C1628 1.379 . S
C1630 C1599 1.383 . S
C1630 C1617 1.479 . S
C1630 C1631 1.398 . S
C1631 C1596 1.382 . S
C1631 H1608 0.951 . S
C1631 C1630 1.398 . S
C1632 C1633 1.384 . S
C1632 H1645 0.947 . S
C1632 C1667 1.382 . S
C1633 C1632 1.384 . S
C1633 C1634 1.378 . S
C1634 C1633 1.378 . S
C1634 C1635 1.378 . S
C1634 H1646 0.952 . S
C1635 C1634 1.378 . S
C1635 H1647 0.950 . S
C1635 C1666 1.383 . S
H1636 C1655 0.947 . S
H1637 C1656 0.946 . S
H1638 C1658 0.953 . S
H1639 C1659 0.945 . S
H1640 C1661 0.952 . S
H1641 C1662 0.949 . S
H1642 C1664 0.950 . S
H1643 C1665 0.948 . S
H1644 C1667 0.951 . S
H1645 C1632 0.947 . S
H1646 C1634 0.952 . S
H1647 C1635 0.950 . S
N1648 C1651 1.382 . S
N1648 C1653 1.363 . S
N1649 C1651 1.371 . S
N1649 C1652 1.372 . S
N1650 C1652 1.361 . S
N1650 C1653 1.377 . S
C1651 N1648 1.382 . S
C1651 N1649 1.371 . S
C1651 C1654 1.480 . S
C1652 N1649 1.372 . S
C1652 N1650 1.361 . S
C1652 C1660 1.457 . S
C1653 N1648 1.363 . S
C1653 N1650 1.377 . S
C1653 C1666 1.479 . S
C1654 C1651 1.480 . S
C1654 C1655 1.383 . S
C1654 C1659 1.385 . S
C1655 H1636 0.947 . S
C1655 C1654 1.383 . S
C1655 C1656 1.388 . S
C1656 H1637 0.946 . S
C1656 C1655 1.388 . S
C1656 C1657 1.384 . S
C1657 C1656 1.384 . S
C1657 C1658 1.377 . S
C1658 H1638 0.953 . S
C1658 C1657 1.377 . S
C1658 C1659 1.369 . S
C1659 H1639 0.945 . S
C1659 C1654 1.385 . S
C1659 C1658 1.369 . S
C1660 C1652 1.457 . S
C1660 C1661 1.372 . S
C1660 C1665 1.364 . S
C1661 H1640 0.952 . S
C1661 C1660 1.372 . S
C1661 C1662 1.389 . S
C1662 H1641 0.949 . S
C1662 C1661 1.389 . S
C1662 C1663 1.387 . S
C1663 C1662 1.387 . S
C1663 C1664 1.372 . S
C1664 H1642 0.950 . S
C1664 C1663 1.372 . S
C1664 C1665 1.379 . S
C1665 H1643 0.948 . S
C1665 C1660 1.364 . S
C1665 C1664 1.379 . S
C1666 C1635 1.383 . S
C1666 C1653 1.479 . S
C1666 C1667 1.398 . S
C1667 C1632 1.382 . S
C1667 H1644 0.951 . S
C1667 C1666 1.398 . S
C1668 C1669 1.384 . S
C1668 H1681 0.947 . S
C1668 C1703 1.382 . S
C1669 C1668 1.384 . S
C1669 C1670 1.378 . S
C1670 C1669 1.378 . S
C1670 C1671 1.378 . S
C1670 H1682 0.952 . S
C1671 C1670 1.378 . S
C1671 H1683 0.950 . S
C1671 C1702 1.383 . S
H1672 C1691 0.947 . S
H1673 C1692 0.946 . S
H1674 C1694 0.953 . S
H1675 C1695 0.945 . S
H1676 C1697 0.952 . S
H1677 C1698 0.949 . S
H1678 C1700 0.950 . S
H1679 C1701 0.948 . S
H1680 C1703 0.951 . S
H1681 C1668 0.947 . S
H1682 C1670 0.952 . S
H1683 C1671 0.950 . S
N1684 C1687 1.382 . S
N1684 C1689 1.363 . S
N1685 C1687 1.371 . S
N1685 C1688 1.372 . S
N1686 C1688 1.361 . S
N1686 C1689 1.377 . S
C1687 N1684 1.382 . S
C1687 N1685 1.371 . S
C1687 C1690 1.480 . S
C1688 N1685 1.372 . S
C1688 N1686 1.361 . S
C1688 C1696 1.457 . S
C1689 N1684 1.363 . S
C1689 N1686 1.377 . S
C1689 C1702 1.479 . S
C1690 C1687 1.480 . S
C1690 C1691 1.383 . S
C1690 C1695 1.385 . S
C1691 H1672 0.947 . S
C1691 C1690 1.383 . S
C1691 C1692 1.388 . S
C1692 H1673 0.946 . S
C1692 C1691 1.388 . S
C1692 C1693 1.384 . S
C1693 C1692 1.384 . S
C1693 C1694 1.377 . S
C1694 H1674 0.953 . S
C1694 C1693 1.377 . S
C1694 C1695 1.369 . S
C1695 H1675 0.945 . S
C1695 C1690 1.385 . S
C1695 C1694 1.369 . S
C1696 C1688 1.457 . S
C1696 C1697 1.372 . S
C1696 C1701 1.364 . S
C1697 H1676 0.952 . S
C1697 C1696 1.372 . S
C1697 C1698 1.389 . S
C1698 H1677 0.949 . S
C1698 C1697 1.389 . S
C1698 C1699 1.387 . S
C1699 C1698 1.387 . S
C1699 C1700 1.372 . S
C1700 H1678 0.950 . S
C1700 C1699 1.372 . S
C1700 C1701 1.379 . S
C1701 H1679 0.948 . S
C1701 C1696 1.364 . S
C1701 C1700 1.379 . S
C1702 C1671 1.383 . S
C1702 C1689 1.479 . S
C1702 C1703 1.398 . S
C1703 C1668 1.382 . S
C1703 H1680 0.951 . S
C1703 C1702 1.398 . S
C1704 C1705 1.384 . S
C1704 H1717 0.947 . S
C1704 C1739 1.382 . S
C1705 C1704 1.384 . S
C1705 C1706 1.378 . S
C1706 C1705 1.378 . S
C1706 C1707 1.378 . S
C1706 H1718 0.952 . S
C1707 C1706 1.378 . S
C1707 H1719 0.950 . S
C1707 C1738 1.383 . S
H1708 C1727 0.947 . S
H1709 C1728 0.946 . S
H1710 C1730 0.953 . S
H1711 C1731 0.945 . S
H1712 C1733 0.952 . S
H1713 C1734 0.949 . S
H1714 C1736 0.950 . S
H1715 C1737 0.948 . S
H1716 C1739 0.951 . S
H1717 C1704 0.947 . S
H1718 C1706 0.952 . S
H1719 C1707 0.950 . S
N1720 C1723 1.382 . S
N1720 C1725 1.363 . S
N1721 C1723 1.371 . S
N1721 C1724 1.372 . S
N1722 C1724 1.361 . S
N1722 C1725 1.377 . S
C1723 N1720 1.382 . S
C1723 N1721 1.371 . S
C1723 C1726 1.480 . S
C1724 N1721 1.372 . S
C1724 N1722 1.361 . S
C1724 C1732 1.457 . S
C1725 N1720 1.363 . S
C1725 N1722 1.377 . S
C1725 C1738 1.479 . S
C1726 C1723 1.480 . S
C1726 C1727 1.383 . S
C1726 C1731 1.385 . S
C1727 H1708 0.947 . S
C1727 C1726 1.383 . S
C1727 C1728 1.388 . S
C1728 H1709 0.946 . S
C1728 C1727 1.388 . S
C1728 C1729 1.384 . S
C1729 C1728 1.384 . S
C1729 C1730 1.377 . S
C1730 H1710 0.953 . S
C1730 C1729 1.377 . S
C1730 C1731 1.369 . S
C1731 H1711 0.945 . S
C1731 C1726 1.385 . S
C1731 C1730 1.369 . S
C1732 C1724 1.457 . S
C1732 C1733 1.372 . S
C1732 C1737 1.364 . S
C1733 H1712 0.952 . S
C1733 C1732 1.372 . S
C1733 C1734 1.389 . S
C1734 H1713 0.949 . S
C1734 C1733 1.389 . S
C1734 C1735 1.387 . S
C1735 C1734 1.387 . S
C1735 C1736 1.372 . S
C1736 H1714 0.950 . S
C1736 C1735 1.372 . S
C1736 C1737 1.379 . S
C1737 H1715 0.948 . S
C1737 C1732 1.364 . S
C1737 C1736 1.379 . S
C1738 C1707 1.383 . S
C1738 C1725 1.479 . S
C1738 C1739 1.398 . S
C1739 C1704 1.382 . S
C1739 H1716 0.951 . S
C1739 C1738 1.398 . S
C1740 C1741 1.384 . S
C1740 H1753 0.947 . S
C1740 C1775 1.382 . S
C1741 C1740 1.384 . S
C1741 C1742 1.378 . S
C1742 C1741 1.378 . S
C1742 C1743 1.378 . S
C1742 H1754 0.952 . S
C1743 C1742 1.378 . S
C1743 H1755 0.950 . S
C1743 C1774 1.383 . S
H1744 C1763 0.947 . S
H1745 C1764 0.946 . S
H1746 C1766 0.953 . S
H1747 C1767 0.945 . S
H1748 C1769 0.952 . S
H1749 C1770 0.949 . S
H1750 C1772 0.950 . S
H1751 C1773 0.948 . S
H1752 C1775 0.951 . S
H1753 C1740 0.947 . S
H1754 C1742 0.952 . S
H1755 C1743 0.950 . S
N1756 C1759 1.382 . S
N1756 C1761 1.363 . S
N1757 C1759 1.371 . S
N1757 C1760 1.372 . S
N1758 C1760 1.361 . S
N1758 C1761 1.377 . S
C1759 N1756 1.382 . S
C1759 N1757 1.371 . S
C1759 C1762 1.480 . S
C1760 N1757 1.372 . S
C1760 N1758 1.361 . S
C1760 C1768 1.457 . S
C1761 N1756 1.363 . S
C1761 N1758 1.377 . S
C1761 C1774 1.479 . S
C1762 C1759 1.480 . S
C1762 C1763 1.383 . S
C1762 C1767 1.385 . S
C1763 H1744 0.947 . S
C1763 C1762 1.383 . S
C1763 C1764 1.388 . S
C1764 H1745 0.946 . S
C1764 C1763 1.388 . S
C1764 C1765 1.384 . S
C1765 C1764 1.384 . S
C1765 C1766 1.377 . S
C1766 H1746 0.953 . S
C1766 C1765 1.377 . S
C1766 C1767 1.369 . S
C1767 H1747 0.945 . S
C1767 C1762 1.385 . S
C1767 C1766 1.369 . S
C1768 C1760 1.457 . S
C1768 C1769 1.372 . S
C1768 C1773 1.364 . S
C1769 H1748 0.952 . S
C1769 C1768 1.372 . S
C1769 C1770 1.389 . S
C1770 H1749 0.949 . S
C1770 C1769 1.389 . S
C1770 C1771 1.387 . S
C1771 C1770 1.387 . S
C1771 C1772 1.372 . S
C1772 H1750 0.950 . S
C1772 C1771 1.372 . S
C1772 C1773 1.379 . S
C1773 H1751 0.948 . S
C1773 C1768 1.364 . S
C1773 C1772 1.379 . S
C1774 C1743 1.383 . S
C1774 C1761 1.479 . S
C1774 C1775 1.398 . S
C1775 C1740 1.382 . S
C1775 H1752 0.951 . S
C1775 C1774 1.398 . S
C1776 C1777 1.384 . S
C1776 H1789 0.947 . S
C1776 C1811 1.382 . S
C1777 C1776 1.384 . S
C1777 C1778 1.378 . S
C1778 C1777 1.378 . S
C1778 C1779 1.378 . S
C1778 H1790 0.952 . S
C1779 C1778 1.378 . S
C1779 H1791 0.950 . S
C1779 C1810 1.383 . S
H1780 C1799 0.947 . S
H1781 C1800 0.946 . S
H1782 C1802 0.953 . S
H1783 C1803 0.945 . S
H1784 C1805 0.952 . S
H1785 C1806 0.949 . S
H1786 C1808 0.950 . S
H1787 C1809 0.948 . S
H1788 C1811 0.951 . S
H1789 C1776 0.947 . S
H1790 C1778 0.952 . S
H1791 C1779 0.950 . S
N1792 C1795 1.382 . S
N1792 C1797 1.363 . S
N1793 C1795 1.371 . S
N1793 C1796 1.372 . S
N1794 C1796 1.361 . S
N1794 C1797 1.377 . S
C1795 N1792 1.382 . S
C1795 N1793 1.371 . S
C1795 C1798 1.480 . S
C1796 N1793 1.372 . S
C1796 N1794 1.361 . S
C1796 C1804 1.457 . S
C1797 N1792 1.363 . S
C1797 N1794 1.377 . S
C1797 C1810 1.479 . S
C1798 C1795 1.480 . S
C1798 C1799 1.383 . S
C1798 C1803 1.385 . S
C1799 H1780 0.947 . S
C1799 C1798 1.383 . S
C1799 C1800 1.388 . S
C1800 H1781 0.946 . S
C1800 C1799 1.388 . S
C1800 C1801 1.384 . S
C1801 C1800 1.384 . S
C1801 C1802 1.377 . S
C1802 H1782 0.953 . S
C1802 C1801 1.377 . S
C1802 C1803 1.369 . S
C1803 H1783 0.945 . S
C1803 C1798 1.385 . S
C1803 C1802 1.369 . S
C1804 C1796 1.457 . S
C1804 C1805 1.372 . S
C1804 C1809 1.364 . S
C1805 H1784 0.952 . S
C1805 C1804 1.372 . S
C1805 C1806 1.389 . S
C1806 H1785 0.949 . S
C1806 C1805 1.389 . S
C1806 C1807 1.387 . S
C1807 C1806 1.387 . S
C1807 C1808 1.372 . S
C1808 H1786 0.950 . S
C1808 C1807 1.372 . S
C1808 C1809 1.379 . S
C1809 H1787 0.948 . S
C1809 C1804 1.364 . S
C1809 C1808 1.379 . S
C1810 C1779 1.383 . S
C1810 C1797 1.479 . S
C1810 C1811 1.398 . S
C1811 C1776 1.382 . S
C1811 H1788 0.951 . S
C1811 C1810 1.398 . S
C1812 C1813 1.384 . S
C1812 H1825 0.947 . S
C1812 C1847 1.382 . S
C1813 C1812 1.384 . S
C1813 C1814 1.378 . S
C1814 C1813 1.378 . S
C1814 C1815 1.378 . S
C1814 H1826 0.952 . S
C1815 C1814 1.378 . S
C1815 H1827 0.950 . S
C1815 C1846 1.383 . S
H1816 C1835 0.947 . S
H1817 C1836 0.946 . S
H1818 C1838 0.953 . S
H1819 C1839 0.945 . S
H1820 C1841 0.952 . S
H1821 C1842 0.949 . S
H1822 C1844 0.950 . S
H1823 C1845 0.948 . S
H1824 C1847 0.951 . S
H1825 C1812 0.947 . S
H1826 C1814 0.952 . S
H1827 C1815 0.950 . S
N1828 C1831 1.382 . S
N1828 C1833 1.363 . S
N1829 C1831 1.371 . S
N1829 C1832 1.372 . S
N1830 C1832 1.361 . S
N1830 C1833 1.377 . S
C1831 N1828 1.382 . S
C1831 N1829 1.371 . S
C1831 C1834 1.480 . S
C1832 N1829 1.372 . S
C1832 N1830 1.361 . S
C1832 C1840 1.457 . S
C1833 N1828 1.363 . S
C1833 N1830 1.377 . S
C1833 C1846 1.479 . S
C1834 C1831 1.480 . S
C1834 C1835 1.383 . S
C1834 C1839 1.385 . S
C1835 H1816 0.947 . S
C1835 C1834 1.383 . S
C1835 C1836 1.388 . S
C1836 H1817 0.946 . S
C1836 C1835 1.388 . S
C1836 C1837 1.384 . S
C1837 C1836 1.384 . S
C1837 C1838 1.377 . S
C1838 H1818 0.953 . S
C1838 C1837 1.377 . S
C1838 C1839 1.369 . S
C1839 H1819 0.945 . S
C1839 C1834 1.385 . S
C1839 C1838 1.369 . S
C1840 C1832 1.457 . S
C1840 C1841 1.372 . S
C1840 C1845 1.364 . S
C1841 H1820 0.952 . S
C1841 C1840 1.372 . S
C1841 C1842 1.389 . S
C1842 H1821 0.949 . S
C1842 C1841 1.389 . S
C1842 C1843 1.387 . S
C1843 C1842 1.387 . S
C1843 C1844 1.372 . S
C1844 H1822 0.950 . S
C1844 C1843 1.372 . S
C1844 C1845 1.379 . S
C1845 H1823 0.948 . S
C1845 C1840 1.364 . S
C1845 C1844 1.379 . S
C1846 C1815 1.383 . S
C1846 C1833 1.479 . S
C1846 C1847 1.398 . S
C1847 C1812 1.382 . S
C1847 H1824 0.951 . S
C1847 C1846 1.398 . S
C1848 C1849 1.384 . S
C1848 H1861 0.947 . S
C1848 C1883 1.382 . S
C1849 C1848 1.384 . S
C1849 C1850 1.378 . S
C1850 C1849 1.378 . S
C1850 C1851 1.378 . S
C1850 H1862 0.952 . S
C1851 C1850 1.378 . S
C1851 H1863 0.950 . S
C1851 C1882 1.383 . S
H1852 C1871 0.947 . S
H1853 C1872 0.946 . S
H1854 C1874 0.953 . S
H1855 C1875 0.945 . S
H1856 C1877 0.952 . S
H1857 C1878 0.949 . S
H1858 C1880 0.950 . S
H1859 C1881 0.948 . S
H1860 C1883 0.951 . S
H1861 C1848 0.947 . S
H1862 C1850 0.952 . S
H1863 C1851 0.950 . S
N1864 C1867 1.382 . S
N1864 C1869 1.363 . S
N1865 C1867 1.371 . S
N1865 C1868 1.372 . S
N1866 C1868 1.361 . S
N1866 C1869 1.377 . S
C1867 N1864 1.382 . S
C1867 N1865 1.371 . S
C1867 C1870 1.480 . S
C1868 N1865 1.372 . S
C1868 N1866 1.361 . S
C1868 C1876 1.457 . S
C1869 N1864 1.363 . S
C1869 N1866 1.377 . S
C1869 C1882 1.479 . S
C1870 C1867 1.480 . S
C1870 C1871 1.383 . S
C1870 C1875 1.385 . S
C1871 H1852 0.947 . S
C1871 C1870 1.383 . S
C1871 C1872 1.388 . S
C1872 H1853 0.946 . S
C1872 C1871 1.388 . S
C1872 C1873 1.384 . S
C1873 C1872 1.384 . S
C1873 C1874 1.377 . S
C1874 H1854 0.953 . S
C1874 C1873 1.377 . S
C1874 C1875 1.369 . S
C1875 H1855 0.945 . S
C1875 C1870 1.385 . S
C1875 C1874 1.369 . S
C1876 C1868 1.457 . S
C1876 C1877 1.372 . S
C1876 C1881 1.364 . S
C1877 H1856 0.952 . S
C1877 C1876 1.372 . S
C1877 C1878 1.389 . S
C1878 H1857 0.949 . S
C1878 C1877 1.389 . S
C1878 C1879 1.387 . S
C1879 C1878 1.387 . S
C1879 C1880 1.372 . S
C1880 H1858 0.950 . S
C1880 C1879 1.372 . S
C1880 C1881 1.379 . S
C1881 H1859 0.948 . S
C1881 C1876 1.364 . S
C1881 C1880 1.379 . S
C1882 C1851 1.383 . S
C1882 C1869 1.479 . S
C1882 C1883 1.398 . S
C1883 C1848 1.382 . S
C1883 H1860 0.951 . S
C1883 C1882 1.398 . S
C1884 C1885 1.384 . S
C1884 H1897 0.947 . S
C1884 C1919 1.382 . S
C1885 C1884 1.384 . S
C1885 C1886 1.378 . S
C1886 C1885 1.378 . S
C1886 C1887 1.378 . S
C1886 H1898 0.952 . S
C1887 C1886 1.378 . S
C1887 H1899 0.950 . S
C1887 C1918 1.383 . S
H1888 C1907 0.947 . S
H1889 C1908 0.946 . S
H1890 C1910 0.953 . S
H1891 C1911 0.945 . S
H1892 C1913 0.952 . S
H1893 C1914 0.949 . S
H1894 C1916 0.950 . S
H1895 C1917 0.948 . S
H1896 C1919 0.951 . S
H1897 C1884 0.947 . S
H1898 C1886 0.952 . S
H1899 C1887 0.950 . S
N1900 C1903 1.382 . S
N1900 C1905 1.363 . S
N1901 C1903 1.371 . S
N1901 C1904 1.372 . S
N1902 C1904 1.361 . S
N1902 C1905 1.377 . S
C1903 N1900 1.382 . S
C1903 N1901 1.371 . S
C1903 C1906 1.480 . S
C1904 N1901 1.372 . S
C1904 N1902 1.361 . S
C1904 C1912 1.457 . S
C1905 N1900 1.363 . S
C1905 N1902 1.377 . S
C1905 C1918 1.479 . S
C1906 C1903 1.480 . S
C1906 C1907 1.383 . S
C1906 C1911 1.385 . S
C1907 H1888 0.947 . S
C1907 C1906 1.383 . S
C1907 C1908 1.388 . S
C1908 H1889 0.946 . S
C1908 C1907 1.388 . S
C1908 C1909 1.384 . S
C1909 C1908 1.384 . S
C1909 C1910 1.377 . S
C1910 H1890 0.953 . S
C1910 C1909 1.377 . S
C1910 C1911 1.369 . S
C1911 H1891 0.945 . S
C1911 C1906 1.385 . S
C1911 C1910 1.369 . S
C1912 C1904 1.457 . S
C1912 C1913 1.372 . S
C1912 C1917 1.364 . S
C1913 H1892 0.952 . S
C1913 C1912 1.372 . S
C1913 C1914 1.389 . S
C1914 H1893 0.949 . S
C1914 C1913 1.389 . S
C1914 C1915 1.387 . S
C1915 C1914 1.387 . S
C1915 C1916 1.372 . S
C1916 H1894 0.950 . S
C1916 C1915 1.372 . S
C1916 C1917 1.379 . S
C1917 H1895 0.948 . S
C1917 C1912 1.364 . S
C1917 C1916 1.379 . S
C1918 C1887 1.383 . S
C1918 C1905 1.479 . S
C1918 C1919 1.398 . S
C1919 C1884 1.382 . S
C1919 H1896 0.951 . S
C1919 C1918 1.398 . S
C1920 C1921 1.384 . S
C1920 H1933 0.947 . S
C1920 C1955 1.382 . S
C1921 C1920 1.384 . S
C1921 C1922 1.378 . S
C1922 C1921 1.378 . S
C1922 C1923 1.378 . S
C1922 H1934 0.952 . S
C1923 C1922 1.378 . S
C1923 H1935 0.950 . S
C1923 C1954 1.383 . S
H1924 C1943 0.947 . S
H1925 C1944 0.946 . S
H1926 C1946 0.953 . S
H1927 C1947 0.945 . S
H1928 C1949 0.952 . S
H1929 C1950 0.949 . S
H1930 C1952 0.950 . S
H1931 C1953 0.948 . S
H1932 C1955 0.951 . S
H1933 C1920 0.947 . S
H1934 C1922 0.952 . S
H1935 C1923 0.950 . S
N1936 C1939 1.382 . S
N1936 C1941 1.363 . S
N1937 C1939 1.371 . S
N1937 C1940 1.372 . S
N1938 C1940 1.361 . S
N1938 C1941 1.377 . S
C1939 N1936 1.382 . S
C1939 N1937 1.371 . S
C1939 C1942 1.480 . S
C1940 N1937 1.372 . S
C1940 N1938 1.361 . S
C1940 C1948 1.457 . S
C1941 N1936 1.363 . S
C1941 N1938 1.377 . S
C1941 C1954 1.479 . S
C1942 C1939 1.480 . S
C1942 C1943 1.383 . S
C1942 C1947 1.385 . S
C1943 H1924 0.947 . S
C1943 C1942 1.383 . S
C1943 C1944 1.388 . S
C1944 H1925 0.946 . S
C1944 C1943 1.388 . S
C1944 C1945 1.384 . S
C1945 C1944 1.384 . S
C1945 C1946 1.377 . S
C1946 H1926 0.953 . S
C1946 C1945 1.377 . S
C1946 C1947 1.369 . S
C1947 H1927 0.945 . S
C1947 C1942 1.385 . S
C1947 C1946 1.369 . S
C1948 C1940 1.457 . S
C1948 C1949 1.372 . S
C1948 C1953 1.364 . S
C1949 H1928 0.952 . S
C1949 C1948 1.372 . S
C1949 C1950 1.389 . S
C1950 H1929 0.949 . S
C1950 C1949 1.389 . S
C1950 C1951 1.387 . S
C1951 C1950 1.387 . S
C1951 C1952 1.372 . S
C1952 H1930 0.950 . S
C1952 C1951 1.372 . S
C1952 C1953 1.379 . S
C1953 H1931 0.948 . S
C1953 C1948 1.364 . S
C1953 C1952 1.379 . S
C1954 C1923 1.383 . S
C1954 C1941 1.479 . S
C1954 C1955 1.398 . S
C1955 C1920 1.382 . S
C1955 H1932 0.951 . S
C1955 C1954 1.398 . S
C1956 C1957 1.384 . S
C1956 H1969 0.947 . S
C1956 C1991 1.382 . S
C1957 C1956 1.384 . S
C1957 C1958 1.378 . S
C1958 C1957 1.378 . S
C1958 C1959 1.378 . S
C1958 H1970 0.952 . S
C1959 C1958 1.378 . S
C1959 H1971 0.950 . S
C1959 C1990 1.383 . S
H1960 C1979 0.947 . S
H1961 C1980 0.946 . S
H1962 C1982 0.953 . S
H1963 C1983 0.945 . S
H1964 C1985 0.952 . S
H1965 C1986 0.949 . S
H1966 C1988 0.950 . S
H1967 C1989 0.948 . S
H1968 C1991 0.951 . S
H1969 C1956 0.947 . S
H1970 C1958 0.952 . S
H1971 C1959 0.950 . S
N1972 C1975 1.382 . S
N1972 C1977 1.363 . S
N1973 C1975 1.371 . S
N1973 C1976 1.372 . S
N1974 C1976 1.361 . S
N1974 C1977 1.377 . S
C1975 N1972 1.382 . S
C1975 N1973 1.371 . S
C1975 C1978 1.480 . S
C1976 N1973 1.372 . S
C1976 N1974 1.361 . S
C1976 C1984 1.457 . S
C1977 N1972 1.363 . S
C1977 N1974 1.377 . S
C1977 C1990 1.479 . S
C1978 C1975 1.480 . S
C1978 C1979 1.383 . S
C1978 C1983 1.385 . S
C1979 H1960 0.947 . S
C1979 C1978 1.383 . S
C1979 C1980 1.388 . S
C1980 H1961 0.946 . S
C1980 C1979 1.388 . S
C1980 C1981 1.384 . S
C1981 C1980 1.384 . S
C1981 C1982 1.377 . S
C1982 H1962 0.953 . S
C1982 C1981 1.377 . S
C1982 C1983 1.369 . S
C1983 H1963 0.945 . S
C1983 C1978 1.385 . S
C1983 C1982 1.369 . S
C1984 C1976 1.457 . S
C1984 C1985 1.372 . S
C1984 C1989 1.364 . S
C1985 H1964 0.952 . S
C1985 C1984 1.372 . S
C1985 C1986 1.389 . S
C1986 H1965 0.949 . S
C1986 C1985 1.389 . S
C1986 C1987 1.387 . S
C1987 C1986 1.387 . S
C1987 C1988 1.372 . S
C1988 H1966 0.950 . S
C1988 C1987 1.372 . S
C1988 C1989 1.379 . S
C1989 H1967 0.948 . S
C1989 C1984 1.364 . S
C1989 C1988 1.379 . S
C1990 C1959 1.383 . S
C1990 C1977 1.479 . S
C1990 C1991 1.398 . S
C1991 C1956 1.382 . S
C1991 H1968 0.951 . S
C1991 C1990 1.398 . S
C1992 C1993 1.384 . S
C1992 H2005 0.947 . S
C1992 C2027 1.382 . S
C1993 C1992 1.384 . S
C1993 C1994 1.378 . S
C1994 C1993 1.378 . S
C1994 C1995 1.378 . S
C1994 H2006 0.952 . S
C1995 C1994 1.378 . S
C1995 H2007 0.950 . S
C1995 C2026 1.383 . S
H1996 C2015 0.947 . S
H1997 C2016 0.946 . S
H1998 C2018 0.953 . S
H1999 C2019 0.945 . S
H2000 C2021 0.952 . S
H2001 C2022 0.949 . S
H2002 C2024 0.950 . S
H2003 C2025 0.948 . S
H2004 C2027 0.951 . S
H2005 C1992 0.947 . S
H2006 C1994 0.952 . S
H2007 C1995 0.950 . S
N2008 C2011 1.382 . S
N2008 C2013 1.363 . S
N2009 C2011 1.371 . S
N2009 C2012 1.372 . S
N2010 C2012 1.361 . S
N2010 C2013 1.377 . S
C2011 N2008 1.382 . S
C2011 N2009 1.371 . S
C2011 C2014 1.480 . S
C2012 N2009 1.372 . S
C2012 N2010 1.361 . S
C2012 C2020 1.457 . S
C2013 N2008 1.363 . S
C2013 N2010 1.377 . S
C2013 C2026 1.479 . S
C2014 C2011 1.480 . S
C2014 C2015 1.383 . S
C2014 C2019 1.385 . S
C2015 H1996 0.947 . S
C2015 C2014 1.383 . S
C2015 C2016 1.388 . S
C2016 H1997 0.946 . S
C2016 C2015 1.388 . S
C2016 C2017 1.384 . S
C2017 C2016 1.384 . S
C2017 C2018 1.377 . S
C2018 H1998 0.953 . S
C2018 C2017 1.377 . S
C2018 C2019 1.369 . S
C2019 H1999 0.945 . S
C2019 C2014 1.385 . S
C2019 C2018 1.369 . S
C2020 C2012 1.457 . S
C2020 C2021 1.372 . S
C2020 C2025 1.364 . S
C2021 H2000 0.952 . S
C2021 C2020 1.372 . S
C2021 C2022 1.389 . S
C2022 H2001 0.949 . S
C2022 C2021 1.389 . S
C2022 C2023 1.387 . S
C2023 C2022 1.387 . S
C2023 C2024 1.372 . S
C2024 H2002 0.950 . S
C2024 C2023 1.372 . S
C2024 C2025 1.379 . S
C2025 H2003 0.948 . S
C2025 C2020 1.364 . S
C2025 C2024 1.379 . S
C2026 C1995 1.383 . S
C2026 C2013 1.479 . S
C2026 C2027 1.398 . S
C2027 C1992 1.382 . S
C2027 H2004 0.951 . S
C2027 C2026 1.398 . S
C2028 C2029 1.384 . S
C2028 H2041 0.947 . S
C2028 C2063 1.382 . S
C2029 C2028 1.384 . S
C2029 C2030 1.378 . S
C2030 C2029 1.378 . S
C2030 C2031 1.378 . S
C2030 H2042 0.952 . S
C2031 C2030 1.378 . S
C2031 H2043 0.950 . S
C2031 C2062 1.383 . S
H2032 C2051 0.947 . S
H2033 C2052 0.946 . S
H2034 C2054 0.953 . S
H2035 C2055 0.945 . S
H2036 C2057 0.952 . S
H2037 C2058 0.949 . S
H2038 C2060 0.950 . S
H2039 C2061 0.948 . S
H2040 C2063 0.951 . S
H2041 C2028 0.947 . S
H2042 C2030 0.952 . S
H2043 C2031 0.950 . S
N2044 C2047 1.382 . S
N2044 C2049 1.363 . S
N2045 C2047 1.371 . S
N2045 C2048 1.372 . S
N2046 C2048 1.361 . S
N2046 C2049 1.377 . S
C2047 N2044 1.382 . S
C2047 N2045 1.371 . S
C2047 C2050 1.480 . S
C2048 N2045 1.372 . S
C2048 N2046 1.361 . S
C2048 C2056 1.457 . S
C2049 N2044 1.363 . S
C2049 N2046 1.377 . S
C2049 C2062 1.479 . S
C2050 C2047 1.480 . S
C2050 C2051 1.383 . S
C2050 C2055 1.385 . S
C2051 H2032 0.947 . S
C2051 C2050 1.383 . S
C2051 C2052 1.388 . S
C2052 H2033 0.946 . S
C2052 C2051 1.388 . S
C2052 C2053 1.384 . S
C2053 C2052 1.384 . S
C2053 C2054 1.377 . S
C2054 H2034 0.953 . S
C2054 C2053 1.377 . S
C2054 C2055 1.369 . S
C2055 H2035 0.945 . S
C2055 C2050 1.385 . S
C2055 C2054 1.369 . S
C2056 C2048 1.457 . S
C2056 C2057 1.372 . S
C2056 C2061 1.364 . S
C2057 H2036 0.952 . S
C2057 C2056 1.372 . S
C2057 C2058 1.389 . S
C2058 H2037 0.949 . S
C2058 C2057 1.389 . S
C2058 C2059 1.387 . S
C2059 C2058 1.387 . S
C2059 C2060 1.372 . S
C2060 H2038 0.950 . S
C2060 C2059 1.372 . S
C2060 C2061 1.379 . S
C2061 H2039 0.948 . S
C2061 C2056 1.364 . S
C2061 C2060 1.379 . S
C2062 C2031 1.383 . S
C2062 C2049 1.479 . S
C2062 C2063 1.398 . S
C2063 C2028 1.382 . S
C2063 H2040 0.951 . S
C2063 C2062 1.398 . S
C2064 C2065 1.384 . S
C2064 H2077 0.947 . S
C2064 C2099 1.382 . S
C2065 C2064 1.384 . S
C2065 C2066 1.378 . S
C2066 C2065 1.378 . S
C2066 C2067 1.378 . S
C2066 H2078 0.952 . S
C2067 C2066 1.378 . S
C2067 H2079 0.950 . S
C2067 C2098 1.383 . S
H2068 C2087 0.947 . S
H2069 C2088 0.946 . S
H2070 C2090 0.953 . S
H2071 C2091 0.945 . S
H2072 C2093 0.952 . S
H2073 C2094 0.949 . S
H2074 C2096 0.950 . S
H2075 C2097 0.948 . S
H2076 C2099 0.951 . S
H2077 C2064 0.947 . S
H2078 C2066 0.952 . S
H2079 C2067 0.950 . S
N2080 C2083 1.382 . S
N2080 C2085 1.363 . S
N2081 C2083 1.371 . S
N2081 C2084 1.372 . S
N2082 C2084 1.361 . S
N2082 C2085 1.377 . S
C2083 N2080 1.382 . S
C2083 N2081 1.371 . S
C2083 C2086 1.480 . S
C2084 N2081 1.372 . S
C2084 N2082 1.361 . S
C2084 C2092 1.457 . S
C2085 N2080 1.363 . S
C2085 N2082 1.377 . S
C2085 C2098 1.479 . S
C2086 C2083 1.480 . S
C2086 C2087 1.383 . S
C2086 C2091 1.385 . S
C2087 H2068 0.947 . S
C2087 C2086 1.383 . S
C2087 C2088 1.388 . S
C2088 H2069 0.946 . S
C2088 C2087 1.388 . S
C2088 C2089 1.384 . S
C2089 C2088 1.384 . S
C2089 C2090 1.377 . S
C2090 H2070 0.953 . S
C2090 C2089 1.377 . S
C2090 C2091 1.369 . S
C2091 H2071 0.945 . S
C2091 C2086 1.385 . S
C2091 C2090 1.369 . S
C2092 C2084 1.457 . S
C2092 C2093 1.372 . S
C2092 C2097 1.364 . S
C2093 H2072 0.952 . S
C2093 C2092 1.372 . S
C2093 C2094 1.389 . S
C2094 H2073 0.949 . S
C2094 C2093 1.389 . S
C2094 C2095 1.387 . S
C2095 C2094 1.387 . S
C2095 C2096 1.372 . S
C2096 H2074 0.950 . S
C2096 C2095 1.372 . S
C2096 C2097 1.379 . S
C2097 H2075 0.948 . S
C2097 C2092 1.364 . S
C2097 C2096 1.379 . S
C2098 C2067 1.383 . S
C2098 C2085 1.479 . S
C2098 C2099 1.398 . S
C2099 C2064 1.382 . S
C2099 H2076 0.951 . S
C2099 C2098 1.398 . S
C2100 C2101 1.384 . S
C2100 H2113 0.947 . S
C2100 C2135 1.382 . S
C2101 C2100 1.384 . S
C2101 C2102 1.378 . S
C2102 C2101 1.378 . S
C2102 C2103 1.378 . S
C2102 H2114 0.952 . S
C2103 C2102 1.378 . S
C2103 H2115 0.950 . S
C2103 C2134 1.383 . S
H2104 C2123 0.947 . S
H2105 C2124 0.946 . S
H2106 C2126 0.953 . S
H2107 C2127 0.945 . S
H2108 C2129 0.952 . S
H2109 C2130 0.949 . S
H2110 C2132 0.950 . S
H2111 C2133 0.948 . S
H2112 C2135 0.951 . S
H2113 C2100 0.947 . S
H2114 C2102 0.952 . S
H2115 C2103 0.950 . S
N2116 C2119 1.382 . S
N2116 C2121 1.363 . S
N2117 C2119 1.371 . S
N2117 C2120 1.372 . S
N2118 C2120 1.361 . S
N2118 C2121 1.377 . S
C2119 N2116 1.382 . S
C2119 N2117 1.371 . S
C2119 C2122 1.480 . S
C2120 N2117 1.372 . S
C2120 N2118 1.361 . S
C2120 C2128 1.457 . S
C2121 N2116 1.363 . S
C2121 N2118 1.377 . S
C2121 C2134 1.479 . S
C2122 C2119 1.480 . S
C2122 C2123 1.383 . S
C2122 C2127 1.385 . S
C2123 H2104 0.947 . S
C2123 C2122 1.383 . S
C2123 C2124 1.388 . S
C2124 H2105 0.946 . S
C2124 C2123 1.388 . S
C2124 C2125 1.384 . S
C2125 C2124 1.384 . S
C2125 C2126 1.377 . S
C2126 H2106 0.953 . S
C2126 C2125 1.377 . S
C2126 C2127 1.369 . S
C2127 H2107 0.945 . S
C2127 C2122 1.385 . S
C2127 C2126 1.369 . S
C2128 C2120 1.457 . S
C2128 C2129 1.372 . S
C2128 C2133 1.364 . S
C2129 H2108 0.952 . S
C2129 C2128 1.372 . S
C2129 C2130 1.389 . S
C2130 H2109 0.949 . S
C2130 C2129 1.389 . S
C2130 C2131 1.387 . S
C2131 C2130 1.387 . S
C2131 C2132 1.372 . S
C2132 H2110 0.950 . S
C2132 C2131 1.372 . S
C2132 C2133 1.379 . S
C2133 H2111 0.948 . S
C2133 C2128 1.364 . S
C2133 C2132 1.379 . S
C2134 C2103 1.383 . S
C2134 C2121 1.479 . S
C2134 C2135 1.398 . S
C2135 C2100 1.382 . S
C2135 H2112 0.951 . S
C2135 C2134 1.398 . S
C2136 C2137 1.384 . S
C2136 H2149 0.947 . S
C2136 C2171 1.382 . S
C2137 C2136 1.384 . S
C2137 C2138 1.378 . S
C2138 C2137 1.378 . S
C2138 C2139 1.378 . S
C2138 H2150 0.952 . S
C2139 C2138 1.378 . S
C2139 H2151 0.950 . S
C2139 C2170 1.383 . S
H2140 C2159 0.947 . S
H2141 C2160 0.946 . S
H2142 C2162 0.953 . S
H2143 C2163 0.945 . S
H2144 C2165 0.952 . S
H2145 C2166 0.949 . S
H2146 C2168 0.950 . S
H2147 C2169 0.948 . S
H2148 C2171 0.951 . S
H2149 C2136 0.947 . S
H2150 C2138 0.952 . S
H2151 C2139 0.950 . S
N2152 C2155 1.382 . S
N2152 C2157 1.363 . S
N2153 C2155 1.371 . S
N2153 C2156 1.372 . S
N2154 C2156 1.361 . S
N2154 C2157 1.377 . S
C2155 N2152 1.382 . S
C2155 N2153 1.371 . S
C2155 C2158 1.480 . S
C2156 N2153 1.372 . S
C2156 N2154 1.361 . S
C2156 C2164 1.457 . S
C2157 N2152 1.363 . S
C2157 N2154 1.377 . S
C2157 C2170 1.479 . S
C2158 C2155 1.480 . S
C2158 C2159 1.383 . S
C2158 C2163 1.385 . S
C2159 H2140 0.947 . S
C2159 C2158 1.383 . S
C2159 C2160 1.388 . S
C2160 H2141 0.946 . S
C2160 C2159 1.388 . S
C2160 C2161 1.384 . S
C2161 C2160 1.384 . S
C2161 C2162 1.377 . S
C2162 H2142 0.953 . S
C2162 C2161 1.377 . S
C2162 C2163 1.369 . S
C2163 H2143 0.945 . S
C2163 C2158 1.385 . S
C2163 C2162 1.369 . S
C2164 C2156 1.457 . S
C2164 C2165 1.372 . S
C2164 C2169 1.364 . S
C2165 H2144 0.952 . S
C2165 C2164 1.372 . S
C2165 C2166 1.389 . S
C2166 H2145 0.949 . S
C2166 C2165 1.389 . S
C2166 C2167 1.387 . S
C2167 C2166 1.387 . S
C2167 C2168 1.372 . S
C2168 H2146 0.950 . S
C2168 C2167 1.372 . S
C2168 C2169 1.379 . S
C2169 H2147 0.948 . S
C2169 C2164 1.364 . S
C2169 C2168 1.379 . S
C2170 C2139 1.383 . S
C2170 C2157 1.479 . S
C2170 C2171 1.398 . S
C2171 C2136 1.382 . S
C2171 H2148 0.951 . S
C2171 C2170 1.398 . S
C2172 C2173 1.384 . S
C2172 H2185 0.947 . S
C2172 C2207 1.382 . S
C2173 C2172 1.384 . S
C2173 C2174 1.378 . S
C2174 C2173 1.378 . S
C2174 C2175 1.378 . S
C2174 H2186 0.952 . S
C2175 C2174 1.378 . S
C2175 H2187 0.950 . S
C2175 C2206 1.383 . S
H2176 C2195 0.947 . S
H2177 C2196 0.946 . S
H2178 C2198 0.953 . S
H2179 C2199 0.945 . S
H2180 C2201 0.952 . S
H2181 C2202 0.949 . S
H2182 C2204 0.950 . S
H2183 C2205 0.948 . S
H2184 C2207 0.951 . S
H2185 C2172 0.947 . S
H2186 C2174 0.952 . S
H2187 C2175 0.950 . S
N2188 C2191 1.382 . S
N2188 C2193 1.363 . S
N2189 C2191 1.371 . S
N2189 C2192 1.372 . S
N2190 C2192 1.361 . S
N2190 C2193 1.377 . S
C2191 N2188 1.382 . S
C2191 N2189 1.371 . S
C2191 C2194 1.480 . S
C2192 N2189 1.372 . S
C2192 N2190 1.361 . S
C2192 C2200 1.457 . S
C2193 N2188 1.363 . S
C2193 N2190 1.377 . S
C2193 C2206 1.479 . S
C2194 C2191 1.480 . S
C2194 C2195 1.383 . S
C2194 C2199 1.385 . S
C2195 H2176 0.947 . S
C2195 C2194 1.383 . S
C2195 C2196 1.388 . S
C2196 H2177 0.946 . S
C2196 C2195 1.388 . S
C2196 C2197 1.384 . S
C2197 C2196 1.384 . S
C2197 C2198 1.377 . S
C2198 H2178 0.953 . S
C2198 C2197 1.377 . S
C2198 C2199 1.369 . S
C2199 H2179 0.945 . S
C2199 C2194 1.385 . S
C2199 C2198 1.369 . S
C2200 C2192 1.457 . S
C2200 C2201 1.372 . S
C2200 C2205 1.364 . S
C2201 H2180 0.952 . S
C2201 C2200 1.372 . S
C2201 C2202 1.389 . S
C2202 H2181 0.949 . S
C2202 C2201 1.389 . S
C2202 C2203 1.387 . S
C2203 C2202 1.387 . S
C2203 C2204 1.372 . S
C2204 H2182 0.950 . S
C2204 C2203 1.372 . S
C2204 C2205 1.379 . S
C2205 H2183 0.948 . S
C2205 C2200 1.364 . S
C2205 C2204 1.379 . S
C2206 C2175 1.383 . S
C2206 C2193 1.479 . S
C2206 C2207 1.398 . S
C2207 C2172 1.382 . S
C2207 H2184 0.951 . S
C2207 C2206 1.398 . S
C2208 C2209 1.384 . S
C2208 H2221 0.947 . S
C2208 C2243 1.382 . S
C2209 C2208 1.384 . S
C2209 C2210 1.378 . S
C2210 C2209 1.378 . S
C2210 C2211 1.378 . S
C2210 H2222 0.952 . S
C2211 C2210 1.378 . S
C2211 H2223 0.950 . S
C2211 C2242 1.383 . S
H2212 C2231 0.947 . S
H2213 C2232 0.946 . S
H2214 C2234 0.953 . S
H2215 C2235 0.945 . S
H2216 C2237 0.952 . S
H2217 C2238 0.949 . S
H2218 C2240 0.950 . S
H2219 C2241 0.948 . S
H2220 C2243 0.951 . S
H2221 C2208 0.947 . S
H2222 C2210 0.952 . S
H2223 C2211 0.950 . S
N2224 C2227 1.382 . S
N2224 C2229 1.363 . S
N2225 C2227 1.371 . S
N2225 C2228 1.372 . S
N2226 C2228 1.361 . S
N2226 C2229 1.377 . S
C2227 N2224 1.382 . S
C2227 N2225 1.371 . S
C2227 C2230 1.480 . S
C2228 N2225 1.372 . S
C2228 N2226 1.361 . S
C2228 C2236 1.457 . S
C2229 N2224 1.363 . S
C2229 N2226 1.377 . S
C2229 C2242 1.479 . S
C2230 C2227 1.480 . S
C2230 C2231 1.383 . S
C2230 C2235 1.385 . S
C2231 H2212 0.947 . S
C2231 C2230 1.383 . S
C2231 C2232 1.388 . S
C2232 H2213 0.946 . S
C2232 C2231 1.388 . S
C2232 C2233 1.384 . S
C2233 C2232 1.384 . S
C2233 C2234 1.377 . S
C2234 H2214 0.953 . S
C2234 C2233 1.377 . S
C2234 C2235 1.369 . S
C2235 H2215 0.945 . S
C2235 C2230 1.385 . S
C2235 C2234 1.369 . S
C2236 C2228 1.457 . S
C2236 C2237 1.372 . S
C2236 C2241 1.364 . S
C2237 H2216 0.952 . S
C2237 C2236 1.372 . S
C2237 C2238 1.389 . S
C2238 H2217 0.949 . S
C2238 C2237 1.389 . S
C2238 C2239 1.387 . S
C2239 C2238 1.387 . S
C2239 C2240 1.372 . S
C2240 H2218 0.950 . S
C2240 C2239 1.372 . S
C2240 C2241 1.379 . S
C2241 H2219 0.948 . S
C2241 C2236 1.364 . S
C2241 C2240 1.379 . S
C2242 C2211 1.383 . S
C2242 C2229 1.479 . S
C2242 C2243 1.398 . S
C2243 C2208 1.382 . S
C2243 H2220 0.951 . S
C2243 C2242 1.398 . S
C2244 C2245 1.384 . S
C2244 H2257 0.947 . S
C2244 C2279 1.382 . S
C2245 C2244 1.384 . S
C2245 C2246 1.378 . S
C2246 C2245 1.378 . S
C2246 C2247 1.378 . S
C2246 H2258 0.952 . S
C2247 C2246 1.378 . S
C2247 H2259 0.950 . S
C2247 C2278 1.383 . S
H2248 C2267 0.947 . S
H2249 C2268 0.946 . S
H2250 C2270 0.953 . S
H2251 C2271 0.945 . S
H2252 C2273 0.952 . S
H2253 C2274 0.949 . S
H2254 C2276 0.950 . S
H2255 C2277 0.948 . S
H2256 C2279 0.951 . S
H2257 C2244 0.947 . S
H2258 C2246 0.952 . S
H2259 C2247 0.950 . S
N2260 C2263 1.382 . S
N2260 C2265 1.363 . S
N2261 C2263 1.371 . S
N2261 C2264 1.372 . S
N2262 C2264 1.361 . S
N2262 C2265 1.377 . S
C2263 N2260 1.382 . S
C2263 N2261 1.371 . S
C2263 C2266 1.480 . S
C2264 N2261 1.372 . S
C2264 N2262 1.361 . S
C2264 C2272 1.457 . S
C2265 N2260 1.363 . S
C2265 N2262 1.377 . S
C2265 C2278 1.479 . S
C2266 C2263 1.480 . S
C2266 C2267 1.383 . S
C2266 C2271 1.385 . S
C2267 H2248 0.947 . S
C2267 C2266 1.383 . S
C2267 C2268 1.388 . S
C2268 H2249 0.946 . S
C2268 C2267 1.388 . S
C2268 C2269 1.384 . S
C2269 C2268 1.384 . S
C2269 C2270 1.377 . S
C2270 H2250 0.953 . S
C2270 C2269 1.377 . S
C2270 C2271 1.369 . S
C2271 H2251 0.945 . S
C2271 C2266 1.385 . S
C2271 C2270 1.369 . S
C2272 C2264 1.457 . S
C2272 C2273 1.372 . S
C2272 C2277 1.364 . S
C2273 H2252 0.952 . S
C2273 C2272 1.372 . S
C2273 C2274 1.389 . S
C2274 H2253 0.949 . S
C2274 C2273 1.389 . S
C2274 C2275 1.387 . S
C2275 C2274 1.387 . S
C2275 C2276 1.372 . S
C2276 H2254 0.950 . S
C2276 C2275 1.372 . S
C2276 C2277 1.379 . S
C2277 H2255 0.948 . S
C2277 C2272 1.364 . S
C2277 C2276 1.379 . S
C2278 C2247 1.383 . S
C2278 C2265 1.479 . S
C2278 C2279 1.398 . S
C2279 C2244 1.382 . S
C2279 H2256 0.951 . S
C2279 C2278 1.398 . S
C2280 C2281 1.384 . S
C2280 H2293 0.947 . S
C2280 C2315 1.382 . S
C2281 C2280 1.384 . S
C2281 C2282 1.378 . S
C2282 C2281 1.378 . S
C2282 C2283 1.378 . S
C2282 H2294 0.952 . S
C2283 C2282 1.378 . S
C2283 H2295 0.950 . S
C2283 C2314 1.383 . S
H2284 C2303 0.947 . S
H2285 C2304 0.946 . S
H2286 C2306 0.953 . S
H2287 C2307 0.945 . S
H2288 C2309 0.952 . S
H2289 C2310 0.949 . S
H2290 C2312 0.950 . S
H2291 C2313 0.948 . S
H2292 C2315 0.951 . S
H2293 C2280 0.947 . S
H2294 C2282 0.952 . S
H2295 C2283 0.950 . S
N2296 C2299 1.382 . S
N2296 C2301 1.363 . S
N2297 C2299 1.371 . S
N2297 C2300 1.372 . S
N2298 C2300 1.361 . S
N2298 C2301 1.377 . S
C2299 N2296 1.382 . S
C2299 N2297 1.371 . S
C2299 C2302 1.480 . S
C2300 N2297 1.372 . S
C2300 N2298 1.361 . S
C2300 C2308 1.457 . S
C2301 N2296 1.363 . S
C2301 N2298 1.377 . S
C2301 C2314 1.479 . S
C2302 C2299 1.480 . S
C2302 C2303 1.383 . S
C2302 C2307 1.385 . S
C2303 H2284 0.947 . S
C2303 C2302 1.383 . S
C2303 C2304 1.388 . S
C2304 H2285 0.946 . S
C2304 C2303 1.388 . S
C2304 C2305 1.384 . S
C2305 C2304 1.384 . S
C2305 C2306 1.377 . S
C2306 H2286 0.953 . S
C2306 C2305 1.377 . S
C2306 C2307 1.369 . S
C2307 H2287 0.945 . S
C2307 C2302 1.385 . S
C2307 C2306 1.369 . S
C2308 C2300 1.457 . S
C2308 C2309 1.372 . S
C2308 C2313 1.364 . S
C2309 H2288 0.952 . S
C2309 C2308 1.372 . S
C2309 C2310 1.389 . S
C2310 H2289 0.949 . S
C2310 C2309 1.389 . S
C2310 C2311 1.387 . S
C2311 C2310 1.387 . S
C2311 C2312 1.372 . S
C2312 H2290 0.950 . S
C2312 C2311 1.372 . S
C2312 C2313 1.379 . S
C2313 H2291 0.948 . S
C2313 C2308 1.364 . S
C2313 C2312 1.379 . S
C2314 C2283 1.383 . S
C2314 C2301 1.479 . S
C2314 C2315 1.398 . S
C2315 C2280 1.382 . S
C2315 H2292 0.951 . S
C2315 C2314 1.398 . S
C2316 C2317 1.384 . S
C2316 H2329 0.947 . S
C2316 C2351 1.382 . S
C2317 C2316 1.384 . S
C2317 C2318 1.378 . S
C2318 C2317 1.378 . S
C2318 C2319 1.378 . S
C2318 H2330 0.952 . S
C2319 C2318 1.378 . S
C2319 H2331 0.950 . S
C2319 C2350 1.383 . S
H2320 C2339 0.947 . S
H2321 C2340 0.946 . S
H2322 C2342 0.953 . S
H2323 C2343 0.945 . S
H2324 C2345 0.952 . S
H2325 C2346 0.949 . S
H2326 C2348 0.950 . S
H2327 C2349 0.948 . S
H2328 C2351 0.951 . S
H2329 C2316 0.947 . S
H2330 C2318 0.952 . S
H2331 C2319 0.950 . S
N2332 C2335 1.382 . S
N2332 C2337 1.363 . S
N2333 C2335 1.371 . S
N2333 C2336 1.372 . S
N2334 C2336 1.361 . S
N2334 C2337 1.377 . S
C2335 N2332 1.382 . S
C2335 N2333 1.371 . S
C2335 C2338 1.480 . S
C2336 N2333 1.372 . S
C2336 N2334 1.361 . S
C2336 C2344 1.457 . S
C2337 N2332 1.363 . S
C2337 N2334 1.377 . S
C2337 C2350 1.479 . S
C2338 C2335 1.480 . S
C2338 C2339 1.383 . S
C2338 C2343 1.385 . S
C2339 H2320 0.947 . S
C2339 C2338 1.383 . S
C2339 C2340 1.388 . S
C2340 H2321 0.946 . S
C2340 C2339 1.388 . S
C2340 C2341 1.384 . S
C2341 C2340 1.384 . S
C2341 C2342 1.377 . S
C2342 H2322 0.953 . S
C2342 C2341 1.377 . S
C2342 C2343 1.369 . S
C2343 H2323 0.945 . S
C2343 C2338 1.385 . S
C2343 C2342 1.369 . S
C2344 C2336 1.457 . S
C2344 C2345 1.372 . S
C2344 C2349 1.364 . S
C2345 H2324 0.952 . S
C2345 C2344 1.372 . S
C2345 C2346 1.389 . S
C2346 H2325 0.949 . S
C2346 C2345 1.389 . S
C2346 C2347 1.387 . S
C2347 C2346 1.387 . S
C2347 C2348 1.372 . S
C2348 H2326 0.950 . S
C2348 C2347 1.372 . S
C2348 C2349 1.379 . S
C2349 H2327 0.948 . S
C2349 C2344 1.364 . S
C2349 C2348 1.379 . S
C2350 C2319 1.383 . S
C2350 C2337 1.479 . S
C2350 C2351 1.398 . S
C2351 C2316 1.382 . S
C2351 H2328 0.951 . S
C2351 C2350 1.398 . S
C2352 C2353 1.384 . S
C2352 H2365 0.947 . S
C2352 C2387 1.382 . S
C2353 C2352 1.384 . S
C2353 C2354 1.378 . S
C2354 C2353 1.378 . S
C2354 C2355 1.378 . S
C2354 H2366 0.952 . S
C2355 C2354 1.378 . S
C2355 H2367 0.950 . S
C2355 C2386 1.383 . S
H2356 C2375 0.947 . S
H2357 C2376 0.946 . S
H2358 C2378 0.953 . S
H2359 C2379 0.945 . S
H2360 C2381 0.952 . S
H2361 C2382 0.949 . S
H2362 C2384 0.950 . S
H2363 C2385 0.948 . S
H2364 C2387 0.951 . S
H2365 C2352 0.947 . S
H2366 C2354 0.952 . S
H2367 C2355 0.950 . S
N2368 C2371 1.382 . S
N2368 C2373 1.363 . S
N2369 C2371 1.371 . S
N2369 C2372 1.372 . S
N2370 C2372 1.361 . S
N2370 C2373 1.377 . S
C2371 N2368 1.382 . S
C2371 N2369 1.371 . S
C2371 C2374 1.480 . S
C2372 N2369 1.372 . S
C2372 N2370 1.361 . S
C2372 C2380 1.457 . S
C2373 N2368 1.363 . S
C2373 N2370 1.377 . S
C2373 C2386 1.479 . S
C2374 C2371 1.480 . S
C2374 C2375 1.383 . S
C2374 C2379 1.385 . S
C2375 H2356 0.947 . S
C2375 C2374 1.383 . S
C2375 C2376 1.388 . S
C2376 H2357 0.946 . S
C2376 C2375 1.388 . S
C2376 C2377 1.384 . S
C2377 C2376 1.384 . S
C2377 C2378 1.377 . S
C2378 H2358 0.953 . S
C2378 C2377 1.377 . S
C2378 C2379 1.369 . S
C2379 H2359 0.945 . S
C2379 C2374 1.385 . S
C2379 C2378 1.369 . S
C2380 C2372 1.457 . S
C2380 C2381 1.372 . S
C2380 C2385 1.364 . S
C2381 H2360 0.952 . S
C2381 C2380 1.372 . S
C2381 C2382 1.389 . S
C2382 H2361 0.949 . S
C2382 C2381 1.389 . S
C2382 C2383 1.387 . S
C2383 C2382 1.387 . S
C2383 C2384 1.372 . S
C2384 H2362 0.950 . S
C2384 C2383 1.372 . S
C2384 C2385 1.379 . S
C2385 H2363 0.948 . S
C2385 C2380 1.364 . S
C2385 C2384 1.379 . S
C2386 C2355 1.383 . S
C2386 C2373 1.479 . S
C2386 C2387 1.398 . S
C2387 C2352 1.382 . S
C2387 H2364 0.951 . S
C2387 C2386 1.398 . S
C2388 C2389 1.384 . S
C2388 H2401 0.947 . S
C2388 C2423 1.382 . S
C2389 C2388 1.384 . S
C2389 C2390 1.378 . S
C2390 C2389 1.378 . S
C2390 C2391 1.378 . S
C2390 H2402 0.952 . S
C2391 C2390 1.378 . S
C2391 H2403 0.950 . S
C2391 C2422 1.383 . S
H2392 C2411 0.947 . S
H2393 C2412 0.946 . S
H2394 C2414 0.953 . S
H2395 C2415 0.945 . S
H2396 C2417 0.952 . S
H2397 C2418 0.949 . S
H2398 C2420 0.950 . S
H2399 C2421 0.948 . S
H2400 C2423 0.951 . S
H2401 C2388 0.947 . S
H2402 C2390 0.952 . S
H2403 C2391 0.950 . S
N2404 C2407 1.382 . S
N2404 C2409 1.363 . S
N2405 C2407 1.371 . S
N2405 C2408 1.372 . S
N2406 C2408 1.361 . S
N2406 C2409 1.377 . S
C2407 N2404 1.382 . S
C2407 N2405 1.371 . S
C2407 C2410 1.480 . S
C2408 N2405 1.372 . S
C2408 N2406 1.361 . S
C2408 C2416 1.457 . S
C2409 N2404 1.363 . S
C2409 N2406 1.377 . S
C2409 C2422 1.479 . S
C2410 C2407 1.480 . S
C2410 C2411 1.383 . S
C2410 C2415 1.385 . S
C2411 H2392 0.947 . S
C2411 C2410 1.383 . S
C2411 C2412 1.388 . S
C2412 H2393 0.946 . S
C2412 C2411 1.388 . S
C2412 C2413 1.384 . S
C2413 C2412 1.384 . S
C2413 C2414 1.377 . S
C2414 H2394 0.953 . S
C2414 C2413 1.377 . S
C2414 C2415 1.369 . S
C2415 H2395 0.945 . S
C2415 C2410 1.385 . S
C2415 C2414 1.369 . S
C2416 C2408 1.457 . S
C2416 C2417 1.372 . S
C2416 C2421 1.364 . S
C2417 H2396 0.952 . S
C2417 C2416 1.372 . S
C2417 C2418 1.389 . S
C2418 H2397 0.949 . S
C2418 C2417 1.389 . S
C2418 C2419 1.387 . S
C2419 C2418 1.387 . S
C2419 C2420 1.372 . S
C2420 H2398 0.950 . S
C2420 C2419 1.372 . S
C2420 C2421 1.379 . S
C2421 H2399 0.948 . S
C2421 C2416 1.364 . S
C2421 C2420 1.379 . S
C2422 C2391 1.383 . S
C2422 C2409 1.479 . S
C2422 C2423 1.398 . S
C2423 C2388 1.382 . S
C2423 H2400 0.951 . S
C2423 C2422 1.398 . S
C2424 C2425 1.384 . S
C2424 H2437 0.947 . S
C2424 C2459 1.382 . S
C2425 C2424 1.384 . S
C2425 C2426 1.378 . S
C2426 C2425 1.378 . S
C2426 C2427 1.378 . S
C2426 H2438 0.952 . S
C2427 C2426 1.378 . S
C2427 H2439 0.950 . S
C2427 C2458 1.383 . S
H2428 C2447 0.947 . S
H2429 C2448 0.946 . S
H2430 C2450 0.953 . S
H2431 C2451 0.945 . S
H2432 C2453 0.952 . S
H2433 C2454 0.949 . S
H2434 C2456 0.950 . S
H2435 C2457 0.948 . S
H2436 C2459 0.951 . S
H2437 C2424 0.947 . S
H2438 C2426 0.952 . S
H2439 C2427 0.950 . S
N2440 C2443 1.382 . S
N2440 C2445 1.363 . S
N2441 C2443 1.371 . S
N2441 C2444 1.372 . S
N2442 C2444 1.361 . S
N2442 C2445 1.377 . S
C2443 N2440 1.382 . S
C2443 N2441 1.371 . S
C2443 C2446 1.480 . S
C2444 N2441 1.372 . S
C2444 N2442 1.361 . S
C2444 C2452 1.457 . S
C2445 N2440 1.363 . S
C2445 N2442 1.377 . S
C2445 C2458 1.479 . S
C2446 C2443 1.480 . S
C2446 C2447 1.383 . S
C2446 C2451 1.385 . S
C2447 H2428 0.947 . S
C2447 C2446 1.383 . S
C2447 C2448 1.388 . S
C2448 H2429 0.946 . S
C2448 C2447 1.388 . S
C2448 C2449 1.384 . S
C2449 C2448 1.384 . S
C2449 C2450 1.377 . S
C2450 H2430 0.953 . S
C2450 C2449 1.377 . S
C2450 C2451 1.369 . S
C2451 H2431 0.945 . S
C2451 C2446 1.385 . S
C2451 C2450 1.369 . S
C2452 C2444 1.457 . S
C2452 C2453 1.372 . S
C2452 C2457 1.364 . S
C2453 H2432 0.952 . S
C2453 C2452 1.372 . S
C2453 C2454 1.389 . S
C2454 H2433 0.949 . S
C2454 C2453 1.389 . S
C2454 C2455 1.387 . S
C2455 C2454 1.387 . S
C2455 C2456 1.372 . S
C2456 H2434 0.950 . S
C2456 C2455 1.372 . S
C2456 C2457 1.379 . S
C2457 H2435 0.948 . S
C2457 C2452 1.364 . S
C2457 C2456 1.379 . S
C2458 C2427 1.383 . S
C2458 C2445 1.479 . S
C2458 C2459 1.398 . S
C2459 C2424 1.382 . S
C2459 H2436 0.951 . S
C2459 C2458 1.398 . S
C2460 C2461 1.384 . S
C2460 H2473 0.947 . S
C2460 C2495 1.382 . S
C2461 C2460 1.384 . S
C2461 C2462 1.378 . S
C2462 C2461 1.378 . S
C2462 C2463 1.378 . S
C2462 H2474 0.952 . S
C2463 C2462 1.378 . S
C2463 H2475 0.950 . S
C2463 C2494 1.383 . S
H2464 C2483 0.947 . S
H2465 C2484 0.946 . S
H2466 C2486 0.964 . S
H2467 C2487 0.945 . S
H2468 C2489 0.952 . S
H2469 C2490 0.949 . S
H2470 C2492 0.950 . S
H2471 C2493 0.948 . S
H2472 C2495 0.951 . S
H2473 C2460 0.947 . S
H2474 C2462 0.952 . S
H2475 C2463 0.950 . S
N2476 C2479 1.382 . S
N2476 C2481 1.363 . S
N2477 C2479 1.371 . S
N2477 C2480 1.372 . S
N2478 C2480 1.361 . S
N2478 C2481 1.377 . S
C2479 N2476 1.382 . S
C2479 N2477 1.371 . S
C2479 C2482 1.480 . S
C2480 N2477 1.372 . S
C2480 N2478 1.361 . S
C2480 C2488 1.457 . S
C2481 N2476 1.363 . S
C2481 N2478 1.377 . S
C2481 C2494 1.479 . S
C2482 C2479 1.480 . S
C2482 C2483 1.383 . S
C2482 C2487 1.385 . S
C2483 H2464 0.947 . S
C2483 C2482 1.383 . S
C2483 C2484 1.388 . S
C2484 H2465 0.946 . S
C2484 C2483 1.388 . S
C2484 C2485 1.384 . S
C2485 C2484 1.384 . S
C2485 C2486 1.377 . S
C2486 H2466 0.964 . S
C2486 C2485 1.377 . S
C2486 C2487 1.369 . S
C2487 H2467 0.945 . S
C2487 C2482 1.385 . S
C2487 C2486 1.369 . S
C2488 C2480 1.457 . S
C2488 C2489 1.372 . S
C2488 C2493 1.364 . S
C2489 H2468 0.952 . S
C2489 C2488 1.372 . S
C2489 C2490 1.389 . S
C2490 H2469 0.949 . S
C2490 C2489 1.389 . S
C2490 C2491 1.387 . S
C2491 C2490 1.387 . S
C2491 C2492 1.372 . S
C2492 H2470 0.950 . S
C2492 C2491 1.372 . S
C2492 C2493 1.379 . S
C2493 H2471 0.948 . S
C2493 C2488 1.364 . S
C2493 C2492 1.379 . S
C2494 C2463 1.383 . S
C2494 C2481 1.479 . S
C2494 C2495 1.398 . S
C2495 C2460 1.382 . S
C2495 H2472 0.951 . S
C2495 C2494 1.398 . S
C2496 C2497 1.384 . S
C2496 H2509 0.947 . S
C2496 C2531 1.382 . S
C2497 C2496 1.384 . S
C2497 C2498 1.378 . S
C2498 C2497 1.378 . S
C2498 C2499 1.378 . S
C2498 H2510 0.952 . S
C2499 C2498 1.378 . S
C2499 H2511 0.950 . S
C2499 C2530 1.383 . S
H2500 C2519 0.947 . S
H2501 C2520 0.946 . S
H2502 C2522 0.953 . S
H2503 C2523 0.945 . S
H2504 C2525 0.952 . S
H2505 C2526 0.949 . S
H2506 C2528 0.950 . S
H2507 C2529 0.948 . S
H2508 C2531 0.951 . S
H2509 C2496 0.947 . S
H2510 C2498 0.952 . S
H2511 C2499 0.950 . S
N2512 C2515 1.382 . S
N2512 C2517 1.363 . S
N2513 C2515 1.371 . S
N2513 C2516 1.372 . S
N2514 C2516 1.361 . S
N2514 C2517 1.377 . S
C2515 N2512 1.382 . S
C2515 N2513 1.371 . S
C2515 C2518 1.480 . S
C2516 N2513 1.372 . S
C2516 N2514 1.361 . S
C2516 C2524 1.457 . S
C2517 N2512 1.363 . S
C2517 N2514 1.377 . S
C2517 C2530 1.479 . S
C2518 C2515 1.480 . S
C2518 C2519 1.383 . S
C2518 C2523 1.385 . S
C2519 H2500 0.947 . S
C2519 C2518 1.383 . S
C2519 C2520 1.388 . S
C2520 H2501 0.946 . S
C2520 C2519 1.388 . S
C2520 C2521 1.384 . S
C2521 C2520 1.384 . S
C2521 C2522 1.377 . S
C2522 H2502 0.953 . S
C2522 C2521 1.377 . S
C2522 C2523 1.369 . S
C2523 H2503 0.945 . S
C2523 C2518 1.385 . S
C2523 C2522 1.369 . S
C2524 C2516 1.457 . S
C2524 C2525 1.372 . S
C2524 C2529 1.364 . S
C2525 H2504 0.952 . S
C2525 C2524 1.372 . S
C2525 C2526 1.389 . S
C2526 H2505 0.949 . S
C2526 C2525 1.389 . S
C2526 C2527 1.387 . S
C2527 C2526 1.387 . S
C2527 C2528 1.372 . S
C2528 H2506 0.950 . S
C2528 C2527 1.372 . S
C2528 C2529 1.379 . S
C2529 H2507 0.948 . S
C2529 C2524 1.364 . S
C2529 C2528 1.379 . S
C2530 C2499 1.383 . S
C2530 C2517 1.479 . S
C2530 C2531 1.398 . S
C2531 C2496 1.382 . S
C2531 H2508 0.951 . S
C2531 C2530 1.398 . S
C2532 C2533 1.384 . S
C2532 H2545 0.947 . S
C2532 C2567 1.382 . S
C2533 C2532 1.384 . S
C2533 C2534 1.378 . S
C2534 C2533 1.378 . S
C2534 C2535 1.378 . S
C2534 H2546 0.952 . S
C2535 C2534 1.378 . S
C2535 H2547 0.950 . S
C2535 C2566 1.383 . S
H2536 C2555 0.947 . S
H2537 C2556 0.946 . S
H2538 C2558 0.953 . S
H2539 C2559 0.945 . S
H2540 C2561 0.952 . S
H2541 C2562 0.949 . S
H2542 C2564 0.950 . S
H2543 C2565 0.948 . S
H2544 C2567 0.951 . S
H2545 C2532 0.947 . S
H2546 C2534 0.952 . S
H2547 C2535 0.950 . S
N2548 C2551 1.382 . S
N2548 C2553 1.363 . S
N2549 C2551 1.371 . S
N2549 C2552 1.372 . S
N2550 C2552 1.361 . S
N2550 C2553 1.377 . S
C2551 N2548 1.382 . S
C2551 N2549 1.371 . S
C2551 C2554 1.480 . S
C2552 N2549 1.372 . S
C2552 N2550 1.361 . S
C2552 C2560 1.457 . S
C2553 N2548 1.363 . S
C2553 N2550 1.377 . S
C2553 C2566 1.479 . S
C2554 C2551 1.480 . S
C2554 C2555 1.383 . S
C2554 C2559 1.385 . S
C2555 H2536 0.947 . S
C2555 C2554 1.383 . S
C2555 C2556 1.388 . S
C2556 H2537 0.946 . S
C2556 C2555 1.388 . S
C2556 C2557 1.384 . S
C2557 C2556 1.384 . S
C2557 C2558 1.377 . S
C2558 H2538 0.953 . S
C2558 C2557 1.377 . S
C2558 C2559 1.369 . S
C2559 H2539 0.945 . S
C2559 C2554 1.385 . S
C2559 C2558 1.369 . S
C2560 C2552 1.457 . S
C2560 C2561 1.372 . S
C2560 C2565 1.364 . S
C2561 H2540 0.952 . S
C2561 C2560 1.372 . S
C2561 C2562 1.389 . S
C2562 H2541 0.949 . S
C2562 C2561 1.389 . S
C2562 C2563 1.387 . S
C2563 C2562 1.387 . S
C2563 C2564 1.372 . S
C2564 H2542 0.950 . S
C2564 C2563 1.372 . S
C2564 C2565 1.379 . S
C2565 H2543 0.948 . S
C2565 C2560 1.364 . S
C2565 C2564 1.379 . S
C2566 C2535 1.383 . S
C2566 C2553 1.479 . S
C2566 C2567 1.398 . S
C2567 C2532 1.382 . S
C2567 H2544 0.951 . S
C2567 C2566 1.398 . S
C2568 C2569 1.384 . S
C2568 H2581 0.947 . S
C2568 C2603 1.382 . S
C2569 C2568 1.384 . S
C2569 C2570 1.378 . S
C2570 C2569 1.378 . S
C2570 C2571 1.378 . S
C2570 H2582 0.952 . S
C2571 C2570 1.378 . S
C2571 H2583 0.950 . S
C2571 C2602 1.383 . S
H2572 C2591 0.947 . S
H2573 C2592 0.946 . S
H2574 C2594 0.953 . S
H2575 C2595 0.945 . S
H2576 C2597 0.952 . S
H2577 C2598 0.949 . S
H2578 C2600 0.950 . S
H2579 C2601 0.948 . S
H2580 C2603 0.951 . S
H2581 C2568 0.947 . S
H2582 C2570 0.952 . S
H2583 C2571 0.950 . S
N2584 C2587 1.382 . S
N2584 C2589 1.363 . S
N2585 C2587 1.371 . S
N2585 C2588 1.372 . S
N2586 C2588 1.361 . S
N2586 C2589 1.377 . S
C2587 N2584 1.382 . S
C2587 N2585 1.371 . S
C2587 C2590 1.480 . S
C2588 N2585 1.372 . S
C2588 N2586 1.361 . S
C2588 C2596 1.457 . S
C2589 N2584 1.363 . S
C2589 N2586 1.377 . S
C2589 C2602 1.479 . S
C2590 C2587 1.480 . S
C2590 C2591 1.383 . S
C2590 C2595 1.385 . S
C2591 H2572 0.947 . S
C2591 C2590 1.383 . S
C2591 C2592 1.388 . S
C2592 H2573 0.946 . S
C2592 C2591 1.388 . S
C2592 C2593 1.384 . S
C2593 C2592 1.384 . S
C2593 C2594 1.377 . S
C2594 H2574 0.953 . S
C2594 C2593 1.377 . S
C2594 C2595 1.369 . S
C2595 H2575 0.945 . S
C2595 C2590 1.385 . S
C2595 C2594 1.369 . S
C2596 C2588 1.457 . S
C2596 C2597 1.372 . S
C2596 C2601 1.364 . S
C2597 H2576 0.952 . S
C2597 C2596 1.372 . S
C2597 C2598 1.389 . S
C2598 H2577 0.949 . S
C2598 C2597 1.389 . S
C2598 C2599 1.387 . S
C2599 C2598 1.387 . S
C2599 C2600 1.372 . S
C2600 H2578 0.950 . S
C2600 C2599 1.372 . S
C2600 C2601 1.379 . S
C2601 H2579 0.948 . S
C2601 C2596 1.364 . S
C2601 C2600 1.379 . S
C2602 C2571 1.383 . S
C2602 C2589 1.479 . S
C2602 C2603 1.398 . S
C2603 C2568 1.382 . S
C2603 H2580 0.951 . S
C2603 C2602 1.398 . S
C2604 C2605 1.384 . S
C2604 H2617 0.947 . S
C2604 C2639 1.382 . S
C2605 C2604 1.384 . S
C2605 C2606 1.378 . S
C2606 C2605 1.378 . S
C2606 C2607 1.378 . S
C2606 H2618 0.952 . S
C2607 C2606 1.378 . S
C2607 H2619 0.950 . S
C2607 C2638 1.383 . S
H2608 C2627 0.947 . S
H2609 C2628 0.946 . S
H2610 C2630 0.953 . S
H2611 C2631 0.945 . S
H2612 C2633 0.952 . S
H2613 C2634 0.949 . S
H2614 C2636 0.950 . S
H2615 C2637 0.948 . S
H2616 C2639 0.951 . S
H2617 C2604 0.947 . S
H2618 C2606 0.952 . S
H2619 C2607 0.950 . S
N2620 C2623 1.382 . S
N2620 C2625 1.363 . S
N2621 C2623 1.371 . S
N2621 C2624 1.372 . S
N2622 C2624 1.361 . S
N2622 C2625 1.377 . S
C2623 N2620 1.382 . S
C2623 N2621 1.371 . S
C2623 C2626 1.480 . S
C2624 N2621 1.372 . S
C2624 N2622 1.361 . S
C2624 C2632 1.457 . S
C2625 N2620 1.363 . S
C2625 N2622 1.377 . S
C2625 C2638 1.479 . S
C2626 C2623 1.480 . S
C2626 C2627 1.383 . S
C2626 C2631 1.385 . S
C2627 H2608 0.947 . S
C2627 C2626 1.383 . S
C2627 C2628 1.388 . S
C2628 H2609 0.946 . S
C2628 C2627 1.388 . S
C2628 C2629 1.384 . S
C2629 C2628 1.384 . S
C2629 C2630 1.377 . S
C2630 H2610 0.953 . S
C2630 C2629 1.377 . S
C2630 C2631 1.369 . S
C2631 H2611 0.945 . S
C2631 C2626 1.385 . S
C2631 C2630 1.369 . S
C2632 C2624 1.457 . S
C2632 C2633 1.372 . S
C2632 C2637 1.364 . S
C2633 H2612 0.952 . S
C2633 C2632 1.372 . S
C2633 C2634 1.389 . S
C2634 H2613 0.949 . S
C2634 C2633 1.389 . S
C2634 C2635 1.387 . S
C2635 C2634 1.387 . S
C2635 C2636 1.372 . S
C2636 H2614 0.950 . S
C2636 C2635 1.372 . S
C2636 C2637 1.379 . S
C2637 H2615 0.948 . S
C2637 C2632 1.364 . S
C2637 C2636 1.379 . S
C2638 C2607 1.383 . S
C2638 C2625 1.479 . S
C2638 C2639 1.398 . S
C2639 C2604 1.382 . S
C2639 H2616 0.951 . S
C2639 C2638 1.398 . S
C2640 C2641 1.384 . S
C2640 H2653 0.947 . S
C2640 C2675 1.382 . S
C2641 C2640 1.384 . S
C2641 C2642 1.378 . S
C2642 C2641 1.378 . S
C2642 C2643 1.378 . S
C2642 H2654 0.952 . S
C2643 C2642 1.378 . S
C2643 H2655 0.950 . S
C2643 C2674 1.383 . S
H2644 C2663 0.947 . S
H2645 C2664 0.946 . S
H2646 C2666 0.953 . S
H2647 C2667 0.945 . S
H2648 C2669 0.952 . S
H2649 C2670 0.949 . S
H2650 C2672 0.950 . S
H2651 C2673 0.948 . S
H2652 C2675 0.951 . S
H2653 C2640 0.947 . S
H2654 C2642 0.952 . S
H2655 C2643 0.950 . S
N2656 C2659 1.382 . S
N2656 C2661 1.363 . S
N2657 C2659 1.371 . S
N2657 C2660 1.372 . S
N2658 C2660 1.361 . S
N2658 C2661 1.377 . S
C2659 N2656 1.382 . S
C2659 N2657 1.371 . S
C2659 C2662 1.480 . S
C2660 N2657 1.372 . S
C2660 N2658 1.361 . S
C2660 C2668 1.457 . S
C2661 N2656 1.363 . S
C2661 N2658 1.377 . S
C2661 C2674 1.479 . S
C2662 C2659 1.480 . S
C2662 C2663 1.383 . S
C2662 C2667 1.385 . S
C2663 H2644 0.947 . S
C2663 C2662 1.383 . S
C2663 C2664 1.388 . S
C2664 H2645 0.946 . S
C2664 C2663 1.388 . S
C2664 C2665 1.384 . S
C2665 C2664 1.384 . S
C2665 C2666 1.377 . S
C2666 H2646 0.953 . S
C2666 C2665 1.377 . S
C2666 C2667 1.369 . S
C2667 H2647 0.945 . S
C2667 C2662 1.385 . S
C2667 C2666 1.369 . S
C2668 C2660 1.457 . S
C2668 C2669 1.372 . S
C2668 C2673 1.364 . S
C2669 H2648 0.952 . S
C2669 C2668 1.372 . S
C2669 C2670 1.389 . S
C2670 H2649 0.949 . S
C2670 C2669 1.389 . S
C2670 C2671 1.387 . S
C2671 C2670 1.387 . S
C2671 C2672 1.372 . S
C2672 H2650 0.950 . S
C2672 C2671 1.372 . S
C2672 C2673 1.379 . S
C2673 H2651 0.948 . S
C2673 C2668 1.364 . S
C2673 C2672 1.379 . S
C2674 C2643 1.383 . S
C2674 C2661 1.479 . S
C2674 C2675 1.398 . S
C2675 C2640 1.382 . S
C2675 H2652 0.951 . S
C2675 C2674 1.398 . S
C2676 C2677 1.384 . S
C2676 H2689 0.947 . S
C2676 C2711 1.382 . S
C2677 C2676 1.384 . S
C2677 C2678 1.378 . S
C2678 C2677 1.378 . S
C2678 C2679 1.378 . S
C2678 H2690 0.952 . S
C2679 C2678 1.378 . S
C2679 H2691 0.950 . S
C2679 C2710 1.383 . S
H2680 C2699 0.947 . S
H2681 C2700 0.946 . S
H2682 C2702 0.953 . S
H2683 C2703 0.945 . S
H2684 C2705 0.952 . S
H2685 C2706 0.949 . S
H2686 C2708 0.950 . S
H2687 C2709 0.948 . S
H2688 C2711 0.951 . S
H2689 C2676 0.947 . S
H2690 C2678 0.952 . S
H2691 C2679 0.950 . S
N2692 C2695 1.382 . S
N2692 C2697 1.363 . S
N2693 C2695 1.371 . S
N2693 C2696 1.372 . S
N2694 C2696 1.361 . S
N2694 C2697 1.377 . S
C2695 N2692 1.382 . S
C2695 N2693 1.371 . S
C2695 C2698 1.480 . S
C2696 N2693 1.372 . S
C2696 N2694 1.361 . S
C2696 C2704 1.457 . S
C2697 N2692 1.363 . S
C2697 N2694 1.377 . S
C2697 C2710 1.479 . S
C2698 C2695 1.480 . S
C2698 C2699 1.383 . S
C2698 C2703 1.385 . S
C2699 H2680 0.947 . S
C2699 C2698 1.383 . S
C2699 C2700 1.388 . S
C2700 H2681 0.946 . S
C2700 C2699 1.388 . S
C2700 C2701 1.384 . S
C2701 C2700 1.384 . S
C2701 C2702 1.377 . S
C2702 H2682 0.953 . S
C2702 C2701 1.377 . S
C2702 C2703 1.369 . S
C2703 H2683 0.945 . S
C2703 C2698 1.385 . S
C2703 C2702 1.369 . S
C2704 C2696 1.457 . S
C2704 C2705 1.372 . S
C2704 C2709 1.364 . S
C2705 H2684 0.952 . S
C2705 C2704 1.372 . S
C2705 C2706 1.389 . S
C2706 H2685 0.949 . S
C2706 C2705 1.389 . S
C2706 C2707 1.387 . S
C2707 C2706 1.387 . S
C2707 C2708 1.372 . S
C2708 H2686 0.950 . S
C2708 C2707 1.372 . S
C2708 C2709 1.379 . S
C2709 H2687 0.948 . S
C2709 C2704 1.364 . S
C2709 C2708 1.379 . S
C2710 C2679 1.383 . S
C2710 C2697 1.479 . S
C2710 C2711 1.398 . S
C2711 C2676 1.382 . S
C2711 H2688 0.951 . S
C2711 C2710 1.398 . S
C2712 C2713 1.384 . S
C2712 H2725 0.947 . S
C2712 C2747 1.382 . S
C2713 C2712 1.384 . S
C2713 C2714 1.378 . S
C2714 C2713 1.378 . S
C2714 C2715 1.378 . S
C2714 H2726 0.952 . S
C2715 C2714 1.378 . S
C2715 H2727 0.950 . S
C2715 C2746 1.383 . S
H2716 C2735 0.947 . S
H2717 C2736 0.946 . S
H2718 C2738 0.953 . S
H2719 C2739 0.945 . S
H2720 C2741 0.952 . S
H2721 C2742 0.949 . S
H2722 C2744 0.950 . S
H2723 C2745 0.948 . S
H2724 C2747 0.951 . S
H2725 C2712 0.947 . S
H2726 C2714 0.952 . S
H2727 C2715 0.950 . S
N2728 C2731 1.382 . S
N2728 C2733 1.363 . S
N2729 C2731 1.371 . S
N2729 C2732 1.372 . S
N2730 C2732 1.361 . S
N2730 C2733 1.377 . S
C2731 N2728 1.382 . S
C2731 N2729 1.371 . S
C2731 C2734 1.480 . S
C2732 N2729 1.372 . S
C2732 N2730 1.361 . S
C2732 C2740 1.457 . S
C2733 N2728 1.363 . S
C2733 N2730 1.377 . S
C2733 C2746 1.479 . S
C2734 C2731 1.480 . S
C2734 C2735 1.383 . S
C2734 C2739 1.385 . S
C2735 H2716 0.947 . S
C2735 C2734 1.383 . S
C2735 C2736 1.388 . S
C2736 H2717 0.946 . S
C2736 C2735 1.388 . S
C2736 C2737 1.384 . S
C2737 C2736 1.384 . S
C2737 C2738 1.377 . S
C2738 H2718 0.953 . S
C2738 C2737 1.377 . S
C2738 C2739 1.369 . S
C2739 H2719 0.945 . S
C2739 C2734 1.385 . S
C2739 C2738 1.369 . S
C2740 C2732 1.457 . S
C2740 C2741 1.372 . S
C2740 C2745 1.364 . S
C2741 H2720 0.952 . S
C2741 C2740 1.372 . S
C2741 C2742 1.389 . S
C2742 H2721 0.949 . S
C2742 C2741 1.389 . S
C2742 C2743 1.387 . S
C2743 C2742 1.387 . S
C2743 C2744 1.372 . S
C2744 H2722 0.950 . S
C2744 C2743 1.372 . S
C2744 C2745 1.379 . S
C2745 H2723 0.948 . S
C2745 C2740 1.364 . S
C2745 C2744 1.379 . S
C2746 C2715 1.383 . S
C2746 C2733 1.479 . S
C2746 C2747 1.398 . S
C2747 C2712 1.382 . S
C2747 H2724 0.951 . S
C2747 C2746 1.398 . S
C2748 C2749 1.384 . S
C2748 H2761 0.947 . S
C2748 C2783 1.382 . S
C2749 C2748 1.384 . S
C2749 C2750 1.378 . S
C2750 C2749 1.378 . S
C2750 C2751 1.378 . S
C2750 H2762 0.952 . S
C2751 C2750 1.378 . S
C2751 H2763 0.950 . S
C2751 C2782 1.383 . S
H2752 C2771 0.947 . S
H2753 C2772 0.946 . S
H2754 C2774 0.953 . S
H2755 C2775 0.945 . S
H2756 C2777 0.952 . S
H2757 C2778 0.949 . S
H2758 C2780 0.950 . S
H2759 C2781 0.948 . S
H2760 C2783 0.951 . S
H2761 C2748 0.947 . S
H2762 C2750 0.952 . S
H2763 C2751 0.950 . S
N2764 C2767 1.382 . S
N2764 C2769 1.363 . S
N2765 C2767 1.371 . S
N2765 C2768 1.372 . S
N2766 C2768 1.361 . S
N2766 C2769 1.377 . S
C2767 N2764 1.382 . S
C2767 N2765 1.371 . S
C2767 C2770 1.480 . S
C2768 N2765 1.372 . S
C2768 N2766 1.361 . S
C2768 C2776 1.457 . S
C2769 N2764 1.363 . S
C2769 N2766 1.377 . S
C2769 C2782 1.479 . S
C2770 C2767 1.480 . S
C2770 C2771 1.383 . S
C2770 C2775 1.385 . S
C2771 H2752 0.947 . S
C2771 C2770 1.383 . S
C2771 C2772 1.388 . S
C2772 H2753 0.946 . S
C2772 C2771 1.388 . S
C2772 C2773 1.384 . S
C2773 C2772 1.384 . S
C2773 C2774 1.377 . S
C2774 H2754 0.953 . S
C2774 C2773 1.377 . S
C2774 C2775 1.369 . S
C2775 H2755 0.945 . S
C2775 C2770 1.385 . S
C2775 C2774 1.369 . S
C2776 C2768 1.457 . S
C2776 C2777 1.372 . S
C2776 C2781 1.364 . S
C2777 H2756 0.952 . S
C2777 C2776 1.372 . S
C2777 C2778 1.389 . S
C2778 H2757 0.949 . S
C2778 C2777 1.389 . S
C2778 C2779 1.387 . S
C2779 C2778 1.387 . S
C2779 C2780 1.372 . S
C2780 H2758 0.950 . S
C2780 C2779 1.372 . S
C2780 C2781 1.379 . S
C2781 H2759 0.948 . S
C2781 C2776 1.364 . S
C2781 C2780 1.379 . S
C2782 C2751 1.383 . S
C2782 C2769 1.479 . S
C2782 C2783 1.398 . S
C2783 C2748 1.382 . S
C2783 H2760 0.951 . S
C2783 C2782 1.398 . S
C2784 C2785 1.384 . S
C2784 H2797 0.947 . S
C2784 C2819 1.382 . S
C2785 C2784 1.384 . S
C2785 C2786 1.378 . S
C2786 C2785 1.378 . S
C2786 C2787 1.378 . S
C2786 H2798 0.952 . S
C2787 C2786 1.378 . S
C2787 H2799 0.950 . S
C2787 C2818 1.383 . S
H2788 C2807 0.947 . S
H2789 C2808 0.946 . S
H2790 C2810 0.953 . S
H2791 C2811 0.945 . S
H2792 C2813 0.952 . S
H2793 C2814 0.949 . S
H2794 C2816 0.950 . S
H2795 C2817 0.948 . S
H2796 C2819 0.951 . S
H2797 C2784 0.947 . S
H2798 C2786 0.952 . S
H2799 C2787 0.950 . S
N2800 C2803 1.382 . S
N2800 C2805 1.363 . S
N2801 C2803 1.371 . S
N2801 C2804 1.372 . S
N2802 C2804 1.361 . S
N2802 C2805 1.377 . S
C2803 N2800 1.382 . S
C2803 N2801 1.371 . S
C2803 C2806 1.480 . S
C2804 N2801 1.372 . S
C2804 N2802 1.361 . S
C2804 C2812 1.457 . S
C2805 N2800 1.363 . S
C2805 N2802 1.377 . S
C2805 C2818 1.479 . S
C2806 C2803 1.480 . S
C2806 C2807 1.383 . S
C2806 C2811 1.385 . S
C2807 H2788 0.947 . S
C2807 C2806 1.383 . S
C2807 C2808 1.388 . S
C2808 H2789 0.946 . S
C2808 C2807 1.388 . S
C2808 C2809 1.384 . S
C2809 C2808 1.384 . S
C2809 C2810 1.377 . S
C2810 H2790 0.953 . S
C2810 C2809 1.377 . S
C2810 C2811 1.369 . S
C2811 H2791 0.945 . S
C2811 C2806 1.385 . S
C2811 C2810 1.369 . S
C2812 C2804 1.457 . S
C2812 C2813 1.372 . S
C2812 C2817 1.364 . S
C2813 H2792 0.952 . S
C2813 C2812 1.372 . S
C2813 C2814 1.389 . S
C2814 H2793 0.949 . S
C2814 C2813 1.389 . S
C2814 C2815 1.387 . S
C2815 C2814 1.387 . S
C2815 C2816 1.372 . S
C2816 H2794 0.950 . S
C2816 C2815 1.372 . S
C2816 C2817 1.379 . S
C2817 H2795 0.948 . S
C2817 C2812 1.364 . S
C2817 C2816 1.379 . S
C2818 C2787 1.383 . S
C2818 C2805 1.479 . S
C2818 C2819 1.398 . S
C2819 C2784 1.382 . S
C2819 H2796 0.951 . S
C2819 C2818 1.398 . S
C2820 C2821 1.384 . S
C2820 H2833 0.947 . S
C2820 C2855 1.382 . S
C2821 C2820 1.384 . S
C2821 C2822 1.378 . S
C2822 C2821 1.378 . S
C2822 C2823 1.378 . S
C2822 H2834 0.952 . S
C2823 C2822 1.378 . S
C2823 H2835 0.950 . S
C2823 C2854 1.383 . S
H2824 C2843 0.947 . S
H2825 C2844 0.946 . S
H2826 C2846 0.953 . S
H2827 C2847 0.945 . S
H2828 C2849 0.952 . S
H2829 C2850 0.949 . S
H2830 C2852 0.950 . S
H2831 C2853 0.948 . S
H2832 C2855 0.951 . S
H2833 C2820 0.947 . S
H2834 C2822 0.952 . S
H2835 C2823 0.950 . S
N2836 C2839 1.382 . S
N2836 C2841 1.363 . S
N2837 C2839 1.371 . S
N2837 C2840 1.372 . S
N2838 C2840 1.361 . S
N2838 C2841 1.377 . S
C2839 N2836 1.382 . S
C2839 N2837 1.371 . S
C2839 C2842 1.480 . S
C2840 N2837 1.372 . S
C2840 N2838 1.361 . S
C2840 C2848 1.457 . S
C2841 N2836 1.363 . S
C2841 N2838 1.377 . S
C2841 C2854 1.479 . S
C2842 C2839 1.480 . S
C2842 C2843 1.383 . S
C2842 C2847 1.385 . S
C2843 H2824 0.947 . S
C2843 C2842 1.383 . S
C2843 C2844 1.388 . S
C2844 H2825 0.946 . S
C2844 C2843 1.388 . S
C2844 C2845 1.384 . S
C2845 C2844 1.384 . S
C2845 C2846 1.377 . S
C2846 H2826 0.953 . S
C2846 C2845 1.377 . S
C2846 C2847 1.369 . S
C2847 H2827 0.945 . S
C2847 C2842 1.385 . S
C2847 C2846 1.369 . S
C2848 C2840 1.457 . S
C2848 C2849 1.372 . S
C2848 C2853 1.364 . S
C2849 H2828 0.952 . S
C2849 C2848 1.372 . S
C2849 C2850 1.389 . S
C2850 H2829 0.949 . S
C2850 C2849 1.389 . S
C2850 C2851 1.387 . S
C2851 C2850 1.387 . S
C2851 C2852 1.372 . S
C2852 H2830 0.950 . S
C2852 C2851 1.372 . S
C2852 C2853 1.379 . S
C2853 H2831 0.948 . S
C2853 C2848 1.364 . S
C2853 C2852 1.379 . S
C2854 C2823 1.383 . S
C2854 C2841 1.479 . S
C2854 C2855 1.398 . S
C2855 C2820 1.382 . S
C2855 H2832 0.951 . S
C2855 C2854 1.398 . S
C2856 C2857 1.384 . S
C2856 H2869 0.947 . S
C2856 C2891 1.382 . S
C2857 C2856 1.384 . S
C2857 C2858 1.378 . S
C2858 C2857 1.378 . S
C2858 C2859 1.378 . S
C2858 H2870 0.952 . S
C2859 C2858 1.378 . S
C2859 H2871 0.950 . S
C2859 C2890 1.383 . S
H2860 C2879 0.947 . S
H2861 C2880 0.946 . S
H2862 C2882 0.953 . S
H2863 C2883 0.945 . S
H2864 C2885 0.952 . S
H2865 C2886 0.949 . S
H2866 C2888 0.950 . S
H2867 C2889 0.948 . S
H2868 C2891 0.951 . S
H2869 C2856 0.947 . S
H2870 C2858 0.952 . S
H2871 C2859 0.950 . S
N2872 C2875 1.382 . S
N2872 C2877 1.363 . S
N2873 C2875 1.371 . S
N2873 C2876 1.372 . S
N2874 C2876 1.361 . S
N2874 C2877 1.377 . S
C2875 N2872 1.382 . S
C2875 N2873 1.371 . S
C2875 C2878 1.480 . S
C2876 N2873 1.372 . S
C2876 N2874 1.361 . S
C2876 C2884 1.457 . S
C2877 N2872 1.363 . S
C2877 N2874 1.377 . S
C2877 C2890 1.479 . S
C2878 C2875 1.480 . S
C2878 C2879 1.383 . S
C2878 C2883 1.385 . S
C2879 H2860 0.947 . S
C2879 C2878 1.383 . S
C2879 C2880 1.388 . S
C2880 H2861 0.946 . S
C2880 C2879 1.388 . S
C2880 C2881 1.384 . S
C2881 C2880 1.384 . S
C2881 C2882 1.377 . S
C2882 H2862 0.953 . S
C2882 C2881 1.377 . S
C2882 C2883 1.369 . S
C2883 H2863 0.945 . S
C2883 C2878 1.385 . S
C2883 C2882 1.369 . S
C2884 C2876 1.457 . S
C2884 C2885 1.372 . S
C2884 C2889 1.364 . S
C2885 H2864 0.952 . S
C2885 C2884 1.372 . S
C2885 C2886 1.389 . S
C2886 H2865 0.949 . S
C2886 C2885 1.389 . S
C2886 C2887 1.387 . S
C2887 C2886 1.387 . S
C2887 C2888 1.372 . S
C2888 H2866 0.950 . S
C2888 C2887 1.372 . S
C2888 C2889 1.379 . S
C2889 H2867 0.948 . S
C2889 C2884 1.364 . S
C2889 C2888 1.379 . S
C2890 C2859 1.383 . S
C2890 C2877 1.479 . S
C2890 C2891 1.398 . S
C2891 C2856 1.382 . S
C2891 H2868 0.951 . S
C2891 C2890 1.398 . S
C2892 C2893 1.384 . S
C2892 H2905 0.947 . S
C2892 C2927 1.382 . S
C2893 C2892 1.384 . S
C2893 C2894 1.378 . S
C2894 C2893 1.378 . S
C2894 C2895 1.378 . S
C2894 H2906 0.952 . S
C2895 C2894 1.378 . S
C2895 H2907 0.950 . S
C2895 C2926 1.383 . S
H2896 C2915 0.947 . S
H2897 C2916 0.946 . S
H2898 C2918 0.953 . S
H2899 C2919 0.945 . S
H2900 C2921 0.952 . S
H2901 C2922 0.949 . S
H2902 C2924 0.950 . S
H2903 C2925 0.948 . S
H2904 C2927 0.951 . S
H2905 C2892 0.947 . S
H2906 C2894 0.952 . S
H2907 C2895 0.950 . S
N2908 C2911 1.382 . S
N2908 C2913 1.363 . S
N2909 C2911 1.371 . S
N2909 C2912 1.372 . S
N2910 C2912 1.361 . S
N2910 C2913 1.377 . S
C2911 N2908 1.382 . S
C2911 N2909 1.371 . S
C2911 C2914 1.480 . S
C2912 N2909 1.372 . S
C2912 N2910 1.361 . S
C2912 C2920 1.457 . S
C2913 N2908 1.363 . S
C2913 N2910 1.377 . S
C2913 C2926 1.479 . S
C2914 C2911 1.480 . S
C2914 C2915 1.383 . S
C2914 C2919 1.385 . S
C2915 H2896 0.947 . S
C2915 C2914 1.383 . S
C2915 C2916 1.388 . S
C2916 H2897 0.946 . S
C2916 C2915 1.388 . S
C2916 C2917 1.384 . S
C2917 C2916 1.384 . S
C2917 C2918 1.377 . S
C2918 H2898 0.953 . S
C2918 C2917 1.377 . S
C2918 C2919 1.369 . S
C2919 H2899 0.945 . S
C2919 C2914 1.385 . S
C2919 C2918 1.369 . S
C2920 C2912 1.457 . S
C2920 C2921 1.372 . S
C2920 C2925 1.364 . S
C2921 H2900 0.952 . S
C2921 C2920 1.372 . S
C2921 C2922 1.389 . S
C2922 H2901 0.949 . S
C2922 C2921 1.389 . S
C2922 C2923 1.387 . S
C2923 C2922 1.387 . S
C2923 C2924 1.372 . S
C2924 H2902 0.950 . S
C2924 C2923 1.372 . S
C2924 C2925 1.379 . S
C2925 H2903 0.948 . S
C2925 C2920 1.364 . S
C2925 C2924 1.379 . S
C2926 C2895 1.383 . S
C2926 C2913 1.479 . S
C2926 C2927 1.398 . S
C2927 C2892 1.382 . S
C2927 H2904 0.951 . S
C2927 C2926 1.398 . S
C2928 C2929 1.384 . S
C2928 H2941 0.947 . S
C2928 C2963 1.382 . S
C2929 C2928 1.384 . S
C2929 C2930 1.378 . S
C2930 C2929 1.378 . S
C2930 C2931 1.378 . S
C2930 H2942 0.952 . S
C2931 C2930 1.378 . S
C2931 H2943 0.950 . S
C2931 C2962 1.383 . S
H2932 C2951 0.947 . S
H2933 C2952 0.946 . S
H2934 C2954 0.953 . S
H2935 C2955 0.945 . S
H2936 C2957 0.952 . S
H2937 C2958 0.949 . S
H2938 C2960 0.950 . S
H2939 C2961 0.948 . S
H2940 C2963 0.951 . S
H2941 C2928 0.947 . S
H2942 C2930 0.952 . S
H2943 C2931 0.950 . S
N2944 C2947 1.382 . S
N2944 C2949 1.363 . S
N2945 C2947 1.371 . S
N2945 C2948 1.372 . S
N2946 C2948 1.361 . S
N2946 C2949 1.377 . S
C2947 N2944 1.382 . S
C2947 N2945 1.371 . S
C2947 C2950 1.480 . S
C2948 N2945 1.372 . S
C2948 N2946 1.361 . S
C2948 C2956 1.457 . S
C2949 N2944 1.363 . S
C2949 N2946 1.377 . S
C2949 C2962 1.479 . S
C2950 C2947 1.480 . S
C2950 C2951 1.383 . S
C2950 C2955 1.385 . S
C2951 H2932 0.947 . S
C2951 C2950 1.383 . S
C2951 C2952 1.388 . S
C2952 H2933 0.946 . S
C2952 C2951 1.388 . S
C2952 C2953 1.384 . S
C2953 C2952 1.384 . S
C2953 C2954 1.377 . S
C2954 H2934 0.953 . S
C2954 C2953 1.377 . S
C2954 C2955 1.369 . S
C2955 H2935 0.945 . S
C2955 C2950 1.385 . S
C2955 C2954 1.369 . S
C2956 C2948 1.457 . S
C2956 C2957 1.372 . S
C2956 C2961 1.364 . S
C2957 H2936 0.952 . S
C2957 C2956 1.372 . S
C2957 C2958 1.389 . S
C2958 H2937 0.949 . S
C2958 C2957 1.389 . S
C2958 C2959 1.387 . S
C2959 C2958 1.387 . S
C2959 C2960 1.372 . S
C2960 H2938 0.950 . S
C2960 C2959 1.372 . S
C2960 C2961 1.379 . S
C2961 H2939 0.948 . S
C2961 C2956 1.364 . S
C2961 C2960 1.379 . S
C2962 C2931 1.383 . S
C2962 C2949 1.479 . S
C2962 C2963 1.398 . S
C2963 C2928 1.382 . S
C2963 H2940 0.951 . S
C2963 C2962 1.398 . S
C2964 C2965 1.384 . S
C2964 H2977 0.947 . S
C2964 C2999 1.382 . S
C2965 C2964 1.384 . S
C2965 C2966 1.378 . S
C2966 C2965 1.378 . S
C2966 C2967 1.378 . S
C2966 H2978 0.952 . S
C2967 C2966 1.378 . S
C2967 H2979 0.950 . S
C2967 C2998 1.383 . S
H2968 C2987 0.947 . S
H2969 C2988 0.946 . S
H2970 C2990 0.953 . S
H2971 C2991 0.945 . S
H2972 C2993 0.952 . S
H2973 C2994 0.949 . S
H2974 C2996 0.950 . S
H2975 C2997 0.948 . S
H2976 C2999 0.951 . S
H2977 C2964 0.947 . S
H2978 C2966 0.952 . S
H2979 C2967 0.950 . S
N2980 C2983 1.382 . S
N2980 C2985 1.363 . S
N2981 C2983 1.371 . S
N2981 C2984 1.372 . S
N2982 C2984 1.361 . S
N2982 C2985 1.377 . S
C2983 N2980 1.382 . S
C2983 N2981 1.371 . S
C2983 C2986 1.480 . S
C2984 N2981 1.372 . S
C2984 N2982 1.361 . S
C2984 C2992 1.457 . S
C2985 N2980 1.363 . S
C2985 N2982 1.377 . S
C2985 C2998 1.479 . S
C2986 C2983 1.480 . S
C2986 C2987 1.383 . S
C2986 C2991 1.385 . S
C2987 H2968 0.947 . S
C2987 C2986 1.383 . S
C2987 C2988 1.388 . S
C2988 H2969 0.946 . S
C2988 C2987 1.388 . S
C2988 C2989 1.384 . S
C2989 C2988 1.384 . S
C2989 C2990 1.377 . S
C2990 H2970 0.953 . S
C2990 C2989 1.377 . S
C2990 C2991 1.369 . S
C2991 H2971 0.945 . S
C2991 C2986 1.385 . S
C2991 C2990 1.369 . S
C2992 C2984 1.457 . S
C2992 C2993 1.372 . S
C2992 C2997 1.364 . S
C2993 H2972 0.952 . S
C2993 C2992 1.372 . S
C2993 C2994 1.389 . S
C2994 H2973 0.949 . S
C2994 C2993 1.389 . S
C2994 C2995 1.387 . S
C2995 C2994 1.387 . S
C2995 C2996 1.372 . S
C2996 H2974 0.950 . S
C2996 C2995 1.372 . S
C2996 C2997 1.379 . S
C2997 H2975 0.948 . S
C2997 C2992 1.364 . S
C2997 C2996 1.379 . S
C2998 C2967 1.383 . S
C2998 C2985 1.479 . S
C2998 C2999 1.398 . S
C2999 C2964 1.382 . S
C2999 H2976 0.951 . S
C2999 C2998 1.398 . S
C3000 C3001 1.384 . S
C3000 H3013 0.947 . S
C3000 C3035 1.382 . S
C3001 C3000 1.384 . S
C3001 C3002 1.378 . S
C3002 C3001 1.378 . S
C3002 C3003 1.378 . S
C3002 H3014 0.952 . S
C3003 C3002 1.378 . S
C3003 H3015 0.950 . S
C3003 C3034 1.383 . S
H3004 C3023 0.947 . S
H3005 C3024 0.946 . S
H3006 C3026 0.953 . S
H3007 C3027 0.945 . S
H3008 C3029 0.952 . S
H3009 C3030 0.949 . S
H3010 C3032 0.950 . S
H3011 C3033 0.948 . S
H3012 C3035 0.951 . S
H3013 C3000 0.947 . S
H3014 C3002 0.952 . S
H3015 C3003 0.950 . S
N3016 C3019 1.382 . S
N3016 C3021 1.363 . S
N3017 C3019 1.371 . S
N3017 C3020 1.372 . S
N3018 C3020 1.361 . S
N3018 C3021 1.377 . S
C3019 N3016 1.382 . S
C3019 N3017 1.371 . S
C3019 C3022 1.480 . S
C3020 N3017 1.372 . S
C3020 N3018 1.361 . S
C3020 C3028 1.457 . S
C3021 N3016 1.363 . S
C3021 N3018 1.377 . S
C3021 C3034 1.479 . S
C3022 C3019 1.480 . S
C3022 C3023 1.383 . S
C3022 C3027 1.385 . S
C3023 H3004 0.947 . S
C3023 C3022 1.383 . S
C3023 C3024 1.388 . S
C3024 H3005 0.946 . S
C3024 C3023 1.388 . S
C3024 C3025 1.384 . S
C3025 C3024 1.384 . S
C3025 C3026 1.377 . S
C3026 H3006 0.953 . S
C3026 C3025 1.377 . S
C3026 C3027 1.369 . S
C3027 H3007 0.945 . S
C3027 C3022 1.385 . S
C3027 C3026 1.369 . S
C3028 C3020 1.457 . S
C3028 C3029 1.372 . S
C3028 C3033 1.364 . S
C3029 H3008 0.952 . S
C3029 C3028 1.372 . S
C3029 C3030 1.389 . S
C3030 H3009 0.949 . S
C3030 C3029 1.389 . S
C3030 C3031 1.387 . S
C3031 C3030 1.387 . S
C3031 C3032 1.372 . S
C3032 H3010 0.950 . S
C3032 C3031 1.372 . S
C3032 C3033 1.379 . S
C3033 H3011 0.948 . S
C3033 C3028 1.364 . S
C3033 C3032 1.379 . S
C3034 C3003 1.383 . S
C3034 C3021 1.479 . S
C3034 C3035 1.398 . S
C3035 C3000 1.382 . S
C3035 H3012 0.951 . S
C3035 C3034 1.398 . S
C3036 C3037 1.384 . S
C3036 H3049 0.947 . S
C3036 C3071 1.382 . S
C3037 C3036 1.384 . S
C3037 C3038 1.378 . S
C3038 C3037 1.378 . S
C3038 C3039 1.378 . S
C3038 H3050 0.952 . S
C3039 C3038 1.378 . S
C3039 H3051 0.950 . S
C3039 C3070 1.383 . S
H3040 C3059 0.947 . S
H3041 C3060 0.946 . S
H3042 C3062 0.953 . S
H3043 C3063 0.945 . S
H3044 C3065 0.952 . S
H3045 C3066 0.949 . S
H3046 C3068 0.950 . S
H3047 C3069 0.948 . S
H3048 C3071 0.951 . S
H3049 C3036 0.947 . S
H3050 C3038 0.952 . S
H3051 C3039 0.950 . S
N3052 C3055 1.382 . S
N3052 C3057 1.363 . S
N3053 C3055 1.371 . S
N3053 C3056 1.372 . S
N3054 C3056 1.361 . S
N3054 C3057 1.377 . S
C3055 N3052 1.382 . S
C3055 N3053 1.371 . S
C3055 C3058 1.480 . S
C3056 N3053 1.372 . S
C3056 N3054 1.361 . S
C3056 C3064 1.457 . S
C3057 N3052 1.363 . S
C3057 N3054 1.377 . S
C3057 C3070 1.479 . S
C3058 C3055 1.480 . S
C3058 C3059 1.383 . S
C3058 C3063 1.385 . S
C3059 H3040 0.947 . S
C3059 C3058 1.383 . S
C3059 C3060 1.388 . S
C3060 H3041 0.946 . S
C3060 C3059 1.388 . S
C3060 C3061 1.384 . S
C3061 C3060 1.384 . S
C3061 C3062 1.377 . S
C3062 H3042 0.953 . S
C3062 C3061 1.377 . S
C3062 C3063 1.369 . S
C3063 H3043 0.945 . S
C3063 C3058 1.385 . S
C3063 C3062 1.369 . S
C3064 C3056 1.457 . S
C3064 C3065 1.372 . S
C3064 C3069 1.364 . S
C3065 H3044 0.952 . S
C3065 C3064 1.372 . S
C3065 C3066 1.389 . S
C3066 H3045 0.949 . S
C3066 C3065 1.389 . S
C3066 C3067 1.387 . S
C3067 C3066 1.387 . S
C3067 C3068 1.372 . S
C3068 H3046 0.950 . S
C3068 C3067 1.372 . S
C3068 C3069 1.379 . S
C3069 H3047 0.948 . S
C3069 C3064 1.364 . S
C3069 C3068 1.379 . S
C3070 C3039 1.383 . S
C3070 C3057 1.479 . S
C3070 C3071 1.398 . S
C3071 C3036 1.382 . S
C3071 H3048 0.951 . S
C3071 C3070 1.398 . S
C3072 C3073 1.384 . S
C3072 H3085 0.947 . S
C3072 C3107 1.382 . S
C3073 C3072 1.384 . S
C3073 C3074 1.378 . S
C3074 C3073 1.378 . S
C3074 C3075 1.378 . S
C3074 H3086 0.952 . S
C3075 C3074 1.378 . S
C3075 H3087 0.950 . S
C3075 C3106 1.383 . S
H3076 C3095 0.947 . S
H3077 C3096 0.946 . S
H3078 C3098 0.953 . S
H3079 C3099 0.945 . S
H3080 C3101 0.952 . S
H3081 C3102 0.949 . S
H3082 C3104 0.950 . S
H3083 C3105 0.948 . S
H3084 C3107 0.951 . S
H3085 C3072 0.947 . S
H3086 C3074 0.952 . S
H3087 C3075 0.950 . S
N3088 C3091 1.382 . S
N3088 C3093 1.363 . S
N3089 C3091 1.371 . S
N3089 C3092 1.372 . S
N3090 C3092 1.361 . S
N3090 C3093 1.377 . S
C3091 N3088 1.382 . S
C3091 N3089 1.371 . S
C3091 C3094 1.480 . S
C3092 N3089 1.372 . S
C3092 N3090 1.361 . S
C3092 C3100 1.457 . S
C3093 N3088 1.363 . S
C3093 N3090 1.377 . S
C3093 C3106 1.479 . S
C3094 C3091 1.480 . S
C3094 C3095 1.383 . S
C3094 C3099 1.385 . S
C3095 H3076 0.947 . S
C3095 C3094 1.383 . S
C3095 C3096 1.388 . S
C3096 H3077 0.946 . S
C3096 C3095 1.388 . S
C3096 C3097 1.384 . S
C3097 C3096 1.384 . S
C3097 C3098 1.377 . S
C3098 H3078 0.953 . S
C3098 C3097 1.377 . S
C3098 C3099 1.369 . S
C3099 H3079 0.945 . S
C3099 C3094 1.385 . S
C3099 C3098 1.369 . S
C3100 C3092 1.457 . S
C3100 C3101 1.372 . S
C3100 C3105 1.364 . S
C3101 H3080 0.952 . S
C3101 C3100 1.372 . S
C3101 C3102 1.389 . S
C3102 H3081 0.949 . S
C3102 C3101 1.389 . S
C3102 C3103 1.387 . S
C3103 C3102 1.387 . S
C3103 C3104 1.372 . S
C3104 H3082 0.950 . S
C3104 C3103 1.372 . S
C3104 C3105 1.379 . S
C3105 H3083 0.948 . S
C3105 C3100 1.364 . S
C3105 C3104 1.379 . S
C3106 C3075 1.383 . S
C3106 C3093 1.479 . S
C3106 C3107 1.398 . S
C3107 C3072 1.382 . S
C3107 H3084 0.951 . S
C3107 C3106 1.398 . S
C3108 C3109 1.384 . S
C3108 H3121 0.947 . S
C3108 C3143 1.382 . S
C3109 C3108 1.384 . S
C3109 C3110 1.378 . S
C3110 C3109 1.378 . S
C3110 C3111 1.378 . S
C3110 H3122 0.952 . S
C3111 C3110 1.378 . S
C3111 H3123 0.950 . S
C3111 C3142 1.383 . S
H3112 C3131 0.947 . S
H3113 C3132 0.946 . S
H3114 C3134 0.953 . S
H3115 C3135 0.945 . S
H3116 C3137 0.952 . S
H3117 C3138 0.949 . S
H3118 C3140 0.950 . S
H3119 C3141 0.948 . S
H3120 C3143 0.951 . S
H3121 C3108 0.947 . S
H3122 C3110 0.952 . S
H3123 C3111 0.950 . S
N3124 C3127 1.382 . S
N3124 C3129 1.363 . S
N3125 C3127 1.371 . S
N3125 C3128 1.372 . S
N3126 C3128 1.361 . S
N3126 C3129 1.377 . S
C3127 N3124 1.382 . S
C3127 N3125 1.371 . S
C3127 C3130 1.480 . S
C3128 N3125 1.372 . S
C3128 N3126 1.361 . S
C3128 C3136 1.457 . S
C3129 N3124 1.363 . S
C3129 N3126 1.377 . S
C3129 C3142 1.479 . S
C3130 C3127 1.480 . S
C3130 C3131 1.383 . S
C3130 C3135 1.385 . S
C3131 H3112 0.947 . S
C3131 C3130 1.383 . S
C3131 C3132 1.388 . S
C3132 H3113 0.946 . S
C3132 C3131 1.388 . S
C3132 C3133 1.384 . S
C3133 C3132 1.384 . S
C3133 C3134 1.377 . S
C3134 H3114 0.953 . S
C3134 C3133 1.377 . S
C3134 C3135 1.369 . S
C3135 H3115 0.945 . S
C3135 C3130 1.385 . S
C3135 C3134 1.369 . S
C3136 C3128 1.457 . S
C3136 C3137 1.372 . S
C3136 C3141 1.364 . S
C3137 H3116 0.952 . S
C3137 C3136 1.372 . S
C3137 C3138 1.389 . S
C3138 H3117 0.949 . S
C3138 C3137 1.389 . S
C3138 C3139 1.387 . S
C3139 C3138 1.387 . S
C3139 C3140 1.372 . S
C3140 H3118 0.950 . S
C3140 C3139 1.372 . S
C3140 C3141 1.379 . S
C3141 H3119 0.948 . S
C3141 C3136 1.364 . S
C3141 C3140 1.379 . S
C3142 C3111 1.383 . S
C3142 C3129 1.479 . S
C3142 C3143 1.398 . S
C3143 C3108 1.382 . S
C3143 H3120 0.951 . S
C3143 C3142 1.398 . S
C3144 C3145 1.384 . S
C3144 H3157 0.947 . S
C3144 C3179 1.382 . S
C3145 C3144 1.384 . S
C3145 C3146 1.378 . S
C3146 C3145 1.378 . S
C3146 C3147 1.378 . S
C3146 H3158 0.952 . S
C3147 C3146 1.378 . S
C3147 H3159 0.950 . S
C3147 C3178 1.383 . S
H3148 C3167 0.947 . S
H3149 C3168 0.946 . S
H3150 C3170 0.953 . S
H3151 C3171 0.945 . S
H3152 C3173 0.952 . S
H3153 C3174 0.949 . S
H3154 C3176 0.950 . S
H3155 C3177 0.948 . S
H3156 C3179 0.951 . S
H3157 C3144 0.947 . S
H3158 C3146 0.952 . S
H3159 C3147 0.950 . S
N3160 C3163 1.382 . S
N3160 C3165 1.363 . S
N3161 C3163 1.371 . S
N3161 C3164 1.372 . S
N3162 C3164 1.361 . S
N3162 C3165 1.377 . S
C3163 N3160 1.382 . S
C3163 N3161 1.371 . S
C3163 C3166 1.480 . S
C3164 N3161 1.372 . S
C3164 N3162 1.361 . S
C3164 C3172 1.457 . S
C3165 N3160 1.363 . S
C3165 N3162 1.377 . S
C3165 C3178 1.479 . S
C3166 C3163 1.480 . S
C3166 C3167 1.383 . S
C3166 C3171 1.385 . S
C3167 H3148 0.947 . S
C3167 C3166 1.383 . S
C3167 C3168 1.388 . S
C3168 H3149 0.946 . S
C3168 C3167 1.388 . S
C3168 C3169 1.384 . S
C3169 C3168 1.384 . S
C3169 C3170 1.377 . S
C3170 H3150 0.953 . S
C3170 C3169 1.377 . S
C3170 C3171 1.369 . S
C3171 H3151 0.945 . S
C3171 C3166 1.385 . S
C3171 C3170 1.369 . S
C3172 C3164 1.457 . S
C3172 C3173 1.372 . S
C3172 C3177 1.364 . S
C3173 H3152 0.952 . S
C3173 C3172 1.372 . S
C3173 C3174 1.389 . S
C3174 H3153 0.949 . S
C3174 C3173 1.389 . S
C3174 C3175 1.387 . S
C3175 C3174 1.387 . S
C3175 C3176 1.372 . S
C3176 H3154 0.950 . S
C3176 C3175 1.372 . S
C3176 C3177 1.379 . S
C3177 H3155 0.948 . S
C3177 C3172 1.364 . S
C3177 C3176 1.379 . S
C3178 C3147 1.383 . S
C3178 C3165 1.479 . S
C3178 C3179 1.398 . S
C3179 C3144 1.382 . S
C3179 H3156 0.951 . S
C3179 C3178 1.398 . S
C3180 C3181 1.384 . S
C3180 H3193 0.947 . S
C3180 C3215 1.382 . S
C3181 C3180 1.384 . S
C3181 C3182 1.378 . S
C3182 C3181 1.378 . S
C3182 C3183 1.378 . S
C3182 H3194 0.952 . S
C3183 C3182 1.378 . S
C3183 H3195 0.950 . S
C3183 C3214 1.383 . S
H3184 C3203 0.947 . S
H3185 C3204 0.946 . S
H3186 C3206 0.953 . S
H3187 C3207 0.945 . S
H3188 C3209 0.952 . S
H3189 C3210 0.949 . S
H3190 C3212 0.950 . S
H3191 C3213 0.948 . S
H3192 C3215 0.951 . S
H3193 C3180 0.947 . S
H3194 C3182 0.952 . S
H3195 C3183 0.950 . S
N3196 C3199 1.382 . S
N3196 C3201 1.363 . S
N3197 C3199 1.371 . S
N3197 C3200 1.372 . S
N3198 C3200 1.361 . S
N3198 C3201 1.377 . S
C3199 N3196 1.382 . S
C3199 N3197 1.371 . S
C3199 C3202 1.480 . S
C3200 N3197 1.372 . S
C3200 N3198 1.361 . S
C3200 C3208 1.457 . S
C3201 N3196 1.363 . S
C3201 N3198 1.377 . S
C3201 C3214 1.479 . S
C3202 C3199 1.480 . S
C3202 C3203 1.383 . S
C3202 C3207 1.385 . S
C3203 H3184 0.947 . S
C3203 C3202 1.383 . S
C3203 C3204 1.388 . S
C3204 H3185 0.946 . S
C3204 C3203 1.388 . S
C3204 C3205 1.384 . S
C3205 C3204 1.384 . S
C3205 C3206 1.377 . S
C3206 H3186 0.953 . S
C3206 C3205 1.377 . S
C3206 C3207 1.369 . S
C3207 H3187 0.945 . S
C3207 C3202 1.385 . S
C3207 C3206 1.369 . S
C3208 C3200 1.457 . S
C3208 C3209 1.372 . S
C3208 C3213 1.364 . S
C3209 H3188 0.952 . S
C3209 C3208 1.372 . S
C3209 C3210 1.389 . S
C3210 H3189 0.949 . S
C3210 C3209 1.389 . S
C3210 C3211 1.387 . S
C3211 C3210 1.387 . S
C3211 C3212 1.372 . S
C3212 H3190 0.950 . S
C3212 C3211 1.372 . S
C3212 C3213 1.379 . S
C3213 H3191 0.948 . S
C3213 C3208 1.364 . S
C3213 C3212 1.379 . S
C3214 C3183 1.383 . S
C3214 C3201 1.479 . S
C3214 C3215 1.398 . S
C3215 C3180 1.382 . S
C3215 H3192 0.951 . S
C3215 C3214 1.398 . S
C3216 C3217 1.384 . S
C3216 H3229 0.947 . S
C3216 C3251 1.382 . S
C3217 C3216 1.384 . S
C3217 C3218 1.378 . S
C3218 C3217 1.378 . S
C3218 C3219 1.378 . S
C3218 H3230 0.952 . S
C3219 C3218 1.378 . S
C3219 H3231 0.950 . S
C3219 C3250 1.383 . S
H3220 C3239 0.947 . S
H3221 C3240 0.946 . S
H3222 C3242 0.953 . S
H3223 C3243 0.945 . S
H3224 C3245 0.952 . S
H3225 C3246 0.949 . S
H3226 C3248 0.950 . S
H3227 C3249 0.948 . S
H3228 C3251 0.951 . S
H3229 C3216 0.947 . S
H3230 C3218 0.952 . S
H3231 C3219 0.950 . S
N3232 C3235 1.382 . S
N3232 C3237 1.363 . S
N3233 C3235 1.371 . S
N3233 C3236 1.372 . S
N3234 C3236 1.361 . S
N3234 C3237 1.377 . S
C3235 N3232 1.382 . S
C3235 N3233 1.371 . S
C3235 C3238 1.480 . S
C3236 N3233 1.372 . S
C3236 N3234 1.361 . S
C3236 C3244 1.457 . S
C3237 N3232 1.363 . S
C3237 N3234 1.377 . S
C3237 C3250 1.479 . S
C3238 C3235 1.480 . S
C3238 C3239 1.383 . S
C3238 C3243 1.385 . S
C3239 H3220 0.947 . S
C3239 C3238 1.383 . S
C3239 C3240 1.388 . S
C3240 H3221 0.946 . S
C3240 C3239 1.388 . S
C3240 C3241 1.384 . S
C3241 C3240 1.384 . S
C3241 C3242 1.377 . S
C3242 H3222 0.953 . S
C3242 C3241 1.377 . S
C3242 C3243 1.369 . S
C3243 H3223 0.945 . S
C3243 C3238 1.385 . S
C3243 C3242 1.369 . S
C3244 C3236 1.457 . S
C3244 C3245 1.372 . S
C3244 C3249 1.364 . S
C3245 H3224 0.952 . S
C3245 C3244 1.372 . S
C3245 C3246 1.389 . S
C3246 H3225 0.949 . S
C3246 C3245 1.389 . S
C3246 C3247 1.387 . S
C3247 C3246 1.387 . S
C3247 C3248 1.372 . S
C3248 H3226 0.950 . S
C3248 C3247 1.372 . S
C3248 C3249 1.379 . S
C3249 H3227 0.948 . S
C3249 C3244 1.364 . S
C3249 C3248 1.379 . S
C3250 C3219 1.383 . S
C3250 C3237 1.479 . S
C3250 C3251 1.398 . S
C3251 C3216 1.382 . S
C3251 H3228 0.951 . S
C3251 C3250 1.398 . S
C3252 C3253 1.384 . S
C3252 H3265 0.947 . S
C3252 C3287 1.382 . S
C3253 C3252 1.384 . S
C3253 C3254 1.378 . S
C3254 C3253 1.378 . S
C3254 C3255 1.378 . S
C3254 H3266 0.952 . S
C3255 C3254 1.378 . S
C3255 H3267 0.950 . S
C3255 C3286 1.383 . S
H3256 C3275 0.947 . S
H3257 C3276 0.946 . S
H3258 C3278 0.953 . S
H3259 C3279 0.945 . S
H3260 C3281 0.952 . S
H3261 C3282 0.949 . S
H3262 C3284 0.950 . S
H3263 C3285 0.948 . S
H3264 C3287 0.951 . S
H3265 C3252 0.947 . S
H3266 C3254 0.952 . S
H3267 C3255 0.950 . S
N3268 C3271 1.382 . S
N3268 C3273 1.363 . S
N3269 C3271 1.371 . S
N3269 C3272 1.372 . S
N3270 C3272 1.361 . S
N3270 C3273 1.377 . S
C3271 N3268 1.382 . S
C3271 N3269 1.371 . S
C3271 C3274 1.480 . S
C3272 N3269 1.372 . S
C3272 N3270 1.361 . S
C3272 C3280 1.457 . S
C3273 N3268 1.363 . S
C3273 N3270 1.377 . S
C3273 C3286 1.479 . S
C3274 C3271 1.480 . S
C3274 C3275 1.383 . S
C3274 C3279 1.385 . S
C3275 H3256 0.947 . S
C3275 C3274 1.383 . S
C3275 C3276 1.388 . S
C3276 H3257 0.946 . S
C3276 C3275 1.388 . S
C3276 C3277 1.384 . S
C3277 C3276 1.384 . S
C3277 C3278 1.377 . S
C3278 H3258 0.953 . S
C3278 C3277 1.377 . S
C3278 C3279 1.369 . S
C3279 H3259 0.945 . S
C3279 C3274 1.385 . S
C3279 C3278 1.369 . S
C3280 C3272 1.457 . S
C3280 C3281 1.372 . S
C3280 C3285 1.364 . S
C3281 H3260 0.952 . S
C3281 C3280 1.372 . S
C3281 C3282 1.389 . S
C3282 H3261 0.949 . S
C3282 C3281 1.389 . S
C3282 C3283 1.387 . S
C3283 C3282 1.387 . S
C3283 C3284 1.372 . S
C3284 H3262 0.950 . S
C3284 C3283 1.372 . S
C3284 C3285 1.379 . S
C3285 H3263 0.948 . S
C3285 C3280 1.364 . S
C3285 C3284 1.379 . S
C3286 C3255 1.383 . S
C3286 C3273 1.479 . S
C3286 C3287 1.398 . S
C3287 C3252 1.382 . S
C3287 H3264 0.951 . S
C3287 C3286 1.398 . S
C3288 C3289 1.384 . S
C3288 H3301 0.947 . S
C3288 C3323 1.382 . S
C3289 C3288 1.384 . S
C3289 C3290 1.378 . S
C3290 C3289 1.378 . S
C3290 C3291 1.378 . S
C3290 H3302 0.952 . S
C3291 C3290 1.378 . S
C3291 H3303 0.950 . S
C3291 C3322 1.383 . S
H3292 C3311 0.947 . S
H3293 C3312 0.946 . S
H3294 C3314 0.953 . S
H3295 C3315 0.945 . S
H3296 C3317 0.952 . S
H3297 C3318 0.949 . S
H3298 C3320 0.950 . S
H3299 C3321 0.948 . S
H3300 C3323 0.951 . S
H3301 C3288 0.947 . S
H3302 C3290 0.952 . S
H3303 C3291 0.950 . S
N3304 C3307 1.382 . S
N3304 C3309 1.363 . S
N3305 C3307 1.371 . S
N3305 C3308 1.372 . S
N3306 C3308 1.361 . S
N3306 C3309 1.377 . S
C3307 N3304 1.382 . S
C3307 N3305 1.371 . S
C3307 C3310 1.480 . S
C3308 N3305 1.372 . S
C3308 N3306 1.361 . S
C3308 C3316 1.457 . S
C3309 N3304 1.363 . S
C3309 N3306 1.377 . S
C3309 C3322 1.479 . S
C3310 C3307 1.480 . S
C3310 C3311 1.383 . S
C3310 C3315 1.385 . S
C3311 H3292 0.947 . S
C3311 C3310 1.383 . S
C3311 C3312 1.388 . S
C3312 H3293 0.946 . S
C3312 C3311 1.388 . S
C3312 C3313 1.384 . S
C3313 C3312 1.384 . S
C3313 C3314 1.377 . S
C3314 H3294 0.953 . S
C3314 C3313 1.377 . S
C3314 C3315 1.369 . S
C3315 H3295 0.945 . S
C3315 C3310 1.385 . S
C3315 C3314 1.369 . S
C3316 C3308 1.457 . S
C3316 C3317 1.372 . S
C3316 C3321 1.364 . S
C3317 H3296 0.952 . S
C3317 C3316 1.372 . S
C3317 C3318 1.389 . S
C3318 H3297 0.949 . S
C3318 C3317 1.389 . S
C3318 C3319 1.387 . S
C3319 C3318 1.387 . S
C3319 C3320 1.372 . S
C3320 H3298 0.950 . S
C3320 C3319 1.372 . S
C3320 C3321 1.379 . S
C3321 H3299 0.948 . S
C3321 C3316 1.364 . S
C3321 C3320 1.379 . S
C3322 C3291 1.383 . S
C3322 C3309 1.479 . S
C3322 C3323 1.398 . S
C3323 C3288 1.382 . S
C3323 H3300 0.951 . S
C3323 C3322 1.398 . S
C3324 C3325 1.384 . S
C3324 H3337 0.947 . S
C3324 C3359 1.382 . S
C3325 C3324 1.384 . S
C3325 C3326 1.378 . S
C3326 C3325 1.378 . S
C3326 C3327 1.378 . S
C3326 H3338 0.952 . S
C3327 C3326 1.378 . S
C3327 H3339 0.950 . S
C3327 C3358 1.383 . S
H3328 C3347 0.947 . S
H3329 C3348 0.946 . S
H3330 C3350 0.953 . S
H3331 C3351 0.945 . S
H3332 C3353 0.952 . S
H3333 C3354 0.949 . S
H3334 C3356 0.950 . S
H3335 C3357 0.948 . S
H3336 C3359 0.951 . S
H3337 C3324 0.947 . S
H3338 C3326 0.952 . S
H3339 C3327 0.950 . S
N3340 C3343 1.382 . S
N3340 C3345 1.363 . S
N3341 C3343 1.371 . S
N3341 C3344 1.372 . S
N3342 C3344 1.361 . S
N3342 C3345 1.377 . S
C3343 N3340 1.382 . S
C3343 N3341 1.371 . S
C3343 C3346 1.480 . S
C3344 N3341 1.372 . S
C3344 N3342 1.361 . S
C3344 C3352 1.457 . S
C3345 N3340 1.363 . S
C3345 N3342 1.377 . S
C3345 C3358 1.479 . S
C3346 C3343 1.480 . S
C3346 C3347 1.383 . S
C3346 C3351 1.385 . S
C3347 H3328 0.947 . S
C3347 C3346 1.383 . S
C3347 C3348 1.388 . S
C3348 H3329 0.946 . S
C3348 C3347 1.388 . S
C3348 C3349 1.384 . S
C3349 C3348 1.384 . S
C3349 C3350 1.377 . S
C3350 H3330 0.953 . S
C3350 C3349 1.377 . S
C3350 C3351 1.369 . S
C3351 H3331 0.945 . S
C3351 C3346 1.385 . S
C3351 C3350 1.369 . S
C3352 C3344 1.457 . S
C3352 C3353 1.372 . S
C3352 C3357 1.364 . S
C3353 H3332 0.952 . S
C3353 C3352 1.372 . S
C3353 C3354 1.389 . S
C3354 H3333 0.949 . S
C3354 C3353 1.389 . S
C3354 C3355 1.387 . S
C3355 C3354 1.387 . S
C3355 C3356 1.372 . S
C3356 H3334 0.950 . S
C3356 C3355 1.372 . S
C3356 C3357 1.379 . S
C3357 H3335 0.948 . S
C3357 C3352 1.364 . S
C3357 C3356 1.379 . S
C3358 C3327 1.383 . S
C3358 C3345 1.479 . S
C3358 C3359 1.398 . S
C3359 C3324 1.382 . S
C3359 H3336 0.951 . S
C3359 C3358 1.398 . S
C3360 C3361 1.384 . S
C3360 H3373 0.947 . S
C3360 C3395 1.382 . S
C3361 C3360 1.384 . S
C3361 C3362 1.378 . S
C3362 C3361 1.378 . S
C3362 C3363 1.378 . S
C3362 H3374 0.952 . S
C3363 C3362 1.378 . S
C3363 H3375 0.950 . S
C3363 C3394 1.383 . S
H3364 C3383 0.947 . S
H3365 C3384 0.946 . S
H3366 C3386 0.953 . S
H3367 C3387 0.945 . S
H3368 C3389 0.952 . S
H3369 C3390 0.949 . S
H3370 C3392 0.950 . S
H3371 C3393 0.948 . S
H3372 C3395 0.951 . S
H3373 C3360 0.947 . S
H3374 C3362 0.952 . S
H3375 C3363 0.950 . S
N3376 C3379 1.382 . S
N3376 C3381 1.363 . S
N3377 C3379 1.371 . S
N3377 C3380 1.372 . S
N3378 C3380 1.361 . S
N3378 C3381 1.377 . S
C3379 N3376 1.382 . S
C3379 N3377 1.371 . S
C3379 C3382 1.480 . S
C3380 N3377 1.372 . S
C3380 N3378 1.361 . S
C3380 C3388 1.457 . S
C3381 N3376 1.363 . S
C3381 N3378 1.377 . S
C3381 C3394 1.479 . S
C3382 C3379 1.480 . S
C3382 C3383 1.383 . S
C3382 C3387 1.385 . S
C3383 H3364 0.947 . S
C3383 C3382 1.383 . S
C3383 C3384 1.388 . S
C3384 H3365 0.946 . S
C3384 C3383 1.388 . S
C3384 C3385 1.384 . S
C3385 C3384 1.384 . S
C3385 C3386 1.377 . S
C3386 H3366 0.953 . S
C3386 C3385 1.377 . S
C3386 C3387 1.369 . S
C3387 H3367 0.945 . S
C3387 C3382 1.385 . S
C3387 C3386 1.369 . S
C3388 C3380 1.457 . S
C3388 C3389 1.372 . S
C3388 C3393 1.364 . S
C3389 H3368 0.952 . S
C3389 C3388 1.372 . S
C3389 C3390 1.389 . S
C3390 H3369 0.949 . S
C3390 C3389 1.389 . S
C3390 C3391 1.387 . S
C3391 C3390 1.387 . S
C3391 C3392 1.372 . S
C3392 H3370 0.950 . S
C3392 C3391 1.372 . S
C3392 C3393 1.379 . S
C3393 H3371 0.948 . S
C3393 C3388 1.364 . S
C3393 C3392 1.379 . S
C3394 C3363 1.383 . S
C3394 C3381 1.479 . S
C3394 C3395 1.398 . S
C3395 C3360 1.382 . S
C3395 H3372 0.951 . S
C3395 C3394 1.398 . S
C3396 C3397 1.384 . S
C3396 H3409 0.947 . S
C3396 C3431 1.382 . S
C3397 C3396 1.384 . S
C3397 C3398 1.378 . S
C3398 C3397 1.378 . S
C3398 C3399 1.378 . S
C3398 H3410 0.952 . S
C3399 C3398 1.378 . S
C3399 H3411 0.950 . S
C3399 C3430 1.383 . S
H3400 C3419 0.947 . S
H3401 C3420 0.946 . S
H3402 C3422 0.953 . S
H3403 C3423 0.945 . S
H3404 C3425 0.952 . S
H3405 C3426 0.949 . S
H3406 C3428 0.950 . S
H3407 C3429 0.948 . S
H3408 C3431 0.951 . S
H3409 C3396 0.947 . S
H3410 C3398 0.952 . S
H3411 C3399 0.950 . S
N3412 C3415 1.382 . S
N3412 C3417 1.363 . S
N3413 C3415 1.371 . S
N3413 C3416 1.372 . S
N3414 C3416 1.361 . S
N3414 C3417 1.377 . S
C3415 N3412 1.382 . S
C3415 N3413 1.371 . S
C3415 C3418 1.480 . S
C3416 N3413 1.372 . S
C3416 N3414 1.361 . S
C3416 C3424 1.457 . S
C3417 N3412 1.363 . S
C3417 N3414 1.377 . S
C3417 C3430 1.479 . S
C3418 C3415 1.480 . S
C3418 C3419 1.383 . S
C3418 C3423 1.385 . S
C3419 H3400 0.947 . S
C3419 C3418 1.383 . S
C3419 C3420 1.388 . S
C3420 H3401 0.946 . S
C3420 C3419 1.388 . S
C3420 C3421 1.384 . S
C3421 C3420 1.384 . S
C3421 C3422 1.377 . S
C3422 H3402 0.953 . S
C3422 C3421 1.377 . S
C3422 C3423 1.369 . S
C3423 H3403 0.945 . S
C3423 C3418 1.385 . S
C3423 C3422 1.369 . S
C3424 C3416 1.457 . S
C3424 C3425 1.372 . S
C3424 C3429 1.364 . S
C3425 H3404 0.952 . S
C3425 C3424 1.372 . S
C3425 C3426 1.389 . S
C3426 H3405 0.949 . S
C3426 C3425 1.389 . S
C3426 C3427 1.387 . S
C3427 C3426 1.387 . S
C3427 C3428 1.372 . S
C3428 H3406 0.950 . S
C3428 C3427 1.372 . S
C3428 C3429 1.379 . S
C3429 H3407 0.948 . S
C3429 C3424 1.364 . S
C3429 C3428 1.379 . S
C3430 C3399 1.383 . S
C3430 C3417 1.479 . S
C3430 C3431 1.398 . S
C3431 C3396 1.382 . S
C3431 H3408 0.951 . S
C3431 C3430 1.398 . S
C3432 C3433 1.384 . S
C3432 H3445 0.947 . S
C3432 C3467 1.382 . S
C3433 C3432 1.384 . S
C3433 C3434 1.378 . S
C3434 C3433 1.378 . S
C3434 C3435 1.378 . S
C3434 H3446 0.952 . S
C3435 C3434 1.378 . S
C3435 H3447 0.950 . S
C3435 C3466 1.383 . S
H3436 C3455 0.947 . S
H3437 C3456 0.946 . S
H3438 C3458 0.953 . S
H3439 C3459 0.945 . S
H3440 C3461 0.952 . S
H3441 C3462 0.949 . S
H3442 C3464 0.950 . S
H3443 C3465 0.948 . S
H3444 C3467 0.951 . S
H3445 C3432 0.947 . S
H3446 C3434 0.952 . S
H3447 C3435 0.950 . S
N3448 C3451 1.382 . S
N3448 C3453 1.363 . S
N3449 C3451 1.371 . S
N3449 C3452 1.372 . S
N3450 C3452 1.361 . S
N3450 C3453 1.377 . S
C3451 N3448 1.382 . S
C3451 N3449 1.371 . S
C3451 C3454 1.480 . S
C3452 N3449 1.372 . S
C3452 N3450 1.361 . S
C3452 C3460 1.457 . S
C3453 N3448 1.363 . S
C3453 N3450 1.377 . S
C3453 C3466 1.479 . S
C3454 C3451 1.480 . S
C3454 C3455 1.383 . S
C3454 C3459 1.385 . S
C3455 H3436 0.947 . S
C3455 C3454 1.383 . S
C3455 C3456 1.388 . S
C3456 H3437 0.946 . S
C3456 C3455 1.388 . S
C3456 C3457 1.384 . S
C3457 C3456 1.384 . S
C3457 C3458 1.377 . S
C3458 H3438 0.953 . S
C3458 C3457 1.377 . S
C3458 C3459 1.369 . S
C3459 H3439 0.945 . S
C3459 C3454 1.385 . S
C3459 C3458 1.369 . S
C3460 C3452 1.457 . S
C3460 C3461 1.372 . S
C3460 C3465 1.364 . S
C3461 H3440 0.952 . S
C3461 C3460 1.372 . S
C3461 C3462 1.389 . S
C3462 H3441 0.949 . S
C3462 C3461 1.389 . S
C3462 C3463 1.387 . S
C3463 C3462 1.387 . S
C3463 C3464 1.372 . S
C3464 H3442 0.950 . S
C3464 C3463 1.372 . S
C3464 C3465 1.379 . S
C3465 H3443 0.948 . S
C3465 C3460 1.364 . S
C3465 C3464 1.379 . S
C3466 C3435 1.383 . S
C3466 C3453 1.479 . S
C3466 C3467 1.398 . S
C3467 C3432 1.382 . S
C3467 H3444 0.951 . S
C3467 C3466 1.398 . S
C3468 C3469 1.384 . S
C3468 H3481 0.947 . S
C3468 C3503 1.382 . S
C3469 C3468 1.384 . S
C3469 C3470 1.378 . S
C3470 C3469 1.378 . S
C3470 C3471 1.378 . S
C3470 H3482 0.952 . S
C3471 C3470 1.378 . S
C3471 H3483 0.950 . S
C3471 C3502 1.383 . S
H3472 C3491 0.947 . S
H3473 C3492 0.946 . S
H3474 C3494 0.953 . S
H3475 C3495 0.945 . S
H3476 C3497 0.952 . S
H3477 C3498 0.949 . S
H3478 C3500 0.950 . S
H3479 C3501 0.948 . S
H3480 C3503 0.951 . S
H3481 C3468 0.947 . S
H3482 C3470 0.952 . S
H3483 C3471 0.950 . S
N3484 C3487 1.382 . S
N3484 C3489 1.363 . S
N3485 C3487 1.371 . S
N3485 C3488 1.372 . S
N3486 C3488 1.361 . S
N3486 C3489 1.377 . S
C3487 N3484 1.382 . S
C3487 N3485 1.371 . S
C3487 C3490 1.480 . S
C3488 N3485 1.372 . S
C3488 N3486 1.361 . S
C3488 C3496 1.457 . S
C3489 N3484 1.363 . S
C3489 N3486 1.377 . S
C3489 C3502 1.479 . S
C3490 C3487 1.480 . S
C3490 C3491 1.383 . S
C3490 C3495 1.385 . S
C3491 H3472 0.947 . S
C3491 C3490 1.383 . S
C3491 C3492 1.388 . S
C3492 H3473 0.946 . S
C3492 C3491 1.388 . S
C3492 C3493 1.384 . S
C3493 C3492 1.384 . S
C3493 C3494 1.377 . S
C3494 H3474 0.953 . S
C3494 C3493 1.377 . S
C3494 C3495 1.369 . S
C3495 H3475 0.945 . S
C3495 C3490 1.385 . S
C3495 C3494 1.369 . S
C3496 C3488 1.457 . S
C3496 C3497 1.372 . S
C3496 C3501 1.364 . S
C3497 H3476 0.952 . S
C3497 C3496 1.372 . S
C3497 C3498 1.389 . S
C3498 H3477 0.949 . S
C3498 C3497 1.389 . S
C3498 C3499 1.387 . S
C3499 C3498 1.387 . S
C3499 C3500 1.372 . S
C3500 H3478 0.950 . S
C3500 C3499 1.372 . S
C3500 C3501 1.379 . S
C3501 H3479 0.948 . S
C3501 C3496 1.364 . S
C3501 C3500 1.379 . S
C3502 C3471 1.383 . S
C3502 C3489 1.479 . S
C3502 C3503 1.398 . S
C3503 C3468 1.382 . S
C3503 H3480 0.951 . S
C3503 C3502 1.398 . S
C3504 C3505 1.384 . S
C3504 H3517 0.947 . S
C3504 C3539 1.382 . S
C3505 C3504 1.384 . S
C3505 C3506 1.378 . S
C3506 C3505 1.378 . S
C3506 C3507 1.378 . S
C3506 H3518 0.952 . S
C3507 C3506 1.378 . S
C3507 H3519 0.950 . S
C3507 C3538 1.383 . S
H3508 C3527 0.947 . S
H3509 C3528 0.946 . S
H3510 C3530 0.953 . S
H3511 C3531 0.945 . S
H3512 C3533 0.952 . S
H3513 C3534 0.949 . S
H3514 C3536 0.950 . S
H3515 C3537 0.948 . S
H3516 C3539 0.951 . S
H3517 C3504 0.947 . S
H3518 C3506 0.952 . S
H3519 C3507 0.950 . S
N3520 C3523 1.382 . S
N3520 C3525 1.363 . S
N3521 C3523 1.371 . S
N3521 C3524 1.372 . S
N3522 C3524 1.361 . S
N3522 C3525 1.377 . S
C3523 N3520 1.382 . S
C3523 N3521 1.371 . S
C3523 C3526 1.480 . S
C3524 N3521 1.372 . S
C3524 N3522 1.361 . S
C3524 C3532 1.457 . S
C3525 N3520 1.363 . S
C3525 N3522 1.377 . S
C3525 C3538 1.479 . S
C3526 C3523 1.480 . S
C3526 C3527 1.383 . S
C3526 C3531 1.385 . S
C3527 H3508 0.947 . S
C3527 C3526 1.383 . S
C3527 C3528 1.388 . S
C3528 H3509 0.946 . S
C3528 C3527 1.388 . S
C3528 C3529 1.384 . S
C3529 C3528 1.384 . S
C3529 C3530 1.377 . S
C3530 H3510 0.953 . S
C3530 C3529 1.377 . S
C3530 C3531 1.369 . S
C3531 H3511 0.945 . S
C3531 C3526 1.385 . S
C3531 C3530 1.369 . S
C3532 C3524 1.457 . S
C3532 C3533 1.372 . S
C3532 C3537 1.364 . S
C3533 H3512 0.952 . S
C3533 C3532 1.372 . S
C3533 C3534 1.389 . S
C3534 H3513 0.949 . S
C3534 C3533 1.389 . S
C3534 C3535 1.387 . S
C3535 C3534 1.387 . S
C3535 C3536 1.372 . S
C3536 H3514 0.950 . S
C3536 C3535 1.372 . S
C3536 C3537 1.379 . S
C3537 H3515 0.948 . S
C3537 C3532 1.364 . S
C3537 C3536 1.379 . S
C3538 C3507 1.383 . S
C3538 C3525 1.479 . S
C3538 C3539 1.398 . S
C3539 C3504 1.382 . S
C3539 H3516 0.951 . S
C3539 C3538 1.398 . S
C3540 C3541 1.384 . S
C3540 H3553 0.947 . S
C3540 C3575 1.382 . S
C3541 C3540 1.384 . S
C3541 C3542 1.378 . S
C3542 C3541 1.378 . S
C3542 C3543 1.378 . S
C3542 H3554 0.952 . S
C3543 C3542 1.378 . S
C3543 H3555 0.950 . S
C3543 C3574 1.383 . S
H3544 C3563 0.947 . S
H3545 C3564 0.946 . S
H3546 C3566 0.953 . S
H3547 C3567 0.945 . S
H3548 C3569 0.952 . S
H3549 C3570 0.949 . S
H3550 C3572 0.950 . S
H3551 C3573 0.948 . S
H3552 C3575 0.951 . S
H3553 C3540 0.947 . S
H3554 C3542 0.952 . S
H3555 C3543 0.950 . S
N3556 C3559 1.382 . S
N3556 C3561 1.363 . S
N3557 C3559 1.371 . S
N3557 C3560 1.372 . S
N3558 C3560 1.361 . S
N3558 C3561 1.377 . S
C3559 N3556 1.382 . S
C3559 N3557 1.371 . S
C3559 C3562 1.480 . S
C3560 N3557 1.372 . S
C3560 N3558 1.361 . S
C3560 C3568 1.457 . S
C3561 N3556 1.363 . S
C3561 N3558 1.377 . S
C3561 C3574 1.479 . S
C3562 C3559 1.480 . S
C3562 C3563 1.383 . S
C3562 C3567 1.385 . S
C3563 H3544 0.947 . S
C3563 C3562 1.383 . S
C3563 C3564 1.388 . S
C3564 H3545 0.946 . S
C3564 C3563 1.388 . S
C3564 C3565 1.384 . S
C3565 C3564 1.384 . S
C3565 C3566 1.377 . S
C3566 H3546 0.953 . S
C3566 C3565 1.377 . S
C3566 C3567 1.369 . S
C3567 H3547 0.945 . S
C3567 C3562 1.385 . S
C3567 C3566 1.369 . S
C3568 C3560 1.457 . S
C3568 C3569 1.372 . S
C3568 C3573 1.364 . S
C3569 H3548 0.952 . S
C3569 C3568 1.372 . S
C3569 C3570 1.389 . S
C3570 H3549 0.949 . S
C3570 C3569 1.389 . S
C3570 C3571 1.387 . S
C3571 C3570 1.387 . S
C3571 C3572 1.372 . S
C3572 H3550 0.950 . S
C3572 C3571 1.372 . S
C3572 C3573 1.379 . S
C3573 H3551 0.948 . S
C3573 C3568 1.364 . S
C3573 C3572 1.379 . S
C3574 C3543 1.383 . S
C3574 C3561 1.479 . S
C3574 C3575 1.398 . S
C3575 C3540 1.382 . S
C3575 H3552 0.951 . S
C3575 C3574 1.398 . S
C3576 C3577 1.384 . S
C3576 H3589 0.947 . S
C3576 C3611 1.382 . S
C3577 C3576 1.384 . S
C3577 C3578 1.378 . S
C3578 C3577 1.378 . S
C3578 C3579 1.378 . S
C3578 H3590 0.952 . S
C3579 C3578 1.378 . S
C3579 H3591 0.950 . S
C3579 C3610 1.383 . S
H3580 C3599 0.947 . S
H3581 C3600 0.946 . S
H3582 C3602 0.953 . S
H3583 C3603 0.945 . S
H3584 C3605 0.952 . S
H3585 C3606 0.949 . S
H3586 C3608 0.950 . S
H3587 C3609 0.948 . S
H3588 C3611 0.951 . S
H3589 C3576 0.947 . S
H3590 C3578 0.952 . S
H3591 C3579 0.950 . S
N3592 C3595 1.382 . S
N3592 C3597 1.363 . S
N3593 C3595 1.371 . S
N3593 C3596 1.372 . S
N3594 C3596 1.361 . S
N3594 C3597 1.377 . S
C3595 N3592 1.382 . S
C3595 N3593 1.371 . S
C3595 C3598 1.480 . S
C3596 N3593 1.372 . S
C3596 N3594 1.361 . S
C3596 C3604 1.457 . S
C3597 N3592 1.363 . S
C3597 N3594 1.377 . S
C3597 C3610 1.479 . S
C3598 C3595 1.480 . S
C3598 C3599 1.383 . S
C3598 C3603 1.385 . S
C3599 H3580 0.947 . S
C3599 C3598 1.383 . S
C3599 C3600 1.388 . S
C3600 H3581 0.946 . S
C3600 C3599 1.388 . S
C3600 C3601 1.384 . S
C3601 C3600 1.384 . S
C3601 C3602 1.377 . S
C3602 H3582 0.953 . S
C3602 C3601 1.377 . S
C3602 C3603 1.369 . S
C3603 H3583 0.945 . S
C3603 C3598 1.385 . S
C3603 C3602 1.369 . S
C3604 C3596 1.457 . S
C3604 C3605 1.372 . S
C3604 C3609 1.364 . S
C3605 H3584 0.952 . S
C3605 C3604 1.372 . S
C3605 C3606 1.389 . S
C3606 H3585 0.949 . S
C3606 C3605 1.389 . S
C3606 C3607 1.387 . S
C3607 C3606 1.387 . S
C3607 C3608 1.372 . S
C3608 H3586 0.950 . S
C3608 C3607 1.372 . S
C3608 C3609 1.379 . S
C3609 H3587 0.948 . S
C3609 C3604 1.364 . S
C3609 C3608 1.379 . S
C3610 C3579 1.383 . S
C3610 C3597 1.479 . S
C3610 C3611 1.398 . S
C3611 C3576 1.382 . S
C3611 H3588 0.951 . S
C3611 C3610 1.398 . S
C3612 C3613 1.384 . S
C3612 H3625 0.947 . S
C3612 C3647 1.382 . S
C3613 C3612 1.384 . S
C3613 C3614 1.378 . S
C3614 C3613 1.378 . S
C3614 C3615 1.378 . S
C3614 H3626 0.952 . S
C3615 C3614 1.378 . S
C3615 H3627 0.950 . S
C3615 C3646 1.383 . S
H3616 C3635 0.947 . S
H3617 C3636 0.946 . S
H3618 C3638 0.953 . S
H3619 C3639 0.945 . S
H3620 C3641 0.952 . S
H3621 C3642 0.949 . S
H3622 C3644 0.950 . S
H3623 C3645 0.948 . S
H3624 C3647 0.951 . S
H3625 C3612 0.947 . S
H3626 C3614 0.952 . S
H3627 C3615 0.950 . S
N3628 C3631 1.382 . S
N3628 C3633 1.363 . S
N3629 C3631 1.371 . S
N3629 C3632 1.372 . S
N3630 C3632 1.361 . S
N3630 C3633 1.377 . S
C3631 N3628 1.382 . S
C3631 N3629 1.371 . S
C3631 C3634 1.480 . S
C3632 N3629 1.372 . S
C3632 N3630 1.361 . S
C3632 C3640 1.457 . S
C3633 N3628 1.363 . S
C3633 N3630 1.377 . S
C3633 C3646 1.479 . S
C3634 C3631 1.480 . S
C3634 C3635 1.383 . S
C3634 C3639 1.385 . S
C3635 H3616 0.947 . S
C3635 C3634 1.383 . S
C3635 C3636 1.388 . S
C3636 H3617 0.946 . S
C3636 C3635 1.388 . S
C3636 C3637 1.384 . S
C3637 C3636 1.384 . S
C3637 C3638 1.377 . S
C3638 H3618 0.953 . S
C3638 C3637 1.377 . S
C3638 C3639 1.369 . S
C3639 H3619 0.945 . S
C3639 C3634 1.385 . S
C3639 C3638 1.369 . S
C3640 C3632 1.457 . S
C3640 C3641 1.372 . S
C3640 C3645 1.364 . S
C3641 H3620 0.952 . S
C3641 C3640 1.372 . S
C3641 C3642 1.389 . S
C3642 H3621 0.949 . S
C3642 C3641 1.389 . S
C3642 C3643 1.387 . S
C3643 C3642 1.387 . S
C3643 C3644 1.372 . S
C3644 H3622 0.950 . S
C3644 C3643 1.372 . S
C3644 C3645 1.379 . S
C3645 H3623 0.948 . S
C3645 C3640 1.364 . S
C3645 C3644 1.379 . S
C3646 C3615 1.383 . S
C3646 C3633 1.479 . S
C3646 C3647 1.398 . S
C3647 C3612 1.382 . S
C3647 H3624 0.951 . S
C3647 C3646 1.398 . S
C3648 C3649 1.384 . S
C3648 H3661 0.947 . S
C3648 C3683 1.382 . S
C3649 C3648 1.384 . S
C3649 C3650 1.378 . S
C3650 C3649 1.378 . S
C3650 C3651 1.378 . S
C3650 H3662 0.952 . S
C3651 C3650 1.378 . S
C3651 H3663 0.950 . S
C3651 C3682 1.383 . S
H3652 C3671 0.947 . S
H3653 C3672 0.946 . S
H3654 C3674 0.953 . S
H3655 C3675 0.945 . S
H3656 C3677 0.952 . S
H3657 C3678 0.949 . S
H3658 C3680 0.950 . S
H3659 C3681 0.948 . S
H3660 C3683 0.951 . S
H3661 C3648 0.947 . S
H3662 C3650 0.952 . S
H3663 C3651 0.950 . S
N3664 C3667 1.382 . S
N3664 C3669 1.363 . S
N3665 C3667 1.371 . S
N3665 C3668 1.372 . S
N3666 C3668 1.361 . S
N3666 C3669 1.377 . S
C3667 N3664 1.382 . S
C3667 N3665 1.371 . S
C3667 C3670 1.480 . S
C3668 N3665 1.372 . S
C3668 N3666 1.361 . S
C3668 C3676 1.457 . S
C3669 N3664 1.363 . S
C3669 N3666 1.377 . S
C3669 C3682 1.479 . S
C3670 C3667 1.480 . S
C3670 C3671 1.383 . S
C3670 C3675 1.385 . S
C3671 H3652 0.947 . S
C3671 C3670 1.383 . S
C3671 C3672 1.388 . S
C3672 H3653 0.946 . S
C3672 C3671 1.388 . S
C3672 C3673 1.384 . S
C3673 C3672 1.384 . S
C3673 C3674 1.377 . S
C3674 H3654 0.953 . S
C3674 C3673 1.377 . S
C3674 C3675 1.369 . S
C3675 H3655 0.945 . S
C3675 C3670 1.385 . S
C3675 C3674 1.369 . S
C3676 C3668 1.457 . S
C3676 C3677 1.372 . S
C3676 C3681 1.364 . S
C3677 H3656 0.952 . S
C3677 C3676 1.372 . S
C3677 C3678 1.389 . S
C3678 H3657 0.949 . S
C3678 C3677 1.389 . S
C3678 C3679 1.387 . S
C3679 C3678 1.387 . S
C3679 C3680 1.372 . S
C3680 H3658 0.950 . S
C3680 C3679 1.372 . S
C3680 C3681 1.379 . S
C3681 H3659 0.948 . S
C3681 C3676 1.364 . S
C3681 C3680 1.379 . S
C3682 C3651 1.383 . S
C3682 C3669 1.479 . S
C3682 C3683 1.398 . S
C3683 C3648 1.382 . S
C3683 H3660 0.951 . S
C3683 C3682 1.398 . S
C3684 C3685 1.384 . S
C3684 H3697 0.947 . S
C3684 C3719 1.382 . S
C3685 C3684 1.384 . S
C3685 C3686 1.378 . S
C3686 C3685 1.378 . S
C3686 C3687 1.378 . S
C3686 H3698 0.952 . S
C3687 C3686 1.378 . S
C3687 H3699 0.950 . S
C3687 C3718 1.383 . S
H3688 C3707 0.947 . S
H3689 C3708 0.946 . S
H3690 C3710 0.953 . S
H3691 C3711 0.945 . S
H3692 C3713 0.952 . S
H3693 C3714 0.949 . S
H3694 C3716 0.950 . S
H3695 C3717 0.948 . S
H3696 C3719 0.951 . S
H3697 C3684 0.947 . S
H3698 C3686 0.952 . S
H3699 C3687 0.950 . S
N3700 C3703 1.382 . S
N3700 C3705 1.363 . S
N3701 C3703 1.371 . S
N3701 C3704 1.372 . S
N3702 C3704 1.361 . S
N3702 C3705 1.377 . S
C3703 N3700 1.382 . S
C3703 N3701 1.371 . S
C3703 C3706 1.480 . S
C3704 N3701 1.372 . S
C3704 N3702 1.361 . S
C3704 C3712 1.457 . S
C3705 N3700 1.363 . S
C3705 N3702 1.377 . S
C3705 C3718 1.479 . S
C3706 C3703 1.480 . S
C3706 C3707 1.383 . S
C3706 C3711 1.385 . S
C3707 H3688 0.947 . S
C3707 C3706 1.383 . S
C3707 C3708 1.388 . S
C3708 H3689 0.946 . S
C3708 C3707 1.388 . S
C3708 C3709 1.384 . S
C3709 C3708 1.384 . S
C3709 C3710 1.377 . S
C3710 H3690 0.953 . S
C3710 C3709 1.377 . S
C3710 C3711 1.369 . S
C3711 H3691 0.945 . S
C3711 C3706 1.385 . S
C3711 C3710 1.369 . S
C3712 C3704 1.457 . S
C3712 C3713 1.372 . S
C3712 C3717 1.364 . S
C3713 H3692 0.952 . S
C3713 C3712 1.372 . S
C3713 C3714 1.389 . S
C3714 H3693 0.949 . S
C3714 C3713 1.389 . S
C3714 C3715 1.387 . S
C3715 C3714 1.387 . S
C3715 C3716 1.372 . S
C3716 H3694 0.950 . S
C3716 C3715 1.372 . S
C3716 C3717 1.379 . S
C3717 H3695 0.948 . S
C3717 C3712 1.364 . S
C3717 C3716 1.379 . S
C3718 C3687 1.383 . S
C3718 C3705 1.479 . S
C3718 C3719 1.398 . S
C3719 C3684 1.382 . S
C3719 H3696 0.951 . S
C3719 C3718 1.398 . S
C3720 C3721 1.384 . S
C3720 H3733 0.947 . S
C3720 C3755 1.382 . S
C3721 C3720 1.384 . S
C3721 C3722 1.378 . S
C3722 C3721 1.378 . S
C3722 C3723 1.378 . S
C3722 H3734 0.952 . S
C3723 C3722 1.378 . S
C3723 H3735 0.950 . S
C3723 C3754 1.383 . S
H3724 C3743 0.947 . S
H3725 C3744 0.946 . S
H3726 C3746 0.953 . S
H3727 C3747 0.945 . S
H3728 C3749 0.952 . S
H3729 C3750 0.949 . S
H3730 C3752 0.950 . S
H3731 C3753 0.948 . S
H3732 C3755 0.951 . S
H3733 C3720 0.947 . S
H3734 C3722 0.952 . S
H3735 C3723 0.950 . S
N3736 C3739 1.382 . S
N3736 C3741 1.363 . S
N3737 C3739 1.371 . S
N3737 C3740 1.372 . S
N3738 C3740 1.361 . S
N3738 C3741 1.377 . S
C3739 N3736 1.382 . S
C3739 N3737 1.371 . S
C3739 C3742 1.480 . S
C3740 N3737 1.372 . S
C3740 N3738 1.361 . S
C3740 C3748 1.457 . S
C3741 N3736 1.363 . S
C3741 N3738 1.377 . S
C3741 C3754 1.479 . S
C3742 C3739 1.480 . S
C3742 C3743 1.383 . S
C3742 C3747 1.385 . S
C3743 H3724 0.947 . S
C3743 C3742 1.383 . S
C3743 C3744 1.388 . S
C3744 H3725 0.946 . S
C3744 C3743 1.388 . S
C3744 C3745 1.384 . S
C3745 C3744 1.384 . S
C3745 C3746 1.377 . S
C3746 H3726 0.953 . S
C3746 C3745 1.377 . S
C3746 C3747 1.369 . S
C3747 H3727 0.945 . S
C3747 C3742 1.385 . S
C3747 C3746 1.369 . S
C3748 C3740 1.457 . S
C3748 C3749 1.372 . S
C3748 C3753 1.364 . S
C3749 H3728 0.952 . S
C3749 C3748 1.372 . S
C3749 C3750 1.389 . S
C3750 H3729 0.949 . S
C3750 C3749 1.389 . S
C3750 C3751 1.387 . S
C3751 C3750 1.387 . S
C3751 C3752 1.372 . S
C3752 H3730 0.950 . S
C3752 C3751 1.372 . S
C3752 C3753 1.379 . S
C3753 H3731 0.948 . S
C3753 C3748 1.364 . S
C3753 C3752 1.379 . S
C3754 C3723 1.383 . S
C3754 C3741 1.479 . S
C3754 C3755 1.398 . S
C3755 C3720 1.382 . S
C3755 H3732 0.951 . S
C3755 C3754 1.398 . S
C3756 C3757 1.384 . S
C3756 H3769 0.947 . S
C3756 C3791 1.382 . S
C3757 C3756 1.384 . S
C3757 C3758 1.378 . S
C3758 C3757 1.378 . S
C3758 C3759 1.378 . S
C3758 H3770 0.952 . S
C3759 C3758 1.378 . S
C3759 H3771 0.950 . S
C3759 C3790 1.383 . S
H3760 C3779 0.947 . S
H3761 C3780 0.946 . S
H3762 C3782 0.953 . S
H3763 C3783 0.945 . S
H3764 C3785 0.952 . S
H3765 C3786 0.949 . S
H3766 C3788 0.950 . S
H3767 C3789 0.948 . S
H3768 C3791 0.951 . S
H3769 C3756 0.947 . S
H3770 C3758 0.952 . S
H3771 C3759 0.950 . S
N3772 C3775 1.382 . S
N3772 C3777 1.363 . S
N3773 C3775 1.371 . S
N3773 C3776 1.372 . S
N3774 C3776 1.361 . S
N3774 C3777 1.377 . S
C3775 N3772 1.382 . S
C3775 N3773 1.371 . S
C3775 C3778 1.480 . S
C3776 N3773 1.372 . S
C3776 N3774 1.361 . S
C3776 C3784 1.457 . S
C3777 N3772 1.363 . S
C3777 N3774 1.377 . S
C3777 C3790 1.479 . S
C3778 C3775 1.480 . S
C3778 C3779 1.383 . S
C3778 C3783 1.385 . S
C3779 H3760 0.947 . S
C3779 C3778 1.383 . S
C3779 C3780 1.388 . S
C3780 H3761 0.946 . S
C3780 C3779 1.388 . S
C3780 C3781 1.384 . S
C3781 C3780 1.384 . S
C3781 C3782 1.377 . S
C3782 H3762 0.953 . S
C3782 C3781 1.377 . S
C3782 C3783 1.369 . S
C3783 H3763 0.945 . S
C3783 C3778 1.385 . S
C3783 C3782 1.369 . S
C3784 C3776 1.457 . S
C3784 C3785 1.372 . S
C3784 C3789 1.364 . S
C3785 H3764 0.952 . S
C3785 C3784 1.372 . S
C3785 C3786 1.389 . S
C3786 H3765 0.949 . S
C3786 C3785 1.389 . S
C3786 C3787 1.387 . S
C3787 C3786 1.387 . S
C3787 C3788 1.372 . S
C3788 H3766 0.950 . S
C3788 C3787 1.372 . S
C3788 C3789 1.379 . S
C3789 H3767 0.948 . S
C3789 C3784 1.364 . S
C3789 C3788 1.379 . S
C3790 C3759 1.383 . S
C3790 C3777 1.479 . S
C3790 C3791 1.398 . S
C3791 C3756 1.382 . S
C3791 H3768 0.951 . S
C3791 C3790 1.398 . S
C3792 C3793 1.384 . S
C3792 H3805 0.947 . S
C3792 C3827 1.382 . S
C3793 C3792 1.384 . S
C3793 C3794 1.378 . S
C3794 C3793 1.378 . S
C3794 C3795 1.378 . S
C3794 H3806 0.952 . S
C3795 C3794 1.378 . S
C3795 H3807 0.950 . S
C3795 C3826 1.383 . S
H3796 C3815 0.947 . S
H3797 C3816 0.946 . S
H3798 C3818 0.953 . S
H3799 C3819 0.945 . S
H3800 C3821 0.952 . S
H3801 C3822 0.949 . S
H3802 C3824 0.950 . S
H3803 C3825 0.948 . S
H3804 C3827 0.951 . S
H3805 C3792 0.947 . S
H3806 C3794 0.952 . S
H3807 C3795 0.950 . S
N3808 C3811 1.382 . S
N3808 C3813 1.363 . S
N3809 C3811 1.371 . S
N3809 C3812 1.372 . S
N3810 C3812 1.361 . S
N3810 C3813 1.377 . S
C3811 N3808 1.382 . S
C3811 N3809 1.371 . S
C3811 C3814 1.480 . S
C3812 N3809 1.372 . S
C3812 N3810 1.361 . S
C3812 C3820 1.457 . S
C3813 N3808 1.363 . S
C3813 N3810 1.377 . S
C3813 C3826 1.479 . S
C3814 C3811 1.480 . S
C3814 C3815 1.383 . S
C3814 C3819 1.385 . S
C3815 H3796 0.947 . S
C3815 C3814 1.383 . S
C3815 C3816 1.388 . S
C3816 H3797 0.946 . S
C3816 C3815 1.388 . S
C3816 C3817 1.384 . S
C3817 C3816 1.384 . S
C3817 C3818 1.377 . S
C3818 H3798 0.953 . S
C3818 C3817 1.377 . S
C3818 C3819 1.369 . S
C3819 H3799 0.945 . S
C3819 C3814 1.385 . S
C3819 C3818 1.369 . S
C3820 C3812 1.457 . S
C3820 C3821 1.372 . S
C3820 C3825 1.364 . S
C3821 H3800 0.952 . S
C3821 C3820 1.372 . S
C3821 C3822 1.389 . S
C3822 H3801 0.949 . S
C3822 C3821 1.389 . S
C3822 C3823 1.387 . S
C3823 C3822 1.387 . S
C3823 C3824 1.372 . S
C3824 H3802 0.950 . S
C3824 C3823 1.372 . S
C3824 C3825 1.379 . S
C3825 H3803 0.948 . S
C3825 C3820 1.364 . S
C3825 C3824 1.379 . S
C3826 C3795 1.383 . S
C3826 C3813 1.479 . S
C3826 C3827 1.398 . S
C3827 C3792 1.382 . S
C3827 H3804 0.951 . S
C3827 C3826 1.398 . S
C3828 C3829 1.384 . S
C3828 H3841 0.947 . S
C3828 C3863 1.382 . S
C3829 C3828 1.384 . S
C3829 C3830 1.378 . S
C3830 C3829 1.378 . S
C3830 C3831 1.378 . S
C3830 H3842 0.952 . S
C3831 C3830 1.378 . S
C3831 H3843 0.950 . S
C3831 C3862 1.383 . S
H3832 C3851 0.947 . S
H3833 C3852 0.946 . S
H3834 C3854 0.953 . S
H3835 C3855 0.945 . S
H3836 C3857 0.952 . S
H3837 C3858 0.949 . S
H3838 C3860 0.950 . S
H3839 C3861 0.948 . S
H3840 C3863 0.951 . S
H3841 C3828 0.947 . S
H3842 C3830 0.952 . S
H3843 C3831 0.950 . S
N3844 C3847 1.382 . S
N3844 C3849 1.363 . S
N3845 C3847 1.371 . S
N3845 C3848 1.372 . S
N3846 C3848 1.361 . S
N3846 C3849 1.377 . S
C3847 N3844 1.382 . S
C3847 N3845 1.371 . S
C3847 C3850 1.480 . S
C3848 N3845 1.372 . S
C3848 N3846 1.361 . S
C3848 C3856 1.457 . S
C3849 N3844 1.363 . S
C3849 N3846 1.377 . S
C3849 C3862 1.479 . S
C3850 C3847 1.480 . S
C3850 C3851 1.383 . S
C3850 C3855 1.385 . S
C3851 H3832 0.947 . S
C3851 C3850 1.383 . S
C3851 C3852 1.388 . S
C3852 H3833 0.946 . S
C3852 C3851 1.388 . S
C3852 C3853 1.384 . S
C3853 C3852 1.384 . S
C3853 C3854 1.377 . S
C3854 H3834 0.953 . S
C3854 C3853 1.377 . S
C3854 C3855 1.369 . S
C3855 H3835 0.945 . S
C3855 C3850 1.385 . S
C3855 C3854 1.369 . S
C3856 C3848 1.457 . S
C3856 C3857 1.372 . S
C3856 C3861 1.364 . S
C3857 H3836 0.952 . S
C3857 C3856 1.372 . S
C3857 C3858 1.389 . S
C3858 H3837 0.949 . S
C3858 C3857 1.389 . S
C3858 C3859 1.387 . S
C3859 C3858 1.387 . S
C3859 C3860 1.372 . S
C3860 H3838 0.950 . S
C3860 C3859 1.372 . S
C3860 C3861 1.379 . S
C3861 H3839 0.948 . S
C3861 C3856 1.364 . S
C3861 C3860 1.379 . S
C3862 C3831 1.383 . S
C3862 C3849 1.479 . S
C3862 C3863 1.398 . S
C3863 C3828 1.382 . S
C3863 H3840 0.951 . S
C3863 C3862 1.398 . S
C3864 C3865 1.384 . S
C3864 H3877 0.947 . S
C3864 C3899 1.382 . S
C3865 C3864 1.384 . S
C3865 C3866 1.378 . S
C3866 C3865 1.378 . S
C3866 C3867 1.378 . S
C3866 H3878 0.952 . S
C3867 C3866 1.378 . S
C3867 H3879 0.950 . S
C3867 C3898 1.383 . S
H3868 C3887 0.947 . S
H3869 C3888 0.946 . S
H3870 C3890 0.953 . S
H3871 C3891 0.945 . S
H3872 C3893 0.952 . S
H3873 C3894 0.949 . S
H3874 C3896 0.950 . S
H3875 C3897 0.948 . S
H3876 C3899 0.951 . S
H3877 C3864 0.947 . S
H3878 C3866 0.952 . S
H3879 C3867 0.950 . S
N3880 C3883 1.382 . S
N3880 C3885 1.363 . S
N3881 C3883 1.371 . S
N3881 C3884 1.372 . S
N3882 C3884 1.361 . S
N3882 C3885 1.377 . S
C3883 N3880 1.382 . S
C3883 N3881 1.371 . S
C3883 C3886 1.480 . S
C3884 N3881 1.372 . S
C3884 N3882 1.361 . S
C3884 C3892 1.457 . S
C3885 N3880 1.363 . S
C3885 N3882 1.377 . S
C3885 C3898 1.479 . S
C3886 C3883 1.480 . S
C3886 C3887 1.383 . S
C3886 C3891 1.385 . S
C3887 H3868 0.947 . S
C3887 C3886 1.383 . S
C3887 C3888 1.388 . S
C3888 H3869 0.946 . S
C3888 C3887 1.388 . S
C3888 C3889 1.384 . S
C3889 C3888 1.384 . S
C3889 C3890 1.377 . S
C3890 H3870 0.953 . S
C3890 C3889 1.377 . S
C3890 C3891 1.369 . S
C3891 H3871 0.945 . S
C3891 C3886 1.385 . S
C3891 C3890 1.369 . S
C3892 C3884 1.457 . S
C3892 C3893 1.372 . S
C3892 C3897 1.364 . S
C3893 H3872 0.952 . S
C3893 C3892 1.372 . S
C3893 C3894 1.389 . S
C3894 H3873 0.949 . S
C3894 C3893 1.389 . S
C3894 C3895 1.387 . S
C3895 C3894 1.387 . S
C3895 C3896 1.372 . S
C3896 H3874 0.950 . S
C3896 C3895 1.372 . S
C3896 C3897 1.379 . S
C3897 H3875 0.948 . S
C3897 C3892 1.364 . S
C3897 C3896 1.379 . S
C3898 C3867 1.383 . S
C3898 C3885 1.479 . S
C3898 C3899 1.398 . S
C3899 C3864 1.382 . S
C3899 H3876 0.951 . S
C3899 C3898 1.398 . S
C3900 C3901 1.384 . S
C3900 H3913 0.947 . S
C3900 C3935 1.382 . S
C3901 C3900 1.384 . S
C3901 C3902 1.378 . S
C3902 C3901 1.378 . S
C3902 C3903 1.378 . S
C3902 H3914 0.952 . S
C3903 C3902 1.378 . S
C3903 H3915 0.950 . S
C3903 C3934 1.383 . S
H3904 C3923 0.947 . S
H3905 C3924 0.946 . S
H3906 C3926 0.953 . S
H3907 C3927 0.945 . S
H3908 C3929 0.952 . S
H3909 C3930 0.949 . S
H3910 C3932 0.950 . S
H3911 C3933 0.948 . S
H3912 C3935 0.951 . S
H3913 C3900 0.947 . S
H3914 C3902 0.952 . S
H3915 C3903 0.950 . S
N3916 C3919 1.382 . S
N3916 C3921 1.363 . S
N3917 C3919 1.371 . S
N3917 C3920 1.372 . S
N3918 C3920 1.361 . S
N3918 C3921 1.377 . S
C3919 N3916 1.382 . S
C3919 N3917 1.371 . S
C3919 C3922 1.480 . S
C3920 N3917 1.372 . S
C3920 N3918 1.361 . S
C3920 C3928 1.457 . S
C3921 N3916 1.363 . S
C3921 N3918 1.377 . S
C3921 C3934 1.479 . S
C3922 C3919 1.480 . S
C3922 C3923 1.383 . S
C3922 C3927 1.385 . S
C3923 H3904 0.947 . S
C3923 C3922 1.383 . S
C3923 C3924 1.388 . S
C3924 H3905 0.946 . S
C3924 C3923 1.388 . S
C3924 C3925 1.384 . S
C3925 C3924 1.384 . S
C3925 C3926 1.377 . S
C3926 H3906 0.953 . S
C3926 C3925 1.377 . S
C3926 C3927 1.369 . S
C3927 H3907 0.945 . S
C3927 C3922 1.385 . S
C3927 C3926 1.369 . S
C3928 C3920 1.457 . S
C3928 C3929 1.372 . S
C3928 C3933 1.364 . S
C3929 H3908 0.952 . S
C3929 C3928 1.372 . S
C3929 C3930 1.389 . S
C3930 H3909 0.949 . S
C3930 C3929 1.389 . S
C3930 C3931 1.387 . S
C3931 C3930 1.387 . S
C3931 C3932 1.372 . S
C3932 H3910 0.950 . S
C3932 C3931 1.372 . S
C3932 C3933 1.379 . S
C3933 H3911 0.948 . S
C3933 C3928 1.364 . S
C3933 C3932 1.379 . S
C3934 C3903 1.383 . S
C3934 C3921 1.479 . S
C3934 C3935 1.398 . S
C3935 C3900 1.382 . S
C3935 H3912 0.951 . S
C3935 C3934 1.398 . S
C3936 C3937 1.384 . S
C3936 H3949 0.947 . S
C3936 C3971 1.382 . S
C3937 C3936 1.384 . S
C3937 C3938 1.378 . S
C3938 C3937 1.378 . S
C3938 C3939 1.378 . S
C3938 H3950 0.952 . S
C3939 C3938 1.378 . S
C3939 H3951 0.950 . S
C3939 C3970 1.383 . S
H3940 C3959 0.947 . S
H3941 C3960 0.946 . S
H3942 C3962 0.953 . S
H3943 C3963 0.945 . S
H3944 C3965 0.952 . S
H3945 C3966 0.949 . S
H3946 C3968 0.950 . S
H3947 C3969 0.948 . S
H3948 C3971 0.951 . S
H3949 C3936 0.947 . S
H3950 C3938 0.952 . S
H3951 C3939 0.950 . S
N3952 C3955 1.382 . S
N3952 C3957 1.363 . S
N3953 C3955 1.371 . S
N3953 C3956 1.372 . S
N3954 C3956 1.361 . S
N3954 C3957 1.377 . S
C3955 N3952 1.382 . S
C3955 N3953 1.371 . S
C3955 C3958 1.480 . S
C3956 N3953 1.372 . S
C3956 N3954 1.361 . S
C3956 C3964 1.457 . S
C3957 N3952 1.363 . S
C3957 N3954 1.377 . S
C3957 C3970 1.479 . S
C3958 C3955 1.480 . S
C3958 C3959 1.383 . S
C3958 C3963 1.385 . S
C3959 H3940 0.947 . S
C3959 C3958 1.383 . S
C3959 C3960 1.388 . S
C3960 H3941 0.946 . S
C3960 C3959 1.388 . S
C3960 C3961 1.384 . S
C3961 C3960 1.384 . S
C3961 C3962 1.377 . S
C3962 H3942 0.953 . S
C3962 C3961 1.377 . S
C3962 C3963 1.369 . S
C3963 H3943 0.945 . S
C3963 C3958 1.385 . S
C3963 C3962 1.369 . S
C3964 C3956 1.457 . S
C3964 C3965 1.372 . S
C3964 C3969 1.364 . S
C3965 H3944 0.952 . S
C3965 C3964 1.372 . S
C3965 C3966 1.389 . S
C3966 H3945 0.949 . S
C3966 C3965 1.389 . S
C3966 C3967 1.387 . S
C3967 C3966 1.387 . S
C3967 C3968 1.372 . S
C3968 H3946 0.950 . S
C3968 C3967 1.372 . S
C3968 C3969 1.379 . S
C3969 H3947 0.948 . S
C3969 C3964 1.364 . S
C3969 C3968 1.379 . S
C3970 C3939 1.383 . S
C3970 C3957 1.479 . S
C3970 C3971 1.398 . S
C3971 C3936 1.382 . S
C3971 H3948 0.951 . S
C3971 C3970 1.398 . S
C3972 C3973 1.384 . S
C3972 H3985 0.947 . S
C3972 C4007 1.382 . S
C3973 C3972 1.384 . S
C3973 C3974 1.378 . S
C3974 C3973 1.378 . S
C3974 C3975 1.378 . S
C3974 H3986 0.952 . S
C3975 C3974 1.378 . S
C3975 H3987 0.950 . S
C3975 C4006 1.383 . S
H3976 C3995 0.947 . S
H3977 C3996 0.946 . S
H3978 C3998 0.964 . S
H3979 C3999 0.945 . S
H3980 C4001 0.952 . S
H3981 C4002 0.949 . S
H3982 C4004 0.950 . S
H3983 C4005 0.948 . S
H3984 C4007 0.951 . S
H3985 C3972 0.947 . S
H3986 C3974 0.952 . S
H3987 C3975 0.950 . S
N3988 C3991 1.382 . S
N3988 C3993 1.363 . S
N3989 C3991 1.371 . S
N3989 C3992 1.372 . S
N3990 C3992 1.361 . S
N3990 C3993 1.377 . S
C3991 N3988 1.382 . S
C3991 N3989 1.371 . S
C3991 C3994 1.480 . S
C3992 N3989 1.372 . S
C3992 N3990 1.361 . S
C3992 C4000 1.457 . S
C3993 N3988 1.363 . S
C3993 N3990 1.377 . S
C3993 C4006 1.479 . S
C3994 C3991 1.480 . S
C3994 C3995 1.383 . S
C3994 C3999 1.385 . S
C3995 H3976 0.947 . S
C3995 C3994 1.383 . S
C3995 C3996 1.388 . S
C3996 H3977 0.946 . S
C3996 C3995 1.388 . S
C3996 C3997 1.384 . S
C3997 C3996 1.384 . S
C3997 C3998 1.377 . S
C3998 H3978 0.964 . S
C3998 C3997 1.377 . S
C3998 C3999 1.369 . S
C3999 H3979 0.945 . S
C3999 C3994 1.385 . S
C3999 C3998 1.369 . S
C4000 C3992 1.457 . S
C4000 C4001 1.372 . S
C4000 C4005 1.364 . S
C4001 H3980 0.952 . S
C4001 C4000 1.372 . S
C4001 C4002 1.389 . S
C4002 H3981 0.949 . S
C4002 C4001 1.389 . S
C4002 C4003 1.387 . S
C4003 C4002 1.387 . S
C4003 C4004 1.372 . S
C4004 H3982 0.950 . S
C4004 C4003 1.372 . S
C4004 C4005 1.379 . S
C4005 H3983 0.948 . S
C4005 C4000 1.364 . S
C4005 C4004 1.379 . S
C4006 C3975 1.383 . S
C4006 C3993 1.479 . S
C4006 C4007 1.398 . S
C4007 C3972 1.382 . S
C4007 H3984 0.951 . S
C4007 C4006 1.398 . S
C4008 C4009 1.384 . S
C4008 H4021 0.947 . S
C4008 C4043 1.382 . S
C4009 C4008 1.384 . S
C4009 C4010 1.378 . S
C4010 C4009 1.378 . S
C4010 C4011 1.378 . S
C4010 H4022 0.952 . S
C4011 C4010 1.378 . S
C4011 H4023 0.950 . S
C4011 C4042 1.383 . S
H4012 C4031 0.947 . S
H4013 C4032 0.946 . S
H4014 C4034 0.953 . S
H4015 C4035 0.945 . S
H4016 C4037 0.952 . S
H4017 C4038 0.949 . S
H4018 C4040 0.950 . S
H4019 C4041 0.948 . S
H4020 C4043 0.951 . S
H4021 C4008 0.947 . S
H4022 C4010 0.952 . S
H4023 C4011 0.950 . S
N4024 C4027 1.382 . S
N4024 C4029 1.363 . S
N4025 C4027 1.371 . S
N4025 C4028 1.372 . S
N4026 C4028 1.361 . S
N4026 C4029 1.377 . S
C4027 N4024 1.382 . S
C4027 N4025 1.371 . S
C4027 C4030 1.480 . S
C4028 N4025 1.372 . S
C4028 N4026 1.361 . S
C4028 C4036 1.457 . S
C4029 N4024 1.363 . S
C4029 N4026 1.377 . S
C4029 C4042 1.479 . S
C4030 C4027 1.480 . S
C4030 C4031 1.383 . S
C4030 C4035 1.385 . S
C4031 H4012 0.947 . S
C4031 C4030 1.383 . S
C4031 C4032 1.388 . S
C4032 H4013 0.946 . S
C4032 C4031 1.388 . S
C4032 C4033 1.384 . S
C4033 C4032 1.384 . S
C4033 C4034 1.377 . S
C4034 H4014 0.953 . S
C4034 C4033 1.377 . S
C4034 C4035 1.369 . S
C4035 H4015 0.945 . S
C4035 C4030 1.385 . S
C4035 C4034 1.369 . S
C4036 C4028 1.457 . S
C4036 C4037 1.372 . S
C4036 C4041 1.364 . S
C4037 H4016 0.952 . S
C4037 C4036 1.372 . S
C4037 C4038 1.389 . S
C4038 H4017 0.949 . S
C4038 C4037 1.389 . S
C4038 C4039 1.387 . S
C4039 C4038 1.387 . S
C4039 C4040 1.372 . S
C4040 H4018 0.950 . S
C4040 C4039 1.372 . S
C4040 C4041 1.379 . S
C4041 H4019 0.948 . S
C4041 C4036 1.364 . S
C4041 C4040 1.379 . S
C4042 C4011 1.383 . S
C4042 C4029 1.479 . S
C4042 C4043 1.398 . S
C4043 C4008 1.382 . S
C4043 H4020 0.951 . S
C4043 C4042 1.398 . S
C4044 C4045 1.384 . S
C4044 H4057 0.947 . S
C4044 C4079 1.382 . S
C4045 C4044 1.384 . S
C4045 C4046 1.378 . S
C4046 C4045 1.378 . S
C4046 C4047 1.378 . S
C4046 H4058 0.952 . S
C4047 C4046 1.378 . S
C4047 H4059 0.950 . S
C4047 C4078 1.383 . S
H4048 C4067 0.947 . S
H4049 C4068 0.946 . S
H4050 C4070 0.953 . S
H4051 C4071 0.945 . S
H4052 C4073 0.952 . S
H4053 C4074 0.949 . S
H4054 C4076 0.950 . S
H4055 C4077 0.948 . S
H4056 C4079 0.951 . S
H4057 C4044 0.947 . S
H4058 C4046 0.952 . S
H4059 C4047 0.950 . S
N4060 C4063 1.382 . S
N4060 C4065 1.363 . S
N4061 C4063 1.371 . S
N4061 C4064 1.372 . S
N4062 C4064 1.361 . S
N4062 C4065 1.377 . S
C4063 N4060 1.382 . S
C4063 N4061 1.371 . S
C4063 C4066 1.480 . S
C4064 N4061 1.372 . S
C4064 N4062 1.361 . S
C4064 C4072 1.457 . S
C4065 N4060 1.363 . S
C4065 N4062 1.377 . S
C4065 C4078 1.479 . S
C4066 C4063 1.480 . S
C4066 C4067 1.383 . S
C4066 C4071 1.385 . S
C4067 H4048 0.947 . S
C4067 C4066 1.383 . S
C4067 C4068 1.388 . S
C4068 H4049 0.946 . S
C4068 C4067 1.388 . S
C4068 C4069 1.384 . S
C4069 C4068 1.384 . S
C4069 C4070 1.377 . S
C4070 H4050 0.953 . S
C4070 C4069 1.377 . S
C4070 C4071 1.369 . S
C4071 H4051 0.945 . S
C4071 C4066 1.385 . S
C4071 C4070 1.369 . S
C4072 C4064 1.457 . S
C4072 C4073 1.372 . S
C4072 C4077 1.364 . S
C4073 H4052 0.952 . S
C4073 C4072 1.372 . S
C4073 C4074 1.389 . S
C4074 H4053 0.949 . S
C4074 C4073 1.389 . S
C4074 C4075 1.387 . S
C4075 C4074 1.387 . S
C4075 C4076 1.372 . S
C4076 H4054 0.950 . S
C4076 C4075 1.372 . S
C4076 C4077 1.379 . S
C4077 H4055 0.948 . S
C4077 C4072 1.364 . S
C4077 C4076 1.379 . S
C4078 C4047 1.383 . S
C4078 C4065 1.479 . S
C4078 C4079 1.398 . S
C4079 C4044 1.382 . S
C4079 H4056 0.951 . S
C4079 C4078 1.398 . S
C4080 C4081 1.384 . S
C4080 H4093 0.947 . S
C4080 C4115 1.382 . S
C4081 C4080 1.384 . S
C4081 C4082 1.378 . S
C4082 C4081 1.378 . S
C4082 C4083 1.378 . S
C4082 H4094 0.952 . S
C4083 C4082 1.378 . S
C4083 H4095 0.950 . S
C4083 C4114 1.383 . S
H4084 C4103 0.947 . S
H4085 C4104 0.946 . S
H4086 C4106 0.953 . S
H4087 C4107 0.945 . S
H4088 C4109 0.952 . S
H4089 C4110 0.949 . S
H4090 C4112 0.950 . S
H4091 C4113 0.948 . S
H4092 C4115 0.951 . S
H4093 C4080 0.947 . S
H4094 C4082 0.952 . S
H4095 C4083 0.950 . S
N4096 C4099 1.382 . S
N4096 C4101 1.363 . S
N4097 C4099 1.371 . S
N4097 C4100 1.372 . S
N4098 C4100 1.361 . S
N4098 C4101 1.377 . S
C4099 N4096 1.382 . S
C4099 N4097 1.371 . S
C4099 C4102 1.480 . S
C4100 N4097 1.372 . S
C4100 N4098 1.361 . S
C4100 C4108 1.457 . S
C4101 N4096 1.363 . S
C4101 N4098 1.377 . S
C4101 C4114 1.479 . S
C4102 C4099 1.480 . S
C4102 C4103 1.383 . S
C4102 C4107 1.385 . S
C4103 H4084 0.947 . S
C4103 C4102 1.383 . S
C4103 C4104 1.388 . S
C4104 H4085 0.946 . S
C4104 C4103 1.388 . S
C4104 C4105 1.384 . S
C4105 C4104 1.384 . S
C4105 C4106 1.377 . S
C4106 H4086 0.953 . S
C4106 C4105 1.377 . S
C4106 C4107 1.369 . S
C4107 H4087 0.945 . S
C4107 C4102 1.385 . S
C4107 C4106 1.369 . S
C4108 C4100 1.457 . S
C4108 C4109 1.372 . S
C4108 C4113 1.364 . S
C4109 H4088 0.952 . S
C4109 C4108 1.372 . S
C4109 C4110 1.389 . S
C4110 H4089 0.949 . S
C4110 C4109 1.389 . S
C4110 C4111 1.387 . S
C4111 C4110 1.387 . S
C4111 C4112 1.372 . S
C4112 H4090 0.950 . S
C4112 C4111 1.372 . S
C4112 C4113 1.379 . S
C4113 H4091 0.948 . S
C4113 C4108 1.364 . S
C4113 C4112 1.379 . S
C4114 C4083 1.383 . S
C4114 C4101 1.479 . S
C4114 C4115 1.398 . S
C4115 C4080 1.382 . S
C4115 H4092 0.951 . S
C4115 C4114 1.398 . S
C4116 C4117 1.384 . S
C4116 H4129 0.947 . S
C4116 C4151 1.382 . S
C4117 C4116 1.384 . S
C4117 C4118 1.378 . S
C4118 C4117 1.378 . S
C4118 C4119 1.378 . S
C4118 H4130 0.952 . S
C4119 C4118 1.378 . S
C4119 H4131 0.950 . S
C4119 C4150 1.383 . S
H4120 C4139 0.947 . S
H4121 C4140 0.946 . S
H4122 C4142 0.953 . S
H4123 C4143 0.945 . S
H4124 C4145 0.952 . S
H4125 C4146 0.949 . S
H4126 C4148 0.950 . S
H4127 C4149 0.948 . S
H4128 C4151 0.951 . S
H4129 C4116 0.947 . S
H4130 C4118 0.952 . S
H4131 C4119 0.950 . S
N4132 C4135 1.382 . S
N4132 C4137 1.363 . S
N4133 C4135 1.371 . S
N4133 C4136 1.372 . S
N4134 C4136 1.361 . S
N4134 C4137 1.377 . S
C4135 N4132 1.382 . S
C4135 N4133 1.371 . S
C4135 C4138 1.480 . S
C4136 N4133 1.372 . S
C4136 N4134 1.361 . S
C4136 C4144 1.457 . S
C4137 N4132 1.363 . S
C4137 N4134 1.377 . S
C4137 C4150 1.479 . S
C4138 C4135 1.480 . S
C4138 C4139 1.383 . S
C4138 C4143 1.385 . S
C4139 H4120 0.947 . S
C4139 C4138 1.383 . S
C4139 C4140 1.388 . S
C4140 H4121 0.946 . S
C4140 C4139 1.388 . S
C4140 C4141 1.384 . S
C4141 C4140 1.384 . S
C4141 C4142 1.377 . S
C4142 H4122 0.953 . S
C4142 C4141 1.377 . S
C4142 C4143 1.369 . S
C4143 H4123 0.945 . S
C4143 C4138 1.385 . S
C4143 C4142 1.369 . S
C4144 C4136 1.457 . S
C4144 C4145 1.372 . S
C4144 C4149 1.364 . S
C4145 H4124 0.952 . S
C4145 C4144 1.372 . S
C4145 C4146 1.389 . S
C4146 H4125 0.949 . S
C4146 C4145 1.389 . S
C4146 C4147 1.387 . S
C4147 C4146 1.387 . S
C4147 C4148 1.372 . S
C4148 H4126 0.950 . S
C4148 C4147 1.372 . S
C4148 C4149 1.379 . S
C4149 H4127 0.948 . S
C4149 C4144 1.364 . S
C4149 C4148 1.379 . S
C4150 C4119 1.383 . S
C4150 C4137 1.479 . S
C4150 C4151 1.398 . S
C4151 C4116 1.382 . S
C4151 H4128 0.951 . S
C4151 C4150 1.398 . S
C4152 C4153 1.384 . S
C4152 H4165 0.947 . S
C4152 C4187 1.382 . S
C4153 C4152 1.384 . S
C4153 C4154 1.378 . S
C4154 C4153 1.378 . S
C4154 C4155 1.378 . S
C4154 H4166 0.952 . S
C4155 C4154 1.378 . S
C4155 H4167 0.950 . S
C4155 C4186 1.383 . S
H4156 C4175 0.947 . S
H4157 C4176 0.946 . S
H4158 C4178 0.953 . S
H4159 C4179 0.945 . S
H4160 C4181 0.952 . S
H4161 C4182 0.949 . S
H4162 C4184 0.950 . S
H4163 C4185 0.948 . S
H4164 C4187 0.951 . S
H4165 C4152 0.947 . S
H4166 C4154 0.952 . S
H4167 C4155 0.950 . S
N4168 C4171 1.382 . S
N4168 C4173 1.363 . S
N4169 C4171 1.371 . S
N4169 C4172 1.372 . S
N4170 C4172 1.361 . S
N4170 C4173 1.377 . S
C4171 N4168 1.382 . S
C4171 N4169 1.371 . S
C4171 C4174 1.480 . S
C4172 N4169 1.372 . S
C4172 N4170 1.361 . S
C4172 C4180 1.457 . S
C4173 N4168 1.363 . S
C4173 N4170 1.377 . S
C4173 C4186 1.479 . S
C4174 C4171 1.480 . S
C4174 C4175 1.383 . S
C4174 C4179 1.385 . S
C4175 H4156 0.947 . S
C4175 C4174 1.383 . S
C4175 C4176 1.388 . S
C4176 H4157 0.946 . S
C4176 C4175 1.388 . S
C4176 C4177 1.384 . S
C4177 C4176 1.384 . S
C4177 C4178 1.377 . S
C4178 H4158 0.953 . S
C4178 C4177 1.377 . S
C4178 C4179 1.369 . S
C4179 H4159 0.945 . S
C4179 C4174 1.385 . S
C4179 C4178 1.369 . S
C4180 C4172 1.457 . S
C4180 C4181 1.372 . S
C4180 C4185 1.364 . S
C4181 H4160 0.952 . S
C4181 C4180 1.372 . S
C4181 C4182 1.389 . S
C4182 H4161 0.949 . S
C4182 C4181 1.389 . S
C4182 C4183 1.387 . S
C4183 C4182 1.387 . S
C4183 C4184 1.372 . S
C4184 H4162 0.950 . S
C4184 C4183 1.372 . S
C4184 C4185 1.379 . S
C4185 H4163 0.948 . S
C4185 C4180 1.364 . S
C4185 C4184 1.379 . S
C4186 C4155 1.383 . S
C4186 C4173 1.479 . S
C4186 C4187 1.398 . S
C4187 C4152 1.382 . S
C4187 H4164 0.951 . S
C4187 C4186 1.398 . S
C4188 C4189 1.384 . S
C4188 H4201 0.947 . S
C4188 C4223 1.382 . S
C4189 C4188 1.384 . S
C4189 C4190 1.378 . S
C4190 C4189 1.378 . S
C4190 C4191 1.378 . S
C4190 H4202 0.952 . S
C4191 C4190 1.378 . S
C4191 H4203 0.950 . S
C4191 C4222 1.383 . S
H4192 C4211 0.947 . S
H4193 C4212 0.946 . S
H4194 C4214 0.953 . S
H4195 C4215 0.945 . S
H4196 C4217 0.952 . S
H4197 C4218 0.949 . S
H4198 C4220 0.950 . S
H4199 C4221 0.948 . S
H4200 C4223 0.951 . S
H4201 C4188 0.947 . S
H4202 C4190 0.952 . S
H4203 C4191 0.950 . S
N4204 C4207 1.382 . S
N4204 C4209 1.363 . S
N4205 C4207 1.371 . S
N4205 C4208 1.372 . S
N4206 C4208 1.361 . S
N4206 C4209 1.377 . S
C4207 N4204 1.382 . S
C4207 N4205 1.371 . S
C4207 C4210 1.480 . S
C4208 N4205 1.372 . S
C4208 N4206 1.361 . S
C4208 C4216 1.457 . S
C4209 N4204 1.363 . S
C4209 N4206 1.377 . S
C4209 C4222 1.479 . S
C4210 C4207 1.480 . S
C4210 C4211 1.383 . S
C4210 C4215 1.385 . S
C4211 H4192 0.947 . S
C4211 C4210 1.383 . S
C4211 C4212 1.388 . S
C4212 H4193 0.946 . S
C4212 C4211 1.388 . S
C4212 C4213 1.384 . S
C4213 C4212 1.384 . S
C4213 C4214 1.377 . S
C4214 H4194 0.953 . S
C4214 C4213 1.377 . S
C4214 C4215 1.369 . S
C4215 H4195 0.945 . S
C4215 C4210 1.385 . S
C4215 C4214 1.369 . S
C4216 C4208 1.457 . S
C4216 C4217 1.372 . S
C4216 C4221 1.364 . S
C4217 H4196 0.952 . S
C4217 C4216 1.372 . S
C4217 C4218 1.389 . S
C4218 H4197 0.949 . S
C4218 C4217 1.389 . S
C4218 C4219 1.387 . S
C4219 C4218 1.387 . S
C4219 C4220 1.372 . S
C4220 H4198 0.950 . S
C4220 C4219 1.372 . S
C4220 C4221 1.379 . S
C4221 H4199 0.948 . S
C4221 C4216 1.364 . S
C4221 C4220 1.379 . S
C4222 C4191 1.383 . S
C4222 C4209 1.479 . S
C4222 C4223 1.398 . S
C4223 C4188 1.382 . S
C4223 H4200 0.951 . S
C4223 C4222 1.398 . S
C4224 C4225 1.384 . S
C4224 H4237 0.947 . S
C4224 C4259 1.382 . S
C4225 C4224 1.384 . S
C4225 C4226 1.378 . S
C4226 C4225 1.378 . S
C4226 C4227 1.378 . S
C4226 H4238 0.952 . S
C4227 C4226 1.378 . S
C4227 H4239 0.950 . S
C4227 C4258 1.383 . S
H4228 C4247 0.947 . S
H4229 C4248 0.946 . S
H4230 C4250 0.953 . S
H4231 C4251 0.945 . S
H4232 C4253 0.952 . S
H4233 C4254 0.949 . S
H4234 C4256 0.950 . S
H4235 C4257 0.948 . S
H4236 C4259 0.951 . S
H4237 C4224 0.947 . S
H4238 C4226 0.952 . S
H4239 C4227 0.950 . S
N4240 C4243 1.382 . S
N4240 C4245 1.363 . S
N4241 C4243 1.371 . S
N4241 C4244 1.372 . S
N4242 C4244 1.361 . S
N4242 C4245 1.377 . S
C4243 N4240 1.382 . S
C4243 N4241 1.371 . S
C4243 C4246 1.480 . S
C4244 N4241 1.372 . S
C4244 N4242 1.361 . S
C4244 C4252 1.457 . S
C4245 N4240 1.363 . S
C4245 N4242 1.377 . S
C4245 C4258 1.479 . S
C4246 C4243 1.480 . S
C4246 C4247 1.383 . S
C4246 C4251 1.385 . S
C4247 H4228 0.947 . S
C4247 C4246 1.383 . S
C4247 C4248 1.388 . S
C4248 H4229 0.946 . S
C4248 C4247 1.388 . S
C4248 C4249 1.384 . S
C4249 C4248 1.384 . S
C4249 C4250 1.377 . S
C4250 H4230 0.953 . S
C4250 C4249 1.377 . S
C4250 C4251 1.369 . S
C4251 H4231 0.945 . S
C4251 C4246 1.385 . S
C4251 C4250 1.369 . S
C4252 C4244 1.457 . S
C4252 C4253 1.372 . S
C4252 C4257 1.364 . S
C4253 H4232 0.952 . S
C4253 C4252 1.372 . S
C4253 C4254 1.389 . S
C4254 H4233 0.949 . S
C4254 C4253 1.389 . S
C4254 C4255 1.387 . S
C4255 C4254 1.387 . S
C4255 C4256 1.372 . S
C4256 H4234 0.950 . S
C4256 C4255 1.372 . S
C4256 C4257 1.379 . S
C4257 H4235 0.948 . S
C4257 C4252 1.364 . S
C4257 C4256 1.379 . S
C4258 C4227 1.383 . S
C4258 C4245 1.479 . S
C4258 C4259 1.398 . S
C4259 C4224 1.382 . S
C4259 H4236 0.951 . S
C4259 C4258 1.398 . S
C4260 C4261 1.384 . S
C4260 H4273 0.947 . S
C4260 C4295 1.382 . S
C4261 C4260 1.384 . S
C4261 C4262 1.378 . S
C4262 C4261 1.378 . S
C4262 C4263 1.378 . S
C4262 H4274 0.952 . S
C4263 C4262 1.378 . S
C4263 H4275 0.950 . S
C4263 C4294 1.383 . S
H4264 C4283 0.947 . S
H4265 C4284 0.946 . S
H4266 C4286 0.953 . S
H4267 C4287 0.945 . S
H4268 C4289 0.952 . S
H4269 C4290 0.949 . S
H4270 C4292 0.950 . S
H4271 C4293 0.948 . S
H4272 C4295 0.951 . S
H4273 C4260 0.947 . S
H4274 C4262 0.952 . S
H4275 C4263 0.950 . S
N4276 C4279 1.382 . S
N4276 C4281 1.363 . S
N4277 C4279 1.371 . S
N4277 C4280 1.372 . S
N4278 C4280 1.361 . S
N4278 C4281 1.377 . S
C4279 N4276 1.382 . S
C4279 N4277 1.371 . S
C4279 C4282 1.480 . S
C4280 N4277 1.372 . S
C4280 N4278 1.361 . S
C4280 C4288 1.457 . S
C4281 N4276 1.363 . S
C4281 N4278 1.377 . S
C4281 C4294 1.479 . S
C4282 C4279 1.480 . S
C4282 C4283 1.383 . S
C4282 C4287 1.385 . S
C4283 H4264 0.947 . S
C4283 C4282 1.383 . S
C4283 C4284 1.388 . S
C4284 H4265 0.946 . S
C4284 C4283 1.388 . S
C4284 C4285 1.384 . S
C4285 C4284 1.384 . S
C4285 C4286 1.377 . S
C4286 H4266 0.953 . S
C4286 C4285 1.377 . S
C4286 C4287 1.369 . S
C4287 H4267 0.945 . S
C4287 C4282 1.385 . S
C4287 C4286 1.369 . S
C4288 C4280 1.457 . S
C4288 C4289 1.372 . S
C4288 C4293 1.364 . S
C4289 H4268 0.952 . S
C4289 C4288 1.372 . S
C4289 C4290 1.389 . S
C4290 H4269 0.949 . S
C4290 C4289 1.389 . S
C4290 C4291 1.387 . S
C4291 C4290 1.387 . S
C4291 C4292 1.372 . S
C4292 H4270 0.950 . S
C4292 C4291 1.372 . S
C4292 C4293 1.379 . S
C4293 H4271 0.948 . S
C4293 C4288 1.364 . S
C4293 C4292 1.379 . S
C4294 C4263 1.383 . S
C4294 C4281 1.479 . S
C4294 C4295 1.398 . S
C4295 C4260 1.382 . S
C4295 H4272 0.951 . S
C4295 C4294 1.398 . S
C4296 C4297 1.384 . S
C4296 H4309 0.947 . S
C4296 C4331 1.382 . S
C4297 C4296 1.384 . S
C4297 C4298 1.378 . S
C4298 C4297 1.378 . S
C4298 C4299 1.378 . S
C4298 H4310 0.952 . S
C4299 C4298 1.378 . S
C4299 H4311 0.950 . S
C4299 C4330 1.383 . S
H4300 C4319 0.947 . S
H4301 C4320 0.946 . S
H4302 C4322 0.953 . S
H4303 C4323 0.945 . S
H4304 C4325 0.952 . S
H4305 C4326 0.949 . S
H4306 C4328 0.950 . S
H4307 C4329 0.948 . S
H4308 C4331 0.951 . S
H4309 C4296 0.947 . S
H4310 C4298 0.952 . S
H4311 C4299 0.950 . S
N4312 C4315 1.382 . S
N4312 C4317 1.363 . S
N4313 C4315 1.371 . S
N4313 C4316 1.372 . S
N4314 C4316 1.361 . S
N4314 C4317 1.377 . S
C4315 N4312 1.382 . S
C4315 N4313 1.371 . S
C4315 C4318 1.480 . S
C4316 N4313 1.372 . S
C4316 N4314 1.361 . S
C4316 C4324 1.457 . S
C4317 N4312 1.363 . S
C4317 N4314 1.377 . S
C4317 C4330 1.479 . S
C4318 C4315 1.480 . S
C4318 C4319 1.383 . S
C4318 C4323 1.385 . S
C4319 H4300 0.947 . S
C4319 C4318 1.383 . S
C4319 C4320 1.388 . S
C4320 H4301 0.946 . S
C4320 C4319 1.388 . S
C4320 C4321 1.384 . S
C4321 C4320 1.384 . S
C4321 C4322 1.377 . S
C4322 H4302 0.953 . S
C4322 C4321 1.377 . S
C4322 C4323 1.369 . S
C4323 H4303 0.945 . S
C4323 C4318 1.385 . S
C4323 C4322 1.369 . S
C4324 C4316 1.457 . S
C4324 C4325 1.372 . S
C4324 C4329 1.364 . S
C4325 H4304 0.952 . S
C4325 C4324 1.372 . S
C4325 C4326 1.389 . S
C4326 H4305 0.949 . S
C4326 C4325 1.389 . S
C4326 C4327 1.387 . S
C4327 C4326 1.387 . S
C4327 C4328 1.372 . S
C4328 H4306 0.950 . S
C4328 C4327 1.372 . S
C4328 C4329 1.379 . S
C4329 H4307 0.948 . S
C4329 C4324 1.364 . S
C4329 C4328 1.379 . S
C4330 C4299 1.383 . S
C4330 C4317 1.479 . S
C4330 C4331 1.398 . S
C4331 C4296 1.382 . S
C4331 H4308 0.951 . S
C4331 C4330 1.398 . S
C4332 C4333 1.384 . S
C4332 H4345 0.947 . S
C4332 C4367 1.382 . S
C4333 C4332 1.384 . S
C4333 C4334 1.378 . S
C4334 C4333 1.378 . S
C4334 C4335 1.378 . S
C4334 H4346 0.952 . S
C4335 C4334 1.378 . S
C4335 H4347 0.950 . S
C4335 C4366 1.383 . S
H4336 C4355 0.947 . S
H4337 C4356 0.946 . S
H4338 C4358 0.953 . S
H4339 C4359 0.945 . S
H4340 C4361 0.952 . S
H4341 C4362 0.949 . S
H4342 C4364 0.950 . S
H4343 C4365 0.948 . S
H4344 C4367 0.951 . S
H4345 C4332 0.947 . S
H4346 C4334 0.952 . S
H4347 C4335 0.950 . S
N4348 C4351 1.382 . S
N4348 C4353 1.363 . S
N4349 C4351 1.371 . S
N4349 C4352 1.372 . S
N4350 C4352 1.361 . S
N4350 C4353 1.377 . S
C4351 N4348 1.382 . S
C4351 N4349 1.371 . S
C4351 C4354 1.480 . S
C4352 N4349 1.372 . S
C4352 N4350 1.361 . S
C4352 C4360 1.457 . S
C4353 N4348 1.363 . S
C4353 N4350 1.377 . S
C4353 C4366 1.479 . S
C4354 C4351 1.480 . S
C4354 C4355 1.383 . S
C4354 C4359 1.385 . S
C4355 H4336 0.947 . S
C4355 C4354 1.383 . S
C4355 C4356 1.388 . S
C4356 H4337 0.946 . S
C4356 C4355 1.388 . S
C4356 C4357 1.384 . S
C4357 C4356 1.384 . S
C4357 C4358 1.377 . S
C4358 H4338 0.953 . S
C4358 C4357 1.377 . S
C4358 C4359 1.369 . S
C4359 H4339 0.945 . S
C4359 C4354 1.385 . S
C4359 C4358 1.369 . S
C4360 C4352 1.457 . S
C4360 C4361 1.372 . S
C4360 C4365 1.364 . S
C4361 H4340 0.952 . S
C4361 C4360 1.372 . S
C4361 C4362 1.389 . S
C4362 H4341 0.949 . S
C4362 C4361 1.389 . S
C4362 C4363 1.387 . S
C4363 C4362 1.387 . S
C4363 C4364 1.372 . S
C4364 H4342 0.950 . S
C4364 C4363 1.372 . S
C4364 C4365 1.379 . S
C4365 H4343 0.948 . S
C4365 C4360 1.364 . S
C4365 C4364 1.379 . S
C4366 C4335 1.383 . S
C4366 C4353 1.479 . S
C4366 C4367 1.398 . S
C4367 C4332 1.382 . S
C4367 H4344 0.951 . S
C4367 C4366 1.398 . S
C4368 C4369 1.384 . S
C4368 H4381 0.947 . S
C4368 C4403 1.382 . S
C4369 C4368 1.384 . S
C4369 C4370 1.378 . S
C4370 C4369 1.378 . S
C4370 C4371 1.378 . S
C4370 H4382 0.952 . S
C4371 C4370 1.378 . S
C4371 H4383 0.950 . S
C4371 C4402 1.383 . S
H4372 C4391 0.947 . S
H4373 C4392 0.946 . S
H4374 C4394 0.953 . S
H4375 C4395 0.945 . S
H4376 C4397 0.952 . S
H4377 C4398 0.949 . S
H4378 C4400 0.950 . S
H4379 C4401 0.948 . S
H4380 C4403 0.951 . S
H4381 C4368 0.947 . S
H4382 C4370 0.952 . S
H4383 C4371 0.950 . S
N4384 C4387 1.382 . S
N4384 C4389 1.363 . S
N4385 C4387 1.371 . S
N4385 C4388 1.372 . S
N4386 C4388 1.361 . S
N4386 C4389 1.377 . S
C4387 N4384 1.382 . S
C4387 N4385 1.371 . S
C4387 C4390 1.480 . S
C4388 N4385 1.372 . S
C4388 N4386 1.361 . S
C4388 C4396 1.457 . S
C4389 N4384 1.363 . S
C4389 N4386 1.377 . S
C4389 C4402 1.479 . S
C4390 C4387 1.480 . S
C4390 C4391 1.383 . S
C4390 C4395 1.385 . S
C4391 H4372 0.947 . S
C4391 C4390 1.383 . S
C4391 C4392 1.388 . S
C4392 H4373 0.946 . S
C4392 C4391 1.388 . S
C4392 C4393 1.384 . S
C4393 C4392 1.384 . S
C4393 C4394 1.377 . S
C4394 H4374 0.953 . S
C4394 C4393 1.377 . S
C4394 C4395 1.369 . S
C4395 H4375 0.945 . S
C4395 C4390 1.385 . S
C4395 C4394 1.369 . S
C4396 C4388 1.457 . S
C4396 C4397 1.372 . S
C4396 C4401 1.364 . S
C4397 H4376 0.952 . S
C4397 C4396 1.372 . S
C4397 C4398 1.389 . S
C4398 H4377 0.949 . S
C4398 C4397 1.389 . S
C4398 C4399 1.387 . S
C4399 C4398 1.387 . S
C4399 C4400 1.372 . S
C4400 H4378 0.950 . S
C4400 C4399 1.372 . S
C4400 C4401 1.379 . S
C4401 H4379 0.948 . S
C4401 C4396 1.364 . S
C4401 C4400 1.379 . S
C4402 C4371 1.383 . S
C4402 C4389 1.479 . S
C4402 C4403 1.398 . S
C4403 C4368 1.382 . S
C4403 H4380 0.951 . S
C4403 C4402 1.398 . S
C4404 C4405 1.384 . S
C4404 H4417 0.947 . S
C4404 C4439 1.382 . S
C4405 C4404 1.384 . S
C4405 C4406 1.378 . S
C4406 C4405 1.378 . S
C4406 C4407 1.378 . S
C4406 H4418 0.952 . S
C4407 C4406 1.378 . S
C4407 H4419 0.950 . S
C4407 C4438 1.383 . S
H4408 C4427 0.947 . S
H4409 C4428 0.946 . S
H4410 C4430 0.953 . S
H4411 C4431 0.945 . S
H4412 C4433 0.952 . S
H4413 C4434 0.949 . S
H4414 C4436 0.950 . S
H4415 C4437 0.948 . S
H4416 C4439 0.951 . S
H4417 C4404 0.947 . S
H4418 C4406 0.952 . S
H4419 C4407 0.950 . S
N4420 C4423 1.382 . S
N4420 C4425 1.363 . S
N4421 C4423 1.371 . S
N4421 C4424 1.372 . S
N4422 C4424 1.361 . S
N4422 C4425 1.377 . S
C4423 N4420 1.382 . S
C4423 N4421 1.371 . S
C4423 C4426 1.480 . S
C4424 N4421 1.372 . S
C4424 N4422 1.361 . S
C4424 C4432 1.457 . S
C4425 N4420 1.363 . S
C4425 N4422 1.377 . S
C4425 C4438 1.479 . S
C4426 C4423 1.480 . S
C4426 C4427 1.383 . S
C4426 C4431 1.385 . S
C4427 H4408 0.947 . S
C4427 C4426 1.383 . S
C4427 C4428 1.388 . S
C4428 H4409 0.946 . S
C4428 C4427 1.388 . S
C4428 C4429 1.384 . S
C4429 C4428 1.384 . S
C4429 C4430 1.377 . S
C4430 H4410 0.953 . S
C4430 C4429 1.377 . S
C4430 C4431 1.369 . S
C4431 H4411 0.945 . S
C4431 C4426 1.385 . S
C4431 C4430 1.369 . S
C4432 C4424 1.457 . S
C4432 C4433 1.372 . S
C4432 C4437 1.364 . S
C4433 H4412 0.952 . S
C4433 C4432 1.372 . S
C4433 C4434 1.389 . S
C4434 H4413 0.949 . S
C4434 C4433 1.389 . S
C4434 C4435 1.387 . S
C4435 C4434 1.387 . S
C4435 C4436 1.372 . S
C4436 H4414 0.950 . S
C4436 C4435 1.372 . S
C4436 C4437 1.379 . S
C4437 H4415 0.948 . S
C4437 C4432 1.364 . S
C4437 C4436 1.379 . S
C4438 C4407 1.383 . S
C4438 C4425 1.479 . S
C4438 C4439 1.398 . S
C4439 C4404 1.382 . S
C4439 H4416 0.951 . S
C4439 C4438 1.398 . S
C4440 C4441 1.384 . S
C4440 H4453 0.947 . S
C4440 C4475 1.382 . S
C4441 C4440 1.384 . S
C4441 C4442 1.378 . S
C4442 C4441 1.378 . S
C4442 C4443 1.378 . S
C4442 H4454 0.952 . S
C4443 C4442 1.378 . S
C4443 H4455 0.950 . S
C4443 C4474 1.383 . S
H4444 C4463 0.947 . S
H4445 C4464 0.946 . S
H4446 C4466 0.953 . S
H4447 C4467 0.945 . S
H4448 C4469 0.952 . S
H4449 C4470 0.949 . S
H4450 C4472 0.950 . S
H4451 C4473 0.948 . S
H4452 C4475 0.951 . S
H4453 C4440 0.947 . S
H4454 C4442 0.952 . S
H4455 C4443 0.950 . S
N4456 C4459 1.382 . S
N4456 C4461 1.363 . S
N4457 C4459 1.371 . S
N4457 C4460 1.372 . S
N4458 C4460 1.361 . S
N4458 C4461 1.377 . S
C4459 N4456 1.382 . S
C4459 N4457 1.371 . S
C4459 C4462 1.480 . S
C4460 N4457 1.372 . S
C4460 N4458 1.361 . S
C4460 C4468 1.457 . S
C4461 N4456 1.363 . S
C4461 N4458 1.377 . S
C4461 C4474 1.479 . S
C4462 C4459 1.480 . S
C4462 C4463 1.383 . S
C4462 C4467 1.385 . S
C4463 H4444 0.947 . S
C4463 C4462 1.383 . S
C4463 C4464 1.388 . S
C4464 H4445 0.946 . S
C4464 C4463 1.388 . S
C4464 C4465 1.384 . S
C4465 C4464 1.384 . S
C4465 C4466 1.377 . S
C4466 H4446 0.953 . S
C4466 C4465 1.377 . S
C4466 C4467 1.369 . S
C4467 H4447 0.945 . S
C4467 C4462 1.385 . S
C4467 C4466 1.369 . S
C4468 C4460 1.457 . S
C4468 C4469 1.372 . S
C4468 C4473 1.364 . S
C4469 H4448 0.952 . S
C4469 C4468 1.372 . S
C4469 C4470 1.389 . S
C4470 H4449 0.949 . S
C4470 C4469 1.389 . S
C4470 C4471 1.387 . S
C4471 C4470 1.387 . S
C4471 C4472 1.372 . S
C4472 H4450 0.950 . S
C4472 C4471 1.372 . S
C4472 C4473 1.379 . S
C4473 H4451 0.948 . S
C4473 C4468 1.364 . S
C4473 C4472 1.379 . S
C4474 C4443 1.383 . S
C4474 C4461 1.479 . S
C4474 C4475 1.398 . S
C4475 C4440 1.382 . S
C4475 H4452 0.951 . S
C4475 C4474 1.398 . S
C4476 C4477 1.384 . S
C4476 H4489 0.947 . S
C4476 C4511 1.382 . S
C4477 C4476 1.384 . S
C4477 C4478 1.378 . S
C4478 C4477 1.378 . S
C4478 C4479 1.378 . S
C4478 H4490 0.952 . S
C4479 C4478 1.378 . S
C4479 H4491 0.950 . S
C4479 C4510 1.383 . S
H4480 C4499 0.947 . S
H4481 C4500 0.946 . S
H4482 C4502 0.953 . S
H4483 C4503 0.945 . S
H4484 C4505 0.952 . S
H4485 C4506 0.949 . S
H4486 C4508 0.950 . S
H4487 C4509 0.948 . S
H4488 C4511 0.951 . S
H4489 C4476 0.947 . S
H4490 C4478 0.952 . S
H4491 C4479 0.950 . S
N4492 C4495 1.382 . S
N4492 C4497 1.363 . S
N4493 C4495 1.371 . S
N4493 C4496 1.372 . S
N4494 C4496 1.361 . S
N4494 C4497 1.377 . S
C4495 N4492 1.382 . S
C4495 N4493 1.371 . S
C4495 C4498 1.480 . S
C4496 N4493 1.372 . S
C4496 N4494 1.361 . S
C4496 C4504 1.457 . S
C4497 N4492 1.363 . S
C4497 N4494 1.377 . S
C4497 C4510 1.479 . S
C4498 C4495 1.480 . S
C4498 C4499 1.383 . S
C4498 C4503 1.385 . S
C4499 H4480 0.947 . S
C4499 C4498 1.383 . S
C4499 C4500 1.388 . S
C4500 H4481 0.946 . S
C4500 C4499 1.388 . S
C4500 C4501 1.384 . S
C4501 C4500 1.384 . S
C4501 C4502 1.377 . S
C4502 H4482 0.953 . S
C4502 C4501 1.377 . S
C4502 C4503 1.369 . S
C4503 H4483 0.945 . S
C4503 C4498 1.385 . S
C4503 C4502 1.369 . S
C4504 C4496 1.457 . S
C4504 C4505 1.372 . S
C4504 C4509 1.364 . S
C4505 H4484 0.952 . S
C4505 C4504 1.372 . S
C4505 C4506 1.389 . S
C4506 H4485 0.949 . S
C4506 C4505 1.389 . S
C4506 C4507 1.387 . S
C4507 C4506 1.387 . S
C4507 C4508 1.372 . S
C4508 H4486 0.950 . S
C4508 C4507 1.372 . S
C4508 C4509 1.379 . S
C4509 H4487 0.948 . S
C4509 C4504 1.364 . S
C4509 C4508 1.379 . S
C4510 C4479 1.383 . S
C4510 C4497 1.479 . S
C4510 C4511 1.398 . S
C4511 C4476 1.382 . S
C4511 H4488 0.951 . S
C4511 C4510 1.398 . S
C1981 C8 1.804 1_655 S
C3745 C19 1.689 . S
C2053 C30 1.813 . S
C3673 C41 1.806 . S
C2197 C52 1.804 1_655 S
C63 C3817 1.806 . S
C2125 C74 1.813 . S
C3889 C85 1.689 . S
C4465 C96 1.805 1_565 S
C107 C4249 1.813 . S
C4501 C118 1.685 1_545 S
C129 C4429 1.804 . S
C4321 C140 1.805 1_545 S
C2629 C151 1.804 . S
C2665 C162 1.685 1_565 S
C173 C2557 1.813 . S
C184 C4141 1.806 1_554 S
C2341 C195 1.806 1_554 S
C3961 C206 1.805 . S
C2269 C217 1.689 . S
C228 C2305 1.685 . S
C4213 C239 1.689 . S
C4105 C250 1.805 . S
C261 C4177 1.685 . S
C272 C1117 1.677 1_655 S
C283 C2881 1.668 . S
C1189 C294 1.648 . S
C305 C2809 1.790 . S
C1333 C316 1.677 1_455 S
C327 C2953 1.790 . S
C1261 C338 1.648 . S
C3025 C349 1.668 . S
C360 C3601 1.667 1_565 S
C3385 C371 1.648 . S
C382 C3637 1.785 1_545 S
C3565 C393 1.677 . S
C3457 C404 1.667 1_565 S
C415 C1765 1.677 . S
C426 C1801 1.785 1_565 S
C1693 C437 1.648 . S
C448 C3277 1.790 1_556 S
C1477 C459 1.790 1_556 S
C470 C3097 1.667 . S
C1405 C481 1.668 . S
C492 C1441 1.785 . S
C3349 C503 1.668 . S
C3241 C514 1.667 . S
C3313 C525 1.785 . S
C536 C3709 1.804 . S
C2017 C547 1.689 . S
C3781 C558 1.813 1_455 S
C1945 C569 1.806 . S
C580 C3925 1.804 . S
C2089 C591 1.806 . S
C3853 C602 1.813 1_455 S
C2161 C613 1.689 . S
C624 C2737 1.805 . S
C2521 C635 1.813 . S
C2773 C646 1.685 . S
C657 C2701 1.804 . S
C668 C2593 1.805 . S
C679 C4357 1.804 . S
C690 C4393 1.685 . S
C4285 C701 1.813 . S
C712 C2413 1.806 . S
C4069 C723 1.806 . S
C2233 C734 1.805 . S
C3997 C745 1.689 1_554 S
C756 C4033 1.685 . S
C767 C2485 1.689 1_554 S
C2377 C778 1.805 . S
C789 C2449 1.685 . S
C800 C2845 1.677 . S
C1153 C811 1.668 . S
C2917 C822 1.648 1_655 S
C833 C1081 1.790 . S
C3061 C844 1.677 . S
C1225 C855 1.790 . S
C866 C2989 1.648 1_455 S
C877 C1297 1.668 . S
C1873 C888 1.667 . S
C899 C1657 1.648 . S
C1909 C910 1.785 . S
C1837 C921 1.677 . S
C932 C1729 1.667 . S
C943 C3493 1.677 . S
C3529 C954 1.785 . S
C965 C3421 1.648 . S
C1549 C976 1.790 . S
C3205 C987 1.790 . S
C998 C1369 1.667 . S
C1009 C3133 1.668 1_554 S
C1020 C3169 1.785 . S
C1031 C1621 1.668 1_556 S
C1042 C1513 1.667 . S
C1585 C1053 1.785 . S
C1381 C5 1.585 . S
C1447 C16 1.698 . S
C27 C1483 1.723 . S
C38 C1345 1.605 . S
C49 C1597 1.585 . S
C1489 C60 1.605 . S
C1555 C71 1.723 . S
C82 C1591 1.698 . S
C93 C1165 1.590 . S
C104 C1087 1.723 . S
C115 C1093 1.593 . S
C1129 C126 1.585 . S
C137 C1237 1.590 . S
C148 C1273 1.585 . S
C159 C1309 1.593 . S
C170 C1231 1.723 . S
C1705 C181 1.605 . S
C192 C3577 1.605 . S
C1633 C203 1.590 . S
C3643 C214 1.698 . S
C225 C3541 1.593 . S
C236 C3535 1.698 . S
C3397 C247 1.590 . S
C3469 C258 1.593 . S
C2275 C269 2.517 . S
C2311 C280 2.515 . S
C2317 C291 2.649 . S
C302 C2209 2.642 . S
C313 C2491 2.517 . S
C2353 C324 2.642 . S
C335 C2389 2.649 . S
C2455 C346 2.515 . S
C357 C2029 2.687 . S
C1921 C368 2.649 . S
C379 C1957 2.637 . S
C2023 C390 2.517 . S
C2101 C401 2.687 . S
C412 C2167 2.517 . S
C2173 C423 2.637 . S
C2065 C434 2.649 . S
C2569 C445 2.642 . S
C4441 C456 2.642 . S
C2497 C467 2.687 . S
C478 C4507 2.515 . S
C489 C4405 2.637 . S
C4399 C500 2.515 . S
C4261 C511 2.687 . S
C4333 C522 2.637 . S
C533 C3109 1.585 . S
C3175 C544 1.698 . S
C555 C3211 1.723 . S
C3073 C566 1.605 . S
C577 C3325 1.585 . S
C588 C3217 1.605 . S
C599 C3283 1.723 . S
C610 C3319 1.698 . S
C621 C2893 1.590 . S
C2815 C632 1.723 . S
C2821 C643 1.593 . S
C654 C2857 1.585 . S
C665 C2965 1.590 . S
C676 C3001 1.585 . S
C687 C3037 1.593 . S
C698 C2959 1.723 . S
C3433 C709 1.605 . S
C1849 C720 1.605 . S
C3361 C731 1.590 . S
C1915 C742 1.698 . S
C1813 C753 1.593 . S
C1807 C764 1.698 . S
C775 C1669 1.590 . S
C1741 C786 1.593 . S
C797 C4003 2.517 . S
C808 C4039 2.515 . S
C4045 C819 2.649 . S
C830 C3937 2.642 . S
C4219 C841 2.517 . S
C852 C4081 2.642 . S
C863 C4117 2.649 . S
C4183 C874 2.515 . S
C3757 C885 2.687 . S
C3649 C896 2.649 . S
C3685 C907 2.637 . S
C3751 C918 2.517 . S
C929 C3829 2.687 . S
C3895 C940 2.517 . S
C951 C3901 2.637 . S
C962 C3793 2.649 . S
C973 C4297 2.642 . S
C984 C2713 2.642 . S
C995 C4225 2.687 . S
C2779 C1006 2.515 . S
C1017 C2677 2.637 . S
C1028 C2671 2.515 . S
C1039 C2533 2.687 . S
C2605 C1050 2.637 . S
C7 C1057 2.191 . S
C18 C1123 2.046 . S
C29 C1159 2.058 . S
C1195 C40 2.042 . S
C1201 C51 2.191 . S
C62 C1267 2.042 . S
C73 C1303 2.058 . S
C84 C1339 2.046 . S
C1375 C95 2.038 . S
C1411 C106 2.058 . S
C117 C1417 2.199 . S
C1453 C128 2.191 . S
C139 C1519 2.038 . S
C150 C1525 2.191 . S
C161 C1561 2.199 . S
C172 C1627 2.058 . S
C183 C1663 2.042 . S
C194 C1699 2.042 . S
C1735 C205 2.038 . S
C1771 C216 2.046 . S
C1777 C227 2.199 . S
C1843 C238 2.046 . S
C249 C1879 2.038 . S
C1885 C260 2.199 . S
C271 C1951 2.593 . S
C282 C1987 2.592 . S
C293 C1993 2.418 . S
C2059 C304 2.565 . S
C315 C2095 2.593 . S
C2131 C326 2.565 . S
C337 C2137 2.418 . S
C348 C2203 2.592 . S
C2239 C359 2.583 . S
C370 C2245 2.418 . S
C2281 C381 2.414 . S
C392 C2347 2.593 . S
C2383 C403 2.583 . S
C2419 C414 2.593 . S
C2425 C425 2.414 . S
C436 C2461 2.418 . S
C447 C2527 2.565 . S
C458 C2563 2.565 . S
C469 C2599 2.583 . S
C480 C2635 2.592 . S
C491 C2641 2.414 . S
C2707 C502 2.592 . S
C513 C2743 2.583 . S
C2749 C524 2.414 . S
C535 C2785 2.191 . S
C2851 C546 2.046 . S
C2887 C557 2.058 . S
C2923 C568 2.042 . S
C579 C2929 2.191 . S
C590 C2995 2.042 . S
C3031 C601 2.058 . S
C3067 C612 2.046 . S
C623 C3103 2.038 . S
C634 C3139 2.058 . S
C645 C3145 2.199 . S
C656 C3181 2.191 . S
C667 C3247 2.038 . S
C3253 C678 2.191 . S
C3289 C689 2.199 . S
C3355 C700 2.058 . S
C3391 C711 2.042 . S
C722 C3427 2.042 . S
C733 C3463 2.038 . S
C3499 C744 2.046 . S
C755 C3505 2.199 . S
C3571 C766 2.046 . S
C3607 C777 2.038 . S
C3613 C788 2.199 . S
C799 C3679 2.593 . S
C810 C3715 2.592 . S
C821 C3721 2.418 . S
C832 C3787 2.565 . S
C3823 C843 2.593 . S
C3859 C854 2.565 . S
C3865 C865 2.418 . S
C876 C3931 2.592 . S
C887 C3967 2.583 . S
C3973 C898 2.418 . S
C4009 C909 2.414 . S
C4075 C920 2.593 . S
C4111 C931 2.583 . S
C4147 C942 2.593 . S
C4153 C953 2.414 . S
C4189 C964 2.418 . S
C4255 C975 2.565 . S
C4291 C986 2.565 . S
C4327 C997 2.583 . S
C1008 C4363 2.592 . S
C4369 C1019 2.414 . S
C1030 C4435 2.592 . S
C4471 C1041 2.583 . S
C4477 C1052 2.414 . S
