# Generated by pormake.
# Topology apo, (3,6)-cn, num edge types: 1
# Building blocks:
#     Node 0, Type 0, BuildingBlock: BELTOD_clean_linker_0, # of connection points: 3
#     Node 1, Type 0, BuildingBlock: BELTOD_clean_linker_0, # of connection points: 3
#     Node 2, Type 0, BuildingBlock: BELTOD_clean_linker_0, # of connection points: 3
#     Node 3, Type 0, BuildingBlock: BELTOD_clean_linker_0, # of connection points: 3
#     Node 4, Type 0, BuildingBlock: BELTOD_clean_linker_0, # of connection points: 3
#     Node 5, Type 0, BuildingBlock: BELTOD_clean_linker_0, # of connection points: 3
#     Node 6, Type 0, BuildingBlock: BELTOD_clean_linker_0, # of connection points: 3
#     Node 7, Type 0, BuildingBlock: BELTOD_clean_linker_0, # of connection points: 3
#     Node 8, Type 1, BuildingBlock: MIDCAF_clean_sbu_0, # of connection points: 6
#     Node 9, Type 1, BuildingBlock: MIDCAF_clean_sbu_0, # of connection points: 6
#     Node 10, Type 1, BuildingBlock: MIDCAF_clean_sbu_0, # of connection points: 6
#     Node 11, Type 1, BuildingBlock: MIDCAF_clean_sbu_0, # of connection points: 6
#     Edge 12, Type (0, 1), BuildingBlock: UVAHIK_clean_linker_0, # of connection points: 2
#     Edge 13, Type (0, 1), BuildingBlock: UVAHIK_clean_linker_0, # of connection points: 2
#     Edge 14, Type (0, 1), BuildingBlock: UVAHIK_clean_linker_0, # of connection points: 2
#     Edge 15, Type (0, 1), BuildingBlock: UVAHIK_clean_linker_0, # of connection points: 2
#     Edge 16, Type (0, 1), BuildingBlock: UVAHIK_clean_linker_0, # of connection points: 2
#     Edge 17, Type (0, 1), BuildingBlock: UVAHIK_clean_linker_0, # of connection points: 2
#     Edge 18, Type (0, 1), BuildingBlock: UVAHIK_clean_linker_0, # of connection points: 2
#     Edge 19, Type (0, 1), BuildingBlock: UVAHIK_clean_linker_0, # of connection points: 2
#     Edge 20, Type (0, 1), BuildingBlock: UVAHIK_clean_linker_0, # of connection points: 2
#     Edge 21, Type (0, 1), BuildingBlock: UVAHIK_clean_linker_0, # of connection points: 2
#     Edge 22, Type (0, 1), BuildingBlock: UVAHIK_clean_linker_0, # of connection points: 2
#     Edge 23, Type (0, 1), BuildingBlock: UVAHIK_clean_linker_0, # of connection points: 2
#     Edge 24, Type (0, 1), BuildingBlock: UVAHIK_clean_linker_0, # of connection points: 2
#     Edge 25, Type (0, 1), BuildingBlock: UVAHIK_clean_linker_0, # of connection points: 2
#     Edge 26, Type (0, 1), BuildingBlock: UVAHIK_clean_linker_0, # of connection points: 2
#     Edge 27, Type (0, 1), BuildingBlock: UVAHIK_clean_linker_0, # of connection points: 2
#     Edge 28, Type (0, 1), BuildingBlock: UVAHIK_clean_linker_0, # of connection points: 2
#     Edge 29, Type (0, 1), BuildingBlock: UVAHIK_clean_linker_0, # of connection points: 2
#     Edge 30, Type (0, 1), BuildingBlock: UVAHIK_clean_linker_0, # of connection points: 2
#     Edge 31, Type (0, 1), BuildingBlock: UVAHIK_clean_linker_0, # of connection points: 2
#     Edge 32, Type (0, 1), BuildingBlock: UVAHIK_clean_linker_0, # of connection points: 2
#     Edge 33, Type (0, 1), BuildingBlock: UVAHIK_clean_linker_0, # of connection points: 2
#     Edge 34, Type (0, 1), BuildingBlock: UVAHIK_clean_linker_0, # of connection points: 2
#     Edge 35, Type (0, 1), BuildingBlock: UVAHIK_clean_linker_0, # of connection points: 2
# Relax obj value: 0.078
# Max RMSD: 0.096
# Mean RMSD: 0.083
data_MOF--net-apo--node1-MIDCAF_clean_sbu_0--node2-BELTOD_clean_linker_0--edge1-UVAHIK_clean_linker_0
_symmetry_space_group_name_H-M    P1
_symmetry_Int_Tables_number       1
_symmetry_cell_setting            triclinic
loop_
_symmetry_equiv_pos_as_xyz
'x, y, z'
_cell_length_a     49.609076
_cell_length_b     58.902069
_cell_length_c     52.359786
_cell_angle_alpha  89.921769
_cell_angle_beta   90.080357
_cell_angle_gamma 90.203796
loop_
_atom_site_label
_atom_site_type_symbol
_atom_site_fract_x
_atom_site_fract_y
_atom_site_fract_z
_atom_type_partial_charge
P0 P 0.34348 0.34208 0.39583 0.0
H1 H 0.34433 0.31178 0.44009 0.0
H2 H 0.34542 0.31939 0.48604 0.0
H3 H 0.32965 0.39026 0.47125 0.0
H4 H 0.32844 0.38256 0.42546 0.0
H5 H 0.34006 0.31404 0.35053 0.0
H6 H 0.30257 0.29965 0.32521 0.0
H7 H 0.24662 0.33407 0.37507 0.0
H8 H 0.28461 0.34784 0.40092 0.0
H9 H 0.39702 0.36225 0.39452 0.0
H10 H 0.31716 0.37982 0.36883 0.0
O11 O 0.36797 0.32281 0.39374 0.0
H12 H 0.41387 0.39908 0.38017 0.0
H13 H 0.33367 0.41701 0.355 0.0
C14 C 0.33694 0.34667 0.42931 0.0
C15 C 0.34046 0.32885 0.44677 0.0
C16 C 0.341 0.33322 0.47305 0.0
C17 C 0.33809 0.35551 0.48222 0.0
C18 C 0.33246 0.37299 0.46471 0.0
C19 C 0.3317 0.36857 0.43849 0.0
C20 C 0.31506 0.33156 0.3779 0.0
C21 C 0.31971 0.31834 0.35616 0.0
C22 C 0.2982 0.31035 0.34147 0.0
C23 C 0.27146 0.31571 0.34798 0.0
C24 C 0.2669 0.32933 0.36967 0.0
C25 C 0.28856 0.33725 0.38447 0.0
C26 C 0.35599 0.36813 0.38224 0.0
C27 C 0.38318 0.37394 0.38545 0.0
C28 C 0.39271 0.39513 0.37751 0.0
C29 C 0.37511 0.41107 0.3665 0.0
C30 C 0.34786 0.40503 0.36304 0.0
C31 C 0.33838 0.38376 0.37095 0.0
P32 P 0.24819 0.0956 0.92215 0.0
H33 H 0.23941 0.04864 0.90583 0.0
H34 H 0.20723 0.03114 0.87662 0.0
H35 H 0.17077 0.09661 0.86309 0.0
H36 H 0.20298 0.114 0.89287 0.0
H37 H 0.27851 0.13742 0.93407 0.0
H38 H 0.31086 0.15991 0.90922 0.0
H39 H 0.29924 0.11517 0.84487 0.0
H40 H 0.26667 0.09304 0.86951 0.0
H41 H 0.231 0.07822 0.9713 0.0
H42 H 0.22636 0.14175 0.93056 0.0
O43 O 0.26821 0.07547 0.93405 0.0
H44 H 0.20652 0.0948 0.00707 0.0
H45 H 0.20204 0.15865 0.96671 0.0
C46 C 0.22342 0.08259 0.90164 0.0
C47 C 0.22442 0.05925 0.89673 0.0
C48 C 0.20614 0.04928 0.87978 0.0
C49 C 0.18653 0.0625 0.86733 0.0
C50 C 0.18547 0.08592 0.8725 0.0
C51 C 0.20385 0.09589 0.88948 0.0
C52 C 0.26938 0.11405 0.90336 0.0
C53 C 0.28232 0.13284 0.91439 0.0
C54 C 0.30091 0.14559 0.90023 0.0
C55 C 0.30745 0.13931 0.87509 0.0
C56 C 0.2946 0.12038 0.8642 0.0
C57 C 0.27577 0.10787 0.87822 0.0
C58 C 0.23117 0.10891 0.94857 0.0
C59 C 0.22502 0.09585 0.97019 0.0
C60 C 0.21088 0.10531 0.99058 0.0
C61 C 0.20253 0.12806 0.98975 0.0
C62 C 0.20862 0.14117 0.96801 0.0
C63 C 0.22251 0.13155 0.94738 0.0
P64 P 0.82723 0.1606 0.61721 0.0
H65 H 0.84533 0.20211 0.59161 0.0
H66 H 0.85345 0.21144 0.54681 0.0
H67 H 0.82245 0.1456 0.52481 0.0
H68 H 0.81359 0.13678 0.56965 0.0
H69 H 0.80837 0.16594 0.66935 0.0
H70 H 0.76443 0.17364 0.68797 0.0
H71 H 0.72972 0.17679 0.61218 0.0
H72 H 0.77353 0.16753 0.59391 0.0
H73 H 0.86747 0.13242 0.59175 0.0
H74 H 0.81065 0.12479 0.65357 0.0
O75 O 0.84934 0.17641 0.63344 0.0
H76 H 0.88464 0.09426 0.60024 0.0
H77 H 0.82842 0.08705 0.66255 0.0
C78 C 0.82952 0.16853 0.58396 0.0
C79 C 0.84001 0.18979 0.57711 0.0
C80 C 0.84477 0.19506 0.55146 0.0
C81 C 0.83907 0.17914 0.53214 0.0
C82 C 0.82701 0.15834 0.53908 0.0
C83 C 0.82212 0.15316 0.56476 0.0
C84 C 0.79428 0.16623 0.63026 0.0
C85 C 0.79122 0.16812 0.65676 0.0
C86 C 0.76603 0.17275 0.66738 0.0
C87 C 0.74332 0.1761 0.65167 0.0
C88 C 0.74652 0.17402 0.62501 0.0
C89 C 0.77171 0.16893 0.61444 0.0
C90 C 0.83726 0.1314 0.62158 0.0
C91 C 0.85826 0.12243 0.60679 0.0
C92 C 0.86816 0.10065 0.61169 0.0
C93 C 0.85779 0.08774 0.632 0.0
C94 C 0.83677 0.0967 0.64678 0.0
C95 C 0.82654 0.11831 0.64156 0.0
P96 P 0.7436 0.40758 0.11055 0.0
H97 H 0.74828 0.44154 0.15071 0.0
H98 H 0.71561 0.45917 0.1791 0.0
H99 H 0.65272 0.41672 0.14731 0.0
H100 H 0.68543 0.39973 0.11838 0.0
H101 H 0.79696 0.38768 0.1068 0.0
H102 H 0.8195 0.35781 0.13074 0.0
H103 H 0.74472 0.34208 0.16935 0.0
H104 H 0.72246 0.37257 0.14568 0.0
H105 H 0.74622 0.4331 0.06296 0.0
H106 H 0.70853 0.37148 0.08973 0.0
O107 O 0.76845 0.42652 0.10705 0.0
H108 H 0.72456 0.42861 0.02168 0.0
H109 H 0.68517 0.36752 0.04872 0.0
C110 C 0.71919 0.41979 0.1319 0.0
C111 C 0.72743 0.43611 0.14974 0.0
C112 C 0.70874 0.44598 0.16623 0.0
C113 C 0.68144 0.43947 0.16545 0.0
C114 C 0.67346 0.42247 0.14811 0.0
C115 C 0.69218 0.41271 0.13151 0.0
C116 C 0.75819 0.38263 0.12479 0.0
C117 C 0.78532 0.37764 0.1202 0.0
C118 C 0.79816 0.36041 0.13386 0.0
C119 C 0.78402 0.34762 0.15224 0.0
C120 C 0.75636 0.35189 0.15576 0.0
C121 C 0.74354 0.36923 0.14208 0.0
C122 C 0.72911 0.40257 0.07943 0.0
C123 C 0.73329 0.4185 0.05993 0.0
C124 C 0.72054 0.41606 0.03632 0.0
C125 C 0.7027 0.39787 0.03177 0.0
C126 C 0.69894 0.38163 0.0513 0.0
C127 C 0.71214 0.38393 0.07487 0.0
P128 P 0.72917 0.60596 0.59646 0.0
H129 H 0.73693 0.63577 0.55296 0.0
H130 H 0.71129 0.64138 0.51369 0.0
H131 H 0.64709 0.59944 0.54395 0.0
H132 H 0.6734 0.59329 0.58276 0.0
H133 H 0.77857 0.61056 0.62511 0.0
H134 H 0.79679 0.6402 0.65249 0.0
H135 H 0.72739 0.68205 0.63645 0.0
H136 H 0.70936 0.65208 0.60842 0.0
H137 H 0.72944 0.55659 0.60064 0.0
H138 H 0.69442 0.61291 0.64117 0.0
O139 O 0.75503 0.59258 0.58285 0.0
H140 H 0.71204 0.53042 0.63281 0.0
H141 H 0.6772 0.58675 0.67382 0.0
C142 C 0.70706 0.61425 0.57082 0.0
C143 C 0.71707 0.6282 0.55133 0.0
C144 C 0.70231 0.6314 0.52885 0.0
C145 C 0.67712 0.62071 0.52544 0.0
C146 C 0.66661 0.60758 0.54565 0.0
C147 C 0.68152 0.60427 0.56806 0.0
C148 C 0.74294 0.62934 0.61435 0.0
C149 C 0.76741 0.62623 0.62716 0.0
C150 C 0.77764 0.6431 0.64311 0.0
C151 C 0.76341 0.66342 0.64689 0.0
C152 C 0.73889 0.66664 0.63381 0.0
C153 C 0.72861 0.64959 0.61777 0.0
C154 C 0.71366 0.58671 0.6188 0.0
C155 C 0.71799 0.56333 0.61649 0.0
C156 C 0.70818 0.5484 0.63501 0.0
C157 C 0.69371 0.55656 0.65616 0.0
C158 C 0.68835 0.57995 0.65781 0.0
C159 C 0.69825 0.59491 0.63922 0.0
P160 P 0.8594 0.81976 0.12964 0.0
H161 H 0.90977 0.82931 0.15742 0.0
H162 H 0.92817 0.86405 0.17635 0.0
H163 H 0.85706 0.90055 0.15222 0.0
H164 H 0.83868 0.86577 0.13399 0.0
H165 H 0.84357 0.79021 0.17199 0.0
H166 H 0.80009 0.78197 0.19194 0.0
H167 H 0.76155 0.82906 0.14015 0.0
H168 H 0.80493 0.83651 0.1198 0.0
H169 H 0.87991 0.85419 0.09366 0.0
H170 H 0.83133 0.79335 0.09059 0.0
O171 O 0.88024 0.798 0.13447 0.0
H172 H 0.87505 0.85893 0.04768 0.0
H173 H 0.82653 0.79797 0.04423 0.0
C174 C 0.87278 0.84497 0.14445 0.0
C175 C 0.89807 0.84477 0.15642 0.0
C176 C 0.90864 0.86467 0.16711 0.0
C177 C 0.89405 0.8851 0.16594 0.0
C178 C 0.86862 0.88507 0.15398 0.0
C179 C 0.85809 0.86519 0.14341 0.0
C180 C 0.82733 0.81357 0.14409 0.0
C181 C 0.82569 0.79859 0.16483 0.0
C182 C 0.80085 0.79411 0.17641 0.0
C183 C 0.77724 0.80478 0.1676 0.0
C184 C 0.77919 0.82021 0.14713 0.0
C185 C 0.80401 0.82456 0.13551 0.0
C186 C 0.8555 0.82365 0.09568 0.0
C187 C 0.86787 0.84199 0.0832 0.0
C188 C 0.86504 0.84472 0.05684 0.0
C189 C 0.85014 0.82897 0.04236 0.0
C190 C 0.8381 0.81039 0.05488 0.0
C191 C 0.84076 0.80778 0.08134 0.0
P192 P 0.18631 0.87593 0.39645 0.0
H193 H 0.21631 0.87468 0.44441 0.0
H194 H 0.2016 0.87265 0.48905 0.0
H195 H 0.12 0.85999 0.46398 0.0
H196 H 0.13489 0.86136 0.41946 0.0
H197 H 0.22336 0.87687 0.35398 0.0
H198 H 0.24648 0.84743 0.32986 0.0
H199 H 0.21053 0.79608 0.37811 0.0
H200 H 0.18716 0.82592 0.4023 0.0
H201 H 0.14412 0.90851 0.4077 0.0
H202 H 0.16581 0.86512 0.34466 0.0
O203 O 0.20736 0.89802 0.39842 0.0
H204 H 0.10751 0.92457 0.38221 0.0
H205 H 0.12973 0.88168 0.31892 0.0
C206 C 0.17658 0.86878 0.42865 0.0
C207 C 0.19537 0.87094 0.44853 0.0
C208 C 0.18697 0.86979 0.47401 0.0
C209 C 0.15958 0.86662 0.47988 0.0
C210 C 0.14115 0.86286 0.45991 0.0
C211 C 0.14966 0.86363 0.43448 0.0
C212 C 0.20392 0.85358 0.38013 0.0
C213 C 0.22055 0.85929 0.35949 0.0
C214 C 0.23352 0.84242 0.34554 0.0
C215 C 0.23018 0.81942 0.35198 0.0
C216 C 0.21354 0.81368 0.3728 0.0
C217 C 0.20025 0.83068 0.38663 0.0
C218 C 0.15758 0.88545 0.37826 0.0
C219 C 0.14073 0.90214 0.38856 0.0
C220 C 0.11978 0.91126 0.37402 0.0
C221 C 0.11574 0.90424 0.34867 0.0
C222 C 0.13242 0.88732 0.33845 0.0
C223 C 0.15309 0.87789 0.35319 0.0
P224 P 0.3386 0.65203 0.87721 0.0
H225 H 0.36078 0.64364 0.82698 0.0
H226 H 0.36791 0.60931 0.80209 0.0
H227 H 0.33734 0.56901 0.86496 0.0
H228 H 0.32844 0.6037 0.88883 0.0
H229 H 0.32601 0.68682 0.8392 0.0
H230 H 0.28348 0.70116 0.82211 0.0
H231 H 0.23971 0.65404 0.87005 0.0
H232 H 0.28247 0.63985 0.8872 0.0
H233 H 0.36785 0.62275 0.91323 0.0
H234 H 0.30909 0.67643 0.91689 0.0
O235 O 0.36318 0.67052 0.87055 0.0
H236 H 0.36921 0.62118 0.95993 0.0
H237 H 0.31049 0.67502 0.9635 0.0
C238 C 0.34512 0.62615 0.86014 0.0
C239 C 0.35581 0.62737 0.83544 0.0
C240 C 0.35997 0.60764 0.82125 0.0
C241 C 0.35367 0.58617 0.83154 0.0
C242 C 0.34233 0.58514 0.8562 0.0
C243 C 0.33767 0.60498 0.87017 0.0
C244 C 0.30727 0.66273 0.86496 0.0
C245 C 0.30726 0.67967 0.84615 0.0
C246 C 0.28295 0.68769 0.83619 0.0
C247 C 0.25824 0.6788 0.84483 0.0
C248 C 0.25841 0.66144 0.86331 0.0
C249 C 0.28277 0.65334 0.87312 0.0
C250 C 0.33754 0.64905 0.91151 0.0
C251 C 0.3547 0.63377 0.92404 0.0
C252 C 0.35552 0.63293 0.95074 0.0
C253 C 0.33975 0.64783 0.96539 0.0
C254 C 0.32282 0.6633 0.95275 0.0
C255 C 0.32182 0.66395 0.92608 0.0
Zn256 Zn 0.03769 0.14416 0.28789 0.0
Zn257 Zn 0.97802 0.15879 0.20596 0.0
Zn258 Zn 0.00745 0.15416 0.24839 0.0
C259 C 0.03104 0.17513 0.19625 0.0
C260 C 0.97911 0.11312 0.21534 0.0
O261 O 0.98471 0.16824 0.28078 0.0
O262 O 0.00834 0.15278 0.31212 0.0
C263 C 0.06695 0.17528 0.25946 0.0
O264 O 0.03442 0.17037 0.22008 0.0
O265 O 0.00841 0.17179 0.18574 0.0
O266 O 0.96726 0.12671 0.20051 0.0
O267 O 0.99484 0.1206 0.23308 0.0
O268 O 0.06763 0.16529 0.28078 0.0
O269 O 0.04677 0.17233 0.24423 0.0
O270 O 0.01103 0.11677 0.25442 0.0
O271 O 0.04388 0.11143 0.28243 0.0
C272 C 0.02664 0.10343 0.26718 0.0
O273 O 0.97237 0.17613 0.2581 0.0
O274 O 0.95108 0.17914 0.221 0.0
C275 C 0.9879 0.16374 0.30467 0.0
C276 C 0.95294 0.18405 0.24437 0.0
Zn277 Zn 0.53364 0.34951 0.7196 0.0
Zn278 Zn 0.47601 0.34681 0.80546 0.0
Zn279 Zn 0.506 0.34736 0.76335 0.0
C280 C 0.44845 0.37328 0.77027 0.0
C281 C 0.48404 0.30169 0.79047 0.0
O282 O 0.5172 0.31209 0.75293 0.0
O283 O 0.53953 0.31642 0.71661 0.0
C284 C 0.56174 0.37501 0.7563 0.0
O285 O 0.46876 0.36707 0.75664 0.0
O286 O 0.44602 0.36613 0.7929 0.0
O287 O 0.47192 0.31346 0.80696 0.0
O288 O 0.4982 0.31129 0.77288 0.0
O289 O 0.56313 0.36884 0.73326 0.0
O290 O 0.54208 0.36839 0.77056 0.0
O291 O 0.48024 0.36207 0.73265 0.0
O292 O 0.50543 0.36342 0.69784 0.0
C293 C 0.48305 0.36661 0.70868 0.0
O294 O 0.52997 0.36385 0.79431 0.0
O295 O 0.50342 0.3609 0.82805 0.0
C296 C 0.53044 0.3037 0.73402 0.0
C297 C 0.52565 0.36687 0.81837 0.0
Zn298 Zn 0.00832 0.85927 0.80453 0.0
Zn299 Zn 0.9896 0.83142 0.7229 0.0
Zn300 Zn 0.99406 0.84969 0.76126 0.0
C301 C 0.97402 0.87716 0.71609 0.0
C302 C 0.95085 0.81414 0.75028 0.0
O303 O 0.02204 0.823 0.76777 0.0
O304 O 0.03263 0.83185 0.80728 0.0
C305 C 0.02076 0.89704 0.77239 0.0
O306 O 0.99193 0.87775 0.73401 0.0
O307 O 0.96616 0.8579 0.70814 0.0
O308 O 0.9701 0.80475 0.73857 0.0
O309 O 0.95358 0.83477 0.75782 0.0
O310 O 0.02307 0.88997 0.7951 0.0
O311 O 0.01011 0.88428 0.75508 0.0
O312 O 0.95539 0.84992 0.7811 0.0
O313 O 0.97121 0.8582 0.81942 0.0
C314 C 0.9515 0.85398 0.80485 0.0
O315 O 0.02045 0.86733 0.7334 0.0
O316 O 0.03013 0.83394 0.71726 0.0
C317 C 0.03517 0.81889 0.78816 0.0
C318 C 0.03622 0.85471 0.72002 0.0
Zn319 Zn 0.50958 0.65713 0.20668 0.0
Zn320 Zn 0.48529 0.67857 0.28833 0.0
Zn321 Zn 0.49391 0.66277 0.2499 0.0
C322 C 0.53296 0.65732 0.29394 0.0
C323 C 0.47218 0.63213 0.29144 0.0
O324 O 0.45615 0.66153 0.22768 0.0
O325 O 0.47416 0.6602 0.18917 0.0
C326 C 0.53629 0.69564 0.22742 0.0
O327 O 0.51944 0.64467 0.27835 0.0
O328 O 0.52504 0.67748 0.29765 0.0
O329 O 0.46187 0.65058 0.29909 0.0
O330 O 0.49184 0.63326 0.27535 0.0
O331 O 0.53491 0.68377 0.20733 0.0
O332 O 0.5218 0.69049 0.24667 0.0
O333 O 0.51092 0.62863 0.25435 0.0
O334 O 0.52256 0.62537 0.21372 0.0
C335 C 0.52098 0.61693 0.23592 0.0
O336 O 0.45248 0.67601 0.25163 0.0
O337 O 0.4658 0.70551 0.27393 0.0
C338 C 0.45357 0.66088 0.20328 0.0
C339 C 0.44783 0.69595 0.26051 0.0
C340 C 0.06967 0.92028 0.34105 0.0
C341 C 0.09599 0.91628 0.33238 0.0
C342 C 0.0525 0.93471 0.32746 0.0
C343 C 0.04808 0.97033 0.26768 0.0
H344 H 0.0133 0.01261 0.31362 0.0
C345 C 0.04759 0.06637 0.25746 0.0
C346 C 0.02467 0.07872 0.26435 0.0
C347 C 0.04737 0.04272 0.25868 0.0
C348 C 0.02224 0.00069 0.30039 0.0
H349 H 0.12463 0.92329 0.30222 0.0
H350 H 0.09541 0.94911 0.27912 0.0
H351 H 0.02978 0.9768 0.33007 0.0
H352 H 0.98319 0.07648 0.27686 0.0
H353 H 0.98311 0.0348 0.28009 0.0
H354 H 0.04268 0.99564 0.2386 0.0
C355 C 0.08741 0.94069 0.29586 0.0
C356 C 0.03172 0.98002 0.3098 0.0
C357 C 0.10434 0.92594 0.3092 0.0
C358 C 0.00105 0.06715 0.2714 0.0
C359 C 0.001 0.04342 0.27319 0.0
C360 C 0.039 0.99123 0.25839 0.0
C361 C 0.06153 0.94587 0.30523 0.0
C362 C 0.0459 0.965 0.29385 0.0
C363 C 0.02443 0.03108 0.2675 0.0
C364 C 0.02703 0.00695 0.27494 0.0
H365 H 0.06268 0.91278 0.35876 0.0
H366 H 0.03253 0.9378 0.33496 0.0
H367 H 0.05814 0.95893 0.25463 0.0
H368 H 0.06601 0.07507 0.25206 0.0
H369 H 0.06582 0.03365 0.25454 0.0
C370 C 0.34276 0.54573 0.81917 0.0
C371 C 0.35939 0.56502 0.81683 0.0
C372 C 0.34915 0.52553 0.80656 0.0
C373 C 0.40796 0.49641 0.7779 0.0
H374 H 0.35402 0.45186 0.75838 0.0
C375 C 0.44126 0.40904 0.74554 0.0
C376 C 0.43091 0.3921 0.76177 0.0
C377 C 0.42871 0.43021 0.74399 0.0
C378 C 0.36927 0.46425 0.76352 0.0
H379 H 0.39556 0.57808 0.79853 0.0
H380 H 0.40571 0.54354 0.77553 0.0
H381 H 0.33992 0.4897 0.772 0.0
H382 H 0.39767 0.3831 0.78666 0.0
H383 H 0.37569 0.41996 0.7838 0.0
H384 H 0.43724 0.47094 0.76978 0.0
C385 C 0.38813 0.54372 0.78776 0.0
C386 C 0.36124 0.48586 0.77155 0.0
C387 C 0.38202 0.56377 0.80071 0.0
C388 C 0.40618 0.39587 0.77409 0.0
C389 C 0.39353 0.41698 0.77238 0.0
C390 C 0.41595 0.475 0.76955 0.0
C391 C 0.37215 0.52415 0.79093 0.0
C392 C 0.38047 0.50206 0.77948 0.0
C393 C 0.40552 0.43475 0.75849 0.0
C394 C 0.39672 0.45849 0.76284 0.0
H395 H 0.32483 0.54608 0.83093 0.0
H396 H 0.33645 0.51082 0.80976 0.0
H397 H 0.42343 0.50811 0.78429 0.0
H398 H 0.46038 0.40681 0.73597 0.0
H399 H 0.4382 0.44354 0.73288 0.0
C400 C 0.65861 0.54195 0.68684 0.0
C401 C 0.68466 0.54056 0.67642 0.0
C402 C 0.6495 0.52551 0.70419 0.0
C403 C 0.66047 0.46576 0.71816 0.0
H404 H 0.61366 0.4759 0.77624 0.0
C405 C 0.60821 0.38985 0.76113 0.0
C406 C 0.58048 0.39281 0.76474 0.0
C407 C 0.62534 0.40868 0.75984 0.0
C408 C 0.62668 0.47275 0.76006 0.0
H409 H 0.72227 0.52192 0.67758 0.0
H410 H 0.70632 0.49322 0.70755 0.0
H411 H 0.63467 0.50831 0.75461 0.0
H412 H 0.54905 0.41722 0.77222 0.0
H413 H 0.57848 0.45022 0.76864 0.0
H414 H 0.65149 0.43065 0.72211 0.0
C415 C 0.69277 0.50675 0.70201 0.0
C416 C 0.63872 0.49133 0.74771 0.0
C417 C 0.70185 0.52313 0.68474 0.0
C418 C 0.57048 0.4146 0.76964 0.0
C419 C 0.58746 0.43353 0.76755 0.0
C420 C 0.64827 0.44731 0.73021 0.0
C421 C 0.66628 0.5074 0.71141 0.0
C422 C 0.65543 0.488 0.72639 0.0
C423 C 0.61481 0.43084 0.761 0.0
C424 C 0.63083 0.45048 0.7511 0.0
H425 H 0.64486 0.55515 0.68076 0.0
H426 H 0.62889 0.52635 0.71093 0.0
H427 H 0.67283 0.46262 0.70151 0.0
H428 H 0.6163 0.37312 0.75738 0.0
H429 H 0.64647 0.40585 0.75588 0.0
C430 C 0.88854 0.9223 0.18857 0.0
C431 C 0.90542 0.90659 0.17634 0.0
C432 C 0.89835 0.94356 0.19582 0.0
C433 C 0.95882 0.97785 0.20874 0.0
H434 H 0.91468 0.02712 0.18317 0.0
C435 C 0.99284 0.07267 0.2092 0.0
C436 C 0.97272 0.08882 0.21371 0.0
C437 C 0.98603 0.04967 0.20669 0.0
C438 C 0.92706 0.01364 0.19087 0.0
H439 H 0.94631 0.90057 0.16335 0.0
H440 H 0.96353 0.93774 0.17645 0.0
H441 H 0.90038 0.98817 0.17642 0.0
H442 H 0.93011 0.09403 0.21986 0.0
H443 H 0.91818 0.05402 0.21628 0.0
H444 H 0.98539 0.00352 0.2235 0.0
C445 C 0.94267 0.93348 0.18032 0.0
C446 C 0.91887 0.99129 0.18691 0.0
C447 C 0.93279 0.9122 0.17286 0.0
C448 C 0.94588 0.08178 0.21616 0.0
C449 C 0.9391 0.05889 0.21398 0.0
C450 C 0.96693 0.00036 0.213 0.0
C451 C 0.92534 0.94956 0.19123 0.0
C452 C 0.93453 0.97316 0.19588 0.0
C453 C 0.95897 0.04257 0.20871 0.0
C454 C 0.95101 0.01853 0.20422 0.0
H455 H 0.86754 0.91833 0.19213 0.0
H456 H 0.88467 0.95552 0.20459 0.0
H457 H 0.97125 0.96414 0.21585 0.0
H458 H 0.01369 0.07789 0.20712 0.0
H459 H 0.00182 0.03759 0.20251 0.0
C460 C 0.87348 0.04871 0.61996 0.0
C461 C 0.86988 0.06553 0.63864 0.0
C462 C 0.88539 0.02794 0.62634 0.0
C463 C 0.93254 0.00229 0.67095 0.0
H464 H 0.89606 0.94526 0.65729 0.0
C465 C 0.96757 0.91911 0.71755 0.0
C466 C 0.96412 0.89849 0.70451 0.0
C467 C 0.95718 0.93925 0.70761 0.0
C468 C 0.90686 0.96095 0.66082 0.0
H469 H 0.87619 0.07406 0.67844 0.0
H470 H 0.89755 0.03796 0.68946 0.0
H471 H 0.87582 0.98085 0.64312 0.0
H472 H 0.94758 0.88288 0.67046 0.0
H473 H 0.93025 0.91823 0.65249 0.0
H474 H 0.96388 0.98271 0.68807 0.0
C475 C 0.8909 0.04075 0.66999 0.0
C476 C 0.89512 0.98134 0.6528 0.0
C477 C 0.87854 0.06129 0.66374 0.0
C478 C 0.95045 0.89851 0.68101 0.0
C479 C 0.94035 0.91878 0.67082 0.0
C480 C 0.94451 0.98194 0.67856 0.0
C481 C 0.89443 0.02389 0.65137 0.0
C482 C 0.90764 0.00219 0.65821 0.0
C483 C 0.94337 0.93943 0.68411 0.0
C484 C 0.9316 0.96098 0.67407 0.0
H485 H 0.86692 0.05159 0.60048 0.0
H486 H 0.88797 0.01521 0.61165 0.0
H487 H 0.94277 0.01817 0.67502 0.0
H488 H 0.97767 0.91963 0.73588 0.0
H489 H 0.95944 0.95459 0.71879 0.0
C490 C 0.63589 0.45704 0.17152 0.0
C491 C 0.66124 0.4513 0.18162 0.0
C492 C 0.61789 0.47017 0.18561 0.0
C493 C 0.57895 0.49221 0.22239 0.0
H494 H 0.61092 0.54764 0.24864 0.0
C495 C 0.54813 0.58829 0.26017 0.0
C496 C 0.53087 0.59367 0.23983 0.0
C497 C 0.56101 0.56715 0.26095 0.0
C498 C 0.60162 0.53204 0.24209 0.0
H499 H 0.6868 0.45376 0.21519 0.0
H500 H 0.65543 0.47706 0.23965 0.0
H501 H 0.63991 0.51669 0.23505 0.0
H502 H 0.51221 0.58108 0.20523 0.0
H503 H 0.53439 0.54439 0.2065 0.0
H504 H 0.54068 0.50806 0.22825 0.0
C505 C 0.64967 0.47151 0.22069 0.0
C506 C 0.61827 0.51427 0.23424 0.0
C507 C 0.66766 0.45825 0.20662 0.0
C508 C 0.52544 0.57726 0.22113 0.0
C509 C 0.538 0.55616 0.22202 0.0
C510 C 0.56231 0.50995 0.23029 0.0
C511 C 0.62479 0.47797 0.21014 0.0
C512 C 0.60713 0.49456 0.22331 0.0
C513 C 0.55657 0.55108 0.24148 0.0
C514 C 0.57351 0.53044 0.23919 0.0
H515 H 0.63039 0.45232 0.15222 0.0
H516 H 0.59909 0.47516 0.17673 0.0
H517 H 0.56977 0.47704 0.21454 0.0
H518 H 0.55291 0.60085 0.27453 0.0
H519 H 0.57518 0.5637 0.27622 0.0
C520 C 0.3761 0.44484 0.33699 0.0
C521 C 0.385 0.43411 0.35946 0.0
C522 C 0.38542 0.46654 0.33054 0.0
C523 C 0.44149 0.50641 0.34245 0.0
H524 H 0.39211 0.5514 0.3155 0.0
C525 C 0.47752 0.59011 0.29611 0.0
C526 C 0.46298 0.60996 0.30155 0.0
C527 C 0.46817 0.56896 0.30435 0.0
C528 C 0.40611 0.53908 0.3232 0.0
H529 H 0.41021 0.4381 0.39308 0.0
H530 H 0.4266 0.4758 0.38171 0.0
H531 H 0.37518 0.5139 0.3275 0.0
H532 H 0.42742 0.62321 0.32032 0.0
H533 H 0.41112 0.58617 0.33485 0.0
H534 H 0.47238 0.53161 0.33832 0.0
C535 C 0.41272 0.46729 0.36888 0.0
C536 C 0.39647 0.51753 0.3298 0.0
C537 C 0.40335 0.44565 0.37536 0.0
C538 C 0.4391 0.60822 0.31582 0.0
C539 C 0.42965 0.58701 0.32398 0.0
C540 C 0.45115 0.52792 0.33575 0.0
C541 C 0.40389 0.47798 0.34639 0.0
C542 C 0.41406 0.50094 0.33946 0.0
C543 C 0.444 0.56713 0.31817 0.0
C544 C 0.43358 0.54448 0.32599 0.0
H545 H 0.36223 0.43633 0.32416 0.0
H546 H 0.3785 0.47421 0.31291 0.0
H547 H 0.4556 0.49395 0.34964 0.0
H548 H 0.49601 0.59085 0.28528 0.0
H549 H 0.47958 0.55396 0.29935 0.0
C550 C 0.13969 0.05741 0.84969 0.0
C551 C 0.16716 0.05165 0.84933 0.0
C552 C 0.12116 0.04571 0.83436 0.0
C553 C 0.11513 0.00497 0.78005 0.0
H554 H 0.052 0.98429 0.81695 0.0
C555 C 0.05878 0.92152 0.75895 0.0
C556 C 0.03177 0.91953 0.76638 0.0
C557 C 0.07244 0.94218 0.76192 0.0
C558 C 0.06909 0.99029 0.80597 0.0
H559 H 0.19692 0.03004 0.83137 0.0
H560 H 0.16462 0.0093 0.80518 0.0
H561 H 0.08157 0.01222 0.83623 0.0
H562 H 0.99702 0.93752 0.78063 0.0
H563 H 0.02039 0.97392 0.78477 0.0
H564 H 0.10304 0.98223 0.75017 0.0
C565 C 0.15734 0.02296 0.81713 0.0
C566 C 0.08615 0.00635 0.81713 0.0
C567 C 0.17583 0.03463 0.83244 0.0
C568 C 0.01784 0.93884 0.77455 0.0
C569 C 0.03135 0.95955 0.77724 0.0
C570 C 0.09798 0.98887 0.76883 0.0
C571 C 0.12969 0.02801 0.81829 0.0
C572 C 0.10976 0.01347 0.80463 0.0
C573 C 0.0592 0.96113 0.77239 0.0
C574 C 0.07508 0.98091 0.78194 0.0
H575 H 0.13231 0.07038 0.86251 0.0
H576 H 0.10005 0.05021 0.8355 0.0
H577 H 0.13295 0.01036 0.76973 0.0
H578 H 0.06995 0.90665 0.75302 0.0
H579 H 0.09388 0.94267 0.75811 0.0
C580 C 0.19363 0.15867 0.02223 0.0
C581 C 0.18675 0.13763 0.01127 0.0
C582 C 0.17908 0.16709 0.04311 0.0
C583 C 0.11279 0.16313 0.07359 0.0
H584 H 0.14812 0.18331 0.13575 0.0
C585 C 0.04889 0.19288 0.15658 0.0
C586 C 0.05399 0.18143 0.17963 0.0
C587 C 0.06804 0.1931 0.1371 0.0
C588 C 0.13802 0.17784 0.11846 0.0
H589 H 0.159 0.1092 0.01321 0.0
H590 H 0.13347 0.12398 0.04927 0.0
H591 H 0.17533 0.1719 0.09877 0.0
H592 H 0.08419 0.16318 0.20133 0.0
H593 H 0.11773 0.16338 0.16709 0.0
H594 H 0.07561 0.16837 0.09309 0.0
C595 C 0.15016 0.1339 0.04189 0.0
C596 C 0.15356 0.17145 0.09728 0.0
C597 C 0.16488 0.12537 0.02135 0.0
C598 C 0.07972 0.17221 0.1838 0.0
C599 C 0.09892 0.17228 0.16413 0.0
C600 C 0.09734 0.1697 0.09453 0.0
C601 C 0.1571 0.15481 0.05305 0.0
C602 C 0.14105 0.16363 0.0748 0.0
C603 C 0.09267 0.18169 0.14011 0.0
C604 C 0.1097 0.17687 0.11735 0.0
H605 H 0.21051 0.1684 0.01492 0.0
H606 H 0.18477 0.1833 0.05127 0.0
H607 H 0.10258 0.15734 0.05647 0.0
H608 H 0.02934 0.20038 0.15294 0.0
H609 H 0.06289 0.20103 0.11907 0.0
C610 C 0.36132 0.37895 0.5155 0.0
C611 C 0.34392 0.36087 0.50943 0.0
C612 C 0.36949 0.3827 0.54068 0.0
C613 C 0.37686 0.35211 0.60222 0.0
H614 H 0.39958 0.41166 0.62554 0.0
C615 C 0.43418 0.36367 0.69712 0.0
C616 C 0.45975 0.37323 0.69274 0.0
C617 C 0.4139 0.36544 0.67855 0.0
C618 C 0.39307 0.39496 0.61938 0.0
H619 H 0.32045 0.33316 0.52521 0.0
H620 H 0.33402 0.34008 0.56943 0.0
H621 H 0.37446 0.40809 0.58561 0.0
H622 H 0.48346 0.39379 0.66675 0.0
H623 H 0.44791 0.39748 0.6348 0.0
H624 H 0.39577 0.33907 0.63597 0.0
C625 C 0.34197 0.35105 0.55462 0.0
C626 C 0.37888 0.39284 0.59638 0.0
C627 C 0.33406 0.34712 0.5293 0.0
C628 C 0.46394 0.38622 0.67057 0.0
C629 C 0.44355 0.38839 0.65232 0.0
C630 C 0.39066 0.35429 0.6254 0.0
C631 C 0.36027 0.36862 0.56061 0.0
C632 C 0.37141 0.3713 0.587 0.0
C633 C 0.41872 0.37725 0.65563 0.0
C634 C 0.39965 0.37565 0.63381 0.0
H635 H 0.36967 0.38961 0.50059 0.0
H636 H 0.38402 0.39608 0.54426 0.0
H637 H 0.37183 0.3352 0.59563 0.0
H638 H 0.43046 0.35346 0.71398 0.0
H639 H 0.39487 0.35679 0.68161 0.0
C640 C 0.68127 0.37541 0.99586 0.0
C641 C 0.68745 0.39647 0.00716 0.0
C642 C 0.66643 0.37432 0.97309 0.0
C643 C 0.6196 0.40884 0.93342 0.0
H644 H 0.63095 0.36089 0.88401 0.0
C645 C 0.53925 0.38449 0.85965 0.0
C646 C 0.54679 0.37588 0.83569 0.0
C647 C 0.55861 0.3897 0.87806 0.0
C648 C 0.62778 0.37464 0.89736 0.0
H649 H 0.6825 0.43293 1.00305 0.0
H650 H 0.65805 0.43107 0.96307 0.0
H651 H 0.66099 0.3642 0.92071 0.0
H652 H 0.58082 0.3667 0.81202 0.0
H653 H 0.61495 0.3765 0.84405 0.0
H654 H 0.58679 0.41958 0.90992 0.0
C655 C 0.66412 0.4153 0.972 0.0
C656 C 0.64476 0.37631 0.91869 0.0
C657 C 0.67863 0.41638 0.99485 0.0
C658 C 0.57436 0.37361 0.83014 0.0
C659 C 0.59388 0.37889 0.84866 0.0
C660 C 0.60284 0.4073 0.91204 0.0
C661 C 0.65753 0.39427 0.96089 0.0
C662 C 0.64062 0.39321 0.93727 0.0
C663 C 0.58618 0.38655 0.87307 0.0
C664 C 0.60629 0.38989 0.89398 0.0
H665 H 0.68794 0.35971 1.00454 0.0
H666 H 0.6615 0.35778 0.96537 0.0
H667 H 0.61548 0.42195 0.94734 0.0
H668 H 0.51818 0.38645 0.86458 0.0
H669 H 0.55177 0.39522 0.89666 0.0
C670 C 0.83175 0.17586 0.48456 0.0
C671 C 0.84752 0.18345 0.50524 0.0
C672 C 0.84125 0.17776 0.45948 0.0
C673 C 0.89442 0.20457 0.41893 0.0
H674 H 0.89003 0.14821 0.38099 0.0
C675 C 0.95089 0.1885 0.32248 0.0
C676 C 0.96671 0.16879 0.32365 0.0
C677 C 0.93161 0.19286 0.34149 0.0
C678 C 0.89116 0.16417 0.3912 0.0
H679 H 0.88542 0.19961 0.51545 0.0
H680 H 0.90181 0.20299 0.47192 0.0
H681 H 0.86475 0.15225 0.42054 0.0
H682 H 0.97436 0.13797 0.34516 0.0
H683 H 0.94086 0.14536 0.37779 0.0
H684 H 0.92202 0.21595 0.39002 0.0
C685 C 0.88193 0.19585 0.47501 0.0
C686 C 0.87651 0.16657 0.41379 0.0
C687 C 0.87249 0.19389 0.50006 0.0
C688 C 0.96258 0.15338 0.34378 0.0
C689 C 0.94318 0.1575 0.36237 0.0
C690 C 0.90897 0.20221 0.39617 0.0
C691 C 0.86671 0.18736 0.45445 0.0
C692 C 0.87864 0.18651 0.42838 0.0
C693 C 0.92756 0.17729 0.36157 0.0
C694 C 0.9082 0.18168 0.38258 0.0
H695 H 0.81222 0.1681 0.48778 0.0
H696 H 0.82887 0.17132 0.44403 0.0
H697 H 0.89622 0.22026 0.42957 0.0
H698 H 0.95397 0.20077 0.30739 0.0
H699 H 0.91989 0.20832 0.34051 0.0
C700 C 0.8435 0.8531 1.00338 0.0
C701 C 0.84819 0.83163 0.01421 0.0
C702 C 0.84467 0.85619 0.97695 0.0
C703 C 0.84883 0.82609 0.91437 0.0
H704 H 0.89336 0.87777 0.89617 0.0
C705 C 0.91662 0.83036 0.82553 0.0
C706 C 0.92486 0.85173 0.81662 0.0
C707 C 0.89779 0.82869 0.84533 0.0
C708 C 0.88025 0.86357 0.90058 0.0
H709 H 0.85657 0.79636 0.00573 0.0
H710 H 0.85908 0.80178 0.95958 0.0
H711 H 0.87848 0.87327 0.93976 0.0
H712 H 0.91831 0.88789 0.81917 0.0
H713 H 0.88427 0.88506 0.85268 0.0
H714 H 0.85163 0.816 0.87512 0.0
C715 C 0.85405 0.81619 0.97147 0.0
C716 C 0.87175 0.86095 0.92578 0.0
C717 C 0.85272 0.81308 0.99794 0.0
C718 C 0.91196 0.87123 0.82565 0.0
C719 C 0.89282 0.86957 0.84512 0.0
C720 C 0.85731 0.82875 0.88901 0.0
C721 C 0.85076 0.83791 0.96071 0.0
C722 C 0.85647 0.84192 0.93316 0.0
C723 C 0.8869 0.84841 0.85639 0.0
C724 C 0.87369 0.84728 0.88193 0.0
H725 H 0.83944 0.86763 0.01542 0.0
H726 H 0.84149 0.87305 0.96927 0.0
H727 H 0.83677 0.81138 0.91937 0.0
H728 H 0.92674 0.81514 0.81906 0.0
H729 H 0.89386 0.81211 0.85349 0.0
C730 C 0.66355 0.64226 0.48583 0.0
C731 C 0.66276 0.62218 0.50041 0.0
C732 C 0.65159 0.64314 0.46164 0.0
C733 C 0.59984 0.61636 0.42134 0.0
H734 H 0.63869 0.64558 0.36605 0.0
C735 C 0.5513 0.62629 0.3217 0.0
C736 C 0.55378 0.64815 0.31122 0.0
C737 C 0.56756 0.61973 0.34235 0.0
C738 C 0.62749 0.63744 0.38128 0.0
H739 H 0.64853 0.58727 0.50072 0.0
H740 H 0.62709 0.58908 0.45884 0.0
H741 H 0.66004 0.64167 0.4078 0.0
H742 H 0.57592 0.67984 0.31312 0.0
H743 H 0.60398 0.66864 0.34898 0.0
H744 H 0.5669 0.61287 0.3952 0.0
C745 C 0.63699 0.60412 0.46622 0.0
C746 C 0.63974 0.63524 0.40522 0.0
C747 C 0.64917 0.60316 0.49032 0.0
C748 C 0.57373 0.66282 0.32075 0.0
C749 C 0.58992 0.65632 0.34128 0.0
C750 C 0.58748 0.61874 0.39744 0.0
C751 C 0.63832 0.62405 0.45149 0.0
C752 C 0.62589 0.62503 0.42564 0.0
C753 C 0.58652 0.63495 0.3529 0.0
C754 C 0.60095 0.6297 0.37721 0.0
H755 H 0.67338 0.65737 0.49309 0.0
H756 H 0.65252 0.65888 0.45096 0.0
H757 H 0.58859 0.60853 0.43675 0.0
H758 H 0.53567 0.61482 0.31508 0.0
H759 H 0.56461 0.60305 0.35062 0.0
C760 C 0.34497 0.66872 0.00683 0.0
C761 C 0.34207 0.64806 0.99369 0.0
C762 C 0.34894 0.66899 0.03326 0.0
C763 C 0.37371 0.63221 0.08551 0.0
H764 H 0.35098 0.6827 0.1277 0.0
C765 C 0.41365 0.64007 0.18715 0.0
C766 C 0.42714 0.66078 0.1907 0.0
C767 C 0.3948 0.63769 0.1674 0.0
C768 C 0.35728 0.6684 0.11621 0.0
H769 H 0.33986 0.61154 0.99812 0.0
H770 H 0.3462 0.61195 0.04436 0.0
H771 H 0.33438 0.67955 0.08388 0.0
H772 H 0.43034 0.69563 0.17809 0.0
H773 H 0.39705 0.69176 0.14401 0.0
H774 H 0.39707 0.62135 0.11757 0.0
C775 C 0.34609 0.62797 0.03419 0.0
C776 C 0.34795 0.66665 0.09103 0.0
C777 C 0.3424 0.6277 0.00769 0.0
C778 C 0.41974 0.67962 0.17594 0.0
C779 C 0.40073 0.67734 0.15638 0.0
C780 C 0.38281 0.63385 0.11071 0.0
C781 C 0.34988 0.6486 0.04731 0.0
C782 C 0.35668 0.64889 0.0751 0.0
C783 C 0.38918 0.65603 0.15099 0.0
C784 C 0.37531 0.65228 0.12614 0.0
H785 H 0.34514 0.68468 0.99653 0.0
H786 H 0.35229 0.68519 0.0425 0.0
H787 H 0.38125 0.61847 0.07385 0.0
H788 H 0.4195 0.62521 0.19803 0.0
H789 H 0.38601 0.62113 0.16388 0.0
C790 C 0.16211 0.85721 0.52666 0.0
C791 C 0.14992 0.8691 0.50651 0.0
C792 C 0.15289 0.85989 0.55175 0.0
C793 C 0.09327 0.88064 0.58814 0.0
H794 H 0.14131 0.8736 0.64607 0.0
C795 C 0.0524 0.88491 0.6902 0.0
C796 C 0.05702 0.86436 0.70309 0.0
C797 C 0.06765 0.89051 0.66858 0.0
C798 C 0.12774 0.87581 0.63004 0.0
H799 H 0.11937 0.89382 0.49679 0.0
H800 H 0.10389 0.89919 0.54043 0.0
H801 H 0.15967 0.87311 0.60279 0.0
H802 H 0.0828 0.83483 0.70537 0.0
H803 H 0.10992 0.84495 0.66823 0.0
H804 H 0.0614 0.88328 0.61544 0.0
C805 C 0.11986 0.8871 0.537 0.0
C806 C 0.13816 0.87528 0.60521 0.0
C807 C 0.12875 0.88409 0.51194 0.0
C808 C 0.07886 0.85077 0.69571 0.0
C809 C 0.0944 0.85658 0.67447 0.0
C810 C 0.08297 0.88153 0.61292 0.0
C811 C 0.13157 0.87488 0.55728 0.0
C812 C 0.12098 0.87721 0.58386 0.0
C813 C 0.08808 0.8759 0.65994 0.0
C814 C 0.09998 0.87868 0.63412 0.0
H815 H 0.17847 0.84554 0.52295 0.0
H816 H 0.16216 0.84986 0.56667 0.0
H817 H 0.07923 0.88175 0.57235 0.0
H818 H 0.03556 0.8956 0.69543 0.0
H819 H 0.06252 0.90561 0.65781 0.0
C820 C 0.22492 0.29869 0.3443 0.0
C821 C 0.24863 0.30653 0.33246 0.0
C822 C 0.20451 0.28831 0.32994 0.0
C823 C 0.19512 0.25531 0.27148 0.0
H824 H 0.11916 0.26295 0.28638 0.0
C825 C 0.08309 0.2139 0.24672 0.0
C826 C 0.08887 0.19141 0.25367 0.0
C827 C 0.10298 0.23078 0.24901 0.0
C828 C 0.14024 0.26091 0.28159 0.0
H829 H 0.26862 0.3107 0.29588 0.0
H830 H 0.23324 0.29219 0.27101 0.0
H831 H 0.15228 0.28826 0.3061 0.0
H832 H 0.12022 0.16842 0.26603 0.0
H833 H 0.15503 0.19751 0.26919 0.0
H834 H 0.18316 0.22735 0.24781 0.0
C835 C 0.23063 0.29389 0.29145 0.0
C836 C 0.15923 0.27523 0.29314 0.0
C837 C 0.25094 0.30442 0.30576 0.0
C838 C 0.11535 0.18566 0.26048 0.0
C839 C 0.13527 0.20234 0.26227 0.0
C840 C 0.17616 0.24086 0.26012 0.0
C841 C 0.20735 0.28541 0.30342 0.0
C842 C 0.18693 0.27222 0.28872 0.0
C843 C 0.12902 0.22524 0.25773 0.0
C844 C 0.14856 0.24313 0.26556 0.0
H845 H 0.22252 0.29975 0.36481 0.0
H846 H 0.18697 0.2817 0.33981 0.0
H847 H 0.21632 0.25246 0.26776 0.0
H848 H 0.06272 0.21875 0.24165 0.0
H849 H 0.09767 0.24828 0.24521 0.0
C850 C 0.32764 0.17576 0.85926 0.0
C851 C 0.32827 0.15196 0.86053 0.0
C852 C 0.34748 0.18767 0.84579 0.0
C853 C 0.41756 0.1845 0.8265 0.0
H854 H 0.39892 0.23531 0.78279 0.0
C855 C 0.46715 0.2666 0.76936 0.0
C856 C 0.47903 0.27709 0.79065 0.0
C857 C 0.45333 0.24597 0.77227 0.0
C858 C 0.40452 0.22087 0.79447 0.0
H859 H 0.35019 0.12194 0.8489 0.0
H860 H 0.38526 0.14286 0.82572 0.0
H861 H 0.36338 0.21047 0.79915 0.0
H862 H 0.48853 0.27342 0.83077 0.0
H863 H 0.46545 0.23712 0.83567 0.0
H864 H 0.45858 0.19574 0.823 0.0
C865 C 0.36922 0.15223 0.83492 0.0
C866 C 0.38414 0.20685 0.80408 0.0
C867 C 0.34913 0.14029 0.84805 0.0
C868 C 0.47963 0.26552 0.81407 0.0
C869 C 0.46639 0.24474 0.81685 0.0
C870 C 0.43793 0.19874 0.81717 0.0
C871 C 0.36858 0.17603 0.83365 0.0
C872 C 0.39039 0.18891 0.82073 0.0
C873 C 0.4518 0.23541 0.79636 0.0
C874 C 0.43153 0.21743 0.8016 0.0
H875 H 0.31172 0.18515 0.86861 0.0
H876 H 0.34667 0.20604 0.84537 0.0
H877 H 0.42292 0.17082 0.83935 0.0
H878 H 0.46622 0.27538 0.75119 0.0
H879 H 0.44236 0.23904 0.75614 0.0
C880 C 0.69232 0.17521 0.6518 0.0
C881 C 0.71673 0.18238 0.66304 0.0
C882 C 0.66752 0.18209 0.66185 0.0
C883 C 0.63417 0.20444 0.71928 0.0
H884 H 0.58801 0.23649 0.67177 0.0
C885 C 0.55922 0.27298 0.75074 0.0
C886 C 0.53905 0.27988 0.7337 0.0
C887 C 0.57589 0.25464 0.74467 0.0
C888 C 0.60002 0.22705 0.68537 0.0
H889 H 0.73371 0.20243 0.69401 0.0
H890 H 0.69057 0.21363 0.71186 0.0
H891 H 0.62728 0.21664 0.656 0.0
H892 H 0.51821 0.27176 0.69861 0.0
H893 H 0.54563 0.23859 0.68896 0.0
H894 H 0.60704 0.21484 0.74873 0.0
C895 C 0.69074 0.20261 0.69531 0.0
C896 C 0.62275 0.21577 0.67621 0.0
C897 C 0.71552 0.19609 0.68504 0.0
C898 C 0.53361 0.26661 0.71209 0.0
C899 C 0.54975 0.24789 0.70635 0.0
C900 C 0.61109 0.21538 0.72844 0.0
C901 C 0.66651 0.19594 0.68364 0.0
C902 C 0.64047 0.20493 0.69313 0.0
C903 C 0.57233 0.24265 0.7216 0.0
C904 C 0.59409 0.22747 0.71171 0.0
H905 H 0.69229 0.1643 0.63519 0.0
H906 H 0.64909 0.17663 0.65254 0.0
H907 H 0.64739 0.19597 0.7327 0.0
H908 H 0.56405 0.28325 0.7673 0.0
H909 H 0.59298 0.25135 0.75698 0.0
C910 C 0.81933 0.31752 0.15798 0.0
C911 C 0.79855 0.33075 0.1684 0.0
C912 C 0.83471 0.30327 0.17351 0.0
C913 C 0.83557 0.27186 0.23383 0.0
H914 H 0.9128 0.27262 0.2225 0.0
C915 C 0.90591 0.19652 0.24985 0.0
C916 C 0.93341 0.2005 0.25429 0.0
C917 C 0.88778 0.21457 0.24893 0.0
C918 C 0.89137 0.27248 0.22642 0.0
H919 H 0.77726 0.3388 0.20343 0.0
H920 H 0.80381 0.31338 0.23045 0.0
H921 H 0.88435 0.29966 0.20014 0.0
H922 H 0.96329 0.22598 0.26363 0.0
H923 H 0.93153 0.25771 0.26241 0.0
H924 H 0.84262 0.24405 0.25948 0.0
C925 C 0.80818 0.31423 0.2102 0.0
C926 C 0.87502 0.28778 0.21327 0.0
C927 C 0.7929 0.32869 0.19466 0.0
C928 C 0.94208 0.22249 0.26053 0.0
C929 C 0.92395 0.24064 0.25948 0.0
C930 C 0.85197 0.25638 0.2469 0.0
C931 C 0.82958 0.30172 0.19985 0.0
C932 C 0.84689 0.28721 0.21624 0.0
C933 C 0.89695 0.237 0.2521 0.0
C934 C 0.88001 0.25612 0.24282 0.0
H935 H 0.82388 0.31826 0.13777 0.0
H936 H 0.85068 0.29342 0.16488 0.0
H937 H 0.81395 0.27109 0.23654 0.0
H938 H 0.89889 0.1797 0.24463 0.0
H939 H 0.86722 0.21111 0.2431 0.0
C940 C 0.77489 0.70404 0.65766 0.0
C941 C 0.77456 0.68093 0.66447 0.0
C942 C 0.78879 0.71988 0.67275 0.0
C943 C 0.84776 0.72137 0.7134 0.0
H944 H 0.82549 0.78206 0.73238 0.0
C945 C 0.92425 0.77966 0.76066 0.0
C946 C 0.92493 0.80211 0.75186 0.0
C947 C 0.90167 0.76602 0.75617 0.0
C948 C 0.83212 0.76522 0.72708 0.0
H949 H 0.78636 0.65672 0.69365 0.0
H950 H 0.8109 0.6842 0.71958 0.0
H951 H 0.79326 0.75634 0.71171 0.0
H952 H 0.90233 0.82851 0.73284 0.0
H953 H 0.86334 0.80447 0.72368 0.0
H954 H 0.88679 0.73018 0.72701 0.0
C955 C 0.8008 0.69002 0.70243 0.0
C956 C 0.81359 0.7505 0.71532 0.0
C957 C 0.78685 0.67429 0.6875 0.0
C958 C 0.90203 0.81125 0.74003 0.0
C959 C 0.87969 0.79741 0.73481 0.0
C960 C 0.8663 0.73609 0.72469 0.0
C961 C 0.80262 0.71284 0.69482 0.0
C962 C 0.82132 0.72845 0.70835 0.0
C963 C 0.87972 0.77429 0.74183 0.0
C964 C 0.85886 0.75827 0.73169 0.0
H965 H 0.76565 0.70969 0.64002 0.0
H966 H 0.78999 0.73737 0.6664 0.0
H967 H 0.85446 0.70462 0.70776 0.0
H968 H 0.94172 0.77234 0.76994 0.0
H969 H 0.9021 0.74861 0.76281 0.0
C970 C 0.74796 0.79584 0.20567 0.0
C971 C 0.7506 0.79936 0.17919 0.0
C972 C 0.72302 0.78982 0.21623 0.0
C973 C 0.64968 0.7886 0.20224 0.0
H974 H 0.64848 0.73604 0.24691 0.0
C975 C 0.56272 0.7256 0.20533 0.0
C976 C 0.55574 0.71462 0.2282 0.0
C977 C 0.58398 0.74107 0.20463 0.0
C978 C 0.64842 0.75109 0.23499 0.0
H979 H 0.72898 0.79924 0.14313 0.0
H980 H 0.6857 0.78895 0.16149 0.0
H981 H 0.69151 0.75345 0.23546 0.0
H982 H 0.56469 0.71191 0.2686 0.0
H983 H 0.60252 0.73897 0.26733 0.0
H984 H 0.60669 0.78559 0.20082 0.0
C985 C 0.70276 0.79121 0.17418 0.0
C986 C 0.6731 0.76103 0.22836 0.0
C987 C 0.72763 0.7971 0.16363 0.0
C988 C 0.56961 0.72026 0.25074 0.0
C989 C 0.59131 0.73559 0.24997 0.0
C990 C 0.62506 0.77868 0.20885 0.0
C991 C 0.70018 0.78733 0.20056 0.0
C992 C 0.67403 0.77936 0.21115 0.0
C993 C 0.59903 0.74578 0.22675 0.0
C994 C 0.62423 0.75929 0.22451 0.0
H995 H 0.76514 0.79777 0.21826 0.0
H996 H 0.72162 0.7871 0.23665 0.0
H997 H 0.64971 0.80303 0.18939 0.0
H998 H 0.55229 0.72161 0.18768 0.0
H999 H 0.58958 0.74837 0.18638 0.0
C1000 C 0.24593 0.80309 0.31043 0.0
C1001 C 0.24477 0.80181 0.33722 0.0
C1002 C 0.26251 0.78845 0.29661 0.0
C1003 C 0.30509 0.73649 0.30155 0.0
H1004 H 0.34909 0.76784 0.25141 0.0
C1005 C 0.39757 0.69357 0.25541 0.0
C1006 C 0.42107 0.70673 0.25832 0.0
C1007 C 0.37214 0.7034 0.25893 0.0
C1008 C 0.33683 0.75876 0.26518 0.0
H1009 H 0.25905 0.78346 0.37042 0.0
H1010 H 0.28833 0.75806 0.34639 0.0
H1011 H 0.31117 0.78734 0.27079 0.0
H1012 H 0.43638 0.74071 0.26502 0.0
H1013 H 0.39236 0.75781 0.27079 0.0
H1014 H 0.3319 0.70836 0.29693 0.0
C1015 C 0.27615 0.77016 0.33596 0.0
C1016 C 0.3149 0.76987 0.27617 0.0
C1017 C 0.25942 0.78475 0.34979 0.0
C1018 C 0.41863 0.73012 0.26279 0.0
C1019 C 0.39334 0.73995 0.26597 0.0
C1020 C 0.32706 0.72536 0.29051 0.0
C1021 C 0.27845 0.77224 0.30925 0.0
C1022 C 0.29921 0.75912 0.29504 0.0
C1023 C 0.36984 0.7266 0.26496 0.0
C1024 C 0.34368 0.73664 0.2728 0.0
H1025 H 0.23447 0.81581 0.30018 0.0
H1026 H 0.26334 0.79021 0.27603 0.0
H1027 H 0.29319 0.7276 0.31574 0.0
H1028 H 0.39888 0.67547 0.25198 0.0
H1029 H 0.35435 0.69273 0.25779 0.0
C1030 C 0.22893 0.693 0.80907 0.0
C1031 C 0.23243 0.68815 0.83516 0.0
C1032 C 0.20515 0.70305 0.80031 0.0
C1033 C 0.13468 0.71639 0.81967 0.0
H1034 H 0.14239 0.76629 0.7718 0.0
C1035 C 0.06112 0.79082 0.81381 0.0
C1036 C 0.05383 0.79946 0.78977 0.0
C1037 C 0.08021 0.77362 0.8159 0.0
C1038 C 0.13981 0.75212 0.78479 0.0
H1039 H 0.2137 0.68991 0.87247 0.0
H1040 H 0.1725 0.70772 0.85736 0.0
H1041 H 0.18133 0.74283 0.78205 0.0
H1042 H 0.0604 0.79658 0.74898 0.0
H1043 H 0.09448 0.76662 0.75273 0.0
H1044 H 0.09344 0.72652 0.82332 0.0
C1045 C 0.18778 0.7033 0.84349 0.0
C1046 C 0.16212 0.73864 0.79068 0.0
C1047 C 0.21145 0.69314 0.85221 0.0
C1048 C 0.06559 0.79017 0.76775 0.0
C1049 C 0.08512 0.77314 0.76988 0.0
C1050 C 0.11246 0.72998 0.81394 0.0
C1051 C 0.18441 0.70859 0.81747 0.0
C1052 C 0.15999 0.72098 0.80871 0.0
C1053 C 0.09275 0.76486 0.79403 0.0
C1054 C 0.11499 0.74833 0.79694 0.0
H1055 H 0.24462 0.68905 0.79544 0.0
H1056 H 0.20308 0.70658 0.7801 0.0
H1057 H 0.13215 0.70261 0.83317 0.0
H1058 H 0.05231 0.79757 0.83112 0.0
H1059 H 0.08592 0.76777 0.83477 0.0
loop_
_geom_bond_atom_site_label_1
_geom_bond_atom_site_label_2
_geom_bond_distance
_geom_bond_site_symmetry_2
_ccdc_geom_bond_type
P0 O11 1.490 . S
P0 C14 1.812 . S
P0 C20 1.803 . S
P0 C26 1.819 . S
H1 C15 0.941 . S
H2 C16 0.939 . S
H3 C18 0.940 . S
H4 C19 0.940 . S
H5 C21 0.939 . S
H6 C22 0.942 . S
H7 C24 0.940 . S
H8 C25 0.939 . S
H9 C27 0.941 . S
H10 C31 0.939 . S
O11 P0 1.490 . S
H12 C28 0.939 . S
H13 C30 0.940 . S
C14 P0 1.812 . S
C14 C15 1.389 . S
C14 C19 1.391 . S
C15 H1 0.941 . S
C15 C14 1.389 . S
C15 C16 1.397 . S
C16 H2 0.939 . S
C16 C15 1.397 . S
C16 C17 1.378 . S
C17 C16 1.378 . S
C17 C18 1.378 . S
C18 H3 0.940 . S
C18 C17 1.378 . S
C18 C19 1.396 . S
C19 H4 0.940 . S
C19 C14 1.391 . S
C19 C18 1.396 . S
C20 P0 1.803 . S
C20 C21 1.378 . S
C20 C25 1.400 . S
C21 H5 0.939 . S
C21 C20 1.378 . S
C21 C22 1.361 . S
C22 H6 0.942 . S
C22 C21 1.361 . S
C22 C23 1.369 . S
C23 C22 1.369 . S
C23 C24 1.404 . S
C24 H7 0.940 . S
C24 C23 1.404 . S
C24 C25 1.389 . S
C25 H8 0.939 . S
C25 C20 1.400 . S
C25 C24 1.389 . S
C26 P0 1.819 . S
C26 C27 1.391 . S
C26 C31 1.391 . S
C27 H9 0.941 . S
C27 C26 1.391 . S
C27 C28 1.396 . S
C28 H12 0.939 . S
C28 C27 1.396 . S
C28 C29 1.397 . S
C29 C28 1.397 . S
C29 C30 1.385 . S
C30 H13 0.940 . S
C30 C29 1.385 . S
C30 C31 1.388 . S
C31 H10 0.939 . S
C31 C26 1.391 . S
C31 C30 1.388 . S
P32 O43 1.490 . S
P32 C46 1.812 . S
P32 C52 1.803 . S
P32 C58 1.819 . S
H33 C47 0.941 . S
H34 C48 0.939 . S
H35 C50 0.940 . S
H36 C51 0.940 . S
H37 C53 0.939 . S
H38 C54 0.942 . S
H39 C56 0.940 . S
H40 C57 0.939 . S
H41 C59 0.941 . S
H42 C63 0.939 . S
O43 P32 1.490 . S
H44 C60 0.939 . S
H45 C62 0.940 . S
C46 P32 1.812 . S
C46 C47 1.389 . S
C46 C51 1.391 . S
C47 H33 0.941 . S
C47 C46 1.389 . S
C47 C48 1.397 . S
C48 H34 0.939 . S
C48 C47 1.397 . S
C48 C49 1.378 . S
C49 C48 1.378 . S
C49 C50 1.378 . S
C50 H35 0.940 . S
C50 C49 1.378 . S
C50 C51 1.396 . S
C51 H36 0.940 . S
C51 C46 1.391 . S
C51 C50 1.396 . S
C52 P32 1.803 . S
C52 C53 1.378 . S
C52 C57 1.400 . S
C53 H37 0.939 . S
C53 C52 1.378 . S
C53 C54 1.361 . S
C54 H38 0.942 . S
C54 C53 1.361 . S
C54 C55 1.369 . S
C55 C54 1.369 . S
C55 C56 1.404 . S
C56 H39 0.940 . S
C56 C55 1.404 . S
C56 C57 1.389 . S
C57 H40 0.939 . S
C57 C52 1.400 . S
C57 C56 1.389 . S
C58 P32 1.819 . S
C58 C59 1.391 . S
C58 C63 1.391 . S
C59 H41 0.941 . S
C59 C58 1.391 . S
C59 C60 1.396 . S
C60 H44 0.939 . S
C60 C59 1.396 . S
C60 C61 1.397 . S
C61 C60 1.397 . S
C61 C62 1.385 . S
C62 H45 0.940 . S
C62 C61 1.385 . S
C62 C63 1.388 . S
C63 H42 0.939 . S
C63 C58 1.391 . S
C63 C62 1.388 . S
P64 O75 1.490 . S
P64 C78 1.812 . S
P64 C84 1.803 . S
P64 C90 1.819 . S
H65 C79 0.941 . S
H66 C80 0.939 . S
H67 C82 0.940 . S
H68 C83 0.940 . S
H69 C85 0.939 . S
H70 C86 0.942 . S
H71 C88 0.940 . S
H72 C89 0.939 . S
H73 C91 0.941 . S
H74 C95 0.939 . S
O75 P64 1.490 . S
H76 C92 0.939 . S
H77 C94 0.940 . S
C78 P64 1.812 . S
C78 C79 1.389 . S
C78 C83 1.391 . S
C79 H65 0.941 . S
C79 C78 1.389 . S
C79 C80 1.397 . S
C80 H66 0.939 . S
C80 C79 1.397 . S
C80 C81 1.378 . S
C81 C80 1.378 . S
C81 C82 1.378 . S
C82 H67 0.940 . S
C82 C81 1.378 . S
C82 C83 1.396 . S
C83 H68 0.940 . S
C83 C78 1.391 . S
C83 C82 1.396 . S
C84 P64 1.803 . S
C84 C85 1.378 . S
C84 C89 1.400 . S
C85 H69 0.939 . S
C85 C84 1.378 . S
C85 C86 1.361 . S
C86 H70 0.942 . S
C86 C85 1.361 . S
C86 C87 1.369 . S
C87 C86 1.369 . S
C87 C88 1.404 . S
C88 H71 0.940 . S
C88 C87 1.404 . S
C88 C89 1.389 . S
C89 H72 0.939 . S
C89 C84 1.400 . S
C89 C88 1.389 . S
C90 P64 1.819 . S
C90 C91 1.391 . S
C90 C95 1.391 . S
C91 H73 0.941 . S
C91 C90 1.391 . S
C91 C92 1.396 . S
C92 H76 0.939 . S
C92 C91 1.396 . S
C92 C93 1.397 . S
C93 C92 1.397 . S
C93 C94 1.385 . S
C94 H77 0.940 . S
C94 C93 1.385 . S
C94 C95 1.388 . S
C95 H74 0.939 . S
C95 C90 1.391 . S
C95 C94 1.388 . S
P96 O107 1.490 . S
P96 C110 1.812 . S
P96 C116 1.803 . S
P96 C122 1.819 . S
H97 C111 0.941 . S
H98 C112 0.939 . S
H99 C114 0.940 . S
H100 C115 0.940 . S
H101 C117 0.939 . S
H102 C118 0.942 . S
H103 C120 0.940 . S
H104 C121 0.939 . S
H105 C123 0.941 . S
H106 C127 0.939 . S
O107 P96 1.490 . S
H108 C124 0.939 . S
H109 C126 0.940 . S
C110 P96 1.812 . S
C110 C111 1.389 . S
C110 C115 1.391 . S
C111 H97 0.941 . S
C111 C110 1.389 . S
C111 C112 1.397 . S
C112 H98 0.939 . S
C112 C111 1.397 . S
C112 C113 1.378 . S
C113 C112 1.378 . S
C113 C114 1.378 . S
C114 H99 0.940 . S
C114 C113 1.378 . S
C114 C115 1.396 . S
C115 H100 0.940 . S
C115 C110 1.391 . S
C115 C114 1.396 . S
C116 P96 1.803 . S
C116 C117 1.378 . S
C116 C121 1.400 . S
C117 H101 0.939 . S
C117 C116 1.378 . S
C117 C118 1.361 . S
C118 H102 0.942 . S
C118 C117 1.361 . S
C118 C119 1.369 . S
C119 C118 1.369 . S
C119 C120 1.404 . S
C120 H103 0.940 . S
C120 C119 1.404 . S
C120 C121 1.389 . S
C121 H104 0.939 . S
C121 C116 1.400 . S
C121 C120 1.389 . S
C122 P96 1.819 . S
C122 C123 1.391 . S
C122 C127 1.391 . S
C123 H105 0.941 . S
C123 C122 1.391 . S
C123 C124 1.396 . S
C124 H108 0.939 . S
C124 C123 1.396 . S
C124 C125 1.397 . S
C125 C124 1.397 . S
C125 C126 1.385 . S
C126 H109 0.940 . S
C126 C125 1.385 . S
C126 C127 1.388 . S
C127 H106 0.939 . S
C127 C122 1.391 . S
C127 C126 1.388 . S
P128 O139 1.490 . S
P128 C142 1.812 . S
P128 C148 1.803 . S
P128 C154 1.819 . S
H129 C143 0.941 . S
H130 C144 0.939 . S
H131 C146 0.940 . S
H132 C147 0.940 . S
H133 C149 0.939 . S
H134 C150 0.942 . S
H135 C152 0.940 . S
H136 C153 0.939 . S
H137 C155 0.941 . S
H138 C159 0.939 . S
O139 P128 1.490 . S
H140 C156 0.939 . S
H141 C158 0.940 . S
C142 P128 1.812 . S
C142 C143 1.389 . S
C142 C147 1.391 . S
C143 H129 0.941 . S
C143 C142 1.389 . S
C143 C144 1.397 . S
C144 H130 0.939 . S
C144 C143 1.397 . S
C144 C145 1.378 . S
C145 C144 1.378 . S
C145 C146 1.378 . S
C146 H131 0.940 . S
C146 C145 1.378 . S
C146 C147 1.396 . S
C147 H132 0.940 . S
C147 C142 1.391 . S
C147 C146 1.396 . S
C148 P128 1.803 . S
C148 C149 1.378 . S
C148 C153 1.400 . S
C149 H133 0.939 . S
C149 C148 1.378 . S
C149 C150 1.361 . S
C150 H134 0.942 . S
C150 C149 1.361 . S
C150 C151 1.369 . S
C151 C150 1.369 . S
C151 C152 1.404 . S
C152 H135 0.940 . S
C152 C151 1.404 . S
C152 C153 1.389 . S
C153 H136 0.939 . S
C153 C148 1.400 . S
C153 C152 1.389 . S
C154 P128 1.819 . S
C154 C155 1.391 . S
C154 C159 1.391 . S
C155 H137 0.941 . S
C155 C154 1.391 . S
C155 C156 1.396 . S
C156 H140 0.939 . S
C156 C155 1.396 . S
C156 C157 1.397 . S
C157 C156 1.397 . S
C157 C158 1.385 . S
C158 H141 0.940 . S
C158 C157 1.385 . S
C158 C159 1.388 . S
C159 H138 0.939 . S
C159 C154 1.391 . S
C159 C158 1.388 . S
P160 O171 1.490 . S
P160 C174 1.812 . S
P160 C180 1.803 . S
P160 C186 1.819 . S
H161 C175 0.941 . S
H162 C176 0.939 . S
H163 C178 0.940 . S
H164 C179 0.940 . S
H165 C181 0.939 . S
H166 C182 0.942 . S
H167 C184 0.940 . S
H168 C185 0.939 . S
H169 C187 0.941 . S
H170 C191 0.939 . S
O171 P160 1.490 . S
H172 C188 0.939 . S
H173 C190 0.940 . S
C174 P160 1.812 . S
C174 C175 1.389 . S
C174 C179 1.391 . S
C175 H161 0.941 . S
C175 C174 1.389 . S
C175 C176 1.397 . S
C176 H162 0.939 . S
C176 C175 1.397 . S
C176 C177 1.378 . S
C177 C176 1.378 . S
C177 C178 1.378 . S
C178 H163 0.940 . S
C178 C177 1.378 . S
C178 C179 1.396 . S
C179 H164 0.940 . S
C179 C174 1.391 . S
C179 C178 1.396 . S
C180 P160 1.803 . S
C180 C181 1.378 . S
C180 C185 1.400 . S
C181 H165 0.939 . S
C181 C180 1.378 . S
C181 C182 1.361 . S
C182 H166 0.942 . S
C182 C181 1.361 . S
C182 C183 1.369 . S
C183 C182 1.369 . S
C183 C184 1.404 . S
C184 H167 0.940 . S
C184 C183 1.404 . S
C184 C185 1.389 . S
C185 H168 0.939 . S
C185 C180 1.400 . S
C185 C184 1.389 . S
C186 P160 1.819 . S
C186 C187 1.391 . S
C186 C191 1.391 . S
C187 H169 0.941 . S
C187 C186 1.391 . S
C187 C188 1.396 . S
C188 H172 0.939 . S
C188 C187 1.396 . S
C188 C189 1.397 . S
C189 C188 1.397 . S
C189 C190 1.385 . S
C190 H173 0.940 . S
C190 C189 1.385 . S
C190 C191 1.388 . S
C191 H170 0.939 . S
C191 C186 1.391 . S
C191 C190 1.388 . S
P192 O203 1.490 . S
P192 C206 1.812 . S
P192 C212 1.803 . S
P192 C218 1.819 . S
H193 C207 0.941 . S
H194 C208 0.939 . S
H195 C210 0.940 . S
H196 C211 0.940 . S
H197 C213 0.939 . S
H198 C214 0.942 . S
H199 C216 0.940 . S
H200 C217 0.939 . S
H201 C219 0.941 . S
H202 C223 0.939 . S
O203 P192 1.490 . S
H204 C220 0.939 . S
H205 C222 0.940 . S
C206 P192 1.812 . S
C206 C207 1.389 . S
C206 C211 1.391 . S
C207 H193 0.941 . S
C207 C206 1.389 . S
C207 C208 1.397 . S
C208 H194 0.939 . S
C208 C207 1.397 . S
C208 C209 1.378 . S
C209 C208 1.378 . S
C209 C210 1.378 . S
C210 H195 0.940 . S
C210 C209 1.378 . S
C210 C211 1.396 . S
C211 H196 0.940 . S
C211 C206 1.391 . S
C211 C210 1.396 . S
C212 P192 1.803 . S
C212 C213 1.378 . S
C212 C217 1.400 . S
C213 H197 0.939 . S
C213 C212 1.378 . S
C213 C214 1.361 . S
C214 H198 0.942 . S
C214 C213 1.361 . S
C214 C215 1.369 . S
C215 C214 1.369 . S
C215 C216 1.404 . S
C216 H199 0.940 . S
C216 C215 1.404 . S
C216 C217 1.389 . S
C217 H200 0.939 . S
C217 C212 1.400 . S
C217 C216 1.389 . S
C218 P192 1.819 . S
C218 C219 1.391 . S
C218 C223 1.391 . S
C219 H201 0.941 . S
C219 C218 1.391 . S
C219 C220 1.396 . S
C220 H204 0.939 . S
C220 C219 1.396 . S
C220 C221 1.397 . S
C221 C220 1.397 . S
C221 C222 1.385 . S
C222 H205 0.940 . S
C222 C221 1.385 . S
C222 C223 1.388 . S
C223 H202 0.939 . S
C223 C218 1.391 . S
C223 C222 1.388 . S
P224 O235 1.490 . S
P224 C238 1.812 . S
P224 C244 1.803 . S
P224 C250 1.819 . S
H225 C239 0.941 . S
H226 C240 0.939 . S
H227 C242 0.940 . S
H228 C243 0.940 . S
H229 C245 0.939 . S
H230 C246 0.942 . S
H231 C248 0.940 . S
H232 C249 0.939 . S
H233 C251 0.941 . S
H234 C255 0.939 . S
O235 P224 1.490 . S
H236 C252 0.939 . S
H237 C254 0.940 . S
C238 P224 1.812 . S
C238 C239 1.389 . S
C238 C243 1.391 . S
C239 H225 0.941 . S
C239 C238 1.389 . S
C239 C240 1.397 . S
C240 H226 0.939 . S
C240 C239 1.397 . S
C240 C241 1.378 . S
C241 C240 1.378 . S
C241 C242 1.378 . S
C242 H227 0.940 . S
C242 C241 1.378 . S
C242 C243 1.396 . S
C243 H228 0.940 . S
C243 C238 1.391 . S
C243 C242 1.396 . S
C244 P224 1.803 . S
C244 C245 1.378 . S
C244 C249 1.400 . S
C245 H229 0.939 . S
C245 C244 1.378 . S
C245 C246 1.361 . S
C246 H230 0.942 . S
C246 C245 1.361 . S
C246 C247 1.369 . S
C247 C246 1.369 . S
C247 C248 1.404 . S
C248 H231 0.940 . S
C248 C247 1.404 . S
C248 C249 1.389 . S
C249 H232 0.939 . S
C249 C244 1.400 . S
C249 C248 1.389 . S
C250 P224 1.819 . S
C250 C251 1.391 . S
C250 C255 1.391 . S
C251 H233 0.941 . S
C251 C250 1.391 . S
C251 C252 1.396 . S
C252 H236 0.939 . S
C252 C251 1.396 . S
C252 C253 1.397 . S
C253 C252 1.397 . S
C253 C254 1.385 . S
C254 H237 0.940 . S
C254 C253 1.385 . S
C254 C255 1.388 . S
C255 H234 0.939 . S
C255 C250 1.391 . S
C255 C254 1.388 . S
Zn256 O262 1.920 . S
Zn256 O268 1.898 . S
Zn256 O271 1.905 . S
Zn257 O265 1.905 1_655 S
Zn257 O266 1.898 . S
Zn257 O274 1.920 . S
Zn258 O261 2.080 1_455 S
Zn258 O264 2.114 . S
Zn258 O267 2.120 1_455 S
Zn258 O269 2.120 . S
Zn258 O270 2.114 . S
Zn258 O273 2.080 1_455 S
C259 O264 1.166 . S
C259 O265 1.182 . S
C260 O266 1.167 . S
C260 O267 1.299 . S
O261 Zn258 2.080 1_655 S
O261 C275 1.305 . S
O262 Zn256 1.920 . S
O262 C275 1.234 1_455 S
C263 O268 1.167 . S
C263 O269 1.299 . S
O264 Zn258 2.114 . S
O264 C259 1.166 . S
O265 Zn257 1.905 1_455 S
O265 C259 1.182 . S
O266 Zn257 1.898 . S
O266 C260 1.167 . S
O267 Zn258 2.120 1_655 S
O267 C260 1.299 . S
O268 Zn256 1.898 . S
O268 C263 1.167 . S
O269 Zn258 2.120 . S
O269 C263 1.299 . S
O270 Zn258 2.114 . S
O270 C272 1.166 . S
O271 Zn256 1.905 . S
O271 C272 1.182 . S
C272 O270 1.166 . S
C272 O271 1.182 . S
O273 Zn258 2.080 1_655 S
O273 C276 1.305 . S
O274 Zn257 1.920 . S
O274 C276 1.234 . S
C275 O261 1.305 . S
C275 O262 1.234 1_655 S
C276 O273 1.305 . S
C276 O274 1.234 . S
Zn277 O283 1.920 . S
Zn277 O289 1.898 . S
Zn277 O292 1.905 . S
Zn278 O286 1.905 . S
Zn278 O287 1.898 . S
Zn278 O295 1.920 . S
Zn279 O282 2.080 . S
Zn279 O285 2.114 . S
Zn279 O288 2.120 . S
Zn279 O290 2.120 . S
Zn279 O291 2.114 . S
Zn279 O294 2.080 . S
C280 O285 1.166 . S
C280 O286 1.182 . S
C281 O287 1.167 . S
C281 O288 1.299 . S
O282 Zn279 2.080 . S
O282 C296 1.305 . S
O283 Zn277 1.920 . S
O283 C296 1.234 . S
C284 O289 1.167 . S
C284 O290 1.299 . S
O285 Zn279 2.114 . S
O285 C280 1.166 . S
O286 Zn278 1.905 . S
O286 C280 1.182 . S
O287 Zn278 1.898 . S
O287 C281 1.167 . S
O288 Zn279 2.120 . S
O288 C281 1.299 . S
O289 Zn277 1.898 . S
O289 C284 1.167 . S
O290 Zn279 2.120 . S
O290 C284 1.299 . S
O291 Zn279 2.114 . S
O291 C293 1.166 . S
O292 Zn277 1.905 . S
O292 C293 1.182 . S
C293 O291 1.166 . S
C293 O292 1.182 . S
O294 Zn279 2.080 . S
O294 C297 1.305 . S
O295 Zn278 1.920 . S
O295 C297 1.234 . S
C296 O282 1.305 . S
C296 O283 1.234 . S
C297 O294 1.305 . S
C297 O295 1.234 . S
Zn298 O304 1.920 . S
Zn298 O310 1.898 . S
Zn298 O313 1.905 1_455 S
Zn299 O307 1.905 . S
Zn299 O308 1.898 . S
Zn299 O316 1.920 1_655 S
Zn300 O303 2.093 . S
Zn300 O306 2.100 1_455 S
Zn300 O309 2.107 1_455 S
Zn300 O311 2.135 . S
Zn300 O312 2.103 1_455 S
Zn300 O315 2.091 . S
C301 O306 1.166 . S
C301 O307 1.182 . S
C302 O308 1.167 . S
C302 O309 1.299 . S
O303 Zn300 2.093 . S
O303 C317 1.305 . S
O304 Zn298 1.920 . S
O304 C317 1.234 . S
C305 O310 1.167 . S
C305 O311 1.299 . S
O306 Zn300 2.100 1_655 S
O306 C301 1.166 . S
O307 Zn299 1.905 . S
O307 C301 1.182 . S
O308 Zn299 1.898 . S
O308 C302 1.167 . S
O309 Zn300 2.107 1_655 S
O309 C302 1.299 . S
O310 Zn298 1.898 . S
O310 C305 1.167 . S
O311 Zn300 2.135 . S
O311 C305 1.299 . S
O312 Zn300 2.103 1_655 S
O312 C314 1.166 . S
O313 Zn298 1.905 1_655 S
O313 C314 1.182 . S
C314 O312 1.166 . S
C314 O313 1.182 . S
O315 Zn300 2.091 . S
O315 C318 1.305 . S
O316 Zn299 1.920 1_455 S
O316 C318 1.234 . S
C317 O303 1.305 . S
C317 O304 1.234 . S
C318 O315 1.305 . S
C318 O316 1.234 . S
Zn319 O325 1.920 . S
Zn319 O331 1.898 . S
Zn319 O334 1.905 . S
Zn320 O328 1.905 . S
Zn320 O329 1.898 . S
Zn320 O337 1.920 . S
Zn321 O324 2.080 . S
Zn321 O327 2.114 . S
Zn321 O330 2.120 . S
Zn321 O332 2.120 . S
Zn321 O333 2.114 . S
Zn321 O336 2.080 . S
C322 O327 1.166 . S
C322 O328 1.182 . S
C323 O329 1.167 . S
C323 O330 1.299 . S
O324 Zn321 2.080 . S
O324 C338 1.305 . S
O325 Zn319 1.920 . S
O325 C338 1.234 . S
C326 O331 1.167 . S
C326 O332 1.299 . S
O327 Zn321 2.114 . S
O327 C322 1.166 . S
O328 Zn320 1.905 . S
O328 C322 1.182 . S
O329 Zn320 1.898 . S
O329 C323 1.167 . S
O330 Zn321 2.120 . S
O330 C323 1.299 . S
O331 Zn319 1.898 . S
O331 C326 1.167 . S
O332 Zn321 2.120 . S
O332 C326 1.299 . S
O333 Zn321 2.114 . S
O333 C335 1.166 . S
O334 Zn319 1.905 . S
O334 C335 1.182 . S
C335 O333 1.166 . S
C335 O334 1.182 . S
O336 Zn321 2.080 . S
O336 C339 1.305 . S
O337 Zn320 1.920 . S
O337 C339 1.234 . S
C338 O324 1.305 . S
C338 O325 1.234 . S
C339 O336 1.305 . S
C339 O337 1.234 . S
C340 C341 1.349 . S
C340 C342 1.327 . S
C340 H365 0.950 . S
C341 C340 1.349 . S
C341 C357 1.349 . S
C342 C340 1.327 . S
C342 C361 1.429 . S
C342 H366 0.950 . S
C343 C360 1.574 1_565 S
C343 C362 1.368 . S
C343 H367 0.949 . S
H344 C348 0.949 . S
C345 C346 1.349 . S
C345 C347 1.327 . S
C345 H368 0.950 . S
C346 C345 1.349 . S
C346 C358 1.349 . S
C347 C345 1.327 . S
C347 C363 1.429 . S
C347 H369 0.950 . S
C348 H344 0.949 . S
C348 C356 1.574 1_545 S
C348 C364 1.368 . S
H349 C357 0.950 . S
H350 C355 0.950 . S
H351 C356 0.949 . S
H352 C358 0.950 . S
H353 C359 0.950 . S
H354 C360 0.949 . S
C355 H350 0.950 . S
C355 C357 1.327 . S
C355 C361 1.429 . S
C356 C348 1.574 1_565 S
C356 H351 0.949 . S
C356 C362 1.368 . S
C357 C341 1.349 . S
C357 H349 0.950 . S
C357 C355 1.327 . S
C358 C346 1.349 . S
C358 H352 0.950 . S
C358 C359 1.327 . S
C359 H353 0.950 . S
C359 C358 1.327 . S
C359 C363 1.429 . S
C360 C343 1.574 1_545 S
C360 H354 0.949 . S
C360 C364 1.368 . S
C361 C342 1.429 . S
C361 C355 1.429 . S
C361 C362 1.523 . S
C362 C343 1.368 . S
C362 C356 1.368 . S
C362 C361 1.523 . S
C363 C347 1.429 . S
C363 C359 1.429 . S
C363 C364 1.523 . S
C364 C348 1.368 . S
C364 C360 1.368 . S
C364 C363 1.523 . S
H365 C340 0.950 . S
H366 C342 0.950 . S
H367 C343 0.949 . S
H368 C345 0.950 . S
H369 C347 0.950 . S
C370 C371 1.349 . S
C370 C372 1.327 . S
C370 H395 0.950 . S
C371 C370 1.349 . S
C371 C387 1.349 . S
C372 C370 1.327 . S
C372 C391 1.429 . S
C372 H396 0.950 . S
C373 C390 1.574 . S
C373 C392 1.368 . S
C373 H397 0.949 . S
H374 C378 0.949 . S
C375 C376 1.349 . S
C375 C377 1.327 . S
C375 H398 0.950 . S
C376 C375 1.349 . S
C376 C388 1.349 . S
C377 C375 1.327 . S
C377 C393 1.429 . S
C377 H399 0.950 . S
C378 H374 0.949 . S
C378 C386 1.574 . S
C378 C394 1.368 . S
H379 C387 0.950 . S
H380 C385 0.950 . S
H381 C386 0.949 . S
H382 C388 0.950 . S
H383 C389 0.950 . S
H384 C390 0.949 . S
C385 H380 0.950 . S
C385 C387 1.327 . S
C385 C391 1.429 . S
C386 C378 1.574 . S
C386 H381 0.949 . S
C386 C392 1.368 . S
C387 C371 1.349 . S
C387 H379 0.950 . S
C387 C385 1.327 . S
C388 C376 1.349 . S
C388 H382 0.950 . S
C388 C389 1.327 . S
C389 H383 0.950 . S
C389 C388 1.327 . S
C389 C393 1.429 . S
C390 C373 1.574 . S
C390 H384 0.949 . S
C390 C394 1.368 . S
C391 C372 1.429 . S
C391 C385 1.429 . S
C391 C392 1.523 . S
C392 C373 1.368 . S
C392 C386 1.368 . S
C392 C391 1.523 . S
C393 C377 1.429 . S
C393 C389 1.429 . S
C393 C394 1.523 . S
C394 C378 1.368 . S
C394 C390 1.368 . S
C394 C393 1.523 . S
H395 C370 0.950 . S
H396 C372 0.950 . S
H397 C373 0.949 . S
H398 C375 0.950 . S
H399 C377 0.950 . S
C400 C401 1.349 . S
C400 C402 1.327 . S
C400 H425 0.950 . S
C401 C400 1.349 . S
C401 C417 1.349 . S
C402 C400 1.327 . S
C402 C421 1.429 . S
C402 H426 0.950 . S
C403 C420 1.574 . S
C403 C422 1.368 . S
C403 H427 0.949 . S
H404 C408 0.949 . S
C405 C406 1.349 . S
C405 C407 1.327 . S
C405 H428 0.950 . S
C406 C405 1.349 . S
C406 C418 1.349 . S
C407 C405 1.327 . S
C407 C423 1.429 . S
C407 H429 0.950 . S
C408 H404 0.949 . S
C408 C416 1.574 . S
C408 C424 1.368 . S
H409 C417 0.950 . S
H410 C415 0.950 . S
H411 C416 0.949 . S
H412 C418 0.950 . S
H413 C419 0.950 . S
H414 C420 0.949 . S
C415 H410 0.950 . S
C415 C417 1.327 . S
C415 C421 1.429 . S
C416 C408 1.574 . S
C416 H411 0.949 . S
C416 C422 1.368 . S
C417 C401 1.349 . S
C417 H409 0.950 . S
C417 C415 1.327 . S
C418 C406 1.349 . S
C418 H412 0.950 . S
C418 C419 1.327 . S
C419 H413 0.950 . S
C419 C418 1.327 . S
C419 C423 1.429 . S
C420 C403 1.574 . S
C420 H414 0.949 . S
C420 C424 1.368 . S
C421 C402 1.429 . S
C421 C415 1.429 . S
C421 C422 1.523 . S
C422 C403 1.368 . S
C422 C416 1.368 . S
C422 C421 1.523 . S
C423 C407 1.429 . S
C423 C419 1.429 . S
C423 C424 1.523 . S
C424 C408 1.368 . S
C424 C420 1.368 . S
C424 C423 1.523 . S
H425 C400 0.950 . S
H426 C402 0.950 . S
H427 C403 0.949 . S
H428 C405 0.950 . S
H429 C407 0.950 . S
C430 C431 1.349 . S
C430 C432 1.327 . S
C430 H455 0.950 . S
C431 C430 1.349 . S
C431 C447 1.349 . S
C432 C430 1.327 . S
C432 C451 1.429 . S
C432 H456 0.950 . S
C433 C450 1.574 1_565 S
C433 C452 1.368 . S
C433 H457 0.949 . S
H434 C438 0.949 . S
C435 C436 1.349 . S
C435 C437 1.327 . S
C435 H458 0.950 . S
C436 C435 1.349 . S
C436 C448 1.349 . S
C437 C435 1.327 . S
C437 C453 1.429 . S
C437 H459 0.950 . S
C438 H434 0.949 . S
C438 C446 1.574 . S
C438 C454 1.368 . S
H439 C447 0.950 . S
H440 C445 0.950 . S
H441 C446 0.949 . S
H442 C448 0.950 . S
H443 C449 0.950 . S
H444 C450 0.949 . S
C445 H440 0.950 . S
C445 C447 1.327 . S
C445 C451 1.429 . S
C446 C438 1.574 . S
C446 H441 0.949 . S
C446 C452 1.368 1_545 S
C447 C431 1.349 . S
C447 H439 0.950 . S
C447 C445 1.327 . S
C448 C436 1.349 . S
C448 H442 0.950 . S
C448 C449 1.327 . S
C449 H443 0.950 . S
C449 C448 1.327 . S
C449 C453 1.429 . S
C450 C433 1.574 1_545 S
C450 H444 0.949 . S
C450 C454 1.368 . S
C451 C432 1.429 . S
C451 C445 1.429 . S
C451 C452 1.523 . S
C452 C433 1.368 . S
C452 C446 1.368 1_565 S
C452 C451 1.523 . S
C453 C437 1.429 . S
C453 C449 1.429 . S
C453 C454 1.523 . S
C454 C438 1.368 . S
C454 C450 1.368 . S
C454 C453 1.523 . S
H455 C430 0.950 . S
H456 C432 0.950 . S
H457 C433 0.949 . S
H458 C435 0.950 . S
H459 C437 0.950 . S
C460 C461 1.349 . S
C460 C462 1.327 . S
C460 H485 0.950 . S
C461 C460 1.349 . S
C461 C477 1.349 . S
C462 C460 1.327 . S
C462 C481 1.429 . S
C462 H486 0.950 . S
C463 C480 1.574 1_545 S
C463 C482 1.368 . S
C463 H487 0.949 . S
H464 C468 0.949 . S
C465 C466 1.349 . S
C465 C467 1.327 . S
C465 H488 0.950 . S
C466 C465 1.349 . S
C466 C478 1.349 . S
C467 C465 1.327 . S
C467 C483 1.429 . S
C467 H489 0.950 . S
C468 H464 0.949 . S
C468 C476 1.574 1_565 S
C468 C484 1.368 . S
H469 C477 0.950 . S
H470 C475 0.950 . S
H471 C476 0.949 . S
H472 C478 0.950 . S
H473 C479 0.950 . S
H474 C480 0.949 . S
C475 H470 0.950 . S
C475 C477 1.327 . S
C475 C481 1.429 . S
C476 C468 1.574 1_545 S
C476 H471 0.949 . S
C476 C482 1.368 . S
C477 C461 1.349 . S
C477 H469 0.950 . S
C477 C475 1.327 . S
C478 C466 1.349 . S
C478 H472 0.950 . S
C478 C479 1.327 . S
C479 H473 0.950 . S
C479 C478 1.327 . S
C479 C483 1.429 . S
C480 C463 1.574 1_565 S
C480 H474 0.949 . S
C480 C484 1.368 . S
C481 C462 1.429 . S
C481 C475 1.429 . S
C481 C482 1.523 . S
C482 C463 1.368 . S
C482 C476 1.368 . S
C482 C481 1.523 . S
C483 C467 1.429 . S
C483 C479 1.429 . S
C483 C484 1.523 . S
C484 C468 1.368 . S
C484 C480 1.368 . S
C484 C483 1.523 . S
H485 C460 0.950 . S
H486 C462 0.950 . S
H487 C463 0.949 . S
H488 C465 0.950 . S
H489 C467 0.950 . S
C490 C491 1.349 . S
C490 C492 1.327 . S
C490 H515 0.950 . S
C491 C490 1.349 . S
C491 C507 1.349 . S
C492 C490 1.327 . S
C492 C511 1.429 . S
C492 H516 0.950 . S
C493 C510 1.574 . S
C493 C512 1.368 . S
C493 H517 0.949 . S
H494 C498 0.949 . S
C495 C496 1.349 . S
C495 C497 1.327 . S
C495 H518 0.950 . S
C496 C495 1.349 . S
C496 C508 1.349 . S
C497 C495 1.327 . S
C497 C513 1.429 . S
C497 H519 0.950 . S
C498 H494 0.949 . S
C498 C506 1.574 . S
C498 C514 1.368 . S
H499 C507 0.950 . S
H500 C505 0.950 . S
H501 C506 0.949 . S
H502 C508 0.950 . S
H503 C509 0.950 . S
H504 C510 0.949 . S
C505 H500 0.950 . S
C505 C507 1.327 . S
C505 C511 1.429 . S
C506 C498 1.574 . S
C506 H501 0.949 . S
C506 C512 1.368 . S
C507 C491 1.349 . S
C507 H499 0.950 . S
C507 C505 1.327 . S
C508 C496 1.349 . S
C508 H502 0.950 . S
C508 C509 1.327 . S
C509 H503 0.950 . S
C509 C508 1.327 . S
C509 C513 1.429 . S
C510 C493 1.574 . S
C510 H504 0.949 . S
C510 C514 1.368 . S
C511 C492 1.429 . S
C511 C505 1.429 . S
C511 C512 1.523 . S
C512 C493 1.368 . S
C512 C506 1.368 . S
C512 C511 1.523 . S
C513 C497 1.429 . S
C513 C509 1.429 . S
C513 C514 1.523 . S
C514 C498 1.368 . S
C514 C510 1.368 . S
C514 C513 1.523 . S
H515 C490 0.950 . S
H516 C492 0.950 . S
H517 C493 0.949 . S
H518 C495 0.950 . S
H519 C497 0.950 . S
C520 C521 1.349 . S
C520 C522 1.327 . S
C520 H545 0.950 . S
C521 C520 1.349 . S
C521 C537 1.349 . S
C522 C520 1.327 . S
C522 C541 1.429 . S
C522 H546 0.950 . S
C523 C540 1.574 . S
C523 C542 1.368 . S
C523 H547 0.949 . S
H524 C528 0.949 . S
C525 C526 1.349 . S
C525 C527 1.327 . S
C525 H548 0.950 . S
C526 C525 1.349 . S
C526 C538 1.349 . S
C527 C525 1.327 . S
C527 C543 1.429 . S
C527 H549 0.950 . S
C528 H524 0.949 . S
C528 C536 1.574 . S
C528 C544 1.368 . S
H529 C537 0.950 . S
H530 C535 0.950 . S
H531 C536 0.949 . S
H532 C538 0.950 . S
H533 C539 0.950 . S
H534 C540 0.949 . S
C535 H530 0.950 . S
C535 C537 1.327 . S
C535 C541 1.429 . S
C536 C528 1.574 . S
C536 H531 0.949 . S
C536 C542 1.368 . S
C537 C521 1.349 . S
C537 H529 0.950 . S
C537 C535 1.327 . S
C538 C526 1.349 . S
C538 H532 0.950 . S
C538 C539 1.327 . S
C539 H533 0.950 . S
C539 C538 1.327 . S
C539 C543 1.429 . S
C540 C523 1.574 . S
C540 H534 0.949 . S
C540 C544 1.368 . S
C541 C522 1.429 . S
C541 C535 1.429 . S
C541 C542 1.523 . S
C542 C523 1.368 . S
C542 C536 1.368 . S
C542 C541 1.523 . S
C543 C527 1.429 . S
C543 C539 1.429 . S
C543 C544 1.523 . S
C544 C528 1.368 . S
C544 C540 1.368 . S
C544 C543 1.523 . S
H545 C520 0.950 . S
H546 C522 0.950 . S
H547 C523 0.949 . S
H548 C525 0.950 . S
H549 C527 0.950 . S
C550 C551 1.349 . S
C550 C552 1.327 . S
C550 H575 0.950 . S
C551 C550 1.349 . S
C551 C567 1.349 . S
C552 C550 1.327 . S
C552 C571 1.429 . S
C552 H576 0.950 . S
C553 C570 1.574 1_545 S
C553 C572 1.368 . S
C553 H577 0.949 . S
H554 C558 0.949 . S
C555 C556 1.349 . S
C555 C557 1.327 . S
C555 H578 0.950 . S
C556 C555 1.349 . S
C556 C568 1.349 . S
C557 C555 1.327 . S
C557 C573 1.429 . S
C557 H579 0.950 . S
C558 H554 0.949 . S
C558 C566 1.574 1_565 S
C558 C574 1.368 . S
H559 C567 0.950 . S
H560 C565 0.950 . S
H561 C566 0.949 . S
H562 C568 0.950 . S
H563 C569 0.950 . S
H564 C570 0.949 . S
C565 H560 0.950 . S
C565 C567 1.327 . S
C565 C571 1.429 . S
C566 C558 1.574 1_545 S
C566 H561 0.949 . S
C566 C572 1.368 . S
C567 C551 1.349 . S
C567 H559 0.950 . S
C567 C565 1.327 . S
C568 C556 1.349 . S
C568 H562 0.950 . S
C568 C569 1.327 . S
C569 H563 0.950 . S
C569 C568 1.327 . S
C569 C573 1.429 . S
C570 C553 1.574 1_565 S
C570 H564 0.949 . S
C570 C574 1.368 . S
C571 C552 1.429 . S
C571 C565 1.429 . S
C571 C572 1.523 . S
C572 C553 1.368 . S
C572 C566 1.368 . S
C572 C571 1.523 . S
C573 C557 1.429 . S
C573 C569 1.429 . S
C573 C574 1.523 . S
C574 C558 1.368 . S
C574 C570 1.368 . S
C574 C573 1.523 . S
H575 C550 0.950 . S
H576 C552 0.950 . S
H577 C553 0.949 . S
H578 C555 0.950 . S
H579 C557 0.950 . S
C580 C581 1.349 1_554 S
C580 C582 1.327 . S
C580 H605 0.938 1_554 S
C581 C580 1.349 1_556 S
C581 C597 1.349 . S
C582 C580 1.327 . S
C582 C601 1.429 . S
C582 H606 0.950 . S
C583 C600 1.574 . S
C583 C602 1.368 . S
C583 H607 0.949 . S
H584 C588 0.949 . S
C585 C586 1.349 . S
C585 C587 1.327 . S
C585 H608 0.950 . S
C586 C585 1.349 . S
C586 C598 1.349 . S
C587 C585 1.327 . S
C587 C603 1.429 . S
C587 H609 0.950 . S
C588 H584 0.949 . S
C588 C596 1.574 . S
C588 C604 1.368 . S
H589 C597 0.950 . S
H590 C595 0.950 . S
H591 C596 0.949 . S
H592 C598 0.950 . S
H593 C599 0.950 . S
H594 C600 0.949 . S
C595 H590 0.950 . S
C595 C597 1.327 1_554 S
C595 C601 1.429 . S
C596 C588 1.574 . S
C596 H591 0.949 . S
C596 C602 1.368 . S
C597 C581 1.349 . S
C597 H589 0.950 . S
C597 C595 1.327 1_556 S
C598 C586 1.349 . S
C598 H592 0.950 . S
C598 C599 1.327 . S
C599 H593 0.950 . S
C599 C598 1.327 . S
C599 C603 1.429 . S
C600 C583 1.574 . S
C600 H594 0.949 . S
C600 C604 1.368 . S
C601 C582 1.429 . S
C601 C595 1.429 . S
C601 C602 1.523 . S
C602 C583 1.368 . S
C602 C596 1.368 . S
C602 C601 1.523 . S
C603 C587 1.429 . S
C603 C599 1.429 . S
C603 C604 1.523 . S
C604 C588 1.368 . S
C604 C600 1.368 . S
C604 C603 1.523 . S
H605 C580 0.938 1_556 S
H606 C582 0.950 . S
H607 C583 0.949 . S
H608 C585 0.950 . S
H609 C587 0.950 . S
C610 C611 1.349 . S
C610 C612 1.327 . S
C610 H635 0.950 . S
C611 C610 1.349 . S
C611 C627 1.349 . S
C612 C610 1.327 . S
C612 C631 1.429 . S
C612 H636 0.950 . S
C613 C630 1.574 . S
C613 C632 1.368 . S
C613 H637 0.949 . S
H614 C618 0.949 . S
C615 C616 1.349 . S
C615 C617 1.327 . S
C615 H638 0.950 . S
C616 C615 1.349 . S
C616 C628 1.349 . S
C617 C615 1.327 . S
C617 C633 1.429 . S
C617 H639 0.950 . S
C618 H614 0.949 . S
C618 C626 1.574 . S
C618 C634 1.368 . S
H619 C627 0.950 . S
H620 C625 0.950 . S
H621 C626 0.949 . S
H622 C628 0.950 . S
H623 C629 0.950 . S
H624 C630 0.949 . S
C625 H620 0.950 . S
C625 C627 1.327 . S
C625 C631 1.429 . S
C626 C618 1.574 . S
C626 H621 0.949 . S
C626 C632 1.368 . S
C627 C611 1.349 . S
C627 H619 0.950 . S
C627 C625 1.327 . S
C628 C616 1.349 . S
C628 H622 0.950 . S
C628 C629 1.327 . S
C629 H623 0.950 . S
C629 C628 1.327 . S
C629 C633 1.429 . S
C630 C613 1.574 . S
C630 H624 0.949 . S
C630 C634 1.368 . S
C631 C612 1.429 . S
C631 C625 1.429 . S
C631 C632 1.523 . S
C632 C613 1.368 . S
C632 C626 1.368 . S
C632 C631 1.523 . S
C633 C617 1.429 . S
C633 C629 1.429 . S
C633 C634 1.523 . S
C634 C618 1.368 . S
C634 C630 1.368 . S
C634 C633 1.523 . S
H635 C610 0.950 . S
H636 C612 0.950 . S
H637 C613 0.949 . S
H638 C615 0.950 . S
H639 C617 0.950 . S
C640 C641 1.349 1_556 S
C640 C642 1.327 . S
C640 H665 0.950 1_556 S
C641 C640 1.349 1_554 S
C641 C657 1.349 . S
C642 C640 1.327 . S
C642 C661 1.429 . S
C642 H666 0.950 . S
C643 C660 1.574 . S
C643 C662 1.368 . S
C643 H667 0.949 . S
H644 C648 0.949 . S
C645 C646 1.349 . S
C645 C647 1.327 . S
C645 H668 0.950 . S
C646 C645 1.349 . S
C646 C658 1.349 . S
C647 C645 1.327 . S
C647 C663 1.429 . S
C647 H669 0.950 . S
C648 H644 0.949 . S
C648 C656 1.574 . S
C648 C664 1.368 . S
H649 C657 0.950 . S
H650 C655 0.950 . S
H651 C656 0.949 . S
H652 C658 0.950 . S
H653 C659 0.950 . S
H654 C660 0.949 . S
C655 H650 0.950 . S
C655 C657 1.327 1_556 S
C655 C661 1.429 . S
C656 C648 1.574 . S
C656 H651 0.949 . S
C656 C662 1.368 . S
C657 C641 1.349 . S
C657 H649 0.950 . S
C657 C655 1.327 1_554 S
C658 C646 1.349 . S
C658 H652 0.950 . S
C658 C659 1.327 . S
C659 H653 0.950 . S
C659 C658 1.327 . S
C659 C663 1.429 . S
C660 C643 1.574 . S
C660 H654 0.949 . S
C660 C664 1.368 . S
C661 C642 1.429 . S
C661 C655 1.429 . S
C661 C662 1.523 . S
C662 C643 1.368 . S
C662 C656 1.368 . S
C662 C661 1.523 . S
C663 C647 1.429 . S
C663 C659 1.429 . S
C663 C664 1.523 . S
C664 C648 1.368 . S
C664 C660 1.368 . S
C664 C663 1.523 . S
H665 C640 0.950 1_554 S
H666 C642 0.950 . S
H667 C643 0.949 . S
H668 C645 0.950 . S
H669 C647 0.950 . S
C670 C671 1.349 . S
C670 C672 1.327 . S
C670 H695 0.950 . S
C671 C670 1.349 . S
C671 C687 1.349 . S
C672 C670 1.327 . S
C672 C691 1.429 . S
C672 H696 0.950 . S
C673 C690 1.574 . S
C673 C692 1.368 . S
C673 H697 0.949 . S
H674 C678 0.949 . S
C675 C676 1.349 . S
C675 C677 1.327 . S
C675 H698 0.950 . S
C676 C675 1.349 . S
C676 C688 1.349 . S
C677 C675 1.327 . S
C677 C693 1.429 . S
C677 H699 0.950 . S
C678 H674 0.949 . S
C678 C686 1.574 . S
C678 C694 1.368 . S
H679 C687 0.950 . S
H680 C685 0.950 . S
H681 C686 0.949 . S
H682 C688 0.950 . S
H683 C689 0.950 . S
H684 C690 0.949 . S
C685 H680 0.950 . S
C685 C687 1.327 . S
C685 C691 1.429 . S
C686 C678 1.574 . S
C686 H681 0.949 . S
C686 C692 1.368 . S
C687 C671 1.349 . S
C687 H679 0.950 . S
C687 C685 1.327 . S
C688 C676 1.349 . S
C688 H682 0.950 . S
C688 C689 1.327 . S
C689 H683 0.950 . S
C689 C688 1.327 . S
C689 C693 1.429 . S
C690 C673 1.574 . S
C690 H684 0.949 . S
C690 C694 1.368 . S
C691 C672 1.429 . S
C691 C685 1.429 . S
C691 C692 1.523 . S
C692 C673 1.368 . S
C692 C686 1.368 . S
C692 C691 1.523 . S
C693 C677 1.429 . S
C693 C689 1.429 . S
C693 C694 1.523 . S
C694 C678 1.368 . S
C694 C690 1.368 . S
C694 C693 1.523 . S
H695 C670 0.950 . S
H696 C672 0.950 . S
H697 C673 0.949 . S
H698 C675 0.950 . S
H699 C677 0.950 . S
C700 C701 1.349 . S
C700 C702 1.327 1_554 S
C700 H725 0.950 . S
C701 C700 1.349 . S
C701 C717 1.349 1_554 S
C702 C700 1.327 1_556 S
C702 C721 1.429 . S
C702 H726 0.950 . S
C703 C720 1.574 . S
C703 C722 1.368 . S
C703 H727 0.949 . S
H704 C708 0.949 . S
C705 C706 1.349 . S
C705 C707 1.327 . S
C705 H728 0.950 . S
C706 C705 1.349 . S
C706 C718 1.349 . S
C707 C705 1.327 . S
C707 C723 1.429 . S
C707 H729 0.950 . S
C708 H704 0.949 . S
C708 C716 1.574 . S
C708 C724 1.368 . S
H709 C717 0.950 . S
H710 C715 0.950 . S
H711 C716 0.949 . S
H712 C718 0.950 . S
H713 C719 0.950 . S
H714 C720 0.949 . S
C715 H710 0.950 . S
C715 C717 1.327 . S
C715 C721 1.429 . S
C716 C708 1.574 . S
C716 H711 0.949 . S
C716 C722 1.368 . S
C717 C701 1.349 1_556 S
C717 H709 0.950 . S
C717 C715 1.327 . S
C718 C706 1.349 . S
C718 H712 0.950 . S
C718 C719 1.327 . S
C719 H713 0.950 . S
C719 C718 1.327 . S
C719 C723 1.429 . S
C720 C703 1.574 . S
C720 H714 0.949 . S
C720 C724 1.368 . S
C721 C702 1.429 . S
C721 C715 1.429 . S
C721 C722 1.523 . S
C722 C703 1.368 . S
C722 C716 1.368 . S
C722 C721 1.523 . S
C723 C707 1.429 . S
C723 C719 1.429 . S
C723 C724 1.523 . S
C724 C708 1.368 . S
C724 C720 1.368 . S
C724 C723 1.523 . S
H725 C700 0.950 . S
H726 C702 0.950 . S
H727 C703 0.949 . S
H728 C705 0.950 . S
H729 C707 0.950 . S
C730 C731 1.349 . S
C730 C732 1.327 . S
C730 H755 0.950 . S
C731 C730 1.349 . S
C731 C747 1.349 . S
C732 C730 1.327 . S
C732 C751 1.429 . S
C732 H756 0.950 . S
C733 C750 1.574 . S
C733 C752 1.368 . S
C733 H757 0.949 . S
H734 C738 0.949 . S
C735 C736 1.349 . S
C735 C737 1.327 . S
C735 H758 0.950 . S
C736 C735 1.349 . S
C736 C748 1.349 . S
C737 C735 1.327 . S
C737 C753 1.429 . S
C737 H759 0.950 . S
C738 H734 0.949 . S
C738 C746 1.574 . S
C738 C754 1.368 . S
H739 C747 0.950 . S
H740 C745 0.950 . S
H741 C746 0.949 . S
H742 C748 0.950 . S
H743 C749 0.950 . S
H744 C750 0.949 . S
C745 H740 0.950 . S
C745 C747 1.327 . S
C745 C751 1.429 . S
C746 C738 1.574 . S
C746 H741 0.949 . S
C746 C752 1.368 . S
C747 C731 1.349 . S
C747 H739 0.950 . S
C747 C745 1.327 . S
C748 C736 1.349 . S
C748 H742 0.950 . S
C748 C749 1.327 . S
C749 H743 0.950 . S
C749 C748 1.327 . S
C749 C753 1.429 . S
C750 C733 1.574 . S
C750 H744 0.949 . S
C750 C754 1.368 . S
C751 C732 1.429 . S
C751 C745 1.429 . S
C751 C752 1.523 . S
C752 C733 1.368 . S
C752 C746 1.368 . S
C752 C751 1.523 . S
C753 C737 1.429 . S
C753 C749 1.429 . S
C753 C754 1.523 . S
C754 C738 1.368 . S
C754 C750 1.368 . S
C754 C753 1.523 . S
H755 C730 0.950 . S
H756 C732 0.950 . S
H757 C733 0.949 . S
H758 C735 0.950 . S
H759 C737 0.950 . S
C760 C761 1.349 1_554 S
C760 C762 1.327 . S
C760 H785 0.950 1_554 S
C761 C760 1.349 1_556 S
C761 C777 1.349 . S
C762 C760 1.327 . S
C762 C781 1.429 . S
C762 H786 0.950 . S
C763 C780 1.574 . S
C763 C782 1.368 . S
C763 H787 0.949 . S
H764 C768 0.949 . S
C765 C766 1.349 . S
C765 C767 1.327 . S
C765 H788 0.950 . S
C766 C765 1.349 . S
C766 C778 1.349 . S
C767 C765 1.327 . S
C767 C783 1.429 . S
C767 H789 0.950 . S
C768 H764 0.949 . S
C768 C776 1.574 . S
C768 C784 1.368 . S
H769 C777 0.950 . S
H770 C775 0.950 . S
H771 C776 0.949 . S
H772 C778 0.950 . S
H773 C779 0.950 . S
H774 C780 0.949 . S
C775 H770 0.950 . S
C775 C777 1.327 1_554 S
C775 C781 1.429 . S
C776 C768 1.574 . S
C776 H771 0.949 . S
C776 C782 1.368 . S
C777 C761 1.349 . S
C777 H769 0.950 . S
C777 C775 1.327 1_556 S
C778 C766 1.349 . S
C778 H772 0.950 . S
C778 C779 1.327 . S
C779 H773 0.950 . S
C779 C778 1.327 . S
C779 C783 1.429 . S
C780 C763 1.574 . S
C780 H774 0.949 . S
C780 C784 1.368 . S
C781 C762 1.429 . S
C781 C775 1.429 . S
C781 C782 1.523 . S
C782 C763 1.368 . S
C782 C776 1.368 . S
C782 C781 1.523 . S
C783 C767 1.429 . S
C783 C779 1.429 . S
C783 C784 1.523 . S
C784 C768 1.368 . S
C784 C780 1.368 . S
C784 C783 1.523 . S
H785 C760 0.950 1_556 S
H786 C762 0.950 . S
H787 C763 0.949 . S
H788 C765 0.950 . S
H789 C767 0.950 . S
C790 C791 1.349 . S
C790 C792 1.327 . S
C790 H815 0.950 . S
C791 C790 1.349 . S
C791 C807 1.349 . S
C792 C790 1.327 . S
C792 C811 1.429 . S
C792 H816 0.950 . S
C793 C810 1.574 . S
C793 C812 1.368 . S
C793 H817 0.949 . S
H794 C798 0.949 . S
C795 C796 1.349 . S
C795 C797 1.327 . S
C795 H818 0.950 . S
C796 C795 1.349 . S
C796 C808 1.349 . S
C797 C795 1.327 . S
C797 C813 1.429 . S
C797 H819 0.950 . S
C798 H794 0.949 . S
C798 C806 1.574 . S
C798 C814 1.368 . S
H799 C807 0.950 . S
H800 C805 0.950 . S
H801 C806 0.949 . S
H802 C808 0.950 . S
H803 C809 0.950 . S
H804 C810 0.949 . S
C805 H800 0.950 . S
C805 C807 1.327 . S
C805 C811 1.429 . S
C806 C798 1.574 . S
C806 H801 0.949 . S
C806 C812 1.368 . S
C807 C791 1.349 . S
C807 H799 0.950 . S
C807 C805 1.327 . S
C808 C796 1.349 . S
C808 H802 0.950 . S
C808 C809 1.327 . S
C809 H803 0.950 . S
C809 C808 1.327 . S
C809 C813 1.429 . S
C810 C793 1.574 . S
C810 H804 0.949 . S
C810 C814 1.368 . S
C811 C792 1.429 . S
C811 C805 1.429 . S
C811 C812 1.523 . S
C812 C793 1.368 . S
C812 C806 1.368 . S
C812 C811 1.523 . S
C813 C797 1.429 . S
C813 C809 1.429 . S
C813 C814 1.523 . S
C814 C798 1.368 . S
C814 C810 1.368 . S
C814 C813 1.523 . S
H815 C790 0.950 . S
H816 C792 0.950 . S
H817 C793 0.949 . S
H818 C795 0.950 . S
H819 C797 0.950 . S
C820 C821 1.349 . S
C820 C822 1.327 . S
C820 H845 0.950 . S
C821 C820 1.349 . S
C821 C837 1.349 . S
C822 C820 1.327 . S
C822 C841 1.429 . S
C822 H846 0.950 . S
C823 C840 1.574 . S
C823 C842 1.368 . S
C823 H847 0.949 . S
H824 C828 0.949 . S
C825 C826 1.349 . S
C825 C827 1.327 . S
C825 H848 0.950 . S
C826 C825 1.349 . S
C826 C838 1.349 . S
C827 C825 1.327 . S
C827 C843 1.429 . S
C827 H849 0.950 . S
C828 H824 0.949 . S
C828 C836 1.574 . S
C828 C844 1.368 . S
H829 C837 0.950 . S
H830 C835 0.950 . S
H831 C836 0.949 . S
H832 C838 0.950 . S
H833 C839 0.950 . S
H834 C840 0.949 . S
C835 H830 0.950 . S
C835 C837 1.327 . S
C835 C841 1.429 . S
C836 C828 1.574 . S
C836 H831 0.949 . S
C836 C842 1.368 . S
C837 C821 1.349 . S
C837 H829 0.950 . S
C837 C835 1.327 . S
C838 C826 1.349 . S
C838 H832 0.950 . S
C838 C839 1.327 . S
C839 H833 0.950 . S
C839 C838 1.327 . S
C839 C843 1.429 . S
C840 C823 1.574 . S
C840 H834 0.949 . S
C840 C844 1.368 . S
C841 C822 1.429 . S
C841 C835 1.429 . S
C841 C842 1.523 . S
C842 C823 1.368 . S
C842 C836 1.368 . S
C842 C841 1.523 . S
C843 C827 1.429 . S
C843 C839 1.429 . S
C843 C844 1.523 . S
C844 C828 1.368 . S
C844 C840 1.368 . S
C844 C843 1.523 . S
H845 C820 0.950 . S
H846 C822 0.950 . S
H847 C823 0.949 . S
H848 C825 0.950 . S
H849 C827 0.950 . S
C850 C851 1.349 . S
C850 C852 1.327 . S
C850 H875 0.950 . S
C851 C850 1.349 . S
C851 C867 1.349 . S
C852 C850 1.327 . S
C852 C871 1.429 . S
C852 H876 0.950 . S
C853 C870 1.574 . S
C853 C872 1.368 . S
C853 H877 0.949 . S
H854 C858 0.949 . S
C855 C856 1.349 . S
C855 C857 1.327 . S
C855 H878 0.950 . S
C856 C855 1.349 . S
C856 C868 1.349 . S
C857 C855 1.327 . S
C857 C873 1.429 . S
C857 H879 0.950 . S
C858 H854 0.949 . S
C858 C866 1.574 . S
C858 C874 1.368 . S
H859 C867 0.950 . S
H860 C865 0.950 . S
H861 C866 0.949 . S
H862 C868 0.950 . S
H863 C869 0.950 . S
H864 C870 0.949 . S
C865 H860 0.950 . S
C865 C867 1.327 . S
C865 C871 1.429 . S
C866 C858 1.574 . S
C866 H861 0.949 . S
C866 C872 1.368 . S
C867 C851 1.349 . S
C867 H859 0.950 . S
C867 C865 1.327 . S
C868 C856 1.349 . S
C868 H862 0.950 . S
C868 C869 1.327 . S
C869 H863 0.950 . S
C869 C868 1.327 . S
C869 C873 1.429 . S
C870 C853 1.574 . S
C870 H864 0.949 . S
C870 C874 1.368 . S
C871 C852 1.429 . S
C871 C865 1.429 . S
C871 C872 1.523 . S
C872 C853 1.368 . S
C872 C866 1.368 . S
C872 C871 1.523 . S
C873 C857 1.429 . S
C873 C869 1.429 . S
C873 C874 1.523 . S
C874 C858 1.368 . S
C874 C870 1.368 . S
C874 C873 1.523 . S
H875 C850 0.950 . S
H876 C852 0.950 . S
H877 C853 0.949 . S
H878 C855 0.950 . S
H879 C857 0.950 . S
C880 C881 1.349 . S
C880 C882 1.327 . S
C880 H905 0.950 . S
C881 C880 1.349 . S
C881 C897 1.349 . S
C882 C880 1.327 . S
C882 C901 1.429 . S
C882 H906 0.950 . S
C883 C900 1.574 . S
C883 C902 1.368 . S
C883 H907 0.949 . S
H884 C888 0.949 . S
C885 C886 1.349 . S
C885 C887 1.327 . S
C885 H908 0.950 . S
C886 C885 1.349 . S
C886 C898 1.349 . S
C887 C885 1.327 . S
C887 C903 1.429 . S
C887 H909 0.950 . S
C888 H884 0.949 . S
C888 C896 1.574 . S
C888 C904 1.368 . S
H889 C897 0.950 . S
H890 C895 0.950 . S
H891 C896 0.949 . S
H892 C898 0.950 . S
H893 C899 0.950 . S
H894 C900 0.949 . S
C895 H890 0.950 . S
C895 C897 1.327 . S
C895 C901 1.429 . S
C896 C888 1.574 . S
C896 H891 0.949 . S
C896 C902 1.368 . S
C897 C881 1.349 . S
C897 H889 0.950 . S
C897 C895 1.327 . S
C898 C886 1.349 . S
C898 H892 0.950 . S
C898 C899 1.327 . S
C899 H893 0.950 . S
C899 C898 1.327 . S
C899 C903 1.429 . S
C900 C883 1.574 . S
C900 H894 0.949 . S
C900 C904 1.368 . S
C901 C882 1.429 . S
C901 C895 1.429 . S
C901 C902 1.523 . S
C902 C883 1.368 . S
C902 C896 1.368 . S
C902 C901 1.523 . S
C903 C887 1.429 . S
C903 C899 1.429 . S
C903 C904 1.523 . S
C904 C888 1.368 . S
C904 C900 1.368 . S
C904 C903 1.523 . S
H905 C880 0.950 . S
H906 C882 0.950 . S
H907 C883 0.949 . S
H908 C885 0.950 . S
H909 C887 0.950 . S
C910 C911 1.349 . S
C910 C912 1.327 . S
C910 H935 0.950 . S
C911 C910 1.349 . S
C911 C927 1.349 . S
C912 C910 1.327 . S
C912 C931 1.429 . S
C912 H936 0.950 . S
C913 C930 1.574 . S
C913 C932 1.368 . S
C913 H937 0.949 . S
H914 C918 0.949 . S
C915 C916 1.349 . S
C915 C917 1.327 . S
C915 H938 0.950 . S
C916 C915 1.349 . S
C916 C928 1.349 . S
C917 C915 1.327 . S
C917 C933 1.429 . S
C917 H939 0.950 . S
C918 H914 0.949 . S
C918 C926 1.574 . S
C918 C934 1.368 . S
H919 C927 0.950 . S
H920 C925 0.950 . S
H921 C926 0.949 . S
H922 C928 0.950 . S
H923 C929 0.950 . S
H924 C930 0.949 . S
C925 H920 0.950 . S
C925 C927 1.327 . S
C925 C931 1.429 . S
C926 C918 1.574 . S
C926 H921 0.949 . S
C926 C932 1.368 . S
C927 C911 1.349 . S
C927 H919 0.950 . S
C927 C925 1.327 . S
C928 C916 1.349 . S
C928 H922 0.950 . S
C928 C929 1.327 . S
C929 H923 0.950 . S
C929 C928 1.327 . S
C929 C933 1.429 . S
C930 C913 1.574 . S
C930 H924 0.949 . S
C930 C934 1.368 . S
C931 C912 1.429 . S
C931 C925 1.429 . S
C931 C932 1.523 . S
C932 C913 1.368 . S
C932 C926 1.368 . S
C932 C931 1.523 . S
C933 C917 1.429 . S
C933 C929 1.429 . S
C933 C934 1.523 . S
C934 C918 1.368 . S
C934 C930 1.368 . S
C934 C933 1.523 . S
H935 C910 0.950 . S
H936 C912 0.950 . S
H937 C913 0.949 . S
H938 C915 0.950 . S
H939 C917 0.950 . S
C940 C941 1.349 . S
C940 C942 1.327 . S
C940 H965 0.950 . S
C941 C940 1.349 . S
C941 C957 1.349 . S
C942 C940 1.327 . S
C942 C961 1.429 . S
C942 H966 0.950 . S
C943 C960 1.574 . S
C943 C962 1.368 . S
C943 H967 0.949 . S
H944 C948 0.949 . S
C945 C946 1.349 . S
C945 C947 1.327 . S
C945 H968 0.950 . S
C946 C945 1.349 . S
C946 C958 1.349 . S
C947 C945 1.327 . S
C947 C963 1.429 . S
C947 H969 0.950 . S
C948 H944 0.949 . S
C948 C956 1.574 . S
C948 C964 1.368 . S
H949 C957 0.950 . S
H950 C955 0.950 . S
H951 C956 0.949 . S
H952 C958 0.950 . S
H953 C959 0.950 . S
H954 C960 0.949 . S
C955 H950 0.950 . S
C955 C957 1.327 . S
C955 C961 1.429 . S
C956 C948 1.574 . S
C956 H951 0.949 . S
C956 C962 1.368 . S
C957 C941 1.349 . S
C957 H949 0.950 . S
C957 C955 1.327 . S
C958 C946 1.349 . S
C958 H952 0.950 . S
C958 C959 1.327 . S
C959 H953 0.950 . S
C959 C958 1.327 . S
C959 C963 1.429 . S
C960 C943 1.574 . S
C960 H954 0.949 . S
C960 C964 1.368 . S
C961 C942 1.429 . S
C961 C955 1.429 . S
C961 C962 1.523 . S
C962 C943 1.368 . S
C962 C956 1.368 . S
C962 C961 1.523 . S
C963 C947 1.429 . S
C963 C959 1.429 . S
C963 C964 1.523 . S
C964 C948 1.368 . S
C964 C960 1.368 . S
C964 C963 1.523 . S
H965 C940 0.950 . S
H966 C942 0.950 . S
H967 C943 0.949 . S
H968 C945 0.950 . S
H969 C947 0.950 . S
C970 C971 1.349 . S
C970 C972 1.327 . S
C970 H995 0.950 . S
C971 C970 1.349 . S
C971 C987 1.349 . S
C972 C970 1.327 . S
C972 C991 1.429 . S
C972 H996 0.950 . S
C973 C990 1.574 . S
C973 C992 1.368 . S
C973 H997 0.949 . S
H974 C978 0.949 . S
C975 C976 1.349 . S
C975 C977 1.327 . S
C975 H998 0.950 . S
C976 C975 1.349 . S
C976 C988 1.349 . S
C977 C975 1.327 . S
C977 C993 1.429 . S
C977 H999 0.950 . S
C978 H974 0.949 . S
C978 C986 1.574 . S
C978 C994 1.368 . S
H979 C987 0.950 . S
H980 C985 0.950 . S
H981 C986 0.949 . S
H982 C988 0.950 . S
H983 C989 0.950 . S
H984 C990 0.949 . S
C985 H980 0.950 . S
C985 C987 1.327 . S
C985 C991 1.429 . S
C986 C978 1.574 . S
C986 H981 0.949 . S
C986 C992 1.368 . S
C987 C971 1.349 . S
C987 H979 0.950 . S
C987 C985 1.327 . S
C988 C976 1.349 . S
C988 H982 0.950 . S
C988 C989 1.327 . S
C989 H983 0.950 . S
C989 C988 1.327 . S
C989 C993 1.429 . S
C990 C973 1.574 . S
C990 H984 0.949 . S
C990 C994 1.368 . S
C991 C972 1.429 . S
C991 C985 1.429 . S
C991 C992 1.523 . S
C992 C973 1.368 . S
C992 C986 1.368 . S
C992 C991 1.523 . S
C993 C977 1.429 . S
C993 C989 1.429 . S
C993 C994 1.523 . S
C994 C978 1.368 . S
C994 C990 1.368 . S
C994 C993 1.523 . S
H995 C970 0.950 . S
H996 C972 0.950 . S
H997 C973 0.949 . S
H998 C975 0.950 . S
H999 C977 0.950 . S
C1000 C1001 1.349 . S
C1000 C1002 1.327 . S
C1000 H1025 0.950 . S
C1001 C1000 1.349 . S
C1001 C1017 1.349 . S
C1002 C1000 1.327 . S
C1002 C1021 1.429 . S
C1002 H1026 0.950 . S
C1003 C1020 1.574 . S
C1003 C1022 1.368 . S
C1003 H1027 0.949 . S
H1004 C1008 0.949 . S
C1005 C1006 1.349 . S
C1005 C1007 1.327 . S
C1005 H1028 0.950 . S
C1006 C1005 1.349 . S
C1006 C1018 1.349 . S
C1007 C1005 1.327 . S
C1007 C1023 1.429 . S
C1007 H1029 0.950 . S
C1008 H1004 0.949 . S
C1008 C1016 1.574 . S
C1008 C1024 1.368 . S
H1009 C1017 0.950 . S
H1010 C1015 0.950 . S
H1011 C1016 0.949 . S
H1012 C1018 0.950 . S
H1013 C1019 0.950 . S
H1014 C1020 0.949 . S
C1015 H1010 0.950 . S
C1015 C1017 1.327 . S
C1015 C1021 1.429 . S
C1016 C1008 1.574 . S
C1016 H1011 0.949 . S
C1016 C1022 1.368 . S
C1017 C1001 1.349 . S
C1017 H1009 0.950 . S
C1017 C1015 1.327 . S
C1018 C1006 1.349 . S
C1018 H1012 0.950 . S
C1018 C1019 1.327 . S
C1019 H1013 0.950 . S
C1019 C1018 1.327 . S
C1019 C1023 1.429 . S
C1020 C1003 1.574 . S
C1020 H1014 0.949 . S
C1020 C1024 1.368 . S
C1021 C1002 1.429 . S
C1021 C1015 1.429 . S
C1021 C1022 1.523 . S
C1022 C1003 1.368 . S
C1022 C1016 1.368 . S
C1022 C1021 1.523 . S
C1023 C1007 1.429 . S
C1023 C1019 1.429 . S
C1023 C1024 1.523 . S
C1024 C1008 1.368 . S
C1024 C1020 1.368 . S
C1024 C1023 1.523 . S
H1025 C1000 0.950 . S
H1026 C1002 0.950 . S
H1027 C1003 0.949 . S
H1028 C1005 0.950 . S
H1029 C1007 0.950 . S
C1030 C1031 1.349 . S
C1030 C1032 1.327 . S
C1030 H1055 0.950 . S
C1031 C1030 1.349 . S
C1031 C1047 1.349 . S
C1032 C1030 1.327 . S
C1032 C1051 1.429 . S
C1032 H1056 0.950 . S
C1033 C1050 1.574 . S
C1033 C1052 1.368 . S
C1033 H1057 0.949 . S
H1034 C1038 0.949 . S
C1035 C1036 1.349 . S
C1035 C1037 1.327 . S
C1035 H1058 0.950 . S
C1036 C1035 1.349 . S
C1036 C1048 1.349 . S
C1037 C1035 1.327 . S
C1037 C1053 1.429 . S
C1037 H1059 0.950 . S
C1038 H1034 0.949 . S
C1038 C1046 1.574 . S
C1038 C1054 1.368 . S
H1039 C1047 0.950 . S
H1040 C1045 0.950 . S
H1041 C1046 0.949 . S
H1042 C1048 0.950 . S
H1043 C1049 0.950 . S
H1044 C1050 0.949 . S
C1045 H1040 0.950 . S
C1045 C1047 1.327 . S
C1045 C1051 1.429 . S
C1046 C1038 1.574 . S
C1046 H1041 0.949 . S
C1046 C1052 1.368 . S
C1047 C1031 1.349 . S
C1047 H1039 0.950 . S
C1047 C1045 1.327 . S
C1048 C1036 1.349 . S
C1048 H1042 0.950 . S
C1048 C1049 1.327 . S
C1049 H1043 0.950 . S
C1049 C1048 1.327 . S
C1049 C1053 1.429 . S
C1050 C1033 1.574 . S
C1050 H1044 0.949 . S
C1050 C1054 1.368 . S
C1051 C1032 1.429 . S
C1051 C1045 1.429 . S
C1051 C1052 1.523 . S
C1052 C1033 1.368 . S
C1052 C1046 1.368 . S
C1052 C1051 1.523 . S
C1053 C1037 1.429 . S
C1053 C1049 1.429 . S
C1053 C1054 1.523 . S
C1054 C1038 1.368 . S
C1054 C1050 1.368 . S
C1054 C1053 1.523 . S
H1055 C1030 0.950 . S
H1056 C1032 0.950 . S
H1057 C1033 0.949 . S
H1058 C1035 0.950 . S
H1059 C1037 0.950 . S
C341 C221 1.343 . S
C346 C272 1.316 . S
C376 C280 1.261 . S
C371 C241 1.324 . S
C406 C284 1.302 . S
C401 C157 1.333 . S
C431 C177 1.316 . S
C436 C260 1.245 . S
C466 C301 1.316 . S
C461 C93 1.378 . S
C496 C335 1.261 . S
C491 C113 1.306 . S
C521 C29 1.372 . S
C526 C323 1.302 . S
C551 C49 1.295 . S
C556 C305 1.245 . S
C586 C259 1.264 . S
C581 C61 1.375 . S
C616 C293 1.258 . S
C611 C17 1.406 . S
C646 C297 1.268 . S
C641 C125 1.384 . S
C676 C275 1.258 . S
C671 C81 1.407 . S
C706 C314 1.264 . S
C701 C189 1.395 . S
C731 C145 1.378 . S
C736 C322 1.257 . S
C766 C338 1.268 . S
C761 C253 1.399 . S
C791 C209 1.383 . S
C796 C318 1.258 . S
C826 C263 1.319 . S
C821 C23 1.489 . S
C856 C281 1.318 . S
C851 C55 1.462 . S
C881 C87 1.473 . S
C886 C296 1.314 . S
C916 C276 1.314 . S
C911 C119 1.453 . S
C946 C302 1.319 . S
C941 C151 1.459 . S
C971 C183 1.483 . S
C976 C326 1.318 . S
C1001 C215 1.447 . S
C1006 C339 1.314 . S
C1031 C247 1.469 . S
C1036 C317 1.314 . S
