# Generated by pormake.
# Topology sqc, (4,8)-cn, num edge types: 1
# Building blocks:
#     Node 0, Type 0, BuildingBlock: NAWXER_clean_linker_0, # of connection points: 4
#     Node 1, Type 0, BuildingBlock: NAWXER_clean_linker_0, # of connection points: 4
#     Node 2, Type 0, BuildingBlock: NAWXER_clean_linker_0, # of connection points: 4
#     Node 3, Type 0, BuildingBlock: NAWXER_clean_linker_0, # of connection points: 4
#     Node 4, Type 0, BuildingBlock: NAWXER_clean_linker_0, # of connection points: 4
#     Node 5, Type 0, BuildingBlock: NAWXER_clean_linker_0, # of connection points: 4
#     Node 6, Type 0, BuildingBlock: NAWXER_clean_linker_0, # of connection points: 4
#     Node 7, Type 0, BuildingBlock: NAWXER_clean_linker_0, # of connection points: 4
#     Node 8, Type 1, BuildingBlock: VETTIZ_charged_sbu_0, # of connection points: 8
#     Node 9, Type 1, BuildingBlock: VETTIZ_charged_sbu_0, # of connection points: 8
#     Node 10, Type 1, BuildingBlock: VETTIZ_charged_sbu_0, # of connection points: 8
#     Node 11, Type 1, BuildingBlock: VETTIZ_charged_sbu_0, # of connection points: 8
#     Edge 12, Type (0, 1), BuildingBlock: UVAHIK_clean_linker_0, # of connection points: 2
#     Edge 13, Type (0, 1), BuildingBlock: UVAHIK_clean_linker_0, # of connection points: 2
#     Edge 14, Type (0, 1), BuildingBlock: UVAHIK_clean_linker_0, # of connection points: 2
#     Edge 15, Type (0, 1), BuildingBlock: UVAHIK_clean_linker_0, # of connection points: 2
#     Edge 16, Type (0, 1), BuildingBlock: UVAHIK_clean_linker_0, # of connection points: 2
#     Edge 17, Type (0, 1), BuildingBlock: UVAHIK_clean_linker_0, # of connection points: 2
#     Edge 18, Type (0, 1), BuildingBlock: UVAHIK_clean_linker_0, # of connection points: 2
#     Edge 19, Type (0, 1), BuildingBlock: UVAHIK_clean_linker_0, # of connection points: 2
#     Edge 20, Type (0, 1), BuildingBlock: UVAHIK_clean_linker_0, # of connection points: 2
#     Edge 21, Type (0, 1), BuildingBlock: UVAHIK_clean_linker_0, # of connection points: 2
#     Edge 22, Type (0, 1), BuildingBlock: UVAHIK_clean_linker_0, # of connection points: 2
#     Edge 23, Type (0, 1), BuildingBlock: UVAHIK_clean_linker_0, # of connection points: 2
#     Edge 24, Type (0, 1), BuildingBlock: UVAHIK_clean_linker_0, # of connection points: 2
#     Edge 25, Type (0, 1), BuildingBlock: UVAHIK_clean_linker_0, # of connection points: 2
#     Edge 26, Type (0, 1), BuildingBlock: UVAHIK_clean_linker_0, # of connection points: 2
#     Edge 27, Type (0, 1), BuildingBlock: UVAHIK_clean_linker_0, # of connection points: 2
#     Edge 28, Type (0, 1), BuildingBlock: UVAHIK_clean_linker_0, # of connection points: 2
#     Edge 29, Type (0, 1), BuildingBlock: UVAHIK_clean_linker_0, # of connection points: 2
#     Edge 30, Type (0, 1), BuildingBlock: UVAHIK_clean_linker_0, # of connection points: 2
#     Edge 31, Type (0, 1), BuildingBlock: UVAHIK_clean_linker_0, # of connection points: 2
#     Edge 32, Type (0, 1), BuildingBlock: UVAHIK_clean_linker_0, # of connection points: 2
#     Edge 33, Type (0, 1), BuildingBlock: UVAHIK_clean_linker_0, # of connection points: 2
#     Edge 34, Type (0, 1), BuildingBlock: UVAHIK_clean_linker_0, # of connection points: 2
#     Edge 35, Type (0, 1), BuildingBlock: UVAHIK_clean_linker_0, # of connection points: 2
#     Edge 36, Type (0, 1), BuildingBlock: UVAHIK_clean_linker_0, # of connection points: 2
#     Edge 37, Type (0, 1), BuildingBlock: UVAHIK_clean_linker_0, # of connection points: 2
#     Edge 38, Type (0, 1), BuildingBlock: UVAHIK_clean_linker_0, # of connection points: 2
#     Edge 39, Type (0, 1), BuildingBlock: UVAHIK_clean_linker_0, # of connection points: 2
#     Edge 40, Type (0, 1), BuildingBlock: UVAHIK_clean_linker_0, # of connection points: 2
#     Edge 41, Type (0, 1), BuildingBlock: UVAHIK_clean_linker_0, # of connection points: 2
#     Edge 42, Type (0, 1), BuildingBlock: UVAHIK_clean_linker_0, # of connection points: 2
#     Edge 43, Type (0, 1), BuildingBlock: UVAHIK_clean_linker_0, # of connection points: 2
# Relax obj value: 0.124
# Max RMSD: 0.266
# Mean RMSD: 0.155
data_MOF--net-sqc--node1-VETTIZ_charged_sbu_0--node2-NAWXER_clean_linker_0--edge1-UVAHIK_clean_linker_0
_symmetry_space_group_name_H-M    P1
_symmetry_Int_Tables_number       1
_symmetry_cell_setting            triclinic
loop_
_symmetry_equiv_pos_as_xyz
'x, y, z'
_cell_length_a     34.667215
_cell_length_b     34.773428
_cell_length_c     103.33987
_cell_angle_alpha  89.905314
_cell_angle_beta   90.400453
_cell_angle_gamma 89.617853
loop_
_atom_site_label
_atom_site_type_symbol
_atom_site_fract_x
_atom_site_fract_y
_atom_site_fract_z
_atom_type_partial_charge
C0 C 0.11897 0.02472 0.48111 0.0
C1 C 0.12579 0.98673 0.47702 0.0
C2 C 0.08682 0.03362 0.48868 0.0
C3 C 0.0611 0.00463 0.49243 0.0
C4 C 0.09951 0.95798 0.48058 0.0
C5 C 0.06748 0.96688 0.48816 0.0
C6 C 0.02668 0.01348 0.50035 0.0
C7 C 0.12933 0.03525 0.52553 0.0
C8 C 0.13506 0.07427 0.52847 0.0
C9 C 0.09449 0.02298 0.52015 0.0
C10 C 0.06471 0.04948 0.51749 0.0
C11 C 0.10499 0.1007 0.52597 0.0
C12 C 0.07 0.08833 0.52063 0.0
C13 C 0.02797 0.03646 0.51163 0.0
C14 C 0.87219 0.0147 0.5348 0.0
C15 C 0.85977 0.05263 0.53706 0.0
C16 C 0.9045 0.00746 0.52714 0.0
C17 C 0.9252 0.03803 0.52172 0.0
C18 C 0.88044 0.08318 0.53157 0.0
C19 C 0.91318 0.07594 0.52409 0.0
C20 C 0.95981 0.03039 0.51382 0.0
C21 C 0.85887 0.00041 0.48785 0.0
C22 C 0.856 0.96076 0.48545 0.0
C23 C 0.89183 0.01538 0.49382 0.0
C24 C 0.92256 0.99096 0.49736 0.0
C25 C 0.8865 0.93632 0.48922 0.0
C26 C 0.91969 0.95137 0.49499 0.0
C27 C 0.95871 0.00679 0.50273 0.0
H28 H 0.13864 0.04753 0.47856 0.0
H29 H 0.08197 0.06321 0.49151 0.0
H30 H 0.1034 0.92859 0.47738 0.0
H31 H 0.04778 0.94413 0.49077 0.0
H32 H 0.15196 0.01421 0.52729 0.0
H33 H 0.0908 0.9927 0.51805 0.0
H34 H 0.10834 0.13085 0.52831 0.0
H35 H 0.04724 0.10917 0.51878 0.0
H36 H 0.85674 0.99066 0.53891 0.0
H37 H 0.91359 0.97798 0.52556 0.0
H38 H 0.87167 0.11269 0.53328 0.0
H39 H 0.92892 0.09989 0.52005 0.0
H40 H 0.83571 0.01983 0.48505 0.0
H41 H 0.89372 0.04611 0.49537 0.0
H42 H 0.88514 0.90571 0.48735 0.0
H43 H 0.94325 0.93213 0.49756 0.0
N44 N 0.99214 0.99923 0.49643 0.0
N45 N 0.9944 0.0444 0.51788 0.0
C46 C 0.33484 0.62406 0.74718 0.0
C47 C 0.31741 0.62137 0.73488 0.0
C48 C 0.32708 0.65549 0.75521 0.0
C49 C 0.30178 0.68481 0.75108 0.0
C50 C 0.29178 0.65056 0.73084 0.0
C51 C 0.28433 0.68213 0.73882 0.0
C52 C 0.29528 0.71954 0.75905 0.0
C53 C 0.23905 0.62511 0.78297 0.0
C54 C 0.25065 0.62403 0.79602 0.0
C55 C 0.25182 0.65457 0.77484 0.0
C56 C 0.27706 0.68276 0.77962 0.0
C57 C 0.277 0.65126 0.80062 0.0
C58 C 0.29016 0.68024 0.79248 0.0
C59 C 0.28509 0.71827 0.77226 0.0
C60 C 0.24055 0.88144 0.78363 0.0
C61 C 0.24952 0.88156 0.79691 0.0
C62 C 0.25316 0.85138 0.77574 0.0
C63 C 0.27583 0.82132 0.78091 0.0
C64 C 0.27237 0.85172 0.80207 0.0
C65 C 0.28544 0.82194 0.79414 0.0
C66 C 0.28546 0.78687 0.77311 0.0
C67 C 0.34578 0.88261 0.75276 0.0
C68 C 0.32779 0.89349 0.74105 0.0
C69 C 0.33565 0.84848 0.75897 0.0
C70 C 0.30762 0.82433 0.75355 0.0
C71 C 0.29959 0.86908 0.73569 0.0
C72 C 0.29001 0.83461 0.7418 0.0
C73 C 0.29708 0.78816 0.76006 0.0
H74 H 0.35461 0.60194 0.75056 0.0
H75 H 0.34151 0.65729 0.76451 0.0
H76 H 0.27832 0.64954 0.72136 0.0
H77 H 0.26501 0.70461 0.73539 0.0
H78 H 0.21843 0.60451 0.77928 0.0
H79 H 0.24026 0.65645 0.7651 0.0
H80 H 0.28655 0.65077 0.81062 0.0
H81 H 0.30944 0.70174 0.79642 0.0
H82 H 0.22236 0.90374 0.77946 0.0
H83 H 0.24369 0.85093 0.76574 0.0
H84 H 0.27979 0.85123 0.81227 0.0
H85 H 0.30247 0.7989 0.79842 0.0
H86 H 0.36818 0.90008 0.75706 0.0
H87 H 0.35005 0.84067 0.76795 0.0
H88 H 0.28451 0.87671 0.72684 0.0
H89 H 0.26825 0.81633 0.73749 0.0
N90 N 0.30104 0.75453 0.75347 0.0
N91 N 0.28038 0.75199 0.77867 0.0
C92 C 0.37316 0.01266 0.98363 0.0
C93 C 0.37203 0.05127 0.97958 0.0
C94 C 0.40508 0.9982 0.99049 0.0
C95 C 0.43603 0.02238 0.99374 0.0
C96 C 0.40339 0.07513 0.98256 0.0
C97 C 0.435 0.06083 0.98957 0.0
C98 C 0.47054 0.00789 1.00088 0.0
C99 C 0.36933 0.98709 0.02709 0.0
C100 C 0.36234 0.94764 0.02895 0.0
C101 C 0.40401 0.99944 0.02169 0.0
C102 C 0.43225 0.97256 0.01802 0.0
C103 C 0.39095 0.92092 0.02532 0.0
C104 C 0.42566 0.9333 0.02003 0.0
C105 C 0.46886 0.9849 0.01217 0.0
C106 C 0.63057 0.99551 0.03267 0.0
C107 C 0.63821 0.95751 0.03661 0.0
C108 C 0.59805 0.00415 0.0251 0.0
C109 C 0.57237 0.975 0.0214 0.0
C110 C 0.61242 0.92837 0.03294 0.0
C111 C 0.57952 0.93714 0.02553 0.0
C112 C 0.53765 0.98429 0.01352 0.0
C113 C 0.63708 0.99341 0.98607 0.0
C114 C 0.64182 0.02949 0.98015 0.0
C115 C 0.60429 0.98577 0.9934 0.0
C116 C 0.57587 0.01428 0.99516 0.0
C117 C 0.61333 0.05796 0.98196 0.0
C118 C 0.58072 0.05039 0.98936 0.0
C119 C 0.53937 0.00561 0.0019 0.0
H120 H 0.34969 0.99344 0.98127 0.0
H121 H 0.4057 0.96804 0.99309 0.0
H122 H 0.40325 0.10505 0.97962 0.0
H123 H 0.45863 0.07999 0.99181 0.0
H124 H 0.3483 0.0085 0.02999 0.0
H125 H 0.40887 0.02996 0.02043 0.0
H126 H 0.3864 0.89032 0.02643 0.0
H127 H 0.44713 0.91213 0.01726 0.0
H128 H 0.64999 0.0185 0.03534 0.0
H129 H 0.59279 0.03369 0.02222 0.0
H130 H 0.61741 0.8989 0.03596 0.0
H131 H 0.55993 0.91428 0.02288 0.0
H132 H 0.65853 0.9709 0.98494 0.0
H133 H 0.60072 0.95719 0.99736 0.0
H134 H 0.6156 0.08582 0.97733 0.0
H135 H 0.55895 0.07265 0.99039 0.0
N136 N 0.5058 0.01709 0.99618 0.0
N137 N 0.50245 0.97413 0.01809 0.0
C138 C 0.20775 0.12851 0.24944 0.0
C139 C 0.16856 0.12381 0.24623 0.0
C140 C 0.22032 0.1617 0.25573 0.0
C141 C 0.1939 0.19069 0.25915 0.0
C142 C 0.14211 0.15275 0.24975 0.0
C143 C 0.15472 0.18595 0.25607 0.0
C144 C 0.20732 0.22719 0.26497 0.0
C145 C 0.23527 0.13426 0.29415 0.0
C146 C 0.27513 0.12822 0.29589 0.0
C147 C 0.22151 0.16683 0.28754 0.0
C148 C 0.24738 0.19402 0.28258 0.0
C149 C 0.30085 0.15579 0.29107 0.0
C150 C 0.2871 0.18849 0.2846 0.0
C151 C 0.23348 0.22868 0.27552 0.0
C152 C 0.23746 0.39635 0.28879 0.0
C153 C 0.27719 0.40129 0.29092 0.0
C154 C 0.22373 0.36283 0.28294 0.0
C155 C 0.24951 0.33359 0.27922 0.0
C156 C 0.30292 0.3721 0.2871 0.0
C157 C 0.28914 0.33839 0.28143 0.0
C158 C 0.23519 0.2971 0.27372 0.0
C159 C 0.21742 0.38502 0.24219 0.0
C160 C 0.17851 0.39325 0.23922 0.0
C161 C 0.2274 0.35385 0.25014 0.0
C162 C 0.19876 0.33004 0.2553 0.0
C163 C 0.1499 0.36935 0.24449 0.0
C164 C 0.15997 0.33789 0.25232 0.0
C165 C 0.2094 0.29564 0.2631 0.0
H166 H 0.22885 0.10669 0.24695 0.0
H167 H 0.25087 0.16507 0.25762 0.0
H168 H 0.11184 0.15034 0.24724 0.0
H169 H 0.1339 0.20817 0.25845 0.0
H170 H 0.21476 0.1135 0.29774 0.0
H171 H 0.19069 0.17082 0.28632 0.0
H172 H 0.33169 0.15223 0.29242 0.0
H173 H 0.30757 0.20923 0.28097 0.0
H174 H 0.21705 0.41844 0.29163 0.0
H175 H 0.19295 0.35942 0.28156 0.0
H176 H 0.33365 0.37499 0.28876 0.0
H177 H 0.30947 0.31603 0.27873 0.0
H178 H 0.24039 0.40205 0.23812 0.0
H179 H 0.25763 0.34778 0.25199 0.0
H180 H 0.11962 0.37496 0.24262 0.0
H181 H 0.13739 0.31977 0.25613 0.0
N182 N 0.19622 0.26075 0.2592 0.0
N183 N 0.24647 0.2636 0.27945 0.0
C184 C 0.83105 0.12139 0.24652 0.0
C185 C 0.82221 0.12523 0.2333 0.0
C186 C 0.82466 0.15199 0.25502 0.0
C187 C 0.80805 0.18663 0.25055 0.0
C188 C 0.80642 0.16001 0.22875 0.0
C189 C 0.79927 0.19031 0.23729 0.0
C190 C 0.80195 0.22008 0.25927 0.0
C191 C 0.72855 0.13022 0.27997 0.0
C192 C 0.74405 0.11963 0.29207 0.0
C193 C 0.74459 0.16054 0.27297 0.0
C194 C 0.77604 0.18081 0.27809 0.0
C195 C 0.77664 0.13886 0.29685 0.0
C196 C 0.79221 0.16951 0.28998 0.0
C197 C 0.78863 0.21696 0.27211 0.0
C198 C 0.74672 0.37876 0.28608 0.0
C199 C 0.75544 0.37755 0.29937 0.0
C200 C 0.75903 0.34923 0.2779 0.0
C201 C 0.78116 0.31839 0.28279 0.0
C202 C 0.77744 0.34667 0.30427 0.0
C203 C 0.79015 0.31739 0.29606 0.0
C204 C 0.79148 0.2851 0.27453 0.0
C205 C 0.84912 0.38691 0.25667 0.0
C206 C 0.83537 0.39602 0.2442 0.0
C207 C 0.83977 0.35182 0.26243 0.0
C208 C 0.81626 0.32541 0.25585 0.0
C209 C 0.81258 0.3691 0.23755 0.0
C210 C 0.80328 0.33409 0.2433 0.0
C211 C 0.80564 0.28834 0.2618 0.0
H212 H 0.84396 0.09507 0.2502 0.0
H213 H 0.83367 0.14871 0.26501 0.0
H214 H 0.7994 0.16365 0.21859 0.0
H215 H 0.78687 0.21675 0.23351 0.0
H216 H 0.70343 0.11573 0.2761 0.0
H217 H 0.73136 0.16933 0.2639 0.0
H218 H 0.78882 0.1315 0.30622 0.0
H219 H 0.81619 0.1852 0.29412 0.0
H220 H 0.72918 0.40184 0.28208 0.0
H221 H 0.75019 0.35 0.26783 0.0
H222 H 0.78471 0.3451 0.31447 0.0
H223 H 0.80669 0.29367 0.30012 0.0
H224 H 0.86674 0.40706 0.26203 0.0
H225 H 0.85092 0.34533 0.27201 0.0
H226 H 0.80224 0.37492 0.22782 0.0
H227 H 0.7855 0.31394 0.23799 0.0
N228 N 0.80996 0.25579 0.25465 0.0
N229 N 0.78397 0.24947 0.27919 0.0
C230 C 0.67882 0.89275 0.74908 0.0
C231 C 0.69241 0.89401 0.73628 0.0
C232 C 0.68782 0.86156 0.75717 0.0
C233 C 0.71087 0.83106 0.75267 0.0
C234 C 0.71573 0.86352 0.73186 0.0
C235 C 0.7246 0.83233 0.73994 0.0
C236 C 0.71861 0.79648 0.76076 0.0
C237 C 0.77997 0.89265 0.7817 0.0
C238 C 0.76395 0.90143 0.79384 0.0
C239 C 0.76888 0.85956 0.775 0.0
C240 C 0.74167 0.83448 0.78031 0.0
C241 C 0.73623 0.87638 0.79901 0.0
C242 C 0.72557 0.84307 0.79238 0.0
C243 C 0.73168 0.79811 0.77374 0.0
C244 C 0.77974 0.63484 0.78358 0.0
C245 C 0.7664 0.62823 0.79623 0.0
C246 C 0.76817 0.66754 0.77668 0.0
C247 C 0.74297 0.69455 0.78222 0.0
C248 C 0.74148 0.65565 0.80182 0.0
C249 C 0.73016 0.68863 0.79491 0.0
C250 C 0.73134 0.72952 0.7749 0.0
C251 C 0.66876 0.63253 0.75536 0.0
C252 C 0.68225 0.62394 0.74287 0.0
C253 C 0.6806 0.66595 0.76172 0.0
C254 C 0.70609 0.69152 0.75572 0.0
C255 C 0.70825 0.64949 0.737 0.0
C256 C 0.71966 0.6831 0.7433 0.0
C257 C 0.71712 0.72795 0.76208 0.0
H258 H 0.66023 0.91532 0.75275 0.0
H259 H 0.67586 0.86082 0.76682 0.0
H260 H 0.7272 0.86369 0.72214 0.0
H261 H 0.74228 0.8091 0.73621 0.0
H262 H 0.80193 0.9107 0.7775 0.0
H263 H 0.78232 0.85305 0.76582 0.0
H264 H 0.72273 0.88242 0.8082 0.0
H265 H 0.70459 0.824 0.79666 0.0
H266 H 0.79977 0.61509 0.77906 0.0
H267 H 0.77942 0.67201 0.76705 0.0
H268 H 0.73035 0.65148 0.81148 0.0
H269 H 0.71095 0.70925 0.79942 0.0
H270 H 0.64825 0.614 0.76011 0.0
H271 H 0.66911 0.67228 0.7712 0.0
H272 H 0.71991 0.64355 0.72751 0.0
H273 H 0.73935 0.70245 0.73849 0.0
N274 N 0.71176 0.76139 0.75546 0.0
N275 N 0.73765 0.76458 0.78031 0.0
C276 C 0.62097 0.52765 0.98213 0.0
C277 C 0.62618 0.49037 0.97713 0.0
C278 C 0.58888 0.53648 0.98974 0.0
C279 C 0.56169 0.50803 0.99272 0.0
C280 C 0.59837 0.46227 0.97989 0.0
C281 C 0.56655 0.47102 0.98758 0.0
C282 C 0.52714 0.51674 1.00064 0.0
C283 C 0.62896 0.53404 0.02655 0.0
C284 C 0.6356 0.57281 0.02961 0.0
C285 C 0.59397 0.52283 0.02101 0.0
C286 C 0.56496 0.55016 0.01837 0.0
C287 C 0.60626 0.60006 0.02715 0.0
C288 C 0.57108 0.58875 0.02168 0.0
C289 C 0.5283 0.53833 0.01221 0.0
C290 C 0.3727 0.51648 0.03528 0.0
C291 C 0.35903 0.55424 0.03696 0.0
C292 C 0.40544 0.50935 0.02778 0.0
C293 C 0.42538 0.53995 0.02206 0.0
C294 C 0.37898 0.5848 0.03121 0.0
C295 C 0.41224 0.57774 0.02397 0.0
C296 C 0.45999 0.53259 0.01415 0.0
C297 C 0.3574 0.50159 0.98908 0.0
C298 C 0.35793 0.4638 0.98422 0.0
C299 C 0.3898 0.51669 0.99535 0.0
C300 C 0.42317 0.49407 0.99711 0.0
C301 C 0.39138 0.44127 0.98603 0.0
C302 C 0.42358 0.45626 0.99238 0.0
C303 C 0.45896 0.51021 0.00275 0.0
H304 H 0.64179 0.55001 0.98025 0.0
H305 H 0.58523 0.56565 0.99318 0.0
H306 H 0.60083 0.43352 0.97596 0.0
H307 H 0.54572 0.4487 0.98955 0.0
H308 H 0.65104 0.51242 0.02828 0.0
H309 H 0.5896 0.49276 0.01874 0.0
H310 H 0.61036 0.63005 0.02958 0.0
H311 H 0.54891 0.6102 0.01983 0.0
H312 H 0.35775 0.4925 0.03963 0.0
H313 H 0.41534 0.48 0.0265 0.0
H314 H 0.36909 0.61417 0.03247 0.0
H315 H 0.42735 0.6017 0.01967 0.0
H316 H 0.33207 0.5197 0.98795 0.0
H317 H 0.38904 0.54638 0.99846 0.0
H318 H 0.39318 0.41234 0.98221 0.0
H319 H 0.44913 0.43838 0.99345 0.0
N320 N 0.49257 0.50326 0.99647 0.0
N321 N 0.49463 0.54585 0.01846 0.0
C322 C 0.87642 0.4873 0.52575 0.0
C323 C 0.87087 0.44866 0.52928 0.0
C324 C 0.91032 0.49855 0.51957 0.0
C325 C 0.93893 0.47121 0.51658 0.0
C326 C 0.89985 0.42155 0.52645 0.0
C327 C 0.93356 0.43275 0.5202 0.0
C328 C 0.97498 0.48224 0.50997 0.0
C329 C 0.87627 0.50915 0.48261 0.0
C330 C 0.87475 0.54776 0.47855 0.0
C331 C 0.9091 0.49455 0.48892 0.0
C332 C 0.94062 0.51856 0.49161 0.0
C333 C 0.90673 0.5714 0.48093 0.0
C334 C 0.9393 0.55694 0.48738 0.0
C335 C 0.97573 0.50406 0.49839 0.0
C336 C 0.13866 0.48187 0.48093 0.0
C337 C 0.14518 0.51769 0.47503 0.0
C338 C 0.10654 0.47639 0.48879 0.0
C339 C 0.08044 0.50671 0.49104 0.0
C340 C 0.11922 0.54812 0.47743 0.0
C341 C 0.08705 0.54258 0.48528 0.0
C342 C 0.04454 0.50013 0.49839 0.0
C343 C 0.13765 0.49181 0.52873 0.0
C344 C 0.14631 0.45373 0.53228 0.0
C345 C 0.10463 0.5002 0.52138 0.0
C346 C 0.07936 0.47072 0.51766 0.0
C347 C 0.12122 0.4242 0.52848 0.0
C348 C 0.08766 0.43272 0.52138 0.0
C349 C 0.04383 0.47994 0.51023 0.0
H350 H 0.85493 0.50896 0.52802 0.0
H351 H 0.91426 0.52861 0.5172 0.0
H352 H 0.89633 0.39153 0.52897 0.0
H353 H 0.95533 0.41122 0.51807 0.0
H354 H 0.85232 0.49009 0.4807 0.0
H355 H 0.90986 0.46447 0.49164 0.0
H356 H 0.90635 0.60131 0.47798 0.0
H357 H 0.96336 0.57595 0.48921 0.0
H358 H 0.15764 0.45764 0.47911 0.0
H359 H 0.10144 0.44803 0.49274 0.0
H360 H 0.12365 0.57623 0.47319 0.0
H361 H 0.06718 0.5663 0.4868 0.0
H362 H 0.1566 0.51502 0.53157 0.0
H363 H 0.09851 0.52979 0.51874 0.0
H364 H 0.12726 0.39465 0.5312 0.0
H365 H 0.06841 0.40963 0.51867 0.0
N366 N 0.00911 0.4712 0.51547 0.0
N367 N 0.01053 0.51194 0.49304 0.0
Fe368 Fe 1.00125 0.75901 0.15018 0.0
O369 O 0.03423 0.7793 0.13606 0.0
Fe370 Fe 0.91466 0.73876 0.13491 0.0
Fe371 Fe 0.09067 0.7753 0.13665 0.0
O372 O 0.97114 0.73501 0.13583 0.0
O373 O 0.97128 0.73478 0.13455 0.0
O374 O 0.0343 0.77919 0.13484 0.0
Fe375 Fe 0.00362 0.75625 0.12032 0.0
C376 C 0.06396 0.81331 0.16153 0.0
O377 O 0.03384 0.7099 0.15162 0.0
O378 O 0.09253 0.735 0.15159 0.0
O379 O 0.96639 0.72886 0.10707 0.0
O380 O 0.92031 0.69992 0.11989 0.0
O381 O 0.91899 0.70169 0.15038 0.0
O382 O 0.96339 0.73301 0.1633 0.0
O383 O 0.09587 0.73128 0.12355 0.0
O384 O 0.0371 0.70692 0.12016 0.0
C385 C 0.9366 0.70749 0.16134 0.0
O386 O 0.97019 0.80558 0.11907 0.0
O387 O 0.91154 0.77983 0.12065 0.0
O388 O 0.03658 0.78846 0.16352 0.0
O389 O 0.08383 0.81582 0.15095 0.0
C390 C 0.06939 0.70805 0.15453 0.0
C391 C 0.07375 0.70488 0.11942 0.0
C392 C 0.07074 0.80599 0.10954 0.0
O393 O 0.08787 0.81127 0.12065 0.0
O394 O 0.04224 0.78236 0.10745 0.0
C395 C 0.93806 0.70493 0.10895 0.0
O396 O 0.91022 0.78179 0.14874 0.0
O397 O 0.96838 0.80813 0.14924 0.0
C398 C 0.93387 0.80668 0.11714 0.0
C399 C 0.9324 0.80983 0.15134 0.0
Fe400 Fe 0.46736 0.7508 0.41442 0.0
O401 O 0.47301 0.75184 0.39551 0.0
Fe402 Fe 0.49822 0.80036 0.38702 0.0
Fe403 Fe 0.50251 0.71151 0.38598 0.0
O404 O 0.47267 0.75569 0.39553 0.0
O405 O 0.52742 0.75983 0.37745 0.0
O406 O 0.52767 0.75617 0.37742 0.0
Fe407 Fe 0.53446 0.76045 0.35868 0.0
C408 C 0.54204 0.70473 0.41169 0.0
O409 O 0.43195 0.70559 0.40978 0.0
O410 O 0.47107 0.6697 0.39626 0.0
O411 O 0.49217 0.80151 0.35546 0.0
O412 O 0.45547 0.80266 0.37306 0.0
O413 O 0.46324 0.837 0.39827 0.0
O414 O 0.42878 0.79525 0.41123 0.0
O415 O 0.45986 0.70934 0.37206 0.0
O416 O 0.49515 0.71801 0.35436 0.0
C417 C 0.43448 0.82844 0.4058 0.0
O418 O 0.56948 0.80626 0.36337 0.0
O419 O 0.5299 0.84174 0.37684 0.0
O420 O 0.51012 0.70968 0.4175 0.0
O421 O 0.54556 0.7117 0.39969 0.0
C422 C 0.44103 0.67424 0.40366 0.0
C423 C 0.46521 0.70522 0.35997 0.0
C424 C 0.56627 0.68236 0.36713 0.0
O425 O 0.53774 0.67494 0.3749 0.0
O426 O 0.573 0.71584 0.36201 0.0
C427 C 0.46118 0.81109 0.36123 0.0
O428 O 0.54117 0.80092 0.40073 0.0
O429 O 0.50749 0.79263 0.41879 0.0
C430 C 0.55948 0.83788 0.3692 0.0
C431 C 0.53791 0.80303 0.41294 0.0
Fe432 Fe 0.50138 0.25926 0.64944 0.0
O433 O 0.53429 0.28053 0.63545 0.0
Fe434 Fe 0.41451 0.24213 0.63391 0.0
Fe435 Fe 0.59062 0.2764 0.63597 0.0
O436 O 0.471 0.23732 0.63477 0.0
O437 O 0.47103 0.23749 0.63342 0.0
O438 O 0.53431 0.28071 0.63415 0.0
Fe439 Fe 0.50372 0.2594 0.61933 0.0
C440 C 0.56355 0.31321 0.661 0.0
O441 O 0.53365 0.20986 0.6504 0.0
O442 O 0.59234 0.23503 0.65054 0.0
O443 O 0.46622 0.2335 0.60582 0.0
O444 O 0.4194 0.20483 0.61841 0.0
O445 O 0.4188 0.20301 0.64874 0.0
O446 O 0.46297 0.23213 0.66228 0.0
O447 O 0.59561 0.2332 0.62257 0.0
O448 O 0.53655 0.20969 0.61892 0.0
C449 C 0.43651 0.20657 0.65979 0.0
O450 O 0.47103 0.30918 0.61832 0.0
O451 O 0.4118 0.28492 0.62025 0.0
O452 O 0.53713 0.28737 0.66308 0.0
O453 O 0.58353 0.31603 0.65046 0.0
C454 C 0.56923 0.20789 0.6533 0.0
C455 C 0.57319 0.20714 0.61838 0.0
C456 C 0.57126 0.30948 0.60916 0.0
O457 O 0.58804 0.31365 0.62037 0.0
O458 O 0.54294 0.28596 0.60668 0.0
C459 C 0.43734 0.21012 0.60753 0.0
O460 O 0.41058 0.28382 0.64827 0.0
O461 O 0.46928 0.30866 0.64907 0.0
C462 C 0.43463 0.31123 0.61664 0.0
C463 C 0.43346 0.31093 0.6513 0.0
Fe464 Fe 0.96909 0.25645 0.91516 0.0
O465 O 0.97074 0.2556 0.89616 0.0
Fe466 Fe 0.99584 0.30292 0.88684 0.0
Fe467 Fe 0.99749 0.21396 0.88631 0.0
O468 O 0.97043 0.25956 0.89614 0.0
O469 O 0.02082 0.26105 0.87661 0.0
O470 O 0.02092 0.25745 0.87659 0.0
Fe471 Fe 0.02243 0.26028 0.85766 0.0
C472 C 0.04242 0.20869 0.91107 0.0
O473 O 0.93278 0.21079 0.91199 0.0
O474 O 0.96814 0.17355 0.89772 0.0
O475 O 0.98036 0.30208 0.85532 0.0
O476 O 0.94998 0.3068 0.87418 0.0
O477 O 0.96466 0.34117 0.89876 0.0
O478 O 0.93056 0.30112 0.91243 0.0
O479 O 0.95154 0.21125 0.87372 0.0
O480 O 0.98124 0.21842 0.85483 0.0
C481 C 0.9367 0.33392 0.90679 0.0
O482 O 0.05967 0.30513 0.86087 0.0
O483 O 0.02717 0.34273 0.87572 0.0
O484 O 0.01207 0.21539 0.91759 0.0
O485 O 0.04368 0.21441 0.89893 0.0
C486 C 0.94031 0.1789 0.90596 0.0
C487 C 0.95317 0.20627 0.86155 0.0
C488 C 0.05577 0.18255 0.86595 0.0
O489 O 0.02945 0.17589 0.87463 0.0
O490 O 0.06088 0.21541 0.86022 0.0
C491 C 0.95194 0.31338 0.8621 0.0
O492 O 0.04183 0.30168 0.89953 0.0
O493 O 0.00968 0.29878 0.91803 0.0
C494 C 0.05404 0.33709 0.86711 0.0
C495 C 0.03997 0.30658 0.91169 0.0
C496 C 0.18034 0.94246 0.47118 0.0
C497 C 0.15988 0.97691 0.46898 0.0
C498 C 0.21091 0.93187 0.4632 0.0
C499 C 0.28178 0.96758 0.43974 0.0
H500 H 0.28229 0.86118 0.42859 0.0
C501 C 0.4133 0.88729 0.41751 0.0
C502 C 0.40536 0.85797 0.4086 0.0
C503 C 0.38299 0.90833 0.42303 0.0
C504 C 0.28237 0.89114 0.43144 0.0
H505 H 0.15632 0.02777 0.45683 0.0
H506 H 0.21012 0.00928 0.44291 0.0
H507 H 0.23077 0.88442 0.44236 0.0
H508 H 0.36065 0.82925 0.39769 0.0
H509 H 0.30784 0.86673 0.40693 0.0
H510 H 0.33381 0.97399 0.4288 0.0
C511 C 0.20242 0.9906 0.45087 0.0
C512 C 0.25308 0.9043 0.4395 0.0
C513 C 0.17164 0.00117 0.45885 0.0
C514 C 0.36728 0.85195 0.40451 0.0
C515 C 0.33712 0.87311 0.40991 0.0
C516 C 0.31138 0.95428 0.43169 0.0
C517 C 0.22192 0.9555 0.45284 0.0
C518 C 0.25262 0.94251 0.44386 0.0
C519 C 0.34445 0.90019 0.4197 0.0
C520 C 0.31204 0.91582 0.42749 0.0
H521 H 0.17266 0.92354 0.47908 0.0
H522 H 0.2259 0.90501 0.46513 0.0
H523 H 0.2822 0.99717 0.44299 0.0
H524 H 0.44252 0.89186 0.42093 0.0
H525 H 0.38959 0.92886 0.43059 0.0
C526 C 0.33886 0.93168 0.72075 0.0
C527 C 0.33871 0.92978 0.73435 0.0
C528 C 0.34839 0.96573 0.71442 0.0
C529 C 0.40429 0.05195 0.71633 0.0
H530 H 0.33195 0.09122 0.69067 0.0
C531 C 0.43692 0.18361 0.68303 0.0
C532 C 0.42546 0.17895 0.67004 0.0
C533 C 0.42542 0.15706 0.69248 0.0
C534 C 0.35261 0.08055 0.69775 0.0
H535 H 0.34882 0.96272 0.75191 0.0
H536 H 0.36713 0.02179 0.7407 0.0
H537 H 0.31409 0.03666 0.70411 0.0
H538 H 0.39412 0.14176 0.65679 0.0
H539 H 0.37513 0.09588 0.67297 0.0
H540 H 0.4437 0.09454 0.70946 0.0
C541 C 0.35943 0.99672 0.73506 0.0
C542 C 0.34224 0.04947 0.70547 0.0
C543 C 0.34915 0.96279 0.74143 0.0
C544 C 0.40298 0.14689 0.66671 0.0
C545 C 0.39179 0.12052 0.67605 0.0
C546 C 0.41497 0.08284 0.70844 0.0
C547 C 0.35871 0.99849 0.72151 0.0
C548 C 0.36829 0.03433 0.71459 0.0
C549 C 0.40237 0.12541 0.68907 0.0
C550 C 0.3896 0.09671 0.69879 0.0
H551 H 0.33203 0.90676 0.71493 0.0
H552 H 0.34815 0.96636 0.70393 0.0
H553 H 0.42482 0.04062 0.72333 0.0
H554 H 0.45437 0.20789 0.68592 0.0
H555 H 0.43409 0.1616 0.70244 0.0
C556 C 0.34386 0.08924 0.96107 0.0
C557 C 0.33839 0.0667 0.97221 0.0
C558 C 0.31223 0.10434 0.95424 0.0
C559 C 0.2112 0.13309 0.95821 0.0
H560 H 0.20495 0.12435 0.92086 0.0
C561 C 0.07317 0.17583 0.93015 0.0
C562 C 0.0768 0.19267 0.91785 0.0
C563 C 0.10538 0.16066 0.93661 0.0
C564 C 0.20645 0.12763 0.93127 0.0
H565 H 0.29553 0.04246 0.98495 0.0
H566 H 0.24017 0.06917 0.97308 0.0
H567 H 0.2606 0.0976 0.93242 0.0
H568 H 0.11734 0.20727 0.90277 0.0
H569 H 0.17381 0.18182 0.91419 0.0
H570 H 0.1577 0.16383 0.95714 0.0
C571 C 0.26897 0.07505 0.96963 0.0
C572 C 0.2383 0.11211 0.93788 0.0
C573 C 0.3006 0.05953 0.97636 0.0
C574 C 0.1135 0.19418 0.91219 0.0
C575 C 0.14587 0.17939 0.91873 0.0
C576 C 0.17959 0.14901 0.9516 0.0
C577 C 0.27445 0.09763 0.9585 0.0
C578 C 0.24088 0.11446 0.95143 0.0
C579 C 0.14225 0.16235 0.93103 0.0
C580 C 0.17659 0.14627 0.93803 0.0
H581 H 0.37266 0.09501 0.95759 0.0
H582 H 0.31734 0.12182 0.94575 0.0
H583 H 0.2127 0.13586 0.96864 0.0
H584 H 0.04527 0.17389 0.93476 0.0
H585 H 0.10119 0.1471 0.94593 0.0
C586 C 0.1781 0.0767 0.22819 0.0
C587 C 0.15576 0.08995 0.23859 0.0
C588 C 0.16567 0.04595 0.22062 0.0
C589 C 0.10078 0.96234 0.2199 0.0
H590 H 0.11516 0.97153 0.18285 0.0
C591 C 0.04696 0.84986 0.18181 0.0
C592 C 0.07311 0.84157 0.17182 0.0
C593 C 0.05473 0.87932 0.1907 0.0
C594 C 0.11118 0.96837 0.19319 0.0
H595 H 0.10314 0.0806 0.24935 0.0
H596 H 0.08113 0.02694 0.23595 0.0
H597 H 0.13281 0.02468 0.1969 0.0
H598 H 0.12884 0.85645 0.1638 0.0
H599 H 0.14229 0.90707 0.17923 0.0
H600 H 0.07927 0.90567 0.21607 0.0
C601 C 0.10841 0.04036 0.23374 0.0
C602 C 0.12134 0.99883 0.20124 0.0
C603 C 0.12085 0.07129 0.24133 0.0
C604 C 0.10772 0.86234 0.17123 0.0
C605 C 0.11542 0.89156 0.18006 0.0
C606 C 0.09053 0.93171 0.2118 0.0
C607 C 0.13052 0.02764 0.22321 0.0
C608 C 0.117 0.99595 0.21471 0.0
C609 C 0.08873 0.90098 0.18972 0.0
C610 C 0.09639 0.93417 0.19838 0.0
H611 H 0.20489 0.09064 0.2257 0.0
H612 H 0.18368 0.03651 0.2127 0.0
H613 H 0.09718 0.95922 0.23025 0.0
H614 H 0.01998 0.83449 0.18251 0.0
H615 H 0.0336 0.886 0.19804 0.0
C616 C 0.18971 0.06559 0.54427 0.0
C617 C 0.17211 0.08711 0.53431 0.0
C618 C 0.22436 0.07764 0.54987 0.0
C619 C 0.28401 0.16415 0.55467 0.0
H620 H 0.35921 0.08928 0.56697 0.0
C621 C 0.41752 0.21031 0.58418 0.0
C622 C 0.42024 0.19101 0.59612 0.0
C623 C 0.39383 0.19596 0.57429 0.0
C624 C 0.33856 0.11053 0.56353 0.0
H625 H 0.17753 0.13776 0.52222 0.0
H626 H 0.2383 0.15871 0.53193 0.0
H627 H 0.30402 0.068 0.55413 0.0
H628 H 0.40287 0.14026 0.60672 0.0
H629 H 0.36227 0.11494 0.58946 0.0
H630 H 0.31826 0.20655 0.5643 0.0
C631 C 0.22497 0.13281 0.53556 0.0
C632 C 0.3068 0.09836 0.55624 0.0
C633 C 0.19013 0.12084 0.53 0.0
C634 C 0.40124 0.15575 0.59763 0.0
C635 C 0.3781 0.14117 0.58771 0.0
C636 C 0.31593 0.17634 0.56188 0.0
C637 C 0.24246 0.11142 0.5456 0.0
C638 C 0.27855 0.12488 0.55202 0.0
C639 C 0.37304 0.16178 0.57611 0.0
C640 C 0.34301 0.14954 0.56668 0.0
H641 H 0.17626 0.03979 0.54794 0.0
H642 H 0.23645 0.06087 0.55777 0.0
H643 H 0.26271 0.18537 0.5517 0.0
H644 H 0.43159 0.23772 0.58279 0.0
H645 H 0.39067 0.21229 0.56541 0.0
C646 C 0.21463 0.90166 0.81696 0.0
C647 C 0.23331 0.91171 0.80543 0.0
C648 C 0.19695 0.92986 0.82456 0.0
C649 C 0.15833 0.02922 0.82209 0.0
H650 H 0.1575 0.02443 0.85961 0.0
C651 C 0.10937 0.15705 0.85231 0.0
C652 C 0.08016 0.15011 0.8614 0.0
C653 C 0.12933 0.12668 0.84663 0.0
C654 C 0.15733 0.02586 0.84914 0.0
H655 H 0.2496 0.9591 0.79305 0.0
H656 H 0.21986 0.00853 0.80646 0.0
H657 H 0.19093 0.97425 0.84732 0.0
H658 H 0.05089 0.10551 0.87222 0.0
H659 H 0.08648 0.05214 0.86227 0.0
H660 H 0.12554 0.08119 0.82392 0.0
C661 C 0.21772 0.97879 0.80948 0.0
C662 C 0.17636 0.99717 0.84209 0.0
C663 C 0.23496 0.95056 0.80182 0.0
C664 C 0.07305 0.11193 0.86522 0.0
C665 C 0.0934 0.08138 0.85955 0.0
C666 C 0.1398 0.05798 0.82912 0.0
C667 C 0.1979 0.96876 0.82083 0.0
C668 C 0.17735 0.99871 0.82847 0.0
C669 C 0.12092 0.08856 0.84994 0.0
C670 C 0.13939 0.05679 0.8427 0.0
H671 H 0.21258 0.87182 0.81989 0.0
H672 H 0.18158 0.92099 0.83313 0.0
H673 H 0.15748 0.03085 0.81163 0.0
H674 H 0.1162 0.18598 0.84923 0.0
H675 H 0.15093 0.133 0.83941 0.0
C676 C 0.29035 0.95251 0.03191 0.0
C677 C 0.32574 0.9343 0.03485 0.0
C678 C 0.25615 0.94003 0.03763 0.0
C679 C 0.21298 0.85686 0.05425 0.0
H680 H 0.1474 0.93251 0.0709 0.0
C681 C 0.08566 0.81042 0.08587 0.0
C682 C 0.08745 0.82636 0.09835 0.0
C683 C 0.10729 0.82624 0.07581 0.0
C684 C 0.16524 0.91109 0.06619 0.0
H685 H 0.35275 0.88897 0.04627 0.0
H686 H 0.29323 0.86698 0.05603 0.0
H687 H 0.2014 0.95378 0.05765 0.0
H688 H 0.11075 0.87306 0.10982 0.0
H689 H 0.14815 0.90061 0.09233 0.0
H690 H 0.17802 0.81415 0.06324 0.0
C691 C 0.29186 0.89055 0.04917 0.0
C692 C 0.19598 0.92326 0.05854 0.0
C693 C 0.326 0.90318 0.04356 0.0
C694 C 0.10904 0.85992 0.10033 0.0
C695 C 0.13025 0.87592 0.09028 0.0
C696 C 0.18213 0.84471 0.06181 0.0
C697 C 0.25658 0.90887 0.0463 0.0
C698 C 0.22085 0.89623 0.05283 0.0
C699 C 0.13062 0.85855 0.07802 0.0
C700 C 0.15863 0.87167 0.06818 0.0
H701 H 0.28898 0.9762 0.02511 0.0
H702 H 0.22932 0.95455 0.03519 0.0
H703 H 0.23141 0.8354 0.04982 0.0
H704 H 0.06933 0.78452 0.08404 0.0
H705 H 0.10679 0.81245 0.06641 0.0
C706 C 0.32124 0.07252 0.29743 0.0
C707 C 0.29011 0.09327 0.30262 0.0
C708 C 0.33638 0.0404 0.30388 0.0
C709 C 0.31604 0.96896 0.32991 0.0
H710 H 0.42687 0.95407 0.32855 0.0
C711 C 0.4047 0.85741 0.36099 0.0
C712 C 0.4341 0.83759 0.35436 0.0
C713 C 0.38356 0.88681 0.3548 0.0
C714 C 0.39582 0.95763 0.32894 0.0
H715 H 0.25019 0.09637 0.31862 0.0
H716 H 0.27715 0.0407 0.33009 0.0
H717 H 0.39766 0.00926 0.31777 0.0
H718 H 0.46238 0.8316 0.33577 0.0
H719 H 0.42579 0.8825 0.32514 0.0
H720 H 0.31479 0.91737 0.3414 0.0
C721 C 0.28946 0.04878 0.32089 0.0
C722 C 0.37899 0.98925 0.32271 0.0
C723 C 0.27404 0.08078 0.31434 0.0
C724 C 0.44032 0.84644 0.34125 0.0
C725 C 0.41947 0.8758 0.33514 0.0
C726 C 0.33304 0.93739 0.33628 0.0
C727 C 0.3211 0.02836 0.3158 0.0
C728 C 0.3388 0.99514 0.32293 0.0
C729 C 0.39162 0.89705 0.34192 0.0
C730 C 0.37308 0.93113 0.3357 0.0
H731 H 0.3338 0.08101 0.2883 0.0
H732 H 0.36005 0.02492 0.29946 0.0
H733 H 0.285 0.97233 0.33023 0.0
H734 H 0.39914 0.85142 0.37109 0.0
H735 H 0.36223 0.90271 0.36026 0.0
C736 C 0.79623 0.08519 0.54115 0.0
C737 C 0.8259 0.06035 0.54537 0.0
C738 C 0.76482 0.09324 0.54916 0.0
C739 C 0.74019 0.1021 0.58292 0.0
H740 H 0.63361 0.09719 0.57145 0.0
C741 C 0.6211 0.15414 0.61671 0.0
C742 C 0.59125 0.1758 0.61103 0.0
C743 C 0.64544 0.13167 0.60905 0.0
C744 C 0.66318 0.09913 0.5748 0.0
H745 H 0.84604 0.02438 0.56119 0.0
H746 H 0.79158 0.0393 0.57535 0.0
H747 H 0.68506 0.07578 0.55705 0.0
H748 H 0.56227 0.19028 0.59307 0.0
H749 H 0.60558 0.15257 0.57955 0.0
H750 H 0.71934 0.12755 0.60026 0.0
C751 C 0.79243 0.05209 0.56579 0.0
C752 C 0.6926 0.08666 0.56655 0.0
C753 C 0.82344 0.04348 0.55769 0.0
C754 C 0.58471 0.17311 0.59767 0.0
C755 C 0.60969 0.15144 0.58993 0.0
C756 C 0.71097 0.11526 0.59106 0.0
C757 C 0.76291 0.07716 0.56162 0.0
C758 C 0.73137 0.08827 0.57052 0.0
C759 C 0.64135 0.13154 0.59547 0.0
C760 C 0.67197 0.11425 0.58711 0.0
H761 H 0.79735 0.09838 0.53166 0.0
H762 H 0.74258 0.1129 0.54577 0.0
H763 H 0.76991 0.10411 0.58615 0.0
H764 H 0.6267 0.15604 0.62702 0.0
H765 H 0.66855 0.1158 0.61376 0.0
C766 C 0.68496 0.09503 0.30284 0.0
C767 C 0.72449 0.09109 0.30029 0.0
C768 C 0.66705 0.07061 0.31164 0.0
C769 C 0.6895 0.00291 0.33861 0.0
H770 H 0.58469 0.96896 0.33241 0.0
C771 C 0.61948 0.86966 0.36167 0.0
C772 C 0.5808 0.87267 0.36551 0.0
C773 C 0.6377 0.90071 0.3558 0.0
C774 C 0.61375 0.97875 0.33437 0.0
H775 H 0.77615 0.05802 0.30456 0.0
H776 H 0.74466 0.01416 0.31955 0.0
H777 H 0.61486 0.01246 0.3171 0.0
H778 H 0.53142 0.91101 0.3669 0.0
H779 H 0.56324 0.96528 0.35641 0.0
H780 H 0.68869 0.96741 0.3556 0.0
C781 C 0.72763 0.03688 0.31511 0.0
C782 C 0.6311 0.00367 0.3256 0.0
C783 C 0.74564 0.06168 0.30643 0.0
C784 C 0.56134 0.908 0.3641 0.0
C785 C 0.57939 0.9389 0.35802 0.0
C786 C 0.67229 0.97752 0.34729 0.0
C787 C 0.68822 0.04138 0.31797 0.0
C788 C 0.66933 0.0158 0.32754 0.0
C789 C 0.61735 0.9351 0.3535 0.0
C790 C 0.63437 0.96503 0.34518 0.0
H791 H 0.66819 0.11794 0.29837 0.0
H792 H 0.63683 0.07535 0.31374 0.0
H793 H 0.71866 0.01232 0.34059 0.0
H794 H 0.63515 0.84275 0.3627 0.0
H795 H 0.66693 0.89701 0.35235 0.0
C796 C 0.69741 0.91773 0.04128 0.0
C797 C 0.67283 0.94838 0.04462 0.0
C798 C 0.72998 0.90911 0.04885 0.0
C799 C 0.76694 0.91543 0.0818 0.0
H800 H 0.86698 0.89662 0.06642 0.0
C801 C 0.89383 0.86538 0.11376 0.0
C802 C 0.91696 0.83609 0.1086 0.0
C803 C 0.86886 0.88656 0.10572 0.0
C804 C 0.83923 0.90141 0.07089 0.0
H805 H 0.66288 0.99387 0.05853 0.0
H806 H 0.71942 0.97824 0.07194 0.0
H807 H 0.81288 0.91721 0.05278 0.0
H808 H 0.93302 0.80606 0.09114 0.0
H809 H 0.889 0.84194 0.07712 0.0
H810 H 0.79215 0.89776 0.09975 0.0
C811 C 0.71365 0.96118 0.06339 0.0
C812 C 0.80828 0.91335 0.06306 0.0
C813 C 0.68145 0.97021 0.05569 0.0
C814 C 0.91612 0.82932 0.09524 0.0
C815 C 0.89074 0.84996 0.08722 0.0
C816 C 0.79766 0.90288 0.0896 0.0
C817 C 0.73826 0.93056 0.06004 0.0
C818 C 0.77173 0.9201 0.06841 0.0
C819 C 0.86574 0.87801 0.09241 0.0
C820 C 0.83421 0.89524 0.08426 0.0
H821 H 0.69158 0.90059 0.03275 0.0
H822 H 0.74827 0.88514 0.0461 0.0
H823 H 0.73898 0.92006 0.08617 0.0
H824 H 0.89359 0.87051 0.1241 0.0
H825 H 0.85083 0.90849 0.11005 0.0
C826 C 0.78711 0.97001 0.79491 0.0
C827 C 0.77712 0.93573 0.80128 0.0
C828 C 0.80122 0.00145 0.80187 0.0
C829 C 0.84673 0.02549 0.83349 0.0
H830 H 0.82634 0.13044 0.82253 0.0
C831 C 0.90298 0.15483 0.86254 0.0
C832 C 0.92418 0.18135 0.85522 0.0
C833 C 0.88004 0.12731 0.85641 0.0
C834 C 0.83224 0.10126 0.82569 0.0
H835 H 0.77392 0.90817 0.82012 0.0
H836 H 0.79657 0.96333 0.83224 0.0
H837 H 0.79565 0.0773 0.81106 0.0
H838 H 0.9361 0.2012 0.83575 0.0
H839 H 0.89561 0.15345 0.82507 0.0
H840 H 0.88312 0.04957 0.84815 0.0
C841 C 0.79445 0.96569 0.82181 0.0
C842 C 0.81487 0.07075 0.81908 0.0
C843 C 0.78079 0.93413 0.81484 0.0
C844 C 0.92024 0.18108 0.84166 0.0
C845 C 0.89692 0.15386 0.83554 0.0
C846 C 0.86367 0.05597 0.84017 0.0
C847 C 0.80536 0.99963 0.81542 0.0
C848 C 0.82221 0.0324 0.8228 0.0
C849 C 0.87742 0.12605 0.84284 0.0
C850 C 0.85693 0.09414 0.83627 0.0
H851 H 0.78415 0.97262 0.78451 0.0
H852 H 0.8097 0.02686 0.79657 0.0
H853 H 0.85381 0.99644 0.8365 0.0
H854 H 0.90553 0.1541 0.87299 0.0
H855 H 0.86503 0.10642 0.86227 0.0
C856 C 0.80264 0.91279 0.48334 0.0
C857 C 0.82204 0.94507 0.47852 0.0
C858 C 0.77134 0.89735 0.47655 0.0
C859 C 0.73159 0.88796 0.44405 0.0
H860 H 0.63403 0.86868 0.4609 0.0
C861 C 0.59682 0.84384 0.41484 0.0
C862 C 0.5704 0.81868 0.42057 0.0
C863 C 0.62739 0.8589 0.42207 0.0
C864 C 0.66123 0.87321 0.45606 0.0
H865 H 0.82428 0.98638 0.46283 0.0
H866 H 0.76995 0.95894 0.45082 0.0
H867 H 0.68764 0.89519 0.47334 0.0
H868 H 0.55586 0.78865 0.43825 0.0
H869 H 0.60999 0.81367 0.45074 0.0
H870 H 0.70604 0.86503 0.42688 0.0
C871 C 0.77877 0.94583 0.4599 0.0
C872 C 0.69184 0.88861 0.46321 0.0
C873 C 0.8096 0.96166 0.4668 0.0
C874 C 0.57548 0.80844 0.43363 0.0
C875 C 0.60646 0.82297 0.4408 0.0
C876 C 0.70124 0.87198 0.43696 0.0
C877 C 0.7594 0.91351 0.4647 0.0
C878 C 0.72718 0.89641 0.45723 0.0
C879 C 0.63275 0.8486 0.43514 0.0
C880 C 0.66548 0.86467 0.44283 0.0
H881 H 0.81163 0.89957 0.49238 0.0
H882 H 0.75696 0.87232 0.48041 0.0
H883 H 0.75876 0.89324 0.43927 0.0
H884 H 0.59349 0.85246 0.40481 0.0
H885 H 0.64645 0.87911 0.41741 0.0
C886 C 0.81653 0.05629 0.22665 0.0
C887 C 0.83044 0.09337 0.22422 0.0
C888 C 0.82467 0.02614 0.21814 0.0
C889 C 0.86255 0.00588 0.18492 0.0
H890 H 0.87736 0.90343 0.19906 0.0
C891 C 0.93701 0.87869 0.15826 0.0
C892 C 0.91684 0.84373 0.15825 0.0
C893 C 0.92383 0.90987 0.16557 0.0
C894 C 0.87299 0.93187 0.19498 0.0
H895 H 0.86408 0.12814 0.21115 0.0
H896 H 0.87993 0.07539 0.19659 0.0
H897 H 0.86044 0.95624 0.21343 0.0
H898 H 0.86683 0.81421 0.16579 0.0
H899 H 0.84442 0.86851 0.17882 0.0
H900 H 0.87708 0.98127 0.16654 0.0
C901 C 0.86153 0.06954 0.20477 0.0
C902 C 0.86305 0.9622 0.20319 0.0
C903 C 0.85271 0.09981 0.21316 0.0
C904 C 0.88289 0.84081 0.16554 0.0
C905 C 0.87017 0.87175 0.17305 0.0
C906 C 0.87325 0.97564 0.17676 0.0
C907 C 0.84764 0.03221 0.20713 0.0
C908 C 0.85764 0.9997 0.19829 0.0
C909 C 0.89068 0.90642 0.1732 0.0
C910 C 0.8785 0.93838 0.18172 0.0
H911 H 0.79895 0.05074 0.23507 0.0
H912 H 0.81266 0.99814 0.22018 0.0
H913 H 0.8579 0.03404 0.18069 0.0
H914 H 0.96322 0.88183 0.15272 0.0
H915 H 0.94023 0.93628 0.16558 0.0
C916 C 0.68937 0.00874 0.96319 0.0
C917 C 0.67545 0.03714 0.9717 0.0
C918 C 0.7193 0.01694 0.95463 0.0
C919 C 0.7618 0.09798 0.9376 0.0
H920 H 0.85253 0.03336 0.93348 0.0
C921 C 0.92318 0.12419 0.92004 0.0
C922 C 0.91515 0.14668 0.90908 0.0
C923 C 0.89428 0.10162 0.9255 0.0
C924 C 0.82717 0.05145 0.93446 0.0
H925 H 0.68348 0.09578 0.97829 0.0
H926 H 0.73503 0.11022 0.96319 0.0
H927 H 0.80118 0.01346 0.94824 0.0
H928 H 0.87215 0.162 0.89469 0.0
H929 H 0.82171 0.12187 0.90401 0.0
H930 H 0.78782 0.13655 0.92423 0.0
C931 C 0.72244 0.08178 0.96306 0.0
C932 C 0.79782 0.04004 0.94285 0.0
C933 C 0.69285 0.07352 0.97168 0.0
C934 C 0.87897 0.14426 0.90304 0.0
C935 C 0.8501 0.12168 0.90846 0.0
C936 C 0.79081 0.10916 0.92915 0.0
C937 C 0.73557 0.05377 0.95433 0.0
C938 C 0.76532 0.06371 0.9447 0.0
C939 C 0.85691 0.10166 0.9201 0.0
C940 C 0.82415 0.08642 0.92766 0.0
H941 H 0.67633 0.98055 0.96283 0.0
H942 H 0.72882 0.99491 0.94795 0.0
H943 H 0.73681 0.11651 0.93873 0.0
H944 H 0.9508 0.12638 0.92495 0.0
H945 H 0.90033 0.08682 0.93452 0.0
C946 C 0.67915 0.96438 0.732 0.0
C947 C 0.68144 0.92634 0.72743 0.0
C948 C 0.66824 0.99449 0.7237 0.0
C949 C 0.61763 0.01363 0.69255 0.0
H950 H 0.66594 0.1135 0.69542 0.0
C951 C 0.55712 0.14764 0.66603 0.0
C952 C 0.58335 0.17437 0.66097 0.0
C953 C 0.56996 0.11707 0.67378 0.0
C954 C 0.65239 0.0857 0.69438 0.0
H955 H 0.67365 0.89036 0.71049 0.0
H956 H 0.65573 0.94281 0.696 0.0
H957 H 0.68729 0.06108 0.70948 0.0
H958 H 0.64391 0.18928 0.65995 0.0
H959 H 0.66639 0.13554 0.67329 0.0
H960 H 0.58328 0.03796 0.67729 0.0
C961 C 0.66189 0.94938 0.70604 0.0
C962 C 0.6643 0.05573 0.70258 0.0
C963 C 0.67271 0.91929 0.71433 0.0
C964 C 0.62287 0.16938 0.66372 0.0
C965 C 0.63574 0.13867 0.67145 0.0
C966 C 0.60577 0.04355 0.68434 0.0
C967 C 0.65933 0.98738 0.71062 0.0
C968 C 0.647 0.0193 0.7018 0.0
C969 C 0.60943 0.11224 0.67665 0.0
C970 C 0.62287 0.08006 0.68518 0.0
H971 H 0.68602 0.97098 0.74199 0.0
H972 H 0.66621 0.0233 0.72762 0.0
H973 H 0.6033 0.98615 0.69175 0.0
H974 H 0.52642 0.15065 0.66422 0.0
H975 H 0.54876 0.09771 0.67776 0.0
C976 C 0.67796 0.44431 0.96999 0.0
C977 C 0.66016 0.48067 0.96897 0.0
C978 C 0.7085 0.43424 0.96192 0.0
C979 C 0.78579 0.47226 0.94174 0.0
H980 H 0.78047 0.372 0.92547 0.0
C981 C 0.91607 0.38814 0.92075 0.0
C982 C 0.90931 0.36468 0.90996 0.0
C983 C 0.8859 0.40971 0.92608 0.0
C984 C 0.78221 0.40032 0.92977 0.0
H985 H 0.66136 0.53524 0.95873 0.0
H986 H 0.71548 0.51777 0.94483 0.0
H987 H 0.72744 0.39411 0.93891 0.0
H988 H 0.86701 0.34647 0.89582 0.0
H989 H 0.81428 0.38461 0.90497 0.0
H990 H 0.84118 0.47794 0.93277 0.0
C991 C 0.70549 0.49714 0.9519 0.0
C992 C 0.75202 0.41276 0.9376 0.0
C993 C 0.67458 0.50714 0.9599 0.0
C994 C 0.87281 0.36486 0.90406 0.0
C995 C 0.84266 0.38634 0.90938 0.0
C996 C 0.81634 0.45959 0.93398 0.0
C997 C 0.72235 0.46037 0.95271 0.0
C998 C 0.75367 0.44861 0.94381 0.0
C999 C 0.84848 0.40769 0.92077 0.0
C1000 C 0.81497 0.42332 0.928 0.0
H1001 H 0.66834 0.42352 0.97706 0.0
H1002 H 0.72143 0.40593 0.96292 0.0
H1003 H 0.78782 0.5 0.94644 0.0
H1004 H 0.94393 0.3877 0.92557 0.0
H1005 H 0.89123 0.4256 0.93491 0.0
C1006 C 0.81679 0.45337 0.23085 0.0
C1007 C 0.84499 0.43317 0.23799 0.0
C1008 C 0.82634 0.48664 0.22408 0.0
C1009 C 0.89863 0.56311 0.22065 0.0
H1010 H 0.86191 0.56477 0.18512 0.0
C1011 C 0.95249 0.67039 0.18151 0.0
C1012 C 0.92529 0.68271 0.17223 0.0
C1013 C 0.94244 0.64289 0.19079 0.0
C1014 C 0.87191 0.56518 0.19508 0.0
H1015 H 0.90503 0.43284 0.24404 0.0
H1016 H 0.92173 0.49127 0.23219 0.0
H1017 H 0.84453 0.51175 0.19916 0.0
H1018 H 0.86575 0.67829 0.1659 0.0
H1019 H 0.8479 0.63152 0.18226 0.0
H1020 H 0.9261 0.61677 0.21647 0.0
C1021 C 0.89219 0.48134 0.23191 0.0
C1022 C 0.86198 0.5347 0.20311 0.0
C1023 C 0.88262 0.44792 0.23868 0.0
C1024 C 0.88745 0.6688 0.17282 0.0
C1025 C 0.87731 0.64185 0.18215 0.0
C1026 C 0.90844 0.59389 0.21259 0.0
C1027 C 0.8643 0.50052 0.22432 0.0
C1028 C 0.87504 0.53339 0.21599 0.0
C1029 C 0.90494 0.62764 0.19098 0.0
C1030 C 0.89496 0.59533 0.19972 0.0
H1031 H 0.78734 0.44321 0.23037 0.0
H1032 H 0.80409 0.50127 0.21851 0.0
H1033 H 0.909 0.56282 0.23056 0.0
H1034 H 0.98195 0.68055 0.18121 0.0
H1035 H 0.96445 0.63238 0.19741 0.0
C1036 C 0.80292 0.55613 0.47654 0.0
C1037 C 0.84005 0.56343 0.47181 0.0
C1038 C 0.77035 0.5718 0.47037 0.0
C1039 C 0.74089 0.64864 0.44705 0.0
H1040 H 0.64639 0.58991 0.44483 0.0
C1041 C 0.613 0.69122 0.41366 0.0
C1042 C 0.57581 0.68941 0.41898 0.0
C1043 C 0.6449 0.67667 0.42046 0.0
C1044 C 0.67248 0.60678 0.44549 0.0
H1045 H 0.87213 0.59201 0.45671 0.0
H1046 H 0.81547 0.61852 0.44575 0.0
H1047 H 0.70267 0.56235 0.4558 0.0
H1048 H 0.54312 0.67093 0.43568 0.0
H1049 H 0.59889 0.64506 0.44748 0.0
H1050 H 0.71076 0.69267 0.43644 0.0
C1051 C 0.81137 0.60166 0.45444 0.0
C1052 C 0.70476 0.59106 0.4518 0.0
C1053 C 0.8439 0.58632 0.46068 0.0
C1054 C 0.57133 0.67276 0.43129 0.0
C1055 C 0.60322 0.65777 0.43802 0.0
C1056 C 0.70874 0.66416 0.44062 0.0
C1057 C 0.77412 0.59485 0.45924 0.0
C1058 C 0.73947 0.61174 0.45265 0.0
C1059 C 0.64034 0.65958 0.43268 0.0
C1060 C 0.67421 0.64338 0.43975 0.0
H1061 H 0.7991 0.53895 0.48519 0.0
H1062 H 0.74227 0.56638 0.47449 0.0
H1063 H 0.76676 0.66582 0.44772 0.0
H1064 H 0.61754 0.704 0.40423 0.0
H1065 H 0.67311 0.6782 0.41606 0.0
C1066 C 0.66148 0.55438 0.7424 0.0
C1067 C 0.66858 0.58915 0.73582 0.0
C1068 C 0.64902 0.5218 0.73564 0.0
C1069 C 0.65389 0.47832 0.70371 0.0
H1070 H 0.56189 0.42137 0.7126 0.0
C1071 C 0.58515 0.37867 0.66704 0.0
C1072 C 0.57146 0.34262 0.67099 0.0
C1073 C 0.59577 0.40624 0.67608 0.0
C1074 C 0.58799 0.43658 0.71013 0.0
H1075 H 0.66648 0.61692 0.71698 0.0
H1076 H 0.64623 0.55992 0.70524 0.0
H1077 H 0.58359 0.47424 0.72655 0.0
H1078 H 0.55632 0.30788 0.68759 0.0
H1079 H 0.57585 0.35637 0.70364 0.0
H1080 H 0.65883 0.4411 0.68743 0.0
C1081 C 0.65053 0.55792 0.71562 0.0
C1082 C 0.60031 0.46684 0.71808 0.0
C1083 C 0.66242 0.59053 0.72236 0.0
C1084 C 0.56702 0.33535 0.68428 0.0
C1085 C 0.57813 0.3631 0.69344 0.0
C1086 C 0.64192 0.44803 0.69589 0.0
C1087 C 0.64395 0.5232 0.72216 0.0
C1088 C 0.6328 0.48859 0.71472 0.0
C1089 C 0.5935 0.39853 0.68939 0.0
C1090 C 0.60818 0.42751 0.69876 0.0
H1091 H 0.66627 0.55206 0.75274 0.0
H1092 H 0.64432 0.49527 0.74089 0.0
H1093 H 0.67948 0.49413 0.70105 0.0
H1094 H 0.58797 0.38563 0.65686 0.0
H1095 H 0.60613 0.43366 0.6726 0.0
C1096 C 0.69204 0.61758 0.03108 0.0
C1097 C 0.67289 0.5846 0.03547 0.0
C1098 C 0.72712 0.62863 0.03667 0.0
C1099 C 0.8072 0.59273 0.05787 0.0
H1100 H 0.82145 0.70099 0.06528 0.0
C1101 C 0.90116 0.65056 0.09934 0.0
C1102 C 0.92113 0.6852 0.09763 0.0
C1103 C 0.87825 0.63572 0.08941 0.0
C1104 C 0.81835 0.67073 0.06305 0.0
H1105 H 0.67528 0.53756 0.04924 0.0
H1106 H 0.73587 0.55716 0.05918 0.0
H1107 H 0.7658 0.6807 0.05259 0.0
H1108 H 0.93461 0.7303 0.08391 0.0
H1109 H 0.89409 0.70446 0.06652 0.0
H1110 H 0.8589 0.5828 0.06891 0.0
C1111 C 0.72449 0.574 0.05118 0.0
C1112 C 0.78638 0.65905 0.05577 0.0
C1113 C 0.68961 0.56283 0.04553 0.0
C1114 C 0.91971 0.70343 0.08549 0.0
C1115 C 0.89628 0.68885 0.07558 0.0
C1116 C 0.83901 0.60441 0.06523 0.0
C1117 C 0.74369 0.60709 0.04685 0.0
C1118 C 0.7799 0.61981 0.05335 0.0
C1119 C 0.87442 0.65546 0.07759 0.0
C1120 C 0.84445 0.64346 0.06813 0.0
H1121 H 0.6801 0.63462 0.02322 0.0
H1122 H 0.74132 0.65397 0.03297 0.0
H1123 H 0.80363 0.56236 0.05594 0.0
H1124 H 0.90183 0.63582 0.10859 0.0
H1125 H 0.86159 0.6101 0.0913 0.0
C1126 C 0.7429 0.44673 0.30482 0.0
C1127 C 0.74035 0.40767 0.30816 0.0
C1128 C 0.72758 0.47501 0.31293 0.0
C1129 C 0.65336 0.49036 0.3373 0.0
H1130 H 0.70951 0.58396 0.34464 0.0
C1131 C 0.58602 0.61248 0.36776 0.0
C1132 C 0.59135 0.64994 0.36295 0.0
C1133 C 0.60741 0.58158 0.36282 0.0
C1134 C 0.6933 0.55813 0.34261 0.0
H1135 H 0.71966 0.36753 0.32257 0.0
H1136 H 0.69259 0.41704 0.33671 0.0
H1137 H 0.74045 0.53265 0.33235 0.0
H1138 H 0.62449 0.68417 0.34943 0.0
H1139 H 0.66077 0.63064 0.34073 0.0
H1140 H 0.60567 0.51623 0.3471 0.0
C1141 C 0.70661 0.42572 0.32784 0.0
C1142 C 0.71109 0.52873 0.33559 0.0
C1143 C 0.72234 0.39746 0.31981 0.0
C1144 C 0.61948 0.65584 0.35342 0.0
C1145 C 0.64063 0.62503 0.34846 0.0
C1146 C 0.63539 0.51991 0.34422 0.0
C1147 C 0.70899 0.46477 0.32447 0.0
C1148 C 0.69112 0.49478 0.33271 0.0
C1149 C 0.63453 0.5874 0.35295 0.0
C1150 C 0.65493 0.55444 0.34678 0.0
H1151 H 0.75679 0.45541 0.29593 0.0
H1152 H 0.7295 0.50488 0.31002 0.0
H1153 H 0.63715 0.46461 0.33512 0.0
H1154 H 0.56481 0.60683 0.37516 0.0
H1155 H 0.60239 0.55305 0.36665 0.0
C1156 C 0.83846 0.4117 0.5469 0.0
C1157 C 0.83557 0.43673 0.53625 0.0
C1158 C 0.80557 0.40075 0.55364 0.0
C1159 C 0.70014 0.39186 0.55136 0.0
H1160 H 0.70739 0.39282 0.58881 0.0
C1161 C 0.60474 0.36743 0.60094 0.0
C1162 C 0.5886 0.33126 0.59843 0.0
C1163 C 0.62906 0.38467 0.59199 0.0
C1164 C 0.70459 0.39283 0.57836 0.0
H1165 H 0.79575 0.46932 0.52416 0.0
H1166 H 0.73801 0.45021 0.53605 0.0
H1167 H 0.76192 0.41379 0.57606 0.0
H1168 H 0.58282 0.28601 0.58418 0.0
H1169 H 0.62606 0.31597 0.5685 0.0
H1170 H 0.6426 0.37052 0.55378 0.0
C1171 C 0.76585 0.43905 0.53912 0.0
C1172 C 0.73609 0.40441 0.57105 0.0
C1173 C 0.7989 0.45026 0.5324 0.0
C1174 C 0.59474 0.31403 0.58632 0.0
C1175 C 0.61953 0.33118 0.57736 0.0
C1176 C 0.66851 0.37997 0.55872 0.0
C1177 C 0.76893 0.41445 0.54989 0.0
C1178 C 0.73442 0.40372 0.55748 0.0
C1179 C 0.63825 0.36589 0.58037 0.0
C1180 C 0.67048 0.38025 0.57231 0.0
H1181 H 0.86629 0.40104 0.55018 0.0
H1182 H 0.80884 0.38143 0.56182 0.0
H1183 H 0.69812 0.39087 0.5409 0.0
H1184 H 0.60006 0.38157 0.61014 0.0
H1185 H 0.6422 0.41189 0.59445 0.0
C1186 C 0.78673 0.59465 0.81691 0.0
C1187 C 0.77905 0.59316 0.80352 0.0
C1188 C 0.80051 0.56213 0.82355 0.0
C1189 C 0.85584 0.47395 0.81813 0.0
H1190 H 0.81598 0.44065 0.85124 0.0
C1191 C 0.91726 0.33834 0.8425 0.0
C1192 C 0.92315 0.33936 0.85595 0.0
C1193 C 0.89494 0.36659 0.83632 0.0
C1194 C 0.82778 0.44976 0.84207 0.0
H1195 H 0.77825 0.55537 0.78681 0.0
H1196 H 0.80328 0.49925 0.79831 0.0
H1197 H 0.78674 0.49603 0.84023 0.0
H1198 H 0.90897 0.37001 0.87355 0.0
H1199 H 0.87109 0.42005 0.86276 0.0
H1200 H 0.89776 0.42911 0.82004 0.0
C1201 C 0.79888 0.52572 0.80363 0.0
C1202 C 0.8109 0.48144 0.83576 0.0
C1203 C 0.7847 0.55802 0.79703 0.0
C1204 C 0.90473 0.36827 0.86317 0.0
C1205 C 0.88292 0.39699 0.85696 0.0
C1206 C 0.87301 0.44271 0.82449 0.0
C1207 C 0.80732 0.5275 0.81693 0.0
C1208 C 0.82471 0.49377 0.8237 0.0
C1209 C 0.87856 0.39713 0.84339 0.0
C1210 C 0.8592 0.42999 0.83654 0.0
H1211 H 0.78322 0.62124 0.82223 0.0
H1212 H 0.80709 0.56445 0.83378 0.0
H1213 H 0.86755 0.48319 0.80895 0.0
H1214 H 0.93073 0.31617 0.83668 0.0
H1215 H 0.8913 0.3649 0.82592 0.0
C1216 C 0.29254 0.58159 0.0394 0.0
C1217 C 0.32423 0.56189 0.0448 0.0
C1218 C 0.26005 0.58975 0.0469 0.0
C1219 C 0.21433 0.56793 0.07904 0.0
H1220 H 0.16134 0.66454 0.07236 0.0
C1221 C 0.12724 0.65807 0.11599 0.0
C1222 C 0.09196 0.674 0.1118 0.0
C1223 C 0.14985 0.63632 0.10753 0.0
C1224 C 0.17546 0.63717 0.07421 0.0
H1225 H 0.34711 0.53524 0.06216 0.0
H1226 H 0.29158 0.55122 0.0755 0.0
H1227 H 0.21303 0.64408 0.05815 0.0
H1228 H 0.05178 0.67851 0.09573 0.0
H1229 H 0.09199 0.64123 0.08076 0.0
H1230 H 0.17809 0.56292 0.09573 0.0
C1231 C 0.29075 0.55919 0.06538 0.0
C1232 C 0.20513 0.62524 0.06603 0.0
C1233 C 0.32284 0.55026 0.05778 0.0
C1234 C 0.07859 0.666 0.09924 0.0
C1235 C 0.1017 0.64502 0.09066 0.0
C1236 C 0.18517 0.58036 0.08739 0.0
C1237 C 0.25885 0.57927 0.06008 0.0
C1238 C 0.22538 0.59061 0.06837 0.0
C1239 C 0.13803 0.63097 0.09464 0.0
C1240 C 0.16569 0.61524 0.0851 0.0
H1241 H 0.29284 0.59046 0.02935 0.0
H1242 H 0.23591 0.60435 0.0423 0.0
H1243 H 0.22841 0.54069 0.08105 0.0
H1244 H 0.13825 0.66417 0.1256 0.0
H1245 H 0.17783 0.62604 0.11081 0.0
C1246 C 0.21551 0.61043 0.81646 0.0
C1247 C 0.23308 0.59668 0.80515 0.0
C1248 C 0.19838 0.58499 0.82511 0.0
C1249 C 0.20156 0.48642 0.8365 0.0
H1250 H 0.09362 0.49992 0.84517 0.0
C1251 C 0.11067 0.36275 0.85521 0.0
C1252 C 0.07921 0.36955 0.86344 0.0
C1253 C 0.13227 0.39308 0.85042 0.0
C1254 C 0.12401 0.49618 0.84314 0.0
H1255 H 0.24686 0.5459 0.79397 0.0
H1256 H 0.21756 0.50099 0.80934 0.0
H1257 H 0.12583 0.54809 0.83193 0.0
H1258 H 0.04725 0.41376 0.87366 0.0
H1259 H 0.08578 0.46709 0.86543 0.0
H1260 H 0.20019 0.43484 0.84772 0.0
C1261 C 0.21696 0.53151 0.81143 0.0
C1262 C 0.14231 0.52362 0.83547 0.0
C1263 C 0.23346 0.55706 0.80264 0.0
C1264 C 0.07114 0.40751 0.86729 0.0
C1265 C 0.09305 0.43807 0.8625 0.0
C1266 C 0.18351 0.45935 0.84434 0.0
C1267 C 0.19917 0.54533 0.82271 0.0
C1268 C 0.1809 0.51836 0.83181 0.0
C1269 C 0.12342 0.43119 0.8538 0.0
C1270 C 0.14417 0.46323 0.84741 0.0
H1271 H 0.2146 0.64097 0.81852 0.0
H1272 H 0.18483 0.59624 0.83375 0.0
H1273 H 0.23156 0.48219 0.83397 0.0
H1274 H 0.11812 0.33394 0.85209 0.0
H1275 H 0.15494 0.38655 0.84359 0.0
C1276 C 0.20949 0.41967 0.53549 0.0
C1277 C 0.18115 0.44497 0.54013 0.0
C1278 C 0.24236 0.41134 0.54294 0.0
C1279 C 0.29646 0.44275 0.57283 0.0
H1280 H 0.33988 0.33999 0.57052 0.0
C1281 C 0.38463 0.36111 0.61235 0.0
C1282 C 0.41788 0.3414 0.6083 0.0
C1283 C 0.36171 0.38121 0.6034 0.0
C1284 C 0.32841 0.369 0.57113 0.0
H1285 H 0.16445 0.4812 0.55615 0.0
H1286 H 0.22045 0.46514 0.56953 0.0
H1287 H 0.28682 0.35843 0.55629 0.0
H1288 H 0.45414 0.32809 0.59193 0.0
H1289 H 0.41336 0.36248 0.57614 0.0
H1290 H 0.33672 0.45182 0.58842 0.0
C1291 C 0.21852 0.45277 0.55995 0.0
C1292 C 0.29798 0.37975 0.56291 0.0
C1293 C 0.18613 0.46177 0.55235 0.0
C1294 C 0.42908 0.34383 0.5953 0.0
C1295 C 0.4056 0.36311 0.58628 0.0
C1296 C 0.32634 0.43161 0.58125 0.0
C1297 C 0.24722 0.42737 0.55538 0.0
C1298 C 0.28123 0.41672 0.56369 0.0
C1299 C 0.37111 0.38094 0.5902 0.0
C1300 C 0.34243 0.39457 0.58051 0.0
H1301 H 0.20639 0.4067 0.52602 0.0
H1302 H 0.264 0.39241 0.53888 0.0
H1303 H 0.28518 0.47175 0.57358 0.0
H1304 H 0.37515 0.35901 0.62229 0.0
H1305 H 0.33511 0.39445 0.60664 0.0
C1306 C 0.32346 0.45611 0.29224 0.0
C1307 C 0.29192 0.43632 0.29739 0.0
C1308 C 0.33868 0.48797 0.29866 0.0
C1309 C 0.31866 0.55929 0.32476 0.0
H1310 H 0.42993 0.56965 0.32434 0.0
C1311 C 0.40828 0.66073 0.35836 0.0
C1312 C 0.43854 0.68069 0.35237 0.0
C1313 C 0.38678 0.6336 0.35141 0.0
C1314 C 0.39878 0.56736 0.32445 0.0
H1315 H 0.25128 0.43444 0.31319 0.0
H1316 H 0.27847 0.48946 0.32463 0.0
H1317 H 0.39992 0.51681 0.31279 0.0
H1318 H 0.4682 0.68936 0.33415 0.0
H1319 H 0.43097 0.64216 0.32218 0.0
H1320 H 0.31811 0.60955 0.33683 0.0
C1321 C 0.29097 0.48103 0.31548 0.0
C1322 C 0.38149 0.53713 0.31777 0.0
C1323 C 0.27543 0.44942 0.30896 0.0
C1324 C 0.44543 0.67432 0.33914 0.0
C1325 C 0.42421 0.64713 0.33227 0.0
C1326 C 0.33609 0.58939 0.33159 0.0
C1327 C 0.32309 0.50048 0.31048 0.0
C1328 C 0.34118 0.53281 0.31773 0.0
C1329 C 0.39535 0.62581 0.3384 0.0
C1330 C 0.37631 0.59387 0.33139 0.0
H1331 H 0.33636 0.44694 0.28323 0.0
H1332 H 0.36278 0.50274 0.29433 0.0
H1333 H 0.28752 0.55714 0.32485 0.0
H1334 H 0.40213 0.66493 0.36852 0.0
H1335 H 0.36469 0.6175 0.35637 0.0
C1336 C 0.31387 0.40949 0.97808 0.0
C1337 C 0.32444 0.44832 0.97685 0.0
C1338 C 0.28355 0.39454 0.97071 0.0
C1339 C 0.19554 0.42223 0.95315 0.0
H1340 H 0.20858 0.32431 0.9357 0.0
C1341 C 0.06844 0.33818 0.93122 0.0
C1342 C 0.07327 0.32316 0.91871 0.0
C1343 C 0.09957 0.35399 0.93793 0.0
C1344 C 0.20465 0.35178 0.94045 0.0
H1345 H 0.31123 0.50178 0.96682 0.0
H1346 H 0.25773 0.47583 0.95422 0.0
H1347 H 0.26205 0.35107 0.9483 0.0
H1348 H 0.11476 0.31249 0.90349 0.0
H1349 H 0.16944 0.33988 0.91534 0.0
H1350 H 0.1381 0.42285 0.94539 0.0
C1351 C 0.27295 0.45706 0.96093 0.0
C1352 C 0.23507 0.36691 0.94775 0.0
C1353 C 0.3035 0.47195 0.96821 0.0
C1354 C 0.11008 0.32401 0.91309 0.0
C1355 C 0.14139 0.33946 0.91988 0.0
C1356 C 0.16502 0.40691 0.94598 0.0
C1357 C 0.26286 0.41815 0.96204 0.0
C1358 C 0.23077 0.40225 0.95419 0.0
C1359 C 0.13635 0.35479 0.93234 0.0
C1360 C 0.16923 0.3715 0.93959 0.0
H1361 H 0.32888 0.39061 0.98479 0.0
H1362 H 0.276 0.36457 0.9719 0.0
H1363 H 0.19135 0.4494 0.95807 0.0
H1364 H 0.04049 0.33801 0.93584 0.0
H1365 H 0.09495 0.3652 0.94757 0.0
C1366 C 0.36572 0.57777 0.72434 0.0
C1367 C 0.32711 0.58908 0.72606 0.0
C1368 C 0.37517 0.54852 0.71565 0.0
C1369 C 0.33627 0.46412 0.6989 0.0
H1370 H 0.42211 0.47986 0.67567 0.0
C1371 C 0.37922 0.35106 0.66031 0.0
C1372 C 0.41895 0.34467 0.65862 0.0
C1373 C 0.36607 0.38204 0.66776 0.0
C1374 C 0.39832 0.47476 0.68217 0.0
H1375 H 0.26805 0.57806 0.7202 0.0
H1376 H 0.28461 0.52662 0.70503 0.0
H1377 H 0.40317 0.53089 0.69049 0.0
H1378 H 0.47601 0.36605 0.66345 0.0
H1379 H 0.45325 0.41912 0.67656 0.0
H1380 H 0.33199 0.40762 0.69084 0.0
C1381 C 0.30752 0.54052 0.71041 0.0
C1382 C 0.38744 0.50408 0.69065 0.0
C1383 C 0.29808 0.5701 0.71902 0.0
C1384 C 0.44517 0.3702 0.66443 0.0
C1385 C 0.43207 0.40089 0.67192 0.0
C1386 C 0.34737 0.43459 0.69049 0.0
C1387 C 0.34621 0.52966 0.70855 0.0
C1388 C 0.35657 0.49896 0.69919 0.0
C1389 C 0.39237 0.40721 0.67374 0.0
C1390 C 0.37883 0.43939 0.68211 0.0
H1391 H 0.38874 0.59209 0.72954 0.0
H1392 H 0.40521 0.54051 0.71452 0.0
H1393 H 0.31252 0.45926 0.70545 0.0
H1394 H 0.35826 0.33205 0.65592 0.0
H1395 H 0.33528 0.38632 0.66881 0.0
C1396 C 0.17338 0.54445 0.45464 0.0
C1397 C 0.17814 0.52296 0.46608 0.0
C1398 C 0.20424 0.54979 0.44624 0.0
C1399 C 0.3103 0.55049 0.44569 0.0
H1400 H 0.29323 0.55961 0.40868 0.0
C1401 C 0.42873 0.60908 0.41272 0.0
C1402 C 0.41541 0.64156 0.40593 0.0
C1403 C 0.40232 0.58332 0.41808 0.0
C1404 C 0.29853 0.55681 0.41898 0.0
H1405 H 0.21917 0.48987 0.47756 0.0
H1406 H 0.27297 0.49866 0.46275 0.0
H1407 H 0.2415 0.53624 0.42247 0.0
H1408 H 0.36499 0.67148 0.39854 0.0
H1409 H 0.31897 0.62627 0.40756 0.0
H1410 H 0.36688 0.57227 0.44224 0.0
C1411 C 0.24537 0.5117 0.46036 0.0
C1412 C 0.26885 0.54368 0.4269 0.0
C1413 C 0.21445 0.50641 0.4688 0.0
C1414 C 0.37577 0.64633 0.40366 0.0
C1415 C 0.34949 0.62039 0.40881 0.0
C1416 C 0.34004 0.56341 0.43776 0.0
C1417 C 0.24068 0.53365 0.44901 0.0
C1418 C 0.27393 0.54168 0.4404 0.0
C1419 C 0.36237 0.58954 0.41655 0.0
C1420 C 0.33402 0.56796 0.42438 0.0
H1421 H 0.14569 0.55709 0.45213 0.0
H1422 H 0.19968 0.56738 0.4377 0.0
H1423 H 0.31517 0.54961 0.45605 0.0
H1424 H 0.45923 0.60526 0.41472 0.0
H1425 H 0.41301 0.55967 0.42395 0.0
C1426 C 0.1894 0.46028 0.23056 0.0
C1427 C 0.16797 0.42603 0.23046 0.0
C1428 C 0.18016 0.49053 0.22211 0.0
C1429 C 0.12481 0.51237 0.19178 0.0
H1430 H 0.1371 0.618 0.20297 0.0
C1431 C 0.05959 0.64249 0.1641 0.0
C1432 C 0.08329 0.67478 0.16236 0.0
C1433 C 0.07153 0.61189 0.172 0.0
C1434 C 0.13388 0.58863 0.19967 0.0
H1435 H 0.11979 0.39716 0.22121 0.0
H1436 H 0.10259 0.45032 0.20701 0.0
H1437 H 0.15371 0.56561 0.21775 0.0
H1438 H 0.13836 0.69992 0.16755 0.0
H1439 H 0.159 0.64651 0.18147 0.0
H1440 H 0.10385 0.53569 0.17383 0.0
C1441 C 0.12722 0.45356 0.2134 0.0
C1442 C 0.14351 0.55851 0.20812 0.0
C1443 C 0.13673 0.42316 0.22175 0.0
C1444 C 0.11943 0.67549 0.16863 0.0
C1445 C 0.13116 0.64503 0.17667 0.0
C1446 C 0.11474 0.5425 0.1834 0.0
C1447 C 0.14893 0.48764 0.21339 0.0
C1448 C 0.13905 0.51989 0.20432 0.0
C1449 C 0.10728 0.61295 0.17847 0.0
C1450 C 0.1191 0.58097 0.18725 0.0
H1451 H 0.21332 0.46394 0.23723 0.0
H1452 H 0.19791 0.51602 0.22232 0.0
H1453 H 0.12172 0.48315 0.18836 0.0
H1454 H 0.03154 0.64092 0.15945 0.0
H1455 H 0.05233 0.58776 0.17328 0.0
loop_
_geom_bond_atom_site_label_1
_geom_bond_atom_site_label_2
_geom_bond_distance
_geom_bond_site_symmetry_2
_ccdc_geom_bond_type
C0 C1 1.391 . S
C0 C2 1.382 1_565 S
C0 H28 0.927 1_565 S
C1 C0 1.391 . S
C1 C4 1.382 . S
C2 C0 1.382 1_545 S
C2 C3 1.381 1_545 S
C2 H29 0.930 . S
C3 C2 1.381 1_565 S
C3 C5 1.381 . S
C3 C6 1.487 1_565 S
C4 C1 1.382 . S
C4 C5 1.387 . S
C4 H30 0.930 . S
C5 C3 1.381 . S
C5 C4 1.387 . S
C5 H31 0.931 . S
C6 C3 1.487 1_545 S
C6 C13 1.399 . S
C6 N44 1.343 1_545 S
C7 C8 1.384 . S
C7 C9 1.384 . S
C7 H32 0.931 . S
C8 C7 1.384 . S
C8 C11 1.382 . S
C9 C7 1.384 . S
C9 C10 1.381 . S
C9 H33 0.930 1_545 S
C10 C9 1.381 . S
C10 C12 1.381 . S
C10 C13 1.487 . S
C11 C8 1.382 . S
C11 C12 1.387 . S
C11 H34 0.930 . S
C12 C10 1.381 . S
C12 C11 1.387 . S
C12 H35 0.931 . S
C13 C6 1.399 . S
C13 C10 1.487 . S
C13 N45 1.343 . S
C14 C15 1.384 . S
C14 C16 1.384 . S
C14 H36 0.931 . S
C15 C14 1.384 . S
C15 C18 1.382 . S
C16 C14 1.384 . S
C16 C17 1.381 . S
C16 H37 0.930 1_545 S
C17 C16 1.381 . S
C17 C19 1.381 . S
C17 C20 1.487 . S
C18 C15 1.382 . S
C18 C19 1.387 . S
C18 H38 0.930 . S
C19 C17 1.381 . S
C19 C18 1.387 . S
C19 H39 0.931 . S
C20 C17 1.487 . S
C20 C27 1.399 . S
C20 N45 1.343 1_655 S
C21 C22 1.391 . S
C21 C23 1.382 1_565 S
C21 H40 0.927 1_565 S
C22 C21 1.391 . S
C22 C25 1.382 . S
C23 C21 1.382 1_545 S
C23 C24 1.381 1_545 S
C23 H41 0.930 . S
C24 C23 1.381 1_565 S
C24 C26 1.381 . S
C24 C27 1.487 1_565 S
C25 C22 1.382 . S
C25 C26 1.387 . S
C25 H42 0.930 . S
C26 C24 1.381 . S
C26 C25 1.387 . S
C26 H43 0.931 . S
C27 C20 1.399 . S
C27 C24 1.487 1_545 S
C27 N44 1.343 1_645 S
H28 C0 0.927 1_545 S
H29 C2 0.930 . S
H30 C4 0.930 . S
H31 C5 0.931 . S
H32 C7 0.931 . S
H33 C9 0.930 1_565 S
H34 C11 0.930 . S
H35 C12 0.931 . S
H36 C14 0.931 . S
H37 C16 0.930 1_565 S
H38 C18 0.930 . S
H39 C19 0.931 . S
H40 C21 0.927 1_545 S
H41 C23 0.930 . S
H42 C25 0.930 . S
H43 C26 0.931 . S
N44 C6 1.343 1_565 S
N44 C27 1.343 1_465 S
N45 C13 1.343 . S
N45 C20 1.343 1_455 S
C46 C47 1.384 . S
C46 C48 1.384 . S
C46 H74 0.931 . S
C47 C46 1.384 . S
C47 C50 1.382 . S
C48 C46 1.384 . S
C48 C49 1.381 . S
C48 H75 0.930 . S
C49 C48 1.381 . S
C49 C51 1.381 . S
C49 C52 1.487 . S
C50 C47 1.382 . S
C50 C51 1.387 . S
C50 H76 0.930 . S
C51 C49 1.381 . S
C51 C50 1.387 . S
C51 H77 0.931 . S
C52 C49 1.487 . S
C52 C59 1.399 . S
C52 N90 1.343 . S
C53 C54 1.384 . S
C53 C55 1.384 . S
C53 H78 0.931 . S
C54 C53 1.384 . S
C54 C57 1.382 . S
C55 C53 1.384 . S
C55 C56 1.381 . S
C55 H79 0.930 . S
C56 C55 1.381 . S
C56 C58 1.381 . S
C56 C59 1.487 . S
C57 C54 1.382 . S
C57 C58 1.387 . S
C57 H80 0.930 . S
C58 C56 1.381 . S
C58 C57 1.387 . S
C58 H81 0.931 . S
C59 C52 1.399 . S
C59 C56 1.487 . S
C59 N91 1.343 . S
C60 C61 1.384 . S
C60 C62 1.384 . S
C60 H82 0.931 . S
C61 C60 1.384 . S
C61 C64 1.382 . S
C62 C60 1.384 . S
C62 C63 1.381 . S
C62 H83 0.930 . S
C63 C62 1.381 . S
C63 C65 1.381 . S
C63 C66 1.487 . S
C64 C61 1.382 . S
C64 C65 1.387 . S
C64 H84 0.930 . S
C65 C63 1.381 . S
C65 C64 1.387 . S
C65 H85 0.931 . S
C66 C63 1.487 . S
C66 C73 1.399 . S
C66 N91 1.343 . S
C67 C68 1.384 . S
C67 C69 1.384 . S
C67 H86 0.931 . S
C68 C67 1.384 . S
C68 C71 1.382 . S
C69 C67 1.384 . S
C69 C70 1.381 . S
C69 H87 0.930 . S
C70 C69 1.381 . S
C70 C72 1.381 . S
C70 C73 1.487 . S
C71 C68 1.382 . S
C71 C72 1.387 . S
C71 H88 0.930 . S
C72 C70 1.381 . S
C72 C71 1.387 . S
C72 H89 0.931 . S
C73 C66 1.399 . S
C73 C70 1.487 . S
C73 N90 1.343 . S
H74 C46 0.931 . S
H75 C48 0.930 . S
H76 C50 0.930 . S
H77 C51 0.931 . S
H78 C53 0.931 . S
H79 C55 0.930 . S
H80 C57 0.930 . S
H81 C58 0.931 . S
H82 C60 0.931 . S
H83 C62 0.930 . S
H84 C64 0.930 . S
H85 C65 0.931 . S
H86 C67 0.931 . S
H87 C69 0.930 . S
H88 C71 0.930 . S
H89 C72 0.931 . S
N90 C52 1.343 . S
N90 C73 1.343 . S
N91 C59 1.343 . S
N91 C66 1.343 . S
C92 C93 1.384 . S
C92 C94 1.384 . S
C92 H120 0.931 1_545 S
C93 C92 1.384 . S
C93 C96 1.382 . S
C94 C92 1.384 . S
C94 C95 1.381 . S
C94 H121 0.930 1_545 S
C95 C94 1.381 . S
C95 C97 1.381 . S
C95 C98 1.487 1_556 S
C96 C93 1.382 . S
C96 C97 1.387 . S
C96 H122 0.930 . S
C97 C95 1.381 . S
C97 C96 1.387 . S
C97 H123 0.931 . S
C98 C95 1.487 1_554 S
C98 C105 1.399 1_545 S
C98 N136 1.315 1_554 S
C99 C100 1.384 . S
C99 C101 1.384 . S
C99 H124 0.931 1_565 S
C100 C99 1.384 . S
C100 C103 1.382 . S
C101 C99 1.384 . S
C101 C102 1.381 . S
C101 H125 0.930 1_565 S
C102 C101 1.381 . S
C102 C104 1.381 . S
C102 C105 1.487 . S
C103 C100 1.382 . S
C103 C104 1.387 . S
C103 H126 0.930 . S
C104 C102 1.381 . S
C104 C103 1.387 . S
C104 H127 0.931 . S
C105 C98 1.399 1_565 S
C105 C102 1.487 . S
C105 N137 1.343 . S
C106 C107 1.384 . S
C106 C108 1.384 . S
C106 H128 0.931 1_565 S
C107 C106 1.384 . S
C107 C110 1.382 . S
C108 C106 1.384 . S
C108 C109 1.381 . S
C108 H129 0.930 1_565 S
C109 C108 1.381 . S
C109 C111 1.381 . S
C109 C112 1.487 . S
C110 C107 1.382 . S
C110 C111 1.387 . S
C110 H130 0.930 . S
C111 C109 1.381 . S
C111 C110 1.387 . S
C111 H131 0.931 . S
C112 C109 1.487 . S
C112 C119 1.399 1_565 S
C112 N137 1.343 . S
C113 C114 1.384 . S
C113 C115 1.384 . S
C113 H132 0.931 1_545 S
C114 C113 1.384 . S
C114 C117 1.382 . S
C115 C113 1.384 . S
C115 C116 1.381 . S
C115 H133 0.930 1_545 S
C116 C115 1.381 . S
C116 C118 1.381 . S
C116 C119 1.487 1_556 S
C117 C114 1.382 . S
C117 C118 1.387 . S
C117 H134 0.930 . S
C118 C116 1.381 . S
C118 C117 1.387 . S
C118 H135 0.931 . S
C119 C112 1.399 1_545 S
C119 C116 1.487 1_554 S
C119 N136 1.315 1_554 S
H120 C92 0.931 1_565 S
H121 C94 0.930 1_565 S
H122 C96 0.930 . S
H123 C97 0.931 . S
H124 C99 0.931 1_545 S
H125 C101 0.930 1_545 S
H126 C103 0.930 . S
H127 C104 0.931 . S
H128 C106 0.931 1_545 S
H129 C108 0.930 1_545 S
H130 C110 0.930 . S
H131 C111 0.931 . S
H132 C113 0.931 1_565 S
H133 C115 0.930 1_565 S
H134 C117 0.930 . S
H135 C118 0.931 . S
N136 C98 1.315 1_556 S
N136 C119 1.315 1_556 S
N137 C105 1.343 . S
N137 C112 1.343 . S
C138 C139 1.384 . S
C138 C140 1.384 . S
C138 H166 0.931 . S
C139 C138 1.384 . S
C139 C142 1.382 . S
C140 C138 1.384 . S
C140 C141 1.381 . S
C140 H167 0.930 . S
C141 C140 1.381 . S
C141 C143 1.381 . S
C141 C144 1.487 . S
C142 C139 1.382 . S
C142 C143 1.387 . S
C142 H168 0.930 . S
C143 C141 1.381 . S
C143 C142 1.387 . S
C143 H169 0.931 . S
C144 C141 1.487 . S
C144 C151 1.399 . S
C144 N182 1.343 . S
C145 C146 1.384 . S
C145 C147 1.384 . S
C145 H170 0.931 . S
C146 C145 1.384 . S
C146 C149 1.382 . S
C147 C145 1.384 . S
C147 C148 1.381 . S
C147 H171 0.930 . S
C148 C147 1.381 . S
C148 C150 1.381 . S
C148 C151 1.487 . S
C149 C146 1.382 . S
C149 C150 1.387 . S
C149 H172 0.930 . S
C150 C148 1.381 . S
C150 C149 1.387 . S
C150 H173 0.931 . S
C151 C144 1.399 . S
C151 C148 1.487 . S
C151 N183 1.343 . S
C152 C153 1.384 . S
C152 C154 1.384 . S
C152 H174 0.931 . S
C153 C152 1.384 . S
C153 C156 1.382 . S
C154 C152 1.384 . S
C154 C155 1.381 . S
C154 H175 0.930 . S
C155 C154 1.381 . S
C155 C157 1.381 . S
C155 C158 1.487 . S
C156 C153 1.382 . S
C156 C157 1.387 . S
C156 H176 0.930 . S
C157 C155 1.381 . S
C157 C156 1.387 . S
C157 H177 0.931 . S
C158 C155 1.487 . S
C158 C165 1.399 . S
C158 N183 1.343 . S
C159 C160 1.384 . S
C159 C161 1.384 . S
C159 H178 0.931 . S
C160 C159 1.384 . S
C160 C163 1.382 . S
C161 C159 1.384 . S
C161 C162 1.381 . S
C161 H179 0.930 . S
C162 C161 1.381 . S
C162 C164 1.381 . S
C162 C165 1.487 . S
C163 C160 1.382 . S
C163 C164 1.387 . S
C163 H180 0.930 . S
C164 C162 1.381 . S
C164 C163 1.387 . S
C164 H181 0.931 . S
C165 C158 1.399 . S
C165 C162 1.487 . S
C165 N182 1.343 . S
H166 C138 0.931 . S
H167 C140 0.930 . S
H168 C142 0.930 . S
H169 C143 0.931 . S
H170 C145 0.931 . S
H171 C147 0.930 . S
H172 C149 0.930 . S
H173 C150 0.931 . S
H174 C152 0.931 . S
H175 C154 0.930 . S
H176 C156 0.930 . S
H177 C157 0.931 . S
H178 C159 0.931 . S
H179 C161 0.930 . S
H180 C163 0.930 . S
H181 C164 0.931 . S
N182 C144 1.343 . S
N182 C165 1.343 . S
N183 C151 1.343 . S
N183 C158 1.343 . S
C184 C185 1.384 . S
C184 C186 1.384 . S
C184 H212 0.931 . S
C185 C184 1.384 . S
C185 C188 1.382 . S
C186 C184 1.384 . S
C186 C187 1.381 . S
C186 H213 0.930 . S
C187 C186 1.381 . S
C187 C189 1.381 . S
C187 C190 1.487 . S
C188 C185 1.382 . S
C188 C189 1.387 . S
C188 H214 0.930 . S
C189 C187 1.381 . S
C189 C188 1.387 . S
C189 H215 0.931 . S
C190 C187 1.487 . S
C190 C197 1.399 . S
C190 N228 1.343 . S
C191 C192 1.384 . S
C191 C193 1.384 . S
C191 H216 0.931 . S
C192 C191 1.384 . S
C192 C195 1.382 . S
C193 C191 1.384 . S
C193 C194 1.381 . S
C193 H217 0.930 . S
C194 C193 1.381 . S
C194 C196 1.381 . S
C194 C197 1.487 . S
C195 C192 1.382 . S
C195 C196 1.387 . S
C195 H218 0.930 . S
C196 C194 1.381 . S
C196 C195 1.387 . S
C196 H219 0.931 . S
C197 C190 1.399 . S
C197 C194 1.487 . S
C197 N229 1.343 . S
C198 C199 1.384 . S
C198 C200 1.384 . S
C198 H220 0.931 . S
C199 C198 1.384 . S
C199 C202 1.382 . S
C200 C198 1.384 . S
C200 C201 1.381 . S
C200 H221 0.930 . S
C201 C200 1.381 . S
C201 C203 1.381 . S
C201 C204 1.487 . S
C202 C199 1.382 . S
C202 C203 1.387 . S
C202 H222 0.930 . S
C203 C201 1.381 . S
C203 C202 1.387 . S
C203 H223 0.931 . S
C204 C201 1.487 . S
C204 C211 1.399 . S
C204 N229 1.343 . S
C205 C206 1.384 . S
C205 C207 1.384 . S
C205 H224 0.931 . S
C206 C205 1.384 . S
C206 C209 1.382 . S
C207 C205 1.384 . S
C207 C208 1.381 . S
C207 H225 0.930 . S
C208 C207 1.381 . S
C208 C210 1.381 . S
C208 C211 1.487 . S
C209 C206 1.382 . S
C209 C210 1.387 . S
C209 H226 0.930 . S
C210 C208 1.381 . S
C210 C209 1.387 . S
C210 H227 0.931 . S
C211 C204 1.399 . S
C211 C208 1.487 . S
C211 N228 1.343 . S
H212 C184 0.931 . S
H213 C186 0.930 . S
H214 C188 0.930 . S
H215 C189 0.931 . S
H216 C191 0.931 . S
H217 C193 0.930 . S
H218 C195 0.930 . S
H219 C196 0.931 . S
H220 C198 0.931 . S
H221 C200 0.930 . S
H222 C202 0.930 . S
H223 C203 0.931 . S
H224 C205 0.931 . S
H225 C207 0.930 . S
H226 C209 0.930 . S
H227 C210 0.931 . S
N228 C190 1.343 . S
N228 C211 1.343 . S
N229 C197 1.343 . S
N229 C204 1.343 . S
C230 C231 1.384 . S
C230 C232 1.384 . S
C230 H258 0.931 . S
C231 C230 1.384 . S
C231 C234 1.382 . S
C232 C230 1.384 . S
C232 C233 1.381 . S
C232 H259 0.930 . S
C233 C232 1.381 . S
C233 C235 1.381 . S
C233 C236 1.487 . S
C234 C231 1.382 . S
C234 C235 1.387 . S
C234 H260 0.930 . S
C235 C233 1.381 . S
C235 C234 1.387 . S
C235 H261 0.931 . S
C236 C233 1.487 . S
C236 C243 1.399 . S
C236 N274 1.343 . S
C237 C238 1.384 . S
C237 C239 1.384 . S
C237 H262 0.931 . S
C238 C237 1.384 . S
C238 C241 1.382 . S
C239 C237 1.384 . S
C239 C240 1.381 . S
C239 H263 0.930 . S
C240 C239 1.381 . S
C240 C242 1.381 . S
C240 C243 1.487 . S
C241 C238 1.382 . S
C241 C242 1.387 . S
C241 H264 0.930 . S
C242 C240 1.381 . S
C242 C241 1.387 . S
C242 H265 0.931 . S
C243 C236 1.399 . S
C243 C240 1.487 . S
C243 N275 1.343 . S
C244 C245 1.384 . S
C244 C246 1.384 . S
C244 H266 0.931 . S
C245 C244 1.384 . S
C245 C248 1.382 . S
C246 C244 1.384 . S
C246 C247 1.381 . S
C246 H267 0.930 . S
C247 C246 1.381 . S
C247 C249 1.381 . S
C247 C250 1.487 . S
C248 C245 1.382 . S
C248 C249 1.387 . S
C248 H268 0.930 . S
C249 C247 1.381 . S
C249 C248 1.387 . S
C249 H269 0.931 . S
C250 C247 1.487 . S
C250 C257 1.399 . S
C250 N275 1.343 . S
C251 C252 1.384 . S
C251 C253 1.384 . S
C251 H270 0.931 . S
C252 C251 1.384 . S
C252 C255 1.382 . S
C253 C251 1.384 . S
C253 C254 1.381 . S
C253 H271 0.930 . S
C254 C253 1.381 . S
C254 C256 1.381 . S
C254 C257 1.487 . S
C255 C252 1.382 . S
C255 C256 1.387 . S
C255 H272 0.930 . S
C256 C254 1.381 . S
C256 C255 1.387 . S
C256 H273 0.931 . S
C257 C250 1.399 . S
C257 C254 1.487 . S
C257 N274 1.343 . S
H258 C230 0.931 . S
H259 C232 0.930 . S
H260 C234 0.930 . S
H261 C235 0.931 . S
H262 C237 0.931 . S
H263 C239 0.930 . S
H264 C241 0.930 . S
H265 C242 0.931 . S
H266 C244 0.931 . S
H267 C246 0.930 . S
H268 C248 0.930 . S
H269 C249 0.931 . S
H270 C251 0.931 . S
H271 C253 0.930 . S
H272 C255 0.930 . S
H273 C256 0.931 . S
N274 C236 1.343 . S
N274 C257 1.343 . S
N275 C243 1.343 . S
N275 C250 1.343 . S
C276 C277 1.384 . S
C276 C278 1.384 . S
C276 H304 0.931 . S
C277 C276 1.384 . S
C277 C280 1.382 . S
C278 C276 1.384 . S
C278 C279 1.381 . S
C278 H305 0.930 . S
C279 C278 1.381 . S
C279 C281 1.381 . S
C279 C282 1.487 1_556 S
C280 C277 1.382 . S
C280 C281 1.387 . S
C280 H306 0.930 . S
C281 C279 1.381 . S
C281 C280 1.387 . S
C281 H307 0.931 . S
C282 C279 1.487 1_554 S
C282 C289 1.399 . S
C282 N320 1.314 1_554 S
C283 C284 1.384 . S
C283 C285 1.384 . S
C283 H308 0.931 . S
C284 C283 1.384 . S
C284 C287 1.382 . S
C285 C283 1.384 . S
C285 C286 1.381 . S
C285 H309 0.930 . S
C286 C285 1.381 . S
C286 C288 1.381 . S
C286 C289 1.487 . S
C287 C284 1.382 . S
C287 C288 1.387 . S
C287 H310 0.930 . S
C288 C286 1.381 . S
C288 C287 1.387 . S
C288 H311 0.931 . S
C289 C282 1.399 . S
C289 C286 1.487 . S
C289 N321 1.343 . S
C290 C291 1.384 . S
C290 C292 1.384 . S
C290 H312 0.931 . S
C291 C290 1.384 . S
C291 C294 1.382 . S
C292 C290 1.384 . S
C292 C293 1.381 . S
C292 H313 0.930 . S
C293 C292 1.381 . S
C293 C295 1.381 . S
C293 C296 1.487 . S
C294 C291 1.382 . S
C294 C295 1.387 . S
C294 H314 0.930 . S
C295 C293 1.381 . S
C295 C294 1.387 . S
C295 H315 0.931 . S
C296 C293 1.487 . S
C296 C303 1.399 . S
C296 N321 1.343 . S
C297 C298 1.384 . S
C297 C299 1.384 . S
C297 H316 0.931 . S
C298 C297 1.384 . S
C298 C301 1.382 . S
C299 C297 1.384 . S
C299 C300 1.381 . S
C299 H317 0.930 . S
C300 C299 1.381 . S
C300 C302 1.381 . S
C300 C303 1.487 1_556 S
C301 C298 1.382 . S
C301 C302 1.387 . S
C301 H318 0.930 . S
C302 C300 1.381 . S
C302 C301 1.387 . S
C302 H319 0.931 . S
C303 C296 1.399 . S
C303 C300 1.487 1_554 S
C303 N320 1.314 1_554 S
H304 C276 0.931 . S
H305 C278 0.930 . S
H306 C280 0.930 . S
H307 C281 0.931 . S
H308 C283 0.931 . S
H309 C285 0.930 . S
H310 C287 0.930 . S
H311 C288 0.931 . S
H312 C290 0.931 . S
H313 C292 0.930 . S
H314 C294 0.930 . S
H315 C295 0.931 . S
H316 C297 0.931 . S
H317 C299 0.930 . S
H318 C301 0.930 . S
H319 C302 0.931 . S
N320 C282 1.314 1_556 S
N320 C303 1.314 1_556 S
N321 C289 1.343 . S
N321 C296 1.343 . S
C322 C323 1.384 . S
C322 C324 1.384 . S
C322 H350 0.931 . S
C323 C322 1.384 . S
C323 C326 1.382 . S
C324 C322 1.384 . S
C324 C325 1.381 . S
C324 H351 0.930 . S
C325 C324 1.381 . S
C325 C327 1.381 . S
C325 C328 1.487 . S
C326 C323 1.382 . S
C326 C327 1.387 . S
C326 H352 0.930 . S
C327 C325 1.381 . S
C327 C326 1.387 . S
C327 H353 0.931 . S
C328 C325 1.487 . S
C328 C335 1.399 . S
C328 N366 1.343 1_655 S
C329 C330 1.384 . S
C329 C331 1.384 . S
C329 H354 0.931 . S
C330 C329 1.384 . S
C330 C333 1.382 . S
C331 C329 1.384 . S
C331 C332 1.381 . S
C331 H355 0.930 . S
C332 C331 1.381 . S
C332 C334 1.381 . S
C332 C335 1.487 . S
C333 C330 1.382 . S
C333 C334 1.387 . S
C333 H356 0.930 . S
C334 C332 1.381 . S
C334 C333 1.387 . S
C334 H357 0.931 . S
C335 C328 1.399 . S
C335 C332 1.487 . S
C335 N367 1.343 1_655 S
C336 C337 1.384 . S
C336 C338 1.384 . S
C336 H358 0.931 . S
C337 C336 1.384 . S
C337 C340 1.382 . S
C338 C336 1.384 . S
C338 C339 1.381 . S
C338 H359 0.930 . S
C339 C338 1.381 . S
C339 C341 1.381 . S
C339 C342 1.487 . S
C340 C337 1.382 . S
C340 C341 1.387 . S
C340 H360 0.930 . S
C341 C339 1.381 . S
C341 C340 1.387 . S
C341 H361 0.931 . S
C342 C339 1.487 . S
C342 C349 1.399 . S
C342 N367 1.343 . S
C343 C344 1.384 . S
C343 C345 1.384 . S
C343 H362 0.931 . S
C344 C343 1.384 . S
C344 C347 1.382 . S
C345 C343 1.384 . S
C345 C346 1.381 . S
C345 H363 0.930 . S
C346 C345 1.381 . S
C346 C348 1.381 . S
C346 C349 1.487 . S
C347 C344 1.382 . S
C347 C348 1.387 . S
C347 H364 0.930 . S
C348 C346 1.381 . S
C348 C347 1.387 . S
C348 H365 0.931 . S
C349 C342 1.399 . S
C349 C346 1.487 . S
C349 N366 1.343 . S
H350 C322 0.931 . S
H351 C324 0.930 . S
H352 C326 0.930 . S
H353 C327 0.931 . S
H354 C329 0.931 . S
H355 C331 0.930 . S
H356 C333 0.930 . S
H357 C334 0.931 . S
H358 C336 0.931 . S
H359 C338 0.930 . S
H360 C340 0.930 . S
H361 C341 0.931 . S
H362 C343 0.931 . S
H363 C345 0.930 . S
H364 C347 0.930 . S
H365 C348 0.931 . S
N366 C328 1.343 1_455 S
N366 C349 1.343 . S
N367 C335 1.343 1_455 S
N367 C342 1.343 . S
Fe368 O369 1.886 . S
Fe368 O372 1.715 1_455 S
Fe368 O377 2.077 . S
Fe368 O382 1.935 1_455 S
Fe368 O388 2.077 . S
Fe368 O397 1.935 1_455 S
O369 Fe368 1.886 . S
O369 Fe371 1.715 . S
Fe370 O372 1.886 . S
Fe370 O373 1.715 . S
Fe370 O380 1.935 . S
Fe370 O381 2.077 . S
Fe370 O387 1.935 . S
Fe370 O396 2.077 . S
Fe371 O369 1.715 . S
Fe371 O374 1.886 . S
Fe371 O378 1.935 . S
Fe371 O383 2.077 . S
Fe371 O389 1.935 . S
Fe371 O393 2.077 . S
O372 Fe368 1.715 1_655 S
O372 Fe370 1.886 . S
O373 Fe370 1.715 . S
O373 Fe375 1.904 . S
O374 Fe371 1.886 . S
O374 Fe375 1.696 1_455 S
Fe375 O373 1.904 . S
Fe375 O374 1.696 1_655 S
Fe375 O379 2.094 . S
Fe375 O384 1.921 1_655 S
Fe375 O386 2.094 . S
Fe375 O394 1.921 1_655 S
C376 O388 1.381 . S
C376 O389 1.421 . S
O377 Fe368 2.077 . S
O377 C390 1.381 . S
O378 Fe371 1.935 . S
O378 C390 1.421 . S
O379 Fe375 2.094 . S
O379 C395 1.381 . S
O380 Fe370 1.935 . S
O380 C395 1.421 . S
O381 Fe370 2.077 . S
O381 C385 1.381 . S
O382 Fe368 1.935 1_655 S
O382 C385 1.421 . S
O383 Fe371 2.077 . S
O383 C391 1.381 . S
O384 Fe375 1.921 1_455 S
O384 C391 1.421 . S
C385 O381 1.381 . S
C385 O382 1.421 . S
O386 Fe375 2.094 . S
O386 C398 1.381 . S
O387 Fe370 1.935 . S
O387 C398 1.421 . S
O388 Fe368 2.077 . S
O388 C376 1.381 . S
O389 Fe371 1.935 . S
O389 C376 1.421 . S
C390 O377 1.381 . S
C390 O378 1.421 . S
C391 O383 1.381 . S
C391 O384 1.421 . S
C392 O393 1.381 . S
C392 O394 1.421 . S
O393 Fe371 2.077 . S
O393 C392 1.381 . S
O394 Fe375 1.921 1_455 S
O394 C392 1.421 . S
C395 O379 1.381 . S
C395 O380 1.421 . S
O396 Fe370 2.077 . S
O396 C399 1.381 . S
O397 Fe368 1.935 1_655 S
O397 C399 1.421 . S
C398 O386 1.381 . S
C398 O387 1.421 . S
C399 O396 1.381 . S
C399 O397 1.421 . S
Fe400 O401 1.886 . S
Fe400 O404 1.715 . S
Fe400 O409 2.077 . S
Fe400 O414 1.935 . S
Fe400 O420 2.077 . S
Fe400 O429 1.935 . S
O401 Fe400 1.886 . S
O401 Fe403 1.715 . S
Fe402 O404 1.886 . S
Fe402 O405 1.715 . S
Fe402 O412 1.935 . S
Fe402 O413 2.077 . S
Fe402 O419 1.935 . S
Fe402 O428 2.077 . S
Fe403 O401 1.715 . S
Fe403 O406 1.886 . S
Fe403 O410 1.935 . S
Fe403 O415 2.077 . S
Fe403 O421 1.935 . S
Fe403 O425 2.077 . S
O404 Fe400 1.715 . S
O404 Fe402 1.886 . S
O405 Fe402 1.715 . S
O405 Fe407 1.886 . S
O406 Fe403 1.886 . S
O406 Fe407 1.715 . S
Fe407 O405 1.886 . S
Fe407 O406 1.715 . S
Fe407 O411 2.077 . S
Fe407 O416 1.935 . S
Fe407 O418 2.077 . S
Fe407 O426 1.935 . S
C408 O420 1.381 . S
C408 O421 1.421 . S
O409 Fe400 2.077 . S
O409 C422 1.381 . S
O410 Fe403 1.935 . S
O410 C422 1.421 . S
O411 Fe407 2.077 . S
O411 C427 1.381 . S
O412 Fe402 1.935 . S
O412 C427 1.421 . S
O413 Fe402 2.077 . S
O413 C417 1.381 . S
O414 Fe400 1.935 . S
O414 C417 1.421 . S
O415 Fe403 2.077 . S
O415 C423 1.381 . S
O416 Fe407 1.935 . S
O416 C423 1.421 . S
C417 O413 1.381 . S
C417 O414 1.421 . S
O418 Fe407 2.077 . S
O418 C430 1.381 . S
O419 Fe402 1.935 . S
O419 C430 1.421 . S
O420 Fe400 2.077 . S
O420 C408 1.381 . S
O421 Fe403 1.935 . S
O421 C408 1.421 . S
C422 O409 1.381 . S
C422 O410 1.421 . S
C423 O415 1.381 . S
C423 O416 1.421 . S
C424 O425 1.381 . S
C424 O426 1.421 . S
O425 Fe403 2.077 . S
O425 C424 1.381 . S
O426 Fe407 1.935 . S
O426 C424 1.421 . S
C427 O411 1.381 . S
C427 O412 1.421 . S
O428 Fe402 2.077 . S
O428 C431 1.381 . S
O429 Fe400 1.935 . S
O429 C431 1.421 . S
C430 O418 1.381 . S
C430 O419 1.421 . S
C431 O428 1.381 . S
C431 O429 1.421 . S
Fe432 O433 1.886 . S
Fe432 O436 1.715 . S
Fe432 O441 2.077 . S
Fe432 O446 1.935 . S
Fe432 O452 2.077 . S
Fe432 O461 1.935 . S
O433 Fe432 1.886 . S
O433 Fe435 1.715 . S
Fe434 O436 1.886 . S
Fe434 O437 1.715 . S
Fe434 O444 1.935 . S
Fe434 O445 2.077 . S
Fe434 O451 1.935 . S
Fe434 O460 2.077 . S
Fe435 O433 1.715 . S
Fe435 O438 1.886 . S
Fe435 O442 1.935 . S
Fe435 O447 2.077 . S
Fe435 O453 1.935 . S
Fe435 O457 2.077 . S
O436 Fe432 1.715 . S
O436 Fe434 1.886 . S
O437 Fe434 1.715 . S
O437 Fe439 1.886 . S
O438 Fe435 1.886 . S
O438 Fe439 1.715 . S
Fe439 O437 1.886 . S
Fe439 O438 1.715 . S
Fe439 O443 2.077 . S
Fe439 O448 1.935 . S
Fe439 O450 2.077 . S
Fe439 O458 1.935 . S
C440 O452 1.381 . S
C440 O453 1.421 . S
O441 Fe432 2.077 . S
O441 C454 1.381 . S
O442 Fe435 1.935 . S
O442 C454 1.421 . S
O443 Fe439 2.077 . S
O443 C459 1.381 . S
O444 Fe434 1.935 . S
O444 C459 1.421 . S
O445 Fe434 2.077 . S
O445 C449 1.381 . S
O446 Fe432 1.935 . S
O446 C449 1.421 . S
O447 Fe435 2.077 . S
O447 C455 1.381 . S
O448 Fe439 1.935 . S
O448 C455 1.421 . S
C449 O445 1.381 . S
C449 O446 1.421 . S
O450 Fe439 2.077 . S
O450 C462 1.381 . S
O451 Fe434 1.935 . S
O451 C462 1.421 . S
O452 Fe432 2.077 . S
O452 C440 1.381 . S
O453 Fe435 1.935 . S
O453 C440 1.421 . S
C454 O441 1.381 . S
C454 O442 1.421 . S
C455 O447 1.381 . S
C455 O448 1.421 . S
C456 O457 1.381 . S
C456 O458 1.421 . S
O457 Fe435 2.077 . S
O457 C456 1.381 . S
O458 Fe439 1.935 . S
O458 C456 1.421 . S
C459 O443 1.381 . S
C459 O444 1.421 . S
O460 Fe434 2.077 . S
O460 C463 1.381 . S
O461 Fe432 1.935 . S
O461 C463 1.421 . S
C462 O450 1.381 . S
C462 O451 1.421 . S
C463 O460 1.381 . S
C463 O461 1.421 . S
Fe464 O465 1.886 . S
Fe464 O468 1.715 . S
Fe464 O473 2.077 1_455 S
Fe464 O478 1.935 1_455 S
Fe464 O484 2.077 . S
Fe464 O493 1.935 . S
O465 Fe464 1.886 . S
O465 Fe467 1.715 . S
Fe466 O468 1.886 . S
Fe466 O469 1.715 . S
Fe466 O476 1.935 1_455 S
Fe466 O477 2.077 1_455 S
Fe466 O483 1.935 . S
Fe466 O492 2.077 . S
Fe467 O465 1.715 . S
Fe467 O470 1.886 . S
Fe467 O474 1.935 1_455 S
Fe467 O479 2.077 1_455 S
Fe467 O485 1.935 . S
Fe467 O489 2.077 . S
O468 Fe464 1.715 . S
O468 Fe466 1.886 . S
O469 Fe466 1.715 . S
O469 Fe471 1.886 . S
O470 Fe467 1.886 . S
O470 Fe471 1.715 . S
Fe471 O469 1.886 . S
Fe471 O470 1.715 . S
Fe471 O475 2.077 1_455 S
Fe471 O480 1.935 1_455 S
Fe471 O482 2.077 . S
Fe471 O490 1.935 . S
C472 O484 1.381 . S
C472 O485 1.421 . S
O473 Fe464 2.077 1_655 S
O473 C486 1.381 . S
O474 Fe467 1.935 1_655 S
O474 C486 1.421 . S
O475 Fe471 2.077 1_655 S
O475 C491 1.381 . S
O476 Fe466 1.935 1_655 S
O476 C491 1.421 . S
O477 Fe466 2.077 1_655 S
O477 C481 1.381 . S
O478 Fe464 1.935 1_655 S
O478 C481 1.421 . S
O479 Fe467 2.077 1_655 S
O479 C487 1.381 . S
O480 Fe471 1.935 1_655 S
O480 C487 1.421 . S
C481 O477 1.381 . S
C481 O478 1.421 . S
O482 Fe471 2.077 . S
O482 C494 1.381 . S
O483 Fe466 1.935 . S
O483 C494 1.421 . S
O484 Fe464 2.077 . S
O484 C472 1.381 . S
O485 Fe467 1.935 . S
O485 C472 1.421 . S
C486 O473 1.381 . S
C486 O474 1.421 . S
C487 O479 1.381 . S
C487 O480 1.421 . S
C488 O489 1.381 . S
C488 O490 1.421 . S
O489 Fe467 2.077 . S
O489 C488 1.381 . S
O490 Fe471 1.935 . S
O490 C488 1.421 . S
C491 O475 1.381 . S
C491 O476 1.421 . S
O492 Fe466 2.077 . S
O492 C495 1.381 . S
O493 Fe464 1.935 . S
O493 C495 1.421 . S
C494 O482 1.381 . S
C494 O483 1.421 . S
C495 O492 1.381 . S
C495 O493 1.421 . S
C496 C497 1.349 . S
C496 C498 1.327 . S
C496 H521 0.950 . S
C497 C496 1.349 . S
C497 C513 1.349 . S
C498 C496 1.327 . S
C498 C517 1.429 . S
C498 H522 0.950 . S
C499 C516 1.574 . S
C499 C518 1.368 . S
C499 H523 0.949 . S
H500 C504 0.949 . S
C501 C502 1.349 . S
C501 C503 1.327 . S
C501 H524 0.950 . S
C502 C501 1.349 . S
C502 C514 1.349 . S
C503 C501 1.327 . S
C503 C519 1.429 . S
C503 H525 0.950 . S
C504 H500 0.949 . S
C504 C512 1.574 . S
C504 C520 1.368 . S
H505 C513 0.969 . S
H506 C511 0.950 . S
H507 C512 0.949 . S
H508 C514 0.950 . S
H509 C515 0.950 . S
H510 C516 0.949 . S
C511 H506 0.950 . S
C511 C513 1.327 . S
C511 C517 1.429 . S
C512 C504 1.574 . S
C512 H507 0.949 . S
C512 C518 1.368 . S
C513 C497 1.349 . S
C513 H505 0.969 . S
C513 C511 1.327 . S
C514 C502 1.349 . S
C514 H508 0.950 . S
C514 C515 1.327 . S
C515 H509 0.950 . S
C515 C514 1.327 . S
C515 C519 1.429 . S
C516 C499 1.574 . S
C516 H510 0.949 . S
C516 C520 1.368 . S
C517 C498 1.429 . S
C517 C511 1.429 . S
C517 C518 1.523 . S
C518 C499 1.368 . S
C518 C512 1.368 . S
C518 C517 1.523 . S
C519 C503 1.429 . S
C519 C515 1.429 . S
C519 C520 1.523 . S
C520 C504 1.368 . S
C520 C516 1.368 . S
C520 C519 1.523 . S
H521 C496 0.950 . S
H522 C498 0.950 . S
H523 C499 0.949 . S
H524 C501 0.950 . S
H525 C503 0.950 . S
C526 C527 1.349 . S
C526 C528 1.327 . S
C526 H551 0.950 . S
C527 C526 1.349 . S
C527 C543 1.349 . S
C528 C526 1.327 . S
C528 C547 1.429 . S
C528 H552 0.950 . S
C529 C546 1.574 . S
C529 C548 1.368 . S
C529 H553 0.949 . S
H530 C534 0.949 . S
C531 C532 1.349 . S
C531 C533 1.327 . S
C531 H554 0.950 . S
C532 C531 1.349 . S
C532 C544 1.349 . S
C533 C531 1.327 . S
C533 C549 1.429 . S
C533 H555 0.950 . S
C534 H530 0.949 . S
C534 C542 1.574 . S
C534 C550 1.368 . S
H535 C543 0.950 . S
H536 C541 0.950 1_545 S
H537 C542 0.949 1_565 S
H538 C544 0.950 . S
H539 C545 0.950 . S
H540 C546 0.949 . S
C541 H536 0.950 1_565 S
C541 C543 1.327 . S
C541 C547 1.429 . S
C542 C534 1.574 . S
C542 H537 0.949 1_545 S
C542 C548 1.368 . S
C543 C527 1.349 . S
C543 H535 0.950 . S
C543 C541 1.327 . S
C544 C532 1.349 . S
C544 H538 0.950 . S
C544 C545 1.327 . S
C545 H539 0.950 . S
C545 C544 1.327 . S
C545 C549 1.429 . S
C546 C529 1.574 . S
C546 H540 0.949 . S
C546 C550 1.368 . S
C547 C528 1.429 . S
C547 C541 1.429 . S
C547 C548 1.523 1_565 S
C548 C529 1.368 . S
C548 C542 1.368 . S
C548 C547 1.523 1_545 S
C549 C533 1.429 . S
C549 C545 1.429 . S
C549 C550 1.523 . S
C550 C534 1.368 . S
C550 C546 1.368 . S
C550 C549 1.523 . S
H551 C526 0.950 . S
H552 C528 0.950 . S
H553 C529 0.949 . S
H554 C531 0.950 . S
H555 C533 0.950 . S
C556 C557 1.349 . S
C556 C558 1.327 . S
C556 H581 0.950 . S
C557 C556 1.349 . S
C557 C573 1.349 . S
C558 C556 1.327 . S
C558 C577 1.429 . S
C558 H582 0.950 . S
C559 C576 1.574 . S
C559 C578 1.368 . S
C559 H583 0.949 . S
H560 C564 0.949 . S
C561 C562 1.349 . S
C561 C563 1.327 . S
C561 H584 0.950 . S
C562 C561 1.349 . S
C562 C574 1.349 . S
C563 C561 1.327 . S
C563 C579 1.429 . S
C563 H585 0.950 . S
C564 H560 0.949 . S
C564 C572 1.574 . S
C564 C580 1.368 . S
H565 C573 0.950 . S
H566 C571 0.950 . S
H567 C572 0.949 . S
H568 C574 0.950 . S
H569 C575 0.950 . S
H570 C576 0.949 . S
C571 H566 0.950 . S
C571 C573 1.327 . S
C571 C577 1.429 . S
C572 C564 1.574 . S
C572 H567 0.949 . S
C572 C578 1.368 . S
C573 C557 1.349 . S
C573 H565 0.950 . S
C573 C571 1.327 . S
C574 C562 1.349 . S
C574 H568 0.950 . S
C574 C575 1.327 . S
C575 H569 0.950 . S
C575 C574 1.327 . S
C575 C579 1.429 . S
C576 C559 1.574 . S
C576 H570 0.949 . S
C576 C580 1.368 . S
C577 C558 1.429 . S
C577 C571 1.429 . S
C577 C578 1.523 . S
C578 C559 1.368 . S
C578 C572 1.368 . S
C578 C577 1.523 . S
C579 C563 1.429 . S
C579 C575 1.429 . S
C579 C580 1.523 . S
C580 C564 1.368 . S
C580 C576 1.368 . S
C580 C579 1.523 . S
H581 C556 0.950 . S
H582 C558 0.950 . S
H583 C559 0.949 . S
H584 C561 0.950 . S
H585 C563 0.950 . S
C586 C587 1.349 . S
C586 C588 1.327 . S
C586 H611 0.950 . S
C587 C586 1.349 . S
C587 C603 1.349 . S
C588 C586 1.327 . S
C588 C607 1.429 . S
C588 H612 0.950 . S
C589 C606 1.574 . S
C589 C608 1.373 . S
C589 H613 0.949 . S
H590 C594 0.949 . S
C591 C592 1.349 . S
C591 C593 1.327 . S
C591 H614 0.950 . S
C592 C591 1.349 . S
C592 C604 1.349 . S
C593 C591 1.327 . S
C593 C609 1.429 . S
C593 H615 0.950 . S
C594 H590 0.949 . S
C594 C602 1.574 . S
C594 C610 1.368 . S
H595 C603 0.950 . S
H596 C601 0.950 . S
H597 C602 0.949 1_545 S
H598 C604 0.950 . S
H599 C605 0.950 . S
H600 C606 0.949 . S
C601 H596 0.950 . S
C601 C603 1.327 . S
C601 C607 1.429 . S
C602 C594 1.574 . S
C602 H597 0.949 1_565 S
C602 C608 1.369 . S
C603 C587 1.349 . S
C603 H595 0.950 . S
C603 C601 1.327 . S
C604 C592 1.349 . S
C604 H598 0.950 . S
C604 C605 1.327 . S
C605 H599 0.950 . S
C605 C604 1.327 . S
C605 C609 1.429 . S
C606 C589 1.574 . S
C606 H600 0.949 . S
C606 C610 1.368 . S
C607 C588 1.429 . S
C607 C601 1.429 . S
C607 C608 1.516 1_545 S
C608 C589 1.373 . S
C608 C602 1.369 . S
C608 C607 1.516 1_565 S
C609 C593 1.429 . S
C609 C605 1.429 . S
C609 C610 1.523 . S
C610 C594 1.368 . S
C610 C606 1.368 . S
C610 C609 1.523 . S
H611 C586 0.950 . S
H612 C588 0.950 . S
H613 C589 0.949 . S
H614 C591 0.950 . S
H615 C593 0.950 . S
C616 C617 1.349 . S
C616 C618 1.327 . S
C616 H641 0.950 . S
C617 C616 1.349 . S
C617 C633 1.349 . S
C618 C616 1.327 . S
C618 C637 1.429 . S
C618 H642 0.950 . S
C619 C636 1.574 . S
C619 C638 1.368 . S
C619 H643 0.949 . S
H620 C624 0.949 . S
C621 C622 1.349 . S
C621 C623 1.327 . S
C621 H644 0.950 . S
C622 C621 1.349 . S
C622 C634 1.349 . S
C623 C621 1.327 . S
C623 C639 1.429 . S
C623 H645 0.950 . S
C624 H620 0.949 . S
C624 C632 1.574 . S
C624 C640 1.368 . S
H625 C633 0.950 . S
H626 C631 0.950 . S
H627 C632 0.949 . S
H628 C634 0.950 . S
H629 C635 0.950 . S
H630 C636 0.949 . S
C631 H626 0.950 . S
C631 C633 1.327 . S
C631 C637 1.429 . S
C632 C624 1.574 . S
C632 H627 0.949 . S
C632 C638 1.368 . S
C633 C617 1.349 . S
C633 H625 0.950 . S
C633 C631 1.327 . S
C634 C622 1.349 . S
C634 H628 0.950 . S
C634 C635 1.327 . S
C635 H629 0.950 . S
C635 C634 1.327 . S
C635 C639 1.429 . S
C636 C619 1.574 . S
C636 H630 0.949 . S
C636 C640 1.368 . S
C637 C618 1.429 . S
C637 C631 1.429 . S
C637 C638 1.523 . S
C638 C619 1.368 . S
C638 C632 1.368 . S
C638 C637 1.523 . S
C639 C623 1.429 . S
C639 C635 1.429 . S
C639 C640 1.523 . S
C640 C624 1.368 . S
C640 C636 1.368 . S
C640 C639 1.523 . S
H641 C616 0.950 . S
H642 C618 0.950 . S
H643 C619 0.949 . S
H644 C621 0.950 . S
H645 C623 0.950 . S
C646 C647 1.349 . S
C646 C648 1.327 . S
C646 H671 0.950 . S
C647 C646 1.349 . S
C647 C663 1.349 . S
C648 C646 1.327 . S
C648 C667 1.429 . S
C648 H672 0.950 . S
C649 C666 1.574 . S
C649 C668 1.368 . S
C649 H673 0.949 . S
H650 C654 0.949 . S
C651 C652 1.349 . S
C651 C653 1.327 . S
C651 H674 0.950 . S
C652 C651 1.349 . S
C652 C664 1.349 . S
C653 C651 1.327 . S
C653 C669 1.429 . S
C653 H675 0.950 . S
C654 H650 0.949 . S
C654 C662 1.574 . S
C654 C670 1.368 . S
H655 C663 0.950 . S
H656 C661 0.950 1_545 S
H657 C662 0.949 1_565 S
H658 C664 0.950 . S
H659 C665 0.950 . S
H660 C666 0.949 . S
C661 H656 0.950 1_565 S
C661 C663 1.327 . S
C661 C667 1.429 . S
C662 C654 1.574 . S
C662 H657 0.949 1_545 S
C662 C668 1.368 . S
C663 C647 1.349 . S
C663 H655 0.950 . S
C663 C661 1.327 . S
C664 C652 1.349 . S
C664 H658 0.950 . S
C664 C665 1.327 . S
C665 H659 0.950 . S
C665 C664 1.327 . S
C665 C669 1.429 . S
C666 C649 1.574 . S
C666 H660 0.949 . S
C666 C670 1.368 . S
C667 C648 1.429 . S
C667 C661 1.429 . S
C667 C668 1.523 1_565 S
C668 C649 1.368 . S
C668 C662 1.368 . S
C668 C667 1.523 1_545 S
C669 C653 1.429 . S
C669 C665 1.429 . S
C669 C670 1.523 . S
C670 C654 1.368 . S
C670 C666 1.368 . S
C670 C669 1.523 . S
H671 C646 0.950 . S
H672 C648 0.950 . S
H673 C649 0.949 . S
H674 C651 0.950 . S
H675 C653 0.950 . S
C676 C677 1.349 . S
C676 C678 1.327 . S
C676 H701 0.950 . S
C677 C676 1.349 . S
C677 C693 1.349 . S
C678 C676 1.327 . S
C678 C697 1.429 . S
C678 H702 0.950 . S
C679 C696 1.574 . S
C679 C698 1.368 . S
C679 H703 0.949 . S
H680 C684 0.949 . S
C681 C682 1.349 . S
C681 C683 1.327 . S
C681 H704 0.950 . S
C682 C681 1.349 . S
C682 C694 1.349 . S
C683 C681 1.327 . S
C683 C699 1.429 . S
C683 H705 0.950 . S
C684 H680 0.949 . S
C684 C692 1.574 . S
C684 C700 1.368 . S
H685 C693 0.950 . S
H686 C691 0.950 . S
H687 C692 0.949 . S
H688 C694 0.950 . S
H689 C695 0.950 . S
H690 C696 0.949 . S
C691 H686 0.950 . S
C691 C693 1.327 . S
C691 C697 1.429 . S
C692 C684 1.574 . S
C692 H687 0.949 . S
C692 C698 1.368 . S
C693 C677 1.349 . S
C693 H685 0.950 . S
C693 C691 1.327 . S
C694 C682 1.349 . S
C694 H688 0.950 . S
C694 C695 1.327 . S
C695 H689 0.950 . S
C695 C694 1.327 . S
C695 C699 1.429 . S
C696 C679 1.574 . S
C696 H690 0.949 . S
C696 C700 1.368 . S
C697 C678 1.429 . S
C697 C691 1.429 . S
C697 C698 1.523 . S
C698 C679 1.368 . S
C698 C692 1.368 . S
C698 C697 1.523 . S
C699 C683 1.429 . S
C699 C695 1.429 . S
C699 C700 1.523 . S
C700 C684 1.368 . S
C700 C696 1.368 . S
C700 C699 1.523 . S
H701 C676 0.950 . S
H702 C678 0.950 . S
H703 C679 0.949 . S
H704 C681 0.950 . S
H705 C683 0.950 . S
C706 C707 1.349 . S
C706 C708 1.327 . S
C706 H731 0.950 . S
C707 C706 1.349 . S
C707 C723 1.349 . S
C708 C706 1.327 . S
C708 C727 1.429 . S
C708 H732 0.950 . S
C709 C726 1.574 . S
C709 C728 1.365 1_565 S
C709 H733 0.949 1_565 S
H710 C714 0.949 . S
C711 C712 1.349 . S
C711 C713 1.327 . S
C711 H734 0.950 . S
C712 C711 1.349 . S
C712 C724 1.349 . S
C713 C711 1.327 . S
C713 C729 1.429 . S
C713 H735 0.950 . S
C714 H710 0.949 . S
C714 C722 1.574 . S
C714 C730 1.368 . S
H715 C723 0.950 . S
H716 C721 0.950 . S
H717 C722 0.949 . S
H718 C724 0.950 . S
H719 C725 0.950 . S
H720 C726 0.949 . S
C721 H716 0.950 . S
C721 C723 1.327 . S
C721 C727 1.429 . S
C722 C714 1.574 . S
C722 H717 0.949 . S
C722 C728 1.364 1_565 S
C723 C707 1.349 . S
C723 H715 0.950 . S
C723 C721 1.327 . S
C724 C712 1.349 . S
C724 H718 0.950 . S
C724 C725 1.327 . S
C725 H719 0.950 . S
C725 C724 1.327 . S
C725 C729 1.429 . S
C726 C709 1.574 . S
C726 H720 0.949 . S
C726 C730 1.368 . S
C727 C708 1.429 . S
C727 C721 1.429 . S
C727 C728 1.533 . S
C728 C709 1.365 1_545 S
C728 C722 1.364 1_545 S
C728 C727 1.533 . S
C729 C713 1.429 . S
C729 C725 1.429 . S
C729 C730 1.523 . S
C730 C714 1.368 . S
C730 C726 1.368 . S
C730 C729 1.523 . S
H731 C706 0.950 . S
H732 C708 0.950 . S
H733 C709 0.949 1_545 S
H734 C711 0.950 . S
H735 C713 0.950 . S
C736 C737 1.349 . S
C736 C738 1.327 . S
C736 H761 0.950 . S
C737 C736 1.349 . S
C737 C753 1.349 . S
C738 C736 1.327 . S
C738 C757 1.429 . S
C738 H762 0.950 . S
C739 C756 1.574 . S
C739 C758 1.368 . S
C739 H763 0.949 . S
H740 C744 0.949 . S
C741 C742 1.349 . S
C741 C743 1.327 . S
C741 H764 0.950 . S
C742 C741 1.349 . S
C742 C754 1.349 . S
C743 C741 1.327 . S
C743 C759 1.429 . S
C743 H765 0.950 . S
C744 H740 0.949 . S
C744 C752 1.574 . S
C744 C760 1.368 . S
H745 C753 0.950 . S
H746 C751 0.950 . S
H747 C752 0.949 . S
H748 C754 0.950 . S
H749 C755 0.950 . S
H750 C756 0.949 . S
C751 H746 0.950 . S
C751 C753 1.327 . S
C751 C757 1.429 . S
C752 C744 1.574 . S
C752 H747 0.949 . S
C752 C758 1.368 . S
C753 C737 1.349 . S
C753 H745 0.950 . S
C753 C751 1.327 . S
C754 C742 1.349 . S
C754 H748 0.950 . S
C754 C755 1.327 . S
C755 H749 0.950 . S
C755 C754 1.327 . S
C755 C759 1.429 . S
C756 C739 1.574 . S
C756 H750 0.949 . S
C756 C760 1.368 . S
C757 C738 1.429 . S
C757 C751 1.429 . S
C757 C758 1.523 . S
C758 C739 1.368 . S
C758 C752 1.368 . S
C758 C757 1.523 . S
C759 C743 1.429 . S
C759 C755 1.429 . S
C759 C760 1.523 . S
C760 C744 1.368 . S
C760 C756 1.368 . S
C760 C759 1.523 . S
H761 C736 0.950 . S
H762 C738 0.950 . S
H763 C739 0.949 . S
H764 C741 0.950 . S
H765 C743 0.950 . S
C766 C767 1.349 . S
C766 C768 1.327 . S
C766 H791 0.950 . S
C767 C766 1.349 . S
C767 C783 1.349 . S
C768 C766 1.327 . S
C768 C787 1.429 . S
C768 H792 0.950 . S
C769 C786 1.574 . S
C769 C788 1.357 1_565 S
C769 H793 0.949 . S
H770 C774 0.949 . S
C771 C772 1.349 . S
C771 C773 1.327 . S
C771 H794 0.950 . S
C772 C771 1.349 . S
C772 C784 1.349 . S
C773 C771 1.327 . S
C773 C789 1.429 . S
C773 H795 0.950 . S
C774 H770 0.949 . S
C774 C782 1.574 1_565 S
C774 C790 1.368 . S
H775 C783 0.950 . S
H776 C781 0.950 . S
H777 C782 0.949 . S
H778 C784 0.950 . S
H779 C785 0.950 . S
H780 C786 0.949 . S
C781 H776 0.950 . S
C781 C783 1.327 . S
C781 C787 1.429 . S
C782 C774 1.574 1_545 S
C782 H777 0.949 . S
C782 C788 1.372 . S
C783 C767 1.349 . S
C783 H775 0.950 . S
C783 C781 1.327 . S
C784 C772 1.349 . S
C784 H778 0.950 . S
C784 C785 1.327 . S
C785 H779 0.950 . S
C785 C784 1.327 . S
C785 C789 1.429 . S
C786 C769 1.574 . S
C786 H780 0.949 . S
C786 C790 1.368 . S
C787 C768 1.429 . S
C787 C781 1.429 . S
C787 C788 1.533 . S
C788 C769 1.357 1_545 S
C788 C782 1.372 . S
C788 C787 1.533 . S
C789 C773 1.429 . S
C789 C785 1.429 . S
C789 C790 1.523 . S
C790 C774 1.368 . S
C790 C786 1.368 . S
C790 C789 1.523 . S
H791 C766 0.950 . S
H792 C768 0.950 . S
H793 C769 0.949 . S
H794 C771 0.950 . S
H795 C773 0.950 . S
C796 C797 1.349 . S
C796 C798 1.327 . S
C796 H821 0.950 . S
C797 C796 1.349 . S
C797 C813 1.349 . S
C798 C796 1.327 . S
C798 C817 1.429 . S
C798 H822 0.950 . S
C799 C816 1.574 . S
C799 C818 1.368 . S
C799 H823 0.949 . S
H800 C804 0.949 . S
C801 C802 1.349 . S
C801 C803 1.327 . S
C801 H824 0.950 . S
C802 C801 1.349 . S
C802 C814 1.349 . S
C803 C801 1.327 . S
C803 C819 1.429 . S
C803 H825 0.950 . S
C804 H800 0.949 . S
C804 C812 1.574 . S
C804 C820 1.368 . S
H805 C813 0.950 . S
H806 C811 0.950 . S
H807 C812 0.949 . S
H808 C814 0.950 . S
H809 C815 0.950 . S
H810 C816 0.949 . S
C811 H806 0.950 . S
C811 C813 1.327 . S
C811 C817 1.429 . S
C812 C804 1.574 . S
C812 H807 0.949 . S
C812 C818 1.368 . S
C813 C797 1.349 . S
C813 H805 0.950 . S
C813 C811 1.327 . S
C814 C802 1.349 . S
C814 H808 0.950 . S
C814 C815 1.327 . S
C815 H809 0.950 . S
C815 C814 1.327 . S
C815 C819 1.429 . S
C816 C799 1.574 . S
C816 H810 0.949 . S
C816 C820 1.368 . S
C817 C798 1.429 . S
C817 C811 1.429 . S
C817 C818 1.523 . S
C818 C799 1.368 . S
C818 C812 1.368 . S
C818 C817 1.523 . S
C819 C803 1.429 . S
C819 C815 1.429 . S
C819 C820 1.523 . S
C820 C804 1.368 . S
C820 C816 1.368 . S
C820 C819 1.523 . S
H821 C796 0.950 . S
H822 C798 0.950 . S
H823 C799 0.949 . S
H824 C801 0.950 . S
H825 C803 0.950 . S
C826 C827 1.349 . S
C826 C828 1.327 . S
C826 H851 0.950 . S
C827 C826 1.349 . S
C827 C843 1.349 . S
C828 C826 1.327 . S
C828 C847 1.429 . S
C828 H852 0.950 1_565 S
C829 C846 1.574 . S
C829 C848 1.368 . S
C829 H853 0.949 1_545 S
H830 C834 0.949 . S
C831 C832 1.349 . S
C831 C833 1.327 . S
C831 H854 0.950 . S
C832 C831 1.349 . S
C832 C844 1.349 . S
C833 C831 1.327 . S
C833 C849 1.429 . S
C833 H855 0.950 . S
C834 H830 0.949 . S
C834 C842 1.574 . S
C834 C850 1.368 . S
H835 C843 0.950 . S
H836 C841 0.950 . S
H837 C842 0.949 . S
H838 C844 0.950 . S
H839 C845 0.950 . S
H840 C846 0.949 . S
C841 H836 0.950 . S
C841 C843 1.327 . S
C841 C847 1.429 . S
C842 C834 1.574 . S
C842 H837 0.949 . S
C842 C848 1.368 . S
C843 C827 1.349 . S
C843 H835 0.950 . S
C843 C841 1.327 . S
C844 C832 1.349 . S
C844 H838 0.950 . S
C844 C845 1.327 . S
C845 H839 0.950 . S
C845 C844 1.327 . S
C845 C849 1.429 . S
C846 C829 1.574 . S
C846 H840 0.949 . S
C846 C850 1.368 . S
C847 C828 1.429 . S
C847 C841 1.429 . S
C847 C848 1.523 1_565 S
C848 C829 1.368 . S
C848 C842 1.368 . S
C848 C847 1.523 1_545 S
C849 C833 1.429 . S
C849 C845 1.429 . S
C849 C850 1.523 . S
C850 C834 1.368 . S
C850 C846 1.368 . S
C850 C849 1.523 . S
H851 C826 0.950 . S
H852 C828 0.950 1_545 S
H853 C829 0.949 1_565 S
H854 C831 0.950 . S
H855 C833 0.950 . S
C856 C857 1.349 . S
C856 C858 1.327 . S
C856 H881 0.950 . S
C857 C856 1.349 . S
C857 C873 1.349 . S
C858 C856 1.327 . S
C858 C877 1.429 . S
C858 H882 0.950 . S
C859 C876 1.574 . S
C859 C878 1.368 . S
C859 H883 0.949 . S
H860 C864 0.949 . S
C861 C862 1.349 . S
C861 C863 1.327 . S
C861 H884 0.950 . S
C862 C861 1.349 . S
C862 C874 1.349 . S
C863 C861 1.327 . S
C863 C879 1.429 . S
C863 H885 0.950 . S
C864 H860 0.949 . S
C864 C872 1.574 . S
C864 C880 1.368 . S
H865 C873 0.950 . S
H866 C871 0.950 . S
H867 C872 0.949 . S
H868 C874 0.950 . S
H869 C875 0.950 . S
H870 C876 0.949 . S
C871 H866 0.950 . S
C871 C873 1.327 . S
C871 C877 1.429 . S
C872 C864 1.574 . S
C872 H867 0.949 . S
C872 C878 1.368 . S
C873 C857 1.349 . S
C873 H865 0.950 . S
C873 C871 1.327 . S
C874 C862 1.349 . S
C874 H868 0.950 . S
C874 C875 1.327 . S
C875 H869 0.950 . S
C875 C874 1.327 . S
C875 C879 1.429 . S
C876 C859 1.574 . S
C876 H870 0.949 . S
C876 C880 1.368 . S
C877 C858 1.429 . S
C877 C871 1.429 . S
C877 C878 1.523 . S
C878 C859 1.368 . S
C878 C872 1.368 . S
C878 C877 1.523 . S
C879 C863 1.429 . S
C879 C875 1.429 . S
C879 C880 1.523 . S
C880 C864 1.368 . S
C880 C876 1.368 . S
C880 C879 1.523 . S
H881 C856 0.950 . S
H882 C858 0.950 . S
H883 C859 0.949 . S
H884 C861 0.950 . S
H885 C863 0.950 . S
C886 C887 1.349 . S
C886 C888 1.327 . S
C886 H911 0.950 . S
C887 C886 1.349 . S
C887 C903 1.349 . S
C888 C886 1.327 . S
C888 C907 1.429 . S
C888 H912 0.950 . S
C889 C906 1.574 1_545 S
C889 C908 1.366 1_545 S
C889 H913 0.949 . S
H890 C894 0.949 . S
C891 C892 1.349 . S
C891 C893 1.327 . S
C891 H914 0.950 . S
C892 C891 1.349 . S
C892 C904 1.349 . S
C893 C891 1.327 . S
C893 C909 1.429 . S
C893 H915 0.950 . S
C894 H890 0.949 . S
C894 C902 1.574 . S
C894 C910 1.368 . S
H895 C903 0.950 . S
H896 C901 0.950 . S
H897 C902 0.949 . S
H898 C904 0.950 . S
H899 C905 0.950 . S
H900 C906 0.949 . S
C901 H896 0.950 . S
C901 C903 1.327 . S
C901 C907 1.429 . S
C902 C894 1.574 . S
C902 H897 0.949 . S
C902 C908 1.377 . S
C903 C887 1.349 . S
C903 H895 0.950 . S
C903 C901 1.327 . S
C904 C892 1.349 . S
C904 H898 0.950 . S
C904 C905 1.327 . S
C905 H899 0.950 . S
C905 C904 1.327 . S
C905 C909 1.429 . S
C906 C889 1.574 1_565 S
C906 H900 0.949 . S
C906 C910 1.368 . S
C907 C888 1.429 . S
C907 C901 1.429 . S
C907 C908 1.516 1_545 S
C908 C889 1.366 1_565 S
C908 C902 1.377 . S
C908 C907 1.516 1_565 S
C909 C893 1.429 . S
C909 C905 1.429 . S
C909 C910 1.523 . S
C910 C894 1.368 . S
C910 C906 1.368 . S
C910 C909 1.523 . S
H911 C886 0.950 . S
H912 C888 0.950 . S
H913 C889 0.949 . S
H914 C891 0.950 . S
H915 C893 0.950 . S
C916 C917 1.349 . S
C916 C918 1.327 . S
C916 H941 0.950 . S
C917 C916 1.349 . S
C917 C933 1.349 . S
C918 C916 1.327 . S
C918 C937 1.429 . S
C918 H942 0.950 . S
C919 C936 1.574 . S
C919 C938 1.368 . S
C919 H943 0.949 . S
H920 C924 0.949 . S
C921 C922 1.349 . S
C921 C923 1.327 . S
C921 H944 0.950 . S
C922 C921 1.349 . S
C922 C934 1.349 . S
C923 C921 1.327 . S
C923 C939 1.429 . S
C923 H945 0.950 . S
C924 H920 0.949 . S
C924 C932 1.574 . S
C924 C940 1.368 . S
H925 C933 0.950 . S
H926 C931 0.950 . S
H927 C932 0.949 . S
H928 C934 0.950 . S
H929 C935 0.950 . S
H930 C936 0.949 . S
C931 H926 0.950 . S
C931 C933 1.327 . S
C931 C937 1.429 . S
C932 C924 1.574 . S
C932 H927 0.949 . S
C932 C938 1.368 . S
C933 C917 1.349 . S
C933 H925 0.950 . S
C933 C931 1.327 . S
C934 C922 1.349 . S
C934 H928 0.950 . S
C934 C935 1.327 . S
C935 H929 0.950 . S
C935 C934 1.327 . S
C935 C939 1.429 . S
C936 C919 1.574 . S
C936 H930 0.949 . S
C936 C940 1.368 . S
C937 C918 1.429 . S
C937 C931 1.429 . S
C937 C938 1.523 . S
C938 C919 1.368 . S
C938 C932 1.368 . S
C938 C937 1.523 . S
C939 C923 1.429 . S
C939 C935 1.429 . S
C939 C940 1.523 . S
C940 C924 1.368 . S
C940 C936 1.368 . S
C940 C939 1.523 . S
H941 C916 0.950 . S
H942 C918 0.950 . S
H943 C919 0.949 . S
H944 C921 0.950 . S
H945 C923 0.950 . S
C946 C947 1.349 . S
C946 C948 1.327 . S
C946 H971 0.950 . S
C947 C946 1.349 . S
C947 C963 1.349 . S
C948 C946 1.327 . S
C948 C967 1.429 . S
C948 H972 0.950 1_565 S
C949 C966 1.574 . S
C949 C968 1.368 . S
C949 H973 0.949 1_545 S
H950 C954 0.949 . S
C951 C952 1.349 . S
C951 C953 1.327 . S
C951 H974 0.950 . S
C952 C951 1.349 . S
C952 C964 1.349 . S
C953 C951 1.327 . S
C953 C969 1.429 . S
C953 H975 0.950 . S
C954 H950 0.949 . S
C954 C962 1.574 . S
C954 C970 1.368 . S
H955 C963 0.950 . S
H956 C961 0.950 . S
H957 C962 0.949 . S
H958 C964 0.950 . S
H959 C965 0.950 . S
H960 C966 0.949 . S
C961 H956 0.950 . S
C961 C963 1.327 . S
C961 C967 1.429 . S
C962 C954 1.574 . S
C962 H957 0.949 . S
C962 C968 1.368 . S
C963 C947 1.349 . S
C963 H955 0.950 . S
C963 C961 1.327 . S
C964 C952 1.349 . S
C964 H958 0.950 . S
C964 C965 1.327 . S
C965 H959 0.950 . S
C965 C964 1.327 . S
C965 C969 1.429 . S
C966 C949 1.574 . S
C966 H960 0.949 . S
C966 C970 1.368 . S
C967 C948 1.429 . S
C967 C961 1.429 . S
C967 C968 1.523 1_565 S
C968 C949 1.368 . S
C968 C962 1.368 . S
C968 C967 1.523 1_545 S
C969 C953 1.429 . S
C969 C965 1.429 . S
C969 C970 1.523 . S
C970 C954 1.368 . S
C970 C966 1.368 . S
C970 C969 1.523 . S
H971 C946 0.950 . S
H972 C948 0.950 1_545 S
H973 C949 0.949 1_565 S
H974 C951 0.950 . S
H975 C953 0.950 . S
C976 C977 1.349 . S
C976 C978 1.327 . S
C976 H1001 0.950 . S
C977 C976 1.349 . S
C977 C993 1.349 . S
C978 C976 1.327 . S
C978 C997 1.429 . S
C978 H1002 0.950 . S
C979 C996 1.574 . S
C979 C998 1.368 . S
C979 H1003 0.949 . S
H980 C984 0.949 . S
C981 C982 1.349 . S
C981 C983 1.327 . S
C981 H1004 0.950 . S
C982 C981 1.349 . S
C982 C994 1.349 . S
C983 C981 1.327 . S
C983 C999 1.429 . S
C983 H1005 0.950 . S
C984 H980 0.949 . S
C984 C992 1.574 . S
C984 C1000 1.368 . S
H985 C993 0.950 . S
H986 C991 0.950 . S
H987 C992 0.949 . S
H988 C994 0.950 . S
H989 C995 0.950 . S
H990 C996 0.949 . S
C991 H986 0.950 . S
C991 C993 1.327 . S
C991 C997 1.429 . S
C992 C984 1.574 . S
C992 H987 0.949 . S
C992 C998 1.368 . S
C993 C977 1.349 . S
C993 H985 0.950 . S
C993 C991 1.327 . S
C994 C982 1.349 . S
C994 H988 0.950 . S
C994 C995 1.327 . S
C995 H989 0.950 . S
C995 C994 1.327 . S
C995 C999 1.429 . S
C996 C979 1.574 . S
C996 H990 0.949 . S
C996 C1000 1.368 . S
C997 C978 1.429 . S
C997 C991 1.429 . S
C997 C998 1.523 . S
C998 C979 1.368 . S
C998 C992 1.368 . S
C998 C997 1.523 . S
C999 C983 1.429 . S
C999 C995 1.429 . S
C999 C1000 1.523 . S
C1000 C984 1.368 . S
C1000 C996 1.368 . S
C1000 C999 1.523 . S
H1001 C976 0.950 . S
H1002 C978 0.950 . S
H1003 C979 0.949 . S
H1004 C981 0.950 . S
H1005 C983 0.950 . S
C1006 C1007 1.349 . S
C1006 C1008 1.327 . S
C1006 H1031 0.950 . S
C1007 C1006 1.349 . S
C1007 C1023 1.349 . S
C1008 C1006 1.327 . S
C1008 C1027 1.429 . S
C1008 H1032 0.950 . S
C1009 C1026 1.574 . S
C1009 C1028 1.368 . S
C1009 H1033 0.949 . S
H1010 C1014 0.949 . S
C1011 C1012 1.349 . S
C1011 C1013 1.327 . S
C1011 H1034 0.950 . S
C1012 C1011 1.349 . S
C1012 C1024 1.349 . S
C1013 C1011 1.327 . S
C1013 C1029 1.429 . S
C1013 H1035 0.950 . S
C1014 H1010 0.949 . S
C1014 C1022 1.574 . S
C1014 C1030 1.368 . S
H1015 C1023 0.950 . S
H1016 C1021 0.950 . S
H1017 C1022 0.949 . S
H1018 C1024 0.950 . S
H1019 C1025 0.950 . S
H1020 C1026 0.949 . S
C1021 H1016 0.950 . S
C1021 C1023 1.327 . S
C1021 C1027 1.429 . S
C1022 C1014 1.574 . S
C1022 H1017 0.949 . S
C1022 C1028 1.368 . S
C1023 C1007 1.349 . S
C1023 H1015 0.950 . S
C1023 C1021 1.327 . S
C1024 C1012 1.349 . S
C1024 H1018 0.950 . S
C1024 C1025 1.327 . S
C1025 H1019 0.950 . S
C1025 C1024 1.327 . S
C1025 C1029 1.429 . S
C1026 C1009 1.574 . S
C1026 H1020 0.949 . S
C1026 C1030 1.368 . S
C1027 C1008 1.429 . S
C1027 C1021 1.429 . S
C1027 C1028 1.523 . S
C1028 C1009 1.368 . S
C1028 C1022 1.368 . S
C1028 C1027 1.523 . S
C1029 C1013 1.429 . S
C1029 C1025 1.429 . S
C1029 C1030 1.523 . S
C1030 C1014 1.368 . S
C1030 C1026 1.368 . S
C1030 C1029 1.523 . S
H1031 C1006 0.950 . S
H1032 C1008 0.950 . S
H1033 C1009 0.949 . S
H1034 C1011 0.950 . S
H1035 C1013 0.950 . S
C1036 C1037 1.349 . S
C1036 C1038 1.327 . S
C1036 H1061 0.950 . S
C1037 C1036 1.349 . S
C1037 C1053 1.349 . S
C1038 C1036 1.327 . S
C1038 C1057 1.429 . S
C1038 H1062 0.950 . S
C1039 C1056 1.574 . S
C1039 C1058 1.368 . S
C1039 H1063 0.949 . S
H1040 C1044 0.949 . S
C1041 C1042 1.349 . S
C1041 C1043 1.327 . S
C1041 H1064 0.950 . S
C1042 C1041 1.349 . S
C1042 C1054 1.349 . S
C1043 C1041 1.327 . S
C1043 C1059 1.429 . S
C1043 H1065 0.950 . S
C1044 H1040 0.949 . S
C1044 C1052 1.574 . S
C1044 C1060 1.368 . S
H1045 C1053 0.950 . S
H1046 C1051 0.950 . S
H1047 C1052 0.949 . S
H1048 C1054 0.950 . S
H1049 C1055 0.950 . S
H1050 C1056 0.949 . S
C1051 H1046 0.950 . S
C1051 C1053 1.327 . S
C1051 C1057 1.429 . S
C1052 C1044 1.574 . S
C1052 H1047 0.949 . S
C1052 C1058 1.368 . S
C1053 C1037 1.349 . S
C1053 H1045 0.950 . S
C1053 C1051 1.327 . S
C1054 C1042 1.349 . S
C1054 H1048 0.950 . S
C1054 C1055 1.327 . S
C1055 H1049 0.950 . S
C1055 C1054 1.327 . S
C1055 C1059 1.429 . S
C1056 C1039 1.574 . S
C1056 H1050 0.949 . S
C1056 C1060 1.368 . S
C1057 C1038 1.429 . S
C1057 C1051 1.429 . S
C1057 C1058 1.523 . S
C1058 C1039 1.368 . S
C1058 C1052 1.368 . S
C1058 C1057 1.523 . S
C1059 C1043 1.429 . S
C1059 C1055 1.429 . S
C1059 C1060 1.523 . S
C1060 C1044 1.368 . S
C1060 C1056 1.368 . S
C1060 C1059 1.523 . S
H1061 C1036 0.950 . S
H1062 C1038 0.950 . S
H1063 C1039 0.949 . S
H1064 C1041 0.950 . S
H1065 C1043 0.950 . S
C1066 C1067 1.349 . S
C1066 C1068 1.327 . S
C1066 H1091 0.950 . S
C1067 C1066 1.349 . S
C1067 C1083 1.349 . S
C1068 C1066 1.327 . S
C1068 C1087 1.429 . S
C1068 H1092 0.950 . S
C1069 C1086 1.574 . S
C1069 C1088 1.368 . S
C1069 H1093 0.949 . S
H1070 C1074 0.949 . S
C1071 C1072 1.349 . S
C1071 C1073 1.327 . S
C1071 H1094 0.950 . S
C1072 C1071 1.349 . S
C1072 C1084 1.349 . S
C1073 C1071 1.327 . S
C1073 C1089 1.429 . S
C1073 H1095 0.950 . S
C1074 H1070 0.949 . S
C1074 C1082 1.574 . S
C1074 C1090 1.368 . S
H1075 C1083 0.950 . S
H1076 C1081 0.950 . S
H1077 C1082 0.949 . S
H1078 C1084 0.950 . S
H1079 C1085 0.950 . S
H1080 C1086 0.949 . S
C1081 H1076 0.950 . S
C1081 C1083 1.327 . S
C1081 C1087 1.429 . S
C1082 C1074 1.574 . S
C1082 H1077 0.949 . S
C1082 C1088 1.368 . S
C1083 C1067 1.349 . S
C1083 H1075 0.950 . S
C1083 C1081 1.327 . S
C1084 C1072 1.349 . S
C1084 H1078 0.950 . S
C1084 C1085 1.327 . S
C1085 H1079 0.950 . S
C1085 C1084 1.327 . S
C1085 C1089 1.429 . S
C1086 C1069 1.574 . S
C1086 H1080 0.949 . S
C1086 C1090 1.368 . S
C1087 C1068 1.429 . S
C1087 C1081 1.429 . S
C1087 C1088 1.523 . S
C1088 C1069 1.368 . S
C1088 C1082 1.368 . S
C1088 C1087 1.523 . S
C1089 C1073 1.429 . S
C1089 C1085 1.429 . S
C1089 C1090 1.523 . S
C1090 C1074 1.368 . S
C1090 C1086 1.368 . S
C1090 C1089 1.523 . S
H1091 C1066 0.950 . S
H1092 C1068 0.950 . S
H1093 C1069 0.949 . S
H1094 C1071 0.950 . S
H1095 C1073 0.950 . S
C1096 C1097 1.349 . S
C1096 C1098 1.327 . S
C1096 H1121 0.950 . S
C1097 C1096 1.349 . S
C1097 C1113 1.349 . S
C1098 C1096 1.327 . S
C1098 C1117 1.429 . S
C1098 H1122 0.950 . S
C1099 C1116 1.574 . S
C1099 C1118 1.368 . S
C1099 H1123 0.949 . S
H1100 C1104 0.949 . S
C1101 C1102 1.349 . S
C1101 C1103 1.327 . S
C1101 H1124 0.950 . S
C1102 C1101 1.349 . S
C1102 C1114 1.349 . S
C1103 C1101 1.327 . S
C1103 C1119 1.429 . S
C1103 H1125 0.950 . S
C1104 H1100 0.949 . S
C1104 C1112 1.574 . S
C1104 C1120 1.368 . S
H1105 C1113 0.950 . S
H1106 C1111 0.950 . S
H1107 C1112 0.949 . S
H1108 C1114 0.950 . S
H1109 C1115 0.950 . S
H1110 C1116 0.949 . S
C1111 H1106 0.950 . S
C1111 C1113 1.327 . S
C1111 C1117 1.429 . S
C1112 C1104 1.574 . S
C1112 H1107 0.949 . S
C1112 C1118 1.368 . S
C1113 C1097 1.349 . S
C1113 H1105 0.950 . S
C1113 C1111 1.327 . S
C1114 C1102 1.349 . S
C1114 H1108 0.950 . S
C1114 C1115 1.327 . S
C1115 H1109 0.950 . S
C1115 C1114 1.327 . S
C1115 C1119 1.429 . S
C1116 C1099 1.574 . S
C1116 H1110 0.949 . S
C1116 C1120 1.368 . S
C1117 C1098 1.429 . S
C1117 C1111 1.429 . S
C1117 C1118 1.523 . S
C1118 C1099 1.368 . S
C1118 C1112 1.368 . S
C1118 C1117 1.523 . S
C1119 C1103 1.429 . S
C1119 C1115 1.429 . S
C1119 C1120 1.523 . S
C1120 C1104 1.368 . S
C1120 C1116 1.368 . S
C1120 C1119 1.523 . S
H1121 C1096 0.950 . S
H1122 C1098 0.950 . S
H1123 C1099 0.949 . S
H1124 C1101 0.950 . S
H1125 C1103 0.950 . S
C1126 C1127 1.349 . S
C1126 C1128 1.327 . S
C1126 H1151 0.950 . S
C1127 C1126 1.349 . S
C1127 C1143 1.349 . S
C1128 C1126 1.327 . S
C1128 C1147 1.429 . S
C1128 H1152 0.950 . S
C1129 C1146 1.574 . S
C1129 C1148 1.368 . S
C1129 H1153 0.949 . S
H1130 C1134 0.949 . S
C1131 C1132 1.349 . S
C1131 C1133 1.327 . S
C1131 H1154 0.950 . S
C1132 C1131 1.349 . S
C1132 C1144 1.349 . S
C1133 C1131 1.327 . S
C1133 C1149 1.429 . S
C1133 H1155 0.950 . S
C1134 H1130 0.949 . S
C1134 C1142 1.574 . S
C1134 C1150 1.368 . S
H1135 C1143 0.950 . S
H1136 C1141 0.950 . S
H1137 C1142 0.949 . S
H1138 C1144 0.950 . S
H1139 C1145 0.950 . S
H1140 C1146 0.949 . S
C1141 H1136 0.950 . S
C1141 C1143 1.327 . S
C1141 C1147 1.429 . S
C1142 C1134 1.574 . S
C1142 H1137 0.949 . S
C1142 C1148 1.368 . S
C1143 C1127 1.349 . S
C1143 H1135 0.950 . S
C1143 C1141 1.327 . S
C1144 C1132 1.349 . S
C1144 H1138 0.950 . S
C1144 C1145 1.327 . S
C1145 H1139 0.950 . S
C1145 C1144 1.327 . S
C1145 C1149 1.429 . S
C1146 C1129 1.574 . S
C1146 H1140 0.949 . S
C1146 C1150 1.368 . S
C1147 C1128 1.429 . S
C1147 C1141 1.429 . S
C1147 C1148 1.523 . S
C1148 C1129 1.368 . S
C1148 C1142 1.368 . S
C1148 C1147 1.523 . S
C1149 C1133 1.429 . S
C1149 C1145 1.429 . S
C1149 C1150 1.523 . S
C1150 C1134 1.368 . S
C1150 C1146 1.368 . S
C1150 C1149 1.523 . S
H1151 C1126 0.950 . S
H1152 C1128 0.950 . S
H1153 C1129 0.949 . S
H1154 C1131 0.950 . S
H1155 C1133 0.950 . S
C1156 C1157 1.349 . S
C1156 C1158 1.327 . S
C1156 H1181 0.950 . S
C1157 C1156 1.349 . S
C1157 C1173 1.349 . S
C1158 C1156 1.327 . S
C1158 C1177 1.429 . S
C1158 H1182 0.950 . S
C1159 C1176 1.574 . S
C1159 C1178 1.368 . S
C1159 H1183 0.949 . S
H1160 C1164 0.949 . S
C1161 C1162 1.349 . S
C1161 C1163 1.327 . S
C1161 H1184 0.950 . S
C1162 C1161 1.349 . S
C1162 C1174 1.349 . S
C1163 C1161 1.327 . S
C1163 C1179 1.429 . S
C1163 H1185 0.950 . S
C1164 H1160 0.949 . S
C1164 C1172 1.574 . S
C1164 C1180 1.368 . S
H1165 C1173 0.950 . S
H1166 C1171 0.950 . S
H1167 C1172 0.949 . S
H1168 C1174 0.950 . S
H1169 C1175 0.950 . S
H1170 C1176 0.949 . S
C1171 H1166 0.950 . S
C1171 C1173 1.327 . S
C1171 C1177 1.429 . S
C1172 C1164 1.574 . S
C1172 H1167 0.949 . S
C1172 C1178 1.368 . S
C1173 C1157 1.349 . S
C1173 H1165 0.950 . S
C1173 C1171 1.327 . S
C1174 C1162 1.349 . S
C1174 H1168 0.950 . S
C1174 C1175 1.327 . S
C1175 H1169 0.950 . S
C1175 C1174 1.327 . S
C1175 C1179 1.429 . S
C1176 C1159 1.574 . S
C1176 H1170 0.949 . S
C1176 C1180 1.368 . S
C1177 C1158 1.429 . S
C1177 C1171 1.429 . S
C1177 C1178 1.523 . S
C1178 C1159 1.368 . S
C1178 C1172 1.368 . S
C1178 C1177 1.523 . S
C1179 C1163 1.429 . S
C1179 C1175 1.429 . S
C1179 C1180 1.523 . S
C1180 C1164 1.368 . S
C1180 C1176 1.368 . S
C1180 C1179 1.523 . S
H1181 C1156 0.950 . S
H1182 C1158 0.950 . S
H1183 C1159 0.949 . S
H1184 C1161 0.950 . S
H1185 C1163 0.950 . S
C1186 C1187 1.349 . S
C1186 C1188 1.327 . S
C1186 H1211 0.950 . S
C1187 C1186 1.349 . S
C1187 C1203 1.349 . S
C1188 C1186 1.327 . S
C1188 C1207 1.429 . S
C1188 H1212 0.950 . S
C1189 C1206 1.574 . S
C1189 C1208 1.368 . S
C1189 H1213 0.949 . S
H1190 C1194 0.949 . S
C1191 C1192 1.349 . S
C1191 C1193 1.327 . S
C1191 H1214 0.950 . S
C1192 C1191 1.349 . S
C1192 C1204 1.349 . S
C1193 C1191 1.327 . S
C1193 C1209 1.429 . S
C1193 H1215 0.950 . S
C1194 H1190 0.949 . S
C1194 C1202 1.574 . S
C1194 C1210 1.368 . S
H1195 C1203 0.950 . S
H1196 C1201 0.950 . S
H1197 C1202 0.949 . S
H1198 C1204 0.950 . S
H1199 C1205 0.950 . S
H1200 C1206 0.949 . S
C1201 H1196 0.950 . S
C1201 C1203 1.327 . S
C1201 C1207 1.429 . S
C1202 C1194 1.574 . S
C1202 H1197 0.949 . S
C1202 C1208 1.368 . S
C1203 C1187 1.349 . S
C1203 H1195 0.950 . S
C1203 C1201 1.327 . S
C1204 C1192 1.349 . S
C1204 H1198 0.950 . S
C1204 C1205 1.327 . S
C1205 H1199 0.950 . S
C1205 C1204 1.327 . S
C1205 C1209 1.429 . S
C1206 C1189 1.574 . S
C1206 H1200 0.949 . S
C1206 C1210 1.368 . S
C1207 C1188 1.429 . S
C1207 C1201 1.429 . S
C1207 C1208 1.523 . S
C1208 C1189 1.368 . S
C1208 C1202 1.368 . S
C1208 C1207 1.523 . S
C1209 C1193 1.429 . S
C1209 C1205 1.429 . S
C1209 C1210 1.523 . S
C1210 C1194 1.368 . S
C1210 C1206 1.368 . S
C1210 C1209 1.523 . S
H1211 C1186 0.950 . S
H1212 C1188 0.950 . S
H1213 C1189 0.949 . S
H1214 C1191 0.950 . S
H1215 C1193 0.950 . S
C1216 C1217 1.349 . S
C1216 C1218 1.327 . S
C1216 H1241 0.950 . S
C1217 C1216 1.349 . S
C1217 C1233 1.349 . S
C1218 C1216 1.327 . S
C1218 C1237 1.429 . S
C1218 H1242 0.950 . S
C1219 C1236 1.574 . S
C1219 C1238 1.368 . S
C1219 H1243 0.949 . S
H1220 C1224 0.949 . S
C1221 C1222 1.349 . S
C1221 C1223 1.327 . S
C1221 H1244 0.950 . S
C1222 C1221 1.349 . S
C1222 C1234 1.349 . S
C1223 C1221 1.327 . S
C1223 C1239 1.429 . S
C1223 H1245 0.950 . S
C1224 H1220 0.949 . S
C1224 C1232 1.574 . S
C1224 C1240 1.368 . S
H1225 C1233 0.950 . S
H1226 C1231 0.950 . S
H1227 C1232 0.949 . S
H1228 C1234 0.950 . S
H1229 C1235 0.950 . S
H1230 C1236 0.949 . S
C1231 H1226 0.950 . S
C1231 C1233 1.327 . S
C1231 C1237 1.429 . S
C1232 C1224 1.574 . S
C1232 H1227 0.949 . S
C1232 C1238 1.368 . S
C1233 C1217 1.349 . S
C1233 H1225 0.950 . S
C1233 C1231 1.327 . S
C1234 C1222 1.349 . S
C1234 H1228 0.950 . S
C1234 C1235 1.327 . S
C1235 H1229 0.950 . S
C1235 C1234 1.327 . S
C1235 C1239 1.429 . S
C1236 C1219 1.574 . S
C1236 H1230 0.949 . S
C1236 C1240 1.368 . S
C1237 C1218 1.429 . S
C1237 C1231 1.429 . S
C1237 C1238 1.523 . S
C1238 C1219 1.368 . S
C1238 C1232 1.368 . S
C1238 C1237 1.523 . S
C1239 C1223 1.429 . S
C1239 C1235 1.429 . S
C1239 C1240 1.523 . S
C1240 C1224 1.368 . S
C1240 C1236 1.368 . S
C1240 C1239 1.523 . S
H1241 C1216 0.950 . S
H1242 C1218 0.950 . S
H1243 C1219 0.949 . S
H1244 C1221 0.950 . S
H1245 C1223 0.950 . S
C1246 C1247 1.349 . S
C1246 C1248 1.327 . S
C1246 H1271 0.950 . S
C1247 C1246 1.349 . S
C1247 C1263 1.349 . S
C1248 C1246 1.327 . S
C1248 C1267 1.429 . S
C1248 H1272 0.950 . S
C1249 C1266 1.574 . S
C1249 C1268 1.368 . S
C1249 H1273 0.949 . S
H1250 C1254 0.949 . S
C1251 C1252 1.349 . S
C1251 C1253 1.327 . S
C1251 H1274 0.950 . S
C1252 C1251 1.349 . S
C1252 C1264 1.349 . S
C1253 C1251 1.327 . S
C1253 C1269 1.429 . S
C1253 H1275 0.950 . S
C1254 H1250 0.949 . S
C1254 C1262 1.574 . S
C1254 C1270 1.368 . S
H1255 C1263 0.950 . S
H1256 C1261 0.950 . S
H1257 C1262 0.949 . S
H1258 C1264 0.950 . S
H1259 C1265 0.950 . S
H1260 C1266 0.949 . S
C1261 H1256 0.950 . S
C1261 C1263 1.327 . S
C1261 C1267 1.429 . S
C1262 C1254 1.574 . S
C1262 H1257 0.949 . S
C1262 C1268 1.368 . S
C1263 C1247 1.349 . S
C1263 H1255 0.950 . S
C1263 C1261 1.327 . S
C1264 C1252 1.349 . S
C1264 H1258 0.950 . S
C1264 C1265 1.327 . S
C1265 H1259 0.950 . S
C1265 C1264 1.327 . S
C1265 C1269 1.429 . S
C1266 C1249 1.574 . S
C1266 H1260 0.949 . S
C1266 C1270 1.368 . S
C1267 C1248 1.429 . S
C1267 C1261 1.429 . S
C1267 C1268 1.523 . S
C1268 C1249 1.368 . S
C1268 C1262 1.368 . S
C1268 C1267 1.523 . S
C1269 C1253 1.429 . S
C1269 C1265 1.429 . S
C1269 C1270 1.523 . S
C1270 C1254 1.368 . S
C1270 C1266 1.368 . S
C1270 C1269 1.523 . S
H1271 C1246 0.950 . S
H1272 C1248 0.950 . S
H1273 C1249 0.949 . S
H1274 C1251 0.950 . S
H1275 C1253 0.950 . S
C1276 C1277 1.349 . S
C1276 C1278 1.327 . S
C1276 H1301 0.950 . S
C1277 C1276 1.349 . S
C1277 C1293 1.349 . S
C1278 C1276 1.327 . S
C1278 C1297 1.429 . S
C1278 H1302 0.950 . S
C1279 C1296 1.574 . S
C1279 C1298 1.368 . S
C1279 H1303 0.949 . S
H1280 C1284 0.949 . S
C1281 C1282 1.349 . S
C1281 C1283 1.327 . S
C1281 H1304 0.950 . S
C1282 C1281 1.349 . S
C1282 C1294 1.349 . S
C1283 C1281 1.327 . S
C1283 C1299 1.429 . S
C1283 H1305 0.950 . S
C1284 H1280 0.949 . S
C1284 C1292 1.574 . S
C1284 C1300 1.368 . S
H1285 C1293 0.950 . S
H1286 C1291 0.950 . S
H1287 C1292 0.949 . S
H1288 C1294 0.950 . S
H1289 C1295 0.950 . S
H1290 C1296 0.949 . S
C1291 H1286 0.950 . S
C1291 C1293 1.327 . S
C1291 C1297 1.429 . S
C1292 C1284 1.574 . S
C1292 H1287 0.949 . S
C1292 C1298 1.368 . S
C1293 C1277 1.349 . S
C1293 H1285 0.950 . S
C1293 C1291 1.327 . S
C1294 C1282 1.349 . S
C1294 H1288 0.950 . S
C1294 C1295 1.327 . S
C1295 H1289 0.950 . S
C1295 C1294 1.327 . S
C1295 C1299 1.429 . S
C1296 C1279 1.574 . S
C1296 H1290 0.949 . S
C1296 C1300 1.368 . S
C1297 C1278 1.429 . S
C1297 C1291 1.429 . S
C1297 C1298 1.523 . S
C1298 C1279 1.368 . S
C1298 C1292 1.368 . S
C1298 C1297 1.523 . S
C1299 C1283 1.429 . S
C1299 C1295 1.429 . S
C1299 C1300 1.523 . S
C1300 C1284 1.368 . S
C1300 C1296 1.368 . S
C1300 C1299 1.523 . S
H1301 C1276 0.950 . S
H1302 C1278 0.950 . S
H1303 C1279 0.949 . S
H1304 C1281 0.950 . S
H1305 C1283 0.950 . S
C1306 C1307 1.349 . S
C1306 C1308 1.327 . S
C1306 H1331 0.950 . S
C1307 C1306 1.349 . S
C1307 C1323 1.349 . S
C1308 C1306 1.327 . S
C1308 C1327 1.429 . S
C1308 H1332 0.950 . S
C1309 C1326 1.574 . S
C1309 C1328 1.368 . S
C1309 H1333 0.949 . S
H1310 C1314 0.949 . S
C1311 C1312 1.349 . S
C1311 C1313 1.327 . S
C1311 H1334 0.950 . S
C1312 C1311 1.349 . S
C1312 C1324 1.349 . S
C1313 C1311 1.327 . S
C1313 C1329 1.429 . S
C1313 H1335 0.950 . S
C1314 H1310 0.949 . S
C1314 C1322 1.574 . S
C1314 C1330 1.368 . S
H1315 C1323 0.950 . S
H1316 C1321 0.950 . S
H1317 C1322 0.949 . S
H1318 C1324 0.950 . S
H1319 C1325 0.950 . S
H1320 C1326 0.949 . S
C1321 H1316 0.950 . S
C1321 C1323 1.327 . S
C1321 C1327 1.429 . S
C1322 C1314 1.574 . S
C1322 H1317 0.949 . S
C1322 C1328 1.368 . S
C1323 C1307 1.349 . S
C1323 H1315 0.950 . S
C1323 C1321 1.327 . S
C1324 C1312 1.349 . S
C1324 H1318 0.950 . S
C1324 C1325 1.327 . S
C1325 H1319 0.950 . S
C1325 C1324 1.327 . S
C1325 C1329 1.429 . S
C1326 C1309 1.574 . S
C1326 H1320 0.949 . S
C1326 C1330 1.368 . S
C1327 C1308 1.429 . S
C1327 C1321 1.429 . S
C1327 C1328 1.523 . S
C1328 C1309 1.368 . S
C1328 C1322 1.368 . S
C1328 C1327 1.523 . S
C1329 C1313 1.429 . S
C1329 C1325 1.429 . S
C1329 C1330 1.523 . S
C1330 C1314 1.368 . S
C1330 C1326 1.368 . S
C1330 C1329 1.523 . S
H1331 C1306 0.950 . S
H1332 C1308 0.950 . S
H1333 C1309 0.949 . S
H1334 C1311 0.950 . S
H1335 C1313 0.950 . S
C1336 C1337 1.349 . S
C1336 C1338 1.327 . S
C1336 H1361 0.950 . S
C1337 C1336 1.349 . S
C1337 C1353 1.349 . S
C1338 C1336 1.327 . S
C1338 C1357 1.429 . S
C1338 H1362 0.950 . S
C1339 C1356 1.574 . S
C1339 C1358 1.368 . S
C1339 H1363 0.949 . S
H1340 C1344 0.949 . S
C1341 C1342 1.349 . S
C1341 C1343 1.327 . S
C1341 H1364 0.950 . S
C1342 C1341 1.349 . S
C1342 C1354 1.349 . S
C1343 C1341 1.327 . S
C1343 C1359 1.429 . S
C1343 H1365 0.950 . S
C1344 H1340 0.949 . S
C1344 C1352 1.574 . S
C1344 C1360 1.368 . S
H1345 C1353 0.950 . S
H1346 C1351 0.950 . S
H1347 C1352 0.949 . S
H1348 C1354 0.950 . S
H1349 C1355 0.950 . S
H1350 C1356 0.949 . S
C1351 H1346 0.950 . S
C1351 C1353 1.327 . S
C1351 C1357 1.429 . S
C1352 C1344 1.574 . S
C1352 H1347 0.949 . S
C1352 C1358 1.368 . S
C1353 C1337 1.349 . S
C1353 H1345 0.950 . S
C1353 C1351 1.327 . S
C1354 C1342 1.349 . S
C1354 H1348 0.950 . S
C1354 C1355 1.327 . S
C1355 H1349 0.950 . S
C1355 C1354 1.327 . S
C1355 C1359 1.429 . S
C1356 C1339 1.574 . S
C1356 H1350 0.949 . S
C1356 C1360 1.368 . S
C1357 C1338 1.429 . S
C1357 C1351 1.429 . S
C1357 C1358 1.523 . S
C1358 C1339 1.368 . S
C1358 C1352 1.368 . S
C1358 C1357 1.523 . S
C1359 C1343 1.429 . S
C1359 C1355 1.429 . S
C1359 C1360 1.523 . S
C1360 C1344 1.368 . S
C1360 C1356 1.368 . S
C1360 C1359 1.523 . S
H1361 C1336 0.950 . S
H1362 C1338 0.950 . S
H1363 C1339 0.949 . S
H1364 C1341 0.950 . S
H1365 C1343 0.950 . S
C1366 C1367 1.349 . S
C1366 C1368 1.327 . S
C1366 H1391 0.950 . S
C1367 C1366 1.349 . S
C1367 C1383 1.349 . S
C1368 C1366 1.327 . S
C1368 C1387 1.429 . S
C1368 H1392 0.950 . S
C1369 C1386 1.574 . S
C1369 C1388 1.368 . S
C1369 H1393 0.949 . S
H1370 C1374 0.949 . S
C1371 C1372 1.349 . S
C1371 C1373 1.327 . S
C1371 H1394 0.950 . S
C1372 C1371 1.349 . S
C1372 C1384 1.349 . S
C1373 C1371 1.327 . S
C1373 C1389 1.429 . S
C1373 H1395 0.950 . S
C1374 H1370 0.949 . S
C1374 C1382 1.574 . S
C1374 C1390 1.368 . S
H1375 C1383 0.950 . S
H1376 C1381 0.950 . S
H1377 C1382 0.949 . S
H1378 C1384 0.950 . S
H1379 C1385 0.950 . S
H1380 C1386 0.949 . S
C1381 H1376 0.950 . S
C1381 C1383 1.327 . S
C1381 C1387 1.429 . S
C1382 C1374 1.574 . S
C1382 H1377 0.949 . S
C1382 C1388 1.368 . S
C1383 C1367 1.349 . S
C1383 H1375 0.950 . S
C1383 C1381 1.327 . S
C1384 C1372 1.349 . S
C1384 H1378 0.950 . S
C1384 C1385 1.327 . S
C1385 H1379 0.950 . S
C1385 C1384 1.327 . S
C1385 C1389 1.429 . S
C1386 C1369 1.574 . S
C1386 H1380 0.949 . S
C1386 C1390 1.368 . S
C1387 C1368 1.429 . S
C1387 C1381 1.429 . S
C1387 C1388 1.523 . S
C1388 C1369 1.368 . S
C1388 C1382 1.368 . S
C1388 C1387 1.523 . S
C1389 C1373 1.429 . S
C1389 C1385 1.429 . S
C1389 C1390 1.523 . S
C1390 C1374 1.368 . S
C1390 C1386 1.368 . S
C1390 C1389 1.523 . S
H1391 C1366 0.950 . S
H1392 C1368 0.950 . S
H1393 C1369 0.949 . S
H1394 C1371 0.950 . S
H1395 C1373 0.950 . S
C1396 C1397 1.349 . S
C1396 C1398 1.327 . S
C1396 H1421 0.950 . S
C1397 C1396 1.349 . S
C1397 C1413 1.349 . S
C1398 C1396 1.327 . S
C1398 C1417 1.429 . S
C1398 H1422 0.950 . S
C1399 C1416 1.574 . S
C1399 C1418 1.368 . S
C1399 H1423 0.949 . S
H1400 C1404 0.949 . S
C1401 C1402 1.349 . S
C1401 C1403 1.327 . S
C1401 H1424 0.950 . S
C1402 C1401 1.349 . S
C1402 C1414 1.349 . S
C1403 C1401 1.327 . S
C1403 C1419 1.429 . S
C1403 H1425 0.950 . S
C1404 H1400 0.949 . S
C1404 C1412 1.574 . S
C1404 C1420 1.368 . S
H1405 C1413 0.950 . S
H1406 C1411 0.950 . S
H1407 C1412 0.949 . S
H1408 C1414 0.950 . S
H1409 C1415 0.950 . S
H1410 C1416 0.949 . S
C1411 H1406 0.950 . S
C1411 C1413 1.327 . S
C1411 C1417 1.429 . S
C1412 C1404 1.574 . S
C1412 H1407 0.949 . S
C1412 C1418 1.368 . S
C1413 C1397 1.349 . S
C1413 H1405 0.950 . S
C1413 C1411 1.327 . S
C1414 C1402 1.349 . S
C1414 H1408 0.950 . S
C1414 C1415 1.327 . S
C1415 H1409 0.950 . S
C1415 C1414 1.327 . S
C1415 C1419 1.429 . S
C1416 C1399 1.574 . S
C1416 H1410 0.949 . S
C1416 C1420 1.368 . S
C1417 C1398 1.429 . S
C1417 C1411 1.429 . S
C1417 C1418 1.523 . S
C1418 C1399 1.368 . S
C1418 C1412 1.368 . S
C1418 C1417 1.523 . S
C1419 C1403 1.429 . S
C1419 C1415 1.429 . S
C1419 C1420 1.523 . S
C1420 C1404 1.368 . S
C1420 C1416 1.368 . S
C1420 C1419 1.523 . S
H1421 C1396 0.950 . S
H1422 C1398 0.950 . S
H1423 C1399 0.949 . S
H1424 C1401 0.950 . S
H1425 C1403 0.950 . S
C1426 C1427 1.349 . S
C1426 C1428 1.327 . S
C1426 H1451 0.950 . S
C1427 C1426 1.349 . S
C1427 C1443 1.349 . S
C1428 C1426 1.327 . S
C1428 C1447 1.429 . S
C1428 H1452 0.950 . S
C1429 C1446 1.574 . S
C1429 C1448 1.368 . S
C1429 H1453 0.949 . S
H1430 C1434 0.949 . S
C1431 C1432 1.349 . S
C1431 C1433 1.327 . S
C1431 H1454 0.950 . S
C1432 C1431 1.349 . S
C1432 C1444 1.349 . S
C1433 C1431 1.327 . S
C1433 C1449 1.429 . S
C1433 H1455 0.950 . S
C1434 H1430 0.949 . S
C1434 C1442 1.574 . S
C1434 C1450 1.368 . S
H1435 C1443 0.950 . S
H1436 C1441 0.950 . S
H1437 C1442 0.949 . S
H1438 C1444 0.950 . S
H1439 C1445 0.950 . S
H1440 C1446 0.949 . S
C1441 H1436 0.950 . S
C1441 C1443 1.327 . S
C1441 C1447 1.429 . S
C1442 C1434 1.574 . S
C1442 H1437 0.949 . S
C1442 C1448 1.368 . S
C1443 C1427 1.349 . S
C1443 H1435 0.950 . S
C1443 C1441 1.327 . S
C1444 C1432 1.349 . S
C1444 H1438 0.950 . S
C1444 C1445 1.327 . S
C1445 H1439 0.950 . S
C1445 C1444 1.327 . S
C1445 C1449 1.429 . S
C1446 C1429 1.574 . S
C1446 H1440 0.949 . S
C1446 C1450 1.368 . S
C1447 C1428 1.429 . S
C1447 C1441 1.429 . S
C1447 C1448 1.523 . S
C1448 C1429 1.368 . S
C1448 C1442 1.368 . S
C1448 C1447 1.523 . S
C1449 C1433 1.429 . S
C1449 C1445 1.429 . S
C1449 C1450 1.523 . S
C1450 C1434 1.368 . S
C1450 C1446 1.368 . S
C1450 C1449 1.523 . S
H1451 C1426 0.950 . S
H1452 C1428 0.950 . S
H1453 C1429 0.949 . S
H1454 C1431 0.950 . S
H1455 C1433 0.950 . S
C502 C417 1.474 . S
C497 C1 1.494 . S
C527 C68 1.495 . S
C532 C449 1.474 . S
C557 C93 1.497 . S
C562 C472 1.483 . S
C592 C376 1.486 . S
C587 C139 1.495 . S
C622 C459 1.328 . S
C617 C8 1.451 . S
C652 C488 1.338 . S
C647 C61 1.450 . S
C682 C392 1.338 . S
C677 C100 1.451 . S
C712 C427 1.328 . S
C707 C146 1.453 . S
C737 C15 1.453 . S
C742 C455 1.340 . S
C767 C192 1.451 . S
C772 C430 1.328 . S
C797 C107 1.453 . S
C802 C398 1.330 . S
C832 C487 1.338 . S
C827 C238 1.452 . S
C862 C431 1.474 . S
C857 C22 1.499 . S
C887 C185 1.495 . S
C892 C399 1.475 . S
C917 C114 1.497 . S
C922 C486 1.489 . S
C952 C454 1.486 . S
C947 C231 1.495 . S
C977 C277 1.496 . S
C982 C481 1.477 . S
C1007 C206 1.495 . S
C1012 C385 1.476 . S
C1037 C330 1.497 . S
C1042 C408 1.489 . S
C1067 C252 1.495 . S
C1072 C440 1.485 . S
C1102 C395 1.328 . S
C1097 C284 1.456 . S
C1127 C199 1.451 . S
C1132 C424 1.338 . S
C1157 C323 1.453 . S
C1162 C456 1.340 . S
C1192 C491 1.328 . S
C1187 C245 1.452 . S
C1217 C291 1.453 . S
C1222 C391 1.336 . S
C1247 C54 1.450 . S
C1252 C494 1.325 . S
C1277 C344 1.453 . S
C1282 C462 1.326 . S
C1312 C423 1.338 . S
C1307 C153 1.454 . S
C1342 C495 1.474 . S
C1337 C298 1.494 . S
C1372 C463 1.474 . S
C1367 C47 1.495 . S
C1402 C422 1.486 . S
C1397 C337 1.494 . S
C1432 C390 1.486 . S
C1427 C160 1.495 . S
