# Generated by pormake.
# Topology ssa, (4,4)-cn, num edge types: 1
# Building blocks:
#     Node 0, Type 0, BuildingBlock: NAWXER_clean_sbu_0, # of connection points: 4
#     Node 1, Type 0, BuildingBlock: NAWXER_clean_sbu_0, # of connection points: 4
#     Node 2, Type 0, BuildingBlock: NAWXER_clean_sbu_0, # of connection points: 4
#     Node 3, Type 0, BuildingBlock: NAWXER_clean_sbu_0, # of connection points: 4
#     Node 4, Type 0, BuildingBlock: NAWXER_clean_sbu_0, # of connection points: 4
#     Node 5, Type 0, BuildingBlock: NAWXER_clean_sbu_0, # of connection points: 4
#     Node 6, Type 1, BuildingBlock: NAWXER_clean_linker_0, # of connection points: 4
#     Node 7, Type 1, BuildingBlock: NAWXER_clean_linker_0, # of connection points: 4
#     Node 8, Type 1, BuildingBlock: NAWXER_clean_linker_0, # of connection points: 4
#     Node 9, Type 1, BuildingBlock: NAWXER_clean_linker_0, # of connection points: 4
#     Node 10, Type 1, BuildingBlock: NAWXER_clean_linker_0, # of connection points: 4
#     Node 11, Type 1, BuildingBlock: NAWXER_clean_linker_0, # of connection points: 4
#     Edge 12, Type (0, 1), BuildingBlock: KIFKEQ_clean_linker_1, # of connection points: 2
#     Edge 13, Type (0, 1), BuildingBlock: KIFKEQ_clean_linker_1, # of connection points: 2
#     Edge 14, Type (0, 1), BuildingBlock: KIFKEQ_clean_linker_1, # of connection points: 2
#     Edge 15, Type (0, 1), BuildingBlock: KIFKEQ_clean_linker_1, # of connection points: 2
#     Edge 16, Type (0, 1), BuildingBlock: KIFKEQ_clean_linker_1, # of connection points: 2
#     Edge 17, Type (0, 1), BuildingBlock: KIFKEQ_clean_linker_1, # of connection points: 2
#     Edge 18, Type (0, 1), BuildingBlock: KIFKEQ_clean_linker_1, # of connection points: 2
#     Edge 19, Type (0, 1), BuildingBlock: KIFKEQ_clean_linker_1, # of connection points: 2
#     Edge 20, Type (0, 1), BuildingBlock: KIFKEQ_clean_linker_1, # of connection points: 2
#     Edge 21, Type (0, 1), BuildingBlock: KIFKEQ_clean_linker_1, # of connection points: 2
#     Edge 22, Type (0, 1), BuildingBlock: KIFKEQ_clean_linker_1, # of connection points: 2
#     Edge 23, Type (0, 1), BuildingBlock: KIFKEQ_clean_linker_1, # of connection points: 2
#     Edge 24, Type (0, 1), BuildingBlock: KIFKEQ_clean_linker_1, # of connection points: 2
#     Edge 25, Type (0, 1), BuildingBlock: KIFKEQ_clean_linker_1, # of connection points: 2
#     Edge 26, Type (0, 1), BuildingBlock: KIFKEQ_clean_linker_1, # of connection points: 2
#     Edge 27, Type (0, 1), BuildingBlock: KIFKEQ_clean_linker_1, # of connection points: 2
#     Edge 28, Type (0, 1), BuildingBlock: KIFKEQ_clean_linker_1, # of connection points: 2
#     Edge 29, Type (0, 1), BuildingBlock: KIFKEQ_clean_linker_1, # of connection points: 2
#     Edge 30, Type (0, 1), BuildingBlock: KIFKEQ_clean_linker_1, # of connection points: 2
#     Edge 31, Type (0, 1), BuildingBlock: KIFKEQ_clean_linker_1, # of connection points: 2
#     Edge 32, Type (0, 1), BuildingBlock: KIFKEQ_clean_linker_1, # of connection points: 2
#     Edge 33, Type (0, 1), BuildingBlock: KIFKEQ_clean_linker_1, # of connection points: 2
#     Edge 34, Type (0, 1), BuildingBlock: KIFKEQ_clean_linker_1, # of connection points: 2
#     Edge 35, Type (0, 1), BuildingBlock: KIFKEQ_clean_linker_1, # of connection points: 2
# Relax obj value: 0.014
# Max RMSD: 0.030
# Mean RMSD: 0.028
data_MOF--net-ssa--node1-NAWXER_clean_sbu_0--node2-NAWXER_clean_linker_0--edge1-KIFKEQ_clean_linker_1
_symmetry_space_group_name_H-M    P1
_symmetry_Int_Tables_number       1
_symmetry_cell_setting            triclinic
loop_
_symmetry_equiv_pos_as_xyz
'x, y, z'
_cell_length_a     58.211718
_cell_length_b     58.192073
_cell_length_c     40.292806
_cell_angle_alpha  89.861043
_cell_angle_beta   89.854519
_cell_angle_gamma 120.0192
loop_
_atom_site_label
_atom_site_type_symbol
_atom_site_fract_x
_atom_site_fract_y
_atom_site_fract_z
_atom_type_partial_charge
C0 C 0.04259 0.5544 0.00761 0.0
C1 C 0.99581 0.46993 0.94901 0.0
O2 O 0.02119 0.53717 0.02214 0.0
Zn3 Zn 0.99024 0.49694 0.01569 0.0
O4 O 0.04995 0.54834 0.98087 0.0
Zn5 Zn 0.02042 0.51232 0.97801 0.0
O6 O 0.98758 0.51862 0.96983 0.0
O7 O 0.95915 0.50083 0.0114 0.0
O8 O 0.01773 0.49009 0.9406 0.0
O9 O 0.98441 0.47045 0.97602 0.0
O10 O 0.99444 0.47934 0.05435 0.0
O11 O 0.02799 0.49393 0.01919 0.0
C12 C 0.9657 0.51339 0.98392 0.0
C13 C 0.01698 0.48234 0.04657 0.0
C14 C 0.47596 0.99591 0.54257 0.0
C15 C 0.51573 0.95019 0.4849 0.0
O16 O 0.47417 0.97399 0.55114 0.0
Zn17 Zn 0.49602 0.97269 0.51546 0.0
O18 O 0.48949 0.00815 0.51671 0.0
Zn19 Zn 0.51269 0.00364 0.47866 0.0
O20 O 0.49249 0.00142 0.43922 0.0
O21 O 0.47183 0.96716 0.47324 0.0
O22 O 0.52079 0.97209 0.47105 0.0
O23 O 0.50228 0.94296 0.51167 0.0
O24 O 0.53377 0.00574 0.52762 0.0
O25 O 0.54758 0.03419 0.48576 0.0
C26 C 0.47233 0.97904 0.44621 0.0
C27 C 0.55123 0.0278 0.51465 0.0
C28 C 0.46529 0.42376 0.98932 0.0
C29 C 0.50191 0.50606 0.0531 0.0
O30 O 0.46158 0.44159 0.97577 0.0
Zn31 Zn 0.47055 0.48138 0.985 0.0
O32 O 0.47733 0.4285 0.01696 0.0
Zn33 Zn 0.48404 0.46444 0.02245 0.0
O34 O 0.44539 0.45929 0.03067 0.0
O35 O 0.43581 0.47817 0.98953 0.0
O36 O 0.50347 0.48566 0.0608 0.0
O37 O 0.49048 0.50628 0.02608 0.0
O38 O 0.49414 0.50098 0.94805 0.0
O39 O 0.51128 0.48447 0.98306 0.0
C40 C 0.42939 0.46553 0.01695 0.0
C41 C 0.51321 0.49744 0.95648 0.0
C42 C 0.00846 0.57022 0.44726 0.0
C43 C 0.95968 0.48867 0.51234 0.0
O44 O 0.01998 0.571 0.4747 0.0
Zn45 Zn 0.01348 0.54524 0.51655 0.0
O46 O 0.98656 0.5497 0.44006 0.0
Zn47 Zn 0.98364 0.52925 0.47932 0.0
O48 O 0.97692 0.5501 0.51885 0.0
O49 O 0.01074 0.56494 0.55339 0.0
O50 O 0.95381 0.49345 0.48377 0.0
O51 O 0.98092 0.50615 0.52664 0.0
O52 O 0.04359 0.53942 0.51398 0.0
O53 O 0.01601 0.52246 0.4719 0.0
C54 C 0.9885 0.56253 0.5455 0.0
C55 C 0.03745 0.52717 0.48647 0.0
C56 C 0.53091 0.95558 0.0154 0.0
C57 C 0.49718 0.0044 0.95215 0.0
O58 O 0.53774 0.97847 0.0274 0.0
Zn59 Zn 0.53241 0.01133 0.01707 0.0
O60 O 0.51732 0.94813 0.9889 0.0
Zn61 Zn 0.51437 0.97966 0.98181 0.0
O62 O 0.55381 0.01036 0.96922 0.0
O63 O 0.568 0.04045 0.00883 0.0
O64 O 0.49405 0.98173 0.94479 0.0
O65 O 0.51076 0.01663 0.97779 0.0
O66 O 0.51259 0.01123 0.05619 0.0
O67 O 0.48958 0.97754 0.02237 0.0
C68 C 0.57192 0.03246 0.98117 0.0
C69 C 0.491 0.99038 0.04878 0.0
C70 C 0.53421 0.51253 0.56017 0.0
C71 C 0.45209 0.47989 0.49761 0.0
O72 O 0.51455 0.51548 0.56736 0.0
Zn73 Zn 0.49242 0.49519 0.53073 0.0
O74 O 0.53298 0.49865 0.53481 0.0
Zn75 Zn 0.50543 0.47657 0.4959 0.0
O76 O 0.52509 0.49533 0.45635 0.0
O77 O 0.5152 0.51937 0.48961 0.0
O78 O 0.46755 0.47233 0.48536 0.0
O79 O 0.45861 0.49336 0.5242 0.0
O80 O 0.48251 0.45549 0.54359 0.0
O81 O 0.49788 0.44067 0.50402 0.0
C82 C 0.52628 0.51722 0.46322 0.0
C83 C 0.48584 0.43697 0.53157 0.0
C84 C 0.30153 0.47418 0.20171 0.0
C85 C 0.29176 0.45379 0.17796 0.0
C86 C 0.2849 0.47452 0.22659 0.0
C87 C 0.2582 0.45431 0.22849 0.0
C88 C 0.26507 0.43351 0.18005 0.0
C89 C 0.24846 0.43387 0.20492 0.0
C90 C 0.23964 0.45582 0.25247 0.0
C91 C 0.298 0.44772 0.31939 0.0
C92 C 0.31047 0.46777 0.3434 0.0
C93 C 0.27753 0.44635 0.29976 0.0
C94 C 0.26939 0.46523 0.30344 0.0
C95 C 0.30251 0.48684 0.34652 0.0
C96 C 0.28226 0.48557 0.32681 0.0
C97 C 0.24559 0.46244 0.28637 0.0
C98 C 0.1449 0.45155 0.34235 0.0
C99 C 0.15473 0.47578 0.35941 0.0
C100 C 0.16117 0.44739 0.32054 0.0
C101 C 0.18768 0.4672 0.31572 0.0
C102 C 0.18147 0.49543 0.35464 0.0
C103 C 0.19782 0.49103 0.33334 0.0
C104 C 0.20515 0.46308 0.2929 0.0
C105 C 0.15195 0.47809 0.22689 0.0
C106 C 0.13557 0.45699 0.20582 0.0
C107 C 0.17207 0.47753 0.24499 0.0
C108 C 0.17612 0.45574 0.24264 0.0
C109 C 0.13925 0.43491 0.20402 0.0
C110 C 0.15952 0.43441 0.22205 0.0
C111 C 0.19907 0.45632 0.25923 0.0
H112 H 0.32203 0.48999 0.20101 0.0
H113 H 0.29277 0.49099 0.24376 0.0
H114 H 0.2568 0.4177 0.16193 0.0
H115 H 0.22784 0.4183 0.20551 0.0
H116 H 0.30378 0.43285 0.31608 0.0
H117 H 0.26751 0.43002 0.2826 0.0
H118 H 0.31124 0.50227 0.36508 0.0
H119 H 0.27619 0.50021 0.33043 0.0
H120 H 0.12466 0.43569 0.34587 0.0
H121 H 0.15313 0.42863 0.30764 0.0
H122 H 0.18972 0.51451 0.36673 0.0
H123 H 0.21828 0.50653 0.32998 0.0
H124 H 0.14954 0.49534 0.22885 0.0
H125 H 0.18503 0.49457 0.25994 0.0
H126 H 0.12715 0.41852 0.18767 0.0
H127 H 0.16252 0.41756 0.21956 0.0
N128 N 0.2165 0.45286 0.24036 0.0
N129 N 0.22811 0.4659 0.30508 0.0
C130 C 0.87821 0.31184 0.77141 0.0
C131 C 0.87282 0.32118 0.80092 0.0
C132 C 0.85774 0.29053 0.75434 0.0
C133 C 0.83148 0.27849 0.7662 0.0
C134 C 0.8467 0.30828 0.81336 0.0
C135 C 0.82631 0.28723 0.79621 0.0
C136 C 0.8092 0.25647 0.74824 0.0
C137 C 0.84107 0.32688 0.67971 0.0
C138 C 0.84851 0.32332 0.64768 0.0
C139 C 0.82717 0.3053 0.70111 0.0
C140 C 0.82123 0.27969 0.69163 0.0
C141 C 0.84193 0.29751 0.63794 0.0
C142 C 0.82849 0.276 0.65968 0.0
C143 C 0.80543 0.25641 0.71359 0.0
C144 C 0.69757 0.16206 0.68978 0.0
C145 C 0.70328 0.15422 0.65939 0.0
C146 C 0.71811 0.18097 0.70939 0.0
C147 C 0.7447 0.19153 0.69945 0.0
C148 C 0.72973 0.16494 0.64925 0.0
C149 C 0.75025 0.18332 0.66917 0.0
C150 C 0.76686 0.21325 0.71794 0.0
C151 C 0.7238 0.14711 0.79391 0.0
C152 C 0.71598 0.15518 0.82265 0.0
C153 C 0.74141 0.16595 0.77104 0.0
C154 C 0.75098 0.19315 0.77612 0.0
C155 C 0.72603 0.1824 0.82793 0.0
C156 C 0.74331 0.20111 0.80498 0.0
C157 C 0.76987 0.21389 0.75286 0.0
H158 H 0.89811 0.32125 0.76122 0.0
H159 H 0.86241 0.28362 0.73176 0.0
H160 H 0.84194 0.31442 0.8365 0.0
H161 H 0.80635 0.27802 0.8062 0.0
H162 H 0.84599 0.34637 0.68847 0.0
H163 H 0.82082 0.30871 0.72495 0.0
H164 H 0.84673 0.29377 0.61331 0.0
H165 H 0.82359 0.25635 0.65141 0.0
H166 H 0.6772 0.15422 0.69775 0.0
H167 H 0.71311 0.18779 0.73177 0.0
H168 H 0.73449 0.15914 0.62583 0.0
H169 H 0.77053 0.19145 0.66066 0.0
H170 H 0.71661 0.12627 0.78939 0.0
H171 H 0.74763 0.15927 0.74957 0.0
H172 H 0.72018 0.18926 0.8496 0.0
H173 H 0.7505 0.22196 0.80968 0.0
N174 N 0.79105 0.23544 0.76639 0.0
N175 N 0.78473 0.23458 0.69991 0.0
C176 C 0.57514 0.68383 0.2078 0.0
C177 C 0.55338 0.66957 0.18664 0.0
C178 C 0.57892 0.70695 0.22336 0.0
C179 C 0.56077 0.7159 0.2184 0.0
C180 C 0.53644 0.67974 0.17995 0.0
C181 C 0.54012 0.70266 0.19564 0.0
C182 C 0.56193 0.73789 0.23812 0.0
C183 C 0.54437 0.67045 0.30535 0.0
C184 C 0.56403 0.6762 0.32917 0.0
C185 C 0.54379 0.69091 0.288 0.0
C186 C 0.56348 0.71747 0.2932 0.0
C187 C 0.58289 0.7028 0.33574 0.0
C188 C 0.58266 0.72331 0.31777 0.0
C189 C 0.56396 0.73904 0.27307 0.0
C190 C 0.53426 0.81951 0.31199 0.0
C191 C 0.55235 0.83221 0.33796 0.0
C192 C 0.53766 0.80285 0.29001 0.0
C193 C 0.55934 0.79871 0.29342 0.0
C194 C 0.57416 0.82822 0.34107 0.0
C195 C 0.57749 0.81151 0.31918 0.0
C196 C 0.56161 0.77888 0.27286 0.0
C197 C 0.57034 0.84181 0.1987 0.0
C198 C 0.55215 0.83217 0.17229 0.0
C199 C 0.57231 0.82423 0.22075 0.0
C200 C 0.55584 0.79668 0.21705 0.0
C201 C 0.53554 0.80463 0.16894 0.0
C202 C 0.53742 0.78713 0.191 0.0
C203 C 0.55902 0.77741 0.23787 0.0
H204 H 0.58864 0.67663 0.21328 0.0
H205 H 0.59544 0.71726 0.2402 0.0
H206 H 0.51996 0.66968 0.16299 0.0
H207 H 0.5261 0.7094 0.19102 0.0
H208 H 0.52924 0.65011 0.30049 0.0
H209 H 0.5281 0.68592 0.27018 0.0
H210 H 0.59805 0.70765 0.3543 0.0
H211 H 0.59775 0.74367 0.32259 0.0
H212 H 0.51735 0.82231 0.30876 0.0
H213 H 0.52292 0.79263 0.27098 0.0
H214 H 0.58826 0.83742 0.36103 0.0
H215 H 0.59411 0.80827 0.32264 0.0
H216 H 0.58364 0.86293 0.20169 0.0
H217 H 0.58723 0.83216 0.23998 0.0
H218 H 0.52105 0.79656 0.1492 0.0
H219 H 0.52454 0.76598 0.1875 0.0
N220 N 0.55927 0.75694 0.22202 0.0
N221 N 0.56408 0.75965 0.28902 0.0
C222 C 0.87542 0.6047 0.7303 0.0
C223 C 0.87099 0.59391 0.69822 0.0
C224 C 0.85428 0.6029 0.74913 0.0
C225 C 0.82826 0.58955 0.73653 0.0
C226 C 0.8451 0.58099 0.68554 0.0
C227 C 0.82403 0.57881 0.70446 0.0
C228 C 0.80523 0.58737 0.75531 0.0
C229 C 0.83767 0.54726 0.82025 0.0
C230 C 0.84777 0.56011 0.85073 0.0
C231 C 0.82251 0.55419 0.80022 0.0
C232 C 0.81729 0.57425 0.8101 0.0
C233 C 0.84205 0.57985 0.86082 0.0
C234 C 0.8268 0.58671 0.84078 0.0
C235 C 0.80052 0.58103 0.78953 0.0
C236 C 0.68576 0.54457 0.80311 0.0
C237 C 0.68407 0.55848 0.8306 0.0
C238 C 0.71031 0.55164 0.78892 0.0
C239 C 0.73367 0.57296 0.80166 0.0
C240 C 0.70755 0.57965 0.84359 0.0
C241 C 0.73219 0.5867 0.82937 0.0
C242 C 0.75948 0.58077 0.78578 0.0
C243 C 0.71002 0.59975 0.72001 0.0
C244 C 0.70288 0.58501 0.69048 0.0
C245 C 0.73095 0.60185 0.73925 0.0
C246 C 0.74455 0.58861 0.72973 0.0
C247 C 0.71768 0.5733 0.67995 0.0
C248 C 0.73831 0.5751 0.69937 0.0
C249 C 0.76424 0.58731 0.75174 0.0
H250 H 0.89527 0.61497 0.74048 0.0
H251 H 0.85838 0.61222 0.77328 0.0
H252 H 0.84108 0.57224 0.66102 0.0
H253 H 0.80427 0.56847 0.694 0.0
H254 H 0.84117 0.53157 0.81203 0.0
H255 H 0.81463 0.54367 0.77714 0.0
H256 H 0.84968 0.5903 0.88399 0.0
H257 H 0.82266 0.60198 0.84906 0.0
H258 H 0.66805 0.52827 0.79243 0.0
H259 H 0.71106 0.54054 0.7678 0.0
H260 H 0.70689 0.59047 0.86507 0.0
H261 H 0.75004 0.60306 0.83968 0.0
H262 H 0.69919 0.60932 0.72842 0.0
H263 H 0.73598 0.61317 0.76201 0.0
H264 H 0.71252 0.56166 0.65743 0.0
H265 H 0.7486 0.56487 0.69134 0.0
N266 N 0.78682 0.5902 0.7379 0.0
N267 N 0.77789 0.57814 0.80347 0.0
C268 C 0.16566 0.71064 0.17512 0.0
C269 C 0.15621 0.71576 0.14555 0.0
C270 C 0.18154 0.73127 0.19661 0.0
C271 C 0.18805 0.75744 0.18923 0.0
C272 C 0.16321 0.74206 0.13783 0.0
C273 C 0.1791 0.76274 0.15944 0.0
C274 C 0.2058 0.77944 0.21129 0.0
C275 C 0.13079 0.73028 0.27189 0.0
C276 C 0.13483 0.71549 0.29645 0.0
C277 C 0.15248 0.75078 0.25502 0.0
C278 C 0.17846 0.75706 0.26301 0.0
C279 C 0.1608 0.72172 0.30421 0.0
C280 C 0.18244 0.74256 0.28795 0.0
C281 C 0.20171 0.77887 0.24594 0.0
C282 C 0.29772 0.88413 0.28547 0.0
C283 C 0.30759 0.8749 0.31085 0.0
C284 C 0.27538 0.86624 0.26743 0.0
C285 C 0.26289 0.83889 0.27428 0.0
C286 C 0.29351 0.84784 0.31955 0.0
C287 C 0.27134 0.83002 0.30147 0.0
C288 C 0.24297 0.81909 0.25152 0.0
C289 C 0.32121 0.86177 0.20005 0.0
C290 C 0.3218 0.87647 0.17193 0.0
C291 C 0.29712 0.84266 0.21389 0.0
C292 C 0.27295 0.83851 0.20094 0.0
C293 C 0.29746 0.87128 0.15802 0.0
C294 C 0.27331 0.85254 0.17243 0.0
C295 C 0.2474 0.81936 0.21693 0.0
H296 H 0.16118 0.69071 0.18139 0.0
H297 H 0.18914 0.7268 0.2187 0.0
H298 H 0.15614 0.74661 0.1153 0.0
H299 H 0.18428 0.78286 0.15303 0.0
H300 H 0.1109 0.7258 0.26561 0.0
H301 H 0.14903 0.76189 0.23601 0.0
H302 H 0.16435 0.71069 0.32324 0.0
H303 H 0.20233 0.74715 0.29451 0.0
H304 H 0.30804 0.90489 0.27838 0.0
H305 H 0.26875 0.87358 0.24699 0.0
H306 H 0.30022 0.84028 0.33964 0.0
H307 H 0.26178 0.80907 0.3075 0.0
H308 H 0.33933 0.86517 0.2118 0.0
H309 H 0.29743 0.83139 0.23513 0.0
H310 H 0.29695 0.88153 0.13583 0.0
H311 H 0.25491 0.84925 0.16154 0.0
N312 N 0.22845 0.79972 0.19807 0.0
N313 N 0.22049 0.79867 0.26474 0.0
C314 C 0.41175 0.10124 0.80195 0.0
C315 C 0.43039 0.10839 0.82755 0.0
C316 C 0.40929 0.12077 0.78464 0.0
C317 C 0.42612 0.14782 0.79187 0.0
C318 C 0.44628 0.1353 0.83577 0.0
C319 C 0.4442 0.15479 0.81809 0.0
C320 C 0.4255 0.16918 0.77237 0.0
C321 C 0.44821 0.12458 0.70249 0.0
C322 C 0.42755 0.10847 0.68066 0.0
C323 C 0.44741 0.14465 0.7204 0.0
C324 C 0.42591 0.14899 0.71701 0.0
C325 C 0.40631 0.11333 0.67674 0.0
C326 C 0.4056 0.13356 0.69462 0.0
C327 C 0.42454 0.16934 0.73737 0.0
C328 C 0.45749 0.28167 0.70408 0.0
C329 C 0.44055 0.27801 0.67728 0.0
C330 C 0.45299 0.26031 0.72443 0.0
C331 C 0.43125 0.23489 0.7187 0.0
C332 C 0.41885 0.2525 0.67155 0.0
C333 C 0.41436 0.23115 0.69194 0.0
C334 C 0.42743 0.21174 0.73851 0.0
C335 C 0.41762 0.26524 0.81171 0.0
C336 C 0.4349 0.27299 0.83903 0.0
C337 C 0.41555 0.24552 0.79004 0.0
C338 C 0.4311 0.23354 0.79497 0.0
C339 C 0.4503 0.26088 0.84394 0.0
C340 C 0.44839 0.24138 0.8222 0.0
C341 C 0.42847 0.21162 0.77362 0.0
H342 H 0.39903 0.08057 0.7955 0.0
H343 H 0.3944 0.1147 0.76546 0.0
H344 H 0.46091 0.14134 0.85531 0.0
H345 H 0.45727 0.17544 0.82438 0.0
H346 H 0.46522 0.12193 0.70546 0.0
H347 H 0.46354 0.15671 0.73711 0.0
H348 H 0.39003 0.10126 0.66025 0.0
H349 H 0.3889 0.13673 0.69162 0.0
H350 H 0.47469 0.30091 0.7088 0.0
H351 H 0.4669 0.26357 0.74414 0.0
H352 H 0.40528 0.24902 0.65133 0.0
H353 H 0.39766 0.21165 0.68679 0.0
H354 H 0.40525 0.27399 0.80756 0.0
H355 H 0.40144 0.2393 0.7699 0.0
H356 H 0.46403 0.26663 0.86449 0.0
H357 H 0.46052 0.23239 0.82668 0.0
N358 N 0.42754 0.19036 0.789 0.0
N359 N 0.42532 0.19046 0.72179 0.0
H360 H 0.06595 0.48841 0.0369 0.0
H361 H 0.00177 0.45886 0.10836 0.0
H362 H 0.09276 0.48038 0.07611 0.0
H363 H 0.029 0.45072 0.14786 0.0
H364 H 0.08377 0.41923 0.19331 0.0
H365 H 0.05293 0.42279 0.15494 0.0
H366 H 0.11331 0.50298 0.13063 0.0
H367 H 0.14394 0.49943 0.16845 0.0
C368 C 0.0574 0.47996 0.06088 0.0
C369 C 0.03175 0.47453 0.06958 0.0
C370 C 0.07287 0.47546 0.08339 0.0
C371 C 0.06308 0.46527 0.11514 0.0
C372 C 0.03699 0.4586 0.12349 0.0
C373 C 0.02147 0.46332 0.10093 0.0
C374 C 0.09034 0.43759 0.17975 0.0
C375 C 0.11623 0.45907 0.1839 0.0
C376 C 0.07268 0.43967 0.15803 0.0
C377 C 0.08082 0.4631 0.13971 0.0
C378 C 0.10659 0.48459 0.1442 0.0
C379 C 0.12405 0.48264 0.16608 0.0
H380 H 0.55387 0.03067 0.5816 0.0
H381 H 0.60034 0.0666 0.49321 0.0
H382 H 0.59057 0.06129 0.6158 0.0
H383 H 0.63813 0.09646 0.52756 0.0
H384 H 0.69174 0.16371 0.59747 0.0
H385 H 0.65537 0.13333 0.5618 0.0
H386 H 0.63132 0.07169 0.63636 0.0
H387 H 0.66664 0.10289 0.67258 0.0
C388 C 0.57221 0.04489 0.56949 0.0
C389 C 0.57431 0.04619 0.53474 0.0
C390 C 0.59342 0.0624 0.58916 0.0
C391 C 0.61761 0.08134 0.57466 0.0
C392 C 0.61975 0.08247 0.53973 0.0
C393 C 0.5982 0.06526 0.51997 0.0
C394 C 0.6785 0.14363 0.60604 0.0
C395 C 0.68168 0.13553 0.63767 0.0
C396 C 0.6578 0.1261 0.58555 0.0
C397 C 0.64019 0.09992 0.59604 0.0
C398 C 0.64395 0.09181 0.62761 0.0
C399 C 0.66427 0.10955 0.64836 0.0
H400 H 0.48802 0.54392 0.05127 0.0
H401 H 0.53711 0.52048 0.1054 0.0
H402 H 0.50206 0.58172 0.08753 0.0
H403 H 0.55157 0.55924 0.14195 0.0
H404 H 0.5884 0.65566 0.16017 0.0
H405 H 0.57744 0.61417 0.13167 0.0
H406 H 0.49441 0.584 0.15215 0.0
H407 H 0.50516 0.6248 0.18115 0.0
C408 C 0.50197 0.5469 0.07083 0.0
C409 C 0.51145 0.52915 0.07546 0.0
C410 C 0.50987 0.56852 0.0917 0.0
C411 C 0.5277 0.57321 0.11757 0.0
C412 C 0.53775 0.55592 0.12208 0.0
C413 C 0.52944 0.5338 0.10133 0.0
C414 C 0.56788 0.63994 0.15918 0.0
C415 C 0.54758 0.64375 0.17224 0.0
C416 C 0.56167 0.61623 0.14298 0.0
C417 C 0.5351 0.59613 0.13956 0.0
C418 C 0.51502 0.59938 0.15419 0.0
C419 C 0.52119 0.62284 0.17048 0.0
H420 H 0.94132 0.56036 0.53481 0.0
H421 H 0.00448 0.5863 0.60658 0.0
H422 H 0.91651 0.57215 0.5726 0.0
H423 H 0.97969 0.59886 0.64443 0.0
H424 H 0.90828 0.58063 0.71563 0.0
H425 H 0.93996 0.57722 0.67885 0.0
H426 H 0.915 0.60834 0.59778 0.0
H427 H 0.88296 0.61094 0.63431 0.0
C428 C 0.95014 0.56898 0.5585 0.0
C429 C 0.97489 0.5723 0.56766 0.0
C430 C 0.93594 0.57595 0.58016 0.0
C431 C 0.9461 0.58657 0.61159 0.0
C432 C 0.97118 0.59051 0.62054 0.0
C433 C 0.98545 0.58347 0.59876 0.0
C434 C 0.90998 0.58716 0.69008 0.0
C435 C 0.89297 0.59569 0.67764 0.0
C436 C 0.92816 0.58528 0.66901 0.0
C437 C 0.92975 0.59212 0.63519 0.0
C438 C 0.91384 0.60227 0.62345 0.0
C439 C 0.89556 0.60387 0.64437 0.0
H440 H 0.48806 0.98582 0.11649 0.0
H441 H 0.44046 0.97082 0.02861 0.0
H442 H 0.44737 0.96115 0.14995 0.0
H443 H 0.40006 0.94707 0.06198 0.0
H444 H 0.3339 0.92352 0.14091 0.0
H445 H 0.37554 0.95531 0.11399 0.0
H446 H 0.41056 0.90848 0.14382 0.0
H447 H 0.36873 0.87576 0.16889 0.0
C448 C 0.46893 0.97793 0.10458 0.0
C449 C 0.46726 0.98012 0.07009 0.0
C450 C 0.44575 0.96375 0.1236 0.0
C451 C 0.42069 0.95227 0.10843 0.0
C452 C 0.41913 0.9559 0.07426 0.0
C453 C 0.4422 0.9694 0.05521 0.0
C454 C 0.3503 0.91973 0.14152 0.0
C455 C 0.34765 0.89679 0.15703 0.0
C456 C 0.37423 0.93816 0.12644 0.0
C457 C 0.39623 0.93441 0.1272 0.0
C458 C 0.39399 0.91205 0.14346 0.0
C459 C 0.36994 0.89332 0.15791 0.0
H460 H 0.49439 0.39561 0.51803 0.0
H461 H 0.45709 0.42226 0.58908 0.0
H462 H 0.48251 0.35666 0.5526 0.0
H463 H 0.44478 0.3832 0.62311 0.0
H464 H 0.45671 0.32929 0.69479 0.0
H465 H 0.46671 0.36667 0.65845 0.0
H466 H 0.44545 0.31524 0.57315 0.0
H467 H 0.43648 0.27801 0.60947 0.0
C468 C 0.48339 0.39301 0.54079 0.0
C469 C 0.47685 0.41216 0.55086 0.0
C470 C 0.47649 0.37063 0.56056 0.0
C471 C 0.46288 0.3669 0.5908 0.0
C472 C 0.45571 0.3857 0.60032 0.0
C473 C 0.46263 0.40804 0.58065 0.0
C474 C 0.45436 0.32598 0.66827 0.0
C475 C 0.44582 0.30064 0.65508 0.0
C476 C 0.45979 0.34736 0.64743 0.0
C477 C 0.45679 0.34396 0.61285 0.0
C478 C 0.44818 0.31861 0.59963 0.0
C479 C 0.44273 0.29719 0.6205 0.0
H480 H 0.49856 0.89745 0.49646 0.0
H481 H 0.55124 0.96382 0.43424 0.0
H482 H 0.50873 0.86831 0.4635 0.0
H483 H 0.56109 0.93484 0.40135 0.0
H484 H 0.50584 0.82229 0.36751 0.0
H485 H 0.49884 0.85042 0.40625 0.0
H486 H 0.58259 0.90791 0.40286 0.0
H487 H 0.58948 0.88014 0.36341 0.0
C488 C 0.51256 0.90588 0.47609 0.0
C489 C 0.524 0.93292 0.46791 0.0
C490 C 0.51821 0.88917 0.45705 0.0
C491 C 0.53562 0.89924 0.42969 0.0
C492 C 0.5478 0.92647 0.42241 0.0
C493 C 0.54202 0.94307 0.44121 0.0
C494 C 0.52273 0.84101 0.37489 0.0
C495 C 0.54819 0.84907 0.36216 0.0
C496 C 0.51878 0.85695 0.39745 0.0
C497 C 0.54016 0.88139 0.40768 0.0
C498 C 0.56567 0.88929 0.39529 0.0
C499 C 0.56965 0.87329 0.37285 0.0
H500 H 0.55153 0.48427 0.96284 0.0
H501 H 0.5301 0.53287 0.90396 0.0
H502 H 0.59171 0.49973 0.93039 0.0
H503 H 0.57094 0.54848 0.87106 0.0
H504 H 0.66442 0.59 0.85232 0.0
H505 H 0.62195 0.57583 0.88048 0.0
H506 H 0.60238 0.49407 0.87183 0.0
H507 H 0.64472 0.50812 0.84443 0.0
C508 C 0.55537 0.4983 0.94292 0.0
C509 C 0.53753 0.50732 0.93598 0.0
C510 C 0.57838 0.50702 0.92418 0.0
C511 C 0.58435 0.52513 0.89806 0.0
C512 C 0.56679 0.53452 0.89116 0.0
C513 C 0.54342 0.52552 0.90984 0.0
C514 C 0.65099 0.56902 0.85648 0.0
C515 C 0.65795 0.55018 0.84632 0.0
C516 C 0.62662 0.56092 0.87223 0.0
C517 C 0.60895 0.53388 0.87842 0.0
C518 C 0.61571 0.51507 0.86761 0.0
C519 C 0.63989 0.52311 0.85172 0.0
H520 H 0.04323 0.62212 0.46075 0.0
H521 H 0.00504 0.56795 0.37959 0.0
H522 H 0.07021 0.65748 0.42115 0.0
H523 H 0.03265 0.60327 0.33999 0.0
H524 H 0.12098 0.66347 0.29908 0.0
H525 H 0.08611 0.62831 0.33322 0.0
H526 H 0.06385 0.68404 0.37012 0.0
H527 H 0.09833 0.71906 0.33517 0.0
C528 C 0.04036 0.6179 0.43443 0.0
C529 C 0.02205 0.5923 0.42323 0.0
C530 C 0.05572 0.63814 0.41182 0.0
C531 C 0.0535 0.63302 0.3776 0.0
C532 C 0.0347 0.60765 0.36629 0.0
C533 C 0.01885 0.58754 0.38891 0.0
C534 C 0.10829 0.668 0.31408 0.0
C535 C 0.11219 0.69384 0.31458 0.0
C536 C 0.08833 0.64794 0.33344 0.0
C537 C 0.07234 0.65353 0.3542 0.0
C538 C 0.07593 0.67928 0.35426 0.0
C539 C 0.09552 0.69921 0.33428 0.0
H540 H 0.50606 0.05452 0.95849 0.0
H541 H 0.46136 0.98323 0.90065 0.0
H542 H 0.48615 0.07587 0.92809 0.0
H543 H 0.44075 0.00483 0.87018 0.0
H544 H 0.43843 0.06986 0.80082 0.0
H545 H 0.45188 0.04163 0.83032 0.0
H546 H 0.44367 0.07324 0.92372 0.0
H547 H 0.43103 0.1018 0.89419 0.0
C548 C 0.49181 0.04327 0.93936 0.0
C549 C 0.48519 0.01705 0.93217 0.0
C550 C 0.48019 0.05552 0.92205 0.0
C551 C 0.46146 0.04191 0.89712 0.0
C552 C 0.4551 0.01581 0.88932 0.0
C553 C 0.46686 0.00345 0.90675 0.0
C554 C 0.43904 0.0703 0.8277 0.0
C555 C 0.43411 0.08822 0.84529 0.0
C556 C 0.44669 0.05414 0.84457 0.0
C557 C 0.44934 0.05558 0.87931 0.0
C558 C 0.44251 0.07218 0.89689 0.0
C559 C 0.43517 0.08845 0.88006 0.0
H560 H 0.42772 0.44417 0.44792 0.0
H561 H 0.42309 0.50492 0.50405 0.0
H562 H 0.39243 0.44011 0.41162 0.0
H563 H 0.38771 0.50082 0.46755 0.0
H564 H 0.35546 0.51122 0.36665 0.0
H565 H 0.38716 0.51221 0.4068 0.0
H566 H 0.34383 0.42662 0.41173 0.0
H567 H 0.31154 0.42551 0.37227 0.0
C568 C 0.4189 0.4564 0.4528 0.0
C569 C 0.42826 0.47495 0.47879 0.0
C570 C 0.39864 0.454 0.43205 0.0
C571 C 0.3875 0.47031 0.43659 0.0
C572 C 0.39619 0.48822 0.46327 0.0
C573 C 0.41626 0.4904 0.48432 0.0
C574 C 0.35246 0.49258 0.37651 0.0
C575 C 0.33082 0.46828 0.36623 0.0
C576 C 0.37064 0.49318 0.39955 0.0
C577 C 0.36782 0.46951 0.41261 0.0
C578 C 0.34654 0.44518 0.40195 0.0
C579 C 0.32817 0.44457 0.37914 0.0
H580 H 0.94898 0.42499 0.96121 0.0
H581 H 0.01051 0.46235 0.88659 0.0
H582 H 0.9221 0.38971 0.92269 0.0
H583 H 0.98322 0.42625 0.84792 0.0
H584 H 0.92463 0.33385 0.81152 0.0
H585 H 0.95788 0.37012 0.84564 0.0
H586 H 0.90192 0.3965 0.86545 0.0
H587 H 0.86917 0.36122 0.83073 0.0
C588 C 0.957 0.42553 0.93674 0.0
C589 C 0.9818 0.44674 0.92684 0.0
C590 C 0.94152 0.40529 0.91471 0.0
C591 C 0.95052 0.40556 0.88235 0.0
C592 C 0.97594 0.42575 0.87283 0.0
C593 C 0.99146 0.44633 0.89491 0.0
C594 C 0.91963 0.34772 0.8226 0.0
C595 C 0.89405 0.34433 0.8189 0.0
C596 C 0.93863 0.36838 0.84212 0.0
C597 C 0.9322 0.38573 0.85838 0.0
C598 C 0.90714 0.38306 0.85351 0.0
C599 C 0.88836 0.36274 0.83382 0.0
H600 H 0.97841 0.54742 0.93186 0.0
H601 H 0.9136 0.49785 0.99798 0.0
H602 H 0.94974 0.55904 0.90146 0.0
H603 H 0.88447 0.50905 0.96675 0.0
H604 H 0.84737 0.55521 0.91864 0.0
H605 H 0.87577 0.54488 0.95259 0.0
H606 H 0.91338 0.53767 0.86375 0.0
H607 H 0.88604 0.54921 0.83008 0.0
C608 C 0.95797 0.53894 0.93991 0.0
C609 C 0.94824 0.52152 0.96722 0.0
C610 C 0.94147 0.5455 0.9223 0.0
C611 C 0.91468 0.53468 0.93131 0.0
C612 C 0.90505 0.51784 0.95924 0.0
C613 C 0.9217 0.51135 0.97708 0.0
C614 C 0.8619 0.55168 0.9064 0.0
C615 C 0.86447 0.55313 0.8716 0.0
C616 C 0.87795 0.54545 0.92586 0.0
C617 C 0.89695 0.54058 0.91094 0.0
C618 C 0.89925 0.54173 0.87613 0.0
C619 C 0.8833 0.548 0.85675 0.0
H620 H 0.45973 0.00029 0.39265 0.0
H621 H 0.43284 0.92786 0.449 0.0
H622 H 0.42075 0.97714 0.35642 0.0
H623 H 0.39457 0.90524 0.41331 0.0
H624 H 0.34719 0.8644 0.32343 0.0
H625 H 0.38844 0.89181 0.35289 0.0
H626 H 0.36851 0.95365 0.36276 0.0
H627 H 0.3267 0.92593 0.33326 0.0
C628 C 0.44563 0.97953 0.39723 0.0
C629 C 0.44939 0.9659 0.42362 0.0
C630 C 0.42334 0.96639 0.37668 0.0
C631 C 0.40485 0.93939 0.38199 0.0
C632 C 0.4087 0.92595 0.40837 0.0
C633 C 0.43061 0.93902 0.42894 0.0
C634 C 0.35148 0.88379 0.33198 0.0
C635 C 0.33341 0.89276 0.32678 0.0
C636 C 0.37518 0.89953 0.34863 0.0
C637 C 0.38145 0.92468 0.3604 0.0
C638 C 0.36412 0.93435 0.35379 0.0
C639 C 0.34023 0.91847 0.33708 0.0
H640 H 0.48202 0.38775 0.99897 0.0
H641 H 0.4306 0.40367 0.93797 0.0
H642 H 0.47306 0.35014 0.96364 0.0
H643 H 0.42099 0.36575 0.90341 0.0
H644 H 0.43843 0.32048 0.82417 0.0
H645 H 0.4437 0.3551 0.86247 0.0
H646 H 0.44093 0.30645 0.94536 0.0
H647 H 0.43615 0.27204 0.90685 0.0
C648 C 0.46839 0.38289 0.97845 0.0
C649 C 0.45722 0.39882 0.9711 0.0
C650 C 0.4632 0.3613 0.95819 0.0
C651 C 0.44655 0.35509 0.93035 0.0
C652 C 0.43442 0.37032 0.92409 0.0
C653 C 0.43978 0.39197 0.9441 0.0
C654 C 0.43868 0.31709 0.85058 0.0
C655 C 0.43694 0.29358 0.86247 0.0
C656 C 0.44163 0.3369 0.8726 0.0
C657 C 0.4427 0.33359 0.9071 0.0
C658 C 0.4406 0.30987 0.91898 0.0
C659 C 0.43781 0.29013 0.89692 0.0
H660 H 0.03876 0.51743 0.42111 0.0
H661 H 0.07586 0.51892 0.51437 0.0
H662 H 0.06689 0.50418 0.39273 0.0
H663 H 0.10347 0.50416 0.48605 0.0
H664 H 0.16727 0.50499 0.41706 0.0
H665 H 0.13933 0.51703 0.44883 0.0
H666 H 0.07334 0.4684 0.38452 0.0
H667 H 0.10176 0.45841 0.35105 0.0
C668 C 0.05275 0.51455 0.43567 0.0
C669 C 0.05499 0.51907 0.47003 0.0
C670 C 0.0688 0.5067 0.41938 0.0
C671 C 0.08727 0.50263 0.43706 0.0
C672 C 0.08964 0.50729 0.47154 0.0
C673 C 0.07377 0.51563 0.48783 0.0
C674 C 0.14689 0.49712 0.40939 0.0
C675 C 0.137 0.48098 0.38106 0.0
C676 C 0.1307 0.5037 0.42803 0.0
C677 C 0.10408 0.49399 0.41911 0.0
C678 C 0.0939 0.47685 0.39174 0.0
C679 C 0.11016 0.47068 0.37279 0.0
H680 H 0.60819 0.08526 0.98915 0.0
H681 H 0.59002 0.01775 0.92736 0.0
H682 H 0.64437 0.11384 0.95171 0.0
H683 H 0.6267 0.04604 0.8906 0.0
H684 H 0.66956 0.1094 0.80989 0.0
H685 H 0.63676 0.0791 0.84978 0.0
H686 H 0.68709 0.12607 0.93043 0.0
H687 H 0.71953 0.15667 0.89037 0.0
C688 C 0.61226 0.07642 0.96796 0.0
C689 C 0.59609 0.04926 0.96114 0.0
C690 C 0.63309 0.0928 0.94648 0.0
C691 C 0.63839 0.08235 0.91783 0.0
C692 C 0.62288 0.05494 0.91193 0.0
C693 C 0.60194 0.03865 0.9332 0.0
C694 C 0.67374 0.11302 0.83615 0.0
C695 C 0.69706 0.13548 0.84696 0.0
C696 C 0.65496 0.09562 0.8591 0.0
C697 C 0.65915 0.10011 0.89347 0.0
C698 C 0.68289 0.12221 0.90422 0.0
C699 C 0.70156 0.13972 0.88126 0.0
H700 H 0.56159 0.56767 0.4799 0.0
H701 H 0.5189 0.51849 0.39671 0.0
H702 H 0.5766 0.6073 0.44585 0.0
H703 H 0.53209 0.55806 0.36294 0.0
H704 H 0.56524 0.63347 0.30386 0.0
H705 H 0.56237 0.59577 0.33431 0.0
H706 H 0.55811 0.6315 0.42656 0.0
H707 H 0.56265 0.66963 0.396 0.0
C708 C 0.55573 0.56546 0.45407 0.0
C709 C 0.53918 0.54021 0.44078 0.0
C710 C 0.56399 0.58814 0.43462 0.0
C711 C 0.55508 0.58611 0.40173 0.0
C712 C 0.53963 0.56059 0.38798 0.0
C713 C 0.53198 0.53783 0.40728 0.0
C714 C 0.56406 0.63325 0.33071 0.0
C715 C 0.56416 0.65433 0.3477 0.0
C716 C 0.56223 0.6116 0.3482 0.0
C717 C 0.55988 0.61033 0.38304 0.0
C718 C 0.5605 0.63185 0.39989 0.0
C719 C 0.56289 0.6537 0.38242 0.0
H720 H 0.47381 0.04022 0.52703 0.0
H721 H 0.45046 0.97997 0.60308 0.0
H722 H 0.45765 0.06349 0.56074 0.0
H723 H 0.43345 0.00321 0.63687 0.0
H724 H 0.4446 0.07469 0.70177 0.0
H725 H 0.45196 0.04414 0.66835 0.0
H726 H 0.4192 0.06259 0.58303 0.0
H727 H 0.41326 0.09426 0.61593 0.0
C728 C 0.46487 0.03169 0.55083 0.0
C729 C 0.46363 0.00829 0.56245 0.0
C730 C 0.45533 0.04498 0.57009 0.0
C731 C 0.44416 0.03523 0.60153 0.0
C732 C 0.44217 0.01138 0.61287 0.0
C733 C 0.45177 0.99799 0.59347 0.0
C734 C 0.43901 0.07227 0.67585 0.0
C735 C 0.42879 0.08733 0.6614 0.0
C736 C 0.44285 0.05442 0.65681 0.0
C737 C 0.43643 0.05109 0.6229 0.0
C738 C 0.42481 0.06502 0.60895 0.0
C739 C 0.42112 0.08299 0.62792 0.0
H740 H 0.40674 0.43211 0.06942 0.0
H741 H 0.3973 0.48697 0.0064 0.0
H742 H 0.37119 0.4279 0.10513 0.0
H743 H 0.36112 0.48238 0.04214 0.0
H744 H 0.32831 0.49619 0.1413 0.0
H745 H 0.35835 0.49663 0.09868 0.0
H746 H 0.32402 0.41183 0.10958 0.0
H747 H 0.29466 0.41152 0.15307 0.0
C748 C 0.39674 0.44294 0.06283 0.0
C749 C 0.40499 0.46003 0.03515 0.0
C750 C 0.3762 0.44038 0.08326 0.0
C751 C 0.36338 0.45491 0.07664 0.0
C752 C 0.37084 0.47117 0.04814 0.0
C753 C 0.39138 0.47362 0.0275 0.0
C754 C 0.32726 0.47765 0.13473 0.0
C755 C 0.30925 0.45386 0.15087 0.0
C756 C 0.34421 0.47785 0.10992 0.0
C757 C 0.34361 0.45427 0.10069 0.0
C758 C 0.32517 0.43038 0.1163 0.0
C759 C 0.30819 0.43018 0.14106 0.0
H760 H 0.92526 0.43992 0.48582 0.0
H761 H 0.95416 0.481 0.57891 0.0
H762 H 0.89688 0.3984 0.51638 0.0
H763 H 0.92535 0.43993 0.60906 0.0
H764 H 0.84302 0.36745 0.64175 0.0
H765 H 0.86904 0.40671 0.60743 0.0
H766 H 0.91145 0.37067 0.56519 0.0
H767 H 0.88676 0.33186 0.60098 0.0
C768 C 0.9254 0.4401 0.5127 0.0
C769 C 0.94194 0.46362 0.53002 0.0
C770 C 0.9093 0.41643 0.53008 0.0
C771 C 0.90903 0.41618 0.56494 0.0
C772 C 0.92522 0.43974 0.58217 0.0
C773 C 0.94174 0.46315 0.5649 0.0
C774 C 0.85808 0.36785 0.62556 0.0
C775 C 0.86294 0.34644 0.62468 0.0
C776 C 0.87273 0.39026 0.60564 0.0
C777 C 0.89209 0.39153 0.58376 0.0
C778 C 0.89638 0.36992 0.58172 0.0
C779 C 0.88212 0.34768 0.60217 0.0
H780 H 0.5669 0.96891 0.06505 0.0
H781 H 0.50878 0.90159 0.00928 0.0
H782 H 0.57364 0.93938 0.10127 0.0
H783 H 0.51502 0.8718 0.04626 0.0
H784 H 0.54808 0.8272 0.10473 0.0
H785 H 0.54493 0.85698 0.06465 0.0
H786 H 0.54944 0.90838 0.14467 0.0
H787 H 0.5529 0.87875 0.18461 0.0
C788 C 0.55564 0.94776 0.06039 0.0
C789 C 0.53716 0.93758 0.03438 0.0
C790 C 0.55936 0.9308 0.08137 0.0
C791 C 0.54457 0.90316 0.07708 0.0
C792 C 0.52686 0.893 0.0502 0.0
C793 C 0.52325 0.91005 0.02899 0.0
C794 C 0.54828 0.84482 0.11375 0.0
C795 C 0.5507 0.8506 0.14788 0.0
C796 C 0.54645 0.86187 0.09076 0.0
C797 C 0.54697 0.88512 0.10135 0.0
C798 C 0.54948 0.89092 0.13551 0.0
C799 C 0.55141 0.87392 0.15847 0.0
H800 H 0.54564 0.54518 0.6143 0.0
H801 H 0.57867 0.5091 0.5508 0.0
H802 H 0.58712 0.56695 0.6457 0.0
H803 H 0.61951 0.53027 0.58226 0.0
H804 H 0.69811 0.58822 0.62352 0.0
H805 H 0.65741 0.57375 0.59213 0.0
H806 H 0.6128 0.55537 0.68376 0.0
H807 H 0.65365 0.57023 0.71514 0.0
C808 C 0.56167 0.54183 0.6071 0.0
C809 C 0.55884 0.52543 0.58003 0.0
C810 C 0.58538 0.55425 0.6251 0.0
C811 C 0.60671 0.55056 0.61626 0.0
C812 C 0.60372 0.53404 0.5893 0.0
C813 C 0.58015 0.52168 0.57141 0.0
C814 C 0.67964 0.58138 0.63692 0.0
C815 C 0.67899 0.58011 0.67172 0.0
C816 C 0.65632 0.57301 0.61898 0.0
C817 C 0.6318 0.563 0.63545 0.0
C818 C 0.63137 0.56312 0.67034 0.0
C819 C 0.65476 0.57164 0.68831 0.0
H820 H 0.02675 0.57642 0.05521 0.0
H821 H 0.09481 0.59163 0.99564 0.0
H822 H 0.05374 0.61703 0.08586 0.0
H823 H 0.12219 0.63231 0.02711 0.0
H824 H 0.15835 0.71435 0.07755 0.0
H825 H 0.13036 0.6772 0.04105 0.0
H826 H 0.08825 0.62982 0.12672 0.0
H827 H 0.11537 0.66701 0.16282 0.0
C828 C 0.04751 0.58851 0.04856 0.0
C829 C 0.05874 0.58064 0.02327 0.0
C830 C 0.063 0.61175 0.06626 0.0
C831 C 0.0902 0.62765 0.05933 0.0
C832 C 0.10125 0.6205 0.03297 0.0
C833 C 0.08562 0.59719 0.01501 0.0
C834 C 0.14287 0.69608 0.08846 0.0
C835 C 0.13907 0.69359 0.12307 0.0
C836 C 0.12705 0.67474 0.06761 0.0
C837 C 0.10704 0.65061 0.08097 0.0
C838 C 0.10323 0.64826 0.11555 0.0
C839 C 0.11899 0.66948 0.13631 0.0
loop_
_geom_bond_atom_site_label_1
_geom_bond_atom_site_label_2
_geom_bond_distance
_geom_bond_site_symmetry_2
_ccdc_geom_bond_type
C0 O2 1.247 . S
C0 O4 1.258 . S
C1 O8 1.247 . S
C1 O9 1.258 . S
O2 C0 1.247 . S
O2 Zn3 2.028 1_455 S
Zn3 O2 2.028 1_655 S
Zn3 O7 2.035 1_554 S
Zn3 O9 2.035 1_554 S
Zn3 O10 2.028 1_655 S
O4 C0 1.258 . S
O4 Zn5 2.035 1_554 S
Zn5 O4 2.035 1_556 S
Zn5 O6 2.028 1_455 S
Zn5 O8 2.028 1_455 S
Zn5 O11 2.035 1_556 S
O6 Zn5 2.028 1_655 S
O6 C12 1.247 . S
O7 Zn3 2.035 1_556 S
O7 C12 1.258 . S
O8 C1 1.247 . S
O8 Zn5 2.028 1_655 S
O9 C1 1.258 . S
O9 Zn3 2.035 1_556 S
O10 Zn3 2.028 1_455 S
O10 C13 1.247 . S
O11 Zn5 2.035 1_554 S
O11 C13 1.258 . S
C12 O6 1.247 . S
C12 O7 1.258 . S
C13 O10 1.247 . S
C13 O11 1.258 . S
C14 O16 1.247 . S
C14 O18 1.258 . S
C15 O22 1.247 . S
C15 O23 1.258 . S
O16 C14 1.247 . S
O16 Zn17 2.028 1_545 S
Zn17 O16 2.028 1_565 S
Zn17 O21 2.035 . S
Zn17 O23 2.035 . S
Zn17 O24 2.028 1_565 S
O18 C14 1.258 . S
O18 Zn19 2.035 . S
Zn19 O18 2.035 . S
Zn19 O20 2.028 1_545 S
Zn19 O22 2.028 1_545 S
Zn19 O25 2.035 . S
O20 Zn19 2.028 1_565 S
O20 C26 1.247 . S
O21 Zn17 2.035 . S
O21 C26 1.258 . S
O22 C15 1.247 . S
O22 Zn19 2.028 1_565 S
O23 C15 1.258 . S
O23 Zn17 2.035 . S
O24 Zn17 2.028 1_545 S
O24 C27 1.247 . S
O25 Zn19 2.035 . S
O25 C27 1.258 . S
C26 O20 1.247 . S
C26 O21 1.258 . S
C27 O24 1.247 . S
C27 O25 1.258 . S
C28 O30 1.247 . S
C28 O32 1.258 . S
C29 O36 1.247 . S
C29 O37 1.258 . S
O30 C28 1.247 . S
O30 Zn31 2.028 . S
Zn31 O30 2.028 . S
Zn31 O35 2.035 1_556 S
Zn31 O37 2.035 1_556 S
Zn31 O38 2.028 . S
O32 C28 1.258 . S
O32 Zn33 2.035 1_556 S
Zn33 O32 2.035 1_554 S
Zn33 O34 2.028 . S
Zn33 O36 2.028 . S
Zn33 O39 2.035 1_554 S
O34 Zn33 2.028 . S
O34 C40 1.247 . S
O35 Zn31 2.035 1_554 S
O35 C40 1.258 . S
O36 C29 1.247 . S
O36 Zn33 2.028 . S
O37 C29 1.258 . S
O37 Zn31 2.035 1_554 S
O38 Zn31 2.028 . S
O38 C41 1.247 . S
O39 Zn33 2.035 1_556 S
O39 C41 1.258 . S
C40 O34 1.247 . S
C40 O35 1.258 . S
C41 O38 1.247 . S
C41 O39 1.258 . S
C42 O44 1.247 . S
C42 O46 1.258 . S
C43 O50 1.247 . S
C43 O51 1.258 . S
O44 C42 1.247 . S
O44 Zn45 2.028 . S
Zn45 O44 2.028 . S
Zn45 O49 2.035 1_455 S
Zn45 O51 2.035 1_455 S
Zn45 O52 2.028 . S
O46 C42 1.258 . S
O46 Zn47 2.035 1_455 S
Zn47 O46 2.035 1_655 S
Zn47 O48 2.028 . S
Zn47 O50 2.028 . S
Zn47 O53 2.035 1_655 S
O48 Zn47 2.028 . S
O48 C54 1.247 . S
O49 Zn45 2.035 1_655 S
O49 C54 1.258 . S
O50 C43 1.247 . S
O50 Zn47 2.028 . S
O51 C43 1.258 . S
O51 Zn45 2.035 1_655 S
O52 Zn45 2.028 . S
O52 C55 1.247 . S
O53 Zn47 2.035 1_455 S
O53 C55 1.258 . S
C54 O48 1.247 . S
C54 O49 1.258 . S
C55 O52 1.247 . S
C55 O53 1.258 . S
C56 O58 1.247 . S
C56 O60 1.258 . S
C57 O64 1.247 . S
C57 O65 1.258 . S
O58 C56 1.247 . S
O58 Zn59 2.028 1_565 S
Zn59 O58 2.028 1_545 S
Zn59 O63 2.035 1_554 S
Zn59 O65 2.035 1_554 S
Zn59 O66 2.028 1_545 S
O60 C56 1.258 . S
O60 Zn61 2.035 1_554 S
Zn61 O60 2.035 1_556 S
Zn61 O62 2.028 1_565 S
Zn61 O64 2.028 1_565 S
Zn61 O67 2.035 1_556 S
O62 Zn61 2.028 1_545 S
O62 C68 1.247 . S
O63 Zn59 2.035 1_556 S
O63 C68 1.258 . S
O64 C57 1.247 . S
O64 Zn61 2.028 1_545 S
O65 C57 1.258 . S
O65 Zn59 2.035 1_556 S
O66 Zn59 2.028 1_565 S
O66 C69 1.247 . S
O67 Zn61 2.035 1_554 S
O67 C69 1.258 . S
C68 O62 1.247 . S
C68 O63 1.258 . S
C69 O66 1.247 . S
C69 O67 1.258 . S
C70 O72 1.247 . S
C70 O74 1.258 . S
C71 O78 1.247 . S
C71 O79 1.258 . S
O72 C70 1.247 . S
O72 Zn73 2.028 . S
Zn73 O72 2.028 . S
Zn73 O77 2.035 . S
Zn73 O79 2.035 . S
Zn73 O80 2.028 . S
O74 C70 1.258 . S
O74 Zn75 2.035 . S
Zn75 O74 2.035 . S
Zn75 O76 2.028 . S
Zn75 O78 2.028 . S
Zn75 O81 2.035 . S
O76 Zn75 2.028 . S
O76 C82 1.247 . S
O77 Zn73 2.035 . S
O77 C82 1.258 . S
O78 C71 1.247 . S
O78 Zn75 2.028 . S
O79 C71 1.258 . S
O79 Zn73 2.035 . S
O80 Zn73 2.028 . S
O80 C83 1.247 . S
O81 Zn75 2.035 . S
O81 C83 1.258 . S
C82 O76 1.247 . S
C82 O77 1.258 . S
C83 O80 1.247 . S
C83 O81 1.258 . S
C84 C85 1.384 . S
C84 C86 1.384 . S
C84 H112 0.931 . S
C85 C84 1.384 . S
C85 C88 1.382 . S
C86 C84 1.384 . S
C86 C87 1.381 . S
C86 H113 0.930 . S
C87 C86 1.381 . S
C87 C89 1.381 . S
C87 C90 1.487 . S
C88 C85 1.382 . S
C88 C89 1.387 . S
C88 H114 0.930 . S
C89 C87 1.381 . S
C89 C88 1.387 . S
C89 H115 0.931 . S
C90 C87 1.487 . S
C90 C97 1.399 . S
C90 N128 1.343 . S
C91 C92 1.384 . S
C91 C93 1.384 . S
C91 H116 0.931 . S
C92 C91 1.384 . S
C92 C95 1.382 . S
C93 C91 1.384 . S
C93 C94 1.381 . S
C93 H117 0.930 . S
C94 C93 1.381 . S
C94 C96 1.381 . S
C94 C97 1.487 . S
C95 C92 1.382 . S
C95 C96 1.387 . S
C95 H118 0.930 . S
C96 C94 1.381 . S
C96 C95 1.387 . S
C96 H119 0.931 . S
C97 C90 1.399 . S
C97 C94 1.487 . S
C97 N129 1.343 . S
C98 C99 1.384 . S
C98 C100 1.384 . S
C98 H120 0.931 . S
C99 C98 1.384 . S
C99 C102 1.382 . S
C100 C98 1.384 . S
C100 C101 1.381 . S
C100 H121 0.930 . S
C101 C100 1.381 . S
C101 C103 1.381 . S
C101 C104 1.487 . S
C102 C99 1.382 . S
C102 C103 1.387 . S
C102 H122 0.930 . S
C103 C101 1.381 . S
C103 C102 1.387 . S
C103 H123 0.931 . S
C104 C101 1.487 . S
C104 C111 1.399 . S
C104 N129 1.343 . S
C105 C106 1.384 . S
C105 C107 1.384 . S
C105 H124 0.931 . S
C106 C105 1.384 . S
C106 C109 1.382 . S
C107 C105 1.384 . S
C107 C108 1.381 . S
C107 H125 0.930 . S
C108 C107 1.381 . S
C108 C110 1.381 . S
C108 C111 1.487 . S
C109 C106 1.382 . S
C109 C110 1.387 . S
C109 H126 0.930 . S
C110 C108 1.381 . S
C110 C109 1.387 . S
C110 H127 0.931 . S
C111 C104 1.399 . S
C111 C108 1.487 . S
C111 N128 1.343 . S
H112 C84 0.931 . S
H113 C86 0.930 . S
H114 C88 0.930 . S
H115 C89 0.931 . S
H116 C91 0.931 . S
H117 C93 0.930 . S
H118 C95 0.930 . S
H119 C96 0.931 . S
H120 C98 0.931 . S
H121 C100 0.930 . S
H122 C102 0.930 . S
H123 C103 0.931 . S
H124 C105 0.931 . S
H125 C107 0.930 . S
H126 C109 0.930 . S
H127 C110 0.931 . S
N128 C90 1.343 . S
N128 C111 1.343 . S
N129 C97 1.343 . S
N129 C104 1.343 . S
C130 C131 1.384 . S
C130 C132 1.384 . S
C130 H158 0.931 . S
C131 C130 1.384 . S
C131 C134 1.382 . S
C132 C130 1.384 . S
C132 C133 1.381 . S
C132 H159 0.930 . S
C133 C132 1.381 . S
C133 C135 1.381 . S
C133 C136 1.487 . S
C134 C131 1.382 . S
C134 C135 1.387 . S
C134 H160 0.930 . S
C135 C133 1.381 . S
C135 C134 1.387 . S
C135 H161 0.931 . S
C136 C133 1.487 . S
C136 C143 1.399 . S
C136 N174 1.343 . S
C137 C138 1.384 . S
C137 C139 1.384 . S
C137 H162 0.931 . S
C138 C137 1.384 . S
C138 C141 1.382 . S
C139 C137 1.384 . S
C139 C140 1.381 . S
C139 H163 0.930 . S
C140 C139 1.381 . S
C140 C142 1.381 . S
C140 C143 1.487 . S
C141 C138 1.382 . S
C141 C142 1.387 . S
C141 H164 0.930 . S
C142 C140 1.381 . S
C142 C141 1.387 . S
C142 H165 0.931 . S
C143 C136 1.399 . S
C143 C140 1.487 . S
C143 N175 1.343 . S
C144 C145 1.384 . S
C144 C146 1.384 . S
C144 H166 0.931 . S
C145 C144 1.384 . S
C145 C148 1.382 . S
C146 C144 1.384 . S
C146 C147 1.381 . S
C146 H167 0.930 . S
C147 C146 1.381 . S
C147 C149 1.381 . S
C147 C150 1.487 . S
C148 C145 1.382 . S
C148 C149 1.387 . S
C148 H168 0.930 . S
C149 C147 1.381 . S
C149 C148 1.387 . S
C149 H169 0.931 . S
C150 C147 1.487 . S
C150 C157 1.399 . S
C150 N175 1.343 . S
C151 C152 1.384 . S
C151 C153 1.384 . S
C151 H170 0.931 . S
C152 C151 1.384 . S
C152 C155 1.382 . S
C153 C151 1.384 . S
C153 C154 1.381 . S
C153 H171 0.930 . S
C154 C153 1.381 . S
C154 C156 1.381 . S
C154 C157 1.487 . S
C155 C152 1.382 . S
C155 C156 1.387 . S
C155 H172 0.930 . S
C156 C154 1.381 . S
C156 C155 1.387 . S
C156 H173 0.931 . S
C157 C150 1.399 . S
C157 C154 1.487 . S
C157 N174 1.343 . S
H158 C130 0.931 . S
H159 C132 0.930 . S
H160 C134 0.930 . S
H161 C135 0.931 . S
H162 C137 0.931 . S
H163 C139 0.930 . S
H164 C141 0.930 . S
H165 C142 0.931 . S
H166 C144 0.931 . S
H167 C146 0.930 . S
H168 C148 0.930 . S
H169 C149 0.931 . S
H170 C151 0.931 . S
H171 C153 0.930 . S
H172 C155 0.930 . S
H173 C156 0.931 . S
N174 C136 1.343 . S
N174 C157 1.343 . S
N175 C143 1.343 . S
N175 C150 1.343 . S
C176 C177 1.384 . S
C176 C178 1.384 . S
C176 H204 0.931 . S
C177 C176 1.384 . S
C177 C180 1.382 . S
C178 C176 1.384 . S
C178 C179 1.381 . S
C178 H205 0.930 . S
C179 C178 1.381 . S
C179 C181 1.381 . S
C179 C182 1.487 . S
C180 C177 1.382 . S
C180 C181 1.387 . S
C180 H206 0.930 . S
C181 C179 1.381 . S
C181 C180 1.387 . S
C181 H207 0.931 . S
C182 C179 1.487 . S
C182 C189 1.399 . S
C182 N220 1.343 . S
C183 C184 1.384 . S
C183 C185 1.384 . S
C183 H208 0.931 . S
C184 C183 1.384 . S
C184 C187 1.382 . S
C185 C183 1.384 . S
C185 C186 1.381 . S
C185 H209 0.930 . S
C186 C185 1.381 . S
C186 C188 1.381 . S
C186 C189 1.487 . S
C187 C184 1.382 . S
C187 C188 1.387 . S
C187 H210 0.930 . S
C188 C186 1.381 . S
C188 C187 1.387 . S
C188 H211 0.931 . S
C189 C182 1.399 . S
C189 C186 1.487 . S
C189 N221 1.343 . S
C190 C191 1.384 . S
C190 C192 1.384 . S
C190 H212 0.931 . S
C191 C190 1.384 . S
C191 C194 1.382 . S
C192 C190 1.384 . S
C192 C193 1.381 . S
C192 H213 0.930 . S
C193 C192 1.381 . S
C193 C195 1.381 . S
C193 C196 1.487 . S
C194 C191 1.382 . S
C194 C195 1.387 . S
C194 H214 0.930 . S
C195 C193 1.381 . S
C195 C194 1.387 . S
C195 H215 0.931 . S
C196 C193 1.487 . S
C196 C203 1.399 . S
C196 N221 1.343 . S
C197 C198 1.384 . S
C197 C199 1.384 . S
C197 H216 0.931 . S
C198 C197 1.384 . S
C198 C201 1.382 . S
C199 C197 1.384 . S
C199 C200 1.381 . S
C199 H217 0.930 . S
C200 C199 1.381 . S
C200 C202 1.381 . S
C200 C203 1.487 . S
C201 C198 1.382 . S
C201 C202 1.387 . S
C201 H218 0.930 . S
C202 C200 1.381 . S
C202 C201 1.387 . S
C202 H219 0.931 . S
C203 C196 1.399 . S
C203 C200 1.487 . S
C203 N220 1.343 . S
H204 C176 0.931 . S
H205 C178 0.930 . S
H206 C180 0.930 . S
H207 C181 0.931 . S
H208 C183 0.931 . S
H209 C185 0.930 . S
H210 C187 0.930 . S
H211 C188 0.931 . S
H212 C190 0.931 . S
H213 C192 0.930 . S
H214 C194 0.930 . S
H215 C195 0.931 . S
H216 C197 0.931 . S
H217 C199 0.930 . S
H218 C201 0.930 . S
H219 C202 0.931 . S
N220 C182 1.343 . S
N220 C203 1.343 . S
N221 C189 1.343 . S
N221 C196 1.343 . S
C222 C223 1.384 . S
C222 C224 1.384 . S
C222 H250 0.931 . S
C223 C222 1.384 . S
C223 C226 1.382 . S
C224 C222 1.384 . S
C224 C225 1.381 . S
C224 H251 0.930 . S
C225 C224 1.381 . S
C225 C227 1.381 . S
C225 C228 1.487 . S
C226 C223 1.382 . S
C226 C227 1.387 . S
C226 H252 0.930 . S
C227 C225 1.381 . S
C227 C226 1.387 . S
C227 H253 0.931 . S
C228 C225 1.487 . S
C228 C235 1.399 . S
C228 N266 1.343 . S
C229 C230 1.384 . S
C229 C231 1.384 . S
C229 H254 0.931 . S
C230 C229 1.384 . S
C230 C233 1.382 . S
C231 C229 1.384 . S
C231 C232 1.381 . S
C231 H255 0.930 . S
C232 C231 1.381 . S
C232 C234 1.381 . S
C232 C235 1.487 . S
C233 C230 1.382 . S
C233 C234 1.387 . S
C233 H256 0.930 . S
C234 C232 1.381 . S
C234 C233 1.387 . S
C234 H257 0.931 . S
C235 C228 1.399 . S
C235 C232 1.487 . S
C235 N267 1.343 . S
C236 C237 1.384 . S
C236 C238 1.384 . S
C236 H258 0.931 . S
C237 C236 1.384 . S
C237 C240 1.382 . S
C238 C236 1.384 . S
C238 C239 1.381 . S
C238 H259 0.930 . S
C239 C238 1.381 . S
C239 C241 1.381 . S
C239 C242 1.487 . S
C240 C237 1.382 . S
C240 C241 1.387 . S
C240 H260 0.930 . S
C241 C239 1.381 . S
C241 C240 1.387 . S
C241 H261 0.931 . S
C242 C239 1.487 . S
C242 C249 1.399 . S
C242 N267 1.343 . S
C243 C244 1.384 . S
C243 C245 1.384 . S
C243 H262 0.931 . S
C244 C243 1.384 . S
C244 C247 1.382 . S
C245 C243 1.384 . S
C245 C246 1.381 . S
C245 H263 0.930 . S
C246 C245 1.381 . S
C246 C248 1.381 . S
C246 C249 1.487 . S
C247 C244 1.382 . S
C247 C248 1.387 . S
C247 H264 0.930 . S
C248 C246 1.381 . S
C248 C247 1.387 . S
C248 H265 0.931 . S
C249 C242 1.399 . S
C249 C246 1.487 . S
C249 N266 1.343 . S
H250 C222 0.931 . S
H251 C224 0.930 . S
H252 C226 0.930 . S
H253 C227 0.931 . S
H254 C229 0.931 . S
H255 C231 0.930 . S
H256 C233 0.930 . S
H257 C234 0.931 . S
H258 C236 0.931 . S
H259 C238 0.930 . S
H260 C240 0.930 . S
H261 C241 0.931 . S
H262 C243 0.931 . S
H263 C245 0.930 . S
H264 C247 0.930 . S
H265 C248 0.931 . S
N266 C228 1.343 . S
N266 C249 1.343 . S
N267 C235 1.343 . S
N267 C242 1.343 . S
C268 C269 1.384 . S
C268 C270 1.384 . S
C268 H296 0.931 . S
C269 C268 1.384 . S
C269 C272 1.382 . S
C270 C268 1.384 . S
C270 C271 1.381 . S
C270 H297 0.930 . S
C271 C270 1.381 . S
C271 C273 1.381 . S
C271 C274 1.487 . S
C272 C269 1.382 . S
C272 C273 1.387 . S
C272 H298 0.930 . S
C273 C271 1.381 . S
C273 C272 1.387 . S
C273 H299 0.931 . S
C274 C271 1.487 . S
C274 C281 1.399 . S
C274 N312 1.343 . S
C275 C276 1.384 . S
C275 C277 1.384 . S
C275 H300 0.931 . S
C276 C275 1.384 . S
C276 C279 1.382 . S
C277 C275 1.384 . S
C277 C278 1.381 . S
C277 H301 0.930 . S
C278 C277 1.381 . S
C278 C280 1.381 . S
C278 C281 1.487 . S
C279 C276 1.382 . S
C279 C280 1.387 . S
C279 H302 0.930 . S
C280 C278 1.381 . S
C280 C279 1.387 . S
C280 H303 0.931 . S
C281 C274 1.399 . S
C281 C278 1.487 . S
C281 N313 1.343 . S
C282 C283 1.384 . S
C282 C284 1.384 . S
C282 H304 0.931 . S
C283 C282 1.384 . S
C283 C286 1.382 . S
C284 C282 1.384 . S
C284 C285 1.381 . S
C284 H305 0.930 . S
C285 C284 1.381 . S
C285 C287 1.381 . S
C285 C288 1.487 . S
C286 C283 1.382 . S
C286 C287 1.387 . S
C286 H306 0.930 . S
C287 C285 1.381 . S
C287 C286 1.387 . S
C287 H307 0.931 . S
C288 C285 1.487 . S
C288 C295 1.399 . S
C288 N313 1.343 . S
C289 C290 1.384 . S
C289 C291 1.384 . S
C289 H308 0.931 . S
C290 C289 1.384 . S
C290 C293 1.382 . S
C291 C289 1.384 . S
C291 C292 1.381 . S
C291 H309 0.930 . S
C292 C291 1.381 . S
C292 C294 1.381 . S
C292 C295 1.487 . S
C293 C290 1.382 . S
C293 C294 1.387 . S
C293 H310 0.930 . S
C294 C292 1.381 . S
C294 C293 1.387 . S
C294 H311 0.931 . S
C295 C288 1.399 . S
C295 C292 1.487 . S
C295 N312 1.343 . S
H296 C268 0.931 . S
H297 C270 0.930 . S
H298 C272 0.930 . S
H299 C273 0.931 . S
H300 C275 0.931 . S
H301 C277 0.930 . S
H302 C279 0.930 . S
H303 C280 0.931 . S
H304 C282 0.931 . S
H305 C284 0.930 . S
H306 C286 0.930 . S
H307 C287 0.931 . S
H308 C289 0.931 . S
H309 C291 0.930 . S
H310 C293 0.930 . S
H311 C294 0.931 . S
N312 C274 1.343 . S
N312 C295 1.343 . S
N313 C281 1.343 . S
N313 C288 1.343 . S
C314 C315 1.384 . S
C314 C316 1.384 . S
C314 H342 0.931 . S
C315 C314 1.384 . S
C315 C318 1.382 . S
C316 C314 1.384 . S
C316 C317 1.381 . S
C316 H343 0.930 . S
C317 C316 1.381 . S
C317 C319 1.381 . S
C317 C320 1.487 . S
C318 C315 1.382 . S
C318 C319 1.387 . S
C318 H344 0.930 . S
C319 C317 1.381 . S
C319 C318 1.387 . S
C319 H345 0.931 . S
C320 C317 1.487 . S
C320 C327 1.399 . S
C320 N358 1.343 . S
C321 C322 1.384 . S
C321 C323 1.384 . S
C321 H346 0.931 . S
C322 C321 1.384 . S
C322 C325 1.382 . S
C323 C321 1.384 . S
C323 C324 1.381 . S
C323 H347 0.930 . S
C324 C323 1.381 . S
C324 C326 1.381 . S
C324 C327 1.487 . S
C325 C322 1.382 . S
C325 C326 1.387 . S
C325 H348 0.930 . S
C326 C324 1.381 . S
C326 C325 1.387 . S
C326 H349 0.931 . S
C327 C320 1.399 . S
C327 C324 1.487 . S
C327 N359 1.343 . S
C328 C329 1.384 . S
C328 C330 1.384 . S
C328 H350 0.931 . S
C329 C328 1.384 . S
C329 C332 1.382 . S
C330 C328 1.384 . S
C330 C331 1.381 . S
C330 H351 0.930 . S
C331 C330 1.381 . S
C331 C333 1.381 . S
C331 C334 1.487 . S
C332 C329 1.382 . S
C332 C333 1.387 . S
C332 H352 0.930 . S
C333 C331 1.381 . S
C333 C332 1.387 . S
C333 H353 0.931 . S
C334 C331 1.487 . S
C334 C341 1.399 . S
C334 N359 1.343 . S
C335 C336 1.384 . S
C335 C337 1.384 . S
C335 H354 0.931 . S
C336 C335 1.384 . S
C336 C339 1.382 . S
C337 C335 1.384 . S
C337 C338 1.381 . S
C337 H355 0.930 . S
C338 C337 1.381 . S
C338 C340 1.381 . S
C338 C341 1.487 . S
C339 C336 1.382 . S
C339 C340 1.387 . S
C339 H356 0.930 . S
C340 C338 1.381 . S
C340 C339 1.387 . S
C340 H357 0.931 . S
C341 C334 1.399 . S
C341 C338 1.487 . S
C341 N358 1.343 . S
H342 C314 0.931 . S
H343 C316 0.930 . S
H344 C318 0.930 . S
H345 C319 0.931 . S
H346 C321 0.931 . S
H347 C323 0.930 . S
H348 C325 0.930 . S
H349 C326 0.931 . S
H350 C328 0.931 . S
H351 C330 0.930 . S
H352 C332 0.930 . S
H353 C333 0.931 . S
H354 C335 0.931 . S
H355 C337 0.930 . S
H356 C339 0.930 . S
H357 C340 0.931 . S
N358 C320 1.343 . S
N358 C341 1.343 . S
N359 C327 1.343 . S
N359 C334 1.343 . S
H360 C368 0.950 . S
H361 C373 0.950 . S
H362 C370 0.950 . S
H363 C372 0.950 . S
H364 C374 0.950 . S
H365 C376 0.950 . S
H366 C378 0.950 . S
H367 C379 0.950 . S
C368 H360 0.950 . S
C368 C369 1.386 . S
C368 C370 1.391 . S
C369 C368 1.386 . S
C369 C373 1.393 . S
C370 H362 0.950 . S
C370 C368 1.391 . S
C370 C371 1.400 . S
C371 C370 1.400 . S
C371 C372 1.398 . S
C371 C377 1.491 . S
C372 H363 0.950 . S
C372 C371 1.398 . S
C372 C373 1.391 . S
C373 H361 0.950 . S
C373 C369 1.393 . S
C373 C372 1.391 . S
C374 H364 0.950 . S
C374 C375 1.386 . S
C374 C376 1.391 . S
C375 C374 1.386 . S
C375 C379 1.393 . S
C376 H365 0.950 . S
C376 C374 1.391 . S
C376 C377 1.400 . S
C377 C371 1.491 . S
C377 C376 1.400 . S
C377 C378 1.398 . S
C378 H366 0.950 . S
C378 C377 1.398 . S
C378 C379 1.391 . S
C379 H367 0.950 . S
C379 C375 1.393 . S
C379 C378 1.391 . S
H380 C388 0.950 . S
H381 C393 0.950 . S
H382 C390 0.950 . S
H383 C392 0.950 . S
H384 C394 0.950 . S
H385 C396 0.950 . S
H386 C398 0.950 . S
H387 C399 0.950 . S
C388 H380 0.950 . S
C388 C389 1.386 . S
C388 C390 1.391 . S
C389 C388 1.386 . S
C389 C393 1.393 . S
C390 H382 0.950 . S
C390 C388 1.391 . S
C390 C391 1.400 . S
C391 C390 1.400 . S
C391 C392 1.398 . S
C391 C397 1.491 . S
C392 H383 0.950 . S
C392 C391 1.398 . S
C392 C393 1.391 . S
C393 H381 0.950 . S
C393 C389 1.393 . S
C393 C392 1.391 . S
C394 H384 0.950 . S
C394 C395 1.386 . S
C394 C396 1.391 . S
C395 C394 1.386 . S
C395 C399 1.393 . S
C396 H385 0.950 . S
C396 C394 1.391 . S
C396 C397 1.400 . S
C397 C391 1.491 . S
C397 C396 1.400 . S
C397 C398 1.398 . S
C398 H386 0.950 . S
C398 C397 1.398 . S
C398 C399 1.391 . S
C399 H387 0.950 . S
C399 C395 1.393 . S
C399 C398 1.391 . S
H400 C408 0.950 . S
H401 C413 0.950 . S
H402 C410 0.950 . S
H403 C412 0.950 . S
H404 C414 0.950 . S
H405 C416 0.950 . S
H406 C418 0.950 . S
H407 C419 0.950 . S
C408 H400 0.950 . S
C408 C409 1.386 . S
C408 C410 1.391 . S
C409 C408 1.386 . S
C409 C413 1.393 . S
C410 H402 0.950 . S
C410 C408 1.391 . S
C410 C411 1.400 . S
C411 C410 1.400 . S
C411 C412 1.398 . S
C411 C417 1.491 . S
C412 H403 0.950 . S
C412 C411 1.398 . S
C412 C413 1.391 . S
C413 H401 0.950 . S
C413 C409 1.393 . S
C413 C412 1.391 . S
C414 H404 0.950 . S
C414 C415 1.386 . S
C414 C416 1.391 . S
C415 C414 1.386 . S
C415 C419 1.393 . S
C416 H405 0.950 . S
C416 C414 1.391 . S
C416 C417 1.400 . S
C417 C411 1.491 . S
C417 C416 1.400 . S
C417 C418 1.398 . S
C418 H406 0.950 . S
C418 C417 1.398 . S
C418 C419 1.391 . S
C419 H407 0.950 . S
C419 C415 1.393 . S
C419 C418 1.391 . S
H420 C428 0.950 . S
H421 C433 0.950 . S
H422 C430 0.950 . S
H423 C432 0.950 . S
H424 C434 0.950 . S
H425 C436 0.950 . S
H426 C438 0.950 . S
H427 C439 0.950 . S
C428 H420 0.950 . S
C428 C429 1.386 . S
C428 C430 1.391 . S
C429 C428 1.386 . S
C429 C433 1.393 . S
C430 H422 0.950 . S
C430 C428 1.391 . S
C430 C431 1.400 . S
C431 C430 1.400 . S
C431 C432 1.398 . S
C431 C437 1.491 . S
C432 H423 0.950 . S
C432 C431 1.398 . S
C432 C433 1.391 . S
C433 H421 0.950 . S
C433 C429 1.393 . S
C433 C432 1.391 . S
C434 H424 0.950 . S
C434 C435 1.386 . S
C434 C436 1.391 . S
C435 C434 1.386 . S
C435 C439 1.393 . S
C436 H425 0.950 . S
C436 C434 1.391 . S
C436 C437 1.400 . S
C437 C431 1.491 . S
C437 C436 1.400 . S
C437 C438 1.398 . S
C438 H426 0.950 . S
C438 C437 1.398 . S
C438 C439 1.391 . S
C439 H427 0.950 . S
C439 C435 1.393 . S
C439 C438 1.391 . S
H440 C448 0.950 . S
H441 C453 0.950 . S
H442 C450 0.950 . S
H443 C452 0.950 . S
H444 C454 0.950 . S
H445 C456 0.950 . S
H446 C458 0.950 . S
H447 C459 0.950 . S
C448 H440 0.950 . S
C448 C449 1.386 . S
C448 C450 1.391 . S
C449 C448 1.386 . S
C449 C453 1.393 . S
C450 H442 0.950 . S
C450 C448 1.391 . S
C450 C451 1.400 . S
C451 C450 1.400 . S
C451 C452 1.398 . S
C451 C457 1.491 . S
C452 H443 0.950 . S
C452 C451 1.398 . S
C452 C453 1.391 . S
C453 H441 0.950 . S
C453 C449 1.393 . S
C453 C452 1.391 . S
C454 H444 0.950 . S
C454 C455 1.386 . S
C454 C456 1.391 . S
C455 C454 1.386 . S
C455 C459 1.393 . S
C456 H445 0.950 . S
C456 C454 1.391 . S
C456 C457 1.400 . S
C457 C451 1.491 . S
C457 C456 1.400 . S
C457 C458 1.398 . S
C458 H446 0.950 . S
C458 C457 1.398 . S
C458 C459 1.391 . S
C459 H447 0.950 . S
C459 C455 1.393 . S
C459 C458 1.391 . S
H460 C468 0.950 . S
H461 C473 0.950 . S
H462 C470 0.950 . S
H463 C472 0.950 . S
H464 C474 0.950 . S
H465 C476 0.950 . S
H466 C478 0.950 . S
H467 C479 0.950 . S
C468 H460 0.950 . S
C468 C469 1.386 . S
C468 C470 1.391 . S
C469 C468 1.386 . S
C469 C473 1.393 . S
C470 H462 0.950 . S
C470 C468 1.391 . S
C470 C471 1.400 . S
C471 C470 1.400 . S
C471 C472 1.398 . S
C471 C477 1.491 . S
C472 H463 0.950 . S
C472 C471 1.398 . S
C472 C473 1.391 . S
C473 H461 0.950 . S
C473 C469 1.393 . S
C473 C472 1.391 . S
C474 H464 0.950 . S
C474 C475 1.386 . S
C474 C476 1.391 . S
C475 C474 1.386 . S
C475 C479 1.393 . S
C476 H465 0.950 . S
C476 C474 1.391 . S
C476 C477 1.400 . S
C477 C471 1.491 . S
C477 C476 1.400 . S
C477 C478 1.398 . S
C478 H466 0.950 . S
C478 C477 1.398 . S
C478 C479 1.391 . S
C479 H467 0.950 . S
C479 C475 1.393 . S
C479 C478 1.391 . S
H480 C488 0.950 . S
H481 C493 0.950 . S
H482 C490 0.950 . S
H483 C492 0.950 . S
H484 C494 0.950 . S
H485 C496 0.950 . S
H486 C498 0.950 . S
H487 C499 0.950 . S
C488 H480 0.950 . S
C488 C489 1.386 . S
C488 C490 1.391 . S
C489 C488 1.386 . S
C489 C493 1.393 . S
C490 H482 0.950 . S
C490 C488 1.391 . S
C490 C491 1.400 . S
C491 C490 1.400 . S
C491 C492 1.398 . S
C491 C497 1.491 . S
C492 H483 0.950 . S
C492 C491 1.398 . S
C492 C493 1.391 . S
C493 H481 0.950 . S
C493 C489 1.393 . S
C493 C492 1.391 . S
C494 H484 0.950 . S
C494 C495 1.386 . S
C494 C496 1.391 . S
C495 C494 1.386 . S
C495 C499 1.393 . S
C496 H485 0.950 . S
C496 C494 1.391 . S
C496 C497 1.400 . S
C497 C491 1.491 . S
C497 C496 1.400 . S
C497 C498 1.398 . S
C498 H486 0.950 . S
C498 C497 1.398 . S
C498 C499 1.391 . S
C499 H487 0.950 . S
C499 C495 1.393 . S
C499 C498 1.391 . S
H500 C508 0.950 . S
H501 C513 0.950 . S
H502 C510 0.950 . S
H503 C512 0.950 . S
H504 C514 0.950 . S
H505 C516 0.950 . S
H506 C518 0.950 . S
H507 C519 0.950 . S
C508 H500 0.950 . S
C508 C509 1.386 . S
C508 C510 1.391 . S
C509 C508 1.386 . S
C509 C513 1.393 . S
C510 H502 0.950 . S
C510 C508 1.391 . S
C510 C511 1.400 . S
C511 C510 1.400 . S
C511 C512 1.398 . S
C511 C517 1.491 . S
C512 H503 0.950 . S
C512 C511 1.398 . S
C512 C513 1.391 . S
C513 H501 0.950 . S
C513 C509 1.393 . S
C513 C512 1.391 . S
C514 H504 0.950 . S
C514 C515 1.386 . S
C514 C516 1.391 . S
C515 C514 1.386 . S
C515 C519 1.393 . S
C516 H505 0.950 . S
C516 C514 1.391 . S
C516 C517 1.400 . S
C517 C511 1.491 . S
C517 C516 1.400 . S
C517 C518 1.398 . S
C518 H506 0.950 . S
C518 C517 1.398 . S
C518 C519 1.391 . S
C519 H507 0.950 . S
C519 C515 1.393 . S
C519 C518 1.391 . S
H520 C528 0.950 . S
H521 C533 0.950 . S
H522 C530 0.950 . S
H523 C532 0.950 . S
H524 C534 0.950 . S
H525 C536 0.950 . S
H526 C538 0.950 . S
H527 C539 0.950 . S
C528 H520 0.950 . S
C528 C529 1.386 . S
C528 C530 1.391 . S
C529 C528 1.386 . S
C529 C533 1.393 . S
C530 H522 0.950 . S
C530 C528 1.391 . S
C530 C531 1.400 . S
C531 C530 1.400 . S
C531 C532 1.398 . S
C531 C537 1.491 . S
C532 H523 0.950 . S
C532 C531 1.398 . S
C532 C533 1.391 . S
C533 H521 0.950 . S
C533 C529 1.393 . S
C533 C532 1.391 . S
C534 H524 0.950 . S
C534 C535 1.386 . S
C534 C536 1.391 . S
C535 C534 1.386 . S
C535 C539 1.393 . S
C536 H525 0.950 . S
C536 C534 1.391 . S
C536 C537 1.400 . S
C537 C531 1.491 . S
C537 C536 1.400 . S
C537 C538 1.398 . S
C538 H526 0.950 . S
C538 C537 1.398 . S
C538 C539 1.391 . S
C539 H527 0.950 . S
C539 C535 1.393 . S
C539 C538 1.391 . S
H540 C548 0.950 . S
H541 C553 0.950 . S
H542 C550 0.950 . S
H543 C552 0.950 . S
H544 C554 0.950 . S
H545 C556 0.950 . S
H546 C558 0.950 . S
H547 C559 0.950 . S
C548 H540 0.950 . S
C548 C549 1.386 . S
C548 C550 1.391 . S
C549 C548 1.386 . S
C549 C553 1.393 . S
C550 H542 0.950 . S
C550 C548 1.391 . S
C550 C551 1.400 . S
C551 C550 1.400 . S
C551 C552 1.398 . S
C551 C557 1.491 . S
C552 H543 0.950 . S
C552 C551 1.398 . S
C552 C553 1.391 . S
C553 H541 0.950 . S
C553 C549 1.393 . S
C553 C552 1.391 . S
C554 H544 0.950 . S
C554 C555 1.386 . S
C554 C556 1.391 . S
C555 C554 1.386 . S
C555 C559 1.393 . S
C556 H545 0.950 . S
C556 C554 1.391 . S
C556 C557 1.400 . S
C557 C551 1.491 . S
C557 C556 1.400 . S
C557 C558 1.398 . S
C558 H546 0.950 . S
C558 C557 1.398 . S
C558 C559 1.391 . S
C559 H547 0.950 . S
C559 C555 1.393 . S
C559 C558 1.391 . S
H560 C568 0.950 . S
H561 C573 0.950 . S
H562 C570 0.950 . S
H563 C572 0.950 . S
H564 C574 0.950 . S
H565 C576 0.950 . S
H566 C578 0.950 . S
H567 C579 0.950 . S
C568 H560 0.950 . S
C568 C569 1.386 . S
C568 C570 1.391 . S
C569 C568 1.386 . S
C569 C573 1.393 . S
C570 H562 0.950 . S
C570 C568 1.391 . S
C570 C571 1.400 . S
C571 C570 1.400 . S
C571 C572 1.398 . S
C571 C577 1.491 . S
C572 H563 0.950 . S
C572 C571 1.398 . S
C572 C573 1.391 . S
C573 H561 0.950 . S
C573 C569 1.393 . S
C573 C572 1.391 . S
C574 H564 0.950 . S
C574 C575 1.386 . S
C574 C576 1.391 . S
C575 C574 1.386 . S
C575 C579 1.393 . S
C576 H565 0.950 . S
C576 C574 1.391 . S
C576 C577 1.400 . S
C577 C571 1.491 . S
C577 C576 1.400 . S
C577 C578 1.398 . S
C578 H566 0.950 . S
C578 C577 1.398 . S
C578 C579 1.391 . S
C579 H567 0.950 . S
C579 C575 1.393 . S
C579 C578 1.391 . S
H580 C588 0.950 . S
H581 C593 0.950 . S
H582 C590 0.950 . S
H583 C592 0.950 . S
H584 C594 0.950 . S
H585 C596 0.950 . S
H586 C598 0.950 . S
H587 C599 0.950 . S
C588 H580 0.950 . S
C588 C589 1.386 . S
C588 C590 1.391 . S
C589 C588 1.386 . S
C589 C593 1.393 . S
C590 H582 0.950 . S
C590 C588 1.391 . S
C590 C591 1.400 . S
C591 C590 1.400 . S
C591 C592 1.398 . S
C591 C597 1.491 . S
C592 H583 0.950 . S
C592 C591 1.398 . S
C592 C593 1.391 . S
C593 H581 0.950 . S
C593 C589 1.393 . S
C593 C592 1.391 . S
C594 H584 0.950 . S
C594 C595 1.386 . S
C594 C596 1.391 . S
C595 C594 1.386 . S
C595 C599 1.393 . S
C596 H585 0.950 . S
C596 C594 1.391 . S
C596 C597 1.400 . S
C597 C591 1.491 . S
C597 C596 1.400 . S
C597 C598 1.398 . S
C598 H586 0.950 . S
C598 C597 1.398 . S
C598 C599 1.391 . S
C599 H587 0.950 . S
C599 C595 1.393 . S
C599 C598 1.391 . S
H600 C608 0.950 . S
H601 C613 0.950 . S
H602 C610 0.950 . S
H603 C612 0.950 . S
H604 C614 0.950 . S
H605 C616 0.950 . S
H606 C618 0.950 . S
H607 C619 0.950 . S
C608 H600 0.950 . S
C608 C609 1.386 . S
C608 C610 1.391 . S
C609 C608 1.386 . S
C609 C613 1.393 . S
C610 H602 0.950 . S
C610 C608 1.391 . S
C610 C611 1.400 . S
C611 C610 1.400 . S
C611 C612 1.398 . S
C611 C617 1.491 . S
C612 H603 0.950 . S
C612 C611 1.398 . S
C612 C613 1.391 . S
C613 H601 0.950 . S
C613 C609 1.393 . S
C613 C612 1.391 . S
C614 H604 0.950 . S
C614 C615 1.386 . S
C614 C616 1.391 . S
C615 C614 1.386 . S
C615 C619 1.393 . S
C616 H605 0.950 . S
C616 C614 1.391 . S
C616 C617 1.400 . S
C617 C611 1.491 . S
C617 C616 1.400 . S
C617 C618 1.398 . S
C618 H606 0.950 . S
C618 C617 1.398 . S
C618 C619 1.391 . S
C619 H607 0.950 . S
C619 C615 1.393 . S
C619 C618 1.391 . S
H620 C628 0.950 . S
H621 C633 0.950 . S
H622 C630 0.950 . S
H623 C632 0.950 . S
H624 C634 0.950 . S
H625 C636 0.950 . S
H626 C638 0.950 . S
H627 C639 0.950 . S
C628 H620 0.950 . S
C628 C629 1.386 . S
C628 C630 1.391 . S
C629 C628 1.386 . S
C629 C633 1.393 . S
C630 H622 0.950 . S
C630 C628 1.391 . S
C630 C631 1.400 . S
C631 C630 1.400 . S
C631 C632 1.398 . S
C631 C637 1.491 . S
C632 H623 0.950 . S
C632 C631 1.398 . S
C632 C633 1.391 . S
C633 H621 0.950 . S
C633 C629 1.393 . S
C633 C632 1.391 . S
C634 H624 0.950 . S
C634 C635 1.386 . S
C634 C636 1.391 . S
C635 C634 1.386 . S
C635 C639 1.393 . S
C636 H625 0.950 . S
C636 C634 1.391 . S
C636 C637 1.400 . S
C637 C631 1.491 . S
C637 C636 1.400 . S
C637 C638 1.398 . S
C638 H626 0.950 . S
C638 C637 1.398 . S
C638 C639 1.391 . S
C639 H627 0.950 . S
C639 C635 1.393 . S
C639 C638 1.391 . S
H640 C648 0.950 . S
H641 C653 0.950 . S
H642 C650 0.950 . S
H643 C652 0.950 . S
H644 C654 0.950 . S
H645 C656 0.950 . S
H646 C658 0.950 . S
H647 C659 0.950 . S
C648 H640 0.950 . S
C648 C649 1.386 . S
C648 C650 1.391 . S
C649 C648 1.386 . S
C649 C653 1.393 . S
C650 H642 0.950 . S
C650 C648 1.391 . S
C650 C651 1.400 . S
C651 C650 1.400 . S
C651 C652 1.398 . S
C651 C657 1.491 . S
C652 H643 0.950 . S
C652 C651 1.398 . S
C652 C653 1.391 . S
C653 H641 0.950 . S
C653 C649 1.393 . S
C653 C652 1.391 . S
C654 H644 0.950 . S
C654 C655 1.386 . S
C654 C656 1.391 . S
C655 C654 1.386 . S
C655 C659 1.393 . S
C656 H645 0.950 . S
C656 C654 1.391 . S
C656 C657 1.400 . S
C657 C651 1.491 . S
C657 C656 1.400 . S
C657 C658 1.398 . S
C658 H646 0.950 . S
C658 C657 1.398 . S
C658 C659 1.391 . S
C659 H647 0.950 . S
C659 C655 1.393 . S
C659 C658 1.391 . S
H660 C668 0.950 . S
H661 C673 0.950 . S
H662 C670 0.950 . S
H663 C672 0.950 . S
H664 C674 0.950 . S
H665 C676 0.950 . S
H666 C678 0.950 . S
H667 C679 0.950 . S
C668 H660 0.950 . S
C668 C669 1.386 . S
C668 C670 1.391 . S
C669 C668 1.386 . S
C669 C673 1.393 . S
C670 H662 0.950 . S
C670 C668 1.391 . S
C670 C671 1.400 . S
C671 C670 1.400 . S
C671 C672 1.398 . S
C671 C677 1.491 . S
C672 H663 0.950 . S
C672 C671 1.398 . S
C672 C673 1.391 . S
C673 H661 0.950 . S
C673 C669 1.393 . S
C673 C672 1.391 . S
C674 H664 0.950 . S
C674 C675 1.386 . S
C674 C676 1.391 . S
C675 C674 1.386 . S
C675 C679 1.393 . S
C676 H665 0.950 . S
C676 C674 1.391 . S
C676 C677 1.400 . S
C677 C671 1.491 . S
C677 C676 1.400 . S
C677 C678 1.398 . S
C678 H666 0.950 . S
C678 C677 1.398 . S
C678 C679 1.391 . S
C679 H667 0.950 . S
C679 C675 1.393 . S
C679 C678 1.391 . S
H680 C688 0.950 . S
H681 C693 0.950 . S
H682 C690 0.950 . S
H683 C692 0.950 . S
H684 C694 0.950 . S
H685 C696 0.950 . S
H686 C698 0.950 . S
H687 C699 0.950 . S
C688 H680 0.950 . S
C688 C689 1.386 . S
C688 C690 1.391 . S
C689 C688 1.386 . S
C689 C693 1.393 . S
C690 H682 0.950 . S
C690 C688 1.391 . S
C690 C691 1.400 . S
C691 C690 1.400 . S
C691 C692 1.398 . S
C691 C697 1.491 . S
C692 H683 0.950 . S
C692 C691 1.398 . S
C692 C693 1.391 . S
C693 H681 0.950 . S
C693 C689 1.393 . S
C693 C692 1.391 . S
C694 H684 0.950 . S
C694 C695 1.386 . S
C694 C696 1.391 . S
C695 C694 1.386 . S
C695 C699 1.393 . S
C696 H685 0.950 . S
C696 C694 1.391 . S
C696 C697 1.400 . S
C697 C691 1.491 . S
C697 C696 1.400 . S
C697 C698 1.398 . S
C698 H686 0.950 . S
C698 C697 1.398 . S
C698 C699 1.391 . S
C699 H687 0.950 . S
C699 C695 1.393 . S
C699 C698 1.391 . S
H700 C708 0.950 . S
H701 C713 0.950 . S
H702 C710 0.950 . S
H703 C712 0.950 . S
H704 C714 0.950 . S
H705 C716 0.950 . S
H706 C718 0.950 . S
H707 C719 0.950 . S
C708 H700 0.950 . S
C708 C709 1.386 . S
C708 C710 1.391 . S
C709 C708 1.386 . S
C709 C713 1.393 . S
C710 H702 0.950 . S
C710 C708 1.391 . S
C710 C711 1.400 . S
C711 C710 1.400 . S
C711 C712 1.398 . S
C711 C717 1.491 . S
C712 H703 0.950 . S
C712 C711 1.398 . S
C712 C713 1.391 . S
C713 H701 0.950 . S
C713 C709 1.393 . S
C713 C712 1.391 . S
C714 H704 0.950 . S
C714 C715 1.386 . S
C714 C716 1.391 . S
C715 C714 1.386 . S
C715 C719 1.393 . S
C716 H705 0.950 . S
C716 C714 1.391 . S
C716 C717 1.400 . S
C717 C711 1.491 . S
C717 C716 1.400 . S
C717 C718 1.398 . S
C718 H706 0.950 . S
C718 C717 1.398 . S
C718 C719 1.391 . S
C719 H707 0.950 . S
C719 C715 1.393 . S
C719 C718 1.391 . S
H720 C728 0.950 . S
H721 C733 0.950 . S
H722 C730 0.950 . S
H723 C732 0.950 . S
H724 C734 0.950 . S
H725 C736 0.950 . S
H726 C738 0.950 . S
H727 C739 0.950 . S
C728 H720 0.950 . S
C728 C729 1.386 . S
C728 C730 1.391 . S
C729 C728 1.386 . S
C729 C733 1.393 . S
C730 H722 0.950 . S
C730 C728 1.391 . S
C730 C731 1.400 . S
C731 C730 1.400 . S
C731 C732 1.398 . S
C731 C737 1.491 . S
C732 H723 0.950 . S
C732 C731 1.398 . S
C732 C733 1.391 . S
C733 H721 0.950 . S
C733 C729 1.393 . S
C733 C732 1.391 . S
C734 H724 0.950 . S
C734 C735 1.386 . S
C734 C736 1.391 . S
C735 C734 1.386 . S
C735 C739 1.393 . S
C736 H725 0.950 . S
C736 C734 1.391 . S
C736 C737 1.400 . S
C737 C731 1.491 . S
C737 C736 1.400 . S
C737 C738 1.398 . S
C738 H726 0.950 . S
C738 C737 1.398 . S
C738 C739 1.391 . S
C739 H727 0.950 . S
C739 C735 1.393 . S
C739 C738 1.391 . S
H740 C748 0.950 . S
H741 C753 0.950 . S
H742 C750 0.950 . S
H743 C752 0.950 . S
H744 C754 0.950 . S
H745 C756 0.950 . S
H746 C758 0.950 . S
H747 C759 0.950 . S
C748 H740 0.950 . S
C748 C749 1.386 . S
C748 C750 1.391 . S
C749 C748 1.386 . S
C749 C753 1.393 . S
C750 H742 0.950 . S
C750 C748 1.391 . S
C750 C751 1.400 . S
C751 C750 1.400 . S
C751 C752 1.398 . S
C751 C757 1.491 . S
C752 H743 0.950 . S
C752 C751 1.398 . S
C752 C753 1.391 . S
C753 H741 0.950 . S
C753 C749 1.393 . S
C753 C752 1.391 . S
C754 H744 0.950 . S
C754 C755 1.386 . S
C754 C756 1.391 . S
C755 C754 1.386 . S
C755 C759 1.393 . S
C756 H745 0.950 . S
C756 C754 1.391 . S
C756 C757 1.400 . S
C757 C751 1.491 . S
C757 C756 1.400 . S
C757 C758 1.398 . S
C758 H746 0.950 . S
C758 C757 1.398 . S
C758 C759 1.391 . S
C759 H747 0.950 . S
C759 C755 1.393 . S
C759 C758 1.391 . S
H760 C768 0.950 . S
H761 C773 0.950 . S
H762 C770 0.950 . S
H763 C772 0.950 . S
H764 C774 0.950 . S
H765 C776 0.950 . S
H766 C778 0.950 . S
H767 C779 0.950 . S
C768 H760 0.950 . S
C768 C769 1.386 . S
C768 C770 1.391 . S
C769 C768 1.386 . S
C769 C773 1.393 . S
C770 H762 0.950 . S
C770 C768 1.391 . S
C770 C771 1.400 . S
C771 C770 1.400 . S
C771 C772 1.398 . S
C771 C777 1.491 . S
C772 H763 0.950 . S
C772 C771 1.398 . S
C772 C773 1.391 . S
C773 H761 0.950 . S
C773 C769 1.393 . S
C773 C772 1.391 . S
C774 H764 0.950 . S
C774 C775 1.386 . S
C774 C776 1.391 . S
C775 C774 1.386 . S
C775 C779 1.393 . S
C776 H765 0.950 . S
C776 C774 1.391 . S
C776 C777 1.400 . S
C777 C771 1.491 . S
C777 C776 1.400 . S
C777 C778 1.398 . S
C778 H766 0.950 . S
C778 C777 1.398 . S
C778 C779 1.391 . S
C779 H767 0.950 . S
C779 C775 1.393 . S
C779 C778 1.391 . S
H780 C788 0.950 . S
H781 C793 0.950 . S
H782 C790 0.950 . S
H783 C792 0.950 . S
H784 C794 0.950 . S
H785 C796 0.950 . S
H786 C798 0.950 . S
H787 C799 0.950 . S
C788 H780 0.950 . S
C788 C789 1.386 . S
C788 C790 1.391 . S
C789 C788 1.386 . S
C789 C793 1.393 . S
C790 H782 0.950 . S
C790 C788 1.391 . S
C790 C791 1.400 . S
C791 C790 1.400 . S
C791 C792 1.398 . S
C791 C797 1.491 . S
C792 H783 0.950 . S
C792 C791 1.398 . S
C792 C793 1.391 . S
C793 H781 0.950 . S
C793 C789 1.393 . S
C793 C792 1.391 . S
C794 H784 0.950 . S
C794 C795 1.386 . S
C794 C796 1.391 . S
C795 C794 1.386 . S
C795 C799 1.393 . S
C796 H785 0.950 . S
C796 C794 1.391 . S
C796 C797 1.400 . S
C797 C791 1.491 . S
C797 C796 1.400 . S
C797 C798 1.398 . S
C798 H786 0.950 . S
C798 C797 1.398 . S
C798 C799 1.391 . S
C799 H787 0.950 . S
C799 C795 1.393 . S
C799 C798 1.391 . S
H800 C808 0.950 . S
H801 C813 0.950 . S
H802 C810 0.950 . S
H803 C812 0.950 . S
H804 C814 0.950 . S
H805 C816 0.950 . S
H806 C818 0.950 . S
H807 C819 0.950 . S
C808 H800 0.950 . S
C808 C809 1.386 . S
C808 C810 1.391 . S
C809 C808 1.386 . S
C809 C813 1.393 . S
C810 H802 0.950 . S
C810 C808 1.391 . S
C810 C811 1.400 . S
C811 C810 1.400 . S
C811 C812 1.398 . S
C811 C817 1.491 . S
C812 H803 0.950 . S
C812 C811 1.398 . S
C812 C813 1.391 . S
C813 H801 0.950 . S
C813 C809 1.393 . S
C813 C812 1.391 . S
C814 H804 0.950 . S
C814 C815 1.386 . S
C814 C816 1.391 . S
C815 C814 1.386 . S
C815 C819 1.393 . S
C816 H805 0.950 . S
C816 C814 1.391 . S
C816 C817 1.400 . S
C817 C811 1.491 . S
C817 C816 1.400 . S
C817 C818 1.398 . S
C818 H806 0.950 . S
C818 C817 1.398 . S
C818 C819 1.391 . S
C819 H807 0.950 . S
C819 C815 1.393 . S
C819 C818 1.391 . S
H820 C828 0.950 . S
H821 C833 0.950 . S
H822 C830 0.950 . S
H823 C832 0.950 . S
H824 C834 0.950 . S
H825 C836 0.950 . S
H826 C838 0.950 . S
H827 C839 0.950 . S
C828 H820 0.950 . S
C828 C829 1.386 . S
C828 C830 1.391 . S
C829 C828 1.386 . S
C829 C833 1.393 . S
C830 H822 0.950 . S
C830 C828 1.391 . S
C830 C831 1.400 . S
C831 C830 1.400 . S
C831 C832 1.398 . S
C831 C837 1.491 . S
C832 H823 0.950 . S
C832 C831 1.398 . S
C832 C833 1.391 . S
C833 H821 0.950 . S
C833 C829 1.393 . S
C833 C832 1.391 . S
C834 H824 0.950 . S
C834 C835 1.386 . S
C834 C836 1.391 . S
C835 C834 1.386 . S
C835 C839 1.393 . S
C836 H825 0.950 . S
C836 C834 1.391 . S
C836 C837 1.400 . S
C837 C831 1.491 . S
C837 C836 1.400 . S
C837 C838 1.398 . S
C838 H826 0.950 . S
C838 C837 1.398 . S
C838 C839 1.391 . S
C839 H827 0.950 . S
C839 C835 1.393 . S
C839 C838 1.391 . S
C369 C13 1.757 . S
C375 C106 1.734 . S
C389 C27 1.749 . S
C395 C145 1.719 . S
C415 C177 1.709 . S
C409 C29 1.753 . S
C435 C223 1.715 . S
C429 C54 1.757 . S
C455 C290 1.727 . S
C449 C69 1.753 . S
C475 C329 1.735 . S
C469 C83 1.758 . S
C489 C15 1.755 . S
C495 C191 1.728 . S
C509 C41 1.755 . S
C515 C237 1.730 . S
C535 C276 1.714 . S
C529 C42 1.757 . S
C555 C315 1.715 . S
C549 C57 1.757 . S
C569 C71 1.752 . S
C575 C92 1.705 . S
C595 C131 1.707 . S
C589 C1 1.753 . S
C615 C230 1.734 . S
C609 C12 1.758 . S
C629 C26 1.757 . S
C635 C283 1.716 . S
C655 C336 1.697 . S
C649 C28 1.749 . S
C669 C55 1.758 . S
C675 C99 1.716 . S
C689 C68 1.748 . S
C695 C152 1.697 . S
C709 C82 1.751 . S
C715 C184 1.723 . S
C729 C14 1.749 . S
C735 C322 1.718 . S
C755 C85 1.730 . S
C749 C40 1.755 . S
C769 C43 1.754 . S
C775 C138 1.728 . S
C789 C56 1.758 . S
C795 C198 1.717 . S
C809 C70 1.759 . S
C815 C244 1.718 . S
C829 C0 1.758 . S
C835 C269 1.734 . S
