# Generated by pormake.
# Topology tsx, (6,3)-cn, num edge types: 1
# Building blocks:
#     Node 0, Type 0, BuildingBlock: FUNLAD_clean_sbu_0, # of connection points: 6
#     Node 1, Type 0, BuildingBlock: FUNLAD_clean_sbu_0, # of connection points: 6
#     Node 2, Type 1, BuildingBlock: BETDIP_clean_linker_0, # of connection points: 3
#     Node 3, Type 1, BuildingBlock: BETDIP_clean_linker_0, # of connection points: 3
#     Node 4, Type 1, BuildingBlock: BETDIP_clean_linker_0, # of connection points: 3
#     Node 5, Type 1, BuildingBlock: BETDIP_clean_linker_0, # of connection points: 3
#     Edge 6, Type (0, 1), BuildingBlock: TEMPAE_clean_linker_10, # of connection points: 2
#     Edge 7, Type (0, 1), BuildingBlock: TEMPAE_clean_linker_10, # of connection points: 2
#     Edge 8, Type (0, 1), BuildingBlock: TEMPAE_clean_linker_10, # of connection points: 2
#     Edge 9, Type (0, 1), BuildingBlock: TEMPAE_clean_linker_10, # of connection points: 2
#     Edge 10, Type (0, 1), BuildingBlock: TEMPAE_clean_linker_10, # of connection points: 2
#     Edge 11, Type (0, 1), BuildingBlock: TEMPAE_clean_linker_10, # of connection points: 2
#     Edge 12, Type (0, 1), BuildingBlock: TEMPAE_clean_linker_10, # of connection points: 2
#     Edge 13, Type (0, 1), BuildingBlock: TEMPAE_clean_linker_10, # of connection points: 2
#     Edge 14, Type (0, 1), BuildingBlock: TEMPAE_clean_linker_10, # of connection points: 2
#     Edge 15, Type (0, 1), BuildingBlock: TEMPAE_clean_linker_10, # of connection points: 2
#     Edge 16, Type (0, 1), BuildingBlock: TEMPAE_clean_linker_10, # of connection points: 2
#     Edge 17, Type (0, 1), BuildingBlock: TEMPAE_clean_linker_10, # of connection points: 2
# Relax obj value: 0.112
# Max RMSD: 0.116
# Mean RMSD: 0.112
data_MOF--net-tsx--node1-FUNLAD_clean_sbu_0--node2-BETDIP_clean_linker_0--edge1-TEMPAE_clean_linker_10
_symmetry_space_group_name_H-M    P1
_symmetry_Int_Tables_number       1
_symmetry_cell_setting            triclinic
loop_
_symmetry_equiv_pos_as_xyz
'x, y, z'
_cell_length_a     19.688475
_cell_length_b     21.745449
_cell_length_c     39.725246
_cell_angle_alpha  91.106964
_cell_angle_beta   102.42833
_cell_angle_gamma 89.665097
loop_
_atom_site_label
_atom_site_type_symbol
_atom_site_fract_x
_atom_site_fract_y
_atom_site_fract_z
_atom_type_partial_charge
C0 C 0.91661 0.94179 0.00949 0.0
N1 N 0.05246 0.03934 0.08786 0.0
C2 C -0.0014 0.04713 0.10397 0.0
C3 C 0.01101 0.05486 0.13966 0.0
C4 C 0.07953 0.05333 0.15925 0.0
C5 C 0.13418 0.04467 0.14192 0.0
C6 C 0.11942 0.03812 0.10602 0.0
Zn7 Zn 0.03039 0.03334 0.03534 0.0
C8 C 0.11526 0.94291 0.0069 0.0
N9 N 0.97765 0.02484 0.92565 0.0
C10 C 0.91237 0.01671 0.90618 0.0
C11 C 0.03324 0.03097 0.91076 0.0
C12 C 0.02448 0.0301 0.8751 0.0
C13 C 0.95806 0.02079 0.85414 0.0
C14 C 0.9014 0.01405 0.87017 0.0
Zn15 Zn 0.99778 0.02909 0.97823 0.0
O16 O 0.95549 0.96485 0.03646 0.0
C17 C 0.91384 0.12054 0.00568 0.0
O18 O 0.92324 0.95952 0.98003 0.0
H19 H 0.0849 0.03668 0.92654 0.0
H20 H 0.94572 0.04795 0.0891 0.0
H21 H 0.86888 0.01189 0.91855 0.0
O22 O 0.95299 0.10298 0.0336 0.0
O23 O 0.92079 0.09625 0.97728 0.0
H24 H 0.16149 0.03219 0.09266 0.0
O25 O 0.07188 0.09996 0.97756 0.0
O26 O 0.10442 0.10164 0.03383 0.0
O27 O 0.0754 0.96184 0.97955 0.0
O28 O 0.10816 0.96453 0.03591 0.0
C29 C 0.11041 0.12191 0.00487 0.0
H30 H 0.96719 0.06246 0.15167 0.0
H31 H 0.18774 0.04215 0.15591 0.0
H32 H 0.06966 0.03702 0.86419 0.0
H33 H 0.84932 0.00594 0.85519 0.0
C34 C 0.42023 0.36433 0.50586 0.0
N35 N 0.56304 0.45459 0.58541 0.0
C36 C 0.51171 0.45316 0.6035 0.0
C37 C 0.52736 0.46231 0.63916 0.0
C38 C 0.59612 0.47442 0.65612 0.0
C39 C 0.64842 0.47429 0.63716 0.0
C40 C 0.63072 0.46343 0.60159 0.0
Zn41 Zn 0.53551 0.45306 0.53284 0.0
C42 C 0.61396 0.36193 0.50029 0.0
N43 N 0.47491 0.45715 0.42348 0.0
C44 C 0.40829 0.46787 0.40646 0.0
C45 C 0.52803 0.4558 0.40654 0.0
C46 C 0.51564 0.46724 0.37142 0.0
C47 C 0.4481 0.4817 0.35345 0.0
C48 C 0.39365 0.48058 0.37125 0.0
Zn49 Zn 0.50091 0.45355 0.47597 0.0
O50 O 0.45565 0.38875 0.53337 0.0
C51 C 0.42423 0.54597 0.50884 0.0
O52 O 0.42935 0.38144 0.47672 0.0
H53 H 0.58079 0.44812 0.4205 0.0
H54 H 0.45814 0.44723 0.59016 0.0
H55 H 0.36682 0.46898 0.42043 0.0
O56 O 0.46682 0.52766 0.53544 0.0
O57 O 0.42376 0.52041 0.47978 0.0
H58 H 0.67079 0.46421 0.58678 0.0
O59 O 0.57256 0.52557 0.47553 0.0
O60 O 0.61381 0.51769 0.53098 0.0
O61 O 0.57895 0.38721 0.47349 0.0
O62 O 0.60514 0.37887 0.52987 0.0
C63 C 0.61516 0.54309 0.50265 0.0
H64 H 0.48578 0.46266 0.65314 0.0
H65 H 0.70206 0.48339 0.64966 0.0
H66 H 0.55902 0.46591 0.35866 0.0
H67 H 0.34081 0.49168 0.35851 0.0
H68 H 0.08772 0.93144 0.48994 0.0
H69 H 0.03556 0.06065 0.40873 0.0
H70 H 0.2335 0.96921 0.42609 0.0
H71 H 0.9214 0.02127 0.41543 0.0
C72 C 0.93356 0.03546 0.44244 0.0
C73 C 0.10337 0.95646 0.4696 0.0
C74 C 0.16599 0.94214 0.45945 0.0
C75 C 0.05765 0.00059 0.4521 0.0
C76 C 0.0731 0.0294 0.42337 0.0
C77 C 0.13555 0.01639 0.41295 0.0
C78 C 0.1836 0.97633 0.43283 0.0
N79 N 0.99665 0.01578 0.46406 0.0
H80 H 0.95383 0.93653 0.50565 0.0
H81 H 0.02746 0.03149 0.60219 0.0
H82 H 0.84116 0.92226 0.58636 0.0
H83 H 0.13562 0.00652 0.58281 0.0
C84 C 0.11685 0.02773 0.55797 0.0
C85 C 0.94725 0.94913 0.53126 0.0
C86 C 0.89213 0.92438 0.5437 0.0
C87 C 0.99566 0.98798 0.55216 0.0
C88 C 0.9889 0.00249 0.5859 0.0
C89 C 0.93308 0.97899 0.59865 0.0
C90 C 0.88414 0.94114 0.57691 0.0
N91 N 0.04976 0.01303 0.53832 0.0
H92 H 0.59931 0.53865 -0.00056 0.0
H93 H 0.56018 0.64014 0.9053 0.0
H94 H 0.69499 0.48209 0.91657 0.0
H95 H 0.55036 0.71984 0.94617 0.0
C96 C 0.51569 0.69507 0.95903 0.0
C97 C 0.60864 0.54584 0.97389 0.0
C98 C 0.65384 0.50683 0.96077 0.0
C99 C 0.57627 0.59491 0.95433 0.0
C100 C 0.58695 0.60336 0.92082 0.0
C101 C 0.62947 0.56258 0.90671 0.0
C102 C 0.66355 0.51515 0.92724 0.0
N103 N 0.52978 0.6328 0.96807 0.0
H104 H 0.43731 0.53387 0.00619 0.0
H105 H 0.4869 0.62049 0.10701 0.0
H106 H 0.34686 0.46727 0.08787 0.0
H107 H 0.49185 0.70703 0.06988 0.0
C108 C 0.52615 0.68407 0.05551 0.0
C109 C 0.43027 0.53754 0.03248 0.0
C110 C 0.38578 0.49688 0.04411 0.0
C111 C 0.46504 0.58365 0.05473 0.0
C112 C 0.45733 0.58724 0.08912 0.0
C113 C 0.41551 0.54465 0.10116 0.0
C114 C 0.37896 0.50047 0.07844 0.0
N115 N 0.51113 0.6232 0.04269 0.0
C116 C 0.1983 0.19881 0.0337 0.0
C117 C 0.15913 0.17269 0.00319 0.0
C118 C 0.23953 0.25077 0.033 0.0
C119 C 0.242 0.27718 0.00096 0.0
C120 C 0.20566 0.24914 0.96992 0.0
C121 C 0.16431 0.19723 0.97139 0.0
C122 C 0.27776 0.27915 0.06677 0.0
C123 C 0.20783 0.27549 0.9353 0.0
C124 C 0.27583 0.44627 0.01587 0.0
C125 C 0.34845 0.44754 0.02194 0.0
C126 C 0.23935 0.39183 0.00519 0.0
C127 C 0.27684 0.33751 0.00087 0.0
C128 C 0.34962 0.34041 0.00327 0.0
C129 C 0.38483 0.39576 0.01391 0.0
C130 C 0.16167 0.39102 0.0025 0.0
C131 C 0.39128 0.28381 -0.00172 0.0
H132 H 0.19511 0.17983 0.05834 0.0
H133 H 0.13465 0.17693 0.94765 0.0
H134 H 0.33358 0.28512 0.06655 0.0
H135 H 0.25602 0.32543 0.07034 0.0
H136 H 0.27378 0.25085 0.08924 0.0
H137 H 0.18713 0.24272 0.91379 0.0
H138 H 0.17602 0.31806 0.93142 0.0
H139 H 0.26179 0.28811 0.93413 0.0
H140 H 0.24812 0.48665 0.02221 0.0
H141 H 0.44118 0.39698 0.01887 0.0
H142 H 0.15021 0.36817 0.02539 0.0
H143 H 0.1352 0.36446 0.97932 0.0
H144 H 0.13933 0.43817 0.0013 0.0
H145 H 0.39991 0.2561 0.022 0.0
H146 H 0.44287 0.29596 0.99323 0.0
H147 H 0.36295 0.25457 0.97665 0.0
C148 C 0.17476 0.87343 0.97182 0.0
C149 C 0.17197 0.89939 0.00411 0.0
C150 C 0.23136 0.83738 0.96735 0.0
C151 C 0.28673 0.82682 0.99587 0.0
C152 C 0.28324 0.85079 0.02886 0.0
C153 C 0.22573 0.88691 0.03262 0.0
C154 C 0.2329 0.8123 0.93177 0.0
C155 C 0.34125 0.83993 0.05986 0.0
C156 C 0.4063 0.69653 0.98137 0.0
C157 C 0.45909 0.72849 0.97049 0.0
C158 C 0.35171 0.72812 0.99167 0.0
C159 C 0.34937 0.79311 0.99037 0.0
C160 C 0.40368 0.82559 0.98025 0.0
C161 C 0.45786 0.79275 0.97029 0.0
C162 C 0.2953 0.69178 0.00264 0.0
C163 C 0.40333 0.89491 0.97876 0.0
H164 H 0.13327 0.88244 0.94967 0.0
H165 H 0.22394 0.90683 0.05764 0.0
H166 H 0.27737 0.83248 0.92279 0.0
H167 H 0.24057 0.76173 0.93251 0.0
H168 H 0.18433 0.8226 0.91262 0.0
H169 H 0.32822 0.85755 0.08414 0.0
H170 H 0.35316 0.79009 0.06246 0.0
H171 H 0.38924 0.86314 0.05639 0.0
H172 H 0.40684 0.64671 0.98126 0.0
H173 H 0.49915 0.81733 0.96214 0.0
H174 H 0.24659 0.6947 0.98257 0.0
H175 H 0.28423 0.71127 0.0269 0.0
H176 H 0.30951 0.64249 0.00656 0.0
H177 H 0.35932 0.9102 0.95819 0.0
H178 H 0.4524 0.91325 0.97339 0.0
H179 H 0.39558 0.91531 0.00346 0.0
C180 C 0.8079 0.88224 0.98463 0.0
C181 C 0.86157 0.89772 0.01292 0.0
C182 C 0.75209 0.84512 0.98872 0.0
C183 C 0.75037 0.82286 0.02178 0.0
C184 C 0.80556 0.83663 0.05011 0.0
C185 C 0.86032 0.87395 0.04535 0.0
C186 C 0.694 0.83124 0.95796 0.0
C187 C 0.80591 0.81328 0.08573 0.0
C188 C 0.58092 0.78347 0.04699 0.0
C189 C 0.58225 0.71921 0.04555 0.0
C190 C 0.63387 0.81793 0.03778 0.0
C191 C 0.68983 0.78712 0.02742 0.0
C192 C 0.69052 0.72208 0.02526 0.0
C193 C 0.63682 0.68886 0.03458 0.0
C194 C 0.63072 0.88725 0.03993 0.0
C195 C 0.74892 0.68748 0.01412 0.0
H196 H 0.80842 0.90057 0.9595 0.0
H197 H 0.90174 0.88537 0.06731 0.0
H198 H 0.68541 0.78088 0.95486 0.0
H199 H 0.64481 0.85207 0.96212 0.0
H200 H 0.70489 0.84921 0.93367 0.0
H201 H 0.8542 0.82594 0.1047 0.0
H202 H 0.76075 0.83254 0.09498 0.0
H203 H 0.80067 0.76247 0.08492 0.0
H204 H 0.53822 0.80676 0.05521 0.0
H205 H 0.63819 0.63905 0.03379 0.0
H206 H 0.63693 0.9073 0.01531 0.0
H207 H 0.67419 0.90455 0.06047 0.0
H208 H 0.58093 0.90401 0.04568 0.0
H209 H 0.75775 0.7057 0.98953 0.0
H210 H 0.73822 0.63737 0.01064 0.0
H211 H 0.7978 0.6941 0.03379 0.0
C212 C 0.86171 0.20373 0.0367 0.0
C213 C 0.86425 0.17179 0.00593 0.0
C214 C 0.82154 0.25738 0.03639 0.0
C215 C 0.78353 0.2795 0.00457 0.0
C216 C 0.7823 0.24515 0.97379 0.0
C217 C 0.8226 0.19169 0.97486 0.0
C218 C 0.82323 0.29225 0.06977 0.0
C219 C 0.742 0.26696 0.93931 0.0
C220 C 0.65001 0.40762 0.99087 0.0
C221 C 0.68892 0.45467 0.98057 0.0
C222 C 0.68138 0.35114 0.00177 0.0
C223 C 0.75292 0.34222 0.00223 0.0
C224 C 0.79342 0.39188 0.995 0.0
C225 C 0.76077 0.44753 0.98417 0.0
C226 C 0.6367 0.29967 0.00983 0.0
C227 C 0.87002 0.38463 0.99556 0.0
H228 H 0.89319 0.18826 0.0609 0.0
H229 H 0.82354 0.16686 0.95104 0.0
H230 H 0.85681 0.33339 0.07099 0.0
H231 H 0.77044 0.30858 0.07125 0.0
H232 H 0.84417 0.2637 0.09258 0.0
H233 H 0.74146 0.23227 0.91836 0.0
H234 H 0.68751 0.27776 0.94065 0.0
H235 H 0.76572 0.30985 0.93244 0.0
H236 H 0.59431 0.41334 0.98801 0.0
H237 H 0.79069 0.48441 0.97645 0.0
H238 H 0.66491 0.2726 0.03191 0.0
H239 H 0.62335 0.26798 0.98716 0.0
H240 H 0.58745 0.31731 0.01581 0.0
H241 H 0.89723 0.36254 0.01968 0.0
H242 H 0.89543 0.42943 0.99336 0.0
H243 H 0.87676 0.35438 0.97368 0.0
C244 C 0.65806 0.62836 0.47126 0.0
C245 C 0.66128 0.59616 0.50187 0.0
C246 C 0.69571 0.68296 0.47119 0.0
C247 C 0.73715 0.70574 0.50247 0.0
C248 C 0.74273 0.67211 0.53312 0.0
C249 C 0.70483 0.61768 0.53243 0.0
C250 C 0.68902 0.71739 0.438 0.0
C251 C 0.78674 0.69481 0.56702 0.0
C252 C 0.88002 0.82374 0.51192 0.0
C253 C 0.84835 0.87463 0.52448 0.0
C254 C 0.84256 0.76948 0.50163 0.0
C255 C 0.77207 0.76631 0.50412 0.0
C256 C 0.7382 0.8195 0.51356 0.0
C257 C 0.77685 0.87319 0.5236 0.0
C258 C 0.88024 0.71399 0.49124 0.0
C259 C 0.6628 0.81817 0.51611 0.0
H260 H 0.62459 0.61191 0.4475 0.0
H261 H 0.7078 0.59297 0.55615 0.0
H262 H 0.65954 0.76062 0.43949 0.0
H263 H 0.74107 0.73033 0.43396 0.0
H264 H 0.6616 0.68997 0.41529 0.0
H265 H 0.78773 0.66189 0.58817 0.0
H266 H 0.84094 0.70272 0.56436 0.0
H267 H 0.76613 0.73944 0.57452 0.0
H268 H 0.93537 0.82454 0.51265 0.0
H269 H 0.75207 0.91293 0.53274 0.0
H270 H 0.84746 0.68926 0.46894 0.0
H271 H 0.89176 0.68161 0.513 0.0
H272 H 0.93014 0.7268 0.48448 0.0
H273 H 0.63042 0.79546 0.49296 0.0
H274 H 0.64186 0.86507 0.51903 0.0
H275 H 0.65768 0.79105 0.53882 0.0
C276 C 0.70688 0.31951 0.47313 0.0
C277 C 0.66378 0.31288 0.4966 0.0
C278 C 0.75213 0.27218 0.46767 0.0
C279 C 0.75204 0.2159 0.48505 0.0
C280 C 0.7086 0.20905 0.50891 0.0
C281 C 0.66577 0.25825 0.51489 0.0
C282 C 0.79938 0.28217 0.44294 0.0
C283 C 0.70531 0.14909 0.52701 0.0
C284 C 0.81657 0.08289 0.43719 0.0
C285 C 0.88484 0.07609 0.456 0.0
C286 C 0.77121 0.12558 0.44771 0.0
C287 C 0.79572 0.16386 0.47703 0.0
C288 C 0.86408 0.15572 0.49675 0.0
C289 C 0.90743 0.11113 0.48628 0.0
C290 C 0.69786 0.13122 0.42672 0.0
C291 C 0.89297 0.19651 0.52764 0.0
H292 H 0.70537 0.36203 0.45915 0.0
H293 H 0.63166 0.2531 0.53275 0.0
H294 H 0.85391 0.27091 0.45547 0.0
H295 H 0.78412 0.25105 0.42014 0.0
H296 H 0.79742 0.3303 0.43388 0.0
H297 H 0.67078 0.15199 0.54573 0.0
H298 H 0.68565 0.11231 0.50766 0.0
H299 H 0.75799 0.13502 0.54087 0.0
H300 H 0.79894 0.05534 0.41393 0.0
H301 H 0.96002 0.10591 0.50099 0.0
H302 H 0.69199 0.17522 0.41271 0.0
H303 H 0.66014 0.13185 0.44385 0.0
H304 H 0.68419 0.09293 0.40757 0.0
H305 H 0.89796 0.24417 0.51898 0.0
H306 H 0.94487 0.18079 0.54186 0.0
H307 H 0.85712 0.19812 0.54568 0.0
C308 C 0.36472 0.26338 0.48598 0.0
C309 C 0.37102 0.31479 0.50825 0.0
C310 C 0.3235 0.213 0.49061 0.0
C311 C 0.28639 0.21532 0.51744 0.0
C312 C 0.29033 0.26847 0.53895 0.0
C313 C 0.33363 0.31711 0.53447 0.0
C314 C 0.32198 0.15643 0.46779 0.0
C315 C 0.24972 0.27356 0.56712 0.0
C316 C 0.13359 0.11062 0.5178 0.0
C317 C 0.16181 0.07094 0.54462 0.0
C318 C 0.17428 0.15635 0.50753 0.0
C319 C 0.24519 0.1617 0.52416 0.0
C320 C 0.27496 0.1192 0.5498 0.0
C321 C 0.23255 0.07475 0.56006 0.0
C322 C 0.14019 0.20113 0.48041 0.0
C323 C 0.35095 0.12222 0.56734 0.0
H324 H 0.3944 0.26147 0.46595 0.0
H325 H 0.33835 0.35713 0.55153 0.0
H326 H 0.34602 0.11725 0.48359 0.0
H327 H 0.26761 0.1432 0.45603 0.0
H328 H 0.35047 0.16334 0.44687 0.0
H329 H 0.25432 0.31985 0.57972 0.0
H330 H 0.19388 0.26387 0.55641 0.0
H331 H 0.26882 0.23889 0.58708 0.0
H332 H 0.07899 0.10787 0.50575 0.0
H333 H 0.25447 0.04359 0.58057 0.0
H334 H 0.17144 0.20609 0.4605 0.0
H335 H 0.1373 0.24714 0.49262 0.0
H336 H 0.0867 0.18671 0.46751 0.0
H337 H 0.38363 0.12572 0.54792 0.0
H338 H 0.36781 0.08135 0.58341 0.0
H339 H 0.36065 0.16395 0.58418 0.0
C340 C 0.31288 0.60444 0.49412 0.0
C341 C 0.38306 0.60205 0.51069 0.0
C342 C 0.27604 0.66022 0.4919 0.0
C343 C 0.31144 0.71513 0.50498 0.0
C344 C 0.38185 0.71232 0.52284 0.0
C345 C 0.41645 0.65544 0.52605 0.0
C346 C 0.20032 0.66089 0.4738 0.0
C347 C 0.42251 0.76983 0.53583 0.0
C348 C 0.24423 0.85359 0.45166 0.0
C349 C 0.20838 0.88698 0.47313 0.0
C350 C 0.28059 0.79958 0.46256 0.0
C351 C 0.27825 0.7757 0.49512 0.0
C352 C 0.24247 0.80852 0.51712 0.0
C353 C 0.20926 0.86443 0.50619 0.0
C354 C 0.32003 0.7672 0.43864 0.0
C355 C 0.23712 0.78346 0.55162 0.0
H356 H 0.28724 0.5629 0.48238 0.0
H357 H 0.47115 0.65345 0.53848 0.0
H358 H 0.16973 0.69024 0.48828 0.0
H359 H 0.19496 0.68059 0.44781 0.0
H360 H 0.17762 0.61393 0.47074 0.0
H361 H 0.47348 0.75923 0.55301 0.0
H362 H 0.4322 0.79571 0.51351 0.0
H363 H 0.39263 0.80045 0.54997 0.0
H364 H 0.24249 0.86819 0.4256 0.0
H365 H 0.18306 0.88973 0.52344 0.0
H366 H 0.2938 0.72333 0.42901 0.0
H367 H 0.3736 0.75587 0.45262 0.0
H368 H 0.32344 0.79546 0.41606 0.0
H369 H 0.20847 0.73919 0.54766 0.0
H370 H 0.20971 0.8156 0.56629 0.0
H371 H 0.2896 0.77383 0.56743 0.0
C372 C 0.15243 0.09006 0.21612 0.0
C373 C 0.09337 0.05896 0.19753 0.0
C374 C 0.1672 0.09286 0.25233 0.0
C375 C 0.12137 0.06459 0.27028 0.0
C376 C 0.06052 0.03508 0.25167 0.0
C377 C 0.04773 0.03204 0.21564 0.0
C378 C 0.23295 0.12411 0.27136 0.0
C379 C 0.01 0.00464 0.26985 0.0
C380 C 0.17503 0.99499 0.35805 0.0
C381 C 0.14549 0.03618 0.37859 0.0
C382 C 0.17317 0.00673 0.32338 0.0
C383 C 0.1393 0.06022 0.30843 0.0
C384 C 0.11386 0.10424 0.32939 0.0
C385 C 0.11793 0.092 0.36438 0.0
C386 C 0.20222 0.95909 0.30208 0.0
C387 C 0.07735 0.16187 0.31436 0.0
H388 H 0.18743 0.11195 0.2024 0.0
H389 H 0.00269 0.0069 0.20172 0.0
H390 H 0.22137 0.15709 0.29104 0.0
H391 H 0.26935 0.08921 0.28518 0.0
H392 H 0.25951 0.14905 0.25372 0.0
H393 H 0.96218 0.98853 0.25161 0.0
H394 H 0.0353 0.96446 0.28427 0.0
H395 H 0.99473 0.03708 0.28883 0.0
H396 H 0.19565 0.95124 0.36824 0.0
H397 H 0.09658 0.12493 0.38014 0.0
H398 H 0.23253 0.98131 0.28516 0.0
H399 H 0.15876 0.93361 0.28524 0.0
H400 H 0.23627 0.92537 0.31844 0.0
H401 H 0.10599 0.1836 0.29655 0.0
H402 H 0.07139 0.19598 0.33471 0.0
H403 H 0.0248 0.14969 0.29921 0.0
C404 C 0.88901 0.04074 0.79413 0.0
C405 C 0.94902 0.0174 0.81593 0.0
C406 C 0.8809 0.03794 0.75812 0.0
C407 C 0.9348 0.01263 0.74366 0.0
C408 C 0.99571 0.9897 0.76544 0.0
C409 C 0.00147 0.99131 0.80117 0.0
C410 C 0.81443 0.06131 0.73556 0.0
C411 C 0.0548 0.96299 0.75102 0.0
C412 C 0.90474 0.94328 0.65374 0.0
C413 C 0.92826 0.99014 0.63521 0.0
C414 C 0.9025 0.95162 0.68851 0.0
C415 C 0.92697 0.00727 0.70572 0.0
C416 C 0.94984 0.0552 0.68726 0.0
C417 C 0.94928 0.04639 0.65209 0.0
C418 C 0.87639 0.89981 0.70713 0.0
C419 C 0.9777 0.11474 0.70499 0.0
H420 H 0.84849 0.06169 0.80514 0.0
H421 H 0.04721 0.97149 0.81752 0.0
H422 H 0.82612 0.09823 0.71879 0.0
H423 H 0.78864 0.02357 0.71837 0.0
H424 H 0.77745 0.0796 0.75084 0.0
H425 H 0.10065 0.9513 0.77157 0.0
H426 H 0.03724 0.92066 0.73568 0.0
H427 H 0.07129 0.99615 0.73347 0.0
H428 H 0.88992 0.89903 0.64147 0.0
H429 H 0.96629 0.08335 0.63798 0.0
H430 H 0.83861 0.91745 0.72209 0.0
H431 H 0.92049 0.87926 0.72569 0.0
H432 H 0.85096 0.86293 0.68911 0.0
H433 H 0.9398 0.13531 0.71895 0.0
H434 H 0.98945 0.14886 0.68658 0.0
H435 H 0.02611 0.10543 0.72441 0.0
C436 C 0.59699 0.44934 0.71701 0.0
C437 C 0.61192 0.49076 0.69313 0.0
C438 C 0.60635 0.46613 0.75194 0.0
C439 C 0.62932 0.52636 0.76288 0.0
C440 C 0.64548 0.56805 0.73884 0.0
C441 C 0.63725 0.54943 0.70417 0.0
C442 C 0.5901 0.41989 0.77696 0.0
C443 C 0.6686 0.63297 0.74941 0.0
C444 C 0.57281 0.57614 0.84444 0.0
C445 C 0.63304 0.5646 0.86969 0.0
C446 C 0.57231 0.5678 0.80931 0.0
C447 C 0.63297 0.54605 0.79922 0.0
C448 C 0.69498 0.53771 0.82434 0.0
C449 C 0.69452 0.54797 0.85925 0.0
C450 C 0.50557 0.57869 0.78314 0.0
C451 C 0.76057 0.51405 0.81462 0.0
H452 H 0.57747 0.40397 0.70823 0.0
H453 H 0.64797 0.5815 0.68541 0.0
H454 H 0.63488 0.41545 0.79916 0.0
H455 H 0.54491 0.43596 0.78731 0.0
H456 H 0.57783 0.37373 0.76476 0.0
H457 H 0.68343 0.65833 0.72807 0.0
H458 H 0.62579 0.65834 0.75773 0.0
H459 H 0.71353 0.63278 0.77171 0.0
H460 H 0.52481 0.58845 0.85207 0.0
H461 H 0.74178 0.54044 0.8785 0.0
H462 H 0.48341 0.53393 0.7723 0.0
H463 H 0.51572 0.60596 0.76143 0.0
H464 H 0.4661 0.60318 0.79464 0.0
H465 H 0.75271 0.4656 0.80535 0.0
H466 H 0.80604 0.51586 0.83672 0.0
H467 H 0.77271 0.54099 0.79325 0.0
C468 C 0.4854 0.53449 0.30499 0.0
C469 C 0.43574 0.49934 0.31665 0.0
C470 C 0.47824 0.54704 0.26998 0.0
C471 C 0.41906 0.52525 0.24604 0.0
C472 C 0.36658 0.49302 0.25777 0.0
C473 C 0.37582 0.47994 0.29294 0.0
C474 C 0.53578 0.58094 0.25844 0.0
C475 C 0.30212 0.47007 0.233 0.0
C476 C 0.38894 0.5887 0.15549 0.0
C477 C 0.41595 0.541 0.13816 0.0
C478 C 0.38782 0.58374 0.19059 0.0
C479 C 0.41598 0.53055 0.20856 0.0
C480 C 0.44388 0.48264 0.191 0.0
C481 C 0.44284 0.48825 0.15589 0.0
C482 C 0.35638 0.63505 0.20838 0.0
C483 C 0.47576 0.4258 0.20938 0.0
H484 H 0.53082 0.55141 0.32323 0.0
H485 H 0.33719 0.4527 0.30162 0.0
H486 H 0.56099 0.54972 0.24234 0.0
H487 H 0.51434 0.62047 0.24228 0.0
H488 H 0.57621 0.59821 0.28052 0.0
H489 H 0.26234 0.45315 0.24661 0.0
H490 H 0.27883 0.50716 0.21535 0.0
H491 H 0.31617 0.43184 0.21688 0.0
H492 H 0.36779 0.62922 0.14145 0.0
H493 H 0.46392 0.45163 0.14224 0.0
H494 H 0.39642 0.65537 0.22957 0.0
H495 H 0.31464 0.61659 0.22014 0.0
H496 H 0.3342 0.67211 0.1904 0.0
H497 H 0.51947 0.43904 0.23092 0.0
H498 H 0.49562 0.39307 0.19193 0.0
H499 H 0.43672 0.40174 0.22071 0.0
loop_
_geom_bond_atom_site_label_1
_geom_bond_atom_site_label_2
_geom_bond_distance
_geom_bond_site_symmetry_2
_ccdc_geom_bond_type
C0 O16 1.251 . S
C0 O18 1.254 1_554 S
N1 C2 1.333 1_445 S
N1 C6 1.307 . S
N1 Zn7 2.020 . S
C2 N1 1.333 1_665 S
C2 C3 1.379 . S
C2 H20 0.952 . S
C3 C2 1.379 . S
C3 C4 1.390 1_665 S
C3 H30 0.949 . S
C4 C3 1.390 1_445 S
C4 C5 1.357 . S
C5 C4 1.357 . S
C5 C6 1.370 . S
C5 H31 0.950 . S
C6 N1 1.307 . S
C6 C5 1.370 . S
C6 H24 0.948 . S
Zn7 N1 2.020 . S
Zn7 O16 2.039 1_445 S
Zn7 O22 2.034 1_455 S
Zn7 O26 2.025 . S
Zn7 O28 2.024 1_545 S
C8 O27 1.246 1_554 S
C8 O28 1.249 . S
N9 C10 1.307 1_445 S
N9 C11 1.333 . S
N9 Zn15 2.020 . S
C10 N9 1.307 1_665 S
C10 C14 1.370 . S
C10 H21 0.948 . S
C11 N9 1.333 . S
C11 C12 1.379 . S
C11 H19 0.952 . S
C12 C11 1.379 . S
C12 C13 1.390 1_455 S
C12 H32 0.949 . S
C13 C12 1.390 1_655 S
C13 C14 1.357 1_545 S
C14 C10 1.370 . S
C14 C13 1.357 1_565 S
C14 H33 0.950 . S
Zn15 N9 2.020 . S
Zn15 O18 2.025 1_445 S
Zn15 O23 2.024 1_455 S
Zn15 O25 2.039 . S
Zn15 O27 2.034 1_545 S
O16 C0 1.251 . S
O16 Zn7 2.039 1_665 S
C17 O22 1.246 . S
C17 O23 1.249 1_554 S
O18 C0 1.254 1_556 S
O18 Zn15 2.025 1_665 S
H19 C11 0.952 . S
H20 C2 0.952 . S
H21 C10 0.948 . S
O22 Zn7 2.034 1_655 S
O22 C17 1.246 . S
O23 Zn15 2.024 1_655 S
O23 C17 1.249 1_556 S
H24 C6 0.948 . S
O25 Zn15 2.039 . S
O25 C29 1.251 1_556 S
O26 Zn7 2.025 . S
O26 C29 1.254 . S
O27 C8 1.246 1_556 S
O27 Zn15 2.034 1_565 S
O28 Zn7 2.024 1_565 S
O28 C8 1.249 . S
C29 O25 1.251 1_554 S
C29 O26 1.254 . S
H30 C3 0.949 . S
H31 C5 0.950 . S
H32 C12 0.949 . S
H33 C14 0.950 . S
C34 O50 1.251 . S
C34 O52 1.254 . S
N35 C36 1.333 . S
N35 C40 1.307 . S
N35 Zn41 2.020 . S
C36 N35 1.333 . S
C36 C37 1.379 . S
C36 H54 0.952 . S
C37 C36 1.379 . S
C37 C38 1.390 . S
C37 H64 0.949 . S
C38 C37 1.390 . S
C38 C39 1.357 . S
C39 C38 1.357 . S
C39 C40 1.370 . S
C39 H65 0.950 . S
C40 N35 1.307 . S
C40 C39 1.370 . S
C40 H58 0.948 . S
Zn41 N35 2.020 . S
Zn41 O50 2.039 . S
Zn41 O56 2.034 . S
Zn41 O60 2.025 . S
Zn41 O62 2.024 . S
C42 O61 1.246 . S
C42 O62 1.249 . S
N43 C44 1.307 . S
N43 C45 1.333 . S
N43 Zn49 2.020 . S
C44 N43 1.307 . S
C44 C48 1.370 . S
C44 H55 0.948 . S
C45 N43 1.333 . S
C45 C46 1.379 . S
C45 H53 0.952 . S
C46 C45 1.379 . S
C46 C47 1.390 . S
C46 H66 0.949 . S
C47 C46 1.390 . S
C47 C48 1.357 . S
C48 C44 1.370 . S
C48 C47 1.357 . S
C48 H67 0.950 . S
Zn49 N43 2.020 . S
Zn49 O52 2.025 . S
Zn49 O57 2.024 . S
Zn49 O59 2.039 . S
Zn49 O61 2.034 . S
O50 C34 1.251 . S
O50 Zn41 2.039 . S
C51 O56 1.246 . S
C51 O57 1.249 . S
O52 C34 1.254 . S
O52 Zn49 2.025 . S
H53 C45 0.952 . S
H54 C36 0.952 . S
H55 C44 0.948 . S
O56 Zn41 2.034 . S
O56 C51 1.246 . S
O57 Zn49 2.024 . S
O57 C51 1.249 . S
H58 C40 0.948 . S
O59 Zn49 2.039 . S
O59 C63 1.251 . S
O60 Zn41 2.025 . S
O60 C63 1.254 . S
O61 C42 1.246 . S
O61 Zn49 2.034 . S
O62 Zn41 2.024 . S
O62 C42 1.249 . S
C63 O59 1.251 . S
C63 O60 1.254 . S
H64 C37 0.949 . S
H65 C39 0.950 . S
H66 C46 0.949 . S
H67 C48 0.950 . S
H68 C73 0.930 . S
H69 C76 0.930 1_655 S
H70 C78 0.930 . S
H71 C72 1.016 . S
C72 H71 1.016 . S
C72 N79 1.286 . S
C73 H68 0.930 . S
C73 C74 1.397 . S
C73 C75 1.361 1_565 S
C74 C73 1.397 . S
C74 C78 1.390 . S
C75 C73 1.361 1_545 S
C75 C76 1.393 . S
C75 N79 1.413 1_455 S
C76 H69 0.930 1_455 S
C76 C75 1.393 . S
C76 C77 1.399 . S
C77 C76 1.399 . S
C77 C78 1.381 1_545 S
C78 H70 0.930 . S
C78 C74 1.390 . S
C78 C77 1.381 1_565 S
N79 C72 1.286 . S
N79 C75 1.413 1_655 S
H80 C85 0.930 . S
H81 C88 0.930 . S
H82 C90 0.930 . S
H83 C84 1.016 . S
C84 H83 1.016 . S
C84 N91 1.286 . S
C85 H80 0.930 . S
C85 C86 1.397 . S
C85 C87 1.361 1_665 S
C86 C85 1.397 . S
C86 C90 1.390 . S
C87 C85 1.361 1_445 S
C87 C88 1.393 . S
C87 N91 1.413 . S
C88 H81 0.930 . S
C88 C87 1.393 . S
C88 C89 1.399 1_455 S
C89 C88 1.399 1_655 S
C89 C90 1.381 1_545 S
C90 H82 0.930 . S
C90 C86 1.390 . S
C90 C89 1.381 1_565 S
N91 C84 1.286 . S
N91 C87 1.413 . S
H92 C97 0.930 1_554 S
H93 C100 0.930 . S
H94 C102 0.930 . S
H95 C96 1.016 . S
C96 H95 1.016 . S
C96 N103 1.286 . S
C97 H92 0.930 1_556 S
C97 C98 1.397 . S
C97 C99 1.361 . S
C98 C97 1.397 . S
C98 C102 1.390 . S
C99 C97 1.361 . S
C99 C100 1.393 . S
C99 N103 1.413 . S
C100 H93 0.930 . S
C100 C99 1.393 . S
C100 C101 1.399 . S
C101 C100 1.399 . S
C101 C102 1.381 . S
C102 H94 0.930 . S
C102 C98 1.390 . S
C102 C101 1.381 . S
N103 C96 1.286 . S
N103 C99 1.413 . S
H104 C109 0.898 1_556 S
H105 C112 0.930 . S
H106 C114 0.930 . S
H107 C108 1.016 . S
C108 H107 1.016 . S
C108 N115 1.286 . S
C109 H104 0.898 1_554 S
C109 C110 1.397 . S
C109 C111 1.361 . S
C110 C109 1.397 . S
C110 C114 1.390 . S
C111 C109 1.361 . S
C111 C112 1.393 . S
C111 N115 1.413 . S
C112 H105 0.930 . S
C112 C111 1.393 . S
C112 C113 1.399 . S
C113 C112 1.399 . S
C113 C114 1.381 . S
C114 H106 0.930 . S
C114 C110 1.390 . S
C114 C113 1.381 . S
N115 C108 1.286 . S
N115 C111 1.413 . S
C116 C117 1.391 . S
C116 C118 1.394 . S
C116 H132 0.931 . S
C117 C116 1.391 . S
C117 C121 1.376 1_554 S
C118 C116 1.394 . S
C118 C119 1.369 . S
C118 C122 1.531 . S
C119 C118 1.369 . S
C119 C120 1.410 1_554 S
C119 C127 1.503 . S
C120 C119 1.410 1_556 S
C120 C121 1.392 . S
C120 C123 1.511 . S
C121 C117 1.376 1_556 S
C121 C120 1.392 . S
C121 H133 0.929 . S
C122 C118 1.531 . S
C122 H134 0.960 . S
C122 H135 0.962 . S
C122 H136 0.960 . S
C123 C120 1.511 . S
C123 H137 0.961 . S
C123 H138 0.961 . S
C123 H139 0.961 . S
C124 C125 1.370 . S
C124 C126 1.363 . S
C124 H140 0.931 1_554 S
C125 C124 1.370 . S
C125 C129 1.408 . S
C126 C124 1.363 . S
C126 C127 1.370 . S
C126 C130 1.524 1_554 S
C127 C119 1.503 . S
C127 C126 1.370 . S
C127 C128 1.403 . S
C128 C127 1.403 . S
C128 C129 1.404 . S
C128 C131 1.539 . S
C129 C125 1.408 . S
C129 C128 1.404 . S
C129 H141 0.930 . S
C130 C126 1.524 1_556 S
C130 H142 0.956 . S
C130 H143 0.961 . S
C130 H144 0.961 . S
C131 C128 1.539 . S
C131 H145 0.958 . S
C131 H146 0.961 . S
C131 H147 0.960 . S
H132 C116 0.931 . S
H133 C121 0.929 . S
H134 C122 0.960 . S
H135 C122 0.962 . S
H136 C122 0.960 . S
H137 C123 0.961 . S
H138 C123 0.961 . S
H139 C123 0.961 . S
H140 C124 0.931 1_556 S
H141 C129 0.930 . S
H142 C130 0.956 . S
H143 C130 0.961 . S
H144 C130 0.961 . S
H145 C131 0.958 . S
H146 C131 0.961 . S
H147 C131 0.960 . S
C148 C149 1.391 1_556 S
C148 C150 1.394 . S
C148 H164 0.931 . S
C149 C148 1.391 1_554 S
C149 C153 1.376 . S
C150 C148 1.394 . S
C150 C151 1.369 1_556 S
C150 C154 1.531 . S
C151 C150 1.369 1_554 S
C151 C152 1.410 . S
C151 C159 1.508 . S
C152 C151 1.410 . S
C152 C153 1.392 . S
C152 C155 1.511 . S
C153 C149 1.376 . S
C153 C152 1.392 . S
C153 H165 0.929 . S
C154 C150 1.531 . S
C154 H166 0.960 . S
C154 H167 0.962 . S
C154 H168 0.960 . S
C155 C152 1.511 . S
C155 H169 0.961 . S
C155 H170 0.961 . S
C155 H171 0.961 . S
C156 C157 1.362 1_554 S
C156 C158 1.363 . S
C156 H172 0.931 . S
C157 C156 1.362 1_556 S
C157 C161 1.415 . S
C158 C156 1.363 . S
C158 C159 1.384 . S
C158 C162 1.524 . S
C159 C151 1.508 . S
C159 C158 1.384 . S
C159 C160 1.385 1_554 S
C160 C159 1.385 1_556 S
C160 C161 1.404 . S
C160 C163 1.539 . S
C161 C157 1.415 . S
C161 C160 1.404 . S
C161 H173 0.930 . S
C162 C158 1.524 . S
C162 H174 0.956 . S
C162 H175 0.961 . S
C162 H176 0.961 . S
C163 C160 1.539 . S
C163 H177 0.958 . S
C163 H178 0.961 . S
C163 H179 0.960 . S
H164 C148 0.931 . S
H165 C153 0.929 . S
H166 C154 0.960 . S
H167 C154 0.962 . S
H168 C154 0.960 . S
H169 C155 0.961 . S
H170 C155 0.961 . S
H171 C155 0.961 . S
H172 C156 0.931 . S
H173 C161 0.930 . S
H174 C162 0.956 . S
H175 C162 0.961 . S
H176 C162 0.961 . S
H177 C163 0.958 . S
H178 C163 0.961 . S
H179 C163 0.960 . S
C180 C181 1.391 1_556 S
C180 C182 1.394 . S
C180 H196 0.931 . S
C181 C180 1.391 1_554 S
C181 C185 1.376 . S
C182 C180 1.394 . S
C182 C183 1.369 1_556 S
C182 C186 1.531 . S
C183 C182 1.369 1_554 S
C183 C184 1.410 . S
C183 C191 1.503 . S
C184 C183 1.410 . S
C184 C185 1.392 . S
C184 C187 1.511 . S
C185 C181 1.376 . S
C185 C184 1.392 . S
C185 H197 0.929 . S
C186 C182 1.531 . S
C186 H198 0.960 . S
C186 H199 0.962 . S
C186 H200 0.960 . S
C187 C184 1.511 . S
C187 H201 0.961 . S
C187 H202 0.961 . S
C187 H203 0.961 . S
C188 C189 1.370 . S
C188 C190 1.363 . S
C188 H204 0.931 . S
C189 C188 1.370 . S
C189 C193 1.408 1_554 S
C190 C188 1.363 . S
C190 C191 1.370 . S
C190 C194 1.524 . S
C191 C183 1.503 . S
C191 C190 1.370 . S
C191 C192 1.403 1_554 S
C192 C191 1.403 1_556 S
C192 C193 1.404 . S
C192 C195 1.539 . S
C193 C189 1.408 1_556 S
C193 C192 1.404 . S
C193 H205 0.930 . S
C194 C190 1.524 . S
C194 H206 0.956 . S
C194 H207 0.961 . S
C194 H208 0.961 . S
C195 C192 1.539 . S
C195 H209 0.958 . S
C195 H210 0.961 . S
C195 H211 0.960 . S
H196 C180 0.931 . S
H197 C185 0.929 . S
H198 C186 0.960 . S
H199 C186 0.962 . S
H200 C186 0.960 . S
H201 C187 0.961 . S
H202 C187 0.961 . S
H203 C187 0.961 . S
H204 C188 0.931 . S
H205 C193 0.930 . S
H206 C194 0.956 . S
H207 C194 0.961 . S
H208 C194 0.961 . S
H209 C195 0.958 . S
H210 C195 0.961 . S
H211 C195 0.960 . S
C212 C213 1.391 . S
C212 C214 1.394 . S
C212 H228 0.931 . S
C213 C212 1.391 . S
C213 C217 1.376 1_554 S
C214 C212 1.394 . S
C214 C215 1.369 1_554 S
C214 C218 1.531 . S
C215 C214 1.369 1_556 S
C215 C216 1.410 . S
C215 C223 1.503 . S
C216 C215 1.410 . S
C216 C217 1.392 . S
C216 C219 1.511 . S
C217 C213 1.376 1_556 S
C217 C216 1.392 . S
C217 H229 0.929 . S
C218 C214 1.531 . S
C218 H230 0.960 . S
C218 H231 0.962 . S
C218 H232 0.960 . S
C219 C216 1.511 . S
C219 H233 0.961 . S
C219 H234 0.961 . S
C219 H235 0.961 . S
C220 C221 1.370 . S
C220 C222 1.363 . S
C220 H236 0.931 . S
C221 C220 1.370 . S
C221 C225 1.401 1_556 S
C222 C220 1.363 . S
C222 C223 1.370 . S
C222 C226 1.524 . S
C223 C215 1.503 . S
C223 C222 1.370 . S
C223 C224 1.403 1_556 S
C224 C223 1.403 1_554 S
C224 C225 1.404 . S
C224 C227 1.539 . S
C225 C221 1.401 1_554 S
C225 C224 1.404 . S
C225 H237 0.938 . S
C226 C222 1.524 . S
C226 H238 0.956 . S
C226 H239 0.961 . S
C226 H240 0.961 . S
C227 C224 1.539 . S
C227 H241 0.958 . S
C227 H242 0.961 . S
C227 H243 0.960 . S
H228 C212 0.931 . S
H229 C217 0.929 . S
H230 C218 0.960 . S
H231 C218 0.962 . S
H232 C218 0.960 . S
H233 C219 0.961 . S
H234 C219 0.961 . S
H235 C219 0.961 . S
H236 C220 0.931 . S
H237 C225 0.938 . S
H238 C226 0.956 . S
H239 C226 0.961 . S
H240 C226 0.961 . S
H241 C227 0.958 . S
H242 C227 0.961 . S
H243 C227 0.960 . S
C244 C245 1.391 . S
C244 C246 1.394 . S
C244 H260 0.931 . S
C245 C244 1.391 . S
C245 C249 1.376 . S
C246 C244 1.394 . S
C246 C247 1.369 . S
C246 C250 1.531 . S
C247 C246 1.369 . S
C247 C248 1.410 . S
C247 C255 1.503 . S
C248 C247 1.410 . S
C248 C249 1.392 . S
C248 C251 1.511 . S
C249 C245 1.376 . S
C249 C248 1.392 . S
C249 H261 0.929 . S
C250 C246 1.531 . S
C250 H262 0.960 . S
C250 H263 0.962 . S
C250 H264 0.960 . S
C251 C248 1.511 . S
C251 H265 0.961 . S
C251 H266 0.961 . S
C251 H267 0.961 . S
C252 C253 1.370 . S
C252 C254 1.363 . S
C252 H268 0.931 . S
C253 C252 1.370 . S
C253 C257 1.408 . S
C254 C252 1.363 . S
C254 C255 1.370 . S
C254 C258 1.524 . S
C255 C247 1.503 . S
C255 C254 1.370 . S
C255 C256 1.403 . S
C256 C255 1.403 . S
C256 C257 1.404 . S
C256 C259 1.539 . S
C257 C253 1.408 . S
C257 C256 1.404 . S
C257 H269 0.930 . S
C258 C254 1.524 . S
C258 H270 0.956 . S
C258 H271 0.961 . S
C258 H272 0.961 . S
C259 C256 1.539 . S
C259 H273 0.958 . S
C259 H274 0.961 . S
C259 H275 0.960 . S
H260 C244 0.931 . S
H261 C249 0.929 . S
H262 C250 0.960 . S
H263 C250 0.962 . S
H264 C250 0.960 . S
H265 C251 0.961 . S
H266 C251 0.961 . S
H267 C251 0.961 . S
H268 C252 0.931 . S
H269 C257 0.930 . S
H270 C258 0.956 . S
H271 C258 0.961 . S
H272 C258 0.961 . S
H273 C259 0.958 . S
H274 C259 0.961 . S
H275 C259 0.960 . S
C276 C277 1.391 . S
C276 C278 1.394 . S
C276 H292 0.931 . S
C277 C276 1.391 . S
C277 C281 1.376 . S
C278 C276 1.394 . S
C278 C279 1.369 . S
C278 C282 1.531 . S
C279 C278 1.369 . S
C279 C280 1.410 . S
C279 C287 1.503 . S
C280 C279 1.410 . S
C280 C281 1.392 . S
C280 C283 1.511 . S
C281 C277 1.376 . S
C281 C280 1.392 . S
C281 H293 0.929 . S
C282 C278 1.531 . S
C282 H294 0.960 . S
C282 H295 0.962 . S
C282 H296 0.960 . S
C283 C280 1.511 . S
C283 H297 0.961 . S
C283 H298 0.961 . S
C283 H299 0.961 . S
C284 C285 1.370 . S
C284 C286 1.363 . S
C284 H300 0.931 . S
C285 C284 1.370 . S
C285 C289 1.408 . S
C286 C284 1.363 . S
C286 C287 1.370 . S
C286 C290 1.524 . S
C287 C279 1.503 . S
C287 C286 1.370 . S
C287 C288 1.403 . S
C288 C287 1.403 . S
C288 C289 1.404 . S
C288 C291 1.539 . S
C289 C285 1.408 . S
C289 C288 1.404 . S
C289 H301 0.930 . S
C290 C286 1.524 . S
C290 H302 0.956 . S
C290 H303 0.961 . S
C290 H304 0.961 . S
C291 C288 1.539 . S
C291 H305 0.958 . S
C291 H306 0.961 . S
C291 H307 0.960 . S
H292 C276 0.931 . S
H293 C281 0.929 . S
H294 C282 0.960 . S
H295 C282 0.962 . S
H296 C282 0.960 . S
H297 C283 0.961 . S
H298 C283 0.961 . S
H299 C283 0.961 . S
H300 C284 0.931 . S
H301 C289 0.930 . S
H302 C290 0.956 . S
H303 C290 0.961 . S
H304 C290 0.961 . S
H305 C291 0.958 . S
H306 C291 0.961 . S
H307 C291 0.960 . S
C308 C309 1.391 . S
C308 C310 1.394 . S
C308 H324 0.931 . S
C309 C308 1.391 . S
C309 C313 1.376 . S
C310 C308 1.394 . S
C310 C311 1.369 . S
C310 C314 1.531 . S
C311 C310 1.369 . S
C311 C312 1.410 . S
C311 C319 1.503 . S
C312 C311 1.410 . S
C312 C313 1.392 . S
C312 C315 1.511 . S
C313 C309 1.376 . S
C313 C312 1.392 . S
C313 H325 0.929 . S
C314 C310 1.531 . S
C314 H326 0.960 . S
C314 H327 0.962 . S
C314 H328 0.960 . S
C315 C312 1.511 . S
C315 H329 0.961 . S
C315 H330 0.961 . S
C315 H331 0.961 . S
C316 C317 1.370 . S
C316 C318 1.363 . S
C316 H332 0.931 . S
C317 C316 1.370 . S
C317 C321 1.408 . S
C318 C316 1.363 . S
C318 C319 1.370 . S
C318 C322 1.524 . S
C319 C311 1.503 . S
C319 C318 1.370 . S
C319 C320 1.403 . S
C320 C319 1.403 . S
C320 C321 1.404 . S
C320 C323 1.539 . S
C321 C317 1.408 . S
C321 C320 1.404 . S
C321 H333 0.930 . S
C322 C318 1.524 . S
C322 H334 0.956 . S
C322 H335 0.961 . S
C322 H336 0.961 . S
C323 C320 1.539 . S
C323 H337 0.958 . S
C323 H338 0.961 . S
C323 H339 0.960 . S
H324 C308 0.931 . S
H325 C313 0.929 . S
H326 C314 0.960 . S
H327 C314 0.962 . S
H328 C314 0.960 . S
H329 C315 0.961 . S
H330 C315 0.961 . S
H331 C315 0.961 . S
H332 C316 0.931 . S
H333 C321 0.930 . S
H334 C322 0.956 . S
H335 C322 0.961 . S
H336 C322 0.961 . S
H337 C323 0.958 . S
H338 C323 0.961 . S
H339 C323 0.960 . S
C340 C341 1.391 . S
C340 C342 1.394 . S
C340 H356 0.931 . S
C341 C340 1.391 . S
C341 C345 1.376 . S
C342 C340 1.394 . S
C342 C343 1.369 . S
C342 C346 1.531 . S
C343 C342 1.369 . S
C343 C344 1.410 . S
C343 C351 1.503 . S
C344 C343 1.410 . S
C344 C345 1.392 . S
C344 C347 1.511 . S
C345 C341 1.376 . S
C345 C344 1.392 . S
C345 H357 0.929 . S
C346 C342 1.531 . S
C346 H358 0.960 . S
C346 H359 0.962 . S
C346 H360 0.960 . S
C347 C344 1.511 . S
C347 H361 0.961 . S
C347 H362 0.961 . S
C347 H363 0.961 . S
C348 C349 1.370 . S
C348 C350 1.363 . S
C348 H364 0.931 . S
C349 C348 1.370 . S
C349 C353 1.408 . S
C350 C348 1.363 . S
C350 C351 1.370 . S
C350 C354 1.524 . S
C351 C343 1.503 . S
C351 C350 1.370 . S
C351 C352 1.403 . S
C352 C351 1.403 . S
C352 C353 1.404 . S
C352 C355 1.539 . S
C353 C349 1.408 . S
C353 C352 1.404 . S
C353 H365 0.930 . S
C354 C350 1.524 . S
C354 H366 0.956 . S
C354 H367 0.961 . S
C354 H368 0.961 . S
C355 C352 1.539 . S
C355 H369 0.958 . S
C355 H370 0.961 . S
C355 H371 0.960 . S
H356 C340 0.931 . S
H357 C345 0.929 . S
H358 C346 0.960 . S
H359 C346 0.962 . S
H360 C346 0.960 . S
H361 C347 0.961 . S
H362 C347 0.961 . S
H363 C347 0.961 . S
H364 C348 0.931 . S
H365 C353 0.930 . S
H366 C354 0.956 . S
H367 C354 0.961 . S
H368 C354 0.961 . S
H369 C355 0.958 . S
H370 C355 0.961 . S
H371 C355 0.960 . S
C372 C373 1.391 . S
C372 C374 1.394 . S
C372 H388 0.931 . S
C373 C372 1.391 . S
C373 C377 1.376 1_445 S
C374 C372 1.394 . S
C374 C375 1.369 . S
C374 C378 1.531 . S
C375 C374 1.369 . S
C375 C376 1.410 1_445 S
C375 C383 1.503 . S
C376 C375 1.410 1_665 S
C376 C377 1.392 . S
C376 C379 1.511 . S
C377 C373 1.376 1_665 S
C377 C376 1.392 . S
C377 H389 0.929 . S
C378 C374 1.531 . S
C378 H390 0.960 . S
C378 H391 0.962 . S
C378 H392 0.960 . S
C379 C376 1.511 . S
C379 H393 0.961 . S
C379 H394 0.961 . S
C379 H395 0.961 1_565 S
C380 C381 1.370 1_565 S
C380 C382 1.363 . S
C380 H396 0.931 . S
C381 C380 1.370 1_545 S
C381 C385 1.408 . S
C382 C380 1.363 . S
C382 C383 1.370 1_565 S
C382 C386 1.524 . S
C383 C375 1.503 . S
C383 C382 1.370 1_545 S
C383 C384 1.403 . S
C384 C383 1.403 . S
C384 C385 1.404 . S
C384 C387 1.539 1_455 S
C385 C381 1.408 . S
C385 C384 1.404 . S
C385 H397 0.923 1_455 S
C386 C382 1.524 . S
C386 H398 0.956 . S
C386 H399 0.961 . S
C386 H400 0.961 . S
C387 C384 1.539 1_655 S
C387 H401 0.958 1_655 S
C387 H402 0.961 . S
C387 H403 0.960 . S
H388 C372 0.931 . S
H389 C377 0.929 . S
H390 C378 0.960 . S
H391 C378 0.962 . S
H392 C378 0.960 . S
H393 C379 0.961 . S
H394 C379 0.961 . S
H395 C379 0.961 1_545 S
H396 C380 0.931 . S
H397 C385 0.923 1_655 S
H398 C386 0.956 . S
H399 C386 0.961 . S
H400 C386 0.961 . S
H401 C387 0.958 1_455 S
H402 C387 0.961 . S
H403 C387 0.960 . S
C404 C405 1.391 . S
C404 C406 1.394 . S
C404 H420 0.931 . S
C405 C404 1.391 . S
C405 C409 1.376 1_645 S
C406 C404 1.394 . S
C406 C407 1.369 . S
C406 C410 1.531 . S
C407 C406 1.369 . S
C407 C408 1.410 1_655 S
C407 C415 1.503 . S
C408 C407 1.410 1_455 S
C408 C409 1.392 1_545 S
C408 C411 1.511 1_545 S
C409 C405 1.376 1_465 S
C409 C408 1.392 1_565 S
C409 H421 0.929 . S
C410 C406 1.531 . S
C410 H422 0.960 . S
C410 H423 0.962 . S
C410 H424 0.960 . S
C411 C408 1.511 1_565 S
C411 H425 0.961 . S
C411 H426 0.961 . S
C411 H427 0.961 1_565 S
C412 C413 1.370 1_565 S
C412 C414 1.363 . S
C412 H428 0.931 . S
C413 C412 1.370 1_545 S
C413 C417 1.408 1_655 S
C414 C412 1.363 . S
C414 C415 1.370 1_565 S
C414 C418 1.524 . S
C415 C407 1.503 . S
C415 C414 1.370 1_545 S
C415 C416 1.403 1_655 S
C416 C415 1.403 1_455 S
C416 C417 1.404 . S
C416 C419 1.539 . S
C417 C413 1.408 1_455 S
C417 C416 1.404 . S
C417 H429 0.930 . S
C418 C414 1.524 . S
C418 H430 0.956 . S
C418 H431 0.961 . S
C418 H432 0.961 . S
C419 C416 1.539 . S
C419 H433 0.958 . S
C419 H434 0.961 . S
C419 H435 0.960 . S
H420 C404 0.931 . S
H421 C409 0.929 . S
H422 C410 0.960 . S
H423 C410 0.962 . S
H424 C410 0.960 . S
H425 C411 0.961 . S
H426 C411 0.961 . S
H427 C411 0.961 1_545 S
H428 C412 0.931 . S
H429 C417 0.930 . S
H430 C418 0.956 . S
H431 C418 0.961 . S
H432 C418 0.961 . S
H433 C419 0.958 . S
H434 C419 0.961 . S
H435 C419 0.960 . S
C436 C437 1.391 . S
C436 C438 1.394 . S
C436 H452 0.931 . S
C437 C436 1.391 . S
C437 C441 1.376 . S
C438 C436 1.394 . S
C438 C439 1.369 . S
C438 C442 1.531 . S
C439 C438 1.369 . S
C439 C440 1.410 . S
C439 C447 1.503 . S
C440 C439 1.410 . S
C440 C441 1.392 . S
C440 C443 1.511 . S
C441 C437 1.376 . S
C441 C440 1.392 . S
C441 H453 0.929 . S
C442 C438 1.531 . S
C442 H454 0.960 . S
C442 H455 0.962 . S
C442 H456 0.960 . S
C443 C440 1.511 . S
C443 H457 0.961 . S
C443 H458 0.961 . S
C443 H459 0.961 . S
C444 C445 1.370 . S
C444 C446 1.363 . S
C444 H460 0.931 . S
C445 C444 1.370 . S
C445 C449 1.408 . S
C446 C444 1.363 . S
C446 C447 1.370 . S
C446 C450 1.524 . S
C447 C439 1.503 . S
C447 C446 1.370 . S
C447 C448 1.403 . S
C448 C447 1.403 . S
C448 C449 1.404 . S
C448 C451 1.539 . S
C449 C445 1.408 . S
C449 C448 1.404 . S
C449 H461 0.930 . S
C450 C446 1.524 . S
C450 H462 0.956 . S
C450 H463 0.961 . S
C450 H464 0.961 . S
C451 C448 1.539 . S
C451 H465 0.958 . S
C451 H466 0.961 . S
C451 H467 0.960 . S
H452 C436 0.931 . S
H453 C441 0.929 . S
H454 C442 0.960 . S
H455 C442 0.962 . S
H456 C442 0.960 . S
H457 C443 0.961 . S
H458 C443 0.961 . S
H459 C443 0.961 . S
H460 C444 0.931 . S
H461 C449 0.930 . S
H462 C450 0.956 . S
H463 C450 0.961 . S
H464 C450 0.961 . S
H465 C451 0.958 . S
H466 C451 0.961 . S
H467 C451 0.960 . S
C468 C469 1.391 . S
C468 C470 1.394 . S
C468 H484 0.931 . S
C469 C468 1.391 . S
C469 C473 1.376 . S
C470 C468 1.394 . S
C470 C471 1.369 . S
C470 C474 1.531 . S
C471 C470 1.369 . S
C471 C472 1.410 . S
C471 C479 1.503 . S
C472 C471 1.410 . S
C472 C473 1.392 . S
C472 C475 1.511 . S
C473 C469 1.376 . S
C473 C472 1.392 . S
C473 H485 0.929 . S
C474 C470 1.531 . S
C474 H486 0.960 . S
C474 H487 0.962 . S
C474 H488 0.960 . S
C475 C472 1.511 . S
C475 H489 0.961 . S
C475 H490 0.961 . S
C475 H491 0.961 . S
C476 C477 1.370 . S
C476 C478 1.363 . S
C476 H492 0.931 . S
C477 C476 1.370 . S
C477 C481 1.408 . S
C478 C476 1.363 . S
C478 C479 1.370 . S
C478 C482 1.524 . S
C479 C471 1.503 . S
C479 C478 1.370 . S
C479 C480 1.403 . S
C480 C479 1.403 . S
C480 C481 1.404 . S
C480 C483 1.539 . S
C481 C477 1.408 . S
C481 C480 1.404 . S
C481 H493 0.930 . S
C482 C478 1.524 . S
C482 H494 0.956 . S
C482 H495 0.961 . S
C482 H496 0.961 . S
C483 C480 1.539 . S
C483 H497 0.958 . S
C483 H498 0.961 . S
C483 H499 0.960 . S
H484 C468 0.931 . S
H485 C473 0.929 . S
H486 C474 0.960 . S
H487 C474 0.962 . S
H488 C474 0.960 . S
H489 C475 0.961 . S
H490 C475 0.961 . S
H491 C475 0.961 . S
H492 C476 0.931 . S
H493 C481 0.930 . S
H494 C482 0.956 . S
H495 C482 0.961 . S
H496 C482 0.961 . S
H497 C483 0.958 . S
H498 C483 0.961 . S
H499 C483 0.960 . S
C125 C110 1.449 . S
C117 C29 1.485 . S
C149 C8 1.388 . S
C157 C96 1.349 . S
C181 C0 1.412 . S
C189 C108 1.368 . S
C213 C17 1.491 . S
C221 C98 1.465 . S
C245 C63 1.487 . S
C253 C86 1.466 . S
C277 C42 1.398 . S
C285 C72 1.364 . S
C317 C84 1.344 . S
C309 C34 1.400 . S
C349 C74 1.470 . S
C341 C51 1.490 . S
C373 C4 1.511 . S
C381 C77 1.520 . S
C405 C13 1.513 . S
C413 C89 1.513 . S
C445 C101 1.514 . S
C437 C38 1.519 . S
C469 C47 1.504 . S
C477 C113 1.505 . S
