# Generated by pormake.
# Topology sqc, (4,8)-cn, num edge types: 1
# Building blocks:
#     Node 0, Type 0, BuildingBlock: MIFKUJ_clean_linker_1, # of connection points: 4
#     Node 1, Type 0, BuildingBlock: MIFKUJ_clean_linker_1, # of connection points: 4
#     Node 2, Type 0, BuildingBlock: MIFKUJ_clean_linker_1, # of connection points: 4
#     Node 3, Type 0, BuildingBlock: MIFKUJ_clean_linker_1, # of connection points: 4
#     Node 4, Type 0, BuildingBlock: MIFKUJ_clean_linker_1, # of connection points: 4
#     Node 5, Type 0, BuildingBlock: MIFKUJ_clean_linker_1, # of connection points: 4
#     Node 6, Type 0, BuildingBlock: MIFKUJ_clean_linker_1, # of connection points: 4
#     Node 7, Type 0, BuildingBlock: MIFKUJ_clean_linker_1, # of connection points: 4
#     Node 8, Type 1, BuildingBlock: TAGTUT_clean_sbu_3, # of connection points: 8
#     Node 9, Type 1, BuildingBlock: TAGTUT_clean_sbu_3, # of connection points: 8
#     Node 10, Type 1, BuildingBlock: TAGTUT_clean_sbu_3, # of connection points: 8
#     Node 11, Type 1, BuildingBlock: TAGTUT_clean_sbu_3, # of connection points: 8
#     Edge 12, Type (0, 1), BuildingBlock: CIFDUS_clean_linker_0, # of connection points: 2
#     Edge 13, Type (0, 1), BuildingBlock: CIFDUS_clean_linker_0, # of connection points: 2
#     Edge 14, Type (0, 1), BuildingBlock: CIFDUS_clean_linker_0, # of connection points: 2
#     Edge 15, Type (0, 1), BuildingBlock: CIFDUS_clean_linker_0, # of connection points: 2
#     Edge 16, Type (0, 1), BuildingBlock: CIFDUS_clean_linker_0, # of connection points: 2
#     Edge 17, Type (0, 1), BuildingBlock: CIFDUS_clean_linker_0, # of connection points: 2
#     Edge 18, Type (0, 1), BuildingBlock: CIFDUS_clean_linker_0, # of connection points: 2
#     Edge 19, Type (0, 1), BuildingBlock: CIFDUS_clean_linker_0, # of connection points: 2
#     Edge 20, Type (0, 1), BuildingBlock: CIFDUS_clean_linker_0, # of connection points: 2
#     Edge 21, Type (0, 1), BuildingBlock: CIFDUS_clean_linker_0, # of connection points: 2
#     Edge 22, Type (0, 1), BuildingBlock: CIFDUS_clean_linker_0, # of connection points: 2
#     Edge 23, Type (0, 1), BuildingBlock: CIFDUS_clean_linker_0, # of connection points: 2
#     Edge 24, Type (0, 1), BuildingBlock: CIFDUS_clean_linker_0, # of connection points: 2
#     Edge 25, Type (0, 1), BuildingBlock: CIFDUS_clean_linker_0, # of connection points: 2
#     Edge 26, Type (0, 1), BuildingBlock: CIFDUS_clean_linker_0, # of connection points: 2
#     Edge 27, Type (0, 1), BuildingBlock: CIFDUS_clean_linker_0, # of connection points: 2
#     Edge 28, Type (0, 1), BuildingBlock: CIFDUS_clean_linker_0, # of connection points: 2
#     Edge 29, Type (0, 1), BuildingBlock: CIFDUS_clean_linker_0, # of connection points: 2
#     Edge 30, Type (0, 1), BuildingBlock: CIFDUS_clean_linker_0, # of connection points: 2
#     Edge 31, Type (0, 1), BuildingBlock: CIFDUS_clean_linker_0, # of connection points: 2
#     Edge 32, Type (0, 1), BuildingBlock: CIFDUS_clean_linker_0, # of connection points: 2
#     Edge 33, Type (0, 1), BuildingBlock: CIFDUS_clean_linker_0, # of connection points: 2
#     Edge 34, Type (0, 1), BuildingBlock: CIFDUS_clean_linker_0, # of connection points: 2
#     Edge 35, Type (0, 1), BuildingBlock: CIFDUS_clean_linker_0, # of connection points: 2
#     Edge 36, Type (0, 1), BuildingBlock: CIFDUS_clean_linker_0, # of connection points: 2
#     Edge 37, Type (0, 1), BuildingBlock: CIFDUS_clean_linker_0, # of connection points: 2
#     Edge 38, Type (0, 1), BuildingBlock: CIFDUS_clean_linker_0, # of connection points: 2
#     Edge 39, Type (0, 1), BuildingBlock: CIFDUS_clean_linker_0, # of connection points: 2
#     Edge 40, Type (0, 1), BuildingBlock: CIFDUS_clean_linker_0, # of connection points: 2
#     Edge 41, Type (0, 1), BuildingBlock: CIFDUS_clean_linker_0, # of connection points: 2
#     Edge 42, Type (0, 1), BuildingBlock: CIFDUS_clean_linker_0, # of connection points: 2
#     Edge 43, Type (0, 1), BuildingBlock: CIFDUS_clean_linker_0, # of connection points: 2
# Relax obj value: 0.148
# Max RMSD: 0.260
# Mean RMSD: 0.180
data_MOF--net-sqc--node1-TAGTUT_clean_sbu_3--node2-MIFKUJ_clean_linker_1--edge1-CIFDUS_clean_linker_0
_symmetry_space_group_name_H-M    P1
_symmetry_Int_Tables_number       1
_symmetry_cell_setting            triclinic
loop_
_symmetry_equiv_pos_as_xyz
'x, y, z'
_cell_length_a     25.702093
_cell_length_b     25.697641
_cell_length_c     76.422186
_cell_angle_alpha  90.874116
_cell_angle_beta   89.97676
_cell_angle_gamma 89.99651
loop_
_atom_site_label
_atom_site_type_symbol
_atom_site_fract_x
_atom_site_fract_y
_atom_site_fract_z
_atom_type_partial_charge
H0 H 0.90751 0.94631 0.493 0.0
H1 H 0.83146 0.93321 0.47491 0.0
H2 H 0.91431 -0.00147 0.431 0.0
H3 H 0.98695 0.01897 0.4501 0.0
H4 H 0.04892 0.95376 0.46556 0.0
H5 H 0.94281 0.96774 0.52404 0.0
H6 H 0.86102 0.99193 0.53789 0.0
H7 H 0.86459 0.13904 0.51092 0.0
H8 H 0.94376 0.11128 0.49574 0.0
H9 H 0.13548 0.11198 0.50317 0.0
H10 H 0.21977 0.13773 0.51487 0.0
H11 H 0.24099 0.98237 0.53492 0.0
H12 H 0.15827 0.95622 0.52174 0.0
H13 H 0.04379 0.05533 0.52124 0.0
H14 H 0.18861 0.03382 0.4803 0.0
H15 H 0.26946 0.99404 0.47161 0.0
H16 H 0.18946 0.84665 0.46434 0.0
H17 H 0.11125 0.88526 0.47633 0.0
C18 C 0.95262 0.98539 0.4732 0.0
C19 C 0.90837 0.96043 0.47977 0.0
C20 C 0.86512 0.95136 0.4691 0.0
C21 C 0.86608 0.96422 0.45123 0.0
C22 C 0.91081 0.98902 0.44469 0.0
C23 C 0.95312 2e-05 0.45558 0.0
C24 C -0.00026 0.99402 0.48416 0.0
C25 C 0.04784 0.97576 0.47778 0.0
C26 C -0.00178 0.02138 0.50035 0.0
C27 C 0.94877 0.03743 0.50873 0.0
C28 C 0.92539 0.00491 0.52099 0.0
C29 C 0.87869 0.01926 0.52905 0.0
C30 C 0.85559 0.06794 0.52579 0.0
C31 C 0.87993 0.10077 0.51358 0.0
C32 C 0.92574 0.08537 0.50501 0.0
C33 C 0.14086 0.03231 0.51162 0.0
C34 C 0.15828 0.08373 0.51023 0.0
C35 C 0.20664 0.09834 0.517 0.0
C36 C 0.23788 0.06227 0.5259 0.0
C37 C 0.21907 0.01105 0.52778 0.0
C38 C 0.17128 0.99611 0.52055 0.0
C39 C 0.09294 0.01612 0.50238 0.0
C40 C 0.04489 0.03304 0.50907 0.0
C41 C 0.09455 0.98555 0.4868 0.0
C42 C 0.1438 0.96241 0.47979 0.0
C43 C 0.18895 0.9924 0.47767 0.0
C44 C 0.23543 0.96944 0.47204 0.0
C45 C 0.23745 0.91633 0.46708 0.0
C46 C 0.19123 0.88698 0.46851 0.0
C47 C 0.14552 0.90945 0.47505 0.0
H48 H 0.37988 0.80007 0.78564 0.0
H49 H 0.35782 0.88552 0.79843 0.0
H50 H 0.24212 0.90698 0.75822 0.0
H51 H 0.26437 0.82176 0.7455 0.0
H52 H 0.30756 0.71169 0.77946 0.0
H53 H 0.42914 0.82254 0.74518 0.0
H54 H 0.45638 0.88928 0.72442 0.0
H55 H 0.33615 0.83816 0.68856 0.0
H56 H 0.30902 0.77224 0.70934 0.0
H57 H 0.30669 0.62473 0.7105 0.0
H58 H 0.3237 0.54602 0.69331 0.0
H59 H 0.42249 0.48893 0.73458 0.0
H60 H 0.40607 0.56896 0.75165 0.0
H61 H 0.37837 0.6945 0.71926 0.0
H62 H 0.25201 0.59511 0.74673 0.0
H63 H 0.21204 0.52157 0.76136 0.0
H64 H 0.31389 0.54572 0.80568 0.0
H65 H 0.35499 0.6191 0.79069 0.0
C66 C 0.32379 0.80473 0.76464 0.0
C67 C 0.34997 0.82337 0.77956 0.0
C68 C 0.33768 0.8723 0.78673 0.0
C69 C 0.29842 0.90294 0.77925 0.0
C70 C 0.27246 0.88417 0.76426 0.0
C71 C 0.28518 0.8356 0.75699 0.0
C72 C 0.33627 0.75288 0.75703 0.0
C73 C 0.32425 0.7078 0.76646 0.0
C74 C 0.35539 0.74767 0.73979 0.0
C75 C 0.36712 0.79273 0.72874 0.0
C76 C 0.40811 0.82659 0.733 0.0
C77 C 0.42387 0.86421 0.72109 0.0
C78 C 0.39857 0.86852 0.70485 0.0
C79 C 0.35609 0.83597 0.70101 0.0
C80 C 0.34066 0.79827 0.71283 0.0
C81 C 0.35532 0.6027 0.73229 0.0
C82 C 0.33162 0.59504 0.71593 0.0
C83 C 0.34104 0.54982 0.70619 0.0
C84 C 0.37448 0.51129 0.71259 0.0
C85 C 0.39691 0.51821 0.72926 0.0
C86 C 0.38729 0.56361 0.73907 0.0
C87 C 0.34929 0.65337 0.7415 0.0
C88 C 0.36276 0.69817 0.73243 0.0
C89 C 0.32918 0.658 0.75866 0.0
C90 C 0.30674 0.61236 0.76757 0.0
C91 C 0.26649 0.58408 0.75946 0.0
C92 C 0.24349 0.5422 0.76786 0.0
C93 C 0.25988 0.52792 0.78465 0.0
C94 C 0.30098 0.5555 0.79265 0.0
C95 C 0.32405 0.59767 0.7842 0.0
H96 H 0.54849 0.09459 0.04883 0.0
H97 H 0.46944 0.06678 0.06392 0.0
H98 H 0.42421 0.97635 0.01842 0.0
H99 H 0.50449 0.00187 0.0036 0.0
H100 H 0.62372 0.03202 0.04 0.0
H101 H 0.5119 0.14973 0.00367 0.0
H102 H 0.44398 0.16899 0.98206 0.0
H103 H 0.50626 0.04925 0.94768 0.0
H104 H 0.57302 0.02993 0.96925 0.0
H105 H 0.71751 0.02167 0.97386 0.0
H106 H 0.79264 0.04158 0.95596 0.0
H107 H 0.84445 0.15324 0.99524 0.0
H108 H 0.76584 0.13687 0.01204 0.0
H109 H 0.64634 0.10036 0.98023 0.0
H110 H 0.69859 0.95058 0.02404 0.0
H111 H 0.76287 0.91104 0.04311 0.0
H112 H 0.8206 0.06445 0.05714 0.0
H113 H 0.75248 0.10324 0.03945 0.0
C114 C 0.53236 0.05084 0.02498 0.0
C115 C 0.52127 0.06937 0.04197 0.0
C116 C 0.47621 0.05361 0.05058 0.0
C117 C 0.44103 0.0197 0.04225 0.0
C118 C 0.45062 0.00311 0.02497 0.0
C119 C 0.4963 0.01803 0.01647 0.0
C120 C 0.58425 0.06093 0.01721 0.0
C121 C 0.62847 0.0482 0.02705 0.0
C122 C 0.59102 0.07899 -1e-05 0.0
C123 C 0.54722 0.08843 0.988 0.0
C124 C 0.51027 0.12731 0.99157 0.0
C125 C 0.47192 0.13848 0.97919 0.0
C126 C 0.47002 0.11061 0.96321 0.0
C127 C 0.50643 0.07094 0.95995 0.0
C128 C 0.54471 0.06007 0.97221 0.0
C129 C 0.73662 0.07684 0.99451 0.0
C130 C 0.74564 0.04975 0.97874 0.0
C131 C 0.78908 0.06105 0.96856 0.0
C132 C 0.82517 0.09919 0.97405 0.0
C133 C 0.81731 0.12427 0.99037 0.0
C134 C 0.77297 0.11389 0.00032 0.0
C135 C 0.68531 0.07231 0.00311 0.0
C136 C 0.64135 0.08573 0.99338 0.0
C137 C 0.67868 0.05252 0.02006 0.0
C138 C 0.72194 0.02971 0.02997 0.0
C139 C 0.72553 0.97548 0.03116 0.0
C140 C 0.76261 0.95298 0.042 0.0
C141 C 0.79739 0.98436 0.0517 0.0
C142 C 0.79411 0.03887 0.05014 0.0
C143 C 0.75602 0.0613 0.03965 0.0
H144 H 0.31721 0.21849 0.28022 0.0
H145 H 0.34202 0.15038 0.30065 0.0
H146 H 0.45686 0.09371 0.26371 0.0
H147 H 0.43214 0.16219 0.24337 0.0
H148 H 0.38629 0.29291 0.26989 0.0
H149 H 0.27609 0.16696 0.24415 0.0
H150 H 0.25396 0.0809 0.23244 0.0
H151 H 0.36091 0.10361 0.18957 0.0
H152 H 0.3845 0.18892 0.20179 0.0
H153 H 0.40349 0.35198 0.19823 0.0
H154 H 0.38509 0.423 0.17823 0.0
H155 H 0.26782 0.48186 0.21395 0.0
H156 H 0.28755 0.41156 0.23407 0.0
H157 H 0.33152 0.27708 0.20788 0.0
H158 H 0.43665 0.41129 0.23644 0.0
H159 H 0.46459 0.48696 0.25379 0.0
H160 H 0.3586 0.44244 0.29499 0.0
H161 H 0.32805 0.37053 0.27705 0.0
C162 C 0.37285 0.19515 0.26033 0.0
C163 C 0.34712 0.19081 0.27644 0.0
C164 C 0.36115 0.15188 0.28803 0.0
C165 C 0.40155 0.11718 0.28376 0.0
C166 C 0.42593 0.1204 0.26735 0.0
C167 C 0.41159 0.1591 0.25569 0.0
C168 C 0.36309 0.24057 0.24923 0.0
C169 C 0.37317 0.28982 0.25642 0.0
C170 C 0.34738 0.23561 0.2316 0.0
C171 C 0.33243 0.18424 0.22396 0.0
C172 C 0.29521 0.1532 0.23232 0.0
C173 C 0.28227 0.1041 0.22554 0.0
C174 C 0.30586 0.08511 0.21012 0.0
C175 C 0.34271 0.11656 0.20165 0.0
C176 C 0.35577 0.16566 0.20849 0.0
C177 C 0.34673 0.37642 0.21757 0.0
C178 C 0.3744 0.38071 0.20184 0.0
C179 C 0.36378 0.42128 0.19043 0.0
C180 C 0.32466 0.45793 0.19441 0.0
C181 C 0.29867 0.45482 0.21057 0.0
C182 C 0.30964 0.41442 0.22205 0.0
C183 C 0.35416 0.33031 0.22867 0.0
C184 C 0.34399 0.28058 0.2214 0.0
C185 C 0.36835 0.33492 0.2465 0.0
C186 C 0.38004 0.38529 0.25539 0.0
C187 C 0.41816 0.41911 0.24894 0.0
C188 C 0.43481 0.46186 0.25905 0.0
C189 C 0.41434 0.47092 0.27594 0.0
C190 C 0.37482 0.43782 0.28199 0.0
C191 C 0.35752 0.39606 0.27177 0.0
H192 H 0.76695 0.30948 0.22414 0.0
H193 H 0.78393 0.38206 0.20463 0.0
H194 H 0.94928 0.36133 0.21206 0.0
H195 H 0.93201 0.28871 0.23154 0.0
H196 H 0.88444 0.20159 0.22046 0.0
H197 H 0.70466 0.27357 0.25652 0.0
H198 H 0.67174 0.35688 0.26788 0.0
H199 H 0.8291 0.40344 0.28077 0.0
H200 H 0.86143 0.3213 0.26869 0.0
H201 H 0.82534 0.11556 0.28705 0.0
H202 H 0.79306 0.03497 0.29979 0.0
H203 H 0.7338 0.98631 0.24924 0.0
H204 H 0.76535 0.06743 0.23665 0.0
H205 H 0.76869 0.19286 0.27225 0.0
H206 H 0.9066 0.0734 0.25307 0.0
H207 H 0.95388 0.00441 0.23697 0.0
H208 H 0.88891 0.05865 0.18849 0.0
H209 H 0.84038 0.12567 0.20447 0.0
C210 C 0.84825 0.29404 0.22937 0.0
C211 C 0.80679 0.32147 0.22193 0.0
C212 C 0.81655 0.36274 0.21072 0.0
C213 C 0.86794 0.37688 0.20668 0.0
C214 C 0.90931 0.35061 0.2147 0.0
C215 C 0.89952 0.30949 0.22593 0.0
C216 C 0.83832 0.24529 0.23884 0.0
C217 C 0.85928 0.19946 0.23184 0.0
C218 C 0.80586 0.24308 0.25367 0.0
C219 C 0.78536 0.29138 0.26185 0.0
C220 C 0.73183 0.30178 0.26191 0.0
C221 C 0.71317 0.34947 0.26838 0.0
C222 C 0.74774 0.38727 0.27515 0.0
C223 C 0.80135 0.37604 0.27528 0.0
C224 C 0.81993 0.32875 0.26861 0.0
C225 C 0.79784 0.09752 0.26091 0.0
C226 C 0.80581 0.08731 0.27869 0.0
C227 C 0.78785 0.04097 0.2859 0.0
C228 C 0.76106 0.00414 0.2755 0.0
C229 C 0.75417 0.01396 0.2576 0.0
C230 C 0.77238 0.0602 0.25037 0.0
C231 C 0.81411 0.14807 0.25354 0.0
C232 C 0.7941 0.19452 0.26094 0.0
C233 C 0.84725 0.15088 0.2388 0.0
C234 C 0.87002 0.10465 0.22995 0.0
C235 C 0.90161 0.06956 0.23904 0.0
C236 C 0.92895 0.03071 0.22987 0.0
C237 C 0.92569 0.02747 0.21155 0.0
C238 C 0.89277 0.06136 0.2026 0.0
C239 C 0.86486 0.09929 0.21172 0.0
H240 H 0.70157 0.85591 0.73322 0.0
H241 H 0.67294 0.93454 0.71854 0.0
H242 H 0.8332 0.97626 0.70891 0.0
H243 H 0.8616 0.89642 0.72309 0.0
H244 H 0.75006 0.77226 0.7236 0.0
H245 H 0.77821 0.90555 0.76392 0.0
H246 H 0.80552 0.97981 0.7817 0.0
H247 H 0.96516 0.92738 0.77825 0.0
H248 H 0.93796 0.85527 0.75926 0.0
H249 H 0.92849 0.68838 0.75857 0.0
H250 H 0.95615 0.62266 0.77938 0.0
H251 H 0.79765 0.6091 0.79778 0.0
H252 H 0.77022 0.67382 0.77657 0.0
H253 H 0.88221 0.78097 0.77077 0.0
H254 H 0.84116 0.64335 0.72826 0.0
H255 H 0.79969 0.56479 0.71661 0.0
H256 H 0.64988 0.62309 0.73377 0.0
H257 H 0.69173 0.70264 0.74465 0.0
C258 C 0.78373 0.87022 0.72931 0.0
C259 C 0.73056 0.88175 0.72784 0.0
C260 C 0.71429 0.92716 0.71966 0.0
C261 C 0.75083 0.96202 0.71272 0.0
C262 C 0.80408 0.95019 0.71407 0.0
C263 C 0.82035 0.90469 0.72226 0.0
C264 C 0.80084 0.82281 0.73859 0.0
C265 C 0.77886 0.77443 0.73395 0.0
C266 C 0.83837 0.82516 0.75212 0.0
C267 C 0.85606 0.87492 0.76013 0.0
C268 C 0.81935 0.91116 0.76634 0.0
C269 C 0.83495 0.95314 0.77681 0.0
C270 C 0.88738 0.95891 0.78172 0.0
C271 C 0.92451 0.92431 0.77467 0.0
C272 C 0.90897 0.88282 0.7639 0.0
C273 C 0.84733 0.68555 0.76596 0.0
C274 C 0.89963 0.67037 0.76686 0.0
C275 C 0.91541 0.63328 0.77889 0.0
C276 C 0.87922 0.61116 0.79042 0.0
C277 C 0.82643 0.625 0.78899 0.0
C278 C 0.81064 0.66189 0.77685 0.0
C279 C 0.83251 0.73106 0.75548 0.0
C280 C 0.85458 0.77908 0.76004 0.0
C281 C 0.79384 0.72866 0.74243 0.0
C282 C 0.76937 0.67886 0.73712 0.0
C283 C 0.79947 0.63879 0.72968 0.0
C284 C 0.77565 0.59364 0.72318 0.0
C285 C 0.72126 0.58756 0.72416 0.0
C286 C 0.69167 0.62682 0.73249 0.0
C287 C 0.71547 0.67226 0.73875 0.0
H288 H 0.46718 0.37349 0.98409 0.0
H289 H 0.3875 0.34244 0.9701 0.0
H290 H 0.34097 0.50147 0.96101 0.0
H291 H 0.42225 0.53202 0.97408 0.0
H292 H 0.54856 0.42533 0.97294 0.0
H293 H 0.41676 0.45499 0.01578 0.0
H294 H 0.3342 0.48732 0.02744 0.0
H295 H 0.38598 0.64531 0.01939 0.0
H296 H 0.46692 0.61256 0.00679 0.0
H297 H 0.63214 0.60989 0.00397 0.0
H298 H 0.71504 0.63997 0.01631 0.0
H299 H 0.74445 0.48517 0.03541 0.0
H300 H 0.66246 0.45546 0.02268 0.0
H301 H 0.5438 0.55949 0.02037 0.0
H302 H 0.6671 0.52732 0.97315 0.0
H303 H 0.75057 0.49624 0.96197 0.0
H304 H 0.71767 0.34335 0.98218 0.0
H305 H 0.63315 0.37465 0.99274 0.0
C306 C 0.45062 0.45511 0.98033 0.0
C307 C 0.44 0.40165 0.97897 0.0
C308 C 0.39393 0.384 0.97118 0.0
C309 C 0.35724 0.41944 0.9646 0.0
C310 C 0.36828 0.473 0.96583 0.0
C311 C 0.41463 0.49058 0.97346 0.0
C312 C 0.49892 0.47379 0.98914 0.0
C313 C 0.54721 0.45415 0.98346 0.0
C314 C 0.49765 0.51185 0.00277 0.0
C315 C 0.44787 0.53135 0.01023 0.0
C316 C 0.40993 0.49658 0.01627 0.0
C317 C 0.36286 0.51515 0.02307 0.0
C318 C 0.35314 0.56895 0.02427 0.0
C319 C 0.39146 0.60361 0.01831 0.0
C320 C 0.43822 0.585 0.01134 0.0
C321 C 0.64131 0.53046 0.01237 0.0
C322 C 0.65648 0.58264 0.01089 0.0
C323 C 0.7039 0.59971 0.01795 0.0
C324 C 0.73681 0.56493 0.02674 0.0
C325 C 0.72087 0.51281 0.02838 0.0
C326 C 0.6737 0.4958 0.02126 0.0
C327 C 0.5927 0.51139 0.004 0.0
C328 C 0.54464 0.53069 0.00985 0.0
C329 C 0.59394 0.47273 0.99068 0.0
C330 C 0.64398 0.45314 0.98364 0.0
C331 C 0.67795 0.48709 0.97512 0.0
C332 C 0.72598 0.46935 0.96895 0.0
C333 C 0.74119 0.41728 0.97126 0.0
C334 C 0.70705 0.38349 0.97998 0.0
C335 C 0.65872 0.40122 0.986 0.0
H336 H 0.06601 0.46388 0.45615 0.0
H337 H 0.99069 0.47762 0.43724 0.0
H338 H 0.91506 0.56479 0.47873 0.0
H339 H 0.99128 0.55284 0.49746 0.0
H340 H 0.12795 0.53598 0.46792 0.0
H341 H 0.01549 0.40699 0.49886 0.0
H342 H 0.94698 0.37498 0.51836 0.0
H343 H 0.98244 0.49904 0.55535 0.0
H344 H 0.04895 0.53136 0.53569 0.0
H345 H 0.2021 0.52333 0.54035 0.0
H346 H 0.26932 0.48425 0.55855 0.0
H347 H 0.33111 0.40309 0.5133 0.0
H348 H 0.26239 0.44062 0.4951 0.0
H349 H 0.13195 0.46551 0.52776 0.0
H350 H 0.24652 0.58742 0.50323 0.0
H351 H 0.31401 0.63429 0.48699 0.0
H352 H 0.27567 0.54576 0.44036 0.0
H353 H 0.21022 0.49734 0.45661 0.0
C354 C 0.03421 0.50699 0.47828 0.0
C355 C 0.03309 0.48568 0.46125 0.0
C356 C 0.99022 0.49353 0.45045 0.0
C357 C 0.94742 0.52227 0.45658 0.0
C358 C 0.94757 0.54205 0.47382 0.0
C359 C 0.99091 0.53494 0.48455 0.0
C360 C 0.08265 0.5036 0.48869 0.0
C361 C 0.12924 0.51957 0.48091 0.0
C362 C 0.08375 0.48609 0.50606 0.0
C363 C 0.03685 0.47156 0.51587 0.0
C364 C 0.00728 0.42792 0.51096 0.0
C365 C 0.96876 0.40938 0.52219 0.0
C366 C 0.95963 0.43432 0.53843 0.0
C367 C 0.98799 0.47933 0.54286 0.0
C368 C 0.02614 0.49778 0.53167 0.0
C369 C 0.22694 0.48467 0.51637 0.0
C370 C 0.23069 0.49796 0.53423 0.0
C371 C 0.26875 0.47541 0.54464 0.0
C372 C 0.30438 0.44006 0.5373 0.0
C373 C 0.30365 0.43012 0.51919 0.0
C374 C 0.26484 0.45201 0.50878 0.0
C375 C 0.17824 0.49622 0.50681 0.0
C376 C 0.13139 0.48178 0.51474 0.0
C377 C 0.17701 0.51669 0.48978 0.0
C378 C 0.22334 0.53877 0.48114 0.0
C379 C 0.25366 0.57701 0.48966 0.0
C380 C 0.29153 0.60425 0.48037 0.0
C381 C 0.29857 0.59413 0.46246 0.0
C382 C 0.26981 0.55469 0.45413 0.0
C383 C 0.23281 0.52691 0.46342 0.0
C384 C 0.16055 0.6531 0.13847 0.0
C385 C 0.97276 0.57573 0.13613 0.0
C386 C 0.95519 0.67305 0.09051 0.0
Mg387 Mg 0.20477 0.764 0.12565 0.0
Mg388 Mg 0.13005 0.8657 0.11839 0.0
O389 O 0.14121 0.79483 0.11465 0.0
Mg390 Mg 0.08884 0.74163 0.12141 0.0
O391 O 0.04132 0.68378 0.12782 0.0
Mg392 Mg 0.06534 0.62909 0.11066 0.0
Mg393 Mg 0.96984 0.69425 0.12938 0.0
C394 C 0.02119 0.83401 0.10205 0.0
O395 O 0.05491 0.7889 0.14483 0.0
O396 O 0.25195 0.8272 0.11111 0.0
O397 O 0.97231 0.75953 0.14729 0.0
O398 O 0.20214 0.82055 0.15003 0.0
O399 O 0.19763 0.8928 0.10447 0.0
O400 O 0.14078 0.88054 0.14561 0.0
O401 O 0.11803 0.69179 0.09841 0.0
O402 O 0.20311 0.70984 0.10162 0.0
C403 C 0.16576 0.68575 0.09386 0.0
C404 C 0.24257 0.87116 0.10394 0.0
O405 O 0.02892 0.78522 0.10451 0.0
O406 O 0.01284 0.5714 0.12611 0.0
O407 O 0.05264 0.86964 0.10742 0.0
O408 O 0.996 0.64431 0.09124 0.0
O409 O 0.95031 0.61943 0.1391 0.0
O410 O 0.9408 0.70123 0.10349 0.0
O411 O 0.15091 0.70219 0.13814 0.0
O412 O 0.13269 0.61991 0.12991 0.0
C413 C 0.17535 0.85995 0.15524 0.0
C414 C 0.00962 0.78971 0.15202 0.0
C415 C 0.6742 0.80759 0.38945 0.0
C416 C 0.74302 0.61973 0.38625 0.0
C417 C 0.64467 0.60516 0.34008 0.0
Mg418 Mg 0.56751 0.85858 0.37592 0.0
Mg419 Mg 0.46088 0.79035 0.369 0.0
O420 O 0.53189 0.79786 0.36438 0.0
Mg421 Mg 0.58216 0.74242 0.37065 0.0
O422 O 0.6374 0.69189 0.37686 0.0
Mg423 Mg 0.69398 0.71366 0.3605 0.0
Mg424 Mg 0.62464 0.62132 0.37904 0.0
C425 C 0.48497 0.68285 0.3498 0.0
O426 O 0.53345 0.71107 0.39371 0.0
O427 O 0.508 0.90876 0.36119 0.0
O428 O 0.55986 0.62778 0.39669 0.0
O429 O 0.5118 0.85936 0.40004 0.0
O430 O 0.43643 0.86026 0.35614 0.0
O431 O 0.44907 0.80013 0.39649 0.0
O432 O 0.63411 0.76947 0.34802 0.0
O433 O 0.62061 0.85504 0.35207 0.0
C434 C 0.64245 0.81701 0.34392 0.0
C435 C 0.46228 0.90264 0.35469 0.0
O436 O 0.53422 0.68673 0.35269 0.0
O437 O 0.74915 0.65827 0.37591 0.0
O438 O 0.45162 0.71539 0.35607 0.0
O439 O 0.6747 0.64516 0.34073 0.0
O440 O 0.69837 0.59999 0.38939 0.0
O441 O 0.61715 0.59184 0.35315 0.0
O442 O 0.62493 0.80042 0.38836 0.0
O443 O 0.70673 0.77944 0.38076 0.0
C444 C 0.47195 0.83488 0.40573 0.0
C445 C 0.53116 0.66657 0.40113 0.0
C446 C 0.64551 0.15323 0.64262 0.0
C447 C 0.45834 0.08275 0.6339 0.0
C448 C 0.46014 0.17395 0.58654 0.0
Mg449 Mg 0.69841 0.26008 0.63038 0.0
Mg450 Mg 0.63083 0.36333 0.61941 0.0
O451 O 0.64087 0.29204 0.6165 0.0
Mg452 Mg 0.58417 0.24191 0.62157 0.0
O453 O 0.53252 0.18688 0.62667 0.0
Mg454 Mg 0.56076 0.12927 0.61141 0.0
Mg455 Mg 0.4614 0.2 0.62531 0.0
C456 C 0.53162 0.33434 0.59709 0.0
O457 O 0.54383 0.2927 0.6431 0.0
O458 O 0.75277 0.31894 0.61655 0.0
O459 O 0.45939 0.26888 0.64175 0.0
O460 O 0.68821 0.31883 0.65389 0.0
O461 O 0.70366 0.38774 0.60916 0.0
O462 O 0.63017 0.37943 0.64665 0.0
O463 O 0.61996 0.18833 0.60024 0.0
O464 O 0.70358 0.20306 0.60736 0.0
C465 C 0.66888 0.1798 0.59807 0.0
C466 C 0.74714 0.36359 0.60943 0.0
O467 O 0.53312 0.28626 0.60157 0.0
O468 O 0.50167 0.07644 0.62573 0.0
O469 O 0.56273 0.36911 0.60321 0.0
O470 O 0.49894 0.14361 0.58922 0.0
O471 O 0.43546 0.12689 0.63522 0.0
O472 O 0.44292 0.20458 0.59844 0.0
O473 O 0.63783 0.20237 0.64129 0.0
O474 O 0.62037 0.11972 0.63334 0.0
C475 C 0.66058 0.35894 0.65777 0.0
C476 C 0.49603 0.2976 0.64795 0.0
C477 C 0.16196 0.31043 0.89573 0.0
C478 C 0.25382 0.13316 0.88955 0.0
C479 C 0.1719 0.11884 0.84013 0.0
Mg480 Mg 0.05045 0.34971 0.88132 0.0
Mg481 Mg 0.95779 0.27049 0.8678 0.0
O482 O 0.02796 0.28805 0.867 0.0
Mg483 Mg 0.08382 0.23824 0.8732 0.0
O484 O 0.14343 0.19322 0.87941 0.0
Mg485 Mg 0.1994 0.2269 0.86526 0.0
Mg486 Mg 0.13872 0.12076 0.87828 0.0
C487 C 0.00184 0.17182 0.8478 0.0
O488 O 0.03542 0.19385 0.89383 0.0
O489 O 0.98782 0.39602 0.86596 0.0
O490 O 0.0676 0.11206 0.89313 0.0
O491 O 0.98908 0.33402 0.90354 0.0
O492 O 0.92807 0.33925 0.85581 0.0
O493 O 0.93599 0.27038 0.89443 0.0
O494 O 0.13548 0.27824 0.85273 0.0
O495 O 0.10864 0.35953 0.85919 0.0
C496 C 0.13735 0.32769 0.85042 0.0
C497 C 0.9466 0.38541 0.85705 0.0
O498 O 0.04895 0.18152 0.85249 0.0
O499 O 0.25627 0.17578 0.881 0.0
O500 O 0.96265 0.19833 0.85327 0.0
O501 O 0.19624 0.16171 0.84314 0.0
O502 O 0.21256 0.10531 0.89022 0.0
O503 O 0.14188 0.09879 0.85145 0.0
O504 O 0.11404 0.29739 0.89368 0.0
O505 O 0.19874 0.28845 0.88704 0.0
C506 C 0.95102 0.30268 0.90617 0.0
C507 C 0.03466 0.14608 0.89866 0.0
H508 H 0.32038 0.96538 0.45118 0.0
H509 H 0.26746 0.8123 0.46614 0.0
H510 H 0.33865 0.77314 0.44982 0.0
H511 H 0.41035 0.78211 0.42847 0.0
H512 H 0.46863 0.93527 0.41703 0.0
H513 H 0.40254 0.97436 0.43592 0.0
C514 C 0.32454 0.92356 0.45158 0.0
C515 C 0.28622 0.89242 0.45956 0.0
C516 C 0.36722 0.90097 0.44288 0.0
C517 C 0.29389 0.83796 0.45945 0.0
C518 C 0.33537 0.81519 0.45029 0.0
C519 C 0.40949 0.82391 0.43055 0.0
C520 C 0.44385 0.85573 0.42118 0.0
C521 C 0.37132 0.8463 0.44149 0.0
C522 C 0.44275 0.90983 0.42412 0.0
C523 C 0.40447 0.93231 0.43475 0.0
H524 H 0.34131 0.93367 0.68498 0.0
H525 H 0.4989 0.88415 0.69473 0.0
H526 H 0.53074 0.94228 0.67209 0.0
H527 H 0.51399 0.0092 0.6503 0.0
H528 H 0.35701 0.06221 0.64161 0.0
H529 H 0.32434 -0.00061 0.6627 0.0
C530 C 0.38256 0.93543 0.68204 0.0
C531 C 0.41776 0.90496 0.69152 0.0
C532 C 0.40053 0.96895 0.66907 0.0
C533 C 0.47118 0.90791 0.68777 0.0
C534 C 0.48933 0.94072 0.67473 0.0
C535 C 0.47252 0.00616 0.65276 0.0
C536 C 0.4378 0.03973 0.64433 0.0
C537 C 0.45437 0.97152 0.66535 0.0
C538 C 0.38432 0.03643 0.64791 0.0
C539 C 0.36573 0.00083 0.66003 0.0
H540 H 0.41127 0.04324 0.94413 0.0
H541 H 0.44282 0.20691 0.95181 0.0
H542 H 0.38186 0.22794 0.9284 0.0
H543 H 0.3187 0.19974 0.90619 0.0
H544 H 0.28423 0.03637 0.8994 0.0
H545 H 0.34872 0.01497 0.92171 0.0
C546 C 0.405 0.08347 0.94058 0.0
C547 C 0.43137 0.12349 0.94964 0.0
C548 C 0.37009 0.09518 0.92714 0.0
C549 C 0.4224 0.17552 0.94514 0.0
C550 C 0.38799 0.1875 0.93167 0.0
C551 C 0.32609 0.15939 0.90936 0.0
C552 C 0.29738 0.11956 0.90107 0.0
C553 C 0.36171 0.14763 0.92258 0.0
C554 C 0.30624 0.06755 0.90557 0.0
C555 C 0.34279 0.05538 0.91837 0.0
H556 H 0.20859 0.04343 0.20791 0.0
H557 H 0.36901 0.01105 0.19508 0.0
H558 H 0.34294 0.93149 0.17954 0.0
H559 H 0.27364 0.87757 0.16646 0.0
H560 H 0.11345 0.91272 0.17822 0.0
H561 H 0.14031 0.98336 0.19794 0.0
C562 C 0.23805 0.0184 0.20209 0.0
C563 C 0.29064 0.03369 0.20247 0.0
C564 C 0.22274 0.97292 0.19306 0.0
C565 C 0.32814 0.00089 0.19466 0.0
C566 C 0.3133 0.95515 0.18587 0.0
C567 C 0.24476 0.89946 0.17385 0.0
C568 C 0.19157 0.89004 0.17092 0.0
C569 C 0.26058 0.94156 0.18456 0.0
C570 C 0.15452 0.91936 0.1803 0.0
C571 C 0.16992 0.96005 0.19144 0.0
H572 H 0.26538 0.15788 0.53918 0.0
H573 H 0.32669 0.00326 0.52991 0.0
H574 H 0.40575 0.02679 0.54573 0.0
H575 H 0.45268 0.08822 0.56518 0.0
H576 H 0.39168 0.24325 0.5731 0.0
H577 H 0.31891 0.22336 0.55381 0.0
C578 C 0.29637 0.12947 0.54006 0.0
C579 C 0.28897 0.07834 0.53362 0.0
C580 C 0.34233 0.14351 0.54882 0.0
C581 C 0.33002 0.04236 0.53525 0.0
C582 C 0.37573 0.05595 0.54413 0.0
C583 C 0.42443 0.11818 0.56221 0.0
C584 C 0.42722 0.16691 0.57081 0.0
C585 C 0.38167 0.106 0.55141 0.0
C586 C 0.39021 0.20527 0.56681 0.0
C587 C 0.34823 0.19376 0.55589 0.0
H588 H 0.20042 0.93331 0.78715 0.0
H589 H 0.36016 0.98326 0.79076 0.0
H590 H 0.33342 0.06102 0.80742 0.0
H591 H 0.26545 0.10927 0.82377 0.0
H592 H 0.10808 0.05144 0.82299 0.0
H593 H 0.1323 0.98393 0.80186 0.0
C594 C 0.22923 0.96179 0.79128 0.0
C595 C 0.28213 0.95261 0.78778 0.0
C596 C 0.21373 0.00541 0.80125 0.0
C597 C 0.31921 0.98935 0.79346 0.0
C598 C 0.30391 0.03384 0.80293 0.0
C599 C 0.23624 0.0829 0.81851 0.0
C600 C 0.18462 0.08635 0.82457 0.0
C601 C 0.25136 0.04164 0.80727 0.0
C602 C 0.14756 0.05075 0.81811 0.0
C603 C 0.16164 0.01148 0.80625 0.0
H604 H 0.44757 0.96357 0.07151 0.0
H605 H 0.33742 0.02547 0.03481 0.0
H606 H 0.26538 0.98677 0.05124 0.0
H607 H 0.23447 0.9338 0.07579 0.0
H608 H 0.34605 0.86653 0.11105 0.0
H609 H 0.41706 0.90889 0.09548 0.0
C610 C 0.40767 0.9688 0.06724 0.0
C611 C 0.39734 -0.0024 0.05218 0.0
C612 C 0.36699 0.94539 0.07645 0.0
C613 C 0.34587 0.0035 0.04646 0.0
C614 C 0.30489 0.98144 0.05583 0.0
C615 C 0.27434 0.92874 0.0801 0.0
C616 C 0.28511 0.89737 0.09458 0.0
C617 C 0.31504 0.95213 0.07082 0.0
C618 C 0.33691 0.89039 0.0999 0.0
C619 C 0.37747 0.91465 0.09103 0.0
H620 H 0.34393 0.05222 0.30368 0.0
H621 H 0.50171 0.09993 0.29323 0.0
H622 H 0.53392 0.04032 0.3153 0.0
H623 H 0.51751 0.97367 0.33697 0.0
H624 H 0.36047 0.92217 0.3467 0.0
H625 H 0.3274 0.98513 0.32571 0.0
C626 C 0.38529 0.04958 0.30633 0.0
C627 C 0.42048 0.08003 0.29684 0.0
C628 C 0.40353 0.01504 0.31896 0.0
C629 C 0.47403 0.07619 0.30023 0.0
C630 C 0.49241 0.04249 0.31292 0.0
C631 C 0.47595 0.97673 0.33471 0.0
C632 C 0.44139 0.94372 0.34345 0.0
C633 C 0.45753 0.0117 0.32232 0.0
C634 C 0.38777 0.94736 0.34013 0.0
C635 C 0.36891 0.98316 0.32811 0.0
H636 H 0.82655 0.04136 0.55901 0.0
H637 H 0.77707 0.13454 0.51542 0.0
H638 H 0.70779 0.17205 0.53336 0.0
H639 H 0.66843 0.18631 0.56271 0.0
H640 H 0.71693 0.0901 0.60536 0.0
H641 H 0.77731 0.04341 0.5861 0.0
C642 C 0.79986 0.06842 0.55304 0.0
C643 C 0.80843 0.08555 0.53583 0.0
C644 C 0.75919 0.08895 0.56327 0.0
C645 C 0.77317 0.12168 0.52877 0.0
C646 C 0.73291 0.14283 0.53898 0.0
C647 C 0.69058 0.15354 0.5675 0.0
C648 C 0.68814 0.14113 0.58532 0.0
C649 C 0.72647 0.12786 0.55641 0.0
C650 C 0.71792 0.09968 0.5916 0.0
C651 C 0.75292 0.07352 0.58066 0.0
H652 H 0.80227 0.93818 0.2996 0.0
H653 H 0.6627 0.96837 0.27005 0.0
H654 H 0.61585 0.90318 0.28667 0.0
H655 H 0.61075 0.84867 0.31265 0.0
H656 H 0.74803 0.82093 0.34333 0.0
H657 H 0.79999 0.87312 0.32312 0.0
C658 C 0.76181 0.92986 0.29666 0.0
C659 C 0.7359 0.95852 0.28373 0.0
C660 C 0.73477 0.8927 0.30648 0.0
C661 C 0.68369 0.94678 0.27986 0.0
C662 C 0.65672 0.90969 0.28944 0.0
C663 C 0.65251 0.85233 0.31442 0.0
C664 C 0.67599 0.8306 0.32917 0.0
C665 C 0.68137 0.88376 0.30314 0.0
C666 C 0.72967 0.83648 0.33176 0.0
C667 C 0.75906 0.86697 0.32038 0.0
H668 H 0.84879 0.89147 0.04759 0.0
H669 H 0.83245 0.02289 0.08321 0.0
H670 H 0.89908 0.98694 0.10204 0.0
H671 H 0.96423 0.92014 0.10793 0.0
H672 H 0.97614 0.78522 0.07395 0.0
H673 H 0.90699 0.81957 0.05531 0.0
C674 C 0.85886 0.91194 0.05962 0.0
C675 C 0.83605 0.96055 0.06368 0.0
C676 C 0.89607 0.89021 0.07077 0.0
C677 C 0.85041 0.98641 0.07932 0.0
C678 C 0.88814 0.96558 0.09026 0.0
C679 C 0.9513 0.89813 0.09651 0.0
C680 C 0.9753 0.85065 0.09215 0.0
C681 C 0.91165 0.91793 0.08599 0.0
C682 C 0.95795 0.82191 0.07752 0.0
C683 C 0.91879 0.84172 0.06682 0.0
H684 H 0.97571 0.01824 0.78351 0.0
H685 H 0.83305 0.98511 0.81115 0.0
H686 H 0.857 0.04674 0.83417 0.0
H687 H 0.91777 0.1101 0.84651 0.0
H688 H 0.06177 0.14242 0.81988 0.0
H689 H 0.03874 0.07972 0.79663 0.0
C690 C 0.95005 0.02423 0.79463 0.0
C691 C 0.90228 -0.00241 0.79542 0.0
C692 C 0.96455 0.05901 0.80809 0.0
C693 C 0.86936 0.0061 0.8099 0.0
C694 C 0.88326 0.0409 0.82321 0.0
C695 C 0.94426 0.10305 0.83566 0.0
C696 C 0.99143 0.13029 0.83487 0.0
C697 C 0.93063 0.06753 0.82242 0.0
C698 C 0.02553 0.12109 0.82082 0.0
C699 C 0.01214 0.08572 0.80748 0.0
H700 H 0.80022 0.88079 0.45422 0.0
H701 H 0.83319 0.01108 0.42078 0.0
H702 H 0.77333 0.97612 0.39893 0.0
H703 H 0.71826 0.90328 0.38805 0.0
H704 H 0.67958 0.77897 0.4229 0.0
H705 H 0.7334 0.81846 0.44589 0.0
C706 C 0.79344 0.90302 0.44252 0.0
C707 C 0.82287 0.94809 0.43917 0.0
C708 C 0.75752 0.88382 0.43024 0.0
C709 C 0.81312 0.97516 0.42359 0.0
C710 C 0.7783 0.95553 0.41109 0.0
C711 C 0.72053 0.88601 0.40089 0.0
C712 C 0.69519 0.83871 0.40398 0.0
C713 C 0.7514 0.90908 0.41406 0.0
C714 C 0.69849 0.81586 0.42047 0.0
C715 C 0.72958 0.83813 0.43351 0.0
H716 H 0.92068 0.92334 0.21443 0.0
H717 H 0.99569 0.04539 0.18579 0.0
H718 H 0.03412 0.9811 0.16564 0.0
H719 H 0.03739 0.89108 0.15423 0.0
H720 H 0.95675 0.77013 0.18173 0.0
H721 H 0.92947 0.83269 0.20431 0.0
C722 C 0.94643 0.93547 0.204 0.0
C723 C 0.95555 0.98852 0.20146 0.0
C724 C 0.96669 0.89856 0.19216 0.0
C725 C 0.98827 0.00442 0.18783 0.0
C726 C 0.00995 0.96782 0.17631 0.0
C727 C 0.01487 0.87848 0.16539 0.0
C728 C -0.0009 0.82646 0.16645 0.0
C729 C -0.00187 0.91492 0.17804 0.0
C730 C 0.96903 0.81031 0.18072 0.0
C731 C 0.95348 0.84595 0.1936 0.0
H732 H 0.87944 0.03868 0.95057 0.0
H733 H 0.86844 0.19659 0.9706 0.0
H734 H 0.93436 0.2239 0.94992 0.0
H735 H 0.98845 0.20549 0.92396 0.0
H736 H 0.99576 0.04876 0.90302 0.0
H737 H 0.93482 0.01967 0.92533 0.0
C738 C 0.89037 0.07938 0.95023 0.0
C739 C 0.86814 0.11531 0.96216 0.0
C740 C 0.92609 0.09575 0.93758 0.0
C741 C 0.88494 0.1675 0.96185 0.0
C742 C 0.922 0.1836 0.94972 0.0
C743 C 0.97621 0.16512 0.92418 0.0
C744 C 0.99597 0.1295 0.91172 0.0
C745 C 0.94159 0.14847 0.93717 0.0
C746 C 0.98086 0.07701 0.91242 0.0
C747 C 0.94612 0.0603 0.92519 0.0
H748 H 0.78844 0.00119 0.68233 0.0
H749 H 0.67274 0.02888 0.72233 0.0
H750 H 0.63519 0.09885 0.70515 0.0
H751 H 0.62804 0.14361 0.677 0.0
H752 H 0.74089 0.11281 0.63654 0.0
H753 H 0.7881 0.05402 0.65584 0.0
C754 C 0.75585 0.02338 0.6875 0.0
C755 C 0.73294 0.00924 0.70347 0.0
C756 C 0.73413 0.06323 0.67747 0.0
C757 C 0.69039 0.03818 0.70989 0.0
C758 C 0.66906 0.0784 0.70013 0.0
C759 C 0.66415 0.12552 0.67275 0.0
C760 C 0.68172 0.13278 0.65559 0.0
C761 C 0.6896 0.09017 0.68366 0.0
C762 C 0.72745 0.10814 0.64986 0.0
C763 C 0.75397 0.07415 0.66081 0.0
H764 H 0.75859 0.32346 0.95538 0.0
H765 H 0.83554 0.46738 0.9695 0.0
H766 H 0.91178 0.44099 0.95247 0.0
H767 H 0.95154 0.38197 0.93051 0.0
H768 H 0.87258 0.23891 0.91648 0.0
H769 H 0.80349 0.25918 0.93715 0.0
C770 C 0.79249 0.34856 0.9552 0.0
C771 C 0.79074 0.39779 0.96346 0.0
C772 C 0.83607 0.3333 0.94535 0.0
C773 C 0.83514 0.42984 0.96287 0.0
C774 C 0.87895 0.41466 0.95321 0.0
C775 C 0.91992 0.35462 0.93229 0.0
C776 C 0.91712 0.30935 0.92174 0.0
C777 C 0.87914 0.3672 0.9439 0.0
C778 C 0.8756 0.27445 0.92422 0.0
C779 C 0.83579 0.28605 0.93602 0.0
H780 H 0.93871 0.37355 0.18031 0.0
H781 H 0.82028 0.47121 0.20375 0.0
H782 H 0.83895 0.53921 0.18267 0.0
H783 H 0.89202 0.57257 0.15893 0.0
H784 H 0.01314 0.47677 0.13605 0.0
H785 H 0.98986 0.40596 0.15555 0.0
C786 C 0.91724 0.40988 0.18086 0.0
C787 C 0.87854 0.41763 0.19367 0.0
C788 C 0.92848 0.4489 0.1688 0.0
C789 C 0.85013 0.46431 0.19398 0.0
C790 C 0.86089 0.50321 0.18197 0.0
C791 C 0.91318 0.53609 0.15803 0.0
C792 C 0.95462 0.53024 0.1461 0.0
C793 C 0.90035 0.4961 0.16948 0.0
C794 C 0.98119 0.48246 0.14511 0.0
C795 C 0.96807 0.44204 0.15633 0.0
H796 H 0.95312 0.56491 0.42452 0.0
H797 H 0.84445 0.5059 0.46236 0.0
H798 H 0.77173 0.52759 0.44314 0.0
H799 H 0.73943 0.56631 0.41635 0.0
H800 H 0.84706 0.63088 0.37911 0.0
H801 H 0.9203 0.60354 0.3973 0.0
C802 C 0.91346 0.55641 0.42841 0.0
C803 C 0.9038 0.53374 0.44472 0.0
C804 C 0.87199 0.56996 0.41746 0.0
C805 C 0.85247 0.52353 0.44986 0.0
C806 C 0.81108 0.5358 0.43888 0.0
C807 C 0.7789 0.5739 0.41205 0.0
C808 C 0.78784 0.60033 0.39634 0.0
C809 C 0.82042 0.55941 0.42274 0.0
C810 C 0.83921 0.61057 0.39114 0.0
C811 C 0.88101 0.59502 0.40154 0.0
H812 H 0.75372 0.48613 0.721 0.0
H813 H 0.6304 0.59033 0.7057 0.0
H814 H 0.5952 0.52386 0.68618 0.0
H815 H 0.6076 0.44304 0.6699 0.0
H816 H 0.73377 0.33997 0.68315 0.0
H817 H 0.75966 0.39923 0.70694 0.0
C818 C 0.71897 0.49419 0.71348 0.0
C819 C 0.69533 0.54362 0.71472 0.0
C820 C 0.69979 0.4563 0.7017 0.0
C821 C 0.64942 0.55275 0.70521 0.0
C822 C 0.62945 0.51487 0.69384 0.0
C823 C 0.64015 0.43275 0.67819 0.0
C824 C 0.66915 0.38744 0.67453 0.0
C825 C 0.65552 0.46745 0.69148 0.0
C826 C 0.71087 0.37472 0.68557 0.0
C827 C 0.72592 0.40879 0.69912 0.0
H828 H 0.75602 0.65711 0.04374 0.0
H829 H 0.83008 0.5132 0.02786 0.0
H830 H 0.90793 0.53746 0.04434 0.0
H831 H 0.95092 0.59496 0.06593 0.0
H832 H 0.87572 0.73819 0.08194 0.0
H833 H 0.80361 0.71973 0.06215 0.0
C834 C 0.78956 0.63152 0.0435 0.0
C835 C 0.78661 0.58292 0.03481 0.0
C836 C 0.83428 0.64567 0.05302 0.0
C837 C 0.83058 0.55023 0.03482 0.0
C838 C 0.87535 0.56422 0.04415 0.0
C839 C 0.91944 0.6228 0.06476 0.0
C840 C 0.91867 0.66766 0.07556 0.0
C841 C 0.87708 0.61118 0.05371 0.0
C842 C 0.87733 0.70319 0.07388 0.0
C843 C 0.83577 0.6925 0.06264 0.0
H844 H 0.65935 0.40298 0.29424 0.0
H845 H 0.79215 0.48431 0.27343 0.0
H846 H 0.76764 0.56251 0.28995 0.0
H847 H 0.71476 0.60386 0.31315 0.0
H848 H 0.58185 0.52164 0.33355 0.0
H849 H 0.59898 0.44882 0.31372 0.0
C850 C 0.68228 0.4381 0.29288 0.0
C851 C 0.72825 0.43714 0.28289 0.0
C852 C 0.66794 0.48301 0.30237 0.0
C853 C 0.75745 0.48326 0.28146 0.0
C854 C 0.74327 0.52822 0.29081 0.0
C855 C 0.6888 0.57059 0.31297 0.0
C856 C 0.64773 0.56798 0.3251 0.0
C857 C 0.69955 0.52799 0.30178 0.0
C858 C 0.61439 0.52448 0.3246 0.0
C859 C 0.6242 0.48259 0.31328 0.0
H860 H 0.89118 0.48737 0.55888 0.0
H861 H 0.94631 0.33221 0.54691 0.0
H862 H 0.8888 0.29688 0.56926 0.0
H863 H 0.82155 0.31019 0.59174 0.0
H864 H 0.76642 0.46555 0.60335 0.0
H865 H 0.82716 0.50109 0.58207 0.0
C866 C 0.89099 0.44586 0.56127 0.0
C867 C 0.92279 0.41246 0.55124 0.0
C868 C 0.85861 0.42603 0.57427 0.0
C869 C 0.92147 0.35866 0.55426 0.0
C870 C 0.88911 0.3385 0.56717 0.0
C871 C 0.82375 0.35191 0.58988 0.0
C872 C 0.78994 0.38532 0.59911 0.0
C873 C 0.85756 0.37186 0.57726 0.0
C874 C 0.79229 0.43919 0.59637 0.0
C875 C 0.82666 0.45945 0.58415 0.0
H876 H 0.83157 0.52302 0.80169 0.0
H877 H 0.96653 0.61984 0.81063 0.0
H878 H 0.99728 0.56058 0.83297 0.0
H879 H 0.98778 0.47959 0.8491 0.0
H880 H 0.85274 0.3827 0.84026 0.0
H881 H 0.81937 0.44466 0.81917 0.0
C882 C 0.86736 0.53154 0.80868 0.0
C883 C 0.89693 0.57552 0.80432 0.0
C884 C 0.88466 0.49753 0.82164 0.0
C885 C 0.94354 0.58564 0.81341 0.0
C886 C 0.96095 0.55203 0.82632 0.0
C887 C 0.95063 0.47235 0.84279 0.0
C888 C 0.92296 0.42643 0.84624 0.0
C889 C 0.93208 0.50762 0.83043 0.0
C890 C 0.87502 0.41763 0.83782 0.0
C891 C 0.85595 0.45294 0.82569 0.0
H892 H 0.30299 0.53074 0.0528 0.0
H893 H 0.29479 0.65332 0.01487 0.0
H894 H 0.22645 0.69617 0.0319 0.0
H895 H 0.18009 0.70592 0.05995 0.0
H896 H 0.18953 0.58445 0.09795 0.0
H897 H 0.24469 0.53271 0.07819 0.0
C898 C 0.28524 0.56593 0.04792 0.0
C899 C 0.30503 0.58938 0.03277 0.0
C900 C 0.24595 0.59043 0.0578 0.0
C901 C 0.28151 0.63523 0.02677 0.0
C902 C 0.24214 0.65962 0.03644 0.0
C903 C 0.19242 0.66707 0.06348 0.0
C904 C 0.18053 0.64836 0.08014 0.0
C905 C 0.22557 0.63864 0.05231 0.0
C906 C 0.1976 0.59882 0.08498 0.0
C907 C 0.22971 0.56971 0.07379 0.0
H908 H 0.29797 0.44629 0.80354 0.0
H909 H 0.15537 0.52077 0.78765 0.0
H910 H 0.10494 0.46001 0.80487 0.0
H911 H 0.10134 0.39149 0.82635 0.0
H912 H 0.2417 0.31602 0.84332 0.0
H913 H 0.29327 0.37054 0.82351 0.0
C914 C 0.25587 0.44881 0.80381 0.0
C915 C 0.23042 0.48802 0.79435 0.0
C916 C 0.22685 0.41355 0.81384 0.0
C917 C 0.17583 0.49069 0.79466 0.0
C918 C 0.14693 0.4561 0.80455 0.0
C919 C 0.14319 0.38631 0.82543 0.0
C920 C 0.16798 0.3502 0.83618 0.0
C921 C 0.17205 0.4181 0.81439 0.0
C922 C 0.222 0.34341 0.83496 0.0
C923 C 0.25135 0.37496 0.82381 0.0
H924 H 0.40932 0.43906 0.53587 0.0
H925 H 0.27885 0.3782 0.56442 0.0
H926 H 0.33788 0.33482 0.5847 0.0
H927 H 0.42713 0.31939 0.59548 0.0
H928 H 0.55672 0.38694 0.56818 0.0
H929 H 0.49805 0.42215 0.54618 0.0
C930 C 0.3941 0.41584 0.54646 0.0
C931 C 0.34025 0.41174 0.54879 0.0
C932 C 0.42816 0.3924 0.5583 0.0
C933 C 0.32046 0.38201 0.56256 0.0
C934 C 0.3541 0.35725 0.57411 0.0
C935 C 0.44223 0.3412 0.58455 0.0
C936 C 0.49577 0.35061 0.5833 0.0
C937 C 0.40807 0.36286 0.57229 0.0
C938 C 0.51535 0.3795 0.56931 0.0
C939 C 0.48193 0.39963 0.55677 0.0
H940 H 0.36189 0.5293 0.30029 0.0
H941 H 0.51529 0.50671 0.27828 0.0
H942 H 0.55051 0.57069 0.29892 0.0
H943 H 0.53895 0.62901 0.32462 0.0
H944 H 0.3861 0.64609 0.34749 0.0
H945 H 0.35052 0.58531 0.3259 0.0
C946 C 0.40331 0.53723 0.30018 0.0
C947 C 0.43568 0.51248 0.28774 0.0
C948 C 0.42395 0.57183 0.31269 0.0
C949 C 0.48896 0.52534 0.28749 0.0
C950 C 0.50949 0.56127 0.29955 0.0
C951 C 0.49806 0.61878 0.32503 0.0
C952 C 0.46536 0.64186 0.33773 0.0
C953 C 0.47757 0.58393 0.31246 0.0
C954 C 0.4122 0.62892 0.33788 0.0
C955 C 0.39171 0.5943 0.32549 0.0
H956 H 0.30942 0.45829 0.93565 0.0
H957 H 0.29578 0.33713 0.97391 0.0
H958 H 0.22435 0.29802 0.95734 0.0
H959 H 0.175 0.29113 0.92979 0.0
H960 H 0.19124 0.4101 0.89116 0.0
H961 H 0.25042 0.45876 0.91044 0.0
C962 C 0.28999 0.42418 0.94067 0.0
C963 C 0.30888 0.4002 0.95586 0.0
C964 C 0.24886 0.4018 0.93106 0.0
C965 C 0.28321 0.35565 0.962 0.0
C966 C 0.24198 0.33345 0.95261 0.0
C967 C 0.18963 0.32898 0.92604 0.0
C968 C 0.17817 0.34781 0.90933 0.0
C969 C 0.22562 0.35522 0.93683 0.0
C970 C 0.19867 0.39578 0.90419 0.0
C971 C 0.23319 0.42303 0.91508 0.0
H972 H 0.47039 0.46921 0.70732 0.0
H973 H 0.30934 0.4524 0.69225 0.0
H974 H 0.33309 0.38512 0.67083 0.0
H975 H 0.39969 0.33432 0.65551 0.0
H976 H 0.56014 0.34716 0.6714 0.0
H977 H 0.53645 0.4129 0.69349 0.0
C978 C 0.44037 0.45009 0.69959 0.0
C979 C 0.38822 0.46602 0.70128 0.0
C980 C 0.45428 0.41146 0.68729 0.0
C981 C 0.34986 0.44133 0.69101 0.0
C982 C 0.36338 0.40286 0.67878 0.0
C983 C 0.42961 0.35141 0.66379 0.0
C984 C 0.48199 0.337 0.66146 0.0
C985 C 0.41554 0.3883 0.67661 0.0
C986 C 0.51999 0.35914 0.67246 0.0
C987 C 0.50634 0.39622 0.68523 0.0
H988 H 0.40233 0.58917 0.46514 0.0
H989 H 0.27866 0.66205 0.43652 0.0
H990 H 0.34169 0.69784 0.41582 0.0
H991 H 0.43073 0.69791 0.4038 0.0
H992 H 0.55259 0.61773 0.43122 0.0
H993 H 0.49199 0.59524 0.45451 0.0
C994 C 0.38966 0.61397 0.4546 0.0
C995 C 0.33659 0.62337 0.45222 0.0
C996 C 0.42571 0.6323 0.44242 0.0
C997 C 0.31976 0.6547 0.43845 0.0
C998 C 0.35562 0.67476 0.42661 0.0
C999 C 0.44398 0.67656 0.41509 0.0
C1000 C 0.4956 0.65925 0.41588 0.0
C1001 C 0.40852 0.66234 0.42814 0.0
C1002 C 0.51262 0.63091 0.43036 0.0
C1003 C 0.47813 0.61813 0.44366 0.0
H1004 H 0.29491 0.55999 0.19881 0.0
H1005 H 0.31233 0.43833 0.15959 0.0
H1006 H 0.27063 0.49269 0.13802 0.0
H1007 H 0.21851 0.56879 0.13131 0.0
H1008 H 0.19606 0.68992 0.1702 0.0
H1009 H 0.25093 0.6422 0.19081 0.0
C1010 C 0.29 0.54565 0.1855 0.0
C1011 C 0.3065 0.49489 0.18092 0.0
C1012 C 0.26477 0.57686 0.17312 0.0
C1013 C 0.30065 0.47728 0.16351 0.0
C1014 C 0.27632 0.5082 0.15115 0.0
C1015 C 0.22641 0.58521 0.1442 0.0
C1016 C 0.20275 0.63222 0.14938 0.0
C1017 C 0.25676 0.55719 0.15597 0.0
C1018 C 0.2139 0.65367 0.16597 0.0
C1019 C 0.24482 0.62614 0.17778 0.0
loop_
_geom_bond_atom_site_label_1
_geom_bond_atom_site_label_2
_geom_bond_distance
_geom_bond_site_symmetry_2
_ccdc_geom_bond_type
H0 C19 0.949 . S
H1 C20 0.950 . S
H2 C22 0.950 1_545 S
H3 C23 0.972 . S
H4 C25 0.950 . S
H5 C28 0.950 1_565 S
H6 C29 0.950 . S
H7 C31 0.951 . S
H8 C32 0.949 . S
H9 C34 0.949 . S
H10 C35 0.950 . S
H11 C37 0.950 1_565 S
H12 C38 0.951 1_565 S
H13 C40 0.950 . S
H14 C43 0.950 1_545 S
H15 C44 0.959 . S
H16 C46 0.951 . S
H17 C47 0.949 . S
C18 C19 1.376 . S
C18 C23 1.371 1_565 S
C18 C24 1.483 . S
C19 H0 0.949 . S
C19 C18 1.376 . S
C19 C20 1.397 . S
C20 H1 0.950 . S
C20 C19 1.397 . S
C20 C21 1.391 . S
C21 C20 1.391 . S
C21 C22 1.405 . S
C22 H2 0.950 1_565 S
C22 C21 1.405 . S
C22 C23 1.361 1_565 S
C23 H3 0.972 . S
C23 C18 1.371 1_545 S
C23 C22 1.361 1_545 S
C24 C18 1.483 . S
C24 C25 1.382 1_655 S
C24 C26 1.403 1_565 S
C25 H4 0.950 . S
C25 C24 1.382 1_455 S
C25 C41 1.411 . S
C26 C24 1.403 1_545 S
C26 C27 1.489 . S
C26 C40 1.411 1_655 S
C27 C26 1.489 . S
C27 C28 1.383 . S
C27 C32 1.382 . S
C28 H5 0.950 1_545 S
C28 C27 1.383 . S
C28 C29 1.395 . S
C29 H6 0.950 . S
C29 C28 1.395 . S
C29 C30 1.288 . S
C30 C29 1.288 . S
C30 C31 1.392 . S
C31 H7 0.951 . S
C31 C30 1.392 . S
C31 C32 1.392 . S
C32 H8 0.949 . S
C32 C27 1.382 . S
C32 C31 1.392 . S
C33 C34 1.376 . S
C33 C38 1.386 . S
C33 C39 1.483 . S
C34 H9 0.949 . S
C34 C33 1.376 . S
C34 C35 1.397 . S
C35 H10 0.950 . S
C35 C34 1.397 . S
C35 C36 1.391 . S
C36 C35 1.391 . S
C36 C37 1.405 . S
C37 H11 0.950 1_545 S
C37 C36 1.405 . S
C37 C38 1.367 . S
C38 H12 0.951 1_545 S
C38 C33 1.386 . S
C38 C37 1.367 . S
C39 C33 1.483 . S
C39 C40 1.382 . S
C39 C41 1.403 1_545 S
C40 H13 0.950 . S
C40 C26 1.411 1_455 S
C40 C39 1.382 . S
C41 C25 1.411 . S
C41 C39 1.403 1_565 S
C41 C42 1.489 . S
C42 C41 1.489 . S
C42 C43 1.383 . S
C42 C47 1.382 . S
C43 H14 0.950 1_565 S
C43 C42 1.383 . S
C43 C44 1.395 . S
C44 H15 0.959 . S
C44 C43 1.395 . S
C44 C45 1.288 . S
C45 C44 1.288 . S
C45 C46 1.392 . S
C46 H16 0.951 . S
C46 C45 1.392 . S
C46 C47 1.392 . S
C47 H17 0.949 . S
C47 C42 1.382 . S
C47 C46 1.392 . S
H48 C67 0.949 . S
H49 C68 0.950 . S
H50 C70 0.950 . S
H51 C71 0.950 . S
H52 C73 0.950 . S
H53 C76 0.950 . S
H54 C77 0.950 . S
H55 C79 0.951 . S
H56 C80 0.949 . S
H57 C82 0.949 . S
H58 C83 0.950 . S
H59 C85 0.950 . S
H60 C86 0.950 . S
H61 C88 0.950 . S
H62 C91 0.950 . S
H63 C92 0.950 . S
H64 C94 0.951 . S
H65 C95 0.949 . S
C66 C67 1.376 . S
C66 C71 1.386 . S
C66 C72 1.483 . S
C67 H48 0.949 . S
C67 C66 1.376 . S
C67 C68 1.397 . S
C68 H49 0.950 . S
C68 C67 1.397 . S
C68 C69 1.391 . S
C69 C68 1.391 . S
C69 C70 1.405 . S
C70 H50 0.950 . S
C70 C69 1.405 . S
C70 C71 1.367 . S
C71 H51 0.950 . S
C71 C66 1.386 . S
C71 C70 1.367 . S
C72 C66 1.483 . S
C72 C73 1.382 . S
C72 C74 1.403 . S
C73 H52 0.950 . S
C73 C72 1.382 . S
C73 C89 1.411 . S
C74 C72 1.403 . S
C74 C75 1.489 . S
C74 C88 1.411 . S
C75 C74 1.489 . S
C75 C76 1.383 . S
C75 C80 1.382 . S
C76 H53 0.950 . S
C76 C75 1.383 . S
C76 C77 1.395 . S
C77 H54 0.950 . S
C77 C76 1.395 . S
C77 C78 1.288 . S
C78 C77 1.288 . S
C78 C79 1.392 . S
C79 H55 0.951 . S
C79 C78 1.392 . S
C79 C80 1.392 . S
C80 H56 0.949 . S
C80 C75 1.382 . S
C80 C79 1.392 . S
C81 C82 1.376 . S
C81 C86 1.386 . S
C81 C87 1.483 . S
C82 H57 0.949 . S
C82 C81 1.376 . S
C82 C83 1.397 . S
C83 H58 0.950 . S
C83 C82 1.397 . S
C83 C84 1.391 . S
C84 C83 1.391 . S
C84 C85 1.405 . S
C85 H59 0.950 . S
C85 C84 1.405 . S
C85 C86 1.367 . S
C86 H60 0.950 . S
C86 C81 1.386 . S
C86 C85 1.367 . S
C87 C81 1.483 . S
C87 C88 1.382 . S
C87 C89 1.403 . S
C88 H61 0.950 . S
C88 C74 1.411 . S
C88 C87 1.382 . S
C89 C73 1.411 . S
C89 C87 1.403 . S
C89 C90 1.489 . S
C90 C89 1.489 . S
C90 C91 1.383 . S
C90 C95 1.382 . S
C91 H62 0.950 . S
C91 C90 1.383 . S
C91 C92 1.395 . S
C92 H63 0.950 . S
C92 C91 1.395 . S
C92 C93 1.288 . S
C93 C92 1.288 . S
C93 C94 1.392 . S
C94 H64 0.951 . S
C94 C93 1.392 . S
C94 C95 1.392 . S
C95 H65 0.949 . S
C95 C90 1.382 . S
C95 C94 1.392 . S
H96 C115 0.949 1_545 S
H97 C116 0.950 . S
H98 C118 0.950 . S
H99 C119 0.950 1_556 S
H100 C121 0.950 . S
H101 C124 0.950 1_554 S
H102 C125 0.950 . S
H103 C127 0.951 . S
H104 C128 0.949 1_565 S
H105 C130 0.949 1_565 S
H106 C131 0.950 . S
H107 C133 0.950 . S
H108 C134 0.950 1_554 S
H109 C136 0.950 . S
H110 C139 0.950 1_556 S
H111 C140 0.950 . S
H112 C142 0.951 . S
H113 C143 0.949 1_545 S
C114 C115 1.376 . S
C114 C119 1.386 . S
C114 C120 1.483 . S
C115 H96 0.949 1_565 S
C115 C114 1.376 . S
C115 C116 1.397 . S
C116 H97 0.950 . S
C116 C115 1.397 . S
C116 C117 1.391 . S
C117 C116 1.391 . S
C117 C118 1.405 . S
C118 H98 0.950 . S
C118 C117 1.405 . S
C118 C119 1.367 . S
C119 H99 0.950 1_554 S
C119 C114 1.386 . S
C119 C118 1.367 . S
C120 C114 1.483 . S
C120 C121 1.382 . S
C120 C122 1.403 1_564 S
C121 H100 0.950 . S
C121 C120 1.382 . S
C121 C137 1.411 . S
C122 C120 1.403 1_546 S
C122 C123 1.489 . S
C122 C136 1.411 . S
C123 C122 1.489 . S
C123 C124 1.383 . S
C123 C128 1.382 . S
C124 H101 0.950 1_556 S
C124 C123 1.383 . S
C124 C125 1.395 . S
C125 H102 0.950 . S
C125 C124 1.395 . S
C125 C126 1.288 . S
C126 C125 1.288 . S
C126 C127 1.392 . S
C127 H103 0.951 . S
C127 C126 1.392 . S
C127 C128 1.392 . S
C128 H104 0.949 1_545 S
C128 C123 1.382 . S
C128 C127 1.392 . S
C129 C130 1.376 . S
C129 C134 1.386 . S
C129 C135 1.483 . S
C130 H105 0.949 1_545 S
C130 C129 1.376 . S
C130 C131 1.397 . S
C131 H106 0.950 . S
C131 C130 1.397 . S
C131 C132 1.391 . S
C132 C131 1.391 . S
C132 C133 1.405 . S
C133 H107 0.950 . S
C133 C132 1.405 . S
C133 C134 1.367 . S
C134 H108 0.950 1_556 S
C134 C129 1.386 . S
C134 C133 1.367 . S
C135 C129 1.483 . S
C135 C136 1.382 . S
C135 C137 1.403 1_546 S
C136 H109 0.950 . S
C136 C122 1.411 . S
C136 C135 1.382 . S
C137 C121 1.411 . S
C137 C135 1.403 1_564 S
C137 C138 1.489 . S
C138 C137 1.489 . S
C138 C139 1.383 . S
C138 C143 1.382 . S
C139 H110 0.950 1_554 S
C139 C138 1.383 . S
C139 C140 1.395 . S
C140 H111 0.950 . S
C140 C139 1.395 . S
C140 C141 1.288 . S
C141 C140 1.288 . S
C141 C142 1.392 . S
C142 H112 0.951 . S
C142 C141 1.392 . S
C142 C143 1.392 . S
C143 H113 0.949 1_565 S
C143 C138 1.382 . S
C143 C142 1.392 . S
H144 C163 0.949 . S
H145 C164 0.950 . S
H146 C166 0.950 . S
H147 C167 0.950 . S
H148 C169 0.950 . S
H149 C172 0.950 . S
H150 C173 0.950 . S
H151 C175 0.951 . S
H152 C176 0.949 . S
H153 C178 0.949 . S
H154 C179 0.950 . S
H155 C181 0.950 . S
H156 C182 0.950 . S
H157 C184 0.950 . S
H158 C187 0.950 . S
H159 C188 0.950 . S
H160 C190 0.951 . S
H161 C191 0.949 . S
C162 C163 1.376 . S
C162 C167 1.386 . S
C162 C168 1.483 . S
C163 H144 0.949 . S
C163 C162 1.376 . S
C163 C164 1.397 . S
C164 H145 0.950 . S
C164 C163 1.397 . S
C164 C165 1.391 . S
C165 C164 1.391 . S
C165 C166 1.405 . S
C166 H146 0.950 . S
C166 C165 1.405 . S
C166 C167 1.367 . S
C167 H147 0.950 . S
C167 C162 1.386 . S
C167 C166 1.367 . S
C168 C162 1.483 . S
C168 C169 1.382 . S
C168 C170 1.403 . S
C169 H148 0.950 . S
C169 C168 1.382 . S
C169 C185 1.411 . S
C170 C168 1.403 . S
C170 C171 1.489 . S
C170 C184 1.411 . S
C171 C170 1.489 . S
C171 C172 1.383 . S
C171 C176 1.382 . S
C172 H149 0.950 . S
C172 C171 1.383 . S
C172 C173 1.395 . S
C173 H150 0.950 . S
C173 C172 1.395 . S
C173 C174 1.288 . S
C174 C173 1.288 . S
C174 C175 1.392 . S
C175 H151 0.951 . S
C175 C174 1.392 . S
C175 C176 1.392 . S
C176 H152 0.949 . S
C176 C171 1.382 . S
C176 C175 1.392 . S
C177 C178 1.376 . S
C177 C182 1.386 . S
C177 C183 1.483 . S
C178 H153 0.949 . S
C178 C177 1.376 . S
C178 C179 1.397 . S
C179 H154 0.950 . S
C179 C178 1.397 . S
C179 C180 1.391 . S
C180 C179 1.391 . S
C180 C181 1.405 . S
C181 H155 0.950 . S
C181 C180 1.405 . S
C181 C182 1.367 . S
C182 H156 0.950 . S
C182 C177 1.386 . S
C182 C181 1.367 . S
C183 C177 1.483 . S
C183 C184 1.382 . S
C183 C185 1.403 . S
C184 H157 0.950 . S
C184 C170 1.411 . S
C184 C183 1.382 . S
C185 C169 1.411 . S
C185 C183 1.403 . S
C185 C186 1.489 . S
C186 C185 1.489 . S
C186 C187 1.383 . S
C186 C191 1.382 . S
C187 H158 0.950 . S
C187 C186 1.383 . S
C187 C188 1.395 . S
C188 H159 0.950 . S
C188 C187 1.395 . S
C188 C189 1.288 . S
C189 C188 1.288 . S
C189 C190 1.392 . S
C190 H160 0.951 . S
C190 C189 1.392 . S
C190 C191 1.392 . S
C191 H161 0.949 . S
C191 C186 1.382 . S
C191 C190 1.392 . S
H192 C211 0.949 . S
H193 C212 0.950 . S
H194 C214 0.950 . S
H195 C215 0.950 . S
H196 C217 0.950 . S
H197 C220 0.950 . S
H198 C221 0.950 . S
H199 C223 0.951 . S
H200 C224 0.949 . S
H201 C226 0.949 . S
H202 C227 0.950 . S
H203 C229 0.950 1_565 S
H204 C230 0.950 . S
H205 C232 0.950 . S
H206 C235 0.950 . S
H207 C236 0.950 1_565 S
H208 C238 0.951 . S
H209 C239 0.949 . S
C210 C211 1.376 . S
C210 C215 1.386 . S
C210 C216 1.483 . S
C211 H192 0.949 . S
C211 C210 1.376 . S
C211 C212 1.397 . S
C212 H193 0.950 . S
C212 C211 1.397 . S
C212 C213 1.391 . S
C213 C212 1.391 . S
C213 C214 1.405 . S
C214 H194 0.950 . S
C214 C213 1.405 . S
C214 C215 1.367 . S
C215 H195 0.950 . S
C215 C210 1.386 . S
C215 C214 1.367 . S
C216 C210 1.483 . S
C216 C217 1.382 . S
C216 C218 1.403 . S
C217 H196 0.950 . S
C217 C216 1.382 . S
C217 C233 1.411 . S
C218 C216 1.403 . S
C218 C219 1.489 . S
C218 C232 1.411 . S
C219 C218 1.489 . S
C219 C220 1.383 . S
C219 C224 1.382 . S
C220 H197 0.950 . S
C220 C219 1.383 . S
C220 C221 1.395 . S
C221 H198 0.950 . S
C221 C220 1.395 . S
C221 C222 1.288 . S
C222 C221 1.288 . S
C222 C223 1.392 . S
C223 H199 0.951 . S
C223 C222 1.392 . S
C223 C224 1.392 . S
C224 H200 0.949 . S
C224 C219 1.382 . S
C224 C223 1.392 . S
C225 C226 1.376 . S
C225 C230 1.386 . S
C225 C231 1.483 . S
C226 H201 0.949 . S
C226 C225 1.376 . S
C226 C227 1.397 . S
C227 H202 0.950 . S
C227 C226 1.397 . S
C227 C228 1.391 1_545 S
C228 C227 1.391 1_565 S
C228 C229 1.405 1_565 S
C229 H203 0.950 1_545 S
C229 C228 1.405 1_545 S
C229 C230 1.367 . S
C230 H204 0.950 . S
C230 C225 1.386 . S
C230 C229 1.367 . S
C231 C225 1.483 . S
C231 C232 1.382 . S
C231 C233 1.403 . S
C232 H205 0.950 . S
C232 C218 1.411 . S
C232 C231 1.382 . S
C233 C217 1.411 . S
C233 C231 1.403 . S
C233 C234 1.489 . S
C234 C233 1.489 . S
C234 C235 1.383 . S
C234 C239 1.382 . S
C235 H206 0.950 . S
C235 C234 1.383 . S
C235 C236 1.395 . S
C236 H207 0.950 1_545 S
C236 C235 1.395 . S
C236 C237 1.288 1_545 S
C237 C236 1.288 1_565 S
C237 C238 1.392 1_565 S
C238 H208 0.951 . S
C238 C237 1.392 1_545 S
C238 C239 1.392 . S
C239 H209 0.949 . S
C239 C234 1.382 . S
C239 C238 1.392 . S
H240 C259 0.949 . S
H241 C260 0.950 . S
H242 C262 0.950 1_545 S
H243 C263 0.950 . S
H244 C265 0.950 . S
H245 C268 0.950 . S
H246 C269 0.950 1_545 S
H247 C271 0.951 . S
H248 C272 0.949 . S
H249 C274 0.949 . S
H250 C275 0.950 . S
H251 C277 0.950 . S
H252 C278 0.950 . S
H253 C280 0.950 . S
H254 C283 0.950 . S
H255 C284 0.950 . S
H256 C286 0.951 . S
H257 C287 0.949 . S
C258 C259 1.376 . S
C258 C263 1.386 . S
C258 C264 1.483 . S
C259 H240 0.949 . S
C259 C258 1.376 . S
C259 C260 1.397 . S
C260 H241 0.950 . S
C260 C259 1.397 . S
C260 C261 1.391 1_565 S
C261 C260 1.391 1_545 S
C261 C262 1.405 1_545 S
C262 H242 0.950 1_565 S
C262 C261 1.405 1_565 S
C262 C263 1.367 . S
C263 H243 0.950 . S
C263 C258 1.386 . S
C263 C262 1.367 . S
C264 C258 1.483 . S
C264 C265 1.382 . S
C264 C266 1.403 . S
C265 H244 0.950 . S
C265 C264 1.382 . S
C265 C281 1.411 . S
C266 C264 1.403 . S
C266 C267 1.489 . S
C266 C280 1.411 . S
C267 C266 1.489 . S
C267 C268 1.383 . S
C267 C272 1.382 . S
C268 H245 0.950 . S
C268 C267 1.383 . S
C268 C269 1.395 . S
C269 H246 0.950 1_565 S
C269 C268 1.395 . S
C269 C270 1.288 1_565 S
C270 C269 1.288 1_545 S
C270 C271 1.392 1_545 S
C271 H247 0.951 . S
C271 C270 1.392 1_565 S
C271 C272 1.392 . S
C272 H248 0.949 . S
C272 C267 1.382 . S
C272 C271 1.392 . S
C273 C274 1.376 . S
C273 C278 1.386 . S
C273 C279 1.483 . S
C274 H249 0.949 . S
C274 C273 1.376 . S
C274 C275 1.397 . S
C275 H250 0.950 . S
C275 C274 1.397 . S
C275 C276 1.391 . S
C276 C275 1.391 . S
C276 C277 1.405 . S
C277 H251 0.950 . S
C277 C276 1.405 . S
C277 C278 1.367 . S
C278 H252 0.950 . S
C278 C273 1.386 . S
C278 C277 1.367 . S
C279 C273 1.483 . S
C279 C280 1.382 . S
C279 C281 1.403 . S
C280 H253 0.950 . S
C280 C266 1.411 . S
C280 C279 1.382 . S
C281 C265 1.411 . S
C281 C279 1.403 . S
C281 C282 1.489 . S
C282 C281 1.489 . S
C282 C283 1.383 . S
C282 C287 1.382 . S
C283 H254 0.950 . S
C283 C282 1.383 . S
C283 C284 1.395 . S
C284 H255 0.950 . S
C284 C283 1.395 . S
C284 C285 1.288 . S
C285 C284 1.288 . S
C285 C286 1.392 . S
C286 H256 0.951 . S
C286 C285 1.392 . S
C286 C287 1.392 . S
C287 H257 0.949 . S
C287 C282 1.382 . S
C287 C286 1.392 . S
H288 C307 0.949 . S
H289 C308 0.950 . S
H290 C310 0.950 . S
H291 C311 0.950 . S
H292 C313 0.950 . S
H293 C316 0.950 . S
H294 C317 0.950 . S
H295 C319 0.951 . S
H296 C320 0.949 . S
H297 C322 0.949 . S
H298 C323 0.950 . S
H299 C325 0.950 . S
H300 C326 0.950 . S
H301 C328 0.950 . S
H302 C331 0.950 . S
H303 C332 0.950 . S
H304 C334 0.951 . S
H305 C335 0.949 . S
C306 C307 1.376 . S
C306 C311 1.386 . S
C306 C312 1.483 . S
C307 H288 0.949 . S
C307 C306 1.376 . S
C307 C308 1.397 . S
C308 H289 0.950 . S
C308 C307 1.397 . S
C308 C309 1.391 . S
C309 C308 1.391 . S
C309 C310 1.405 . S
C310 H290 0.950 . S
C310 C309 1.405 . S
C310 C311 1.367 . S
C311 H291 0.950 . S
C311 C306 1.386 . S
C311 C310 1.367 . S
C312 C306 1.483 . S
C312 C313 1.382 . S
C312 C314 1.403 1_556 S
C313 H292 0.950 . S
C313 C312 1.382 . S
C313 C329 1.411 . S
C314 C312 1.403 1_554 S
C314 C315 1.489 . S
C314 C328 1.411 . S
C315 C314 1.489 . S
C315 C316 1.383 . S
C315 C320 1.382 . S
C316 H293 0.950 . S
C316 C315 1.383 . S
C316 C317 1.395 . S
C317 H294 0.950 . S
C317 C316 1.395 . S
C317 C318 1.288 . S
C318 C317 1.288 . S
C318 C319 1.392 . S
C319 H295 0.951 . S
C319 C318 1.392 . S
C319 C320 1.392 . S
C320 H296 0.949 . S
C320 C315 1.382 . S
C320 C319 1.392 . S
C321 C322 1.376 . S
C321 C326 1.386 . S
C321 C327 1.483 . S
C322 H297 0.949 . S
C322 C321 1.376 . S
C322 C323 1.397 . S
C323 H298 0.950 . S
C323 C322 1.397 . S
C323 C324 1.391 . S
C324 C323 1.391 . S
C324 C325 1.405 . S
C325 H299 0.950 . S
C325 C324 1.405 . S
C325 C326 1.367 . S
C326 H300 0.950 . S
C326 C321 1.386 . S
C326 C325 1.367 . S
C327 C321 1.483 . S
C327 C328 1.382 . S
C327 C329 1.403 1_554 S
C328 H301 0.950 . S
C328 C314 1.411 . S
C328 C327 1.382 . S
C329 C313 1.411 . S
C329 C327 1.403 1_556 S
C329 C330 1.489 . S
C330 C329 1.489 . S
C330 C331 1.383 . S
C330 C335 1.382 . S
C331 H302 0.950 . S
C331 C330 1.383 . S
C331 C332 1.395 . S
C332 H303 0.950 . S
C332 C331 1.395 . S
C332 C333 1.288 . S
C333 C332 1.288 . S
C333 C334 1.392 . S
C334 H304 0.951 . S
C334 C333 1.392 . S
C334 C335 1.392 . S
C335 H305 0.949 . S
C335 C330 1.382 . S
C335 C334 1.392 . S
H336 C355 0.949 . S
H337 C356 0.948 1_655 S
H338 C358 0.950 . S
H339 C359 0.950 . S
H340 C361 0.950 . S
H341 C364 0.950 . S
H342 C365 0.950 . S
H343 C367 0.951 . S
H344 C368 0.949 . S
H345 C370 0.949 . S
H346 C371 0.950 . S
H347 C373 0.950 . S
H348 C374 0.950 . S
H349 C376 0.950 . S
H350 C379 0.950 . S
H351 C380 0.950 . S
H352 C382 0.951 . S
H353 C383 0.949 . S
C354 C355 1.376 . S
C354 C359 1.386 . S
C354 C360 1.483 . S
C355 H336 0.949 . S
C355 C354 1.376 . S
C355 C356 1.397 . S
C356 H337 0.948 1_455 S
C356 C355 1.397 . S
C356 C357 1.391 1_455 S
C357 C356 1.391 1_655 S
C357 C358 1.405 . S
C358 H338 0.950 . S
C358 C357 1.405 . S
C358 C359 1.367 1_655 S
C359 H339 0.950 . S
C359 C354 1.386 . S
C359 C358 1.367 1_455 S
C360 C354 1.483 . S
C360 C361 1.382 . S
C360 C362 1.403 . S
C361 H340 0.950 . S
C361 C360 1.382 . S
C361 C377 1.411 . S
C362 C360 1.403 . S
C362 C363 1.489 . S
C362 C376 1.411 . S
C363 C362 1.489 . S
C363 C364 1.383 . S
C363 C368 1.382 . S
C364 H341 0.950 . S
C364 C363 1.383 . S
C364 C365 1.395 1_455 S
C365 H342 0.950 . S
C365 C364 1.395 1_655 S
C365 C366 1.288 . S
C366 C365 1.288 . S
C366 C367 1.392 1_655 S
C367 H343 0.951 . S
C367 C366 1.392 1_455 S
C367 C368 1.392 . S
C368 H344 0.949 . S
C368 C363 1.382 . S
C368 C367 1.392 . S
C369 C370 1.376 . S
C369 C374 1.386 . S
C369 C375 1.483 . S
C370 H345 0.949 . S
C370 C369 1.376 . S
C370 C371 1.397 . S
C371 H346 0.950 . S
C371 C370 1.397 . S
C371 C372 1.391 . S
C372 C371 1.391 . S
C372 C373 1.405 . S
C373 H347 0.950 . S
C373 C372 1.405 . S
C373 C374 1.367 . S
C374 H348 0.950 . S
C374 C369 1.386 . S
C374 C373 1.367 . S
C375 C369 1.483 . S
C375 C376 1.382 . S
C375 C377 1.403 . S
C376 H349 0.950 . S
C376 C362 1.411 . S
C376 C375 1.382 . S
C377 C361 1.411 . S
C377 C375 1.403 . S
C377 C378 1.489 . S
C378 C377 1.489 . S
C378 C379 1.383 . S
C378 C383 1.382 . S
C379 H350 0.950 . S
C379 C378 1.383 . S
C379 C380 1.395 . S
C380 H351 0.950 . S
C380 C379 1.395 . S
C380 C381 1.288 . S
C381 C380 1.288 . S
C381 C382 1.392 . S
C382 H352 0.951 . S
C382 C381 1.392 . S
C382 C383 1.392 . S
C383 H353 0.949 . S
C383 C378 1.382 . S
C383 C382 1.392 . S
C384 O411 1.312 . S
C384 O412 1.208 . S
C385 O406 1.331 1_655 S
C385 O409 1.244 . S
C386 O408 1.264 1_655 S
C386 O410 1.273 . S
Mg387 O389 1.936 . S
Mg387 O396 2.081 . S
Mg387 O398 2.023 . S
Mg387 O402 2.031 . S
Mg387 O411 2.291 . S
Mg388 O389 1.963 . S
Mg388 O399 1.942 . S
Mg388 O400 1.955 . S
Mg388 O407 1.986 . S
O389 Mg387 1.936 . S
O389 Mg388 1.963 . S
O389 Mg390 1.915 . S
Mg390 O389 1.915 . S
Mg390 O391 1.915 . S
Mg390 O395 2.013 . S
Mg390 O401 2.114 . S
Mg390 O405 2.013 . S
Mg390 O411 2.114 . S
O391 Mg390 1.915 . S
O391 Mg392 1.936 . S
O391 Mg393 1.963 1_455 S
Mg392 O391 1.936 . S
Mg392 O401 2.291 . S
Mg392 O406 2.081 . S
Mg392 O408 2.023 . S
Mg392 O412 2.031 . S
Mg393 O391 1.963 1_655 S
Mg393 O397 1.986 . S
Mg393 O409 1.942 . S
Mg393 O410 1.955 . S
C394 O405 1.191 . S
C394 O407 1.307 . S
O395 Mg390 2.013 . S
O395 C414 1.191 . S
O396 Mg387 2.081 . S
O396 C404 1.331 . S
O397 Mg393 1.986 . S
O397 C414 1.307 1_655 S
O398 Mg387 2.023 . S
O398 C413 1.264 . S
O399 Mg388 1.942 . S
O399 C404 1.244 . S
O400 Mg388 1.955 . S
O400 C413 1.273 . S
O401 Mg390 2.114 . S
O401 Mg392 2.291 . S
O401 C403 1.312 . S
O402 Mg387 2.031 . S
O402 C403 1.208 . S
C403 O401 1.312 . S
C403 O402 1.208 . S
C404 O396 1.331 . S
C404 O399 1.244 . S
O405 Mg390 2.013 . S
O405 C394 1.191 . S
O406 C385 1.331 1_455 S
O406 Mg392 2.081 . S
O407 Mg388 1.986 . S
O407 C394 1.307 . S
O408 C386 1.264 1_455 S
O408 Mg392 2.023 . S
O409 C385 1.244 . S
O409 Mg393 1.942 . S
O410 C386 1.273 . S
O410 Mg393 1.955 . S
O411 C384 1.312 . S
O411 Mg387 2.291 . S
O411 Mg390 2.114 . S
O412 C384 1.208 . S
O412 Mg392 2.031 . S
C413 O398 1.264 . S
C413 O400 1.273 . S
C414 O395 1.191 . S
C414 O397 1.307 1_455 S
C415 O442 1.312 . S
C415 O443 1.208 . S
C416 O437 1.331 . S
C416 O440 1.244 . S
C417 O439 1.264 . S
C417 O441 1.273 . S
Mg418 O420 1.936 . S
Mg418 O427 2.081 . S
Mg418 O429 2.023 . S
Mg418 O433 2.031 . S
Mg418 O442 2.291 . S
Mg419 O420 1.963 . S
Mg419 O430 1.942 . S
Mg419 O431 1.955 . S
Mg419 O438 1.986 . S
O420 Mg418 1.936 . S
O420 Mg419 1.963 . S
O420 Mg421 1.915 . S
Mg421 O420 1.915 . S
Mg421 O422 1.915 . S
Mg421 O426 2.013 . S
Mg421 O432 2.114 . S
Mg421 O436 2.013 . S
Mg421 O442 2.114 . S
O422 Mg421 1.915 . S
O422 Mg423 1.936 . S
O422 Mg424 1.963 . S
Mg423 O422 1.936 . S
Mg423 O432 2.291 . S
Mg423 O437 2.081 . S
Mg423 O439 2.023 . S
Mg423 O443 2.031 . S
Mg424 O422 1.963 . S
Mg424 O428 1.986 . S
Mg424 O440 1.942 . S
Mg424 O441 1.955 . S
C425 O436 1.191 . S
C425 O438 1.307 . S
O426 Mg421 2.013 . S
O426 C445 1.191 . S
O427 Mg418 2.081 . S
O427 C435 1.331 . S
O428 Mg424 1.986 . S
O428 C445 1.307 . S
O429 Mg418 2.023 . S
O429 C444 1.264 . S
O430 Mg419 1.942 . S
O430 C435 1.244 . S
O431 Mg419 1.955 . S
O431 C444 1.273 . S
O432 Mg421 2.114 . S
O432 Mg423 2.291 . S
O432 C434 1.312 . S
O433 Mg418 2.031 . S
O433 C434 1.208 . S
C434 O432 1.312 . S
C434 O433 1.208 . S
C435 O427 1.331 . S
C435 O430 1.244 . S
O436 Mg421 2.013 . S
O436 C425 1.191 . S
O437 C416 1.331 . S
O437 Mg423 2.081 . S
O438 Mg419 1.986 . S
O438 C425 1.307 . S
O439 C417 1.264 . S
O439 Mg423 2.023 . S
O440 C416 1.244 . S
O440 Mg424 1.942 . S
O441 C417 1.273 . S
O441 Mg424 1.955 . S
O442 C415 1.312 . S
O442 Mg418 2.291 . S
O442 Mg421 2.114 . S
O443 C415 1.208 . S
O443 Mg423 2.031 . S
C444 O429 1.264 . S
C444 O431 1.273 . S
C445 O426 1.191 . S
C445 O428 1.307 . S
C446 O473 1.312 . S
C446 O474 1.208 . S
C447 O468 1.331 . S
C447 O471 1.244 . S
C448 O470 1.264 . S
C448 O472 1.273 . S
Mg449 O451 1.936 . S
Mg449 O458 2.081 . S
Mg449 O460 2.023 . S
Mg449 O464 2.031 . S
Mg449 O473 2.291 . S
Mg450 O451 1.963 . S
Mg450 O461 1.942 . S
Mg450 O462 1.955 . S
Mg450 O469 1.986 . S
O451 Mg449 1.936 . S
O451 Mg450 1.963 . S
O451 Mg452 1.915 . S
Mg452 O451 1.915 . S
Mg452 O453 1.915 . S
Mg452 O457 2.013 . S
Mg452 O463 2.114 . S
Mg452 O467 2.013 . S
Mg452 O473 2.114 . S
O453 Mg452 1.915 . S
O453 Mg454 1.936 . S
O453 Mg455 1.963 . S
Mg454 O453 1.936 . S
Mg454 O463 2.291 . S
Mg454 O468 2.081 . S
Mg454 O470 2.023 . S
Mg454 O474 2.031 . S
Mg455 O453 1.963 . S
Mg455 O459 1.986 . S
Mg455 O471 1.942 . S
Mg455 O472 1.955 . S
C456 O467 1.191 . S
C456 O469 1.307 . S
O457 Mg452 2.013 . S
O457 C476 1.191 . S
O458 Mg449 2.081 . S
O458 C466 1.331 . S
O459 Mg455 1.986 . S
O459 C476 1.307 . S
O460 Mg449 2.023 . S
O460 C475 1.264 . S
O461 Mg450 1.942 . S
O461 C466 1.244 . S
O462 Mg450 1.955 . S
O462 C475 1.273 . S
O463 Mg452 2.114 . S
O463 Mg454 2.291 . S
O463 C465 1.312 . S
O464 Mg449 2.031 . S
O464 C465 1.208 . S
C465 O463 1.312 . S
C465 O464 1.208 . S
C466 O458 1.331 . S
C466 O461 1.244 . S
O467 Mg452 2.013 . S
O467 C456 1.191 . S
O468 C447 1.331 . S
O468 Mg454 2.081 . S
O469 Mg450 1.986 . S
O469 C456 1.307 . S
O470 C448 1.264 . S
O470 Mg454 2.023 . S
O471 C447 1.244 . S
O471 Mg455 1.942 . S
O472 C448 1.273 . S
O472 Mg455 1.955 . S
O473 C446 1.312 . S
O473 Mg449 2.291 . S
O473 Mg452 2.114 . S
O474 C446 1.208 . S
O474 Mg454 2.031 . S
C475 O460 1.264 . S
C475 O462 1.273 . S
C476 O457 1.191 . S
C476 O459 1.307 . S
C477 O504 1.312 . S
C477 O505 1.208 . S
C478 O499 1.331 . S
C478 O502 1.244 . S
C479 O501 1.264 . S
C479 O503 1.273 . S
Mg480 O482 1.936 . S
Mg480 O489 2.081 . S
Mg480 O491 2.023 . S
Mg480 O495 2.031 . S
Mg480 O504 2.291 . S
Mg481 O482 1.963 1_655 S
Mg481 O492 1.942 . S
Mg481 O493 1.955 . S
Mg481 O500 1.986 . S
O482 Mg480 1.936 . S
O482 Mg481 1.963 1_455 S
O482 Mg483 1.915 . S
Mg483 O482 1.915 . S
Mg483 O484 1.915 . S
Mg483 O488 2.013 . S
Mg483 O494 2.114 . S
Mg483 O498 2.013 . S
Mg483 O504 2.114 . S
O484 Mg483 1.915 . S
O484 Mg485 1.936 . S
O484 Mg486 1.963 . S
Mg485 O484 1.936 . S
Mg485 O494 2.291 . S
Mg485 O499 2.081 . S
Mg485 O501 2.023 . S
Mg485 O505 2.031 . S
Mg486 O484 1.963 . S
Mg486 O490 1.986 . S
Mg486 O502 1.942 . S
Mg486 O503 1.955 . S
C487 O498 1.191 . S
C487 O500 1.307 1_455 S
O488 Mg483 2.013 . S
O488 C507 1.191 . S
O489 Mg480 2.081 . S
O489 C497 1.331 1_455 S
O490 Mg486 1.986 . S
O490 C507 1.307 . S
O491 Mg480 2.023 . S
O491 C506 1.264 1_455 S
O492 Mg481 1.942 . S
O492 C497 1.244 . S
O493 Mg481 1.955 . S
O493 C506 1.273 . S
O494 Mg483 2.114 . S
O494 Mg485 2.291 . S
O494 C496 1.312 . S
O495 Mg480 2.031 . S
O495 C496 1.208 . S
C496 O494 1.312 . S
C496 O495 1.208 . S
C497 O489 1.331 1_655 S
C497 O492 1.244 . S
O498 Mg483 2.013 . S
O498 C487 1.191 . S
O499 C478 1.331 . S
O499 Mg485 2.081 . S
O500 Mg481 1.986 . S
O500 C487 1.307 1_655 S
O501 C479 1.264 . S
O501 Mg485 2.023 . S
O502 C478 1.244 . S
O502 Mg486 1.942 . S
O503 C479 1.273 . S
O503 Mg486 1.955 . S
O504 C477 1.312 . S
O504 Mg480 2.291 . S
O504 Mg483 2.114 . S
O505 C477 1.208 . S
O505 Mg485 2.031 . S
C506 O491 1.264 1_655 S
C506 O493 1.273 . S
C507 O488 1.191 . S
C507 O490 1.307 . S
H508 C514 0.930 . S
H509 C517 0.930 . S
H510 C518 0.930 . S
H511 C519 0.930 . S
H512 C522 0.930 . S
H513 C523 0.930 . S
C514 H508 0.930 . S
C514 C515 1.355 . S
C514 C516 1.415 . S
C515 C514 1.355 . S
C515 C517 1.419 . S
C516 C514 1.415 . S
C516 C521 1.425 . S
C516 C523 1.409 . S
C517 H509 0.930 . S
C517 C515 1.419 . S
C517 C518 1.362 . S
C518 H510 0.930 . S
C518 C517 1.362 . S
C518 C521 1.409 . S
C519 H511 0.930 . S
C519 C520 1.355 . S
C519 C521 1.415 . S
C520 C519 1.355 . S
C520 C522 1.419 . S
C521 C516 1.425 . S
C521 C518 1.409 . S
C521 C519 1.415 . S
C522 H512 0.930 . S
C522 C520 1.419 . S
C522 C523 1.362 . S
C523 H513 0.930 . S
C523 C516 1.409 . S
C523 C522 1.362 . S
H524 C530 0.930 . S
H525 C533 0.930 . S
H526 C534 0.930 . S
H527 C535 0.930 . S
H528 C538 0.930 . S
H529 C539 0.930 . S
C530 H524 0.930 . S
C530 C531 1.355 . S
C530 C532 1.415 1_565 S
C531 C530 1.355 . S
C531 C533 1.419 . S
C532 C530 1.415 1_545 S
C532 C537 1.425 1_545 S
C532 C539 1.409 . S
C533 H525 0.930 . S
C533 C531 1.419 . S
C533 C534 1.362 . S
C534 H526 0.930 . S
C534 C533 1.362 . S
C534 C537 1.409 . S
C535 H527 0.930 . S
C535 C536 1.355 . S
C535 C537 1.415 1_545 S
C536 C535 1.355 . S
C536 C538 1.419 . S
C537 C532 1.425 1_565 S
C537 C534 1.409 . S
C537 C535 1.415 1_565 S
C538 H528 0.930 . S
C538 C536 1.419 . S
C538 C539 1.362 . S
C539 H529 0.930 . S
C539 C532 1.409 . S
C539 C538 1.362 . S
H540 C546 0.930 . S
H541 C549 0.930 . S
H542 C550 0.930 . S
H543 C551 0.930 . S
H544 C554 0.930 . S
H545 C555 0.930 . S
C546 H540 0.930 . S
C546 C547 1.355 . S
C546 C548 1.415 . S
C547 C546 1.355 . S
C547 C549 1.419 . S
C548 C546 1.415 . S
C548 C553 1.425 . S
C548 C555 1.409 . S
C549 H541 0.930 . S
C549 C547 1.419 . S
C549 C550 1.362 . S
C550 H542 0.930 . S
C550 C549 1.362 . S
C550 C553 1.409 . S
C551 H543 0.930 . S
C551 C552 1.355 . S
C551 C553 1.415 . S
C552 C551 1.355 . S
C552 C554 1.419 . S
C553 C548 1.425 . S
C553 C550 1.409 . S
C553 C551 1.415 . S
C554 H544 0.930 . S
C554 C552 1.419 . S
C554 C555 1.362 . S
C555 H545 0.930 . S
C555 C548 1.409 . S
C555 C554 1.362 . S
H556 C562 0.930 . S
H557 C565 0.930 . S
H558 C566 0.930 . S
H559 C567 0.930 . S
H560 C570 0.930 . S
H561 C571 0.930 1_545 S
C562 H556 0.930 . S
C562 C563 1.355 . S
C562 C564 1.415 . S
C563 C562 1.355 . S
C563 C565 1.419 . S
C564 C562 1.415 . S
C564 C569 1.425 1_545 S
C564 C571 1.409 1_545 S
C565 H557 0.930 . S
C565 C563 1.419 . S
C565 C566 1.362 1_545 S
C566 H558 0.930 . S
C566 C565 1.362 1_565 S
C566 C569 1.409 . S
C567 H559 0.930 . S
C567 C568 1.355 . S
C567 C569 1.415 . S
C568 C567 1.355 . S
C568 C570 1.419 . S
C569 C564 1.425 1_565 S
C569 C566 1.409 . S
C569 C567 1.415 . S
C570 H560 0.930 . S
C570 C568 1.419 . S
C570 C571 1.362 . S
C571 H561 0.930 1_565 S
C571 C564 1.409 1_565 S
C571 C570 1.362 . S
H572 C578 0.930 . S
H573 C581 0.930 . S
H574 C582 0.930 . S
H575 C583 0.930 . S
H576 C586 0.930 . S
H577 C587 0.930 . S
C578 H572 0.930 . S
C578 C579 1.355 . S
C578 C580 1.415 . S
C579 C578 1.355 . S
C579 C581 1.419 . S
C580 C578 1.415 . S
C580 C585 1.425 . S
C580 C587 1.409 . S
C581 H573 0.930 . S
C581 C579 1.419 . S
C581 C582 1.362 . S
C582 H574 0.930 . S
C582 C581 1.362 . S
C582 C585 1.409 . S
C583 H575 0.930 . S
C583 C584 1.355 . S
C583 C585 1.415 . S
C584 C583 1.355 . S
C584 C586 1.419 . S
C585 C580 1.425 . S
C585 C582 1.409 . S
C585 C583 1.415 . S
C586 H576 0.930 . S
C586 C584 1.419 . S
C586 C587 1.362 . S
C587 H577 0.930 . S
C587 C580 1.409 . S
C587 C586 1.362 . S
H588 C594 0.930 . S
H589 C597 0.930 . S
H590 C598 0.930 . S
H591 C599 0.930 . S
H592 C602 0.930 . S
H593 C603 0.930 . S
C594 H588 0.930 . S
C594 C595 1.355 . S
C594 C596 1.415 . S
C595 C594 1.355 . S
C595 C597 1.419 . S
C596 C594 1.415 . S
C596 C601 1.425 1_565 S
C596 C603 1.409 . S
C597 H589 0.930 . S
C597 C595 1.419 . S
C597 C598 1.362 1_565 S
C598 H590 0.930 . S
C598 C597 1.362 1_545 S
C598 C601 1.409 . S
C599 H591 0.930 . S
C599 C600 1.355 . S
C599 C601 1.415 . S
C600 C599 1.355 . S
C600 C602 1.419 . S
C601 C596 1.425 1_545 S
C601 C598 1.409 . S
C601 C599 1.415 . S
C602 H592 0.930 . S
C602 C600 1.419 . S
C602 C603 1.362 1_545 S
C603 H593 0.930 . S
C603 C596 1.409 . S
C603 C602 1.362 1_565 S
H604 C610 0.930 . S
H605 C613 0.930 . S
H606 C614 0.930 . S
H607 C615 0.930 . S
H608 C618 0.930 . S
H609 C619 0.930 . S
C610 H604 0.930 . S
C610 C611 1.355 . S
C610 C612 1.415 . S
C611 C610 1.355 . S
C611 C613 1.419 . S
C612 C610 1.415 . S
C612 C617 1.425 . S
C612 C619 1.409 . S
C613 H605 0.930 . S
C613 C611 1.419 . S
C613 C614 1.362 . S
C614 H606 0.930 . S
C614 C613 1.362 . S
C614 C617 1.409 . S
C615 H607 0.930 . S
C615 C616 1.355 . S
C615 C617 1.415 . S
C616 C615 1.355 . S
C616 C618 1.419 . S
C617 C612 1.425 . S
C617 C614 1.409 . S
C617 C615 1.415 . S
C618 H608 0.930 . S
C618 C616 1.419 . S
C618 C619 1.362 . S
C619 H609 0.930 . S
C619 C612 1.409 . S
C619 C618 1.362 . S
H620 C626 0.930 . S
H621 C629 0.930 . S
H622 C630 0.930 . S
H623 C631 0.930 . S
H624 C634 0.930 . S
H625 C635 0.930 . S
C626 H620 0.930 . S
C626 C627 1.355 . S
C626 C628 1.415 1_545 S
C627 C626 1.355 . S
C627 C629 1.419 . S
C628 C626 1.415 1_565 S
C628 C633 1.425 1_565 S
C628 C635 1.409 . S
C629 H621 0.930 . S
C629 C627 1.419 . S
C629 C630 1.362 . S
C630 H622 0.930 . S
C630 C629 1.362 . S
C630 C633 1.409 . S
C631 H623 0.930 . S
C631 C632 1.355 . S
C631 C633 1.415 1_565 S
C632 C631 1.355 . S
C632 C634 1.419 . S
C633 C628 1.425 1_545 S
C633 C630 1.409 . S
C633 C631 1.415 1_545 S
C634 H624 0.930 . S
C634 C632 1.419 . S
C634 C635 1.362 . S
C635 H625 0.930 . S
C635 C628 1.409 . S
C635 C634 1.362 . S
H636 C642 0.930 . S
H637 C645 0.930 . S
H638 C646 0.930 . S
H639 C647 0.930 . S
H640 C650 0.930 . S
H641 C651 0.930 . S
C642 H636 0.930 . S
C642 C643 1.355 . S
C642 C644 1.415 . S
C643 C642 1.355 . S
C643 C645 1.419 . S
C644 C642 1.415 . S
C644 C649 1.425 . S
C644 C651 1.409 . S
C645 H637 0.930 . S
C645 C643 1.419 . S
C645 C646 1.362 . S
C646 H638 0.930 . S
C646 C645 1.362 . S
C646 C649 1.409 . S
C647 H639 0.930 . S
C647 C648 1.355 . S
C647 C649 1.415 . S
C648 C647 1.355 . S
C648 C650 1.419 . S
C649 C644 1.425 . S
C649 C646 1.409 . S
C649 C647 1.415 . S
C650 H640 0.930 . S
C650 C648 1.419 . S
C650 C651 1.362 . S
C651 H641 0.930 . S
C651 C644 1.409 . S
C651 C650 1.362 . S
H652 C658 0.930 . S
H653 C661 0.930 . S
H654 C662 0.930 . S
H655 C663 0.930 . S
H656 C666 0.930 . S
H657 C667 0.930 . S
C658 H652 0.930 . S
C658 C659 1.355 . S
C658 C660 1.415 . S
C659 C658 1.355 . S
C659 C661 1.419 . S
C660 C658 1.415 . S
C660 C665 1.425 . S
C660 C667 1.409 . S
C661 H653 0.930 . S
C661 C659 1.419 . S
C661 C662 1.362 . S
C662 H654 0.930 . S
C662 C661 1.362 . S
C662 C665 1.409 . S
C663 H655 0.930 . S
C663 C664 1.355 . S
C663 C665 1.415 . S
C664 C663 1.355 . S
C664 C666 1.419 . S
C665 C660 1.425 . S
C665 C662 1.409 . S
C665 C663 1.415 . S
C666 H656 0.930 . S
C666 C664 1.419 . S
C666 C667 1.362 . S
C667 H657 0.930 . S
C667 C660 1.409 . S
C667 C666 1.362 . S
H668 C674 0.930 . S
H669 C677 0.930 . S
H670 C678 0.930 . S
H671 C679 0.930 . S
H672 C682 0.930 . S
H673 C683 0.930 1_455 S
C674 H668 0.930 . S
C674 C675 1.355 . S
C674 C676 1.415 . S
C675 C674 1.355 . S
C675 C677 1.419 . S
C676 C674 1.415 . S
C676 C681 1.425 . S
C676 C683 1.409 . S
C677 H669 0.930 . S
C677 C675 1.419 . S
C677 C678 1.362 . S
C678 H670 0.930 . S
C678 C677 1.362 . S
C678 C681 1.409 . S
C679 H671 0.930 . S
C679 C680 1.355 1_655 S
C679 C681 1.415 . S
C680 C679 1.355 1_455 S
C680 C682 1.419 . S
C681 C676 1.425 . S
C681 C678 1.409 . S
C681 C679 1.415 . S
C682 H672 0.930 . S
C682 C680 1.419 . S
C682 C683 1.362 1_455 S
C683 H673 0.930 1_655 S
C683 C676 1.409 . S
C683 C682 1.362 1_655 S
H684 C690 0.930 . S
H685 C693 0.930 . S
H686 C694 0.930 . S
H687 C695 0.930 . S
H688 C698 0.930 . S
H689 C699 0.930 . S
C690 H684 0.930 . S
C690 C691 1.355 . S
C690 C692 1.415 . S
C691 C690 1.355 . S
C691 C693 1.419 . S
C692 C690 1.415 . S
C692 C697 1.425 . S
C692 C699 1.409 1_655 S
C693 H685 0.930 . S
C693 C691 1.419 . S
C693 C694 1.362 . S
C694 H686 0.930 . S
C694 C693 1.362 . S
C694 C697 1.409 . S
C695 H687 0.930 . S
C695 C696 1.355 1_655 S
C695 C697 1.415 . S
C696 C695 1.355 1_455 S
C696 C698 1.419 . S
C697 C692 1.425 . S
C697 C694 1.409 . S
C697 C695 1.415 . S
C698 H688 0.930 . S
C698 C696 1.419 . S
C698 C699 1.362 . S
C699 H689 0.930 . S
C699 C692 1.409 1_455 S
C699 C698 1.362 . S
H700 C706 0.930 . S
H701 C709 0.930 . S
H702 C710 0.930 . S
H703 C711 0.930 . S
H704 C714 0.930 . S
H705 C715 0.930 . S
C706 H700 0.930 . S
C706 C707 1.355 . S
C706 C708 1.415 . S
C707 C706 1.355 . S
C707 C709 1.419 . S
C708 C706 1.415 . S
C708 C713 1.425 . S
C708 C715 1.409 . S
C709 H701 0.930 . S
C709 C707 1.419 . S
C709 C710 1.362 . S
C710 H702 0.930 . S
C710 C709 1.362 . S
C710 C713 1.409 . S
C711 H703 0.930 . S
C711 C712 1.355 . S
C711 C713 1.415 . S
C712 C711 1.355 . S
C712 C714 1.419 . S
C713 C708 1.425 . S
C713 C710 1.409 . S
C713 C711 1.415 . S
C714 H704 0.930 . S
C714 C712 1.419 . S
C714 C715 1.362 . S
C715 H705 0.930 . S
C715 C708 1.409 . S
C715 C714 1.362 . S
H716 C722 0.930 . S
H717 C725 0.930 1_545 S
H718 C726 0.930 1_455 S
H719 C727 0.930 . S
H720 C730 0.930 . S
H721 C731 0.930 . S
C722 H716 0.930 . S
C722 C723 1.355 . S
C722 C724 1.415 . S
C723 C722 1.355 . S
C723 C725 1.419 . S
C724 C722 1.415 . S
C724 C729 1.425 . S
C724 C731 1.409 . S
C725 H717 0.930 1_565 S
C725 C723 1.419 . S
C725 C726 1.362 . S
C726 H718 0.930 1_655 S
C726 C725 1.362 . S
C726 C729 1.409 . S
C727 H719 0.930 . S
C727 C728 1.355 . S
C727 C729 1.415 1_455 S
C728 C727 1.355 . S
C728 C730 1.417 1_455 S
C729 C724 1.425 . S
C729 C726 1.409 . S
C729 C727 1.415 1_655 S
C730 H720 0.930 . S
C730 C728 1.417 1_655 S
C730 C731 1.362 . S
C731 H721 0.930 . S
C731 C724 1.409 . S
C731 C730 1.362 . S
H732 C738 0.930 . S
H733 C741 0.930 . S
H734 C742 0.930 . S
H735 C743 0.930 . S
H736 C746 0.930 . S
H737 C747 0.930 . S
C738 H732 0.930 . S
C738 C739 1.355 . S
C738 C740 1.415 . S
C739 C738 1.355 . S
C739 C741 1.419 . S
C740 C738 1.415 . S
C740 C745 1.425 . S
C740 C747 1.409 . S
C741 H733 0.930 . S
C741 C739 1.419 . S
C741 C742 1.362 . S
C742 H734 0.930 . S
C742 C741 1.362 . S
C742 C745 1.409 . S
C743 H735 0.930 . S
C743 C744 1.355 1_655 S
C743 C745 1.415 . S
C744 C743 1.355 1_455 S
C744 C746 1.419 1_455 S
C745 C740 1.425 . S
C745 C742 1.409 . S
C745 C743 1.415 . S
C746 H736 0.930 . S
C746 C744 1.419 1_655 S
C746 C747 1.362 . S
C747 H737 0.930 . S
C747 C740 1.409 . S
C747 C746 1.362 . S
H748 C754 0.930 . S
H749 C757 0.930 . S
H750 C758 0.930 . S
H751 C759 0.930 . S
H752 C762 0.930 . S
H753 C763 0.930 . S
C754 H748 0.930 . S
C754 C755 1.355 . S
C754 C756 1.415 . S
C755 C754 1.355 . S
C755 C757 1.419 . S
C756 C754 1.415 . S
C756 C761 1.425 . S
C756 C763 1.409 . S
C757 H749 0.930 . S
C757 C755 1.419 . S
C757 C758 1.362 . S
C758 H750 0.930 . S
C758 C757 1.362 . S
C758 C761 1.409 . S
C759 H751 0.930 . S
C759 C760 1.355 . S
C759 C761 1.415 . S
C760 C759 1.355 . S
C760 C762 1.419 . S
C761 C756 1.425 . S
C761 C758 1.409 . S
C761 C759 1.415 . S
C762 H752 0.930 . S
C762 C760 1.419 . S
C762 C763 1.362 . S
C763 H753 0.930 . S
C763 C756 1.409 . S
C763 C762 1.362 . S
H764 C770 0.930 . S
H765 C773 0.930 . S
H766 C774 0.930 . S
H767 C775 0.930 . S
H768 C778 0.930 . S
H769 C779 0.930 . S
C770 H764 0.930 . S
C770 C771 1.355 . S
C770 C772 1.415 . S
C771 C770 1.355 . S
C771 C773 1.419 . S
C772 C770 1.415 . S
C772 C777 1.425 . S
C772 C779 1.409 . S
C773 H765 0.930 . S
C773 C771 1.419 . S
C773 C774 1.362 . S
C774 H766 0.930 . S
C774 C773 1.362 . S
C774 C777 1.409 . S
C775 H767 0.930 . S
C775 C776 1.355 . S
C775 C777 1.415 . S
C776 C775 1.355 . S
C776 C778 1.419 . S
C777 C772 1.425 . S
C777 C774 1.409 . S
C777 C775 1.415 . S
C778 H768 0.930 . S
C778 C776 1.419 . S
C778 C779 1.362 . S
C779 H769 0.930 . S
C779 C772 1.409 . S
C779 C778 1.362 . S
H780 C786 0.930 . S
H781 C789 0.930 . S
H782 C790 0.930 . S
H783 C791 0.930 . S
H784 C794 0.930 . S
H785 C795 0.930 . S
C786 H780 0.930 . S
C786 C787 1.355 . S
C786 C788 1.415 . S
C787 C786 1.355 . S
C787 C789 1.419 . S
C788 C786 1.415 . S
C788 C793 1.425 . S
C788 C795 1.409 1_655 S
C789 H781 0.930 . S
C789 C787 1.419 . S
C789 C790 1.362 . S
C790 H782 0.930 . S
C790 C789 1.362 . S
C790 C793 1.409 . S
C791 H783 0.930 . S
C791 C792 1.355 . S
C791 C793 1.415 . S
C792 C791 1.355 . S
C792 C794 1.419 1_655 S
C793 C788 1.425 . S
C793 C790 1.409 . S
C793 C791 1.415 . S
C794 H784 0.930 . S
C794 C792 1.419 1_455 S
C794 C795 1.362 . S
C795 H785 0.930 . S
C795 C788 1.409 1_455 S
C795 C794 1.362 . S
H796 C802 0.930 . S
H797 C805 0.930 . S
H798 C806 0.930 . S
H799 C807 0.930 . S
H800 C810 0.930 . S
H801 C811 0.930 . S
C802 H796 0.930 . S
C802 C803 1.355 . S
C802 C804 1.415 . S
C803 C802 1.355 . S
C803 C805 1.419 . S
C804 C802 1.415 . S
C804 C809 1.425 . S
C804 C811 1.409 . S
C805 H797 0.930 . S
C805 C803 1.419 . S
C805 C806 1.362 . S
C806 H798 0.930 . S
C806 C805 1.362 . S
C806 C809 1.409 . S
C807 H799 0.930 . S
C807 C808 1.355 . S
C807 C809 1.415 . S
C808 C807 1.355 . S
C808 C810 1.419 . S
C809 C804 1.425 . S
C809 C806 1.409 . S
C809 C807 1.415 . S
C810 H800 0.930 . S
C810 C808 1.419 . S
C810 C811 1.362 . S
C811 H801 0.930 . S
C811 C804 1.409 . S
C811 C810 1.362 . S
H812 C818 0.930 . S
H813 C821 0.930 . S
H814 C822 0.930 . S
H815 C823 0.930 . S
H816 C826 0.930 . S
H817 C827 0.930 . S
C818 H812 0.930 . S
C818 C819 1.355 . S
C818 C820 1.415 . S
C819 C818 1.355 . S
C819 C821 1.419 . S
C820 C818 1.415 . S
C820 C825 1.425 . S
C820 C827 1.409 . S
C821 H813 0.930 . S
C821 C819 1.419 . S
C821 C822 1.362 . S
C822 H814 0.930 . S
C822 C821 1.362 . S
C822 C825 1.409 . S
C823 H815 0.930 . S
C823 C824 1.355 . S
C823 C825 1.415 . S
C824 C823 1.355 . S
C824 C826 1.419 . S
C825 C820 1.425 . S
C825 C822 1.409 . S
C825 C823 1.415 . S
C826 H816 0.930 . S
C826 C824 1.419 . S
C826 C827 1.362 . S
C827 H817 0.930 . S
C827 C820 1.409 . S
C827 C826 1.362 . S
H828 C834 0.930 . S
H829 C837 0.930 . S
H830 C838 0.930 . S
H831 C839 0.930 . S
H832 C842 0.930 . S
H833 C843 0.930 . S
C834 H828 0.930 . S
C834 C835 1.355 . S
C834 C836 1.415 . S
C835 C834 1.355 . S
C835 C837 1.419 . S
C836 C834 1.415 . S
C836 C841 1.425 . S
C836 C843 1.409 . S
C837 H829 0.930 . S
C837 C835 1.419 . S
C837 C838 1.362 . S
C838 H830 0.930 . S
C838 C837 1.362 . S
C838 C841 1.409 . S
C839 H831 0.930 . S
C839 C840 1.355 . S
C839 C841 1.415 . S
C840 C839 1.355 . S
C840 C842 1.419 . S
C841 C836 1.425 . S
C841 C838 1.409 . S
C841 C839 1.415 . S
C842 H832 0.930 . S
C842 C840 1.419 . S
C842 C843 1.362 . S
C843 H833 0.930 . S
C843 C836 1.409 . S
C843 C842 1.362 . S
H844 C850 0.930 . S
H845 C853 0.930 . S
H846 C854 0.930 . S
H847 C855 0.930 . S
H848 C858 0.930 . S
H849 C859 0.930 . S
C850 H844 0.930 . S
C850 C851 1.355 . S
C850 C852 1.415 . S
C851 C850 1.355 . S
C851 C853 1.419 . S
C852 C850 1.415 . S
C852 C857 1.425 . S
C852 C859 1.409 . S
C853 H845 0.930 . S
C853 C851 1.419 . S
C853 C854 1.362 . S
C854 H846 0.930 . S
C854 C853 1.362 . S
C854 C857 1.409 . S
C855 H847 0.930 . S
C855 C856 1.355 . S
C855 C857 1.415 . S
C856 C855 1.355 . S
C856 C858 1.419 . S
C857 C852 1.425 . S
C857 C854 1.409 . S
C857 C855 1.415 . S
C858 H848 0.930 . S
C858 C856 1.419 . S
C858 C859 1.362 . S
C859 H849 0.930 . S
C859 C852 1.409 . S
C859 C858 1.362 . S
H860 C866 0.930 . S
H861 C869 0.930 . S
H862 C870 0.930 . S
H863 C871 0.930 . S
H864 C874 0.930 . S
H865 C875 0.930 . S
C866 H860 0.930 . S
C866 C867 1.355 . S
C866 C868 1.415 . S
C867 C866 1.355 . S
C867 C869 1.419 . S
C868 C866 1.415 . S
C868 C873 1.425 . S
C868 C875 1.409 . S
C869 H861 0.930 . S
C869 C867 1.419 . S
C869 C870 1.362 . S
C870 H862 0.930 . S
C870 C869 1.362 . S
C870 C873 1.409 . S
C871 H863 0.930 . S
C871 C872 1.355 . S
C871 C873 1.415 . S
C872 C871 1.355 . S
C872 C874 1.419 . S
C873 C868 1.425 . S
C873 C870 1.409 . S
C873 C871 1.415 . S
C874 H864 0.930 . S
C874 C872 1.419 . S
C874 C875 1.362 . S
C875 H865 0.930 . S
C875 C868 1.409 . S
C875 C874 1.362 . S
H876 C882 0.930 . S
H877 C885 0.930 . S
H878 C886 0.930 1_455 S
H879 C887 0.930 1_455 S
H880 C890 0.930 . S
H881 C891 0.930 . S
C882 H876 0.930 . S
C882 C883 1.355 . S
C882 C884 1.415 . S
C883 C882 1.355 . S
C883 C885 1.419 . S
C884 C882 1.415 . S
C884 C889 1.425 . S
C884 C891 1.409 . S
C885 H877 0.930 . S
C885 C883 1.419 . S
C885 C886 1.362 . S
C886 H878 0.930 1_655 S
C886 C885 1.362 . S
C886 C889 1.409 . S
C887 H879 0.930 1_655 S
C887 C888 1.355 . S
C887 C889 1.415 . S
C888 C887 1.355 . S
C888 C890 1.419 . S
C889 C884 1.425 . S
C889 C886 1.409 . S
C889 C887 1.415 . S
C890 H880 0.930 . S
C890 C888 1.419 . S
C890 C891 1.362 . S
C891 H881 0.930 . S
C891 C884 1.409 . S
C891 C890 1.362 . S
H892 C898 0.930 . S
H893 C901 0.930 . S
H894 C902 0.930 . S
H895 C903 0.930 . S
H896 C906 0.930 . S
H897 C907 0.930 . S
C898 H892 0.930 . S
C898 C899 1.355 . S
C898 C900 1.415 . S
C899 C898 1.355 . S
C899 C901 1.419 . S
C900 C898 1.415 . S
C900 C905 1.425 . S
C900 C907 1.409 . S
C901 H893 0.930 . S
C901 C899 1.419 . S
C901 C902 1.362 . S
C902 H894 0.930 . S
C902 C901 1.362 . S
C902 C905 1.409 . S
C903 H895 0.930 . S
C903 C904 1.355 . S
C903 C905 1.415 . S
C904 C903 1.355 . S
C904 C906 1.419 . S
C905 C900 1.425 . S
C905 C902 1.409 . S
C905 C903 1.415 . S
C906 H896 0.930 . S
C906 C904 1.419 . S
C906 C907 1.362 . S
C907 H897 0.930 . S
C907 C900 1.409 . S
C907 C906 1.362 . S
H908 C914 0.930 . S
H909 C917 0.930 . S
H910 C918 0.930 . S
H911 C919 0.930 . S
H912 C922 0.930 . S
H913 C923 0.930 . S
C914 H908 0.930 . S
C914 C915 1.355 . S
C914 C916 1.415 . S
C915 C914 1.355 . S
C915 C917 1.419 . S
C916 C914 1.415 . S
C916 C921 1.425 . S
C916 C923 1.409 . S
C917 H909 0.930 . S
C917 C915 1.419 . S
C917 C918 1.362 . S
C918 H910 0.930 . S
C918 C917 1.362 . S
C918 C921 1.409 . S
C919 H911 0.930 . S
C919 C920 1.355 . S
C919 C921 1.415 . S
C920 C919 1.355 . S
C920 C922 1.419 . S
C921 C916 1.425 . S
C921 C918 1.409 . S
C921 C919 1.415 . S
C922 H912 0.930 . S
C922 C920 1.419 . S
C922 C923 1.362 . S
C923 H913 0.930 . S
C923 C916 1.409 . S
C923 C922 1.362 . S
H924 C930 0.930 . S
H925 C933 0.930 . S
H926 C934 0.930 . S
H927 C935 0.930 . S
H928 C938 0.930 . S
H929 C939 0.930 . S
C930 H924 0.930 . S
C930 C931 1.355 . S
C930 C932 1.415 . S
C931 C930 1.355 . S
C931 C933 1.419 . S
C932 C930 1.415 . S
C932 C937 1.425 . S
C932 C939 1.409 . S
C933 H925 0.930 . S
C933 C931 1.419 . S
C933 C934 1.362 . S
C934 H926 0.930 . S
C934 C933 1.362 . S
C934 C937 1.409 . S
C935 H927 0.930 . S
C935 C936 1.355 . S
C935 C937 1.415 . S
C936 C935 1.355 . S
C936 C938 1.419 . S
C937 C932 1.425 . S
C937 C934 1.409 . S
C937 C935 1.415 . S
C938 H928 0.930 . S
C938 C936 1.419 . S
C938 C939 1.362 . S
C939 H929 0.930 . S
C939 C932 1.409 . S
C939 C938 1.362 . S
H940 C946 0.930 . S
H941 C949 0.930 . S
H942 C950 0.930 . S
H943 C951 0.930 . S
H944 C954 0.930 . S
H945 C955 0.930 . S
C946 H940 0.930 . S
C946 C947 1.355 . S
C946 C948 1.415 . S
C947 C946 1.355 . S
C947 C949 1.419 . S
C948 C946 1.415 . S
C948 C953 1.425 . S
C948 C955 1.409 . S
C949 H941 0.930 . S
C949 C947 1.419 . S
C949 C950 1.362 . S
C950 H942 0.930 . S
C950 C949 1.362 . S
C950 C953 1.409 . S
C951 H943 0.930 . S
C951 C952 1.355 . S
C951 C953 1.415 . S
C952 C951 1.355 . S
C952 C954 1.419 . S
C953 C948 1.425 . S
C953 C950 1.409 . S
C953 C951 1.415 . S
C954 H944 0.930 . S
C954 C952 1.419 . S
C954 C955 1.362 . S
C955 H945 0.930 . S
C955 C948 1.409 . S
C955 C954 1.362 . S
H956 C962 0.930 . S
H957 C965 0.930 . S
H958 C966 0.930 . S
H959 C967 0.930 . S
H960 C970 0.930 . S
H961 C971 0.930 . S
C962 H956 0.930 . S
C962 C963 1.355 . S
C962 C964 1.415 . S
C963 C962 1.355 . S
C963 C965 1.419 . S
C964 C962 1.415 . S
C964 C969 1.425 . S
C964 C971 1.409 . S
C965 H957 0.930 . S
C965 C963 1.419 . S
C965 C966 1.362 . S
C966 H958 0.930 . S
C966 C965 1.362 . S
C966 C969 1.409 . S
C967 H959 0.930 . S
C967 C968 1.355 . S
C967 C969 1.415 . S
C968 C967 1.355 . S
C968 C970 1.419 . S
C969 C964 1.425 . S
C969 C966 1.409 . S
C969 C967 1.415 . S
C970 H960 0.930 . S
C970 C968 1.419 . S
C970 C971 1.362 . S
C971 H961 0.930 . S
C971 C964 1.409 . S
C971 C970 1.362 . S
H972 C978 0.930 . S
H973 C981 0.930 . S
H974 C982 0.930 . S
H975 C983 0.930 . S
H976 C986 0.930 . S
H977 C987 0.930 . S
C978 H972 0.930 . S
C978 C979 1.355 . S
C978 C980 1.415 . S
C979 C978 1.355 . S
C979 C981 1.419 . S
C980 C978 1.415 . S
C980 C985 1.425 . S
C980 C987 1.409 . S
C981 H973 0.930 . S
C981 C979 1.419 . S
C981 C982 1.362 . S
C982 H974 0.930 . S
C982 C981 1.362 . S
C982 C985 1.409 . S
C983 H975 0.930 . S
C983 C984 1.355 . S
C983 C985 1.415 . S
C984 C983 1.355 . S
C984 C986 1.419 . S
C985 C980 1.425 . S
C985 C982 1.409 . S
C985 C983 1.415 . S
C986 H976 0.930 . S
C986 C984 1.419 . S
C986 C987 1.362 . S
C987 H977 0.930 . S
C987 C980 1.409 . S
C987 C986 1.362 . S
H988 C994 0.930 . S
H989 C997 0.930 . S
H990 C998 0.930 . S
H991 C999 0.930 . S
H992 C1002 0.930 . S
H993 C1003 0.930 . S
C994 H988 0.930 . S
C994 C995 1.355 . S
C994 C996 1.415 . S
C995 C994 1.355 . S
C995 C997 1.419 . S
C996 C994 1.415 . S
C996 C1001 1.425 . S
C996 C1003 1.409 . S
C997 H989 0.930 . S
C997 C995 1.419 . S
C997 C998 1.362 . S
C998 H990 0.930 . S
C998 C997 1.362 . S
C998 C1001 1.409 . S
C999 H991 0.930 . S
C999 C1000 1.355 . S
C999 C1001 1.415 . S
C1000 C999 1.355 . S
C1000 C1002 1.419 . S
C1001 C996 1.425 . S
C1001 C998 1.409 . S
C1001 C999 1.415 . S
C1002 H992 0.930 . S
C1002 C1000 1.419 . S
C1002 C1003 1.362 . S
C1003 H993 0.930 . S
C1003 C996 1.409 . S
C1003 C1002 1.362 . S
H1004 C1010 0.930 . S
H1005 C1013 0.930 . S
H1006 C1014 0.930 . S
H1007 C1015 0.930 . S
H1008 C1018 0.930 . S
H1009 C1019 0.930 . S
C1010 H1004 0.930 . S
C1010 C1011 1.355 . S
C1010 C1012 1.415 . S
C1011 C1010 1.355 . S
C1011 C1013 1.419 . S
C1012 C1010 1.415 . S
C1012 C1017 1.425 . S
C1012 C1019 1.409 . S
C1013 H1005 0.930 . S
C1013 C1011 1.419 . S
C1013 C1014 1.362 . S
C1014 H1006 0.930 . S
C1014 C1013 1.362 . S
C1014 C1017 1.409 . S
C1015 H1007 0.930 . S
C1015 C1016 1.355 . S
C1015 C1017 1.415 . S
C1016 C1015 1.355 . S
C1016 C1018 1.419 . S
C1017 C1012 1.425 . S
C1017 C1014 1.409 . S
C1017 C1015 1.415 . S
C1018 H1008 0.930 . S
C1018 C1016 1.419 . S
C1018 C1019 1.362 . S
C1019 H1009 0.930 . S
C1019 C1012 1.409 . S
C1019 C1018 1.362 . S
C520 C444 1.760 . S
C515 C45 1.824 . S
C531 C78 1.720 . S
C536 C447 1.728 . S
C547 C126 1.691 . S
C552 C478 1.705 . S
C568 C413 1.713 . S
C563 C174 1.780 . S
C584 C448 1.737 . S
C579 C36 1.823 . S
C600 C479 1.713 . S
C595 C69 1.799 . S
C616 C404 1.660 . S
C611 C117 1.715 . S
C632 C435 1.732 . S
C627 C165 1.736 . S
C643 C30 1.376 . S
C648 C465 1.242 . S
C659 C228 1.360 . S
C664 C434 1.259 . S
C675 C141 1.236 . S
C680 C394 1.286 . S
C696 C487 1.303 . S
C691 C270 1.272 . S
C712 C415 1.285 . S
C707 C21 1.373 . S
C723 C237 1.276 . S
C728 C414 1.272 . S
C739 C132 1.297 . S
C744 C507 1.250 . S
C760 C446 1.252 . S
C755 C261 1.358 . S
C771 C333 1.825 . S
C776 C506 1.733 . S
C787 C213 1.732 . S
C792 C385 1.686 . S
C803 C357 1.720 . S
C808 C416 1.657 . S
C819 C285 1.800 . S
C824 C475 1.767 . S
C840 C386 1.740 . S
C835 C324 1.824 . S
C851 C222 1.789 . S
C856 C417 1.709 . S
C867 C366 1.689 . S
C872 C466 1.704 . S
C888 C497 1.727 . S
C883 C276 1.753 . S
C899 C318 1.375 . S
C904 C403 1.243 . S
C915 C93 1.323 . S
C920 C496 1.318 . S
C931 C372 1.266 . S
C936 C456 1.264 . S
C952 C425 1.265 . S
C947 C189 1.310 . S
C968 C477 1.284 . S
C963 C309 1.368 . S
C984 C476 1.314 . S
C979 C84 1.301 . S
C1000 C445 1.262 . S
C995 C381 1.250 . S
C1016 C384 1.328 . S
C1011 C180 1.335 . S
