# Generated by pormake.
# Topology zzz, (3,6)-cn, num edge types: 1
# Building blocks:
#     Node 0, Type 0, BuildingBlock: BETDIP_clean_linker_0, # of connection points: 3
#     Node 1, Type 0, BuildingBlock: BETDIP_clean_linker_0, # of connection points: 3
#     Node 2, Type 0, BuildingBlock: BETDIP_clean_linker_0, # of connection points: 3
#     Node 3, Type 0, BuildingBlock: BETDIP_clean_linker_0, # of connection points: 3
#     Node 4, Type 0, BuildingBlock: BETDIP_clean_linker_0, # of connection points: 3
#     Node 5, Type 0, BuildingBlock: BETDIP_clean_linker_0, # of connection points: 3
#     Node 6, Type 0, BuildingBlock: BETDIP_clean_linker_0, # of connection points: 3
#     Node 7, Type 0, BuildingBlock: BETDIP_clean_linker_0, # of connection points: 3
#     Node 8, Type 1, BuildingBlock: HISSIN_clean_sbu_0, # of connection points: 6
#     Node 9, Type 1, BuildingBlock: HISSIN_clean_sbu_0, # of connection points: 6
#     Node 10, Type 1, BuildingBlock: HISSIN_clean_sbu_0, # of connection points: 6
#     Node 11, Type 1, BuildingBlock: HISSIN_clean_sbu_0, # of connection points: 6
#     Edge 12, Type (0, 1), BuildingBlock: KIFKEQ_clean_linker_1, # of connection points: 2
#     Edge 13, Type (0, 1), BuildingBlock: KIFKEQ_clean_linker_1, # of connection points: 2
#     Edge 14, Type (0, 1), BuildingBlock: KIFKEQ_clean_linker_1, # of connection points: 2
#     Edge 15, Type (0, 1), BuildingBlock: KIFKEQ_clean_linker_1, # of connection points: 2
#     Edge 16, Type (0, 1), BuildingBlock: KIFKEQ_clean_linker_1, # of connection points: 2
#     Edge 17, Type (0, 1), BuildingBlock: KIFKEQ_clean_linker_1, # of connection points: 2
#     Edge 18, Type (0, 1), BuildingBlock: KIFKEQ_clean_linker_1, # of connection points: 2
#     Edge 19, Type (0, 1), BuildingBlock: KIFKEQ_clean_linker_1, # of connection points: 2
#     Edge 20, Type (0, 1), BuildingBlock: KIFKEQ_clean_linker_1, # of connection points: 2
#     Edge 21, Type (0, 1), BuildingBlock: KIFKEQ_clean_linker_1, # of connection points: 2
#     Edge 22, Type (0, 1), BuildingBlock: KIFKEQ_clean_linker_1, # of connection points: 2
#     Edge 23, Type (0, 1), BuildingBlock: KIFKEQ_clean_linker_1, # of connection points: 2
#     Edge 24, Type (0, 1), BuildingBlock: KIFKEQ_clean_linker_1, # of connection points: 2
#     Edge 25, Type (0, 1), BuildingBlock: KIFKEQ_clean_linker_1, # of connection points: 2
#     Edge 26, Type (0, 1), BuildingBlock: KIFKEQ_clean_linker_1, # of connection points: 2
#     Edge 27, Type (0, 1), BuildingBlock: KIFKEQ_clean_linker_1, # of connection points: 2
#     Edge 28, Type (0, 1), BuildingBlock: KIFKEQ_clean_linker_1, # of connection points: 2
#     Edge 29, Type (0, 1), BuildingBlock: KIFKEQ_clean_linker_1, # of connection points: 2
#     Edge 30, Type (0, 1), BuildingBlock: KIFKEQ_clean_linker_1, # of connection points: 2
#     Edge 31, Type (0, 1), BuildingBlock: KIFKEQ_clean_linker_1, # of connection points: 2
#     Edge 32, Type (0, 1), BuildingBlock: KIFKEQ_clean_linker_1, # of connection points: 2
#     Edge 33, Type (0, 1), BuildingBlock: KIFKEQ_clean_linker_1, # of connection points: 2
#     Edge 34, Type (0, 1), BuildingBlock: KIFKEQ_clean_linker_1, # of connection points: 2
#     Edge 35, Type (0, 1), BuildingBlock: KIFKEQ_clean_linker_1, # of connection points: 2
# Relax obj value: 0.266
# Max RMSD: 0.186
# Mean RMSD: 0.096
data_MOF--net-zzz--node1-HISSIN_clean_sbu_0--node2-BETDIP_clean_linker_0--edge1-KIFKEQ_clean_linker_1
_symmetry_space_group_name_H-M    P1
_symmetry_Int_Tables_number       1
_symmetry_cell_setting            triclinic
loop_
_symmetry_equiv_pos_as_xyz
'x, y, z'
_cell_length_a     50.791784
_cell_length_b     50.749083
_cell_length_c     16.410475
_cell_angle_alpha  90.303204
_cell_angle_beta   91.576442
_cell_angle_gamma 90.707017
loop_
_atom_site_label
_atom_site_type_symbol
_atom_site_fract_x
_atom_site_fract_y
_atom_site_fract_z
_atom_type_partial_charge
H0 H 0.76839 0.53823 0.43217 0.0
H1 H 0.74994 0.54761 0.1757 0.0
H2 H 0.83029 0.54061 0.25768 0.0
H3 H 0.71894 0.58395 0.2816 0.0
C4 C 0.7119 0.56363 0.28081 0.0
C5 C 0.7748 0.54051 0.37019 0.0
C6 C 0.80202 0.53943 0.35309 0.0
C7 C 0.7559 0.54421 0.30583 0.0
C8 C 0.76432 0.54609 0.22547 0.0
C9 C 0.79097 0.54475 0.20826 0.0
C10 C 0.80961 0.54203 0.27195 0.0
N11 N 0.72829 0.54446 0.31956 0.0
H12 H 0.02555 0.76012 0.38153 0.0
H13 H 0.97309 0.75489 0.17003 0.0
H14 H 0.97375 0.82389 0.32146 0.0
H15 H 0.97119 0.71067 0.22168 0.0
C16 C 0.9923 0.70853 0.21493 0.0
C17 C 1.01001 0.76829 0.34333 0.0
C18 C 0.99982 0.79359 0.36173 0.0
C19 C 0.99949 0.75348 0.27551 0.0
C20 C 0.98004 0.76504 0.22488 0.0
C21 C 0.97076 0.79036 0.24064 0.0
C22 C 0.98018 0.80392 0.31028 0.0
N23 N 1.00921 0.72787 0.25448 0.0
H24 H 0.78687 1.01758 0.36896 0.0
H25 H 0.80213 0.95294 0.20609 0.0
H26 H 0.72762 0.95816 0.32302 0.0
H27 H 0.84512 0.96132 0.26743 0.0
C28 C 0.8448 0.98115 0.24267 0.0
C29 C 0.78078 0.99916 0.3402 0.0
C30 C 0.75559 0.98801 0.3565 0.0
C31 C 0.79807 0.98615 0.28632 0.0
C32 C 0.78937 0.96256 0.24831 0.0
C33 C 0.76371 0.95263 0.2579 0.0
C34 C 0.74762 0.96504 0.31477 0.0
N35 N 0.82306 0.99747 0.26416 0.0
H36 H 0.54551 0.76535 0.31316 0.0
H37 H 0.48353 0.78068 0.13541 0.0
H38 H 0.47529 0.71695 0.30421 0.0
H39 H 0.52881 0.78289 0.06172 0.0
C40 C 0.53221 0.80023 0.09999 0.0
C41 C 0.52611 0.76091 0.28727 0.0
C42 C 0.5111 0.73964 0.31829 0.0
C43 C 0.51615 0.77588 0.22069 0.0
C44 C 0.49122 0.76942 0.18648 0.0
C45 C 0.4763 0.74836 0.2164 0.0
C46 C 0.48624 0.73394 0.28287 0.0
N47 N 0.53108 0.79702 0.18646 0.0
H48 H 0.29118 0.51874 1.01329 0.0
H49 H 0.30509 0.55662 0.24721 0.0
H50 H 0.22826 0.55834 0.13383 0.0
H51 H 0.34509 0.56878 0.14879 0.0
C52 C 0.34868 0.54797 0.15941 0.0
C53 C 0.28404 0.52986 0.0645 0.0
C54 C 0.25746 0.53826 0.06432 0.0
C55 C 0.30163 0.53708 0.12994 0.0
C56 C 0.29212 0.55164 0.1957 0.0
C57 C 0.26577 0.5589 0.19728 0.0
C58 C 0.24869 0.5524 0.13186 0.0
N59 N 0.32872 0.5297 0.13142 0.0
H60 H 0.04981 0.28441 0.9729 0.0
H61 H 0.07074 0.2995 0.22525 0.0
H62 H 0.07727 0.22145 0.12656 0.0
H63 H 1.01668 0.31686 0.16879 0.0
C64 C 0.03203 0.33084 0.15247 0.0
C65 C 0.0575 0.27754 0.0311 0.0
C66 C 0.06481 0.25069 0.04048 0.0
C67 C 0.05963 0.29523 0.09884 0.0
C68 C 0.06921 0.28598 0.17394 0.0
C69 C 0.07533 0.25948 0.185 0.0
C70 C 0.07357 0.24225 0.11777 0.0
N71 N 0.05083 0.32189 0.09532 0.0
H72 H 0.2836 0.02082 0.08764 0.0
H73 H 0.26294 0.09022 0.22281 0.0
H74 H 0.33596 0.08761 0.09626 0.0
H75 H 0.25975 0.0521 0.31855 0.0
C76 C 0.24339 0.04454 0.28071 0.0
C77 C 0.28768 0.04102 0.10602 0.0
C78 C 0.31122 0.05383 0.08105 0.0
C79 C 0.2703 0.05412 0.15927 0.0
C80 C 0.27646 0.08013 0.18395 0.0
C81 C 0.30068 0.09212 0.1661 0.0
C82 C 0.31703 0.07918 0.11108 0.0
N83 N 0.24822 0.0409 0.19537 0.0
H84 H 0.5153 0.27239 0.08171 0.0
H85 H 0.57207 0.27009 0.28167 0.0
H86 H 0.57515 0.33274 0.10739 0.0
H87 H 0.57199 0.22433 0.22261 0.0
C88 C 0.55131 0.22237 0.23749 0.0
C89 C 0.5324 0.28066 0.1139 0.0
C90 C 0.54401 0.30447 0.08667 0.0
C91 C 0.54371 0.26718 0.18167 0.0
C92 C 0.5649 0.27913 0.22584 0.0
C93 C 0.57586 0.30318 0.20101 0.0
C94 C 0.56618 0.31467 0.12895 0.0
N95 N 0.53371 0.24209 0.20723 0.0
Eu96 Eu 1.01357 0.02688 0.65398 0.0
Eu97 Eu 0.05361 1.00774 0.79492 0.0
C98 C 0.04263 0.07099 0.77134 0.0
C99 C 0.98921 0.07018 0.49509 0.0
C100 C 0.97556 0.09295 0.51712 0.0
C101 C 0.02346 0.09769 0.43837 0.0
C102 C 0.98664 0.11784 0.50451 0.0
C103 C 1.01246 0.07286 0.45108 0.0
C104 C 1.01135 0.12026 0.46885 0.0
C105 C 0.98371 0.04531 0.53765 0.0
O106 O 1.01279 0.99634 0.83813 0.0
O107 O 0.9885 0.02611 0.7669 0.0
C108 C 0.99099 1.00977 0.82826 0.0
O109 O 1.00825 0.98232 0.65431 0.0
O110 O 0.06643 1.01037 0.92269 0.0
O111 O 0.08401 0.98167 0.84428 0.0
O112 O 0.04875 0.97264 0.70831 0.0
C113 C 0.02729 0.96537 0.66705 0.0
O114 O 0.05368 0.02556 0.59277 0.0
O115 O 0.08236 0.02288 0.70297 0.0
O116 O 0.05073 0.0518 0.81921 0.0
O117 O 1.00017 0.02617 0.52624 0.0
O118 O 0.97859 0.04826 0.61451 0.0
O119 O 0.03091 0.06586 0.70043 0.0
C120 C 0.06693 0.96669 0.9686 0.0
C121 C 0.05105 0.97338 0.03441 0.0
C122 C 0.04514 0.92388 0.96075 0.0
C123 C 0.03113 0.9562 0.05893 0.0
C124 C 0.06505 0.94099 0.93637 0.0
C125 C 0.02696 0.93199 0.01848 0.0
C126 C 0.07859 0.98792 0.91923 0.0
C127 C 0.07794 0.02574 0.6241 0.0
H128 H 0.95759 0.09144 0.55099 0.0
H129 H 0.04207 0.09914 0.40785 0.0
H130 H 0.97672 0.13501 0.52752 0.0
H131 H 0.0234 0.05578 0.43233 0.0
H132 H 0.0522 0.99291 0.06133 0.0
H133 H 0.0432 0.90477 0.93134 0.0
H134 H 1.01774 0.9628 0.10483 0.0
H135 H 0.07729 0.9349 0.8868 0.0
Eu136 Eu 0.54605 0.03692 0.78621 0.0
Eu137 Eu 0.51778 1.00834 0.63148 0.0
C138 C 0.53768 0.97272 0.78303 0.0
C139 C 0.59699 0.04193 0.94184 0.0
C140 C 0.59533 0.02525 1.00964 0.0
C141 C 0.63832 0.02152 0.90764 0.0
C142 C 0.61445 1.00616 0.02428 0.0
C143 C 0.61932 0.0406 0.89319 0.0
C144 C 0.63565 1.00353 0.97169 0.0
C145 C 0.57308 0.05514 0.91021 0.0
O146 O 0.485 1.0125 0.72257 0.0
O147 O 0.50255 0.04489 0.80598 0.0
C148 C 0.48239 0.02993 0.78143 0.0
O149 O 0.54505 0.0679 0.68748 0.0
O150 O 0.48941 0.98105 0.57282 0.0
O151 O 0.51279 1.00702 0.49904 0.0
O152 O 0.50917 0.05183 0.61734 0.0
C153 C 0.52636 0.07087 0.63168 0.0
O154 O 0.58017 1.01792 0.7212 0.0
O155 O 0.56065 1.01285 0.59502 0.0
O156 O 0.53227 0.97312 0.70404 0.0
O157 O 0.57459 0.06539 0.8377 0.0
O158 O 0.55125 0.0417 0.91804 0.0
O159 O 0.54082 0.99461 0.82542 0.0
C160 C 0.46733 1.00728 0.47423 0.0
C161 C 0.46829 0.02244 0.40297 0.0
C162 C 0.42798 0.03061 0.51263 0.0
C163 C 0.44971 0.04206 0.38794 0.0
C164 C 0.44643 1.01102 0.52745 0.0
C165 C 0.42978 0.0468 0.44383 0.0
C166 C 0.49105 0.99323 0.50316 0.0
C167 C 0.58204 1.01406 0.64219 0.0
H168 H 0.57834 0.02577 0.04812 0.0
H169 H 0.65445 0.0201 0.86609 0.0
H170 H 0.6123 0.99308 0.07569 0.0
H171 H 0.62131 0.05302 0.84018 0.0
H172 H 0.48435 0.02021 0.36146 0.0
H173 H 0.41293 0.03375 0.55702 0.0
H174 H 0.45121 0.0538 0.33331 0.0
H175 H 0.44517 0.99997 0.58348 0.0
Eu176 Eu 0.50476 0.53476 0.79324 0.0
Eu177 Eu 0.55011 0.51627 0.66883 0.0
C178 C 0.565 0.53193 0.85439 0.0
C179 C 0.44686 0.56685 0.90009 0.0
C180 C 0.44774 0.59059 0.85699 0.0
C181 C 0.40971 0.58287 0.97492 0.0
C182 C 0.43078 0.61096 0.87642 0.0
C183 C 0.42695 0.56259 0.95606 0.0
C184 C 0.41256 0.60786 0.93906 0.0
C185 C 0.46848 0.54805 0.89516 0.0
O186 O 0.5325 0.47769 0.71236 0.0
O187 O 0.51514 0.49307 0.83043 0.0
C188 C 0.52272 0.47339 0.78458 0.0
O189 O 0.48176 0.52367 0.67795 0.0
O190 O 0.59211 0.51753 0.6423 0.0
O191 O 0.56459 0.49648 0.56152 0.0
O192 O 0.51446 0.5214 0.58397 0.0
C193 C 0.48937 0.52207 0.60211 0.0
O194 O 0.50864 0.56974 0.7087 0.0
O195 O 0.54936 0.56095 0.65822 0.0
O196 O 0.56813 0.51437 0.79665 0.0
O197 O 0.46556 0.52871 0.84305 0.0
O198 O 0.49215 0.55832 0.89547 0.0
O199 O 0.54386 0.54654 0.8537 0.0
C200 C 0.60657 0.47821 0.5818 0.0
C201 C 0.59699 0.45363 0.60684 0.0
C202 C 0.64706 0.45758 0.54118 0.0
C203 C 0.6116 0.43098 0.59431 0.0
C204 C 0.63214 0.48026 0.55247 0.0
C205 C 0.63632 0.43245 0.55732 0.0
C206 C 0.5893 0.50123 0.58096 0.0
C207 C 0.52934 0.5769 0.66711 0.0
H208 H 0.46283 0.5941 0.81276 0.0
H209 H 0.39552 0.57957 0.02199 0.0
H210 H 0.43379 0.62984 0.84753 0.0
H211 H 0.42579 0.54419 0.98906 0.0
H212 H 0.57747 0.45169 0.63135 0.0
H213 H 0.66629 0.45966 0.51498 0.0
H214 H 0.60231 0.41223 0.60742 0.0
H215 H 0.64009 0.49921 0.5346 0.0
Eu216 Eu 0.04275 0.54738 0.60967 0.0
Eu217 Eu 0.02628 0.50399 0.74306 0.0
C218 C 0.08727 0.521 0.73409 0.0
C219 C 0.08042 0.60321 0.51603 0.0
C220 C 0.09518 0.60659 0.58898 0.0
C221 C 0.11554 0.62382 0.44187 0.0
C222 C 0.12059 0.61743 0.58767 0.0
C223 C 0.09012 0.61318 0.44341 0.0
C224 C 0.1317 0.62452 0.51314 0.0
C225 C 0.05808 0.58471 0.51222 0.0
O226 O 0.03297 0.54127 0.81821 0.0
O227 O 0.02611 0.57065 0.71531 0.0
C228 C 0.02841 0.56541 0.79361 0.0
O229 O 1.0012 0.53561 0.57154 0.0
O230 O 0.02251 0.48846 0.86634 0.0
O231 O 1.00434 0.46761 0.76381 0.0
O232 O 0.98841 0.52364 0.698 0.0
C233 C 0.98244 0.53011 0.62232 0.0
O234 O 0.0452 0.50954 0.53537 0.0
O235 O 0.03466 0.47896 0.63216 0.0
O236 O 0.07063 0.50209 0.75324 0.0
O237 O 0.06477 0.56014 0.50495 0.0
O238 O 0.0399 0.58789 0.56577 0.0
O239 O 0.07982 0.541 0.68823 0.0
C240 C 0.97815 0.47443 0.87512 0.0
C241 C 0.97043 0.4995 0.90132 0.0
C242 C 0.93221 0.46038 0.86935 0.0
C243 C 0.94393 0.50516 0.909 0.0
C244 C 0.9589 0.45467 0.86147 0.0
C245 C 0.92453 0.48598 0.89034 0.0
C246 C 1.00454 0.47124 0.84242 0.0
C247 C 0.04108 0.48495 0.55733 0.0
H248 H 0.08794 0.59892 0.64576 0.0
H249 H 0.1233 0.62882 0.38307 0.0
H250 H 0.13228 0.61813 0.64385 0.0
H251 H 0.07899 0.61058 0.38657 0.0
H252 H 0.98472 0.5153 0.91118 0.0
H253 H 0.91759 0.44518 0.85548 0.0
H254 H 0.93858 0.52484 0.92781 0.0
H255 H 0.9644 0.43537 0.83969 0.0
H256 H 0.23422 0.05701 0.43597 0.0
H257 H 0.19398 0.02475 0.22268 0.0
H258 H 0.19447 0.05299 0.51276 0.0
H259 H 0.15347 0.01974 0.30154 0.0
H260 H 0.0788 0.0368 0.45818 0.0
H261 H 0.11717 0.04058 0.37094 0.0
H262 H 0.16814 0.02257 0.57754 0.0
H263 H 0.13031 0.0197 0.66403 0.0
C264 C 0.2168 0.04875 0.40537 0.0
C265 C 0.21759 0.04104 0.32297 0.0
C266 C 0.19381 0.04622 0.45007 0.0
C267 C 0.17041 0.03555 0.41483 0.0
C268 C 0.17093 0.02811 0.33145 0.0
C269 C 0.19423 0.03082 0.28605 0.0
C270 C 0.09823 0.03376 0.48504 0.0
C271 C 0.10121 0.02823 0.56905 0.0
C272 C 0.12035 0.03574 0.43459 0.0
C273 C 0.14619 0.03221 0.46642 0.0
C274 C 0.1489 0.02618 0.55014 0.0
C275 C 0.12696 0.02438 0.6003 0.0
H276 H 0.5848 0.18845 0.30804 0.0
H277 H 0.50217 0.2071 0.29655 0.0
H278 H 0.57628 0.15354 0.40476 0.0
H279 H 0.49343 0.17155 0.39483 0.0
H280 H 0.49204 0.08372 0.50443 0.0
H281 H 0.49531 0.12112 0.41087 0.0
H282 H 0.56353 0.15017 0.54751 0.0
H283 H 0.56041 0.11309 0.64019 0.0
C284 C 0.56469 0.18505 0.32625 0.0
C285 C 0.54422 0.2007 0.29464 0.0
C286 C 0.55982 0.16507 0.38236 0.0
C287 C 0.53421 0.15982 0.40881 0.0
C288 C 0.51342 0.17504 0.37589 0.0
C289 C 0.5184 0.19544 0.31976 0.0
C290 C 0.50754 0.09828 0.51519 0.0
C291 C 0.5261 0.09513 0.57992 0.0
C292 C 0.50935 0.1198 0.46153 0.0
C293 C 0.5299 0.13857 0.47074 0.0
C294 C 0.54771 0.13591 0.53744 0.0
C295 C 0.54583 0.11462 0.5911 0.0
H296 H 0.37659 0.58241 0.25342 0.0
H297 H 0.36923 0.4991 0.20265 0.0
H298 H 0.4103 0.57379 0.35846 0.0
H299 H 0.40401 0.49052 0.30715 0.0
H300 H 0.49264 0.50571 0.44166 0.0
H301 H 0.45873 0.50909 0.33216 0.0
H302 H 0.40592 0.54428 0.50137 0.0
H303 H 0.43917 0.54034 0.61078 0.0
C304 C 0.38234 0.56221 0.26428 0.0
C305 C 0.37008 0.54144 0.21996 0.0
C306 C 0.40165 0.55731 0.32457 0.0
C307 C 0.40978 0.53151 0.34118 0.0
C308 C 0.39815 0.51063 0.29544 0.0
C309 C 0.37823 0.51551 0.23591 0.0
C310 C 0.47369 0.51389 0.45569 0.0
C311 C 0.46871 0.52271 0.53534 0.0
C312 C 0.45425 0.51568 0.39305 0.0
C313 C 0.42965 0.52689 0.40829 0.0
C314 C 0.42465 0.5355 0.48784 0.0
C315 C 0.44376 0.53317 0.55058 0.0
H316 H 0.0705 0.37111 0.15316 0.0
H317 H 1.00004 0.3455 0.27181 0.0
H318 H 0.07444 0.40888 0.24839 0.0
H319 H 1.00379 0.38266 0.36545 0.0
H320 H 0.03177 0.43215 0.57985 0.0
H321 H 0.03149 0.39657 0.48025 0.0
H322 H 0.05322 0.45143 0.29305 0.0
H323 H 0.05371 0.48743 0.39376 0.0
C324 C 0.05579 0.37359 0.19898 0.0
C325 C 0.03497 0.35515 0.20481 0.0
C326 C 0.05798 0.39528 0.25359 0.0
C327 C 0.03961 0.39882 0.31585 0.0
C328 C 1.01866 0.38051 0.31992 0.0
C329 C 1.01639 0.35919 0.26551 0.0
C330 C 0.03665 0.43683 0.51771 0.0
C331 C 0.04261 0.46298 0.49552 0.0
C332 C 0.03634 0.41628 0.46006 0.0
C333 C 0.04203 0.42094 0.37775 0.0
C334 C 0.04882 0.44693 0.35568 0.0
C335 C 0.04899 0.46766 0.4136 0.0
H336 H 0.88189 0.94848 0.18906 0.0
H337 H 0.85503 0.02805 0.15702 0.0
H338 H 0.91561 0.95557 0.08987 0.0
H339 H 0.88995 0.03583 0.05834 0.0
H340 H 0.94204 0.03351 0.82883 0.0
H341 H 0.90699 0.02811 0.92706 0.0
H342 H 0.95583 0.97413 0.06446 0.0
H343 H 0.98999 0.97876 0.96481 0.0
C344 C 0.88339 0.96775 0.16131 0.0
C345 C 0.86566 0.98768 0.18192 0.0
C346 C 0.90308 0.97195 0.10429 0.0
C347 C 0.90623 0.99646 0.0655 0.0
C348 C 0.88833 1.01656 0.08581 0.0
C349 C 0.8683 1.01222 0.14308 0.0
C350 C 0.94524 0.02037 0.87982 0.0
C351 C 0.96908 1.00649 0.88805 0.0
C352 C 0.92509 1.01743 0.93702 0.0
C353 C 0.92804 1.00054 1.00478 0.0
C354 C 0.9521 0.98692 1.01298 0.0
C355 C 0.97205 0.98974 0.95569 0.0
H356 H 0.54163 0.80745 0.94081 0.0
H357 H 0.53074 0.85126 0.16277 0.0
H358 H 0.54488 0.8483 0.86478 0.0
H359 H 0.53293 0.89257 0.08617 0.0
H360 H 0.55804 0.96399 0.93698 0.0
H361 H 0.55856 0.92318 0.01429 0.0
H362 H 0.52017 0.88263 0.81065 0.0
H363 H 0.52056 0.92336 0.73242 0.0
C364 C 0.53997 0.82595 0.97348 0.0
C365 C 0.53601 0.82603 0.05794 0.0
C366 C 0.54154 0.8495 0.92955 0.0
C367 C 0.53887 0.8741 0.96837 0.0
C368 C 0.53538 0.87419 0.05365 0.0
C369 C 0.53405 0.85047 0.0979 0.0
C370 C 0.54982 0.94633 0.90833 0.0
C371 C 0.53926 0.94712 0.82799 0.0
C372 C 0.54993 0.92283 0.95323 0.0
C373 C 0.5393 0.89928 0.91967 0.0
C374 C 0.52897 0.90007 0.83884 0.0
C375 C 0.52908 0.92355 0.79364 0.0
H376 H 0.69249 0.51459 0.22895 0.0
H377 H 0.67959 0.59804 0.20531 0.0
H378 H 0.6562 0.50582 0.12991 0.0
H379 H 0.6439 0.58952 0.1064 0.0
H380 H 0.61072 0.50405 0.87841 0.0
H381 H 0.64479 0.51018 0.98507 0.0
H382 H 0.59981 0.57289 0.08985 0.0
H383 H 0.56602 0.56705 0.98265 0.0
C384 C 0.68178 0.53103 0.20324 0.0
C385 C 0.68884 0.55703 0.22547 0.0
C386 C 0.66109 0.52605 0.14585 0.0
C387 C 0.64688 0.54694 0.10976 0.0
C388 C 0.6539 0.57285 0.13338 0.0
C389 C 0.67452 0.57777 0.19006 0.0
C390 C 0.60803 0.51913 0.92426 0.0
C391 C 0.58555 0.53516 0.92116 0.0
C392 C 0.62756 0.52252 0.98603 0.0
C393 C 0.62529 0.54211 0.04649 0.0
C394 C 0.60259 0.55785 0.04395 0.0
C395 C 0.58305 0.55441 0.9824 0.0
H396 H 0.96134 0.68587 0.09853 0.0
H397 H 0.04157 0.68567 0.19135 0.0
H398 H 0.9718 0.65255 0.99754 0.0
H399 H 0.05206 0.65132 0.09018 0.0
H400 H 0.04349 0.56623 0.95661 0.0
H401 H 0.03767 0.60157 0.05708 0.0
H402 H 1.00015 0.64905 0.87148 0.0
H403 H 1.00637 0.61411 0.77092 0.0
C404 C 0.98134 0.67871 0.09724 0.0
C405 C 1.00061 0.68862 0.15299 0.0
C406 C 0.98735 0.6596 0.03893 0.0
C407 C 1.0128 0.64919 0.03511 0.0
C408 C 0.03222 0.65885 0.09138 0.0
C409 C 0.02628 0.67862 0.14908 0.0
C410 C 0.0341 0.58425 0.93702 0.0
C411 C 0.0253 0.58711 0.85526 0.0
C412 C 0.03096 0.60463 0.99466 0.0
C413 C 1.01843 0.62826 0.97269 0.0
C414 C 1.00979 0.63114 0.89088 0.0
C415 C 1.0134 0.61104 0.83302 0.0
H416 H 0.04959 0.27439 0.32207 0.0
H417 H 0.10762 0.21961 0.23796 0.0
H418 H 0.04064 0.24592 0.43584 0.0
H419 H 0.09707 0.19015 0.34846 0.0
H420 H 0.063 0.13132 0.5062 0.0
H421 H 0.08689 0.17239 0.48033 0.0
H422 H 1.01391 0.20798 0.39862 0.0
H423 H 0.99036 0.16728 0.42464 0.0
C424 C 0.06132 0.25685 0.32938 0.0
C425 C 0.07836 0.24854 0.26837 0.0
C426 C 0.05596 0.24038 0.39462 0.0
C427 C 0.06702 0.2152 0.39837 0.0
C428 C 0.0877 0.20919 0.3464 0.0
C429 C 0.0935 0.22593 0.28209 0.0
C430 C 0.05213 0.14815 0.48372 0.0
C431 C 0.02498 0.14603 0.46514 0.0
C432 C 0.06575 0.17167 0.4698 0.0
C433 C 0.05241 0.1934 0.43698 0.0
C434 C 0.02485 0.19182 0.42519 0.0
C435 C 1.01128 0.16837 0.43921 0.0
H436 H 0.34109 0.12888 0.13707 0.0
H437 H 0.2867 0.10709 0.32379 0.0
H438 H 0.37601 0.13255 0.23938 0.0
H439 H 0.3205 0.115 0.42628 0.0
H440 H 0.37714 0.04456 0.46785 0.0
H441 H 0.34455 0.07624 0.42985 0.0
H442 H 0.40562 0.12972 0.34982 0.0
H443 H 0.43871 0.09716 0.38869 0.0
C444 C 0.33616 0.12584 0.20012 0.0
C445 C 0.31226 0.11346 0.22053 0.0
C446 C 0.35626 0.12859 0.25957 0.0
C447 C 0.35157 0.12085 0.34014 0.0
C448 C 0.3252 0.11852 0.36324 0.0
C449 C 0.30556 0.11413 0.30342 0.0
C450 C 0.38379 0.06334 0.44443 0.0
C451 C 0.41045 0.06806 0.42963 0.0
C452 C 0.36498 0.08191 0.42312 0.0
C453 C 0.37221 0.10581 0.38578 0.0
C454 C 0.3992 0.11144 0.37708 0.0
C455 C 0.41814 0.09269 0.39856 0.0
H456 H 0.57879 0.35625 0.22425 0.0
H457 H 0.61641 0.28404 0.30081 0.0
H458 H 0.60885 0.38132 0.31019 0.0
H459 H 0.64587 0.3099 0.39326 0.0
H460 H 0.63475 0.38099 0.61323 0.0
H461 H 0.63142 0.34296 0.52205 0.0
H462 H 0.6612 0.39007 0.32646 0.0
H463 H 0.66286 0.42833 0.41422 0.0
C464 C 0.59394 0.34562 0.25751 0.0
C465 C 0.59542 0.318 0.25349 0.0
C466 C 0.61121 0.36013 0.30734 0.0
C467 C 0.63015 0.34758 0.35665 0.0
C468 C 0.63172 0.31998 0.35442 0.0
C469 C 0.61467 0.30528 0.30229 0.0
C470 C 0.64141 0.38312 0.55146 0.0
C471 C 0.64734 0.40822 0.51989 0.0
C472 C 0.63996 0.36112 0.49972 0.0
C473 C 0.64511 0.36401 0.41672 0.0
C474 C 0.65665 0.38758 0.39013 0.0
C475 C 0.65757 0.40965 0.44109 0.0
H476 H 0.2341 0.53752 0.30804 0.0
H477 H 0.27371 0.60995 0.24573 0.0
H478 H 0.21085 0.56024 0.41456 0.0
H479 H 0.25025 0.63323 0.35324 0.0
H480 H 0.16048 0.65617 0.41158 0.0
H481 H 0.2027 0.64401 0.357 0.0
H482 H 0.21182 0.58491 0.54356 0.0
H483 H 0.16912 0.59582 0.59514 0.0
C484 C 0.23824 0.55826 0.31901 0.0
C485 C 0.25538 0.57215 0.26915 0.0
C486 C 0.22519 0.57129 0.38049 0.0
C487 C 0.22881 0.59859 0.3927 0.0
C488 C 0.24713 0.61222 0.34527 0.0
C489 C 0.26048 0.599 0.28405 0.0
C490 C 0.17186 0.64114 0.4426 0.0
C491 C 0.16079 0.62617 0.5052 0.0
C492 C 0.19625 0.63436 0.41181 0.0
C493 C 0.21003 0.61278 0.44417 0.0
C494 C 0.2012 0.60113 0.51602 0.0
C495 C 0.1767 0.60765 0.54611 0.0
H496 H 0.97948 0.79071 0.07753 0.0
H497 H 0.92993 0.82501 0.25852 0.0
H498 H 0.97617 0.83012 0.99742 0.0
H499 H 0.92724 0.86526 0.17843 0.0
H500 H 1.00455 0.92157 0.16461 0.0
H501 H 0.97121 0.88845 0.19153 0.0
H502 H 0.96221 0.87205 0.9335 0.0
H503 H 0.99548 0.90579 0.90634 0.0
C504 C 0.96648 0.80599 0.09805 0.0
C505 C 0.95632 0.80547 0.17678 0.0
C506 C 0.96457 0.82884 0.0517 0.0
C507 C 0.95272 0.85132 0.08424 0.0
C508 C 0.93732 0.84847 0.15352 0.0
C509 C 0.93894 0.82544 0.19945 0.0
C510 C 0.99485 0.91159 0.11337 0.0
C511 C 1.00336 0.91551 0.03376 0.0
C512 C 0.97542 0.89276 0.1286 0.0
C513 C 0.96427 0.87736 0.06451 0.0
C514 C 0.97066 0.88341 0.98404 0.0
C515 C 0.99002 0.90237 0.96879 0.0
H516 H 0.77812 0.94274 0.09762 0.0
H517 H 0.72128 0.91762 0.27359 0.0
H518 H 0.74567 0.93661 0.99013 0.0
H519 H 0.68773 0.9156 0.16651 0.0
H520 H 0.62685 0.95179 1.01328 0.0
H521 H 0.65998 0.91907 0.05027 0.0
H522 H 0.72129 0.97552 0.99294 0.0
H523 H 0.68869 1.00746 0.95714 0.0
C524 C 0.75905 0.9352 0.11439 0.0
C525 C 0.75142 0.93394 0.19633 0.0
C526 C 0.74019 0.93182 0.05171 0.0
C527 C 0.71356 0.92886 0.07108 0.0
C528 C 0.70778 0.91987 0.1496 0.0
C529 C 0.72704 0.92168 0.21184 0.0
C530 C 0.6475 0.95692 1.00796 0.0
C531 C 0.65521 0.98241 0.98415 0.0
C532 C 0.66645 0.93808 0.02822 0.0
C533 C 0.69345 0.94446 0.02535 0.0
C534 C 0.70085 0.96933 0.99489 0.0
C535 C 0.68203 0.98802 0.97492 0.0
H536 H 0.42949 0.73119 0.27869 0.0
H537 H 0.4692 0.74291 0.05216 0.0
H538 H 0.3968 0.70295 0.2082 0.0
H539 H 0.43708 0.71481 0.98241 0.0
H540 H 0.39457 0.65358 0.86694 0.0
H541 H 0.39551 0.69675 0.93329 0.0
H542 H 0.40722 0.65916 0.16693 0.0
H543 H 0.40653 0.61672 0.10175 0.0
C544 C 0.43076 0.72839 0.21343 0.0
C545 C 0.45232 0.73863 0.17139 0.0
C546 C 0.412 0.7123 0.17301 0.0
C547 C 0.41467 0.70599 0.09009 0.0
C548 C 0.43423 0.71918 0.0462 0.0
C549 C 0.45287 0.73531 0.08646 0.0
C550 C 0.39643 0.65455 0.93279 0.0
C551 C 0.40167 0.63172 0.97845 0.0
C552 C 0.39689 0.6793 0.97082 0.0
C553 C 0.4025 0.6815 0.05501 0.0
C554 C 0.40307 0.65839 0.10188 0.0
C555 C 0.40269 0.63375 0.064 0.0
H556 H 0.77378 0.50889 0.09524 0.0
H557 H 0.82824 0.574 0.13336 0.0
H558 H 0.79817 0.49482 0.97657 0.0
H559 H 0.85259 0.56011 0.01539 0.0
H560 H 0.90068 0.52979 0.82947 0.0
H561 H 0.85825 0.54706 0.86944 0.0
H562 H 0.84292 0.47526 1.00124 0.0
H563 H 0.88527 0.45818 0.96193 0.0
C564 C 0.79022 0.52089 0.07576 0.0
C565 C 0.79956 0.5422 0.12369 0.0
C566 C 0.80419 0.5128 1.00817 0.0
C567 C 0.82748 0.52609 0.98771 0.0
C568 C 0.83464 0.5495 0.02937 0.0
C569 C 0.82086 0.5574 0.09729 0.0
C570 C 0.88786 0.51747 0.86521 0.0
C571 C 0.8965 0.49303 0.89502 0.0
C572 C 0.86355 0.52727 0.88739 0.0
C573 C 0.84753 0.5127 0.93946 0.0
C574 C 0.85477 0.4869 0.96061 0.0
C575 C 0.87913 0.47713 0.93859 0.0
H576 H 0.02019 0.233 0.95467 0.0
H577 H 0.10341 0.21927 0.98427 0.0
H578 H 1.01494 0.1908 0.88085 0.0
H579 H 0.09831 0.17741 0.9115 0.0
H580 H 0.07326 0.0898 0.89996 0.0
H581 H 0.0786 0.13491 0.94973 0.0
H582 H 0.02574 0.16195 0.75858 0.0
H583 H 0.02049 0.11649 0.70788 0.0
C584 C 0.03752 0.22152 0.94273 0.0
C585 C 0.06228 0.22979 0.97498 0.0
C586 C 0.03449 0.19712 0.90102 0.0
C587 C 0.05611 0.18021 0.89128 0.0
C588 C 0.08106 0.18944 0.91897 0.0
C589 C 0.08408 0.21373 0.95982 0.0
C590 C 0.06282 0.10526 0.86791 0.0
C591 C 0.04646 0.09917 0.79952 0.0
C592 C 0.06601 0.13134 0.89639 0.0
C593 C 0.05272 0.15241 0.85831 0.0
C594 C 0.03623 0.14639 0.78996 0.0
C595 C 0.03333 0.12023 0.76057 0.0
H596 H 0.31555 0.04914 0.91447 0.0
H597 H 0.35707 0.03357 0.14085 0.0
H598 H 0.3563 0.04228 0.84021 0.0
H599 H 0.39776 0.02693 0.0676 0.0
H600 H 0.47109 0.05402 0.92763 0.0
H601 H 0.42905 0.0555 0.99668 0.0
H602 H 0.39171 1.01179 0.79825 0.0
H603 H 0.43382 1.01014 0.72947 0.0
C604 C 0.33308 0.0431 0.94807 0.0
C605 C 0.33267 0.04109 0.03362 0.0
C606 C 0.35666 0.0395 0.90559 0.0
C607 C 0.38073 0.03438 0.94754 0.0
C608 C 0.37993 0.03121 0.03276 0.0
C609 C 0.35637 0.03446 0.07487 0.0
C610 C 0.45396 0.04478 0.89835 0.0
C611 C 0.45618 0.03196 0.82248 0.0
C612 C 0.42973 0.04542 0.93848 0.0
C613 C 0.40668 0.03359 0.90385 0.0
C614 C 0.4088 0.02122 0.82719 0.0
C615 C 0.43312 0.02022 0.78764 0.0
H616 H 0.49779 0.33162 0.08112 0.0
H617 H 0.56749 0.31726 0.94503 0.0
H618 H 0.48866 0.37055 0.99795 0.0
H619 H 0.55915 0.35639 0.86368 0.0
H620 H 0.53648 0.42668 0.71054 0.0
H621 H 0.53611 0.38237 0.76801 0.0
H622 H 0.50645 0.41358 0.9926 0.0
H623 H 0.50607 0.45747 0.93441 0.0
C624 C 0.51054 0.33614 0.0311 0.0
C625 C 0.53315 0.32108 0.01901 0.0
C626 C 0.5057 0.35887 0.98443 0.0
C627 C 0.52345 0.36725 0.92468 0.0
C628 C 0.54484 0.35079 0.9083 0.0
C629 C 0.54959 0.32811 0.95473 0.0
C630 C 0.52963 0.42406 0.77191 0.0
C631 C 0.52138 0.44589 0.8176 0.0
C632 C 0.52952 0.39855 0.80524 0.0
C633 C 0.52124 0.39402 0.88546 0.0
C634 C 0.51251 0.41586 0.93028 0.0
C635 C 0.51253 0.44129 0.89693 0.0
H636 H 0.23789 0.49104 1.00211 0.0
H637 H 0.23161 0.57513 0.97547 0.0
H638 H 0.19887 0.48476 0.91182 0.0
H639 H 0.19261 0.56923 0.88788 0.0
H640 H 0.10869 0.48755 0.84925 0.0
H641 H 0.15224 0.48992 0.91549 0.0
H642 H 0.17249 0.55608 0.76392 0.0
H643 H 0.1287 0.55421 0.69973 0.0
C644 C 0.22862 0.50813 0.97511 0.0
C645 C 0.23803 0.53357 0.99531 0.0
C646 C 0.20594 0.50462 0.92436 0.0
C647 C 0.19214 0.52647 0.89244 0.0
C648 C 0.20258 0.5518 0.90972 0.0
C649 C 0.22507 0.55525 0.96024 0.0
C650 C 0.12248 0.50248 0.82944 0.0
C651 C 0.11487 0.52081 0.76929 0.0
C652 C 0.14768 0.50375 0.86727 0.0
C653 C 0.16618 0.52332 0.84602 0.0
C654 C 0.15882 0.54102 0.7836 0.0
C655 C 0.1336 0.53985 0.74616 0.0
H656 H 0.04682 0.82102 0.37662 0.0
H657 H 0.97283 0.80928 0.49373 0.0
H658 H 0.05479 0.86134 0.45759 0.0
H659 H 0.98055 0.84938 0.5743 0.0
H660 H 0.98338 0.94038 0.59958 0.0
H661 H 0.97968 0.89635 0.53934 0.0
H662 H 0.06211 0.88356 0.59343 0.0
H663 H 0.0658 0.9277 0.65437 0.0
C664 C 0.03286 0.82632 0.42246 0.0
C665 C 1.00945 0.81146 0.4298 0.0
C666 C 0.03722 0.84971 0.46829 0.0
C667 C 1.01811 0.85911 0.52186 0.0
C668 C 0.99556 0.84321 0.5329 0.0
C669 C 0.99134 0.81984 0.48779 0.0
C670 C 1.00074 0.92821 0.59922 0.0
C671 C 0.02489 0.93786 0.63229 0.0
C672 C 0.99859 0.90275 0.56492 0.0
C673 C 0.02057 0.88606 0.56145 0.0
C674 C 0.04475 0.89572 0.59441 0.0
C675 C 0.04683 0.92109 0.62984 0.0
H676 H 0.74562 0.97604 0.51521 0.0
H677 H 0.71747 0.02363 0.31583 0.0
H678 H 0.70468 0.98347 0.58676 0.0
H679 H 0.67655 0.0315 0.38711 0.0
H680 H 0.59412 1.01037 0.47959 0.0
H681 H 0.63719 1.00806 0.41817 0.0
H682 H 0.67466 1.01122 0.65732 0.0
H683 H 0.63137 1.0132 0.71884 0.0
C684 C 0.73117 0.98916 0.48831 0.0
C685 C 0.73542 0.99998 0.41078 0.0
C686 C 0.7074 0.99323 0.52904 0.0
C687 C 0.68672 1.00791 0.49304 0.0
C688 C 0.69155 0.01973 0.41697 0.0
C689 C 0.71539 1.01575 0.37656 0.0
C690 C 0.61147 1.01052 0.51946 0.0
C691 C 0.60887 1.0119 0.60474 0.0
C692 C 0.63642 1.00946 0.4839 0.0
C693 C 0.65992 1.00964 0.53204 0.0
C694 C 0.65731 1.01084 0.61751 0.0
C695 C 0.6323 1.01205 0.65311 0.0
H696 H 0.54812 0.70135 0.30488 0.0
H697 H 0.49402 0.73455 0.4734 0.0
H698 H 0.55439 0.66343 0.39433 0.0
H699 H 0.50093 0.6974 0.56515 0.0
H700 H 0.48909 0.61243 0.65102 0.0
H701 H 0.48828 0.65342 0.57509 0.0
H702 H 0.56965 0.64279 0.5136 0.0
H703 H 0.57006 0.60117 0.5873 0.0
C704 C 0.53847 0.70108 0.36294 0.0
C705 C 0.52098 0.72123 0.38273 0.0
C706 C 0.5419 0.67918 0.4144 0.0
C707 C 0.52791 0.6768 0.48733 0.0
C708 C 0.51163 0.69791 0.50903 0.0
C709 C 0.50803 0.7196 0.45719 0.0
C710 C 0.50692 0.61887 0.62193 0.0
C711 C 0.52962 0.60323 0.62565 0.0
C712 C 0.50654 0.64267 0.57844 0.0
C713 C 0.52894 0.65188 0.53754 0.0
C714 C 0.55183 0.63644 0.54279 0.0
C715 C 0.55214 0.61251 0.58584 0.0
H716 H 0.81755 0.56885 0.48923 0.0
H717 H 0.83629 0.49893 0.35345 0.0
H718 H 0.8601 0.56586 0.56484 0.0
H719 H 0.87858 0.49629 0.42689 0.0
H720 H 0.96353 0.53008 0.4649 0.0
H721 H 0.91791 0.53038 0.41481 0.0
H722 H 0.89113 0.533 0.66173 0.0
H723 H 0.93719 0.53205 0.71276 0.0
C724 C 0.83027 0.55236 0.47756 0.0
C725 C 0.82346 0.53411 0.41533 0.0
C726 C 0.85474 0.55075 0.52035 0.0
C727 C 0.87295 0.53107 0.50091 0.0
C728 C 0.86523 0.51189 0.4427 0.0
C729 C 0.84086 0.51329 0.40105 0.0
C730 C 0.94804 0.53077 0.50891 0.0
C731 C 0.95423 0.53105 0.59303 0.0
C732 C 0.9218 0.53083 0.48005 0.0
C733 C 0.90079 0.53164 0.53414 0.0
C734 C 0.90683 0.53246 0.61842 0.0
C735 C 0.93323 0.53183 0.64756 0.0
loop_
_geom_bond_atom_site_label_1
_geom_bond_atom_site_label_2
_geom_bond_distance
_geom_bond_site_symmetry_2
_ccdc_geom_bond_type
H0 C5 0.930 . S
H1 C8 0.930 . S
H2 C10 0.930 . S
H3 C4 1.016 . S
C4 H3 1.016 . S
C4 N11 1.286 . S
C5 H0 0.930 . S
C5 C6 1.397 . S
C5 C7 1.361 . S
C6 C5 1.397 . S
C6 C10 1.390 . S
C7 C5 1.361 . S
C7 C8 1.393 . S
C7 N11 1.413 . S
C8 H1 0.930 . S
C8 C7 1.393 . S
C8 C9 1.399 . S
C9 C8 1.399 . S
C9 C10 1.381 . S
C10 H2 0.930 . S
C10 C6 1.390 . S
C10 C9 1.381 . S
N11 C4 1.286 . S
N11 C7 1.413 . S
H12 C17 0.930 . S
H13 C20 0.930 . S
H14 C22 0.930 . S
H15 C16 1.016 . S
C16 H15 1.016 . S
C16 N23 1.286 . S
C17 H12 0.930 . S
C17 C18 1.397 . S
C17 C19 1.361 . S
C18 C17 1.397 . S
C18 C22 1.390 . S
C19 C17 1.361 . S
C19 C20 1.393 . S
C19 N23 1.413 . S
C20 H13 0.930 . S
C20 C19 1.393 . S
C20 C21 1.399 . S
C21 C20 1.399 . S
C21 C22 1.381 . S
C22 H14 0.930 . S
C22 C18 1.390 . S
C22 C21 1.381 . S
N23 C16 1.286 . S
N23 C19 1.413 . S
H24 C29 0.930 . S
H25 C32 0.930 . S
H26 C34 0.930 . S
H27 C28 1.016 . S
C28 H27 1.016 . S
C28 N35 1.286 . S
C29 H24 0.930 . S
C29 C30 1.397 . S
C29 C31 1.361 . S
C30 C29 1.397 . S
C30 C34 1.390 . S
C31 C29 1.361 . S
C31 C32 1.393 . S
C31 N35 1.413 . S
C32 H25 0.930 . S
C32 C31 1.393 . S
C32 C33 1.399 . S
C33 C32 1.399 . S
C33 C34 1.381 . S
C34 H26 0.930 . S
C34 C30 1.390 . S
C34 C33 1.381 . S
N35 C28 1.286 . S
N35 C31 1.413 . S
H36 C41 0.930 . S
H37 C44 0.930 . S
H38 C46 0.930 . S
H39 C40 1.016 . S
C40 H39 1.016 . S
C40 N47 1.286 . S
C41 H36 0.930 . S
C41 C42 1.397 . S
C41 C43 1.361 . S
C42 C41 1.397 . S
C42 C46 1.390 . S
C43 C41 1.361 . S
C43 C44 1.393 . S
C43 N47 1.413 . S
C44 H37 0.930 . S
C44 C43 1.393 . S
C44 C45 1.399 . S
C45 C44 1.399 . S
C45 C46 1.381 . S
C46 H38 0.930 . S
C46 C42 1.390 . S
C46 C45 1.381 . S
N47 C40 1.286 . S
N47 C43 1.413 . S
H48 C53 0.930 1_556 S
H49 C56 0.930 . S
H50 C58 0.930 . S
H51 C52 1.016 . S
C52 H51 1.016 . S
C52 N59 1.286 . S
C53 H48 0.930 1_554 S
C53 C54 1.396 1_554 S
C53 C55 1.361 . S
C54 C53 1.396 1_556 S
C54 C58 1.384 1_556 S
C55 C53 1.361 . S
C55 C56 1.393 . S
C55 N59 1.413 . S
C56 H49 0.930 . S
C56 C55 1.393 . S
C56 C57 1.399 . S
C57 C56 1.399 . S
C57 C58 1.381 . S
C58 H50 0.930 . S
C58 C54 1.384 1_554 S
C58 C57 1.381 . S
N59 C52 1.286 . S
N59 C55 1.413 . S
H60 C65 0.930 . S
H61 C68 0.930 . S
H62 C70 0.930 . S
H63 C64 1.016 . S
C64 H63 1.016 . S
C64 N71 1.286 . S
C65 H60 0.930 . S
C65 C66 1.397 . S
C65 C67 1.361 1_556 S
C66 C65 1.397 . S
C66 C70 1.390 1_556 S
C67 C65 1.361 1_554 S
C67 C68 1.393 . S
C67 N71 1.413 . S
C68 H61 0.930 . S
C68 C67 1.393 . S
C68 C69 1.399 . S
C69 C68 1.399 . S
C69 C70 1.381 . S
C70 H62 0.930 . S
C70 C66 1.390 1_554 S
C70 C69 1.381 . S
N71 C64 1.286 . S
N71 C67 1.413 . S
H72 C77 0.930 . S
H73 C80 0.930 . S
H74 C82 0.930 . S
H75 C76 1.016 . S
C76 H75 1.016 . S
C76 N83 1.286 . S
C77 H72 0.930 . S
C77 C78 1.397 . S
C77 C79 1.361 1_556 S
C78 C77 1.397 . S
C78 C82 1.390 . S
C79 C77 1.361 1_554 S
C79 C80 1.393 . S
C79 N83 1.413 . S
C80 H73 0.930 . S
C80 C79 1.393 . S
C80 C81 1.399 . S
C81 C80 1.399 . S
C81 C82 1.381 1_554 S
C82 H74 0.930 . S
C82 C78 1.390 . S
C82 C81 1.381 1_556 S
N83 C76 1.286 . S
N83 C79 1.413 . S
H84 C89 0.929 . S
H85 C92 0.930 . S
H86 C94 0.930 . S
H87 C88 1.016 . S
C88 H87 1.016 . S
C88 N95 1.286 . S
C89 H84 0.929 . S
C89 C90 1.397 . S
C89 C91 1.363 1_556 S
C90 C89 1.397 . S
C90 C94 1.390 1_556 S
C91 C89 1.363 1_554 S
C91 C92 1.393 . S
C91 N95 1.413 . S
C92 H85 0.930 . S
C92 C91 1.393 . S
C92 C93 1.399 . S
C93 C92 1.399 . S
C93 C94 1.381 . S
C94 H86 0.930 . S
C94 C90 1.390 1_554 S
C94 C93 1.381 . S
N95 C88 1.286 . S
N95 C91 1.413 . S
Eu96 C105 2.828 . S
Eu96 O107 2.392 . S
Eu96 O109 2.418 1_545 S
Eu96 O114 2.373 1_655 S
Eu96 O117 2.488 . S
Eu96 O118 2.478 . S
Eu96 O119 2.349 1_655 S
Eu97 O106 2.373 1_455 S
Eu97 O110 2.488 . S
Eu97 O111 2.471 . S
Eu97 O112 2.349 . S
Eu97 O115 2.392 1_565 S
Eu97 O116 2.418 1_565 S
Eu97 C126 2.828 . S
C98 O116 1.244 . S
C98 O119 1.265 . S
C99 C100 1.379 1_655 S
C99 C103 1.373 . S
C99 C105 1.505 . S
C100 C99 1.379 1_455 S
C100 C102 1.369 . S
C100 H128 0.930 . S
C101 C103 1.383 . S
C101 C104 1.382 1_655 S
C101 H129 0.930 . S
C102 C100 1.369 . S
C102 C104 1.392 . S
C102 H130 0.930 . S
C103 C99 1.373 . S
C103 C101 1.383 . S
C103 H131 0.931 . S
C104 C101 1.382 1_455 S
C104 C102 1.392 . S
C105 Eu96 2.828 . S
C105 C99 1.505 . S
C105 O117 1.249 . S
C105 O118 1.249 . S
O106 Eu97 2.373 1_655 S
O106 C108 1.258 1_565 S
O107 Eu96 2.392 . S
O107 C108 1.242 . S
C108 O106 1.258 1_545 S
C108 O107 1.242 . S
O109 Eu96 2.418 1_565 S
O109 C113 1.244 . S
O110 Eu97 2.488 . S
O110 C126 1.249 . S
O111 Eu97 2.471 . S
O111 C126 1.244 . S
O112 Eu97 2.349 . S
O112 C113 1.265 1_455 S
C113 O109 1.244 . S
C113 O112 1.265 1_655 S
O114 Eu96 2.373 1_455 S
O114 C127 1.258 . S
O115 Eu97 2.392 1_545 S
O115 C127 1.242 . S
O116 Eu97 2.418 1_545 S
O116 C98 1.244 . S
O117 Eu96 2.488 . S
O117 C105 1.249 . S
O118 Eu96 2.478 . S
O118 C105 1.249 . S
O119 Eu96 2.349 1_455 S
O119 C98 1.265 . S
C120 C121 1.379 . S
C120 C124 1.373 1_556 S
C120 C126 1.505 . S
C121 C120 1.379 . S
C121 C123 1.375 1_556 S
C121 H132 0.930 1_455 S
C122 C124 1.383 . S
C122 C125 1.382 . S
C122 H133 0.930 . S
C123 C121 1.375 1_554 S
C123 C125 1.403 . S
C123 H134 0.914 1_455 S
C124 C120 1.373 1_554 S
C124 C122 1.383 . S
C124 H135 0.931 . S
C125 C122 1.382 . S
C125 C123 1.403 . S
C126 Eu97 2.828 . S
C126 O110 1.249 . S
C126 O111 1.244 . S
C126 C120 1.505 . S
C127 O114 1.258 . S
C127 O115 1.242 . S
H128 C100 0.930 . S
H129 C101 0.930 . S
H130 C102 0.930 . S
H131 C103 0.931 . S
H132 C121 0.930 1_655 S
H133 C122 0.930 . S
H134 C123 0.914 1_655 S
H135 C124 0.931 . S
Eu136 C145 2.828 . S
Eu136 O147 2.392 . S
Eu136 O149 2.418 . S
Eu136 O154 2.373 . S
Eu136 O157 2.488 . S
Eu136 O158 2.471 . S
Eu136 O159 2.349 1_545 S
Eu137 O146 2.373 1_565 S
Eu137 O150 2.488 . S
Eu137 O151 2.471 1_565 S
Eu137 O152 2.349 1_565 S
Eu137 O155 2.392 . S
Eu137 O156 2.418 . S
Eu137 C166 2.828 . S
C138 O156 1.244 . S
C138 O159 1.265 . S
C139 C140 1.379 . S
C139 C143 1.373 . S
C139 C145 1.505 . S
C140 C139 1.379 . S
C140 C142 1.369 . S
C140 H168 0.930 1_545 S
C141 C143 1.383 . S
C141 C144 1.382 . S
C141 H169 0.930 . S
C142 C140 1.369 . S
C142 C144 1.392 . S
C142 H170 0.930 1_545 S
C143 C139 1.373 . S
C143 C141 1.383 . S
C143 H171 0.931 . S
C144 C141 1.382 . S
C144 C142 1.392 . S
C145 Eu136 2.828 . S
C145 C139 1.505 . S
C145 O157 1.249 . S
C145 O158 1.244 . S
O146 Eu137 2.373 1_545 S
O146 C148 1.258 . S
O147 Eu136 2.392 . S
O147 C148 1.242 . S
C148 O146 1.258 . S
C148 O147 1.242 . S
O149 Eu136 2.418 . S
O149 C153 1.244 . S
O150 Eu137 2.488 . S
O150 C166 1.249 . S
O151 Eu137 2.471 1_545 S
O151 C166 1.244 1_545 S
O152 Eu137 2.349 1_545 S
O152 C153 1.265 . S
C153 O149 1.244 . S
C153 O152 1.265 . S
O154 Eu136 2.373 . S
O154 C167 1.258 1_545 S
O155 Eu137 2.392 . S
O155 C167 1.242 . S
O156 Eu137 2.418 . S
O156 C138 1.244 . S
O157 Eu136 2.488 . S
O157 C145 1.249 . S
O158 Eu136 2.471 . S
O158 C145 1.244 . S
O159 Eu136 2.349 1_565 S
O159 C138 1.265 . S
C160 C161 1.379 1_565 S
C160 C164 1.373 . S
C160 C166 1.505 . S
C161 C160 1.379 1_545 S
C161 C163 1.369 . S
C161 H172 0.930 . S
C162 C164 1.383 . S
C162 C165 1.382 . S
C162 H173 0.930 . S
C163 C161 1.369 . S
C163 C165 1.392 1_545 S
C163 H174 0.930 . S
C164 C160 1.373 . S
C164 C162 1.383 . S
C164 H175 0.931 . S
C165 C162 1.382 . S
C165 C163 1.392 1_565 S
C166 Eu137 2.828 . S
C166 O150 1.249 . S
C166 O151 1.244 1_565 S
C166 C160 1.505 . S
C167 O154 1.258 1_565 S
C167 O155 1.242 . S
H168 C140 0.930 1_565 S
H169 C141 0.930 . S
H170 C142 0.930 1_565 S
H171 C143 0.931 . S
H172 C161 0.930 . S
H173 C162 0.930 . S
H174 C163 0.930 . S
H175 C164 0.931 . S
Eu176 C185 2.828 . S
Eu176 O187 2.392 . S
Eu176 O189 2.418 . S
Eu176 O194 2.373 . S
Eu176 O197 2.488 . S
Eu176 O198 2.471 . S
Eu176 O199 2.349 . S
Eu177 O186 2.373 . S
Eu177 O190 2.488 . S
Eu177 O191 2.471 . S
Eu177 O192 2.349 . S
Eu177 O195 2.392 . S
Eu177 O196 2.418 . S
Eu177 C206 2.828 . S
C178 O196 1.244 . S
C178 O199 1.265 . S
C179 C180 1.379 . S
C179 C183 1.373 . S
C179 C185 1.505 . S
C180 C179 1.379 . S
C180 C182 1.369 . S
C180 H208 0.930 . S
C181 C183 1.383 . S
C181 C184 1.382 . S
C181 H209 0.930 . S
C182 C180 1.369 . S
C182 C184 1.392 . S
C182 H210 0.930 . S
C183 C179 1.373 . S
C183 C181 1.383 . S
C183 H211 0.931 . S
C184 C181 1.382 . S
C184 C182 1.392 . S
C185 Eu176 2.828 . S
C185 C179 1.505 . S
C185 O197 1.249 . S
C185 O198 1.244 . S
O186 Eu177 2.373 . S
O186 C188 1.258 . S
O187 Eu176 2.392 . S
O187 C188 1.242 . S
C188 O186 1.258 . S
C188 O187 1.242 . S
O189 Eu176 2.418 . S
O189 C193 1.244 . S
O190 Eu177 2.488 . S
O190 C206 1.249 . S
O191 Eu177 2.471 . S
O191 C206 1.244 . S
O192 Eu177 2.349 . S
O192 C193 1.265 . S
C193 O189 1.244 . S
C193 O192 1.265 . S
O194 Eu176 2.373 . S
O194 C207 1.258 . S
O195 Eu177 2.392 . S
O195 C207 1.242 . S
O196 Eu177 2.418 . S
O196 C178 1.244 . S
O197 Eu176 2.488 . S
O197 C185 1.249 . S
O198 Eu176 2.471 . S
O198 C185 1.244 . S
O199 Eu176 2.349 . S
O199 C178 1.265 . S
C200 C201 1.379 . S
C200 C204 1.373 . S
C200 C206 1.505 . S
C201 C200 1.379 . S
C201 C203 1.369 . S
C201 H212 0.930 . S
C202 C204 1.383 . S
C202 C205 1.382 . S
C202 H213 0.930 . S
C203 C201 1.369 . S
C203 C205 1.392 . S
C203 H214 0.930 . S
C204 C200 1.373 . S
C204 C202 1.383 . S
C204 H215 0.931 . S
C205 C202 1.382 . S
C205 C203 1.392 . S
C206 Eu177 2.828 . S
C206 O190 1.249 . S
C206 O191 1.244 . S
C206 C200 1.505 . S
C207 O194 1.258 . S
C207 O195 1.242 . S
H208 C180 0.930 . S
H209 C181 0.930 . S
H210 C182 0.930 . S
H211 C183 0.931 . S
H212 C201 0.930 . S
H213 C202 0.930 . S
H214 C203 0.930 . S
H215 C204 0.931 . S
Eu216 C225 2.828 . S
Eu216 O227 2.392 . S
Eu216 O229 2.418 1_455 S
Eu216 O234 2.373 . S
Eu216 O237 2.488 . S
Eu216 O238 2.471 . S
Eu216 O239 2.349 . S
Eu217 O226 2.373 . S
Eu217 O230 2.488 . S
Eu217 O231 2.471 . S
Eu217 O232 2.349 . S
Eu217 O235 2.392 1_655 S
Eu217 O236 2.418 1_655 S
Eu217 C246 2.828 . S
C218 O236 1.244 . S
C218 O239 1.265 . S
C219 C220 1.379 . S
C219 C223 1.373 . S
C219 C225 1.505 . S
C220 C219 1.379 . S
C220 C222 1.369 . S
C220 H248 0.930 . S
C221 C223 1.383 . S
C221 C224 1.382 . S
C221 H249 0.930 . S
C222 C220 1.369 . S
C222 C224 1.392 . S
C222 H250 0.930 . S
C223 C219 1.373 . S
C223 C221 1.383 . S
C223 H251 0.931 . S
C224 C221 1.382 . S
C224 C222 1.392 . S
C225 Eu216 2.828 . S
C225 C219 1.505 . S
C225 O237 1.249 . S
C225 O238 1.244 . S
O226 Eu217 2.373 . S
O226 C228 1.258 1_655 S
O227 Eu216 2.392 . S
O227 C228 1.242 . S
C228 O226 1.258 1_455 S
C228 O227 1.242 . S
O229 Eu216 2.418 1_655 S
O229 C233 1.244 . S
O230 Eu217 2.488 . S
O230 C246 1.249 . S
O231 Eu217 2.471 . S
O231 C246 1.244 . S
O232 Eu217 2.349 . S
O232 C233 1.265 . S
C233 O229 1.244 . S
C233 O232 1.265 . S
O234 Eu216 2.373 . S
O234 C247 1.258 . S
O235 Eu217 2.392 1_455 S
O235 C247 1.242 . S
O236 Eu217 2.418 1_455 S
O236 C218 1.244 . S
O237 Eu216 2.488 . S
O237 C225 1.249 . S
O238 Eu216 2.471 . S
O238 C225 1.244 . S
O239 Eu216 2.349 . S
O239 C218 1.265 . S
C240 C241 1.379 . S
C240 C244 1.373 1_556 S
C240 C246 1.505 . S
C241 C240 1.379 . S
C241 C243 1.369 . S
C241 H252 0.930 . S
C242 C244 1.383 . S
C242 C245 1.382 . S
C242 H253 0.930 . S
C243 C241 1.369 . S
C243 C245 1.392 1_556 S
C243 H254 0.930 . S
C244 C240 1.373 1_554 S
C244 C242 1.383 . S
C244 H255 0.931 . S
C245 C242 1.382 . S
C245 C243 1.392 1_554 S
C246 Eu217 2.828 . S
C246 O230 1.249 . S
C246 O231 1.244 . S
C246 C240 1.505 . S
C247 O234 1.258 . S
C247 O235 1.242 . S
H248 C220 0.930 . S
H249 C221 0.930 . S
H250 C222 0.930 . S
H251 C223 0.931 . S
H252 C241 0.930 . S
H253 C242 0.930 . S
H254 C243 0.930 . S
H255 C244 0.931 . S
H256 C264 0.950 . S
H257 C269 0.950 . S
H258 C266 0.950 . S
H259 C268 0.950 . S
H260 C270 0.950 1_565 S
H261 C272 0.950 1_565 S
H262 C274 0.950 . S
H263 C275 0.950 . S
C264 H256 0.950 . S
C264 C265 1.386 . S
C264 C266 1.391 . S
C265 C264 1.386 . S
C265 C269 1.393 . S
C266 H258 0.950 . S
C266 C264 1.391 . S
C266 C267 1.400 . S
C267 C266 1.400 . S
C267 C268 1.398 . S
C267 C273 1.491 . S
C268 H259 0.950 . S
C268 C267 1.398 . S
C268 C269 1.391 . S
C269 H257 0.950 . S
C269 C265 1.393 . S
C269 C268 1.391 . S
C270 H260 0.950 1_545 S
C270 C271 1.386 . S
C270 C272 1.391 . S
C271 C270 1.386 . S
C271 C275 1.393 . S
C272 H261 0.950 1_545 S
C272 C270 1.391 . S
C272 C273 1.400 . S
C273 C267 1.491 . S
C273 C272 1.400 . S
C273 C274 1.398 . S
C274 H262 0.950 . S
C274 C273 1.398 . S
C274 C275 1.391 . S
C275 H263 0.950 . S
C275 C271 1.393 . S
C275 C274 1.391 . S
H276 C284 0.950 . S
H277 C289 0.950 . S
H278 C286 0.950 . S
H279 C288 0.950 . S
H280 C290 0.950 . S
H281 C292 0.950 . S
H282 C294 0.950 . S
H283 C295 0.950 . S
C284 H276 0.950 . S
C284 C285 1.386 . S
C284 C286 1.391 . S
C285 C284 1.386 . S
C285 C289 1.393 . S
C286 H278 0.950 . S
C286 C284 1.391 . S
C286 C287 1.400 . S
C287 C286 1.400 . S
C287 C288 1.398 . S
C287 C293 1.491 . S
C288 H279 0.950 . S
C288 C287 1.398 . S
C288 C289 1.391 . S
C289 H277 0.950 . S
C289 C285 1.393 . S
C289 C288 1.391 . S
C290 H280 0.950 . S
C290 C291 1.386 . S
C290 C292 1.391 . S
C291 C290 1.386 . S
C291 C295 1.393 . S
C292 H281 0.950 . S
C292 C290 1.391 . S
C292 C293 1.400 . S
C293 C287 1.491 . S
C293 C292 1.400 . S
C293 C294 1.398 . S
C294 H282 0.950 . S
C294 C293 1.398 . S
C294 C295 1.391 . S
C295 H283 0.950 . S
C295 C291 1.393 . S
C295 C294 1.391 . S
H296 C304 0.950 . S
H297 C309 0.950 . S
H298 C306 0.950 . S
H299 C308 0.950 . S
H300 C310 0.950 . S
H301 C312 0.950 . S
H302 C314 0.950 . S
H303 C315 0.950 . S
C304 H296 0.950 . S
C304 C305 1.386 . S
C304 C306 1.391 . S
C305 C304 1.386 . S
C305 C309 1.393 . S
C306 H298 0.950 . S
C306 C304 1.391 . S
C306 C307 1.400 . S
C307 C306 1.400 . S
C307 C308 1.398 . S
C307 C313 1.491 . S
C308 H299 0.950 . S
C308 C307 1.398 . S
C308 C309 1.391 . S
C309 H297 0.950 . S
C309 C305 1.393 . S
C309 C308 1.391 . S
C310 H300 0.950 . S
C310 C311 1.386 . S
C310 C312 1.391 . S
C311 C310 1.386 . S
C311 C315 1.393 . S
C312 H301 0.950 . S
C312 C310 1.391 . S
C312 C313 1.400 . S
C313 C307 1.491 . S
C313 C312 1.400 . S
C313 C314 1.398 . S
C314 H302 0.950 . S
C314 C313 1.398 . S
C314 C315 1.391 . S
C315 H303 0.950 . S
C315 C311 1.393 . S
C315 C314 1.391 . S
H316 C324 0.950 . S
H317 C329 0.950 . S
H318 C326 0.950 . S
H319 C328 0.950 . S
H320 C330 0.950 1_655 S
H321 C332 0.950 1_655 S
H322 C334 0.950 . S
H323 C335 0.950 . S
C324 H316 0.950 . S
C324 C325 1.386 . S
C324 C326 1.391 . S
C325 C324 1.386 . S
C325 C329 1.393 . S
C326 H318 0.950 . S
C326 C324 1.391 . S
C326 C327 1.400 . S
C327 C326 1.400 . S
C327 C328 1.398 . S
C327 C333 1.491 . S
C328 H319 0.950 . S
C328 C327 1.398 . S
C328 C329 1.391 . S
C329 H317 0.950 . S
C329 C325 1.393 . S
C329 C328 1.391 . S
C330 H320 0.950 1_455 S
C330 C331 1.386 . S
C330 C332 1.391 . S
C331 C330 1.386 . S
C331 C335 1.393 . S
C332 H321 0.950 1_455 S
C332 C330 1.391 . S
C332 C333 1.400 . S
C333 C327 1.491 . S
C333 C332 1.400 . S
C333 C334 1.398 . S
C334 H322 0.950 . S
C334 C333 1.398 . S
C334 C335 1.391 . S
C335 H323 0.950 . S
C335 C331 1.393 . S
C335 C334 1.391 . S
H336 C344 0.950 . S
H337 C349 0.950 . S
H338 C346 0.950 . S
H339 C348 0.949 . S
H340 C350 0.950 . S
H341 C352 0.950 . S
H342 C354 0.950 . S
H343 C355 0.950 . S
C344 H336 0.950 . S
C344 C345 1.386 . S
C344 C346 1.391 . S
C345 C344 1.386 . S
C345 C349 1.393 . S
C346 H338 0.950 . S
C346 C344 1.391 . S
C346 C347 1.400 . S
C347 C346 1.400 . S
C347 C348 1.398 . S
C347 C353 1.491 . S
C348 H339 0.949 . S
C348 C347 1.398 . S
C348 C349 1.391 . S
C349 H337 0.950 . S
C349 C345 1.393 . S
C349 C348 1.391 . S
C350 H340 0.950 . S
C350 C351 1.386 1_545 S
C350 C352 1.391 . S
C351 C350 1.386 1_565 S
C351 C355 1.393 . S
C352 H341 0.950 . S
C352 C350 1.391 . S
C352 C353 1.400 1_546 S
C353 C347 1.491 . S
C353 C352 1.400 1_564 S
C353 C354 1.398 . S
C354 H342 0.950 . S
C354 C353 1.398 . S
C354 C355 1.391 1_554 S
C355 H343 0.950 . S
C355 C351 1.393 . S
C355 C354 1.391 1_556 S
H356 C364 0.950 . S
H357 C369 0.950 . S
H358 C366 0.950 . S
H359 C368 0.950 . S
H360 C370 0.950 . S
H361 C372 0.950 . S
H362 C374 0.950 . S
H363 C375 0.950 . S
C364 H356 0.950 . S
C364 C365 1.386 . S
C364 C366 1.391 . S
C365 C364 1.386 . S
C365 C369 1.393 . S
C366 H358 0.950 . S
C366 C364 1.391 . S
C366 C367 1.400 . S
C367 C366 1.400 . S
C367 C368 1.398 . S
C367 C373 1.491 1_554 S
C368 H359 0.950 . S
C368 C367 1.398 . S
C368 C369 1.391 . S
C369 H357 0.950 . S
C369 C365 1.393 . S
C369 C368 1.391 . S
C370 H360 0.950 . S
C370 C371 1.386 . S
C370 C372 1.391 . S
C371 C370 1.386 . S
C371 C375 1.393 . S
C372 H361 0.950 . S
C372 C370 1.391 . S
C372 C373 1.400 . S
C373 C367 1.491 1_556 S
C373 C372 1.400 . S
C373 C374 1.398 . S
C374 H362 0.950 . S
C374 C373 1.398 . S
C374 C375 1.391 . S
C375 H363 0.950 . S
C375 C371 1.393 . S
C375 C374 1.391 . S
H376 C384 0.950 . S
H377 C389 0.950 . S
H378 C386 0.950 . S
H379 C388 0.950 1_556 S
H380 C390 0.950 . S
H381 C392 0.950 . S
H382 C394 0.950 1_554 S
H383 C395 0.950 . S
C384 H376 0.950 . S
C384 C385 1.386 . S
C384 C386 1.391 . S
C385 C384 1.386 . S
C385 C389 1.393 . S
C386 H378 0.950 . S
C386 C384 1.391 . S
C386 C387 1.400 . S
C387 C386 1.400 . S
C387 C388 1.398 . S
C387 C393 1.491 1_554 S
C388 H379 0.950 1_554 S
C388 C387 1.398 . S
C388 C389 1.391 . S
C389 H377 0.950 . S
C389 C385 1.393 . S
C389 C388 1.391 . S
C390 H380 0.950 . S
C390 C391 1.386 . S
C390 C392 1.391 . S
C391 C390 1.386 . S
C391 C395 1.393 . S
C392 H381 0.950 . S
C392 C390 1.391 . S
C392 C393 1.400 . S
C393 C387 1.491 1_556 S
C393 C392 1.400 . S
C393 C394 1.398 . S
C394 H382 0.950 1_556 S
C394 C393 1.398 . S
C394 C395 1.391 . S
C395 H383 0.950 . S
C395 C391 1.393 . S
C395 C394 1.391 . S
H396 C404 0.950 . S
H397 C409 0.950 . S
H398 C406 0.950 . S
H399 C408 0.950 . S
H400 C410 0.954 . S
H401 C412 0.950 . S
H402 C414 0.950 . S
H403 C415 0.950 . S
C404 H396 0.950 . S
C404 C405 1.386 . S
C404 C406 1.391 . S
C405 C404 1.386 . S
C405 C409 1.393 . S
C406 H398 0.950 . S
C406 C404 1.391 . S
C406 C407 1.400 . S
C407 C406 1.400 . S
C407 C408 1.398 . S
C407 C413 1.491 . S
C408 H399 0.950 . S
C408 C407 1.398 . S
C408 C409 1.391 . S
C409 H397 0.950 . S
C409 C405 1.393 . S
C409 C408 1.391 . S
C410 H400 0.954 . S
C410 C411 1.386 . S
C410 C412 1.391 1_556 S
C411 C410 1.386 . S
C411 C415 1.393 . S
C412 H401 0.950 . S
C412 C410 1.391 1_554 S
C412 C413 1.400 . S
C413 C407 1.491 . S
C413 C412 1.400 . S
C413 C414 1.398 1_554 S
C414 H402 0.950 . S
C414 C413 1.398 1_556 S
C414 C415 1.391 . S
C415 H403 0.950 . S
C415 C411 1.393 . S
C415 C414 1.391 . S
H416 C424 0.950 . S
H417 C429 0.950 . S
H418 C426 0.950 . S
H419 C428 0.950 . S
H420 C430 0.950 . S
H421 C432 0.950 . S
H422 C434 0.958 . S
H423 C435 0.950 . S
C424 H416 0.950 . S
C424 C425 1.386 . S
C424 C426 1.391 . S
C425 C424 1.386 . S
C425 C429 1.393 . S
C426 H418 0.950 . S
C426 C424 1.391 . S
C426 C427 1.400 . S
C427 C426 1.400 . S
C427 C428 1.398 . S
C427 C433 1.491 . S
C428 H419 0.950 . S
C428 C427 1.398 . S
C428 C429 1.391 . S
C429 H417 0.950 . S
C429 C425 1.393 . S
C429 C428 1.391 . S
C430 H420 0.950 . S
C430 C431 1.386 . S
C430 C432 1.391 . S
C431 C430 1.386 . S
C431 C435 1.393 1_455 S
C432 H421 0.950 . S
C432 C430 1.391 . S
C432 C433 1.400 . S
C433 C427 1.491 . S
C433 C432 1.400 . S
C433 C434 1.387 1_455 S
C434 H422 0.958 . S
C434 C433 1.387 1_655 S
C434 C435 1.395 . S
C435 H423 0.950 . S
C435 C431 1.393 1_655 S
C435 C434 1.395 . S
H436 C444 0.950 . S
H437 C449 0.950 . S
H438 C446 0.950 . S
H439 C448 0.950 . S
H440 C450 0.950 . S
H441 C452 0.950 . S
H442 C454 0.950 . S
H443 C455 0.950 . S
C444 H436 0.950 . S
C444 C445 1.386 . S
C444 C446 1.391 . S
C445 C444 1.386 . S
C445 C449 1.393 . S
C446 H438 0.950 . S
C446 C444 1.391 . S
C446 C447 1.400 . S
C447 C446 1.400 . S
C447 C448 1.398 . S
C447 C453 1.491 . S
C448 H439 0.950 . S
C448 C447 1.398 . S
C448 C449 1.391 . S
C449 H437 0.950 . S
C449 C445 1.393 . S
C449 C448 1.391 . S
C450 H440 0.950 . S
C450 C451 1.386 . S
C450 C452 1.391 . S
C451 C450 1.386 . S
C451 C455 1.393 1_565 S
C452 H441 0.950 . S
C452 C450 1.391 . S
C452 C453 1.400 1_565 S
C453 C447 1.491 . S
C453 C452 1.400 1_545 S
C453 C454 1.398 . S
C454 H442 0.950 . S
C454 C453 1.398 . S
C454 C455 1.391 . S
C455 H443 0.950 . S
C455 C451 1.393 1_545 S
C455 C454 1.391 . S
H456 C464 0.950 . S
H457 C469 0.950 . S
H458 C466 0.950 . S
H459 C468 0.950 . S
H460 C470 0.950 . S
H461 C472 0.950 . S
H462 C474 0.950 . S
H463 C475 0.950 . S
C464 H456 0.950 . S
C464 C465 1.386 . S
C464 C466 1.391 . S
C465 C464 1.386 . S
C465 C469 1.393 . S
C466 H458 0.950 . S
C466 C464 1.391 . S
C466 C467 1.400 . S
C467 C466 1.400 . S
C467 C468 1.398 . S
C467 C473 1.491 . S
C468 H459 0.950 . S
C468 C467 1.398 . S
C468 C469 1.391 . S
C469 H457 0.950 . S
C469 C465 1.393 . S
C469 C468 1.391 . S
C470 H460 0.950 . S
C470 C471 1.386 . S
C470 C472 1.391 . S
C471 C470 1.386 . S
C471 C475 1.393 . S
C472 H461 0.950 . S
C472 C470 1.391 . S
C472 C473 1.400 . S
C473 C467 1.491 . S
C473 C472 1.400 . S
C473 C474 1.398 . S
C474 H462 0.950 . S
C474 C473 1.398 . S
C474 C475 1.391 . S
C475 H463 0.950 . S
C475 C471 1.393 . S
C475 C474 1.391 . S
H476 C484 0.950 . S
H477 C489 0.950 . S
H478 C486 0.950 . S
H479 C488 0.950 . S
H480 C490 0.950 . S
H481 C492 0.950 . S
H482 C494 0.950 . S
H483 C495 0.950 . S
C484 H476 0.950 . S
C484 C485 1.386 . S
C484 C486 1.391 . S
C485 C484 1.386 . S
C485 C489 1.393 . S
C486 H478 0.950 . S
C486 C484 1.391 . S
C486 C487 1.400 . S
C487 C486 1.400 . S
C487 C488 1.398 . S
C487 C493 1.491 . S
C488 H479 0.950 . S
C488 C487 1.398 . S
C488 C489 1.391 . S
C489 H477 0.950 . S
C489 C485 1.393 . S
C489 C488 1.391 . S
C490 H480 0.950 . S
C490 C491 1.386 . S
C490 C492 1.391 . S
C491 C490 1.386 . S
C491 C495 1.393 . S
C492 H481 0.950 . S
C492 C490 1.391 . S
C492 C493 1.400 . S
C493 C487 1.491 . S
C493 C492 1.400 . S
C493 C494 1.398 . S
C494 H482 0.950 . S
C494 C493 1.398 . S
C494 C495 1.391 . S
C495 H483 0.950 . S
C495 C491 1.393 . S
C495 C494 1.391 . S
H496 C504 0.950 . S
H497 C509 0.950 . S
H498 C506 0.950 1_455 S
H499 C508 0.950 . S
H500 C510 0.950 . S
H501 C512 0.950 . S
H502 C514 0.950 . S
H503 C515 0.950 . S
C504 H496 0.950 . S
C504 C505 1.386 . S
C504 C506 1.391 . S
C505 C504 1.386 . S
C505 C509 1.393 . S
C506 H498 0.950 1_655 S
C506 C504 1.391 . S
C506 C507 1.400 . S
C507 C506 1.400 . S
C507 C508 1.398 . S
C507 C513 1.491 . S
C508 H499 0.950 . S
C508 C507 1.398 . S
C508 C509 1.391 . S
C509 H497 0.950 . S
C509 C505 1.393 . S
C509 C508 1.391 . S
C510 H500 0.950 . S
C510 C511 1.386 1_655 S
C510 C512 1.391 . S
C511 C510 1.386 1_455 S
C511 C515 1.393 . S
C512 H501 0.950 . S
C512 C510 1.391 . S
C512 C513 1.400 . S
C513 C507 1.491 . S
C513 C512 1.400 . S
C513 C514 1.398 1_655 S
C514 H502 0.950 . S
C514 C513 1.398 1_455 S
C514 C515 1.391 . S
C515 H503 0.950 . S
C515 C511 1.393 . S
C515 C514 1.391 . S
H516 C524 0.950 . S
H517 C529 0.950 . S
H518 C526 0.950 . S
H519 C528 0.950 . S
H520 C530 0.950 1_556 S
H521 C532 0.950 . S
H522 C534 0.950 . S
H523 C535 0.950 . S
C524 H516 0.950 . S
C524 C525 1.386 1_545 S
C524 C526 1.391 . S
C525 C524 1.386 1_565 S
C525 C529 1.393 . S
C526 H518 0.950 . S
C526 C524 1.391 . S
C526 C527 1.400 1_545 S
C527 C526 1.400 1_565 S
C527 C528 1.398 . S
C527 C533 1.491 1_565 S
C528 H519 0.950 . S
C528 C527 1.398 . S
C528 C529 1.391 . S
C529 H517 0.950 . S
C529 C525 1.393 . S
C529 C528 1.391 . S
C530 H520 0.950 1_554 S
C530 C531 1.386 1_565 S
C530 C532 1.391 . S
C531 C530 1.386 1_545 S
C531 C535 1.393 . S
C532 H521 0.950 . S
C532 C530 1.391 . S
C532 C533 1.400 1_565 S
C533 C527 1.491 1_545 S
C533 C532 1.400 1_545 S
C533 C534 1.398 . S
C534 H522 0.950 . S
C534 C533 1.398 . S
C534 C535 1.391 . S
C535 H523 0.950 . S
C535 C531 1.393 . S
C535 C534 1.391 . S
H536 C544 0.950 . S
H537 C549 0.950 . S
H538 C546 0.950 . S
H539 C548 0.950 . S
H540 C550 0.950 . S
H541 C552 0.950 . S
H542 C554 0.950 . S
H543 C555 0.950 . S
C544 H536 0.950 . S
C544 C545 1.386 . S
C544 C546 1.391 . S
C545 C544 1.386 . S
C545 C549 1.393 . S
C546 H538 0.950 . S
C546 C544 1.391 . S
C546 C547 1.400 . S
C547 C546 1.400 . S
C547 C548 1.398 . S
C547 C553 1.491 . S
C548 H539 0.950 . S
C548 C547 1.398 . S
C548 C549 1.391 . S
C549 H537 0.950 . S
C549 C545 1.393 . S
C549 C548 1.391 . S
C550 H540 0.950 . S
C550 C551 1.386 . S
C550 C552 1.391 1_556 S
C551 C550 1.386 . S
C551 C555 1.393 1_556 S
C552 H541 0.950 . S
C552 C550 1.391 1_554 S
C552 C553 1.400 . S
C553 C547 1.491 . S
C553 C552 1.400 . S
C553 C554 1.398 . S
C554 H542 0.950 . S
C554 C553 1.398 . S
C554 C555 1.391 . S
C555 H543 0.950 . S
C555 C551 1.393 1_554 S
C555 C554 1.391 . S
H556 C564 0.950 . S
H557 C569 0.950 . S
H558 C566 0.950 . S
H559 C568 0.950 . S
H560 C570 0.950 1_556 S
H561 C572 0.950 . S
H562 C574 0.950 . S
H563 C575 0.950 . S
C564 H556 0.950 . S
C564 C565 1.386 . S
C564 C566 1.391 . S
C565 C564 1.386 . S
C565 C569 1.393 . S
C566 H558 0.950 . S
C566 C564 1.391 . S
C566 C567 1.400 . S
C567 C566 1.400 . S
C567 C568 1.398 . S
C567 C573 1.491 . S
C568 H559 0.950 . S
C568 C567 1.398 . S
C568 C569 1.391 . S
C569 H557 0.950 . S
C569 C565 1.393 . S
C569 C568 1.391 . S
C570 H560 0.950 1_554 S
C570 C571 1.386 . S
C570 C572 1.391 . S
C571 C570 1.386 . S
C571 C575 1.393 . S
C572 H561 0.950 . S
C572 C570 1.391 . S
C572 C573 1.400 . S
C573 C567 1.491 . S
C573 C572 1.400 . S
C573 C574 1.398 . S
C574 H562 0.950 . S
C574 C573 1.398 . S
C574 C575 1.391 . S
C575 H563 0.950 . S
C575 C571 1.393 . S
C575 C574 1.391 . S
H576 C584 0.950 . S
H577 C589 0.950 . S
H578 C586 0.950 . S
H579 C588 0.950 . S
H580 C590 0.950 . S
H581 C592 0.950 . S
H582 C594 0.950 1_655 S
H583 C595 0.950 1_655 S
C584 H576 0.950 . S
C584 C585 1.386 . S
C584 C586 1.391 . S
C585 C584 1.386 . S
C585 C589 1.393 . S
C586 H578 0.950 . S
C586 C584 1.391 . S
C586 C587 1.400 . S
C587 C586 1.400 . S
C587 C588 1.398 . S
C587 C593 1.491 . S
C588 H579 0.950 . S
C588 C587 1.398 . S
C588 C589 1.391 . S
C589 H577 0.950 . S
C589 C585 1.393 . S
C589 C588 1.391 . S
C590 H580 0.950 . S
C590 C591 1.386 . S
C590 C592 1.391 . S
C591 C590 1.386 . S
C591 C595 1.393 . S
C592 H581 0.950 . S
C592 C590 1.391 . S
C592 C593 1.400 . S
C593 C587 1.491 . S
C593 C592 1.400 . S
C593 C594 1.398 . S
C594 H582 0.950 1_455 S
C594 C593 1.398 . S
C594 C595 1.391 . S
C595 H583 0.950 1_455 S
C595 C591 1.393 . S
C595 C594 1.391 . S
H596 C604 0.950 . S
H597 C609 0.950 . S
H598 C606 0.950 . S
H599 C608 0.950 . S
H600 C610 0.950 . S
H601 C612 0.950 . S
H602 C614 0.950 . S
H603 C615 0.950 . S
C604 H596 0.950 . S
C604 C605 1.386 . S
C604 C606 1.391 . S
C605 C604 1.386 . S
C605 C609 1.393 . S
C606 H598 0.950 . S
C606 C604 1.391 . S
C606 C607 1.400 . S
C607 C606 1.400 . S
C607 C608 1.398 . S
C607 C613 1.491 . S
C608 H599 0.950 . S
C608 C607 1.398 . S
C608 C609 1.391 . S
C609 H597 0.950 . S
C609 C605 1.393 . S
C609 C608 1.391 . S
C610 H600 0.950 . S
C610 C611 1.386 . S
C610 C612 1.391 . S
C611 C610 1.386 . S
C611 C615 1.393 . S
C612 H601 0.950 . S
C612 C610 1.391 . S
C612 C613 1.400 . S
C613 C607 1.491 . S
C613 C612 1.400 . S
C613 C614 1.398 . S
C614 H602 0.950 . S
C614 C613 1.398 . S
C614 C615 1.391 . S
C615 H603 0.950 . S
C615 C611 1.393 . S
C615 C614 1.391 . S
H616 C624 0.950 1_554 S
H617 C629 0.950 . S
H618 C626 0.950 . S
H619 C628 0.950 . S
H620 C630 0.950 . S
H621 C632 0.950 . S
H622 C634 0.950 . S
H623 C635 0.950 . S
C624 H616 0.950 1_556 S
C624 C625 1.386 . S
C624 C626 1.391 . S
C625 C624 1.386 . S
C625 C629 1.393 . S
C626 H618 0.950 . S
C626 C624 1.391 . S
C626 C627 1.400 . S
C627 C626 1.400 . S
C627 C628 1.398 . S
C627 C633 1.491 . S
C628 H619 0.950 . S
C628 C627 1.398 . S
C628 C629 1.391 . S
C629 H617 0.950 . S
C629 C625 1.393 . S
C629 C628 1.391 . S
C630 H620 0.950 . S
C630 C631 1.386 . S
C630 C632 1.391 . S
C631 C630 1.386 . S
C631 C635 1.393 . S
C632 H621 0.950 . S
C632 C630 1.391 . S
C632 C633 1.400 . S
C633 C627 1.491 . S
C633 C632 1.400 . S
C633 C634 1.398 . S
C634 H622 0.950 . S
C634 C633 1.398 . S
C634 C635 1.391 . S
C635 H623 0.950 . S
C635 C631 1.393 . S
C635 C634 1.391 . S
H636 C644 0.950 . S
H637 C649 0.950 1_554 S
H638 C646 0.950 . S
H639 C648 0.950 1_554 S
H640 C650 0.950 . S
H641 C652 0.950 . S
H642 C654 0.950 . S
H643 C655 0.950 . S
C644 H636 0.950 . S
C644 C645 1.386 . S
C644 C646 1.391 . S
C645 C644 1.386 . S
C645 C649 1.393 . S
C646 H638 0.950 . S
C646 C644 1.391 . S
C646 C647 1.400 . S
C647 C646 1.400 . S
C647 C648 1.398 . S
C647 C653 1.491 . S
C648 H639 0.950 1_556 S
C648 C647 1.398 . S
C648 C649 1.391 . S
C649 H637 0.950 1_556 S
C649 C645 1.393 . S
C649 C648 1.391 . S
C650 H640 0.950 . S
C650 C651 1.386 . S
C650 C652 1.391 . S
C651 C650 1.386 . S
C651 C655 1.393 . S
C652 H641 0.950 . S
C652 C650 1.391 . S
C652 C653 1.400 . S
C653 C647 1.491 . S
C653 C652 1.400 . S
C653 C654 1.398 . S
C654 H642 0.950 . S
C654 C653 1.398 . S
C654 C655 1.391 . S
C655 H643 0.950 . S
C655 C651 1.393 . S
C655 C654 1.391 . S
H656 C664 0.950 1_455 S
H657 C669 0.950 . S
H658 C666 0.950 1_455 S
H659 C668 0.950 . S
H660 C670 0.950 . S
H661 C672 0.950 . S
H662 C674 0.950 . S
H663 C675 0.950 . S
C664 H656 0.950 1_655 S
C664 C665 1.386 . S
C664 C666 1.391 . S
C665 C664 1.386 . S
C665 C669 1.393 . S
C666 H658 0.950 1_655 S
C666 C664 1.391 . S
C666 C667 1.400 . S
C667 C666 1.400 . S
C667 C668 1.398 . S
C667 C673 1.491 . S
C668 H659 0.950 . S
C668 C667 1.398 . S
C668 C669 1.391 . S
C669 H657 0.950 . S
C669 C665 1.393 . S
C669 C668 1.391 . S
C670 H660 0.950 . S
C670 C671 1.386 . S
C670 C672 1.391 . S
C671 C670 1.386 . S
C671 C675 1.393 1_655 S
C672 H661 0.950 . S
C672 C670 1.391 . S
C672 C673 1.400 . S
C673 C667 1.491 . S
C673 C672 1.400 . S
C673 C674 1.398 1_655 S
C674 H662 0.950 . S
C674 C673 1.398 1_455 S
C674 C675 1.391 . S
C675 H663 0.950 . S
C675 C671 1.393 1_455 S
C675 C674 1.391 . S
H676 C684 0.950 . S
H677 C689 0.950 . S
H678 C686 0.950 . S
H679 C688 0.950 . S
H680 C690 0.950 . S
H681 C692 0.950 . S
H682 C694 0.950 . S
H683 C695 0.950 . S
C684 H676 0.950 . S
C684 C685 1.386 . S
C684 C686 1.391 . S
C685 C684 1.386 . S
C685 C689 1.393 . S
C686 H678 0.950 . S
C686 C684 1.391 . S
C686 C687 1.400 . S
C687 C686 1.400 . S
C687 C688 1.398 . S
C687 C693 1.491 . S
C688 H679 0.950 . S
C688 C687 1.398 . S
C688 C689 1.391 . S
C689 H677 0.950 . S
C689 C685 1.393 . S
C689 C688 1.391 . S
C690 H680 0.950 . S
C690 C691 1.386 . S
C690 C692 1.391 . S
C691 C690 1.386 . S
C691 C695 1.393 . S
C692 H681 0.950 . S
C692 C690 1.391 . S
C692 C693 1.400 . S
C693 C687 1.491 . S
C693 C692 1.400 . S
C693 C694 1.398 . S
C694 H682 0.950 . S
C694 C693 1.398 . S
C694 C695 1.391 . S
C695 H683 0.950 . S
C695 C691 1.393 . S
C695 C694 1.391 . S
H696 C704 0.950 . S
H697 C709 0.950 . S
H698 C706 0.950 . S
H699 C708 0.950 . S
H700 C710 0.950 . S
H701 C712 0.950 . S
H702 C714 0.950 . S
H703 C715 0.950 . S
C704 H696 0.950 . S
C704 C705 1.386 . S
C704 C706 1.391 . S
C705 C704 1.386 . S
C705 C709 1.393 . S
C706 H698 0.950 . S
C706 C704 1.391 . S
C706 C707 1.400 . S
C707 C706 1.400 . S
C707 C708 1.398 . S
C707 C713 1.491 . S
C708 H699 0.950 . S
C708 C707 1.398 . S
C708 C709 1.391 . S
C709 H697 0.950 . S
C709 C705 1.393 . S
C709 C708 1.391 . S
C710 H700 0.950 . S
C710 C711 1.386 . S
C710 C712 1.391 . S
C711 C710 1.386 . S
C711 C715 1.393 . S
C712 H701 0.950 . S
C712 C710 1.391 . S
C712 C713 1.400 . S
C713 C707 1.491 . S
C713 C712 1.400 . S
C713 C714 1.398 . S
C714 H702 0.950 . S
C714 C713 1.398 . S
C714 C715 1.391 . S
C715 H703 0.950 . S
C715 C711 1.393 . S
C715 C714 1.391 . S
H716 C724 0.950 . S
H717 C729 0.950 . S
H718 C726 0.950 . S
H719 C728 0.950 . S
H720 C730 0.950 . S
H721 C732 0.950 . S
H722 C734 0.950 . S
H723 C735 0.950 . S
C724 H716 0.950 . S
C724 C725 1.386 . S
C724 C726 1.391 . S
C725 C724 1.386 . S
C725 C729 1.393 . S
C726 H718 0.950 . S
C726 C724 1.391 . S
C726 C727 1.400 . S
C727 C726 1.400 . S
C727 C728 1.398 . S
C727 C733 1.491 . S
C728 H719 0.950 . S
C728 C727 1.398 . S
C728 C729 1.391 . S
C729 H717 0.950 . S
C729 C725 1.393 . S
C729 C728 1.391 . S
C730 H720 0.950 . S
C730 C731 1.386 . S
C730 C732 1.391 . S
C731 C730 1.386 . S
C731 C735 1.393 . S
C732 H721 0.950 . S
C732 C730 1.391 . S
C732 C733 1.400 . S
C733 C727 1.491 . S
C733 C732 1.400 . S
C733 C734 1.398 . S
C734 H722 0.950 . S
C734 C733 1.398 . S
C734 C735 1.391 . S
C735 H723 0.950 . S
C735 C731 1.393 . S
C735 C734 1.391 . S
C265 C76 2.150 . S
C271 C127 2.338 . S
C291 C153 1.878 . S
C285 C88 1.699 . S
C311 C193 1.951 . S
C305 C52 1.812 . S
C331 C247 2.383 . S
C325 C64 2.213 . S
C351 C108 2.331 1_565 S
C345 C28 2.136 . S
C365 C40 1.689 . S
C371 C138 1.885 . S
C385 C4 1.807 . S
C391 C178 1.950 . S
C405 C16 2.210 . S
C411 C228 2.381 1_655 S
C431 C104 0.474 . S
C425 C69 0.500 . S
C451 C165 0.631 . S
C445 C81 0.639 . S
C471 C205 0.555 . S
C465 C93 0.532 . S
C485 C57 0.491 . S
C491 C224 0.444 . S
C505 C21 0.554 . S
C511 C125 0.524 . S
C531 C144 0.635 1_554 S
C525 C33 0.661 . S
C551 C184 0.517 . S
C545 C45 0.545 . S
C565 C9 0.476 . S
C571 C245 0.430 . S
C585 C66 1.920 . S
C591 C98 2.120 . S
C605 C78 2.389 . S
C611 C148 2.602 . S
C631 C188 2.391 . S
C625 C90 2.195 . S
C651 C218 1.884 . S
C645 C54 1.698 . S
C665 C18 1.882 . S
C671 C113 2.121 . S
C691 C167 2.608 . S
C685 C30 2.385 . S
C711 C207 2.390 . S
C705 C42 2.212 . S
C725 C6 1.689 . S
C731 C233 1.879 . S
