# Generated by pormake.
# Topology csq, (4,8)-cn, num edge types: 1
# Building blocks:
#     Node 0, Type 0, BuildingBlock: KUFVIS_clean_linker_0, # of connection points: 4
#     Node 1, Type 0, BuildingBlock: KUFVIS_clean_linker_0, # of connection points: 4
#     Node 2, Type 0, BuildingBlock: KUFVIS_clean_linker_0, # of connection points: 4
#     Node 3, Type 0, BuildingBlock: KUFVIS_clean_linker_0, # of connection points: 4
#     Node 4, Type 0, BuildingBlock: KUFVIS_clean_linker_0, # of connection points: 4
#     Node 5, Type 0, BuildingBlock: KUFVIS_clean_linker_0, # of connection points: 4
#     Node 6, Type 1, BuildingBlock: TAGTUT_clean_sbu_1, # of connection points: 8
#     Node 7, Type 1, BuildingBlock: TAGTUT_clean_sbu_1, # of connection points: 8
#     Node 8, Type 1, BuildingBlock: TAGTUT_clean_sbu_1, # of connection points: 8
#     Edge 9, Type (0, 1), BuildingBlock: EZIPEK_clean_linker_0, # of connection points: 2
#     Edge 10, Type (0, 1), BuildingBlock: EZIPEK_clean_linker_0, # of connection points: 2
#     Edge 11, Type (0, 1), BuildingBlock: EZIPEK_clean_linker_0, # of connection points: 2
#     Edge 12, Type (0, 1), BuildingBlock: EZIPEK_clean_linker_0, # of connection points: 2
#     Edge 13, Type (0, 1), BuildingBlock: EZIPEK_clean_linker_0, # of connection points: 2
#     Edge 14, Type (0, 1), BuildingBlock: EZIPEK_clean_linker_0, # of connection points: 2
#     Edge 15, Type (0, 1), BuildingBlock: EZIPEK_clean_linker_0, # of connection points: 2
#     Edge 16, Type (0, 1), BuildingBlock: EZIPEK_clean_linker_0, # of connection points: 2
#     Edge 17, Type (0, 1), BuildingBlock: EZIPEK_clean_linker_0, # of connection points: 2
#     Edge 18, Type (0, 1), BuildingBlock: EZIPEK_clean_linker_0, # of connection points: 2
#     Edge 19, Type (0, 1), BuildingBlock: EZIPEK_clean_linker_0, # of connection points: 2
#     Edge 20, Type (0, 1), BuildingBlock: EZIPEK_clean_linker_0, # of connection points: 2
#     Edge 21, Type (0, 1), BuildingBlock: EZIPEK_clean_linker_0, # of connection points: 2
#     Edge 22, Type (0, 1), BuildingBlock: EZIPEK_clean_linker_0, # of connection points: 2
#     Edge 23, Type (0, 1), BuildingBlock: EZIPEK_clean_linker_0, # of connection points: 2
#     Edge 24, Type (0, 1), BuildingBlock: EZIPEK_clean_linker_0, # of connection points: 2
#     Edge 25, Type (0, 1), BuildingBlock: EZIPEK_clean_linker_0, # of connection points: 2
#     Edge 26, Type (0, 1), BuildingBlock: EZIPEK_clean_linker_0, # of connection points: 2
#     Edge 27, Type (0, 1), BuildingBlock: EZIPEK_clean_linker_0, # of connection points: 2
#     Edge 28, Type (0, 1), BuildingBlock: EZIPEK_clean_linker_0, # of connection points: 2
#     Edge 29, Type (0, 1), BuildingBlock: EZIPEK_clean_linker_0, # of connection points: 2
#     Edge 30, Type (0, 1), BuildingBlock: EZIPEK_clean_linker_0, # of connection points: 2
#     Edge 31, Type (0, 1), BuildingBlock: EZIPEK_clean_linker_0, # of connection points: 2
#     Edge 32, Type (0, 1), BuildingBlock: EZIPEK_clean_linker_0, # of connection points: 2
# Relax obj value: 0.046
# Max RMSD: 0.128
# Mean RMSD: 0.099
data_MOF--net-csq--node1-TAGTUT_clean_sbu_1--node2-KUFVIS_clean_linker_0--edge1-EZIPEK_clean_linker_0
_symmetry_space_group_name_H-M    P1
_symmetry_Int_Tables_number       1
_symmetry_cell_setting            triclinic
loop_
_symmetry_equiv_pos_as_xyz
'x, y, z'
_cell_length_a     40.652481
_cell_length_b     40.567698
_cell_length_c     14.168805
_cell_angle_alpha  93.346085
_cell_angle_beta   92.512567
_cell_angle_gamma 119.60618
loop_
_atom_site_label
_atom_site_type_symbol
_atom_site_fract_x
_atom_site_fract_y
_atom_site_fract_z
_atom_type_partial_charge
H0 H 0.37649 0.5013 0.20591 0.0
H1 H 0.28272 0.49544 0.34362 0.0
H2 H 0.2905 0.50908 0.04171 0.0
H3 H 0.2309 0.4845 0.03404 0.0
H4 H 0.14051 0.48846 0.16486 0.0
H5 H 0.23951 0.51125 0.33891 0.0
C6 C 0.35042 0.50257 0.20202 0.0
C7 C 0.3348 0.50453 0.11429 0.0
C8 C 0.33196 0.5005 0.28427 0.0
C9 C 0.29705 0.49958 0.2793 0.0
C10 C 0.28067 0.50249 0.19247 0.0
C11 C 0.30092 0.50611 0.11021 0.0
C12 C 0.24189 0.49936 0.18701 0.0
C13 C 0.22068 0.49022 0.0985 0.0
C14 C 0.18512 0.4876 0.09064 0.0
C15 C 0.16861 0.49156 0.17172 0.0
C16 C 0.18779 0.49902 0.26155 0.0
C17 C 0.22478 0.50392 0.26902 0.0
H18 H 0.66005 0.13121 0.14599 0.0
H19 H 0.75267 0.2321 0.29148 0.0
H20 H 0.74551 0.21113 0.98514 0.0
H21 H 0.78011 0.27112 0.98529 0.0
H22 H 0.88748 0.35719 0.11528 0.0
H23 H 0.81162 0.27334 0.28468 0.0
C24 C 0.68612 0.15802 0.14341 0.0
C25 C 0.6999 0.17013 0.05572 0.0
C26 C 0.7061 0.18 0.22793 0.0
C27 C 0.73919 0.21521 0.22497 0.0
C28 C 0.75435 0.22791 0.13794 0.0
C29 C 0.73454 0.20408 0.0536 0.0
C30 C 0.79061 0.26531 0.13464 0.0
C31 C 0.79973 0.28236 0.04806 0.0
C32 C 0.83508 0.31429 0.04058 0.0
C33 C 0.86019 0.33198 0.12092 0.0
C34 C 0.85099 0.31866 0.20895 0.0
C35 C 0.81685 0.28444 0.21616 0.0
H36 H 0.5341 0.88113 0.02489 0.0
H37 H 0.55254 0.80249 0.17306 0.0
H38 H 0.52058 0.78079 0.86999 0.0
H39 H 0.54812 0.74452 0.88584 0.0
H40 H 0.52584 0.64851 0.0374 0.0
H41 H 0.5174 0.7399 0.1765 0.0
C42 C 0.53323 0.85388 0.02406 0.0
C43 C 0.52772 0.83299 0.9381 0.0
C44 C 0.54349 0.84355 0.10685 0.0
C45 C 0.54336 0.80913 0.10755 0.0
C46 C 0.53254 0.78435 0.02382 0.0
C47 C 0.5261 0.7974 0.93726 0.0
C48 C 0.53019 0.74638 0.0277 0.0
C49 C 0.53868 0.72979 0.949 0.0
C50 C 0.53665 0.69444 0.95329 0.0
C51 C 0.5262 0.67541 0.03445 0.0
C52 C 0.5218 0.69277 0.11611 0.0
C53 C 0.52212 0.72749 0.11252 0.0
H54 H 0.8931 0.52988 0.07978 0.0
H55 H 0.80612 0.541 0.20968 0.0
H56 H 0.79977 0.51971 0.90342 0.0
H57 H 0.75983 0.53938 0.90002 0.0
H58 H 0.66458 0.53286 0.03134 0.0
H59 H 0.74671 0.51991 0.19808 0.0
C60 C 0.86628 0.52956 0.07239 0.0
C61 C 0.84855 0.52518 0.98192 0.0
C62 C 0.85002 0.53422 0.15342 0.0
C63 C 0.81616 0.53508 0.14508 0.0
C64 C 0.79661 0.52965 0.05596 0.0
C65 C 0.8134 0.52447 0.97389 0.0
C66 C 0.75975 0.53051 0.0503 0.0
C67 C 0.7453 0.53584 0.96382 0.0
C68 C 0.71051 0.53499 0.95674 0.0
C69 C 0.69126 0.53283 0.03766 0.0
C70 C 0.70488 0.52845 0.1255 0.0
C71 C 0.73831 0.52589 0.13079 0.0
H72 H 0.36853 0.88272 0.11581 0.0
H73 H 0.2869 0.7947 0.27015 0.0
H74 H 0.26812 0.79118 0.96543 0.0
H75 H 0.23602 0.72688 0.97981 0.0
H76 H 0.13172 0.66719 0.11071 0.0
H77 H 0.22287 0.76865 0.25662 0.0
C78 C 0.34211 0.85607 0.11643 0.0
C79 C 0.32018 0.83759 0.03112 0.0
C80 C 0.32996 0.84092 0.20266 0.0
C81 C 0.2956 0.80646 0.20307 0.0
C82 C 0.27269 0.78775 0.11749 0.0
C83 C 0.2855 0.80386 0.03176 0.0
C84 C 0.23448 0.75302 0.11732 0.0
C85 C 0.21921 0.72498 0.03861 0.0
C86 C 0.18157 0.69468 0.03467 0.0
C87 C 0.16044 0.69106 0.11197 0.0
C88 C 0.17595 0.71643 0.19286 0.0
C89 C 0.21223 0.74827 0.19458 0.0
H90 H 0.47739 0.35424 0.24559 0.0
H91 H 0.49189 0.27167 0.38494 0.0
H92 H 0.48116 0.26633 0.07602 0.0
H93 H 0.49366 0.22241 0.07276 0.0
H94 H 0.50652 0.13969 0.21345 0.0
H95 H 0.48172 0.21515 0.37604 0.0
C96 C 0.4796 0.32859 0.24057 0.0
C97 C 0.47975 0.31209 0.15229 0.0
C98 C 0.48311 0.31317 0.32277 0.0
C99 C 0.48728 0.281 0.31841 0.0
C100 C 0.48636 0.26237 0.23012 0.0
C101 C 0.48225 0.2786 0.14634 0.0
C102 C 0.49092 0.22743 0.2268 0.0
C103 C 0.49521 0.21172 0.1396 0.0
C104 C 0.49887 0.17931 0.13607 0.0
C105 C 0.50312 0.16469 0.2184 0.0
C106 C 0.49568 0.17664 0.30412 0.0
C107 C 0.48925 0.20784 0.30913 0.0
C108 C 0.95634 0.40296 0.84157 0.0
C109 C 0.07964 0.4629 0.79136 0.0
C110 C 0.06264 0.58404 0.77479 0.0
Mg111 Mg 1.0053 0.42482 0.67263 0.0
O112 O 0.99785 0.46641 0.70058 0.0
Mg113 Mg 0.0183 0.4956 0.82655 0.0
Mg114 Mg 0.01677 0.50849 0.62082 0.0
O115 O 0.03506 0.55126 0.5428 0.0
Mg116 Mg 0.02096 0.58726 0.58512 0.0
Mg117 Mg 0.01292 0.52274 0.41606 0.0
C118 C 0.97127 0.43124 0.4719 0.0
C119 C 0.07938 0.50507 0.48603 0.0
O120 O 0.97404 0.43828 0.87193 0.0
O121 O 0.96738 0.39074 0.77177 0.0
O122 O 0.06572 0.48106 0.83443 0.0
O123 O 0.0631 0.44125 0.71551 0.0
O124 O 0.981 0.41301 0.52735 0.0
O125 O 0.97993 0.46623 0.49303 0.0
C126 C 0.955 0.51591 0.7542 0.0
O127 O 0.96548 0.51655 0.66965 0.0
O128 O 0.97183 0.50991 0.82285 0.0
O129 O 0.04989 0.58405 0.36807 0.0
O130 O 0.0536 0.6259 0.48709 0.0
O131 O 0.96257 0.53267 0.41534 0.0
C132 C 0.0619 0.61825 0.4057 0.0
O133 O 0.96231 0.56782 0.542 0.0
O134 O 0.04674 0.60006 0.73085 0.0
C135 C 0.94706 0.54808 0.46299 0.0
O136 O 0.05531 0.55005 0.74854 0.0
O137 O 0.06734 0.50069 0.56947 0.0
O138 O 0.06346 0.51333 0.41907 0.0
C139 C 0.46711 0.05036 0.89854 0.0
C140 C 0.40865 0.93539 0.76857 0.0
C141 C 0.54752 0.95468 0.72353 0.0
Mg142 Mg 0.44517 0.01234 0.69457 0.0
O143 O 0.49456 0.02149 0.72414 0.0
Mg144 Mg 0.50328 0.99547 0.82973 0.0
Mg145 Mg 0.51689 0.00711 0.62275 0.0
O146 O 0.54003 0.99299 0.52217 0.0
Mg147 Mg 0.59034 0.00521 0.55753 0.0
Mg148 Mg 0.53162 0.01963 0.41834 0.0
C149 C 0.48309 0.05653 0.51859 0.0
C150 C 0.44897 0.95029 0.46102 0.0
O151 O 0.48639 0.03386 0.91825 0.0
O152 O 0.44783 0.04441 0.81953 0.0
O153 O 0.4407 0.94739 0.81529 0.0
O154 O 0.40405 0.95379 0.70431 0.0
O155 O 0.45483 0.0431 0.56976 0.0
O156 O 0.51017 0.04873 0.52865 0.0
C157 C 0.58652 0.06273 0.78346 0.0
O158 O 0.57578 0.05529 0.69451 0.0
O159 O 0.56456 0.04355 0.8451 0.0
O160 O 0.55343 0.98472 0.33204 0.0
O161 O 0.59512 0.97882 0.43091 0.0
O162 O 0.59197 0.07049 0.44183 0.0
C163 C 0.57624 0.97203 0.35093 0.0
O164 O 0.62866 0.0657 0.55503 0.0
O165 O 0.57668 0.96909 0.67492 0.0
C166 C 0.62334 0.08457 0.49306 0.0
O167 O 0.52211 0.96481 0.71663 0.0
O168 O 0.45851 0.95894 0.55042 0.0
O169 O 0.47148 0.96891 0.39948 0.0
C170 C 0.54375 0.59609 0.35052 0.0
C171 C 0.60621 0.53234 0.40162 0.0
C172 C 0.47243 0.42461 0.51701 0.0
Mg173 Mg 0.58186 0.58103 0.52435 0.0
O174 O 0.53158 0.54159 0.51891 0.0
Mg175 Mg 0.51134 0.50528 0.40292 0.0
Mg176 Mg 0.51569 0.50653 0.61916 0.0
O177 O 0.49812 0.47044 0.72017 0.0
Mg178 Mg 0.44576 0.43361 0.7097 0.0
Mg179 Mg 0.51723 0.50714 0.83594 0.0
C180 C 0.56167 0.58944 0.73648 0.0
C181 C 0.59081 0.51592 0.73358 0.0
O182 O 0.52348 0.55993 0.32661 0.0
O183 O 0.56798 0.61009 0.42306 0.0
O184 O 0.57099 0.51289 0.37164 0.0
O185 O 0.6172 0.55997 0.46561 0.0
O186 O 0.58522 0.60127 0.67209 0.0
O187 O 0.53246 0.55572 0.73087 0.0
C188 C 0.43844 0.49574 0.51022 0.0
O189 O 0.45559 0.49883 0.59084 0.0
O190 O 0.45377 0.49699 0.43295 0.0
O191 O 0.49964 0.45109 0.91383 0.0
O192 O 0.45419 0.40181 0.816 0.0
O193 O 0.4592 0.50213 0.86629 0.0
C194 C 0.47689 0.41502 0.8919 0.0
O195 O 0.41259 0.458 0.76573 0.0
O196 O 0.44355 0.42213 0.55545 0.0
C197 C 0.42418 0.48356 0.83544 0.0
O198 O 0.50055 0.45747 0.50531 0.0
O199 O 0.57576 0.51521 0.65164 0.0
O200 O 0.57381 0.51274 0.80895 0.0
C201 C 0.17331 0.53586 0.38758 0.0
C202 C 0.16747 0.50044 0.34629 0.0
C203 C 0.10908 0.46673 0.42836 0.0
C204 C 0.11345 0.50224 0.46313 0.0
N205 N 0.15483 0.56912 0.50327 0.0
N206 N 0.13617 0.43233 0.34682 0.0
C207 C 0.1475 0.53633 0.45202 0.0
C208 C 0.13748 0.46587 0.3739 0.0
N209 N 0.20205 0.56901 0.36061 0.0
N210 N 0.07686 0.43404 0.4438 0.0
H211 H 0.1567 0.43118 0.30724 0.0
H212 H 0.11684 0.40623 0.36955 0.0
H213 H 0.05694 0.43411 0.48772 0.0
H214 H 0.06926 0.40726 0.41157 0.0
H215 H 0.20505 0.59566 0.37883 0.0
H216 H 0.22195 0.56967 0.31562 0.0
H217 H 0.18062 0.59444 0.50564 0.0
H218 H 0.13626 0.5697 0.55113 0.0
C219 C 0.66336 0.16973 0.35908 0.0
C220 C 0.69263 0.16519 0.32035 0.0
C221 C 0.68932 0.12417 0.44433 0.0
C222 C 0.65467 0.12154 0.46739 0.0
N223 N 0.61647 0.15112 0.47613 0.0
N224 N 0.73579 0.14051 0.32812 0.0
C225 C 0.64459 0.14795 0.43472 0.0
C226 C 0.70691 0.1438 0.36498 0.0
N227 N 0.65264 0.19343 0.32031 0.0
N228 N 0.70559 0.10861 0.49907 0.0
H229 H 0.75005 0.15531 0.27171 0.0
H230 H 0.74429 0.1216 0.34987 0.0
H231 H 0.69484 0.09708 0.56197 0.0
H232 H 0.73216 0.11164 0.48962 0.0
H233 H 0.63003 0.19664 0.34041 0.0
H234 H 0.66668 0.21023 0.26638 0.0
H235 H 0.60703 0.16965 0.45795 0.0
H236 H 0.60398 0.13603 0.53393 0.0
C237 C 0.56286 0.68538 0.23492 0.0
C238 C 0.52563 0.67692 0.20497 0.0
C239 C 0.49997 0.61877 0.28724 0.0
C240 C 0.53704 0.6233 0.29854 0.0
N241 N 0.60355 0.65936 0.27174 0.0
N242 N 0.45824 0.63591 0.20182 0.0
C243 C 0.56858 0.65649 0.27051 0.0
C244 C 0.49396 0.64387 0.23207 0.0
N245 N 0.59281 0.7206 0.22479 0.0
N246 N 0.4709 0.59157 0.33169 0.0
H247 H 0.45342 0.65494 0.16524 0.0
H248 H 0.43392 0.61013 0.20958 0.0
H249 H 0.47435 0.57369 0.376 0.0
H250 H 0.44422 0.5892 0.33208 0.0
H251 H 0.62046 0.72958 0.2519 0.0
H252 H 0.58912 0.74206 0.19786 0.0
H253 H 0.62665 0.68123 0.24317 0.0
H254 H 0.60858 0.63782 0.29201 0.0
C255 C 0.89621 0.57642 0.28848 0.0
C256 C 0.86917 0.53928 0.24863 0.0
C257 C 0.88223 0.51206 0.38512 0.0
C258 C 0.91434 0.54792 0.41367 0.0
N259 N 0.95167 0.61529 0.39774 0.0
N260 N 0.8342 0.47143 0.25917 0.0
C261 C 0.92063 0.58068 0.36865 0.0
C262 C 0.86098 0.50697 0.29794 0.0
N263 N 0.89873 0.60746 0.2489 0.0
N264 N 0.87282 0.48302 0.44152 0.0
H265 H 0.81745 0.46685 0.19653 0.0
H266 H 0.82981 0.44639 0.28623 0.0
H267 H 0.88834 0.48694 0.50602 0.0
H268 H 0.84815 0.45665 0.42934 0.0
H269 H 0.91508 0.63524 0.28012 0.0
H270 H 0.88207 0.60527 0.18814 0.0
H271 H 0.96095 0.6391 0.35978 0.0
H272 H 0.96924 0.62004 0.45872 0.0
C273 C 0.38271 0.85565 0.32678 0.0
C274 C 0.35364 0.86255 0.29193 0.0
C275 C 0.38088 0.92183 0.39747 0.0
C276 C 0.41189 0.91672 0.42464 0.0
N277 N 0.43649 0.87429 0.44138 0.0
N278 N 0.31938 0.89656 0.30806 0.0
C279 C 0.41071 0.88195 0.39801 0.0
C280 C 0.35076 0.89378 0.33268 0.0
N281 N 0.38478 0.82519 0.28763 0.0
N282 N 0.38111 0.9541 0.43192 0.0
H283 H 0.29708 0.87628 0.261 0.0
H284 H 0.31405 0.9173 0.33794 0.0
H285 H 0.40157 0.9733 0.48436 0.0
H286 H 0.36171 0.96218 0.40896 0.0
H287 H 0.40777 0.82101 0.30112 0.0
H288 H 0.36399 0.80471 0.23779 0.0
H289 H 0.43512 0.84797 0.43294 0.0
H290 H 0.45734 0.89348 0.49299 0.0
C291 C 0.44908 0.32477 0.44951 0.0
C292 C 0.48394 0.33314 0.41325 0.0
C293 C 0.51512 0.39619 0.49822 0.0
C294 C 0.47861 0.39109 0.51307 0.0
N295 N 0.41737 0.34469 0.56047 0.0
N296 N 0.55165 0.37235 0.41688 0.0
C297 C 0.44735 0.35343 0.50732 0.0
C298 C 0.51775 0.36716 0.44465 0.0
N299 N 0.41732 0.29046 0.4232 0.0
N300 N 0.54677 0.42799 0.53849 0.0
H301 H 0.5539 0.35052 0.38048 0.0
H302 H 0.57714 0.39798 0.42785 0.0
H303 H 0.54473 0.44717 0.58633 0.0
H304 H 0.57437 0.43316 0.53419 0.0
H305 H 0.39005 0.28451 0.4369 0.0
H306 H 0.41839 0.26847 0.38395 0.0
H307 H 0.39482 0.31712 0.56219 0.0
H308 H 0.41793 0.36369 0.61407 0.0
C309 C 0.56863 0.88613 0.8484 0.0
C310 C 0.53207 0.85452 0.85386 0.0
C311 C 0.50531 0.88557 0.75879 0.0
C312 C 0.54067 0.92054 0.77341 0.0
N313 N 0.60419 0.95447 0.85068 0.0
N314 N 0.46472 0.8243 0.81743 0.0
C315 C 0.57202 0.9208 0.82252 0.0
C316 C 0.50012 0.85413 0.80913 0.0
N317 N 0.59993 0.88356 0.8746 0.0
N318 N 0.47743 0.88135 0.69375 0.0
H319 H 0.46051 0.80026 0.85018 0.0
H320 H 0.43996 0.82444 0.79584 0.0
H321 H 0.48007 0.9027 0.65226 0.0
H322 H 0.45327 0.85511 0.67366 0.0
H323 H 0.62752 0.90501 0.86654 0.0
H324 H 0.59772 0.8583 0.89529 0.0
H325 H 0.62673 0.95647 0.8935 0.0
H326 H 0.60604 0.98057 0.84159 0.0
C327 C 0.66485 0.49409 0.82258 0.0
C328 C 0.69089 0.53128 0.86328 0.0
C329 C 0.66024 0.55706 0.76361 0.0
C330 C 0.62874 0.51988 0.74549 0.0
N331 N 0.60104 0.45218 0.75218 0.0
N332 N 0.71769 0.59898 0.86513 0.0
C333 C 0.63155 0.48797 0.7704 0.0
C334 C 0.6905 0.56321 0.82954 0.0
N335 N 0.67101 0.46464 0.83877 0.0
N336 N 0.66012 0.58624 0.7207 0.0
H337 H 0.74072 0.60373 0.91102 0.0
H338 H 0.71688 0.62353 0.85155 0.0
H339 H 0.63808 0.58148 0.6713 0.0
H340 H 0.68301 0.61392 0.72691 0.0
H341 H 0.65452 0.43727 0.80515 0.0
H342 H 0.69498 0.46853 0.87893 0.0
H343 H 0.59999 0.4279 0.77582 0.0
H344 H 0.57554 0.44709 0.71842 0.0
C345 C 0.14405 0.6266 0.97141 0.0
C346 C 0.16218 0.66543 0.95245 0.0
C347 C 0.12449 0.64578 0.80014 0.0
C348 C 0.09891 0.6101 0.83324 0.0
N349 N 0.08421 0.5677 0.95727 0.0
N350 N 0.16758 0.71231 0.84648 0.0
C351 C 0.10902 0.60031 0.91991 0.0
C352 C 0.1524 0.67518 0.86535 0.0
N353 N 0.15941 0.61563 0.04205 0.0
N354 N 0.123 0.65131 0.70623 0.0
H355 H 0.188 0.7351 0.89182 0.0
H356 H 0.15769 0.72045 0.78815 0.0
H357 H 0.10502 0.62949 0.65483 0.0
H358 H 0.14298 0.67597 0.67837 0.0
H359 H 0.14886 0.58722 0.05473 0.0
H360 H 0.18503 0.63488 0.08076 0.0
H361 H 0.08926 0.56089 0.02416 0.0
H362 H 0.05684 0.54982 0.92628 0.0
C363 C 0.45196 0.12358 0.03352 0.0
C364 C 0.48986 0.15411 0.04909 0.0
C365 C 0.51185 0.11792 0.95518 0.0
C366 C 0.47538 0.08505 0.95604 0.0
N367 N 0.41089 0.05548 -0.00116 0.0
N368 N 0.55619 0.18137 0.02736 0.0
C369 C 0.44526 0.08763 -0.00489 0.0
C370 C 0.51986 0.15179 0.00925 0.0
N371 N 0.42273 0.12892 0.05852 0.0
N372 N 0.53828 0.1174 0.8997 0.0
H373 H 0.5623 0.2074 0.06228 0.0
H374 H 0.58005 0.17943 0.01206 0.0
H375 H 0.53374 0.09352 0.85685 0.0
H376 H 0.56347 0.14189 0.88954 0.0
H377 H 0.39422 0.10864 0.04266 0.0
H378 H 0.42704 0.15514 0.08718 0.0
H379 H 0.38888 0.0549 0.03497 0.0
H380 H 0.40546 0.02856 0.97243 0.0
C381 C 0.38234 0.53173 -0.00973 0.0
C382 C 0.35204 0.49984 0.02666 0.0
C383 C 0.3661 0.45682 0.92965 0.0
C384 C 0.39618 0.48862 0.8913 0.0
N385 N 0.42705 0.55549 0.86889 0.0
N386 N 0.30874 0.43225 0.01228 0.0
C387 C 0.40242 0.52587 0.91662 0.0
C388 C 0.34173 0.46251 -0.01062 0.0
N389 N 0.3926 0.56755 0.02816 0.0
N390 N 0.36251 0.42149 0.91628 0.0
H391 H 0.29061 0.43518 0.05758 0.0
H392 H 0.29752 0.40481 0.97924 0.0
H393 H 0.37997 0.41541 0.87612 0.0
H394 H 0.34435 0.39861 0.9527 0.0
H395 H 0.41711 0.5919 0.01322 0.0
H396 H 0.37735 0.57266 0.07876 0.0
H397 H 0.43072 0.58279 0.87809 0.0
H398 H 0.44133 0.55187 0.81331 0.0
C399 C 0.86264 0.3702 0.95364 0.0
C400 C 0.84828 0.3308 0.9504 0.0
C401 C 0.89461 0.33836 0.8385 0.0
C402 C 0.91803 0.3775 0.87602 0.0
N403 N 0.92234 0.42621 -0.00402 0.0
N404 N 0.84999 0.27587 0.88215 0.0
C405 C 0.90138 0.39292 0.93947 0.0
C406 C 0.86369 0.31419 0.8894 0.0
N407 N 0.842 0.38546 -0.01086 0.0
N408 N 0.89929 0.32428 0.75331 0.0
H409 H 0.82615 0.25714 0.91492 0.0
H410 H 0.86353 0.26333 0.84649 0.0
H411 H 0.91513 0.34111 0.70183 0.0
H412 H 0.88141 0.2961 0.72591 0.0
H413 H 0.85148 0.41459 -0.00774 0.0
H414 H 0.81422 0.36804 0.00664 0.0
H415 H 0.91008 0.43685 0.04306 0.0
H416 H 0.95153 0.43896 0.01146 0.0
C417 C 0.86071 0.48709 0.85419 0.0
C418 C 0.86866 0.52306 0.89701 0.0
C419 C 0.92516 0.55453 0.80651 0.0
C420 C 0.92071 0.51848 0.77697 0.0
N421 N 0.88343 0.45023 0.76477 0.0
N422 N 0.90583 0.59141 0.90825 0.0
C423 C 0.88766 0.48468 0.79674 0.0
C424 C 0.89978 0.55697 0.86981 0.0
N425 N 0.82763 0.45529 0.86989 0.0
N426 N 0.95431 0.58632 0.77533 0.0
H427 H 0.88679 0.594 0.9509 0.0
H428 H 0.9298 0.61736 0.90022 0.0
H429 H 0.97308 0.58475 0.72986 0.0
H430 H 0.95854 0.61368 0.78839 0.0
H431 H 0.81828 0.42841 0.83567 0.0
H432 H 0.80794 0.45628 0.91306 0.0
H433 H 0.86286 0.42422 0.78524 0.0
H434 H 0.90164 0.44785 0.71862 0.0
C435 C 0.32864 0.88769 0.9258 0.0
C436 C 0.33283 0.85585 0.9421 0.0
C437 C 0.37237 0.86845 0.80866 0.0
C438 C 0.37521 0.90457 0.80743 0.0
N439 N 0.35601 0.94941 0.86503 0.0
N440 N 0.35675 0.8139 0.89742 0.0
C441 C 0.3525 0.91408 0.86405 0.0
C442 C 0.35349 0.84511 0.88166 0.0
N443 N 0.30226 0.89289 0.97081 0.0
N444 N 0.38795 0.85689 0.74001 0.0
H445 H 0.34248 0.79576 0.94892 0.0
H446 H 0.37488 0.807 0.86269 0.0
H447 H 0.40142 0.87381 0.68566 0.0
H448 H 0.38417 0.82954 0.73143 0.0
H449 H 0.29529 0.91357 0.95523 0.0
H450 H 0.28467 0.87404 0.01729 0.0
H451 H 0.34421 0.95963 0.91445 0.0
H452 H 0.37248 0.96965 0.82009 0.0
C453 C 0.51208 0.35873 0.03181 0.0
C454 C 0.47795 0.33192 0.06842 0.0
C455 C 0.44377 0.36045 -0.00726 0.0
C456 C 0.47762 0.38689 0.95412 0.0
N457 N 0.54205 0.40628 0.92044 0.0
N458 N 0.41005 0.30125 0.06642 0.0
C459 C 0.51126 0.38456 0.96877 0.0
C460 C 0.44334 0.3308 0.04259 0.0
N461 N 0.54546 0.36031 0.06005 0.0
N462 N 0.41263 0.36501 0.98661 0.0
H463 H 0.40913 0.27919 0.10277 0.0
H464 H 0.38339 0.29663 0.04248 0.0
H465 H 0.4123 0.38717 0.95373 0.0
H466 H 0.3884 0.34916 0.02162 0.0
H467 H 0.57199 0.38144 0.04393 0.0
H468 H 0.54685 0.34107 0.10348 0.0
H469 H 0.5661 0.40339 0.92072 0.0
H470 H 0.54249 0.42535 0.87362 0.0
C471 C 0.13757 0.44219 0.96127 0.0
C472 C 0.16455 0.48012 -0.00388 0.0
C473 C 0.14499 0.50477 0.86459 0.0
C474 C 0.11522 0.46723 0.83629 0.0
N475 N 0.09099 0.39967 0.83466 0.0
N476 N 0.20051 0.54677 0.97205 0.0
C477 C 0.11432 0.43567 0.8766 0.0
C478 C 0.17067 0.51122 0.94406 0.0
N479 N 0.13303 0.41271 0.01183 0.0
N480 N 0.1471 0.53416 0.81747 0.0
H481 H 0.21924 0.55242 0.03136 0.0
H482 H 0.20821 0.57043 0.93444 0.0
H483 H 0.12998 0.52943 0.75531 0.0
H484 H 0.16498 0.56284 0.8395 0.0
H485 H 0.11087 0.38484 -0.00279 0.0
H486 H 0.15061 0.41642 0.07215 0.0
H487 H 0.09097 0.3756 0.85637 0.0
H488 H 0.07428 0.39411 0.77159 0.0
C489 C 0.67717 0.11185 0.94026 0.0
C490 C 0.67789 0.14663 0.96592 0.0
C491 C 0.63007 0.13203 0.83346 0.0
C492 C 0.62459 0.09484 0.82028 0.0
N493 N 0.65143 0.05445 0.83082 0.0
N494 N 0.65621 0.19103 0.9354 0.0
C495 C 0.65096 0.08637 0.86461 0.0
C496 C 0.65537 0.15755 0.91043 0.0
N497 N 0.70058 0.10276 -0.00935 0.0
N498 N 0.61141 0.14282 0.77113 0.0
H499 H 0.67432 0.21046 -0.00902 0.0
H500 H 0.63759 0.19876 0.90464 0.0
H501 H 0.59326 0.12435 0.71424 0.0
H502 H 0.61638 0.17055 0.77044 0.0
H503 H 0.69899 0.07635 0.98286 0.0
H504 H 0.72132 0.12167 0.04298 0.0
H505 H 0.67099 0.04673 0.85488 0.0
H506 H 0.63388 0.0375 0.77117 0.0
C507 C 0.58204 0.67439 0.9045 0.0
C508 C 0.5496 0.6776 0.87947 0.0
C509 C 0.53116 0.6292 0.74798 0.0
C510 C 0.55817 0.61995 0.78664 0.0
N511 N 0.61083 0.63426 0.8983 0.0
N512 N 0.49236 0.65771 0.77925 0.0
C513 C 0.5845 0.64305 0.86336 0.0
C514 C 0.52423 0.65542 0.8006 0.0
N515 N 0.60965 0.70091 0.96954 0.0
N516 N 0.51318 0.6141 0.6595 0.0
H517 H 0.48701 0.67766 0.81443 0.0
H518 H 0.47036 0.6384 0.73015 0.0
H519 H 0.51719 0.59462 0.61748 0.0
H520 H 0.49717 0.62394 0.62408 0.0
H521 H 0.63525 0.70183 0.98697 0.0
H522 H 0.60809 0.72414 -0.00012 0.0
H523 H 0.62856 0.64788 0.95997 0.0
H524 H 0.61328 0.6115 0.86853 0.0
C525 C 0.51717 0.15746 0.44968 0.0
C526 C 0.48804 0.15019 0.37932 0.0
C527 C 0.459 0.08159 0.39271 0.0
C528 C 0.48758 0.08858 0.46457 0.0
N529 N 0.53734 0.13391 0.58063 0.0
N530 N 0.4257 0.1072 0.3041 0.0
C531 C 0.51487 0.12679 0.49887 0.0
C532 C 0.45685 0.11274 0.35877 0.0
N533 N 0.54748 0.19343 0.46745 0.0
N534 N 0.43493 0.04521 0.35414 0.0
H535 H 0.42369 0.12987 0.27884 0.0
H536 H 0.40079 0.08101 0.29188 0.0
H537 H 0.43718 0.02207 0.37459 0.0
H538 H 0.41556 0.03849 0.29569 0.0
H539 H 0.57163 0.20004 0.51102 0.0
H540 H 0.5489 0.21653 0.43522 0.0
H541 H 0.5549 0.16115 0.61404 0.0
H542 H 0.5363 0.11243 0.61945 0.0
C543 C 0.34421 0.46046 0.39173 0.0
C544 C 0.3487 0.49651 0.37477 0.0
C545 C 0.40007 0.52738 0.50141 0.0
C546 C 0.40087 0.49307 0.50228 0.0
N547 N 0.36637 0.42521 0.48354 0.0
N548 N 0.37546 0.56336 0.42239 0.0
C549 C 0.37008 0.45883 0.45927 0.0
C550 C 0.37432 0.52965 0.43445 0.0
N551 N 0.31672 0.42846 0.33924 0.0
N552 N 0.42464 0.55753 0.56351 0.0
H553 H 0.35626 0.56533 0.375 0.0
H554 H 0.3955 0.5894 0.45762 0.0
H555 H 0.44228 0.55478 0.61437 0.0
H556 H 0.42542 0.58357 0.57029 0.0
H557 H 0.31395 0.40163 0.34122 0.0
H558 H 0.29666 0.42901 0.29175 0.0
H559 H 0.3441 0.3985 0.45794 0.0
H560 H 0.38434 0.42476 0.53758 0.0
C561 C 0.91611 0.3482 0.28947 0.0
C562 C 0.87888 0.34281 0.28998 0.0
C563 C 0.90252 0.39787 0.40844 0.0
C564 C 0.94052 0.40622 0.39774 0.0
N565 N 0.98371 0.39275 0.31589 0.0
N566 N 0.83759 0.36636 0.33903 0.0
C567 C 0.94729 0.38231 0.33435 0.0
C568 C 0.8723 0.36867 0.34661 0.0
N569 N 0.92145 0.32059 0.24519 0.0
N570 N 0.89471 0.41605 0.48085 0.0
H571 H 0.8143 0.34469 0.29727 0.0
H572 H 0.83267 0.38737 0.36952 0.0
H573 H 0.91543 0.43762 0.52846 0.0
H574 H 0.86718 0.40748 0.49847 0.0
H575 H 0.94741 0.32124 0.24862 0.0
H576 H 0.89885 0.29516 0.21272 0.0
H577 H 0.99054 0.37825 0.26439 0.0
H578 H 1.0069 0.41831 0.3456 0.0
C579 C 0.59164 0.90691 0.18026 0.0
C580 C 0.55785 0.87211 0.18888 0.0
C581 C 0.54128 0.9022 0.3167 0.0
C582 C 0.57061 0.9382 0.29426 0.0
N583 N 0.62464 0.97587 0.20806 0.0
N584 N 0.49987 0.8358 0.26314 0.0
C585 C 0.59647 0.94093 0.22767 0.0
C586 C 0.53286 0.86927 0.25794 0.0
N587 N 0.61836 0.90702 0.12483 0.0
N588 N 0.52196 0.89933 0.39523 0.0
H589 H 0.49341 0.81059 0.22332 0.0
H590 H 0.47811 0.83354 0.30336 0.0
H591 H 0.5258 0.92278 0.4388 0.0
H592 H 0.50458 0.87339 0.42194 0.0
H593 H 0.64476 0.93086 0.11957 0.0
H594 H 0.61512 0.882 0.09034 0.0
H595 H 0.64226 0.97997 0.15354 0.0
H596 H 0.62885 1.00121 0.24299 0.0
C597 C 0.697 0.55521 0.28422 0.0
C598 C 0.68267 0.5251 0.21033 0.0
C599 C 0.62251 0.49253 0.28678 0.0
C600 C 0.63495 0.52532 0.35184 0.0
N601 N 0.69088 0.57506 0.44376 0.0
N602 N 0.63233 0.46371 0.14343 0.0
C603 C 0.6743 0.55302 0.36027 0.0
C604 C 0.64571 0.49312 0.21308 0.0
N605 N 0.73151 0.58703 0.27957 0.0
N606 N 0.59013 0.45971 0.30094 0.0
H607 H 0.6494 0.46138 0.09364 0.0
H608 H 0.60393 0.44264 0.13216 0.0
H609 H 0.57548 0.45711 0.36115 0.0
H610 H 0.58055 0.43379 0.26107 0.0
H611 H 0.74118 0.61173 0.32494 0.0
H612 H 0.74919 0.58999 0.22573 0.0
H613 H 0.71997 0.59381 0.45598 0.0
H614 H 0.67693 0.56997 0.50576 0.0
C615 C 0.16091 0.68334 0.3392 0.0
C616 C 0.15387 0.70555 0.27667 0.0
C617 C 0.08712 0.67459 0.31008 0.0
C618 C 0.09348 0.64999 0.36532 0.0
N619 N 0.13746 0.63834 0.45774 0.0
N620 N 0.11513 0.73119 0.22369 0.0
C621 C 0.13081 0.65693 0.38848 0.0
C622 C 0.11848 0.70441 0.27062 0.0
N623 N 0.19541 0.68511 0.345 0.0
N624 N 0.05106 0.66833 0.29244 0.0
H625 H 0.13833 0.75298 0.19471 0.0
H626 H 0.09089 0.73375 0.22007 0.0
H627 H 0.02774 0.64678 0.32141 0.0
H628 H 0.04385 0.68312 0.24602 0.0
H629 H 0.20053 0.66554 0.37762 0.0
H630 H 0.21878 0.70547 0.31373 0.0
H631 H 0.16459 0.646 0.48629 0.0
H632 H 0.1159 0.61726 0.49242 0.0
loop_
_geom_bond_atom_site_label_1
_geom_bond_atom_site_label_2
_geom_bond_distance
_geom_bond_site_symmetry_2
_ccdc_geom_bond_type
H0 C6 0.930 . S
H1 C9 0.931 . S
H2 C11 0.931 . S
H3 C13 0.930 . S
H4 C15 0.930 . S
H5 C17 0.931 . S
C6 H0 0.930 . S
C6 C7 1.380 . S
C6 C8 1.394 . S
C7 C6 1.380 . S
C7 C11 1.382 . S
C8 C6 1.394 . S
C8 C9 1.400 . S
C9 H1 0.931 . S
C9 C8 1.400 . S
C9 C10 1.375 . S
C10 C9 1.375 . S
C10 C11 1.415 . S
C10 C12 1.501 . S
C11 H2 0.931 . S
C11 C7 1.382 . S
C11 C10 1.415 . S
C12 C10 1.501 . S
C12 C13 1.384 . S
C12 C17 1.408 . S
C13 H3 0.930 . S
C13 C12 1.384 . S
C13 C14 1.389 . S
C14 C13 1.389 . S
C14 C15 1.405 . S
C15 H4 0.930 . S
C15 C14 1.405 . S
C15 C16 1.364 . S
C16 C15 1.364 . S
C16 C17 1.400 . S
C17 H5 0.931 . S
C17 C12 1.408 . S
C17 C16 1.400 . S
H18 C24 0.930 . S
H19 C27 0.931 . S
H20 C29 0.931 . S
H21 C31 0.930 . S
H22 C33 0.930 . S
H23 C35 0.931 . S
C24 H18 0.930 . S
C24 C25 1.380 . S
C24 C26 1.394 . S
C25 C24 1.380 . S
C25 C29 1.382 . S
C26 C24 1.394 . S
C26 C27 1.400 . S
C27 H19 0.931 . S
C27 C26 1.400 . S
C27 C28 1.375 . S
C28 C27 1.375 . S
C28 C29 1.415 . S
C28 C30 1.501 . S
C29 H20 0.931 . S
C29 C25 1.382 . S
C29 C28 1.415 . S
C30 C28 1.501 . S
C30 C31 1.384 . S
C30 C35 1.408 . S
C31 H21 0.930 . S
C31 C30 1.384 . S
C31 C32 1.389 . S
C32 C31 1.389 . S
C32 C33 1.405 . S
C33 H22 0.930 . S
C33 C32 1.405 . S
C33 C34 1.364 . S
C34 C33 1.364 . S
C34 C35 1.400 . S
C35 H23 0.931 . S
C35 C30 1.408 . S
C35 C34 1.400 . S
H36 C42 0.930 . S
H37 C45 0.931 . S
H38 C47 0.931 . S
H39 C49 0.930 . S
H40 C51 0.930 . S
H41 C53 0.931 . S
C42 H36 0.930 . S
C42 C43 1.380 1_554 S
C42 C44 1.394 . S
C43 C42 1.380 1_556 S
C43 C47 1.382 . S
C44 C42 1.394 . S
C44 C45 1.400 . S
C45 H37 0.931 . S
C45 C44 1.400 . S
C45 C46 1.375 . S
C46 C45 1.375 . S
C46 C47 1.415 1_554 S
C46 C48 1.501 . S
C47 H38 0.931 . S
C47 C43 1.382 . S
C47 C46 1.415 1_556 S
C48 C46 1.501 . S
C48 C49 1.384 1_554 S
C48 C53 1.408 . S
C49 H39 0.930 . S
C49 C48 1.384 1_556 S
C49 C50 1.389 . S
C50 C49 1.389 . S
C50 C51 1.405 1_556 S
C51 H40 0.930 . S
C51 C50 1.405 1_554 S
C51 C52 1.364 . S
C52 C51 1.364 . S
C52 C53 1.400 . S
C53 H41 0.931 . S
C53 C48 1.408 . S
C53 C52 1.400 . S
H54 C60 0.930 . S
H55 C63 0.931 . S
H56 C65 0.931 . S
H57 C67 0.930 . S
H58 C69 0.930 . S
H59 C71 0.931 . S
C60 H54 0.930 . S
C60 C61 1.380 1_554 S
C60 C62 1.394 . S
C61 C60 1.380 1_556 S
C61 C65 1.382 . S
C62 C60 1.394 . S
C62 C63 1.400 . S
C63 H55 0.931 . S
C63 C62 1.400 . S
C63 C64 1.375 . S
C64 C63 1.375 . S
C64 C65 1.415 1_554 S
C64 C66 1.501 . S
C65 H56 0.931 . S
C65 C61 1.382 . S
C65 C64 1.415 1_556 S
C66 C64 1.501 . S
C66 C67 1.384 1_554 S
C66 C71 1.408 . S
C67 H57 0.930 . S
C67 C66 1.384 1_556 S
C67 C68 1.389 . S
C68 C67 1.389 . S
C68 C69 1.405 1_556 S
C69 H58 0.930 . S
C69 C68 1.405 1_554 S
C69 C70 1.364 . S
C70 C69 1.364 . S
C70 C71 1.400 . S
C71 H59 0.931 . S
C71 C66 1.408 . S
C71 C70 1.400 . S
H72 C78 0.930 . S
H73 C81 0.931 . S
H74 C83 0.931 1_556 S
H75 C85 0.930 1_556 S
H76 C87 0.930 . S
H77 C89 0.931 . S
C78 H72 0.930 . S
C78 C79 1.380 . S
C78 C80 1.394 . S
C79 C78 1.380 . S
C79 C83 1.382 . S
C80 C78 1.394 . S
C80 C81 1.400 . S
C81 H73 0.931 . S
C81 C80 1.400 . S
C81 C82 1.375 . S
C82 C81 1.375 . S
C82 C83 1.415 . S
C82 C84 1.501 . S
C83 H74 0.931 1_554 S
C83 C79 1.382 . S
C83 C82 1.415 . S
C84 C82 1.501 . S
C84 C85 1.384 . S
C84 C89 1.408 . S
C85 H75 0.930 1_554 S
C85 C84 1.384 . S
C85 C86 1.389 . S
C86 C85 1.389 . S
C86 C87 1.405 . S
C87 H76 0.930 . S
C87 C86 1.405 . S
C87 C88 1.364 . S
C88 C87 1.364 . S
C88 C89 1.400 . S
C89 H77 0.931 . S
C89 C84 1.408 . S
C89 C88 1.400 . S
H90 C96 0.930 . S
H91 C99 0.931 . S
H92 C101 0.931 . S
H93 C103 0.930 . S
H94 C105 0.930 . S
H95 C107 0.931 . S
C96 H90 0.930 . S
C96 C97 1.380 . S
C96 C98 1.394 . S
C97 C96 1.380 . S
C97 C101 1.382 . S
C98 C96 1.394 . S
C98 C99 1.400 . S
C99 H91 0.931 . S
C99 C98 1.400 . S
C99 C100 1.375 . S
C100 C99 1.375 . S
C100 C101 1.415 . S
C100 C102 1.501 . S
C101 H92 0.931 . S
C101 C97 1.382 . S
C101 C100 1.415 . S
C102 C100 1.501 . S
C102 C103 1.384 . S
C102 C107 1.408 . S
C103 H93 0.930 . S
C103 C102 1.384 . S
C103 C104 1.389 . S
C104 C103 1.389 . S
C104 C105 1.405 . S
C105 H94 0.930 . S
C105 C104 1.405 . S
C105 C106 1.364 . S
C106 C105 1.364 . S
C106 C107 1.400 . S
C107 H95 0.931 . S
C107 C102 1.408 . S
C107 C106 1.400 . S
C108 O120 1.241 . S
C108 O121 1.280 . S
C109 O122 1.277 . S
C109 O123 1.245 . S
C110 O134 1.247 . S
C110 O136 1.289 . S
Mg111 O112 1.926 . S
Mg111 O121 1.984 . S
Mg111 O123 1.988 1_655 S
Mg111 O124 2.061 . S
O112 Mg111 1.926 . S
O112 Mg113 1.986 1_655 S
O112 Mg114 1.917 1_655 S
Mg113 O112 1.986 1_455 S
Mg113 O120 2.042 1_455 S
Mg113 O122 2.041 . S
Mg113 O128 2.038 1_455 S
Mg113 O136 2.238 . S
Mg114 O112 1.917 1_455 S
Mg114 O115 1.917 . S
Mg114 O125 2.106 1_455 S
Mg114 O127 2.079 1_455 S
Mg114 O136 2.106 . S
Mg114 O137 2.079 . S
O115 Mg114 1.917 . S
O115 Mg116 1.926 . S
O115 Mg117 1.986 . S
Mg116 O115 1.926 . S
Mg116 O130 1.984 . S
Mg116 O133 1.988 1_455 S
Mg116 O134 2.061 . S
Mg117 O115 1.986 . S
Mg117 O125 2.238 1_455 S
Mg117 O129 2.042 . S
Mg117 O131 2.041 1_455 S
Mg117 O138 2.038 . S
C118 O124 1.247 . S
C118 O125 1.289 . S
C119 O137 1.245 . S
C119 O138 1.274 . S
O120 C108 1.241 . S
O120 Mg113 2.042 1_655 S
O121 C108 1.280 . S
O121 Mg111 1.984 . S
O122 C109 1.277 . S
O122 Mg113 2.041 . S
O123 C109 1.245 . S
O123 Mg111 1.988 1_455 S
O124 Mg111 2.061 . S
O124 C118 1.247 . S
O125 Mg114 2.106 1_655 S
O125 Mg117 2.238 1_655 S
O125 C118 1.289 . S
C126 O127 1.245 . S
C126 O128 1.274 . S
O127 Mg114 2.079 1_655 S
O127 C126 1.245 . S
O128 Mg113 2.038 1_655 S
O128 C126 1.274 . S
O129 Mg117 2.042 . S
O129 C132 1.241 . S
O130 Mg116 1.984 . S
O130 C132 1.280 . S
O131 Mg117 2.041 1_655 S
O131 C135 1.277 . S
C132 O129 1.241 . S
C132 O130 1.280 . S
O133 Mg116 1.988 1_655 S
O133 C135 1.245 . S
O134 C110 1.247 . S
O134 Mg116 2.061 . S
C135 O131 1.277 . S
C135 O133 1.245 . S
O136 C110 1.289 . S
O136 Mg113 2.238 . S
O136 Mg114 2.106 . S
O137 Mg114 2.079 . S
O137 C119 1.245 . S
O138 Mg117 2.038 . S
O138 C119 1.274 . S
C139 O151 1.241 . S
C139 O152 1.280 . S
C140 O153 1.277 . S
C140 O154 1.245 . S
C141 O165 1.247 . S
C141 O167 1.289 . S
Mg142 O143 1.926 . S
Mg142 O152 1.984 . S
Mg142 O154 1.988 1_545 S
Mg142 O155 2.061 . S
O143 Mg142 1.926 . S
O143 Mg144 1.986 . S
O143 Mg145 1.917 . S
Mg144 O143 1.986 . S
Mg144 O151 2.042 . S
Mg144 O153 2.041 1_545 S
Mg144 O159 2.038 . S
Mg144 O167 2.238 1_545 S
Mg145 O143 1.917 . S
Mg145 O146 1.917 1_545 S
Mg145 O156 2.106 . S
Mg145 O158 2.079 . S
Mg145 O167 2.106 1_545 S
Mg145 O168 2.079 1_545 S
O146 Mg145 1.917 1_565 S
O146 Mg147 1.926 . S
O146 Mg148 1.986 1_565 S
Mg147 O146 1.926 . S
Mg147 O161 1.984 . S
Mg147 O164 1.988 1_565 S
Mg147 O165 2.061 . S
Mg148 O146 1.986 1_545 S
Mg148 O156 2.238 . S
Mg148 O160 2.042 1_545 S
Mg148 O162 2.041 . S
Mg148 O169 2.038 1_545 S
C149 O155 1.247 . S
C149 O156 1.289 . S
C150 O168 1.245 . S
C150 O169 1.274 . S
O151 C139 1.241 . S
O151 Mg144 2.042 . S
O152 C139 1.280 . S
O152 Mg142 1.984 . S
O153 C140 1.277 . S
O153 Mg144 2.041 1_565 S
O154 C140 1.245 . S
O154 Mg142 1.988 1_565 S
O155 Mg142 2.061 . S
O155 C149 1.247 . S
O156 Mg145 2.106 . S
O156 Mg148 2.238 . S
O156 C149 1.289 . S
C157 O158 1.245 . S
C157 O159 1.274 . S
O158 Mg145 2.079 . S
O158 C157 1.245 . S
O159 Mg144 2.038 . S
O159 C157 1.274 . S
O160 Mg148 2.042 1_565 S
O160 C163 1.241 . S
O161 Mg147 1.984 . S
O161 C163 1.280 . S
O162 Mg148 2.041 . S
O162 C166 1.277 . S
C163 O160 1.241 . S
C163 O161 1.280 . S
O164 Mg147 1.988 1_545 S
O164 C166 1.245 . S
O165 C141 1.247 . S
O165 Mg147 2.061 . S
C166 O162 1.277 . S
C166 O164 1.245 . S
O167 C141 1.289 . S
O167 Mg144 2.238 1_565 S
O167 Mg145 2.106 1_565 S
O168 Mg145 2.079 1_565 S
O168 C150 1.245 . S
O169 Mg148 2.038 1_565 S
O169 C150 1.274 . S
C170 O182 1.241 . S
C170 O183 1.280 . S
C171 O184 1.277 . S
C171 O185 1.245 . S
C172 O196 1.247 . S
C172 O198 1.289 . S
Mg173 O174 1.926 . S
Mg173 O183 1.984 . S
Mg173 O185 1.988 . S
Mg173 O186 2.061 . S
O174 Mg173 1.926 . S
O174 Mg175 1.986 . S
O174 Mg176 1.917 . S
Mg175 O174 1.986 . S
Mg175 O182 2.042 . S
Mg175 O184 2.041 . S
Mg175 O190 2.038 . S
Mg175 O198 2.238 . S
Mg176 O174 1.917 . S
Mg176 O177 1.917 . S
Mg176 O187 2.106 . S
Mg176 O189 2.079 . S
Mg176 O198 2.106 . S
Mg176 O199 2.079 . S
O177 Mg176 1.917 . S
O177 Mg178 1.926 . S
O177 Mg179 1.986 . S
Mg178 O177 1.926 . S
Mg178 O192 1.984 . S
Mg178 O195 1.988 . S
Mg178 O196 2.061 . S
Mg179 O177 1.986 . S
Mg179 O187 2.238 . S
Mg179 O191 2.042 . S
Mg179 O193 2.041 . S
Mg179 O200 2.038 . S
C180 O186 1.247 . S
C180 O187 1.289 . S
C181 O199 1.245 . S
C181 O200 1.274 . S
O182 C170 1.241 . S
O182 Mg175 2.042 . S
O183 C170 1.280 . S
O183 Mg173 1.984 . S
O184 C171 1.277 . S
O184 Mg175 2.041 . S
O185 C171 1.245 . S
O185 Mg173 1.988 . S
O186 Mg173 2.061 . S
O186 C180 1.247 . S
O187 Mg176 2.106 . S
O187 Mg179 2.238 . S
O187 C180 1.289 . S
C188 O189 1.245 . S
C188 O190 1.274 . S
O189 Mg176 2.079 . S
O189 C188 1.245 . S
O190 Mg175 2.038 . S
O190 C188 1.274 . S
O191 Mg179 2.042 . S
O191 C194 1.241 . S
O192 Mg178 1.984 . S
O192 C194 1.280 . S
O193 Mg179 2.041 . S
O193 C197 1.277 . S
C194 O191 1.241 . S
C194 O192 1.280 . S
O195 Mg178 1.988 . S
O195 C197 1.245 . S
O196 C172 1.247 . S
O196 Mg178 2.061 . S
C197 O193 1.277 . S
C197 O195 1.245 . S
O198 C172 1.289 . S
O198 Mg175 2.238 . S
O198 Mg176 2.106 . S
O199 Mg176 2.079 . S
O199 C181 1.245 . S
O200 Mg179 2.038 . S
O200 C181 1.274 . S
C201 C202 1.363 . S
C201 C207 1.379 . S
C201 N209 1.356 . S
C202 C201 1.363 . S
C202 C208 1.363 . S
C203 C204 1.363 . S
C203 C208 1.379 . S
C203 N210 1.356 . S
C204 C203 1.363 . S
C204 C207 1.363 . S
N205 C207 1.356 . S
N205 H217 0.984 . S
N205 H218 0.985 . S
N206 C208 1.356 . S
N206 H211 0.984 . S
N206 H212 0.985 . S
C207 C201 1.379 . S
C207 C204 1.363 . S
C207 N205 1.356 . S
C208 C202 1.363 . S
C208 C203 1.379 . S
C208 N206 1.356 . S
N209 C201 1.356 . S
N209 H215 0.984 . S
N209 H216 0.984 . S
N210 C203 1.356 . S
N210 H213 0.984 . S
N210 H214 0.985 . S
H211 N206 0.984 . S
H212 N206 0.985 . S
H213 N210 0.984 . S
H214 N210 0.985 . S
H215 N209 0.984 . S
H216 N209 0.984 . S
H217 N205 0.984 . S
H218 N205 0.985 . S
C219 C220 1.363 . S
C219 C225 1.379 . S
C219 N227 1.356 . S
C220 C219 1.363 . S
C220 C226 1.363 . S
C221 C222 1.363 . S
C221 C226 1.379 . S
C221 N228 1.356 . S
C222 C221 1.363 . S
C222 C225 1.363 . S
N223 C225 1.356 . S
N223 H235 0.984 . S
N223 H236 0.985 . S
N224 C226 1.356 . S
N224 H229 0.984 . S
N224 H230 0.985 . S
C225 C219 1.379 . S
C225 C222 1.363 . S
C225 N223 1.356 . S
C226 C220 1.363 . S
C226 C221 1.379 . S
C226 N224 1.356 . S
N227 C219 1.356 . S
N227 H233 0.984 . S
N227 H234 0.984 . S
N228 C221 1.356 . S
N228 H231 0.984 . S
N228 H232 0.985 . S
H229 N224 0.984 . S
H230 N224 0.985 . S
H231 N228 0.984 . S
H232 N228 0.985 . S
H233 N227 0.984 . S
H234 N227 0.984 . S
H235 N223 0.984 . S
H236 N223 0.985 . S
C237 C238 1.363 . S
C237 C243 1.379 . S
C237 N245 1.356 . S
C238 C237 1.363 . S
C238 C244 1.363 . S
C239 C240 1.363 . S
C239 C244 1.379 . S
C239 N246 1.356 . S
C240 C239 1.363 . S
C240 C243 1.363 . S
N241 C243 1.356 . S
N241 H253 0.984 . S
N241 H254 0.985 . S
N242 C244 1.356 . S
N242 H247 0.984 . S
N242 H248 0.985 . S
C243 C237 1.379 . S
C243 C240 1.363 . S
C243 N241 1.356 . S
C244 C238 1.363 . S
C244 C239 1.379 . S
C244 N242 1.356 . S
N245 C237 1.356 . S
N245 H251 0.984 . S
N245 H252 0.984 . S
N246 C239 1.356 . S
N246 H249 0.984 . S
N246 H250 0.985 . S
H247 N242 0.984 . S
H248 N242 0.985 . S
H249 N246 0.984 . S
H250 N246 0.985 . S
H251 N245 0.984 . S
H252 N245 0.984 . S
H253 N241 0.984 . S
H254 N241 0.985 . S
C255 C256 1.363 . S
C255 C261 1.379 . S
C255 N263 1.356 . S
C256 C255 1.363 . S
C256 C262 1.363 . S
C257 C258 1.363 . S
C257 C262 1.379 . S
C257 N264 1.356 . S
C258 C257 1.363 . S
C258 C261 1.363 . S
N259 C261 1.356 . S
N259 H271 0.984 . S
N259 H272 0.985 . S
N260 C262 1.356 . S
N260 H265 0.984 . S
N260 H266 0.985 . S
C261 C255 1.379 . S
C261 C258 1.363 . S
C261 N259 1.356 . S
C262 C256 1.363 . S
C262 C257 1.379 . S
C262 N260 1.356 . S
N263 C255 1.356 . S
N263 H269 0.984 . S
N263 H270 0.984 . S
N264 C257 1.356 . S
N264 H267 0.984 . S
N264 H268 0.985 . S
H265 N260 0.984 . S
H266 N260 0.985 . S
H267 N264 0.984 . S
H268 N264 0.985 . S
H269 N263 0.984 . S
H270 N263 0.984 . S
H271 N259 0.984 . S
H272 N259 0.985 . S
C273 C274 1.363 . S
C273 C279 1.379 . S
C273 N281 1.356 . S
C274 C273 1.363 . S
C274 C280 1.363 . S
C275 C276 1.363 . S
C275 C280 1.379 . S
C275 N282 1.356 . S
C276 C275 1.363 . S
C276 C279 1.363 . S
N277 C279 1.356 . S
N277 H289 0.984 . S
N277 H290 0.985 . S
N278 C280 1.356 . S
N278 H283 0.984 . S
N278 H284 0.985 . S
C279 C273 1.379 . S
C279 C276 1.363 . S
C279 N277 1.356 . S
C280 C274 1.363 . S
C280 C275 1.379 . S
C280 N278 1.356 . S
N281 C273 1.356 . S
N281 H287 0.984 . S
N281 H288 0.984 . S
N282 C275 1.356 . S
N282 H285 0.984 . S
N282 H286 0.985 . S
H283 N278 0.984 . S
H284 N278 0.985 . S
H285 N282 0.984 . S
H286 N282 0.985 . S
H287 N281 0.984 . S
H288 N281 0.984 . S
H289 N277 0.984 . S
H290 N277 0.985 . S
C291 C292 1.363 . S
C291 C297 1.379 . S
C291 N299 1.356 . S
C292 C291 1.363 . S
C292 C298 1.363 . S
C293 C294 1.363 . S
C293 C298 1.379 . S
C293 N300 1.356 . S
C294 C293 1.363 . S
C294 C297 1.363 . S
N295 C297 1.356 . S
N295 H307 0.984 . S
N295 H308 0.985 . S
N296 C298 1.356 . S
N296 H301 0.984 . S
N296 H302 0.985 . S
C297 C291 1.379 . S
C297 C294 1.363 . S
C297 N295 1.356 . S
C298 C292 1.363 . S
C298 C293 1.379 . S
C298 N296 1.356 . S
N299 C291 1.356 . S
N299 H305 0.984 . S
N299 H306 0.984 . S
N300 C293 1.356 . S
N300 H303 0.984 . S
N300 H304 0.985 . S
H301 N296 0.984 . S
H302 N296 0.985 . S
H303 N300 0.984 . S
H304 N300 0.985 . S
H305 N299 0.984 . S
H306 N299 0.984 . S
H307 N295 0.984 . S
H308 N295 0.985 . S
C309 C310 1.363 . S
C309 C315 1.379 . S
C309 N317 1.356 1_556 S
C310 C309 1.363 . S
C310 C316 1.363 . S
C311 C312 1.363 . S
C311 C316 1.379 . S
C311 N318 1.356 . S
C312 C311 1.363 . S
C312 C315 1.363 . S
N313 C315 1.356 . S
N313 H325 0.984 . S
N313 H326 0.985 . S
N314 C316 1.356 . S
N314 H319 0.984 . S
N314 H320 0.985 . S
C315 C309 1.379 . S
C315 C312 1.363 . S
C315 N313 1.356 . S
C316 C310 1.363 . S
C316 C311 1.379 . S
C316 N314 1.356 . S
N317 C309 1.356 1_554 S
N317 H323 0.984 . S
N317 H324 0.984 . S
N318 C311 1.356 . S
N318 H321 0.984 . S
N318 H322 0.985 . S
H319 N314 0.984 . S
H320 N314 0.985 . S
H321 N318 0.984 . S
H322 N318 0.985 . S
H323 N317 0.984 . S
H324 N317 0.984 . S
H325 N313 0.984 . S
H326 N313 0.985 . S
C327 C328 1.363 . S
C327 C333 1.379 . S
C327 N335 1.356 . S
C328 C327 1.363 . S
C328 C334 1.363 . S
C329 C330 1.363 . S
C329 C334 1.379 . S
C329 N336 1.356 . S
C330 C329 1.363 . S
C330 C333 1.363 . S
N331 C333 1.356 . S
N331 H343 0.984 . S
N331 H344 0.985 . S
N332 C334 1.356 . S
N332 H337 0.984 1_556 S
N332 H338 0.985 1_556 S
C333 C327 1.379 . S
C333 C330 1.363 . S
C333 N331 1.356 . S
C334 C328 1.363 . S
C334 C329 1.379 . S
C334 N332 1.356 . S
N335 C327 1.356 . S
N335 H341 0.984 . S
N335 H342 0.984 . S
N336 C329 1.356 . S
N336 H339 0.984 . S
N336 H340 0.985 . S
H337 N332 0.984 1_554 S
H338 N332 0.985 1_554 S
H339 N336 0.984 . S
H340 N336 0.985 . S
H341 N335 0.984 . S
H342 N335 0.984 . S
H343 N331 0.984 . S
H344 N331 0.985 . S
C345 C346 1.363 . S
C345 C351 1.379 . S
C345 N353 1.356 1_556 S
C346 C345 1.363 . S
C346 C352 1.363 . S
C347 C348 1.363 . S
C347 C352 1.379 . S
C347 N354 1.356 . S
C348 C347 1.363 . S
C348 C351 1.363 . S
N349 C351 1.356 . S
N349 H361 0.984 1_556 S
N349 H362 0.985 . S
N350 C352 1.356 . S
N350 H355 0.984 . S
N350 H356 0.985 . S
C351 C345 1.379 . S
C351 C348 1.363 . S
C351 N349 1.356 . S
C352 C346 1.363 . S
C352 C347 1.379 . S
C352 N350 1.356 . S
N353 C345 1.356 1_554 S
N353 H359 0.984 . S
N353 H360 0.984 . S
N354 C347 1.356 . S
N354 H357 0.984 . S
N354 H358 0.985 . S
H355 N350 0.984 . S
H356 N350 0.985 . S
H357 N354 0.984 . S
H358 N354 0.985 . S
H359 N353 0.984 . S
H360 N353 0.984 . S
H361 N349 0.984 1_554 S
H362 N349 0.985 . S
C363 C364 1.363 . S
C363 C369 1.379 . S
C363 N371 1.356 . S
C364 C363 1.363 . S
C364 C370 1.363 . S
C365 C366 1.363 . S
C365 C370 1.379 1_556 S
C365 N372 1.356 . S
C366 C365 1.363 . S
C366 C369 1.363 1_556 S
N367 C369 1.356 . S
N367 H379 0.984 . S
N367 H380 0.985 1_554 S
N368 C370 1.356 . S
N368 H373 0.984 . S
N368 H374 0.985 1_554 S
C369 C363 1.379 . S
C369 C366 1.363 1_554 S
C369 N367 1.356 . S
C370 C364 1.363 . S
C370 C365 1.379 1_554 S
C370 N368 1.356 . S
N371 C363 1.356 . S
N371 H377 0.984 . S
N371 H378 0.984 . S
N372 C365 1.356 . S
N372 H375 0.984 . S
N372 H376 0.985 . S
H373 N368 0.984 . S
H374 N368 0.985 1_556 S
H375 N372 0.984 . S
H376 N372 0.985 . S
H377 N371 0.984 . S
H378 N371 0.984 . S
H379 N367 0.984 . S
H380 N367 0.985 1_556 S
C381 C382 1.359 1_556 S
C381 C387 1.387 . S
C381 N389 1.350 1_556 S
C382 C381 1.359 1_554 S
C382 C388 1.363 1_554 S
C383 C384 1.363 . S
C383 C388 1.379 . S
C383 N390 1.356 . S
C384 C383 1.363 . S
C384 C387 1.363 . S
N385 C387 1.356 . S
N385 H397 0.984 . S
N385 H398 0.985 . S
N386 C388 1.356 1_554 S
N386 H391 0.984 . S
N386 H392 0.985 . S
C387 C381 1.387 . S
C387 C384 1.363 . S
C387 N385 1.356 . S
C388 C382 1.363 1_556 S
C388 C383 1.379 . S
C388 N386 1.356 1_556 S
N389 C381 1.350 1_554 S
N389 H395 0.984 . S
N389 H396 0.984 . S
N390 C383 1.356 . S
N390 H393 0.984 . S
N390 H394 0.985 . S
H391 N386 0.984 . S
H392 N386 0.985 . S
H393 N390 0.984 . S
H394 N390 0.985 . S
H395 N389 0.984 . S
H396 N389 0.984 . S
H397 N385 0.984 . S
H398 N385 0.985 . S
C399 C400 1.363 . S
C399 C405 1.379 . S
C399 N407 1.356 . S
C400 C399 1.363 . S
C400 C406 1.363 1_554 S
C401 C402 1.363 . S
C401 C406 1.379 . S
C401 N408 1.356 . S
C402 C401 1.363 . S
C402 C405 1.363 1_556 S
N403 C405 1.356 . S
N403 H415 0.984 . S
N403 H416 0.985 1_554 S
N404 C406 1.356 . S
N404 H409 0.984 . S
N404 H410 0.985 . S
C405 C399 1.379 . S
C405 C402 1.363 1_554 S
C405 N403 1.356 . S
C406 C400 1.363 1_556 S
C406 C401 1.379 . S
C406 N404 1.356 . S
N407 C399 1.356 . S
N407 H413 0.984 . S
N407 H414 0.984 . S
N408 C401 1.356 . S
N408 H411 0.984 . S
N408 H412 0.985 . S
H409 N404 0.984 . S
H410 N404 0.985 . S
H411 N408 0.984 . S
H412 N408 0.985 . S
H413 N407 0.984 . S
H414 N407 0.984 . S
H415 N403 0.984 . S
H416 N403 0.985 1_556 S
C417 C418 1.363 . S
C417 C423 1.379 . S
C417 N425 1.356 . S
C418 C417 1.363 . S
C418 C424 1.363 . S
C419 C420 1.363 . S
C419 C424 1.379 . S
C419 N426 1.356 . S
C420 C419 1.363 . S
C420 C423 1.363 . S
N421 C423 1.356 . S
N421 H433 0.984 . S
N421 H434 0.985 . S
N422 C424 1.356 . S
N422 H427 0.984 . S
N422 H428 0.985 . S
C423 C417 1.379 . S
C423 C420 1.363 . S
C423 N421 1.356 . S
C424 C418 1.363 . S
C424 C419 1.379 . S
C424 N422 1.356 . S
N425 C417 1.356 . S
N425 H431 0.984 . S
N425 H432 0.984 . S
N426 C419 1.356 . S
N426 H429 0.984 . S
N426 H430 0.985 . S
H427 N422 0.984 . S
H428 N422 0.985 . S
H429 N426 0.984 . S
H430 N426 0.985 . S
H431 N425 0.984 . S
H432 N425 0.984 . S
H433 N421 0.984 . S
H434 N421 0.985 . S
C435 C436 1.363 . S
C435 C441 1.379 . S
C435 N443 1.356 1_556 S
C436 C435 1.363 . S
C436 C442 1.363 . S
C437 C438 1.363 . S
C437 C442 1.379 . S
C437 N444 1.356 . S
C438 C437 1.363 . S
C438 C441 1.363 . S
N439 C441 1.356 . S
N439 H451 0.984 . S
N439 H452 0.985 . S
N440 C442 1.356 . S
N440 H445 0.984 . S
N440 H446 0.985 . S
C441 C435 1.379 . S
C441 C438 1.363 . S
C441 N439 1.356 . S
C442 C436 1.363 . S
C442 C437 1.379 . S
C442 N440 1.356 . S
N443 C435 1.356 1_554 S
N443 H449 0.984 . S
N443 H450 0.984 . S
N444 C437 1.356 . S
N444 H447 0.984 . S
N444 H448 0.985 . S
H445 N440 0.984 . S
H446 N440 0.985 . S
H447 N444 0.984 . S
H448 N444 0.985 . S
H449 N443 0.984 . S
H450 N443 0.984 . S
H451 N439 0.984 . S
H452 N439 0.985 . S
C453 C454 1.363 . S
C453 C459 1.379 1_554 S
C453 N461 1.356 . S
C454 C453 1.363 . S
C454 C460 1.363 . S
C455 C456 1.363 1_554 S
C455 C460 1.379 . S
C455 N462 1.356 . S
C456 C455 1.363 1_556 S
C456 C459 1.363 . S
N457 C459 1.356 . S
N457 H469 0.984 . S
N457 H470 0.985 . S
N458 C460 1.356 . S
N458 H463 0.984 . S
N458 H464 0.985 . S
C459 C453 1.379 1_556 S
C459 C456 1.363 . S
C459 N457 1.356 . S
C460 C454 1.363 . S
C460 C455 1.379 . S
C460 N458 1.356 . S
N461 C453 1.356 . S
N461 H467 0.984 . S
N461 H468 0.984 . S
N462 C455 1.356 . S
N462 H465 0.984 1_554 S
N462 H466 0.985 . S
H463 N458 0.984 . S
H464 N458 0.985 . S
H465 N462 0.984 1_556 S
H466 N462 0.985 . S
H467 N461 0.984 . S
H468 N461 0.984 . S
H469 N457 0.984 . S
H470 N457 0.985 . S
C471 C472 1.363 1_556 S
C471 C477 1.379 . S
C471 N479 1.356 . S
C472 C471 1.363 1_554 S
C472 C478 1.363 . S
C473 C474 1.363 . S
C473 C478 1.379 1_556 S
C473 N480 1.356 . S
C474 C473 1.363 . S
C474 C477 1.363 . S
N475 C477 1.356 . S
N475 H487 0.984 . S
N475 H488 0.985 . S
N476 C478 1.356 . S
N476 H481 0.984 . S
N476 H482 0.985 . S
C477 C471 1.379 . S
C477 C474 1.363 . S
C477 N475 1.356 . S
C478 C472 1.363 . S
C478 C473 1.379 1_554 S
C478 N476 1.356 . S
N479 C471 1.356 . S
N479 H485 0.984 . S
N479 H486 0.984 1_556 S
N480 C473 1.356 . S
N480 H483 0.984 . S
N480 H484 0.985 . S
H481 N476 0.984 . S
H482 N476 0.985 . S
H483 N480 0.984 . S
H484 N480 0.985 . S
H485 N479 0.984 . S
H486 N479 0.984 1_554 S
H487 N475 0.984 . S
H488 N475 0.985 . S
C489 C490 1.363 . S
C489 C495 1.379 . S
C489 N497 1.356 1_556 S
C490 C489 1.363 . S
C490 C496 1.363 . S
C491 C492 1.363 . S
C491 C496 1.379 . S
C491 N498 1.356 . S
C492 C491 1.363 . S
C492 C495 1.363 . S
N493 C495 1.356 . S
N493 H505 0.984 . S
N493 H506 0.985 . S
N494 C496 1.356 . S
N494 H499 0.984 . S
N494 H500 0.985 . S
C495 C489 1.379 . S
C495 C492 1.363 . S
C495 N493 1.356 . S
C496 C490 1.363 . S
C496 C491 1.379 . S
C496 N494 1.356 . S
N497 C489 1.356 1_554 S
N497 H503 0.984 . S
N497 H504 0.984 . S
N498 C491 1.356 . S
N498 H501 0.984 . S
N498 H502 0.985 . S
H499 N494 0.984 . S
H500 N494 0.985 . S
H501 N498 0.984 . S
H502 N498 0.985 . S
H503 N497 0.984 . S
H504 N497 0.984 . S
H505 N493 0.984 . S
H506 N493 0.985 . S
C507 C508 1.363 . S
C507 C513 1.379 . S
C507 N515 1.356 1_556 S
C508 C507 1.363 . S
C508 C514 1.363 . S
C509 C510 1.363 . S
C509 C514 1.379 . S
C509 N516 1.356 . S
C510 C509 1.363 . S
C510 C513 1.363 . S
N511 C513 1.356 . S
N511 H523 0.984 . S
N511 H524 0.985 . S
N512 C514 1.356 . S
N512 H517 0.984 . S
N512 H518 0.985 . S
C513 C507 1.379 . S
C513 C510 1.363 . S
C513 N511 1.356 . S
C514 C508 1.363 . S
C514 C509 1.379 . S
C514 N512 1.356 . S
N515 C507 1.356 1_554 S
N515 H521 0.984 . S
N515 H522 0.984 . S
N516 C509 1.356 . S
N516 H519 0.984 . S
N516 H520 0.985 . S
H517 N512 0.984 . S
H518 N512 0.985 . S
H519 N516 0.984 . S
H520 N516 0.985 . S
H521 N515 0.984 . S
H522 N515 0.984 . S
H523 N511 0.984 . S
H524 N511 0.985 . S
C525 C526 1.363 . S
C525 C531 1.379 . S
C525 N533 1.356 . S
C526 C525 1.363 . S
C526 C532 1.363 . S
C527 C528 1.363 . S
C527 C532 1.379 . S
C527 N534 1.356 . S
C528 C527 1.363 . S
C528 C531 1.363 . S
N529 C531 1.356 . S
N529 H541 0.984 . S
N529 H542 0.985 . S
N530 C532 1.356 . S
N530 H535 0.984 . S
N530 H536 0.985 . S
C531 C525 1.379 . S
C531 C528 1.363 . S
C531 N529 1.356 . S
C532 C526 1.363 . S
C532 C527 1.379 . S
C532 N530 1.356 . S
N533 C525 1.356 . S
N533 H539 0.984 . S
N533 H540 0.984 . S
N534 C527 1.356 . S
N534 H537 0.984 . S
N534 H538 0.985 . S
H535 N530 0.984 . S
H536 N530 0.985 . S
H537 N534 0.984 . S
H538 N534 0.985 . S
H539 N533 0.984 . S
H540 N533 0.984 . S
H541 N529 0.984 . S
H542 N529 0.985 . S
C543 C544 1.363 . S
C543 C549 1.379 . S
C543 N551 1.356 . S
C544 C543 1.363 . S
C544 C550 1.363 . S
C545 C546 1.363 . S
C545 C550 1.379 . S
C545 N552 1.356 . S
C546 C545 1.363 . S
C546 C549 1.363 . S
N547 C549 1.356 . S
N547 H559 0.984 . S
N547 H560 0.985 . S
N548 C550 1.356 . S
N548 H553 0.984 . S
N548 H554 0.985 . S
C549 C543 1.379 . S
C549 C546 1.363 . S
C549 N547 1.356 . S
C550 C544 1.363 . S
C550 C545 1.379 . S
C550 N548 1.356 . S
N551 C543 1.356 . S
N551 H557 0.984 . S
N551 H558 0.984 . S
N552 C545 1.356 . S
N552 H555 0.984 . S
N552 H556 0.985 . S
H553 N548 0.984 . S
H554 N548 0.985 . S
H555 N552 0.984 . S
H556 N552 0.985 . S
H557 N551 0.984 . S
H558 N551 0.984 . S
H559 N547 0.984 . S
H560 N547 0.985 . S
C561 C562 1.363 . S
C561 C567 1.379 . S
C561 N569 1.356 . S
C562 C561 1.363 . S
C562 C568 1.363 . S
C563 C564 1.363 . S
C563 C568 1.379 . S
C563 N570 1.356 . S
C564 C563 1.363 . S
C564 C567 1.363 . S
N565 C567 1.356 . S
N565 H577 0.984 . S
N565 H578 0.985 . S
N566 C568 1.356 . S
N566 H571 0.984 . S
N566 H572 0.985 . S
C567 C561 1.379 . S
C567 C564 1.363 . S
C567 N565 1.356 . S
C568 C562 1.363 . S
C568 C563 1.379 . S
C568 N566 1.356 . S
N569 C561 1.356 . S
N569 H575 0.984 . S
N569 H576 0.984 . S
N570 C563 1.356 . S
N570 H573 0.984 . S
N570 H574 0.985 . S
H571 N566 0.984 . S
H572 N566 0.985 . S
H573 N570 0.984 . S
H574 N570 0.985 . S
H575 N569 0.984 . S
H576 N569 0.984 . S
H577 N565 0.984 . S
H578 N565 0.985 . S
C579 C580 1.363 . S
C579 C585 1.379 . S
C579 N587 1.356 . S
C580 C579 1.363 . S
C580 C586 1.363 . S
C581 C582 1.363 . S
C581 C586 1.379 . S
C581 N588 1.356 . S
C582 C581 1.363 . S
C582 C585 1.363 . S
N583 C585 1.356 . S
N583 H595 0.984 . S
N583 H596 0.985 . S
N584 C586 1.356 . S
N584 H589 0.984 . S
N584 H590 0.985 . S
C585 C579 1.379 . S
C585 C582 1.363 . S
C585 N583 1.356 . S
C586 C580 1.363 . S
C586 C581 1.379 . S
C586 N584 1.356 . S
N587 C579 1.356 . S
N587 H593 0.984 . S
N587 H594 0.984 . S
N588 C581 1.356 . S
N588 H591 0.984 . S
N588 H592 0.985 . S
H589 N584 0.984 . S
H590 N584 0.985 . S
H591 N588 0.984 . S
H592 N588 0.985 . S
H593 N587 0.984 . S
H594 N587 0.984 . S
H595 N583 0.984 . S
H596 N583 0.985 . S
C597 C598 1.363 . S
C597 C603 1.379 . S
C597 N605 1.356 . S
C598 C597 1.363 . S
C598 C604 1.363 . S
C599 C600 1.363 . S
C599 C604 1.379 . S
C599 N606 1.356 . S
C600 C599 1.363 . S
C600 C603 1.363 . S
N601 C603 1.356 . S
N601 H613 0.984 . S
N601 H614 0.985 . S
N602 C604 1.356 . S
N602 H607 0.984 . S
N602 H608 0.985 . S
C603 C597 1.379 . S
C603 C600 1.363 . S
C603 N601 1.356 . S
C604 C598 1.363 . S
C604 C599 1.379 . S
C604 N602 1.356 . S
N605 C597 1.356 . S
N605 H611 0.984 . S
N605 H612 0.984 . S
N606 C599 1.356 . S
N606 H609 0.984 . S
N606 H610 0.985 . S
H607 N602 0.984 . S
H608 N602 0.985 . S
H609 N606 0.984 . S
H610 N606 0.985 . S
H611 N605 0.984 . S
H612 N605 0.984 . S
H613 N601 0.984 . S
H614 N601 0.985 . S
C615 C616 1.363 . S
C615 C621 1.379 . S
C615 N623 1.356 . S
C616 C615 1.363 . S
C616 C622 1.363 . S
C617 C618 1.363 . S
C617 C622 1.379 . S
C617 N624 1.356 . S
C618 C617 1.363 . S
C618 C621 1.363 . S
N619 C621 1.356 . S
N619 H631 0.984 . S
N619 H632 0.985 . S
N620 C622 1.356 . S
N620 H625 0.984 . S
N620 H626 0.985 . S
C621 C615 1.379 . S
C621 C618 1.363 . S
C621 N619 1.356 . S
C622 C616 1.363 . S
C622 C617 1.379 . S
C622 N620 1.356 . S
N623 C615 1.356 . S
N623 H629 0.984 . S
N623 H630 0.984 . S
N624 C617 1.356 . S
N624 H627 0.984 . S
N624 H628 0.985 . S
H625 N620 0.984 . S
H626 N620 0.985 . S
H627 N624 0.984 . S
H628 N624 0.985 . S
H629 N623 0.984 . S
H630 N623 0.984 . S
H631 N619 0.984 . S
H632 N619 0.985 . S
C202 C16 1.828 . S
C204 C119 1.848 . S
C220 C26 1.554 . S
C222 C166 1.569 . S
C240 C170 1.708 . S
C238 C52 1.729 . S
C258 C135 1.474 . S
C256 C62 1.500 . S
C274 C80 1.810 . S
C276 C150 1.757 . S
C294 C172 1.251 . S
C292 C98 1.237 . S
C312 C141 1.603 . S
C310 C43 1.583 . S
C328 C68 1.492 . S
C330 C181 1.505 . S
C348 C110 1.487 . S
C346 C86 1.528 1_556 S
C364 C104 1.435 . S
C366 C139 1.411 . S
C382 C7 1.820 . S
C384 C197 1.793 . S
C402 C108 1.504 . S
C400 C32 1.497 . S
C420 C126 1.804 . S
C418 C61 1.823 . S
C438 C140 1.560 . S
C436 C79 1.541 1_556 S
C456 C194 1.690 . S
C454 C97 1.725 . S
C474 C109 1.463 . S
C472 C14 1.485 . S
C492 C157 1.709 . S
C490 C25 1.776 1_556 S
C508 C50 1.207 . S
C510 C180 1.228 . S
C528 C149 1.569 . S
C526 C106 1.569 . S
C546 C188 1.443 . S
C544 C8 1.438 . S
C564 C118 1.442 . S
C562 C34 1.488 . S
C582 C163 1.383 . S
C580 C44 1.401 . S
C598 C70 1.812 . S
C600 C171 1.772 . S
C616 C88 1.466 . S
C618 C132 1.472 . S
