# Generated by pormake.
# Topology hwx, (6,3)-cn, num edge types: 1
# Building blocks:
#     Node 0, Type 0, BuildingBlock: OJICUG_clean_sbu_0, # of connection points: 6
#     Node 1, Type 0, BuildingBlock: OJICUG_clean_sbu_0, # of connection points: 6
#     Node 2, Type 0, BuildingBlock: OJICUG_clean_sbu_0, # of connection points: 6
#     Node 3, Type 0, BuildingBlock: OJICUG_clean_sbu_0, # of connection points: 6
#     Node 4, Type 1, BuildingBlock: BETDIP_clean_linker_0, # of connection points: 3
#     Node 5, Type 1, BuildingBlock: BETDIP_clean_linker_0, # of connection points: 3
#     Node 6, Type 1, BuildingBlock: BETDIP_clean_linker_0, # of connection points: 3
#     Node 7, Type 1, BuildingBlock: BETDIP_clean_linker_0, # of connection points: 3
#     Node 8, Type 1, BuildingBlock: BETDIP_clean_linker_0, # of connection points: 3
#     Node 9, Type 1, BuildingBlock: BETDIP_clean_linker_0, # of connection points: 3
#     Node 10, Type 1, BuildingBlock: BETDIP_clean_linker_0, # of connection points: 3
#     Node 11, Type 1, BuildingBlock: BETDIP_clean_linker_0, # of connection points: 3
#     Edge 12, Type (0, 1), BuildingBlock: ZUJKAS_clean_linker_0, # of connection points: 2
#     Edge 13, Type (0, 1), BuildingBlock: ZUJKAS_clean_linker_0, # of connection points: 2
#     Edge 14, Type (0, 1), BuildingBlock: ZUJKAS_clean_linker_0, # of connection points: 2
#     Edge 15, Type (0, 1), BuildingBlock: ZUJKAS_clean_linker_0, # of connection points: 2
#     Edge 16, Type (0, 1), BuildingBlock: ZUJKAS_clean_linker_0, # of connection points: 2
#     Edge 17, Type (0, 1), BuildingBlock: ZUJKAS_clean_linker_0, # of connection points: 2
#     Edge 18, Type (0, 1), BuildingBlock: ZUJKAS_clean_linker_0, # of connection points: 2
#     Edge 19, Type (0, 1), BuildingBlock: ZUJKAS_clean_linker_0, # of connection points: 2
#     Edge 20, Type (0, 1), BuildingBlock: ZUJKAS_clean_linker_0, # of connection points: 2
#     Edge 21, Type (0, 1), BuildingBlock: ZUJKAS_clean_linker_0, # of connection points: 2
#     Edge 22, Type (0, 1), BuildingBlock: ZUJKAS_clean_linker_0, # of connection points: 2
#     Edge 23, Type (0, 1), BuildingBlock: ZUJKAS_clean_linker_0, # of connection points: 2
#     Edge 24, Type (0, 1), BuildingBlock: ZUJKAS_clean_linker_0, # of connection points: 2
#     Edge 25, Type (0, 1), BuildingBlock: ZUJKAS_clean_linker_0, # of connection points: 2
#     Edge 26, Type (0, 1), BuildingBlock: ZUJKAS_clean_linker_0, # of connection points: 2
#     Edge 27, Type (0, 1), BuildingBlock: ZUJKAS_clean_linker_0, # of connection points: 2
#     Edge 28, Type (0, 1), BuildingBlock: ZUJKAS_clean_linker_0, # of connection points: 2
#     Edge 29, Type (0, 1), BuildingBlock: ZUJKAS_clean_linker_0, # of connection points: 2
#     Edge 30, Type (0, 1), BuildingBlock: ZUJKAS_clean_linker_0, # of connection points: 2
#     Edge 31, Type (0, 1), BuildingBlock: ZUJKAS_clean_linker_0, # of connection points: 2
#     Edge 32, Type (0, 1), BuildingBlock: ZUJKAS_clean_linker_0, # of connection points: 2
#     Edge 33, Type (0, 1), BuildingBlock: ZUJKAS_clean_linker_0, # of connection points: 2
#     Edge 34, Type (0, 1), BuildingBlock: ZUJKAS_clean_linker_0, # of connection points: 2
#     Edge 35, Type (0, 1), BuildingBlock: ZUJKAS_clean_linker_0, # of connection points: 2
# Relax obj value: 0.006
# Max RMSD: 0.048
# Mean RMSD: 0.042
data_MOF--net-hwx--node1-OJICUG_clean_sbu_0--node2-BETDIP_clean_linker_0--edge1-ZUJKAS_clean_linker_0
_symmetry_space_group_name_H-M    P1
_symmetry_Int_Tables_number       1
_symmetry_cell_setting            triclinic
loop_
_symmetry_equiv_pos_as_xyz
'x, y, z'
_cell_length_a     68.34515
_cell_length_b     68.312865
_cell_length_c     26.2699
_cell_angle_alpha  91.385543
_cell_angle_beta   91.368323
_cell_angle_gamma 90.005466
loop_
_atom_site_label
_atom_site_type_symbol
_atom_site_fract_x
_atom_site_fract_y
_atom_site_fract_z
_atom_type_partial_charge
Sc0 Sc 0.22084 0.22098 0.0639 0.0
Sc1 Sc 0.18881 0.18946 0.9941 0.0
Sc2 Sc 0.22029 0.22071 0.92965 0.0
O3 O 0.21 0.2104 0.99588 0.0
C4 C 0.21833 0.25977 -0.00057 0.0
C5 C 0.17502 0.2173 0.08494 0.0
C6 C 0.17468 0.21723 0.90407 0.0
C7 C 0.21693 0.17552 0.08535 0.0
C8 C 0.25944 0.21799 0.99715 0.0
C9 C 0.21583 0.17479 0.90425 0.0
O10 O 0.21802 0.25094 0.04145 0.0
O11 O 0.17149 0.20534 0.04812 0.0
O12 O 0.19129 0.22517 0.89861 0.0
O13 O 0.22508 0.19209 0.09294 0.0
O14 O 0.25036 0.21749 0.95431 0.0
O15 O 0.2041 0.17157 0.93987 0.0
O16 O 0.25073 0.21977 0.03928 0.0
O17 O 0.20313 0.17268 0.0527 0.0
O18 O 0.22218 0.19179 0.8947 0.0
O19 O 0.19215 0.22351 0.09658 0.0
O20 O 0.21964 0.2508 0.95664 0.0
O21 O 0.17188 0.20363 0.93528 0.0
Sc22 Sc 0.27769 0.72239 0.4422 0.0
Sc23 Sc 0.30867 0.69024 0.50968 0.0
Sc24 Sc 0.27684 0.72181 0.57618 0.0
O25 O 0.28772 0.71147 0.50935 0.0
C26 C 0.28004 0.76101 0.51316 0.0
C27 C 0.32362 0.71856 0.42374 0.0
C28 C 0.32232 0.71753 0.60427 0.0
C29 C 0.28169 0.6768 0.41426 0.0
C30 C 0.23835 0.71934 0.50483 0.0
C31 C 0.28032 0.6759 0.59608 0.0
O32 O 0.27942 0.75231 0.46982 0.0
O33 O 0.32636 0.70541 0.4566 0.0
O34 O 0.3055 0.72494 0.61106 0.0
O35 O 0.27471 0.69376 0.40681 0.0
O36 O 0.24699 0.72003 0.54824 0.0
O37 O 0.29326 0.67281 0.56287 0.0
O38 O 0.24748 0.72 0.46326 0.0
O39 O 0.29412 0.67335 0.44969 0.0
O40 O 0.2732 0.69279 0.60527 0.0
O41 O 0.30688 0.72596 0.41424 0.0
O42 O 0.27926 0.75192 0.55472 0.0
O43 O 0.32562 0.70464 0.56984 0.0
Sc44 Sc 0.77834 0.77911 0.94815 0.0
Sc45 Sc 0.81072 0.81092 0.01622 0.0
Sc46 Sc 0.77995 0.77925 0.08225 0.0
O47 O 0.78966 0.78977 0.01555 0.0
C48 C 0.74024 0.7818 0.01603 0.0
C49 C 0.78211 0.8248 0.92639 0.0
C50 C 0.78405 0.82506 0.10826 0.0
C51 C 0.82379 0.78294 0.92407 0.0
C52 C 0.78177 0.74023 0.01313 0.0
C53 C 0.82592 0.78337 0.10529 0.0
O54 O 0.74864 0.78129 0.97334 0.0
O55 O 0.79528 0.82803 0.96052 0.0
O56 O 0.77703 0.80816 0.11572 0.0
O57 O 0.80686 0.77562 0.91591 0.0
O58 O 0.78169 0.74917 0.05614 0.0
O59 O 0.82863 0.79616 0.07183 0.0
O60 O 0.78061 0.7491 0.97116 0.0
O61 O 0.82733 0.79597 0.95843 0.0
O62 O 0.80919 0.77609 0.11347 0.0
O63 O 0.77474 0.80793 0.9175 0.0
O64 O 0.74962 0.78108 0.05835 0.0
O65 O 0.79642 0.82826 0.07401 0.0
Sc66 Sc 0.72184 0.27993 0.57493 0.0
Sc67 Sc 0.68948 0.31126 0.50923 0.0
Sc68 Sc 0.72128 0.28018 0.44089 0.0
O69 O 0.71086 0.29046 0.50835 0.0
C70 C 0.76042 0.2834 0.50964 0.0
C71 C 0.71728 0.32556 0.60216 0.0
C72 C 0.71671 0.3259 0.4205 0.0
C73 C 0.67619 0.28307 0.59741 0.0
C74 C 0.71933 0.24108 0.50471 0.0
C75 C 0.67541 0.28354 0.41586 0.0
O76 O 0.75169 0.28275 0.55175 0.0
O77 O 0.70442 0.32867 0.56755 0.0
O78 O 0.72421 0.30917 0.41151 0.0
O79 O 0.69316 0.27597 0.60522 0.0
O80 O 0.71947 0.25009 0.46294 0.0
O81 O 0.67215 0.29617 0.45099 0.0
O82 O 0.72033 0.24989 0.54791 0.0
O83 O 0.67269 0.29607 0.56455 0.0
O84 O 0.69236 0.27669 0.40755 0.0
O85 O 0.72465 0.30874 0.60951 0.0
O86 O 0.7514 0.28241 0.46675 0.0
O87 O 0.70388 0.3288 0.45412 0.0
H88 H 0.21896 0.50456 0.90978 0.0
H89 H 0.21836 0.50691 0.07381 0.0
H90 H 0.22482 0.55968 0.9912 0.0
H91 H 0.22503 0.476 0.06897 0.0
C92 C 0.22067 0.46993 0.03192 0.0
C93 C 0.21956 0.51295 0.94534 0.0
C94 C 0.22138 0.53342 0.94487 0.0
C95 C 0.21877 0.5031 0.99149 0.0
C96 C 0.21949 0.51402 0.03774 0.0
C97 C 0.22156 0.53447 0.03785 0.0
C98 C 0.2224 0.544 0.99129 0.0
N99 N 0.21753 0.48229 0.9897 0.0
H100 H 0.99449 0.72047 0.60183 0.0
H101 H 0.99509 0.71569 0.43778 0.0
H102 H 0.94279 0.73354 0.51275 0.0
H103 H 0.02157 0.69751 0.45092 0.0
C104 C 0.02863 0.70361 0.48519 0.0
C105 C 0.98698 0.72134 0.56513 0.0
C106 C 0.96744 0.72756 0.56242 0.0
C107 C 0.99712 0.7168 0.52053 0.0
C108 C 0.98746 0.71852 0.47276 0.0
C109 C 0.96775 0.72421 0.46988 0.0
C110 C 0.95792 0.72873 0.51482 0.0
N111 N 0.01725 0.71171 0.5251 0.0
H112 H 0.78285 0.49581 0.1082 0.0
H113 H 0.78229 0.49494 0.94413 0.0
H114 H 0.77334 0.4418 0.02381 0.0
H115 H 0.79761 0.52331 0.9535 0.0
C116 C 0.79264 0.53009 0.98867 0.0
C117 C 0.78164 0.48776 0.0722 0.0
C118 C 0.77826 0.46748 0.07154 0.0
C119 C 0.78359 0.49779 0.02665 0.0
C120 C 0.78156 0.48742 0.97976 0.0
C121 C 0.77819 0.46714 0.97858 0.0
C122 C 0.7767 0.45732 0.02459 0.0
N123 N 0.78672 0.51838 0.0296 0.0
H124 H 0.00322 0.27806 0.40629 0.0
H125 H 0.00254 0.27839 0.5705 0.0
H126 H 0.05319 0.25792 0.49285 0.0
H127 H 0.97778 0.29933 0.56063 0.0
C128 C 0.97034 0.29456 0.52551 0.0
C129 C 0.01053 0.27544 0.44255 0.0
C130 C 0.02939 0.26729 0.4439 0.0
C131 C 0.00074 0.2798 0.48784 0.0
C132 C 0.00999 0.27586 0.5351 0.0
C133 C 0.02879 0.26767 0.53673 0.0
C134 C 0.03841 0.26369 0.49122 0.0
N135 N 0.98119 0.28681 0.48418 0.0
H136 H 0.72291 0.99806 0.6047 0.0
H137 H 0.71899 0.99597 0.44033 0.0
H138 H 0.73542 0.94473 0.522 0.0
H139 H 0.70259 0.02368 0.44897 0.0
C140 C 0.70795 0.03088 0.48382 0.0
C141 C 0.72377 0.98995 0.56885 0.0
C142 C 0.7296 0.97028 0.56849 0.0
C143 C 0.71972 0.99942 0.52296 0.0
C144 C 0.72146 0.98892 0.4763 0.0
C145 C 0.72671 0.96905 0.4759 0.0
C146 C 0.73082 0.95993 0.52211 0.0
N147 N 0.71507 0.01972 0.5253 0.0
H148 H 0.50484 0.22014 0.91012 0.0
H149 H 0.50571 0.21947 0.07421 0.0
H150 H 0.55914 0.22656 0.99476 0.0
H151 H 0.47492 0.22743 0.06652 0.0
C152 C 0.46921 0.22177 0.03021 0.0
C153 C 0.51288 0.22082 0.94618 0.0
C154 C 0.53333 0.22284 0.947 0.0
C155 C 0.50266 0.2199 0.99175 0.0
C156 C 0.51315 0.22075 0.03863 0.0
C157 C 0.53357 0.22306 0.03997 0.0
C158 C 0.54348 0.224 0.994 0.0
N159 N 0.4819 0.21823 0.98887 0.0
H160 H 0.27864 0.00308 0.40483 0.0
H161 H 0.27558 0.00316 0.56864 0.0
H162 H 0.25688 0.05349 0.48604 0.0
H163 H 0.29682 0.97848 0.5627 0.0
C164 C 0.29278 0.97086 0.52727 0.0
C165 C 0.27528 0.01052 0.44048 0.0
C166 C 0.26703 0.02929 0.44017 0.0
C167 C 0.27872 0.00101 0.48659 0.0
C168 C 0.27382 0.01053 0.53286 0.0
C169 C 0.26575 0.02944 0.53292 0.0
C170 C 0.26262 0.0387 0.4864 0.0
N171 N 0.28582 0.98146 0.48462 0.0
H172 H 0.49623 0.78007 0.11158 0.0
H173 H 0.49373 0.77322 0.94789 0.0
H174 H 0.44179 0.76597 0.03355 0.0
H175 H 0.52487 0.76401 0.95987 0.0
C176 C 0.53067 0.77304 0.99127 0.0
C177 C 0.4879 0.77718 0.07657 0.0
C178 C 0.46771 0.7735 0.07817 0.0
C179 C 0.49755 0.77678 0.02996 0.0
C180 C 0.4867 0.77317 0.98435 0.0
C181 C 0.46663 0.76908 0.98576 0.0
C182 C 0.45729 0.76935 0.0326 0.0
N183 N 0.51814 0.77973 0.03047 0.0
H184 H 0.17576 0.2315 0.18323 0.0
H185 H 0.1478 0.24146 0.23425 0.0
H186 H 0.10887 0.22989 0.10529 0.0
H187 H 0.13662 0.21914 0.05482 0.0
H188 H 0.12123 0.26968 0.22557 0.0
H189 H 0.08368 0.19766 0.21044 0.0
H190 H 0.10828 0.20115 0.18922 0.0
H191 H 0.08771 0.20843 0.15001 0.0
C192 C 0.16124 0.23106 0.16581 0.0
C193 C 0.15835 0.22426 0.1153 0.0
C194 C 0.14528 0.23678 0.19493 0.0
C195 C 0.12618 0.23602 0.17392 0.0
C196 C 0.12337 0.23002 0.12282 0.0
H197 H 0.03208 0.2888 0.35714 0.0
H198 H 0.05299 0.28192 0.28416 0.0
C199 C 0.13927 0.22396 0.09397 0.0
C200 C 0.10928 0.24127 0.20593 0.0
H201 H 0.06699 0.22317 0.25302 0.0
C202 C 0.10931 0.25956 0.23147 0.0
C203 C 0.09379 0.22797 0.21373 0.0
C204 C 0.09339 0.20764 0.18982 0.0
C205 C 0.09463 0.26471 0.26579 0.0
C206 C 0.07913 0.25143 0.27348 0.0
C207 C 0.07877 0.23341 0.24665 0.0
C208 C 0.06456 0.25483 0.31368 0.0
C209 C 0.09645 0.28388 0.29535 0.0
C210 C 0.06323 0.24133 0.35283 0.0
C211 C 0.05103 0.24498 0.39366 0.0
C212 C 0.04 0.26233 0.39664 0.0
C213 C 0.04046 0.27534 0.35601 0.0
C214 C 0.05259 0.27156 0.31467 0.0
H215 H 0.11136 0.29026 0.29317 0.0
H216 H 0.08589 0.29456 0.27934 0.0
H217 H 0.09309 0.28194 0.33607 0.0
H218 H 0.07215 0.22822 0.35269 0.0
H219 H 0.05063 0.23441 0.42371 0.0
H220 H 0.25225 0.67593 0.66897 0.0
H221 H 0.24095 0.64818 0.71741 0.0
H222 H 0.28044 0.60994 0.63693 0.0
H223 H 0.29202 0.63756 0.5885 0.0
H224 H 0.2242 0.61145 0.68101 0.0
H225 H 0.29447 0.60219 0.7893 0.0
H226 H 0.28871 0.62413 0.75507 0.0
H227 H 0.29608 0.60233 0.72112 0.0
C228 C 0.25859 0.66165 0.66151 0.0
C229 C 0.2732 0.65906 0.62508 0.0
C230 C 0.25204 0.6458 0.68912 0.0
C231 C 0.26002 0.6271 0.68106 0.0
C232 C 0.27431 0.62434 0.64417 0.0
H233 H 0.24485 0.52361 0.86528 0.0
H234 H 0.25261 0.5439 0.79275 0.0
C235 C 0.28087 0.64016 0.61649 0.0
C236 C 0.25361 0.61061 0.71213 0.0
H237 H 0.26916 0.5801 0.80566 0.0
C238 C 0.23402 0.60448 0.70808 0.0
C239 C 0.26653 0.60151 0.74708 0.0
C240 C 0.28759 0.60791 0.75391 0.0
C241 C 0.22693 0.58961 0.73869 0.0
C242 C 0.23969 0.58096 0.77484 0.0
C243 C 0.25942 0.5867 0.77774 0.0
C244 C 0.23267 0.56724 0.81323 0.0
C245 C 0.20584 0.58335 0.73209 0.0
C246 C 0.21861 0.57346 0.84813 0.0
C247 C 0.21409 0.56189 0.88929 0.0
C248 C 0.22369 0.54394 0.89664 0.0
C249 C 0.23708 0.53727 0.86031 0.0
C250 C 0.2416 0.54889 0.81907 0.0
H251 H 0.2001 0.58632 0.69311 0.0
H252 H 0.20404 0.56752 0.73944 0.0
H253 H 0.19682 0.5918 0.75947 0.0
H254 H 0.21181 0.58772 0.84503 0.0
H255 H 0.20362 0.56733 0.91653 0.0
H256 H 0.82628 0.75708 0.18242 0.0
H257 H 0.85449 0.74576 0.23229 0.0
H258 H 0.8926 0.78199 0.14612 0.0
H259 H 0.86447 0.79366 0.09629 0.0
H260 H 0.88899 0.72661 0.19897 0.0
H261 H 0.90498 0.79861 0.29494 0.0
H262 H 0.88211 0.79358 0.26141 0.0
H263 H 0.90378 0.79846 0.22652 0.0
C264 C 0.84063 0.76272 0.17403 0.0
C265 C 0.84304 0.77643 0.13556 0.0
C266 C 0.85674 0.75616 0.20249 0.0
C267 C 0.87557 0.7632 0.1932 0.0
C268 C 0.87814 0.77663 0.15439 0.0
H269 H 0.97981 0.74388 0.38674 0.0
H270 H 0.96009 0.75161 0.31045 0.0
C271 C 0.86202 0.78324 0.12591 0.0
C272 C 0.89237 0.7566 0.2249 0.0
H273 H 0.92525 0.77223 0.31683 0.0
C274 C 0.89705 0.73659 0.22444 0.0
C275 C 0.90295 0.7697 0.25773 0.0
C276 C 0.89818 0.79127 0.26069 0.0
C277 C 0.91172 0.72924 0.25701 0.0
C278 C 0.9217 0.74222 0.29138 0.0
C279 C 0.91761 0.76234 0.29027 0.0
C280 C 0.93478 0.73511 0.33268 0.0
C281 C 0.91621 0.70762 0.25483 0.0
C282 C 0.92716 0.72307 0.36989 0.0
C283 C 0.93832 0.71868 0.41322 0.0
C284 C 0.9573 0.72634 0.4203 0.0
C285 C 0.96529 0.73765 0.38194 0.0
C286 C 0.95403 0.74213 0.33857 0.0
H287 H 0.91238 0.70107 0.21676 0.0
H288 H 0.93192 0.7048 0.26355 0.0
H289 H 0.90737 0.70011 0.28338 0.0
H290 H 0.91221 0.71783 0.36667 0.0
H291 H 0.93187 0.70986 0.44216 0.0
H292 H 0.74463 0.32511 0.68008 0.0
H293 H 0.75581 0.35259 0.73435 0.0
H294 H 0.71727 0.39142 0.65265 0.0
H295 H 0.70576 0.364 0.59834 0.0
H296 H 0.77341 0.38854 0.7062 0.0
H297 H 0.70258 0.39996 0.80295 0.0
H298 H 0.7079 0.37792 0.7666 0.0
H299 H 0.70154 0.40003 0.73452 0.0
C300 C 0.73845 0.33946 0.6736 0.0
C301 C 0.72415 0.34227 0.63502 0.0
C302 C 0.74493 0.35516 0.70458 0.0
C303 C 0.73721 0.37396 0.69781 0.0
C304 C 0.72318 0.37694 0.65896 0.0
H305 H 0.75519 0.47733 0.89674 0.0
H306 H 0.7467 0.45698 0.82129 0.0
C307 C 0.71666 0.36124 0.6279 0.0
C308 C 0.74377 0.39032 0.73201 0.0
H309 H 0.72843 0.4212 0.82692 0.0
C310 C 0.76357 0.3958 0.7324 0.0
C311 C 0.73085 0.3998 0.76585 0.0
C312 C 0.70955 0.39409 0.76798 0.0
C313 C 0.77088 0.41034 0.76641 0.0
C314 C 0.7581 0.41934 0.80144 0.0
C315 C 0.73818 0.41431 0.79988 0.0
C316 C 0.76526 0.43276 0.84292 0.0
C317 C 0.79222 0.41586 0.76465 0.0
C318 C 0.7787 0.42597 0.87965 0.0
C319 C 0.78361 0.43756 0.92252 0.0
C320 C 0.77506 0.45611 0.92971 0.0
C321 C 0.76217 0.4632 0.89194 0.0
C322 C 0.75723 0.45156 0.84901 0.0
H323 H 0.79828 0.41261 0.7265 0.0
H324 H 0.79445 0.43165 0.77414 0.0
H325 H 0.80064 0.4072 0.79285 0.0
H326 H 0.78478 0.41137 0.87628 0.0
H327 H 0.79368 0.43178 0.95087 0.0
H328 H 0.63722 0.29593 0.41674 0.0
H329 H 0.60983 0.28382 0.36321 0.0
H330 H 0.64827 0.2428 0.2885 0.0
H331 H 0.6757 0.25462 0.34187 0.0
H332 H 0.60753 0.28408 0.25616 0.0
H333 H 0.60159 0.20858 0.32707 0.0
H334 H 0.61458 0.22782 0.36204 0.0
H335 H 0.62591 0.2152 0.30961 0.0
C336 C 0.63986 0.28425 0.38915 0.0
C337 C 0.65871 0.27626 0.38366 0.0
C338 C 0.62417 0.27734 0.35868 0.0
C339 C 0.62698 0.2622 0.32259 0.0
C340 C 0.64572 0.2542 0.31695 0.0
H341 H 0.56887 0.20721 0.06774 0.0
H342 H 0.58947 0.21634 0.14188 0.0
C343 C 0.66142 0.26112 0.34723 0.0
C344 C 0.61064 0.25557 0.28844 0.0
H345 H 0.58497 0.215 0.24803 0.0
C346 C 0.60235 0.26906 0.25482 0.0
C347 C 0.60401 0.23596 0.28689 0.0
C348 C 0.61184 0.22107 0.32365 0.0
C349 C 0.58821 0.26325 0.21794 0.0
C350 C 0.58192 0.2435 0.21548 0.0
C351 C 0.5898 0.23013 0.25012 0.0
C352 C 0.56831 0.23622 0.17464 0.0
C353 C 0.58084 0.27809 0.18038 0.0
C354 C 0.5493 0.24381 0.16959 0.0
C355 C 0.53755 0.23877 0.12698 0.0
C356 C 0.54461 0.22595 0.08894 0.0
C357 C 0.56317 0.21739 0.09595 0.0
C358 C 0.5749 0.22249 0.13842 0.0
H359 H 0.59015 0.29143 0.18078 0.0
H360 H 0.58032 0.2717 0.14109 0.0
H361 H 0.56579 0.2826 0.19032 0.0
H362 H 0.54383 0.25417 0.19768 0.0
H363 H 0.52336 0.24565 0.12264 0.0
H364 H 0.23023 0.17516 0.80807 0.0
H365 H 0.23979 0.147 0.75507 0.0
H366 H 0.22682 0.10828 0.87718 0.0
H367 H 0.21649 0.13627 0.92961 0.0
H368 H 0.2676 0.12003 0.76566 0.0
H369 H 0.19497 0.08356 0.7631 0.0
H370 H 0.19865 0.10813 0.78802 0.0
H371 H 0.20539 0.08746 0.82583 0.0
C372 C 0.22938 0.16064 0.82358 0.0
C373 C 0.22236 0.15791 0.87273 0.0
C374 C 0.23488 0.14456 0.79331 0.0
C375 C 0.23365 0.12548 0.81178 0.0
C376 C 0.22733 0.12279 0.86155 0.0
H377 H 0.2864 0.0313 0.62403 0.0
H378 H 0.27911 0.05182 0.69912 0.0
C379 C 0.22152 0.13882 0.89153 0.0
C380 C 0.23887 0.10851 0.77853 0.0
H381 H 0.22045 0.06669 0.72202 0.0
C382 C 0.25733 0.10831 0.75624 0.0
C383 C 0.2254 0.09328 0.76619 0.0
C384 C 0.20493 0.09315 0.78662 0.0
C385 C 0.26249 0.09366 0.72067 0.0
C386 C 0.24902 0.07843 0.70832 0.0
C387 C 0.23082 0.07828 0.73195 0.0
C388 C 0.25249 0.06396 0.66652 0.0
C389 C 0.28189 0.09527 0.69474 0.0
C390 C 0.23935 0.06306 0.62471 0.0
C391 C 0.24322 0.05107 0.58254 0.0
C392 C 0.26044 0.03983 0.58094 0.0
C393 C 0.27306 0.03985 0.62404 0.0
C394 C 0.26904 0.05175 0.66667 0.0
H395 H 0.28849 0.11005 0.70029 0.0
H396 H 0.29226 0.08446 0.71099 0.0
H397 H 0.2802 0.09209 0.65321 0.0
H398 H 0.22638 0.07218 0.62391 0.0
H399 H 0.23294 0.051 0.5505 0.0
H400 H 0.36172 0.70627 0.43216 0.0
H401 H 0.38989 0.7182 0.38647 0.0
H402 H 0.35269 0.75884 0.30673 0.0
H403 H 0.32443 0.74722 0.35249 0.0
H404 H 0.39433 0.7171 0.28189 0.0
H405 H 0.39843 0.7935 0.35712 0.0
H406 H 0.38464 0.77468 0.38751 0.0
H407 H 0.37455 0.78674 0.33272 0.0
C408 C 0.35949 0.71783 0.40513 0.0
C409 C 0.34075 0.72577 0.39604 0.0
C410 C 0.37564 0.72466 0.37917 0.0
C411 C 0.37343 0.73964 0.34395 0.0
C412 C 0.35479 0.74759 0.33469 0.0
H413 H 0.43276 0.79014 0.10157 0.0
H414 H 0.41243 0.78286 0.17399 0.0
C415 C 0.33861 0.74078 0.36056 0.0
C416 C 0.39031 0.74602 0.3142 0.0
H417 H 0.41627 0.78633 0.2814 0.0
C418 C 0.39937 0.73216 0.28235 0.0
C419 C 0.39683 0.76568 0.31502 0.0
C420 C 0.38824 0.78098 0.3503 0.0
C421 C 0.41411 0.73761 0.24927 0.0
C422 C 0.42021 0.75741 0.24887 0.0
C423 C 0.41161 0.77116 0.28198 0.0
C424 C 0.43397 0.76435 0.21055 0.0
C425 C 0.42228 0.72234 0.2131 0.0
C426 C 0.45317 0.75708 0.20841 0.0
C427 C 0.4648 0.76115 0.16682 0.0
C428 C 0.45736 0.77256 0.12698 0.0
C429 C 0.43873 0.78106 0.13141 0.0
C430 C 0.42714 0.77699 0.17283 0.0
H431 H 0.4134 0.7087 0.21173 0.0
H432 H 0.42296 0.72805 0.17396 0.0
H433 H 0.43737 0.71851 0.22576 0.0
H434 H 0.4588 0.74756 0.23767 0.0
H435 H 0.47909 0.75439 0.16435 0.0
H436 H 0.75068 0.82564 0.85969 0.0
H437 H 0.7401 0.8527 0.80647 0.0
H438 H 0.7872 0.88848 0.86905 0.0
H439 H 0.79769 0.86169 0.92325 0.0
H440 H 0.75208 0.90895 0.85883 0.0
H441 H 0.76976 0.86791 0.68069 0.0
H442 H 0.75283 0.8556 0.72018 0.0
H443 H 0.77756 0.8598 0.74276 0.0
C444 C 0.7588 0.83926 0.86226 0.0
C445 C 0.7752 0.84139 0.89533 0.0
C446 C 0.75273 0.8547 0.83175 0.0
C447 C 0.76307 0.87246 0.83323 0.0
C448 C 0.77906 0.87486 0.86726 0.0
H449 H 0.7649 0.9548 0.59207 0.0
H450 H 0.773 0.93304 0.66204 0.0
C451 C 0.78507 0.85949 0.89806 0.0
C452 C 0.75777 0.88826 0.79781 0.0
H453 H 0.75423 0.89853 0.67157 0.0
C454 C 0.75254 0.90673 0.81786 0.0
C455 C 0.75863 0.88534 0.74444 0.0
C456 C 0.76517 0.86616 0.72062 0.0
C457 C 0.74806 0.92237 0.78579 0.0
C458 C 0.7486 0.91931 0.73243 0.0
C459 C 0.75378 0.90082 0.71254 0.0
C460 C 0.74447 0.93506 0.69588 0.0
C461 C 0.74328 0.94212 0.80923 0.0
C462 C 0.72593 0.94392 0.69263 0.0
C463 C 0.72139 0.9566 0.65292 0.0
C464 C 0.73525 0.96028 0.61576 0.0
C465 C 0.75402 0.95214 0.62045 0.0
C466 C 0.75862 0.9397 0.66024 0.0
H467 H 0.74822 0.94329 0.84979 0.0
H468 H 0.75017 0.95407 0.78801 0.0
H469 H 0.7272 0.94431 0.80755 0.0
H470 H 0.71468 0.94027 0.71915 0.0
H471 H 0.70674 0.96257 0.64951 0.0
H472 H 0.82459 0.75013 0.86242 0.0
H473 H 0.85133 0.73855 0.8096 0.0
H474 H 0.88642 0.78814 0.86007 0.0
H475 H 0.85995 0.79955 0.91416 0.0
H476 H 0.86657 0.75624 0.73156 0.0
H477 H 0.92537 0.74438 0.87607 0.0
H478 H 0.90014 0.74809 0.89279 0.0
H479 H 0.91552 0.7687 0.87991 0.0
C480 C 0.83804 0.75853 0.8626 0.0
C481 C 0.84011 0.7758 0.89249 0.0
C482 C 0.85334 0.75184 0.8325 0.0
C483 C 0.87101 0.76229 0.8315 0.0
C484 C 0.87314 0.77953 0.8613 0.0
H485 H 0.94888 0.76196 0.58054 0.0
H486 H 0.92674 0.76993 0.64978 0.0
C487 C 0.85791 0.78613 0.89186 0.0
C488 C 0.88655 0.75596 0.79623 0.0
H489 H 0.93534 0.74553 0.7891 0.0
C490 C 0.88155 0.75372 0.74431 0.0
C491 C 0.90606 0.75241 0.8129 0.0
C492 C 0.91207 0.75331 0.86854 0.0
C493 C 0.8956 0.7486 0.70841 0.0
C494 C 0.91532 0.74616 0.72466 0.0
C495 C 0.92026 0.74773 0.77673 0.0
C496 C 0.9309 0.74237 0.68752 0.0
C497 C 0.88915 0.74577 0.65334 0.0
C498 C 0.94143 0.72472 0.68757 0.0
C499 C 0.95432 0.72024 0.64827 0.0
C500 C 0.9567 0.73337 0.60855 0.0
C501 C 0.94706 0.75152 0.61046 0.0
C502 C 0.93439 0.75603 0.6498 0.0
H503 H 0.87322 0.74264 0.64956 0.0
H504 H 0.89209 0.75938 0.6326 0.0
H505 H 0.89728 0.73359 0.63473 0.0
H506 H 0.93901 0.71405 0.71663 0.0
H507 H 0.96159 0.70615 0.64746 0.0
H508 H 0.70486 0.36425 0.42841 0.0
H509 H 0.71635 0.39195 0.37997 0.0
H510 H 0.7553 0.35369 0.29779 0.0
H511 H 0.74414 0.32593 0.34617 0.0
H512 H 0.77268 0.38954 0.33452 0.0
H513 H 0.70223 0.40127 0.22884 0.0
H514 H 0.70098 0.40094 0.29708 0.0
H515 H 0.70747 0.37904 0.26231 0.0
C516 C 0.71584 0.36167 0.39996 0.0
C517 C 0.72346 0.34278 0.391 0.0
C518 C 0.72235 0.37754 0.37226 0.0
C519 C 0.73651 0.3748 0.335 0.0
C520 C 0.74433 0.35607 0.32638 0.0
H521 H 0.79385 0.43237 0.09834 0.0
H522 H 0.78475 0.41229 0.16968 0.0
C523 C 0.73785 0.34021 0.35398 0.0
C524 C 0.74316 0.39135 0.30441 0.0
H525 H 0.72822 0.42242 0.21149 0.0
C526 C 0.76295 0.39685 0.30787 0.0
C527 C 0.73038 0.40092 0.26999 0.0
C528 C 0.70911 0.39522 0.26383 0.0
C529 C 0.77039 0.41145 0.27701 0.0
C530 C 0.75778 0.42051 0.24122 0.0
C531 C 0.73785 0.41549 0.2391 0.0
C532 C 0.76516 0.43382 0.20234 0.0
C533 C 0.79172 0.41696 0.28279 0.0
C534 C 0.75719 0.45262 0.19699 0.0
C535 C 0.76226 0.46409 0.15589 0.0
C536 C 0.77521 0.45681 0.11921 0.0
C537 C 0.78375 0.4383 0.12587 0.0
C538 C 0.77871 0.42689 0.16691 0.0
H539 H 0.79757 0.41377 0.32154 0.0
H540 H 0.80028 0.40823 0.25498 0.0
H541 H 0.79402 0.43273 0.27545 0.0
H542 H 0.74658 0.45816 0.22371 0.0
H543 H 0.7553 0.47821 0.15143 0.0
H544 H 0.1728 0.25002 0.84642 0.0
H545 H 0.14522 0.26141 0.79439 0.0
H546 H 0.111 0.21185 0.83866 0.0
H547 H 0.13834 0.20056 0.89181 0.0
H548 H 0.12908 0.2426 0.71389 0.0
H549 H 0.07217 0.25598 0.85717 0.0
H550 H 0.09766 0.25266 0.87448 0.0
H551 H 0.08227 0.23178 0.86005 0.0
C552 C 0.15937 0.24159 0.84544 0.0
C553 C 0.15782 0.22432 0.87318 0.0
C554 C 0.14359 0.24818 0.81584 0.0
C555 C 0.12594 0.23766 0.81329 0.0
C556 C 0.12428 0.22049 0.84113 0.0
H557 H 0.04441 0.23278 0.56276 0.0
H558 H 0.06644 0.22633 0.63514 0.0
C559 C 0.14002 0.21395 0.87111 0.0
C560 C 0.10997 0.2437 0.77794 0.0
H561 H 0.06105 0.25397 0.76963 0.0
C562 C 0.11427 0.2453 0.72626 0.0
C563 C 0.09068 0.24743 0.79417 0.0
C564 C 0.08544 0.24708 0.84959 0.0
C565 C 0.09971 0.24986 0.69011 0.0
C566 C 0.08024 0.25251 0.70589 0.0
C567 C 0.07598 0.25165 0.75772 0.0
C568 C 0.06422 0.25554 0.66818 0.0
C569 C 0.10527 0.25167 0.63514 0.0
C570 C 0.05493 0.27379 0.66453 0.0
C571 C 0.0422 0.27747 0.62329 0.0
C572 C 0.03877 0.26293 0.58539 0.0
C573 C 0.04702 0.24427 0.59128 0.0
C574 C 0.05958 0.24059 0.63247 0.0
H575 H 0.12125 0.25407 0.63137 0.0
H576 H 0.10129 0.23795 0.61389 0.0
H577 H 0.0973 0.26395 0.61704 0.0
H578 H 0.05834 0.28547 0.69195 0.0
H579 H 0.03602 0.29197 0.61936 0.0
H580 H 0.2928 0.63824 0.41719 0.0
H581 H 0.28118 0.61117 0.36186 0.0
H582 H 0.24339 0.65075 0.28036 0.0
H583 H 0.2547 0.67791 0.3356 0.0
H584 H 0.22532 0.6147 0.30771 0.0
H585 H 0.29619 0.60331 0.21123 0.0
H586 H 0.2972 0.60309 0.27965 0.0
H587 H 0.29089 0.62528 0.24789 0.0
C588 C 0.28205 0.64124 0.38746 0.0
C589 C 0.27481 0.66032 0.38067 0.0
C590 C 0.27546 0.62574 0.35583 0.0
C591 C 0.2616 0.62904 0.31677 0.0
C592 C 0.25413 0.64795 0.31029 0.0
H593 H 0.20522 0.56973 0.06394 0.0
H594 H 0.21377 0.59082 0.13753 0.0
C595 C 0.2607 0.66346 0.34182 0.0
C596 C 0.25497 0.61287 0.28209 0.0
H597 H 0.27038 0.58198 0.18734 0.0
C598 C 0.23516 0.60745 0.28153 0.0
C599 C 0.2679 0.60343 0.24825 0.0
C600 C 0.28921 0.60911 0.24627 0.0
C601 C 0.22787 0.59288 0.24756 0.0
C602 C 0.24069 0.58382 0.21274 0.0
C603 C 0.2606 0.58891 0.21424 0.0
C604 C 0.23366 0.57003 0.17195 0.0
C605 C 0.20654 0.58733 0.24931 0.0
C606 C 0.24201 0.55134 0.16683 0.0
C607 C 0.23733 0.53934 0.12444 0.0
C608 C 0.22432 0.54591 0.08625 0.0
C609 C 0.2154 0.56433 0.09256 0.0
C610 C 0.2201 0.57631 0.13488 0.0
H611 H 0.20041 0.59076 0.28729 0.0
H612 H 0.19814 0.59582 0.22071 0.0
H613 H 0.20435 0.5715 0.24035 0.0
H614 H 0.25263 0.5463 0.19484 0.0
H615 H 0.24462 0.52534 0.12038 0.0
H616 H 0.32428 0.75112 0.66261 0.0
H617 H 0.35116 0.76228 0.71886 0.0
H618 H 0.38418 0.71053 0.67912 0.0
H619 H 0.35761 0.69957 0.62141 0.0
H620 H 0.36464 0.74543 0.80089 0.0
H621 H 0.42553 0.75176 0.66728 0.0
H622 H 0.40039 0.74891 0.64577 0.0
H623 H 0.41459 0.72789 0.66393 0.0
C624 C 0.33732 0.74217 0.66552 0.0
C625 C 0.33879 0.72442 0.63763 0.0
C626 C 0.35271 0.74862 0.69755 0.0
C627 C 0.36983 0.73742 0.70263 0.0
C628 C 0.37137 0.71971 0.67474 0.0
H629 H 0.44459 0.73655 0.96866 0.0
H630 H 0.42223 0.72947 0.89654 0.0
C631 C 0.35607 0.71336 0.64213 0.0
C632 C 0.38531 0.74347 0.74031 0.0
H633 H 0.43452 0.75104 0.75635 0.0
C634 C 0.37987 0.74686 0.79093 0.0
C635 C 0.40517 0.74563 0.72726 0.0
C636 C 0.41174 0.74356 0.67299 0.0
C637 C 0.39378 0.75172 0.82914 0.0
C638 C 0.41378 0.75264 0.81671 0.0
C639 C 0.41921 0.74999 0.76584 0.0
C640 C 0.42916 0.75585 0.85664 0.0
C641 C 0.38688 0.75587 0.8825 0.0
C642 C 0.44126 0.77247 0.8566 0.0
C643 C 0.45426 0.77641 0.89758 0.0
C644 C 0.4552 0.7638 0.93899 0.0
C645 C 0.44387 0.74664 0.93746 0.0
C646 C 0.43108 0.74262 0.89646 0.0
H647 H 0.37124 0.7603 0.88252 0.0
H648 H 0.38837 0.7424 0.90505 0.0
H649 H 0.39573 0.76763 0.90179 0.0
H650 H 0.44007 0.78276 0.82594 0.0
H651 H 0.46289 0.78972 0.89804 0.0
H652 H 0.75895 0.82405 0.18777 0.0
H653 H 0.74822 0.85136 0.2417 0.0
H654 H 0.78324 0.89111 0.15709 0.0
H655 H 0.79402 0.86389 0.1024 0.0
H656 H 0.77353 0.87615 0.30171 0.0
H657 H 0.72867 0.91788 0.1619 0.0
H658 H 0.73517 0.89249 0.1513 0.0
H659 H 0.75302 0.91136 0.14325 0.0
C660 C 0.76433 0.83858 0.18028 0.0
C661 C 0.7774 0.84172 0.14069 0.0
C662 C 0.75814 0.85418 0.21115 0.0
C663 C 0.76475 0.87325 0.20294 0.0
C664 C 0.77771 0.87654 0.16344 0.0
H665 H 0.74768 0.97877 0.39267 0.0
H666 H 0.7564 0.95683 0.32113 0.0
C667 C 0.78396 0.86091 0.1325 0.0
C668 C 0.75888 0.8894 0.23783 0.0
H669 H 0.73229 0.93172 0.24507 0.0
C670 C 0.76456 0.88832 0.2893 0.0
C671 C 0.7473 0.90531 0.22132 0.0
C672 C 0.74052 0.90688 0.16652 0.0
C673 C 0.75879 0.90261 0.32497 0.0
C674 C 0.74676 0.91822 0.30882 0.0
C675 C 0.74146 0.91965 0.25714 0.0
C676 C 0.739 0.93258 0.3461 0.0
C677 C 0.76555 0.90087 0.37981 0.0
C678 C 0.72572 0.9264 0.38223 0.0
C679 C 0.72077 0.9388 0.4228 0.0
C680 C 0.72895 0.95764 0.42779 0.0
C681 C 0.74113 0.96434 0.38951 0.0
C682 C 0.74615 0.95185 0.34884 0.0
H683 H 0.77824 0.8908 0.38375 0.0
H684 H 0.76971 0.91542 0.39648 0.0
H685 H 0.75341 0.89501 0.40226 0.0
H686 H 0.71989 0.91164 0.38029 0.0
H687 H 0.71117 0.93338 0.45153 0.0
H688 H 0.63814 0.29604 0.59803 0.0
H689 H 0.6116 0.28451 0.65069 0.0
H690 H 0.65042 0.24193 0.7173 0.0
H691 H 0.67706 0.25343 0.66563 0.0
H692 H 0.59472 0.24662 0.65944 0.0
H693 H 0.63005 0.27307 0.84063 0.0
H694 H 0.63794 0.28081 0.77919 0.0
H695 H 0.64543 0.25744 0.80298 0.0
C696 C 0.64106 0.28422 0.62388 0.0
C697 C 0.65984 0.27584 0.62799 0.0
C698 C 0.62585 0.27762 0.65378 0.0
C699 C 0.62916 0.26259 0.68836 0.0
C700 C 0.64768 0.25382 0.69151 0.0
H701 H 0.56697 0.20437 0.92021 0.0
H702 H 0.5886 0.21288 0.85131 0.0
C703 C 0.66289 0.26041 0.66183 0.0
C704 C 0.61345 0.2563 0.72219 0.0
H705 H 0.60253 0.2522 0.84747 0.0
C706 C 0.59632 0.24793 0.70055 0.0
C707 C 0.61557 0.25819 0.77575 0.0
C708 C 0.63315 0.26804 0.8011 0.0
C709 C 0.58149 0.24078 0.73135 0.0
C710 C 0.5839 0.24222 0.78487 0.0
C711 C 0.60085 0.25093 0.80634 0.0
C712 C 0.56919 0.23477 0.82 0.0
C713 C 0.56363 0.23129 0.70665 0.0
C714 C 0.55087 0.24388 0.82421 0.0
C715 C 0.53847 0.23904 0.86365 0.0
C716 C 0.54434 0.22516 0.89959 0.0
C717 C 0.56218 0.21525 0.89331 0.0
C718 C 0.57451 0.22006 0.85396 0.0
H719 H 0.5657 0.22792 0.66554 0.0
H720 H 0.55996 0.21754 0.72604 0.0
H721 H 0.55097 0.24136 0.71023 0.0
H722 H 0.54665 0.25549 0.79882 0.0
H723 H 0.5249 0.24703 0.86793 0.0
H724 H 0.25023 0.17352 0.14487 0.0
H725 H 0.26185 0.14596 0.1947 0.0
H726 H 0.21139 0.11215 0.14444 0.0
H727 H 0.19987 0.13945 0.09344 0.0
H728 H 0.24398 0.13015 0.2726 0.0
H729 H 0.2547 0.07275 0.12349 0.0
H730 H 0.25145 0.09825 0.10883 0.0
H731 H 0.23058 0.08309 0.12074 0.0
C732 C 0.24164 0.16018 0.14409 0.0
C733 C 0.22407 0.15873 0.11523 0.0
C734 C 0.24836 0.14441 0.17243 0.0
C735 C 0.23767 0.12687 0.1726 0.0
C736 C 0.22016 0.12534 0.14376 0.0
H737 H 0.23246 0.04533 0.4109 0.0
H738 H 0.22652 0.06755 0.34063 0.0
C739 C 0.2135 0.14105 0.11503 0.0
C740 C 0.24395 0.11088 0.20643 0.0
H741 H 0.25333 0.06176 0.20975 0.0
C742 C 0.24626 0.11526 0.25867 0.0
C743 C 0.24713 0.09149 0.1882 0.0
C744 C 0.24604 0.08613 0.13217 0.0
C745 C 0.25092 0.10067 0.29342 0.0
C746 C 0.25299 0.08112 0.27557 0.0
C747 C 0.25147 0.07677 0.22321 0.0
C748 C 0.2558 0.06508 0.31169 0.0
C749 C 0.25335 0.10623 0.34918 0.0
C750 C 0.27396 0.05566 0.31694 0.0
C751 C 0.27737 0.04285 0.35705 0.0
C752 C 0.26265 0.03947 0.39221 0.0
C753 C 0.24409 0.0479 0.38456 0.0
C754 C 0.24069 0.06055 0.34454 0.0
H755 H 0.25591 0.1222 0.35507 0.0
H756 H 0.23984 0.10232 0.36923 0.0
H757 H 0.26576 0.09816 0.36691 0.0
H758 H 0.28576 0.059 0.29174 0.0
H759 H 0.2918 0.03654 0.36237 0.0
H760 H 0.21994 0.28457 0.08291 0.0
H761 H 0.21943 0.32033 0.08443 0.0
H762 H 0.21445 0.32004 0.92053 0.0
H763 H 0.21489 0.28422 0.91836 0.0
H764 H 0.24695 0.34511 0.03224 0.0
H765 H 0.1694 0.3567 0.97083 0.0
H766 H 0.17796 0.33389 0.99666 0.0
H767 H 0.18344 0.33995 0.93246 0.0
C768 C 0.21861 0.29205 0.04711 0.0
C769 C 0.21746 0.28147 0.00048 0.0
C770 C 0.21834 0.3125 0.04811 0.0
C771 C 0.21672 0.32276 0.00265 0.0
C772 C 0.21545 0.31233 0.95606 0.0
H773 H 0.21327 0.44789 0.9444 0.0
H774 H 0.21275 0.41209 0.93583 0.0
C775 C 0.21581 0.29187 0.95494 0.0
C776 C 0.21713 0.3444 0.00408 0.0
H777 H 0.18922 0.38488 0.98193 0.0
C778 C 0.23435 0.35384 0.02129 0.0
C779 C 0.20069 0.35565 0.98933 0.0
C780 C 0.18174 0.34612 0.97157 0.0
C781 C 0.23561 0.37433 0.02407 0.0
C782 C 0.21903 0.38562 0.01041 0.0
C783 C 0.20188 0.37617 0.99248 0.0
C784 C 0.21907 0.40726 0.01566 0.0
C785 C 0.25478 0.38367 0.04087 0.0
C786 C 0.22244 0.41636 0.06352 0.0
C787 C 0.22283 0.43675 0.06846 0.0
C788 C 0.21966 0.44839 0.02576 0.0
C789 C 0.21584 0.43929 0.97799 0.0
C790 C 0.21552 0.41886 0.97303 0.0
H791 H 0.26728 0.37348 0.03548 0.0
H792 H 0.25757 0.39719 0.01954 0.0
H793 H 0.25425 0.38766 0.08201 0.0
H794 H 0.22476 0.40769 0.0971 0.0
H795 H 0.22566 0.44343 0.10574 0.0
H796 H 0.21455 0.71172 0.42112 0.0
H797 H 0.17887 0.7085 0.41837 0.0
H798 H 0.17747 0.71946 0.5805 0.0
H799 H 0.21308 0.7227 0.58392 0.0
H800 H 0.15541 0.6811 0.4796 0.0
H801 H 0.1385 0.75993 0.51401 0.0
H802 H 0.1618 0.75163 0.4906 0.0
H803 H 0.15628 0.74922 0.55659 0.0
C804 C 0.20668 0.71353 0.45622 0.0
C805 C 0.21672 0.71755 0.50273 0.0
C806 C 0.18631 0.71163 0.45454 0.0
C807 C 0.17561 0.71392 0.49915 0.0
C808 C 0.18551 0.71786 0.5456 0.0
H809 H 0.05215 0.71511 0.5668 0.0
H810 H 0.08793 0.71635 0.57043 0.0
C811 C 0.20587 0.71964 0.54743 0.0
C812 C 0.15406 0.71198 0.49733 0.0
H813 H 0.11187 0.7379 0.51256 0.0
C814 C 0.14583 0.69349 0.4866 0.0
C815 C 0.14173 0.72819 0.5068 0.0
C816 C 0.14993 0.74843 0.51732 0.0
C817 C 0.12547 0.6907 0.48593 0.0
C818 C 0.11308 0.70695 0.49502 0.0
C819 C 0.12138 0.72545 0.50568 0.0
C820 C 0.09145 0.70521 0.49336 0.0
C821 C 0.11747 0.67029 0.47677 0.0
C822 C 0.08156 0.69857 0.44878 0.0
C823 C 0.06112 0.69771 0.44674 0.0
C824 C 0.05024 0.70373 0.48897 0.0
C825 C 0.06014 0.71036 0.53361 0.0
C826 C 0.08058 0.71109 0.53574 0.0
H827 H 0.12865 0.65896 0.48534 0.0
H828 H 0.1045 0.66769 0.50036 0.0
H829 H 0.11295 0.66844 0.43609 0.0
H830 H 0.08961 0.6944 0.41521 0.0
H831 H 0.0538 0.69269 0.41178 0.0
H832 H 0.78735 0.71592 0.9302 0.0
H833 H 0.78971 0.68019 0.92838 0.0
H834 H 0.78225 0.67967 0.0908 0.0
H835 H 0.77984 0.71539 0.09326 0.0
H836 H 0.81758 0.65622 0.98759 0.0
H837 H 0.73946 0.6415 0.02803 0.0
H838 H 0.7477 0.66465 0.00451 0.0
H839 H 0.75193 0.65881 0.0701 0.0
C840 C 0.78614 0.70825 0.96558 0.0
C841 C 0.7833 0.71857 0.01187 0.0
C842 C 0.78754 0.68783 0.96443 0.0
C843 C 0.78595 0.67735 0.00935 0.0
C844 C 0.78327 0.68753 0.05564 0.0
H845 H 0.7838 0.5531 0.07233 0.0
H846 H 0.78328 0.5889 0.07817 0.0
C847 C 0.78197 0.70795 0.05694 0.0
C848 C 0.78727 0.65574 0.00783 0.0
H849 H 0.76059 0.61422 0.02388 0.0
C850 C 0.80515 0.64699 0.99542 0.0
C851 C 0.77102 0.64384 0.01836 0.0
C852 C 0.75137 0.65259 0.03067 0.0
C853 C 0.80728 0.62655 0.99381 0.0
C854 C 0.79095 0.6146 0.00367 0.0
C855 C 0.77309 0.6234 0.01634 0.0
C856 C 0.79194 0.59293 0.0004 0.0
C857 C 0.82712 0.61798 0.98261 0.0
C858 C 0.79684 0.58331 0.95462 0.0
C859 C 0.79726 0.56287 0.95128 0.0
C860 C 0.79256 0.55169 0.99342 0.0
C861 C 0.78753 0.56131 0.03918 0.0
C862 C 0.78722 0.58177 0.04258 0.0
H863 H 0.83904 0.62874 0.99083 0.0
H864 H 0.82999 0.60472 0.00527 0.0
H865 H 0.82761 0.61373 0.94162 0.0
H866 H 0.80007 0.59161 0.92123 0.0
H867 H 0.80104 0.55578 0.9155 0.0
H868 H 0.78472 0.28997 0.59276 0.0
H869 H 0.82026 0.29367 0.59434 0.0
H870 H 0.82075 0.28503 0.43122 0.0
H871 H 0.78516 0.28167 0.42898 0.0
H872 H 0.84795 0.26729 0.56423 0.0
H873 H 0.85298 0.33465 0.45145 0.0
H874 H 0.83026 0.32631 0.47711 0.0
H875 H 0.83942 0.31528 0.41956 0.0
C876 C 0.79234 0.28893 0.55711 0.0
C877 C 0.78203 0.28557 0.51069 0.0
C878 C 0.81267 0.29107 0.55813 0.0
C879 C 0.82311 0.28995 0.51283 0.0
C880 C 0.81293 0.28642 0.4665 0.0
H881 H 0.94614 0.28616 0.44281 0.0
H882 H 0.9103 0.28575 0.44054 0.0
C883 C 0.79258 0.28437 0.46536 0.0
C884 C 0.84473 0.29172 0.51442 0.0
H885 H 0.88287 0.31784 0.46867 0.0
C886 C 0.85558 0.27842 0.54363 0.0
C887 C 0.85463 0.30628 0.48749 0.0
C888 C 0.84374 0.32157 0.45752 0.0
C889 C 0.87609 0.27905 0.5459 0.0
C890 C 0.88597 0.29346 0.5186 0.0
C891 C 0.87518 0.3068 0.48946 0.0
C892 C 0.90756 0.29474 0.51956 0.0
C893 C 0.8871 0.26407 0.57663 0.0
C894 C 0.91779 0.30031 0.56452 0.0
C895 C 0.93824 0.30064 0.5659 0.0
C896 C 0.94874 0.29536 0.5224 0.0
C897 C 0.93845 0.29023 0.47704 0.0
C898 C 0.91799 0.29001 0.47562 0.0
H899 H 0.87755 0.25175 0.5874 0.0
H900 H 0.8996 0.25807 0.55495 0.0
H901 H 0.89309 0.27118 0.6121 0.0
H902 H 0.90994 0.30422 0.59864 0.0
H903 H 0.94585 0.30469 0.60124 0.0
H904 H 0.71236 0.21709 0.42114 0.0
H905 H 0.70918 0.18147 0.41856 0.0
H906 H 0.71978 0.18026 0.58093 0.0
H907 H 0.72261 0.21591 0.5842 0.0
H908 H 0.73597 0.1537 0.44542 0.0
H909 H 0.67022 0.14787 0.56391 0.0
H910 H 0.67813 0.17076 0.53833 0.0
H911 H 0.68989 0.16136 0.59464 0.0
C912 C 0.71397 0.20929 0.45641 0.0
C913 C 0.71767 0.21942 0.50294 0.0
C914 C 0.71212 0.18892 0.45482 0.0
C915 C 0.71391 0.17824 0.49965 0.0
C916 C 0.71787 0.18824 0.54605 0.0
H917 H 0.71778 0.05476 0.56623 0.0
H918 H 0.71884 0.0906 0.56914 0.0
C919 C 0.71961 0.20863 0.54776 0.0
C920 C 0.71223 0.1566 0.49753 0.0
H921 H 0.68692 0.11813 0.54438 0.0
C922 C 0.72517 0.14593 0.46679 0.0
C923 C 0.6981 0.1465 0.52544 0.0
C924 C 0.68316 0.1572 0.55706 0.0
C925 C 0.7246 0.1254 0.46394 0.0
C926 C 0.71061 0.11533 0.49223 0.0
C927 C 0.69765 0.12595 0.52288 0.0
C928 C 0.70934 0.09372 0.49063 0.0
C929 C 0.73919 0.11458 0.4315 0.0
C930 C 0.70332 0.08369 0.44572 0.0
C931 C 0.70263 0.06324 0.44398 0.0
C932 C 0.70797 0.05252 0.48707 0.0
C933 C 0.71366 0.06261 0.5323 0.0
C934 C 0.71425 0.08307 0.53409 0.0
H935 H 0.75138 0.12421 0.42029 0.0
H936 H 0.7454 0.1019 0.45205 0.0
H937 H 0.73168 0.10888 0.39628 0.0
H938 H 0.69924 0.09169 0.41199 0.0
H939 H 0.69814 0.05578 0.40874 0.0
H940 H 0.28453 0.2224 0.0795 0.0
H941 H 0.32024 0.22122 0.08045 0.0
H942 H 0.31924 0.20896 0.91862 0.0
H943 H 0.28351 0.21046 0.91694 0.0
H944 H 0.34521 0.19115 0.0526 0.0
H945 H 0.35587 0.25592 0.93228 0.0
H946 H 0.33266 0.2503 0.95983 0.0
H947 H 0.34048 0.23717 0.90378 0.0
C948 C 0.29186 0.21947 0.04401 0.0
C949 C 0.2811 0.2167 0.99804 0.0
C950 C 0.31229 0.21878 0.04468 0.0
C951 C 0.32239 0.21532 -0.00051 0.0
C952 C 0.31174 0.21209 0.95373 0.0
H953 H 0.44793 0.21104 0.94364 0.0
H954 H 0.41226 0.20796 0.93483 0.0
C955 C 0.2913 0.21287 0.95294 0.0
C956 C 0.34406 0.21503 0.00056 0.0
H957 H 0.38423 0.23818 0.95578 0.0
C958 C 0.35375 0.20142 0.0314 0.0
C959 C 0.35516 0.22842 0.97275 0.0
C960 C 0.34556 0.24391 0.94062 0.0
C961 C 0.37425 0.20085 0.03528 0.0
C962 C 0.3853 0.21441 0.00805 0.0
C963 C 0.37567 0.22778 0.97647 0.0
C964 C 0.40686 0.21558 0.01366 0.0
C965 C 0.38393 0.18571 0.06831 0.0
C966 C 0.41555 0.22104 0.06079 0.0
C967 C 0.43585 0.22288 0.06588 0.0
C968 C 0.4478 0.21933 0.02393 0.0
C969 C 0.4391 0.21382 0.9767 0.0
C970 C 0.41875 0.21206 0.97158 0.0
H971 H 0.37388 0.17338 0.07577 0.0
H972 H 0.39729 0.17977 0.05032 0.0
H973 H 0.38832 0.19264 0.10549 0.0
H974 H 0.4066 0.22417 0.09347 0.0
H975 H 0.44222 0.22722 0.1026 0.0
H976 H 0.28682 0.78472 0.59735 0.0
H977 H 0.29036 0.8203 0.6006 0.0
H978 H 0.2811 0.82196 0.43781 0.0
H979 H 0.27791 0.78633 0.43388 0.0
H980 H 0.31218 0.84479 0.47173 0.0
H981 H 0.24669 0.86027 0.587 0.0
H982 H 0.26362 0.84354 0.61587 0.0
H983 H 0.25105 0.83665 0.55721 0.0
C984 C 0.28542 0.79263 0.5622 0.0
C985 C 0.28194 0.78263 0.51536 0.0
C986 C 0.28737 0.81299 0.5642 0.0
C987 C 0.28566 0.82379 0.51957 0.0
C988 C 0.28238 0.81389 0.47274 0.0
H989 H 0.2859 0.94627 0.44447 0.0
H990 H 0.28562 0.91046 0.44314 0.0
C991 C 0.28053 0.79352 0.47061 0.0
C992 C 0.28759 0.8454 0.52152 0.0
H993 H 0.26772 0.8871 0.57253 0.0
C994 C 0.30243 0.85405 0.49364 0.0
C995 C 0.27484 0.85743 0.55016 0.0
C996 C 0.25803 0.84905 0.57889 0.0
C997 C 0.30499 0.87444 0.49404 0.0
C998 C 0.29226 0.88643 0.5227 0.0
C999 C 0.2775 0.8778 0.55082 0.0
C1000 C 0.2936 0.90803 0.52294 0.0
C1001 C 0.32142 0.88302 0.46434 0.0
C1002 C 0.29806 0.91848 0.56836 0.0
C1003 C 0.29825 0.93895 0.56924 0.0
C1004 C 0.29375 0.94925 0.52488 0.0
C1005 C 0.28947 0.93874 0.47929 0.0
C1006 C 0.28939 0.91829 0.47838 0.0
H1007 H 0.33253 0.87181 0.45416 0.0
H1008 H 0.31534 0.88911 0.42853 0.0
H1009 H 0.32875 0.89511 0.48643 0.0
H1010 H 0.30125 0.91079 0.60318 0.0
H1011 H 0.30154 0.94673 0.60485 0.0
H1012 H 0.71503 0.788 0.93536 0.0
H1013 H 0.67929 0.78873 0.93568 0.0
H1014 H 0.68051 0.77892 0.0972 0.0
H1015 H 0.71629 0.77811 0.0975 0.0
H1016 H 0.65527 0.75328 0.03694 0.0
H1017 H 0.64282 0.83181 0.9963 0.0
H1018 H 0.65928 0.81926 0.95427 0.0
H1019 H 0.66596 0.82266 0.02043 0.0
C1020 C 0.70775 0.7861 0.97109 0.0
C1021 C 0.71858 0.78297 0.01642 0.0
C1022 C 0.68731 0.78665 0.9712 0.0
C1023 C 0.67732 0.78409 0.01655 0.0
C1024 C 0.68801 0.78104 0.06188 0.0
H1025 H 0.55163 0.79518 0.06248 0.0
H1026 H 0.58734 0.79826 0.07038 0.0
C1027 C 0.70845 0.7806 0.06192 0.0
C1028 C 0.65569 0.78356 0.0161 0.0
H1029 H 0.61492 0.81092 0.99104 0.0
C1030 C 0.64643 0.7659 0.02724 0.0
C1031 C 0.64425 0.80012 0.00383 0.0
C1032 C 0.65352 0.81961 0.99342 0.0
C1033 C 0.62597 0.7642 0.02505 0.0
C1034 C 0.61457 0.78056 0.01108 0.0
C1035 C 0.62378 0.79839 0.00135 0.0
C1036 C 0.59304 0.77923 0.00543 0.0
C1037 C 0.61667 0.74493 0.03758 0.0
C1038 C 0.58454 0.76778 0.96579 0.0
C1039 C 0.56422 0.76606 0.96105 0.0
C1040 C 0.55209 0.77572 0.99596 0.0
C1041 C 0.56062 0.78747 0.03518 0.0
C1042 C 0.58098 0.78928 0.0397 0.0
H1043 H 0.6271 0.73515 0.05778 0.0
H1044 H 0.60369 0.74732 0.06158 0.0
H1045 H 0.61168 0.73735 0.00174 0.0
H1046 H 0.59365 0.76011 0.93865 0.0
H1047 H 0.55798 0.75699 0.93039 0.0
loop_
_geom_bond_atom_site_label_1
_geom_bond_atom_site_label_2
_geom_bond_distance
_geom_bond_site_symmetry_2
_ccdc_geom_bond_type
Sc0 O3 2.025 . S
Sc0 O10 2.105 . S
Sc0 O13 2.105 . S
Sc0 O16 2.105 . S
Sc0 O19 2.105 . S
Sc1 O3 2.025 . S
Sc1 O11 2.105 . S
Sc1 O15 2.105 1_554 S
Sc1 O17 2.105 . S
Sc1 O21 2.105 1_554 S
Sc2 O3 2.025 1_556 S
Sc2 O12 2.105 . S
Sc2 O14 2.105 . S
Sc2 O18 2.105 . S
Sc2 O20 2.105 . S
O3 Sc0 2.025 . S
O3 Sc1 2.025 . S
O3 Sc2 2.025 1_554 S
C4 O10 1.268 . S
C4 O20 1.268 1_554 S
C5 O11 1.268 . S
C5 O19 1.268 . S
C6 O12 1.268 . S
C6 O21 1.268 . S
C7 O13 1.268 . S
C7 O17 1.268 . S
C8 O14 1.268 1_554 S
C8 O16 1.268 . S
C9 O15 1.268 . S
C9 O18 1.268 . S
O10 Sc0 2.105 . S
O10 C4 1.268 . S
O11 Sc1 2.105 . S
O11 C5 1.268 . S
O12 Sc2 2.105 . S
O12 C6 1.268 . S
O13 Sc0 2.105 . S
O13 C7 1.268 . S
O14 Sc2 2.105 . S
O14 C8 1.268 1_556 S
O15 Sc1 2.105 1_556 S
O15 C9 1.268 . S
O16 Sc0 2.105 . S
O16 C8 1.268 . S
O17 Sc1 2.105 . S
O17 C7 1.268 . S
O18 Sc2 2.105 . S
O18 C9 1.268 . S
O19 Sc0 2.105 . S
O19 C5 1.268 . S
O20 Sc2 2.105 . S
O20 C4 1.268 1_556 S
O21 Sc1 2.105 1_556 S
O21 C6 1.268 . S
Sc22 O25 2.025 . S
Sc22 O32 2.105 . S
Sc22 O35 2.105 . S
Sc22 O38 2.105 . S
Sc22 O41 2.105 . S
Sc23 O25 2.025 . S
Sc23 O33 2.105 . S
Sc23 O37 2.105 . S
Sc23 O39 2.105 . S
Sc23 O43 2.105 . S
Sc24 O25 2.025 . S
Sc24 O34 2.105 . S
Sc24 O36 2.105 . S
Sc24 O40 2.105 . S
Sc24 O42 2.105 . S
O25 Sc22 2.025 . S
O25 Sc23 2.025 . S
O25 Sc24 2.025 . S
C26 O32 1.268 . S
C26 O42 1.268 . S
C27 O33 1.268 . S
C27 O41 1.268 . S
C28 O34 1.268 . S
C28 O43 1.268 . S
C29 O35 1.268 . S
C29 O39 1.268 . S
C30 O36 1.268 . S
C30 O38 1.268 . S
C31 O37 1.268 . S
C31 O40 1.268 . S
O32 Sc22 2.105 . S
O32 C26 1.268 . S
O33 Sc23 2.105 . S
O33 C27 1.268 . S
O34 Sc24 2.105 . S
O34 C28 1.268 . S
O35 Sc22 2.105 . S
O35 C29 1.268 . S
O36 Sc24 2.105 . S
O36 C30 1.268 . S
O37 Sc23 2.105 . S
O37 C31 1.268 . S
O38 Sc22 2.105 . S
O38 C30 1.268 . S
O39 Sc23 2.105 . S
O39 C29 1.268 . S
O40 Sc24 2.105 . S
O40 C31 1.268 . S
O41 Sc22 2.105 . S
O41 C27 1.268 . S
O42 Sc24 2.105 . S
O42 C26 1.268 . S
O43 Sc23 2.105 . S
O43 C28 1.268 . S
Sc44 O47 2.025 1_556 S
Sc44 O54 2.105 . S
Sc44 O57 2.105 . S
Sc44 O60 2.105 . S
Sc44 O63 2.105 . S
Sc45 O47 2.025 . S
Sc45 O55 2.105 1_554 S
Sc45 O59 2.105 . S
Sc45 O61 2.105 1_554 S
Sc45 O65 2.105 . S
Sc46 O47 2.025 . S
Sc46 O56 2.105 . S
Sc46 O58 2.105 . S
Sc46 O62 2.105 . S
Sc46 O64 2.105 . S
O47 Sc44 2.025 1_554 S
O47 Sc45 2.025 . S
O47 Sc46 2.025 . S
C48 O54 1.268 1_554 S
C48 O64 1.268 . S
C49 O55 1.268 . S
C49 O63 1.268 . S
C50 O56 1.268 . S
C50 O65 1.268 . S
C51 O57 1.268 . S
C51 O61 1.268 . S
C52 O58 1.268 . S
C52 O60 1.268 1_554 S
C53 O59 1.268 . S
C53 O62 1.268 . S
O54 Sc44 2.105 . S
O54 C48 1.268 1_556 S
O55 Sc45 2.105 1_556 S
O55 C49 1.268 . S
O56 Sc46 2.105 . S
O56 C50 1.268 . S
O57 Sc44 2.105 . S
O57 C51 1.268 . S
O58 Sc46 2.105 . S
O58 C52 1.268 . S
O59 Sc45 2.105 . S
O59 C53 1.268 . S
O60 Sc44 2.105 . S
O60 C52 1.268 1_556 S
O61 Sc45 2.105 1_556 S
O61 C51 1.268 . S
O62 Sc46 2.105 . S
O62 C53 1.268 . S
O63 Sc44 2.105 . S
O63 C49 1.268 . S
O64 Sc46 2.105 . S
O64 C48 1.268 . S
O65 Sc45 2.105 . S
O65 C50 1.268 . S
Sc66 O69 2.025 . S
Sc66 O76 2.105 . S
Sc66 O79 2.105 . S
Sc66 O82 2.105 . S
Sc66 O85 2.105 . S
Sc67 O69 2.025 . S
Sc67 O77 2.105 . S
Sc67 O81 2.105 . S
Sc67 O83 2.105 . S
Sc67 O87 2.105 . S
Sc68 O69 2.025 . S
Sc68 O78 2.105 . S
Sc68 O80 2.105 . S
Sc68 O84 2.105 . S
Sc68 O86 2.105 . S
O69 Sc66 2.025 . S
O69 Sc67 2.025 . S
O69 Sc68 2.025 . S
C70 O76 1.268 . S
C70 O86 1.268 . S
C71 O77 1.268 . S
C71 O85 1.268 . S
C72 O78 1.268 . S
C72 O87 1.268 . S
C73 O79 1.268 . S
C73 O83 1.268 . S
C74 O80 1.268 . S
C74 O82 1.268 . S
C75 O81 1.268 . S
C75 O84 1.268 . S
O76 Sc66 2.105 . S
O76 C70 1.268 . S
O77 Sc67 2.105 . S
O77 C71 1.268 . S
O78 Sc68 2.105 . S
O78 C72 1.268 . S
O79 Sc66 2.105 . S
O79 C73 1.268 . S
O80 Sc68 2.105 . S
O80 C74 1.268 . S
O81 Sc67 2.105 . S
O81 C75 1.268 . S
O82 Sc66 2.105 . S
O82 C74 1.268 . S
O83 Sc67 2.105 . S
O83 C73 1.268 . S
O84 Sc68 2.105 . S
O84 C75 1.268 . S
O85 Sc66 2.105 . S
O85 C71 1.268 . S
O86 Sc68 2.105 . S
O86 C70 1.268 . S
O87 Sc67 2.105 . S
O87 C72 1.268 . S
H88 C93 0.930 . S
H89 C96 0.930 . S
H90 C98 0.931 . S
H91 C92 1.016 . S
C92 H91 1.016 . S
C92 N99 1.286 1_554 S
C93 H88 0.930 . S
C93 C94 1.397 . S
C93 C95 1.361 . S
C94 C93 1.397 . S
C94 C98 1.383 1_556 S
C95 C93 1.361 . S
C95 C96 1.393 1_556 S
C95 N99 1.413 . S
C96 H89 0.930 . S
C96 C95 1.393 1_554 S
C96 C97 1.399 . S
C97 C96 1.399 . S
C97 C98 1.387 . S
C98 H90 0.931 . S
C98 C94 1.383 1_554 S
C98 C97 1.387 . S
N99 C92 1.286 1_556 S
N99 C95 1.413 . S
H100 C105 0.930 . S
H101 C108 0.930 . S
H102 C110 0.930 . S
H103 C104 1.016 . S
C104 H103 1.016 . S
C104 N111 1.286 . S
C105 H100 0.930 . S
C105 C106 1.397 . S
C105 C107 1.361 . S
C106 C105 1.397 . S
C106 C110 1.390 . S
C107 C105 1.361 . S
C107 C108 1.393 . S
C107 N111 1.413 1_655 S
C108 H101 0.930 . S
C108 C107 1.393 . S
C108 C109 1.399 . S
C109 C108 1.399 . S
C109 C110 1.381 . S
C110 H102 0.930 . S
C110 C106 1.390 . S
C110 C109 1.381 . S
N111 C104 1.286 . S
N111 C107 1.413 1_455 S
H112 C117 0.930 . S
H113 C120 0.930 . S
H114 C122 0.930 . S
H115 C116 1.016 1_556 S
C116 H115 1.016 1_554 S
C116 N123 1.286 . S
C117 H112 0.930 . S
C117 C118 1.397 . S
C117 C119 1.361 . S
C118 C117 1.397 . S
C118 C122 1.390 . S
C119 C117 1.361 . S
C119 C120 1.393 1_554 S
C119 N123 1.413 . S
C120 H113 0.930 . S
C120 C119 1.393 1_556 S
C120 C121 1.399 . S
C121 C120 1.399 . S
C121 C122 1.381 1_556 S
C122 H114 0.930 . S
C122 C118 1.390 . S
C122 C121 1.381 1_554 S
N123 C116 1.286 . S
N123 C119 1.413 . S
H124 C129 0.930 . S
H125 C132 0.930 . S
H126 C134 0.930 . S
H127 C128 1.016 . S
C128 H127 1.016 . S
C128 N135 1.286 . S
C129 H124 0.930 . S
C129 C130 1.397 . S
C129 C131 1.361 . S
C130 C129 1.397 . S
C130 C134 1.390 . S
C131 C129 1.361 . S
C131 C132 1.393 . S
C131 N135 1.413 1_455 S
C132 H125 0.930 . S
C132 C131 1.393 . S
C132 C133 1.399 . S
C133 C132 1.399 . S
C133 C134 1.381 . S
C134 H126 0.930 . S
C134 C130 1.390 . S
C134 C133 1.381 . S
N135 C128 1.286 . S
N135 C131 1.413 1_655 S
H136 C141 0.930 . S
H137 C144 0.930 . S
H138 C146 0.930 . S
H139 C140 1.016 . S
C140 H139 1.016 . S
C140 N147 1.286 . S
C141 H136 0.930 . S
C141 C142 1.397 . S
C141 C143 1.361 . S
C142 C141 1.397 . S
C142 C146 1.390 . S
C143 C141 1.361 . S
C143 C144 1.393 . S
C143 N147 1.413 1_565 S
C144 H137 0.930 . S
C144 C143 1.393 . S
C144 C145 1.399 . S
C145 C144 1.399 . S
C145 C146 1.381 . S
C146 H138 0.930 . S
C146 C142 1.390 . S
C146 C145 1.381 . S
N147 C140 1.286 . S
N147 C143 1.413 1_545 S
H148 C153 0.930 . S
H149 C156 0.930 . S
H150 C158 0.931 . S
H151 C152 1.016 . S
C152 H151 1.016 . S
C152 N159 1.286 1_554 S
C153 H148 0.930 . S
C153 C154 1.397 . S
C153 C155 1.361 . S
C154 C153 1.397 . S
C154 C158 1.387 1_556 S
C155 C153 1.361 . S
C155 C156 1.393 1_556 S
C155 N159 1.413 . S
C156 H149 0.930 . S
C156 C155 1.393 1_554 S
C156 C157 1.399 . S
C157 C156 1.399 . S
C157 C158 1.384 . S
C158 H150 0.931 . S
C158 C154 1.387 1_554 S
C158 C157 1.384 . S
N159 C152 1.286 1_556 S
N159 C155 1.413 . S
H160 C165 0.930 . S
H161 C168 0.930 . S
H162 C170 0.930 . S
H163 C164 1.016 . S
C164 H163 1.016 . S
C164 N171 1.286 . S
C165 H160 0.930 . S
C165 C166 1.397 . S
C165 C167 1.361 . S
C166 C165 1.397 . S
C166 C170 1.390 . S
C167 C165 1.361 . S
C167 C168 1.393 . S
C167 N171 1.413 1_545 S
C168 H161 0.930 . S
C168 C167 1.393 . S
C168 C169 1.399 . S
C169 C168 1.399 . S
C169 C170 1.381 . S
C170 H162 0.930 . S
C170 C166 1.390 . S
C170 C169 1.381 . S
N171 C164 1.286 . S
N171 C167 1.413 1_565 S
H172 C177 0.930 . S
H173 C180 0.930 . S
H174 C182 0.930 . S
H175 C176 1.016 1_556 S
C176 H175 1.016 1_554 S
C176 N183 1.286 . S
C177 H172 0.930 . S
C177 C178 1.397 . S
C177 C179 1.361 . S
C178 C177 1.397 . S
C178 C182 1.390 . S
C179 C177 1.361 . S
C179 C180 1.393 1_554 S
C179 N183 1.413 . S
C180 H173 0.930 . S
C180 C179 1.393 1_556 S
C180 C181 1.399 . S
C181 C180 1.399 . S
C181 C182 1.381 1_556 S
C182 H174 0.930 . S
C182 C178 1.390 . S
C182 C181 1.381 1_554 S
N183 C176 1.286 . S
N183 C179 1.413 . S
H184 C192 0.929 . S
H185 C194 0.930 . S
H186 C196 0.930 . S
H187 C199 0.929 . S
H188 C202 0.930 . S
H189 C204 0.960 . S
H190 C204 0.960 . S
H191 C204 0.960 . S
C192 H184 0.929 . S
C192 C193 1.377 . S
C192 C194 1.384 . S
C193 C192 1.377 . S
C193 C199 1.390 . S
C194 H185 0.930 . S
C194 C192 1.384 . S
C194 C195 1.372 . S
C195 C194 1.372 . S
C195 C196 1.400 . S
C195 C200 1.490 . S
C196 H186 0.930 . S
C196 C195 1.400 . S
C196 C199 1.386 . S
H197 C213 0.930 . S
H198 C214 0.931 . S
C199 H187 0.929 . S
C199 C193 1.390 . S
C199 C196 1.386 . S
C200 C195 1.490 . S
C200 C202 1.395 . S
C200 C203 1.403 . S
H201 C207 0.930 . S
C202 H188 0.930 . S
C202 C200 1.395 . S
C202 C205 1.403 . S
C203 C200 1.403 . S
C203 C204 1.524 . S
C203 C207 1.400 . S
C204 H189 0.960 . S
C204 H190 0.960 . S
C204 H191 0.960 . S
C204 C203 1.524 . S
C205 C202 1.403 . S
C205 C206 1.392 . S
C205 C209 1.495 . S
C206 C205 1.392 . S
C206 C207 1.385 . S
C206 C208 1.478 . S
C207 H201 0.930 . S
C207 C203 1.400 . S
C207 C206 1.385 . S
C208 C206 1.478 . S
C208 C210 1.381 . S
C208 C214 1.383 . S
C209 C205 1.495 . S
C209 H215 0.959 . S
C209 H216 0.961 . S
C209 H217 0.960 . S
C210 C208 1.381 . S
C210 C211 1.394 . S
C210 H218 0.930 . S
C211 C210 1.394 . S
C211 C212 1.383 . S
C211 H219 0.929 . S
C212 C211 1.383 . S
C212 C213 1.377 . S
C213 H197 0.930 . S
C213 C212 1.377 . S
C213 C214 1.379 . S
C214 H198 0.931 . S
C214 C208 1.383 . S
C214 C213 1.379 . S
H215 C209 0.959 . S
H216 C209 0.961 . S
H217 C209 0.960 . S
H218 C210 0.930 . S
H219 C211 0.929 . S
H220 C228 0.929 . S
H221 C230 0.930 . S
H222 C232 0.930 . S
H223 C235 0.929 . S
H224 C238 0.930 . S
H225 C240 0.960 . S
H226 C240 0.960 . S
H227 C240 0.960 . S
C228 H220 0.929 . S
C228 C229 1.377 . S
C228 C230 1.384 . S
C229 C228 1.377 . S
C229 C235 1.390 . S
C230 H221 0.930 . S
C230 C228 1.384 . S
C230 C231 1.372 . S
C231 C230 1.372 . S
C231 C232 1.400 . S
C231 C236 1.490 . S
C232 H222 0.930 . S
C232 C231 1.400 . S
C232 C235 1.386 . S
H233 C249 0.930 . S
H234 C250 0.931 . S
C235 H223 0.929 . S
C235 C229 1.390 . S
C235 C232 1.386 . S
C236 C231 1.490 . S
C236 C238 1.395 . S
C236 C239 1.403 . S
H237 C243 0.930 . S
C238 H224 0.930 . S
C238 C236 1.395 . S
C238 C241 1.403 . S
C239 C236 1.403 . S
C239 C240 1.524 . S
C239 C243 1.400 . S
C240 H225 0.960 . S
C240 H226 0.960 . S
C240 H227 0.960 . S
C240 C239 1.524 . S
C241 C238 1.403 . S
C241 C242 1.392 . S
C241 C245 1.495 . S
C242 C241 1.392 . S
C242 C243 1.385 . S
C242 C244 1.478 . S
C243 H237 0.930 . S
C243 C239 1.400 . S
C243 C242 1.385 . S
C244 C242 1.478 . S
C244 C246 1.381 . S
C244 C250 1.383 . S
C245 C241 1.495 . S
C245 H251 0.959 . S
C245 H252 0.961 . S
C245 H253 0.960 . S
C246 C244 1.381 . S
C246 C247 1.394 . S
C246 H254 0.930 . S
C247 C246 1.394 . S
C247 C248 1.383 . S
C247 H255 0.929 . S
C248 C247 1.383 . S
C248 C249 1.377 . S
C249 H233 0.930 . S
C249 C248 1.377 . S
C249 C250 1.379 . S
C250 H234 0.931 . S
C250 C244 1.383 . S
C250 C249 1.379 . S
H251 C245 0.959 . S
H252 C245 0.961 . S
H253 C245 0.960 . S
H254 C246 0.930 . S
H255 C247 0.929 . S
H256 C264 0.929 . S
H257 C266 0.930 . S
H258 C268 0.930 . S
H259 C271 0.929 . S
H260 C274 0.930 . S
H261 C276 0.960 . S
H262 C276 0.960 . S
H263 C276 0.960 . S
C264 H256 0.929 . S
C264 C265 1.377 . S
C264 C266 1.384 . S
C265 C264 1.377 . S
C265 C271 1.390 . S
C266 H257 0.930 . S
C266 C264 1.384 . S
C266 C267 1.372 . S
C267 C266 1.372 . S
C267 C268 1.400 . S
C267 C272 1.490 . S
C268 H258 0.930 . S
C268 C267 1.400 . S
C268 C271 1.386 . S
H269 C285 0.930 . S
H270 C286 0.931 . S
C271 H259 0.929 . S
C271 C265 1.390 . S
C271 C268 1.386 . S
C272 C267 1.490 . S
C272 C274 1.395 . S
C272 C275 1.403 . S
H273 C279 0.930 . S
C274 H260 0.930 . S
C274 C272 1.395 . S
C274 C277 1.403 . S
C275 C272 1.403 . S
C275 C276 1.524 . S
C275 C279 1.400 . S
C276 H261 0.960 . S
C276 H262 0.960 . S
C276 H263 0.960 . S
C276 C275 1.524 . S
C277 C274 1.403 . S
C277 C278 1.392 . S
C277 C281 1.495 . S
C278 C277 1.392 . S
C278 C279 1.385 . S
C278 C280 1.478 . S
C279 H273 0.930 . S
C279 C275 1.400 . S
C279 C278 1.385 . S
C280 C278 1.478 . S
C280 C282 1.381 . S
C280 C286 1.383 . S
C281 C277 1.495 . S
C281 H287 0.959 . S
C281 H288 0.961 . S
C281 H289 0.960 . S
C282 C280 1.381 . S
C282 C283 1.394 . S
C282 H290 0.930 . S
C283 C282 1.394 . S
C283 C284 1.383 . S
C283 H291 0.929 . S
C284 C283 1.383 . S
C284 C285 1.377 . S
C285 H269 0.930 . S
C285 C284 1.377 . S
C285 C286 1.379 . S
C286 H270 0.931 . S
C286 C280 1.383 . S
C286 C285 1.379 . S
H287 C281 0.959 . S
H288 C281 0.961 . S
H289 C281 0.960 . S
H290 C282 0.930 . S
H291 C283 0.929 . S
H292 C300 0.929 . S
H293 C302 0.930 . S
H294 C304 0.930 . S
H295 C307 0.929 . S
H296 C310 0.930 . S
H297 C312 0.960 . S
H298 C312 0.960 . S
H299 C312 0.960 . S
C300 H292 0.929 . S
C300 C301 1.377 . S
C300 C302 1.384 . S
C301 C300 1.377 . S
C301 C307 1.390 . S
C302 H293 0.930 . S
C302 C300 1.384 . S
C302 C303 1.372 . S
C303 C302 1.372 . S
C303 C304 1.400 . S
C303 C308 1.490 . S
C304 H294 0.930 . S
C304 C303 1.400 . S
C304 C307 1.386 . S
H305 C321 0.930 . S
H306 C322 0.931 . S
C307 H295 0.929 . S
C307 C301 1.390 . S
C307 C304 1.386 . S
C308 C303 1.490 . S
C308 C310 1.395 . S
C308 C311 1.403 . S
H309 C315 0.930 . S
C310 H296 0.930 . S
C310 C308 1.395 . S
C310 C313 1.403 . S
C311 C308 1.403 . S
C311 C312 1.524 . S
C311 C315 1.400 . S
C312 H297 0.960 . S
C312 H298 0.960 . S
C312 H299 0.960 . S
C312 C311 1.524 . S
C313 C310 1.403 . S
C313 C314 1.392 . S
C313 C317 1.495 . S
C314 C313 1.392 . S
C314 C315 1.385 . S
C314 C316 1.478 . S
C315 H309 0.930 . S
C315 C311 1.400 . S
C315 C314 1.385 . S
C316 C314 1.478 . S
C316 C318 1.381 . S
C316 C322 1.383 . S
C317 C313 1.495 . S
C317 H323 0.959 . S
C317 H324 0.961 . S
C317 H325 0.960 . S
C318 C316 1.381 . S
C318 C319 1.394 . S
C318 H326 0.930 . S
C319 C318 1.394 . S
C319 C320 1.383 . S
C319 H327 0.929 . S
C320 C319 1.383 . S
C320 C321 1.377 . S
C321 H305 0.930 . S
C321 C320 1.377 . S
C321 C322 1.379 . S
C322 H306 0.931 . S
C322 C316 1.383 . S
C322 C321 1.379 . S
H323 C317 0.959 . S
H324 C317 0.961 . S
H325 C317 0.960 . S
H326 C318 0.930 . S
H327 C319 0.929 . S
H328 C336 0.929 . S
H329 C338 0.930 . S
H330 C340 0.930 . S
H331 C343 0.929 . S
H332 C346 0.930 . S
H333 C348 0.960 . S
H334 C348 0.960 . S
H335 C348 0.960 . S
C336 H328 0.929 . S
C336 C337 1.377 . S
C336 C338 1.384 . S
C337 C336 1.377 . S
C337 C343 1.390 . S
C338 H329 0.930 . S
C338 C336 1.384 . S
C338 C339 1.372 . S
C339 C338 1.372 . S
C339 C340 1.400 . S
C339 C344 1.490 . S
C340 H330 0.930 . S
C340 C339 1.400 . S
C340 C343 1.386 . S
H341 C357 0.930 . S
H342 C358 0.931 . S
C343 H331 0.929 . S
C343 C337 1.390 . S
C343 C340 1.386 . S
C344 C339 1.490 . S
C344 C346 1.395 . S
C344 C347 1.403 . S
H345 C351 0.930 . S
C346 H332 0.930 . S
C346 C344 1.395 . S
C346 C349 1.403 . S
C347 C344 1.403 . S
C347 C348 1.524 . S
C347 C351 1.400 . S
C348 H333 0.960 . S
C348 H334 0.960 . S
C348 H335 0.960 . S
C348 C347 1.524 . S
C349 C346 1.403 . S
C349 C350 1.392 . S
C349 C353 1.495 . S
C350 C349 1.392 . S
C350 C351 1.385 . S
C350 C352 1.478 . S
C351 H345 0.930 . S
C351 C347 1.400 . S
C351 C350 1.385 . S
C352 C350 1.478 . S
C352 C354 1.381 . S
C352 C358 1.383 . S
C353 C349 1.495 . S
C353 H359 0.959 . S
C353 H360 0.961 . S
C353 H361 0.960 . S
C354 C352 1.381 . S
C354 C355 1.394 . S
C354 H362 0.930 . S
C355 C354 1.394 . S
C355 C356 1.383 . S
C355 H363 0.929 . S
C356 C355 1.383 . S
C356 C357 1.377 . S
C357 H341 0.930 . S
C357 C356 1.377 . S
C357 C358 1.379 . S
C358 H342 0.931 . S
C358 C352 1.383 . S
C358 C357 1.379 . S
H359 C353 0.959 . S
H360 C353 0.961 . S
H361 C353 0.960 . S
H362 C354 0.930 . S
H363 C355 0.929 . S
H364 C372 0.929 . S
H365 C374 0.930 . S
H366 C376 0.930 . S
H367 C379 0.929 . S
H368 C382 0.930 . S
H369 C384 0.960 . S
H370 C384 0.960 . S
H371 C384 0.960 . S
C372 H364 0.929 . S
C372 C373 1.377 . S
C372 C374 1.384 . S
C373 C372 1.377 . S
C373 C379 1.390 . S
C374 H365 0.930 . S
C374 C372 1.384 . S
C374 C375 1.372 . S
C375 C374 1.372 . S
C375 C376 1.400 . S
C375 C380 1.490 . S
C376 H366 0.930 . S
C376 C375 1.400 . S
C376 C379 1.386 . S
H377 C393 0.930 . S
H378 C394 0.931 . S
C379 H367 0.929 . S
C379 C373 1.390 . S
C379 C376 1.386 . S
C380 C375 1.490 . S
C380 C382 1.395 . S
C380 C383 1.403 . S
H381 C387 0.930 . S
C382 H368 0.930 . S
C382 C380 1.395 . S
C382 C385 1.403 . S
C383 C380 1.403 . S
C383 C384 1.524 . S
C383 C387 1.400 . S
C384 H369 0.960 . S
C384 H370 0.960 . S
C384 H371 0.960 . S
C384 C383 1.524 . S
C385 C382 1.403 . S
C385 C386 1.392 . S
C385 C389 1.495 . S
C386 C385 1.392 . S
C386 C387 1.385 . S
C386 C388 1.478 . S
C387 H381 0.930 . S
C387 C383 1.400 . S
C387 C386 1.385 . S
C388 C386 1.478 . S
C388 C390 1.381 . S
C388 C394 1.383 . S
C389 C385 1.495 . S
C389 H395 0.959 . S
C389 H396 0.961 . S
C389 H397 0.960 . S
C390 C388 1.381 . S
C390 C391 1.394 . S
C390 H398 0.930 . S
C391 C390 1.394 . S
C391 C392 1.383 . S
C391 H399 0.929 . S
C392 C391 1.383 . S
C392 C393 1.377 . S
C393 H377 0.930 . S
C393 C392 1.377 . S
C393 C394 1.379 . S
C394 H378 0.931 . S
C394 C388 1.383 . S
C394 C393 1.379 . S
H395 C389 0.959 . S
H396 C389 0.961 . S
H397 C389 0.960 . S
H398 C390 0.930 . S
H399 C391 0.929 . S
H400 C408 0.929 . S
H401 C410 0.930 . S
H402 C412 0.930 . S
H403 C415 0.929 . S
H404 C418 0.930 . S
H405 C420 0.960 . S
H406 C420 0.960 . S
H407 C420 0.960 . S
C408 H400 0.929 . S
C408 C409 1.377 . S
C408 C410 1.384 . S
C409 C408 1.377 . S
C409 C415 1.390 . S
C410 H401 0.930 . S
C410 C408 1.384 . S
C410 C411 1.372 . S
C411 C410 1.372 . S
C411 C412 1.400 . S
C411 C416 1.490 . S
C412 H402 0.930 . S
C412 C411 1.400 . S
C412 C415 1.386 . S
H413 C429 0.930 . S
H414 C430 0.931 . S
C415 H403 0.929 . S
C415 C409 1.390 . S
C415 C412 1.386 . S
C416 C411 1.490 . S
C416 C418 1.395 . S
C416 C419 1.403 . S
H417 C423 0.930 . S
C418 H404 0.930 . S
C418 C416 1.395 . S
C418 C421 1.403 . S
C419 C416 1.403 . S
C419 C420 1.524 . S
C419 C423 1.400 . S
C420 H405 0.960 . S
C420 H406 0.960 . S
C420 H407 0.960 . S
C420 C419 1.524 . S
C421 C418 1.403 . S
C421 C422 1.392 . S
C421 C425 1.495 . S
C422 C421 1.392 . S
C422 C423 1.385 . S
C422 C424 1.478 . S
C423 H417 0.930 . S
C423 C419 1.400 . S
C423 C422 1.385 . S
C424 C422 1.478 . S
C424 C426 1.381 . S
C424 C430 1.383 . S
C425 C421 1.495 . S
C425 H431 0.959 . S
C425 H432 0.961 . S
C425 H433 0.960 . S
C426 C424 1.381 . S
C426 C427 1.394 . S
C426 H434 0.930 . S
C427 C426 1.394 . S
C427 C428 1.383 . S
C427 H435 0.929 . S
C428 C427 1.383 . S
C428 C429 1.377 . S
C429 H413 0.930 . S
C429 C428 1.377 . S
C429 C430 1.379 . S
C430 H414 0.931 . S
C430 C424 1.383 . S
C430 C429 1.379 . S
H431 C425 0.959 . S
H432 C425 0.961 . S
H433 C425 0.960 . S
H434 C426 0.930 . S
H435 C427 0.929 . S
H436 C444 0.929 . S
H437 C446 0.930 . S
H438 C448 0.930 . S
H439 C451 0.929 . S
H440 C454 0.930 . S
H441 C456 0.960 . S
H442 C456 0.960 . S
H443 C456 0.960 . S
C444 H436 0.929 . S
C444 C445 1.377 . S
C444 C446 1.384 . S
C445 C444 1.377 . S
C445 C451 1.390 . S
C446 H437 0.930 . S
C446 C444 1.384 . S
C446 C447 1.372 . S
C447 C446 1.372 . S
C447 C448 1.400 . S
C447 C452 1.490 . S
C448 H438 0.930 . S
C448 C447 1.400 . S
C448 C451 1.386 . S
H449 C465 0.930 . S
H450 C466 0.931 . S
C451 H439 0.929 . S
C451 C445 1.390 . S
C451 C448 1.386 . S
C452 C447 1.490 . S
C452 C454 1.395 . S
C452 C455 1.403 . S
H453 C459 0.930 . S
C454 H440 0.930 . S
C454 C452 1.395 . S
C454 C457 1.403 . S
C455 C452 1.403 . S
C455 C456 1.524 . S
C455 C459 1.400 . S
C456 H441 0.960 . S
C456 H442 0.960 . S
C456 H443 0.960 . S
C456 C455 1.524 . S
C457 C454 1.403 . S
C457 C458 1.392 . S
C457 C461 1.495 . S
C458 C457 1.392 . S
C458 C459 1.385 . S
C458 C460 1.478 . S
C459 H453 0.930 . S
C459 C455 1.400 . S
C459 C458 1.385 . S
C460 C458 1.478 . S
C460 C462 1.381 . S
C460 C466 1.383 . S
C461 C457 1.495 . S
C461 H467 0.959 . S
C461 H468 0.961 . S
C461 H469 0.960 . S
C462 C460 1.381 . S
C462 C463 1.394 . S
C462 H470 0.930 . S
C463 C462 1.394 . S
C463 C464 1.383 . S
C463 H471 0.929 . S
C464 C463 1.383 . S
C464 C465 1.377 . S
C465 H449 0.930 . S
C465 C464 1.377 . S
C465 C466 1.379 . S
C466 H450 0.931 . S
C466 C460 1.383 . S
C466 C465 1.379 . S
H467 C461 0.959 . S
H468 C461 0.961 . S
H469 C461 0.960 . S
H470 C462 0.930 . S
H471 C463 0.929 . S
H472 C480 0.929 . S
H473 C482 0.930 . S
H474 C484 0.930 . S
H475 C487 0.929 . S
H476 C490 0.930 . S
H477 C492 0.960 . S
H478 C492 0.960 . S
H479 C492 0.960 . S
C480 H472 0.929 . S
C480 C481 1.377 . S
C480 C482 1.384 . S
C481 C480 1.377 . S
C481 C487 1.390 . S
C482 H473 0.930 . S
C482 C480 1.384 . S
C482 C483 1.372 . S
C483 C482 1.372 . S
C483 C484 1.400 . S
C483 C488 1.490 . S
C484 H474 0.930 . S
C484 C483 1.400 . S
C484 C487 1.386 . S
H485 C501 0.930 . S
H486 C502 0.931 . S
C487 H475 0.929 . S
C487 C481 1.390 . S
C487 C484 1.386 . S
C488 C483 1.490 . S
C488 C490 1.395 . S
C488 C491 1.403 . S
H489 C495 0.930 . S
C490 H476 0.930 . S
C490 C488 1.395 . S
C490 C493 1.403 . S
C491 C488 1.403 . S
C491 C492 1.524 . S
C491 C495 1.400 . S
C492 H477 0.960 . S
C492 H478 0.960 . S
C492 H479 0.960 . S
C492 C491 1.524 . S
C493 C490 1.403 . S
C493 C494 1.392 . S
C493 C497 1.495 . S
C494 C493 1.392 . S
C494 C495 1.385 . S
C494 C496 1.478 . S
C495 H489 0.930 . S
C495 C491 1.400 . S
C495 C494 1.385 . S
C496 C494 1.478 . S
C496 C498 1.381 . S
C496 C502 1.383 . S
C497 C493 1.495 . S
C497 H503 0.959 . S
C497 H504 0.961 . S
C497 H505 0.960 . S
C498 C496 1.381 . S
C498 C499 1.394 . S
C498 H506 0.930 . S
C499 C498 1.394 . S
C499 C500 1.383 . S
C499 H507 0.929 . S
C500 C499 1.383 . S
C500 C501 1.377 . S
C501 H485 0.930 . S
C501 C500 1.377 . S
C501 C502 1.379 . S
C502 H486 0.931 . S
C502 C496 1.383 . S
C502 C501 1.379 . S
H503 C497 0.959 . S
H504 C497 0.961 . S
H505 C497 0.960 . S
H506 C498 0.930 . S
H507 C499 0.929 . S
H508 C516 0.929 . S
H509 C518 0.930 . S
H510 C520 0.930 . S
H511 C523 0.929 . S
H512 C526 0.930 . S
H513 C528 0.960 . S
H514 C528 0.960 . S
H515 C528 0.960 . S
C516 H508 0.929 . S
C516 C517 1.377 . S
C516 C518 1.384 . S
C517 C516 1.377 . S
C517 C523 1.390 . S
C518 H509 0.930 . S
C518 C516 1.384 . S
C518 C519 1.372 . S
C519 C518 1.372 . S
C519 C520 1.400 . S
C519 C524 1.490 . S
C520 H510 0.930 . S
C520 C519 1.400 . S
C520 C523 1.386 . S
H521 C537 0.930 . S
H522 C538 0.931 . S
C523 H511 0.929 . S
C523 C517 1.390 . S
C523 C520 1.386 . S
C524 C519 1.490 . S
C524 C526 1.395 . S
C524 C527 1.403 . S
H525 C531 0.930 . S
C526 H512 0.930 . S
C526 C524 1.395 . S
C526 C529 1.403 . S
C527 C524 1.403 . S
C527 C528 1.524 . S
C527 C531 1.400 . S
C528 H513 0.960 . S
C528 H514 0.960 . S
C528 H515 0.960 . S
C528 C527 1.524 . S
C529 C526 1.403 . S
C529 C530 1.392 . S
C529 C533 1.495 . S
C530 C529 1.392 . S
C530 C531 1.385 . S
C530 C532 1.478 . S
C531 H525 0.930 . S
C531 C527 1.400 . S
C531 C530 1.385 . S
C532 C530 1.478 . S
C532 C534 1.381 . S
C532 C538 1.383 . S
C533 C529 1.495 . S
C533 H539 0.959 . S
C533 H540 0.961 . S
C533 H541 0.960 . S
C534 C532 1.381 . S
C534 C535 1.394 . S
C534 H542 0.930 . S
C535 C534 1.394 . S
C535 C536 1.383 . S
C535 H543 0.929 . S
C536 C535 1.383 . S
C536 C537 1.377 . S
C537 H521 0.930 . S
C537 C536 1.377 . S
C537 C538 1.379 . S
C538 H522 0.931 . S
C538 C532 1.383 . S
C538 C537 1.379 . S
H539 C533 0.959 . S
H540 C533 0.961 . S
H541 C533 0.960 . S
H542 C534 0.930 . S
H543 C535 0.929 . S
H544 C552 0.929 . S
H545 C554 0.930 . S
H546 C556 0.930 . S
H547 C559 0.929 . S
H548 C562 0.930 . S
H549 C564 0.960 . S
H550 C564 0.960 . S
H551 C564 0.960 . S
C552 H544 0.929 . S
C552 C553 1.377 . S
C552 C554 1.384 . S
C553 C552 1.377 . S
C553 C559 1.390 . S
C554 H545 0.930 . S
C554 C552 1.384 . S
C554 C555 1.372 . S
C555 C554 1.372 . S
C555 C556 1.400 . S
C555 C560 1.490 . S
C556 H546 0.930 . S
C556 C555 1.400 . S
C556 C559 1.386 . S
H557 C573 0.930 . S
H558 C574 0.931 . S
C559 H547 0.929 . S
C559 C553 1.390 . S
C559 C556 1.386 . S
C560 C555 1.490 . S
C560 C562 1.395 . S
C560 C563 1.403 . S
H561 C567 0.930 . S
C562 H548 0.930 . S
C562 C560 1.395 . S
C562 C565 1.403 . S
C563 C560 1.403 . S
C563 C564 1.524 . S
C563 C567 1.400 . S
C564 H549 0.960 . S
C564 H550 0.960 . S
C564 H551 0.960 . S
C564 C563 1.524 . S
C565 C562 1.403 . S
C565 C566 1.392 . S
C565 C569 1.495 . S
C566 C565 1.392 . S
C566 C567 1.385 . S
C566 C568 1.478 . S
C567 H561 0.930 . S
C567 C563 1.400 . S
C567 C566 1.385 . S
C568 C566 1.478 . S
C568 C570 1.381 . S
C568 C574 1.383 . S
C569 C565 1.495 . S
C569 H575 0.959 . S
C569 H576 0.961 . S
C569 H577 0.960 . S
C570 C568 1.381 . S
C570 C571 1.394 . S
C570 H578 0.930 . S
C571 C570 1.394 . S
C571 C572 1.383 . S
C571 H579 0.929 . S
C572 C571 1.383 . S
C572 C573 1.377 . S
C573 H557 0.930 . S
C573 C572 1.377 . S
C573 C574 1.379 . S
C574 H558 0.931 . S
C574 C568 1.383 . S
C574 C573 1.379 . S
H575 C569 0.959 . S
H576 C569 0.961 . S
H577 C569 0.960 . S
H578 C570 0.930 . S
H579 C571 0.929 . S
H580 C588 0.929 . S
H581 C590 0.930 . S
H582 C592 0.930 . S
H583 C595 0.929 . S
H584 C598 0.930 . S
H585 C600 0.960 . S
H586 C600 0.960 . S
H587 C600 0.960 . S
C588 H580 0.929 . S
C588 C589 1.377 . S
C588 C590 1.384 . S
C589 C588 1.377 . S
C589 C595 1.390 . S
C590 H581 0.930 . S
C590 C588 1.384 . S
C590 C591 1.372 . S
C591 C590 1.372 . S
C591 C592 1.400 . S
C591 C596 1.490 . S
C592 H582 0.930 . S
C592 C591 1.400 . S
C592 C595 1.386 . S
H593 C609 0.930 . S
H594 C610 0.931 . S
C595 H583 0.929 . S
C595 C589 1.390 . S
C595 C592 1.386 . S
C596 C591 1.490 . S
C596 C598 1.395 . S
C596 C599 1.403 . S
H597 C603 0.930 . S
C598 H584 0.930 . S
C598 C596 1.395 . S
C598 C601 1.403 . S
C599 C596 1.403 . S
C599 C600 1.524 . S
C599 C603 1.400 . S
C600 H585 0.960 . S
C600 H586 0.960 . S
C600 H587 0.960 . S
C600 C599 1.524 . S
C601 C598 1.403 . S
C601 C602 1.392 . S
C601 C605 1.495 . S
C602 C601 1.392 . S
C602 C603 1.385 . S
C602 C604 1.478 . S
C603 H597 0.930 . S
C603 C599 1.400 . S
C603 C602 1.385 . S
C604 C602 1.478 . S
C604 C606 1.381 . S
C604 C610 1.383 . S
C605 C601 1.495 . S
C605 H611 0.959 . S
C605 H612 0.961 . S
C605 H613 0.960 . S
C606 C604 1.381 . S
C606 C607 1.394 . S
C606 H614 0.930 . S
C607 C606 1.394 . S
C607 C608 1.383 . S
C607 H615 0.929 . S
C608 C607 1.383 . S
C608 C609 1.377 . S
C609 H593 0.930 . S
C609 C608 1.377 . S
C609 C610 1.379 . S
C610 H594 0.931 . S
C610 C604 1.383 . S
C610 C609 1.379 . S
H611 C605 0.959 . S
H612 C605 0.961 . S
H613 C605 0.960 . S
H614 C606 0.930 . S
H615 C607 0.929 . S
H616 C624 0.929 . S
H617 C626 0.930 . S
H618 C628 0.930 . S
H619 C631 0.929 . S
H620 C634 0.930 . S
H621 C636 0.960 . S
H622 C636 0.960 . S
H623 C636 0.960 . S
C624 H616 0.929 . S
C624 C625 1.377 . S
C624 C626 1.384 . S
C625 C624 1.377 . S
C625 C631 1.390 . S
C626 H617 0.930 . S
C626 C624 1.384 . S
C626 C627 1.372 . S
C627 C626 1.372 . S
C627 C628 1.400 . S
C627 C632 1.490 . S
C628 H618 0.930 . S
C628 C627 1.400 . S
C628 C631 1.386 . S
H629 C645 0.930 . S
H630 C646 0.931 . S
C631 H619 0.929 . S
C631 C625 1.390 . S
C631 C628 1.386 . S
C632 C627 1.490 . S
C632 C634 1.395 . S
C632 C635 1.403 . S
H633 C639 0.930 . S
C634 H620 0.930 . S
C634 C632 1.395 . S
C634 C637 1.403 . S
C635 C632 1.403 . S
C635 C636 1.524 . S
C635 C639 1.400 . S
C636 H621 0.960 . S
C636 H622 0.960 . S
C636 H623 0.960 . S
C636 C635 1.524 . S
C637 C634 1.403 . S
C637 C638 1.392 . S
C637 C641 1.495 . S
C638 C637 1.392 . S
C638 C639 1.385 . S
C638 C640 1.478 . S
C639 H633 0.930 . S
C639 C635 1.400 . S
C639 C638 1.385 . S
C640 C638 1.478 . S
C640 C642 1.381 . S
C640 C646 1.383 . S
C641 C637 1.495 . S
C641 H647 0.959 . S
C641 H648 0.961 . S
C641 H649 0.960 . S
C642 C640 1.381 . S
C642 C643 1.394 . S
C642 H650 0.930 . S
C643 C642 1.394 . S
C643 C644 1.383 . S
C643 H651 0.929 . S
C644 C643 1.383 . S
C644 C645 1.377 . S
C645 H629 0.930 . S
C645 C644 1.377 . S
C645 C646 1.379 . S
C646 H630 0.931 . S
C646 C640 1.383 . S
C646 C645 1.379 . S
H647 C641 0.959 . S
H648 C641 0.961 . S
H649 C641 0.960 . S
H650 C642 0.930 . S
H651 C643 0.929 . S
H652 C660 0.929 . S
H653 C662 0.930 . S
H654 C664 0.930 . S
H655 C667 0.929 . S
H656 C670 0.930 . S
H657 C672 0.960 . S
H658 C672 0.960 . S
H659 C672 0.960 . S
C660 H652 0.929 . S
C660 C661 1.377 . S
C660 C662 1.384 . S
C661 C660 1.377 . S
C661 C667 1.390 . S
C662 H653 0.930 . S
C662 C660 1.384 . S
C662 C663 1.372 . S
C663 C662 1.372 . S
C663 C664 1.400 . S
C663 C668 1.490 . S
C664 H654 0.930 . S
C664 C663 1.400 . S
C664 C667 1.386 . S
H665 C681 0.930 . S
H666 C682 0.931 . S
C667 H655 0.929 . S
C667 C661 1.390 . S
C667 C664 1.386 . S
C668 C663 1.490 . S
C668 C670 1.395 . S
C668 C671 1.403 . S
H669 C675 0.930 . S
C670 H656 0.930 . S
C670 C668 1.395 . S
C670 C673 1.403 . S
C671 C668 1.403 . S
C671 C672 1.524 . S
C671 C675 1.400 . S
C672 H657 0.960 . S
C672 H658 0.960 . S
C672 H659 0.960 . S
C672 C671 1.524 . S
C673 C670 1.403 . S
C673 C674 1.392 . S
C673 C677 1.495 . S
C674 C673 1.392 . S
C674 C675 1.385 . S
C674 C676 1.478 . S
C675 H669 0.930 . S
C675 C671 1.400 . S
C675 C674 1.385 . S
C676 C674 1.478 . S
C676 C678 1.381 . S
C676 C682 1.383 . S
C677 C673 1.495 . S
C677 H683 0.959 . S
C677 H684 0.961 . S
C677 H685 0.960 . S
C678 C676 1.381 . S
C678 C679 1.394 . S
C678 H686 0.930 . S
C679 C678 1.394 . S
C679 C680 1.383 . S
C679 H687 0.929 . S
C680 C679 1.383 . S
C680 C681 1.377 . S
C681 H665 0.930 . S
C681 C680 1.377 . S
C681 C682 1.379 . S
C682 H666 0.931 . S
C682 C676 1.383 . S
C682 C681 1.379 . S
H683 C677 0.959 . S
H684 C677 0.961 . S
H685 C677 0.960 . S
H686 C678 0.930 . S
H687 C679 0.929 . S
H688 C696 0.929 . S
H689 C698 0.930 . S
H690 C700 0.930 . S
H691 C703 0.929 . S
H692 C706 0.930 . S
H693 C708 0.960 . S
H694 C708 0.960 . S
H695 C708 0.960 . S
C696 H688 0.929 . S
C696 C697 1.377 . S
C696 C698 1.384 . S
C697 C696 1.377 . S
C697 C703 1.390 . S
C698 H689 0.930 . S
C698 C696 1.384 . S
C698 C699 1.372 . S
C699 C698 1.372 . S
C699 C700 1.400 . S
C699 C704 1.490 . S
C700 H690 0.930 . S
C700 C699 1.400 . S
C700 C703 1.386 . S
H701 C717 0.930 . S
H702 C718 0.931 . S
C703 H691 0.929 . S
C703 C697 1.390 . S
C703 C700 1.386 . S
C704 C699 1.490 . S
C704 C706 1.395 . S
C704 C707 1.403 . S
H705 C711 0.930 . S
C706 H692 0.930 . S
C706 C704 1.395 . S
C706 C709 1.403 . S
C707 C704 1.403 . S
C707 C708 1.524 . S
C707 C711 1.400 . S
C708 H693 0.960 . S
C708 H694 0.960 . S
C708 H695 0.960 . S
C708 C707 1.524 . S
C709 C706 1.403 . S
C709 C710 1.392 . S
C709 C713 1.495 . S
C710 C709 1.392 . S
C710 C711 1.385 . S
C710 C712 1.478 . S
C711 H705 0.930 . S
C711 C707 1.400 . S
C711 C710 1.385 . S
C712 C710 1.478 . S
C712 C714 1.381 . S
C712 C718 1.383 . S
C713 C709 1.495 . S
C713 H719 0.959 . S
C713 H720 0.961 . S
C713 H721 0.960 . S
C714 C712 1.381 . S
C714 C715 1.394 . S
C714 H722 0.930 . S
C715 C714 1.394 . S
C715 C716 1.383 . S
C715 H723 0.929 . S
C716 C715 1.383 . S
C716 C717 1.377 . S
C717 H701 0.930 . S
C717 C716 1.377 . S
C717 C718 1.379 . S
C718 H702 0.931 . S
C718 C712 1.383 . S
C718 C717 1.379 . S
H719 C713 0.959 . S
H720 C713 0.961 . S
H721 C713 0.960 . S
H722 C714 0.930 . S
H723 C715 0.929 . S
H724 C732 0.929 . S
H725 C734 0.930 . S
H726 C736 0.930 . S
H727 C739 0.929 . S
H728 C742 0.930 . S
H729 C744 0.960 . S
H730 C744 0.960 . S
H731 C744 0.960 . S
C732 H724 0.929 . S
C732 C733 1.377 . S
C732 C734 1.384 . S
C733 C732 1.377 . S
C733 C739 1.390 . S
C734 H725 0.930 . S
C734 C732 1.384 . S
C734 C735 1.372 . S
C735 C734 1.372 . S
C735 C736 1.400 . S
C735 C740 1.490 . S
C736 H726 0.930 . S
C736 C735 1.400 . S
C736 C739 1.386 . S
H737 C753 0.930 . S
H738 C754 0.931 . S
C739 H727 0.929 . S
C739 C733 1.390 . S
C739 C736 1.386 . S
C740 C735 1.490 . S
C740 C742 1.395 . S
C740 C743 1.403 . S
H741 C747 0.930 . S
C742 H728 0.930 . S
C742 C740 1.395 . S
C742 C745 1.403 . S
C743 C740 1.403 . S
C743 C744 1.524 . S
C743 C747 1.400 . S
C744 H729 0.960 . S
C744 H730 0.960 . S
C744 H731 0.960 . S
C744 C743 1.524 . S
C745 C742 1.403 . S
C745 C746 1.392 . S
C745 C749 1.495 . S
C746 C745 1.392 . S
C746 C747 1.385 . S
C746 C748 1.478 . S
C747 H741 0.930 . S
C747 C743 1.400 . S
C747 C746 1.385 . S
C748 C746 1.478 . S
C748 C750 1.381 . S
C748 C754 1.383 . S
C749 C745 1.495 . S
C749 H755 0.959 . S
C749 H756 0.961 . S
C749 H757 0.960 . S
C750 C748 1.381 . S
C750 C751 1.394 . S
C750 H758 0.930 . S
C751 C750 1.394 . S
C751 C752 1.383 . S
C751 H759 0.929 . S
C752 C751 1.383 . S
C752 C753 1.377 . S
C753 H737 0.930 . S
C753 C752 1.377 . S
C753 C754 1.379 . S
C754 H738 0.931 . S
C754 C748 1.383 . S
C754 C753 1.379 . S
H755 C749 0.959 . S
H756 C749 0.961 . S
H757 C749 0.960 . S
H758 C750 0.930 . S
H759 C751 0.929 . S
H760 C768 0.929 . S
H761 C770 0.930 . S
H762 C772 0.930 . S
H763 C775 0.929 . S
H764 C778 0.930 . S
H765 C780 0.960 . S
H766 C780 0.960 1_554 S
H767 C780 0.960 . S
C768 H760 0.929 . S
C768 C769 1.377 . S
C768 C770 1.384 . S
C769 C768 1.377 . S
C769 C775 1.390 1_554 S
C770 H761 0.930 . S
C770 C768 1.384 . S
C770 C771 1.372 . S
C771 C770 1.372 . S
C771 C772 1.400 1_554 S
C771 C776 1.490 . S
C772 H762 0.930 . S
C772 C771 1.400 1_556 S
C772 C775 1.386 . S
H773 C789 0.930 . S
H774 C790 0.931 . S
C775 H763 0.929 . S
C775 C769 1.390 1_556 S
C775 C772 1.386 . S
C776 C771 1.490 . S
C776 C778 1.395 . S
C776 C779 1.403 1_554 S
H777 C783 0.930 . S
C778 H764 0.930 . S
C778 C776 1.395 . S
C778 C781 1.403 . S
C779 C776 1.403 1_556 S
C779 C780 1.524 . S
C779 C783 1.400 . S
C780 H765 0.960 . S
C780 H766 0.960 1_556 S
C780 H767 0.960 . S
C780 C779 1.524 . S
C781 C778 1.403 . S
C781 C782 1.392 . S
C781 C785 1.495 . S
C782 C781 1.392 . S
C782 C783 1.385 1_554 S
C782 C784 1.478 . S
C783 H777 0.930 . S
C783 C779 1.400 . S
C783 C782 1.385 1_556 S
C784 C782 1.478 . S
C784 C786 1.381 . S
C784 C790 1.383 1_554 S
C785 C781 1.495 . S
C785 H791 0.959 . S
C785 H792 0.961 . S
C785 H793 0.960 . S
C786 C784 1.381 . S
C786 C787 1.394 . S
C786 H794 0.930 . S
C787 C786 1.394 . S
C787 C788 1.383 . S
C787 H795 0.929 . S
C788 C787 1.383 . S
C788 C789 1.377 1_554 S
C789 H773 0.930 . S
C789 C788 1.377 1_556 S
C789 C790 1.379 . S
C790 H774 0.931 . S
C790 C784 1.383 1_556 S
C790 C789 1.379 . S
H791 C785 0.959 . S
H792 C785 0.961 . S
H793 C785 0.960 . S
H794 C786 0.930 . S
H795 C787 0.929 . S
H796 C804 0.929 . S
H797 C806 0.930 . S
H798 C808 0.930 . S
H799 C811 0.929 . S
H800 C814 0.930 . S
H801 C816 0.960 . S
H802 C816 0.960 . S
H803 C816 0.960 . S
C804 H796 0.929 . S
C804 C805 1.377 . S
C804 C806 1.384 . S
C805 C804 1.377 . S
C805 C811 1.390 . S
C806 H797 0.930 . S
C806 C804 1.384 . S
C806 C807 1.372 . S
C807 C806 1.372 . S
C807 C808 1.400 . S
C807 C812 1.490 . S
C808 H798 0.930 . S
C808 C807 1.400 . S
C808 C811 1.386 . S
H809 C825 0.930 . S
H810 C826 0.931 . S
C811 H799 0.929 . S
C811 C805 1.390 . S
C811 C808 1.386 . S
C812 C807 1.490 . S
C812 C814 1.395 . S
C812 C815 1.403 . S
H813 C819 0.930 . S
C814 H800 0.930 . S
C814 C812 1.395 . S
C814 C817 1.403 . S
C815 C812 1.403 . S
C815 C816 1.524 . S
C815 C819 1.400 . S
C816 H801 0.960 . S
C816 H802 0.960 . S
C816 H803 0.960 . S
C816 C815 1.524 . S
C817 C814 1.403 . S
C817 C818 1.392 . S
C817 C821 1.495 . S
C818 C817 1.392 . S
C818 C819 1.385 . S
C818 C820 1.478 . S
C819 H813 0.930 . S
C819 C815 1.400 . S
C819 C818 1.385 . S
C820 C818 1.478 . S
C820 C822 1.381 . S
C820 C826 1.383 . S
C821 C817 1.495 . S
C821 H827 0.959 . S
C821 H828 0.961 . S
C821 H829 0.960 . S
C822 C820 1.381 . S
C822 C823 1.394 . S
C822 H830 0.930 . S
C823 C822 1.394 . S
C823 C824 1.383 . S
C823 H831 0.929 . S
C824 C823 1.383 . S
C824 C825 1.377 . S
C825 H809 0.930 . S
C825 C824 1.377 . S
C825 C826 1.379 . S
C826 H810 0.931 . S
C826 C820 1.383 . S
C826 C825 1.379 . S
H827 C821 0.959 . S
H828 C821 0.961 . S
H829 C821 0.960 . S
H830 C822 0.930 . S
H831 C823 0.929 . S
H832 C840 0.929 . S
H833 C842 0.930 . S
H834 C844 0.930 . S
H835 C847 0.929 . S
H836 C850 0.930 . S
H837 C852 0.960 . S
H838 C852 0.960 1_556 S
H839 C852 0.960 . S
C840 H832 0.929 . S
C840 C841 1.377 1_556 S
C840 C842 1.384 . S
C841 C840 1.377 1_554 S
C841 C847 1.390 . S
C842 H833 0.930 . S
C842 C840 1.384 . S
C842 C843 1.372 1_556 S
C843 C842 1.372 1_554 S
C843 C844 1.400 . S
C843 C848 1.490 . S
C844 H834 0.930 . S
C844 C843 1.400 . S
C844 C847 1.386 . S
H845 C861 0.930 . S
H846 C862 0.931 . S
C847 H835 0.929 . S
C847 C841 1.390 . S
C847 C844 1.386 . S
C848 C843 1.490 . S
C848 C850 1.395 . S
C848 C851 1.403 . S
H849 C855 0.930 . S
C850 H836 0.930 . S
C850 C848 1.395 . S
C850 C853 1.403 . S
C851 C848 1.403 . S
C851 C852 1.524 . S
C851 C855 1.400 . S
C852 H837 0.960 . S
C852 H838 0.960 1_554 S
C852 H839 0.960 . S
C852 C851 1.524 . S
C853 C850 1.403 . S
C853 C854 1.392 . S
C853 C857 1.495 . S
C854 C853 1.392 . S
C854 C855 1.385 . S
C854 C856 1.478 . S
C855 H849 0.930 . S
C855 C851 1.400 . S
C855 C854 1.385 . S
C856 C854 1.478 . S
C856 C858 1.381 1_554 S
C856 C862 1.383 . S
C857 C853 1.495 . S
C857 H863 0.959 . S
C857 H864 0.961 . S
C857 H865 0.960 1_554 S
C858 C856 1.381 1_556 S
C858 C859 1.394 . S
C858 H866 0.930 . S
C859 C858 1.394 . S
C859 C860 1.383 1_556 S
C859 H867 0.929 . S
C860 C859 1.383 1_554 S
C860 C861 1.377 . S
C861 H845 0.930 . S
C861 C860 1.377 . S
C861 C862 1.379 . S
C862 H846 0.931 . S
C862 C856 1.383 . S
C862 C861 1.379 . S
H863 C857 0.959 . S
H864 C857 0.961 . S
H865 C857 0.960 1_556 S
H866 C858 0.930 . S
H867 C859 0.929 . S
H868 C876 0.929 . S
H869 C878 0.930 . S
H870 C880 0.930 . S
H871 C883 0.929 . S
H872 C886 0.930 . S
H873 C888 0.960 . S
H874 C888 0.960 . S
H875 C888 0.960 . S
C876 H868 0.929 . S
C876 C877 1.377 . S
C876 C878 1.384 . S
C877 C876 1.377 . S
C877 C883 1.390 . S
C878 H869 0.930 . S
C878 C876 1.384 . S
C878 C879 1.372 . S
C879 C878 1.372 . S
C879 C880 1.400 . S
C879 C884 1.490 . S
C880 H870 0.930 . S
C880 C879 1.400 . S
C880 C883 1.386 . S
H881 C897 0.930 . S
H882 C898 0.931 . S
C883 H871 0.929 . S
C883 C877 1.390 . S
C883 C880 1.386 . S
C884 C879 1.490 . S
C884 C886 1.395 . S
C884 C887 1.403 . S
H885 C891 0.930 . S
C886 H872 0.930 . S
C886 C884 1.395 . S
C886 C889 1.403 . S
C887 C884 1.403 . S
C887 C888 1.524 . S
C887 C891 1.400 . S
C888 H873 0.960 . S
C888 H874 0.960 . S
C888 H875 0.960 . S
C888 C887 1.524 . S
C889 C886 1.403 . S
C889 C890 1.392 . S
C889 C893 1.495 . S
C890 C889 1.392 . S
C890 C891 1.385 . S
C890 C892 1.478 . S
C891 H885 0.930 . S
C891 C887 1.400 . S
C891 C890 1.385 . S
C892 C890 1.478 . S
C892 C894 1.381 . S
C892 C898 1.383 . S
C893 C889 1.495 . S
C893 H899 0.959 . S
C893 H900 0.961 . S
C893 H901 0.960 . S
C894 C892 1.381 . S
C894 C895 1.394 . S
C894 H902 0.930 . S
C895 C894 1.394 . S
C895 C896 1.383 . S
C895 H903 0.929 . S
C896 C895 1.383 . S
C896 C897 1.377 . S
C897 H881 0.930 . S
C897 C896 1.377 . S
C897 C898 1.379 . S
C898 H882 0.931 . S
C898 C892 1.383 . S
C898 C897 1.379 . S
H899 C893 0.959 . S
H900 C893 0.961 . S
H901 C893 0.960 . S
H902 C894 0.930 . S
H903 C895 0.929 . S
H904 C912 0.929 . S
H905 C914 0.930 . S
H906 C916 0.930 . S
H907 C919 0.929 . S
H908 C922 0.930 . S
H909 C924 0.960 . S
H910 C924 0.960 . S
H911 C924 0.960 . S
C912 H904 0.929 . S
C912 C913 1.377 . S
C912 C914 1.384 . S
C913 C912 1.377 . S
C913 C919 1.390 . S
C914 H905 0.930 . S
C914 C912 1.384 . S
C914 C915 1.372 . S
C915 C914 1.372 . S
C915 C916 1.400 . S
C915 C920 1.490 . S
C916 H906 0.930 . S
C916 C915 1.400 . S
C916 C919 1.386 . S
H917 C933 0.930 . S
H918 C934 0.931 . S
C919 H907 0.929 . S
C919 C913 1.390 . S
C919 C916 1.386 . S
C920 C915 1.490 . S
C920 C922 1.395 . S
C920 C923 1.403 . S
H921 C927 0.930 . S
C922 H908 0.930 . S
C922 C920 1.395 . S
C922 C925 1.403 . S
C923 C920 1.403 . S
C923 C924 1.524 . S
C923 C927 1.400 . S
C924 H909 0.960 . S
C924 H910 0.960 . S
C924 H911 0.960 . S
C924 C923 1.524 . S
C925 C922 1.403 . S
C925 C926 1.392 . S
C925 C929 1.495 . S
C926 C925 1.392 . S
C926 C927 1.385 . S
C926 C928 1.478 . S
C927 H921 0.930 . S
C927 C923 1.400 . S
C927 C926 1.385 . S
C928 C926 1.478 . S
C928 C930 1.381 . S
C928 C934 1.383 . S
C929 C925 1.495 . S
C929 H935 0.959 . S
C929 H936 0.961 . S
C929 H937 0.960 . S
C930 C928 1.381 . S
C930 C931 1.394 . S
C930 H938 0.930 . S
C931 C930 1.394 . S
C931 C932 1.383 . S
C931 H939 0.929 . S
C932 C931 1.383 . S
C932 C933 1.377 . S
C933 H917 0.930 . S
C933 C932 1.377 . S
C933 C934 1.379 . S
C934 H918 0.931 . S
C934 C928 1.383 . S
C934 C933 1.379 . S
H935 C929 0.959 . S
H936 C929 0.961 . S
H937 C929 0.960 . S
H938 C930 0.930 . S
H939 C931 0.929 . S
H940 C948 0.929 . S
H941 C950 0.930 . S
H942 C952 0.930 . S
H943 C955 0.929 . S
H944 C958 0.930 . S
H945 C960 0.960 . S
H946 C960 0.960 . S
H947 C960 0.960 . S
C948 H940 0.929 . S
C948 C949 1.377 . S
C948 C950 1.384 . S
C949 C948 1.377 . S
C949 C955 1.390 1_554 S
C950 H941 0.930 . S
C950 C948 1.384 . S
C950 C951 1.372 . S
C951 C950 1.372 . S
C951 C952 1.400 1_554 S
C951 C956 1.490 . S
C952 H942 0.930 . S
C952 C951 1.400 1_556 S
C952 C955 1.386 . S
H953 C969 0.930 . S
H954 C970 0.931 . S
C955 H943 0.929 . S
C955 C949 1.390 1_556 S
C955 C952 1.386 . S
C956 C951 1.490 . S
C956 C958 1.395 . S
C956 C959 1.403 1_554 S
H957 C963 0.930 . S
C958 H944 0.930 . S
C958 C956 1.395 . S
C958 C961 1.403 . S
C959 C956 1.403 1_556 S
C959 C960 1.524 . S
C959 C963 1.400 . S
C960 H945 0.960 . S
C960 H946 0.960 . S
C960 H947 0.960 . S
C960 C959 1.524 . S
C961 C958 1.403 . S
C961 C962 1.392 . S
C961 C965 1.495 . S
C962 C961 1.392 . S
C962 C963 1.385 1_554 S
C962 C964 1.478 . S
C963 H957 0.930 . S
C963 C959 1.400 . S
C963 C962 1.385 1_556 S
C964 C962 1.478 . S
C964 C966 1.381 . S
C964 C970 1.383 1_554 S
C965 C961 1.495 . S
C965 H971 0.959 . S
C965 H972 0.961 . S
C965 H973 0.960 . S
C966 C964 1.381 . S
C966 C967 1.394 . S
C966 H974 0.930 . S
C967 C966 1.394 . S
C967 C968 1.383 . S
C967 H975 0.929 . S
C968 C967 1.383 . S
C968 C969 1.377 1_554 S
C969 H953 0.930 . S
C969 C968 1.377 1_556 S
C969 C970 1.379 . S
C970 H954 0.931 . S
C970 C964 1.383 1_556 S
C970 C969 1.379 . S
H971 C965 0.959 . S
H972 C965 0.961 . S
H973 C965 0.960 . S
H974 C966 0.930 . S
H975 C967 0.929 . S
H976 C984 0.929 . S
H977 C986 0.930 . S
H978 C988 0.930 . S
H979 C991 0.929 . S
H980 C994 0.930 . S
H981 C996 0.960 . S
H982 C996 0.960 . S
H983 C996 0.960 . S
C984 H976 0.929 . S
C984 C985 1.377 . S
C984 C986 1.384 . S
C985 C984 1.377 . S
C985 C991 1.390 . S
C986 H977 0.930 . S
C986 C984 1.384 . S
C986 C987 1.372 . S
C987 C986 1.372 . S
C987 C988 1.400 . S
C987 C992 1.490 . S
C988 H978 0.930 . S
C988 C987 1.400 . S
C988 C991 1.386 . S
H989 C1005 0.930 . S
H990 C1006 0.931 . S
C991 H979 0.929 . S
C991 C985 1.390 . S
C991 C988 1.386 . S
C992 C987 1.490 . S
C992 C994 1.395 . S
C992 C995 1.403 . S
H993 C999 0.930 . S
C994 H980 0.930 . S
C994 C992 1.395 . S
C994 C997 1.403 . S
C995 C992 1.403 . S
C995 C996 1.524 . S
C995 C999 1.400 . S
C996 H981 0.960 . S
C996 H982 0.960 . S
C996 H983 0.960 . S
C996 C995 1.524 . S
C997 C994 1.403 . S
C997 C998 1.392 . S
C997 C1001 1.495 . S
C998 C997 1.392 . S
C998 C999 1.385 . S
C998 C1000 1.478 . S
C999 H993 0.930 . S
C999 C995 1.400 . S
C999 C998 1.385 . S
C1000 C998 1.478 . S
C1000 C1002 1.381 . S
C1000 C1006 1.383 . S
C1001 C997 1.495 . S
C1001 H1007 0.959 . S
C1001 H1008 0.961 . S
C1001 H1009 0.960 . S
C1002 C1000 1.381 . S
C1002 C1003 1.394 . S
C1002 H1010 0.930 . S
C1003 C1002 1.394 . S
C1003 C1004 1.383 . S
C1003 H1011 0.929 . S
C1004 C1003 1.383 . S
C1004 C1005 1.377 . S
C1005 H989 0.930 . S
C1005 C1004 1.377 . S
C1005 C1006 1.379 . S
C1006 H990 0.931 . S
C1006 C1000 1.383 . S
C1006 C1005 1.379 . S
H1007 C1001 0.959 . S
H1008 C1001 0.961 . S
H1009 C1001 0.960 . S
H1010 C1002 0.930 . S
H1011 C1003 0.929 . S
H1012 C1020 0.929 . S
H1013 C1022 0.930 . S
H1014 C1024 0.930 . S
H1015 C1027 0.929 . S
H1016 C1030 0.930 . S
H1017 C1032 0.960 . S
H1018 C1032 0.960 . S
H1019 C1032 0.960 1_554 S
C1020 H1012 0.929 . S
C1020 C1021 1.377 1_556 S
C1020 C1022 1.384 . S
C1021 C1020 1.377 1_554 S
C1021 C1027 1.390 . S
C1022 H1013 0.930 . S
C1022 C1020 1.384 . S
C1022 C1023 1.372 1_556 S
C1023 C1022 1.372 1_554 S
C1023 C1024 1.400 . S
C1023 C1028 1.490 . S
C1024 H1014 0.930 . S
C1024 C1023 1.400 . S
C1024 C1027 1.386 . S
H1025 C1041 0.930 . S
H1026 C1042 0.931 . S
C1027 H1015 0.929 . S
C1027 C1021 1.390 . S
C1027 C1024 1.386 . S
C1028 C1023 1.490 . S
C1028 C1030 1.395 . S
C1028 C1031 1.403 1_554 S
H1029 C1035 0.933 . S
C1030 H1016 0.930 . S
C1030 C1028 1.395 . S
C1030 C1033 1.403 . S
C1031 C1028 1.403 1_556 S
C1031 C1032 1.524 . S
C1031 C1035 1.401 . S
C1032 H1017 0.960 . S
C1032 H1018 0.960 . S
C1032 H1019 0.960 1_556 S
C1032 C1031 1.524 . S
C1033 C1030 1.403 . S
C1033 C1034 1.392 . S
C1033 C1037 1.495 . S
C1034 C1033 1.392 . S
C1034 C1035 1.382 1_554 S
C1034 C1036 1.478 . S
C1035 H1029 0.933 . S
C1035 C1031 1.401 . S
C1035 C1034 1.382 1_556 S
C1036 C1034 1.478 . S
C1036 C1038 1.381 1_554 S
C1036 C1042 1.383 . S
C1037 C1033 1.495 . S
C1037 H1043 0.959 . S
C1037 H1044 0.961 . S
C1037 H1045 0.960 . S
C1038 C1036 1.381 1_556 S
C1038 C1039 1.394 . S
C1038 H1046 0.930 . S
C1039 C1038 1.394 . S
C1039 C1040 1.383 1_556 S
C1039 H1047 0.929 . S
C1040 C1039 1.383 1_554 S
C1040 C1041 1.377 . S
C1041 H1025 0.930 . S
C1041 C1040 1.377 . S
C1041 C1042 1.379 . S
C1042 H1026 0.931 . S
C1042 C1036 1.383 . S
C1042 C1041 1.379 . S
H1043 C1037 0.959 . S
H1044 C1037 0.961 . S
H1045 C1037 0.960 . S
H1046 C1038 0.930 . S
H1047 C1039 0.929 . S
C193 C5 1.440 . S
C212 C130 1.445 . S
C229 C31 1.454 . S
C248 C94 1.474 . S
C284 C109 1.473 . S
C265 C53 1.472 . S
C301 C71 1.459 . S
C320 C121 1.461 . S
C356 C157 1.431 . S
C337 C75 1.465 . S
C392 C169 1.454 . S
C373 C9 1.472 . S
C428 C178 1.457 . S
C409 C27 1.458 . S
C464 C142 1.462 . S
C445 C49 1.444 . S
C481 C51 1.446 . S
C500 C106 1.446 . S
C517 C72 1.455 . S
C536 C118 1.470 . S
C553 C6 1.479 . S
C572 C133 1.452 . S
C608 C97 1.467 . S
C589 C29 1.463 . S
C625 C28 1.466 . S
C644 C181 1.442 . S
C680 C145 1.450 . S
C661 C50 1.476 . S
C716 C154 1.470 . S
C697 C73 1.453 . S
C733 C7 1.445 . S
C752 C166 1.453 . S
C788 C92 1.493 . S
C769 C4 1.504 . S
C824 C104 1.513 . S
C805 C30 1.501 . S
C841 C52 1.501 . S
C860 C116 1.512 . S
C877 C70 1.504 . S
C896 C128 1.493 . S
C932 C140 1.492 . S
C913 C74 1.504 . S
C949 C8 1.499 . S
C968 C152 1.503 . S
C985 C26 1.504 . S
C1004 C164 1.518 . S
C1021 C48 1.502 . S
C1040 C176 1.499 . S
