# Generated by pormake.
# Topology zzz, (3,6)-cn, num edge types: 1
# Building blocks:
#     Node 0, Type 0, BuildingBlock: BELTOD_clean_linker_0, # of connection points: 3
#     Node 1, Type 0, BuildingBlock: BELTOD_clean_linker_0, # of connection points: 3
#     Node 2, Type 0, BuildingBlock: BELTOD_clean_linker_0, # of connection points: 3
#     Node 3, Type 0, BuildingBlock: BELTOD_clean_linker_0, # of connection points: 3
#     Node 4, Type 0, BuildingBlock: BELTOD_clean_linker_0, # of connection points: 3
#     Node 5, Type 0, BuildingBlock: BELTOD_clean_linker_0, # of connection points: 3
#     Node 6, Type 0, BuildingBlock: BELTOD_clean_linker_0, # of connection points: 3
#     Node 7, Type 0, BuildingBlock: BELTOD_clean_linker_0, # of connection points: 3
#     Node 8, Type 1, BuildingBlock: KUMBUR_clean_sbu_1, # of connection points: 6
#     Node 9, Type 1, BuildingBlock: KUMBUR_clean_sbu_1, # of connection points: 6
#     Node 10, Type 1, BuildingBlock: KUMBUR_clean_sbu_1, # of connection points: 6
#     Node 11, Type 1, BuildingBlock: KUMBUR_clean_sbu_1, # of connection points: 6
#     Edge 12, Type (0, 1), BuildingBlock: OJICUG_clean_linker_0, # of connection points: 2
#     Edge 13, Type (0, 1), BuildingBlock: OJICUG_clean_linker_0, # of connection points: 2
#     Edge 14, Type (0, 1), BuildingBlock: OJICUG_clean_linker_0, # of connection points: 2
#     Edge 15, Type (0, 1), BuildingBlock: OJICUG_clean_linker_0, # of connection points: 2
#     Edge 16, Type (0, 1), BuildingBlock: OJICUG_clean_linker_0, # of connection points: 2
#     Edge 17, Type (0, 1), BuildingBlock: OJICUG_clean_linker_0, # of connection points: 2
#     Edge 18, Type (0, 1), BuildingBlock: OJICUG_clean_linker_0, # of connection points: 2
#     Edge 19, Type (0, 1), BuildingBlock: OJICUG_clean_linker_0, # of connection points: 2
#     Edge 20, Type (0, 1), BuildingBlock: OJICUG_clean_linker_0, # of connection points: 2
#     Edge 21, Type (0, 1), BuildingBlock: OJICUG_clean_linker_0, # of connection points: 2
#     Edge 22, Type (0, 1), BuildingBlock: OJICUG_clean_linker_0, # of connection points: 2
#     Edge 23, Type (0, 1), BuildingBlock: OJICUG_clean_linker_0, # of connection points: 2
#     Edge 24, Type (0, 1), BuildingBlock: OJICUG_clean_linker_0, # of connection points: 2
#     Edge 25, Type (0, 1), BuildingBlock: OJICUG_clean_linker_0, # of connection points: 2
#     Edge 26, Type (0, 1), BuildingBlock: OJICUG_clean_linker_0, # of connection points: 2
#     Edge 27, Type (0, 1), BuildingBlock: OJICUG_clean_linker_0, # of connection points: 2
#     Edge 28, Type (0, 1), BuildingBlock: OJICUG_clean_linker_0, # of connection points: 2
#     Edge 29, Type (0, 1), BuildingBlock: OJICUG_clean_linker_0, # of connection points: 2
#     Edge 30, Type (0, 1), BuildingBlock: OJICUG_clean_linker_0, # of connection points: 2
#     Edge 31, Type (0, 1), BuildingBlock: OJICUG_clean_linker_0, # of connection points: 2
#     Edge 32, Type (0, 1), BuildingBlock: OJICUG_clean_linker_0, # of connection points: 2
#     Edge 33, Type (0, 1), BuildingBlock: OJICUG_clean_linker_0, # of connection points: 2
#     Edge 34, Type (0, 1), BuildingBlock: OJICUG_clean_linker_0, # of connection points: 2
#     Edge 35, Type (0, 1), BuildingBlock: OJICUG_clean_linker_0, # of connection points: 2
# Relax obj value: 0.350
# Max RMSD: 0.188
# Mean RMSD: 0.174
data_MOF--net-zzz--node1-KUMBUR_clean_sbu_1--node2-BELTOD_clean_linker_0--edge1-OJICUG_clean_linker_0
_symmetry_space_group_name_H-M    P1
_symmetry_Int_Tables_number       1
_symmetry_cell_setting            triclinic
loop_
_symmetry_equiv_pos_as_xyz
'x, y, z'
_cell_length_a     40.448745
_cell_length_b     40.451151
_cell_length_c     15.07621
_cell_angle_alpha  90.026274
_cell_angle_beta   89.951062
_cell_angle_gamma 90.514323
loop_
_atom_site_label
_atom_site_type_symbol
_atom_site_fract_x
_atom_site_fract_y
_atom_site_fract_z
_atom_type_partial_charge
P0 P 0.73611 0.49317 0.27836 0.0
H1 H 0.7565 0.48328 0.46385 0.0
H2 H 0.808 0.49283 0.54126 0.0
H3 H 0.84211 0.55463 0.32575 0.0
H4 H 0.79044 0.5439 0.24663 0.0
H5 H 0.67301 0.46233 0.24058 0.0
H6 H 0.63028 0.4727 0.13483 0.0
H7 H 0.67212 0.56947 0.08298 0.0
H8 H 0.71724 0.55746 0.18747 0.0
H9 H 0.75042 0.42539 0.21894 0.0
H10 H 0.76391 0.52506 0.12247 0.0
O11 O 0.7229 0.46091 0.33828 0.0
H12 H 0.77196 0.40393 0.07889 0.0
H13 H 0.78665 0.50406 0.98541 0.0
C14 C 0.76881 0.5124 0.34752 0.0
C15 C 0.77451 0.49955 0.43311 0.0
C16 C 0.80454 0.50512 0.47826 0.0
C17 C 0.83031 0.52415 0.44031 0.0
C18 C 0.82369 0.53899 0.35714 0.0
C19 C 0.79354 0.5332 0.31164 0.0
C20 C 0.69845 0.50937 0.22579 0.0
C21 C 0.6728 0.48642 0.20943 0.0
C22 C 0.64789 0.49243 0.14709 0.0
C23 C 0.64674 0.52219 0.09862 0.0
C24 C 0.67182 0.54599 0.11729 0.0
C25 C 0.69748 0.53952 0.17912 0.0
C26 C 0.75624 0.4769 0.182 0.0
C27 C 0.75852 0.44269 0.16851 0.0
C28 C 0.77066 0.43043 0.08827 0.0
C29 C 0.78058 0.45227 0.02058 0.0
C30 C 0.77847 0.48649 0.03515 0.0
C31 C 0.76621 0.49861 0.11472 0.0
P32 P 0.03223 0.73211 0.30164 0.0
H33 H 0.04427 0.75243 0.48671 0.0
H34 H 0.03703 0.80458 0.56363 0.0
H35 H 0.97513 0.83897 0.35045 0.0
H36 H 0.98248 0.78649 0.27331 0.0
H37 H 0.05311 0.66303 0.29714 0.0
H38 H 0.04364 0.62009 0.18816 0.0
H39 H 0.96101 0.67409 0.08359 0.0
H40 H 0.97001 0.71731 0.1962 0.0
H41 H 0.09979 0.74524 0.23546 0.0
H42 H 0.99962 0.76204 0.14872 0.0
O43 O 0.06498 0.71883 0.35847 0.0
H44 H 0.12038 0.76885 0.09627 0.0
H45 H 0.01983 0.78596 0.01252 0.0
C46 C 0.01461 0.76494 0.37196 0.0
C47 C 0.02838 0.77064 0.45663 0.0
C48 C 0.02427 0.80094 0.50125 0.0
C49 C 1.00615 0.82688 0.463 0.0
C50 C 0.99017 0.82023 0.38143 0.0
C51 C 0.99418 0.78974 0.337 0.0
C52 C 0.01294 0.69452 0.25493 0.0
C53 C 0.03209 0.6656 0.25344 0.0
C54 C 0.02698 0.6409 0.18939 0.0
C55 C 1.00237 0.64397 0.1241 0.0
C56 C 0.98059 0.67095 0.13168 0.0
C57 C 0.98577 0.69587 0.19649 0.0
C58 C 0.04804 0.75206 0.20345 0.0
C59 C 0.08218 0.75416 0.1873 0.0
C60 C 0.09395 0.76755 0.10762 0.0
C61 C 0.07169 0.77877 0.04294 0.0
C62 C 0.03763 0.77677 0.05993 0.0
C63 C 0.026 0.76351 0.13907 0.0
P64 P 0.77797 0.00931 0.21824 0.0
H65 H 0.724 0.05581 0.23694 0.0
H66 H 0.67838 0.05928 0.34004 0.0
H67 H 0.72734 0.99162 0.51611 0.0
H68 H 0.77409 0.98824 0.411 0.0
H69 H 0.8364 0.0526 0.23818 0.0
H70 H 0.889 0.0516 0.15837 0.0
H71 H 0.86862 0.9511 0.07704 0.0
H72 H 0.81734 0.95183 0.15995 0.0
H73 H 0.74701 0.99264 0.04842 0.0
H74 H 0.75944 0.9461 0.30317 0.0
O75 O 0.77168 0.03896 0.14318 0.0
H76 H 0.69792 0.9598 0.02229 0.0
H77 H 0.70893 0.91376 0.27916 0.0
C78 C 0.75335 0.02198 0.31515 0.0
C79 C 0.72607 0.04253 0.29892 0.0
C80 C 0.6993 0.04412 0.35785 0.0
C81 C 0.69852 0.02522 0.43602 0.0
C82 C 0.7269 1.00653 0.45651 0.0
C83 C 0.75392 1.00479 0.39653 0.0
C84 C 0.82237 1.00237 0.20618 0.0
C85 C 0.84403 0.02973 0.20729 0.0
C86 C 0.87395 0.02935 0.15917 0.0
C87 C 0.88303 1.00163 0.10766 0.0
C88 C 0.86295 0.97307 0.11485 0.0
C89 C 0.83321 0.97345 0.16338 0.0
C90 C 0.75534 0.97349 0.1804 0.0
C91 C 0.7399 0.97441 0.09756 0.0
C92 C 0.7118 0.95512 0.08233 0.0
C93 C 0.69856 0.93532 0.1508 0.0
C94 C 0.71801 0.92957 0.22635 0.0
C95 C 0.74663 0.94844 0.24061 0.0
P96 P 0.48525 0.802 0.30595 0.0
H97 H 0.49208 0.7858 0.49507 0.0
H98 H 0.50156 0.73389 0.57149 0.0
H99 H 0.52926 0.68856 0.32331 0.0
H100 H 0.52037 0.74135 0.24707 0.0
H101 H 0.50395 0.87203 0.32658 0.0
H102 H 0.51616 0.91474 0.21708 0.0
H103 H 0.52681 0.84011 0.01521 0.0
H104 H 0.51536 0.79702 0.12616 0.0
H105 H 0.4493 0.73815 0.31113 0.0
H106 H 0.44672 0.82756 0.15527 0.0
O107 O 0.46574 0.82461 0.38209 0.0
H108 H 0.4166 0.70978 0.20048 0.0
H109 H 0.41242 0.7995 0.04499 0.0
C110 C 0.50548 0.76797 0.36459 0.0
C111 C 0.50124 0.76516 0.4569 0.0
C112 C 0.50614 0.73496 0.50078 0.0
C113 C 0.51529 0.7063 0.4539 0.0
C114 C 0.52218 0.70982 0.36237 0.0
C115 C 0.51744 0.74027 0.31841 0.0
C116 C 0.50838 0.83096 0.23533 0.0
C117 C 0.50999 0.8645 0.25964 0.0
C118 C 0.51644 0.88916 0.19626 0.0
C119 C 0.52136 0.8812 0.1063 0.0
C120 C 0.52296 0.84739 0.08353 0.0
C121 C 0.5167 0.82257 0.14743 0.0
C122 C 0.45305 0.78415 0.23769 0.0
C123 C 0.44169 0.75184 0.25319 0.0
C124 C 0.42213 0.73574 0.19031 0.0
C125 C 0.41272 0.75204 0.11196 0.0
C126 C 0.4203 0.78586 0.10292 0.0
C127 C 0.44011 0.80187 0.16582 0.0
P128 P 0.29637 0.45983 0.07885 0.0
H129 H 0.27187 0.44194 0.90047 0.0
H130 H 0.22191 0.4562 0.82034 0.0
H131 H 0.20276 0.53378 1.00993 0.0
H132 H 0.254 0.52009 0.08768 0.0
H133 H 0.3663 0.43967 0.08261 0.0
H134 H 0.41063 0.45289 0.1855 0.0
H135 H 0.35357 0.53444 0.28694 0.0
H136 H 0.31002 0.52185 0.17996 0.0
H137 H 0.2251 0.4462 0.10841 0.0
H138 H 0.31275 0.45046 0.27047 0.0
O139 O 0.30697 0.42355 0.03492 0.0
H140 H 0.19387 0.47274 0.22611 0.0
H141 H 0.28181 0.47798 0.38731 0.0
C142 C 0.26748 0.4799 1.00082 0.0
C143 C 0.25774 0.46285 0.92353 0.0
C144 C 0.22831 0.47066 0.87832 0.0
C145 C 0.20694 0.49565 0.90904 0.0
C146 C 0.21801 0.51437 0.98292 0.0
C147 C 0.24785 0.50677 0.02754 0.0
C148 C 0.33434 0.47972 0.1219 0.0
C149 C 0.36374 0.46133 0.1241 0.0
C150 C 0.38909 0.46854 0.18547 0.0
C151 C 0.38595 0.49422 0.24836 0.0
C152 C 0.35765 0.51446 0.24063 0.0
C153 C 0.3325 0.50753 0.1779 0.0
C154 C 0.27203 0.45086 0.17672 0.0
C155 C 0.2375 0.45169 0.17037 0.0
C156 C 0.21954 0.46671 0.23789 0.0
C157 C 0.23623 0.47939 0.31232 0.0
C158 C 0.2688 0.46962 0.32854 0.0
C159 C 0.28656 0.4543 0.2609 0.0
P160 P 0.07621 0.28453 0.13465 0.0
H161 H 0.10067 0.26259 0.96051 0.0
H162 H 0.08673 0.21608 0.86517 0.0
H163 H 1.0009 0.19513 0.02679 0.0
H164 H 0.01457 0.24295 0.12071 0.0
H165 H 0.10331 0.35226 0.12032 0.0
H166 H 0.09194 0.40114 0.20803 0.0
H167 H 1.0015 0.35537 0.30195 0.0
H168 H 0.01278 0.30698 0.21116 0.0
H169 H 0.07051 0.21451 0.19298 0.0
H170 H 0.0849 0.31001 0.31604 0.0
O171 O 0.11605 0.29021 0.10941 0.0
H172 H 0.0562 0.19102 0.33712 0.0
H173 H 0.06935 0.28671 0.45932 0.0
C174 C 0.05902 0.25654 0.04937 0.0
C175 C 0.07835 0.24863 0.97481 0.0
C176 C 0.07055 0.22135 0.9205 0.0
C177 C 0.04314 0.2006 0.93879 0.0
C178 C 0.0223 0.21008 1.00974 0.0
C179 C 0.03002 0.23774 0.0638 0.0
C180 C 0.05894 0.32545 0.158 0.0
C181 C 0.08023 0.35316 0.15656 0.0
C182 C 0.07398 0.38118 0.20919 0.0
C183 C 0.04614 0.38262 0.26553 0.0
C184 C 0.02321 0.35601 0.26008 0.0
C185 C 0.02939 0.32807 0.2066 0.0
C186 C 0.07595 0.26464 0.2421 0.0
C187 C 0.07064 0.2305 0.25044 0.0
C188 C 0.06301 0.21695 0.33324 0.0
C189 C 0.06092 0.23738 0.40848 0.0
C190 C 0.07026 0.27067 0.4018 0.0
C191 C 0.07864 0.28399 0.31943 0.0
P192 P 0.23817 0.09724 0.0892 0.0
H193 H 0.25742 0.10473 0.90169 0.0
H194 H 0.30732 0.08866 0.82393 0.0
H195 H 0.33069 0.0214 0.03682 0.0
H196 H 0.281 0.03882 0.11606 0.0
H197 H 0.18151 0.13108 0.16142 0.0
H198 H 0.13829 0.11591 0.26532 0.0
H199 H 0.17063 0.01442 0.25656 0.0
H200 H 0.21523 0.03052 0.15381 0.0
H201 H 0.30096 0.13168 0.07622 0.0
H202 H 0.24017 0.09173 0.28635 0.0
O203 O 0.2267 0.13088 0.03347 0.0
H204 H 0.34926 0.12588 0.16763 0.0
H205 H 0.28799 0.08896 0.38225 0.0
C206 C 0.26466 0.07287 0.01519 0.0
C207 C 0.27244 0.08554 0.93061 0.0
C208 C 0.30154 0.07637 0.88583 0.0
C209 C 0.32409 0.05405 0.92385 0.0
C210 C 0.31479 0.0393 1.00543 0.0
C211 C 0.28564 0.0486 0.05031 0.0
C212 C 0.20133 0.08187 0.14706 0.0
C213 C 0.17889 0.1053 0.17961 0.0
C214 C 0.15391 0.0965 0.23989 0.0
C215 C 0.15041 0.06379 0.27064 0.0
C216 C 0.17248 0.03999 0.23596 0.0
C217 C 0.1978 0.04899 0.17562 0.0
C218 C 0.26728 0.1105 0.17234 0.0
C219 C 0.29773 0.1233 0.14394 0.0
C220 C 0.32558 0.12009 0.19736 0.0
C221 C 0.32305 0.10496 0.28139 0.0
C222 C 0.29125 0.0987 0.31594 0.0
C223 C 0.2636 0.10066 0.26102 0.0
P224 P 0.46601 0.25184 0.1446 0.0
H225 H 0.43112 0.277 0.98791 0.0
H226 H 0.44199 0.32344 0.88963 0.0
H227 H 0.54069 0.33249 0.99592 0.0
H228 H 0.52936 0.28569 0.09583 0.0
H229 H 0.4437 0.18221 0.13997 0.0
H230 H 0.45709 0.13717 0.23998 0.0
H231 H 0.54405 0.19031 0.32699 0.0
H232 H 0.53078 0.23542 0.22487 0.0
H233 H 0.47498 0.32385 0.17862 0.0
H234 H 0.46133 0.23507 0.33356 0.0
O235 O 0.42579 0.2437 0.13129 0.0
H236 H 0.49527 0.35264 0.3093 0.0
H237 H 0.4837 0.26302 0.46302 0.0
C238 C 0.47939 0.27731 0.04999 0.0
C239 C 0.45557 0.28806 0.98862 0.0
C240 C 0.46182 0.31501 0.93193 0.0
C241 C 0.4921 0.33244 0.93497 0.0
C242 C 0.51682 0.32024 0.99233 0.0
C243 C 0.51061 0.29293 0.04864 0.0
C244 C 0.48589 0.21283 0.17478 0.0
C245 C 0.46655 0.18375 0.17714 0.0
C246 C 0.47411 0.15782 0.23571 0.0
C247 C 0.50112 0.16025 0.29442 0.0
C248 C 0.52258 0.18773 0.28462 0.0
C249 C 0.51538 0.21338 0.22443 0.0
C250 C 0.46938 0.27643 0.24435 0.0
C251 C 0.47658 0.31033 0.24027 0.0
C252 C 0.48826 0.32683 0.31536 0.0
C253 C 0.49297 0.30962 0.39549 0.0
C254 C 0.48117 0.27695 0.40216 0.0
C255 C 0.46871 0.26076 0.32746 0.0
Tb256 Tb 0.97844 0.03292 0.61017 0.0
C257 C 0.09266 0.04209 0.8886 0.0
N258 N 0.09214 0.03574 0.80042 0.0
C259 C 0.14004 0.07036 0.77976 0.0
C260 C 0.11567 0.06449 0.92555 0.0
C261 C 0.11637 0.04817 0.74626 0.0
C262 C 0.13928 0.07909 0.86956 0.0
C263 C 0.07246 0.02824 0.03496 0.0
C264 C 0.07169 0.02404 0.94215 0.0
C265 C 0.09349 0.0524 0.07204 0.0
C266 C 0.11518 0.07043 0.01734 0.0
Tb267 Tb 0.05325 0.99881 0.75131 0.0
N268 N 0.05282 1.00019 0.90363 0.0
C269 C 0.05327 1.00702 0.08763 0.0
C270 C 0.03646 0.97756 0.95528 0.0
C271 C 0.03567 0.98115 0.04763 0.0
H272 H 0.11688 0.04146 0.67689 0.0
H273 H 0.02189 0.96369 0.08794 0.0
H274 H 0.91609 0.01205 0.74985 0.0
H275 H 0.99695 1.00261 0.26597 0.0
H276 H 0.02403 0.9566 0.92538 0.0
H277 H 0.05307 0.00945 0.15922 0.0
H278 H 0.00732 0.03281 0.40602 0.0
H279 H 0.15872 0.0808 0.73635 0.0
H280 H 0.09407 0.05639 0.14304 0.0
H281 H 0.13211 0.08813 0.04675 0.0
H282 H 0.87338 0.96903 0.759 0.0
H283 H 0.15758 0.09628 0.89542 0.0
H284 H 0.95417 0.9585 0.26059 0.0
N285 N 0.93553 0.99554 0.62595 0.0
C286 C 0.92901 0.97657 0.55327 0.0
C287 C 0.88935 0.97035 0.70142 0.0
C288 C 0.90342 0.95264 0.55352 0.0
C289 C 0.9146 0.99416 0.69722 0.0
C290 C 0.88412 0.94906 0.62992 0.0
N291 N 0.9714 1.00555 0.47917 0.0
C292 C 0.98882 0.01346 0.40437 0.0
C293 C 0.94032 0.96431 0.39855 0.0
C294 C 0.94702 0.9823 0.47668 0.0
C295 C 0.95867 0.97165 0.32211 0.0
C296 C 0.98288 0.9965 0.32494 0.0
H297 H 0.86423 0.93096 0.63288 0.0
H298 H 0.87779 0.91525 0.47591 0.0
H299 H 0.91015 0.92549 0.34014 0.0
O300 O 0.97491 0.07299 0.5232 0.0
O301 O 1.00361 0.9862 0.57393 0.0
O302 O 0.01436 0.96415 0.70868 0.0
O303 O 0.93263 0.05715 0.59802 0.0
O304 O 0.02731 0.05067 0.56393 0.0
O305 O 0.06254 0.00943 0.61017 0.0
O306 O 0.08262 0.96123 0.80693 0.0
O307 O 0.04968 0.05361 0.74143 0.0
O308 O 0.99445 0.06496 0.72136 0.0
O309 O 0.08777 0.97522 0.67045 0.0
O310 O 1.00252 0.98736 0.79975 0.0
O311 O 0.97139 0.03145 0.75503 0.0
C312 C 0.00742 0.96 0.62444 0.0
C313 C 0.94363 0.11465 0.59097 0.0
C314 C 0.97086 0.16781 0.61834 0.0
C315 C 0.94599 0.17604 0.67914 0.0
C316 C 0.91893 0.12304 0.65247 0.0
C317 C 0.92008 0.15369 0.69582 0.0
C318 C 0.9689 0.13759 0.57319 0.0
C319 C 0.05528 0.03422 0.55715 0.0
C320 C 0.94583 0.08109 0.55236 0.0
C321 C 0.89721 0.93387 0.4767 0.0
C322 C 0.91555 0.93977 0.39928 0.0
C323 C 0.02419 0.07355 0.74951 0.0
C324 C 0.09567 0.91895 0.70281 0.0
C325 C 0.09692 0.86049 0.74191 0.0
C326 C 0.09513 0.85212 0.65159 0.0
C327 C 0.09425 0.91013 0.61247 0.0
C328 C 0.09729 0.89397 0.76677 0.0
C329 C 0.09392 0.8769 0.58731 0.0
C330 C 0.97877 0.0088 0.81439 0.0
C331 C 0.09592 0.95398 0.73078 0.0
H332 H 0.94669 0.19951 0.7137 0.0
H333 H 0.89916 0.10578 0.66818 0.0
H334 H 0.90104 0.15997 0.74325 0.0
H335 H 0.98753 0.13181 0.52395 0.0
H336 H 0.09466 0.82649 0.63078 0.0
H337 H 0.09318 0.92883 0.56116 0.0
H338 H 0.09792 0.90064 0.83641 0.0
H339 H 0.09248 0.87033 0.5178 0.0
Tb340 Tb 0.53405 0.05936 0.8018 0.0
C341 C 0.50788 0.91909 0.71136 0.0
N342 N 0.5258 0.94225 0.66657 0.0
C343 C 0.57041 0.9041 0.64978 0.0
C344 C 0.52121 0.88784 0.73063 0.0
C345 C 0.55625 0.9349 0.63303 0.0
C346 C 0.55295 0.88056 0.69944 0.0
C347 C 0.45724 0.90406 0.7877 0.0
C348 C 0.47631 0.92718 0.73919 0.0
C349 C 0.47082 0.8733 0.80996 0.0
C350 C 0.50265 0.86513 0.78103 0.0
Tb351 Tb 0.49973 0.99077 0.63787 0.0
N352 N 0.46392 0.95713 0.71584 0.0
C353 C 0.42476 0.91216 0.81006 0.0
C354 C 0.43117 0.96349 0.72978 0.0
C355 C 0.41147 0.94173 0.77939 0.0
H356 H 0.56967 0.95283 0.59366 0.0
H357 H 0.38579 0.94741 0.79194 0.0
H358 H 0.4788 0.07365 0.96047 0.0
H359 H 0.61659 0.14477 0.63602 0.0
H360 H 0.41952 0.98457 0.70014 0.0
H361 H 0.40931 0.89514 0.84745 0.0
H362 H 0.59786 0.09023 0.69109 0.0
H363 H 0.59475 0.89852 0.62427 0.0
H364 H 0.45663 0.85538 0.84792 0.0
H365 H 0.51263 0.84115 0.79768 0.0
H366 H 0.44586 0.12061 0.01444 0.0
H367 H 0.56408 0.85682 0.71284 0.0
H368 H 0.58377 0.19469 0.66868 0.0
N369 N 0.50315 0.1015 0.85964 0.0
C370 C 0.5099 0.13225 0.82831 0.0
C371 C 0.46333 0.12416 0.96077 0.0
C372 C 0.49265 0.16013 0.85936 0.0
C373 C 0.48153 0.09742 0.92868 0.0
C374 C 0.46847 0.15559 0.92479 0.0
N375 N 0.55387 0.10878 0.7496 0.0
C376 C 0.58314 0.11176 0.70465 0.0
C377 C 0.54653 0.16782 0.74347 0.0
C378 C 0.53648 0.13608 0.77185 0.0
C379 C 0.57525 0.17077 0.69209 0.0
C380 C 0.59386 0.14265 0.67361 0.0
H381 H 0.45479 0.17638 0.95083 0.0
H382 H 0.4882 0.21341 0.85005 0.0
H383 H 0.5353 0.22012 0.74776 0.0
O384 O 0.57459 0.03695 0.86407 0.0
O385 O 0.52871 0.07545 0.66209 0.0
O386 O 0.48869 0.04189 0.59717 0.0
O387 O 0.55294 0.08091 0.91843 0.0
O388 O 0.57231 0.0342 0.7201 0.0
O389 O 0.54708 0.01208 0.59443 0.0
O390 O 0.46578 0.96593 0.55536 0.0
O391 O 0.53132 0.98073 0.75492 0.0
O392 O 0.51011 0.0152 0.85626 0.0
O393 O 0.51379 0.97973 0.50704 0.0
O394 O 0.46137 0.02538 0.68728 0.0
O395 O 0.4824 0.04234 0.82233 0.0
C396 C 0.50772 0.06864 0.59735 0.0
C397 C 0.56676 0.03827 0.01906 0.0
C398 C 0.57862 0.99072 0.11381 0.0
C399 C 0.55537 1.00218 0.17568 0.0
C400 C 0.54378 0.0494 0.08222 0.0
C401 C 0.53828 0.03147 0.16001 0.0
C402 C 0.58409 0.00909 0.03573 0.0
C403 C 0.57344 0.02278 0.63765 0.0
C404 C 0.57185 0.05576 0.93385 0.0
C405 C 0.50133 0.19171 0.82763 0.0
C406 C 0.52821 0.19554 0.76961 0.0
C407 C 0.52109 0.98588 0.83633 0.0
C408 C 0.47024 0.98282 0.40646 0.0
C409 C 0.43389 0.0226 0.3368 0.0
C410 C 0.44753 0.01479 0.25384 0.0
C411 C 0.48349 0.97502 0.32325 0.0
C412 C 0.44504 1.00635 0.41294 0.0
C413 C 0.47193 0.99079 0.24721 0.0
C414 C 0.45721 0.03744 0.76812 0.0
C415 C 0.48478 0.96826 0.48619 0.0
H416 H 0.5509 0.98888 0.23687 0.0
H417 H 0.53 0.07189 0.07176 0.0
H418 H 0.52087 0.04048 0.20867 0.0
H419 H 0.60267 1.00129 0.98847 0.0
H420 H 0.43897 0.02693 0.19416 0.0
H421 H 0.50322 0.95725 0.31764 0.0
H422 H 0.43484 0.01282 0.47712 0.0
H423 H 0.48232 0.98493 0.18315 0.0
Tb424 Tb 0.5483 0.50219 0.63307 0.0
C425 C 0.41651 0.46897 0.75333 0.0
N426 N 0.42407 0.49691 0.70739 0.0
C427 C 0.37977 0.48478 0.60577 0.0
C428 C 0.39222 0.44643 0.72323 0.0
C429 C 0.40367 0.50655 0.63986 0.0
C430 C 0.37475 0.45405 0.646 0.0
C431 C 0.42112 0.43839 0.89083 0.0
C432 C 0.43019 0.46524 0.83627 0.0
C433 C 0.39919 0.4142 0.85805 0.0
C434 C 0.38467 0.41826 0.7743 0.0
Tb435 Tb 0.4672 0.52818 0.76444 0.0
N436 N 0.45083 0.48935 0.86569 0.0
C437 C 0.43352 0.43737 0.97748 0.0
C438 C 0.46115 0.48979 0.95199 0.0
C439 C 0.45311 0.46354 1.00872 0.0
H440 H 0.406 0.53088 0.61093 0.0
H441 H 0.46212 0.46344 0.0763 0.0
H442 H 0.60716 0.55654 0.67685 0.0
H443 H 0.52719 0.43 0.33548 0.0
H444 H 0.47646 0.50991 0.97603 0.0
H445 H 0.42725 0.4171 0.02155 0.0
H446 H 0.52569 0.44083 0.49663 0.0
H447 H 0.36489 0.49195 0.54943 0.0
H448 H 0.39227 0.39306 0.89829 0.0
H449 H 0.36652 0.40032 0.75154 0.0
H450 H 0.64425 0.59406 0.59277 0.0
H451 H 0.35586 0.43745 0.62046 0.0
H452 H 0.55538 0.46962 0.2347 0.0
N453 N 0.58617 0.53469 0.56161 0.0
C454 C 0.58732 0.53221 0.47237 0.0
C455 C 0.62816 0.57694 0.55791 0.0
C456 C 0.60794 0.553 0.4213 0.0
C457 C 0.60712 0.55572 0.6054 0.0
C458 C 0.62819 0.57596 0.46521 0.0
N459 N 0.55211 0.48649 0.48715 0.0
C460 C 0.53825 0.45819 0.45345 0.0
C461 C 0.57087 0.50217 0.34123 0.0
C462 C 0.56932 0.50722 0.43342 0.0
C463 C 0.55479 0.47446 0.30537 0.0
C464 C 0.53896 0.452 0.36207 0.0
H465 H 0.64447 0.59239 0.42844 0.0
H466 H 0.62319 0.5657 0.28759 0.0
H467 H 0.58968 0.52199 0.21783 0.0
O468 O 0.5913 0.47365 0.62086 0.0
O469 O 0.53779 0.55517 0.61267 0.0
O470 O 0.48629 0.5678 0.67521 0.0
O471 O 0.56839 0.48049 0.7479 0.0
O472 O 0.49971 0.48887 0.57394 0.0
O473 O 0.46513 0.53041 0.61789 0.0
O474 O 0.46734 0.57295 0.83593 0.0
O475 O 0.49871 0.48609 0.79961 0.0
O476 O 0.51141 0.46378 0.66735 0.0
O477 O 0.42259 0.54495 0.81851 0.0
O478 O 0.51288 0.5269 0.84409 0.0
O479 O 0.55185 0.53978 0.7399 0.0
C480 C 0.51301 0.57565 0.6277 0.0
C481 C 0.5889 0.42804 0.7184 0.0
C482 C 0.56898 0.37378 0.67097 0.0
C483 C 0.57887 0.36042 0.75262 0.0
C484 C 0.599 0.41447 0.79941 0.0
C485 C 0.59402 0.38073 0.81626 0.0
C486 C 0.57397 0.40757 0.6551 0.0
C487 C 0.47499 0.50901 0.55771 0.0
C488 C 0.5901 0.46395 0.70332 0.0
C489 C 0.6081 0.54957 0.32868 0.0
C490 C 0.58924 0.52442 0.28881 0.0
C491 C 0.50177 0.45979 0.74975 0.0
C492 C 0.41845 0.60239 0.81098 0.0
C493 C 0.39646 0.65719 0.83858 0.0
C494 C 0.38902 0.66038 0.74807 0.0
C495 C 0.41057 0.60564 0.72067 0.0
C496 C 0.41101 0.628 0.86968 0.0
C497 C 0.3958 0.6345 0.68957 0.0
C498 C 0.54337 0.53577 0.82356 0.0
C499 C 0.43534 0.57289 0.84387 0.0
H500 H 0.57504 0.33444 0.767 0.0
H501 H 0.60994 0.43005 0.85017 0.0
H502 H 0.60151 0.37039 0.87924 0.0
H503 H 0.56504 0.41829 0.59411 0.0
H504 H 0.37825 0.68291 0.72278 0.0
H505 H 0.41636 0.58615 0.67411 0.0
H506 H 0.41771 0.6257 0.93906 0.0
H507 H 0.39011 0.63702 0.61977 0.0
Tb508 Tb 0.03662 0.55806 0.60756 0.0
C509 C 0.04636 0.4478 0.88064 0.0
N510 N 0.03859 0.44696 0.79328 0.0
C511 C 0.07397 0.40024 0.77265 0.0
C512 C 0.07006 0.42634 0.91663 0.0
C513 C 0.05065 0.4225 0.73986 0.0
C514 C 0.08428 0.40264 0.861 0.0
C515 C 0.03468 0.46943 0.02668 0.0
C516 C 0.02875 0.46877 0.93454 0.0
C517 C 0.0601 0.45005 0.06232 0.0
C518 C 0.07772 0.42843 1.00732 0.0
Tb519 Tb 0.99996 0.48379 0.74544 0.0
N520 N 1.0038 0.4862 0.89759 0.0
C521 C 0.01394 0.48833 0.08047 0.0
C522 C 0.98167 0.50214 0.95097 0.0
C523 C 0.98691 0.50425 0.04259 0.0
H524 H 0.04293 0.42092 0.67132 0.0
H525 H 0.96984 0.51777 0.08403 0.0
H526 H 0.01893 0.62233 0.74304 0.0
H527 H 0.01271 0.54008 0.25958 0.0
H528 H 0.95985 0.51336 0.92322 0.0
H529 H 0.01765 0.48952 0.15158 0.0
H530 H 0.03874 0.52827 0.40414 0.0
H531 H 0.08416 0.38146 0.72968 0.0
H532 H 0.06541 0.4507 0.13272 0.0
H533 H 0.09646 0.41275 0.03591 0.0
H534 H 0.98205 0.66983 0.74135 0.0
H535 H 0.10244 0.38551 0.88619 0.0
H536 H 0.9735 0.58637 0.2456 0.0
N537 N 1.00396 0.60425 0.61581 0.0
C538 C 0.98763 0.612 0.53969 0.0
C539 C 0.98288 0.6534 0.68472 0.0
C540 C 0.96743 0.64018 0.53426 0.0
C541 C 1.00316 0.62558 0.6863 0.0
C542 C 0.96456 0.66049 0.60885 0.0
N543 N 0.01303 0.56627 0.47231 0.0
C544 C 0.02108 0.54802 0.39928 0.0
C545 C 0.97771 0.60066 0.38366 0.0
C546 C 0.99276 0.5927 0.46511 0.0
C547 C 0.98456 0.58107 0.30941 0.0
C548 C 0.00662 0.55485 0.31709 0.0
H549 H 0.94932 0.68238 0.6074 0.0
H550 H 0.93608 0.66938 0.44852 0.0
H551 H 0.94509 0.63472 0.31665 0.0
O552 O 0.082 0.55471 0.54428 0.0
O553 O 0.98836 0.53639 0.56554 0.0
O554 O 0.9649 0.52112 0.69704 0.0
O555 O 0.06309 0.60307 0.58304 0.0
O556 O 0.05018 0.50804 0.55908 0.0
O557 O 1.00564 0.47608 0.6022 0.0
O558 O 0.96109 0.45634 0.80466 0.0
O559 O 0.05493 0.48855 0.73134 0.0
O560 O 0.06448 0.54418 0.72736 0.0
O561 O 0.97968 0.44373 0.67603 0.0
O562 O 0.98631 0.53415 0.79136 0.0
O563 O 0.03127 0.5659 0.75179 0.0
C564 C 0.96182 0.52971 0.61327 0.0
C565 C 0.11795 0.60093 0.51382 0.0
C566 C 0.17373 0.59178 0.46023 0.0
C567 C 0.1773 0.62573 0.44297 0.0
C568 C 0.12169 0.63496 0.49823 0.0
C569 C 0.15144 0.64729 0.46325 0.0
C570 C 0.14426 0.57981 0.49652 0.0
C571 C 0.03079 0.48183 0.54907 0.0
C572 C 0.08716 0.58647 0.54814 0.0
C573 C 0.9517 0.64785 0.45381 0.0
C574 C 0.95687 0.62815 0.37865 0.0
C575 C 0.07433 0.51425 0.74776 0.0
C576 C 0.92256 0.43647 0.69784 0.0
C577 C 0.86349 0.42985 0.72492 0.0
C578 C 0.85738 0.4332 0.63367 0.0
C579 C 0.91608 0.43962 0.60643 0.0
C580 C 0.89619 0.43131 0.75613 0.0
C581 C 0.88366 0.4379 0.57478 0.0
C582 C 0.0068 0.55904 0.80682 0.0
C583 C 0.95647 0.43858 0.73369 0.0
H584 H 0.19971 0.63535 0.41282 0.0
H585 H 0.10165 0.6518 0.51194 0.0
H586 H 0.1542 0.67347 0.45012 0.0
H587 H 0.1413 0.55343 0.50745 0.0
H588 H 0.83237 0.43248 0.60811 0.0
H589 H 0.9359 0.44372 0.55938 0.0
H590 H 0.90115 0.42968 0.82667 0.0
H591 H 0.87886 0.44069 0.50457 0.0
C592 C 0.09486 0.07246 0.34852 0.0
C593 C 0.12512 0.05535 0.34165 0.0
H594 H 0.04964 0.07989 0.42083 0.0
C595 C 0.13165 0.03116 0.40639 0.0
H596 H 0.08831 0.09092 0.29983 0.0
C597 C 0.10908 0.02451 0.47526 0.0
C598 C 0.0791 0.04188 0.48281 0.0
H599 H 0.15467 0.01774 0.40552 0.0
H600 H 0.1155 1.00576 0.52331 0.0
C601 C 0.07238 0.06599 0.41809 0.0
C602 C 0.51229 0.14764 0.45671 0.0
C603 C 0.50475 0.13621 0.37062 0.0
H604 H 0.51835 0.1359 0.59433 0.0
C605 C 0.49873 0.10203 0.35999 0.0
H606 H 0.51668 0.17373 0.46851 0.0
C607 C 0.49939 0.08028 0.43316 0.0
C608 C 0.5063 0.09189 0.5194 0.0
H609 H 0.49373 0.092 0.29473 0.0
H610 H 0.4952 0.0542 0.42184 0.0
C611 C 0.51312 0.12587 0.52953 0.0
C612 C 0.42887 0.47141 0.35787 0.0
C613 C 0.41081 0.49851 0.324 0.0
H614 H 0.46297 0.45324 0.45584 0.0
C615 C 0.41595 0.52936 0.36608 0.0
H616 H 0.4256 0.44695 0.33007 0.0
C617 C 0.43727 0.53272 0.43971 0.0
C618 C 0.45467 0.50553 0.47408 0.0
H619 H 0.40348 0.55119 0.34252 0.0
H620 H 0.43989 0.5568 0.47052 0.0
C621 C 0.4505 0.47491 0.43095 0.0
C622 C 0.06994 0.42737 0.36922 0.0
C623 C 0.04223 0.41034 0.33321 0.0
H624 H 0.0883 0.46327 0.46346 0.0
C625 C 0.01084 0.41913 0.36619 0.0
H626 H 0.09473 0.42146 0.34796 0.0
C627 C 0.00743 0.4426 0.43443 0.0
C628 C 0.03511 0.45883 0.47156 0.0
H629 H 0.9886 0.40783 0.3398 0.0
H630 H 0.98283 0.44809 0.45823 0.0
C631 C 0.06639 0.45142 0.43649 0.0
C632 C 0.92897 0.97565 0.01359 0.0
C633 C 0.91063 1.00368 0.03954 0.0
H634 H 0.96432 0.95484 0.92276 0.0
C635 C 0.91698 0.03347 0.99377 0.0
H636 H 0.92532 0.95223 0.04704 0.0
C637 C 0.93982 0.03501 0.92364 0.0
C638 C 0.95726 1.00685 0.89581 0.0
H639 H 0.90328 0.05559 1.00933 0.0
H640 H 0.9432 0.05836 0.88949 0.0
C641 C 0.95183 0.97719 0.94271 0.0
C642 C 0.50056 0.93517 0.04314 0.0
C643 C 0.52217 0.9081 0.03687 0.0
H644 H 0.48335 0.98053 0.98629 0.0
C645 C 0.54374 0.90705 0.96351 0.0
H646 H 0.48284 0.93643 0.09676 0.0
C647 C 0.54399 0.93252 0.8996 0.0
C648 C 0.5221 0.95932 0.90575 0.0
H649 H 0.56094 0.88687 0.9563 0.0
H650 H 0.56151 0.93131 0.84545 0.0
C651 C 0.50066 0.96041 0.97912 0.0
C652 C 0.589 0.51081 0.03478 0.0
C653 C 0.6199 0.52739 0.02876 0.0
H654 H 0.54138 0.50097 0.97831 0.0
C655 C 0.62488 0.54776 0.9535 0.0
H656 H 0.5833 0.49454 0.08951 0.0
C657 C 0.60024 0.55098 0.88739 0.0
C658 C 0.56955 0.53437 0.89469 0.0
H659 H 0.64817 0.56064 0.94402 0.0
H660 H 0.60525 0.56662 0.83071 0.0
C661 C 0.56437 0.51455 0.97007 0.0
C662 C 0.97304 0.60777 1.00732 0.0
C663 C 1.00231 0.62114 0.04443 0.0
H664 H 0.9512 0.57724 0.90472 0.0
C665 C 0.03247 0.61309 1.00315 0.0
H666 H 0.94933 0.61328 0.03697 0.0
C667 C 0.03348 0.59286 0.92756 0.0
C668 C 1.00444 0.57938 0.89034 0.0
H669 H 0.05556 0.62311 0.0282 0.0
H670 H 0.05732 0.58777 0.89797 0.0
C671 C 0.97412 0.58689 0.93178 0.0
C672 C 0.05236 0.19524 0.52695 0.0
C673 C 0.0433 0.22518 0.48765 0.0
H674 H 0.03649 0.15409 0.60562 0.0
C675 C 0.01324 0.23991 0.51167 0.0
H676 H 0.07554 0.18364 0.50976 0.0
C677 C 0.99058 0.22275 0.56473 0.0
C678 C 0.99799 0.19086 0.59466 0.0
H679 H 1.00576 0.26302 0.48175 0.0
H680 H 0.9661 0.23286 0.57398 0.0
C681 C 0.03002 0.17843 0.58148 0.0
C682 C 0.38469 0.09985 0.29995 0.0
C683 C 0.35254 0.08861 0.32061 0.0
H684 H 0.43548 0.08663 0.28473 0.0
C685 C 0.3489 0.05754 0.36242 0.0
H686 H 0.38892 0.12399 0.27093 0.0
C687 C 0.37605 0.03705 0.37422 0.0
C688 C 0.40714 0.04685 0.34279 0.0
H689 H 0.32483 0.04747 0.37909 0.0
H690 H 0.37222 0.01246 0.40108 0.0
C691 C 0.41156 0.07874 0.3087 0.0
C692 C 0.50643 0.31787 0.55769 0.0
C693 C 0.51306 0.32458 0.46775 0.0
H694 H 0.52011 0.32689 0.6929 0.0
C695 C 0.5405 0.34459 0.44619 0.0
H696 H 0.48571 0.30231 0.57684 0.0
C697 C 0.55963 0.35902 0.51248 0.0
C698 C 0.55203 0.35371 0.60225 0.0
H699 H 0.54737 0.34916 0.37782 0.0
H700 H 0.58015 0.37489 0.49333 0.0
C701 C 0.52604 0.332 0.62431 0.0
C702 C 0.21662 0.53687 0.30032 0.0
C703 C 0.22381 0.50958 0.35446 0.0
H704 H 0.19614 0.58529 0.29295 0.0
C705 C 0.22042 0.51224 0.44657 0.0
H706 H 0.22017 0.53568 0.22914 0.0
C707 C 0.20705 0.54091 0.4832 0.0
C708 C 0.1975 0.56725 0.428 0.0
H709 H 0.22665 0.49172 0.48939 0.0
H710 H 0.20223 0.54177 0.55388 0.0
C711 C 0.20369 0.56554 0.33683 0.0
C712 C 0.06642 0.78894 0.87996 0.0
C713 C 0.08335 0.79459 0.96008 0.0
H714 H 0.05736 0.80561 0.74774 0.0
C715 C 0.10869 0.81848 0.96266 0.0
H716 H 0.04722 0.77016 0.87564 0.0
C717 C 0.11491 0.83836 0.88888 0.0
C718 C 0.09577 0.8348 0.81159 0.0
H719 H 0.12218 0.82337 0.02336 0.0
H720 H 0.13351 0.85772 0.89393 0.0
C721 C 0.07249 0.80896 0.80639 0.0
C722 C 0.64605 0.94577 0.22962 0.0
C723 C 0.66207 0.93189 0.15565 0.0
H724 H 0.60633 0.9758 0.27403 0.0
C725 C 0.64389 0.92716 0.07733 0.0
H726 H 0.65905 0.94943 0.29171 0.0
C727 C 0.6136 0.9429 0.06677 0.0
C728 C 0.60094 0.96287 0.13506 0.0
H729 H 0.65524 0.91574 0.02001 0.0
H730 H 0.60237 0.94281 1.00174 0.0
C731 C 0.61566 0.9613 0.21925 0.0
C732 C 0.38053 0.70404 0.04937 0.0
C733 C 0.4002 0.73243 0.03552 0.0
H734 H 0.3639 0.65757 0.99669 0.0
C735 C 0.41289 0.73854 0.95 0.0
H736 H 0.36967 0.69899 0.1137 0.0
C737 C 0.40893 0.71515 0.88273 0.0
C738 C 0.39251 0.68519 0.90011 0.0
H739 H 0.4284 0.75993 0.93678 0.0
H740 H 0.42119 0.71923 0.81969 0.0
C741 C 0.37703 0.68043 0.98246 0.0
C742 C 0.81901 0.41479 0.93986 0.0
C743 C 0.79549 0.44007 0.93731 0.0
H744 H 0.85848 0.39077 0.87198 0.0
C745 C 0.78985 0.4567 0.85689 0.0
H746 H 0.82384 0.40138 1.00056 0.0
C747 C 0.8102 0.45114 0.78386 0.0
C748 C 0.83621 0.42855 0.78998 0.0
H749 H 0.77117 0.47565 0.85227 0.0
H750 H 0.80729 0.46653 0.72562 0.0
C751 C 0.83906 0.40893 0.86646 0.0
C752 C 1.00583 0.1554 0.87081 0.0
C753 C 0.03772 0.16859 0.88725 0.0
H754 H 0.97648 0.11587 0.81504 0.0
C755 C 0.06484 0.15033 0.85503 0.0
H756 H 0.98411 0.16856 0.89265 0.0
C757 C 0.06035 0.12025 0.80933 0.0
C758 C 0.02867 0.10669 0.7948 0.0
H759 H 0.08991 0.15887 0.8664 0.0
H760 H 0.0819 0.10767 0.78495 0.0
C761 C 1.0014 0.12508 0.82533 0.0
C762 C 0.36311 0.05014 0.7894 0.0
C763 C 0.35786 0.04821 0.88217 0.0
H764 H 0.39786 0.04846 0.68078 0.0
C765 C 0.38581 0.04209 0.93549 0.0
H766 H 0.34255 0.05428 0.74504 0.0
C767 C 0.41746 0.03835 0.89817 0.0
C768 C 0.4228 0.04099 0.80597 0.0
H769 H 0.38355 0.04082 1.00694 0.0
H770 H 0.43783 0.03307 0.94225 0.0
C771 C 0.39498 0.04659 0.75204 0.0
C772 C 0.51309 0.3917 0.92219 0.0
C773 C 0.49671 0.36434 0.88365 0.0
H774 H 0.5272 0.44286 0.91091 0.0
C775 C 0.48312 0.36864 0.7981 0.0
H776 H 0.52333 0.38993 0.98831 0.0
C777 C 0.48616 0.39898 0.75252 0.0
C778 C 0.50173 0.42636 0.79252 0.0
H779 H 0.47012 0.34844 0.76595 0.0
H780 H 0.47521 0.40138 0.68733 0.0
C781 C 0.51517 0.42224 0.87786 0.0
C782 C 0.15532 0.47429 0.82719 0.0
C783 C 0.17298 0.50084 0.86671 0.0
H784 H 0.11202 0.45777 0.75719 0.0
C785 C 0.15742 0.53202 0.86581 0.0
H786 H 0.16551 0.44966 0.82679 0.0
C787 C 0.1258 0.53634 0.82741 0.0
C788 C 0.10828 0.50967 0.78852 0.0
H789 H 0.16978 0.55341 0.89393 0.0
H790 H 0.11499 0.56073 0.82864 0.0
C791 C 0.1239 0.47872 0.78845 0.0
C792 C 1.00571 0.86529 0.59844 0.0
C793 C 1.00551 0.86097 0.50536 0.0
H794 H 0.00636 0.89921 0.70865 0.0
C795 C 1.0062 0.88981 0.45273 0.0
H796 H 1.00517 0.84402 0.64197 0.0
C797 C 0.00708 0.92153 0.4913 0.0
C798 C 0.00684 0.92585 0.58405 0.0
H799 H 0.00697 0.88798 0.38112 0.0
H800 H 0.00852 0.94275 0.4479 0.0
C801 C 0.00632 0.89713 0.63703 0.0
C802 C 0.66683 0.02647 0.58362 0.0
C803 C 0.66704 0.02349 0.49035 0.0
H804 H 0.63759 0.02925 0.7032 0.0
C805 C 0.63629 0.01961 0.44746 0.0
H806 H 0.6899 0.02957 0.61919 0.0
C807 C 0.60647 0.01903 0.49533 0.0
C808 C 0.60599 0.02275 0.58833 0.0
H809 H 0.63524 0.01688 0.37605 0.0
H810 H 0.5836 0.0161 0.45869 0.0
C811 C 0.63674 0.02645 0.6318 0.0
C812 C 0.53855 0.64829 0.47683 0.0
C813 C 0.51554 0.67291 0.49954 0.0
H814 H 0.55601 0.59899 0.49861 0.0
C815 C 0.49203 0.66505 0.56576 0.0
H816 H 0.55722 0.65312 0.42691 0.0
C817 C 0.49149 0.63393 0.60746 0.0
C818 C 0.51438 0.60931 0.58469 0.0
H819 H 0.4734 0.68278 0.58462 0.0
H820 H 0.47298 0.62923 0.65778 0.0
C821 C 0.53802 0.61711 0.51881 0.0
C822 C 0.86747 0.52515 0.57871 0.0
C823 C 0.86402 0.52708 0.48539 0.0
H824 H 0.90009 0.52431 0.69146 0.0
C825 C 0.89347 0.53041 0.43552 0.0
H826 H 0.84589 0.52297 0.62079 0.0
C827 C 0.92478 0.53155 0.47678 0.0
C828 C 0.92812 0.52937 0.56972 0.0
H829 H 0.89259 0.53126 0.36383 0.0
H830 H 0.94651 0.53344 0.43517 0.0
C831 C 0.89884 0.52614 0.61988 0.0
loop_
_geom_bond_atom_site_label_1
_geom_bond_atom_site_label_2
_geom_bond_distance
_geom_bond_site_symmetry_2
_ccdc_geom_bond_type
P0 O11 1.490 . S
P0 C14 1.812 . S
P0 C20 1.803 . S
P0 C26 1.819 . S
H1 C15 0.941 . S
H2 C16 0.939 . S
H3 C18 0.940 . S
H4 C19 0.940 . S
H5 C21 0.939 . S
H6 C22 0.942 . S
H7 C24 0.940 . S
H8 C25 0.939 . S
H9 C27 0.941 . S
H10 C31 0.939 . S
O11 P0 1.490 . S
H12 C28 0.939 . S
H13 C30 0.940 . S
C14 P0 1.812 . S
C14 C15 1.389 . S
C14 C19 1.391 . S
C15 H1 0.941 . S
C15 C14 1.389 . S
C15 C16 1.397 . S
C16 H2 0.939 . S
C16 C15 1.397 . S
C16 C17 1.378 . S
C17 C16 1.378 . S
C17 C18 1.378 . S
C18 H3 0.940 . S
C18 C17 1.378 . S
C18 C19 1.396 . S
C19 H4 0.940 . S
C19 C14 1.391 . S
C19 C18 1.396 . S
C20 P0 1.803 . S
C20 C21 1.378 . S
C20 C25 1.400 . S
C21 H5 0.939 . S
C21 C20 1.378 . S
C21 C22 1.361 . S
C22 H6 0.942 . S
C22 C21 1.361 . S
C22 C23 1.369 . S
C23 C22 1.369 . S
C23 C24 1.404 . S
C24 H7 0.940 . S
C24 C23 1.404 . S
C24 C25 1.389 . S
C25 H8 0.939 . S
C25 C20 1.400 . S
C25 C24 1.389 . S
C26 P0 1.819 . S
C26 C27 1.391 . S
C26 C31 1.391 . S
C27 H9 0.941 . S
C27 C26 1.391 . S
C27 C28 1.396 . S
C28 H12 0.939 . S
C28 C27 1.396 . S
C28 C29 1.397 . S
C29 C28 1.397 . S
C29 C30 1.385 . S
C30 H13 0.940 . S
C30 C29 1.385 . S
C30 C31 1.388 . S
C31 H10 0.939 . S
C31 C26 1.391 . S
C31 C30 1.388 . S
P32 O43 1.490 . S
P32 C46 1.812 . S
P32 C52 1.803 . S
P32 C58 1.819 . S
H33 C47 0.941 . S
H34 C48 0.939 . S
H35 C50 0.940 . S
H36 C51 0.940 . S
H37 C53 0.939 . S
H38 C54 0.942 . S
H39 C56 0.940 . S
H40 C57 0.939 . S
H41 C59 0.941 . S
H42 C63 0.939 . S
O43 P32 1.490 . S
H44 C60 0.939 . S
H45 C62 0.940 . S
C46 P32 1.812 . S
C46 C47 1.389 . S
C46 C51 1.391 1_455 S
C47 H33 0.941 . S
C47 C46 1.389 . S
C47 C48 1.397 . S
C48 H34 0.939 . S
C48 C47 1.397 . S
C48 C49 1.378 1_455 S
C49 C48 1.378 1_655 S
C49 C50 1.378 . S
C50 H35 0.940 . S
C50 C49 1.378 . S
C50 C51 1.396 . S
C51 H36 0.940 . S
C51 C46 1.391 1_655 S
C51 C50 1.396 . S
C52 P32 1.803 . S
C52 C53 1.378 . S
C52 C57 1.400 1_455 S
C53 H37 0.939 . S
C53 C52 1.378 . S
C53 C54 1.361 . S
C54 H38 0.942 . S
C54 C53 1.361 . S
C54 C55 1.369 1_455 S
C55 C54 1.369 1_655 S
C55 C56 1.404 . S
C56 H39 0.940 . S
C56 C55 1.404 . S
C56 C57 1.389 . S
C57 H40 0.939 . S
C57 C52 1.400 1_655 S
C57 C56 1.389 . S
C58 P32 1.819 . S
C58 C59 1.391 . S
C58 C63 1.391 1_455 S
C59 H41 0.941 . S
C59 C58 1.391 . S
C59 C60 1.396 . S
C60 H44 0.939 . S
C60 C59 1.396 . S
C60 C61 1.397 1_455 S
C61 C60 1.397 1_655 S
C61 C62 1.385 . S
C62 H45 0.940 . S
C62 C61 1.385 . S
C62 C63 1.388 . S
C63 H42 0.939 . S
C63 C58 1.391 1_655 S
C63 C62 1.388 . S
P64 O75 1.490 . S
P64 C78 1.812 . S
P64 C84 1.803 . S
P64 C90 1.819 . S
H65 C79 0.941 . S
H66 C80 0.939 . S
H67 C82 0.940 . S
H68 C83 0.940 . S
H69 C85 0.939 . S
H70 C86 0.942 . S
H71 C88 0.940 . S
H72 C89 0.939 . S
H73 C91 0.941 . S
H74 C95 0.939 . S
O75 P64 1.490 . S
H76 C92 0.939 . S
H77 C94 0.940 . S
C78 P64 1.812 . S
C78 C79 1.389 . S
C78 C83 1.391 1_545 S
C79 H65 0.941 . S
C79 C78 1.389 . S
C79 C80 1.397 . S
C80 H66 0.939 . S
C80 C79 1.397 . S
C80 C81 1.378 1_545 S
C81 C80 1.378 1_565 S
C81 C82 1.378 . S
C82 H67 0.940 . S
C82 C81 1.378 . S
C82 C83 1.396 . S
C83 H68 0.940 . S
C83 C78 1.391 1_565 S
C83 C82 1.396 . S
C84 P64 1.803 . S
C84 C85 1.378 . S
C84 C89 1.400 1_545 S
C85 H69 0.939 . S
C85 C84 1.378 . S
C85 C86 1.361 . S
C86 H70 0.942 . S
C86 C85 1.361 . S
C86 C87 1.369 1_545 S
C87 C86 1.369 1_565 S
C87 C88 1.404 . S
C88 H71 0.940 . S
C88 C87 1.404 . S
C88 C89 1.389 . S
C89 H72 0.939 . S
C89 C84 1.400 1_565 S
C89 C88 1.389 . S
C90 P64 1.819 . S
C90 C91 1.391 . S
C90 C95 1.391 1_545 S
C91 H73 0.941 . S
C91 C90 1.391 . S
C91 C92 1.396 . S
C92 H76 0.939 . S
C92 C91 1.396 . S
C92 C93 1.397 1_545 S
C93 C92 1.397 1_565 S
C93 C94 1.385 . S
C94 H77 0.940 . S
C94 C93 1.385 . S
C94 C95 1.388 . S
C95 H74 0.939 . S
C95 C90 1.391 1_565 S
C95 C94 1.388 . S
P96 O107 1.490 . S
P96 C110 1.812 . S
P96 C116 1.803 . S
P96 C122 1.819 . S
H97 C111 0.941 . S
H98 C112 0.939 . S
H99 C114 0.940 . S
H100 C115 0.940 . S
H101 C117 0.939 . S
H102 C118 0.942 . S
H103 C120 0.940 . S
H104 C121 0.939 . S
H105 C123 0.941 . S
H106 C127 0.939 . S
O107 P96 1.490 . S
H108 C124 0.939 . S
H109 C126 0.940 . S
C110 P96 1.812 . S
C110 C111 1.389 . S
C110 C115 1.391 . S
C111 H97 0.941 . S
C111 C110 1.389 . S
C111 C112 1.397 . S
C112 H98 0.939 . S
C112 C111 1.397 . S
C112 C113 1.378 . S
C113 C112 1.378 . S
C113 C114 1.378 . S
C114 H99 0.940 . S
C114 C113 1.378 . S
C114 C115 1.396 . S
C115 H100 0.940 . S
C115 C110 1.391 . S
C115 C114 1.396 . S
C116 P96 1.803 . S
C116 C117 1.378 . S
C116 C121 1.400 . S
C117 H101 0.939 . S
C117 C116 1.378 . S
C117 C118 1.361 . S
C118 H102 0.942 . S
C118 C117 1.361 . S
C118 C119 1.369 . S
C119 C118 1.369 . S
C119 C120 1.404 . S
C120 H103 0.940 . S
C120 C119 1.404 . S
C120 C121 1.389 . S
C121 H104 0.939 . S
C121 C116 1.400 . S
C121 C120 1.389 . S
C122 P96 1.819 . S
C122 C123 1.391 . S
C122 C127 1.391 . S
C123 H105 0.941 . S
C123 C122 1.391 . S
C123 C124 1.396 . S
C124 H108 0.939 . S
C124 C123 1.396 . S
C124 C125 1.397 . S
C125 C124 1.397 . S
C125 C126 1.385 . S
C126 H109 0.940 . S
C126 C125 1.385 . S
C126 C127 1.388 . S
C127 H106 0.939 . S
C127 C122 1.391 . S
C127 C126 1.388 . S
P128 O139 1.490 . S
P128 C142 1.812 1_554 S
P128 C148 1.803 . S
P128 C154 1.819 . S
H129 C143 0.941 . S
H130 C144 0.939 . S
H131 C146 0.940 . S
H132 C147 0.940 . S
H133 C149 0.939 . S
H134 C150 0.942 . S
H135 C152 0.940 . S
H136 C153 0.939 . S
H137 C155 0.941 . S
H138 C159 0.939 . S
O139 P128 1.490 . S
H140 C156 0.939 . S
H141 C158 0.940 . S
C142 P128 1.812 1_556 S
C142 C143 1.389 . S
C142 C147 1.391 . S
C143 H129 0.941 . S
C143 C142 1.389 . S
C143 C144 1.397 . S
C144 H130 0.939 . S
C144 C143 1.397 . S
C144 C145 1.378 . S
C145 C144 1.378 . S
C145 C146 1.378 . S
C146 H131 0.940 . S
C146 C145 1.378 . S
C146 C147 1.396 . S
C147 H132 0.940 . S
C147 C142 1.391 . S
C147 C146 1.396 . S
C148 P128 1.803 . S
C148 C149 1.378 . S
C148 C153 1.400 . S
C149 H133 0.939 . S
C149 C148 1.378 . S
C149 C150 1.361 . S
C150 H134 0.942 . S
C150 C149 1.361 . S
C150 C151 1.369 . S
C151 C150 1.369 . S
C151 C152 1.404 . S
C152 H135 0.940 . S
C152 C151 1.404 . S
C152 C153 1.389 . S
C153 H136 0.939 . S
C153 C148 1.400 . S
C153 C152 1.389 . S
C154 P128 1.819 . S
C154 C155 1.391 . S
C154 C159 1.391 . S
C155 H137 0.941 . S
C155 C154 1.391 . S
C155 C156 1.396 . S
C156 H140 0.939 . S
C156 C155 1.396 . S
C156 C157 1.397 . S
C157 C156 1.397 . S
C157 C158 1.385 . S
C158 H141 0.940 . S
C158 C157 1.385 . S
C158 C159 1.388 . S
C159 H138 0.939 . S
C159 C154 1.391 . S
C159 C158 1.388 . S
P160 O171 1.490 . S
P160 C174 1.812 1_554 S
P160 C180 1.803 . S
P160 C186 1.819 . S
H161 C175 0.941 . S
H162 C176 0.939 . S
H163 C178 0.940 . S
H164 C179 0.940 . S
H165 C181 0.939 . S
H166 C182 0.942 . S
H167 C184 0.940 . S
H168 C185 0.939 . S
H169 C187 0.941 . S
H170 C191 0.939 . S
O171 P160 1.490 . S
H172 C188 0.939 . S
H173 C190 0.940 . S
C174 P160 1.812 1_556 S
C174 C175 1.389 . S
C174 C179 1.391 . S
C175 H161 0.941 . S
C175 C174 1.389 . S
C175 C176 1.397 . S
C176 H162 0.939 . S
C176 C175 1.397 . S
C176 C177 1.378 . S
C177 C176 1.378 . S
C177 C178 1.378 . S
C178 H163 0.940 . S
C178 C177 1.378 . S
C178 C179 1.396 . S
C179 H164 0.940 . S
C179 C174 1.391 . S
C179 C178 1.396 . S
C180 P160 1.803 . S
C180 C181 1.378 . S
C180 C185 1.400 . S
C181 H165 0.939 . S
C181 C180 1.378 . S
C181 C182 1.361 . S
C182 H166 0.942 . S
C182 C181 1.361 . S
C182 C183 1.369 . S
C183 C182 1.369 . S
C183 C184 1.404 . S
C184 H167 0.940 . S
C184 C183 1.404 . S
C184 C185 1.389 . S
C185 H168 0.939 . S
C185 C180 1.400 . S
C185 C184 1.389 . S
C186 P160 1.819 . S
C186 C187 1.391 . S
C186 C191 1.391 . S
C187 H169 0.941 . S
C187 C186 1.391 . S
C187 C188 1.396 . S
C188 H172 0.939 . S
C188 C187 1.396 . S
C188 C189 1.397 . S
C189 C188 1.397 . S
C189 C190 1.385 . S
C190 H173 0.940 . S
C190 C189 1.385 . S
C190 C191 1.388 . S
C191 H170 0.939 . S
C191 C186 1.391 . S
C191 C190 1.388 . S
P192 O203 1.490 . S
P192 C206 1.812 1_554 S
P192 C212 1.803 . S
P192 C218 1.819 . S
H193 C207 0.941 . S
H194 C208 0.939 . S
H195 C210 0.940 . S
H196 C211 0.940 . S
H197 C213 0.939 . S
H198 C214 0.942 . S
H199 C216 0.940 . S
H200 C217 0.939 . S
H201 C219 0.941 . S
H202 C223 0.939 . S
O203 P192 1.490 . S
H204 C220 0.939 . S
H205 C222 0.940 . S
C206 P192 1.812 1_556 S
C206 C207 1.389 . S
C206 C211 1.391 . S
C207 H193 0.941 . S
C207 C206 1.389 . S
C207 C208 1.397 . S
C208 H194 0.939 . S
C208 C207 1.397 . S
C208 C209 1.378 . S
C209 C208 1.378 . S
C209 C210 1.378 . S
C210 H195 0.940 . S
C210 C209 1.378 . S
C210 C211 1.396 . S
C211 H196 0.940 . S
C211 C206 1.391 . S
C211 C210 1.396 . S
C212 P192 1.803 . S
C212 C213 1.378 . S
C212 C217 1.400 . S
C213 H197 0.939 . S
C213 C212 1.378 . S
C213 C214 1.361 . S
C214 H198 0.942 . S
C214 C213 1.361 . S
C214 C215 1.369 . S
C215 C214 1.369 . S
C215 C216 1.404 . S
C216 H199 0.940 . S
C216 C215 1.404 . S
C216 C217 1.389 . S
C217 H200 0.939 . S
C217 C212 1.400 . S
C217 C216 1.389 . S
C218 P192 1.819 . S
C218 C219 1.391 . S
C218 C223 1.391 . S
C219 H201 0.941 . S
C219 C218 1.391 . S
C219 C220 1.396 . S
C220 H204 0.939 . S
C220 C219 1.396 . S
C220 C221 1.397 . S
C221 C220 1.397 . S
C221 C222 1.385 . S
C222 H205 0.940 . S
C222 C221 1.385 . S
C222 C223 1.388 . S
C223 H202 0.939 . S
C223 C218 1.391 . S
C223 C222 1.388 . S
P224 O235 1.490 . S
P224 C238 1.812 1_554 S
P224 C244 1.803 . S
P224 C250 1.819 . S
H225 C239 0.941 . S
H226 C240 0.939 . S
H227 C242 0.940 . S
H228 C243 0.940 . S
H229 C245 0.939 . S
H230 C246 0.942 . S
H231 C248 0.940 . S
H232 C249 0.939 . S
H233 C251 0.941 . S
H234 C255 0.939 . S
O235 P224 1.490 . S
H236 C252 0.939 . S
H237 C254 0.940 . S
C238 P224 1.812 1_556 S
C238 C239 1.389 . S
C238 C243 1.391 . S
C239 H225 0.941 . S
C239 C238 1.389 . S
C239 C240 1.397 . S
C240 H226 0.939 . S
C240 C239 1.397 . S
C240 C241 1.378 . S
C241 C240 1.378 . S
C241 C242 1.378 . S
C242 H227 0.940 . S
C242 C241 1.378 . S
C242 C243 1.396 . S
C243 H228 0.940 . S
C243 C238 1.391 . S
C243 C242 1.396 . S
C244 P224 1.803 . S
C244 C245 1.378 . S
C244 C249 1.400 . S
C245 H229 0.939 . S
C245 C244 1.378 . S
C245 C246 1.361 . S
C246 H230 0.942 . S
C246 C245 1.361 . S
C246 C247 1.369 . S
C247 C246 1.369 . S
C247 C248 1.404 . S
C248 H231 0.940 . S
C248 C247 1.404 . S
C248 C249 1.389 . S
C249 H232 0.939 . S
C249 C244 1.400 . S
C249 C248 1.389 . S
C250 P224 1.819 . S
C250 C251 1.391 . S
C250 C255 1.391 . S
C251 H233 0.941 . S
C251 C250 1.391 . S
C251 C252 1.396 . S
C252 H236 0.939 . S
C252 C251 1.396 . S
C252 C253 1.397 . S
C253 C252 1.397 . S
C253 C254 1.385 . S
C254 H237 0.940 . S
C254 C253 1.385 . S
C254 C255 1.388 . S
C255 H234 0.939 . S
C255 C250 1.391 . S
C255 C254 1.388 . S
Tb256 N285 2.617 . S
Tb256 N291 2.572 . S
Tb256 O300 2.465 . S
Tb256 O301 2.387 1_545 S
Tb256 O303 2.428 . S
Tb256 O304 2.308 1_655 S
Tb256 O308 2.349 1_655 S
Tb256 O311 2.393 . S
Tb256 C320 2.802 . S
C257 N258 1.379 . S
C257 C260 1.416 . S
C257 C264 1.424 . S
N258 C257 1.379 . S
N258 C261 1.334 1_545 S
N258 Tb267 2.617 1_545 S
C259 C261 1.390 1_545 S
C259 C262 1.339 . S
C259 H279 0.930 . S
C260 C257 1.416 . S
C260 C262 1.416 . S
C260 C266 1.448 . S
C261 N258 1.334 1_565 S
C261 C259 1.390 1_565 S
C261 H272 0.930 . S
C262 C259 1.339 . S
C262 C260 1.416 . S
C262 H283 0.930 . S
C263 C264 1.413 1_554 S
C263 C265 1.427 . S
C263 C269 1.416 . S
C264 C257 1.424 . S
C264 C263 1.413 1_556 S
C264 N268 1.361 . S
C265 C263 1.427 . S
C265 C266 1.328 1_554 S
C265 H280 0.929 . S
C266 C260 1.448 . S
C266 C265 1.328 1_556 S
C266 H281 0.930 1_556 S
Tb267 N258 2.617 1_565 S
Tb267 N268 2.572 1_565 S
Tb267 O302 2.349 . S
Tb267 O305 2.393 . S
Tb267 O306 2.465 . S
Tb267 O307 2.387 1_565 S
Tb267 O309 2.428 . S
Tb267 O310 2.304 1_465 S
Tb267 C331 2.802 . S
N268 C264 1.361 . S
N268 Tb267 2.572 1_545 S
N268 C270 1.340 . S
C269 C263 1.416 . S
C269 C271 1.332 . S
C269 H277 0.931 . S
C270 N268 1.340 . S
C270 C271 1.407 1_556 S
C270 H276 0.930 . S
C271 C269 1.332 . S
C271 C270 1.407 1_554 S
C271 H273 0.929 . S
H272 C261 0.930 . S
H273 C271 0.929 . S
H274 C289 0.930 . S
H275 C296 0.929 1_455 S
H276 C270 0.930 . S
H277 C269 0.931 . S
H278 C292 0.930 1_455 S
H279 C259 0.930 . S
H280 C265 0.929 . S
H281 C266 0.930 1_554 S
H282 C287 0.930 . S
H283 C262 0.930 . S
H284 C295 0.931 . S
N285 Tb256 2.617 . S
N285 C286 1.379 1_545 S
N285 C289 1.334 . S
C286 N285 1.379 1_565 S
C286 C288 1.416 . S
C286 C294 1.424 . S
C287 H282 0.930 . S
C287 C289 1.390 . S
C287 C290 1.339 1_545 S
C288 C286 1.416 . S
C288 C290 1.416 . S
C288 C321 1.448 . S
C289 H274 0.930 . S
C289 N285 1.334 . S
C289 C287 1.390 . S
C290 C287 1.339 1_565 S
C290 C288 1.416 . S
C290 H297 0.930 . S
N291 Tb256 2.572 . S
N291 C292 1.340 . S
N291 C294 1.361 1_545 S
C292 H278 0.930 1_655 S
C292 N291 1.340 . S
C292 C296 1.407 1_545 S
C293 C294 1.413 . S
C293 C295 1.416 . S
C293 C322 1.427 . S
C294 C286 1.424 . S
C294 N291 1.361 1_565 S
C294 C293 1.413 . S
C295 H284 0.931 . S
C295 C293 1.416 . S
C295 C296 1.332 . S
C296 H275 0.929 1_655 S
C296 C292 1.407 1_565 S
C296 C295 1.332 . S
H297 C290 0.930 . S
H298 C321 0.930 . S
H299 C322 0.929 . S
O300 Tb256 2.465 . S
O300 C320 1.264 . S
O301 Tb256 2.387 1_565 S
O301 C312 1.264 . S
O302 Tb267 2.349 . S
O302 C312 1.243 1_455 S
O303 Tb256 2.428 . S
O303 C320 1.256 . S
O304 Tb256 2.308 1_455 S
O304 C319 1.266 . S
O305 Tb267 2.393 . S
O305 C319 1.248 1_565 S
O306 Tb267 2.465 . S
O306 C331 1.264 . S
O307 Tb267 2.387 1_545 S
O307 C323 1.264 . S
O308 Tb256 2.349 1_455 S
O308 C323 1.243 . S
O309 Tb267 2.428 . S
O309 C331 1.256 . S
O310 Tb267 2.304 1_645 S
O310 C330 1.269 . S
O311 Tb256 2.393 . S
O311 C330 1.248 . S
C312 O301 1.264 . S
C312 O302 1.243 1_655 S
C313 C316 1.399 . S
C313 C318 1.383 . S
C313 C320 1.496 . S
C314 C315 1.399 . S
C314 C318 1.389 . S
C315 C314 1.399 . S
C315 C317 1.380 . S
C315 H332 0.929 . S
C316 C313 1.399 . S
C316 C317 1.392 . S
C316 H333 0.929 . S
C317 C315 1.380 . S
C317 C316 1.392 . S
C317 H334 0.929 . S
C318 C313 1.383 . S
C318 C314 1.389 . S
C318 H335 0.931 1_655 S
C319 O304 1.266 . S
C319 O305 1.248 1_545 S
C320 Tb256 2.802 . S
C320 O300 1.264 . S
C320 O303 1.256 . S
C320 C313 1.496 . S
C321 C288 1.448 . S
C321 H298 0.930 . S
C321 C322 1.328 . S
C322 C293 1.427 . S
C322 H299 0.929 . S
C322 C321 1.328 . S
C323 O307 1.264 . S
C323 O308 1.243 . S
C324 C327 1.399 . S
C324 C328 1.383 . S
C324 C331 1.496 . S
C325 C326 1.401 . S
C325 C328 1.396 . S
C326 C325 1.401 . S
C326 C329 1.380 . S
C326 H336 0.929 1_556 S
C327 C324 1.399 . S
C327 C329 1.392 . S
C327 H337 0.929 . S
C328 C324 1.383 . S
C328 C325 1.396 . S
C328 H338 0.931 . S
C329 C326 1.380 . S
C329 C327 1.392 . S
C329 H339 0.929 . S
C330 O310 1.269 . S
C330 O311 1.248 . S
C331 Tb267 2.802 . S
C331 O306 1.264 . S
C331 O309 1.256 . S
C331 C324 1.496 . S
H332 C315 0.929 . S
H333 C316 0.929 . S
H334 C317 0.929 . S
H335 C318 0.931 1_455 S
H336 C326 0.929 1_554 S
H337 C327 0.929 . S
H338 C328 0.931 . S
H339 C329 0.929 . S
Tb340 N369 2.617 . S
Tb340 N375 2.572 . S
Tb340 O384 2.465 . S
Tb340 O385 2.387 . S
Tb340 O387 2.428 . S
Tb340 O388 2.308 . S
Tb340 O392 2.349 1_545 S
Tb340 O395 2.393 . S
Tb340 C404 2.802 . S
C341 N342 1.379 . S
C341 C344 1.416 . S
C341 C348 1.424 . S
N342 C341 1.379 . S
N342 C345 1.334 . S
N342 Tb351 2.617 . S
C343 C345 1.390 . S
C343 C346 1.339 . S
C343 H363 0.930 . S
C344 C341 1.416 . S
C344 C346 1.416 . S
C344 C350 1.448 . S
C345 N342 1.334 . S
C345 C343 1.390 . S
C345 H356 0.930 . S
C346 C343 1.339 . S
C346 C344 1.416 . S
C346 H367 0.930 . S
C347 C348 1.413 . S
C347 C349 1.427 . S
C347 C353 1.416 . S
C348 C341 1.424 . S
C348 C347 1.413 . S
C348 N352 1.361 . S
C349 C347 1.427 . S
C349 C350 1.328 . S
C349 H364 0.929 . S
C350 C344 1.448 . S
C350 C349 1.328 . S
C350 H365 0.930 . S
Tb351 N342 2.617 . S
Tb351 N352 2.572 . S
Tb351 O386 2.349 1_565 S
Tb351 O389 2.393 . S
Tb351 O390 2.465 . S
Tb351 O391 2.387 . S
Tb351 O393 2.428 . S
Tb351 O394 2.308 1_565 S
Tb351 C415 2.802 . S
N352 C348 1.361 . S
N352 Tb351 2.572 . S
N352 C354 1.340 . S
C353 C347 1.416 . S
C353 C355 1.332 . S
C353 H361 0.931 . S
C354 N352 1.340 . S
C354 C355 1.407 . S
C354 H360 0.930 . S
C355 C353 1.332 . S
C355 C354 1.407 . S
C355 H357 0.929 . S
H356 C345 0.930 . S
H357 C355 0.929 . S
H358 C373 0.930 . S
H359 C380 0.929 . S
H360 C354 0.930 . S
H361 C353 0.931 . S
H362 C376 0.930 . S
H363 C343 0.930 . S
H364 C349 0.929 . S
H365 C350 0.930 . S
H366 C371 0.930 . S
H367 C346 0.930 . S
H368 C379 0.931 . S
N369 Tb340 2.617 . S
N369 C370 1.379 . S
N369 C373 1.334 . S
C370 N369 1.379 . S
C370 C372 1.416 . S
C370 C378 1.424 . S
C371 H366 0.930 . S
C371 C373 1.390 . S
C371 C374 1.339 . S
C372 C370 1.416 . S
C372 C374 1.416 . S
C372 C405 1.448 . S
C373 H358 0.930 . S
C373 N369 1.334 . S
C373 C371 1.390 . S
C374 C371 1.339 . S
C374 C372 1.416 . S
C374 H381 0.930 . S
N375 Tb340 2.572 . S
N375 C376 1.340 . S
N375 C378 1.361 . S
C376 H362 0.930 . S
C376 N375 1.340 . S
C376 C380 1.407 . S
C377 C378 1.413 . S
C377 C379 1.416 . S
C377 C406 1.427 . S
C378 C370 1.424 . S
C378 N375 1.361 . S
C378 C377 1.413 . S
C379 H368 0.931 . S
C379 C377 1.416 . S
C379 C380 1.332 . S
C380 H359 0.929 . S
C380 C376 1.407 . S
C380 C379 1.332 . S
H381 C374 0.930 . S
H382 C405 0.930 . S
H383 C406 0.929 . S
O384 Tb340 2.465 . S
O384 C404 1.264 . S
O385 Tb340 2.387 . S
O385 C396 1.264 . S
O386 Tb351 2.349 1_545 S
O386 C396 1.243 . S
O387 Tb340 2.428 . S
O387 C404 1.256 . S
O388 Tb340 2.308 . S
O388 C403 1.266 1_545 S
O389 Tb351 2.393 . S
O389 C403 1.248 . S
O390 Tb351 2.465 . S
O390 C415 1.264 . S
O391 Tb351 2.387 . S
O391 C407 1.264 . S
O392 Tb340 2.349 1_565 S
O392 C407 1.243 . S
O393 Tb351 2.428 . S
O393 C415 1.256 . S
O394 Tb351 2.308 1_545 S
O394 C414 1.266 . S
O395 Tb340 2.393 . S
O395 C414 1.248 . S
C396 O385 1.264 . S
C396 O386 1.243 . S
C397 C400 1.399 1_556 S
C397 C402 1.383 . S
C397 C404 1.496 . S
C398 C399 1.399 . S
C398 C402 1.389 1_554 S
C399 C398 1.399 . S
C399 C401 1.380 . S
C399 H416 0.929 . S
C400 C397 1.399 1_554 S
C400 C401 1.392 . S
C400 H417 0.929 . S
C401 C399 1.380 . S
C401 C400 1.392 . S
C401 H418 0.929 . S
C402 C397 1.383 . S
C402 C398 1.389 1_556 S
C402 H419 0.931 . S
C403 O388 1.266 1_565 S
C403 O389 1.248 . S
C404 Tb340 2.802 . S
C404 O384 1.264 . S
C404 O387 1.256 . S
C404 C397 1.496 . S
C405 C372 1.448 . S
C405 H382 0.930 . S
C405 C406 1.328 . S
C406 C377 1.427 . S
C406 H383 0.929 . S
C406 C405 1.328 . S
C407 O391 1.264 . S
C407 O392 1.243 . S
C408 C411 1.399 . S
C408 C412 1.383 . S
C408 C415 1.496 . S
C409 C410 1.399 . S
C409 C412 1.389 . S
C410 C409 1.399 . S
C410 C413 1.380 . S
C410 H420 0.929 . S
C411 C408 1.399 . S
C411 C413 1.392 . S
C411 H421 0.929 . S
C412 C408 1.383 . S
C412 C409 1.389 . S
C412 H422 0.931 . S
C413 C410 1.380 . S
C413 C411 1.392 . S
C413 H423 0.929 . S
C414 O394 1.266 . S
C414 O395 1.248 . S
C415 Tb351 2.802 . S
C415 O390 1.264 . S
C415 O393 1.256 . S
C415 C408 1.496 . S
H416 C399 0.929 . S
H417 C400 0.929 . S
H418 C401 0.929 . S
H419 C402 0.931 . S
H420 C410 0.929 . S
H421 C411 0.929 . S
H422 C412 0.931 . S
H423 C413 0.929 . S
Tb424 N453 2.617 . S
Tb424 N459 2.572 . S
Tb424 O468 2.465 . S
Tb424 O469 2.387 . S
Tb424 O471 2.428 . S
Tb424 O472 2.308 . S
Tb424 O476 2.349 . S
Tb424 O479 2.393 . S
Tb424 C488 2.802 . S
C425 N426 1.379 . S
C425 C428 1.416 . S
C425 C432 1.424 . S
N426 C425 1.379 . S
N426 C429 1.334 . S
N426 Tb435 2.617 . S
C427 C429 1.390 . S
C427 C430 1.339 . S
C427 H447 0.930 . S
C428 C425 1.416 . S
C428 C430 1.416 . S
C428 C434 1.448 . S
C429 N426 1.334 . S
C429 C427 1.390 . S
C429 H440 0.930 . S
C430 C427 1.339 . S
C430 C428 1.416 . S
C430 H451 0.930 . S
C431 C432 1.413 1_554 S
C431 C433 1.427 . S
C431 C437 1.416 . S
C432 C425 1.424 . S
C432 C431 1.413 1_556 S
C432 N436 1.361 . S
C433 C431 1.427 . S
C433 C434 1.328 1_554 S
C433 H448 0.929 . S
C434 C428 1.448 . S
C434 C433 1.328 1_556 S
C434 H449 0.930 1_556 S
Tb435 N426 2.617 . S
Tb435 N436 2.572 . S
Tb435 O470 2.349 . S
Tb435 O473 2.393 . S
Tb435 O474 2.465 . S
Tb435 O475 2.387 . S
Tb435 O477 2.428 . S
Tb435 O478 2.308 . S
Tb435 C499 2.802 . S
N436 C432 1.361 . S
N436 Tb435 2.572 . S
N436 C438 1.340 . S
C437 C431 1.416 . S
C437 C439 1.332 . S
C437 H445 0.931 . S
C438 N436 1.340 . S
C438 C439 1.407 1_556 S
C438 H444 0.930 . S
C439 C437 1.332 . S
C439 C438 1.407 1_554 S
C439 H441 0.929 . S
H440 C429 0.930 . S
H441 C439 0.929 . S
H442 C457 0.930 . S
H443 C464 0.929 . S
H444 C438 0.930 . S
H445 C437 0.931 . S
H446 C460 0.930 . S
H447 C427 0.930 . S
H448 C433 0.929 . S
H449 C434 0.930 1_554 S
H450 C455 0.930 . S
H451 C430 0.930 . S
H452 C463 0.931 . S
N453 Tb424 2.617 . S
N453 C454 1.379 . S
N453 C457 1.334 . S
C454 N453 1.379 . S
C454 C456 1.416 . S
C454 C462 1.424 . S
C455 H450 0.930 . S
C455 C457 1.390 . S
C455 C458 1.339 . S
C456 C454 1.416 . S
C456 C458 1.416 . S
C456 C489 1.448 . S
C457 H442 0.930 . S
C457 N453 1.334 . S
C457 C455 1.390 . S
C458 C455 1.339 . S
C458 C456 1.416 . S
C458 H465 0.930 . S
N459 Tb424 2.572 . S
N459 C460 1.340 . S
N459 C462 1.361 . S
C460 H446 0.930 . S
C460 N459 1.340 . S
C460 C464 1.407 . S
C461 C462 1.413 . S
C461 C463 1.416 . S
C461 C490 1.427 . S
C462 C454 1.424 . S
C462 N459 1.361 . S
C462 C461 1.413 . S
C463 H452 0.931 . S
C463 C461 1.416 . S
C463 C464 1.332 . S
C464 H443 0.929 . S
C464 C460 1.407 . S
C464 C463 1.332 . S
H465 C458 0.930 . S
H466 C489 0.930 . S
H467 C490 0.929 . S
O468 Tb424 2.465 . S
O468 C488 1.264 . S
O469 Tb424 2.387 . S
O469 C480 1.264 . S
O470 Tb435 2.349 . S
O470 C480 1.243 . S
O471 Tb424 2.428 . S
O471 C488 1.256 . S
O472 Tb424 2.308 . S
O472 C487 1.266 . S
O473 Tb435 2.393 . S
O473 C487 1.248 . S
O474 Tb435 2.465 . S
O474 C499 1.264 . S
O475 Tb435 2.387 . S
O475 C491 1.264 . S
O476 Tb424 2.349 . S
O476 C491 1.243 . S
O477 Tb435 2.428 . S
O477 C499 1.256 . S
O478 Tb435 2.308 . S
O478 C498 1.266 . S
O479 Tb424 2.393 . S
O479 C498 1.248 . S
C480 O469 1.264 . S
C480 O470 1.243 . S
C481 C484 1.399 . S
C481 C486 1.383 . S
C481 C488 1.496 . S
C482 C483 1.399 . S
C482 C486 1.389 . S
C483 C482 1.399 . S
C483 C485 1.380 . S
C483 H500 0.929 . S
C484 C481 1.399 . S
C484 C485 1.392 . S
C484 H501 0.929 . S
C485 C483 1.380 . S
C485 C484 1.392 . S
C485 H502 0.929 . S
C486 C481 1.383 . S
C486 C482 1.389 . S
C486 H503 0.931 . S
C487 O472 1.266 . S
C487 O473 1.248 . S
C488 Tb424 2.802 . S
C488 O468 1.264 . S
C488 O471 1.256 . S
C488 C481 1.496 . S
C489 C456 1.448 . S
C489 H466 0.930 . S
C489 C490 1.328 . S
C490 C461 1.427 . S
C490 H467 0.929 . S
C490 C489 1.328 . S
C491 O475 1.264 . S
C491 O476 1.243 . S
C492 C495 1.399 . S
C492 C496 1.383 . S
C492 C499 1.496 . S
C493 C494 1.399 1_554 S
C493 C496 1.389 1_554 S
C494 C493 1.399 1_556 S
C494 C497 1.380 . S
C494 H504 0.929 1_556 S
C495 C492 1.399 . S
C495 C497 1.392 . S
C495 H505 0.929 . S
C496 C492 1.383 . S
C496 C493 1.389 1_556 S
C496 H506 0.931 . S
C497 C494 1.380 . S
C497 C495 1.392 . S
C497 H507 0.929 . S
C498 O478 1.266 . S
C498 O479 1.248 . S
C499 Tb435 2.802 . S
C499 O474 1.264 . S
C499 O477 1.256 . S
C499 C492 1.496 . S
H500 C483 0.929 . S
H501 C484 0.929 . S
H502 C485 0.929 . S
H503 C486 0.931 . S
H504 C494 0.929 1_554 S
H505 C495 0.929 . S
H506 C496 0.931 . S
H507 C497 0.929 . S
Tb508 N537 2.617 . S
Tb508 N543 2.572 . S
Tb508 O552 2.465 . S
Tb508 O553 2.387 1_455 S
Tb508 O555 2.428 . S
Tb508 O556 2.308 . S
Tb508 O560 2.349 . S
Tb508 O563 2.393 . S
Tb508 C572 2.802 . S
C509 N510 1.379 1_455 S
C509 C512 1.416 . S
C509 C516 1.424 . S
N510 C509 1.379 1_655 S
N510 C513 1.334 . S
N510 Tb519 2.617 . S
C511 C513 1.390 1_455 S
C511 C514 1.339 . S
C511 H531 0.930 . S
C512 C509 1.416 . S
C512 C514 1.416 . S
C512 C518 1.448 . S
C513 N510 1.334 . S
C513 C511 1.390 1_655 S
C513 H524 0.930 . S
C514 C511 1.339 . S
C514 C512 1.416 . S
C514 H535 0.930 . S
C515 C516 1.413 1_554 S
C515 C517 1.427 . S
C515 C521 1.416 . S
C516 C509 1.424 . S
C516 C515 1.413 1_556 S
C516 N520 1.361 . S
C517 C515 1.427 . S
C517 C518 1.328 1_554 S
C517 H532 0.929 . S
C518 C512 1.448 . S
C518 C517 1.328 1_556 S
C518 H533 0.930 1_556 S
Tb519 N510 2.617 . S
Tb519 N520 2.572 1_655 S
Tb519 O554 2.349 . S
Tb519 O557 2.393 . S
Tb519 O558 2.465 . S
Tb519 O559 2.387 1_655 S
Tb519 O561 2.428 . S
Tb519 O562 2.308 . S
Tb519 C583 2.802 . S
N520 C516 1.361 . S
N520 Tb519 2.572 1_455 S
N520 C522 1.340 . S
C521 C515 1.416 . S
C521 C523 1.332 . S
C521 H529 0.931 . S
C522 N520 1.340 . S
C522 C523 1.407 1_556 S
C522 H528 0.930 . S
C523 C521 1.332 . S
C523 C522 1.407 1_554 S
C523 H525 0.929 . S
H524 C513 0.930 . S
H525 C523 0.929 . S
H526 C541 0.930 . S
H527 C548 0.929 . S
H528 C522 0.930 . S
H529 C521 0.931 . S
H530 C544 0.930 . S
H531 C511 0.930 . S
H532 C517 0.929 . S
H533 C518 0.930 1_554 S
H534 C539 0.930 . S
H535 C514 0.930 . S
H536 C547 0.931 . S
N537 Tb508 2.617 . S
N537 C538 1.379 1_455 S
N537 C541 1.334 . S
C538 N537 1.379 1_655 S
C538 C540 1.416 . S
C538 C546 1.424 . S
C539 H534 0.930 . S
C539 C541 1.390 . S
C539 C542 1.339 1_455 S
C540 C538 1.416 . S
C540 C542 1.416 . S
C540 C573 1.448 . S
C541 H526 0.930 . S
C541 N537 1.334 . S
C541 C539 1.390 . S
C542 C539 1.339 1_655 S
C542 C540 1.416 . S
C542 H549 0.930 . S
N543 Tb508 2.572 . S
N543 C544 1.340 . S
N543 C546 1.361 1_455 S
C544 H530 0.930 . S
C544 N543 1.340 . S
C544 C548 1.407 1_455 S
C545 C546 1.413 . S
C545 C547 1.416 . S
C545 C574 1.427 . S
C546 C538 1.424 . S
C546 N543 1.361 1_655 S
C546 C545 1.413 . S
C547 H536 0.931 . S
C547 C545 1.416 . S
C547 C548 1.332 . S
C548 H527 0.929 . S
C548 C544 1.407 1_655 S
C548 C547 1.332 . S
H549 C542 0.930 . S
H550 C573 0.930 . S
H551 C574 0.929 . S
O552 Tb508 2.465 . S
O552 C572 1.264 . S
O553 Tb508 2.387 1_655 S
O553 C564 1.264 . S
O554 Tb519 2.349 . S
O554 C564 1.243 . S
O555 Tb508 2.428 . S
O555 C572 1.256 . S
O556 Tb508 2.308 . S
O556 C571 1.266 . S
O557 Tb519 2.393 . S
O557 C571 1.248 1_655 S
O558 Tb519 2.465 . S
O558 C583 1.264 . S
O559 Tb519 2.387 1_455 S
O559 C575 1.264 . S
O560 Tb508 2.349 . S
O560 C575 1.243 . S
O561 Tb519 2.428 . S
O561 C583 1.256 . S
O562 Tb519 2.308 . S
O562 C582 1.266 1_655 S
O563 Tb508 2.393 . S
O563 C582 1.248 . S
C564 O553 1.264 . S
C564 O554 1.243 . S
C565 C568 1.399 . S
C565 C570 1.383 . S
C565 C572 1.496 . S
C566 C567 1.399 . S
C566 C570 1.389 . S
C567 C566 1.399 . S
C567 C569 1.380 . S
C567 H584 0.929 . S
C568 C565 1.399 . S
C568 C569 1.392 . S
C568 H585 0.929 . S
C569 C567 1.380 . S
C569 C568 1.392 . S
C569 H586 0.929 . S
C570 C565 1.383 . S
C570 C566 1.389 . S
C570 H587 0.931 . S
C571 O556 1.266 . S
C571 O557 1.248 1_455 S
C572 Tb508 2.802 . S
C572 O552 1.264 . S
C572 O555 1.256 . S
C572 C565 1.496 . S
C573 C540 1.448 . S
C573 H550 0.930 . S
C573 C574 1.328 . S
C574 C545 1.427 . S
C574 H551 0.929 . S
C574 C573 1.328 . S
C575 O559 1.264 . S
C575 O560 1.243 . S
C576 C579 1.399 . S
C576 C580 1.383 . S
C576 C583 1.496 . S
C577 C578 1.398 1_554 S
C577 C580 1.386 1_554 S
C578 C577 1.398 1_556 S
C578 C581 1.380 . S
C578 H588 0.929 1_556 S
C579 C576 1.399 . S
C579 C581 1.392 . S
C579 H589 0.929 . S
C580 C576 1.383 . S
C580 C577 1.386 1_556 S
C580 H590 0.931 . S
C581 C578 1.380 . S
C581 C579 1.392 . S
C581 H591 0.929 . S
C582 O562 1.266 1_455 S
C582 O563 1.248 . S
C583 Tb519 2.802 . S
C583 O558 1.264 . S
C583 O561 1.256 . S
C583 C576 1.496 . S
H584 C567 0.929 . S
H585 C568 0.929 . S
H586 C569 0.929 . S
H587 C570 0.931 . S
H588 C578 0.929 1_554 S
H589 C579 0.929 . S
H590 C580 0.931 . S
H591 C581 0.929 . S
C592 C593 1.387 . S
C592 H596 0.950 . S
C592 C601 1.390 . S
C593 C592 1.387 . S
C593 C595 1.417 . S
H594 C601 0.950 . S
C595 C593 1.417 . S
C595 C597 1.386 1_545 S
C595 H599 0.925 1_545 S
H596 C592 0.950 . S
C597 C595 1.386 1_565 S
C597 C598 1.387 1_565 S
C597 H600 0.950 . S
C598 C597 1.387 1_545 S
C598 C601 1.387 . S
H599 C595 0.925 1_565 S
H600 C597 0.950 . S
C601 C592 1.390 . S
C601 H594 0.950 . S
C601 C598 1.387 . S
C602 C603 1.387 . S
C602 H606 0.950 . S
C602 C611 1.390 . S
C603 C602 1.387 . S
C603 C605 1.387 . S
H604 C611 0.950 . S
C605 C603 1.387 . S
C605 C607 1.390 . S
C605 H609 0.950 . S
H606 C602 0.950 . S
C607 C605 1.390 . S
C607 C608 1.387 . S
C607 H610 0.950 . S
C608 C607 1.387 . S
C608 C611 1.387 . S
H609 C605 0.950 . S
H610 C607 0.950 . S
C611 C602 1.390 . S
C611 H604 0.950 . S
C611 C608 1.387 . S
C612 C613 1.387 . S
C612 H616 0.950 . S
C612 C621 1.390 . S
C613 C612 1.387 . S
C613 C615 1.387 . S
H614 C621 0.950 . S
C615 C613 1.387 . S
C615 C617 1.390 . S
C615 H619 0.950 . S
H616 C612 0.950 . S
C617 C615 1.390 . S
C617 C618 1.387 . S
C617 H620 0.950 . S
C618 C617 1.387 . S
C618 C621 1.387 . S
H619 C615 0.950 . S
H620 C617 0.950 . S
C621 C612 1.390 . S
C621 H614 0.950 . S
C621 C618 1.387 . S
C622 C623 1.387 . S
C622 H626 0.950 . S
C622 C631 1.390 . S
C623 C622 1.387 . S
C623 C625 1.387 . S
H624 C631 0.950 . S
C625 C623 1.387 . S
C625 C627 1.390 . S
C625 H629 0.950 . S
H626 C622 0.950 . S
C627 C625 1.390 . S
C627 C628 1.387 . S
C627 H630 0.950 . S
C628 C627 1.387 . S
C628 C631 1.387 . S
H629 C625 0.950 . S
H630 C627 0.950 . S
C631 C622 1.390 . S
C631 H624 0.950 . S
C631 C628 1.387 . S
C632 C633 1.387 . S
C632 H636 0.950 . S
C632 C641 1.390 1_554 S
C633 C632 1.387 . S
C633 C635 1.387 1_565 S
H634 C641 0.950 . S
C635 C633 1.387 1_545 S
C635 C637 1.390 1_554 S
C635 H639 0.950 . S
H636 C632 0.950 . S
C637 C635 1.390 1_556 S
C637 C638 1.387 1_545 S
C637 H640 0.950 . S
C638 C637 1.387 1_565 S
C638 C641 1.387 . S
H639 C635 0.950 . S
H640 C637 0.950 . S
C641 C632 1.390 1_556 S
C641 H634 0.950 . S
C641 C638 1.387 . S
C642 C643 1.387 . S
C642 H646 0.950 . S
C642 C651 1.390 . S
C643 C642 1.387 . S
C643 C645 1.387 . S
H644 C651 0.950 1_556 S
C645 C643 1.387 . S
C645 C647 1.390 1_554 S
C645 H649 0.950 . S
H646 C642 0.950 . S
C647 C645 1.390 1_556 S
C647 C648 1.387 . S
C647 H650 0.950 . S
C648 C647 1.387 . S
C648 C651 1.387 1_556 S
H649 C645 0.950 . S
H650 C647 0.950 . S
C651 C642 1.390 . S
C651 H644 0.950 1_554 S
C651 C648 1.387 1_554 S
C652 C653 1.387 . S
C652 H656 0.950 . S
C652 C661 1.390 . S
C653 C652 1.387 . S
C653 C655 1.387 . S
H654 C661 0.950 1_556 S
C655 C653 1.387 . S
C655 C657 1.390 1_554 S
C655 H659 0.950 . S
H656 C652 0.950 . S
C657 C655 1.390 1_556 S
C657 C658 1.387 . S
C657 H660 0.950 . S
C658 C657 1.387 . S
C658 C661 1.387 1_556 S
H659 C655 0.950 . S
H660 C657 0.950 . S
C661 C652 1.390 . S
C661 H654 0.950 1_554 S
C661 C658 1.387 1_554 S
C662 C663 1.387 . S
C662 H666 0.950 . S
C662 C671 1.390 1_554 S
C663 C662 1.387 . S
C663 C665 1.387 1_655 S
H664 C671 0.950 . S
C665 C663 1.387 1_455 S
C665 C667 1.390 1_554 S
C665 H669 0.950 . S
H666 C662 0.950 . S
C667 C665 1.390 1_556 S
C667 C668 1.387 1_455 S
C667 H670 0.950 . S
C668 C667 1.387 1_655 S
C668 C671 1.387 . S
H669 C665 0.950 . S
H670 C667 0.950 . S
C671 C662 1.390 1_556 S
C671 H664 0.950 . S
C671 C668 1.387 . S
C672 C673 1.387 . S
C672 H676 0.950 . S
C672 C681 1.390 . S
C673 C672 1.387 . S
C673 C675 1.387 . S
H674 C681 0.950 1_655 S
C675 C673 1.387 . S
C675 C677 1.397 . S
C675 H679 0.950 . S
H676 C672 0.950 . S
C677 C675 1.397 . S
C677 C678 1.385 1_455 S
C677 H680 0.946 1_455 S
C678 C677 1.385 1_655 S
C678 C681 1.387 1_655 S
H679 C675 0.950 . S
H680 C677 0.946 1_655 S
C681 C672 1.390 . S
C681 H674 0.950 1_455 S
C681 C678 1.387 1_455 S
C682 C683 1.387 . S
C682 H686 0.950 . S
C682 C691 1.390 . S
C683 C682 1.387 . S
C683 C685 1.387 . S
H684 C691 0.950 . S
C685 C683 1.387 . S
C685 C687 1.390 1_545 S
C685 H689 0.950 . S
H686 C682 0.950 . S
C687 C685 1.390 1_565 S
C687 C688 1.387 . S
C687 H690 0.950 . S
C688 C687 1.387 . S
C688 C691 1.387 1_565 S
H689 C685 0.950 . S
H690 C687 0.950 . S
C691 C682 1.390 . S
C691 H684 0.950 . S
C691 C688 1.387 1_545 S
C692 C693 1.387 . S
C692 H696 0.950 . S
C692 C701 1.390 . S
C693 C692 1.387 . S
C693 C695 1.387 . S
H694 C701 0.950 . S
C695 C693 1.387 . S
C695 C697 1.390 . S
C695 H699 0.950 . S
H696 C692 0.950 . S
C697 C695 1.390 . S
C697 C698 1.387 . S
C697 H700 0.950 . S
C698 C697 1.387 . S
C698 C701 1.387 . S
H699 C695 0.950 . S
H700 C697 0.950 . S
C701 C692 1.390 . S
C701 H694 0.950 . S
C701 C698 1.387 . S
C702 C703 1.387 . S
C702 H706 0.950 . S
C702 C711 1.390 . S
C703 C702 1.387 . S
C703 C705 1.387 . S
H704 C711 0.950 . S
C705 C703 1.387 . S
C705 C707 1.390 . S
C705 H709 0.950 . S
H706 C702 0.950 . S
C707 C705 1.390 . S
C707 C708 1.387 . S
C707 H710 0.950 . S
C708 C707 1.387 . S
C708 C711 1.387 . S
H709 C705 0.950 . S
H710 C707 0.950 . S
C711 C702 1.390 . S
C711 H704 0.950 . S
C711 C708 1.387 . S
C712 C713 1.387 . S
C712 H716 0.950 1_554 S
C712 C721 1.390 1_654 S
C713 C712 1.387 . S
C713 C715 1.387 . S
H714 C721 0.950 . S
C715 C713 1.387 . S
C715 C717 1.390 1_655 S
C715 H719 0.950 . S
H716 C712 0.950 1_556 S
C717 C715 1.390 1_455 S
C717 C718 1.387 . S
C717 H720 0.950 . S
C718 C717 1.387 . S
C718 C721 1.387 1_554 S
H719 C715 0.950 . S
H720 C717 0.950 . S
C721 C712 1.390 1_456 S
C721 H714 0.950 . S
C721 C718 1.387 1_556 S
C722 C723 1.387 . S
C722 H726 0.950 . S
C722 C731 1.390 1_565 S
C723 C722 1.387 . S
C723 C725 1.387 . S
H724 C731 0.950 . S
C725 C723 1.387 . S
C725 C727 1.390 1_564 S
C725 H729 0.950 1_554 S
H726 C722 0.950 . S
C727 C725 1.390 1_546 S
C727 C728 1.387 1_556 S
C727 H730 0.950 . S
C728 C727 1.387 1_554 S
C728 C731 1.387 . S
H729 C725 0.950 1_556 S
H730 C727 0.950 . S
C731 C722 1.390 1_545 S
C731 H724 0.950 . S
C731 C728 1.387 . S
C732 C733 1.387 . S
C732 H736 0.950 1_554 S
C732 C741 1.390 1_554 S
C733 C732 1.387 . S
C733 C735 1.387 . S
H734 C741 0.950 . S
C735 C733 1.387 . S
C735 C737 1.390 . S
C735 H739 0.950 . S
H736 C732 0.950 1_556 S
C737 C735 1.390 . S
C737 C738 1.387 . S
C737 H740 0.950 . S
C738 C737 1.387 . S
C738 C741 1.387 1_554 S
H739 C735 0.950 . S
H740 C737 0.950 . S
C741 C732 1.390 1_556 S
C741 H734 0.950 . S
C741 C738 1.387 1_556 S
C742 C743 1.387 . S
C742 H746 0.950 . S
C742 C751 1.390 . S
C743 C742 1.387 . S
C743 C745 1.387 . S
H744 C751 0.950 . S
C745 C743 1.387 . S
C745 C747 1.390 1_554 S
C745 H749 0.950 1_554 S
H746 C742 0.950 . S
C747 C745 1.390 1_556 S
C747 C748 1.387 1_556 S
C747 H750 0.950 . S
C748 C747 1.387 1_554 S
C748 C751 1.387 . S
H749 C745 0.950 1_556 S
H750 C747 0.950 . S
C751 C742 1.390 . S
C751 H744 0.950 . S
C751 C748 1.387 . S
C752 C753 1.387 . S
C752 H756 0.950 1_455 S
C752 C761 1.390 . S
C753 C752 1.387 . S
C753 C755 1.387 . S
H754 C761 0.950 1_655 S
C755 C753 1.387 . S
C755 C757 1.390 . S
C755 H759 0.950 . S
H756 C752 0.950 1_655 S
C757 C755 1.390 . S
C757 C758 1.387 . S
C757 H760 0.950 . S
C758 C757 1.387 . S
C758 C761 1.387 . S
H759 C755 0.950 . S
H760 C757 0.950 . S
C761 C752 1.390 . S
C761 H754 0.950 1_455 S
C761 C758 1.387 . S
C762 C763 1.387 . S
C762 H766 0.950 1_545 S
C762 C771 1.390 . S
C763 C762 1.387 . S
C763 C765 1.387 . S
H764 C771 0.950 1_565 S
C765 C763 1.387 . S
C765 C767 1.390 . S
C765 H769 0.950 . S
H766 C762 0.950 1_565 S
C767 C765 1.390 . S
C767 C768 1.387 . S
C767 H770 0.950 . S
C768 C767 1.387 . S
C768 C771 1.387 . S
H769 C765 0.950 . S
H770 C767 0.950 . S
C771 C762 1.390 . S
C771 H764 0.950 1_545 S
C771 C768 1.387 . S
C772 C773 1.387 . S
C772 H776 0.950 . S
C772 C781 1.390 . S
C773 C772 1.387 . S
C773 C775 1.387 . S
H774 C781 0.950 . S
C775 C773 1.387 . S
C775 C777 1.390 . S
C775 H779 0.950 . S
H776 C772 0.950 . S
C777 C775 1.390 . S
C777 C778 1.387 . S
C777 H780 0.950 . S
C778 C777 1.387 . S
C778 C781 1.387 . S
H779 C775 0.950 . S
H780 C777 0.950 . S
C781 C772 1.390 . S
C781 H774 0.950 . S
C781 C778 1.387 . S
C782 C783 1.387 . S
C782 H786 0.950 . S
C782 C791 1.390 . S
C783 C782 1.387 . S
C783 C785 1.387 . S
H784 C791 0.950 . S
C785 C783 1.387 . S
C785 C787 1.390 . S
C785 H789 0.950 . S
H786 C782 0.950 . S
C787 C785 1.390 . S
C787 C788 1.387 . S
C787 H790 0.950 . S
C788 C787 1.387 . S
C788 C791 1.387 . S
H789 C785 0.950 . S
H790 C787 0.950 . S
C791 C782 1.390 . S
C791 H784 0.950 . S
C791 C788 1.387 . S
C792 C793 1.387 1_455 S
C792 H796 0.950 . S
C792 C801 1.390 . S
C793 C792 1.387 1_655 S
C793 C795 1.387 . S
H794 C801 0.950 . S
C795 C793 1.387 . S
C795 C797 1.390 . S
C795 H799 0.950 . S
H796 C792 0.950 . S
C797 C795 1.390 . S
C797 C798 1.387 . S
C797 H800 0.950 . S
C798 C797 1.387 . S
C798 C801 1.387 1_655 S
H799 C795 0.950 . S
H800 C797 0.950 . S
C801 C792 1.390 . S
C801 H794 0.950 . S
C801 C798 1.387 1_455 S
C802 C803 1.387 . S
C802 H806 0.950 . S
C802 C811 1.390 . S
C803 C802 1.387 . S
C803 C805 1.387 . S
H804 C811 0.950 1_545 S
C805 C803 1.387 . S
C805 C807 1.390 . S
C805 H809 0.950 . S
H806 C802 0.950 . S
C807 C805 1.390 . S
C807 C808 1.387 . S
C807 H810 0.950 . S
C808 C807 1.387 . S
C808 C811 1.387 . S
H809 C805 0.950 . S
H810 C807 0.950 . S
C811 C802 1.390 . S
C811 H804 0.950 1_565 S
C811 C808 1.387 . S
C812 C813 1.387 . S
C812 H816 0.950 . S
C812 C821 1.390 . S
C813 C812 1.387 . S
C813 C815 1.387 . S
H814 C821 0.950 . S
C815 C813 1.387 . S
C815 C817 1.390 . S
C815 H819 0.950 . S
H816 C812 0.950 . S
C817 C815 1.390 . S
C817 C818 1.387 . S
C817 H820 0.950 . S
C818 C817 1.387 . S
C818 C821 1.387 . S
H819 C815 0.950 . S
H820 C817 0.950 . S
C821 C812 1.390 . S
C821 H814 0.950 . S
C821 C818 1.387 . S
C822 C823 1.387 . S
C822 H826 0.950 . S
C822 C831 1.390 . S
C823 C822 1.387 . S
C823 C825 1.387 . S
H824 C831 0.950 . S
C825 C823 1.387 . S
C825 C827 1.390 . S
C825 H829 0.950 . S
H826 C822 0.950 . S
C827 C825 1.390 . S
C827 C828 1.387 . S
C827 H830 0.950 . S
C828 C827 1.387 . S
C828 C831 1.387 . S
H829 C825 0.950 . S
H830 C827 0.950 . S
C831 C822 1.390 . S
C831 H824 0.950 . S
C831 C828 1.387 . S
C593 C215 2.390 . S
C598 C319 2.585 . S
C608 C396 2.579 . S
C603 C247 2.397 . S
C618 C487 2.589 . S
C613 C151 2.392 . S
C628 C571 2.570 . S
C623 C183 2.377 . S
C638 C330 2.586 1_565 S
C633 C87 2.332 . S
C643 C119 2.334 . S
C648 C407 2.579 . S
C653 C23 2.334 . S
C658 C498 2.590 . S
C663 C55 2.320 . S
C668 C582 2.571 1_655 S
C678 C314 0.768 . S
C673 C189 0.770 . S
C688 C409 0.758 . S
C683 C221 0.757 . S
C698 C482 0.783 . S
C693 C253 0.785 . S
C703 C157 0.759 . S
C708 C566 0.762 . S
C713 C61 0.753 . S
C718 C325 0.761 1_554 S
C728 C398 0.758 . S
C723 C93 0.757 . S
C738 C493 0.786 . S
C733 C125 0.761 . S
C743 C29 0.758 . S
C748 C577 0.763 . S
C753 C177 2.589 . S
C758 C323 2.897 . S
C763 C209 2.595 . S
C768 C414 2.981 . S
C778 C491 2.916 . S
C773 C241 2.608 . S
C788 C575 2.919 . S
C783 C145 2.612 . S
C793 C49 2.564 . S
C798 C312 2.898 . S
C808 C403 2.981 . S
C803 C81 2.564 . S
C818 C480 2.916 . S
C813 C113 2.576 . S
C823 C17 2.584 . S
C828 C564 2.919 . S
