# Generated by pormake.
# Topology pto, (3,4)-cn, num edge types: 1
# Building blocks:
#     Node 0, Type 0, BuildingBlock: CUQRIR_clean_linker_1, # of connection points: 3
#     Node 1, Type 0, BuildingBlock: CUQRIR_clean_linker_1, # of connection points: 3
#     Node 2, Type 0, BuildingBlock: CUQRIR_clean_linker_1, # of connection points: 3
#     Node 3, Type 0, BuildingBlock: CUQRIR_clean_linker_1, # of connection points: 3
#     Node 4, Type 0, BuildingBlock: CUQRIR_clean_linker_1, # of connection points: 3
#     Node 5, Type 0, BuildingBlock: CUQRIR_clean_linker_1, # of connection points: 3
#     Node 6, Type 0, BuildingBlock: CUQRIR_clean_linker_1, # of connection points: 3
#     Node 7, Type 0, BuildingBlock: CUQRIR_clean_linker_1, # of connection points: 3
#     Node 8, Type 1, BuildingBlock: KOZSID_clean_sbu_0, # of connection points: 4
#     Node 9, Type 1, BuildingBlock: KOZSID_clean_sbu_0, # of connection points: 4
#     Node 10, Type 1, BuildingBlock: KOZSID_clean_sbu_0, # of connection points: 4
#     Node 11, Type 1, BuildingBlock: KOZSID_clean_sbu_0, # of connection points: 4
#     Node 12, Type 1, BuildingBlock: KOZSID_clean_sbu_0, # of connection points: 4
#     Node 13, Type 1, BuildingBlock: KOZSID_clean_sbu_0, # of connection points: 4
#     Edge 14, Type (0, 1), BuildingBlock: XUDNAN_clean_linker_2, # of connection points: 2
#     Edge 15, Type (0, 1), BuildingBlock: XUDNAN_clean_linker_2, # of connection points: 2
#     Edge 16, Type (0, 1), BuildingBlock: XUDNAN_clean_linker_2, # of connection points: 2
#     Edge 17, Type (0, 1), BuildingBlock: XUDNAN_clean_linker_2, # of connection points: 2
#     Edge 18, Type (0, 1), BuildingBlock: XUDNAN_clean_linker_2, # of connection points: 2
#     Edge 19, Type (0, 1), BuildingBlock: XUDNAN_clean_linker_2, # of connection points: 2
#     Edge 20, Type (0, 1), BuildingBlock: XUDNAN_clean_linker_2, # of connection points: 2
#     Edge 21, Type (0, 1), BuildingBlock: XUDNAN_clean_linker_2, # of connection points: 2
#     Edge 22, Type (0, 1), BuildingBlock: XUDNAN_clean_linker_2, # of connection points: 2
#     Edge 23, Type (0, 1), BuildingBlock: XUDNAN_clean_linker_2, # of connection points: 2
#     Edge 24, Type (0, 1), BuildingBlock: XUDNAN_clean_linker_2, # of connection points: 2
#     Edge 25, Type (0, 1), BuildingBlock: XUDNAN_clean_linker_2, # of connection points: 2
#     Edge 26, Type (0, 1), BuildingBlock: XUDNAN_clean_linker_2, # of connection points: 2
#     Edge 27, Type (0, 1), BuildingBlock: XUDNAN_clean_linker_2, # of connection points: 2
#     Edge 28, Type (0, 1), BuildingBlock: XUDNAN_clean_linker_2, # of connection points: 2
#     Edge 29, Type (0, 1), BuildingBlock: XUDNAN_clean_linker_2, # of connection points: 2
#     Edge 30, Type (0, 1), BuildingBlock: XUDNAN_clean_linker_2, # of connection points: 2
#     Edge 31, Type (0, 1), BuildingBlock: XUDNAN_clean_linker_2, # of connection points: 2
#     Edge 32, Type (0, 1), BuildingBlock: XUDNAN_clean_linker_2, # of connection points: 2
#     Edge 33, Type (0, 1), BuildingBlock: XUDNAN_clean_linker_2, # of connection points: 2
#     Edge 34, Type (0, 1), BuildingBlock: XUDNAN_clean_linker_2, # of connection points: 2
#     Edge 35, Type (0, 1), BuildingBlock: XUDNAN_clean_linker_2, # of connection points: 2
#     Edge 36, Type (0, 1), BuildingBlock: XUDNAN_clean_linker_2, # of connection points: 2
#     Edge 37, Type (0, 1), BuildingBlock: XUDNAN_clean_linker_2, # of connection points: 2
# Relax obj value: 0.020
# Max RMSD: 0.180
# Mean RMSD: 0.078
data_MOF--net-pto--node1-KOZSID_clean_sbu_0--node2-CUQRIR_clean_linker_1--edge1-XUDNAN_clean_linker_2
_symmetry_space_group_name_H-M    P1
_symmetry_Int_Tables_number       1
_symmetry_cell_setting            triclinic
loop_
_symmetry_equiv_pos_as_xyz
'x, y, z'
_cell_length_a     36.293656
_cell_length_b     46.701034
_cell_length_c     41.214118
_cell_angle_alpha  77.842716
_cell_angle_beta   92.506818
_cell_angle_gamma 98.939343
loop_
_atom_site_label
_atom_site_type_symbol
_atom_site_fract_x
_atom_site_fract_y
_atom_site_fract_z
_atom_type_partial_charge
C0 C 0.29379 0.27954 0.2983 0.0
N1 N 0.31334 0.26204 0.28557 0.0
N2 N 0.29252 0.30555 0.27668 0.0
C3 C 0.27443 0.27097 0.33124 0.0
C4 C 0.3119 0.30334 0.25019 0.0
N5 N 0.32433 0.27676 0.25542 0.0
C6 C 0.32153 0.32814 0.22066 0.0
H7 H 0.24995 0.28266 0.33071 0.0
H8 H 0.29408 0.27745 0.35073 0.0
H9 H 0.26513 0.24671 0.33786 0.0
H10 H 0.31899 0.34993 0.22633 0.0
H11 H 0.30203 0.32444 0.19994 0.0
H12 H 0.35032 0.32855 0.21234 0.0
C13 C 0.29983 0.7631 0.71497 0.0
N14 N 0.32849 0.77759 0.72999 0.0
N15 N 0.28582 0.73727 0.73512 0.0
C16 C 0.28569 0.77418 0.6804 0.0
C17 C 0.30734 0.73645 0.76297 0.0
N18 N 0.33354 0.76101 0.75981 0.0
C19 C 0.30074 0.71297 0.79413 0.0
H20 H 0.26528 0.78931 0.68159 0.0
H21 H 0.27174 0.75559 0.66928 0.0
H22 H 0.30875 0.78684 0.66409 0.0
H23 H 0.31956 0.69633 0.7944 0.0
H24 H 0.27151 0.70152 0.79527 0.0
H25 H 0.30706 0.7227 0.81646 0.0
C26 C 0.88468 0.78677 0.35508 0.0
N27 N 0.87489 0.77645 0.32695 0.0
N28 N 0.86803 0.81072 0.35594 0.0
C29 C 0.91288 0.77519 0.38026 0.0
C30 C 0.84772 0.81454 0.32742 0.0
N31 N 0.85195 0.79388 0.30984 0.0
C32 C 0.82307 0.83804 0.31708 0.0
H33 H 0.89883 0.75577 0.39807 0.0
H34 H 0.92532 0.79224 0.39427 0.0
H35 H 0.93541 0.76792 0.36804 0.0
H36 H 0.83965 0.85805 0.3021 0.0
H37 H 0.81235 0.8442 0.33908 0.0
H38 H 0.79925 0.83044 0.30162 0.0
C39 C 0.76991 0.2233 0.75833 0.0
N40 N 0.79576 0.24256 0.73866 0.0
N41 N 0.73793 0.23458 0.75855 0.0
C42 C 0.77541 0.19277 0.77654 0.0
C43 C 0.74511 0.26135 0.7381 0.0
N44 N 0.78092 0.26721 0.72721 0.0
C45 C 0.71662 0.28208 0.72928 0.0
H46 H 0.78231 0.17973 0.75862 0.0
H47 H 0.75007 0.1809 0.79034 0.0
H48 H 0.79927 0.19449 0.79415 0.0
H49 H 0.70998 0.29005 0.75157 0.0
H50 H 0.69033 0.26982 0.7212 0.0
H51 H 0.72655 0.30119 0.70909 0.0
C52 C 0.80812 0.73879 0.77305 0.0
N53 N 0.82868 0.75075 0.7455 0.0
N54 N 0.79005 0.75918 0.78184 0.0
C55 C 0.80542 0.70711 0.79151 0.0
C56 C 0.8001 0.78396 0.75846 0.0
N57 N 0.8233 0.77885 0.73605 0.0
C58 C 0.79187 0.81416 0.76047 0.0
H59 H 0.77947 0.70033 0.80623 0.0
H60 H 0.82963 0.70484 0.80874 0.0
H61 H 0.80598 0.69211 0.77399 0.0
H62 H 0.81165 0.82324 0.77839 0.0
H63 H 0.76319 0.81274 0.76949 0.0
H64 H 0.79503 0.82965 0.73599 0.0
C65 C 0.82089 0.258 0.28662 0.0
N66 N 0.85176 0.26572 0.30432 0.0
N67 N 0.80954 0.28223 0.2671 0.0
C68 C 0.80109 0.22677 0.28938 0.0
C69 C 0.83454 0.30507 0.27376 0.0
N70 N 0.8601 0.29509 0.2967 0.0
C71 C 0.83616 0.33673 0.25536 0.0
H72 H 0.81371 0.21621 0.27175 0.0
H73 H 0.77098 0.22649 0.28323 0.0
H74 H 0.80416 0.21347 0.31477 0.0
H75 H 0.82089 0.34872 0.26964 0.0
H76 H 0.82304 0.33797 0.23039 0.0
H77 H 0.86543 0.34805 0.25254 0.0
C78 C 0.25446 0.26433 0.74268 0.0
N79 N 0.26846 0.23915 0.7427 0.0
N80 N 0.23969 0.27468 0.71255 0.0
C81 C 0.25691 0.27963 0.77159 0.0
C82 C 0.24574 0.25503 0.6941 0.0
N83 N 0.26348 0.23347 0.71244 0.0
C84 C 0.23225 0.2559 0.65894 0.0
H85 H 0.23109 0.27189 0.78635 0.0
H86 H 0.25936 0.304 0.76285 0.0
H87 H 0.28098 0.27441 0.78809 0.0
H88 H 0.25501 0.26772 0.6418 0.0
H89 H 0.2078 0.26782 0.6535 0.0
H90 H 0.22463 0.23316 0.65429 0.0
C91 C 0.3326 0.79535 0.31026 0.0
N92 N 0.33575 0.77746 0.28884 0.0
N93 N 0.36364 0.81583 0.3097 0.0
C94 C 0.29881 0.79371 0.3309 0.0
C95 C 0.38582 0.80946 0.28728 0.0
N96 N 0.36887 0.78617 0.27461 0.0
C97 C 0.42324 0.82697 0.27639 0.0
H98 H 0.29134 0.81619 0.32884 0.0
H99 H 0.30553 0.7851 0.35732 0.0
H100 H 0.27441 0.77884 0.32377 0.0
H101 H 0.43479 0.84108 0.29405 0.0
H102 H 0.42024 0.84112 0.25145 0.0
H103 H 0.44349 0.81196 0.27443 0.0
C104 C 0.15 0.5821 0.318 0.0
C105 C 0.16506 0.59214 0.34591 0.0
C106 C 0.14159 0.57897 0.37169 0.0
C107 C 0.11353 0.56165 0.35831 0.0
N108 N 0.11822 0.56258 0.3258 0.0
Co109 Co 0.08236 0.54215 0.29709 0.0
N110 N 0.0558 0.516 0.33602 0.0
C111 C 0.05717 0.52057 0.36719 0.0
C112 C 0.03698 0.4977 0.38893 0.0
C113 C 0.0222 0.4775 0.37019 0.0
C114 C 0.03423 0.4893 0.33801 0.0
N115 N 0.04637 0.5217 0.26881 0.0
C116 C 0.0256 0.49457 0.27654 0.0
C117 C 0.0048 0.48786 0.24937 0.0
C118 C 0.01335 0.5117 0.22362 0.0
C119 C 0.03873 0.53155 0.23655 0.0
N120 N 0.10868 0.56804 0.25778 0.0
C121 C 0.09561 0.57197 0.22625 0.0
C122 C 0.12001 0.59074 0.20407 0.0
C123 C 0.14991 0.59973 0.22283 0.0
C124 C 0.1419 0.58618 0.25566 0.0
N125 N 0.1156 0.51275 0.29751 0.0
C126 C 0.16198 0.46959 0.29847 0.0
C127 C 0.14629 0.48338 0.26865 0.0
C128 C 0.1232 0.50474 0.26873 0.0
C129 C 0.15369 0.47797 0.32779 0.0
C130 C 0.13075 0.49959 0.32675 0.0
N131 N 0.04905 0.57177 0.29666 0.0
C132 C 0.04136 0.62305 0.28967 0.0
C133 C 0.00295 0.61529 0.29449 0.0
C134 C 0.98796 0.58512 0.30115 0.0
C135 C 0.01148 0.56368 0.30182 0.0
C136 C 0.06373 0.60115 0.29107 0.0
H137 H 0.99928 0.54061 0.30625 0.0
H138 H 0.09301 0.60827 0.28738 0.0
H139 H 0.11146 0.51472 0.24542 0.0
H140 H 0.12501 0.50546 0.34973 0.0
C141 C 0.08407 0.54259 0.37599 0.0
C142 C 0.16312 0.59538 0.284 0.0
C143 C 0.02452 0.47527 0.30954 0.0
C144 C 0.06223 0.55541 0.21802 0.0
H145 H 0.1896 0.60825 0.34739 0.0
H146 H 0.14461 0.58179 0.39712 0.0
H147 H 0.03519 0.49509 0.41557 0.0
H148 H 0.00516 0.45638 0.37925 0.0
H149 H 0.98601 0.46768 0.2482 0.0
H150 H 0.00409 0.51343 0.19806 0.0
H151 H 0.11659 0.59702 0.17742 0.0
H152 H 0.1741 0.61559 0.21363 0.0
H153 H 0.15212 0.47807 0.24524 0.0
H154 H 0.16444 0.46769 0.3516 0.0
H155 H 0.05419 0.64607 0.28484 0.0
H156 H 0.9583 0.57823 0.30494 0.0
C157 C 0.0847 0.55519 0.72642 0.0
C158 C 0.09891 0.55997 0.75702 0.0
C159 C 0.07929 0.539 0.78059 0.0
C160 C 0.05424 0.52278 0.76318 0.0
N161 N 0.05689 0.53178 0.72985 0.0
Co162 Co 0.02419 0.51536 0.69545 0.0
N163 N 0.99466 0.48504 0.73035 0.0
C164 C 1.00012 0.48099 0.76361 0.0
C165 C 0.97875 0.45642 0.78129 0.0
C166 C 0.95851 0.44377 0.75802 0.0
C167 C 0.96826 0.46173 0.72726 0.0
N168 N 0.99109 0.49905 0.66112 0.0
C169 C 0.96334 0.47546 0.66457 0.0
C170 C 0.94755 0.47186 0.63414 0.0
C171 C 0.96648 0.49344 0.61057 0.0
C172 C 0.99249 0.50911 0.62783 0.0
N173 N 0.05432 0.54526 0.66052 0.0
C174 C 0.04989 0.54863 0.62722 0.0
C175 C 0.07436 0.57133 0.60959 0.0
C176 C 0.09549 0.58336 0.63299 0.0
C177 C 0.08253 0.5673 0.66366 0.0
N178 N 0.05861 0.48649 0.69372 0.0
C179 C 0.10589 0.44451 0.69067 0.0
C180 C 0.09085 0.46025 0.66186 0.0
C181 C 0.06758 0.4809 0.66394 0.0
C182 C 0.09699 0.45027 0.72111 0.0
C183 C 0.0736 0.47125 0.72206 0.0
N184 N 0.99001 0.54465 0.69699 0.0
C185 C 0.96081 0.58638 0.66853 0.0
C186 C 0.94973 0.59182 0.69847 0.0
C187 C 0.95813 0.57231 0.72773 0.0
C188 C 0.97807 0.54907 0.72644 0.0
C189 C 0.98011 0.56279 0.66835 0.0
H190 H 0.98396 0.5352 0.74956 0.0
H191 H 0.98745 0.5602 0.6446 0.0
H192 H 0.05699 0.49186 0.64102 0.0
H193 H 0.06798 0.47473 0.74598 0.0
C194 C 0.02765 0.49921 0.77744 0.0
C195 C 0.09719 0.57443 0.695 0.0
C196 C 0.95147 0.4556 0.69596 0.0
C197 C 0.02054 0.53171 0.6134 0.0
H198 H 0.12068 0.5772 0.76195 0.0
H199 H 0.08245 0.53622 0.80726 0.0
H200 H 0.97887 0.44809 0.80787 0.0
H201 H 0.93928 0.42325 0.76324 0.0
H202 H 0.92513 0.45503 0.62937 0.0
H203 H 0.96245 0.4968 0.58393 0.0
H204 H 0.07594 0.57879 0.58291 0.0
H205 H 0.1175 0.60218 0.62812 0.0
H206 H 0.09641 0.45632 0.63769 0.0
H207 H 0.10831 0.43888 0.74414 0.0
H208 H 0.95563 0.60071 0.64503 0.0
H209 H 0.94945 0.57486 0.75163 0.0
C210 C 0.39598 0.98728 0.56753 0.0
C211 C 0.43026 0.98676 0.58388 0.0
C212 C 0.45129 0.01378 0.57262 0.0
C213 C 0.42877 0.02932 0.55027 0.0
N214 N 0.39494 0.01375 0.54658 0.0
Co215 Co 0.3535 0.02872 0.51825 0.0
N216 N 0.38799 0.06197 0.49208 0.0
C217 C 0.42289 0.07203 0.5012 0.0
C218 C 0.44048 0.09491 0.4779 0.0
C219 C 0.41492 0.09983 0.45269 0.0
C220 C 0.38284 0.0798 0.46224 0.0
N221 N 0.31208 0.04374 0.48985 0.0
C222 C 0.31309 0.06339 0.46042 0.0
C223 C 0.27735 0.06839 0.44977 0.0
C224 C 0.25332 0.05135 0.47342 0.0
C225 C 0.27556 0.03701 0.49718 0.0
N226 N 0.31899 0.99564 0.54472 0.0
C227 C 0.28162 0.99373 0.54564 0.0
C228 C 0.26486 0.96752 0.56446 0.0
C229 C 0.29346 0.95214 0.57646 0.0
C230 C 0.32638 0.97014 0.56478 0.0
N231 N 0.34604 0.05379 0.54933 0.0
C232 C 0.33021 0.08802 0.594 0.0
C233 C 0.33105 0.09954 0.55968 0.0
C234 C 0.33921 0.08219 0.53787 0.0
C235 C 0.33871 0.05928 0.60538 0.0
C236 C 0.3463 0.04257 0.58276 0.0
N237 N 0.36061 1.00351 0.4873 0.0
C238 C 0.33481 0.9672 0.45552 0.0
C239 C 0.37007 0.96708 0.44331 0.0
C240 C 0.4006 0.98549 0.4535 0.0
C241 C 0.39536 1.00325 0.47587 0.0
C242 C 0.3306 0.98582 0.47711 0.0
H243 H 0.41939 0.01684 0.48384 0.0
H244 H 0.30293 0.98593 0.48543 0.0
H245 H 0.3392 0.09161 0.51165 0.0
H246 H 0.3518 0.02034 0.59244 0.0
C247 C 0.43999 0.05658 0.52907 0.0
C248 C 0.36409 0.96344 0.57491 0.0
C249 C 0.34724 0.08004 0.4438 0.0
C250 C 0.26307 0.01413 0.52383 0.0
H251 H 0.43901 0.96896 0.60245 0.0
H252 H 0.47989 0.02093 0.57935 0.0
H253 H 0.4689 0.10601 0.4786 0.0
H254 H 0.41937 0.11648 0.43004 0.0
H255 H 0.26946 0.08319 0.42754 0.0
H256 H 0.22317 0.04914 0.47291 0.0
H257 H 0.23529 0.95984 0.56772 0.0
H258 H 0.29012 0.93012 0.59188 0.0
H259 H 0.32439 0.12149 0.54951 0.0
H260 H 0.33933 0.04954 0.63163 0.0
H261 H 0.31051 0.95348 0.44783 0.0
H262 H 0.42831 0.98595 0.44445 0.0
C263 C 0.53897 0.79036 0.07878 0.0
C264 C 0.53753 0.81724 0.08771 0.0
C265 C 0.56868 0.83608 0.07493 0.0
C266 C 0.58737 0.81976 0.05899 0.0
N267 N 0.56974 0.79191 0.06065 0.0
Co268 Co 0.58803 0.76083 0.04207 0.0
N269 N 0.62339 0.79069 0.01241 0.0
C270 C 0.63526 0.81869 0.01584 0.0
C271 C 0.66016 0.83409 0.99192 0.0
C272 C 0.66452 0.81446 0.97241 0.0
C273 C 0.64194 0.78806 0.98562 0.0
N274 N 0.60644 0.72975 0.02363 0.0
C275 C 0.62625 0.73223 0.99582 0.0
C276 C 0.63318 0.70467 0.99208 0.0
C277 C 0.61758 0.68439 0.01875 0.0
C278 C 0.60194 0.70057 0.03717 0.0
N279 N 0.55283 0.73096 0.07188 0.0
C280 C 0.55413 0.70166 0.08027 0.0
C281 C 0.5263 0.68647 0.1015 0.0
C282 C 0.50641 0.70756 0.1071 0.0
C283 C 0.52344 0.73455 0.089 0.0
N284 N 0.54967 0.76447 0.00707 0.0
C285 C 0.49837 0.77064 0.95377 0.0
C286 C 0.50321 0.74253 0.97228 0.0
C287 C 0.52895 0.73993 0.99876 0.0
C288 C 0.51959 0.79549 0.96302 0.0
C289 C 0.54469 0.79195 0.98969 0.0
N290 N 0.62685 0.75765 0.07684 0.0
C291 C 0.64724 0.76005 0.13283 0.0
C292 C 0.68452 0.76217 0.12391 0.0
C293 C 0.69206 0.7601 0.09152 0.0
C294 C 0.66292 0.75757 0.06854 0.0
C295 C 0.61885 0.75788 0.10893 0.0
H296 H 0.66988 0.75674 0.04366 0.0
H297 H 0.5906 0.75758 0.11618 0.0
H298 H 0.53235 0.71807 0.01229 0.0
H299 H 0.56061 0.81159 0.99583 0.0
C300 C 0.61834 0.83082 0.03857 0.0
C301 C 0.51286 0.76323 0.09083 0.0
C302 C 0.64189 0.76032 0.97425 0.0
C303 C 0.57819 0.68883 0.06405 0.0
H304 H 0.51653 0.82251 0.10243 0.0
H305 H 0.57629 0.85912 0.07644 0.0
H306 H 0.67286 0.85706 0.98849 0.0
H307 H 0.68269 0.8189 0.95123 0.0
H308 H 0.64829 0.69977 0.97234 0.0
H309 H 0.61671 0.6606 0.02353 0.0
H310 H 0.52043 0.66281 0.11098 0.0
H311 H 0.48237 0.70355 0.12296 0.0
H312 H 0.48715 0.72262 0.96655 0.0
H313 H 0.51754 0.81769 0.94936 0.0
H314 H 0.64017 0.76157 0.15762 0.0
H315 H 0.72045 0.76116 0.08373 0.0
C316 C 0.92558 0.99545 0.59504 0.0
C317 C 0.96097 0.98947 0.60581 0.0
C318 C 0.98555 0.01439 0.59355 0.0
C319 C 0.96421 0.03395 0.57532 0.0
N320 N 0.92771 0.02285 0.57531 0.0
Co321 Co 0.88804 0.04162 0.54801 0.0
N322 N 0.92508 0.06921 0.51781 0.0
C323 C 0.96166 0.07582 0.52472 0.0
C324 C 0.98043 0.09695 0.50041 0.0
C325 C 0.95397 0.10451 0.47685 0.0
C326 C 0.92032 0.08736 0.4881 0.0
N327 N 0.84806 0.0601 0.52074 0.0
C328 C 0.84959 0.0785 0.49041 0.0
C329 C 0.81467 0.08619 0.48073 0.0
C330 C 0.79096 0.07304 0.50639 0.0
C331 C 0.81244 0.05781 0.53012 0.0
N332 N 0.85145 0.01425 0.57864 0.0
C333 C 0.81604 0.01788 0.58277 0.0
C334 C 0.79751 0.99541 0.60603 0.0
C335 C 0.82289 0.97648 0.6171 0.0
C336 C 0.85553 0.9884 0.5997 0.0
N337 N 0.89026 0.07116 0.57617 0.0
C338 C 0.88689 0.11282 0.61612 0.0
C339 C 0.88635 0.12114 0.58142 0.0
C340 C 0.88824 0.10018 0.56205 0.0
C341 C 0.89034 0.08324 0.63037 0.0
C342 C 0.89194 0.06282 0.61003 0.0
N343 N 0.88535 0.01204 0.52005 0.0
C344 C 0.84919 0.97199 0.49882 0.0
C345 C 0.88152 0.96441 0.48769 0.0
C346 C 0.9157 0.98196 0.49174 0.0
C347 C 0.91706 1.00554 0.50822 0.0
C348 C 0.85162 0.9961 0.51439 0.0
H349 H 0.9439 0.01788 0.51232 0.0
H350 H 0.82621 1.00118 0.52285 0.0
H351 H 0.88739 0.10755 0.53553 0.0
H352 H 0.89372 0.0401 0.62173 0.0
C353 C 0.97814 0.05925 0.55212 0.0
C354 C 0.89036 0.9755 0.60483 0.0
C355 C 0.88409 0.09177 0.47201 0.0
C356 C 0.79946 0.03884 0.55977 0.0
H357 H 0.96879 0.96915 0.62023 0.0
H358 H 0.01567 0.01702 0.59562 0.0
H359 H 0.00991 0.10559 0.49967 0.0
H360 H 0.95888 0.12143 0.45449 0.0
H361 H 0.80726 0.10044 0.4579 0.0
H362 H 0.76148 0.07414 0.5074 0.0
H363 H 0.7685 0.99231 0.61291 0.0
H364 H 0.81784 0.95618 0.63568 0.0
H365 H 0.88445 0.14379 0.56917 0.0
H366 H 0.89071 0.07564 0.65706 0.0
H367 H 0.8222 0.95911 0.49586 0.0
H368 H 0.94133 0.97675 0.48348 0.0
C369 C 0.47823 0.26746 0.04866 0.0
C370 C 0.46769 0.29495 0.04785 0.0
C371 C 0.48488 0.31396 0.0212 0.0
C372 C 0.505 0.29717 0.00735 0.0
N373 N 0.50126 0.2684 0.02323 0.0
Co374 Co 0.52757 0.2367 0.01263 0.0
N375 N 0.55611 0.26548 0.97572 0.0
C376 C 0.55481 0.29489 0.96642 0.0
C377 C 0.57617 0.30858 0.93932 0.0
C378 C 0.59158 0.28657 0.93038 0.0
C379 C 0.57871 0.26059 0.9527 0.0
N380 N 0.55352 0.20495 1.00186 0.0
C381 C 0.5761 0.20583 0.9762 0.0
C382 C 0.58696 0.17847 0.97702 0.0
C383 C 0.56989 0.15941 0.00369 0.0
C384 C 0.54977 0.17617 0.01761 0.0
N385 N 0.49932 0.20798 0.04967 0.0
C386 C 0.50097 0.17866 0.05923 0.0
C387 C 0.47924 0.16485 0.08606 0.0
C388 C 0.46327 0.18676 0.09459 0.0
C389 C 0.47642 0.21279 0.07248 0.0
N390 N 0.48726 0.22756 0.9805 0.0
C391 C 0.43457 0.21482 0.93124 0.0
C392 C 0.44533 0.19213 0.95592 0.0
C393 C 0.47162 0.19894 0.98009 0.0
C394 C 0.44974 0.24397 0.93224 0.0
C395 C 0.47556 0.24979 0.95695 0.0
N396 N 0.56791 0.24591 0.04476 0.0
C397 C 0.60708 0.23012 0.09223 0.0
C398 C 0.61934 0.25949 0.09461 0.0
C399 C 0.6067 0.28189 0.07081 0.0
C400 C 0.5815 0.27469 0.04621 0.0
C401 C 0.58149 0.22387 0.06732 0.0
H402 H 0.57295 0.29286 0.02902 0.0
H403 H 0.57253 0.20107 0.06727 0.0
H404 H 0.47923 0.18066 0.99787 0.0
H405 H 0.48592 0.27247 0.95621 0.0
C406 C 0.5304 0.30836 0.98154 0.0
C407 C 0.46779 0.24167 0.07528 0.0
C408 C 0.58657 0.23156 0.94967 0.0
C409 C 0.52493 0.1651 0.04381 0.0
H410 H 0.45039 0.30097 0.06529 0.0
H411 H 0.48409 0.33751 0.01368 0.0
H412 H 0.57892 0.3316 0.92668 0.0
H413 H 0.60925 0.28919 0.90916 0.0
H414 H 0.6046 0.17275 0.95958 0.0
H415 H 0.57096 0.13591 0.01132 0.0
H416 H 0.47623 0.14179 0.09852 0.0
H417 H 0.44478 0.18407 0.11529 0.0
H418 H 0.43418 0.16918 0.95618 0.0
H419 H 0.44154 0.26236 0.9141 0.0
H420 H 0.61621 0.212 0.11013 0.0
H421 H 0.61611 0.305 0.07121 0.0
H422 H 0.23524 0.33193 0.24586 0.0
H423 H 0.31995 0.33659 0.3225 0.0
H424 H 0.29685 0.3801 0.33556 0.0
H425 H 0.23569 0.41135 0.21769 0.0
H426 H 0.18589 0.40807 0.2113 0.0
H427 H 0.21015 0.37821 0.20705 0.0
H428 H 0.16664 0.34188 0.25049 0.0
H429 H 0.14227 0.37161 0.25487 0.0
H430 H 0.16249 0.35015 0.29086 0.0
H431 H 0.26449 0.42273 0.34024 0.0
H432 H 0.22397 0.46079 0.33792 0.0
H433 H 0.15734 0.42697 0.26014 0.0
C434 C 0.24891 0.34244 0.26514 0.0
C435 C 0.2794 0.33131 0.28318 0.0
C436 C 0.29659 0.34508 0.30855 0.0
C437 C 0.28369 0.36971 0.31602 0.0
C438 C 0.25337 0.38015 0.29798 0.0
C439 C 0.23604 0.3669 0.27316 0.0
C440 C 0.2031 0.38189 0.25847 0.0
C441 C 0.20908 0.3957 0.22143 0.0
C442 C 0.16646 0.36008 0.26401 0.0
C443 C 0.20464 0.40557 0.27889 0.0
C444 C 0.234 0.40426 0.30137 0.0
C445 C 0.24125 0.42385 0.32288 0.0
C446 C 0.21779 0.44529 0.32155 0.0
C447 C 0.18706 0.44692 0.29906 0.0
C448 C 0.18069 0.4267 0.27741 0.0
H449 H 0.28199 0.67852 0.73684 0.0
H450 H 0.21688 0.75058 0.71936 0.0
H451 H 0.16197 0.71715 0.7042 0.0
H452 H 0.24311 0.64434 0.67028 0.0
H453 H 0.24279 0.60691 0.69325 0.0
H454 H 0.27692 0.63634 0.70302 0.0
H455 H 0.25555 0.62292 0.76427 0.0
H456 H 0.22174 0.5932 0.75477 0.0
H457 H 0.207 0.62115 0.77332 0.0
H458 H 0.11458 0.67613 0.69051 0.0
H459 H 0.07637 0.62907 0.68301 0.0
H460 H 0.17193 0.58341 0.70944 0.0
C461 C 0.25597 0.68699 0.73012 0.0
C462 C 0.25341 0.71702 0.72898 0.0
C463 C 0.21918 0.72764 0.71998 0.0
C464 C 0.188 0.70885 0.71136 0.0
C465 C 0.19154 0.67946 0.71203 0.0
C466 C 0.22451 0.66846 0.72149 0.0
C467 C 0.22064 0.63586 0.72051 0.0
C468 C 0.24747 0.63057 0.69526 0.0
C469 C 0.22658 0.61718 0.75529 0.0
C470 C 0.18041 0.63029 0.70903 0.0
C471 C 0.16418 0.65578 0.70415 0.0
C472 C 0.12699 0.65605 0.69416 0.0
C473 C 0.10559 0.6294 0.68978 0.0
C474 C 0.1215 0.603 0.69542 0.0
C475 C 0.15946 0.60353 0.70464 0.0
H476 H 0.87891 0.71956 0.35909 0.0
H477 H 0.9088 0.78352 0.26828 0.0
H478 H 0.93846 0.74679 0.24775 0.0
H479 H 0.96452 0.6908 0.3681 0.0
H480 H 0.94433 0.65304 0.38474 0.0
H481 H 0.92146 0.68307 0.39069 0.0
H482 H 0.86107 0.66035 0.3639 0.0
H483 H 0.88384 0.63027 0.35772 0.0
H484 H 0.86276 0.65264 0.32298 0.0
H485 H 0.96901 0.70508 0.23873 0.0
H486 H 1.00074 0.66143 0.24241 0.0
H487 H 0.95361 0.62378 0.33973 0.0
C488 C 0.89136 0.72556 0.33475 0.0
C489 C 0.89076 0.75417 0.31484 0.0
C490 C 0.90775 0.76146 0.28334 0.0
C491 C 0.92493 0.74078 0.27162 0.0
C492 C 0.92519 0.71283 0.29181 0.0
C493 C 0.90901 0.70515 0.32277 0.0
C494 C 0.91568 0.6743 0.34037 0.0
C495 C 0.93782 0.67538 0.3729 0.0
C496 C 0.87862 0.65314 0.34661 0.0
C497 C 0.93875 0.66613 0.31471 0.0
C498 C 0.9435 0.68866 0.28678 0.0
C499 C 0.96519 0.68717 0.26031 0.0
C500 C 0.98314 0.66232 0.26263 0.0
C501 C 0.97942 0.63918 0.29121 0.0
C502 C 0.95634 0.64089 0.31734 0.0
H503 H 0.84231 0.2926 0.68757 0.0
H504 H 0.77262 0.30789 0.76335 0.0
H505 H 0.80254 0.35918 0.75537 0.0
H506 H 0.92436 0.33338 0.72057 0.0
H507 H 0.94625 0.34775 0.68082 0.0
H508 H 0.91544 0.31291 0.6878 0.0
H509 H 0.87567 0.33292 0.63678 0.0
H510 H 0.90608 0.368 0.63 0.0
H511 H 0.85671 0.3667 0.63498 0.0
H512 H 0.83561 0.4094 0.73753 0.0
H513 H 0.88502 0.45258 0.72464 0.0
H514 H 0.94477 0.40439 0.67042 0.0
C515 C 0.83314 0.30687 0.70212 0.0
C516 C 0.80243 0.29666 0.72388 0.0
C517 C 0.79328 0.31567 0.74412 0.0
C518 C 0.81052 0.34495 0.74014 0.0
C519 C 0.83892 0.35484 0.71729 0.0
C520 C 0.85168 0.33621 0.69979 0.0
C521 C 0.88697 0.35186 0.68113 0.0
C522 C 0.92023 0.3355 0.69332 0.0
C523 C 0.88099 0.35505 0.64348 0.0
C524 C 0.89148 0.38195 0.69101 0.0
C525 C 0.86242 0.38324 0.71088 0.0
C526 C 0.859 0.40861 0.72249 0.0
C527 C 0.88704 0.43303 0.71496 0.0
C528 C 0.91889 0.43154 0.69721 0.0
C529 C 0.92072 0.40596 0.68424 0.0
H530 H 0.34192 0.24627 0.34732 0.0
H531 H 0.30171 0.2122 0.26039 0.0
H532 H 0.30982 0.16142 0.29012 0.0
H533 H 0.40931 0.19583 0.3765 0.0
H534 H 0.39857 0.19247 0.41955 0.0
H535 H 0.39352 0.22611 0.39003 0.0
H536 H 0.32459 0.22125 0.40723 0.0
H537 H 0.32942 0.18764 0.43677 0.0
H538 H 0.29326 0.18765 0.40536 0.0
H539 H 0.31874 0.1137 0.33153 0.0
H540 H 0.32752 0.07381 0.38046 0.0
H541 H 0.35736 0.13966 0.44071 0.0
C542 C 0.33494 0.22809 0.33458 0.0
C543 C 0.32103 0.23296 0.30169 0.0
C544 C 0.31268 0.2088 0.28553 0.0
C545 C 0.31707 0.17997 0.30228 0.0
C546 C 0.32978 0.17577 0.33517 0.0
C547 C 0.33862 0.19927 0.35108 0.0
C548 C 0.34947 0.18891 0.38701 0.0
C549 C 0.39014 0.20159 0.39365 0.0
C550 C 0.32258 0.19683 0.41047 0.0
C551 C 0.34498 0.15584 0.3891 0.0
C552 C 0.33403 0.1486 0.35891 0.0
C553 C 0.32762 0.1192 0.35516 0.0
C554 C 0.33263 0.09673 0.38295 0.0
C555 C 0.34374 0.10386 0.41396 0.0
C556 C 0.34963 0.13376 0.41702 0.0
H557 H 0.38616 0.73037 0.79277 0.0
H558 H 0.33589 0.80962 0.78578 0.0
H559 H 0.37371 0.82145 0.83403 0.0
H560 H 0.38766 0.71004 0.88044 0.0
H561 H 0.43193 0.69664 0.88362 0.0
H562 H 0.40323 0.69562 0.84699 0.0
H563 H 0.4577 0.72606 0.81017 0.0
H564 H 0.48674 0.72688 0.84666 0.0
H565 H 0.47984 0.76102 0.81882 0.0
H566 H 0.41304 0.82227 0.88567 0.0
H567 H 0.45452 0.81446 0.93457 0.0
H568 H 0.48119 0.73505 0.90754 0.0
C569 C 0.38377 0.75044 0.80119 0.0
C570 C 0.35869 0.76944 0.78538 0.0
C571 C 0.3557 0.79532 0.7971 0.0
C572 C 0.37677 0.80198 0.82466 0.0
C573 C 0.4008 0.78253 0.84014 0.0
C574 C 0.40475 0.75744 0.82863 0.0
C575 C 0.43187 0.73987 0.85026 0.0
C576 C 0.41251 0.7087 0.86627 0.0
C577 C 0.46607 0.73838 0.83028 0.0
C578 C 0.44218 0.75877 0.87601 0.0
C579 C 0.42387 0.78322 0.86971 0.0
C580 C 0.428 0.80346 0.89053 0.0
C581 C 0.45187 0.79887 0.91823 0.0
C582 C 0.47174 0.77433 0.92494 0.0
C583 C 0.46642 0.75396 0.90345 0.0
H584 H 0.89234 0.86971 0.34779 0.0
H585 H 0.8499 0.79156 0.42043 0.0
H586 H 0.85044 0.82224 0.46294 0.0
H587 H 0.95421 0.90576 0.40494 0.0
H588 H 0.94545 0.94242 0.38533 0.0
H589 H 0.94281 0.91408 0.36128 0.0
H590 H 0.87552 0.92243 0.34268 0.0
H591 H 0.8779 0.95072 0.36673 0.0
H592 H 0.84083 0.91965 0.37364 0.0
H593 H 0.85117 0.86222 0.49605 0.0
H594 H 0.85629 0.9078 0.51867 0.0
H595 H 0.90147 0.96001 0.42538 0.0
C596 C 0.8835 0.85918 0.37278 0.0
C597 C 0.87104 0.82835 0.38108 0.0
C598 C 0.85971 0.81512 0.41389 0.0
C599 C 0.85984 0.8324 0.43802 0.0
C600 C 0.87183 0.86286 0.42899 0.0
C601 C 0.8839 0.8761 0.39725 0.0
C602 C 0.89522 0.90928 0.39392 0.0
C603 C 0.9369 0.91842 0.3859 0.0
C604 C 0.87091 0.92653 0.36769 0.0
C605 C 0.88714 0.91276 0.42859 0.0
C606 C 0.87346 0.8857 0.44838 0.0
C607 C 0.86227 0.88343 0.48089 0.0
C608 C 0.86516 0.9094 0.4935 0.0
C609 C 0.87952 0.93727 0.47384 0.0
C610 C 0.89089 0.93889 0.44104 0.0
H611 H 0.74851 0.24673 0.8192 0.0
H612 H 0.66649 0.20807 0.75546 0.0
H613 H 0.61828 0.20097 0.79878 0.0
H614 H 0.71452 0.20077 0.89877 0.0
H615 H 0.7242 0.23115 0.92007 0.0
H616 H 0.75213 0.23047 0.88523 0.0
H617 H 0.73694 0.28224 0.85621 0.0
H618 H 0.7087 0.28298 0.89079 0.0
H619 H 0.68892 0.2878 0.84946 0.0
H620 H 0.57885 0.20062 0.84854 0.0
H621 H 0.55132 0.20709 0.90017 0.0
H622 H 0.6594 0.2473 0.93043 0.0
C623 C 0.72053 0.2361 0.81495 0.0
C624 C 0.71098 0.22724 0.78465 0.0
C625 C 0.67408 0.21435 0.77896 0.0
C626 C 0.64672 0.2104 0.80332 0.0
C627 C 0.65691 0.21973 0.83297 0.0
C628 C 0.69301 0.23229 0.83882 0.0
C629 C 0.69647 0.24205 0.87175 0.0
C630 C 0.72343 0.22509 0.89535 0.0
C631 C 0.70846 0.27576 0.86674 0.0
C632 C 0.65667 0.23314 0.88363 0.0
C633 C 0.63424 0.22019 0.86101 0.0
C634 C 0.59622 0.21062 0.86641 0.0
C635 C 0.58081 0.21439 0.89565 0.0
C636 C 0.60336 0.22775 0.91888 0.0
C637 C 0.64172 0.23709 0.91286 0.0
H638 H 0.31212 0.83176 0.72941 0.0
H639 H 0.38968 0.78469 0.6934 0.0
H640 H 0.41315 0.83 0.65209 0.0
H641 H 0.28525 0.86887 0.65648 0.0
H642 H 0.28224 0.90368 0.66776 0.0
H643 H 0.27705 0.8701 0.69898 0.0
H644 H 0.33102 0.89198 0.7339 0.0
H645 H 0.33568 0.92617 0.70336 0.0
H646 H 0.3755 0.90732 0.71487 0.0
H647 H 0.4166 0.87617 0.60703 0.0
H648 H 0.40767 0.92263 0.56747 0.0
H649 H 0.33331 0.94202 0.63671 0.0
C650 C 0.33569 0.83175 0.7142 0.0
C651 C 0.3501 0.80529 0.71502 0.0
C652 C 0.37942 0.80521 0.69364 0.0
C653 C 0.39253 0.83071 0.66998 0.0
C654 C 0.37648 0.85622 0.66866 0.0
C655 C 0.34957 0.85724 0.69101 0.0
C656 C 0.33471 0.88653 0.68274 0.0
C657 C 0.29232 0.88199 0.6761 0.0
C658 C 0.34485 0.90404 0.71036 0.0
C659 C 0.35594 0.90119 0.65132 0.0
C660 C 0.3798 0.88336 0.64346 0.0
C661 C 0.39885 0.89069 0.61344 0.0
C662 C 0.39344 0.91693 0.59104 0.0
C663 C 0.36942 0.93557 0.59887 0.0
C664 C 0.35137 0.92791 0.62984 0.0
H665 H 0.79422 0.75291 0.29856 0.0
H666 H 0.86935 0.83003 0.25107 0.0
H667 H 0.83697 0.82815 0.19709 0.0
H668 H 0.78135 0.71454 0.22853 0.0
H669 H 0.73238 0.70209 0.2363 0.0
H670 H 0.76393 0.70763 0.27018 0.0
H671 H 0.72323 0.74338 0.28608 0.0
H672 H 0.69166 0.73807 0.2522 0.0
H673 H 0.71307 0.7749 0.25534 0.0
H674 H 0.79558 0.81869 0.14915 0.0
H675 H 0.74522 0.80482 0.11065 0.0
H676 H 0.69349 0.73556 0.18975 0.0
C677 C 0.80407 0.76891 0.27649 0.0
C678 C 0.83461 0.79124 0.27834 0.0
C679 C 0.84631 0.81257 0.24958 0.0
C680 C 0.82813 0.81161 0.21902 0.0
C681 C 0.79785 0.78943 0.21789 0.0
C682 C 0.78563 0.76859 0.24589 0.0
C683 C 0.75056 0.74862 0.23835 0.0
C684 C 0.75748 0.7163 0.24365 0.0
C685 C 0.71769 0.75142 0.25923 0.0
C686 C 0.7448 0.76165 0.20185 0.0
C687 C 0.77278 0.78486 0.19049 0.0
C688 C 0.7736 0.8005 0.15772 0.0
C689 C 0.74496 0.79237 0.13601 0.0
C690 C 0.71554 0.76905 0.14715 0.0
C691 C 0.71558 0.75351 0.18057 0.0
H692 H 0.79017 0.23504 0.67578 0.0
H693 H 0.85996 0.22378 0.76377 0.0
H694 H 0.89569 0.19231 0.73955 0.0
H695 H 0.77971 0.16361 0.66671 0.0
H696 H 0.78041 0.17087 0.622 0.0
H697 H 0.7656 0.19723 0.64282 0.0
H698 H 0.81561 0.23862 0.61223 0.0
H699 H 0.83015 0.21253 0.59066 0.0
H700 H 0.86373 0.23294 0.61409 0.0
H701 H 0.91657 0.15551 0.70935 0.0
H702 H 0.92443 0.12009 0.67411 0.0
H703 H 0.83993 0.15497 0.60596 0.0
C704 C 0.81429 0.22719 0.68903 0.0
C705 C 0.82308 0.23235 0.72123 0.0
C706 C 0.85356 0.2206 0.73875 0.0
C707 C 0.87372 0.20254 0.72524 0.0
C708 C 0.86312 0.19659 0.69405 0.0
C709 C 0.83449 0.20904 0.67589 0.0
C710 C 0.82608 0.19697 0.64451 0.0
C711 C 0.78556 0.18124 0.64401 0.0
C712 C 0.8344 0.22174 0.61353 0.0
C713 C 0.85358 0.1751 0.64828 0.0
C714 C 0.87489 0.17531 0.67687 0.0
C715 C 0.90044 0.15557 0.68663 0.0
C716 C 0.90448 0.1353 0.66659 0.0
C717 C 0.88304 0.13477 0.63706 0.0
C718 C 0.8574 0.15515 0.62792 0.0
H719 H 0.3134 0.27375 0.19072 0.0
H720 H 0.39196 0.26062 0.27261 0.0
H721 H 0.43696 0.24869 0.23569 0.0
H722 H 0.33513 0.21547 0.15114 0.0
H723 H 0.33007 0.23671 0.10971 0.0
H724 H 0.30358 0.24248 0.14313 0.0
H725 H 0.33032 0.29839 0.12965 0.0
H726 H 0.35704 0.29277 0.09633 0.0
H727 H 0.38015 0.3096 0.12877 0.0
H728 H 0.47452 0.24094 0.18891 0.0
H729 H 0.50107 0.23621 0.1362 0.0
H730 H 0.39797 0.25427 0.08465 0.0
C731 C 0.34002 0.26814 0.20076 0.0
C732 C 0.34933 0.26786 0.23443 0.0
C733 C 0.3843 0.26047 0.24695 0.0
C734 C 0.41 0.25386 0.22614 0.0
C735 C 0.40021 0.25473 0.19286 0.0
C736 C 0.36595 0.26152 0.18028 0.0
C737 C 0.36263 0.26161 0.14346 0.0
C738 C 0.33097 0.23763 0.13646 0.0
C739 C 0.35722 0.29243 0.12338 0.0
C740 C 0.40048 0.25411 0.13717 0.0
C741 C 0.42175 0.25022 0.166 0.0
C742 C 0.45803 0.24378 0.16626 0.0
C743 C 0.4729 0.24118 0.13631 0.0
C744 C 0.45155 0.24504 0.10659 0.0
C745 C 0.41483 0.2514 0.1071 0.0
H746 H 0.88607 0.7224 0.77181 0.0
H747 H 0.81914 0.74246 0.68291 0.0
H748 H 0.84555 0.70538 0.65938 0.0
H749 H 0.96899 0.70669 0.73053 0.0
H750 H 0.97688 0.67726 0.76495 0.0
H751 H 0.95701 0.70845 0.77199 0.0
H752 H 0.90094 0.67247 0.8011 0.0
H753 H 0.92007 0.64121 0.7935 0.0
H754 H 0.87362 0.64686 0.77906 0.0
H755 H 0.87119 0.66059 0.65015 0.0
H756 H 0.90044 0.61626 0.65174 0.0
H757 H 0.95352 0.62639 0.74609 0.0
C758 C 0.87808 0.71959 0.74693 0.0
C759 C 0.85084 0.73525 0.7289 0.0
C760 C 0.84044 0.73092 0.69667 0.0
C761 C 0.85505 0.70974 0.68337 0.0
C762 C 0.8804 0.69345 0.70254 0.0
C763 C 0.89253 0.69862 0.73333 0.0
C764 C 0.91829 0.67696 0.74972 0.0
C765 C 0.95763 0.69332 0.75457 0.0
C766 C 0.90226 0.65828 0.78279 0.0
C767 C 0.91794 0.6582 0.72379 0.0
C768 C 0.89592 0.66809 0.6968 0.0
C769 C 0.88935 0.65319 0.67072 0.0
C770 C 0.90634 0.62797 0.67184 0.0
C771 C 0.93014 0.61781 0.69872 0.0
C772 C 0.93562 0.63326 0.72512 0.0
H773 H 0.85772 0.34138 0.32538 0.0
H774 H 0.9331 0.29107 0.29151 0.0
H775 H 0.98633 0.32984 0.29816 0.0
H776 H 0.89554 0.40834 0.2803 0.0
H777 H 0.88909 0.43009 0.31035 0.0
H778 H 0.85877 0.39578 0.31031 0.0
H779 H 0.87561 0.37622 0.37189 0.0
H780 H 0.90566 0.41072 0.37238 0.0
H781 H 0.92389 0.37619 0.38423 0.0
H782 H 0.02901 0.37824 0.29914 0.0
H783 H 0.05779 0.43037 0.2974 0.0
H784 H 0.95384 0.44956 0.32912 0.0
C785 C 0.88573 0.3381 0.32072 0.0
C786 C 0.89162 0.31316 0.30847 0.0
C787 C 0.92832 0.30971 0.3017 0.0
C788 C 0.95856 0.33176 0.30515 0.0
C789 C 0.95152 0.35698 0.3156 0.0
C790 C 0.91596 0.36001 0.32374 0.0
C791 C 0.9148 0.39047 0.33067 0.0
C792 C 0.88797 0.40714 0.30646 0.0
C793 C 0.90438 0.38826 0.36696 0.0
C794 C 0.95497 0.40454 0.32423 0.0
C795 C 0.97589 0.38481 0.3159 0.0
C796 C 0.01308 0.39358 0.3064 0.0
C797 C 0.02918 0.42315 0.3054 0.0
C798 C 0.00815 0.44353 0.31385 0.0
C799 C 0.97069 0.43406 0.32349 0.0
H800 H 0.1827 0.28943 0.74254 0.0
H801 H 0.25917 0.31962 0.66047 0.0
H802 H 0.23285 0.36668 0.64527 0.0
H803 H 0.10383 0.32213 0.70199 0.0
H804 H 0.08951 0.33186 0.73908 0.0
H805 H 0.11333 0.30029 0.74218 0.0
H806 H 0.16336 0.32232 0.78062 0.0
H807 H 0.13983 0.35405 0.77746 0.0
H808 H 0.18831 0.3591 0.76656 0.0
H809 H 0.19965 0.41096 0.64067 0.0
H810 H 0.16086 0.44879 0.64557 0.0
H811 H 0.10614 0.38959 0.73123 0.0
C812 C 0.19369 0.306 0.72134 0.0
C813 C 0.22278 0.30112 0.70251 0.0
C814 C 0.23654 0.32302 0.67481 0.0
C815 C 0.22193 0.34977 0.66621 0.0
C816 C 0.19359 0.35414 0.68563 0.0
C817 C 0.17949 0.3328 0.71253 0.0
C818 C 0.14949 0.34314 0.72969 0.0
C819 C 0.11181 0.32317 0.72812 0.0
C820 C 0.16095 0.34475 0.76571 0.0
C821 C 0.149 0.37373 0.70835 0.0
C822 C 0.17461 0.37963 0.68306 0.0
C823 C 0.17934 0.40651 0.66025 0.0
C824 C 0.15706 0.42781 0.66316 0.0
C825 C 0.13033 0.42216 0.6887 0.0
C826 C 0.12655 0.39475 0.71165 0.0
H827 H 0.33944 0.71872 0.3017 0.0
H828 H 0.26957 0.78435 0.25869 0.0
H829 H 0.21903 0.74454 0.24936 0.0
H830 H 0.30707 0.66608 0.24677 0.0
H831 H 0.30887 0.63395 0.27955 0.0
H832 H 0.34049 0.66766 0.28025 0.0
H833 H 0.3176 0.6676 0.33894 0.0
H834 H 0.28578 0.63404 0.33834 0.0
H835 H 0.26851 0.66633 0.34548 0.0
H836 H 0.17463 0.69816 0.24987 0.0
H837 H 0.13923 0.64776 0.25743 0.0
H838 H 0.23781 0.61092 0.29865 0.0
C839 C 0.31361 0.72446 0.28986 0.0
C840 C 0.30786 0.75434 0.28105 0.0
C841 C 0.27396 0.76144 0.26571 0.0
C842 C 0.24533 0.73904 0.26032 0.0
C843 C 0.25132 0.70966 0.27011 0.0
C844 C 0.28469 0.70225 0.28429 0.0
C845 C 0.28314 0.66884 0.29377 0.0
C846 C 0.31158 0.65853 0.2739 0.0
C847 C 0.28911 0.65861 0.33136 0.0
C848 C 0.24343 0.65866 0.28339 0.0
C849 C 0.22572 0.68266 0.2697 0.0
C850 C 0.18836 0.67919 0.25998 0.0
C851 C 0.16849 0.65048 0.26437 0.0
C852 C 0.18597 0.62548 0.27813 0.0
C853 C 0.22403 0.62966 0.28758 0.0
H854 H 0.80951 0.80504 0.67247 0.0
H855 H 0.88831 0.80664 0.75394 0.0
H856 H 0.91836 0.85656 0.72637 0.0
H857 H 0.8784 0.84942 0.6048 0.0
H858 H 0.84198 0.86781 0.58241 0.0
H859 H 0.83121 0.83028 0.6056 0.0
H860 H 0.78092 0.84646 0.63759 0.0
H861 H 0.79212 0.88413 0.61527 0.0
H862 H 0.79406 0.87583 0.66 0.0
H863 H 0.92725 0.90976 0.69856 0.0
H864 H 0.92654 0.95977 0.66442 0.0
H865 H 0.84954 0.92315 0.59511 0.0
C866 C 0.83446 0.81535 0.68331 0.0
C867 C 0.84736 0.80199 0.71488 0.0
C868 C 0.87896 0.81639 0.72935 0.0
C869 C 0.89582 0.84481 0.71403 0.0
C870 C 0.88127 0.85818 0.68375 0.0
C871 C 0.85225 0.84355 0.66779 0.0
C872 C 0.84072 0.86378 0.63626 0.0
C873 C 0.84856 0.85213 0.60544 0.0
C874 C 0.79952 0.86777 0.63738 0.0
C875 C 0.86651 0.89235 0.63797 0.0
C876 C 0.88931 0.88863 0.66581 0.0
C877 C 0.91128 0.91263 0.67562 0.0
C878 C 0.91095 0.94098 0.6559 0.0
C879 C 0.89016 0.94511 0.62582 0.0
C880 C 0.86718 0.92042 0.6171 0.0
H881 H 0.795 0.25073 0.21864 0.0
H882 H 0.75494 0.31606 0.26307 0.0
H883 H 0.7018 0.31787 0.22314 0.0
H884 H 0.77009 0.27979 0.13412 0.0
H885 H 0.75586 0.24387 0.12419 0.0
H886 H 0.79102 0.24842 0.15568 0.0
H887 H 0.75195 0.20722 0.19807 0.0
H888 H 0.71668 0.20252 0.16671 0.0
H889 H 0.70431 0.21041 0.20545 0.0
H890 H 0.65343 0.31243 0.17837 0.0
H891 H 0.61214 0.29952 0.13271 0.0
H892 H 0.68259 0.23613 0.11875 0.0
C893 C 0.77481 0.26522 0.22 0.0
C894 C 0.77882 0.28331 0.24377 0.0
C895 C 0.75231 0.30231 0.24473 0.0
C896 C 0.72209 0.30335 0.2223 0.0
C897 C 0.71879 0.28508 0.19925 0.0
C898 C 0.74434 0.26628 0.19803 0.0
C899 C 0.73409 0.24859 0.17122 0.0
C900 C 0.76458 0.2556 0.14473 0.0
C901 C 0.72629 0.21521 0.18627 0.0
C902 C 0.69876 0.2604 0.15748 0.0
C903 C 0.69054 0.28153 0.1739 0.0
C904 C 0.65958 0.29591 0.16534 0.0
C905 C 0.63642 0.28854 0.13929 0.0
C906 C 0.64421 0.26687 0.12217 0.0
C907 C 0.67576 0.25258 0.13158 0.0
H908 H 0.30665 0.23371 0.66037 0.0
H909 H 0.24115 0.17622 0.74042 0.0
H910 H 0.25388 0.13227 0.72056 0.0
H911 H 0.27568 0.19273 0.59867 0.0
H912 H 0.32002 0.19895 0.57831 0.0
H913 H 0.30837 0.22565 0.60044 0.0
H914 H 0.36852 0.2213 0.63625 0.0
H915 H 0.38049 0.19469 0.6141 0.0
H916 H 0.37714 0.18539 0.6587 0.0
H917 H 0.26962 0.09515 0.68942 0.0
H918 H 0.28883 0.06693 0.65061 0.0
H919 H 0.34572 0.1485 0.59088 0.0
C920 C 0.29545 0.21178 0.67378 0.0
C921 C 0.2733 0.20808 0.7021 0.0
C922 C 0.25882 0.17926 0.71913 0.0
C923 C 0.2657 0.15428 0.70787 0.0
C924 C 0.28725 0.15862 0.67956 0.0
C925 C 0.30213 0.18663 0.66285 0.0
C926 C 0.32324 0.18518 0.63244 0.0
C927 C 0.30577 0.2016 0.60059 0.0
C928 C 0.36482 0.19736 0.63557 0.0
C929 C 0.31735 0.15202 0.63433 0.0
C930 C 0.29661 0.13713 0.66176 0.0
C931 C 0.28639 0.10651 0.66815 0.0
C932 C 0.29771 0.09063 0.64598 0.0
C933 C 0.31924 0.1053 0.61771 0.0
C934 C 0.32917 0.13649 0.61205 0.0
H935 H 0.42999 0.76158 0.26725 0.0
H936 H 0.33363 0.79379 0.21536 0.0
H937 H 0.3573 0.78721 0.16228 0.0
H938 H 0.49458 0.79962 0.20738 0.0
H939 H 0.52375 0.77106 0.2121 0.0
H940 H 0.49647 0.77378 0.24644 0.0
H941 H 0.46526 0.71925 0.25118 0.0
H942 H 0.49271 0.71625 0.21697 0.0
H943 H 0.44258 0.7077 0.21528 0.0
H944 H 0.39539 0.78274 0.11416 0.0
H945 H 0.4438 0.77879 0.07518 0.0
H946 H 0.51614 0.75099 0.15839 0.0
C947 C 0.41368 0.76661 0.24471 0.0
C948 C 0.37996 0.77796 0.24511 0.0
C949 C 0.35922 0.78458 0.21536 0.0
C950 C 0.37258 0.78107 0.1852 0.0
C951 C 0.40671 0.77083 0.18534 0.0
C952 C 0.42684 0.76345 0.2144 0.0
C953 C 0.46404 0.75517 0.20755 0.0
C954 C 0.49662 0.77616 0.21904 0.0
C955 C 0.46626 0.72266 0.2237 0.0
C956 C 0.46212 0.75972 0.17007 0.0
C957 C 0.42871 0.7685 0.15769 0.0
C958 C 0.42139 0.77542 0.12361 0.0
C959 C 0.4489 0.7732 0.10168 0.0
C960 C 0.48311 0.76419 0.11401 0.0
C961 C 0.48977 0.75741 0.14857 0.0
H962 H 0.84697 0.25109 0.37102 0.0
H963 H 0.89652 0.23163 0.2863 0.0
H964 H 0.913 0.18515 0.32097 0.0
H965 H 0.91399 0.21676 0.43594 0.0
H966 H 0.87704 0.20313 0.4656 0.0
H967 H 0.87553 0.23708 0.43547 0.0
H968 H 0.81009 0.21541 0.41644 0.0
H969 H 0.81184 0.18105 0.44564 0.0
H970 H 0.80418 0.18104 0.40213 0.0
H971 H 0.91391 0.13718 0.36209 0.0
H972 H 0.90826 0.09422 0.40959 0.0
H973 H 0.86022 0.14533 0.46864 0.0
C974 C 0.86317 0.23775 0.36049 0.0
C975 C 0.87163 0.24512 0.32639 0.0
C976 C 0.89104 0.22657 0.31267 0.0
C977 C 0.90003 0.20005 0.33208 0.0
C978 C 0.8896 0.19254 0.3653 0.0
C979 C 0.87246 0.21119 0.37969 0.0
C980 C 0.86188 0.19689 0.41529 0.0
C981 C 0.8834 0.21451 0.43951 0.0
C982 C 0.81948 0.1934 0.42013 0.0
C983 C 0.87467 0.16704 0.41828 0.0
C984 C 0.89046 0.16492 0.38913 0.0
C985 C 0.90221 0.13878 0.38524 0.0
C986 C 0.89858 0.11444 0.41212 0.0
C987 C 0.88348 0.11645 0.44247 0.0
C988 C 0.87144 0.14313 0.44551 0.0
H989 H 0.34208 0.2514 0.75231 0.0
H990 H 0.24177 0.19602 0.79384 0.0
H991 H 0.27667 0.17749 0.84516 0.0
H992 H 0.41172 0.20244 0.79362 0.0
H993 H 0.44423 0.23404 0.80036 0.0
H994 H 0.41351 0.23739 0.76462 0.0
H995 H 0.38925 0.28117 0.78213 0.0
H996 H 0.41936 0.27774 0.8181 0.0
H997 H 0.36985 0.27588 0.82288 0.0
H998 H 0.32039 0.17057 0.8943 0.0
H999 H 0.36826 0.177 0.93787 0.0
H1000 H 0.43943 0.23904 0.86484 0.0
C1001 C 0.32822 0.23432 0.77175 0.0
C1002 C 0.28988 0.22411 0.76911 0.0
C1003 C 0.27153 0.2031 0.79538 0.0
C1004 C 0.29111 0.19265 0.82449 0.0
C1005 C 0.32889 0.20377 0.82687 0.0
C1006 C 0.34729 0.22414 0.80111 0.0
C1007 C 0.38631 0.23582 0.81147 0.0
C1008 C 0.41568 0.22688 0.79132 0.0
C1009 C 0.39146 0.26964 0.80847 0.0
C1010 C 0.38659 0.21967 0.84737 0.0
C1011 C 0.35356 0.20082 0.85564 0.0
C1012 C 0.34661 0.1849 0.88797 0.0
C1013 C 0.37394 0.18864 0.91254 0.0
C1014 C 0.40748 0.20851 0.9047 0.0
C1015 C 0.41399 0.22376 0.87155 0.0
H1016 H 0.35592 0.81755 0.37471 0.0
H1017 H 0.38087 0.87284 0.27754 0.0
H1018 H 0.38937 0.91748 0.30196 0.0
H1019 H 0.29977 0.86652 0.39918 0.0
H1020 H 0.31417 0.85875 0.44215 0.0
H1021 H 0.31342 0.83108 0.41748 0.0
H1022 H 0.38298 0.82778 0.43225 0.0
H1023 H 0.38399 0.85559 0.45681 0.0
H1024 H 0.41692 0.86091 0.42379 0.0
H1025 H 0.39583 0.95605 0.33713 0.0
H1026 H 0.3928 0.98629 0.37941 0.0
H1027 H 0.35661 0.90656 0.45253 0.0
C1028 C 0.36302 0.83907 0.35863 0.0
C1029 C 0.36854 0.84174 0.32432 0.0
C1030 C 0.37771 0.8703 0.30403 0.0
C1031 C 0.38235 0.89575 0.31765 0.0
C1032 C 0.37689 0.89236 0.35158 0.0
C1033 C 0.36681 0.86479 0.37173 0.0
C1034 C 0.36009 0.86747 0.40696 0.0
C1035 C 0.31945 0.85523 0.41703 0.0
C1036 C 0.38765 0.85202 0.43139 0.0
C1037 C 0.36799 0.90083 0.40346 0.0
C1038 C 0.37826 0.91473 0.37142 0.0
C1039 C 0.38764 0.94543 0.36225 0.0
C1040 C 0.386 0.9624 0.38635 0.0
C1041 C 0.37444 0.94867 0.41899 0.0
C1042 C 0.36543 0.9175 0.42764 0.0
H1043 H 0.71919 0.76596 0.79332 0.0
H1044 H 0.82431 0.74883 0.84126 0.0
H1045 H 0.7976 0.74727 0.89601 0.0
H1046 H 0.69677 0.8138 0.84533 0.0
H1047 H 0.64749 0.80013 0.84624 0.0
H1048 H 0.67459 0.79928 0.81096 0.0
H1049 H 0.65248 0.74281 0.81831 0.0
H1050 H 0.62523 0.74353 0.85356 0.0
H1051 H 0.65941 0.71876 0.85776 0.0
H1052 H 0.76025 0.74864 0.9449 0.0
H1053 H 0.71353 0.75133 0.98577 0.0
H1054 H 0.63205 0.7676 0.90668 0.0
C1055 C 0.73632 0.76186 0.81549 0.0
C1056 C 0.77366 0.75743 0.81346 0.0
C1057 C 0.79555 0.75201 0.84269 0.0
C1058 C 0.78067 0.75122 0.87371 0.0
C1059 C 0.7438 0.75588 0.87497 0.0
C1060 C 0.7218 0.76099 0.84671 0.0
C1061 C 0.68304 0.76536 0.8551 0.0
C1062 C 0.67502 0.7965 0.83842 0.0
C1063 C 0.65329 0.74117 0.84562 0.0
C1064 C 0.68674 0.76197 0.89246 0.0
C1065 C 0.7221 0.75656 0.90333 0.0
C1066 C 0.73247 0.75277 0.93673 0.0
C1067 C 0.70592 0.75435 0.95969 0.0
C1068 C 0.66953 0.75957 0.94912 0.0
C1069 C 0.65981 0.76355 0.91514 0.0
loop_
_geom_bond_atom_site_label_1
_geom_bond_atom_site_label_2
_geom_bond_distance
_geom_bond_site_symmetry_2
_ccdc_geom_bond_type
C0 N1 1.317 . S
C0 N2 1.348 . S
C0 C3 1.485 . S
N1 C0 1.317 . S
N1 N5 1.370 . S
N2 C0 1.348 . S
N2 C4 1.346 . S
C3 C0 1.485 . S
C3 H7 0.960 . S
C3 H8 0.961 . S
C3 H9 0.960 . S
C4 N2 1.346 . S
C4 N5 1.307 . S
C4 C6 1.486 . S
N5 N1 1.370 . S
N5 C4 1.307 . S
C6 C4 1.486 . S
C6 H10 0.960 . S
C6 H11 0.960 . S
C6 H12 0.959 . S
H7 C3 0.960 . S
H8 C3 0.961 . S
H9 C3 0.960 . S
H10 C6 0.960 . S
H11 C6 0.960 . S
H12 C6 0.959 . S
C13 N14 1.317 . S
C13 N15 1.348 . S
C13 C16 1.485 . S
N14 C13 1.317 . S
N14 N18 1.370 . S
N15 C13 1.348 . S
N15 C17 1.346 . S
C16 C13 1.485 . S
C16 H20 0.960 . S
C16 H21 0.961 . S
C16 H22 0.960 . S
C17 N15 1.346 . S
C17 N18 1.307 . S
C17 C19 1.486 . S
N18 N14 1.370 . S
N18 C17 1.307 . S
C19 C17 1.486 . S
C19 H23 0.960 . S
C19 H24 0.960 . S
C19 H25 0.959 . S
H20 C16 0.960 . S
H21 C16 0.961 . S
H22 C16 0.960 . S
H23 C19 0.960 . S
H24 C19 0.960 . S
H25 C19 0.959 . S
C26 N27 1.317 . S
C26 N28 1.348 . S
C26 C29 1.485 . S
N27 C26 1.317 . S
N27 N31 1.370 . S
N28 C26 1.348 . S
N28 C30 1.346 . S
C29 C26 1.485 . S
C29 H33 0.960 . S
C29 H34 0.961 . S
C29 H35 0.960 . S
C30 N28 1.346 . S
C30 N31 1.307 . S
C30 C32 1.486 . S
N31 N27 1.370 . S
N31 C30 1.307 . S
C32 C30 1.486 . S
C32 H36 0.960 . S
C32 H37 0.960 . S
C32 H38 0.959 . S
H33 C29 0.960 . S
H34 C29 0.961 . S
H35 C29 0.960 . S
H36 C32 0.960 . S
H37 C32 0.960 . S
H38 C32 0.959 . S
C39 N40 1.317 . S
C39 N41 1.348 . S
C39 C42 1.485 . S
N40 C39 1.317 . S
N40 N44 1.370 . S
N41 C39 1.348 . S
N41 C43 1.346 . S
C42 C39 1.485 . S
C42 H46 0.960 . S
C42 H47 0.961 . S
C42 H48 0.960 . S
C43 N41 1.346 . S
C43 N44 1.307 . S
C43 C45 1.486 . S
N44 N40 1.370 . S
N44 C43 1.307 . S
C45 C43 1.486 . S
C45 H49 0.960 . S
C45 H50 0.960 . S
C45 H51 0.959 . S
H46 C42 0.960 . S
H47 C42 0.961 . S
H48 C42 0.960 . S
H49 C45 0.960 . S
H50 C45 0.960 . S
H51 C45 0.959 . S
C52 N53 1.317 . S
C52 N54 1.348 . S
C52 C55 1.485 . S
N53 C52 1.317 . S
N53 N57 1.370 . S
N54 C52 1.348 . S
N54 C56 1.346 . S
C55 C52 1.485 . S
C55 H59 0.960 . S
C55 H60 0.961 . S
C55 H61 0.960 . S
C56 N54 1.346 . S
C56 N57 1.307 . S
C56 C58 1.486 . S
N57 N53 1.370 . S
N57 C56 1.307 . S
C58 C56 1.486 . S
C58 H62 0.960 . S
C58 H63 0.960 . S
C58 H64 0.959 . S
H59 C55 0.960 . S
H60 C55 0.961 . S
H61 C55 0.960 . S
H62 C58 0.960 . S
H63 C58 0.960 . S
H64 C58 0.959 . S
C65 N66 1.317 . S
C65 N67 1.348 . S
C65 C68 1.485 . S
N66 C65 1.317 . S
N66 N70 1.370 . S
N67 C65 1.348 . S
N67 C69 1.346 . S
C68 C65 1.485 . S
C68 H72 0.960 . S
C68 H73 0.961 . S
C68 H74 0.960 . S
C69 N67 1.346 . S
C69 N70 1.307 . S
C69 C71 1.486 . S
N70 N66 1.370 . S
N70 C69 1.307 . S
C71 C69 1.486 . S
C71 H75 0.960 . S
C71 H76 0.960 . S
C71 H77 0.959 . S
H72 C68 0.960 . S
H73 C68 0.961 . S
H74 C68 0.960 . S
H75 C71 0.960 . S
H76 C71 0.960 . S
H77 C71 0.959 . S
C78 N79 1.317 . S
C78 N80 1.348 . S
C78 C81 1.485 . S
N79 C78 1.317 . S
N79 N83 1.370 . S
N80 C78 1.348 . S
N80 C82 1.346 . S
C81 C78 1.485 . S
C81 H85 0.960 . S
C81 H86 0.961 . S
C81 H87 0.960 . S
C82 N80 1.346 . S
C82 N83 1.307 . S
C82 C84 1.486 . S
N83 N79 1.370 . S
N83 C82 1.307 . S
C84 C82 1.486 . S
C84 H88 0.960 . S
C84 H89 0.960 . S
C84 H90 0.959 . S
H85 C81 0.960 . S
H86 C81 0.961 . S
H87 C81 0.960 . S
H88 C84 0.960 . S
H89 C84 0.960 . S
H90 C84 0.959 . S
C91 N92 1.317 . S
C91 N93 1.348 . S
C91 C94 1.485 . S
N92 C91 1.317 . S
N92 N96 1.370 . S
N93 C91 1.348 . S
N93 C95 1.346 . S
C94 C91 1.485 . S
C94 H98 0.960 . S
C94 H99 0.961 . S
C94 H100 0.960 . S
C95 N93 1.346 . S
C95 N96 1.307 . S
C95 C97 1.486 . S
N96 N92 1.370 . S
N96 C95 1.307 . S
C97 C95 1.486 . S
C97 H101 0.960 . S
C97 H102 0.960 . S
C97 H103 0.959 . S
H98 C94 0.960 . S
H99 C94 0.961 . S
H100 C94 0.960 . S
H101 C97 0.960 . S
H102 C97 0.960 . S
H103 C97 0.959 . S
C104 C105 1.443 . S
C104 N108 1.376 . S
C104 C142 1.389 . S
C105 C104 1.443 . S
C105 C106 1.340 . S
C105 H145 0.951 . S
C106 C105 1.340 . S
C106 C107 1.439 . S
C106 H146 0.950 . S
C107 C106 1.439 . S
C107 N108 1.374 . S
C107 C141 1.395 . S
N108 C104 1.376 . S
N108 C107 1.374 . S
N108 Co109 2.008 . S
Co109 N108 2.008 . S
Co109 N110 1.995 . S
Co109 N115 2.008 . S
Co109 N120 1.995 . S
Co109 N125 2.282 . S
Co109 N131 2.282 . S
N110 Co109 1.995 . S
N110 C111 1.376 . S
N110 C114 1.383 . S
C111 N110 1.376 . S
C111 C112 1.446 . S
C111 C141 1.391 . S
C112 C111 1.446 . S
C112 C113 1.339 . S
C112 H147 0.949 . S
C113 C112 1.339 . S
C113 C114 1.439 . S
C113 H148 0.950 1_455 S
C114 N110 1.383 . S
C114 C113 1.439 . S
C114 C143 1.392 . S
N115 Co109 2.008 . S
N115 C116 1.376 . S
N115 C119 1.374 . S
C116 N115 1.376 . S
C116 C117 1.443 . S
C116 C143 1.389 . S
C117 C116 1.443 . S
C117 C118 1.340 . S
C117 H149 0.951 . S
C118 C117 1.340 . S
C118 C119 1.439 . S
C118 H150 0.950 . S
C119 N115 1.374 . S
C119 C118 1.439 . S
C119 C144 1.395 . S
N120 Co109 1.995 . S
N120 C121 1.376 . S
N120 C124 1.383 . S
C121 N120 1.376 . S
C121 C122 1.446 . S
C121 C144 1.391 . S
C122 C121 1.446 . S
C122 C123 1.339 . S
C122 H151 0.949 . S
C123 C122 1.339 . S
C123 C124 1.439 . S
C123 H152 0.950 . S
C124 N120 1.383 . S
C124 C123 1.439 . S
C124 C142 1.392 . S
N125 Co109 2.282 . S
N125 C128 1.332 . S
N125 C130 1.332 . S
C126 C127 1.386 . S
C126 C129 1.388 . S
C127 C126 1.386 . S
C127 C128 1.382 . S
C127 H153 0.950 . S
C128 N125 1.332 . S
C128 C127 1.382 . S
C128 H139 0.952 . S
C129 C126 1.388 . S
C129 C130 1.382 . S
C129 H154 0.950 . S
C130 N125 1.332 . S
C130 C129 1.382 . S
C130 H140 0.948 . S
N131 Co109 2.282 . S
N131 C135 1.332 . S
N131 C136 1.332 . S
C132 C133 1.388 . S
C132 C136 1.382 . S
C132 H155 0.950 . S
C133 C132 1.388 . S
C133 C134 1.386 . S
C134 C133 1.386 . S
C134 C135 1.382 . S
C134 H156 0.950 . S
C135 N131 1.332 . S
C135 C134 1.382 . S
C135 H137 0.952 . S
C136 N131 1.332 . S
C136 C132 1.382 . S
C136 H138 0.948 . S
H137 C135 0.952 . S
H138 C136 0.948 . S
H139 C128 0.952 . S
H140 C130 0.948 . S
C141 C107 1.395 . S
C141 C111 1.391 . S
C142 C104 1.389 . S
C142 C124 1.392 . S
C143 C114 1.392 . S
C143 C116 1.389 . S
C144 C119 1.395 . S
C144 C121 1.391 . S
H145 C105 0.951 . S
H146 C106 0.950 . S
H147 C112 0.949 . S
H148 C113 0.950 1_655 S
H149 C117 0.951 . S
H150 C118 0.950 . S
H151 C122 0.949 . S
H152 C123 0.950 . S
H153 C127 0.950 . S
H154 C129 0.950 . S
H155 C132 0.950 . S
H156 C134 0.950 . S
C157 C158 1.443 . S
C157 N161 1.376 . S
C157 C195 1.389 . S
C158 C157 1.443 . S
C158 C159 1.340 . S
C158 H198 0.951 . S
C159 C158 1.340 . S
C159 C160 1.439 . S
C159 H199 0.950 . S
C160 C159 1.439 . S
C160 N161 1.374 . S
C160 C194 1.395 1_455 S
N161 C157 1.376 . S
N161 C160 1.374 . S
N161 Co162 2.008 . S
Co162 N161 2.008 . S
Co162 N163 1.995 1_455 S
Co162 N168 2.008 1_455 S
Co162 N173 1.995 . S
Co162 N178 2.282 . S
Co162 N184 2.282 1_455 S
N163 Co162 1.995 1_655 S
N163 C164 1.376 . S
N163 C167 1.383 . S
C164 N163 1.376 . S
C164 C165 1.446 . S
C164 C194 1.391 . S
C165 C164 1.446 . S
C165 C166 1.339 . S
C165 H200 0.949 . S
C166 C165 1.339 . S
C166 C167 1.439 . S
C166 H201 0.950 . S
C167 N163 1.383 . S
C167 C166 1.439 . S
C167 C196 1.392 . S
N168 Co162 2.008 1_655 S
N168 C169 1.376 . S
N168 C172 1.374 . S
C169 N168 1.376 . S
C169 C170 1.443 . S
C169 C196 1.389 . S
C170 C169 1.443 . S
C170 C171 1.340 . S
C170 H202 0.951 . S
C171 C170 1.340 . S
C171 C172 1.439 . S
C171 H203 0.950 . S
C172 N168 1.374 . S
C172 C171 1.439 . S
C172 C197 1.395 1_655 S
N173 Co162 1.995 . S
N173 C174 1.376 . S
N173 C177 1.383 . S
C174 N173 1.376 . S
C174 C175 1.446 . S
C174 C197 1.391 . S
C175 C174 1.446 . S
C175 C176 1.339 . S
C175 H204 0.949 . S
C176 C175 1.339 . S
C176 C177 1.439 . S
C176 H205 0.950 . S
C177 N173 1.383 . S
C177 C176 1.439 . S
C177 C195 1.392 . S
N178 Co162 2.282 . S
N178 C181 1.332 . S
N178 C183 1.332 . S
C179 C180 1.386 . S
C179 C182 1.388 . S
C180 C179 1.386 . S
C180 C181 1.382 . S
C180 H206 0.950 . S
C181 N178 1.332 . S
C181 C180 1.382 . S
C181 H192 0.952 . S
C182 C179 1.388 . S
C182 C183 1.382 . S
C182 H207 0.950 . S
C183 N178 1.332 . S
C183 C182 1.382 . S
C183 H193 0.948 . S
N184 Co162 2.282 1_655 S
N184 C188 1.332 . S
N184 C189 1.332 . S
C185 C186 1.388 . S
C185 C189 1.382 . S
C185 H208 0.950 . S
C186 C185 1.388 . S
C186 C187 1.386 . S
C187 C186 1.386 . S
C187 C188 1.382 . S
C187 H209 0.950 . S
C188 N184 1.332 . S
C188 C187 1.382 . S
C188 H190 0.952 . S
C189 N184 1.332 . S
C189 C185 1.382 . S
C189 H191 0.948 . S
H190 C188 0.952 . S
H191 C189 0.948 . S
H192 C181 0.952 . S
H193 C183 0.948 . S
C194 C160 1.395 1_655 S
C194 C164 1.391 . S
C195 C157 1.389 . S
C195 C177 1.392 . S
C196 C167 1.392 . S
C196 C169 1.389 . S
C197 C172 1.395 1_455 S
C197 C174 1.391 . S
H198 C158 0.951 . S
H199 C159 0.950 . S
H200 C165 0.949 . S
H201 C166 0.950 . S
H202 C170 0.951 . S
H203 C171 0.950 . S
H204 C175 0.949 . S
H205 C176 0.950 . S
H206 C180 0.950 . S
H207 C182 0.950 . S
H208 C185 0.950 . S
H209 C187 0.950 . S
C210 C211 1.443 . S
C210 N214 1.376 1_565 S
C210 C248 1.389 . S
C211 C210 1.443 . S
C211 C212 1.340 . S
C211 H251 0.951 . S
C212 C211 1.340 . S
C212 C213 1.439 1_565 S
C212 H252 0.950 . S
C213 C212 1.439 1_545 S
C213 N214 1.374 . S
C213 C247 1.395 . S
N214 C210 1.376 1_545 S
N214 C213 1.374 . S
N214 Co215 2.008 . S
Co215 N214 2.008 . S
Co215 N216 1.995 . S
Co215 N221 2.008 . S
Co215 N226 2.016 . S
Co215 N231 2.282 . S
Co215 N237 2.269 1_545 S
N216 Co215 1.995 . S
N216 C217 1.376 . S
N216 C220 1.383 . S
C217 N216 1.376 . S
C217 C218 1.446 . S
C217 C247 1.391 . S
C218 C217 1.446 . S
C218 C219 1.339 . S
C218 H253 0.949 . S
C219 C218 1.339 . S
C219 C220 1.439 . S
C219 H254 0.950 . S
C220 N216 1.383 . S
C220 C219 1.439 . S
C220 C249 1.392 . S
N221 Co215 2.008 . S
N221 C222 1.376 . S
N221 C225 1.374 . S
C222 N221 1.376 . S
C222 C223 1.443 . S
C222 C249 1.389 . S
C223 C222 1.443 . S
C223 C224 1.340 . S
C223 H255 0.951 . S
C224 C223 1.340 . S
C224 C225 1.439 . S
C224 H256 0.950 . S
C225 N221 1.374 . S
C225 C224 1.439 . S
C225 C250 1.395 . S
N226 Co215 2.016 . S
N226 C227 1.382 1_545 S
N226 C230 1.353 1_545 S
C227 N226 1.382 1_565 S
C227 C228 1.474 . S
C227 C250 1.367 1_565 S
C228 C227 1.474 . S
C228 C229 1.339 . S
C228 H257 0.949 . S
C229 C228 1.339 . S
C229 C230 1.439 . S
C229 H258 0.950 . S
C230 N226 1.353 1_565 S
C230 C229 1.439 . S
C230 C248 1.392 . S
N231 Co215 2.282 . S
N231 C234 1.332 . S
N231 C236 1.332 . S
C232 C233 1.386 . S
C232 C235 1.388 . S
C233 C232 1.386 . S
C233 C234 1.382 . S
C233 H259 0.950 . S
C234 N231 1.332 . S
C234 C233 1.382 . S
C234 H245 0.952 . S
C235 C232 1.388 . S
C235 C236 1.382 . S
C235 H260 0.950 . S
C236 N231 1.332 . S
C236 C235 1.382 . S
C236 H246 0.948 . S
N237 Co215 2.269 1_565 S
N237 C241 1.337 . S
N237 C242 1.343 . S
C238 C239 1.388 . S
C238 C242 1.382 . S
C238 H261 0.950 . S
C239 C238 1.388 . S
C239 C240 1.386 . S
C240 C239 1.386 . S
C240 C241 1.382 . S
C240 H262 0.950 . S
C241 N237 1.337 . S
C241 C240 1.382 . S
C241 H243 0.952 1_565 S
C242 N237 1.343 . S
C242 C238 1.382 . S
C242 H244 0.948 . S
H243 C241 0.952 1_545 S
H244 C242 0.948 . S
H245 C234 0.952 . S
H246 C236 0.948 . S
C247 C213 1.395 . S
C247 C217 1.391 . S
C248 C210 1.389 . S
C248 C230 1.392 . S
C249 C220 1.392 . S
C249 C222 1.389 . S
C250 C225 1.395 . S
C250 C227 1.367 1_545 S
H251 C211 0.951 . S
H252 C212 0.950 . S
H253 C218 0.949 . S
H254 C219 0.950 . S
H255 C223 0.951 . S
H256 C224 0.950 . S
H257 C228 0.949 . S
H258 C229 0.950 . S
H259 C233 0.950 . S
H260 C235 0.950 . S
H261 C238 0.950 . S
H262 C240 0.950 . S
C263 C264 1.443 . S
C263 N267 1.376 . S
C263 C301 1.389 . S
C264 C263 1.443 . S
C264 C265 1.340 . S
C264 H304 0.951 . S
C265 C264 1.340 . S
C265 C266 1.439 . S
C265 H305 0.950 . S
C266 C265 1.439 . S
C266 N267 1.374 . S
C266 C300 1.395 . S
N267 C263 1.376 . S
N267 C266 1.374 . S
N267 Co268 2.008 . S
Co268 N267 2.008 . S
Co268 N269 1.995 . S
Co268 N274 2.008 . S
Co268 N279 1.995 . S
Co268 N284 2.282 . S
Co268 N290 2.282 . S
N269 Co268 1.995 . S
N269 C270 1.376 . S
N269 C273 1.383 1_554 S
C270 N269 1.376 . S
C270 C271 1.446 1_554 S
C270 C300 1.391 . S
C271 C270 1.446 1_556 S
C271 C272 1.339 . S
C271 H306 0.949 . S
C272 C271 1.339 . S
C272 C273 1.439 . S
C272 H307 0.950 . S
C273 N269 1.383 1_556 S
C273 C272 1.439 . S
C273 C302 1.392 . S
N274 Co268 2.008 . S
N274 C275 1.376 1_554 S
N274 C278 1.374 . S
C275 N274 1.376 1_556 S
C275 C276 1.443 . S
C275 C302 1.389 . S
C276 C275 1.443 . S
C276 C277 1.340 1_556 S
C276 H308 0.951 . S
C277 C276 1.340 1_554 S
C277 C278 1.439 . S
C277 H309 0.950 . S
C278 N274 1.374 . S
C278 C277 1.439 . S
C278 C303 1.395 . S
N279 Co268 1.995 . S
N279 C280 1.376 . S
N279 C283 1.383 . S
C280 N279 1.376 . S
C280 C281 1.446 . S
C280 C303 1.391 . S
C281 C280 1.446 . S
C281 C282 1.339 . S
C281 H310 0.949 . S
C282 C281 1.339 . S
C282 C283 1.439 . S
C282 H311 0.950 . S
C283 N279 1.383 . S
C283 C282 1.439 . S
C283 C301 1.392 . S
N284 Co268 2.282 . S
N284 C287 1.332 . S
N284 C289 1.332 1_554 S
C285 C286 1.386 . S
C285 C288 1.388 . S
C286 C285 1.386 . S
C286 C287 1.382 1_556 S
C286 H312 0.950 . S
C287 N284 1.332 . S
C287 C286 1.382 1_554 S
C287 H298 0.952 . S
C288 C285 1.388 . S
C288 C289 1.382 . S
C288 H313 0.950 . S
C289 N284 1.332 1_556 S
C289 C288 1.382 . S
C289 H299 0.948 . S
N290 Co268 2.282 . S
N290 C294 1.332 . S
N290 C295 1.332 . S
C291 C292 1.388 . S
C291 C295 1.382 . S
C291 H314 0.950 . S
C292 C291 1.388 . S
C292 C293 1.386 . S
C293 C292 1.386 . S
C293 C294 1.382 . S
C293 H315 0.950 . S
C294 N290 1.332 . S
C294 C293 1.382 . S
C294 H296 0.952 . S
C295 N290 1.332 . S
C295 C291 1.382 . S
C295 H297 0.948 . S
H296 C294 0.952 . S
H297 C295 0.948 . S
H298 C287 0.952 . S
H299 C289 0.948 . S
C300 C266 1.395 . S
C300 C270 1.391 . S
C301 C263 1.389 . S
C301 C283 1.392 . S
C302 C273 1.392 . S
C302 C275 1.389 . S
C303 C278 1.395 . S
C303 C280 1.391 . S
H304 C264 0.951 . S
H305 C265 0.950 . S
H306 C271 0.949 . S
H307 C272 0.950 . S
H308 C276 0.951 . S
H309 C277 0.950 . S
H310 C281 0.949 . S
H311 C282 0.950 . S
H312 C286 0.950 . S
H313 C288 0.950 . S
H314 C291 0.950 . S
H315 C293 0.950 . S
C316 C317 1.429 1_645 S
C316 N320 1.376 . S
C316 C354 1.389 1_545 S
C317 C316 1.429 1_465 S
C317 C318 1.317 1_565 S
C317 H357 0.984 . S
C318 C317 1.317 1_545 S
C318 C319 1.439 . S
C318 H358 0.950 . S
C319 C318 1.439 . S
C319 N320 1.374 1_455 S
C319 C353 1.395 . S
N320 C316 1.376 . S
N320 C319 1.374 1_655 S
N320 Co321 2.008 . S
Co321 N320 2.008 . S
Co321 N322 1.995 . S
Co321 N327 2.008 . S
Co321 N332 1.995 . S
Co321 N337 2.282 . S
Co321 N343 2.282 . S
N322 Co321 1.995 . S
N322 C323 1.376 1_655 S
N322 C326 1.383 . S
C323 N322 1.376 1_455 S
C323 C324 1.446 . S
C323 C353 1.391 . S
C324 C323 1.446 . S
C324 C325 1.339 . S
C324 H359 0.949 . S
C325 C324 1.339 . S
C325 C326 1.439 1_455 S
C325 H360 0.950 . S
C326 N322 1.383 . S
C326 C325 1.439 1_655 S
C326 C355 1.392 . S
N327 Co321 2.008 . S
N327 C328 1.376 . S
N327 C331 1.374 . S
C328 N327 1.376 . S
C328 C329 1.443 . S
C328 C355 1.389 . S
C329 C328 1.443 . S
C329 C330 1.340 . S
C329 H361 0.951 . S
C330 C329 1.340 . S
C330 C331 1.439 . S
C330 H362 0.950 . S
C331 N327 1.374 . S
C331 C330 1.439 . S
C331 C356 1.395 . S
N332 Co321 1.995 . S
N332 C333 1.376 . S
N332 C336 1.383 1_545 S
C333 N332 1.376 . S
C333 C334 1.446 1_545 S
C333 C356 1.391 . S
C334 C333 1.446 1_565 S
C334 C335 1.339 . S
C334 H363 0.949 . S
C335 C334 1.339 . S
C335 C336 1.439 . S
C335 H364 0.950 . S
C336 N332 1.383 1_565 S
C336 C335 1.439 . S
C336 C354 1.392 . S
N337 Co321 2.282 . S
N337 C340 1.332 . S
N337 C342 1.332 . S
C338 C339 1.386 . S
C338 C341 1.388 . S
C339 C338 1.386 . S
C339 C340 1.382 . S
C339 H365 0.950 . S
C340 N337 1.332 . S
C340 C339 1.382 . S
C340 H351 0.952 . S
C341 C338 1.388 . S
C341 C342 1.382 . S
C341 H366 0.950 . S
C342 N337 1.332 . S
C342 C341 1.382 . S
C342 H352 0.948 . S
N343 Co321 2.282 . S
N343 C347 1.332 . S
N343 C348 1.332 . S
C344 C345 1.388 . S
C344 C348 1.382 1_565 S
C344 H367 0.950 . S
C345 C344 1.388 . S
C345 C346 1.383 1_565 S
C346 C345 1.383 1_545 S
C346 C347 1.386 . S
C346 H368 0.951 1_655 S
C347 N343 1.332 . S
C347 C346 1.386 . S
C347 H349 0.969 . S
C348 N343 1.332 . S
C348 C344 1.382 1_545 S
C348 H350 0.948 . S
H349 C347 0.969 . S
H350 C348 0.948 . S
H351 C340 0.952 . S
H352 C342 0.948 . S
C353 C319 1.395 . S
C353 C323 1.391 . S
C354 C316 1.389 1_565 S
C354 C336 1.392 . S
C355 C326 1.392 . S
C355 C328 1.389 . S
C356 C331 1.395 . S
C356 C333 1.391 . S
H357 C317 0.984 . S
H358 C318 0.950 . S
H359 C324 0.949 . S
H360 C325 0.950 . S
H361 C329 0.951 . S
H362 C330 0.950 . S
H363 C334 0.949 . S
H364 C335 0.950 . S
H365 C339 0.950 . S
H366 C341 0.950 . S
H367 C344 0.950 . S
H368 C346 0.951 1_455 S
C369 C370 1.443 . S
C369 N373 1.376 . S
C369 C407 1.389 . S
C370 C369 1.443 . S
C370 C371 1.340 . S
C370 H410 0.951 . S
C371 C370 1.340 . S
C371 C372 1.439 . S
C371 H411 0.950 . S
C372 C371 1.439 . S
C372 N373 1.374 . S
C372 C406 1.395 . S
N373 C369 1.376 . S
N373 C372 1.374 . S
N373 Co374 2.008 . S
Co374 N373 2.008 . S
Co374 N375 1.995 1_554 S
Co374 N380 2.008 1_554 S
Co374 N385 1.995 . S
Co374 N390 2.282 1_554 S
Co374 N396 2.282 . S
N375 Co374 1.995 1_556 S
N375 C376 1.376 . S
N375 C379 1.383 . S
C376 N375 1.376 . S
C376 C377 1.446 . S
C376 C406 1.391 1_556 S
C377 C376 1.446 . S
C377 C378 1.339 . S
C377 H412 0.949 . S
C378 C377 1.339 . S
C378 C379 1.439 . S
C378 H413 0.950 . S
C379 N375 1.383 . S
C379 C378 1.439 . S
C379 C408 1.392 . S
N380 Co374 2.008 1_556 S
N380 C381 1.376 . S
N380 C384 1.374 1_556 S
C381 N380 1.376 . S
C381 C382 1.443 . S
C381 C408 1.389 . S
C382 C381 1.443 . S
C382 C383 1.340 . S
C382 H414 0.951 . S
C383 C382 1.340 . S
C383 C384 1.439 1_556 S
C383 H415 0.950 . S
C384 N380 1.374 1_554 S
C384 C383 1.439 1_554 S
C384 C409 1.395 . S
N385 Co374 1.995 . S
N385 C386 1.376 . S
N385 C389 1.383 . S
C386 N385 1.376 . S
C386 C387 1.446 . S
C386 C409 1.391 . S
C387 C386 1.446 . S
C387 C388 1.339 . S
C387 H416 0.949 . S
C388 C387 1.339 . S
C388 C389 1.439 . S
C388 H417 0.950 . S
C389 N385 1.383 . S
C389 C388 1.439 . S
C389 C407 1.392 . S
N390 Co374 2.282 1_556 S
N390 C393 1.332 . S
N390 C395 1.332 . S
C391 C392 1.386 . S
C391 C394 1.388 . S
C392 C391 1.386 . S
C392 C393 1.382 . S
C392 H418 0.950 . S
C393 N390 1.332 . S
C393 C392 1.382 . S
C393 H404 0.952 . S
C394 C391 1.388 . S
C394 C395 1.382 . S
C394 H419 0.950 . S
C395 N390 1.332 . S
C395 C394 1.382 . S
C395 H405 0.948 . S
N396 Co374 2.282 . S
N396 C400 1.332 . S
N396 C401 1.332 . S
C397 C398 1.388 . S
C397 C401 1.382 . S
C397 H420 0.950 . S
C398 C397 1.388 . S
C398 C399 1.386 . S
C399 C398 1.386 . S
C399 C400 1.382 . S
C399 H421 0.950 . S
C400 N396 1.332 . S
C400 C399 1.382 . S
C400 H402 0.952 . S
C401 N396 1.332 . S
C401 C397 1.382 . S
C401 H403 0.948 . S
H402 C400 0.952 . S
H403 C401 0.948 . S
H404 C393 0.952 . S
H405 C395 0.948 . S
C406 C372 1.395 . S
C406 C376 1.391 1_554 S
C407 C369 1.389 . S
C407 C389 1.392 . S
C408 C379 1.392 . S
C408 C381 1.389 . S
C409 C384 1.395 . S
C409 C386 1.391 . S
H410 C370 0.951 . S
H411 C371 0.950 . S
H412 C377 0.949 . S
H413 C378 0.950 . S
H414 C382 0.951 . S
H415 C383 0.950 . S
H416 C387 0.949 . S
H417 C388 0.950 . S
H418 C392 0.950 . S
H419 C394 0.950 . S
H420 C397 0.950 . S
H421 C399 0.950 . S
H422 C434 0.930 . S
H423 C436 0.930 . S
H424 C437 0.930 . S
H425 C441 0.959 . S
H426 C441 0.959 . S
H427 C441 0.961 . S
H428 C442 0.960 . S
H429 C442 0.961 . S
H430 C442 0.959 . S
H431 C445 0.929 . S
H432 C446 0.931 . S
H433 C448 0.930 . S
C434 H422 0.930 . S
C434 C435 1.399 . S
C434 C439 1.399 . S
C435 C434 1.399 . S
C435 C436 1.376 . S
C436 H423 0.930 . S
C436 C435 1.376 . S
C436 C437 1.388 . S
C437 H424 0.930 . S
C437 C436 1.388 . S
C437 C438 1.390 . S
C438 C437 1.390 . S
C438 C439 1.394 . S
C438 C444 1.465 . S
C439 C434 1.399 . S
C439 C438 1.394 . S
C439 C440 1.516 . S
C440 C439 1.516 . S
C440 C441 1.502 . S
C440 C442 1.561 . S
C440 C443 1.526 . S
C441 H425 0.959 . S
C441 H426 0.959 . S
C441 H427 0.961 . S
C441 C440 1.502 . S
C442 H428 0.960 . S
C442 H429 0.961 . S
C442 H430 0.959 . S
C442 C440 1.561 . S
C443 C440 1.526 . S
C443 C444 1.396 . S
C443 C448 1.390 . S
C444 C438 1.465 . S
C444 C443 1.396 . S
C444 C445 1.399 . S
C445 H431 0.929 . S
C445 C444 1.399 . S
C445 C446 1.385 . S
C446 H432 0.931 . S
C446 C445 1.385 . S
C446 C447 1.389 . S
C447 C446 1.389 . S
C447 C448 1.387 . S
C448 H433 0.930 . S
C448 C443 1.390 . S
C448 C447 1.387 . S
H449 C461 0.930 . S
H450 C463 0.930 . S
H451 C464 0.930 . S
H452 C468 0.959 . S
H453 C468 0.959 . S
H454 C468 0.961 . S
H455 C469 0.960 . S
H456 C469 0.961 . S
H457 C469 0.959 . S
H458 C472 0.929 . S
H459 C473 0.931 . S
H460 C475 0.930 . S
C461 H449 0.930 . S
C461 C462 1.399 . S
C461 C466 1.399 . S
C462 C461 1.399 . S
C462 C463 1.376 . S
C463 H450 0.930 . S
C463 C462 1.376 . S
C463 C464 1.388 . S
C464 H451 0.930 . S
C464 C463 1.388 . S
C464 C465 1.390 . S
C465 C464 1.390 . S
C465 C466 1.394 . S
C465 C471 1.465 . S
C466 C461 1.399 . S
C466 C465 1.394 . S
C466 C467 1.516 . S
C467 C466 1.516 . S
C467 C468 1.502 . S
C467 C469 1.561 . S
C467 C470 1.526 . S
C468 H452 0.959 . S
C468 H453 0.959 . S
C468 H454 0.961 . S
C468 C467 1.502 . S
C469 H455 0.960 . S
C469 H456 0.961 . S
C469 H457 0.959 . S
C469 C467 1.561 . S
C470 C467 1.526 . S
C470 C471 1.396 . S
C470 C475 1.390 . S
C471 C465 1.465 . S
C471 C470 1.396 . S
C471 C472 1.399 . S
C472 H458 0.929 . S
C472 C471 1.399 . S
C472 C473 1.385 . S
C473 H459 0.931 . S
C473 C472 1.385 . S
C473 C474 1.389 . S
C474 C473 1.389 . S
C474 C475 1.387 . S
C475 H460 0.930 . S
C475 C470 1.390 . S
C475 C474 1.387 . S
H476 C488 0.930 . S
H477 C490 0.930 . S
H478 C491 0.930 . S
H479 C495 0.959 1_455 S
H480 C495 0.959 . S
H481 C495 0.961 . S
H482 C496 0.960 . S
H483 C496 0.961 . S
H484 C496 0.959 . S
H485 C499 0.929 . S
H486 C500 0.931 . S
H487 C502 0.930 . S
C488 H476 0.930 . S
C488 C489 1.399 . S
C488 C493 1.399 . S
C489 C488 1.399 . S
C489 C490 1.376 . S
C490 H477 0.930 . S
C490 C489 1.376 . S
C490 C491 1.388 . S
C491 H478 0.930 . S
C491 C490 1.388 . S
C491 C492 1.390 . S
C492 C491 1.390 . S
C492 C493 1.394 . S
C492 C498 1.465 . S
C493 C488 1.399 . S
C493 C492 1.394 . S
C493 C494 1.516 . S
C494 C493 1.516 . S
C494 C495 1.502 . S
C494 C496 1.561 . S
C494 C497 1.526 . S
C495 H479 0.959 1_655 S
C495 H480 0.959 . S
C495 H481 0.961 . S
C495 C494 1.502 . S
C496 H482 0.960 . S
C496 H483 0.961 . S
C496 H484 0.959 . S
C496 C494 1.561 . S
C497 C494 1.526 . S
C497 C498 1.396 . S
C497 C502 1.390 . S
C498 C492 1.465 . S
C498 C497 1.396 . S
C498 C499 1.399 . S
C499 H485 0.929 . S
C499 C498 1.399 . S
C499 C500 1.385 . S
C500 H486 0.931 . S
C500 C499 1.385 . S
C500 C501 1.386 1_655 S
C501 C500 1.386 1_455 S
C501 C502 1.384 1_455 S
C502 H487 0.930 . S
C502 C497 1.390 . S
C502 C501 1.384 1_655 S
H503 C515 0.930 . S
H504 C517 0.930 . S
H505 C518 0.930 . S
H506 C522 0.959 . S
H507 C522 0.959 . S
H508 C522 0.961 . S
H509 C523 0.960 . S
H510 C523 0.961 . S
H511 C523 0.959 . S
H512 C526 0.929 . S
H513 C527 0.931 . S
H514 C529 0.930 . S
C515 H503 0.930 . S
C515 C516 1.399 . S
C515 C520 1.399 . S
C516 C515 1.399 . S
C516 C517 1.376 . S
C517 H504 0.930 . S
C517 C516 1.376 . S
C517 C518 1.388 . S
C518 H505 0.930 . S
C518 C517 1.388 . S
C518 C519 1.390 . S
C519 C518 1.390 . S
C519 C520 1.394 . S
C519 C525 1.465 . S
C520 C515 1.399 . S
C520 C519 1.394 . S
C520 C521 1.516 . S
C521 C520 1.516 . S
C521 C522 1.502 . S
C521 C523 1.561 . S
C521 C524 1.526 . S
C522 H506 0.959 . S
C522 H507 0.959 . S
C522 H508 0.961 . S
C522 C521 1.502 . S
C523 H509 0.960 . S
C523 H510 0.961 . S
C523 H511 0.959 . S
C523 C521 1.561 . S
C524 C521 1.526 . S
C524 C525 1.396 . S
C524 C529 1.390 . S
C525 C519 1.465 . S
C525 C524 1.396 . S
C525 C526 1.399 . S
C526 H512 0.929 . S
C526 C525 1.399 . S
C526 C527 1.385 . S
C527 H513 0.931 . S
C527 C526 1.385 . S
C527 C528 1.389 . S
C528 C527 1.389 . S
C528 C529 1.387 . S
C529 H514 0.930 . S
C529 C524 1.390 . S
C529 C528 1.387 . S
H530 C542 0.930 . S
H531 C544 0.930 . S
H532 C545 0.930 . S
H533 C549 0.959 . S
H534 C549 0.959 . S
H535 C549 0.961 . S
H536 C550 0.960 . S
H537 C550 0.961 . S
H538 C550 0.959 . S
H539 C553 0.929 . S
H540 C554 0.931 . S
H541 C556 0.930 . S
C542 H530 0.930 . S
C542 C543 1.399 . S
C542 C547 1.399 . S
C543 C542 1.399 . S
C543 C544 1.376 . S
C544 H531 0.930 . S
C544 C543 1.376 . S
C544 C545 1.388 . S
C545 H532 0.930 . S
C545 C544 1.388 . S
C545 C546 1.390 . S
C546 C545 1.390 . S
C546 C547 1.394 . S
C546 C552 1.465 . S
C547 C542 1.399 . S
C547 C546 1.394 . S
C547 C548 1.516 . S
C548 C547 1.516 . S
C548 C549 1.502 . S
C548 C550 1.561 . S
C548 C551 1.526 . S
C549 H533 0.959 . S
C549 H534 0.959 . S
C549 H535 0.961 . S
C549 C548 1.502 . S
C550 H536 0.960 . S
C550 H537 0.961 . S
C550 H538 0.959 . S
C550 C548 1.561 . S
C551 C548 1.526 . S
C551 C552 1.396 . S
C551 C556 1.390 . S
C552 C546 1.465 . S
C552 C551 1.396 . S
C552 C553 1.399 . S
C553 H539 0.929 . S
C553 C552 1.399 . S
C553 C554 1.385 . S
C554 H540 0.931 . S
C554 C553 1.385 . S
C554 C555 1.389 . S
C555 C554 1.389 . S
C555 C556 1.387 . S
C556 H541 0.930 . S
C556 C551 1.390 . S
C556 C555 1.387 . S
H557 C569 0.930 . S
H558 C571 0.930 . S
H559 C572 0.930 . S
H560 C576 0.959 . S
H561 C576 0.959 . S
H562 C576 0.961 . S
H563 C577 0.960 . S
H564 C577 0.961 . S
H565 C577 0.959 . S
H566 C580 0.929 . S
H567 C581 0.931 . S
H568 C583 0.930 . S
C569 H557 0.930 . S
C569 C570 1.399 . S
C569 C574 1.399 . S
C570 C569 1.399 . S
C570 C571 1.376 . S
C571 H558 0.930 . S
C571 C570 1.376 . S
C571 C572 1.388 . S
C572 H559 0.930 . S
C572 C571 1.388 . S
C572 C573 1.390 . S
C573 C572 1.390 . S
C573 C574 1.394 . S
C573 C579 1.465 . S
C574 C569 1.399 . S
C574 C573 1.394 . S
C574 C575 1.516 . S
C575 C574 1.516 . S
C575 C576 1.502 . S
C575 C577 1.561 . S
C575 C578 1.526 . S
C576 H560 0.959 . S
C576 H561 0.959 . S
C576 H562 0.961 . S
C576 C575 1.502 . S
C577 H563 0.960 . S
C577 H564 0.961 . S
C577 H565 0.959 . S
C577 C575 1.561 . S
C578 C575 1.526 . S
C578 C579 1.396 . S
C578 C583 1.390 . S
C579 C573 1.465 . S
C579 C578 1.396 . S
C579 C580 1.399 . S
C580 H566 0.929 . S
C580 C579 1.399 . S
C580 C581 1.385 . S
C581 H567 0.931 . S
C581 C580 1.385 . S
C581 C582 1.389 . S
C582 C581 1.389 . S
C582 C583 1.387 . S
C583 H568 0.930 . S
C583 C578 1.390 . S
C583 C582 1.387 . S
H584 C596 0.930 . S
H585 C598 0.930 . S
H586 C599 0.930 . S
H587 C603 0.959 . S
H588 C603 0.959 . S
H589 C603 0.961 . S
H590 C604 0.960 . S
H591 C604 0.961 . S
H592 C604 0.959 . S
H593 C607 0.929 . S
H594 C608 0.931 . S
H595 C610 0.930 . S
C596 H584 0.930 . S
C596 C597 1.399 . S
C596 C601 1.399 . S
C597 C596 1.399 . S
C597 C598 1.376 . S
C598 H585 0.930 . S
C598 C597 1.376 . S
C598 C599 1.388 . S
C599 H586 0.930 . S
C599 C598 1.388 . S
C599 C600 1.390 . S
C600 C599 1.390 . S
C600 C601 1.394 . S
C600 C606 1.465 . S
C601 C596 1.399 . S
C601 C600 1.394 . S
C601 C602 1.516 . S
C602 C601 1.516 . S
C602 C603 1.502 . S
C602 C604 1.561 . S
C602 C605 1.526 . S
C603 H587 0.959 . S
C603 H588 0.959 . S
C603 H589 0.961 . S
C603 C602 1.502 . S
C604 H590 0.960 . S
C604 H591 0.961 . S
C604 H592 0.959 . S
C604 C602 1.561 . S
C605 C602 1.526 . S
C605 C606 1.396 . S
C605 C610 1.390 . S
C606 C600 1.465 . S
C606 C605 1.396 . S
C606 C607 1.399 . S
C607 H593 0.929 . S
C607 C606 1.399 . S
C607 C608 1.385 . S
C608 H594 0.931 . S
C608 C607 1.385 . S
C608 C609 1.389 . S
C609 C608 1.389 . S
C609 C610 1.387 . S
C610 H595 0.930 . S
C610 C605 1.390 . S
C610 C609 1.387 . S
H611 C623 0.930 . S
H612 C625 0.930 . S
H613 C626 0.930 . S
H614 C630 0.959 . S
H615 C630 0.959 . S
H616 C630 0.961 . S
H617 C631 0.960 . S
H618 C631 0.961 . S
H619 C631 0.959 . S
H620 C634 0.929 . S
H621 C635 0.931 . S
H622 C637 0.930 . S
C623 H611 0.930 . S
C623 C624 1.399 . S
C623 C628 1.399 . S
C624 C623 1.399 . S
C624 C625 1.376 . S
C625 H612 0.930 . S
C625 C624 1.376 . S
C625 C626 1.388 . S
C626 H613 0.930 . S
C626 C625 1.388 . S
C626 C627 1.390 . S
C627 C626 1.390 . S
C627 C628 1.394 . S
C627 C633 1.465 . S
C628 C623 1.399 . S
C628 C627 1.394 . S
C628 C629 1.516 . S
C629 C628 1.516 . S
C629 C630 1.502 . S
C629 C631 1.561 . S
C629 C632 1.526 . S
C630 H614 0.959 . S
C630 H615 0.959 . S
C630 H616 0.961 . S
C630 C629 1.502 . S
C631 H617 0.960 . S
C631 H618 0.961 . S
C631 H619 0.959 . S
C631 C629 1.561 . S
C632 C629 1.526 . S
C632 C633 1.396 . S
C632 C637 1.390 . S
C633 C627 1.465 . S
C633 C632 1.396 . S
C633 C634 1.399 . S
C634 H620 0.929 . S
C634 C633 1.399 . S
C634 C635 1.385 . S
C635 H621 0.931 . S
C635 C634 1.385 . S
C635 C636 1.389 . S
C636 C635 1.389 . S
C636 C637 1.387 . S
C637 H622 0.930 . S
C637 C632 1.390 . S
C637 C636 1.387 . S
H638 C650 0.930 . S
H639 C652 0.930 . S
H640 C653 0.930 . S
H641 C657 0.959 . S
H642 C657 0.959 . S
H643 C657 0.961 . S
H644 C658 0.960 . S
H645 C658 0.961 . S
H646 C658 0.959 . S
H647 C661 0.929 . S
H648 C662 0.931 . S
H649 C664 0.930 . S
C650 H638 0.930 . S
C650 C651 1.399 . S
C650 C655 1.399 . S
C651 C650 1.399 . S
C651 C652 1.376 . S
C652 H639 0.930 . S
C652 C651 1.376 . S
C652 C653 1.388 . S
C653 H640 0.930 . S
C653 C652 1.388 . S
C653 C654 1.390 . S
C654 C653 1.390 . S
C654 C655 1.394 . S
C654 C660 1.465 . S
C655 C650 1.399 . S
C655 C654 1.394 . S
C655 C656 1.516 . S
C656 C655 1.516 . S
C656 C657 1.502 . S
C656 C658 1.561 . S
C656 C659 1.526 . S
C657 H641 0.959 . S
C657 H642 0.959 . S
C657 H643 0.961 . S
C657 C656 1.502 . S
C658 H644 0.960 . S
C658 H645 0.961 . S
C658 H646 0.959 . S
C658 C656 1.561 . S
C659 C656 1.526 . S
C659 C660 1.396 . S
C659 C664 1.390 . S
C660 C654 1.465 . S
C660 C659 1.396 . S
C660 C661 1.399 . S
C661 H647 0.929 . S
C661 C660 1.399 . S
C661 C662 1.385 . S
C662 H648 0.931 . S
C662 C661 1.385 . S
C662 C663 1.389 . S
C663 C662 1.389 . S
C663 C664 1.387 . S
C664 H649 0.930 . S
C664 C659 1.390 . S
C664 C663 1.387 . S
H665 C677 0.930 . S
H666 C679 0.930 . S
H667 C680 0.930 . S
H668 C684 0.959 . S
H669 C684 0.959 . S
H670 C684 0.961 . S
H671 C685 0.960 . S
H672 C685 0.961 . S
H673 C685 0.959 . S
H674 C688 0.929 . S
H675 C689 0.931 . S
H676 C691 0.930 . S
C677 H665 0.930 . S
C677 C678 1.399 . S
C677 C682 1.399 . S
C678 C677 1.399 . S
C678 C679 1.376 . S
C679 H666 0.930 . S
C679 C678 1.376 . S
C679 C680 1.388 . S
C680 H667 0.930 . S
C680 C679 1.388 . S
C680 C681 1.390 . S
C681 C680 1.390 . S
C681 C682 1.394 . S
C681 C687 1.465 . S
C682 C677 1.399 . S
C682 C681 1.394 . S
C682 C683 1.516 . S
C683 C682 1.516 . S
C683 C684 1.502 . S
C683 C685 1.561 . S
C683 C686 1.526 . S
C684 H668 0.959 . S
C684 H669 0.959 . S
C684 H670 0.961 . S
C684 C683 1.502 . S
C685 H671 0.960 . S
C685 H672 0.961 . S
C685 H673 0.959 . S
C685 C683 1.561 . S
C686 C683 1.526 . S
C686 C687 1.396 . S
C686 C691 1.390 . S
C687 C681 1.465 . S
C687 C686 1.396 . S
C687 C688 1.399 . S
C688 H674 0.929 . S
C688 C687 1.399 . S
C688 C689 1.385 . S
C689 H675 0.931 . S
C689 C688 1.385 . S
C689 C690 1.389 . S
C690 C689 1.389 . S
C690 C691 1.387 . S
C691 H676 0.930 . S
C691 C686 1.390 . S
C691 C690 1.387 . S
H692 C704 0.930 . S
H693 C706 0.930 . S
H694 C707 0.930 . S
H695 C711 0.959 . S
H696 C711 0.959 . S
H697 C711 0.961 . S
H698 C712 0.960 . S
H699 C712 0.961 . S
H700 C712 0.959 . S
H701 C715 0.929 . S
H702 C716 0.931 . S
H703 C718 0.930 . S
C704 H692 0.930 . S
C704 C705 1.399 . S
C704 C709 1.399 . S
C705 C704 1.399 . S
C705 C706 1.376 . S
C706 H693 0.930 . S
C706 C705 1.376 . S
C706 C707 1.388 . S
C707 H694 0.930 . S
C707 C706 1.388 . S
C707 C708 1.390 . S
C708 C707 1.390 . S
C708 C709 1.394 . S
C708 C714 1.465 . S
C709 C704 1.399 . S
C709 C708 1.394 . S
C709 C710 1.516 . S
C710 C709 1.516 . S
C710 C711 1.502 . S
C710 C712 1.561 . S
C710 C713 1.526 . S
C711 H695 0.959 . S
C711 H696 0.959 . S
C711 H697 0.961 . S
C711 C710 1.502 . S
C712 H698 0.960 . S
C712 H699 0.961 . S
C712 H700 0.959 . S
C712 C710 1.561 . S
C713 C710 1.526 . S
C713 C714 1.396 . S
C713 C718 1.390 . S
C714 C708 1.465 . S
C714 C713 1.396 . S
C714 C715 1.399 . S
C715 H701 0.929 . S
C715 C714 1.399 . S
C715 C716 1.385 . S
C716 H702 0.931 . S
C716 C715 1.385 . S
C716 C717 1.389 . S
C717 C716 1.389 . S
C717 C718 1.387 . S
C718 H703 0.930 . S
C718 C713 1.390 . S
C718 C717 1.387 . S
H719 C731 0.930 . S
H720 C733 0.930 . S
H721 C734 0.930 . S
H722 C738 0.959 . S
H723 C738 0.959 . S
H724 C738 0.961 . S
H725 C739 0.960 . S
H726 C739 0.961 . S
H727 C739 0.959 . S
H728 C742 0.929 . S
H729 C743 0.931 . S
H730 C745 0.930 . S
C731 H719 0.930 . S
C731 C732 1.399 . S
C731 C736 1.399 . S
C732 C731 1.399 . S
C732 C733 1.376 . S
C733 H720 0.930 . S
C733 C732 1.376 . S
C733 C734 1.388 . S
C734 H721 0.930 . S
C734 C733 1.388 . S
C734 C735 1.390 . S
C735 C734 1.390 . S
C735 C736 1.394 . S
C735 C741 1.465 . S
C736 C731 1.399 . S
C736 C735 1.394 . S
C736 C737 1.516 . S
C737 C736 1.516 . S
C737 C738 1.502 . S
C737 C739 1.561 . S
C737 C740 1.526 . S
C738 H722 0.959 . S
C738 H723 0.959 . S
C738 H724 0.961 . S
C738 C737 1.502 . S
C739 H725 0.960 . S
C739 H726 0.961 . S
C739 H727 0.959 . S
C739 C737 1.561 . S
C740 C737 1.526 . S
C740 C741 1.396 . S
C740 C745 1.390 . S
C741 C735 1.465 . S
C741 C740 1.396 . S
C741 C742 1.399 . S
C742 H728 0.929 . S
C742 C741 1.399 . S
C742 C743 1.385 . S
C743 H729 0.931 . S
C743 C742 1.385 . S
C743 C744 1.389 . S
C744 C743 1.389 . S
C744 C745 1.387 . S
C745 H730 0.930 . S
C745 C740 1.390 . S
C745 C744 1.387 . S
H746 C758 0.930 . S
H747 C760 0.930 . S
H748 C761 0.930 . S
H749 C765 0.959 . S
H750 C765 0.959 . S
H751 C765 0.961 . S
H752 C766 0.960 . S
H753 C766 0.961 . S
H754 C766 0.959 . S
H755 C769 0.929 . S
H756 C770 0.931 . S
H757 C772 0.930 . S
C758 H746 0.930 . S
C758 C759 1.399 . S
C758 C763 1.399 . S
C759 C758 1.399 . S
C759 C760 1.376 . S
C760 H747 0.930 . S
C760 C759 1.376 . S
C760 C761 1.388 . S
C761 H748 0.930 . S
C761 C760 1.388 . S
C761 C762 1.390 . S
C762 C761 1.390 . S
C762 C763 1.394 . S
C762 C768 1.465 . S
C763 C758 1.399 . S
C763 C762 1.394 . S
C763 C764 1.516 . S
C764 C763 1.516 . S
C764 C765 1.502 . S
C764 C766 1.561 . S
C764 C767 1.526 . S
C765 H749 0.959 . S
C765 H750 0.959 . S
C765 H751 0.961 . S
C765 C764 1.502 . S
C766 H752 0.960 . S
C766 H753 0.961 . S
C766 H754 0.959 . S
C766 C764 1.561 . S
C767 C764 1.526 . S
C767 C768 1.396 . S
C767 C772 1.390 . S
C768 C762 1.465 . S
C768 C767 1.396 . S
C768 C769 1.399 . S
C769 H755 0.929 . S
C769 C768 1.399 . S
C769 C770 1.385 . S
C770 H756 0.931 . S
C770 C769 1.385 . S
C770 C771 1.389 . S
C771 C770 1.389 . S
C771 C772 1.387 . S
C772 H757 0.930 . S
C772 C767 1.390 . S
C772 C771 1.387 . S
H773 C785 0.930 . S
H774 C787 0.930 . S
H775 C788 0.930 . S
H776 C792 0.959 . S
H777 C792 0.959 . S
H778 C792 0.961 . S
H779 C793 0.960 . S
H780 C793 0.961 . S
H781 C793 0.959 . S
H782 C796 0.929 . S
H783 C797 0.931 1_455 S
H784 C799 0.930 . S
C785 H773 0.930 . S
C785 C786 1.399 . S
C785 C790 1.399 . S
C786 C785 1.399 . S
C786 C787 1.376 . S
C787 H774 0.930 . S
C787 C786 1.376 . S
C787 C788 1.388 . S
C788 H775 0.930 . S
C788 C787 1.388 . S
C788 C789 1.390 . S
C789 C788 1.390 . S
C789 C790 1.394 . S
C789 C795 1.465 . S
C790 C785 1.399 . S
C790 C789 1.394 . S
C790 C791 1.516 . S
C791 C790 1.516 . S
C791 C792 1.502 . S
C791 C793 1.561 . S
C791 C794 1.526 . S
C792 H776 0.959 . S
C792 H777 0.959 . S
C792 H778 0.961 . S
C792 C791 1.502 . S
C793 H779 0.960 . S
C793 H780 0.961 . S
C793 H781 0.959 . S
C793 C791 1.561 . S
C794 C791 1.526 . S
C794 C795 1.396 . S
C794 C799 1.390 . S
C795 C789 1.465 . S
C795 C794 1.396 . S
C795 C796 1.399 . S
C796 H782 0.929 . S
C796 C795 1.399 . S
C796 C797 1.385 . S
C797 H783 0.931 1_655 S
C797 C796 1.385 . S
C797 C798 1.389 . S
C798 C797 1.389 . S
C798 C799 1.387 . S
C799 H784 0.930 . S
C799 C794 1.390 . S
C799 C798 1.387 . S
H800 C812 0.930 . S
H801 C814 0.930 . S
H802 C815 0.930 . S
H803 C819 0.959 . S
H804 C819 0.959 . S
H805 C819 0.961 . S
H806 C820 0.960 . S
H807 C820 0.961 . S
H808 C820 0.959 . S
H809 C823 0.929 . S
H810 C824 0.931 . S
H811 C826 0.930 . S
C812 H800 0.930 . S
C812 C813 1.399 . S
C812 C817 1.399 . S
C813 C812 1.399 . S
C813 C814 1.376 . S
C814 H801 0.930 . S
C814 C813 1.376 . S
C814 C815 1.388 . S
C815 H802 0.930 . S
C815 C814 1.388 . S
C815 C816 1.390 . S
C816 C815 1.390 . S
C816 C817 1.394 . S
C816 C822 1.465 . S
C817 C812 1.399 . S
C817 C816 1.394 . S
C817 C818 1.516 . S
C818 C817 1.516 . S
C818 C819 1.502 . S
C818 C820 1.561 . S
C818 C821 1.526 . S
C819 H803 0.959 . S
C819 H804 0.959 . S
C819 H805 0.961 . S
C819 C818 1.502 . S
C820 H806 0.960 . S
C820 H807 0.961 . S
C820 H808 0.959 . S
C820 C818 1.561 . S
C821 C818 1.526 . S
C821 C822 1.396 . S
C821 C826 1.390 . S
C822 C816 1.465 . S
C822 C821 1.396 . S
C822 C823 1.399 . S
C823 H809 0.929 . S
C823 C822 1.399 . S
C823 C824 1.385 . S
C824 H810 0.931 . S
C824 C823 1.385 . S
C824 C825 1.389 . S
C825 C824 1.389 . S
C825 C826 1.387 . S
C826 H811 0.930 . S
C826 C821 1.390 . S
C826 C825 1.387 . S
H827 C839 0.930 . S
H828 C841 0.930 . S
H829 C842 0.930 . S
H830 C846 0.959 . S
H831 C846 0.959 . S
H832 C846 0.961 . S
H833 C847 0.960 . S
H834 C847 0.961 . S
H835 C847 0.959 . S
H836 C850 0.929 . S
H837 C851 0.931 . S
H838 C853 0.930 . S
C839 H827 0.930 . S
C839 C840 1.399 . S
C839 C844 1.399 . S
C840 C839 1.399 . S
C840 C841 1.376 . S
C841 H828 0.930 . S
C841 C840 1.376 . S
C841 C842 1.388 . S
C842 H829 0.930 . S
C842 C841 1.388 . S
C842 C843 1.390 . S
C843 C842 1.390 . S
C843 C844 1.394 . S
C843 C849 1.465 . S
C844 C839 1.399 . S
C844 C843 1.394 . S
C844 C845 1.516 . S
C845 C844 1.516 . S
C845 C846 1.502 . S
C845 C847 1.561 . S
C845 C848 1.526 . S
C846 H830 0.959 . S
C846 H831 0.959 . S
C846 H832 0.961 . S
C846 C845 1.502 . S
C847 H833 0.960 . S
C847 H834 0.961 . S
C847 H835 0.959 . S
C847 C845 1.561 . S
C848 C845 1.526 . S
C848 C849 1.396 . S
C848 C853 1.390 . S
C849 C843 1.465 . S
C849 C848 1.396 . S
C849 C850 1.399 . S
C850 H836 0.929 . S
C850 C849 1.399 . S
C850 C851 1.385 . S
C851 H837 0.931 . S
C851 C850 1.385 . S
C851 C852 1.389 . S
C852 C851 1.389 . S
C852 C853 1.387 . S
C853 H838 0.930 . S
C853 C848 1.390 . S
C853 C852 1.387 . S
H854 C866 0.930 . S
H855 C868 0.930 . S
H856 C869 0.930 . S
H857 C873 0.959 . S
H858 C873 0.959 . S
H859 C873 0.961 . S
H860 C874 0.960 . S
H861 C874 0.961 . S
H862 C874 0.959 . S
H863 C877 0.929 . S
H864 C878 0.931 . S
H865 C880 0.930 . S
C866 H854 0.930 . S
C866 C867 1.399 . S
C866 C871 1.399 . S
C867 C866 1.399 . S
C867 C868 1.376 . S
C868 H855 0.930 . S
C868 C867 1.376 . S
C868 C869 1.388 . S
C869 H856 0.930 . S
C869 C868 1.388 . S
C869 C870 1.390 . S
C870 C869 1.390 . S
C870 C871 1.394 . S
C870 C876 1.465 . S
C871 C866 1.399 . S
C871 C870 1.394 . S
C871 C872 1.516 . S
C872 C871 1.516 . S
C872 C873 1.502 . S
C872 C874 1.561 . S
C872 C875 1.526 . S
C873 H857 0.959 . S
C873 H858 0.959 . S
C873 H859 0.961 . S
C873 C872 1.502 . S
C874 H860 0.960 . S
C874 H861 0.961 . S
C874 H862 0.959 . S
C874 C872 1.561 . S
C875 C872 1.526 . S
C875 C876 1.396 . S
C875 C880 1.390 . S
C876 C870 1.465 . S
C876 C875 1.396 . S
C876 C877 1.399 . S
C877 H863 0.929 . S
C877 C876 1.399 . S
C877 C878 1.385 . S
C878 H864 0.931 . S
C878 C877 1.385 . S
C878 C879 1.389 . S
C879 C878 1.389 . S
C879 C880 1.387 . S
C880 H865 0.930 . S
C880 C875 1.390 . S
C880 C879 1.387 . S
H881 C893 0.930 . S
H882 C895 0.930 . S
H883 C896 0.930 . S
H884 C900 0.959 . S
H885 C900 0.959 . S
H886 C900 0.961 . S
H887 C901 0.960 . S
H888 C901 0.961 . S
H889 C901 0.959 . S
H890 C904 0.929 . S
H891 C905 0.931 . S
H892 C907 0.930 . S
C893 H881 0.930 . S
C893 C894 1.399 . S
C893 C898 1.399 . S
C894 C893 1.399 . S
C894 C895 1.376 . S
C895 H882 0.930 . S
C895 C894 1.376 . S
C895 C896 1.388 . S
C896 H883 0.930 . S
C896 C895 1.388 . S
C896 C897 1.390 . S
C897 C896 1.390 . S
C897 C898 1.394 . S
C897 C903 1.465 . S
C898 C893 1.399 . S
C898 C897 1.394 . S
C898 C899 1.516 . S
C899 C898 1.516 . S
C899 C900 1.502 . S
C899 C901 1.561 . S
C899 C902 1.526 . S
C900 H884 0.959 . S
C900 H885 0.959 . S
C900 H886 0.961 . S
C900 C899 1.502 . S
C901 H887 0.960 . S
C901 H888 0.961 . S
C901 H889 0.959 . S
C901 C899 1.561 . S
C902 C899 1.526 . S
C902 C903 1.396 . S
C902 C907 1.390 . S
C903 C897 1.465 . S
C903 C902 1.396 . S
C903 C904 1.399 . S
C904 H890 0.929 . S
C904 C903 1.399 . S
C904 C905 1.385 . S
C905 H891 0.931 . S
C905 C904 1.385 . S
C905 C906 1.389 . S
C906 C905 1.389 . S
C906 C907 1.387 . S
C907 H892 0.930 . S
C907 C902 1.390 . S
C907 C906 1.387 . S
H908 C920 0.930 . S
H909 C922 0.930 . S
H910 C923 0.930 . S
H911 C927 0.959 . S
H912 C927 0.959 . S
H913 C927 0.961 . S
H914 C928 0.960 . S
H915 C928 0.961 . S
H916 C928 0.959 . S
H917 C931 0.929 . S
H918 C932 0.931 . S
H919 C934 0.930 . S
C920 H908 0.930 . S
C920 C921 1.399 . S
C920 C925 1.399 . S
C921 C920 1.399 . S
C921 C922 1.376 . S
C922 H909 0.930 . S
C922 C921 1.376 . S
C922 C923 1.388 . S
C923 H910 0.930 . S
C923 C922 1.388 . S
C923 C924 1.390 . S
C924 C923 1.390 . S
C924 C925 1.394 . S
C924 C930 1.465 . S
C925 C920 1.399 . S
C925 C924 1.394 . S
C925 C926 1.516 . S
C926 C925 1.516 . S
C926 C927 1.502 . S
C926 C928 1.561 . S
C926 C929 1.526 . S
C927 H911 0.959 . S
C927 H912 0.959 . S
C927 H913 0.961 . S
C927 C926 1.502 . S
C928 H914 0.960 . S
C928 H915 0.961 . S
C928 H916 0.959 . S
C928 C926 1.561 . S
C929 C926 1.526 . S
C929 C930 1.396 . S
C929 C934 1.390 . S
C930 C924 1.465 . S
C930 C929 1.396 . S
C930 C931 1.399 . S
C931 H917 0.929 . S
C931 C930 1.399 . S
C931 C932 1.385 . S
C932 H918 0.931 . S
C932 C931 1.385 . S
C932 C933 1.389 . S
C933 C932 1.389 . S
C933 C934 1.387 . S
C934 H919 0.930 . S
C934 C929 1.390 . S
C934 C933 1.387 . S
H935 C947 0.930 . S
H936 C949 0.930 . S
H937 C950 0.930 . S
H938 C954 0.959 . S
H939 C954 0.959 . S
H940 C954 0.961 . S
H941 C955 0.960 . S
H942 C955 0.961 . S
H943 C955 0.959 . S
H944 C958 0.929 . S
H945 C959 0.931 . S
H946 C961 0.930 . S
C947 H935 0.930 . S
C947 C948 1.399 . S
C947 C952 1.399 . S
C948 C947 1.399 . S
C948 C949 1.376 . S
C949 H936 0.930 . S
C949 C948 1.376 . S
C949 C950 1.388 . S
C950 H937 0.930 . S
C950 C949 1.388 . S
C950 C951 1.390 . S
C951 C950 1.390 . S
C951 C952 1.394 . S
C951 C957 1.465 . S
C952 C947 1.399 . S
C952 C951 1.394 . S
C952 C953 1.516 . S
C953 C952 1.516 . S
C953 C954 1.502 . S
C953 C955 1.561 . S
C953 C956 1.526 . S
C954 H938 0.959 . S
C954 H939 0.959 . S
C954 H940 0.961 . S
C954 C953 1.502 . S
C955 H941 0.960 . S
C955 H942 0.961 . S
C955 H943 0.959 . S
C955 C953 1.561 . S
C956 C953 1.526 . S
C956 C957 1.396 . S
C956 C961 1.390 . S
C957 C951 1.465 . S
C957 C956 1.396 . S
C957 C958 1.399 . S
C958 H944 0.929 . S
C958 C957 1.399 . S
C958 C959 1.385 . S
C959 H945 0.931 . S
C959 C958 1.385 . S
C959 C960 1.389 . S
C960 C959 1.389 . S
C960 C961 1.387 . S
C961 H946 0.930 . S
C961 C956 1.390 . S
C961 C960 1.387 . S
H962 C974 0.930 . S
H963 C976 0.930 . S
H964 C977 0.930 . S
H965 C981 0.959 . S
H966 C981 0.959 . S
H967 C981 0.961 . S
H968 C982 0.960 . S
H969 C982 0.961 . S
H970 C982 0.959 . S
H971 C985 0.929 . S
H972 C986 0.931 . S
H973 C988 0.930 . S
C974 H962 0.930 . S
C974 C975 1.399 . S
C974 C979 1.399 . S
C975 C974 1.399 . S
C975 C976 1.376 . S
C976 H963 0.930 . S
C976 C975 1.376 . S
C976 C977 1.388 . S
C977 H964 0.930 . S
C977 C976 1.388 . S
C977 C978 1.390 . S
C978 C977 1.390 . S
C978 C979 1.394 . S
C978 C984 1.465 . S
C979 C974 1.399 . S
C979 C978 1.394 . S
C979 C980 1.516 . S
C980 C979 1.516 . S
C980 C981 1.502 . S
C980 C982 1.561 . S
C980 C983 1.526 . S
C981 H965 0.959 . S
C981 H966 0.959 . S
C981 H967 0.961 . S
C981 C980 1.502 . S
C982 H968 0.960 . S
C982 H969 0.961 . S
C982 H970 0.959 . S
C982 C980 1.561 . S
C983 C980 1.526 . S
C983 C984 1.396 . S
C983 C988 1.390 . S
C984 C978 1.465 . S
C984 C983 1.396 . S
C984 C985 1.399 . S
C985 H971 0.929 . S
C985 C984 1.399 . S
C985 C986 1.385 . S
C986 H972 0.931 . S
C986 C985 1.385 . S
C986 C987 1.389 . S
C987 C986 1.389 . S
C987 C988 1.387 . S
C988 H973 0.930 . S
C988 C983 1.390 . S
C988 C987 1.387 . S
H989 C1001 0.930 . S
H990 C1003 0.930 . S
H991 C1004 0.930 . S
H992 C1008 0.959 . S
H993 C1008 0.959 . S
H994 C1008 0.961 . S
H995 C1009 0.960 . S
H996 C1009 0.961 . S
H997 C1009 0.959 . S
H998 C1012 0.929 . S
H999 C1013 0.931 . S
H1000 C1015 0.930 . S
C1001 H989 0.930 . S
C1001 C1002 1.399 . S
C1001 C1006 1.399 . S
C1002 C1001 1.399 . S
C1002 C1003 1.376 . S
C1003 H990 0.930 . S
C1003 C1002 1.376 . S
C1003 C1004 1.388 . S
C1004 H991 0.930 . S
C1004 C1003 1.388 . S
C1004 C1005 1.390 . S
C1005 C1004 1.390 . S
C1005 C1006 1.394 . S
C1005 C1011 1.465 . S
C1006 C1001 1.399 . S
C1006 C1005 1.394 . S
C1006 C1007 1.516 . S
C1007 C1006 1.516 . S
C1007 C1008 1.502 . S
C1007 C1009 1.561 . S
C1007 C1010 1.526 . S
C1008 H992 0.959 . S
C1008 H993 0.959 . S
C1008 H994 0.961 . S
C1008 C1007 1.502 . S
C1009 H995 0.960 . S
C1009 H996 0.961 . S
C1009 H997 0.959 . S
C1009 C1007 1.561 . S
C1010 C1007 1.526 . S
C1010 C1011 1.396 . S
C1010 C1015 1.390 . S
C1011 C1005 1.465 . S
C1011 C1010 1.396 . S
C1011 C1012 1.399 . S
C1012 H998 0.929 . S
C1012 C1011 1.399 . S
C1012 C1013 1.385 . S
C1013 H999 0.931 . S
C1013 C1012 1.385 . S
C1013 C1014 1.389 . S
C1014 C1013 1.389 . S
C1014 C1015 1.387 . S
C1015 H1000 0.930 . S
C1015 C1010 1.390 . S
C1015 C1014 1.387 . S
H1016 C1028 0.930 . S
H1017 C1030 0.930 . S
H1018 C1031 0.930 . S
H1019 C1035 0.959 . S
H1020 C1035 0.959 . S
H1021 C1035 0.961 . S
H1022 C1036 0.960 . S
H1023 C1036 0.961 . S
H1024 C1036 0.959 . S
H1025 C1039 0.929 . S
H1026 C1040 0.931 . S
H1027 C1042 0.930 . S
C1028 H1016 0.930 . S
C1028 C1029 1.399 . S
C1028 C1033 1.399 . S
C1029 C1028 1.399 . S
C1029 C1030 1.376 . S
C1030 H1017 0.930 . S
C1030 C1029 1.376 . S
C1030 C1031 1.388 . S
C1031 H1018 0.930 . S
C1031 C1030 1.388 . S
C1031 C1032 1.390 . S
C1032 C1031 1.390 . S
C1032 C1033 1.394 . S
C1032 C1038 1.465 . S
C1033 C1028 1.399 . S
C1033 C1032 1.394 . S
C1033 C1034 1.516 . S
C1034 C1033 1.516 . S
C1034 C1035 1.502 . S
C1034 C1036 1.561 . S
C1034 C1037 1.526 . S
C1035 H1019 0.959 . S
C1035 H1020 0.959 . S
C1035 H1021 0.961 . S
C1035 C1034 1.502 . S
C1036 H1022 0.960 . S
C1036 H1023 0.961 . S
C1036 H1024 0.959 . S
C1036 C1034 1.561 . S
C1037 C1034 1.526 . S
C1037 C1038 1.396 . S
C1037 C1042 1.390 . S
C1038 C1032 1.465 . S
C1038 C1037 1.396 . S
C1038 C1039 1.399 . S
C1039 H1025 0.929 . S
C1039 C1038 1.399 . S
C1039 C1040 1.385 . S
C1040 H1026 0.931 . S
C1040 C1039 1.385 . S
C1040 C1041 1.389 . S
C1041 C1040 1.389 . S
C1041 C1042 1.387 . S
C1042 H1027 0.930 . S
C1042 C1037 1.390 . S
C1042 C1041 1.387 . S
H1043 C1055 0.930 . S
H1044 C1057 0.930 . S
H1045 C1058 0.930 . S
H1046 C1062 0.959 . S
H1047 C1062 0.959 . S
H1048 C1062 0.961 . S
H1049 C1063 0.960 . S
H1050 C1063 0.961 . S
H1051 C1063 0.959 . S
H1052 C1066 0.929 . S
H1053 C1067 0.931 . S
H1054 C1069 0.930 . S
C1055 H1043 0.930 . S
C1055 C1056 1.399 . S
C1055 C1060 1.399 . S
C1056 C1055 1.399 . S
C1056 C1057 1.376 . S
C1057 H1044 0.930 . S
C1057 C1056 1.376 . S
C1057 C1058 1.388 . S
C1058 H1045 0.930 . S
C1058 C1057 1.388 . S
C1058 C1059 1.390 . S
C1059 C1058 1.390 . S
C1059 C1060 1.394 . S
C1059 C1065 1.465 . S
C1060 C1055 1.399 . S
C1060 C1059 1.394 . S
C1060 C1061 1.516 . S
C1061 C1060 1.516 . S
C1061 C1062 1.502 . S
C1061 C1063 1.561 . S
C1061 C1064 1.526 . S
C1062 H1046 0.959 . S
C1062 H1047 0.959 . S
C1062 H1048 0.961 . S
C1062 C1061 1.502 . S
C1063 H1049 0.960 . S
C1063 H1050 0.961 . S
C1063 H1051 0.959 . S
C1063 C1061 1.561 . S
C1064 C1061 1.526 . S
C1064 C1065 1.396 . S
C1064 C1069 1.390 . S
C1065 C1059 1.465 . S
C1065 C1064 1.396 . S
C1065 C1066 1.399 . S
C1066 H1052 0.929 . S
C1066 C1065 1.399 . S
C1066 C1067 1.385 . S
C1067 H1053 0.931 . S
C1067 C1066 1.385 . S
C1067 C1068 1.389 . S
C1068 C1067 1.389 . S
C1068 C1069 1.387 . S
C1069 H1054 0.930 . S
C1069 C1064 1.390 . S
C1069 C1068 1.387 . S
C447 C126 1.377 . S
C435 N2 1.377 . S
C474 C195 1.618 . S
C462 N15 1.607 . S
C501 C133 1.531 . S
C489 N27 1.529 . S
C528 C196 1.778 . S
C516 N44 1.805 . S
C555 C249 1.651 . S
C543 N1 1.718 . S
C582 C285 1.712 . S
C570 N18 1.731 . S
C597 N28 1.736 . S
C609 C345 1.666 . S
C636 C408 1.675 . S
C624 N41 1.674 . S
C663 C248 1.653 . S
C651 N14 1.641 . S
C678 N31 1.651 . S
C690 C292 1.652 . S
C717 C338 1.923 . S
C705 N40 1.921 . S
C744 C407 1.734 . S
C732 N5 1.749 . S
C759 N53 1.931 . S
C771 C186 1.917 . S
C798 C143 1.618 1_655 S
C786 N70 1.586 . S
C813 N80 1.674 . S
C825 C179 1.681 . S
C840 N92 1.589 . S
C852 C142 1.603 . S
C879 C354 1.890 . S
C867 N57 1.902 . S
C906 C398 1.530 . S
C894 N67 1.568 . S
C933 C232 1.743 . S
C921 N83 1.747 . S
C948 N96 1.630 . S
C960 C301 1.620 . S
C987 C355 1.733 . S
C975 N66 1.750 . S
C1014 C391 1.631 . S
C1002 N79 1.637 . S
C1041 C239 1.661 . S
C1029 N93 1.685 . S
C1056 N54 1.465 . S
C1068 C302 1.459 . S
