# Generated by pormake.
# Topology nom, (4,4)-cn, num edge types: 1
# Building blocks:
#     Node 0, Type 0, BuildingBlock: AZAVOO_clean_linker_0, # of connection points: 4
#     Node 1, Type 0, BuildingBlock: AZAVOO_clean_linker_0, # of connection points: 4
#     Node 2, Type 0, BuildingBlock: AZAVOO_clean_linker_0, # of connection points: 4
#     Node 3, Type 0, BuildingBlock: AZAVOO_clean_linker_0, # of connection points: 4
#     Node 4, Type 0, BuildingBlock: AZAVOO_clean_linker_0, # of connection points: 4
#     Node 5, Type 0, BuildingBlock: AZAVOO_clean_linker_0, # of connection points: 4
#     Node 6, Type 1, BuildingBlock: GALJAG_clean_sbu_0, # of connection points: 4
#     Node 7, Type 1, BuildingBlock: GALJAG_clean_sbu_0, # of connection points: 4
#     Node 8, Type 1, BuildingBlock: GALJAG_clean_sbu_0, # of connection points: 4
#     Node 9, Type 1, BuildingBlock: GALJAG_clean_sbu_0, # of connection points: 4
#     Node 10, Type 1, BuildingBlock: GALJAG_clean_sbu_0, # of connection points: 4
#     Node 11, Type 1, BuildingBlock: GALJAG_clean_sbu_0, # of connection points: 4
#     Edge 12, Type (0, 1), BuildingBlock: ZUJKAS_clean_linker_0, # of connection points: 2
#     Edge 13, Type (0, 1), BuildingBlock: ZUJKAS_clean_linker_0, # of connection points: 2
#     Edge 14, Type (0, 1), BuildingBlock: ZUJKAS_clean_linker_0, # of connection points: 2
#     Edge 15, Type (0, 1), BuildingBlock: ZUJKAS_clean_linker_0, # of connection points: 2
#     Edge 16, Type (0, 1), BuildingBlock: ZUJKAS_clean_linker_0, # of connection points: 2
#     Edge 17, Type (0, 1), BuildingBlock: ZUJKAS_clean_linker_0, # of connection points: 2
#     Edge 18, Type (0, 1), BuildingBlock: ZUJKAS_clean_linker_0, # of connection points: 2
#     Edge 19, Type (0, 1), BuildingBlock: ZUJKAS_clean_linker_0, # of connection points: 2
#     Edge 20, Type (0, 1), BuildingBlock: ZUJKAS_clean_linker_0, # of connection points: 2
#     Edge 21, Type (0, 1), BuildingBlock: ZUJKAS_clean_linker_0, # of connection points: 2
#     Edge 22, Type (0, 1), BuildingBlock: ZUJKAS_clean_linker_0, # of connection points: 2
#     Edge 23, Type (0, 1), BuildingBlock: ZUJKAS_clean_linker_0, # of connection points: 2
#     Edge 24, Type (0, 1), BuildingBlock: ZUJKAS_clean_linker_0, # of connection points: 2
#     Edge 25, Type (0, 1), BuildingBlock: ZUJKAS_clean_linker_0, # of connection points: 2
#     Edge 26, Type (0, 1), BuildingBlock: ZUJKAS_clean_linker_0, # of connection points: 2
#     Edge 27, Type (0, 1), BuildingBlock: ZUJKAS_clean_linker_0, # of connection points: 2
#     Edge 28, Type (0, 1), BuildingBlock: ZUJKAS_clean_linker_0, # of connection points: 2
#     Edge 29, Type (0, 1), BuildingBlock: ZUJKAS_clean_linker_0, # of connection points: 2
#     Edge 30, Type (0, 1), BuildingBlock: ZUJKAS_clean_linker_0, # of connection points: 2
#     Edge 31, Type (0, 1), BuildingBlock: ZUJKAS_clean_linker_0, # of connection points: 2
#     Edge 32, Type (0, 1), BuildingBlock: ZUJKAS_clean_linker_0, # of connection points: 2
#     Edge 33, Type (0, 1), BuildingBlock: ZUJKAS_clean_linker_0, # of connection points: 2
#     Edge 34, Type (0, 1), BuildingBlock: ZUJKAS_clean_linker_0, # of connection points: 2
#     Edge 35, Type (0, 1), BuildingBlock: ZUJKAS_clean_linker_0, # of connection points: 2
# Relax obj value: 0.106
# Max RMSD: 0.222
# Mean RMSD: 0.142
data_MOF--net-nom--node1-GALJAG_clean_sbu_0--node2-AZAVOO_clean_linker_0--edge1-ZUJKAS_clean_linker_0
_symmetry_space_group_name_H-M    P1
_symmetry_Int_Tables_number       1
_symmetry_cell_setting            triclinic
loop_
_symmetry_equiv_pos_as_xyz
'x, y, z'
_cell_length_a     59.709781
_cell_length_b     61.169901
_cell_length_c     76.978172
_cell_angle_alpha  90.12578
_cell_angle_beta   89.872673
_cell_angle_gamma 121.45632
loop_
_atom_site_label
_atom_site_type_symbol
_atom_site_fract_x
_atom_site_fract_y
_atom_site_fract_z
_atom_type_partial_charge
H0 H 0.07011 0.5552 0.20567 0.0
H1 H 0.1931 0.69625 0.37804 0.0
H2 H 0.01041 0.5286 0.2938 0.0
H3 H 0.98082 0.50693 0.26941 0.0
H4 H 0.96712 0.56945 0.2651 0.0
H5 H 0.99698 0.59108 0.28959 0.0
H6 H 0.07049 0.55947 0.28163 0.0
H7 H 0.07338 0.55308 0.25048 0.0
H8 H 0.04689 0.60523 0.23927 0.0
H9 H 0.04445 0.61168 0.27043 0.0
H10 H 0.11495 0.59164 0.31045 0.0
H11 H 0.15969 0.61604 0.29873 0.0
H12 H 0.14212 0.66967 0.27545 0.0
H13 H 0.09748 0.64496 0.28698 0.0
H14 H 0.09216 0.58536 0.3493 0.0
H15 H 0.1297 0.60869 0.36883 0.0
H16 H 0.14607 0.68028 0.34626 0.0
H17 H 0.10823 0.65671 0.327 0.0
H18 H 0.03208 0.55639 0.35715 0.0
H19 H 0.03913 0.56219 0.38856 0.0
H20 H 0.06764 0.64283 0.3828 0.0
H21 H 0.06052 0.63683 0.3514 0.0
H22 H 0.98582 0.53083 0.32737 0.0
H23 H 0.94234 0.51621 0.33981 0.0
H24 H 0.964 0.59504 0.34668 0.0
H25 H 0.00723 0.60937 0.33433 0.0
O26 O 0.06923 0.55831 0.21792 0.0
O27 O 0.05534 0.58509 0.21287 0.0
O28 O 0.16882 0.64922 0.38166 0.0
O29 O 0.1783 0.68654 0.37035 0.0
C30 C 0.02887 0.57708 0.30463 0.0
C31 C 0.0542 0.58876 0.29714 0.0
C32 C 0.07664 0.60303 0.30757 0.0
C33 C 0.07386 0.60516 0.32559 0.0
C34 C 0.04852 0.59403 0.33302 0.0
C35 C 0.02598 0.58036 0.32249 0.0
C36 C 0.00576 0.56134 0.29342 0.0
C37 C 0.00024 0.53713 0.288 0.0
C38 C 0.98337 0.52483 0.27404 0.0
C39 C 0.97188 0.53664 0.26523 0.0
C40 C 0.97595 0.56006 0.27154 0.0
C41 C 0.99272 0.57229 0.28561 0.0
C42 C 0.05716 0.58593 0.27824 0.0
C43 C 0.06552 0.56962 0.2724 0.0
C44 C 0.06706 0.56596 0.25462 0.0
C45 C 0.06025 0.57856 0.24238 0.0
C46 C 0.05221 0.59517 0.24833 0.0
C47 C 0.05077 0.59888 0.26611 0.0
C48 C 0.10308 0.61659 0.29954 0.0
C49 C 0.12079 0.60853 0.30267 0.0
C50 C 0.14631 0.62254 0.29605 0.0
C51 C 0.15446 0.64481 0.28617 0.0
C52 C 0.13637 0.65241 0.28276 0.0
C53 C 0.1109 0.6384 0.28939 0.0
C54 C 0.09752 0.61935 0.33674 0.0
C55 C 0.10393 0.60607 0.34857 0.0
C56 C 0.12537 0.61945 0.35971 0.0
C57 C 0.14088 0.64637 0.35912 0.0
C58 C 0.13455 0.65957 0.34706 0.0
C59 C 0.11303 0.64616 0.33599 0.0
C60 C 0.04606 0.59624 0.35203 0.0
C61 C 0.03895 0.5751 0.36277 0.0
C62 C 0.04303 0.57847 0.38069 0.0
C63 C 0.05434 0.60305 0.38807 0.0
C64 C 0.0593 0.62376 0.37741 0.0
C65 C 0.05508 0.62035 0.35953 0.0
C66 C -0.00038 0.57115 0.32995 0.0
C67 C 0.98107 0.54488 0.33153 0.0
C68 C 0.95629 0.53659 0.3386 0.0
C69 C 0.94979 0.55449 0.3443 0.0
C70 C 0.96853 0.58078 0.34269 0.0
C71 C 0.99318 0.58901 0.33556 0.0
C72 C 0.06144 0.57427 0.2235 0.0
C73 C 0.16348 0.66069 0.37107 0.0
H74 H 0.49119 0.104 0.37473 0.0
H75 H 0.47463 0.2035 0.55238 0.0
H76 H 0.47947 0.04285 0.46591 0.0
H77 H 0.47849 0.01478 0.44297 0.0
H78 H 0.39584 0.98525 0.43515 0.0
H79 H 0.39711 0.01367 0.45828 0.0
H80 H 0.49541 0.09757 0.45036 0.0
H81 H 0.50165 0.10389 0.41892 0.0
H82 H 0.41766 0.06729 0.41229 0.0
H83 H 0.41177 0.06131 0.44377 0.0
H84 H 0.50602 0.13548 0.47934 0.0
H85 H 0.5235 0.1781 0.46671 0.0
H86 H 0.44552 0.15617 0.44979 0.0
H87 H 0.42818 0.11354 0.46258 0.0
H88 H 0.49649 0.11576 0.51844 0.0
H89 H 0.5096 0.15194 0.53813 0.0
H90 H 0.44198 0.15511 0.52207 0.0
H91 H 0.42891 0.11869 0.50261 0.0
H92 H 0.47479 0.05509 0.52269 0.0
H93 H 0.48176 0.05773 0.55404 0.0
H94 H 0.42227 0.07706 0.56084 0.0
H95 H 0.41505 0.07393 0.52934 0.0
H96 H 0.45827 0.01633 0.49655 0.0
H97 H 0.43738 0.97324 0.50909 0.0
H98 H 0.36734 0.97537 0.51941 0.0
H99 H 0.38848 0.01843 0.50703 0.0
O100 O 0.4883 0.1014 0.38712 0.0
O101 O 0.44498 0.08231 0.38441 0.0
O102 O 0.50426 0.18662 0.55261 0.0
O103 O 0.46993 0.18921 0.54468 0.0
C104 C 0.44074 0.05052 0.47537 0.0
C105 C 0.44945 0.07497 0.46832 0.0
C106 C 0.45555 0.09574 0.47938 0.0
C107 C 0.45347 0.09222 0.49755 0.0
C108 C 0.44421 0.06758 0.50462 0.0
C109 C 0.43719 0.04659 0.49346 0.0
C110 C 0.43833 0.0301 0.46378 0.0
C111 C 0.46099 0.02979 0.45957 0.0
C112 C 0.46037 0.01372 0.44648 0.0
C113 C 0.43708 0.99782 0.43724 0.0
C114 C 0.41408 0.99742 0.44199 0.0
C115 C 0.4147 0.01343 0.45524 0.0
C116 C 0.45316 0.07902 0.44927 0.0
C117 C 0.47842 0.09105 0.44207 0.0
C118 C 0.48191 0.09457 0.42412 0.0
C119 C 0.46015 0.08608 0.41308 0.0
C120 C 0.43483 0.07405 0.42041 0.0
C121 C 0.4314 0.07059 0.43837 0.0
C122 C 0.46587 0.12158 0.47191 0.0
C123 C 0.49275 0.13995 0.47294 0.0
C124 C 0.50269 0.16415 0.46562 0.0
C125 C 0.48586 0.17039 0.45722 0.0
C126 C 0.45888 0.15192 0.45628 0.0
C127 C 0.44898 0.12763 0.46351 0.0
C128 C 0.46171 0.11457 0.50917 0.0
C129 C 0.48452 0.12428 0.51923 0.0
C130 C 0.49197 0.14495 0.53044 0.0
C131 C 0.47681 0.1564 0.53169 0.0
C132 C 0.45409 0.14674 0.52144 0.0
C133 C 0.4466 0.12599 0.51028 0.0
C134 C 0.44451 0.06444 0.52373 0.0
C135 C 0.46263 0.05905 0.53098 0.0
C136 C 0.4666 0.06058 0.5489 0.0
C137 C 0.45268 0.06779 0.55986 0.0
C138 C 0.43343 0.07171 0.55266 0.0
C139 C 0.42924 0.06987 0.53472 0.0
C140 C 0.42477 0.02036 0.50074 0.0
C141 C 0.43834 0.00735 0.50139 0.0
C142 C 0.42638 0.98277 0.50856 0.0
C143 C 0.40069 0.97087 0.51527 0.0
C144 C 0.38726 0.9841 0.5146 0.0
C145 C 0.39921 0.00861 0.50742 0.0
C146 C 0.4639 0.08977 0.39401 0.0
C147 C 0.48458 0.17831 0.54363 0.0
H148 H 0.52959 0.53897 0.76043 0.0
H149 H 0.53408 0.41491 0.58317 0.0
H150 H 0.51771 0.57194 0.67067 0.0
H151 H 0.51036 0.59009 0.69673 0.0
H152 H 0.42994 0.52668 0.69863 0.0
H153 H 0.43764 0.50857 0.67246 0.0
H154 H 0.54024 0.53922 0.68483 0.0
H155 H 0.54396 0.54352 0.7165 0.0
H156 H 0.46122 0.48667 0.72131 0.0
H157 H 0.45788 0.48242 0.68965 0.0
H158 H 0.55436 0.50676 0.6547 0.0
H159 H 0.56963 0.47949 0.66636 0.0
H160 H 0.49118 0.42586 0.68485 0.0
H161 H 0.47613 0.45313 0.67311 0.0
H162 H 0.54715 0.52168 0.61674 0.0
H163 H 0.5632 0.50094 0.59746 0.0
H164 H 0.49775 0.42678 0.61259 0.0
H165 H 0.48169 0.44781 0.63162 0.0
H166 H 0.5226 0.55606 0.61112 0.0
H167 H 0.53146 0.55945 0.57995 0.0
H168 H 0.47255 0.47913 0.57385 0.0
H169 H 0.464 0.47592 0.60516 0.0
H170 H 0.49919 0.57532 0.63639 0.0
H171 H 0.4731 0.59301 0.62568 0.0
H172 H 0.40776 0.51619 0.61646 0.0
H173 H 0.43385 0.49877 0.62721 0.0
O174 O 0.52794 0.53624 0.74799 0.0
O175 O 0.48533 0.50689 0.74973 0.0
O176 O 0.5612 0.46222 0.58313 0.0
O177 O 0.52816 0.42361 0.5907 0.0
C178 C 0.48549 0.52426 0.65833 0.0
C179 C 0.49599 0.51045 0.66584 0.0
C180 C 0.50442 0.49741 0.65514 0.0
C181 C 0.50322 0.49896 0.63689 0.0
C182 C 0.49246 0.51264 0.62944 0.0
C183 C 0.48295 0.52469 0.64019 0.0
C184 C 0.47824 0.53894 0.66983 0.0
C185 C 0.49819 0.56262 0.67626 0.0
C186 C 0.49394 0.57291 0.69117 0.0
C187 C 0.46968 0.55955 0.69984 0.0
C188 C 0.44892 0.53716 0.69229 0.0
C189 C 0.45316 0.52695 0.67729 0.0
C190 C 0.49882 0.51051 0.685 0.0
C191 C 0.52307 0.52741 0.69278 0.0
C192 C 0.52508 0.52994 0.71086 0.0
C193 C 0.50283 0.51558 0.72143 0.0
C194 C 0.47871 0.49808 0.71355 0.0
C195 C 0.47677 0.49553 0.69549 0.0
C196 C 0.51416 0.48186 0.66306 0.0
C197 C 0.54056 0.48917 0.66134 0.0
C198 C 0.54919 0.47357 0.66795 0.0
C199 C 0.53158 0.45054 0.6765 0.0
C200 C 0.50527 0.44364 0.67853 0.0
C201 C 0.49664 0.45914 0.67181 0.0
C202 C 0.51325 0.48624 0.62554 0.0
C203 C 0.53629 0.50097 0.61584 0.0
C204 C 0.54543 0.48907 0.60486 0.0
C205 C 0.53174 0.46218 0.60348 0.0
C206 C 0.50875 0.44751 0.61334 0.0
C207 C 0.49957 0.45945 0.62425 0.0
C208 C 0.4929 0.51569 0.61036 0.0
C209 C 0.51101 0.53942 0.60296 0.0
C210 C 0.51602 0.54131 0.58514 0.0
C211 C 0.50295 0.51945 0.57451 0.0
C212 C 0.48321 0.49618 0.5818 0.0
C213 C 0.4782 0.49433 0.59961 0.0
C214 C 0.46831 0.53581 0.63261 0.0
C215 C 0.47931 0.5624 0.63192 0.0
C216 C 0.46446 0.57243 0.62575 0.0
C217 C 0.43836 0.55594 0.62036 0.0
C218 C 0.4277 0.52932 0.62074 0.0
C219 C 0.44258 0.51936 0.62677 0.0
C220 C 0.50474 0.51919 0.74057 0.0
C221 C 0.54134 0.44944 0.59181 0.0
H222 H 0.04507 0.4823 0.93308 0.0
H223 H 0.18523 0.50419 0.75698 0.0
H224 H 0.00299 0.48171 0.84154 0.0
H225 H 0.97575 0.47409 0.8672 0.0
H226 H 0.95573 0.39526 0.86823 0.0
H227 H 0.98268 0.40301 0.84224 0.0
H228 H 0.05702 0.49942 0.85803 0.0
H229 H 0.05567 0.50013 0.88981 0.0
H230 H 0.0288 0.41939 0.89088 0.0
H231 H 0.0303 0.41901 0.85909 0.0
H232 H 0.10763 0.51516 0.83061 0.0
H233 H 0.14994 0.52741 0.84368 0.0
H234 H 0.1203 0.44803 0.85636 0.0
H235 H 0.07843 0.43593 0.84266 0.0
H236 H 0.08855 0.51429 0.79182 0.0
H237 H 0.12781 0.53203 0.77356 0.0
H238 H 0.1332 0.46554 0.78426 0.0
H239 H 0.09364 0.44782 0.80226 0.0
H240 H 0.02743 0.49148 0.78368 0.0
H241 H 0.03727 0.50521 0.75335 0.0
H242 H 0.06096 0.45038 0.74451 0.0
H243 H 0.05056 0.43636 0.77481 0.0
H244 H 0.98186 0.46688 0.80912 0.0
H245 H 0.93779 0.44447 0.79632 0.0
H246 H 0.94904 0.38335 0.77957 0.0
H247 H 0.99268 0.40555 0.79276 0.0
O248 O 0.04621 0.48177 0.92056 0.0
O249 O 0.03315 0.44042 0.92044 0.0
O250 O 0.16581 0.53124 0.75888 0.0
O251 O 0.16975 0.49767 0.7642 0.0
C252 C 0.0178 0.45006 0.82892 0.0
C253 C 0.04214 0.45839 0.83708 0.0
C254 C 0.06494 0.46705 0.82702 0.0
C255 C 0.06376 0.46861 0.80879 0.0
C256 C 0.03931 0.45995 0.80056 0.0
C257 C 0.0162 0.45002 0.81064 0.0
C258 C 0.99472 0.4429 0.84004 0.0
C259 C 0.99175 0.46251 0.84683 0.0
C260 C 0.97654 0.45821 0.86165 0.0
C261 C 0.96413 0.43424 0.86995 0.0
C262 C 0.96504 0.41392 0.86211 0.0
C263 C 0.98027 0.41825 0.84721 0.0
C264 C 0.0438 0.45919 0.85633 0.0
C265 C 0.05119 0.48201 0.86519 0.0
C266 C 0.05025 0.48232 0.88332 0.0
C267 C 0.042 0.45978 0.89289 0.0
C268 C 0.0352 0.43706 0.88392 0.0
C269 C 0.03613 0.4368 0.86579 0.0
C270 C 0.09011 0.47469 0.83565 0.0
C271 C 0.11035 0.50048 0.83623 0.0
C272 C 0.13438 0.50743 0.84383 0.0
C273 C 0.13846 0.48867 0.85107 0.0
C274 C 0.11788 0.46287 0.85071 0.0
C275 C 0.09392 0.45595 0.84303 0.0
C276 C 0.08824 0.47976 0.79832 0.0
C277 C 0.09825 0.5036 0.7902 0.0
C278 C 0.12068 0.51368 0.77979 0.0
C279 C 0.13363 0.50017 0.77743 0.0
C280 C 0.1237 0.47642 0.78579 0.0
C281 C 0.10118 0.4663 0.79612 0.0
C282 C 0.03856 0.46313 0.78148 0.0
C283 C 0.03377 0.48174 0.77503 0.0
C284 C 0.03949 0.48962 0.75773 0.0
C285 C 0.05026 0.47911 0.74669 0.0
C286 C 0.05301 0.45901 0.75283 0.0
C287 C 0.04695 0.4509 0.77006 0.0
C288 C 0.99027 0.43766 0.80203 0.0
C289 C 0.97474 0.44865 0.80269 0.0
C290 C 0.94971 0.43595 0.79524 0.0
C291 C 0.9399 0.41206 0.78704 0.0
C292 C 0.95588 0.40151 0.78603 0.0
C293 C 0.98084 0.41422 0.79346 0.0
C294 C 0.04019 0.45998 0.91212 0.0
C295 C 0.15735 0.51072 0.76628 0.0
H296 H 0.47162 0.99112 0.87593 0.0
H297 H 0.50132 0.88612 0.04732 0.0
H298 H 0.50133 0.05531 0.96033 0.0
H299 H 0.51177 0.08531 0.93634 0.0
H300 H 0.59322 0.10722 0.93931 0.0
H301 H 0.58261 0.07765 0.96357 0.0
H302 H 0.47437 0.99392 0.95191 0.0
H303 H 0.46524 0.98874 0.9207 0.0
H304 H 0.54855 0.02751 0.91016 0.0
H305 H 0.55736 0.03219 0.94139 0.0
H306 H 0.46799 0.95164 0.98151 0.0
H307 H 0.45657 0.90896 0.97144 0.0
H308 H 0.53294 0.94209 0.94728 0.0
H309 H 0.54447 0.9843 0.95794 0.0
H310 H 0.48025 0.97746 0.02013 0.0
H311 H 0.46828 0.94075 0.03898 0.0
H312 H 0.53173 0.93489 0.01709 0.0
H313 H 0.54368 0.9718 0.99849 0.0
H314 H 0.50836 0.03936 0.0272 0.0
H315 H 0.51228 0.04056 0.0589 0.0
H316 H 0.56934 0.01754 0.05467 0.0
H317 H 0.56589 0.01723 0.02302 0.0
H318 H 0.5268 0.08255 0.99687 0.0
H319 H 0.55445 0.12577 0.00913 0.0
H320 H 0.61658 0.1105 0.01747 0.0
H321 H 0.58903 0.06768 0.00525 0.0
O322 O 0.47565 0.99313 0.88821 0.0
O323 O 0.5187 0.01349 0.88351 0.0
O324 O 0.47345 0.90467 0.05099 0.0
O325 O 0.50566 0.90071 0.04005 0.0
C326 C 0.53384 0.04222 0.97514 0.0
C327 C 0.52193 0.01739 0.96784 0.0
C328 C 0.51567 0.99621 0.97848 0.0
C329 C 0.52 -0.00042 0.99658 0.0
C330 C 0.53194 0.0244 0.00386 0.0
C331 C 0.53962 0.04582 0.99306 0.0
C332 C 0.54121 0.06431 0.9636 0.0
C333 C 0.52154 0.0672 0.95611 0.0
C334 C 0.52751 0.08413 0.94231 0.0
C335 C 0.55325 0.09832 0.93571 0.0
C336 C 0.57325 0.09673 0.94413 0.0
C337 C 0.56726 0.07986 0.95801 0.0
C338 C 0.51651 0.01361 0.94888 0.0
C339 C 0.49059 0.00116 0.94283 0.0
C340 C 0.48545 0.9983 0.925 0.0
C341 C 0.50617 0.00782 0.91292 0.0
C342 C 0.53214 0.02004 0.91909 0.0
C343 C 0.53723 0.02281 0.93692 0.0
C344 C 0.50707 0.97098 0.97049 0.0
C345 C 0.48207 0.94962 0.97387 0.0
C346 C 0.47557 0.92534 0.96805 0.0
C347 C 0.49398 0.92217 0.95873 0.0
C348 C 0.51853 0.94386 0.95469 0.0
C349 C 0.52504 0.96801 0.96059 0.0
C350 C 0.51272 0.97717 0.0079 0.0
C351 C 0.49153 0.96822 0.01945 0.0
C352 C 0.48474 0.94725 0.03018 0.0
C353 C 0.49903 0.93485 0.02951 0.0
C354 C 0.52029 0.94395 0.01791 0.0
C355 C 0.52711 0.96497 0.00724 0.0
C356 C 0.53659 0.02789 0.02287 0.0
C357 C 0.52204 0.03504 0.03315 0.0
C358 C 0.52419 0.03555 0.05123 0.0
C359 C 0.54094 0.02891 0.05931 0.0
C360 C 0.55644 0.02298 0.04887 0.0
C361 C 0.55432 0.02255 0.03081 0.0
C362 C 0.55591 0.07201 0.00028 0.0
C363 C 0.5464 0.08865 0.00134 0.0
C364 C 0.56218 0.11325 0.00831 0.0
C365 C 0.58756 0.12138 0.01441 0.0
C366 C 0.59694 0.1046 0.01322 0.0
C367 C 0.58129 0.08021 0.00617 0.0
C368 C 0.50067 0.00503 0.89399 0.0
C369 C 0.49186 0.91252 0.04085 0.0
H370 H 0.62312 0.61554 0.04086 0.0
H371 H 0.7529 0.61127 0.21639 0.0
H372 H 0.59785 0.63678 0.13233 0.0
H373 H 0.57607 0.64174 0.1073 0.0
H374 H 0.64409 0.717 0.09793 0.0
H375 H 0.66588 0.71166 0.12315 0.0
H376 H 0.6261 0.61133 0.11667 0.0
H377 H 0.61967 0.60515 0.08524 0.0
H378 H 0.68512 0.68234 0.07704 0.0
H379 H 0.69138 0.68816 0.10851 0.0
H380 H 0.65129 0.59403 0.14632 0.0
H381 H 0.66851 0.56884 0.13398 0.0
H382 H 0.73558 0.63825 0.11393 0.0
H383 H 0.71788 0.66324 0.12616 0.0
H384 H 0.64682 0.60602 0.18356 0.0
H385 H 0.66612 0.58847 0.20282 0.0
H386 H 0.74375 0.64852 0.18687 0.0
H387 H 0.72415 0.66607 0.16784 0.0
H388 H 0.61534 0.63098 0.18793 0.0
H389 H 0.61032 0.62418 0.21915 0.0
H390 H 0.69192 0.68338 0.22625 0.0
H391 H 0.69687 0.68922 0.19469 0.0
H392 H 0.5965 0.65276 0.16351 0.0
H393 H 0.57683 0.67548 0.17646 0.0
H394 H 0.65435 0.74172 0.18494 0.0
H395 H 0.67377 0.71868 0.17211 0.0
O396 O 0.62673 0.61798 0.0532 0.0
O397 O 0.66115 0.65742 0.04964 0.0
O398 O 0.70441 0.58755 0.21682 0.0
O399 O 0.74474 0.61785 0.20892 0.0
C400 C 0.6486 0.66724 0.14105 0.0
C401 C 0.66086 0.65485 0.13381 0.0
C402 C 0.67277 0.64538 0.14474 0.0
C403 C 0.67236 0.64823 0.16292 0.0
C404 C 0.66006 0.66064 0.1701 0.0
C405 C 0.64853 0.67048 0.15914 0.0
C406 C 0.63332 0.6739 0.12952 0.0
C407 C 0.60757 0.65479 0.12533 0.0
C408 C 0.5952 0.65766 0.11098 0.0
C409 C 0.60848 0.67969 0.10055 0.0
C410 C 0.63353 0.69973 0.10565 0.0
C411 C 0.64587 0.69686 0.12011 0.0
C412 C 0.65925 0.65014 0.1148 0.0
C413 C 0.63929 0.6267 0.10803 0.0
C414 C 0.63556 0.6233 0.09009 0.0
C415 C 0.65177 0.64332 0.07862 0.0
C416 C 0.67225 0.66655 0.0855 0.0
C417 C 0.67596 0.6699 0.10345 0.0
C418 C 0.68348 0.63041 0.13722 0.0
C419 C 0.66974 0.60376 0.13931 0.0
C420 C 0.67965 0.58945 0.1323 0.0
C421 C 0.70348 0.60158 0.12305 0.0
C422 C 0.71706 0.62833 0.12084 0.0
C423 C 0.7071 0.64264 0.12787 0.0
C424 C 0.68411 0.63744 0.17445 0.0
C425 C 0.66798 0.61545 0.18435 0.0
C426 C 0.67906 0.60542 0.19528 0.0
C427 C 0.7065 0.61713 0.19641 0.0
C428 C 0.72257 0.63906 0.18634 0.0
C429 C 0.71145 0.64912 0.17545 0.0
C430 C 0.65647 0.66046 0.18913 0.0
C431 C 0.63194 0.64291 0.19629 0.0
C432 C 0.62911 0.63918 0.21418 0.0
C433 C 0.65078 0.65312 0.22528 0.0
C434 C 0.67495 0.67201 0.21807 0.0
C435 C 0.67781 0.67552 0.20009 0.0
C436 C 0.6365 0.68425 0.16669 0.0
C437 C 0.60916 0.67226 0.16802 0.0
C438 C 0.598 0.68526 0.17542 0.0
C439 C 0.61404 0.71043 0.18168 0.0
C440 C 0.64148 0.72226 0.18041 0.0
C441 C 0.6526 0.70925 0.17299 0.0
C442 C 0.64697 0.64008 0.05961 0.0
C443 C 0.71838 0.60655 0.20801 0.0
In444 In 0.64339 0.48381 0.39822 0.0
O445 O 0.68668 0.50312 0.40566 0.0
O446 O 0.67212 0.47461 0.38589 0.0
C447 C 0.62862 0.50479 0.42303 0.0
C448 C 0.64032 0.50891 0.37062 0.0
C449 C 0.6125 0.43321 0.40476 0.0
O450 O 0.64809 0.50213 0.42496 0.0
O451 O 0.61701 0.49711 0.40865 0.0
O452 O 0.61602 0.44213 0.38955 0.0
O453 O 0.6245 0.44974 0.41644 0.0
C454 C 0.69156 0.49062 0.39481 0.0
O455 O 0.62146 0.48714 0.37512 0.0
O456 O 0.66075 0.51755 0.37975 0.0
In457 In 0.22751 0.65645 0.57317 0.0
O458 O 0.25 0.63752 0.56422 0.0
O459 O 0.25854 0.65484 0.58922 0.0
C460 C 0.19405 0.6442 0.54638 0.0
C461 C 0.19391 0.62905 0.59898 0.0
C462 C 0.2573 0.70775 0.5687 0.0
O463 O 0.21141 0.63829 0.54667 0.0
O464 O 0.19363 0.65626 0.55958 0.0
O465 O 0.24025 0.69776 0.58058 0.0
O466 O 0.25932 0.69194 0.55934 0.0
C467 C 0.2633 0.64275 0.57799 0.0
O468 O 0.21052 0.65277 0.60044 0.0
O469 O 0.19428 0.61939 0.58457 0.0
In470 In 0.61667 0.23476 0.73474 0.0
O471 O 0.65859 0.24386 0.73011 0.0
O472 O 0.65341 0.27164 0.74306 0.0
C473 C 0.59109 0.19645 0.71135 0.0
C474 C 0.60615 0.21262 0.7663 0.0
C475 C 0.60116 0.26749 0.7259 0.0
O476 O 0.61383 0.21545 0.70867 0.0
O477 O 0.5815 0.19651 0.72592 0.0
O478 O 0.59636 0.25685 0.74059 0.0
O479 O 0.61351 0.2614 0.71563 0.0
C480 C 0.66924 0.26558 0.73733 0.0
O481 O 0.59387 0.22253 0.76019 0.0
O482 O 0.62343 0.21347 0.75635 0.0
In483 In 0.45749 0.63456 0.90816 0.0
O484 O 0.41781 0.59715 0.91104 0.0
O485 O 0.42006 0.62693 0.89544 0.0
C486 C 0.4836 0.63088 0.93538 0.0
C487 C 0.47479 0.62596 0.87817 0.0
C488 C 0.46165 0.67932 0.91625 0.0
O489 O 0.45888 0.61886 0.93466 0.0
O490 O 0.49511 0.64386 0.92205 0.0
O491 O 0.47565 0.67758 0.90467 0.0
O492 O 0.44584 0.65858 0.9238 0.0
C493 C 0.40592 0.60463 0.90148 0.0
O494 O 0.47874 0.64765 0.88231 0.0
O495 O 0.46304 0.60877 0.88953 0.0
In496 In 0.83286 0.42121 0.06837 0.0
O497 O 0.84331 0.41356 0.09525 0.0
O498 O 0.86836 0.45031 0.08432 0.0
C499 C 0.79069 0.37409 0.06271 0.0
C500 C 0.80971 0.44861 0.07296 0.0
C501 C 0.86263 0.42578 0.04048 0.0
O502 O 0.80846 0.37818 0.07342 0.0
O503 O 0.79427 0.39373 0.05485 0.0
O504 O 0.85513 0.4412 0.04364 0.0
O505 O 0.85592 0.40848 0.05173 0.0
C506 C 0.8631 0.43574 0.09722 0.0
O507 O 0.82496 0.45248 0.06039 0.0
O508 O 0.80609 0.43088 0.0831 0.0
In509 In 0.47149 0.87546 0.24774 0.0
O510 O 0.50386 0.86662 0.25241 0.0
O511 O 0.47809 0.84875 0.23104 0.0
C512 C 0.47367 0.90023 0.27732 0.0
C513 C 0.4895 0.91219 0.22316 0.0
C514 C 0.42182 0.83531 0.25027 0.0
O515 O 0.48531 0.88805 0.27569 0.0
O516 O 0.46166 0.90043 0.26393 0.0
O517 O 0.42944 0.85105 0.23786 0.0
O518 O 0.43927 0.83977 0.26133 0.0
C519 C 0.49735 0.85151 0.23963 0.0
O520 O 0.46562 0.89487 0.22458 0.0
O521 O 0.50443 0.9112 0.2343 0.0
H522 H 0.17228 0.66885 0.25478 0.0
H523 H 0.21788 0.69853 0.2461 0.0
H524 H 0.24452 0.68686 0.29528 0.0
H525 H 0.19907 0.65754 0.30418 0.0
H526 H 0.25286 0.744 0.26452 0.0
H527 H 0.29134 0.67893 0.25938 0.0
H528 H 0.25665 0.66744 0.25909 0.0
H529 H 0.27427 0.67608 0.2793 0.0
C530 C 0.18786 0.67251 0.26372 0.0
C531 C 0.18206 0.66085 0.28018 0.0
C532 C 0.21386 0.68934 0.2587 0.0
C533 C 0.23451 0.6946 0.26997 0.0
C534 C 0.22886 0.6826 0.28625 0.0
H535 H 0.40066 0.801 0.27684 0.0
H536 H 0.35489 0.7664 0.28036 0.0
C537 C 0.20287 0.66583 0.2913 0.0
C538 C 0.26183 0.7142 0.26533 0.0
H539 H 0.32299 0.72375 0.25953 0.0
C540 C 0.26818 0.73958 0.26322 0.0
C541 C 0.28168 0.70829 0.26376 0.0
C542 C 0.27569 0.68117 0.26534 0.0
C543 C 0.2941 0.75944 0.26013 0.0
C544 C 0.31405 0.7536 0.25876 0.0
C545 C 0.30762 0.72813 0.26059 0.0
C546 C 0.34187 0.77384 0.25608 0.0
C547 C 0.30005 0.78661 0.25904 0.0
C548 C 0.34975 0.78915 0.24111 0.0
C549 C 0.37585 0.80902 0.23911 0.0
C550 C 0.3945 0.81371 0.25199 0.0
C551 C 0.38669 0.79788 0.26673 0.0
C552 C 0.36059 0.77809 0.26875 0.0
H553 H 0.28387 0.78846 0.26449 0.0
H554 H 0.31845 0.8 0.26608 0.0
H555 H 0.30267 0.79258 0.24522 0.0
H556 H 0.33569 0.78582 0.23103 0.0
H557 H 0.38137 0.8208 0.22755 0.0
H558 H 0.52964 0.19735 0.4371 0.0
H559 H 0.54885 0.24113 0.42621 0.0
H560 H 0.48558 0.24562 0.44946 0.0
H561 H 0.46609 0.2017 0.46024 0.0
H562 H 0.4988 0.26708 0.41638 0.0
H563 H 0.58707 0.30337 0.458 0.0
H564 H 0.58141 0.27752 0.44395 0.0
H565 H 0.55816 0.272 0.46083 0.0
C566 C 0.51984 0.20769 0.43988 0.0
C567 C 0.49654 0.19625 0.44967 0.0
C568 C 0.53082 0.23266 0.43367 0.0
C569 C 0.51889 0.24675 0.43732 0.0
C570 C 0.49512 0.23508 0.44655 0.0
H571 H 0.59702 0.41138 0.43662 0.0
H572 H 0.57231 0.36582 0.4437 0.0
C573 C 0.48401 0.21001 0.45268 0.0
C574 C 0.53169 0.27396 0.43206 0.0
H575 H 0.58761 0.33235 0.43744 0.0
C576 C 0.5182 0.2814 0.42097 0.0
C577 C 0.55683 0.29262 0.4383 0.0
C578 C 0.57165 0.28609 0.45106 0.0
C579 C 0.52934 0.30706 0.41583 0.0
C580 C 0.5548 0.32557 0.4217 0.0
C581 C 0.56817 0.31809 0.43285 0.0
C582 C 0.56782 0.35303 0.417 0.0
C583 C 0.51352 0.3142 0.40453 0.0
C584 C 0.57333 0.361 0.3996 0.0
C585 C 0.5873 0.38712 0.39549 0.0
C586 C 0.59627 0.40562 0.40876 0.0
C587 C 0.59044 0.39756 0.42612 0.0
C588 C 0.57632 0.37154 0.43019 0.0
H589 H 0.49223 0.29945 0.40502 0.0
H590 H 0.51631 0.33292 0.40853 0.0
H591 H 0.52013 0.31586 0.39085 0.0
H592 H 0.56745 0.34706 0.38924 0.0
H593 H 0.59167 0.39283 0.38201 0.0
H594 H 0.45104 0.59551 0.59796 0.0
H595 H 0.42307 0.6118 0.58887 0.0
H596 H 0.36078 0.55616 0.62177 0.0
H597 H 0.38839 0.53956 0.63061 0.0
H598 H 0.34284 0.55788 0.59013 0.0
H599 H 0.40444 0.65649 0.61637 0.0
H600 H 0.42124 0.64748 0.60133 0.0
H601 H 0.41006 0.63106 0.62177 0.0
C602 C 0.43143 0.58692 0.60332 0.0
C603 C 0.42185 0.56626 0.61497 0.0
C604 C 0.41552 0.59628 0.59817 0.0
C605 C 0.38995 0.58542 0.60482 0.0
C606 C 0.38042 0.56482 0.61646 0.0
H607 H 0.28845 0.64586 0.60818 0.0
H608 H 0.31961 0.63212 0.61346 0.0
C609 C 0.39618 0.55532 0.62147 0.0
C610 C 0.37274 0.59502 0.59952 0.0
H611 H 0.36726 0.64785 0.5999 0.0
C612 C 0.34818 0.57757 0.59223 0.0
C613 C 0.37966 0.62065 0.60244 0.0
C614 C 0.40517 0.63997 0.61105 0.0
C615 C 0.3302 0.58492 0.58797 0.0
C616 C 0.33729 0.61066 0.59063 0.0
C617 C 0.36197 0.62819 0.59774 0.0
C618 C 0.31882 0.61945 0.58706 0.0
C619 C 0.30345 0.56481 0.5813 0.0
C620 C 0.30826 0.6172 0.57041 0.0
C621 C 0.29016 0.62475 0.56741 0.0
C622 C 0.28269 0.63508 0.58095 0.0
C623 C 0.29381 0.63792 0.59749 0.0
C624 C 0.31166 0.63013 0.60052 0.0
H625 H 0.29878 0.54511 0.58435 0.0
H626 H 0.28786 0.56741 0.58694 0.0
H627 H 0.30304 0.56646 0.56697 0.0
H628 H 0.31399 0.6096 0.55973 0.0
H629 H 0.2821 0.62259 0.55449 0.0
H630 H 0.91444 0.43056 0.76815 0.0
H631 H 0.86885 0.40666 0.75789 0.0
H632 H 0.8587 0.33727 0.77987 0.0
H633 H 0.90391 0.36099 0.79045 0.0
H634 H 0.84259 0.36077 0.73564 0.0
H635 H 0.79975 0.34589 0.80188 0.0
H636 H 0.83353 0.36988 0.7972 0.0
H637 H 0.82371 0.33678 0.79915 0.0
C638 C 0.90244 0.41023 0.77085 0.0
C639 C 0.91272 0.39766 0.78015 0.0
C640 C 0.87652 0.39661 0.76488 0.0
C641 C 0.86046 0.37031 0.76828 0.0
C642 C 0.87078 0.35763 0.77727 0.0
H643 H 0.70748 0.25582 0.72806 0.0
H644 H 0.7546 0.28238 0.73425 0.0
C645 C 0.89666 0.37117 0.78318 0.0
C646 C 0.83266 0.35614 0.76283 0.0
H647 H 0.77022 0.32366 0.77885 0.0
C648 C 0.82671 0.3527 0.74504 0.0
C649 C 0.8121 0.34591 0.77517 0.0
C650 C 0.81747 0.34992 0.79443 0.0
C651 C 0.80057 0.33882 0.73926 0.0
C652 C 0.78003 0.32802 0.75164 0.0
C653 C 0.78604 0.33185 0.76941 0.0
C654 C 0.75206 0.31286 0.74655 0.0
C655 C 0.7951 0.33606 0.72001 0.0
C656 C 0.73509 0.32117 0.75151 0.0
C657 C 0.70825 0.30603 0.7481 0.0
C658 C 0.69788 0.28222 0.73974 0.0
C659 C 0.71496 0.27413 0.73447 0.0
C660 C 0.74187 0.28932 0.7379 0.0
H661 H 0.81244 0.35034 0.7124 0.0
H662 H 0.79 0.31664 0.71578 0.0
H663 H 0.77823 0.33829 0.71693 0.0
H664 H 0.74258 0.33923 0.75827 0.0
H665 H 0.69558 0.31279 0.75231 0.0
H666 H 0.44833 0.88166 0.94569 0.0
H667 H 0.43929 0.83859 0.93883 0.0
H668 H 0.51806 0.86151 0.95409 0.0
H669 H 0.52696 0.90411 0.96149 0.0
H670 H 0.46524 0.82428 0.9151 0.0
H671 H 0.47236 0.79626 0.98235 0.0
H672 H 0.46899 0.8233 0.97757 0.0
H673 H 0.50052 0.82626 0.97589 0.0
C674 C 0.46361 0.8774 0.94772 0.0
C675 C 0.48835 0.89625 0.95411 0.0
C676 C 0.45846 0.85289 0.94372 0.0
C677 C 0.4779 0.84685 0.9462 0.0
C678 C 0.50267 0.8657 0.95238 0.0
H679 H 0.49553 0.72679 0.90293 0.0
H680 H 0.49768 0.7669 0.90992 0.0
C681 C 0.50781 0.89012 0.95638 0.0
C682 C 0.47266 0.82101 0.94205 0.0
H683 H 0.4737 0.77039 0.95956 0.0
C684 C 0.46682 0.81234 0.92483 0.0
C685 C 0.4744 0.80541 0.95484 0.0
C686 C 0.47915 0.81314 0.97373 0.0
C687 C 0.46356 0.78876 0.91991 0.0
C688 C 0.4667 0.77379 0.93254 0.0
C689 C 0.47163 0.78208 0.94987 0.0
C690 C 0.46517 0.74954 0.92806 0.0
C691 C 0.4567 0.78005 0.9013 0.0
C692 C 0.44668 0.7267 0.93631 0.0
C693 C 0.44562 0.70387 0.9325 0.0
C694 C 0.46311 0.70355 0.9204 0.0
C695 C 0.48173 0.72648 0.91223 0.0
C696 C 0.48284 0.74934 0.91611 0.0
H697 H 0.44772 0.78975 0.89466 0.0
H698 H 0.47487 0.78487 0.89414 0.0
H699 H 0.44289 0.759 0.90051 0.0
H700 H 0.433 0.72653 0.94566 0.0
H701 H 0.43106 0.68647 0.939 0.0
H702 H 0.70459 0.56215 0.13872 0.0
H703 H 0.72179 0.53664 0.12697 0.0
H704 H 0.7441 0.58099 0.07976 0.0
H705 H 0.72655 0.60645 0.09131 0.0
H706 H 0.7065 0.50739 0.0949 0.0
H707 H 0.8122 0.5845 0.09663 0.0
H708 H 0.78749 0.58645 0.10892 0.0
H709 H 0.7902 0.59189 0.08591 0.0
C710 C 0.71295 0.56636 0.12578 0.0
C711 C 0.71421 0.58632 0.11594 0.0
C712 C 0.72286 0.55185 0.11913 0.0
C713 C 0.73437 0.55712 0.10259 0.0
C714 C 0.73561 0.57692 0.09267 0.0
H715 H 0.81375 0.48709 0.05264 0.0
H716 H 0.79397 0.51296 0.05794 0.0
C717 C 0.72565 0.59146 0.0993 0.0
C718 C 0.74489 0.54163 0.09581 0.0
H719 H 0.80197 0.54414 0.08617 0.0
C720 C 0.72735 0.51541 0.09289 0.0
C721 C 0.77206 0.55228 0.09309 0.0
C722 C 0.79171 0.58028 0.09639 0.0
C723 C 0.73634 0.49938 0.08753 0.0
C724 C 0.76361 0.50983 0.08543 0.0
C725 C 0.78108 0.53622 0.08784 0.0
C726 C 0.77457 0.49349 0.08176 0.0
C727 C 0.71654 0.47144 0.08416 0.0
C728 C 0.77037 0.47417 0.09348 0.0
C729 C 0.78155 0.45938 0.09048 0.0
C730 C 0.79736 0.46383 0.07578 0.0
C731 C 0.8016 0.48322 0.06406 0.0
C732 C 0.79034 0.49799 0.06706 0.0
H733 H 0.6969 0.46828 0.08104 0.0
H734 H 0.72289 0.46392 0.0733 0.0
H735 H 0.71448 0.46022 0.09601 0.0
H736 H 0.7588 0.47081 0.10512 0.0
H737 H 0.77808 0.44469 0.0998 0.0
H738 H 0.3701 0.95305 0.5445 0.0
H739 H 0.34724 0.90943 0.55614 0.0
H740 H 0.37907 0.88591 0.51484 0.0
H741 H 0.40178 0.92938 0.50301 0.0
H742 H 0.30974 0.86468 0.53894 0.0
H743 H 0.39576 0.8588 0.55859 0.0
H744 H 0.39808 0.88886 0.55401 0.0
H745 H 0.39708 0.86885 0.53651 0.0
C746 C 0.37222 0.93859 0.53788 0.0
C747 C 0.38778 0.9447 0.52282 0.0
C748 C 0.35926 0.91373 0.5446 0.0
C749 C 0.36176 0.89455 0.53649 0.0
C750 C 0.37736 0.90058 0.52152 0.0
H751 H 0.29412 0.73235 0.54352 0.0
H752 H 0.31924 0.77818 0.53717 0.0
C753 C 0.39033 0.92543 0.51478 0.0
C754 C 0.34699 0.86793 0.54315 0.0
H755 H 0.35439 0.8195 0.55794 0.0
C756 C 0.31946 0.85485 0.54328 0.0
C757 C 0.35978 0.85522 0.5488 0.0
C758 C 0.38931 0.86869 0.54965 0.0
C759 C 0.30432 0.82904 0.5483 0.0
C760 C 0.3171 0.81616 0.55363 0.0
C761 C 0.34465 0.82943 0.55385 0.0
C762 C 0.30228 0.78855 0.55809 0.0
C763 C 0.27479 0.81549 0.5472 0.0
C764 C 0.28468 0.77921 0.57215 0.0
C765 C 0.27018 0.75293 0.57579 0.0
C766 C 0.27321 0.73565 0.56548 0.0
C767 C 0.29129 0.74517 0.55167 0.0
C768 C 0.3057 0.77136 0.54804 0.0
H769 H 0.26833 0.82638 0.53929 0.0
H770 H 0.2664 0.79607 0.54148 0.0
H771 H 0.26658 0.81329 0.56047 0.0
H772 H 0.28211 0.79223 0.58027 0.0
H773 H 0.25649 0.74615 0.58657 0.0
H774 H 0.56234 0.43656 0.65945 0.0
H775 H 0.5745 0.40601 0.66902 0.0
H776 H 0.53263 0.3949 0.7171 0.0
H777 H 0.52031 0.42539 0.70759 0.0
H778 H 0.60213 0.40616 0.69819 0.0
H779 H 0.50014 0.32198 0.69835 0.0
H780 H 0.50883 0.35198 0.6882 0.0
H781 H 0.50484 0.34844 0.71137 0.0
C782 C 0.55596 0.42781 0.67214 0.0
C783 C 0.54025 0.43323 0.68274 0.0
C784 C 0.56282 0.41029 0.67755 0.0
C785 C 0.55405 0.39787 0.69362 0.0
C786 C 0.53905 0.40383 0.70447 0.0
H787 H 0.57419 0.28324 0.74572 0.0
H788 H 0.56321 0.31549 0.73827 0.0
C789 C 0.53208 0.42126 0.69904 0.0
C790 C 0.56057 0.37862 0.69895 0.0
H791 H 0.53323 0.31542 0.70926 0.0
C792 C 0.58709 0.38631 0.70059 0.0
C793 C 0.54086 0.35275 0.70206 0.0
C794 C 0.51207 0.34316 0.69977 0.0
C795 C 0.59446 0.36883 0.70541 0.0
C796 C 0.57476 0.34297 0.70843 0.0
C797 C 0.54824 0.33531 0.70695 0.0
C798 C 0.58129 0.32344 0.71285 0.0
C799 C 0.62323 0.37822 0.70745 0.0
C800 C 0.59467 0.317 0.70087 0.0
C801 C 0.60089 0.29859 0.70505 0.0
C802 C 0.59375 0.28627 0.72127 0.0
C803 C 0.57999 0.29247 0.73314 0.0
C804 C 0.57371 0.31086 0.72892 0.0
H805 H 0.63532 0.3994 0.70885 0.0
H806 H 0.62655 0.36932 0.71894 0.0
H807 H 0.63016 0.37279 0.69576 0.0
H808 H 0.60024 0.32619 0.68827 0.0
H809 H 0.61142 0.29412 0.69562 0.0
H810 H 0.1705 0.53025 0.87134 0.0
H811 H 0.21477 0.54408 0.88141 0.0
H812 H 0.20888 0.47702 0.85823 0.0
H813 H 0.16501 0.46355 0.84749 0.0
H814 H 0.23432 0.52029 0.90258 0.0
H815 H 0.27427 0.53669 0.83532 0.0
H816 H 0.24231 0.5316 0.84014 0.0
H817 H 0.24712 0.50496 0.83973 0.0
C818 C 0.17867 0.5185 0.86832 0.0
C819 C 0.16437 0.49596 0.85845 0.0
C820 C 0.20383 0.52629 0.87422 0.0
C821 C 0.21515 0.51172 0.87035 0.0
C822 C 0.20058 0.48869 0.86112 0.0
H823 H 0.3708 0.55543 0.91195 0.0
H824 H 0.32378 0.52969 0.90498 0.0
C825 C 0.17543 0.48092 0.85515 0.0
C826 C 0.24269 0.52145 0.87527 0.0
H827 H 0.30389 0.54549 0.85814 0.0
C828 C 0.24955 0.52559 0.89291 0.0
C829 C 0.26244 0.52849 0.86255 0.0
C830 C 0.25632 0.52544 0.84336 0.0
C831 C 0.27583 0.53719 0.89818 0.0
C832 C 0.29557 0.54447 0.88544 0.0
C833 C 0.28861 0.53968 0.86785 0.0
C834 C 0.32377 0.55946 0.88985 0.0
C835 C 0.28242 0.54265 0.91722 0.0
C836 C 0.33924 0.58445 0.8834 0.0
C837 C 0.36591 0.59902 0.88723 0.0
C838 C 0.37765 0.58885 0.89758 0.0
C839 C 0.36219 0.56375 0.904 0.0
C840 C 0.33538 0.5491 0.90011 0.0
H841 H 0.26541 0.53981 0.92501 0.0
H842 H 0.28847 0.52953 0.92229 0.0
H843 H 0.29905 0.56261 0.91912 0.0
H844 H 0.33061 0.59275 0.87544 0.0
H845 H 0.37732 0.61829 0.88209 0.0
H846 H 0.59595 0.16678 0.00163 0.0
H847 H 0.62808 0.21006 0.01192 0.0
H848 H 0.65003 0.178 0.05361 0.0
H849 H 0.61793 0.13476 0.04351 0.0
H850 H 0.63591 0.23468 0.04585 0.0
H851 H 0.71866 0.22328 0.02543 0.0
H852 H 0.68543 0.20219 0.01799 0.0
H853 H 0.69484 0.19855 0.03943 0.0
C854 C 0.6073 0.16897 0.01317 0.0
C855 C 0.6047 0.14743 0.02165 0.0
C856 C 0.62567 0.19366 0.01898 0.0
C857 C 0.64166 0.19711 0.03332 0.0
C858 C 0.63817 0.17566 0.04233 0.0
H859 H 0.77859 0.32918 0.07829 0.0
H860 H 0.74099 0.28629 0.07221 0.0
C861 C 0.61988 0.15102 0.03652 0.0
C862 C 0.66294 0.22308 0.03834 0.0
H863 H 0.72963 0.2612 0.04055 0.0
C864 C 0.65642 0.24057 0.04469 0.0
C865 C 0.68961 0.23057 0.03677 0.0
C866 C 0.69768 0.21279 0.0294 0.0
C867 C 0.676 0.26537 0.0498 0.0
C868 C 0.70269 0.27287 0.04818 0.0
C869 C 0.70914 0.25533 0.04184 0.0
C870 C 0.72438 0.299 0.0526 0.0
C871 C 0.66797 0.28316 0.05717 0.0
C872 C 0.72751 0.32028 0.04352 0.0
C873 C 0.74892 0.34477 0.04697 0.0
C874 C 0.76767 0.34832 0.05946 0.0
C875 C 0.76444 0.327 0.0686 0.0
C876 C 0.74299 0.30253 0.06516 0.0
H877 H 0.64737 0.27246 0.06195 0.0
H878 H 0.68105 0.29476 0.06802 0.0
H879 H 0.66942 0.29647 0.04684 0.0
H880 H 0.7137 0.31789 0.0335 0.0
H881 H 0.75098 0.36084 0.03968 0.0
H882 H 0.62998 0.74097 0.21065 0.0
H883 H 0.61089 0.76468 0.22285 0.0
H884 H 0.55254 0.73526 0.18231 0.0
H885 H 0.57157 0.71169 0.16996 0.0
H886 H 0.60479 0.80223 0.20648 0.0
H887 H 0.50871 0.71913 0.22675 0.0
H888 H 0.53657 0.71628 0.22148 0.0
H889 H 0.51679 0.71772 0.20447 0.0
C890 C 0.61312 0.73961 0.20431 0.0
C891 C 0.60222 0.72439 0.18937 0.0
C892 C 0.60219 0.75306 0.21134 0.0
C893 C 0.58008 0.75139 0.20363 0.0
C894 C 0.56923 0.73631 0.18869 0.0
H895 H 0.48619 0.81862 0.21268 0.0
H896 H 0.5077 0.79514 0.20518 0.0
C897 C 0.58012 0.72286 0.18165 0.0
C898 C 0.5689 0.76615 0.21077 0.0
H899 H 0.51217 0.75979 0.22616 0.0
C900 C 0.58464 0.793 0.21099 0.0
C901 C 0.54264 0.75398 0.21666 0.0
C902 C 0.52524 0.72518 0.21751 0.0
C903 C 0.57445 0.80808 0.21628 0.0
C904 C 0.54796 0.7959 0.22171 0.0
C905 C 0.53245 0.76904 0.22192 0.0
C906 C 0.53551 0.81061 0.22637 0.0
C907 C 0.59174 0.83688 0.21537 0.0
C908 C 0.54399 0.82702 0.24084 0.0
C909 C 0.53175 0.84055 0.24515 0.0
C910 C 0.51078 0.83773 0.23509 0.0
C911 C 0.50233 0.82123 0.22066 0.0
C912 C 0.51455 0.80776 0.21637 0.0
H913 H 0.6098 0.84308 0.2076 0.0
H914 H 0.58095 0.84536 0.20959 0.0
H915 H 0.59776 0.84469 0.2287 0.0
H916 H 0.55987 0.82914 0.24888 0.0
H917 H 0.53857 0.85304 0.2564 0.0
H918 H 0.902 0.51602 0.33251 0.0
H919 H 0.85853 0.50396 0.34357 0.0
H920 H 0.89456 0.56157 0.38356 0.0
H921 H 0.93806 0.57367 0.37266 0.0
H922 H 0.83574 0.48745 0.37723 0.0
H923 H 0.84573 0.57976 0.35817 0.0
H924 H 0.86739 0.56974 0.35007 0.0
H925 H 0.87169 0.58266 0.37163 0.0
C926 C 0.90067 0.5259 0.34379 0.0
C927 C 0.92346 0.54596 0.35162 0.0
C928 C 0.87584 0.51906 0.35004 0.0
C929 C 0.87338 0.53218 0.36418 0.0
C930 C 0.89606 0.5516 0.37239 0.0
H931 H 0.73698 0.5254 0.41132 0.0
H932 H 0.78138 0.53442 0.40539 0.0
C933 C 0.92088 0.55848 0.36615 0.0
C934 C 0.84707 0.5259 0.37009 0.0
H935 H 0.80758 0.55063 0.37379 0.0
C936 C 0.82954 0.50123 0.3765 0.0
C937 C 0.83914 0.54398 0.36914 0.0
C938 C 0.85684 0.57046 0.36175 0.0
C939 C 0.80424 0.49418 0.38209 0.0
C940 C 0.7962 0.51217 0.38094 0.0
C941 C 0.81386 0.53693 0.37472 0.0
C942 C 0.7692 0.50547 0.3854 0.0
C943 C 0.78645 0.46765 0.38935 0.0
C944 C 0.74771 0.48625 0.37609 0.0
C945 C 0.7224 0.48106 0.37945 0.0
C946 C 0.71815 0.49514 0.39209 0.0
C947 C 0.73965 0.5142 0.40154 0.0
C948 C 0.765 0.51938 0.39816 0.0
H949 H 0.79778 0.45906 0.39398 0.0
H950 H 0.77444 0.46797 0.40028 0.0
H951 H 0.77293 0.45508 0.37899 0.0
H952 H 0.75058 0.47569 0.36592 0.0
H953 H 0.70623 0.46636 0.37189 0.0
H954 H 0.02884 0.57503 0.41714 0.0
H955 H 0.04684 0.58089 0.44659 0.0
H956 H 0.11983 0.6462 0.42901 0.0
H957 H 0.10198 0.64065 0.3998 0.0
H958 H 0.08825 0.5781 0.4568 0.0
H959 H 0.10714 0.67439 0.47269 0.0
H960 H 0.08675 0.65584 0.45464 0.0
H961 H 0.12195 0.67454 0.45237 0.0
C962 C 0.04859 0.59084 0.41967 0.0
C963 C 0.06388 0.6076 0.40625 0.0
C964 C 0.05883 0.59417 0.43647 0.0
C965 C 0.0845 0.61429 0.44008 0.0
C966 C 0.0997 0.63106 0.42669 0.0
H967 H 0.19569 0.62493 0.51473 0.0
H968 H 0.16636 0.61588 0.49006 0.0
C969 C 0.08946 0.62786 0.40998 0.0
C970 C 0.0963 0.61678 0.45745 0.0
H971 H 0.13182 0.66042 0.48908 0.0
C972 C 0.09742 0.59598 0.464 0.0
C973 C 0.10787 0.63993 0.46702 0.0
C974 C 0.10562 0.66233 0.4614 0.0
C975 C 0.11094 0.59812 0.47942 0.0
C976 C 0.12426 0.62191 0.48825 0.0
C977 C 0.12199 0.6423 0.48216 0.0
C978 C 0.1414 0.62643 0.50344 0.0
C979 C 0.11082 0.57485 0.48603 0.0
C980 C 0.13761 0.63606 0.51902 0.0
C981 C 0.15464 0.64169 0.53302 0.0
C982 C 0.17575 0.63773 0.5317 0.0
C983 C 0.17945 0.62796 0.51616 0.0
C984 C 0.16257 0.62258 0.5021 0.0
H985 H 0.09316 0.55685 0.4815 0.0
H986 H 0.12834 0.57507 0.48094 0.0
H987 H 0.11136 0.57462 0.50045 0.0
H988 H 0.12152 0.63934 0.52031 0.0
H989 H 0.15131 0.64919 0.54486 0.0
H990 H 0.46241 0.04021 0.58343 0.0
H991 H 0.48082 0.05372 0.61269 0.0
H992 H 0.48047 0.12364 0.60656 0.0
H993 H 0.46177 0.11009 0.57761 0.0
H994 H 0.52717 0.09401 0.62064 0.0
H995 H 0.45151 0.10377 0.65471 0.0
H996 H 0.44514 0.08699 0.63429 0.0
H997 H 0.46047 0.12137 0.63475 0.0
C998 C 0.46582 0.05822 0.58851 0.0
C999 C 0.46045 0.074 0.57832 0.0
C1000 C 0.4763 0.06591 0.6052 0.0
C1001 C 0.48163 0.0895 0.61195 0.0
C1002 C 0.47577 0.105 0.60189 0.0
H1003 H 0.60363 0.19742 0.6772 0.0
H1004 H 0.57642 0.16739 0.65448 0.0
C1005 C 0.46511 0.09725 0.58531 0.0
C1006 C 0.49566 0.09925 0.62871 0.0
H1007 H 0.49578 0.12943 0.66603 0.0
C1008 C 0.52007 0.10131 0.63073 0.0
C1009 C 0.48623 0.1083 0.64206 0.0
C1010 C 0.45926 0.10472 0.64142 0.0
C1011 C 0.53599 0.11362 0.64522 0.0
C1012 C 0.5276 0.12478 0.65777 0.0
C1013 C 0.50248 0.12127 0.65629 0.0
C1014 C 0.54509 0.1416 0.67185 0.0
C1015 C 0.56173 0.11469 0.64682 0.0
C1016 C 0.53641 0.1374 0.68917 0.0
C1017 C 0.55175 0.15484 0.70215 0.0
C1018 C 0.57608 0.17676 0.69802 0.0
C1019 C 0.58508 0.18057 0.68079 0.0
C1020 C 0.56961 0.16329 0.6678 0.0
H1021 H 0.56076 0.09797 0.64033 0.0
H1022 H 0.57739 0.13225 0.6403 0.0
H1023 H 0.56732 0.11511 0.66062 0.0
H1024 H 0.5175 0.12089 0.69259 0.0
H1025 H 0.54431 0.15144 0.71533 0.0
H1026 H 0.48681 0.6075 0.71276 0.0
H1027 H 0.48968 0.61961 0.74344 0.0
H1028 H 0.45138 0.54004 0.75817 0.0
H1029 H 0.44902 0.52786 0.72769 0.0
H1030 H 0.45009 0.60416 0.76921 0.0
H1031 H 0.52096 0.57434 0.78534 0.0
H1032 H 0.51357 0.57832 0.76326 0.0
H1033 H 0.49122 0.54992 0.77521 0.0
C1034 C 0.47879 0.59262 0.72256 0.0
C1035 C 0.46765 0.56677 0.71786 0.0
C1036 C 0.48045 0.59953 0.74002 0.0
C1037 C 0.4712 0.58073 0.753 0.0
C1038 C 0.45902 0.55483 0.74831 0.0
H1039 H 0.46117 0.57937 0.86461 0.0
H1040 H 0.46271 0.56934 0.83399 0.0
C1041 C 0.45732 0.5479 0.73089 0.0
C1042 C 0.47463 0.5882 0.77149 0.0
H1043 H 0.50387 0.58622 0.80903 0.0
C1044 C 0.46197 0.60042 0.77792 0.0
C1045 C 0.49016 0.5832 0.78273 0.0
C1046 C 0.50496 0.57093 0.7763 0.0
C1047 C 0.46388 0.60728 0.79547 0.0
C1048 C 0.47934 0.60223 0.80674 0.0
C1049 C 0.49213 0.59012 0.8003 0.0
C1050 C 0.48171 0.60873 0.8254 0.0
C1051 C 0.44874 0.61921 0.80191 0.0
C1052 C 0.49294 0.63429 0.83071 0.0
C1053 C 0.49205 0.64007 0.84815 0.0
C1054 C 0.48007 0.62036 0.86053 0.0
C1055 C 0.47047 0.59494 0.85534 0.0
C1056 C 0.47129 0.58917 0.83787 0.0
H1057 H 0.43319 0.61629 0.79262 0.0
H1058 H 0.43948 0.61109 0.81469 0.0
H1059 H 0.46242 0.64014 0.80356 0.0
H1060 H 0.50156 0.64967 0.82128 0.0
H1061 H 0.49978 0.65986 0.85181 0.0
H1062 H 0.91781 0.39444 0.88301 0.0
H1063 H 0.9006 0.39012 0.91263 0.0
H1064 H 0.96842 0.46323 0.9263 0.0
H1065 H 0.98601 0.46732 0.89705 0.0
H1066 H 0.95564 0.42544 0.95114 0.0
H1067 H 0.86863 0.43046 0.93211 0.0
H1068 H 0.87171 0.40601 0.92142 0.0
H1069 H 0.89569 0.43918 0.9175 0.0
C1070 C 0.929 0.40955 0.89236 0.0
C1071 C 0.95299 0.43144 0.88762 0.0
C1072 C 0.9191 0.40714 0.90921 0.0
C1073 C 0.93306 0.42656 0.92155 0.0
C1074 C 0.95724 0.44813 0.91693 0.0
H1075 H 0.88016 0.46217 0.01521 0.0
H1076 H 0.89829 0.4615 0.98685 0.0
C1077 C 0.96711 0.45057 0.90015 0.0
C1078 C 0.92261 0.42472 0.93931 0.0
H1079 H 0.87295 0.42404 0.96181 0.0
C1080 C 0.93749 0.425 0.95351 0.0
C1081 C 0.8991 0.42446 0.94231 0.0
C1082 C 0.8829 0.42522 0.92757 0.0
C1083 C 0.92958 0.42524 0.97067 0.0
C1084 C 0.90599 0.42482 0.97366 0.0
C1085 C 0.891 0.42428 0.95946 0.0
C1086 C 0.89686 0.42589 0.99138 0.0
C1087 C 0.94694 0.42673 0.98542 0.0
C1088 C 0.89033 0.40622 0.00341 0.0
C1089 C 0.88012 0.40665 0.0197 0.0
C1090 C 0.87605 0.42664 0.02413 0.0
C1091 C 0.88311 0.44654 0.01218 0.0
C1092 C 0.89339 0.44615 0.99596 0.0
H1093 H 0.96712 0.43304 0.9809 0.0
H1094 H 0.9482 0.44017 0.99564 0.0
H1095 H 0.93846 0.40748 0.99136 0.0
H1096 H 0.89242 0.39018 3e-05 0.0
H1097 H 0.87465 0.39094 0.0286 0.0
H1098 H 0.49823 0.00713 0.08067 0.0
H1099 H 0.49669 0.99742 0.11146 0.0
H1100 H 0.58091 0.03309 0.11214 0.0
H1101 H 0.58267 0.0431 0.08116 0.0
H1102 H 0.5552 0.98445 0.12512 0.0
H1103 H 0.5158 0.03924 0.15582 0.0
H1104 H 0.49626 0.02086 0.13764 0.0
H1105 H 0.52979 0.04629 0.13424 0.0
C1106 C 0.51654 0.01364 0.08745 0.0
C1107 C 0.54059 0.02595 0.07846 0.0
C1108 C 0.51562 0.0081 0.10509 0.0
C1109 C 0.53872 0.0149 0.11417 0.0
C1110 C 0.56287 0.02785 0.10539 0.0
H1111 H 0.54034 0.94948 0.21598 0.0
H1112 H 0.55625 0.9788 0.19107 0.0
C1113 C 0.56382 0.03342 0.08769 0.0
C1114 C 0.53705 0.00575 0.13219 0.0
H1115 H 0.50899 0.00203 0.17161 0.0
C1116 C 0.54567 0.98875 0.13544 0.0
C1117 C 0.52462 0.01142 0.1456 0.0
C1118 C 0.51634 0.03067 0.14321 0.0
C1119 C 0.54057 0.97588 0.15137 0.0
C1120 C 0.52682 0.98047 0.16443 0.0
C1121 C 0.51943 0.99849 0.16152 0.0
C1122 C 0.51757 0.9648 0.18041 0.0
C1123 C 0.5485 0.95633 0.15371 0.0
C1124 C 0.49057 0.94786 0.18289 0.0
C1125 C 0.48146 0.9312 0.19705 0.0
C1126 C 0.49921 0.93127 0.20903 0.0
C1127 C 0.52623 0.94893 0.20689 0.0
C1128 C 0.53534 0.96561 0.19267 0.0
H1129 H 0.55522 0.95216 0.14135 0.0
H1130 H 0.56482 0.96369 0.16321 0.0
H1131 H 0.53183 0.93813 0.1589 0.0
H1132 H 0.47656 0.94698 0.17356 0.0
H1133 H 0.46052 0.91789 0.19839 0.0
H1134 H 0.60907 0.63726 0.24768 0.0
H1135 H 0.60284 0.61592 0.27571 0.0
H1136 H 0.68163 0.63064 0.27297 0.0
H1137 H 0.6877 0.65073 0.24471 0.0
H1138 H 0.61341 0.57121 0.27608 0.0
H1139 H 0.6679 0.64791 0.32515 0.0
H1140 H 0.65351 0.65257 0.30592 0.0
H1141 H 0.68333 0.65229 0.30426 0.0
C1142 C 0.6252 0.63624 0.25312 0.0
C1143 C 0.6488 0.6455 0.2438 0.0
C1144 C 0.62164 0.62423 0.26918 0.0
C1145 C 0.64183 0.62189 0.27633 0.0
C1146 C 0.66598 0.63264 0.2677 0.0
H1147 H 0.68035 0.54971 0.35395 0.0
H1148 H 0.67726 0.57629 0.3316 0.0
C1149 C 0.66944 0.64428 0.25156 0.0
C1150 C 0.63682 0.60516 0.2914 0.0
H1151 H 0.65641 0.60572 0.33299 0.0
C1152 C 0.62234 0.5786 0.28867 0.0
C1153 C 0.64876 0.61509 0.30762 0.0
C1154 C 0.66414 0.64354 0.31107 0.0
C1155 C 0.62077 0.56161 0.30149 0.0
C1156 C 0.6334 0.57156 0.31763 0.0
C1157 C 0.64682 0.59814 0.3206 0.0
C1158 C 0.63475 0.55502 0.33109 0.0
C1159 C 0.60698 0.5334 0.2972 0.0
C1160 C 0.61187 0.53417 0.33818 0.0
C1161 C 0.61362 0.51859 0.35068 0.0
C1162 C 0.63828 0.52403 0.35656 0.0
C1163 C 0.66111 0.54505 0.3496 0.0
C1164 C 0.65935 0.56032 0.33691 0.0
H1165 H 0.60422 0.52988 0.28298 0.0
H1166 H 0.61814 0.52484 0.30219 0.0
H1167 H 0.58727 0.52334 0.30335 0.0
H1168 H 0.59268 0.5301 0.3342 0.0
H1169 H 0.59573 0.50272 0.35607 0.0
H1170 H 0.41539 0.99447 0.40546 0.0
H1171 H 0.42113 0.97591 0.37888 0.0
H1172 H 0.46715 0.95214 0.40711 0.0
H1173 H 0.46097 0.97011 0.43386 0.0
H1174 H 0.4709 0.99217 0.36424 0.0
H1175 H 0.41591 0.88789 0.37887 0.0
H1176 H 0.41091 0.91043 0.39086 0.0
H1177 H 0.43909 0.90802 0.39518 0.0
C1178 C 0.4261 0.98465 0.40612 0.0
C1179 C 0.43766 0.98367 0.42176 0.0
C1180 C 0.42954 0.97426 0.3909 0.0
C1181 C 0.4444 0.96252 0.39108 0.0
C1182 C 0.45529 0.96079 0.40676 0.0
H1183 H 0.49454 0.89917 0.30868 0.0
H1184 H 0.48938 0.91565 0.33653 0.0
C1185 C 0.45191 0.97123 0.42198 0.0
C1186 C 0.45015 0.95387 0.37462 0.0
H1187 H 0.44165 0.90114 0.35321 0.0
C1188 C 0.46444 0.97226 0.36178 0.0
C1189 C 0.44192 0.92794 0.37158 0.0
C1190 C 0.42592 0.90734 0.38477 0.0
C1191 C 0.47082 0.96542 0.34595 0.0
C1192 C 0.46224 0.93943 0.34279 0.0
C1193 C 0.44823 0.92107 0.35571 0.0
C1194 C 0.46664 0.93073 0.32587 0.0
C1195 C 0.48696 0.98613 0.33285 0.0
C1196 C 0.45558 0.93379 0.31071 0.0
C1197 C 0.45854 0.9245 0.29485 0.0
C1198 C 0.47248 0.91181 0.29387 0.0
C1199 C 0.48381 0.90899 0.30904 0.0
C1200 C 0.48081 0.9183 0.32494 0.0
H1201 H 0.49813 0.00534 0.33906 0.0
H1202 H 0.501 0.98234 0.32603 0.0
H1203 H 0.47368 0.98665 0.32302 0.0
H1204 H 0.44414 0.94288 0.31121 0.0
H1205 H 0.44944 0.9268 0.28341 0.0
H1206 H 0.51152 0.48444 0.55914 0.0
H1207 H 0.53185 0.48764 0.53104 0.0
H1208 H 0.53716 0.55964 0.52139 0.0
H1209 H 0.51657 0.55654 0.54967 0.0
H1210 H 0.51725 0.49223 0.4974 0.0
H1211 H 0.61355 0.5769 0.51666 0.0
H1212 H 0.58812 0.55784 0.53227 0.0
H1213 H 0.58541 0.58015 0.51866 0.0
C1214 C 0.51642 0.50069 0.5509 0.0
C1215 C 0.51235 0.52021 0.55658 0.0
C1216 C 0.52823 0.50258 0.5349 0.0
C1217 C 0.53631 0.52404 0.52429 0.0
C1218 C 0.53146 0.54316 0.52957 0.0
H1219 H 0.59213 0.51842 0.42005 0.0
H1220 H 0.5707 0.5276 0.44363 0.0
C1221 C 0.51965 0.54131 0.54566 0.0
C1222 C 0.55044 0.52634 0.50797 0.0
H1223 H 0.61096 0.55946 0.48894 0.0
C1224 C 0.53764 0.5071 0.4954 0.0
C1225 C 0.57712 0.54564 0.5056 0.0
C1226 C 0.59203 0.56625 0.51903 0.0
C1227 C 0.55102 0.50611 0.48074 0.0
C1228 C 0.57778 0.52527 0.47842 0.0
C1229 C 0.5904 0.54495 0.49074 0.0
C1230 C 0.59339 0.52389 0.46401 0.0
C1231 C 0.53671 0.48384 0.46833 0.0
C1232 C 0.61426 0.52024 0.46763 0.0
C1233 C 0.62679 0.51534 0.45418 0.0
C1234 C 0.61849 0.51389 0.43694 0.0
C1235 C 0.59868 0.5191 0.43327 0.0
C1236 C 0.58636 0.52425 0.4467 0.0
H1237 H 0.5182 0.468 0.47402 0.0
H1238 H 0.53163 0.49043 0.45638 0.0
H1239 H 0.54927 0.47616 0.46455 0.0
H1240 H 0.62004 0.52003 0.48093 0.0
H1241 H 0.64206 0.51147 0.45735 0.0
H1242 H 0.02757 0.49249 0.72126 0.0
H1243 H 0.04794 0.51547 0.69414 0.0
H1244 H 0.1191 0.51734 0.70743 0.0
H1245 H 0.09868 0.49395 0.73417 0.0
H1246 H 0.08962 0.56219 0.68981 0.0
H1247 H 0.10973 0.49298 0.65822 0.0
H1248 H 0.08853 0.48465 0.67691 0.0
H1249 H 0.12364 0.50117 0.67957 0.0
C1250 C 0.04741 0.4975 0.7182 0.0
C1251 C 0.06141 0.49111 0.72965 0.0
C1252 C 0.05904 0.51063 0.70276 0.0
C1253 C 0.08489 0.5177 0.69857 0.0
C1254 C 0.09887 0.51137 0.71006 0.0
H1255 H 0.19594 0.64215 0.63316 0.0
H1256 H 0.16761 0.61501 0.65678 0.0
C1257 C 0.08718 0.49802 0.72536 0.0
C1258 C 0.09788 0.53299 0.68275 0.0
H1259 H 0.13417 0.53616 0.64748 0.0
C1260 C 0.09909 0.55635 0.68043 0.0
C1261 C 0.10988 0.52521 0.67034 0.0
C1262 C 0.10764 0.4995 0.67128 0.0
C1263 C 0.11273 0.57255 0.66638 0.0
C1264 C 0.12618 0.56553 0.65462 0.0
C1265 C 0.12419 0.54175 0.65662 0.0
C1266 C 0.14265 0.58253 0.64025 0.0
C1267 C 0.11234 0.59686 0.66424 0.0
C1268 C 0.1385 0.57316 0.62316 0.0
C1269 C 0.15498 0.58844 0.60973 0.0
C1270 C 0.17587 0.61347 0.61311 0.0
C1271 C 0.17983 0.62302 0.63016 0.0
C1272 C 0.16352 0.60758 0.64364 0.0
H1273 H 0.09473 0.59524 0.67047 0.0
H1274 H 0.12993 0.61291 0.67061 0.0
H1275 H 0.11257 0.60168 0.65031 0.0
H1276 H 0.1226 0.55388 0.62022 0.0
H1277 H 0.15144 0.58058 0.59671 0.0
H1278 H 0.52283 0.08324 0.90657 0.0
H1279 H 0.53294 0.10469 0.87849 0.0
H1280 H 0.60661 0.16604 0.89857 0.0
H1281 H 0.59612 0.14518 0.92709 0.0
H1282 H 0.58075 0.18328 0.87805 0.0
H1283 H 0.58636 0.10569 0.84499 0.0
H1284 H 0.55574 0.09443 0.85602 0.0
H1285 H 0.58567 0.10806 0.86833 0.0
C1286 C 0.54094 0.10157 0.90518 0.0
C1287 C 0.55867 0.11253 0.9191 0.0
C1288 C 0.54686 0.1136 0.88902 0.0
C1289 C 0.57075 0.13664 0.88637 0.0
C1290 C 0.58816 0.14812 0.90034 0.0
H1291 H 0.63434 0.19613 0.7837 0.0
H1292 H 0.62702 0.17914 0.81328 0.0
C1293 C 0.5822 0.13613 0.91658 0.0
C1294 C 0.57762 0.1485 0.86892 0.0
H1295 H 0.5856 0.13669 0.82673 0.0
C1296 C 0.58198 0.1732 0.86683 0.0
C1297 C 0.57967 0.13545 0.85439 0.0
C1298 C 0.57689 0.10955 0.85603 0.0
C1299 C 0.58762 0.18496 0.85044 0.0
C1300 C 0.58836 0.17137 0.83576 0.0
C1301 C 0.58471 0.14695 0.83796 0.0
C1302 C 0.59293 0.18208 0.81797 0.0
C1303 C 0.59307 0.21191 0.84907 0.0
C1304 C 0.57595 0.189 0.81072 0.0
C1305 C 0.5802 0.19887 0.79387 0.0
C1306 C 0.60126 0.20161 0.78392 0.0
C1307 C 0.61794 0.19421 0.79108 0.0
C1308 C 0.6138 0.18454 0.80797 0.0
H1309 H 0.59942 0.22213 0.86173 0.0
H1310 H 0.60848 0.22316 0.83923 0.0
H1311 H 0.57483 0.21118 0.84511 0.0
H1312 H 0.5593 0.18661 0.81803 0.0
H1313 H 0.56692 0.20425 0.78863 0.0
H1314 H 0.55767 0.66397 0.0924 0.0
H1315 H 0.53865 0.65665 0.0633 0.0
H1316 H 0.61571 0.68866 0.0407 0.0
H1317 H 0.63472 0.69495 0.06969 0.0
H1318 H 0.5465 0.68788 0.03558 0.0
H1319 H 0.57581 0.61774 0.01902 0.0
H1320 H 0.57786 0.62955 0.04082 0.0
H1321 H 0.60262 0.64887 0.02504 0.0
C1322 C 0.57056 0.66961 0.08122 0.0
C1323 C 0.59763 0.67986 0.08332 0.0
C1324 C 0.5597 0.66548 0.06463 0.0
C1325 C 0.57573 0.67155 0.04989 0.0
C1326 C 0.60296 0.6833 0.05193 0.0
H1327 H 0.53663 0.65633 0.94019 0.0
H1328 H 0.55986 0.66519 0.96795 0.0
C1329 C 0.61383 0.68729 0.06852 0.0
C1330 C 0.56369 0.66471 0.03244 0.0
H1331 H 0.55543 0.62795 0.99673 0.0
C1332 C 0.54846 0.67479 0.02708 0.0
C1333 C 0.56622 0.6475 0.02145 0.0
C1334 C 0.5813 0.63508 0.02689 0.0
C1335 C 0.53573 0.66822 0.01096 0.0
C1336 C 0.53821 0.65101 4e-05 0.0
C1337 C 0.55367 0.64114 0.00524 0.0
C1338 C 0.52456 0.64298 0.9832 0.0
C1339 C 0.51976 0.67973 0.00565 0.0
C1340 C 0.49719 0.62681 0.98267 0.0
C1341 C 0.4839 0.62159 0.96688 0.0
C1342 C 0.49784 0.63259 0.95143 0.0
C1343 C 0.5254 0.64765 0.95191 0.0
C1344 C 0.53869 0.65275 0.96771 0.0
H1345 H 0.52348 0.69597 0.01418 0.0
H1346 H 0.52421 0.6866 0.99201 0.0
H1347 H 0.49857 0.66483 0.00641 0.0
H1348 H 0.48608 0.61896 0.99455 0.0
H1349 H 0.46266 0.60991 0.9669 0.0
H1350 H 0.93568 0.48657 0.25734 0.0
H1351 H 0.91758 0.46865 0.22863 0.0
H1352 H 0.95958 0.54456 0.20658 0.0
H1353 H 0.97813 0.56254 0.23509 0.0
H1354 H 0.88776 0.48052 0.20502 0.0
H1355 H 0.98371 0.50316 0.17756 0.0
H1356 H 0.97808 0.50305 0.20063 0.0
H1357 H 0.98355 0.52967 0.18753 0.0
C1358 C 0.94093 0.49942 0.24637 0.0
C1359 C 0.9583 0.52595 0.24846 0.0
C1360 C 0.93056 0.48918 0.23002 0.0
C1361 C 0.93761 0.50527 0.21549 0.0
C1362 C 0.95423 0.53182 0.21762 0.0
H1363 H 0.9024 0.48418 0.10572 0.0
H1364 H 0.92092 0.50023 0.13459 0.0
C1365 C 0.96452 0.54208 0.23396 0.0
C1366 C 0.92787 0.49428 0.19803 0.0
H1367 H 0.948 0.48736 0.15793 0.0
C1368 C 0.90086 0.48186 0.19473 0.0
C1369 C 0.9451 0.49614 0.18468 0.0
C1370 C 0.97422 0.50853 0.18774 0.0
C1371 C 0.89062 0.47174 0.17826 0.0
C1372 C 0.90785 0.4736 0.16488 0.0
C1373 C 0.93487 0.48592 0.16822 0.0
C1374 C 0.8982 0.46336 0.14722 0.0
C1375 C 0.86156 0.4598 0.1752 0.0
C1376 C 0.88001 0.43717 0.14466 0.0
C1377 C 0.86938 0.42796 0.12821 0.0
C1378 C 0.87695 0.44478 0.114 0.0
C1379 C 0.89618 0.47077 0.11642 0.0
C1380 C 0.90673 0.47998 0.1329 0.0
H1381 H 0.85235 0.46566 0.18527 0.0
H1382 H 0.85778 0.46516 0.16224 0.0
H1383 H 0.85183 0.43862 0.17566 0.0
H1384 H 0.87364 0.42393 0.15548 0.0
H1385 H 0.85471 0.4078 0.12672 0.0
loop_
_geom_bond_atom_site_label_1
_geom_bond_atom_site_label_2
_geom_bond_distance
_geom_bond_site_symmetry_2
_ccdc_geom_bond_type
H0 O26 0.856 . S
H1 O29 0.854 . S
H2 C37 0.930 . S
H3 C38 0.930 . S
H4 C40 0.930 . S
H5 C41 0.930 . S
H6 C43 0.931 . S
H7 C44 0.930 . S
H8 C46 0.930 . S
H9 C47 0.929 . S
H10 C49 0.930 . S
H11 C50 0.931 . S
H12 C52 0.930 . S
H13 C53 0.929 . S
H14 C55 0.931 . S
H15 C56 0.930 . S
H16 C58 0.930 . S
H17 C59 0.932 . S
H18 C61 0.930 . S
H19 C62 0.929 . S
H20 C64 0.931 . S
H21 C65 0.930 . S
H22 C67 0.929 . S
H23 C68 0.931 . S
H24 C70 0.930 . S
H25 C71 0.929 . S
O26 H0 0.856 . S
O26 C72 1.300 . S
O27 C72 1.209 . S
O28 C73 1.199 . S
O29 H1 0.854 . S
O29 C73 1.297 . S
C30 C31 1.404 . S
C30 C35 1.397 . S
C30 C36 1.492 . S
C31 C30 1.404 . S
C31 C32 1.396 . S
C31 C42 1.492 . S
C32 C31 1.396 . S
C32 C33 1.397 . S
C32 C48 1.509 . S
C33 C32 1.397 . S
C33 C34 1.412 . S
C33 C54 1.485 . S
C34 C33 1.412 . S
C34 C35 1.388 . S
C34 C60 1.490 . S
C35 C30 1.397 . S
C35 C34 1.388 . S
C35 C66 1.519 . S
C36 C30 1.492 . S
C36 C37 1.363 . S
C36 C41 1.390 . S
C37 H2 0.930 . S
C37 C36 1.363 . S
C37 C38 1.372 1_455 S
C38 H3 0.930 . S
C38 C37 1.372 1_655 S
C38 C39 1.383 . S
C39 C38 1.383 . S
C39 C40 1.395 . S
C40 H4 0.930 . S
C40 C39 1.395 . S
C40 C41 1.362 1_655 S
C41 H5 0.930 . S
C41 C36 1.390 . S
C41 C40 1.362 1_455 S
C42 C31 1.492 . S
C42 C43 1.377 . S
C42 C47 1.397 . S
C43 H6 0.931 . S
C43 C42 1.377 . S
C43 C44 1.376 . S
C44 H7 0.930 . S
C44 C43 1.376 . S
C44 C45 1.376 . S
C45 C44 1.376 . S
C45 C46 1.378 . S
C45 C72 1.486 . S
C46 H8 0.930 . S
C46 C45 1.378 . S
C46 C47 1.376 . S
C47 H9 0.929 . S
C47 C42 1.397 . S
C47 C46 1.376 . S
C48 C32 1.509 . S
C48 C49 1.391 . S
C48 C53 1.386 . S
C49 H10 0.930 . S
C49 C48 1.391 . S
C49 C50 1.375 . S
C50 H11 0.931 . S
C50 C49 1.375 . S
C50 C51 1.375 . S
C51 C50 1.375 . S
C51 C52 1.361 . S
C52 H12 0.930 . S
C52 C51 1.361 . S
C52 C53 1.399 . S
C53 H13 0.929 . S
C53 C48 1.386 . S
C53 C52 1.399 . S
C54 C33 1.485 . S
C54 C55 1.394 . S
C54 C59 1.360 . S
C55 H14 0.931 . S
C55 C54 1.394 . S
C55 C56 1.372 . S
C56 H15 0.930 . S
C56 C55 1.372 . S
C56 C57 1.397 . S
C57 C56 1.397 . S
C57 C58 1.390 . S
C57 C73 1.476 . S
C58 H16 0.930 . S
C58 C57 1.390 . S
C58 C59 1.366 . S
C59 H17 0.932 . S
C59 C54 1.360 . S
C59 C58 1.366 . S
C60 C34 1.490 . S
C60 C61 1.380 . S
C60 C65 1.386 . S
C61 H18 0.930 . S
C61 C60 1.380 . S
C61 C62 1.381 . S
C62 H19 0.929 . S
C62 C61 1.381 . S
C62 C63 1.371 . S
C63 C62 1.371 . S
C63 C64 1.380 . S
C64 H20 0.931 . S
C64 C63 1.380 . S
C64 C65 1.387 . S
C65 H21 0.930 . S
C65 C60 1.386 . S
C65 C64 1.387 . S
C66 C35 1.519 . S
C66 C67 1.377 1_455 S
C66 C71 1.361 . S
C67 H22 0.929 . S
C67 C66 1.377 1_655 S
C67 C68 1.386 . S
C68 H23 0.931 . S
C68 C67 1.386 . S
C68 C69 1.363 . S
C69 C68 1.363 . S
C69 C70 1.385 . S
C70 H24 0.930 . S
C70 C69 1.385 . S
C70 C71 1.396 1_655 S
C71 H25 0.929 . S
C71 C66 1.361 . S
C71 C70 1.396 1_455 S
C72 O26 1.300 . S
C72 O27 1.209 . S
C72 C45 1.486 . S
C73 O28 1.199 . S
C73 O29 1.297 . S
C73 C57 1.476 . S
H74 O100 0.856 . S
H75 O103 0.854 . S
H76 C111 0.930 . S
H77 C112 0.930 . S
H78 C114 0.927 1_565 S
H79 C115 0.930 . S
H80 C117 0.931 . S
H81 C118 0.930 . S
H82 C120 0.930 . S
H83 C121 0.929 . S
H84 C123 0.930 . S
H85 C124 0.931 . S
H86 C126 0.930 . S
H87 C127 0.929 . S
H88 C129 0.931 . S
H89 C130 0.930 . S
H90 C132 0.930 . S
H91 C133 0.932 . S
H92 C135 0.930 . S
H93 C136 0.929 . S
H94 C138 0.931 . S
H95 C139 0.930 . S
H96 C141 0.929 . S
H97 C142 0.931 1_565 S
H98 C144 0.931 1_565 S
H99 C145 0.929 . S
O100 H74 0.856 . S
O100 C146 1.300 . S
O101 C146 1.209 . S
O102 C147 1.199 . S
O103 H75 0.854 . S
O103 C147 1.297 . S
C104 C105 1.404 . S
C104 C109 1.397 . S
C104 C110 1.492 . S
C105 C104 1.404 . S
C105 C106 1.396 . S
C105 C116 1.492 . S
C106 C105 1.396 . S
C106 C107 1.397 . S
C106 C122 1.509 . S
C107 C106 1.397 . S
C107 C108 1.412 . S
C107 C128 1.485 . S
C108 C107 1.412 . S
C108 C109 1.388 . S
C108 C134 1.490 . S
C109 C104 1.397 . S
C109 C108 1.388 . S
C109 C140 1.519 . S
C110 C104 1.492 . S
C110 C111 1.363 . S
C110 C115 1.390 . S
C111 H76 0.930 . S
C111 C110 1.363 . S
C111 C112 1.372 . S
C112 H77 0.930 . S
C112 C111 1.372 . S
C112 C113 1.383 . S
C113 C112 1.383 . S
C113 C114 1.395 . S
C114 H78 0.927 1_545 S
C114 C113 1.395 . S
C114 C115 1.362 . S
C115 H79 0.930 . S
C115 C110 1.390 . S
C115 C114 1.362 . S
C116 C105 1.492 . S
C116 C117 1.377 . S
C116 C121 1.397 . S
C117 H80 0.931 . S
C117 C116 1.377 . S
C117 C118 1.376 . S
C118 H81 0.930 . S
C118 C117 1.376 . S
C118 C119 1.376 . S
C119 C118 1.376 . S
C119 C120 1.378 . S
C119 C146 1.486 . S
C120 H82 0.930 . S
C120 C119 1.378 . S
C120 C121 1.376 . S
C121 H83 0.929 . S
C121 C116 1.397 . S
C121 C120 1.376 . S
C122 C106 1.509 . S
C122 C123 1.391 . S
C122 C127 1.386 . S
C123 H84 0.930 . S
C123 C122 1.391 . S
C123 C124 1.375 . S
C124 H85 0.931 . S
C124 C123 1.375 . S
C124 C125 1.375 . S
C125 C124 1.375 . S
C125 C126 1.361 . S
C126 H86 0.930 . S
C126 C125 1.361 . S
C126 C127 1.399 . S
C127 H87 0.929 . S
C127 C122 1.386 . S
C127 C126 1.399 . S
C128 C107 1.485 . S
C128 C129 1.394 . S
C128 C133 1.360 . S
C129 H88 0.931 . S
C129 C128 1.394 . S
C129 C130 1.372 . S
C130 H89 0.930 . S
C130 C129 1.372 . S
C130 C131 1.397 . S
C131 C130 1.397 . S
C131 C132 1.390 . S
C131 C147 1.476 . S
C132 H90 0.930 . S
C132 C131 1.390 . S
C132 C133 1.366 . S
C133 H91 0.932 . S
C133 C128 1.360 . S
C133 C132 1.366 . S
C134 C108 1.490 . S
C134 C135 1.380 . S
C134 C139 1.386 . S
C135 H92 0.930 . S
C135 C134 1.380 . S
C135 C136 1.381 . S
C136 H93 0.929 . S
C136 C135 1.381 . S
C136 C137 1.371 . S
C137 C136 1.371 . S
C137 C138 1.380 . S
C138 H94 0.931 . S
C138 C137 1.380 . S
C138 C139 1.387 . S
C139 H95 0.930 . S
C139 C134 1.386 . S
C139 C138 1.387 . S
C140 C109 1.519 . S
C140 C141 1.377 . S
C140 C145 1.361 . S
C141 H96 0.929 . S
C141 C140 1.377 . S
C141 C142 1.386 . S
C142 H97 0.931 1_545 S
C142 C141 1.386 . S
C142 C143 1.363 1_545 S
C143 C142 1.363 1_565 S
C143 C144 1.385 1_565 S
C144 H98 0.931 1_545 S
C144 C143 1.385 1_545 S
C144 C145 1.396 . S
C145 H99 0.929 . S
C145 C140 1.361 . S
C145 C144 1.396 . S
C146 O100 1.300 . S
C146 O101 1.209 . S
C146 C119 1.486 . S
C147 O102 1.199 . S
C147 O103 1.297 . S
C147 C131 1.476 . S
H148 O174 0.856 . S
H149 O177 0.854 . S
H150 C185 0.930 . S
H151 C186 0.930 . S
H152 C188 0.930 . S
H153 C189 0.930 . S
H154 C191 0.931 . S
H155 C192 0.930 . S
H156 C194 0.930 . S
H157 C195 0.929 . S
H158 C197 0.930 . S
H159 C198 0.931 . S
H160 C200 0.930 . S
H161 C201 0.929 . S
H162 C203 0.931 . S
H163 C204 0.930 . S
H164 C206 0.930 . S
H165 C207 0.932 . S
H166 C209 0.930 . S
H167 C210 0.929 . S
H168 C212 0.931 . S
H169 C213 0.930 . S
H170 C215 0.929 . S
H171 C216 0.931 . S
H172 C218 0.930 . S
H173 C219 0.929 . S
O174 H148 0.856 . S
O174 C220 1.300 . S
O175 C220 1.209 . S
O176 C221 1.199 . S
O177 H149 0.854 . S
O177 C221 1.297 . S
C178 C179 1.404 . S
C178 C183 1.397 . S
C178 C184 1.492 . S
C179 C178 1.404 . S
C179 C180 1.396 . S
C179 C190 1.492 . S
C180 C179 1.396 . S
C180 C181 1.397 . S
C180 C196 1.509 . S
C181 C180 1.397 . S
C181 C182 1.412 . S
C181 C202 1.485 . S
C182 C181 1.412 . S
C182 C183 1.388 . S
C182 C208 1.490 . S
C183 C178 1.397 . S
C183 C182 1.388 . S
C183 C214 1.519 . S
C184 C178 1.492 . S
C184 C185 1.363 . S
C184 C189 1.390 . S
C185 H150 0.930 . S
C185 C184 1.363 . S
C185 C186 1.372 . S
C186 H151 0.930 . S
C186 C185 1.372 . S
C186 C187 1.383 . S
C187 C186 1.383 . S
C187 C188 1.395 . S
C188 H152 0.930 . S
C188 C187 1.395 . S
C188 C189 1.362 . S
C189 H153 0.930 . S
C189 C184 1.390 . S
C189 C188 1.362 . S
C190 C179 1.492 . S
C190 C191 1.377 . S
C190 C195 1.397 . S
C191 H154 0.931 . S
C191 C190 1.377 . S
C191 C192 1.376 . S
C192 H155 0.930 . S
C192 C191 1.376 . S
C192 C193 1.376 . S
C193 C192 1.376 . S
C193 C194 1.378 . S
C193 C220 1.486 . S
C194 H156 0.930 . S
C194 C193 1.378 . S
C194 C195 1.376 . S
C195 H157 0.929 . S
C195 C190 1.397 . S
C195 C194 1.376 . S
C196 C180 1.509 . S
C196 C197 1.391 . S
C196 C201 1.386 . S
C197 H158 0.930 . S
C197 C196 1.391 . S
C197 C198 1.375 . S
C198 H159 0.931 . S
C198 C197 1.375 . S
C198 C199 1.375 . S
C199 C198 1.375 . S
C199 C200 1.361 . S
C200 H160 0.930 . S
C200 C199 1.361 . S
C200 C201 1.399 . S
C201 H161 0.929 . S
C201 C196 1.386 . S
C201 C200 1.399 . S
C202 C181 1.485 . S
C202 C203 1.394 . S
C202 C207 1.360 . S
C203 H162 0.931 . S
C203 C202 1.394 . S
C203 C204 1.372 . S
C204 H163 0.930 . S
C204 C203 1.372 . S
C204 C205 1.397 . S
C205 C204 1.397 . S
C205 C206 1.390 . S
C205 C221 1.476 . S
C206 H164 0.930 . S
C206 C205 1.390 . S
C206 C207 1.366 . S
C207 H165 0.932 . S
C207 C202 1.360 . S
C207 C206 1.366 . S
C208 C182 1.490 . S
C208 C209 1.380 . S
C208 C213 1.386 . S
C209 H166 0.930 . S
C209 C208 1.380 . S
C209 C210 1.381 . S
C210 H167 0.929 . S
C210 C209 1.381 . S
C210 C211 1.371 . S
C211 C210 1.371 . S
C211 C212 1.380 . S
C212 H168 0.931 . S
C212 C211 1.380 . S
C212 C213 1.387 . S
C213 H169 0.930 . S
C213 C208 1.386 . S
C213 C212 1.387 . S
C214 C183 1.519 . S
C214 C215 1.377 . S
C214 C219 1.361 . S
C215 H170 0.929 . S
C215 C214 1.377 . S
C215 C216 1.386 . S
C216 H171 0.931 . S
C216 C215 1.386 . S
C216 C217 1.363 . S
C217 C216 1.363 . S
C217 C218 1.385 . S
C218 H172 0.930 . S
C218 C217 1.385 . S
C218 C219 1.396 . S
C219 H173 0.929 . S
C219 C214 1.361 . S
C219 C218 1.396 . S
C220 O174 1.300 . S
C220 O175 1.209 . S
C220 C193 1.486 . S
C221 O176 1.199 . S
C221 O177 1.297 . S
C221 C205 1.476 . S
H222 O248 0.856 . S
H223 O251 0.854 . S
H224 C259 0.930 . S
H225 C260 0.930 . S
H226 C262 0.930 . S
H227 C263 0.930 . S
H228 C265 0.931 . S
H229 C266 0.930 . S
H230 C268 0.930 . S
H231 C269 0.929 . S
H232 C271 0.930 . S
H233 C272 0.931 . S
H234 C274 0.930 . S
H235 C275 0.929 . S
H236 C277 0.931 . S
H237 C278 0.930 . S
H238 C280 0.930 . S
H239 C281 0.932 . S
H240 C283 0.930 . S
H241 C284 0.929 . S
H242 C286 0.931 . S
H243 C287 0.930 . S
H244 C289 0.929 . S
H245 C290 0.931 . S
H246 C292 0.930 . S
H247 C293 0.929 1_455 S
O248 H222 0.856 . S
O248 C294 1.300 . S
O249 C294 1.209 . S
O250 C295 1.199 . S
O251 H223 0.854 . S
O251 C295 1.297 . S
C252 C253 1.404 . S
C252 C257 1.397 . S
C252 C258 1.492 . S
C253 C252 1.404 . S
C253 C254 1.396 . S
C253 C264 1.492 . S
C254 C253 1.396 . S
C254 C255 1.397 . S
C254 C270 1.509 . S
C255 C254 1.397 . S
C255 C256 1.412 . S
C255 C276 1.485 . S
C256 C255 1.412 . S
C256 C257 1.388 . S
C256 C282 1.490 . S
C257 C252 1.397 . S
C257 C256 1.388 . S
C257 C288 1.519 . S
C258 C252 1.492 . S
C258 C259 1.363 . S
C258 C263 1.390 1_455 S
C259 H224 0.930 . S
C259 C258 1.363 . S
C259 C260 1.372 1_455 S
C260 H225 0.930 . S
C260 C259 1.372 1_655 S
C260 C261 1.383 . S
C261 C260 1.383 . S
C261 C262 1.395 . S
C262 H226 0.930 . S
C262 C261 1.395 . S
C262 C263 1.362 . S
C263 H227 0.930 . S
C263 C258 1.390 1_655 S
C263 C262 1.362 . S
C264 C253 1.492 . S
C264 C265 1.377 . S
C264 C269 1.397 . S
C265 H228 0.931 . S
C265 C264 1.377 . S
C265 C266 1.376 . S
C266 H229 0.930 . S
C266 C265 1.376 . S
C266 C267 1.376 . S
C267 C266 1.376 . S
C267 C268 1.378 . S
C267 C294 1.486 . S
C268 H230 0.930 . S
C268 C267 1.378 . S
C268 C269 1.376 . S
C269 H231 0.929 . S
C269 C264 1.397 . S
C269 C268 1.376 . S
C270 C254 1.509 . S
C270 C271 1.391 . S
C270 C275 1.386 . S
C271 H232 0.930 . S
C271 C270 1.391 . S
C271 C272 1.375 . S
C272 H233 0.931 . S
C272 C271 1.375 . S
C272 C273 1.375 . S
C273 C272 1.375 . S
C273 C274 1.361 . S
C274 H234 0.930 . S
C274 C273 1.361 . S
C274 C275 1.399 . S
C275 H235 0.929 . S
C275 C270 1.386 . S
C275 C274 1.399 . S
C276 C255 1.485 . S
C276 C277 1.394 . S
C276 C281 1.360 . S
C277 H236 0.931 . S
C277 C276 1.394 . S
C277 C278 1.372 . S
C278 H237 0.930 . S
C278 C277 1.372 . S
C278 C279 1.397 . S
C279 C278 1.397 . S
C279 C280 1.390 . S
C279 C295 1.476 . S
C280 H238 0.930 . S
C280 C279 1.390 . S
C280 C281 1.366 . S
C281 H239 0.932 . S
C281 C276 1.360 . S
C281 C280 1.366 . S
C282 C256 1.490 . S
C282 C283 1.380 . S
C282 C287 1.386 . S
C283 H240 0.930 . S
C283 C282 1.380 . S
C283 C284 1.381 . S
C284 H241 0.929 . S
C284 C283 1.381 . S
C284 C285 1.371 . S
C285 C284 1.371 . S
C285 C286 1.380 . S
C286 H242 0.931 . S
C286 C285 1.380 . S
C286 C287 1.387 . S
C287 H243 0.930 . S
C287 C282 1.386 . S
C287 C286 1.387 . S
C288 C257 1.519 . S
C288 C289 1.377 1_455 S
C288 C293 1.361 1_455 S
C289 H244 0.929 . S
C289 C288 1.377 1_655 S
C289 C290 1.386 . S
C290 H245 0.931 . S
C290 C289 1.386 . S
C290 C291 1.363 . S
C291 C290 1.363 . S
C291 C292 1.385 . S
C292 H246 0.930 . S
C292 C291 1.385 . S
C292 C293 1.396 . S
C293 H247 0.929 1_655 S
C293 C288 1.361 1_655 S
C293 C292 1.396 . S
C294 O248 1.300 . S
C294 O249 1.209 . S
C294 C267 1.486 . S
C295 O250 1.199 . S
C295 O251 1.297 . S
C295 C279 1.476 . S
H296 O322 0.856 . S
H297 O325 0.854 . S
H298 C333 0.930 . S
H299 C334 0.930 . S
H300 C336 0.930 . S
H301 C337 0.930 . S
H302 C339 0.931 . S
H303 C340 0.930 . S
H304 C342 0.930 . S
H305 C343 0.929 . S
H306 C345 0.930 . S
H307 C346 0.931 . S
H308 C348 0.930 . S
H309 C349 0.929 . S
H310 C351 0.931 . S
H311 C352 0.930 . S
H312 C354 0.930 . S
H313 C355 0.932 . S
H314 C357 0.930 . S
H315 C358 0.929 . S
H316 C360 0.931 . S
H317 C361 0.930 . S
H318 C363 0.929 . S
H319 C364 0.931 . S
H320 C366 0.930 . S
H321 C367 0.929 . S
O322 H296 0.856 . S
O322 C368 1.300 . S
O323 C368 1.209 1_545 S
O324 C369 1.199 . S
O325 H297 0.854 . S
O325 C369 1.297 . S
C326 C327 1.404 . S
C326 C331 1.397 . S
C326 C332 1.492 . S
C327 C326 1.404 . S
C327 C328 1.396 1_545 S
C327 C338 1.492 . S
C328 C327 1.396 1_565 S
C328 C329 1.397 . S
C328 C344 1.509 . S
C329 C328 1.397 . S
C329 C330 1.412 1_566 S
C329 C350 1.485 1_556 S
C330 C329 1.412 1_544 S
C330 C331 1.388 1_554 S
C330 C356 1.490 . S
C331 C326 1.397 . S
C331 C330 1.388 1_556 S
C331 C362 1.519 . S
C332 C326 1.492 . S
C332 C333 1.363 . S
C332 C337 1.390 . S
C333 H298 0.930 . S
C333 C332 1.363 . S
C333 C334 1.372 . S
C334 H299 0.930 . S
C334 C333 1.372 . S
C334 C335 1.383 . S
C335 C334 1.383 . S
C335 C336 1.395 . S
C336 H300 0.930 . S
C336 C335 1.395 . S
C336 C337 1.362 . S
C337 H301 0.930 . S
C337 C332 1.390 . S
C337 C336 1.362 . S
C338 C327 1.492 . S
C338 C339 1.377 1_545 S
C338 C343 1.397 . S
C339 H302 0.931 . S
C339 C338 1.377 1_565 S
C339 C340 1.376 . S
C340 H303 0.930 . S
C340 C339 1.376 . S
C340 C341 1.376 . S
C341 C340 1.376 . S
C341 C342 1.378 1_565 S
C341 C368 1.486 . S
C342 H304 0.930 . S
C342 C341 1.378 1_545 S
C342 C343 1.376 . S
C343 H305 0.929 . S
C343 C338 1.397 . S
C343 C342 1.376 . S
C344 C328 1.509 . S
C344 C345 1.391 . S
C344 C349 1.386 . S
C345 H306 0.930 . S
C345 C344 1.391 . S
C345 C346 1.375 . S
C346 H307 0.931 . S
C346 C345 1.375 . S
C346 C347 1.375 . S
C347 C346 1.375 . S
C347 C348 1.361 . S
C348 H308 0.930 . S
C348 C347 1.361 . S
C348 C349 1.399 . S
C349 H309 0.929 . S
C349 C344 1.386 . S
C349 C348 1.399 . S
C350 C329 1.485 1_554 S
C350 C351 1.394 . S
C350 C355 1.360 . S
C351 H310 0.931 . S
C351 C350 1.394 . S
C351 C352 1.372 . S
C352 H311 0.930 . S
C352 C351 1.372 . S
C352 C353 1.397 . S
C353 C352 1.397 . S
C353 C354 1.390 . S
C353 C369 1.476 . S
C354 H312 0.930 . S
C354 C353 1.390 . S
C354 C355 1.366 . S
C355 H313 0.932 . S
C355 C350 1.360 . S
C355 C354 1.366 . S
C356 C330 1.490 . S
C356 C357 1.380 . S
C356 C361 1.386 . S
C357 H314 0.930 . S
C357 C356 1.380 . S
C357 C358 1.381 . S
C358 H315 0.929 . S
C358 C357 1.381 . S
C358 C359 1.371 . S
C359 C358 1.371 . S
C359 C360 1.380 . S
C360 H316 0.931 . S
C360 C359 1.380 . S
C360 C361 1.387 . S
C361 H317 0.930 . S
C361 C356 1.386 . S
C361 C360 1.387 . S
C362 C331 1.519 . S
C362 C363 1.377 . S
C362 C367 1.361 1_556 S
C363 H318 0.929 . S
C363 C362 1.377 . S
C363 C364 1.386 1_556 S
C364 H319 0.931 . S
C364 C363 1.386 1_554 S
C364 C365 1.363 . S
C365 C364 1.363 . S
C365 C366 1.385 . S
C366 H320 0.930 . S
C366 C365 1.385 . S
C366 C367 1.396 . S
C367 H321 0.929 . S
C367 C362 1.361 1_554 S
C367 C366 1.396 . S
C368 O322 1.300 . S
C368 O323 1.209 1_565 S
C368 C341 1.486 . S
C369 O324 1.199 . S
C369 O325 1.297 . S
C369 C353 1.476 . S
H370 O396 0.856 . S
H371 O399 0.854 . S
H372 C407 0.930 . S
H373 C408 0.930 . S
H374 C410 0.930 . S
H375 C411 0.930 . S
H376 C413 0.931 . S
H377 C414 0.930 . S
H378 C416 0.930 . S
H379 C417 0.929 . S
H380 C419 0.930 . S
H381 C420 0.931 . S
H382 C422 0.930 . S
H383 C423 0.929 . S
H384 C425 0.931 . S
H385 C426 0.930 . S
H386 C428 0.930 . S
H387 C429 0.932 . S
H388 C431 0.930 . S
H389 C432 0.929 . S
H390 C434 0.931 . S
H391 C435 0.930 . S
H392 C437 0.929 . S
H393 C438 0.931 . S
H394 C440 0.930 . S
H395 C441 0.929 . S
O396 H370 0.856 . S
O396 C442 1.300 . S
O397 C442 1.209 . S
O398 C443 1.199 . S
O399 H371 0.854 . S
O399 C443 1.297 . S
C400 C401 1.404 . S
C400 C405 1.397 . S
C400 C406 1.492 . S
C401 C400 1.404 . S
C401 C402 1.396 . S
C401 C412 1.492 . S
C402 C401 1.396 . S
C402 C403 1.397 . S
C402 C418 1.509 . S
C403 C402 1.397 . S
C403 C404 1.412 . S
C403 C424 1.485 . S
C404 C403 1.412 . S
C404 C405 1.388 . S
C404 C430 1.490 . S
C405 C400 1.397 . S
C405 C404 1.388 . S
C405 C436 1.519 . S
C406 C400 1.492 . S
C406 C407 1.363 . S
C406 C411 1.390 . S
C407 H372 0.930 . S
C407 C406 1.363 . S
C407 C408 1.372 . S
C408 H373 0.930 . S
C408 C407 1.372 . S
C408 C409 1.383 . S
C409 C408 1.383 . S
C409 C410 1.395 . S
C410 H374 0.930 . S
C410 C409 1.395 . S
C410 C411 1.362 . S
C411 H375 0.930 . S
C411 C406 1.390 . S
C411 C410 1.362 . S
C412 C401 1.492 . S
C412 C413 1.377 . S
C412 C417 1.397 . S
C413 H376 0.931 . S
C413 C412 1.377 . S
C413 C414 1.376 . S
C414 H377 0.930 . S
C414 C413 1.376 . S
C414 C415 1.376 . S
C415 C414 1.376 . S
C415 C416 1.378 . S
C415 C442 1.486 . S
C416 H378 0.930 . S
C416 C415 1.378 . S
C416 C417 1.376 . S
C417 H379 0.929 . S
C417 C412 1.397 . S
C417 C416 1.376 . S
C418 C402 1.509 . S
C418 C419 1.391 . S
C418 C423 1.386 . S
C419 H380 0.930 . S
C419 C418 1.391 . S
C419 C420 1.375 . S
C420 H381 0.931 . S
C420 C419 1.375 . S
C420 C421 1.375 . S
C421 C420 1.375 . S
C421 C422 1.361 . S
C422 H382 0.930 . S
C422 C421 1.361 . S
C422 C423 1.399 . S
C423 H383 0.929 . S
C423 C418 1.386 . S
C423 C422 1.399 . S
C424 C403 1.485 . S
C424 C425 1.394 . S
C424 C429 1.360 . S
C425 H384 0.931 . S
C425 C424 1.394 . S
C425 C426 1.372 . S
C426 H385 0.930 . S
C426 C425 1.372 . S
C426 C427 1.397 . S
C427 C426 1.397 . S
C427 C428 1.390 . S
C427 C443 1.476 . S
C428 H386 0.930 . S
C428 C427 1.390 . S
C428 C429 1.366 . S
C429 H387 0.932 . S
C429 C424 1.360 . S
C429 C428 1.366 . S
C430 C404 1.490 . S
C430 C431 1.380 . S
C430 C435 1.386 . S
C431 H388 0.930 . S
C431 C430 1.380 . S
C431 C432 1.381 . S
C432 H389 0.929 . S
C432 C431 1.381 . S
C432 C433 1.371 . S
C433 C432 1.371 . S
C433 C434 1.380 . S
C434 H390 0.931 . S
C434 C433 1.380 . S
C434 C435 1.387 . S
C435 H391 0.930 . S
C435 C430 1.386 . S
C435 C434 1.387 . S
C436 C405 1.519 . S
C436 C437 1.377 . S
C436 C441 1.361 . S
C437 H392 0.929 . S
C437 C436 1.377 . S
C437 C438 1.386 . S
C438 H393 0.931 . S
C438 C437 1.386 . S
C438 C439 1.363 . S
C439 C438 1.363 . S
C439 C440 1.385 . S
C440 H394 0.930 . S
C440 C439 1.385 . S
C440 C441 1.396 . S
C441 H395 0.929 . S
C441 C436 1.361 . S
C441 C440 1.396 . S
C442 O396 1.300 . S
C442 O397 1.209 . S
C442 C415 1.486 . S
C443 O398 1.199 . S
C443 O399 1.297 . S
C443 C427 1.476 . S
In444 O445 2.294 . S
In444 O446 2.326 . S
In444 O450 2.266 . S
In444 O451 2.326 . S
In444 O452 2.266 . S
In444 O453 2.326 . S
In444 O455 2.294 . S
In444 O456 2.326 . S
O445 In444 2.294 . S
O445 C454 1.240 . S
O446 In444 2.326 . S
O446 C454 1.252 . S
C447 O450 1.252 . S
C447 O451 1.260 . S
C448 O455 1.240 . S
C448 O456 1.252 . S
C449 O452 1.252 . S
C449 O453 1.260 . S
O450 In444 2.266 . S
O450 C447 1.252 . S
O451 In444 2.326 . S
O451 C447 1.260 . S
O452 In444 2.266 . S
O452 C449 1.252 . S
O453 In444 2.326 . S
O453 C449 1.260 . S
C454 O445 1.240 . S
C454 O446 1.252 . S
O455 In444 2.294 . S
O455 C448 1.240 . S
O456 In444 2.326 . S
O456 C448 1.252 . S
In457 O458 2.294 . S
In457 O459 2.326 . S
In457 O463 2.266 . S
In457 O464 2.326 . S
In457 O465 2.266 . S
In457 O466 2.326 . S
In457 O468 2.294 . S
In457 O469 2.326 . S
O458 In457 2.294 . S
O458 C467 1.240 . S
O459 In457 2.326 . S
O459 C467 1.252 . S
C460 O463 1.252 . S
C460 O464 1.260 . S
C461 O468 1.240 . S
C461 O469 1.252 . S
C462 O465 1.252 . S
C462 O466 1.260 . S
O463 In457 2.266 . S
O463 C460 1.252 . S
O464 In457 2.326 . S
O464 C460 1.260 . S
O465 In457 2.266 . S
O465 C462 1.252 . S
O466 In457 2.326 . S
O466 C462 1.260 . S
C467 O458 1.240 . S
C467 O459 1.252 . S
O468 In457 2.294 . S
O468 C461 1.240 . S
O469 In457 2.326 . S
O469 C461 1.252 . S
In470 O471 2.294 . S
In470 O472 2.326 . S
In470 O476 2.266 . S
In470 O477 2.326 . S
In470 O478 2.266 . S
In470 O479 2.326 . S
In470 O481 2.294 . S
In470 O482 2.326 . S
O471 In470 2.294 . S
O471 C480 1.240 . S
O472 In470 2.326 . S
O472 C480 1.252 . S
C473 O476 1.252 . S
C473 O477 1.260 . S
C474 O481 1.240 . S
C474 O482 1.252 . S
C475 O478 1.252 . S
C475 O479 1.260 . S
O476 In470 2.266 . S
O476 C473 1.252 . S
O477 In470 2.326 . S
O477 C473 1.260 . S
O478 In470 2.266 . S
O478 C475 1.252 . S
O479 In470 2.326 . S
O479 C475 1.260 . S
C480 O471 1.240 . S
C480 O472 1.252 . S
O481 In470 2.294 . S
O481 C474 1.240 . S
O482 In470 2.326 . S
O482 C474 1.252 . S
In483 O484 2.294 . S
In483 O485 2.326 . S
In483 O489 2.266 . S
In483 O490 2.326 . S
In483 O491 2.266 . S
In483 O492 2.326 . S
In483 O494 2.294 . S
In483 O495 2.326 . S
O484 In483 2.294 . S
O484 C493 1.240 . S
O485 In483 2.326 . S
O485 C493 1.252 . S
C486 O489 1.252 . S
C486 O490 1.260 . S
C487 O494 1.240 . S
C487 O495 1.252 . S
C488 O491 1.252 . S
C488 O492 1.260 . S
O489 In483 2.266 . S
O489 C486 1.252 . S
O490 In483 2.326 . S
O490 C486 1.260 . S
O491 In483 2.266 . S
O491 C488 1.252 . S
O492 In483 2.326 . S
O492 C488 1.260 . S
C493 O484 1.240 . S
C493 O485 1.252 . S
O494 In483 2.294 . S
O494 C487 1.240 . S
O495 In483 2.326 . S
O495 C487 1.252 . S
In496 O497 2.294 . S
In496 O498 2.326 . S
In496 O502 2.266 . S
In496 O503 2.326 . S
In496 O504 2.266 . S
In496 O505 2.326 . S
In496 O507 2.294 . S
In496 O508 2.326 . S
O497 In496 2.294 . S
O497 C506 1.240 . S
O498 In496 2.326 . S
O498 C506 1.252 . S
C499 O502 1.252 . S
C499 O503 1.260 . S
C500 O507 1.240 . S
C500 O508 1.252 . S
C501 O504 1.252 . S
C501 O505 1.260 . S
O502 In496 2.266 . S
O502 C499 1.252 . S
O503 In496 2.326 . S
O503 C499 1.260 . S
O504 In496 2.266 . S
O504 C501 1.252 . S
O505 In496 2.326 . S
O505 C501 1.260 . S
C506 O497 1.240 . S
C506 O498 1.252 . S
O507 In496 2.294 . S
O507 C500 1.240 . S
O508 In496 2.326 . S
O508 C500 1.252 . S
In509 O510 2.294 . S
In509 O511 2.326 . S
In509 O515 2.266 . S
In509 O516 2.326 . S
In509 O517 2.266 . S
In509 O518 2.326 . S
In509 O520 2.294 . S
In509 O521 2.326 . S
O510 In509 2.294 . S
O510 C519 1.240 . S
O511 In509 2.326 . S
O511 C519 1.252 . S
C512 O515 1.252 . S
C512 O516 1.260 . S
C513 O520 1.240 . S
C513 O521 1.252 . S
C514 O517 1.252 . S
C514 O518 1.260 . S
O515 In509 2.266 . S
O515 C512 1.252 . S
O516 In509 2.326 . S
O516 C512 1.260 . S
O517 In509 2.266 . S
O517 C514 1.252 . S
O518 In509 2.326 . S
O518 C514 1.260 . S
C519 O510 1.240 . S
C519 O511 1.252 . S
O520 In509 2.294 . S
O520 C513 1.240 . S
O521 In509 2.326 . S
O521 C513 1.252 . S
H522 C530 0.929 . S
H523 C532 0.930 . S
H524 C534 0.930 . S
H525 C537 0.929 . S
H526 C540 0.930 . S
H527 C542 0.960 . S
H528 C542 0.960 . S
H529 C542 0.960 . S
C530 H522 0.929 . S
C530 C531 1.377 . S
C530 C532 1.384 . S
C531 C530 1.377 . S
C531 C537 1.390 . S
C532 H523 0.930 . S
C532 C530 1.384 . S
C532 C533 1.372 . S
C533 C532 1.372 . S
C533 C534 1.400 . S
C533 C538 1.490 . S
C534 H524 0.930 . S
C534 C533 1.400 . S
C534 C537 1.386 . S
H535 C551 0.930 . S
H536 C552 0.931 . S
C537 H525 0.929 . S
C537 C531 1.390 . S
C537 C534 1.386 . S
C538 C533 1.490 . S
C538 C540 1.395 . S
C538 C541 1.403 . S
H539 C545 0.930 . S
C540 H526 0.930 . S
C540 C538 1.395 . S
C540 C543 1.403 . S
C541 C538 1.403 . S
C541 C542 1.524 . S
C541 C545 1.400 . S
C542 H527 0.960 . S
C542 H528 0.960 . S
C542 H529 0.960 . S
C542 C541 1.524 . S
C543 C540 1.403 . S
C543 C544 1.392 . S
C543 C547 1.495 . S
C544 C543 1.392 . S
C544 C545 1.385 . S
C544 C546 1.478 . S
C545 H539 0.930 . S
C545 C541 1.400 . S
C545 C544 1.385 . S
C546 C544 1.478 . S
C546 C548 1.381 . S
C546 C552 1.383 . S
C547 C543 1.495 . S
C547 H553 0.959 . S
C547 H554 0.961 . S
C547 H555 0.960 . S
C548 C546 1.381 . S
C548 C549 1.394 . S
C548 H556 0.930 . S
C549 C548 1.394 . S
C549 C550 1.383 . S
C549 H557 0.929 . S
C550 C549 1.383 . S
C550 C551 1.377 . S
C551 H535 0.930 . S
C551 C550 1.377 . S
C551 C552 1.379 . S
C552 H536 0.931 . S
C552 C546 1.383 . S
C552 C551 1.379 . S
H553 C547 0.959 . S
H554 C547 0.961 . S
H555 C547 0.960 . S
H556 C548 0.930 . S
H557 C549 0.929 . S
H558 C566 0.929 . S
H559 C568 0.930 . S
H560 C570 0.930 . S
H561 C573 0.929 . S
H562 C576 0.930 . S
H563 C578 0.960 . S
H564 C578 0.960 . S
H565 C578 0.960 . S
C566 H558 0.929 . S
C566 C567 1.377 . S
C566 C568 1.384 . S
C567 C566 1.377 . S
C567 C573 1.390 . S
C568 H559 0.930 . S
C568 C566 1.384 . S
C568 C569 1.372 . S
C569 C568 1.372 . S
C569 C570 1.400 . S
C569 C574 1.490 . S
C570 H560 0.930 . S
C570 C569 1.400 . S
C570 C573 1.386 . S
H571 C587 0.930 . S
H572 C588 0.931 . S
C573 H561 0.929 . S
C573 C567 1.390 . S
C573 C570 1.386 . S
C574 C569 1.490 . S
C574 C576 1.395 . S
C574 C577 1.403 . S
H575 C581 0.930 . S
C576 H562 0.930 . S
C576 C574 1.395 . S
C576 C579 1.403 . S
C577 C574 1.403 . S
C577 C578 1.524 . S
C577 C581 1.400 . S
C578 H563 0.960 . S
C578 H564 0.960 . S
C578 H565 0.960 . S
C578 C577 1.524 . S
C579 C576 1.403 . S
C579 C580 1.392 . S
C579 C583 1.495 . S
C580 C579 1.392 . S
C580 C581 1.385 . S
C580 C582 1.478 . S
C581 H575 0.930 . S
C581 C577 1.400 . S
C581 C580 1.385 . S
C582 C580 1.478 . S
C582 C584 1.381 . S
C582 C588 1.383 . S
C583 C579 1.495 . S
C583 H589 0.959 . S
C583 H590 0.961 . S
C583 H591 0.960 . S
C584 C582 1.381 . S
C584 C585 1.394 . S
C584 H592 0.930 . S
C585 C584 1.394 . S
C585 C586 1.383 . S
C585 H593 0.929 . S
C586 C585 1.383 . S
C586 C587 1.377 . S
C587 H571 0.930 . S
C587 C586 1.377 . S
C587 C588 1.379 . S
C588 H572 0.931 . S
C588 C582 1.383 . S
C588 C587 1.379 . S
H589 C583 0.959 . S
H590 C583 0.961 . S
H591 C583 0.960 . S
H592 C584 0.930 . S
H593 C585 0.929 . S
H594 C602 0.929 . S
H595 C604 0.930 . S
H596 C606 0.930 . S
H597 C609 0.929 . S
H598 C612 0.930 . S
H599 C614 0.960 . S
H600 C614 0.960 . S
H601 C614 0.960 . S
C602 H594 0.929 . S
C602 C603 1.377 . S
C602 C604 1.384 . S
C603 C602 1.377 . S
C603 C609 1.390 . S
C604 H595 0.930 . S
C604 C602 1.384 . S
C604 C605 1.372 . S
C605 C604 1.372 . S
C605 C606 1.400 . S
C605 C610 1.490 . S
C606 H596 0.930 . S
C606 C605 1.400 . S
C606 C609 1.386 . S
H607 C623 0.930 . S
H608 C624 0.931 . S
C609 H597 0.929 . S
C609 C603 1.390 . S
C609 C606 1.386 . S
C610 C605 1.490 . S
C610 C612 1.395 . S
C610 C613 1.403 . S
H611 C617 0.930 . S
C612 H598 0.930 . S
C612 C610 1.395 . S
C612 C615 1.403 . S
C613 C610 1.403 . S
C613 C614 1.524 . S
C613 C617 1.400 . S
C614 H599 0.960 . S
C614 H600 0.960 . S
C614 H601 0.960 . S
C614 C613 1.524 . S
C615 C612 1.403 . S
C615 C616 1.392 . S
C615 C619 1.495 . S
C616 C615 1.392 . S
C616 C617 1.385 . S
C616 C618 1.478 . S
C617 H611 0.930 . S
C617 C613 1.400 . S
C617 C616 1.385 . S
C618 C616 1.478 . S
C618 C620 1.381 . S
C618 C624 1.383 . S
C619 C615 1.495 . S
C619 H625 0.959 . S
C619 H626 0.961 . S
C619 H627 0.960 . S
C620 C618 1.381 . S
C620 C621 1.394 . S
C620 H628 0.930 . S
C621 C620 1.394 . S
C621 C622 1.383 . S
C621 H629 0.929 . S
C622 C621 1.383 . S
C622 C623 1.377 . S
C623 H607 0.930 . S
C623 C622 1.377 . S
C623 C624 1.379 . S
C624 H608 0.931 . S
C624 C618 1.383 . S
C624 C623 1.379 . S
H625 C619 0.959 . S
H626 C619 0.961 . S
H627 C619 0.960 . S
H628 C620 0.930 . S
H629 C621 0.929 . S
H630 C638 0.929 . S
H631 C640 0.930 . S
H632 C642 0.930 . S
H633 C645 0.929 . S
H634 C648 0.930 . S
H635 C650 0.960 . S
H636 C650 0.960 . S
H637 C650 0.960 . S
C638 H630 0.929 . S
C638 C639 1.377 . S
C638 C640 1.384 . S
C639 C638 1.377 . S
C639 C645 1.390 . S
C640 H631 0.930 . S
C640 C638 1.384 . S
C640 C641 1.372 . S
C641 C640 1.372 . S
C641 C642 1.400 . S
C641 C646 1.490 . S
C642 H632 0.930 . S
C642 C641 1.400 . S
C642 C645 1.386 . S
H643 C659 0.930 . S
H644 C660 0.931 . S
C645 H633 0.929 . S
C645 C639 1.390 . S
C645 C642 1.386 . S
C646 C641 1.490 . S
C646 C648 1.395 . S
C646 C649 1.403 . S
H647 C653 0.930 . S
C648 H634 0.930 . S
C648 C646 1.395 . S
C648 C651 1.403 . S
C649 C646 1.403 . S
C649 C650 1.524 . S
C649 C653 1.400 . S
C650 H635 0.960 . S
C650 H636 0.960 . S
C650 H637 0.960 . S
C650 C649 1.524 . S
C651 C648 1.403 . S
C651 C652 1.392 . S
C651 C655 1.495 . S
C652 C651 1.392 . S
C652 C653 1.385 . S
C652 C654 1.478 . S
C653 H647 0.930 . S
C653 C649 1.400 . S
C653 C652 1.385 . S
C654 C652 1.478 . S
C654 C656 1.381 . S
C654 C660 1.383 . S
C655 C651 1.495 . S
C655 H661 0.959 . S
C655 H662 0.961 . S
C655 H663 0.960 . S
C656 C654 1.381 . S
C656 C657 1.394 . S
C656 H664 0.930 . S
C657 C656 1.394 . S
C657 C658 1.383 . S
C657 H665 0.929 . S
C658 C657 1.383 . S
C658 C659 1.377 . S
C659 H643 0.930 . S
C659 C658 1.377 . S
C659 C660 1.379 . S
C660 H644 0.931 . S
C660 C654 1.383 . S
C660 C659 1.379 . S
H661 C655 0.959 . S
H662 C655 0.961 . S
H663 C655 0.960 . S
H664 C656 0.930 . S
H665 C657 0.929 . S
H666 C674 0.929 . S
H667 C676 0.930 . S
H668 C678 0.930 . S
H669 C681 0.929 . S
H670 C684 0.930 . S
H671 C686 0.960 . S
H672 C686 0.960 . S
H673 C686 0.960 . S
C674 H666 0.929 . S
C674 C675 1.377 . S
C674 C676 1.384 . S
C675 C674 1.377 . S
C675 C681 1.390 . S
C676 H667 0.930 . S
C676 C674 1.384 . S
C676 C677 1.372 . S
C677 C676 1.372 . S
C677 C678 1.400 . S
C677 C682 1.490 . S
C678 H668 0.930 . S
C678 C677 1.400 . S
C678 C681 1.386 . S
H679 C695 0.930 . S
H680 C696 0.931 . S
C681 H669 0.929 . S
C681 C675 1.390 . S
C681 C678 1.386 . S
C682 C677 1.490 . S
C682 C684 1.395 . S
C682 C685 1.403 . S
H683 C689 0.930 . S
C684 H670 0.930 . S
C684 C682 1.395 . S
C684 C687 1.403 . S
C685 C682 1.403 . S
C685 C686 1.524 . S
C685 C689 1.400 . S
C686 H671 0.960 . S
C686 H672 0.960 . S
C686 H673 0.960 . S
C686 C685 1.524 . S
C687 C684 1.403 . S
C687 C688 1.392 . S
C687 C691 1.495 . S
C688 C687 1.392 . S
C688 C689 1.385 . S
C688 C690 1.478 . S
C689 H683 0.930 . S
C689 C685 1.400 . S
C689 C688 1.385 . S
C690 C688 1.478 . S
C690 C692 1.381 . S
C690 C696 1.383 . S
C691 C687 1.495 . S
C691 H697 0.959 . S
C691 H698 0.961 . S
C691 H699 0.960 . S
C692 C690 1.381 . S
C692 C693 1.394 . S
C692 H700 0.930 . S
C693 C692 1.394 . S
C693 C694 1.383 . S
C693 H701 0.929 . S
C694 C693 1.383 . S
C694 C695 1.377 . S
C695 H679 0.930 . S
C695 C694 1.377 . S
C695 C696 1.379 . S
C696 H680 0.931 . S
C696 C690 1.383 . S
C696 C695 1.379 . S
H697 C691 0.959 . S
H698 C691 0.961 . S
H699 C691 0.960 . S
H700 C692 0.930 . S
H701 C693 0.929 . S
H702 C710 0.929 . S
H703 C712 0.930 . S
H704 C714 0.930 . S
H705 C717 0.929 . S
H706 C720 0.930 . S
H707 C722 0.960 . S
H708 C722 0.960 . S
H709 C722 0.960 . S
C710 H702 0.929 . S
C710 C711 1.377 . S
C710 C712 1.384 . S
C711 C710 1.377 . S
C711 C717 1.390 . S
C712 H703 0.930 . S
C712 C710 1.384 . S
C712 C713 1.372 . S
C713 C712 1.372 . S
C713 C714 1.400 . S
C713 C718 1.490 . S
C714 H704 0.930 . S
C714 C713 1.400 . S
C714 C717 1.386 . S
H715 C731 0.930 . S
H716 C732 0.931 . S
C717 H705 0.929 . S
C717 C711 1.390 . S
C717 C714 1.386 . S
C718 C713 1.490 . S
C718 C720 1.395 . S
C718 C721 1.403 . S
H719 C725 0.930 . S
C720 H706 0.930 . S
C720 C718 1.395 . S
C720 C723 1.403 . S
C721 C718 1.403 . S
C721 C722 1.524 . S
C721 C725 1.400 . S
C722 H707 0.960 . S
C722 H708 0.960 . S
C722 H709 0.960 . S
C722 C721 1.524 . S
C723 C720 1.403 . S
C723 C724 1.392 . S
C723 C727 1.495 . S
C724 C723 1.392 . S
C724 C725 1.385 . S
C724 C726 1.478 . S
C725 H719 0.930 . S
C725 C721 1.400 . S
C725 C724 1.385 . S
C726 C724 1.478 . S
C726 C728 1.381 . S
C726 C732 1.383 . S
C727 C723 1.495 . S
C727 H733 0.959 . S
C727 H734 0.961 . S
C727 H735 0.960 . S
C728 C726 1.381 . S
C728 C729 1.394 . S
C728 H736 0.930 . S
C729 C728 1.394 . S
C729 C730 1.383 . S
C729 H737 0.929 . S
C730 C729 1.383 . S
C730 C731 1.377 . S
C731 H715 0.930 . S
C731 C730 1.377 . S
C731 C732 1.379 . S
C732 H716 0.931 . S
C732 C726 1.383 . S
C732 C731 1.379 . S
H733 C727 0.959 . S
H734 C727 0.961 . S
H735 C727 0.960 . S
H736 C728 0.930 . S
H737 C729 0.929 . S
H738 C746 0.929 . S
H739 C748 0.930 . S
H740 C750 0.930 . S
H741 C753 0.929 . S
H742 C756 0.930 . S
H743 C758 0.960 . S
H744 C758 0.960 . S
H745 C758 0.960 . S
C746 H738 0.929 . S
C746 C747 1.377 . S
C746 C748 1.384 . S
C747 C746 1.377 . S
C747 C753 1.390 . S
C748 H739 0.930 . S
C748 C746 1.384 . S
C748 C749 1.372 . S
C749 C748 1.372 . S
C749 C750 1.400 . S
C749 C754 1.490 . S
C750 H740 0.930 . S
C750 C749 1.400 . S
C750 C753 1.386 . S
H751 C767 0.930 . S
H752 C768 0.931 . S
C753 H741 0.929 . S
C753 C747 1.390 . S
C753 C750 1.386 . S
C754 C749 1.490 . S
C754 C756 1.395 . S
C754 C757 1.403 . S
H755 C761 0.930 . S
C756 H742 0.930 . S
C756 C754 1.395 . S
C756 C759 1.403 . S
C757 C754 1.403 . S
C757 C758 1.524 . S
C757 C761 1.400 . S
C758 H743 0.960 . S
C758 H744 0.960 . S
C758 H745 0.960 . S
C758 C757 1.524 . S
C759 C756 1.403 . S
C759 C760 1.392 . S
C759 C763 1.495 . S
C760 C759 1.392 . S
C760 C761 1.385 . S
C760 C762 1.478 . S
C761 H755 0.930 . S
C761 C757 1.400 . S
C761 C760 1.385 . S
C762 C760 1.478 . S
C762 C764 1.381 . S
C762 C768 1.383 . S
C763 C759 1.495 . S
C763 H769 0.959 . S
C763 H770 0.961 . S
C763 H771 0.960 . S
C764 C762 1.381 . S
C764 C765 1.394 . S
C764 H772 0.930 . S
C765 C764 1.394 . S
C765 C766 1.383 . S
C765 H773 0.929 . S
C766 C765 1.383 . S
C766 C767 1.377 . S
C767 H751 0.930 . S
C767 C766 1.377 . S
C767 C768 1.379 . S
C768 H752 0.931 . S
C768 C762 1.383 . S
C768 C767 1.379 . S
H769 C763 0.959 . S
H770 C763 0.961 . S
H771 C763 0.960 . S
H772 C764 0.930 . S
H773 C765 0.929 . S
H774 C782 0.929 . S
H775 C784 0.930 . S
H776 C786 0.930 . S
H777 C789 0.929 . S
H778 C792 0.930 . S
H779 C794 0.960 . S
H780 C794 0.960 . S
H781 C794 0.960 . S
C782 H774 0.929 . S
C782 C783 1.377 . S
C782 C784 1.384 . S
C783 C782 1.377 . S
C783 C789 1.390 . S
C784 H775 0.930 . S
C784 C782 1.384 . S
C784 C785 1.372 . S
C785 C784 1.372 . S
C785 C786 1.400 . S
C785 C790 1.490 . S
C786 H776 0.930 . S
C786 C785 1.400 . S
C786 C789 1.386 . S
H787 C803 0.930 . S
H788 C804 0.931 . S
C789 H777 0.929 . S
C789 C783 1.390 . S
C789 C786 1.386 . S
C790 C785 1.490 . S
C790 C792 1.395 . S
C790 C793 1.403 . S
H791 C797 0.930 . S
C792 H778 0.930 . S
C792 C790 1.395 . S
C792 C795 1.403 . S
C793 C790 1.403 . S
C793 C794 1.524 . S
C793 C797 1.400 . S
C794 H779 0.960 . S
C794 H780 0.960 . S
C794 H781 0.960 . S
C794 C793 1.524 . S
C795 C792 1.403 . S
C795 C796 1.392 . S
C795 C799 1.495 . S
C796 C795 1.392 . S
C796 C797 1.385 . S
C796 C798 1.478 . S
C797 H791 0.930 . S
C797 C793 1.400 . S
C797 C796 1.385 . S
C798 C796 1.478 . S
C798 C800 1.381 . S
C798 C804 1.383 . S
C799 C795 1.495 . S
C799 H805 0.959 . S
C799 H806 0.961 . S
C799 H807 0.960 . S
C800 C798 1.381 . S
C800 C801 1.394 . S
C800 H808 0.930 . S
C801 C800 1.394 . S
C801 C802 1.383 . S
C801 H809 0.929 . S
C802 C801 1.383 . S
C802 C803 1.377 . S
C803 H787 0.930 . S
C803 C802 1.377 . S
C803 C804 1.379 . S
C804 H788 0.931 . S
C804 C798 1.383 . S
C804 C803 1.379 . S
H805 C799 0.959 . S
H806 C799 0.961 . S
H807 C799 0.960 . S
H808 C800 0.930 . S
H809 C801 0.929 . S
H810 C818 0.929 . S
H811 C820 0.930 . S
H812 C822 0.930 . S
H813 C825 0.929 . S
H814 C828 0.930 . S
H815 C830 0.960 . S
H816 C830 0.960 . S
H817 C830 0.960 . S
C818 H810 0.929 . S
C818 C819 1.377 . S
C818 C820 1.384 . S
C819 C818 1.377 . S
C819 C825 1.390 . S
C820 H811 0.930 . S
C820 C818 1.384 . S
C820 C821 1.372 . S
C821 C820 1.372 . S
C821 C822 1.400 . S
C821 C826 1.490 . S
C822 H812 0.930 . S
C822 C821 1.400 . S
C822 C825 1.386 . S
H823 C839 0.930 . S
H824 C840 0.931 . S
C825 H813 0.929 . S
C825 C819 1.390 . S
C825 C822 1.386 . S
C826 C821 1.490 . S
C826 C828 1.395 . S
C826 C829 1.403 . S
H827 C833 0.930 . S
C828 H814 0.930 . S
C828 C826 1.395 . S
C828 C831 1.403 . S
C829 C826 1.403 . S
C829 C830 1.524 . S
C829 C833 1.400 . S
C830 H815 0.960 . S
C830 H816 0.960 . S
C830 H817 0.960 . S
C830 C829 1.524 . S
C831 C828 1.403 . S
C831 C832 1.392 . S
C831 C835 1.495 . S
C832 C831 1.392 . S
C832 C833 1.385 . S
C832 C834 1.478 . S
C833 H827 0.930 . S
C833 C829 1.400 . S
C833 C832 1.385 . S
C834 C832 1.478 . S
C834 C836 1.381 . S
C834 C840 1.383 . S
C835 C831 1.495 . S
C835 H841 0.959 . S
C835 H842 0.961 . S
C835 H843 0.960 . S
C836 C834 1.381 . S
C836 C837 1.394 . S
C836 H844 0.930 . S
C837 C836 1.394 . S
C837 C838 1.383 . S
C837 H845 0.929 . S
C838 C837 1.383 . S
C838 C839 1.377 . S
C839 H823 0.930 . S
C839 C838 1.377 . S
C839 C840 1.379 . S
C840 H824 0.931 . S
C840 C834 1.383 . S
C840 C839 1.379 . S
H841 C835 0.959 . S
H842 C835 0.961 . S
H843 C835 0.960 . S
H844 C836 0.930 . S
H845 C837 0.929 . S
H846 C854 0.929 . S
H847 C856 0.930 . S
H848 C858 0.930 . S
H849 C861 0.929 . S
H850 C864 0.930 . S
H851 C866 0.960 . S
H852 C866 0.960 . S
H853 C866 0.960 . S
C854 H846 0.929 . S
C854 C855 1.377 . S
C854 C856 1.384 . S
C855 C854 1.377 . S
C855 C861 1.390 . S
C856 H847 0.930 . S
C856 C854 1.384 . S
C856 C857 1.372 . S
C857 C856 1.372 . S
C857 C858 1.400 . S
C857 C862 1.490 . S
C858 H848 0.930 . S
C858 C857 1.400 . S
C858 C861 1.386 . S
H859 C875 0.930 . S
H860 C876 0.931 . S
C861 H849 0.929 . S
C861 C855 1.390 . S
C861 C858 1.386 . S
C862 C857 1.490 . S
C862 C864 1.395 . S
C862 C865 1.403 . S
H863 C869 0.930 . S
C864 H850 0.930 . S
C864 C862 1.395 . S
C864 C867 1.403 . S
C865 C862 1.403 . S
C865 C866 1.524 . S
C865 C869 1.400 . S
C866 H851 0.960 . S
C866 H852 0.960 . S
C866 H853 0.960 . S
C866 C865 1.524 . S
C867 C864 1.403 . S
C867 C868 1.392 . S
C867 C871 1.495 . S
C868 C867 1.392 . S
C868 C869 1.385 . S
C868 C870 1.478 . S
C869 H863 0.930 . S
C869 C865 1.400 . S
C869 C868 1.385 . S
C870 C868 1.478 . S
C870 C872 1.381 . S
C870 C876 1.383 . S
C871 C867 1.495 . S
C871 H877 0.959 . S
C871 H878 0.961 . S
C871 H879 0.960 . S
C872 C870 1.381 . S
C872 C873 1.394 . S
C872 H880 0.930 . S
C873 C872 1.394 . S
C873 C874 1.383 . S
C873 H881 0.929 . S
C874 C873 1.383 . S
C874 C875 1.377 . S
C875 H859 0.930 . S
C875 C874 1.377 . S
C875 C876 1.379 . S
C876 H860 0.931 . S
C876 C870 1.383 . S
C876 C875 1.379 . S
H877 C871 0.959 . S
H878 C871 0.961 . S
H879 C871 0.960 . S
H880 C872 0.930 . S
H881 C873 0.929 . S
H882 C890 0.929 . S
H883 C892 0.930 . S
H884 C894 0.930 . S
H885 C897 0.929 . S
H886 C900 0.930 . S
H887 C902 0.960 . S
H888 C902 0.960 . S
H889 C902 0.960 . S
C890 H882 0.929 . S
C890 C891 1.377 . S
C890 C892 1.384 . S
C891 C890 1.377 . S
C891 C897 1.390 . S
C892 H883 0.930 . S
C892 C890 1.384 . S
C892 C893 1.372 . S
C893 C892 1.372 . S
C893 C894 1.400 . S
C893 C898 1.490 . S
C894 H884 0.930 . S
C894 C893 1.400 . S
C894 C897 1.386 . S
H895 C911 0.930 . S
H896 C912 0.931 . S
C897 H885 0.929 . S
C897 C891 1.390 . S
C897 C894 1.386 . S
C898 C893 1.490 . S
C898 C900 1.395 . S
C898 C901 1.403 . S
H899 C905 0.930 . S
C900 H886 0.930 . S
C900 C898 1.395 . S
C900 C903 1.403 . S
C901 C898 1.403 . S
C901 C902 1.524 . S
C901 C905 1.400 . S
C902 H887 0.960 . S
C902 H888 0.960 . S
C902 H889 0.960 . S
C902 C901 1.524 . S
C903 C900 1.403 . S
C903 C904 1.392 . S
C903 C907 1.495 . S
C904 C903 1.392 . S
C904 C905 1.385 . S
C904 C906 1.478 . S
C905 H899 0.930 . S
C905 C901 1.400 . S
C905 C904 1.385 . S
C906 C904 1.478 . S
C906 C908 1.381 . S
C906 C912 1.383 . S
C907 C903 1.495 . S
C907 H913 0.959 . S
C907 H914 0.961 . S
C907 H915 0.960 . S
C908 C906 1.381 . S
C908 C909 1.394 . S
C908 H916 0.930 . S
C909 C908 1.394 . S
C909 C910 1.383 . S
C909 H917 0.929 . S
C910 C909 1.383 . S
C910 C911 1.377 . S
C911 H895 0.930 . S
C911 C910 1.377 . S
C911 C912 1.379 . S
C912 H896 0.931 . S
C912 C906 1.383 . S
C912 C911 1.379 . S
H913 C907 0.959 . S
H914 C907 0.961 . S
H915 C907 0.960 . S
H916 C908 0.930 . S
H917 C909 0.929 . S
H918 C926 0.929 . S
H919 C928 0.930 . S
H920 C930 0.930 . S
H921 C933 0.929 . S
H922 C936 0.930 . S
H923 C938 0.960 . S
H924 C938 0.960 . S
H925 C938 0.960 . S
C926 H918 0.929 . S
C926 C927 1.377 . S
C926 C928 1.384 . S
C927 C926 1.377 . S
C927 C933 1.390 . S
C928 H919 0.930 . S
C928 C926 1.384 . S
C928 C929 1.372 . S
C929 C928 1.372 . S
C929 C930 1.400 . S
C929 C934 1.490 . S
C930 H920 0.930 . S
C930 C929 1.400 . S
C930 C933 1.386 . S
H931 C947 0.930 . S
H932 C948 0.931 . S
C933 H921 0.929 . S
C933 C927 1.390 . S
C933 C930 1.386 . S
C934 C929 1.490 . S
C934 C936 1.395 . S
C934 C937 1.403 . S
H935 C941 0.930 . S
C936 H922 0.930 . S
C936 C934 1.395 . S
C936 C939 1.403 . S
C937 C934 1.403 . S
C937 C938 1.524 . S
C937 C941 1.400 . S
C938 H923 0.960 . S
C938 H924 0.960 . S
C938 H925 0.960 . S
C938 C937 1.524 . S
C939 C936 1.403 . S
C939 C940 1.392 . S
C939 C943 1.495 . S
C940 C939 1.392 . S
C940 C941 1.385 . S
C940 C942 1.478 . S
C941 H935 0.930 . S
C941 C937 1.400 . S
C941 C940 1.385 . S
C942 C940 1.478 . S
C942 C944 1.381 . S
C942 C948 1.383 . S
C943 C939 1.495 . S
C943 H949 0.959 . S
C943 H950 0.961 . S
C943 H951 0.960 . S
C944 C942 1.381 . S
C944 C945 1.394 . S
C944 H952 0.930 . S
C945 C944 1.394 . S
C945 C946 1.383 . S
C945 H953 0.929 . S
C946 C945 1.383 . S
C946 C947 1.377 . S
C947 H931 0.930 . S
C947 C946 1.377 . S
C947 C948 1.379 . S
C948 H932 0.931 . S
C948 C942 1.383 . S
C948 C947 1.379 . S
H949 C943 0.959 . S
H950 C943 0.961 . S
H951 C943 0.960 . S
H952 C944 0.930 . S
H953 C945 0.929 . S
H954 C962 0.929 . S
H955 C964 0.930 . S
H956 C966 0.930 . S
H957 C969 0.929 . S
H958 C972 0.930 . S
H959 C974 0.960 . S
H960 C974 0.960 . S
H961 C974 0.960 . S
C962 H954 0.929 . S
C962 C963 1.377 . S
C962 C964 1.384 . S
C963 C962 1.377 . S
C963 C969 1.390 . S
C964 H955 0.930 . S
C964 C962 1.384 . S
C964 C965 1.372 . S
C965 C964 1.372 . S
C965 C966 1.400 . S
C965 C970 1.490 . S
C966 H956 0.930 . S
C966 C965 1.400 . S
C966 C969 1.386 . S
H967 C983 0.930 . S
H968 C984 0.931 . S
C969 H957 0.929 . S
C969 C963 1.390 . S
C969 C966 1.386 . S
C970 C965 1.490 . S
C970 C972 1.395 . S
C970 C973 1.403 . S
H971 C977 0.930 . S
C972 H958 0.930 . S
C972 C970 1.395 . S
C972 C975 1.403 . S
C973 C970 1.403 . S
C973 C974 1.524 . S
C973 C977 1.400 . S
C974 H959 0.960 . S
C974 H960 0.960 . S
C974 H961 0.960 . S
C974 C973 1.524 . S
C975 C972 1.403 . S
C975 C976 1.392 . S
C975 C979 1.495 . S
C976 C975 1.392 . S
C976 C977 1.385 . S
C976 C978 1.478 . S
C977 H971 0.930 . S
C977 C973 1.400 . S
C977 C976 1.385 . S
C978 C976 1.478 . S
C978 C980 1.381 . S
C978 C984 1.383 . S
C979 C975 1.495 . S
C979 H985 0.959 . S
C979 H986 0.961 . S
C979 H987 0.960 . S
C980 C978 1.381 . S
C980 C981 1.394 . S
C980 H988 0.930 . S
C981 C980 1.394 . S
C981 C982 1.383 . S
C981 H989 0.929 . S
C982 C981 1.383 . S
C982 C983 1.377 . S
C983 H967 0.930 . S
C983 C982 1.377 . S
C983 C984 1.379 . S
C984 H968 0.931 . S
C984 C978 1.383 . S
C984 C983 1.379 . S
H985 C979 0.959 . S
H986 C979 0.961 . S
H987 C979 0.960 . S
H988 C980 0.930 . S
H989 C981 0.929 . S
H990 C998 0.929 . S
H991 C1000 0.930 . S
H992 C1002 0.930 . S
H993 C1005 0.929 . S
H994 C1008 0.930 . S
H995 C1010 0.960 . S
H996 C1010 0.960 . S
H997 C1010 0.960 . S
C998 H990 0.929 . S
C998 C999 1.377 . S
C998 C1000 1.384 . S
C999 C998 1.377 . S
C999 C1005 1.390 . S
C1000 H991 0.930 . S
C1000 C998 1.384 . S
C1000 C1001 1.372 . S
C1001 C1000 1.372 . S
C1001 C1002 1.400 . S
C1001 C1006 1.490 . S
C1002 H992 0.930 . S
C1002 C1001 1.400 . S
C1002 C1005 1.386 . S
H1003 C1019 0.930 . S
H1004 C1020 0.931 . S
C1005 H993 0.929 . S
C1005 C999 1.390 . S
C1005 C1002 1.386 . S
C1006 C1001 1.490 . S
C1006 C1008 1.395 . S
C1006 C1009 1.403 . S
H1007 C1013 0.930 . S
C1008 H994 0.930 . S
C1008 C1006 1.395 . S
C1008 C1011 1.403 . S
C1009 C1006 1.403 . S
C1009 C1010 1.524 . S
C1009 C1013 1.400 . S
C1010 H995 0.960 . S
C1010 H996 0.960 . S
C1010 H997 0.960 . S
C1010 C1009 1.524 . S
C1011 C1008 1.403 . S
C1011 C1012 1.392 . S
C1011 C1015 1.495 . S
C1012 C1011 1.392 . S
C1012 C1013 1.385 . S
C1012 C1014 1.478 . S
C1013 H1007 0.930 . S
C1013 C1009 1.400 . S
C1013 C1012 1.385 . S
C1014 C1012 1.478 . S
C1014 C1016 1.381 . S
C1014 C1020 1.383 . S
C1015 C1011 1.495 . S
C1015 H1021 0.959 . S
C1015 H1022 0.961 . S
C1015 H1023 0.960 . S
C1016 C1014 1.381 . S
C1016 C1017 1.394 . S
C1016 H1024 0.930 . S
C1017 C1016 1.394 . S
C1017 C1018 1.383 . S
C1017 H1025 0.929 . S
C1018 C1017 1.383 . S
C1018 C1019 1.377 . S
C1019 H1003 0.930 . S
C1019 C1018 1.377 . S
C1019 C1020 1.379 . S
C1020 H1004 0.931 . S
C1020 C1014 1.383 . S
C1020 C1019 1.379 . S
H1021 C1015 0.959 . S
H1022 C1015 0.961 . S
H1023 C1015 0.960 . S
H1024 C1016 0.930 . S
H1025 C1017 0.929 . S
H1026 C1034 0.929 . S
H1027 C1036 0.930 . S
H1028 C1038 0.930 . S
H1029 C1041 0.929 . S
H1030 C1044 0.930 . S
H1031 C1046 0.960 . S
H1032 C1046 0.960 . S
H1033 C1046 0.960 . S
C1034 H1026 0.929 . S
C1034 C1035 1.377 . S
C1034 C1036 1.384 . S
C1035 C1034 1.377 . S
C1035 C1041 1.390 . S
C1036 H1027 0.930 . S
C1036 C1034 1.384 . S
C1036 C1037 1.372 . S
C1037 C1036 1.372 . S
C1037 C1038 1.400 . S
C1037 C1042 1.490 . S
C1038 H1028 0.930 . S
C1038 C1037 1.400 . S
C1038 C1041 1.386 . S
H1039 C1055 0.930 . S
H1040 C1056 0.931 . S
C1041 H1029 0.929 . S
C1041 C1035 1.390 . S
C1041 C1038 1.386 . S
C1042 C1037 1.490 . S
C1042 C1044 1.395 . S
C1042 C1045 1.403 . S
H1043 C1049 0.930 . S
C1044 H1030 0.930 . S
C1044 C1042 1.395 . S
C1044 C1047 1.403 . S
C1045 C1042 1.403 . S
C1045 C1046 1.524 . S
C1045 C1049 1.400 . S
C1046 H1031 0.960 . S
C1046 H1032 0.960 . S
C1046 H1033 0.960 . S
C1046 C1045 1.524 . S
C1047 C1044 1.403 . S
C1047 C1048 1.392 . S
C1047 C1051 1.495 . S
C1048 C1047 1.392 . S
C1048 C1049 1.385 . S
C1048 C1050 1.478 . S
C1049 H1043 0.930 . S
C1049 C1045 1.400 . S
C1049 C1048 1.385 . S
C1050 C1048 1.478 . S
C1050 C1052 1.381 . S
C1050 C1056 1.383 . S
C1051 C1047 1.495 . S
C1051 H1057 0.959 . S
C1051 H1058 0.961 . S
C1051 H1059 0.960 . S
C1052 C1050 1.381 . S
C1052 C1053 1.394 . S
C1052 H1060 0.930 . S
C1053 C1052 1.394 . S
C1053 C1054 1.383 . S
C1053 H1061 0.929 . S
C1054 C1053 1.383 . S
C1054 C1055 1.377 . S
C1055 H1039 0.930 . S
C1055 C1054 1.377 . S
C1055 C1056 1.379 . S
C1056 H1040 0.931 . S
C1056 C1050 1.383 . S
C1056 C1055 1.379 . S
H1057 C1051 0.959 . S
H1058 C1051 0.961 . S
H1059 C1051 0.960 . S
H1060 C1052 0.930 . S
H1061 C1053 0.929 . S
H1062 C1070 0.929 . S
H1063 C1072 0.930 . S
H1064 C1074 0.930 . S
H1065 C1077 0.929 . S
H1066 C1080 0.930 . S
H1067 C1082 0.960 . S
H1068 C1082 0.960 . S
H1069 C1082 0.960 . S
C1070 H1062 0.929 . S
C1070 C1071 1.377 . S
C1070 C1072 1.384 . S
C1071 C1070 1.377 . S
C1071 C1077 1.390 . S
C1072 H1063 0.930 . S
C1072 C1070 1.384 . S
C1072 C1073 1.372 . S
C1073 C1072 1.372 . S
C1073 C1074 1.400 . S
C1073 C1078 1.490 . S
C1074 H1064 0.930 . S
C1074 C1073 1.400 . S
C1074 C1077 1.386 . S
H1075 C1091 0.930 . S
H1076 C1092 0.931 1_556 S
C1077 H1065 0.929 . S
C1077 C1071 1.390 . S
C1077 C1074 1.386 . S
C1078 C1073 1.490 . S
C1078 C1080 1.395 . S
C1078 C1081 1.403 . S
H1079 C1085 0.930 . S
C1080 H1066 0.930 . S
C1080 C1078 1.395 . S
C1080 C1083 1.403 . S
C1081 C1078 1.403 . S
C1081 C1082 1.524 . S
C1081 C1085 1.400 . S
C1082 H1067 0.960 . S
C1082 H1068 0.960 . S
C1082 H1069 0.960 . S
C1082 C1081 1.524 . S
C1083 C1080 1.403 . S
C1083 C1084 1.392 . S
C1083 C1087 1.495 . S
C1084 C1083 1.392 . S
C1084 C1085 1.385 . S
C1084 C1086 1.478 . S
C1085 H1079 0.930 . S
C1085 C1081 1.400 . S
C1085 C1084 1.385 . S
C1086 C1084 1.478 . S
C1086 C1088 1.365 1_556 S
C1086 C1092 1.383 1_556 S
C1087 C1083 1.495 . S
C1087 H1093 0.959 . S
C1087 H1094 0.961 . S
C1087 H1095 0.960 . S
C1088 C1086 1.365 1_554 S
C1088 C1089 1.430 . S
C1088 H1096 0.912 1_554 S
C1089 C1088 1.430 . S
C1089 C1090 1.383 . S
C1089 H1097 0.929 . S
C1090 C1089 1.383 . S
C1090 C1091 1.377 . S
C1091 H1075 0.930 . S
C1091 C1090 1.377 . S
C1091 C1092 1.379 . S
C1092 H1076 0.931 1_554 S
C1092 C1086 1.383 1_554 S
C1092 C1091 1.379 . S
H1093 C1087 0.959 . S
H1094 C1087 0.961 . S
H1095 C1087 0.960 . S
H1096 C1088 0.912 1_556 S
H1097 C1089 0.929 . S
H1098 C1106 0.929 . S
H1099 C1108 0.930 . S
H1100 C1110 0.930 . S
H1101 C1113 0.929 . S
H1102 C1116 0.930 . S
H1103 C1118 0.960 . S
H1104 C1118 0.960 . S
H1105 C1118 0.960 1_545 S
C1106 H1098 0.929 . S
C1106 C1107 1.377 1_565 S
C1106 C1108 1.384 . S
C1107 C1106 1.377 1_545 S
C1107 C1113 1.390 . S
C1108 H1099 0.930 . S
C1108 C1106 1.384 . S
C1108 C1109 1.372 . S
C1109 C1108 1.372 . S
C1109 C1110 1.400 1_565 S
C1109 C1114 1.490 . S
C1110 H1100 0.930 . S
C1110 C1109 1.400 1_545 S
C1110 C1113 1.386 . S
H1111 C1127 0.930 . S
H1112 C1128 0.931 . S
C1113 H1101 0.929 . S
C1113 C1107 1.390 . S
C1113 C1110 1.386 . S
C1114 C1109 1.490 . S
C1114 C1116 1.395 . S
C1114 C1117 1.403 . S
H1115 C1121 0.930 . S
C1116 H1102 0.930 . S
C1116 C1114 1.395 . S
C1116 C1119 1.403 . S
C1117 C1114 1.403 . S
C1117 C1118 1.524 . S
C1117 C1121 1.400 . S
C1118 H1103 0.960 . S
C1118 H1104 0.960 . S
C1118 H1105 0.960 1_565 S
C1118 C1117 1.524 . S
C1119 C1116 1.403 . S
C1119 C1120 1.392 . S
C1119 C1123 1.495 . S
C1120 C1119 1.392 . S
C1120 C1121 1.385 . S
C1120 C1122 1.478 . S
C1121 H1115 0.930 . S
C1121 C1117 1.400 . S
C1121 C1120 1.385 . S
C1122 C1120 1.478 . S
C1122 C1124 1.381 . S
C1122 C1128 1.383 . S
C1123 C1119 1.495 . S
C1123 H1129 0.959 . S
C1123 H1130 0.961 . S
C1123 H1131 0.960 . S
C1124 C1122 1.381 . S
C1124 C1125 1.394 . S
C1124 H1132 0.930 . S
C1125 C1124 1.394 . S
C1125 C1126 1.383 . S
C1125 H1133 0.929 . S
C1126 C1125 1.383 . S
C1126 C1127 1.377 . S
C1127 H1111 0.930 . S
C1127 C1126 1.377 . S
C1127 C1128 1.379 . S
C1128 H1112 0.931 . S
C1128 C1122 1.383 . S
C1128 C1127 1.379 . S
H1129 C1123 0.959 . S
H1130 C1123 0.961 . S
H1131 C1123 0.960 . S
H1132 C1124 0.930 . S
H1133 C1125 0.929 . S
H1134 C1142 0.929 . S
H1135 C1144 0.930 . S
H1136 C1146 0.930 . S
H1137 C1149 0.929 . S
H1138 C1152 0.930 . S
H1139 C1154 0.960 . S
H1140 C1154 0.960 . S
H1141 C1154 0.960 . S
C1142 H1134 0.929 . S
C1142 C1143 1.377 . S
C1142 C1144 1.384 . S
C1143 C1142 1.377 . S
C1143 C1149 1.390 . S
C1144 H1135 0.930 . S
C1144 C1142 1.384 . S
C1144 C1145 1.372 . S
C1145 C1144 1.372 . S
C1145 C1146 1.400 . S
C1145 C1150 1.490 . S
C1146 H1136 0.930 . S
C1146 C1145 1.400 . S
C1146 C1149 1.386 . S
H1147 C1163 0.930 . S
H1148 C1164 0.931 . S
C1149 H1137 0.929 . S
C1149 C1143 1.390 . S
C1149 C1146 1.386 . S
C1150 C1145 1.490 . S
C1150 C1152 1.395 . S
C1150 C1153 1.403 . S
H1151 C1157 0.930 . S
C1152 H1138 0.930 . S
C1152 C1150 1.395 . S
C1152 C1155 1.403 . S
C1153 C1150 1.403 . S
C1153 C1154 1.524 . S
C1153 C1157 1.400 . S
C1154 H1139 0.960 . S
C1154 H1140 0.960 . S
C1154 H1141 0.960 . S
C1154 C1153 1.524 . S
C1155 C1152 1.403 . S
C1155 C1156 1.392 . S
C1155 C1159 1.495 . S
C1156 C1155 1.392 . S
C1156 C1157 1.385 . S
C1156 C1158 1.478 . S
C1157 H1151 0.930 . S
C1157 C1153 1.400 . S
C1157 C1156 1.385 . S
C1158 C1156 1.478 . S
C1158 C1160 1.381 . S
C1158 C1164 1.383 . S
C1159 C1155 1.495 . S
C1159 H1165 0.959 . S
C1159 H1166 0.961 . S
C1159 H1167 0.960 . S
C1160 C1158 1.381 . S
C1160 C1161 1.394 . S
C1160 H1168 0.930 . S
C1161 C1160 1.394 . S
C1161 C1162 1.383 . S
C1161 H1169 0.929 . S
C1162 C1161 1.383 . S
C1162 C1163 1.377 . S
C1163 H1147 0.930 . S
C1163 C1162 1.377 . S
C1163 C1164 1.379 . S
C1164 H1148 0.931 . S
C1164 C1158 1.383 . S
C1164 C1163 1.379 . S
H1165 C1159 0.959 . S
H1166 C1159 0.961 . S
H1167 C1159 0.960 . S
H1168 C1160 0.930 . S
H1169 C1161 0.929 . S
H1170 C1178 0.929 1_545 S
H1171 C1180 0.930 . S
H1172 C1182 0.930 . S
H1173 C1185 0.929 . S
H1174 C1188 0.930 1_545 S
H1175 C1190 0.960 . S
H1176 C1190 0.960 . S
H1177 C1190 0.960 . S
C1178 H1170 0.929 1_565 S
C1178 C1179 1.377 . S
C1178 C1180 1.384 . S
C1179 C1178 1.377 . S
C1179 C1185 1.390 . S
C1180 H1171 0.930 . S
C1180 C1178 1.384 . S
C1180 C1181 1.372 . S
C1181 C1180 1.372 . S
C1181 C1182 1.400 . S
C1181 C1186 1.490 . S
C1182 H1172 0.930 . S
C1182 C1181 1.400 . S
C1182 C1185 1.386 . S
H1183 C1199 0.930 . S
H1184 C1200 0.931 . S
C1185 H1173 0.929 . S
C1185 C1179 1.390 . S
C1185 C1182 1.386 . S
C1186 C1181 1.490 . S
C1186 C1188 1.395 . S
C1186 C1189 1.403 . S
H1187 C1193 0.930 . S
C1188 H1174 0.930 1_565 S
C1188 C1186 1.395 . S
C1188 C1191 1.403 . S
C1189 C1186 1.403 . S
C1189 C1190 1.524 . S
C1189 C1193 1.400 . S
C1190 H1175 0.960 . S
C1190 H1176 0.960 . S
C1190 H1177 0.960 . S
C1190 C1189 1.524 . S
C1191 C1188 1.403 . S
C1191 C1192 1.392 . S
C1191 C1195 1.489 1_565 S
C1192 C1191 1.392 . S
C1192 C1193 1.385 . S
C1192 C1194 1.478 . S
C1193 H1187 0.930 . S
C1193 C1189 1.400 . S
C1193 C1192 1.385 . S
C1194 C1192 1.478 . S
C1194 C1196 1.381 . S
C1194 C1200 1.383 . S
C1195 C1191 1.489 1_545 S
C1195 H1201 0.971 . S
C1195 H1202 0.981 . S
C1195 H1203 0.961 1_545 S
C1196 C1194 1.381 . S
C1196 C1197 1.394 . S
C1196 H1204 0.930 . S
C1197 C1196 1.394 . S
C1197 C1198 1.383 . S
C1197 H1205 0.929 . S
C1198 C1197 1.383 . S
C1198 C1199 1.377 . S
C1199 H1183 0.930 . S
C1199 C1198 1.377 . S
C1199 C1200 1.379 . S
C1200 H1184 0.931 . S
C1200 C1194 1.383 . S
C1200 C1199 1.379 . S
H1201 C1195 0.971 . S
H1202 C1195 0.981 . S
H1203 C1195 0.961 1_565 S
H1204 C1196 0.930 . S
H1205 C1197 0.929 . S
H1206 C1214 0.929 . S
H1207 C1216 0.930 . S
H1208 C1218 0.930 . S
H1209 C1221 0.929 . S
H1210 C1224 0.930 . S
H1211 C1226 0.960 . S
H1212 C1226 0.960 . S
H1213 C1226 0.960 . S
C1214 H1206 0.929 . S
C1214 C1215 1.377 . S
C1214 C1216 1.384 . S
C1215 C1214 1.377 . S
C1215 C1221 1.390 . S
C1216 H1207 0.930 . S
C1216 C1214 1.384 . S
C1216 C1217 1.372 . S
C1217 C1216 1.372 . S
C1217 C1218 1.400 . S
C1217 C1222 1.490 . S
C1218 H1208 0.930 . S
C1218 C1217 1.400 . S
C1218 C1221 1.386 . S
H1219 C1235 0.930 . S
H1220 C1236 0.931 . S
C1221 H1209 0.929 . S
C1221 C1215 1.390 . S
C1221 C1218 1.386 . S
C1222 C1217 1.490 . S
C1222 C1224 1.395 . S
C1222 C1225 1.403 . S
H1223 C1229 0.930 . S
C1224 H1210 0.930 . S
C1224 C1222 1.395 . S
C1224 C1227 1.403 . S
C1225 C1222 1.403 . S
C1225 C1226 1.524 . S
C1225 C1229 1.400 . S
C1226 H1211 0.960 . S
C1226 H1212 0.960 . S
C1226 H1213 0.960 . S
C1226 C1225 1.524 . S
C1227 C1224 1.403 . S
C1227 C1228 1.392 . S
C1227 C1231 1.495 . S
C1228 C1227 1.392 . S
C1228 C1229 1.385 . S
C1228 C1230 1.478 . S
C1229 H1223 0.930 . S
C1229 C1225 1.400 . S
C1229 C1228 1.385 . S
C1230 C1228 1.478 . S
C1230 C1232 1.381 . S
C1230 C1236 1.383 . S
C1231 C1227 1.495 . S
C1231 H1237 0.959 . S
C1231 H1238 0.961 . S
C1231 H1239 0.960 . S
C1232 C1230 1.381 . S
C1232 C1233 1.394 . S
C1232 H1240 0.930 . S
C1233 C1232 1.394 . S
C1233 C1234 1.383 . S
C1233 H1241 0.929 . S
C1234 C1233 1.383 . S
C1234 C1235 1.377 . S
C1235 H1219 0.930 . S
C1235 C1234 1.377 . S
C1235 C1236 1.379 . S
C1236 H1220 0.931 . S
C1236 C1230 1.383 . S
C1236 C1235 1.379 . S
H1237 C1231 0.959 . S
H1238 C1231 0.961 . S
H1239 C1231 0.960 . S
H1240 C1232 0.930 . S
H1241 C1233 0.929 . S
H1242 C1250 0.929 . S
H1243 C1252 0.930 . S
H1244 C1254 0.930 . S
H1245 C1257 0.929 . S
H1246 C1260 0.930 . S
H1247 C1262 0.960 . S
H1248 C1262 0.960 . S
H1249 C1262 0.960 . S
C1250 H1242 0.929 . S
C1250 C1251 1.377 . S
C1250 C1252 1.384 . S
C1251 C1250 1.377 . S
C1251 C1257 1.390 . S
C1252 H1243 0.930 . S
C1252 C1250 1.384 . S
C1252 C1253 1.372 . S
C1253 C1252 1.372 . S
C1253 C1254 1.400 . S
C1253 C1258 1.490 . S
C1254 H1244 0.930 . S
C1254 C1253 1.400 . S
C1254 C1257 1.386 . S
H1255 C1271 0.930 . S
H1256 C1272 0.931 . S
C1257 H1245 0.929 . S
C1257 C1251 1.390 . S
C1257 C1254 1.386 . S
C1258 C1253 1.490 . S
C1258 C1260 1.395 . S
C1258 C1261 1.403 . S
H1259 C1265 0.930 . S
C1260 H1246 0.930 . S
C1260 C1258 1.395 . S
C1260 C1263 1.403 . S
C1261 C1258 1.403 . S
C1261 C1262 1.524 . S
C1261 C1265 1.400 . S
C1262 H1247 0.960 . S
C1262 H1248 0.960 . S
C1262 H1249 0.960 . S
C1262 C1261 1.524 . S
C1263 C1260 1.403 . S
C1263 C1264 1.392 . S
C1263 C1267 1.495 . S
C1264 C1263 1.392 . S
C1264 C1265 1.385 . S
C1264 C1266 1.478 . S
C1265 H1259 0.930 . S
C1265 C1261 1.400 . S
C1265 C1264 1.385 . S
C1266 C1264 1.478 . S
C1266 C1268 1.381 . S
C1266 C1272 1.383 . S
C1267 C1263 1.495 . S
C1267 H1273 0.959 . S
C1267 H1274 0.961 . S
C1267 H1275 0.960 . S
C1268 C1266 1.381 . S
C1268 C1269 1.394 . S
C1268 H1276 0.930 . S
C1269 C1268 1.394 . S
C1269 C1270 1.383 . S
C1269 H1277 0.929 . S
C1270 C1269 1.383 . S
C1270 C1271 1.377 . S
C1271 H1255 0.930 . S
C1271 C1270 1.377 . S
C1271 C1272 1.379 . S
C1272 H1256 0.931 . S
C1272 C1266 1.383 . S
C1272 C1271 1.379 . S
H1273 C1267 0.959 . S
H1274 C1267 0.961 . S
H1275 C1267 0.960 . S
H1276 C1268 0.930 . S
H1277 C1269 0.929 . S
H1278 C1286 0.929 . S
H1279 C1288 0.930 . S
H1280 C1290 0.930 . S
H1281 C1293 0.929 . S
H1282 C1296 0.930 . S
H1283 C1298 0.960 . S
H1284 C1298 0.960 . S
H1285 C1298 0.960 . S
C1286 H1278 0.929 . S
C1286 C1287 1.377 . S
C1286 C1288 1.384 . S
C1287 C1286 1.377 . S
C1287 C1293 1.390 . S
C1288 H1279 0.930 . S
C1288 C1286 1.384 . S
C1288 C1289 1.372 . S
C1289 C1288 1.372 . S
C1289 C1290 1.400 . S
C1289 C1294 1.490 . S
C1290 H1280 0.930 . S
C1290 C1289 1.400 . S
C1290 C1293 1.386 . S
H1291 C1307 0.930 . S
H1292 C1308 0.931 . S
C1293 H1281 0.929 . S
C1293 C1287 1.390 . S
C1293 C1290 1.386 . S
C1294 C1289 1.490 . S
C1294 C1296 1.395 . S
C1294 C1297 1.403 . S
H1295 C1301 0.930 . S
C1296 H1282 0.930 . S
C1296 C1294 1.395 . S
C1296 C1299 1.403 . S
C1297 C1294 1.403 . S
C1297 C1298 1.524 . S
C1297 C1301 1.400 . S
C1298 H1283 0.960 . S
C1298 H1284 0.960 . S
C1298 H1285 0.960 . S
C1298 C1297 1.524 . S
C1299 C1296 1.403 . S
C1299 C1300 1.392 . S
C1299 C1303 1.495 . S
C1300 C1299 1.392 . S
C1300 C1301 1.385 . S
C1300 C1302 1.478 . S
C1301 H1295 0.930 . S
C1301 C1297 1.400 . S
C1301 C1300 1.385 . S
C1302 C1300 1.478 . S
C1302 C1304 1.381 . S
C1302 C1308 1.383 . S
C1303 C1299 1.495 . S
C1303 H1309 0.959 . S
C1303 H1310 0.961 . S
C1303 H1311 0.960 . S
C1304 C1302 1.381 . S
C1304 C1305 1.394 . S
C1304 H1312 0.930 . S
C1305 C1304 1.394 . S
C1305 C1306 1.383 . S
C1305 H1313 0.929 . S
C1306 C1305 1.383 . S
C1306 C1307 1.377 . S
C1307 H1291 0.930 . S
C1307 C1306 1.377 . S
C1307 C1308 1.379 . S
C1308 H1292 0.931 . S
C1308 C1302 1.383 . S
C1308 C1307 1.379 . S
H1309 C1303 0.959 . S
H1310 C1303 0.961 . S
H1311 C1303 0.960 . S
H1312 C1304 0.930 . S
H1313 C1305 0.929 . S
H1314 C1322 0.929 . S
H1315 C1324 0.930 . S
H1316 C1326 0.930 . S
H1317 C1329 0.929 . S
H1318 C1332 0.930 . S
H1319 C1334 0.960 . S
H1320 C1334 0.960 . S
H1321 C1334 0.960 . S
C1322 H1314 0.929 . S
C1322 C1323 1.377 . S
C1322 C1324 1.384 . S
C1323 C1322 1.377 . S
C1323 C1329 1.390 . S
C1324 H1315 0.930 . S
C1324 C1322 1.384 . S
C1324 C1325 1.372 . S
C1325 C1324 1.372 . S
C1325 C1326 1.400 . S
C1325 C1330 1.490 . S
C1326 H1316 0.930 . S
C1326 C1325 1.400 . S
C1326 C1329 1.386 . S
H1327 C1343 0.930 . S
H1328 C1344 0.931 . S
C1329 H1317 0.929 . S
C1329 C1323 1.390 . S
C1329 C1326 1.386 . S
C1330 C1325 1.490 . S
C1330 C1332 1.395 . S
C1330 C1333 1.403 . S
H1331 C1337 0.930 1_556 S
C1332 H1318 0.930 . S
C1332 C1330 1.395 . S
C1332 C1335 1.403 . S
C1333 C1330 1.403 . S
C1333 C1334 1.524 . S
C1333 C1337 1.400 . S
C1334 H1319 0.960 . S
C1334 H1320 0.960 . S
C1334 H1321 0.960 . S
C1334 C1333 1.524 . S
C1335 C1332 1.403 . S
C1335 C1336 1.392 . S
C1335 C1339 1.495 . S
C1336 C1335 1.392 . S
C1336 C1337 1.385 . S
C1336 C1338 1.478 1_554 S
C1337 H1331 0.930 1_554 S
C1337 C1333 1.400 . S
C1337 C1336 1.385 . S
C1338 C1336 1.478 1_556 S
C1338 C1340 1.381 . S
C1338 C1344 1.383 . S
C1339 C1335 1.495 . S
C1339 H1345 0.959 . S
C1339 H1346 0.961 . S
C1339 H1347 0.960 . S
C1340 C1338 1.381 . S
C1340 C1341 1.394 . S
C1340 H1348 0.930 . S
C1341 C1340 1.394 . S
C1341 C1342 1.383 . S
C1341 H1349 0.929 . S
C1342 C1341 1.383 . S
C1342 C1343 1.377 . S
C1343 H1327 0.930 . S
C1343 C1342 1.377 . S
C1343 C1344 1.379 . S
C1344 H1328 0.931 . S
C1344 C1338 1.383 . S
C1344 C1343 1.379 . S
H1345 C1339 0.959 . S
H1346 C1339 0.961 . S
H1347 C1339 0.960 . S
H1348 C1340 0.930 . S
H1349 C1341 0.929 . S
H1350 C1358 0.929 . S
H1351 C1360 0.930 . S
H1352 C1362 0.930 . S
H1353 C1365 0.929 . S
H1354 C1368 0.930 . S
H1355 C1370 0.960 . S
H1356 C1370 0.960 . S
H1357 C1370 0.960 . S
C1358 H1350 0.929 . S
C1358 C1359 1.377 . S
C1358 C1360 1.384 . S
C1359 C1358 1.377 . S
C1359 C1365 1.390 . S
C1360 H1351 0.930 . S
C1360 C1358 1.384 . S
C1360 C1361 1.372 . S
C1361 C1360 1.372 . S
C1361 C1362 1.400 . S
C1361 C1366 1.490 . S
C1362 H1352 0.930 . S
C1362 C1361 1.400 . S
C1362 C1365 1.386 . S
H1363 C1379 0.930 . S
H1364 C1380 0.931 . S
C1365 H1353 0.929 . S
C1365 C1359 1.390 . S
C1365 C1362 1.386 . S
C1366 C1361 1.490 . S
C1366 C1368 1.395 . S
C1366 C1369 1.403 . S
H1367 C1373 0.930 . S
C1368 H1354 0.930 . S
C1368 C1366 1.395 . S
C1368 C1371 1.403 . S
C1369 C1366 1.403 . S
C1369 C1370 1.524 . S
C1369 C1373 1.400 . S
C1370 H1355 0.960 . S
C1370 H1356 0.960 . S
C1370 H1357 0.960 . S
C1370 C1369 1.524 . S
C1371 C1368 1.403 . S
C1371 C1372 1.392 . S
C1371 C1375 1.495 . S
C1372 C1371 1.392 . S
C1372 C1373 1.385 . S
C1372 C1374 1.478 . S
C1373 H1367 0.930 . S
C1373 C1369 1.400 . S
C1373 C1372 1.385 . S
C1374 C1372 1.478 . S
C1374 C1376 1.381 . S
C1374 C1380 1.383 . S
C1375 C1371 1.495 . S
C1375 H1381 0.959 . S
C1375 H1382 0.961 . S
C1375 H1383 0.960 . S
C1376 C1374 1.381 . S
C1376 C1377 1.394 . S
C1376 H1384 0.930 . S
C1377 C1376 1.394 . S
C1377 C1378 1.383 . S
C1377 H1385 0.929 . S
C1378 C1377 1.383 . S
C1378 C1379 1.377 . S
C1379 H1363 0.930 . S
C1379 C1378 1.377 . S
C1379 C1380 1.379 . S
C1380 H1364 0.931 . S
C1380 C1374 1.383 . S
C1380 C1379 1.379 . S
H1381 C1375 0.959 . S
H1382 C1375 0.961 . S
H1383 C1375 0.960 . S
H1384 C1376 0.930 . S
H1385 C1377 0.929 . S
C550 C514 1.197 . S
C531 C51 1.193 . S
C567 C125 1.515 . S
C586 C449 1.514 . S
C603 C217 2.650 . S
C622 C467 2.656 . S
C639 C291 1.650 . S
C658 C480 1.646 . S
C694 C488 0.559 . S
C675 C347 0.575 . S
C711 C421 0.876 . S
C730 C500 0.895 . S
C747 C143 2.492 . S
C766 C462 2.489 . S
C783 C199 1.366 . S
C802 C475 1.367 . S
C819 C273 0.465 . S
C838 C493 0.466 . S
C874 C499 1.523 . S
C855 C365 1.520 . S
C910 C519 1.910 . S
C891 C439 1.912 . S
C946 C454 2.453 . S
C927 C69 2.447 . S
C963 C63 1.365 . S
C982 C460 1.420 . S
C999 C137 1.617 . S
C1018 C473 1.678 . S
C1054 C487 1.326 . S
C1035 C187 1.318 . S
C1071 C261 1.620 . S
C1090 C501 1.656 . S
C1126 C513 1.243 . S
C1107 C359 1.185 . S
C1162 C448 1.157 . S
C1143 C433 1.133 . S
C1198 C512 1.801 . S
C1179 C113 1.761 1_565 S
C1215 C211 1.233 . S
C1234 C447 1.270 . S
C1270 C461 1.603 . S
C1251 C285 1.532 . S
C1287 C335 1.203 . S
C1306 C474 1.229 . S
C1323 C409 1.465 . S
C1342 C486 1.489 . S
C1359 C39 1.681 . S
C1378 C506 1.694 . S
