# Generated by pormake.
# Topology pto, (3,4)-cn, num edge types: 1
# Building blocks:
#     Node 0, Type 0, BuildingBlock: BELTOD_clean_linker_0, # of connection points: 3
#     Node 1, Type 0, BuildingBlock: BELTOD_clean_linker_0, # of connection points: 3
#     Node 2, Type 0, BuildingBlock: BELTOD_clean_linker_0, # of connection points: 3
#     Node 3, Type 0, BuildingBlock: BELTOD_clean_linker_0, # of connection points: 3
#     Node 4, Type 0, BuildingBlock: BELTOD_clean_linker_0, # of connection points: 3
#     Node 5, Type 0, BuildingBlock: BELTOD_clean_linker_0, # of connection points: 3
#     Node 6, Type 0, BuildingBlock: BELTOD_clean_linker_0, # of connection points: 3
#     Node 7, Type 0, BuildingBlock: BELTOD_clean_linker_0, # of connection points: 3
#     Node 8, Type 1, BuildingBlock: NAWXER_clean_sbu_0, # of connection points: 4
#     Node 9, Type 1, BuildingBlock: NAWXER_clean_sbu_0, # of connection points: 4
#     Node 10, Type 1, BuildingBlock: NAWXER_clean_sbu_0, # of connection points: 4
#     Node 11, Type 1, BuildingBlock: NAWXER_clean_sbu_0, # of connection points: 4
#     Node 12, Type 1, BuildingBlock: NAWXER_clean_sbu_0, # of connection points: 4
#     Node 13, Type 1, BuildingBlock: NAWXER_clean_sbu_0, # of connection points: 4
#     Edge 14, Type (0, 1), BuildingBlock: XIVTED_clean_linker_0, # of connection points: 2
#     Edge 15, Type (0, 1), BuildingBlock: XIVTED_clean_linker_0, # of connection points: 2
#     Edge 16, Type (0, 1), BuildingBlock: XIVTED_clean_linker_0, # of connection points: 2
#     Edge 17, Type (0, 1), BuildingBlock: XIVTED_clean_linker_0, # of connection points: 2
#     Edge 18, Type (0, 1), BuildingBlock: XIVTED_clean_linker_0, # of connection points: 2
#     Edge 19, Type (0, 1), BuildingBlock: XIVTED_clean_linker_0, # of connection points: 2
#     Edge 20, Type (0, 1), BuildingBlock: XIVTED_clean_linker_0, # of connection points: 2
#     Edge 21, Type (0, 1), BuildingBlock: XIVTED_clean_linker_0, # of connection points: 2
#     Edge 22, Type (0, 1), BuildingBlock: XIVTED_clean_linker_0, # of connection points: 2
#     Edge 23, Type (0, 1), BuildingBlock: XIVTED_clean_linker_0, # of connection points: 2
#     Edge 24, Type (0, 1), BuildingBlock: XIVTED_clean_linker_0, # of connection points: 2
#     Edge 25, Type (0, 1), BuildingBlock: XIVTED_clean_linker_0, # of connection points: 2
#     Edge 26, Type (0, 1), BuildingBlock: XIVTED_clean_linker_0, # of connection points: 2
#     Edge 27, Type (0, 1), BuildingBlock: XIVTED_clean_linker_0, # of connection points: 2
#     Edge 28, Type (0, 1), BuildingBlock: XIVTED_clean_linker_0, # of connection points: 2
#     Edge 29, Type (0, 1), BuildingBlock: XIVTED_clean_linker_0, # of connection points: 2
#     Edge 30, Type (0, 1), BuildingBlock: XIVTED_clean_linker_0, # of connection points: 2
#     Edge 31, Type (0, 1), BuildingBlock: XIVTED_clean_linker_0, # of connection points: 2
#     Edge 32, Type (0, 1), BuildingBlock: XIVTED_clean_linker_0, # of connection points: 2
#     Edge 33, Type (0, 1), BuildingBlock: XIVTED_clean_linker_0, # of connection points: 2
#     Edge 34, Type (0, 1), BuildingBlock: XIVTED_clean_linker_0, # of connection points: 2
#     Edge 35, Type (0, 1), BuildingBlock: XIVTED_clean_linker_0, # of connection points: 2
#     Edge 36, Type (0, 1), BuildingBlock: XIVTED_clean_linker_0, # of connection points: 2
#     Edge 37, Type (0, 1), BuildingBlock: XIVTED_clean_linker_0, # of connection points: 2
# Relax obj value: 0.000
# Max RMSD: 0.008
# Mean RMSD: 0.005
data_MOF--net-pto--node1-NAWXER_clean_sbu_0--node2-BELTOD_clean_linker_0--edge1-XIVTED_clean_linker_0
_symmetry_space_group_name_H-M    P1
_symmetry_Int_Tables_number       1
_symmetry_cell_setting            triclinic
loop_
_symmetry_equiv_pos_as_xyz
'x, y, z'
_cell_length_a     49.982867
_cell_length_b     47.131669
_cell_length_c     43.850124
_cell_angle_alpha  89.0847
_cell_angle_beta   91.575028
_cell_angle_gamma 92.041223
loop_
_atom_site_label
_atom_site_type_symbol
_atom_site_fract_x
_atom_site_fract_y
_atom_site_fract_z
_atom_type_partial_charge
P0 P 0.28635 0.30016 0.26945 0.0
H1 H 0.33857 0.32383 0.25161 0.0
H2 H 0.36549 0.31782 0.20682 0.0
H3 H 0.30547 0.25854 0.17019 0.0
H4 H 0.27848 0.26469 0.21538 0.0
H5 H 0.2327 0.28843 0.29374 0.0
H6 H 0.18942 0.30873 0.282 0.0
H7 H 0.22498 0.35981 0.20993 0.0
H8 H 0.26791 0.33823 0.2209 0.0
H9 H 0.31436 0.28554 0.32661 0.0
H10 H 0.25792 0.24473 0.26385 0.0
O11 O 0.30025 0.32672 0.28982 0.0
H12 H 0.31292 0.24355 0.35979 0.0
H13 H 0.25674 0.20221 0.29673 0.0
C14 C 0.30644 0.29483 0.23672 0.0
C15 C 0.33113 0.30953 0.234 0.0
C16 C 0.34649 0.30616 0.20828 0.0
C17 C 0.33753 0.28786 0.18483 0.0
C18 C 0.31298 0.27266 0.18794 0.0
C19 C 0.29752 0.2762 0.21368 0.0
C20 C 0.25344 0.31125 0.2577 0.0
C21 C 0.23103 0.3033 0.27478 0.0
C22 C 0.20629 0.31531 0.26829 0.0
C23 C 0.2036 0.33616 0.24512 0.0
C24 C 0.22605 0.34354 0.22759 0.0
C25 C 0.25071 0.33124 0.2339 0.0
C26 C 0.28582 0.26847 0.29306 0.0
C27 C 0.30168 0.26748 0.3199 0.0
C28 C 0.30104 0.2433 0.33876 0.0
C29 C 0.28461 0.2195 0.33105 0.0
C30 C 0.26929 0.22031 0.30361 0.0
C31 C 0.27002 0.24454 0.28471 0.0
P32 P 0.26819 0.70943 0.72747 0.0
H33 H 0.22178 0.6879 0.69247 0.0
H34 H 0.17767 0.66921 0.70693 0.0
H35 H 0.19685 0.6886 0.80121 0.0
H36 H 0.24114 0.70702 0.7865 0.0
H37 H 0.30188 0.73651 0.68144 0.0
H38 H 0.30235 0.78335 0.65682 0.0
H39 H 0.23705 0.80707 0.71271 0.0
H40 H 0.23639 0.7598 0.73672 0.0
H41 H 0.28678 0.66132 0.76336 0.0
H42 H 0.29997 0.75224 0.7626 0.0
O43 O 0.27786 0.68679 0.7014 0.0
H44 H 0.31748 0.65715 0.80749 0.0
H45 H 0.33121 0.74825 0.80602 0.0
C46 C 0.2349 0.6983 0.73844 0.0
C47 C 0.21643 0.68826 0.71622 0.0
C48 C 0.19112 0.67776 0.72454 0.0
C49 C 0.18373 0.67724 0.75531 0.0
C50 C 0.20205 0.68826 0.77741 0.0
C51 C 0.22737 0.69887 0.769 0.0
C52 C 0.26869 0.74448 0.71036 0.0
C53 C 0.2876 0.75178 0.6883 0.0
C54 C 0.28802 0.77872 0.67445 0.0
C55 C 0.26963 0.79903 0.6826 0.0
C56 C 0.25117 0.79182 0.70543 0.0
C57 C 0.25079 0.76481 0.71926 0.0
C58 C 0.29124 0.70703 0.75961 0.0
C59 C 0.29648 0.68036 0.77258 0.0
C60 C 0.31414 0.678 0.79771 0.0
C61 C 0.32688 0.70235 0.81035 0.0
C62 C 0.32149 0.72908 0.79718 0.0
C63 C 0.30375 0.73139 0.77213 0.0
P64 P 0.7926 0.76904 0.19442 0.0
H65 H 0.82618 0.81858 0.21116 0.0
H66 H 0.8267 0.85046 0.25459 0.0
H67 H 0.76335 0.79903 0.29515 0.0
H68 H 0.76266 0.76759 0.25123 0.0
H69 H 0.81407 0.73248 0.14908 0.0
H70 H 0.84497 0.69345 0.15222 0.0
H71 H 0.8538 0.70506 0.24967 0.0
H72 H 0.8222 0.74336 0.24636 0.0
H73 H 0.74297 0.79681 0.17967 0.0
H74 H 0.76814 0.71084 0.1932 0.0
O75 O 0.80091 0.7894 0.16443 0.0
H76 H 0.6978 0.77911 0.16598 0.0
H77 H 0.72291 0.69293 0.1797 0.0
C78 C 0.79397 0.79114 0.22767 0.0
C79 C 0.81242 0.81419 0.22942 0.0
C80 C 0.81284 0.83227 0.25443 0.0
C81 C 0.79489 0.82751 0.27831 0.0
C82 C 0.77707 0.80369 0.27691 0.0
C83 C 0.7767 0.78562 0.25186 0.0
C84 C 0.81611 0.741 0.1974 0.0
C85 C 0.82279 0.72665 0.17108 0.0
C86 C 0.84057 0.70442 0.17291 0.0
C87 C 0.85203 0.69611 0.20118 0.0
C88 C 0.84515 0.71061 0.22756 0.0
C89 C 0.82722 0.73274 0.22569 0.0
C90 C 0.75897 0.75522 0.18716 0.0
C91 C 0.73868 0.77412 0.17996 0.0
C92 C 0.71282 0.76394 0.17232 0.0
C93 C 0.70671 0.73456 0.17169 0.0
C94 C 0.72702 0.71565 0.1796 0.0
C95 C 0.75291 0.72591 0.18741 0.0
P96 P 0.79036 0.21176 0.80243 0.0
H97 H 0.74859 0.17183 0.82293 0.0
H98 H 0.70323 0.17764 0.84068 0.0
H99 H 0.71319 0.26856 0.82784 0.0
H100 H 0.75788 0.26233 0.80879 0.0
H101 H 0.83406 0.19425 0.76533 0.0
H102 H 0.83561 0.17008 0.71654 0.0
H103 H 0.74903 0.16682 0.71092 0.0
H104 H 0.74779 0.19211 0.75873 0.0
H105 H 0.81512 0.24571 0.85122 0.0
H106 H 0.80661 0.2515 0.75326 0.0
O107 O 0.80515 0.19013 0.82767 0.0
H108 H 0.84093 0.29076 0.85167 0.0
H109 H 0.83331 0.29579 0.75325 0.0
C110 C 0.75672 0.21662 0.81483 0.0
C111 C 0.74089 0.19299 0.82386 0.0
C112 C 0.71499 0.1964 0.83421 0.0
C113 C 0.70443 0.22362 0.83597 0.0
C114 C 0.72037 0.24723 0.82647 0.0
C115 C 0.74616 0.24373 0.81581 0.0
C116 C 0.79086 0.19498 0.76573 0.0
C117 C 0.81544 0.1885 0.75339 0.0
C118 C 0.81627 0.17445 0.72558 0.0
C119 C 0.79245 0.1663 0.70966 0.0
C120 C 0.76783 0.17309 0.72214 0.0
C121 C 0.76706 0.18739 0.74979 0.0
C122 C 0.80943 0.24498 0.80219 0.0
C123 C 0.81908 0.25657 0.82977 0.0
C124 C 0.83397 0.28228 0.82996 0.0
C125 C 0.83946 0.29695 0.80249 0.0
C126 C 0.8293 0.28535 0.77491 0.0
C127 C 0.81423 0.25977 0.77481 0.0
P128 P 0.7632 0.77913 0.79246 0.0
H129 H 0.75303 0.74974 0.85002 0.0
H130 H 0.71341 0.74454 0.88148 0.0
H131 H 0.66774 0.79095 0.81348 0.0
H132 H 0.70724 0.79604 0.78217 0.0
H133 H 0.81013 0.77122 0.75698 0.0
H134 H 0.83454 0.72949 0.74349 0.0
H135 H 0.7749 0.6755 0.78731 0.0
H136 H 0.75048 0.71744 0.80064 0.0
H137 H 0.77425 0.83951 0.78055 0.0
H138 H 0.73811 0.76811 0.73255 0.0
O139 O 0.78537 0.79581 0.81568 0.0
H140 H 0.76754 0.86971 0.73541 0.0
H141 H 0.73123 0.7984 0.6871 0.0
C142 C 0.73308 0.77288 0.81356 0.0
C143 C 0.73437 0.75842 0.84169 0.0
C144 C 0.71174 0.75549 0.85964 0.0
C145 C 0.68748 0.76739 0.84994 0.0
C146 C 0.68622 0.7818 0.82166 0.0
C147 C 0.70881 0.78447 0.8036 0.0
C148 C 0.77863 0.7475 0.78001 0.0
C149 C 0.80211 0.75037 0.76333 0.0
C150 C 0.81597 0.72646 0.75548 0.0
C151 C 0.80671 0.69915 0.76439 0.0
C152 C 0.7827 0.69628 0.78041 0.0
C153 C 0.76871 0.72028 0.78806 0.0
C154 C 0.75713 0.8015 0.7596 0.0
C155 C 0.76487 0.83032 0.76028 0.0
C156 C 0.76102 0.84756 0.73449 0.0
C157 C 0.74906 0.83631 0.70772 0.0
C158 C 0.74039 0.80762 0.70748 0.0
C159 C 0.7445 0.7903 0.73327 0.0
P160 P 0.75303 0.26031 0.21344 0.0
H161 H 0.81036 0.2579 0.22528 0.0
H162 H 0.84431 0.29288 0.24322 0.0
H163 H 0.78299 0.3542 0.25262 0.0
H164 H 0.74901 0.31889 0.23517 0.0
H165 H 0.74022 0.19941 0.21597 0.0
H166 H 0.73063 0.16646 0.25821 0.0
H167 H 0.73441 0.23654 0.32072 0.0
H168 H 0.7441 0.26937 0.27831 0.0
H169 H 0.74693 0.3108 0.17446 0.0
H170 H 0.69614 0.24318 0.21055 0.0
O171 O 0.76763 0.24159 0.18696 0.0
H172 H 0.7087 0.32979 0.14608 0.0
H173 H 0.6583 0.26085 0.18104 0.0
C174 C 0.77737 0.28617 0.22781 0.0
C175 C 0.80423 0.27887 0.23123 0.0
C176 C 0.82355 0.29876 0.24178 0.0
C177 C 0.81629 0.32632 0.24906 0.0
C178 C 0.78916 0.33322 0.24674 0.0
C179 C 0.76979 0.31314 0.23659 0.0
C180 C 0.74357 0.23667 0.2442 0.0
C181 C 0.73885 0.20769 0.23875 0.0
C182 C 0.7331 0.18892 0.26286 0.0
C183 C 0.73199 0.19889 0.29284 0.0
C184 C 0.73554 0.22819 0.29794 0.0
C185 C 0.7411 0.24696 0.27375 0.0
C186 C 0.72425 0.2761 0.1954 0.0
C187 C 0.72744 0.3003 0.17668 0.0
C188 C 0.70558 0.31091 0.1601 0.0
C189 C 0.68022 0.29699 0.16123 0.0
C190 C 0.67723 0.27268 0.18012 0.0
C191 C 0.69901 0.26238 0.19699 0.0
P192 P 0.2589 0.32886 0.68151 0.0
H193 H 0.24208 0.30217 0.62427 0.0
H194 H 0.22815 0.25352 0.6113 0.0
H195 H 0.23787 0.22826 0.70604 0.0
H196 H 0.25201 0.27702 0.71875 0.0
H197 H 0.25289 0.38833 0.6964 0.0
H198 H 0.21357 0.41696 0.70346 0.0
H199 H 0.16205 0.3424 0.69028 0.0
H200 H 0.20112 0.31399 0.6835 0.0
H201 H 0.31145 0.30523 0.68516 0.0
H202 H 0.26111 0.3501 0.74497 0.0
O203 O 0.27331 0.3439 0.65112 0.0
H204 H 0.34586 0.3025 0.72568 0.0
H205 H 0.29566 0.34769 0.78561 0.0
C206 C 0.2488 0.29294 0.67228 0.0
C207 C 0.24133 0.28611 0.6422 0.0
C208 C 0.23306 0.25838 0.6349 0.0
C209 C 0.23198 0.23701 0.65765 0.0
C210 C 0.23885 0.24416 0.68795 0.0
C211 C 0.247 0.27197 0.69523 0.0
C212 C 0.23004 0.34902 0.68967 0.0
C213 C 0.23313 0.37813 0.69539 0.0
C214 C 0.21068 0.39444 0.69938 0.0
C215 C 0.18474 0.38192 0.69721 0.0
C216 C 0.18176 0.35269 0.69165 0.0
C217 C 0.2042 0.33638 0.68801 0.0
C218 C 0.28387 0.32808 0.71193 0.0
C219 C 0.30788 0.31463 0.707 0.0
C220 C 0.32745 0.31295 0.73022 0.0
C221 C 0.32346 0.32488 0.75883 0.0
C222 C 0.2994 0.33856 0.76368 0.0
C223 C 0.27963 0.33994 0.74046 0.0
P224 P 0.27786 0.72994 0.31948 0.0
H225 H 0.3188 0.69424 0.29657 0.0
H226 H 0.34687 0.6977 0.25188 0.0
H227 H 0.30724 0.77384 0.22247 0.0
H228 H 0.27939 0.77037 0.26755 0.0
H229 H 0.30577 0.77816 0.34767 0.0
H230 H 0.29124 0.82445 0.36355 0.0
H231 H 0.21146 0.80431 0.3279 0.0
H232 H 0.22619 0.75794 0.31204 0.0
H233 H 0.25386 0.69813 0.26756 0.0
H234 H 0.23927 0.7086 0.36311 0.0
O235 O 0.29739 0.71818 0.3481 0.0
H236 H 0.21481 0.66575 0.26318 0.0
H237 H 0.19957 0.677 0.35877 0.0
C238 C 0.29741 0.73229 0.28563 0.0
C239 C 0.31617 0.71167 0.2805 0.0
C240 C 0.33207 0.71359 0.25481 0.0
C241 C 0.32938 0.73613 0.23364 0.0
C242 C 0.3101 0.75649 0.23858 0.0
C243 C 0.29411 0.75446 0.26429 0.0
C244 C 0.26693 0.76443 0.3294 0.0
C245 C 0.28518 0.78376 0.34321 0.0
C246 C 0.27688 0.81028 0.35202 0.0
C247 C 0.25015 0.81797 0.34705 0.0
C248 C 0.23207 0.79881 0.33237 0.0
C249 C 0.24048 0.77231 0.32335 0.0
C250 C 0.24954 0.70554 0.31574 0.0
C251 C 0.24227 0.69346 0.28762 0.0
C252 C 0.21974 0.67511 0.2851 0.0
C253 C 0.20397 0.66877 0.31063 0.0
C254 C 0.21145 0.68102 0.33877 0.0
C255 C 0.23406 0.6992 0.34127 0.0
C256 C 0.97192 0.46404 0.26943 0.0
C257 C 0.04617 0.53371 0.27993 0.0
O258 O 0.98278 0.47278 0.29428 0.0
Zn259 Zn 0.00972 0.4978 0.276 0.0
O260 O 0.98147 0.47246 0.24386 0.0
Zn261 Zn 0.01315 0.49981 0.22726 0.0
O262 O 0.03725 0.47401 0.20803 0.0
O263 O 0.03648 0.46869 0.25801 0.0
O264 O 0.04021 0.52731 0.25222 0.0
O265 O 0.03357 0.52139 0.30151 0.0
O266 O 0.9857 0.52857 0.25258 0.0
O267 O 0.99303 0.52722 0.20316 0.0
C268 C 0.04546 0.46153 0.23228 0.0
C269 C 0.981 0.53778 0.22533 0.0
C270 C 0.95598 0.47467 0.78655 0.0
C271 C 0.01794 0.55776 0.78302 0.0
O272 O 0.96915 0.48565 0.8089 0.0
Zn273 Zn 0.98688 0.51646 0.7862 0.0
O274 O 0.95858 0.48547 0.75973 0.0
Zn275 Zn 0.98035 0.51949 0.73772 0.0
O276 O 0.00361 0.4996 0.71084 0.0
O277 O 0.01445 0.49459 0.75969 0.0
O278 O 0.00757 0.55092 0.75697 0.0
O279 O 0.01141 0.54349 0.80673 0.0
O280 O 0.95431 0.54222 0.77128 0.0
O281 O 0.95203 0.54255 0.7209 0.0
C282 C 0.01906 0.48978 0.73169 0.0
C283 C 0.94311 0.5505 0.74616 0.0
C284 C 0.26021 0.97902 0.55691 0.0
C285 C 0.26389 0.05795 0.48243 0.0
O286 O 0.23707 0.98654 0.54713 0.0
Zn287 Zn 0.22027 0.01708 0.5161 0.0
O288 O 0.28104 0.99227 0.54738 0.0
Zn289 Zn 0.26311 0.01913 0.5203 0.0
O290 O 0.24297 0.04547 0.55077 0.0
O291 O 0.19938 0.0404 0.54181 0.0
O292 O 0.28371 0.04702 0.49653 0.0
O293 O 0.24007 0.04858 0.48791 0.0
O294 O 0.20237 0.99277 0.48595 0.0
O295 O 0.24657 0.99245 0.48512 0.0
C296 C 0.21897 0.05194 0.55664 0.0
C297 C 0.22359 0.98416 0.47427 0.0
C298 C 0.53195 0.70209 0.06466 0.0
C299 C 0.46142 0.70235 0.98458 0.0
O300 O 0.52202 0.68035 0.05101 0.0
Zn301 Zn 0.49676 0.70055 0.02453 0.0
O302 O 0.52361 0.72678 0.05754 0.0
Zn303 Zn 0.49591 0.74625 0.02663 0.0
O304 O 0.47201 0.76377 0.05436 0.0
O305 O 0.46926 0.71688 0.05592 0.0
O306 O 0.46837 0.727 0.99458 0.0
O307 O 0.47304 0.68059 0.99526 0.0
O308 O 0.52358 0.72302 0.99541 0.0
O309 O 0.51967 0.76914 0.00055 0.0
C310 C 0.46157 0.74087 0.06521 0.0
C311 C 0.53078 0.74852 0.98815 0.0
C312 C 0.746 0.96661 0.52511 0.0
C313 C 0.74005 0.0433 0.44932 0.0
O314 O 0.72464 0.97664 0.51358 0.0
Zn315 Zn 0.742 0.00399 0.48617 0.0
O316 O 0.76877 0.97622 0.51602 0.0
Zn317 Zn 0.78481 0.00711 0.4849 0.0
O318 O 0.8051 0.03178 0.51283 0.0
O319 O 0.76131 0.03321 0.51784 0.0
O320 O 0.76419 0.0371 0.45664 0.0
O321 O 0.72061 0.02889 0.46056 0.0
O322 O 0.75932 0.97728 0.45358 0.0
O323 O 0.80316 0.9842 0.45597 0.0
C324 C 0.7851 0.04172 0.52589 0.0
C325 C 0.78257 0.97156 0.44421 0.0
C326 C 0.53261 0.31423 0.00748 0.0
C327 C 0.4666 0.31045 0.9234 0.0
O328 O 0.52257 0.28918 0.00299 0.0
Zn329 Zn 0.49487 0.26818 0.97169 0.0
O330 O 0.52574 0.33467 0.99004 0.0
Zn331 Zn 0.50043 0.31267 0.96486 0.0
O332 O 0.47036 0.29964 0.99715 0.0
O333 O 0.46839 0.25279 0.99936 0.0
O334 O 0.47985 0.33198 0.93348 0.0
O335 O 0.47056 0.28591 0.93543 0.0
O336 O 0.51773 0.24241 0.95143 0.0
O337 O 0.52699 0.28734 0.93999 0.0
C338 C 0.46018 0.27644 0.00824 0.0
C339 C 0.53179 0.26098 0.93714 0.0
H340 H 0.17973 0.35629 0.19167 0.0
H341 H 0.06149 0.42747 0.27943 0.0
H342 H 0.1696 0.35225 0.28917 0.0
H343 H 0.07674 0.44585 0.18459 0.0
H344 H 0.0979 0.39477 0.28098 0.0
H345 H 0.13961 0.38467 0.1866 0.0
C346 C 0.16912 0.36124 0.21201 0.0
C347 C 0.17821 0.35171 0.24093 0.0
C348 C 0.09333 0.40582 0.25974 0.0
C349 C 0.13207 0.38391 0.23514 0.0
C350 C 0.07243 0.42455 0.25879 0.0
C351 C 0.06614 0.43972 0.23188 0.0
C352 C 0.10833 0.40207 0.23361 0.0
C353 C 0.08095 0.43469 0.20585 0.0
C354 C 0.14614 0.37735 0.20903 0.0
C355 C 0.16328 0.35852 0.26633 0.0
N356 N 0.10152 0.4164 0.2074 0.0
N357 N 0.14111 0.37417 0.26281 0.0
H358 H 0.17259 0.64266 0.80484 0.0
H359 H 0.02551 0.60094 0.74202 0.0
H360 H 0.13486 0.68184 0.72592 0.0
H361 H 0.05864 0.5663 0.82592 0.0
H362 H 0.06394 0.63396 0.73893 0.0
H363 H 0.13006 0.61783 0.81603 0.0
C364 C 0.15529 0.6464 0.79011 0.0
C365 C 0.15744 0.66418 0.76418 0.0
C366 C 0.06277 0.61941 0.75825 0.0
C367 C 0.10873 0.6355 0.7767 0.0
C368 C 0.04076 0.60053 0.76005 0.0
C369 C 0.03897 0.58067 0.78414 0.0
C370 C 0.08347 0.61827 0.78049 0.0
C371 C 0.05924 0.58128 0.80696 0.0
C372 C 0.13103 0.63208 0.79645 0.0
C373 C 0.13435 0.66791 0.74578 0.0
N374 N 0.08088 0.59951 0.80435 0.0
N375 N 0.1111 0.65355 0.75226 0.0
H376 H 0.89094 0.68254 0.16103 0.0
H377 H 0.94607 0.55658 0.2663 0.0
H378 H 0.85593 0.65496 0.24592 0.0
H379 H 0.97111 0.5705 0.17364 0.0
H380 H 0.91447 0.59429 0.25952 0.0
H381 H 0.9216 0.64322 0.16533 0.0
C382 C 0.88953 0.66817 0.18048 0.0
C383 C 0.8708 0.67224 0.20323 0.0
C384 C 0.92677 0.58913 0.24058 0.0
C385 C 0.90616 0.62742 0.20843 0.0
C386 C 0.94495 0.56759 0.24444 0.0
C387 C 0.96139 0.56037 0.22051 0.0
C388 C 0.92501 0.60391 0.21262 0.0
C389 C 0.95882 0.57534 0.19269 0.0
C390 C 0.90715 0.64579 0.18294 0.0
C391 C 0.87029 0.65311 0.2281 0.0
N392 N 0.94105 0.59655 0.18954 0.0
N393 N 0.88772 0.63166 0.23005 0.0
H394 H 0.88317 0.31193 0.83933 0.0
H395 H 0.91691 0.4551 0.74702 0.0
H396 H 0.83318 0.34416 0.76567 0.0
H397 H 0.95321 0.43701 0.83532 0.0
H398 H 0.88778 0.41294 0.75245 0.0
H399 H 0.91038 0.35609 0.83761 0.0
C400 C 0.8777 0.32831 0.82297 0.0
C401 C 0.85582 0.32408 0.80248 0.0
C402 C 0.902 0.41819 0.77075 0.0
C403 C 0.88731 0.37455 0.8001 0.0
C404 C 0.91875 0.44226 0.76763 0.0
C405 C 0.93763 0.4496 0.79073 0.0
C406 C 0.90424 0.40095 0.79701 0.0
C407 C 0.93891 0.43218 0.81698 0.0
C408 C 0.89337 0.35349 0.82195 0.0
C409 C 0.85012 0.34604 0.7815 0.0
N410 N 0.92258 0.4085 0.81932 0.0
N411 N 0.86582 0.37016 0.78076 0.0
H412 H 0.3251 0.19431 0.36437 0.0
H413 H 0.22534 0.08315 0.44739 0.0
H414 H 0.23982 0.18771 0.34617 0.0
H415 H 0.3108 0.0858 0.46509 0.0
H416 H 0.23092 0.12129 0.40996 0.0
H417 H 0.32088 0.15463 0.40088 0.0
C418 C 0.30549 0.18455 0.36803 0.0
C419 C 0.28276 0.19445 0.35213 0.0
C420 C 0.24852 0.11359 0.42194 0.0
C421 C 0.27785 0.1489 0.39382 0.0
C422 C 0.24536 0.09174 0.44344 0.0
C423 C 0.26765 0.08119 0.45955 0.0
C424 C 0.27418 0.12523 0.41635 0.0
C425 C 0.29304 0.09326 0.45325 0.0
C426 C 0.30313 0.16181 0.38879 0.0
C427 C 0.25795 0.18065 0.35753 0.0
N428 N 0.29562 0.11469 0.43216 0.0
N429 N 0.25617 0.15873 0.37795 0.0
H430 H 0.36414 0.6617 0.82286 0.0
H431 H 0.42522 0.74199 0.96907 0.0
H432 H 0.33216 0.73756 0.85944 0.0
H433 H 0.44866 0.65798 0.94567 0.0
H434 H 0.3915 0.74037 0.92818 0.0
H435 H 0.3954 0.65941 0.86679 0.0
C436 C 0.36351 0.67775 0.8402 0.0
C437 C 0.34556 0.70001 0.83724 0.0
C438 C 0.40386 0.72216 0.93196 0.0
C439 C 0.38153 0.69763 0.88737 0.0
C440 C 0.42324 0.7231 0.95533 0.0
C441 C 0.43994 0.70013 0.96073 0.0
C442 C 0.40116 0.69819 0.91343 0.0
C443 C 0.4362 0.67614 0.94229 0.0
C444 C 0.38144 0.67645 0.86521 0.0
C445 C 0.34595 0.72035 0.8603 0.0
N446 N 0.41732 0.67588 0.91923 0.0
N447 N 0.36367 0.71872 0.88422 0.0
H448 H 0.83708 0.85536 0.30836 0.0
H449 H 0.74204 0.94132 0.41536 0.0
H450 H 0.75079 0.84654 0.30653 0.0
H451 H 0.82817 0.95268 0.41798 0.0
H452 H 0.74544 0.90594 0.37603 0.0
H453 H 0.83476 0.89031 0.34885 0.0
C454 C 0.81764 0.86076 0.3164 0.0
C455 C 0.79408 0.8479 0.30392 0.0
C456 C 0.76365 0.91611 0.38514 0.0
C457 C 0.79133 0.88782 0.35048 0.0
C458 C 0.76174 0.93641 0.40767 0.0
C459 C 0.78487 0.95011 0.42007 0.0
C460 C 0.7889 0.90927 0.37472 0.0
C461 C 0.80979 0.94271 0.40908 0.0
C462 C 0.81636 0.88064 0.33963 0.0
C463 C 0.76952 0.8555 0.31565 0.0
N464 N 0.81115 0.9228 0.38702 0.0
N465 N 0.76881 0.87495 0.33814 0.0
H466 H 0.66701 0.26242 0.81772 0.0
H467 H 0.55754 0.21039 0.9383 0.0
H468 H 0.6794 0.19357 0.88221 0.0
H469 H 0.5587 0.29321 0.89482 0.0
H470 H 0.59832 0.19955 0.91153 0.0
H471 H 0.62361 0.26989 0.83993 0.0
C472 C 0.66074 0.24889 0.83658 0.0
C473 C 0.6772 0.22745 0.84819 0.0
C474 C 0.5895 0.22001 0.90774 0.0
C475 C 0.62704 0.23558 0.87332 0.0
C476 C 0.56615 0.22615 0.92285 0.0
C477 C 0.55476 0.2528 0.91892 0.0
C478 C 0.60134 0.24054 0.88827 0.0
C479 C 0.56688 0.27246 0.89871 0.0
C480 C 0.63582 0.25308 0.84912 0.0
C481 C 0.66743 0.21015 0.87217 0.0
N482 N 0.58949 0.26594 0.88419 0.0
N483 N 0.64306 0.21463 0.88395 0.0
H484 H 0.31231 0.83309 0.66398 0.0
H485 H 0.21919 0.94871 0.58327 0.0
H486 H 0.2259 0.82927 0.66442 0.0
H487 H 0.30543 0.95266 0.57892 0.0
H488 H 0.22187 0.90647 0.61567 0.0
H489 H 0.31072 0.87799 0.63526 0.0
C490 C 0.29299 0.84164 0.65806 0.0
C491 C 0.26918 0.82721 0.66662 0.0
C492 C 0.24026 0.91656 0.60778 0.0
C493 C 0.26727 0.87884 0.6339 0.0
C494 C 0.23877 0.94078 0.58922 0.0
C495 C 0.26214 0.95429 0.57817 0.0
C496 C 0.26532 0.90551 0.61543 0.0
C497 C 0.28689 0.94297 0.58685 0.0
C498 C 0.29213 0.86737 0.64177 0.0
C499 C 0.24479 0.83968 0.65871 0.0
N500 N 0.28783 0.91916 0.60485 0.0
N501 N 0.24449 0.86463 0.64274 0.0
H502 H 0.69325 0.68983 0.13405 0.0
H503 H 0.54244 0.73633 0.11282 0.0
H504 H 0.65815 0.75518 0.18617 0.0
H505 H 0.57277 0.6643 0.06712 0.0
H506 H 0.5834 0.73955 0.14408 0.0
H507 H 0.64866 0.67634 0.11338 0.0
C508 C 0.67614 0.70105 0.14155 0.0
C509 C 0.67954 0.72395 0.1616 0.0
C510 C 0.58108 0.72274 0.12757 0.0
C511 C 0.62848 0.7088 0.13774 0.0
C512 C 0.55763 0.72087 0.10973 0.0
C513 C 0.55433 0.70016 0.08722 0.0
C514 C 0.60175 0.70409 0.12254 0.0
C515 C 0.57456 0.68056 0.0843 0.0
C516 C 0.65069 0.6934 0.12962 0.0
C517 C 0.65662 0.73783 0.17027 0.0
N518 N 0.59767 0.68331 0.10141 0.0
N519 N 0.63218 0.73021 0.1581 0.0
H520 H 0.75896 0.17049 0.65901 0.0
H521 H 0.82988 0.05315 0.56227 0.0
H522 H 0.8276 0.12561 0.69351 0.0
H523 H 0.7482 0.07751 0.54636 0.0
H524 H 0.83342 0.08546 0.6058 0.0
H525 H 0.75872 0.14211 0.61297 0.0
C526 C 0.77396 0.15465 0.65705 0.0
C527 C 0.79314 0.15034 0.68055 0.0
C528 C 0.8148 0.08377 0.59262 0.0
C529 C 0.79329 0.11809 0.6273 0.0
C530 C 0.81282 0.06548 0.56773 0.0
C531 C 0.78866 0.06251 0.55079 0.0
C532 C 0.79262 0.09948 0.60025 0.0
C533 C 0.76714 0.07893 0.55893 0.0
C534 C 0.77389 0.13856 0.6306 0.0
C535 C 0.81253 0.12997 0.67604 0.0
N536 N 0.76963 0.09668 0.58301 0.0
N537 N 0.81207 0.11457 0.65002 0.0
H538 H 0.34914 0.2394 0.15436 0.0
H539 H 0.4392 0.32369 0.03202 0.0
H540 H 0.36254 0.33034 0.1521 0.0
H541 H 0.43499 0.23218 0.03927 0.0
H542 H 0.40785 0.32604 0.07328 0.0
H543 H 0.37724 0.23591 0.10963 0.0
C544 C 0.35783 0.25863 0.14433 0.0
C545 C 0.35365 0.28519 0.15712 0.0
C546 C 0.41368 0.30541 0.06585 0.0
C547 C 0.3858 0.28135 0.10609 0.0
C548 C 0.4316 0.30403 0.04218 0.0
C549 C 0.43989 0.27768 0.03218 0.0
C550 C 0.40385 0.28027 0.07979 0.0
C551 C 0.42921 0.25296 0.04627 0.0
C552 C 0.37396 0.25661 0.11893 0.0
C553 C 0.36556 0.30939 0.14334 0.0
N554 N 0.4118 0.25485 0.06945 0.0
N555 N 0.38107 0.30688 0.11865 0.0
H556 H 0.83336 0.68629 0.71261 0.0
H557 H 0.91354 0.56228 0.79539 0.0
H558 H 0.81798 0.65534 0.80382 0.0
H559 H 0.92054 0.58221 0.69946 0.0
H560 H 0.87767 0.59566 0.79809 0.0
H561 H 0.86432 0.64779 0.7064 0.0
C562 C 0.83636 0.67129 0.73125 0.0
C563 C 0.82315 0.67416 0.75885 0.0
C564 C 0.88687 0.59266 0.77637 0.0
C565 C 0.8586 0.63011 0.75192 0.0
C566 C 0.90747 0.57363 0.77481 0.0
C567 C 0.92023 0.56956 0.74718 0.0
C568 C 0.87904 0.6081 0.75018 0.0
C569 C 0.91129 0.58472 0.72124 0.0
C570 C 0.85395 0.64926 0.72764 0.0
C571 C 0.82752 0.65387 0.78207 0.0
N572 N 0.89139 0.60353 0.72343 0.0
N573 N 0.84504 0.63293 0.77818 0.0
H574 H 0.85893 0.32217 0.28957 0.0
H575 H 0.93378 0.45953 0.22449 0.0
H576 H 0.82157 0.38005 0.22569 0.0
H577 H 0.95477 0.42599 0.31377 0.0
H578 H 0.89426 0.42778 0.22281 0.0
H579 H 0.89581 0.35737 0.29769 0.0
C580 C 0.8584 0.34238 0.27749 0.0
C581 C 0.83725 0.34823 0.25687 0.0
C582 C 0.90739 0.42745 0.24288 0.0
C583 C 0.87929 0.3882 0.26574 0.0
C584 C 0.93006 0.44542 0.24378 0.0
C585 C 0.94764 0.44526 0.26926 0.0
C586 C 0.90242 0.40868 0.26737 0.0
C587 C 0.94167 0.42675 0.29373 0.0
C588 C 0.87933 0.36243 0.28224 0.0
C589 C 0.83739 0.37476 0.24194 0.0
N590 N 0.91966 0.40887 0.29204 0.0
N591 N 0.85826 0.3936 0.24636 0.0
H592 H 0.17668 0.42127 0.74079 0.0
H593 H 0.03191 0.46496 0.67755 0.0
H594 H 0.13846 0.38177 0.66209 0.0
H595 H 0.06151 0.47936 0.76964 0.0
H596 H 0.07281 0.43937 0.66761 0.0
H597 H 0.13661 0.44847 0.7476 0.0
C598 C 0.1599 0.41849 0.72482 0.0
C599 C 0.16083 0.39917 0.70094 0.0
C600 C 0.07021 0.44817 0.68996 0.0
C601 C 0.11486 0.43015 0.70861 0.0
C602 C 0.04695 0.46277 0.6956 0.0
C603 C 0.0432 0.47415 0.7245 0.0
C604 C 0.08991 0.44543 0.71323 0.0
C605 C 0.06337 0.47075 0.74709 0.0
C606 C 0.13698 0.43387 0.72881 0.0
C607 C 0.1384 0.39622 0.68103 0.0
N608 N 0.08581 0.45683 0.74093 0.0
N609 N 0.11631 0.41159 0.68527 0.0
H610 H 0.18519 0.62847 0.35168 0.0
H611 H 0.06802 0.57134 0.2393 0.0
H612 H 0.16712 0.66572 0.26322 0.0
H613 H 0.07375 0.54513 0.33397 0.0
H614 H 0.10521 0.60512 0.24783 0.0
H615 H 0.14535 0.59711 0.34596 0.0
C616 C 0.17279 0.63023 0.33115 0.0
C617 C 0.17968 0.64972 0.3078 0.0
C618 C 0.09832 0.59213 0.26684 0.0
C619 C 0.13425 0.6136 0.30102 0.0
C620 C 0.07708 0.57273 0.26198 0.0
C621 C 0.06783 0.55525 0.28595 0.0
C622 C 0.11073 0.59402 0.29586 0.0
C623 C 0.08026 0.55821 0.31487 0.0
C624 C 0.15009 0.61224 0.32789 0.0
C625 C 0.16299 0.6507 0.28156 0.0
N626 N 0.10127 0.57711 0.31899 0.0
N627 N 0.14117 0.63285 0.27886 0.0
H628 H 0.70584 0.84239 0.66815 0.0
H629 H 0.78873 0.9438 0.55479 0.0
H630 H 0.78808 0.87062 0.68358 0.0
H631 H 0.70221 0.94027 0.55236 0.0
H632 H 0.7886 0.9109 0.59781 0.0
H633 H 0.70392 0.8727 0.62192 0.0
C634 C 0.72346 0.8549 0.66174 0.0
C635 C 0.74711 0.8542 0.67974 0.0
C636 C 0.76959 0.91724 0.58792 0.0
C637 C 0.74512 0.88846 0.62716 0.0
C638 C 0.76961 0.93601 0.56319 0.0
C639 C 0.7454 0.94504 0.55 0.0
C640 C 0.74521 0.90714 0.59969 0.0
C641 C 0.72133 0.93398 0.56193 0.0
C642 C 0.72231 0.87222 0.63553 0.0
C643 C 0.76935 0.87083 0.67059 0.0
N644 N 0.72182 0.91558 0.58624 0.0
N645 N 0.76782 0.88717 0.64493 0.0
H646 H 0.62652 0.29549 0.17392 0.0
H647 H 0.57675 0.35056 0.0094 0.0
H648 H 0.68154 0.32019 0.10312 0.0
H649 H 0.53358 0.28712 0.06245 0.0
H650 H 0.61232 0.35207 0.04945 0.0
H651 H 0.58918 0.30496 0.13857 0.0
C652 C 0.63085 0.30301 0.15106 0.0
C653 C 0.65738 0.30646 0.14144 0.0
C654 C 0.59483 0.33816 0.05238 0.0
C655 C 0.61457 0.31814 0.1012 0.0
C656 C 0.57455 0.3374 0.02972 0.0
C657 C 0.55242 0.31852 0.03264 0.0
C658 C 0.59248 0.3204 0.07828 0.0
C659 C 0.55051 0.30175 0.05925 0.0
C660 C 0.60948 0.30859 0.131 0.0
C661 C 0.66155 0.31727 0.11176 0.0
N662 N 0.57029 0.30307 0.08105 0.0
N663 N 0.64037 0.32254 0.09263 0.0
H664 H 0.25628 0.18893 0.67805 0.0
H665 H 0.17693 0.08772 0.55913 0.0
H666 H 0.19225 0.21709 0.61818 0.0
H667 H 0.25241 0.0685 0.60345 0.0
H668 H 0.1756 0.13091 0.58956 0.0
H669 H 0.2482 0.14063 0.65984 0.0
C670 C 0.24021 0.18488 0.66145 0.0
C671 C 0.22513 0.20716 0.64935 0.0
C672 C 0.19222 0.11695 0.59292 0.0
C673 C 0.21599 0.15192 0.62812 0.0
C674 C 0.19289 0.09224 0.57574 0.0
C675 C 0.21498 0.07476 0.57854 0.0
C676 C 0.21367 0.12394 0.61315 0.0
C677 C 0.23518 0.08164 0.60029 0.0
C678 C 0.23572 0.15732 0.65092 0.0
C679 C 0.2047 0.20064 0.62767 0.0
N680 N 0.23415 0.10579 0.61657 0.0
N681 N 0.20087 0.17364 0.61754 0.0
H682 H 0.35435 0.78389 0.20918 0.0
H683 H 0.43269 0.6956 0.08779 0.0
H684 H 0.34433 0.69343 0.19686 0.0
H685 H 0.44256 0.78661 0.09561 0.0
H686 H 0.39915 0.69533 0.12678 0.0
H687 H 0.38513 0.78627 0.16656 0.0
C688 C 0.35841 0.76458 0.19734 0.0
C689 C 0.34688 0.73837 0.20678 0.0
C690 C 0.40854 0.71543 0.12001 0.0
C691 C 0.38226 0.74093 0.15826 0.0
C692 C 0.4278 0.71562 0.0977 0.0
C693 C 0.44063 0.74118 0.08846 0.0
C694 C 0.40195 0.74097 0.13348 0.0
C695 C 0.43323 0.76641 0.10208 0.0
C696 C 0.3761 0.76595 0.17314 0.0
C697 C 0.3531 0.71402 0.19079 0.0
N698 N 0.41443 0.76566 0.12404 0.0
N699 N 0.37038 0.71589 0.16746 0.0
H700 H 0.76057 0.19922 0.34669 0.0
H701 H 0.69558 0.05419 0.413 0.0
H702 H 0.69791 0.15196 0.29795 0.0
H703 H 0.77433 0.08795 0.43833 0.0
H704 H 0.69048 0.0942 0.37672 0.0
H705 H 0.75956 0.16316 0.38719 0.0
C706 C 0.74628 0.18148 0.34474 0.0
C707 C 0.72938 0.17853 0.31884 0.0
C708 C 0.70877 0.09279 0.39039 0.0
C709 C 0.72837 0.13693 0.365 0.0
C710 C 0.71165 0.07009 0.4111 0.0
C711 C 0.7355 0.06765 0.42844 0.0
C712 C 0.7297 0.11332 0.3876 0.0
C713 C 0.75573 0.0888 0.42514 0.0
C714 C 0.74588 0.16077 0.36775 0.0
C715 C 0.71151 0.15484 0.31738 0.0
N716 N 0.75235 0.11071 0.40518 0.0
N717 N 0.71152 0.13485 0.34012 0.0
H718 H 0.35127 0.27818 0.77626 0.0
H719 H 0.44623 0.35947 0.89884 0.0
H720 H 0.34313 0.36648 0.7974 0.0
H721 H 0.44013 0.26823 0.8915 0.0
H722 H 0.41117 0.36337 0.85894 0.0
H723 H 0.38647 0.275 0.81579 0.0
C724 C 0.35697 0.29694 0.7892 0.0
C725 C 0.3443 0.32265 0.78348 0.0
C726 C 0.41753 0.34252 0.8661 0.0
C727 C 0.38464 0.31918 0.82886 0.0
C728 C 0.43763 0.34028 0.88876 0.0
C729 C 0.44614 0.31347 0.89856 0.0
C730 C 0.40606 0.31781 0.85295 0.0
C731 C 0.43418 0.28933 0.88476 0.0
C732 C 0.37698 0.29508 0.81187 0.0
C733 C 0.35225 0.34619 0.80123 0.0
N734 N 0.41483 0.29208 0.86265 0.0
N735 N 0.37202 0.34394 0.82302 0.0
H736 H 0.20423 0.82817 0.37733 0.0
H737 H 0.26056 0.97938 0.43092 0.0
H738 H 0.27574 0.87009 0.3432 0.0
H739 H 0.18475 0.94329 0.45992 0.0
H740 H 0.26294 0.94209 0.39353 0.0
H741 H 0.19317 0.87216 0.40236 0.0
C742 C 0.21734 0.84678 0.37462 0.0
C743 C 0.24117 0.84537 0.35857 0.0
C744 C 0.24558 0.94238 0.40774 0.0
C745 C 0.22882 0.89556 0.38739 0.0
C746 C 0.24424 0.96368 0.42915 0.0
C747 C 0.22261 0.96412 0.44879 0.0
C748 C 0.22537 0.92095 0.40625 0.0
C749 C 0.20183 0.94356 0.44525 0.0
C750 C 0.21107 0.87184 0.38903 0.0
C751 C 0.25748 0.87005 0.35593 0.0
N752 N 0.20393 0.92243 0.42471 0.0
N753 N 0.25116 0.894 0.37047 0.0
H754 H 0.66832 0.72037 0.8805 0.0
H755 H 0.55211 0.79892 0.96433 0.0
H756 H 0.65257 0.80874 0.86372 0.0
H757 H 0.55968 0.70797 0.96231 0.0
H758 H 0.58989 0.80428 0.9296 0.0
H759 H 0.62974 0.71664 0.91333 0.0
C760 C 0.65675 0.73902 0.88382 0.0
C761 C 0.66368 0.76489 0.86941 0.0
C762 C 0.5831 0.7832 0.93675 0.0
C763 C 0.6193 0.76082 0.90695 0.0
C764 C 0.56159 0.78014 0.95656 0.0
C765 C 0.55271 0.75298 0.96634 0.0
C766 C 0.59584 0.75893 0.92699 0.0
C767 C 0.56575 0.72936 0.95551 0.0
C768 C 0.63461 0.73687 0.90243 0.0
C769 C 0.64775 0.78832 0.87422 0.0
N770 N 0.58663 0.73292 0.93662 0.0
N771 N 0.62635 0.78578 0.89273 0.0
loop_
_geom_bond_atom_site_label_1
_geom_bond_atom_site_label_2
_geom_bond_distance
_geom_bond_site_symmetry_2
_ccdc_geom_bond_type
P0 O11 1.490 . S
P0 C14 1.812 . S
P0 C20 1.803 . S
P0 C26 1.819 . S
H1 C15 0.941 . S
H2 C16 0.939 . S
H3 C18 0.940 . S
H4 C19 0.940 . S
H5 C21 0.939 . S
H6 C22 0.942 . S
H7 C24 0.940 . S
H8 C25 0.939 . S
H9 C27 0.941 . S
H10 C31 0.939 . S
O11 P0 1.490 . S
H12 C28 0.939 . S
H13 C30 0.940 . S
C14 P0 1.812 . S
C14 C15 1.389 . S
C14 C19 1.391 . S
C15 H1 0.941 . S
C15 C14 1.389 . S
C15 C16 1.397 . S
C16 H2 0.939 . S
C16 C15 1.397 . S
C16 C17 1.378 . S
C17 C16 1.378 . S
C17 C18 1.378 . S
C18 H3 0.940 . S
C18 C17 1.378 . S
C18 C19 1.396 . S
C19 H4 0.940 . S
C19 C14 1.391 . S
C19 C18 1.396 . S
C20 P0 1.803 . S
C20 C21 1.378 . S
C20 C25 1.400 . S
C21 H5 0.939 . S
C21 C20 1.378 . S
C21 C22 1.361 . S
C22 H6 0.942 . S
C22 C21 1.361 . S
C22 C23 1.369 . S
C23 C22 1.369 . S
C23 C24 1.404 . S
C24 H7 0.940 . S
C24 C23 1.404 . S
C24 C25 1.389 . S
C25 H8 0.939 . S
C25 C20 1.400 . S
C25 C24 1.389 . S
C26 P0 1.819 . S
C26 C27 1.391 . S
C26 C31 1.391 . S
C27 H9 0.941 . S
C27 C26 1.391 . S
C27 C28 1.396 . S
C28 H12 0.939 . S
C28 C27 1.396 . S
C28 C29 1.397 . S
C29 C28 1.397 . S
C29 C30 1.385 . S
C30 H13 0.940 . S
C30 C29 1.385 . S
C30 C31 1.388 . S
C31 H10 0.939 . S
C31 C26 1.391 . S
C31 C30 1.388 . S
P32 O43 1.490 . S
P32 C46 1.812 . S
P32 C52 1.803 . S
P32 C58 1.819 . S
H33 C47 0.941 . S
H34 C48 0.939 . S
H35 C50 0.940 . S
H36 C51 0.940 . S
H37 C53 0.939 . S
H38 C54 0.942 . S
H39 C56 0.940 . S
H40 C57 0.939 . S
H41 C59 0.941 . S
H42 C63 0.939 . S
O43 P32 1.490 . S
H44 C60 0.939 . S
H45 C62 0.940 . S
C46 P32 1.812 . S
C46 C47 1.389 . S
C46 C51 1.391 . S
C47 H33 0.941 . S
C47 C46 1.389 . S
C47 C48 1.397 . S
C48 H34 0.939 . S
C48 C47 1.397 . S
C48 C49 1.378 . S
C49 C48 1.378 . S
C49 C50 1.378 . S
C50 H35 0.940 . S
C50 C49 1.378 . S
C50 C51 1.396 . S
C51 H36 0.940 . S
C51 C46 1.391 . S
C51 C50 1.396 . S
C52 P32 1.803 . S
C52 C53 1.378 . S
C52 C57 1.400 . S
C53 H37 0.939 . S
C53 C52 1.378 . S
C53 C54 1.361 . S
C54 H38 0.942 . S
C54 C53 1.361 . S
C54 C55 1.369 . S
C55 C54 1.369 . S
C55 C56 1.404 . S
C56 H39 0.940 . S
C56 C55 1.404 . S
C56 C57 1.389 . S
C57 H40 0.939 . S
C57 C52 1.400 . S
C57 C56 1.389 . S
C58 P32 1.819 . S
C58 C59 1.391 . S
C58 C63 1.391 . S
C59 H41 0.941 . S
C59 C58 1.391 . S
C59 C60 1.396 . S
C60 H44 0.939 . S
C60 C59 1.396 . S
C60 C61 1.397 . S
C61 C60 1.397 . S
C61 C62 1.385 . S
C62 H45 0.940 . S
C62 C61 1.385 . S
C62 C63 1.388 . S
C63 H42 0.939 . S
C63 C58 1.391 . S
C63 C62 1.388 . S
P64 O75 1.490 . S
P64 C78 1.812 . S
P64 C84 1.803 . S
P64 C90 1.819 . S
H65 C79 0.941 . S
H66 C80 0.939 . S
H67 C82 0.940 . S
H68 C83 0.940 . S
H69 C85 0.939 . S
H70 C86 0.942 . S
H71 C88 0.940 . S
H72 C89 0.939 . S
H73 C91 0.941 . S
H74 C95 0.939 . S
O75 P64 1.490 . S
H76 C92 0.939 . S
H77 C94 0.940 . S
C78 P64 1.812 . S
C78 C79 1.389 . S
C78 C83 1.391 . S
C79 H65 0.941 . S
C79 C78 1.389 . S
C79 C80 1.397 . S
C80 H66 0.939 . S
C80 C79 1.397 . S
C80 C81 1.378 . S
C81 C80 1.378 . S
C81 C82 1.378 . S
C82 H67 0.940 . S
C82 C81 1.378 . S
C82 C83 1.396 . S
C83 H68 0.940 . S
C83 C78 1.391 . S
C83 C82 1.396 . S
C84 P64 1.803 . S
C84 C85 1.378 . S
C84 C89 1.400 . S
C85 H69 0.939 . S
C85 C84 1.378 . S
C85 C86 1.361 . S
C86 H70 0.942 . S
C86 C85 1.361 . S
C86 C87 1.369 . S
C87 C86 1.369 . S
C87 C88 1.404 . S
C88 H71 0.940 . S
C88 C87 1.404 . S
C88 C89 1.389 . S
C89 H72 0.939 . S
C89 C84 1.400 . S
C89 C88 1.389 . S
C90 P64 1.819 . S
C90 C91 1.391 . S
C90 C95 1.391 . S
C91 H73 0.941 . S
C91 C90 1.391 . S
C91 C92 1.396 . S
C92 H76 0.939 . S
C92 C91 1.396 . S
C92 C93 1.397 . S
C93 C92 1.397 . S
C93 C94 1.385 . S
C94 H77 0.940 . S
C94 C93 1.385 . S
C94 C95 1.388 . S
C95 H74 0.939 . S
C95 C90 1.391 . S
C95 C94 1.388 . S
P96 O107 1.490 . S
P96 C110 1.812 . S
P96 C116 1.803 . S
P96 C122 1.819 . S
H97 C111 0.941 . S
H98 C112 0.939 . S
H99 C114 0.940 . S
H100 C115 0.940 . S
H101 C117 0.939 . S
H102 C118 0.942 . S
H103 C120 0.940 . S
H104 C121 0.939 . S
H105 C123 0.941 . S
H106 C127 0.939 . S
O107 P96 1.490 . S
H108 C124 0.939 . S
H109 C126 0.940 . S
C110 P96 1.812 . S
C110 C111 1.389 . S
C110 C115 1.391 . S
C111 H97 0.941 . S
C111 C110 1.389 . S
C111 C112 1.397 . S
C112 H98 0.939 . S
C112 C111 1.397 . S
C112 C113 1.378 . S
C113 C112 1.378 . S
C113 C114 1.378 . S
C114 H99 0.940 . S
C114 C113 1.378 . S
C114 C115 1.396 . S
C115 H100 0.940 . S
C115 C110 1.391 . S
C115 C114 1.396 . S
C116 P96 1.803 . S
C116 C117 1.378 . S
C116 C121 1.400 . S
C117 H101 0.939 . S
C117 C116 1.378 . S
C117 C118 1.361 . S
C118 H102 0.942 . S
C118 C117 1.361 . S
C118 C119 1.369 . S
C119 C118 1.369 . S
C119 C120 1.404 . S
C120 H103 0.940 . S
C120 C119 1.404 . S
C120 C121 1.389 . S
C121 H104 0.939 . S
C121 C116 1.400 . S
C121 C120 1.389 . S
C122 P96 1.819 . S
C122 C123 1.391 . S
C122 C127 1.391 . S
C123 H105 0.941 . S
C123 C122 1.391 . S
C123 C124 1.396 . S
C124 H108 0.939 . S
C124 C123 1.396 . S
C124 C125 1.397 . S
C125 C124 1.397 . S
C125 C126 1.385 . S
C126 H109 0.940 . S
C126 C125 1.385 . S
C126 C127 1.388 . S
C127 H106 0.939 . S
C127 C122 1.391 . S
C127 C126 1.388 . S
P128 O139 1.490 . S
P128 C142 1.812 . S
P128 C148 1.803 . S
P128 C154 1.819 . S
H129 C143 0.941 . S
H130 C144 0.939 . S
H131 C146 0.940 . S
H132 C147 0.940 . S
H133 C149 0.939 . S
H134 C150 0.942 . S
H135 C152 0.940 . S
H136 C153 0.939 . S
H137 C155 0.941 . S
H138 C159 0.939 . S
O139 P128 1.490 . S
H140 C156 0.939 . S
H141 C158 0.940 . S
C142 P128 1.812 . S
C142 C143 1.389 . S
C142 C147 1.391 . S
C143 H129 0.941 . S
C143 C142 1.389 . S
C143 C144 1.397 . S
C144 H130 0.939 . S
C144 C143 1.397 . S
C144 C145 1.378 . S
C145 C144 1.378 . S
C145 C146 1.378 . S
C146 H131 0.940 . S
C146 C145 1.378 . S
C146 C147 1.396 . S
C147 H132 0.940 . S
C147 C142 1.391 . S
C147 C146 1.396 . S
C148 P128 1.803 . S
C148 C149 1.378 . S
C148 C153 1.400 . S
C149 H133 0.939 . S
C149 C148 1.378 . S
C149 C150 1.361 . S
C150 H134 0.942 . S
C150 C149 1.361 . S
C150 C151 1.369 . S
C151 C150 1.369 . S
C151 C152 1.404 . S
C152 H135 0.940 . S
C152 C151 1.404 . S
C152 C153 1.389 . S
C153 H136 0.939 . S
C153 C148 1.400 . S
C153 C152 1.389 . S
C154 P128 1.819 . S
C154 C155 1.391 . S
C154 C159 1.391 . S
C155 H137 0.941 . S
C155 C154 1.391 . S
C155 C156 1.396 . S
C156 H140 0.939 . S
C156 C155 1.396 . S
C156 C157 1.397 . S
C157 C156 1.397 . S
C157 C158 1.385 . S
C158 H141 0.940 . S
C158 C157 1.385 . S
C158 C159 1.388 . S
C159 H138 0.939 . S
C159 C154 1.391 . S
C159 C158 1.388 . S
P160 O171 1.490 . S
P160 C174 1.812 . S
P160 C180 1.803 . S
P160 C186 1.819 . S
H161 C175 0.941 . S
H162 C176 0.939 . S
H163 C178 0.940 . S
H164 C179 0.940 . S
H165 C181 0.939 . S
H166 C182 0.942 . S
H167 C184 0.940 . S
H168 C185 0.939 . S
H169 C187 0.941 . S
H170 C191 0.939 . S
O171 P160 1.490 . S
H172 C188 0.939 . S
H173 C190 0.940 . S
C174 P160 1.812 . S
C174 C175 1.389 . S
C174 C179 1.391 . S
C175 H161 0.941 . S
C175 C174 1.389 . S
C175 C176 1.397 . S
C176 H162 0.939 . S
C176 C175 1.397 . S
C176 C177 1.378 . S
C177 C176 1.378 . S
C177 C178 1.378 . S
C178 H163 0.940 . S
C178 C177 1.378 . S
C178 C179 1.396 . S
C179 H164 0.940 . S
C179 C174 1.391 . S
C179 C178 1.396 . S
C180 P160 1.803 . S
C180 C181 1.378 . S
C180 C185 1.400 . S
C181 H165 0.939 . S
C181 C180 1.378 . S
C181 C182 1.361 . S
C182 H166 0.942 . S
C182 C181 1.361 . S
C182 C183 1.369 . S
C183 C182 1.369 . S
C183 C184 1.404 . S
C184 H167 0.940 . S
C184 C183 1.404 . S
C184 C185 1.389 . S
C185 H168 0.939 . S
C185 C180 1.400 . S
C185 C184 1.389 . S
C186 P160 1.819 . S
C186 C187 1.391 . S
C186 C191 1.391 . S
C187 H169 0.941 . S
C187 C186 1.391 . S
C187 C188 1.396 . S
C188 H172 0.939 . S
C188 C187 1.396 . S
C188 C189 1.397 . S
C189 C188 1.397 . S
C189 C190 1.385 . S
C190 H173 0.940 . S
C190 C189 1.385 . S
C190 C191 1.388 . S
C191 H170 0.939 . S
C191 C186 1.391 . S
C191 C190 1.388 . S
P192 O203 1.490 . S
P192 C206 1.812 . S
P192 C212 1.803 . S
P192 C218 1.819 . S
H193 C207 0.941 . S
H194 C208 0.939 . S
H195 C210 0.940 . S
H196 C211 0.940 . S
H197 C213 0.939 . S
H198 C214 0.942 . S
H199 C216 0.940 . S
H200 C217 0.939 . S
H201 C219 0.941 . S
H202 C223 0.939 . S
O203 P192 1.490 . S
H204 C220 0.939 . S
H205 C222 0.940 . S
C206 P192 1.812 . S
C206 C207 1.389 . S
C206 C211 1.391 . S
C207 H193 0.941 . S
C207 C206 1.389 . S
C207 C208 1.397 . S
C208 H194 0.939 . S
C208 C207 1.397 . S
C208 C209 1.378 . S
C209 C208 1.378 . S
C209 C210 1.378 . S
C210 H195 0.940 . S
C210 C209 1.378 . S
C210 C211 1.396 . S
C211 H196 0.940 . S
C211 C206 1.391 . S
C211 C210 1.396 . S
C212 P192 1.803 . S
C212 C213 1.378 . S
C212 C217 1.400 . S
C213 H197 0.939 . S
C213 C212 1.378 . S
C213 C214 1.361 . S
C214 H198 0.942 . S
C214 C213 1.361 . S
C214 C215 1.369 . S
C215 C214 1.369 . S
C215 C216 1.404 . S
C216 H199 0.940 . S
C216 C215 1.404 . S
C216 C217 1.389 . S
C217 H200 0.939 . S
C217 C212 1.400 . S
C217 C216 1.389 . S
C218 P192 1.819 . S
C218 C219 1.391 . S
C218 C223 1.391 . S
C219 H201 0.941 . S
C219 C218 1.391 . S
C219 C220 1.396 . S
C220 H204 0.939 . S
C220 C219 1.396 . S
C220 C221 1.397 . S
C221 C220 1.397 . S
C221 C222 1.385 . S
C222 H205 0.940 . S
C222 C221 1.385 . S
C222 C223 1.388 . S
C223 H202 0.939 . S
C223 C218 1.391 . S
C223 C222 1.388 . S
P224 O235 1.490 . S
P224 C238 1.812 . S
P224 C244 1.803 . S
P224 C250 1.819 . S
H225 C239 0.941 . S
H226 C240 0.939 . S
H227 C242 0.940 . S
H228 C243 0.940 . S
H229 C245 0.939 . S
H230 C246 0.942 . S
H231 C248 0.940 . S
H232 C249 0.939 . S
H233 C251 0.941 . S
H234 C255 0.939 . S
O235 P224 1.490 . S
H236 C252 0.939 . S
H237 C254 0.940 . S
C238 P224 1.812 . S
C238 C239 1.389 . S
C238 C243 1.391 . S
C239 H225 0.941 . S
C239 C238 1.389 . S
C239 C240 1.397 . S
C240 H226 0.939 . S
C240 C239 1.397 . S
C240 C241 1.378 . S
C241 C240 1.378 . S
C241 C242 1.378 . S
C242 H227 0.940 . S
C242 C241 1.378 . S
C242 C243 1.396 . S
C243 H228 0.940 . S
C243 C238 1.391 . S
C243 C242 1.396 . S
C244 P224 1.803 . S
C244 C245 1.378 . S
C244 C249 1.400 . S
C245 H229 0.939 . S
C245 C244 1.378 . S
C245 C246 1.361 . S
C246 H230 0.942 . S
C246 C245 1.361 . S
C246 C247 1.369 . S
C247 C246 1.369 . S
C247 C248 1.404 . S
C248 H231 0.940 . S
C248 C247 1.404 . S
C248 C249 1.389 . S
C249 H232 0.939 . S
C249 C244 1.400 . S
C249 C248 1.389 . S
C250 P224 1.819 . S
C250 C251 1.391 . S
C250 C255 1.391 . S
C251 H233 0.941 . S
C251 C250 1.391 . S
C251 C252 1.396 . S
C252 H236 0.939 . S
C252 C251 1.396 . S
C252 C253 1.397 . S
C253 C252 1.397 . S
C253 C254 1.385 . S
C254 H237 0.940 . S
C254 C253 1.385 . S
C254 C255 1.388 . S
C255 H234 0.939 . S
C255 C250 1.391 . S
C255 C254 1.388 . S
C256 O258 1.247 . S
C256 O260 1.258 . S
C257 O264 1.247 . S
C257 O265 1.258 . S
O258 C256 1.247 . S
O258 Zn259 2.028 1_655 S
Zn259 O258 2.028 1_455 S
Zn259 O263 2.035 . S
Zn259 O265 2.035 . S
Zn259 O266 2.028 1_455 S
O260 C256 1.258 . S
O260 Zn261 2.035 1_655 S
Zn261 O260 2.035 1_455 S
Zn261 O262 2.028 . S
Zn261 O264 2.028 . S
Zn261 O267 2.035 1_455 S
O262 Zn261 2.028 . S
O262 C268 1.247 . S
O263 Zn259 2.035 . S
O263 C268 1.258 . S
O264 C257 1.247 . S
O264 Zn261 2.028 . S
O265 C257 1.258 . S
O265 Zn259 2.035 . S
O266 Zn259 2.028 1_655 S
O266 C269 1.247 . S
O267 Zn261 2.035 1_655 S
O267 C269 1.258 . S
C268 O262 1.247 . S
C268 O263 1.258 . S
C269 O266 1.247 . S
C269 O267 1.258 . S
C270 O272 1.247 . S
C270 O274 1.258 . S
C271 O278 1.247 . S
C271 O279 1.258 . S
O272 C270 1.247 . S
O272 Zn273 2.028 1_655 S
Zn273 O272 2.028 1_455 S
Zn273 O277 2.035 . S
Zn273 O279 2.035 . S
Zn273 O280 2.028 1_455 S
O274 C270 1.258 . S
O274 Zn275 2.046 . S
Zn275 O274 2.046 . S
Zn275 O276 2.017 1_655 S
Zn275 O278 2.018 1_655 S
Zn275 O281 2.046 . S
O276 Zn275 2.017 1_455 S
O276 C282 1.247 . S
O277 Zn273 2.035 . S
O277 C282 1.258 . S
O278 C271 1.247 . S
O278 Zn275 2.018 1_455 S
O279 C271 1.258 . S
O279 Zn273 2.035 . S
O280 Zn273 2.028 1_655 S
O280 C283 1.247 . S
O281 Zn275 2.046 . S
O281 C283 1.258 . S
C282 O276 1.247 . S
C282 O277 1.258 . S
C283 O280 1.247 . S
C283 O281 1.258 . S
C284 O286 1.247 . S
C284 O288 1.258 . S
C285 O292 1.247 . S
C285 O293 1.258 . S
O286 C284 1.247 . S
O286 Zn287 2.028 1_565 S
Zn287 O286 2.028 1_545 S
Zn287 O291 2.035 . S
Zn287 O293 2.035 . S
Zn287 O294 2.028 1_545 S
O288 C284 1.258 . S
O288 Zn289 2.035 1_565 S
Zn289 O288 2.035 1_545 S
Zn289 O290 2.028 . S
Zn289 O292 2.028 . S
Zn289 O295 2.035 1_545 S
O290 Zn289 2.028 . S
O290 C296 1.247 . S
O291 Zn287 2.035 . S
O291 C296 1.258 . S
O292 C285 1.247 . S
O292 Zn289 2.028 . S
O293 C285 1.258 . S
O293 Zn287 2.035 . S
O294 Zn287 2.028 1_565 S
O294 C297 1.247 . S
O295 Zn289 2.035 1_565 S
O295 C297 1.258 . S
C296 O290 1.247 . S
C296 O291 1.258 . S
C297 O294 1.247 . S
C297 O295 1.258 . S
C298 O300 1.247 . S
C298 O302 1.258 . S
C299 O306 1.247 . S
C299 O307 1.258 . S
O300 C298 1.247 . S
O300 Zn301 2.028 . S
Zn301 O300 2.028 . S
Zn301 O305 2.035 . S
Zn301 O307 2.035 1_554 S
Zn301 O308 2.028 1_554 S
O302 C298 1.258 . S
O302 Zn303 2.062 . S
Zn303 O302 2.062 . S
Zn303 O304 2.056 . S
Zn303 O306 2.001 1_554 S
Zn303 O309 2.008 1_554 S
O304 Zn303 2.056 . S
O304 C310 1.247 . S
O305 Zn301 2.035 . S
O305 C310 1.258 . S
O306 C299 1.247 . S
O306 Zn303 2.001 1_556 S
O307 C299 1.258 . S
O307 Zn301 2.035 1_556 S
O308 Zn301 2.028 1_556 S
O308 C311 1.247 . S
O309 Zn303 2.008 1_556 S
O309 C311 1.258 . S
C310 O304 1.247 . S
C310 O305 1.258 . S
C311 O308 1.247 . S
C311 O309 1.258 . S
C312 O314 1.247 . S
C312 O316 1.258 . S
C313 O320 1.247 . S
C313 O321 1.258 . S
O314 C312 1.247 . S
O314 Zn315 2.028 . S
Zn315 O314 2.028 . S
Zn315 O319 2.035 1_565 S
Zn315 O321 2.035 1_565 S
Zn315 O322 2.028 . S
O316 C312 1.258 . S
O316 Zn317 2.035 1_565 S
Zn317 O316 2.035 1_545 S
Zn317 O318 2.028 . S
Zn317 O320 2.028 . S
Zn317 O323 2.035 1_545 S
O318 Zn317 2.028 . S
O318 C324 1.247 . S
O319 Zn315 2.035 1_545 S
O319 C324 1.258 . S
O320 C313 1.247 . S
O320 Zn317 2.028 . S
O321 C313 1.258 . S
O321 Zn315 2.035 1_545 S
O322 Zn315 2.028 . S
O322 C325 1.247 . S
O323 Zn317 2.035 1_565 S
O323 C325 1.258 . S
C324 O318 1.247 . S
C324 O319 1.258 . S
C325 O322 1.247 . S
C325 O323 1.258 . S
C326 O328 1.247 . S
C326 O330 1.258 . S
C327 O334 1.247 . S
C327 O335 1.258 . S
O328 C326 1.247 . S
O328 Zn329 2.028 . S
Zn329 O328 2.028 . S
Zn329 O333 2.035 . S
Zn329 O335 2.035 1_554 S
Zn329 O336 2.028 1_554 S
O330 C326 1.258 . S
O330 Zn331 2.031 1_554 S
Zn331 O330 2.031 1_556 S
Zn331 O332 2.024 1_556 S
Zn331 O334 2.032 . S
Zn331 O337 2.039 . S
O332 Zn331 2.024 1_554 S
O332 C338 1.247 . S
O333 Zn329 2.035 . S
O333 C338 1.258 . S
O334 C327 1.247 . S
O334 Zn331 2.032 . S
O335 C327 1.258 . S
O335 Zn329 2.035 1_556 S
O336 Zn329 2.028 1_556 S
O336 C339 1.247 . S
O337 Zn331 2.039 . S
O337 C339 1.258 . S
C338 O332 1.247 . S
C338 O333 1.258 . S
C339 O336 1.247 . S
C339 O337 1.258 . S
H340 C346 0.930 . S
H341 C350 0.930 . S
H342 C355 0.929 . S
H343 C353 0.929 . S
H344 C348 0.929 . S
H345 C354 0.929 . S
C346 H340 0.930 . S
C346 C347 1.367 . S
C346 C354 1.378 . S
C347 C346 1.367 . S
C347 C355 1.433 . S
C348 H344 0.929 . S
C348 C350 1.378 . S
C348 C352 1.350 . S
C349 C352 1.463 . S
C349 C354 1.350 . S
C349 N357 1.427 . S
C350 H341 0.930 . S
C350 C348 1.378 . S
C350 C351 1.367 . S
C351 C350 1.367 . S
C351 C353 1.433 . S
C352 C348 1.350 . S
C352 C349 1.463 . S
C352 N356 1.427 . S
C353 H343 0.929 . S
C353 C351 1.433 . S
C353 N356 1.384 . S
C354 H345 0.929 . S
C354 C346 1.378 . S
C354 C349 1.350 . S
C355 H342 0.929 . S
C355 C347 1.433 . S
C355 N357 1.384 . S
N356 C352 1.427 . S
N356 C353 1.384 . S
N357 C349 1.427 . S
N357 C355 1.384 . S
H358 C364 0.930 . S
H359 C368 0.930 . S
H360 C373 0.929 . S
H361 C371 0.929 . S
H362 C366 0.929 . S
H363 C372 0.929 . S
C364 H358 0.930 . S
C364 C365 1.367 . S
C364 C372 1.378 . S
C365 C364 1.367 . S
C365 C373 1.433 . S
C366 H362 0.929 . S
C366 C368 1.378 . S
C366 C370 1.350 . S
C367 C370 1.463 . S
C367 C372 1.350 . S
C367 N375 1.427 . S
C368 H359 0.930 . S
C368 C366 1.378 . S
C368 C369 1.367 . S
C369 C368 1.367 . S
C369 C371 1.433 . S
C370 C366 1.350 . S
C370 C367 1.463 . S
C370 N374 1.427 . S
C371 H361 0.929 . S
C371 C369 1.433 . S
C371 N374 1.384 . S
C372 H363 0.929 . S
C372 C364 1.378 . S
C372 C367 1.350 . S
C373 H360 0.929 . S
C373 C365 1.433 . S
C373 N375 1.384 . S
N374 C370 1.427 . S
N374 C371 1.384 . S
N375 C367 1.427 . S
N375 C373 1.384 . S
H376 C382 0.930 . S
H377 C386 0.930 . S
H378 C391 0.929 . S
H379 C389 0.929 . S
H380 C384 0.929 . S
H381 C390 0.929 . S
C382 H376 0.930 . S
C382 C383 1.367 . S
C382 C390 1.378 . S
C383 C382 1.367 . S
C383 C391 1.433 . S
C384 H380 0.929 . S
C384 C386 1.378 . S
C384 C388 1.350 . S
C385 C388 1.463 . S
C385 C390 1.350 . S
C385 N393 1.427 . S
C386 H377 0.930 . S
C386 C384 1.378 . S
C386 C387 1.367 . S
C387 C386 1.367 . S
C387 C389 1.433 . S
C388 C384 1.350 . S
C388 C385 1.463 . S
C388 N392 1.427 . S
C389 H379 0.929 . S
C389 C387 1.433 . S
C389 N392 1.384 . S
C390 H381 0.929 . S
C390 C382 1.378 . S
C390 C385 1.350 . S
C391 H378 0.929 . S
C391 C383 1.433 . S
C391 N393 1.384 . S
N392 C388 1.427 . S
N392 C389 1.384 . S
N393 C385 1.427 . S
N393 C391 1.384 . S
H394 C400 0.930 . S
H395 C404 0.930 . S
H396 C409 0.929 . S
H397 C407 0.929 . S
H398 C402 0.929 . S
H399 C408 0.929 . S
C400 H394 0.930 . S
C400 C401 1.367 . S
C400 C408 1.378 . S
C401 C400 1.367 . S
C401 C409 1.433 . S
C402 H398 0.929 . S
C402 C404 1.378 . S
C402 C406 1.350 . S
C403 C406 1.463 . S
C403 C408 1.350 . S
C403 N411 1.427 . S
C404 H395 0.930 . S
C404 C402 1.378 . S
C404 C405 1.367 . S
C405 C404 1.367 . S
C405 C407 1.433 . S
C406 C402 1.350 . S
C406 C403 1.463 . S
C406 N410 1.427 . S
C407 H397 0.929 . S
C407 C405 1.433 . S
C407 N410 1.384 . S
C408 H399 0.929 . S
C408 C400 1.378 . S
C408 C403 1.350 . S
C409 H396 0.929 . S
C409 C401 1.433 . S
C409 N411 1.384 . S
N410 C406 1.427 . S
N410 C407 1.384 . S
N411 C403 1.427 . S
N411 C409 1.384 . S
H412 C418 0.930 . S
H413 C422 0.930 . S
H414 C427 0.929 . S
H415 C425 0.929 . S
H416 C420 0.929 . S
H417 C426 0.929 . S
C418 H412 0.930 . S
C418 C419 1.367 . S
C418 C426 1.378 . S
C419 C418 1.367 . S
C419 C427 1.433 . S
C420 H416 0.929 . S
C420 C422 1.378 . S
C420 C424 1.350 . S
C421 C424 1.463 . S
C421 C426 1.350 . S
C421 N429 1.427 . S
C422 H413 0.930 . S
C422 C420 1.378 . S
C422 C423 1.367 . S
C423 C422 1.367 . S
C423 C425 1.433 . S
C424 C420 1.350 . S
C424 C421 1.463 . S
C424 N428 1.427 . S
C425 H415 0.929 . S
C425 C423 1.433 . S
C425 N428 1.384 . S
C426 H417 0.929 . S
C426 C418 1.378 . S
C426 C421 1.350 . S
C427 H414 0.929 . S
C427 C419 1.433 . S
C427 N429 1.384 . S
N428 C424 1.427 . S
N428 C425 1.384 . S
N429 C421 1.427 . S
N429 C427 1.384 . S
H430 C436 0.930 . S
H431 C440 0.930 . S
H432 C445 0.929 . S
H433 C443 0.929 . S
H434 C438 0.929 . S
H435 C444 0.929 . S
C436 H430 0.930 . S
C436 C437 1.367 . S
C436 C444 1.378 . S
C437 C436 1.367 . S
C437 C445 1.433 . S
C438 H434 0.929 . S
C438 C440 1.378 . S
C438 C442 1.350 . S
C439 C442 1.463 . S
C439 C444 1.350 . S
C439 N447 1.427 . S
C440 H431 0.930 . S
C440 C438 1.378 . S
C440 C441 1.367 . S
C441 C440 1.367 . S
C441 C443 1.433 . S
C442 C438 1.350 . S
C442 C439 1.463 . S
C442 N446 1.427 . S
C443 H433 0.929 . S
C443 C441 1.433 . S
C443 N446 1.384 . S
C444 H435 0.929 . S
C444 C436 1.378 . S
C444 C439 1.350 . S
C445 H432 0.929 . S
C445 C437 1.433 . S
C445 N447 1.384 . S
N446 C442 1.427 . S
N446 C443 1.384 . S
N447 C439 1.427 . S
N447 C445 1.384 . S
H448 C454 0.930 . S
H449 C458 0.930 . S
H450 C463 0.929 . S
H451 C461 0.929 . S
H452 C456 0.929 . S
H453 C462 0.929 . S
C454 H448 0.930 . S
C454 C455 1.367 . S
C454 C462 1.378 . S
C455 C454 1.367 . S
C455 C463 1.433 . S
C456 H452 0.929 . S
C456 C458 1.378 . S
C456 C460 1.350 . S
C457 C460 1.463 . S
C457 C462 1.350 . S
C457 N465 1.427 . S
C458 H449 0.930 . S
C458 C456 1.378 . S
C458 C459 1.367 . S
C459 C458 1.367 . S
C459 C461 1.433 . S
C460 C456 1.350 . S
C460 C457 1.463 . S
C460 N464 1.427 . S
C461 H451 0.929 . S
C461 C459 1.433 . S
C461 N464 1.384 . S
C462 H453 0.929 . S
C462 C454 1.378 . S
C462 C457 1.350 . S
C463 H450 0.929 . S
C463 C455 1.433 . S
C463 N465 1.384 . S
N464 C460 1.427 . S
N464 C461 1.384 . S
N465 C457 1.427 . S
N465 C463 1.384 . S
H466 C472 0.930 . S
H467 C476 0.930 . S
H468 C481 0.929 . S
H469 C479 0.929 . S
H470 C474 0.929 . S
H471 C480 0.929 . S
C472 H466 0.930 . S
C472 C473 1.367 . S
C472 C480 1.378 . S
C473 C472 1.367 . S
C473 C481 1.433 . S
C474 H470 0.929 . S
C474 C476 1.378 . S
C474 C478 1.350 . S
C475 C478 1.463 . S
C475 C480 1.350 . S
C475 N483 1.427 . S
C476 H467 0.930 . S
C476 C474 1.378 . S
C476 C477 1.367 . S
C477 C476 1.367 . S
C477 C479 1.433 . S
C478 C474 1.350 . S
C478 C475 1.463 . S
C478 N482 1.427 . S
C479 H469 0.929 . S
C479 C477 1.433 . S
C479 N482 1.384 . S
C480 H471 0.929 . S
C480 C472 1.378 . S
C480 C475 1.350 . S
C481 H468 0.929 . S
C481 C473 1.433 . S
C481 N483 1.384 . S
N482 C478 1.427 . S
N482 C479 1.384 . S
N483 C475 1.427 . S
N483 C481 1.384 . S
H484 C490 0.930 . S
H485 C494 0.930 . S
H486 C499 0.929 . S
H487 C497 0.929 . S
H488 C492 0.929 . S
H489 C498 0.929 . S
C490 H484 0.930 . S
C490 C491 1.367 . S
C490 C498 1.378 . S
C491 C490 1.367 . S
C491 C499 1.433 . S
C492 H488 0.929 . S
C492 C494 1.378 . S
C492 C496 1.350 . S
C493 C496 1.463 . S
C493 C498 1.350 . S
C493 N501 1.427 . S
C494 H485 0.930 . S
C494 C492 1.378 . S
C494 C495 1.367 . S
C495 C494 1.367 . S
C495 C497 1.433 . S
C496 C492 1.350 . S
C496 C493 1.463 . S
C496 N500 1.427 . S
C497 H487 0.929 . S
C497 C495 1.433 . S
C497 N500 1.384 . S
C498 H489 0.929 . S
C498 C490 1.378 . S
C498 C493 1.350 . S
C499 H486 0.929 . S
C499 C491 1.433 . S
C499 N501 1.384 . S
N500 C496 1.427 . S
N500 C497 1.384 . S
N501 C493 1.427 . S
N501 C499 1.384 . S
H502 C508 0.930 . S
H503 C512 0.930 . S
H504 C517 0.929 . S
H505 C515 0.929 . S
H506 C510 0.929 . S
H507 C516 0.929 . S
C508 H502 0.930 . S
C508 C509 1.367 . S
C508 C516 1.378 . S
C509 C508 1.367 . S
C509 C517 1.433 . S
C510 H506 0.929 . S
C510 C512 1.378 . S
C510 C514 1.350 . S
C511 C514 1.463 . S
C511 C516 1.350 . S
C511 N519 1.427 . S
C512 H503 0.930 . S
C512 C510 1.378 . S
C512 C513 1.367 . S
C513 C512 1.367 . S
C513 C515 1.433 . S
C514 C510 1.350 . S
C514 C511 1.463 . S
C514 N518 1.427 . S
C515 H505 0.929 . S
C515 C513 1.433 . S
C515 N518 1.384 . S
C516 H507 0.929 . S
C516 C508 1.378 . S
C516 C511 1.350 . S
C517 H504 0.929 . S
C517 C509 1.433 . S
C517 N519 1.384 . S
N518 C514 1.427 . S
N518 C515 1.384 . S
N519 C511 1.427 . S
N519 C517 1.384 . S
H520 C526 0.930 . S
H521 C530 0.930 . S
H522 C535 0.929 . S
H523 C533 0.929 . S
H524 C528 0.929 . S
H525 C534 0.929 . S
C526 H520 0.930 . S
C526 C527 1.367 . S
C526 C534 1.378 . S
C527 C526 1.367 . S
C527 C535 1.433 . S
C528 H524 0.929 . S
C528 C530 1.378 . S
C528 C532 1.350 . S
C529 C532 1.463 . S
C529 C534 1.350 . S
C529 N537 1.427 . S
C530 H521 0.930 . S
C530 C528 1.378 . S
C530 C531 1.367 . S
C531 C530 1.367 . S
C531 C533 1.433 . S
C532 C528 1.350 . S
C532 C529 1.463 . S
C532 N536 1.427 . S
C533 H523 0.929 . S
C533 C531 1.433 . S
C533 N536 1.384 . S
C534 H525 0.929 . S
C534 C526 1.378 . S
C534 C529 1.350 . S
C535 H522 0.929 . S
C535 C527 1.433 . S
C535 N537 1.384 . S
N536 C532 1.427 . S
N536 C533 1.384 . S
N537 C529 1.427 . S
N537 C535 1.384 . S
H538 C544 0.930 . S
H539 C548 0.930 . S
H540 C553 0.929 . S
H541 C551 0.929 . S
H542 C546 0.929 . S
H543 C552 0.929 . S
C544 H538 0.930 . S
C544 C545 1.367 . S
C544 C552 1.378 . S
C545 C544 1.367 . S
C545 C553 1.433 . S
C546 H542 0.929 . S
C546 C548 1.378 . S
C546 C550 1.350 . S
C547 C550 1.463 . S
C547 C552 1.350 . S
C547 N555 1.427 . S
C548 H539 0.930 . S
C548 C546 1.378 . S
C548 C549 1.367 . S
C549 C548 1.367 . S
C549 C551 1.433 . S
C550 C546 1.350 . S
C550 C547 1.463 . S
C550 N554 1.427 . S
C551 H541 0.929 . S
C551 C549 1.433 . S
C551 N554 1.384 . S
C552 H543 0.929 . S
C552 C544 1.378 . S
C552 C547 1.350 . S
C553 H540 0.929 . S
C553 C545 1.433 . S
C553 N555 1.384 . S
N554 C550 1.427 . S
N554 C551 1.384 . S
N555 C547 1.427 . S
N555 C553 1.384 . S
H556 C562 0.930 . S
H557 C566 0.930 . S
H558 C571 0.929 . S
H559 C569 0.929 . S
H560 C564 0.929 . S
H561 C570 0.929 . S
C562 H556 0.930 . S
C562 C563 1.367 . S
C562 C570 1.378 . S
C563 C562 1.367 . S
C563 C571 1.433 . S
C564 H560 0.929 . S
C564 C566 1.378 . S
C564 C568 1.350 . S
C565 C568 1.463 . S
C565 C570 1.350 . S
C565 N573 1.427 . S
C566 H557 0.930 . S
C566 C564 1.378 . S
C566 C567 1.367 . S
C567 C566 1.367 . S
C567 C569 1.433 . S
C568 C564 1.350 . S
C568 C565 1.463 . S
C568 N572 1.427 . S
C569 H559 0.929 . S
C569 C567 1.433 . S
C569 N572 1.384 . S
C570 H561 0.929 . S
C570 C562 1.378 . S
C570 C565 1.350 . S
C571 H558 0.929 . S
C571 C563 1.433 . S
C571 N573 1.384 . S
N572 C568 1.427 . S
N572 C569 1.384 . S
N573 C565 1.427 . S
N573 C571 1.384 . S
H574 C580 0.930 . S
H575 C584 0.930 . S
H576 C589 0.929 . S
H577 C587 0.929 . S
H578 C582 0.929 . S
H579 C588 0.929 . S
C580 H574 0.930 . S
C580 C581 1.367 . S
C580 C588 1.378 . S
C581 C580 1.367 . S
C581 C589 1.433 . S
C582 H578 0.929 . S
C582 C584 1.378 . S
C582 C586 1.350 . S
C583 C586 1.463 . S
C583 C588 1.350 . S
C583 N591 1.427 . S
C584 H575 0.930 . S
C584 C582 1.378 . S
C584 C585 1.367 . S
C585 C584 1.367 . S
C585 C587 1.433 . S
C586 C582 1.350 . S
C586 C583 1.463 . S
C586 N590 1.427 . S
C587 H577 0.929 . S
C587 C585 1.433 . S
C587 N590 1.384 . S
C588 H579 0.929 . S
C588 C580 1.378 . S
C588 C583 1.350 . S
C589 H576 0.929 . S
C589 C581 1.433 . S
C589 N591 1.384 . S
N590 C586 1.427 . S
N590 C587 1.384 . S
N591 C583 1.427 . S
N591 C589 1.384 . S
H592 C598 0.930 . S
H593 C602 0.930 . S
H594 C607 0.929 . S
H595 C605 0.929 . S
H596 C600 0.929 . S
H597 C606 0.929 . S
C598 H592 0.930 . S
C598 C599 1.367 . S
C598 C606 1.378 . S
C599 C598 1.367 . S
C599 C607 1.433 . S
C600 H596 0.929 . S
C600 C602 1.378 . S
C600 C604 1.350 . S
C601 C604 1.463 . S
C601 C606 1.350 . S
C601 N609 1.427 . S
C602 H593 0.930 . S
C602 C600 1.378 . S
C602 C603 1.367 . S
C603 C602 1.367 . S
C603 C605 1.433 . S
C604 C600 1.350 . S
C604 C601 1.463 . S
C604 N608 1.427 . S
C605 H595 0.929 . S
C605 C603 1.433 . S
C605 N608 1.384 . S
C606 H597 0.929 . S
C606 C598 1.378 . S
C606 C601 1.350 . S
C607 H594 0.929 . S
C607 C599 1.433 . S
C607 N609 1.384 . S
N608 C604 1.427 . S
N608 C605 1.384 . S
N609 C601 1.427 . S
N609 C607 1.384 . S
H610 C616 0.930 . S
H611 C620 0.930 . S
H612 C625 0.929 . S
H613 C623 0.929 . S
H614 C618 0.929 . S
H615 C624 0.929 . S
C616 H610 0.930 . S
C616 C617 1.367 . S
C616 C624 1.378 . S
C617 C616 1.367 . S
C617 C625 1.433 . S
C618 H614 0.929 . S
C618 C620 1.378 . S
C618 C622 1.350 . S
C619 C622 1.463 . S
C619 C624 1.350 . S
C619 N627 1.427 . S
C620 H611 0.930 . S
C620 C618 1.378 . S
C620 C621 1.367 . S
C621 C620 1.367 . S
C621 C623 1.433 . S
C622 C618 1.350 . S
C622 C619 1.463 . S
C622 N626 1.427 . S
C623 H613 0.929 . S
C623 C621 1.433 . S
C623 N626 1.384 . S
C624 H615 0.929 . S
C624 C616 1.378 . S
C624 C619 1.350 . S
C625 H612 0.929 . S
C625 C617 1.433 . S
C625 N627 1.384 . S
N626 C622 1.427 . S
N626 C623 1.384 . S
N627 C619 1.427 . S
N627 C625 1.384 . S
H628 C634 0.930 . S
H629 C638 0.930 . S
H630 C643 0.929 . S
H631 C641 0.929 . S
H632 C636 0.929 . S
H633 C642 0.929 . S
C634 H628 0.930 . S
C634 C635 1.367 . S
C634 C642 1.378 . S
C635 C634 1.367 . S
C635 C643 1.433 . S
C636 H632 0.929 . S
C636 C638 1.378 . S
C636 C640 1.350 . S
C637 C640 1.463 . S
C637 C642 1.350 . S
C637 N645 1.427 . S
C638 H629 0.930 . S
C638 C636 1.378 . S
C638 C639 1.367 . S
C639 C638 1.367 . S
C639 C641 1.433 . S
C640 C636 1.350 . S
C640 C637 1.463 . S
C640 N644 1.427 . S
C641 H631 0.929 . S
C641 C639 1.433 . S
C641 N644 1.384 . S
C642 H633 0.929 . S
C642 C634 1.378 . S
C642 C637 1.350 . S
C643 H630 0.929 . S
C643 C635 1.433 . S
C643 N645 1.384 . S
N644 C640 1.427 . S
N644 C641 1.384 . S
N645 C637 1.427 . S
N645 C643 1.384 . S
H646 C652 0.930 . S
H647 C656 0.930 . S
H648 C661 0.929 . S
H649 C659 0.929 . S
H650 C654 0.929 . S
H651 C660 0.929 . S
C652 H646 0.930 . S
C652 C653 1.367 . S
C652 C660 1.378 . S
C653 C652 1.367 . S
C653 C661 1.433 . S
C654 H650 0.929 . S
C654 C656 1.378 . S
C654 C658 1.350 . S
C655 C658 1.463 . S
C655 C660 1.350 . S
C655 N663 1.427 . S
C656 H647 0.930 . S
C656 C654 1.378 . S
C656 C657 1.367 . S
C657 C656 1.367 . S
C657 C659 1.433 . S
C658 C654 1.350 . S
C658 C655 1.463 . S
C658 N662 1.427 . S
C659 H649 0.929 . S
C659 C657 1.433 . S
C659 N662 1.384 . S
C660 H651 0.929 . S
C660 C652 1.378 . S
C660 C655 1.350 . S
C661 H648 0.929 . S
C661 C653 1.433 . S
C661 N663 1.384 . S
N662 C658 1.427 . S
N662 C659 1.384 . S
N663 C655 1.427 . S
N663 C661 1.384 . S
H664 C670 0.930 . S
H665 C674 0.930 . S
H666 C679 0.929 . S
H667 C677 0.929 . S
H668 C672 0.929 . S
H669 C678 0.929 . S
C670 H664 0.930 . S
C670 C671 1.367 . S
C670 C678 1.378 . S
C671 C670 1.367 . S
C671 C679 1.433 . S
C672 H668 0.929 . S
C672 C674 1.378 . S
C672 C676 1.350 . S
C673 C676 1.463 . S
C673 C678 1.350 . S
C673 N681 1.427 . S
C674 H665 0.930 . S
C674 C672 1.378 . S
C674 C675 1.367 . S
C675 C674 1.367 . S
C675 C677 1.433 . S
C676 C672 1.350 . S
C676 C673 1.463 . S
C676 N680 1.427 . S
C677 H667 0.929 . S
C677 C675 1.433 . S
C677 N680 1.384 . S
C678 H669 0.929 . S
C678 C670 1.378 . S
C678 C673 1.350 . S
C679 H666 0.929 . S
C679 C671 1.433 . S
C679 N681 1.384 . S
N680 C676 1.427 . S
N680 C677 1.384 . S
N681 C673 1.427 . S
N681 C679 1.384 . S
H682 C688 0.930 . S
H683 C692 0.930 . S
H684 C697 0.929 . S
H685 C695 0.929 . S
H686 C690 0.929 . S
H687 C696 0.929 . S
C688 H682 0.930 . S
C688 C689 1.367 . S
C688 C696 1.378 . S
C689 C688 1.367 . S
C689 C697 1.433 . S
C690 H686 0.929 . S
C690 C692 1.378 . S
C690 C694 1.350 . S
C691 C694 1.463 . S
C691 C696 1.350 . S
C691 N699 1.427 . S
C692 H683 0.930 . S
C692 C690 1.378 . S
C692 C693 1.367 . S
C693 C692 1.367 . S
C693 C695 1.433 . S
C694 C690 1.350 . S
C694 C691 1.463 . S
C694 N698 1.427 . S
C695 H685 0.929 . S
C695 C693 1.433 . S
C695 N698 1.384 . S
C696 H687 0.929 . S
C696 C688 1.378 . S
C696 C691 1.350 . S
C697 H684 0.929 . S
C697 C689 1.433 . S
C697 N699 1.384 . S
N698 C694 1.427 . S
N698 C695 1.384 . S
N699 C691 1.427 . S
N699 C697 1.384 . S
H700 C706 0.930 . S
H701 C710 0.930 . S
H702 C715 0.929 . S
H703 C713 0.929 . S
H704 C708 0.929 . S
H705 C714 0.929 . S
C706 H700 0.930 . S
C706 C707 1.367 . S
C706 C714 1.378 . S
C707 C706 1.367 . S
C707 C715 1.433 . S
C708 H704 0.929 . S
C708 C710 1.378 . S
C708 C712 1.350 . S
C709 C712 1.463 . S
C709 C714 1.350 . S
C709 N717 1.427 . S
C710 H701 0.930 . S
C710 C708 1.378 . S
C710 C711 1.367 . S
C711 C710 1.367 . S
C711 C713 1.433 . S
C712 C708 1.350 . S
C712 C709 1.463 . S
C712 N716 1.427 . S
C713 H703 0.929 . S
C713 C711 1.433 . S
C713 N716 1.384 . S
C714 H705 0.929 . S
C714 C706 1.378 . S
C714 C709 1.350 . S
C715 H702 0.929 . S
C715 C707 1.433 . S
C715 N717 1.384 . S
N716 C712 1.427 . S
N716 C713 1.384 . S
N717 C709 1.427 . S
N717 C715 1.384 . S
H718 C724 0.930 . S
H719 C728 0.930 . S
H720 C733 0.929 . S
H721 C731 0.929 . S
H722 C726 0.929 . S
H723 C732 0.929 . S
C724 H718 0.930 . S
C724 C725 1.367 . S
C724 C732 1.378 . S
C725 C724 1.367 . S
C725 C733 1.433 . S
C726 H722 0.929 . S
C726 C728 1.378 . S
C726 C730 1.350 . S
C727 C730 1.463 . S
C727 C732 1.350 . S
C727 N735 1.427 . S
C728 H719 0.930 . S
C728 C726 1.378 . S
C728 C729 1.367 . S
C729 C728 1.367 . S
C729 C731 1.433 . S
C730 C726 1.350 . S
C730 C727 1.463 . S
C730 N734 1.427 . S
C731 H721 0.929 . S
C731 C729 1.433 . S
C731 N734 1.384 . S
C732 H723 0.929 . S
C732 C724 1.378 . S
C732 C727 1.350 . S
C733 H720 0.929 . S
C733 C725 1.433 . S
C733 N735 1.384 . S
N734 C730 1.427 . S
N734 C731 1.384 . S
N735 C727 1.427 . S
N735 C733 1.384 . S
H736 C742 0.930 . S
H737 C746 0.930 . S
H738 C751 0.929 . S
H739 C749 0.929 . S
H740 C744 0.929 . S
H741 C750 0.929 . S
C742 H736 0.930 . S
C742 C743 1.367 . S
C742 C750 1.378 . S
C743 C742 1.367 . S
C743 C751 1.433 . S
C744 H740 0.929 . S
C744 C746 1.378 . S
C744 C748 1.350 . S
C745 C748 1.463 . S
C745 C750 1.350 . S
C745 N753 1.427 . S
C746 H737 0.930 . S
C746 C744 1.378 . S
C746 C747 1.367 . S
C747 C746 1.367 . S
C747 C749 1.433 . S
C748 C744 1.350 . S
C748 C745 1.463 . S
C748 N752 1.427 . S
C749 H739 0.929 . S
C749 C747 1.433 . S
C749 N752 1.384 . S
C750 H741 0.929 . S
C750 C742 1.378 . S
C750 C745 1.350 . S
C751 H738 0.929 . S
C751 C743 1.433 . S
C751 N753 1.384 . S
N752 C748 1.427 . S
N752 C749 1.384 . S
N753 C745 1.427 . S
N753 C751 1.384 . S
H754 C760 0.930 . S
H755 C764 0.930 . S
H756 C769 0.929 . S
H757 C767 0.929 . S
H758 C762 0.929 . S
H759 C768 0.929 . S
C760 H754 0.930 . S
C760 C761 1.367 . S
C760 C768 1.378 . S
C761 C760 1.367 . S
C761 C769 1.433 . S
C762 H758 0.929 . S
C762 C764 1.378 . S
C762 C766 1.350 . S
C763 C766 1.463 . S
C763 C768 1.350 . S
C763 N771 1.427 . S
C764 H755 0.930 . S
C764 C762 1.378 . S
C764 C765 1.367 . S
C765 C764 1.367 . S
C765 C767 1.433 . S
C766 C762 1.350 . S
C766 C763 1.463 . S
C766 N770 1.427 . S
C767 H757 0.929 . S
C767 C765 1.433 . S
C767 N770 1.384 . S
C768 H759 0.929 . S
C768 C760 1.378 . S
C768 C763 1.350 . S
C769 H756 0.929 . S
C769 C761 1.433 . S
C769 N771 1.384 . S
N770 C766 1.427 . S
N770 C767 1.384 . S
N771 C763 1.427 . S
N771 C769 1.384 . S
C351 C268 1.511 . S
C347 C23 1.499 . S
C369 C271 1.500 . S
C365 C49 1.488 . S
C387 C269 1.508 . S
C383 C87 1.469 . S
C405 C270 1.511 . S
C401 C125 1.472 . S
C423 C285 1.511 . S
C419 C29 1.488 . S
C441 C299 1.499 . S
C437 C61 1.469 . S
C455 C81 1.475 . S
C459 C325 1.501 . S
C477 C339 1.505 . S
C473 C113 1.487 . S
C495 C284 1.494 . S
C491 C55 1.474 . S
C509 C93 1.478 . S
C513 C298 1.512 . S
C531 C324 1.497 . S
C527 C119 1.476 . S
C549 C338 1.510 . S
C545 C17 1.497 . S
C563 C151 1.473 . S
C567 C283 1.513 . S
C585 C256 1.502 . S
C581 C177 1.476 . S
C599 C215 1.491 . S
C603 C282 1.506 . S
C617 C253 1.483 . S
C621 C257 1.513 . S
C639 C312 1.510 . S
C635 C157 1.476 . S
C657 C326 1.501 . S
C653 C189 1.475 . S
C675 C296 1.504 . S
C671 C209 1.489 . S
C689 C241 1.487 . S
C693 C310 1.504 . S
C711 C313 1.492 . S
C707 C183 1.465 . S
C729 C327 1.515 . S
C725 C221 1.490 . S
C747 C297 1.499 . S
C743 C247 1.481 . S
C761 C145 1.483 . S
C765 C311 1.509 . S
