# Generated by pormake.
# Topology anh, (6,3)-cn, num edge types: 1
# Building blocks:
#     Node 0, Type 0, BuildingBlock: BETDEL_clean_sbu_0, # of connection points: 6
#     Node 1, Type 0, BuildingBlock: BETDEL_clean_sbu_0, # of connection points: 6
#     Node 2, Type 0, BuildingBlock: BETDEL_clean_sbu_0, # of connection points: 6
#     Node 3, Type 1, BuildingBlock: MIDCAF_clean_linker_0, # of connection points: 3
#     Node 4, Type 1, BuildingBlock: MIDCAF_clean_linker_0, # of connection points: 3
#     Node 5, Type 1, BuildingBlock: MIDCAF_clean_linker_0, # of connection points: 3
#     Node 6, Type 1, BuildingBlock: MIDCAF_clean_linker_0, # of connection points: 3
#     Node 7, Type 1, BuildingBlock: MIDCAF_clean_linker_0, # of connection points: 3
#     Node 8, Type 1, BuildingBlock: MIDCAF_clean_linker_0, # of connection points: 3
#     Edge 9, Type (0, 1), BuildingBlock: EZIPEK_clean_linker_0, # of connection points: 2
#     Edge 10, Type (0, 1), BuildingBlock: EZIPEK_clean_linker_0, # of connection points: 2
#     Edge 11, Type (0, 1), BuildingBlock: EZIPEK_clean_linker_0, # of connection points: 2
#     Edge 12, Type (0, 1), BuildingBlock: EZIPEK_clean_linker_0, # of connection points: 2
#     Edge 13, Type (0, 1), BuildingBlock: EZIPEK_clean_linker_0, # of connection points: 2
#     Edge 14, Type (0, 1), BuildingBlock: EZIPEK_clean_linker_0, # of connection points: 2
#     Edge 15, Type (0, 1), BuildingBlock: EZIPEK_clean_linker_0, # of connection points: 2
#     Edge 16, Type (0, 1), BuildingBlock: EZIPEK_clean_linker_0, # of connection points: 2
#     Edge 17, Type (0, 1), BuildingBlock: EZIPEK_clean_linker_0, # of connection points: 2
#     Edge 18, Type (0, 1), BuildingBlock: EZIPEK_clean_linker_0, # of connection points: 2
#     Edge 19, Type (0, 1), BuildingBlock: EZIPEK_clean_linker_0, # of connection points: 2
#     Edge 20, Type (0, 1), BuildingBlock: EZIPEK_clean_linker_0, # of connection points: 2
#     Edge 21, Type (0, 1), BuildingBlock: EZIPEK_clean_linker_0, # of connection points: 2
#     Edge 22, Type (0, 1), BuildingBlock: EZIPEK_clean_linker_0, # of connection points: 2
#     Edge 23, Type (0, 1), BuildingBlock: EZIPEK_clean_linker_0, # of connection points: 2
#     Edge 24, Type (0, 1), BuildingBlock: EZIPEK_clean_linker_0, # of connection points: 2
#     Edge 25, Type (0, 1), BuildingBlock: EZIPEK_clean_linker_0, # of connection points: 2
#     Edge 26, Type (0, 1), BuildingBlock: EZIPEK_clean_linker_0, # of connection points: 2
# Relax obj value: 0.149
# Max RMSD: 0.167
# Mean RMSD: 0.136
data_MOF--net-anh--node1-BETDEL_clean_sbu_0--node2-MIDCAF_clean_linker_0--edge1-EZIPEK_clean_linker_0
_symmetry_space_group_name_H-M    P1
_symmetry_Int_Tables_number       1
_symmetry_cell_setting            triclinic
loop_
_symmetry_equiv_pos_as_xyz
'x, y, z'
_cell_length_a     27.644155
_cell_length_b     27.733248
_cell_length_c     50.391949
_cell_angle_alpha  89.88603
_cell_angle_beta   90.094136
_cell_angle_gamma 120.02507
loop_
_atom_site_label
_atom_site_type_symbol
_atom_site_fract_x
_atom_site_fract_y
_atom_site_fract_z
_atom_type_partial_charge
Dy0 Dy 0.06902 0.49203 0.16039 0.0
C1 C 0.93881 0.59808 0.18011 0.0
C2 C 0.13115 0.44418 0.14768 0.0
Dy3 Dy 0.99722 0.54819 0.16324 0.0
O4 O 0.09173 0.42513 0.16535 0.0
O5 O 0.13428 0.48743 0.136 0.0
O6 O 0.09307 0.51017 0.20339 0.0
O7 O 1.01716 0.49999 0.19 0.0
C8 C 0.04988 0.51467 0.20948 0.0
C9 C 1.01381 0.52259 0.11409 0.0
O10 O 0.08307 0.6227 0.16979 0.0
O11 O 0.13751 0.58184 0.162 0.0
O12 O 0.96101 0.60392 0.15674 0.0
O13 O 0.94873 0.56459 0.19406 0.0
O14 O 0.96922 0.52369 0.12126 0.0
O15 O 0.0491 0.54024 0.13275 0.0
O16 O 0.98248 0.41915 0.15175 0.0
O17 O 0.92955 0.45847 0.16564 0.0
C18 C 0.13257 0.62615 0.16719 0.0
C19 C 0.93368 0.41475 0.15824 0.0
Dy20 Dy 0.51282 0.05238 0.49261 0.0
C21 C 0.74605 0.19034 0.51256 0.0
C22 C 0.40483 0.98001 0.47952 0.0
Dy23 Dy 0.64024 0.1177 0.49496 0.0
O24 O 0.42133 1.00509 0.50219 0.0
O25 O 0.44714 0.99521 0.46371 0.0
O26 O 0.50827 0.07795 0.53426 0.0
O27 O 0.57505 0.06678 0.5228 0.0
C28 C 0.55626 0.08384 0.54101 0.0
C29 C 0.59947 0.08872 0.44581 0.0
O30 O 0.62783 0.03177 0.50169 0.0
O31 O 0.53271 0.98239 0.4926 0.0
O32 O 0.7337 0.16158 0.49074 0.0
O33 O 0.70001 0.17898 0.52452 0.0
O34 O 0.64872 0.09807 0.45281 0.0
O35 O 0.57839 0.10274 0.46439 0.0
O36 O 0.5244 0.13783 0.48572 0.0
O37 O 0.61872 0.1866 0.49677 0.0
C38 C 0.58064 0.98384 0.49769 0.0
C39 C 0.57088 0.18518 0.4914 0.0
Dy40 Dy 0.59178 0.59674 0.82692 0.0
C41 C 0.50457 0.36444 0.83647 0.0
C42 C 0.64162 0.70747 0.81606 0.0
Dy43 Dy 0.53417 0.47231 0.82691 0.0
O44 O 0.65301 0.68635 0.83652 0.0
O45 O 0.60429 0.66809 0.80129 0.0
O46 O 0.56223 0.59603 0.8685 0.0
O47 O 0.57954 0.5345 0.85693 0.0
C48 C 0.5603 0.55013 0.87547 0.0
C49 C 0.53256 0.51615 0.7795 0.0
O50 O 0.46119 0.4841 0.83717 0.0
O51 O 0.50191 0.57456 0.82191 0.0
O52 O 0.52646 0.39131 0.81461 0.0
O53 O 0.49663 0.39581 0.85289 0.0
O54 O 0.49289 0.46904 0.78849 0.0
O55 O 0.57333 0.53555 0.79549 0.0
O56 O 0.66927 0.58962 0.82431 0.0
O57 O 0.62417 0.49312 0.82767 0.0
C58 C 0.45761 0.52851 0.8305 0.0
C59 C 0.67045 0.54245 0.82619 0.0
C60 C 0.37273 0.83325 0.20565 0.0
C61 C 0.3451 0.83332 0.18232 0.0
C62 C 0.36943 0.88163 0.16635 0.0
C63 C 0.41939 0.92961 0.17424 0.0
H64 H 0.62631 0.07409 0.16031 0.0
H65 H 0.71393 0.15294 0.1428 0.0
H66 H 0.71396 0.25723 0.206 0.0
H67 H 0.62746 0.18028 0.22319 0.0
H68 H 0.60359 0.12397 0.27949 0.0
H69 H 0.60947 0.13069 0.32776 0.0
H70 H 0.47207 0.96253 0.33446 0.0
H71 H 0.46553 0.95494 0.28594 0.0
H72 H 0.44083 0.87945 0.2322 0.0
H73 H 0.35509 0.79668 0.21827 0.0
H74 H 0.34883 0.88277 0.14826 0.0
H75 H 0.43591 0.9669 0.16219 0.0
N76 N 0.53233 0.02525 0.19519 0.0
N77 N 0.57228 0.07568 0.23444 0.0
N78 N 0.49313 0.98755 0.23701 0.0
C79 C 0.57299 0.0723 0.20758 0.0
C80 C 0.53288 0.03388 0.24932 0.0
C81 C 0.49194 0.98253 0.21013 0.0
C82 C 0.61975 0.12046 0.19328 0.0
C83 C 0.64432 0.11419 0.17004 0.0
C84 C 0.69461 0.15911 0.16015 0.0
C85 C 0.72094 0.21093 0.17332 0.0
C86 C 0.69488 0.21774 0.19564 0.0
C87 C 0.64515 0.17339 0.20542 0.0
C88 C 0.53431 0.0387 0.27871 0.0
C89 C 0.57428 0.08832 0.29108 0.0
C90 C 0.57768 0.09242 0.3187 0.0
C91 C 0.54131 0.04711 0.33454 0.0
C92 C 0.50044 0.99791 0.32245 0.0
C93 C 0.49691 0.99372 0.29474 0.0
C94 C 0.44543 0.93022 0.19838 0.0
C95 C 0.42195 0.88086 0.21357 0.0
C96 C 0.61745 0.42754 0.52778 0.0
C97 C 0.58476 0.40062 0.5055 0.0
C98 C 0.55831 0.42572 0.49195 0.0
C99 C 0.56211 0.47534 0.50159 0.0
H100 H 0.6188 0.68191 0.49496 0.0
H101 H 0.62133 0.76869 0.48106 0.0
H102 H 0.52525 0.75978 0.54999 0.0
H103 H 0.52237 0.67427 0.56384 0.0
H104 H 0.55003 0.63356 0.61741 0.0
H105 H 0.53667 0.61761 0.66438 0.0
H106 H 0.59318 0.49847 0.6592 0.0
H107 H 0.60605 0.51416 0.61238 0.0
H108 H 0.64521 0.49479 0.55524 0.0
H109 H 0.63848 0.40934 0.53846 0.0
H110 H 0.53285 0.40567 0.47466 0.0
H111 H 0.53885 0.49207 0.49173 0.0
N112 N 0.58199 0.58613 0.52713 0.0
N113 N 0.57399 0.61903 0.56912 0.0
N114 N 0.58618 0.54194 0.56634 0.0
C115 C 0.57557 0.62384 0.54221 0.0
C116 C 0.57949 0.57854 0.58133 0.0
C117 C 0.58735 0.54477 0.53943 0.0
C118 C 0.57073 0.67105 0.53063 0.0
C119 C 0.59728 0.69787 0.50682 0.0
C120 C 0.59902 0.74765 0.49895 0.0
C121 C 0.57384 0.7711 0.51463 0.0
C122 C 0.54525 0.74287 0.53764 0.0
C123 C 0.54373 0.69377 0.54552 0.0
C124 C 0.57514 0.57209 0.61061 0.0
C125 C 0.55723 0.60202 0.62619 0.0
C126 C 0.54738 0.59098 0.65337 0.0
C127 C 0.55184 0.54731 0.66563 0.0
C128 C 0.57871 0.52453 0.6505 0.0
C129 C 0.58829 0.53515 0.62335 0.0
C130 C 0.59234 0.50044 0.52493 0.0
C131 C 0.62125 0.47662 0.53732 0.0
C132 C 0.91628 0.58686 0.86322 0.0
C133 C 0.88471 0.55242 0.84219 0.0
C134 C 0.904 0.52024 0.82923 0.0
C135 C 0.95255 0.52047 0.83817 0.0
H136 H 0.1509 0.56044 0.82621 0.0
H137 H 0.23516 0.55958 0.81057 0.0
H138 H 0.23807 0.47766 0.88274 0.0
H139 H 0.15474 0.47749 0.89822 0.0
H140 H 0.11707 0.50504 0.95056 0.0
H141 H 0.11111 0.50165 -0.0009 0.0
H142 H 0.99458 0.56182 -0.00373 0.0
H143 H 0.99969 0.56514 0.94782 0.0
H144 H 0.98587 0.6121 0.8893 0.0
H145 H 0.90235 0.61197 0.87354 0.0
H146 H 0.88012 0.49308 0.81303 0.0
H147 H 0.96481 0.49308 0.82883 0.0
N148 N 0.06375 0.53553 0.86148 0.0
N149 N 0.09866 0.52717 0.90288 0.0
N150 N 0.02454 0.5446 0.90136 0.0
C151 C 0.10107 0.52712 0.87594 0.0
C152 C 0.06081 0.53587 0.91576 0.0
C153 C 0.02514 0.54433 0.87439 0.0
C154 C 0.14609 0.51959 0.86361 0.0
C155 C 0.16877 0.54113 0.83843 0.0
C156 C 0.21703 0.54085 0.82953 0.0
C157 C 0.24318 0.51892 0.84564 0.0
C158 C 0.21891 0.49502 0.87005 0.0
C159 C 0.17111 0.49518 0.87887 0.0
C160 C 0.05871 0.53524 0.9452 0.0
C161 C 0.09033 0.51784 0.9602 0.0
C162 C 0.08706 0.51584 0.98792 0.0
C163 C 0.05253 0.5316 0.00109 0.0
C164 C 1.02154 0.54965 0.98633 0.0
C165 C 0.02445 0.55134 0.95864 0.0
C166 C 0.9821 0.55245 0.86038 0.0
C167 C 0.96413 0.58681 0.8722 0.0
C168 C 0.16993 0.78651 0.43101 0.0
C169 C 0.18427 0.79633 0.45786 0.0
C170 C 0.14818 0.75912 0.47709 0.0
C171 C 0.09964 0.71061 0.46932 0.0
H172 H 1.01061 0.53735 0.49045 0.0
H173 H 0.97013 0.45185 0.51739 0.0
H174 H 0.8347 0.37089 0.46145 0.0
H175 H 0.87471 0.45511 0.43441 0.0
H176 H 1.02124 0.66014 0.35754 0.0
H177 H 0.02986 0.64368 0.31053 0.0
H178 H 0.9597 0.46837 0.32632 0.0
H179 H 0.94982 0.48398 0.37319 0.0
H180 H 0.11254 0.73154 0.40222 0.0
H181 H 0.19745 0.81502 0.41599 0.0
H182 H 0.15893 0.76639 0.49795 0.0
H183 H 0.07358 0.68136 0.48445 0.0
N184 N 1.01231 0.602 0.45082 0.0
N185 N 0.96294 0.54228 0.4155 0.0
N186 N 0.02854 0.63546 0.40708 0.0
C187 C 0.97326 0.55074 0.44195 0.0
C188 C 0.9903 0.58448 0.39796 0.0
C189 C 0.03976 0.64479 0.43339 0.0
C190 C 0.94596 0.50277 0.46024 0.0
C191 C 0.9717 0.5016 0.48418 0.0
C192 C 0.94887 0.45293 0.49952 0.0
C193 C 0.89968 0.40539 0.49125 0.0
C194 C 0.87278 0.40732 0.46804 0.0
C195 C 0.89575 0.45544 0.45262 0.0
C196 C 0.98544 0.57344 0.36913 0.0
C197 C 1.00648 0.61789 0.35092 0.0
C198 C 1.01142 0.60865 0.3241 0.0
C199 C 0.99609 0.55501 0.31519 0.0
C200 C 0.97188 0.51007 0.33295 0.0
C201 C 0.96618 0.51912 0.3597 0.0
C202 C 0.08645 0.69917 0.44224 0.0
C203 C 0.12131 0.73861 0.42325 0.0
C204 C 0.59457 0.23261 0.79841 0.0
C205 C 0.56811 0.20926 0.82254 0.0
C206 C 0.56935 0.1628 0.83279 0.0
C207 C 0.59588 0.1392 0.81852 0.0
H208 H 0.66475 0.0325 0.82183 0.0
H209 H 0.66686 0.94945 0.83665 0.0
H210 H 0.71368 0.92755 0.75798 0.0
H211 H 0.71244 1.01044 0.74293 0.0
H212 H 0.70201 0.07684 0.694 0.0
H213 H 0.68205 0.07242 0.64636 0.0
H214 H 0.58213 0.14948 0.65991 0.0
H215 H 0.60252 0.15528 0.70724 0.0
H216 H 0.63956 0.2275 0.76528 0.0
H217 H 0.59416 0.26866 0.79033 0.0
H218 H 0.54902 0.14441 0.85144 0.0
H219 H 0.59513 0.10243 0.82634 0.0
N220 N 0.658 0.09782 0.78692 0.0
N221 N 0.67586 0.07831 0.74387 0.0
N222 N 0.64332 0.14063 0.75004 0.0
C223 C 0.67543 0.07052 0.77053 0.0
C224 C 0.65981 0.11323 0.73348 0.0
C225 C 0.64258 0.13355 0.77671 0.0
C226 C 0.6872 0.02751 0.78103 0.0
C227 C 0.67689 1.01094 0.80781 0.0
C228 C 0.67828 0.96366 0.81637 0.0
C229 C 0.68992 0.93243 0.79828 0.0
C230 C 0.70455 0.95127 0.77215 0.0
C231 C 0.70342 0.99852 0.7636 0.0
C232 C 0.65363 0.11614 0.70446 0.0
C233 C 0.67643 0.09356 0.6868 0.0
C234 C 0.66513 0.09097 0.65963 0.0
C235 C 0.63027 0.11017 0.64983 0.0
C236 C 0.60901 0.13436 0.66722 0.0
C237 C 0.62089 0.13771 0.69426 0.0
C238 C 0.62067 0.16152 0.79377 0.0
C239 C 0.62049 0.209 0.78415 0.0
C240 C 0.72983 0.54007 0.13551 0.0
C241 C 0.73265 0.56416 0.16029 0.0
C242 C 0.68557 0.56481 0.1702 0.0
C243 C 0.63598 0.54108 0.15541 0.0
H244 H 0.45886 0.50478 0.14848 0.0
H245 H 0.36509 0.48813 0.15889 0.0
H246 H 0.29336 0.35052 0.10397 0.0
H247 H 0.38721 0.36845 0.0927 0.0
H248 H 0.46774 0.47622 0.03562 0.0
H249 H 0.47969 0.49347 0.98806 0.0
H250 H 0.64267 0.50892 0.99217 0.0
H251 H 0.63181 0.49299 0.04033 0.0
H252 H 0.6803 0.49942 0.10144 0.0
H253 H 0.76589 0.53937 0.12757 0.0
H254 H 0.68736 0.58373 0.18923 0.0
H255 H 0.60016 0.5423 0.16326 0.0
N256 N 0.53163 0.47665 0.12458 0.0
N257 N 0.49163 0.45675 0.08205 0.0
N258 N 0.58817 0.4958 0.08677 0.0
C259 C 0.48569 0.4561 0.10874 0.0
C260 C 0.54268 0.47688 0.07088 0.0
C261 C 0.583 0.49565 0.1136 0.0
C262 C 0.42996 0.43818 0.11966 0.0
C263 C 0.42296 0.47015 0.13917 0.0
C264 C 0.36957 0.46084 0.14501 0.0
C265 C 0.32263 0.4188 0.13177 0.0
C266 C 0.32923 0.38356 0.11409 0.0
C267 C 0.38267 0.39378 0.10774 0.0
C268 C 0.54887 0.48322 0.04177 0.0
C269 C 0.50609 0.4829 0.02652 0.0
C270 C 0.51289 0.49305 -0.00066 0.0
C271 C 0.5622 0.50294 0.98678 0.0
C272 C 0.60457 0.50188 0.00169 0.0
C273 C 0.59819 0.49263 0.0291 0.0
C274 C 0.63353 0.51772 0.13032 0.0
C275 C 0.68093 0.51735 0.12061 0.0
C276 C 0.19123 0.42621 0.11734 0.0
C277 C 0.17226 0.42545 0.14351 0.0
C278 C 0.24175 0.40267 0.16027 0.0
C279 C 0.2675 0.41503 0.13501 0.0
N280 N 0.27076 0.44683 0.0899 0.0
N281 N 0.18593 0.42071 0.19093 0.0
C282 C 0.24309 0.42848 0.1135 0.0
C283 C 0.1985 0.41485 0.16534 0.0
N284 N 0.15946 0.42428 0.09612 0.0
N285 N 0.25879 0.37951 0.17945 0.0
H286 H 0.15676 0.43221 0.19617 0.0
H287 H 0.20872 0.41952 0.20716 0.0
H288 H 0.29028 0.36986 0.17623 0.0
H289 H 0.23785 0.36474 0.19742 0.0
H290 H 0.16918 0.41992 0.07662 0.0
H291 H 0.1202 0.42058 0.09828 0.0
H292 H 0.25716 0.46272 0.0747 0.0
H293 H 0.30995 0.45139 0.08635 0.0
C294 C 0.80372 0.28313 0.53425 0.0
C295 C 0.80111 0.24078 0.51774 0.0
C296 C 0.8846 0.30904 0.49417 0.0
C297 C 0.8769 0.35161 0.50547 0.0
N298 N 0.83441 0.38137 0.53846 0.0
N299 N 0.85273 0.20971 0.49178 0.0
C300 C 0.83909 0.33953 0.52676 0.0
C301 C 0.84654 0.25263 0.50091 0.0
N302 N 0.77316 0.2691 0.55708 0.0
N303 N 0.92613 0.32285 0.47597 0.0
H304 H 0.82655 0.16885 0.49821 0.0
H305 H 0.88563 0.21455 0.47995 0.0
H306 H 0.9556 0.36416 0.47166 0.0
H307 H 0.93148 0.29406 0.46506 0.0
H308 H 0.77561 0.29817 0.57087 0.0
H309 H 0.75078 0.22794 0.56366 0.0
H310 H 0.80295 0.37448 0.55185 0.0
H311 H 0.86097 0.42328 0.53383 0.0
C312 C 0.71188 0.80947 0.81132 0.0
C313 C 0.65565 0.76612 0.81401 0.0
C314 C 0.62248 0.83185 0.8068 0.0
C315 C 0.67869 0.8759 0.80533 0.0
N316 N 0.77701 0.9092 0.81067 0.0
N317 N 0.55914 0.73856 0.82229 0.0
C318 C 0.72355 0.86549 0.80901 0.0
C319 C 0.61142 0.77803 0.81413 0.0
N320 N 0.7537 0.79688 0.80993 0.0
N321 N 0.57958 0.84071 0.80007 0.0
H322 H 0.5496 0.69911 0.82889 0.0
H323 H 0.52679 0.74694 0.82533 0.0
H324 H 0.58544 0.87943 0.79437 0.0
H325 H 0.53846 0.80855 0.79783 0.0
H326 H 0.79485 0.82584 0.80513 0.0
H327 H 0.74649 0.75634 0.81185 0.0
H328 H 0.81111 0.90486 0.81585 0.0
H329 H 0.78667 0.95058 0.80894 0.0
C330 C 0.85038 0.57644 0.20314 0.0
C331 C 0.8944 0.61179 0.186 0.0
C332 C 0.83254 0.63815 0.16375 0.0
C333 C 0.78653 0.58993 0.17477 0.0
N334 N 0.75044 0.51578 0.20719 0.0
N335 N 0.93333 0.69072 0.15686 0.0
C336 C 0.79491 0.56072 0.19575 0.0
C337 C 0.88746 0.64821 0.16879 0.0
N338 N 0.8618 0.55826 0.22619 0.0
N339 N 0.82291 0.67254 0.14794 0.0
H340 H 0.97374 0.7004 0.1622 0.0
H341 H 0.93185 0.71651 0.14227 0.0
H342 H 0.78264 0.66554 0.14453 0.0
H343 H 0.85417 0.70937 0.13963 0.0
H344 H 0.83144 0.53476 0.24028 0.0
H345 H 0.90275 0.57313 0.23263 0.0
H346 H 0.75468 0.48907 0.22032 0.0
H347 H 0.70914 0.50362 0.20252 0.0
C348 C 0.33987 0.87852 0.47205 0.0
C349 C 0.34803 0.93313 0.47456 0.0
C350 C 0.24809 0.89774 0.46733 0.0
C351 C 0.23982 0.84311 0.46532 0.0
N352 N 0.27481 0.77922 0.46871 0.0
N353 N 0.31081 0.99507 0.47805 0.0
C354 C 0.28491 0.83286 0.46854 0.0
C355 C 0.3023 0.94281 0.47333 0.0
N356 N 0.38479 0.87038 0.47294 0.0
N357 N 0.20425 0.90648 0.4628 0.0
H358 H 0.35032 0.02962 0.48108 0.0
H359 H 0.27875 1.00404 0.48038 0.0
H360 H 0.16351 0.87407 0.4596 0.0
H361 H 0.20826 0.94566 0.46087 0.0
H362 H 0.38317 0.83333 0.46774 0.0
H363 H 0.42503 0.90153 0.47793 0.0
H364 H 0.30421 0.768 0.47405 0.0
H365 H 0.23562 0.74473 0.46502 0.0
C366 C 0.47064 0.26472 0.82722 0.0
C367 C 0.50338 0.31206 0.84313 0.0
C368 C 0.56661 0.27749 0.85441 0.0
C369 C 0.5379 0.23388 0.83589 0.0
N370 N 0.454 0.17477 0.81155 0.0
N371 N 0.56927 0.35405 0.87896 0.0
C372 C 0.48639 0.22341 0.82488 0.0
C373 C 0.54652 0.31478 0.85944 0.0
N374 N 0.42653 0.26127 0.81334 0.0
N375 N 0.61513 0.28541 0.86558 0.0
H376 H 0.5549 0.38149 0.88315 0.0
H377 H 0.59842 0.35602 0.89266 0.0
H378 H 0.62952 0.25743 0.8629 0.0
H379 H 0.64211 0.32042 0.8766 0.0
H380 H 0.40427 0.23117 0.79903 0.0
H381 H 0.41304 0.29003 0.81595 0.0
H382 H 0.41429 0.16261 0.80426 0.0
H383 H 0.46543 0.1443 0.80975 0.0
C384 C 0.55058 0.88443 0.48297 0.0
C385 C 0.58017 0.92948 0.50111 0.0
C386 C 0.61352 0.87326 0.52443 0.0
C387 C 0.57918 0.82658 0.50826 0.0
N388 N 0.50809 0.78511 0.47463 0.0
N389 N 0.62754 0.95924 0.54345 0.0
C390 C 0.54588 0.8315 0.48817 0.0
C391 C 0.60863 0.922 0.52295 0.0
N392 N 0.5283 0.89223 0.46024 0.0
N393 N 0.6514 0.87129 0.5412 0.0
H394 H 0.62148 0.99334 0.54446 0.0
H395 H 0.64325 0.95264 0.56104 0.0
H396 H 0.65627 0.83644 0.54283 0.0
H397 H 0.68159 0.906 0.55144 0.0
H398 H 0.51235 0.86318 0.44494 0.0
H399 H 0.52979 0.92941 0.45544 0.0
H400 H 0.47763 0.78437 0.46216 0.0
H401 H 0.50423 0.74606 0.47747 0.0
C402 C 0.76794 0.56983 0.80984 0.0
C403 C 0.72537 0.54446 0.8294 0.0
C404 C 0.78374 0.51553 0.85396 0.0
C405 C 0.82866 0.54627 0.83615 0.0
N406 N 0.866 0.60792 0.79861 0.0
N407 N 0.69779 0.50292 0.87296 0.0
C408 C 0.8214 0.57481 0.81443 0.0
C409 C 0.73453 0.51969 0.85219 0.0
N410 N 0.75668 0.58728 0.78646 0.0
N411 N 0.78772 0.48149 0.87243 0.0
H412 H 0.66251 0.50736 0.87318 0.0
H413 H 0.70529 0.49001 0.89116 0.0
H414 H 0.82304 0.47732 0.87438 0.0
H415 H 0.75414 0.45339 0.884 0.0
H416 H 0.78381 0.60085 0.77032 0.0
H417 H 0.71803 0.5837 0.78232 0.0
H418 H 0.86534 0.63479 0.78434 0.0
H419 H 0.90509 0.61133 0.801 0.0
C420 C 0.22893 0.6984 0.15067 0.0
C421 C 0.18508 0.68221 0.16957 0.0
C422 C 0.24232 0.77222 0.19232 0.0
C423 C 0.28888 0.78371 0.17612 0.0
N424 N 0.32819 0.75434 0.14142 0.0
N425 N 0.15374 0.70272 0.21072 0.0
C426 C 0.28259 0.74593 0.15564 0.0
C427 C 0.19253 0.71909 0.1909 0.0
N428 N 0.21874 0.67005 0.12728 0.0
N429 N 0.2453 0.81267 0.20883 0.0
H430 H 0.11692 0.66448 0.21108 0.0
H431 H 0.16047 0.72503 0.22826 0.0
H432 H 0.28081 0.85204 0.2103 0.0
H433 H 0.21093 0.80923 0.219 0.0
H434 H 0.24733 0.68318 0.11172 0.0
H435 H 0.17954 0.63704 0.12215 0.0
H436 H 0.32754 0.72489 0.12839 0.0
H437 H 0.36783 0.78891 0.14417 0.0
C438 C 0.61043 0.28626 0.47775 0.0
C439 C 0.57002 0.23903 0.49225 0.0
C440 C 0.53133 0.2959 0.50969 0.0
C441 C 0.57603 0.34435 0.49803 0.0
N442 N 0.66083 0.38696 0.47244 0.0
N443 N 0.49721 0.20184 0.52547 0.0
C444 C 0.61619 0.33979 0.48236 0.0
C445 C 0.53134 0.24443 0.50887 0.0
N446 N 0.64223 0.27972 0.45894 0.0
N447 N 0.48879 0.29912 0.52177 0.0
H448 H 0.49663 0.16409 0.5263 0.0
H449 H 0.47317 0.20567 0.5403 0.0
H450 H 0.4881 0.33624 0.52346 0.0
H451 H 0.45191 0.2643 0.52799 0.0
H452 H 0.66818 0.31103 0.44578 0.0
H453 H 0.63905 0.24145 0.45477 0.0
H454 H 0.69537 0.38768 0.46379 0.0
H455 H 0.66487 0.42628 0.47428 0.0
C456 C 0.39953 0.57075 0.84643 0.0
C457 C 0.4026 0.52728 0.83283 0.0
C458 C 0.30031 0.47904 0.82625 0.0
C459 C 0.2982 0.52402 0.83845 0.0
N460 N 0.34714 0.61776 0.8553 0.0
N461 N 0.35679 0.44656 0.80442 0.0
C462 C 0.34835 0.57157 0.84683 0.0
C463 C 0.35315 0.48314 0.82127 0.0
N464 N 0.44438 0.60949 0.86057 0.0
N465 N 0.25164 0.43183 0.81981 0.0
H466 H 0.39452 0.44909 0.7995 0.0
H467 H 0.32328 0.4172 0.79323 0.0
H468 H 0.21251 0.42844 0.82195 0.0
H469 H 0.24983 0.39496 0.81396 0.0
H470 H 0.44266 0.6381 0.87331 0.0
H471 H 0.48198 0.60976 0.86181 0.0
H472 H 0.38302 0.65601 0.85867 0.0
H473 H 0.31037 0.61944 0.85666 0.0
C474 C 0.87755 0.31516 0.17515 0.0
C475 C 0.88143 0.35858 0.15853 0.0
C476 C 0.78049 0.30184 0.14887 0.0
C477 C 0.77699 0.25825 0.16507 0.0
N478 N 0.82391 0.21827 0.18896 0.0
N479 N 0.83937 0.38781 0.12493 0.0
C480 C 0.82625 0.26326 0.17655 0.0
C481 C 0.83363 0.35019 0.14399 0.0
N482 N 0.92153 0.32458 0.19108 0.0
N483 N 0.73265 0.29774 0.13879 0.0
H484 H 0.87756 0.42306 0.12059 0.0
H485 H 0.80772 0.38164 0.11177 0.0
H486 H 0.69359 0.26196 0.14085 0.0
H487 H 0.73108 0.33067 0.12971 0.0
H488 H 0.91894 0.29734 0.20598 0.0
H489 H 0.95964 0.3617 0.19106 0.0
H490 H 0.85917 0.21699 0.19521 0.0
H491 H 0.78695 0.18022 0.19091 0.0
C492 C 0.06802 0.57468 0.07351 0.0
C493 C 0.02844 0.52371 0.08569 0.0
C494 C 1.0055 0.47746 0.04226 0.0
C495 C 0.04705 0.52761 0.03042 0.0
N496 N 0.12538 0.62054 0.03497 0.0
N497 N 0.96626 0.42456 0.08262 0.0
C498 C 0.08086 0.57509 0.04617 0.0
C499 C 0.9992 0.47447 0.07032 0.0
N500 N 0.09066 0.62338 0.08753 0.0
N501 N 0.97088 0.43323 0.02658 0.0
H502 H 0.96025 0.42094 0.10305 0.0
H503 H 0.94862 0.38629 0.07298 0.0
H504 H 0.97549 0.43311 0.00605 0.0
H505 H 0.93537 0.39799 0.03361 0.0
H506 H 0.11489 0.66246 0.07891 0.0
H507 H 0.0814 0.62561 0.10736 0.0
H508 H 0.15529 0.65401 0.04596 0.0
H509 H 0.13518 0.62269 0.01485 0.0
C510 C 0.58659 0.03371 0.4043 0.0
C511 C 0.57742 0.07313 0.4182 0.0
C512 C 0.53123 0.08318 0.37854 0.0
C513 C 0.54851 0.05105 0.36382 0.0
N514 N 0.59844 1.00055 0.36174 0.0
N515 N 0.5493 0.14317 0.41627 0.0
C516 C 0.57747 0.02731 0.37646 0.0
C517 C 0.55124 0.09951 0.40489 0.0
N518 N 0.6028 1.00123 0.41771 0.0
N519 N 0.49578 0.09829 0.36726 0.0
H520 H 0.5665 0.15964 0.43465 0.0
H521 H 0.53611 0.16737 0.40618 0.0
H522 H 0.48087 0.08741 0.34788 0.0
H523 H 0.47699 0.11671 0.3779 0.0
H524 H 0.60394 0.96772 0.40908 0.0
H525 H 0.60959 1.00373 0.43811 0.0
H526 H 0.62597 0.98865 0.36936 0.0
H527 H 0.59194 0.99403 0.34136 0.0
C528 C 0.55166 0.49127 0.73472 0.0
C529 C 0.53864 0.52558 0.75046 0.0
C530 C 0.51007 0.55458 0.71025 0.0
C531 C 0.53439 0.52993 0.69444 0.0
N532 N 0.52933 0.44068 0.69366 0.0
N533 N 0.50628 0.59166 0.75303 0.0
C534 C 0.54205 0.48835 0.70699 0.0
C535 C 0.51817 0.55785 0.73818 0.0
N536 N 0.57278 0.46097 0.7461 0.0
N537 N 0.47075 0.56478 0.69951 0.0
H538 H 0.51145 0.59488 0.77353 0.0
H539 H 0.49621 0.61989 0.74461 0.0
H540 H 0.45512 0.55138 0.68041 0.0
H541 H 0.44778 0.57799 0.71063 0.0
H542 H 0.58724 0.43918 0.73488 0.0
H543 H 0.58037 0.46161 0.76642 0.0
H544 H 0.52915 0.40668 0.70263 0.0
H545 H 0.51067 0.43226 0.67493 0.0
C546 C 0.60822 0.14446 0.5795 0.0
C547 C 0.57541 0.09033 0.56875 0.0
C548 C 0.57618 0.0489 0.61157 0.0
C549 C 0.6136 0.10295 0.62151 0.0
N550 N 0.67294 0.20144 0.6139 0.0
N551 N 0.53263 0.99055 0.57316 0.0
C552 C 0.63193 0.15059 0.60513 0.0
C553 C 0.561 0.04236 0.58433 0.0
N554 N 0.61543 0.18986 0.56552 0.0
N555 N 0.55275 1.00423 0.62844 0.0
H556 H 0.51778 0.98363 0.5537 0.0
H557 H 0.52717 0.95469 0.58256 0.0
H558 H 0.56197 1.00723 0.64865 0.0
H559 H 0.52051 0.965 0.62298 0.0
H560 H 0.63434 0.22996 0.57333 0.0
H561 H 0.59792 0.18672 0.54685 0.0
H562 H 0.69154 0.23694 0.60204 0.0
H563 H 0.69197 0.20723 0.63242 0.0
C564 C 0.60797 0.5762 0.91983 0.0
C565 C 0.56397 0.53665 0.9036 0.0
C566 C 0.53068 0.47054 0.94056 0.0
C567 C 0.56793 0.51334 0.9578 0.0
N568 N 0.63795 0.60983 0.9645 0.0
N569 N 0.47796 0.44884 0.89994 0.0
C570 C 0.60584 0.567 0.94764 0.0
C571 C 0.52405 0.48428 0.91426 0.0
N572 N 0.65256 0.62166 0.90869 0.0
N573 N 0.50196 0.41666 0.94929 0.0
H574 H 0.47051 0.45853 0.88106 0.0
H575 H 0.44468 0.41266 0.9078 0.0
H576 H 0.50656 0.40509 0.96844 0.0
H577 H 0.47831 0.38305 0.93676 0.0
H578 H 0.68816 0.64885 0.9194 0.0
H579 H 0.65667 0.62898 0.88829 0.0
H580 H 0.66161 0.65107 0.95824 0.0
H581 H 0.6374 0.60507 0.98504 0.0
C582 C 0.97992 0.49646 0.2458 0.0
C583 C 0.03625 0.52483 0.23668 0.0
C584 C 0.06652 0.568 0.28047 0.0
C585 C 1.00987 0.54635 0.28786 0.0
N586 N 0.91253 0.49869 0.27557 0.0
N587 N 0.1326 0.59627 0.24449 0.0
C588 C 0.96651 0.51351 0.26983 0.0
C589 C 0.07949 0.56306 0.25376 0.0
N590 N 0.93985 0.45047 0.23284 0.0
N591 N 0.10794 0.59142 0.29911 0.0
H592 H 0.14436 0.59624 0.22489 0.0
H593 H 0.16376 0.62864 0.25557 0.0
H594 H 0.10035 0.59498 0.31907 0.0
H595 H 0.14919 0.60218 0.29529 0.0
H596 H 0.89932 0.42611 0.24004 0.0
H597 H 0.9487 0.43182 0.21716 0.0
H598 H 0.88007 0.47908 0.2619 0.0
H599 H 0.90121 0.51081 0.29299 0.0
loop_
_geom_bond_atom_site_label_1
_geom_bond_atom_site_label_2
_geom_bond_distance
_geom_bond_site_symmetry_2
_ccdc_geom_bond_type
Dy0 O4 2.398 . S
Dy0 O5 2.491 . S
Dy0 O6 2.403 . S
Dy0 O7 2.664 . S
Dy0 O11 2.326 . S
Dy0 O15 2.310 . S
Dy0 O16 2.351 1_455 S
C1 O12 1.185 . S
C1 O13 1.355 . S
C2 O4 1.185 . S
C2 O5 1.355 . S
Dy3 O7 2.310 1_655 S
Dy3 O10 2.351 1_655 S
Dy3 O12 2.398 . S
Dy3 O13 2.491 . S
Dy3 O14 2.406 . S
Dy3 O15 2.664 1_655 S
Dy3 O17 2.326 . S
O4 Dy0 2.398 . S
O4 C2 1.185 . S
O5 Dy0 2.491 . S
O5 C2 1.355 . S
O6 Dy0 2.403 . S
O6 C8 1.254 . S
O7 Dy0 2.664 . S
O7 Dy3 2.310 1_455 S
O7 C8 1.268 . S
C8 O6 1.254 . S
C8 O7 1.268 . S
C9 O14 1.237 1_455 S
C9 O15 1.268 . S
O10 Dy3 2.351 1_455 S
O10 C18 1.249 . S
O11 Dy0 2.326 . S
O11 C18 1.267 . S
O12 C1 1.185 . S
O12 Dy3 2.398 . S
O13 C1 1.355 . S
O13 Dy3 2.491 . S
O14 Dy3 2.406 . S
O14 C9 1.237 1_655 S
O15 Dy0 2.310 . S
O15 Dy3 2.664 1_455 S
O15 C9 1.268 . S
O16 Dy0 2.351 1_655 S
O16 C19 1.249 . S
O17 Dy3 2.326 . S
O17 C19 1.267 . S
C18 O10 1.249 . S
C18 O11 1.267 . S
C19 O16 1.249 . S
C19 O17 1.267 . S
Dy20 O24 2.398 . S
Dy20 O25 2.491 . S
Dy20 O26 2.403 1_565 S
Dy20 O27 2.664 1_565 S
Dy20 O31 2.326 . S
Dy20 O35 2.310 1_565 S
Dy20 O36 2.351 1_565 S
C21 O32 1.185 . S
C21 O33 1.355 . S
C22 O24 1.185 . S
C22 O25 1.355 . S
Dy23 O27 2.310 . S
Dy23 O30 2.351 1_545 S
Dy23 O32 2.398 . S
Dy23 O33 2.491 . S
Dy23 O34 2.403 . S
Dy23 O35 2.664 . S
Dy23 O37 2.326 . S
O24 Dy20 2.398 . S
O24 C22 1.185 . S
O25 Dy20 2.491 . S
O25 C22 1.355 . S
O26 Dy20 2.403 1_545 S
O26 C28 1.254 . S
O27 Dy20 2.664 1_545 S
O27 Dy23 2.310 . S
O27 C28 1.268 . S
C28 O26 1.254 . S
C28 O27 1.268 . S
C29 O34 1.254 . S
C29 O35 1.268 . S
O30 Dy23 2.351 1_565 S
O30 C38 1.249 . S
O31 Dy20 2.326 . S
O31 C38 1.267 . S
O32 C21 1.185 . S
O32 Dy23 2.398 . S
O33 C21 1.355 . S
O33 Dy23 2.491 . S
O34 Dy23 2.403 . S
O34 C29 1.254 . S
O35 Dy20 2.310 1_545 S
O35 Dy23 2.664 . S
O35 C29 1.268 . S
O36 Dy20 2.351 1_545 S
O36 C39 1.249 . S
O37 Dy23 2.326 . S
O37 C39 1.267 . S
C38 O30 1.249 . S
C38 O31 1.267 . S
C39 O36 1.249 . S
C39 O37 1.267 . S
Dy40 O44 2.398 . S
Dy40 O45 2.491 . S
Dy40 O46 2.403 . S
Dy40 O47 2.664 . S
Dy40 O51 2.326 . S
Dy40 O55 2.310 . S
Dy40 O56 2.351 . S
C41 O52 1.185 . S
C41 O53 1.355 . S
C42 O44 1.185 . S
C42 O45 1.355 . S
Dy43 O47 2.310 . S
Dy43 O50 2.351 . S
Dy43 O52 2.398 . S
Dy43 O53 2.491 . S
Dy43 O54 2.403 . S
Dy43 O55 2.664 . S
Dy43 O57 2.326 . S
O44 Dy40 2.398 . S
O44 C42 1.185 . S
O45 Dy40 2.491 . S
O45 C42 1.355 . S
O46 Dy40 2.403 . S
O46 C48 1.254 . S
O47 Dy40 2.664 . S
O47 Dy43 2.310 . S
O47 C48 1.268 . S
C48 O46 1.254 . S
C48 O47 1.268 . S
C49 O54 1.254 . S
C49 O55 1.268 . S
O50 Dy43 2.351 . S
O50 C58 1.249 . S
O51 Dy40 2.326 . S
O51 C58 1.267 . S
O52 C41 1.185 . S
O52 Dy43 2.398 . S
O53 C41 1.355 . S
O53 Dy43 2.491 . S
O54 Dy43 2.403 . S
O54 C49 1.254 . S
O55 Dy40 2.310 . S
O55 Dy43 2.664 . S
O55 C49 1.268 . S
O56 Dy40 2.351 . S
O56 C59 1.249 . S
O57 Dy43 2.326 . S
O57 C59 1.267 . S
C58 O50 1.249 . S
C58 O51 1.267 . S
C59 O56 1.249 . S
C59 O57 1.267 . S
C60 C61 1.384 . S
C60 H73 0.947 . S
C60 C95 1.382 . S
C61 C60 1.384 . S
C61 C62 1.378 . S
C62 C61 1.378 . S
C62 C63 1.378 . S
C62 H74 0.952 . S
C63 C62 1.378 . S
C63 H75 0.950 . S
C63 C94 1.383 . S
H64 C83 0.947 . S
H65 C84 0.946 . S
H66 C86 0.953 . S
H67 C87 0.945 . S
H68 C89 0.952 . S
H69 C90 0.949 . S
H70 C92 0.950 . S
H71 C93 0.948 . S
H72 C95 0.951 . S
H73 C60 0.947 . S
H74 C62 0.952 . S
H75 C63 0.950 . S
N76 C79 1.382 . S
N76 C81 1.363 1_545 S
N77 C79 1.371 . S
N77 C80 1.372 . S
N78 C80 1.361 1_565 S
N78 C81 1.377 . S
C79 N76 1.382 . S
C79 N77 1.371 . S
C79 C82 1.480 . S
C80 N77 1.372 . S
C80 N78 1.361 1_545 S
C80 C88 1.457 . S
C81 N76 1.363 1_565 S
C81 N78 1.377 . S
C81 C94 1.479 . S
C82 C79 1.480 . S
C82 C83 1.383 . S
C82 C87 1.385 . S
C83 H64 0.947 . S
C83 C82 1.383 . S
C83 C84 1.388 . S
C84 H65 0.946 . S
C84 C83 1.388 . S
C84 C85 1.384 . S
C85 C84 1.384 . S
C85 C86 1.377 . S
C86 H66 0.953 . S
C86 C85 1.377 . S
C86 C87 1.369 . S
C87 H67 0.945 . S
C87 C82 1.385 . S
C87 C86 1.369 . S
C88 C80 1.457 . S
C88 C89 1.372 . S
C88 C93 1.364 1_545 S
C89 H68 0.952 . S
C89 C88 1.372 . S
C89 C90 1.389 . S
C90 H69 0.949 . S
C90 C89 1.389 . S
C90 C91 1.387 . S
C91 C90 1.387 . S
C91 C92 1.372 1_545 S
C92 H70 0.950 . S
C92 C91 1.372 1_565 S
C92 C93 1.379 . S
C93 H71 0.948 . S
C93 C88 1.364 1_565 S
C93 C92 1.379 . S
C94 C63 1.383 . S
C94 C81 1.479 . S
C94 C95 1.398 . S
C95 C60 1.382 . S
C95 H72 0.951 . S
C95 C94 1.398 . S
C96 C97 1.384 . S
C96 H109 0.947 . S
C96 C131 1.382 . S
C97 C96 1.384 . S
C97 C98 1.378 . S
C98 C97 1.378 . S
C98 C99 1.378 . S
C98 H110 0.952 . S
C99 C98 1.378 . S
C99 H111 0.950 . S
C99 C130 1.383 . S
H100 C119 0.947 . S
H101 C120 0.946 . S
H102 C122 0.953 . S
H103 C123 0.945 . S
H104 C125 0.952 . S
H105 C126 0.949 . S
H106 C128 0.950 . S
H107 C129 0.948 . S
H108 C131 0.951 . S
H109 C96 0.947 . S
H110 C98 0.952 . S
H111 C99 0.950 . S
N112 C115 1.382 . S
N112 C117 1.363 . S
N113 C115 1.371 . S
N113 C116 1.372 . S
N114 C116 1.361 . S
N114 C117 1.377 . S
C115 N112 1.382 . S
C115 N113 1.371 . S
C115 C118 1.480 . S
C116 N113 1.372 . S
C116 N114 1.361 . S
C116 C124 1.457 . S
C117 N112 1.363 . S
C117 N114 1.377 . S
C117 C130 1.479 . S
C118 C115 1.480 . S
C118 C119 1.383 . S
C118 C123 1.385 . S
C119 H100 0.947 . S
C119 C118 1.383 . S
C119 C120 1.388 . S
C120 H101 0.946 . S
C120 C119 1.388 . S
C120 C121 1.384 . S
C121 C120 1.384 . S
C121 C122 1.377 . S
C122 H102 0.953 . S
C122 C121 1.377 . S
C122 C123 1.369 . S
C123 H103 0.945 . S
C123 C118 1.385 . S
C123 C122 1.369 . S
C124 C116 1.457 . S
C124 C125 1.372 . S
C124 C129 1.364 . S
C125 H104 0.952 . S
C125 C124 1.372 . S
C125 C126 1.389 . S
C126 H105 0.949 . S
C126 C125 1.389 . S
C126 C127 1.387 . S
C127 C126 1.387 . S
C127 C128 1.372 . S
C128 H106 0.950 . S
C128 C127 1.372 . S
C128 C129 1.379 . S
C129 H107 0.948 . S
C129 C124 1.364 . S
C129 C128 1.379 . S
C130 C99 1.383 . S
C130 C117 1.479 . S
C130 C131 1.398 . S
C131 C96 1.382 . S
C131 H108 0.951 . S
C131 C130 1.398 . S
C132 C133 1.384 . S
C132 H145 0.947 . S
C132 C167 1.382 . S
C133 C132 1.384 . S
C133 C134 1.378 . S
C134 C133 1.378 . S
C134 C135 1.378 . S
C134 H146 0.952 . S
C135 C134 1.378 . S
C135 H147 0.950 . S
C135 C166 1.383 . S
H136 C155 0.947 . S
H137 C156 0.946 . S
H138 C158 0.953 . S
H139 C159 0.945 . S
H140 C161 0.952 . S
H141 C162 0.949 . S
H142 C164 0.950 1_655 S
H143 C165 0.948 . S
H144 C167 0.951 . S
H145 C132 0.947 . S
H146 C134 0.952 . S
H147 C135 0.950 . S
N148 C151 1.382 . S
N148 C153 1.363 . S
N149 C151 1.371 . S
N149 C152 1.372 . S
N150 C152 1.361 . S
N150 C153 1.377 . S
C151 N148 1.382 . S
C151 N149 1.371 . S
C151 C154 1.480 . S
C152 N149 1.372 . S
C152 N150 1.361 . S
C152 C160 1.457 . S
C153 N148 1.363 . S
C153 N150 1.377 . S
C153 C166 1.479 1_455 S
C154 C151 1.480 . S
C154 C155 1.383 . S
C154 C159 1.385 . S
C155 H136 0.947 . S
C155 C154 1.383 . S
C155 C156 1.388 . S
C156 H137 0.946 . S
C156 C155 1.388 . S
C156 C157 1.384 . S
C157 C156 1.384 . S
C157 C158 1.377 . S
C158 H138 0.953 . S
C158 C157 1.377 . S
C158 C159 1.369 . S
C159 H139 0.945 . S
C159 C154 1.385 . S
C159 C158 1.369 . S
C160 C152 1.457 . S
C160 C161 1.372 . S
C160 C165 1.364 1_455 S
C161 H140 0.952 . S
C161 C160 1.372 . S
C161 C162 1.389 . S
C162 H141 0.949 . S
C162 C161 1.389 . S
C162 C163 1.387 1_556 S
C163 C162 1.387 1_554 S
C163 C164 1.371 1_554 S
C164 H142 0.950 1_455 S
C164 C163 1.371 1_556 S
C164 C165 1.379 1_455 S
C165 H143 0.948 . S
C165 C160 1.364 1_655 S
C165 C164 1.379 1_655 S
C166 C135 1.383 . S
C166 C153 1.479 1_655 S
C166 C167 1.398 . S
C167 C132 1.382 . S
C167 H144 0.951 . S
C167 C166 1.398 . S
C168 C169 1.384 . S
C168 H181 0.947 . S
C168 C203 1.382 . S
C169 C168 1.384 . S
C169 C170 1.378 . S
C170 C169 1.378 . S
C170 C171 1.378 . S
C170 H182 0.952 . S
C171 C170 1.378 . S
C171 H183 0.950 . S
C171 C202 1.383 . S
H172 C191 0.947 . S
H173 C192 0.946 . S
H174 C194 0.953 . S
H175 C195 0.945 . S
H176 C197 0.952 . S
H177 C198 0.949 . S
H178 C200 0.950 . S
H179 C201 0.948 . S
H180 C203 0.951 . S
H181 C168 0.947 . S
H182 C170 0.952 . S
H183 C171 0.950 . S
N184 C187 1.382 1_455 S
N184 C189 1.363 . S
N185 C187 1.371 . S
N185 C188 1.372 1_655 S
N186 C188 1.361 . S
N186 C189 1.377 . S
C187 N184 1.382 1_655 S
C187 N185 1.371 . S
C187 C190 1.480 . S
C188 N185 1.372 1_455 S
C188 N186 1.361 . S
C188 C196 1.457 . S
C189 N184 1.363 . S
C189 N186 1.377 . S
C189 C202 1.479 . S
C190 C187 1.480 . S
C190 C191 1.383 . S
C190 C195 1.385 . S
C191 H172 0.947 . S
C191 C190 1.383 . S
C191 C192 1.388 . S
C192 H173 0.946 . S
C192 C191 1.388 . S
C192 C193 1.384 . S
C193 C192 1.384 . S
C193 C194 1.377 . S
C194 H174 0.953 . S
C194 C193 1.377 . S
C194 C195 1.369 . S
C195 H175 0.945 . S
C195 C190 1.385 . S
C195 C194 1.369 . S
C196 C188 1.457 . S
C196 C197 1.372 1_455 S
C196 C201 1.364 . S
C197 H176 0.952 . S
C197 C196 1.372 1_655 S
C197 C198 1.389 . S
C198 H177 0.949 . S
C198 C197 1.389 . S
C198 C199 1.387 1_655 S
C199 C198 1.387 1_455 S
C199 C200 1.372 . S
C200 H178 0.950 . S
C200 C199 1.372 . S
C200 C201 1.379 . S
C201 H179 0.948 . S
C201 C196 1.364 . S
C201 C200 1.379 . S
C202 C171 1.383 . S
C202 C189 1.479 . S
C202 C203 1.398 . S
C203 C168 1.382 . S
C203 H180 0.951 . S
C203 C202 1.398 . S
C204 C205 1.384 . S
C204 H217 0.947 . S
C204 C239 1.382 . S
C205 C204 1.384 . S
C205 C206 1.378 . S
C206 C205 1.378 . S
C206 C207 1.378 . S
C206 H218 0.952 . S
C207 C206 1.378 . S
C207 H219 0.950 . S
C207 C238 1.383 . S
H208 C227 0.947 1_545 S
H209 C228 0.946 . S
H210 C230 0.953 . S
H211 C231 0.945 . S
H212 C233 0.952 1_565 S
H213 C234 0.949 1_565 S
H214 C236 0.950 . S
H215 C237 0.948 . S
H216 C239 0.951 . S
H217 C204 0.947 . S
H218 C206 0.952 . S
H219 C207 0.950 . S
N220 C223 1.382 . S
N220 C225 1.363 . S
N221 C223 1.371 . S
N221 C224 1.372 . S
N222 C224 1.361 . S
N222 C225 1.377 . S
C223 N220 1.382 . S
C223 N221 1.371 . S
C223 C226 1.480 1_545 S
C224 N221 1.372 . S
C224 N222 1.361 . S
C224 C232 1.457 . S
C225 N220 1.363 . S
C225 N222 1.377 . S
C225 C238 1.479 . S
C226 C223 1.480 1_565 S
C226 C227 1.383 . S
C226 C231 1.385 . S
C227 H208 0.947 1_565 S
C227 C226 1.383 . S
C227 C228 1.388 . S
C228 H209 0.946 . S
C228 C227 1.388 . S
C228 C229 1.384 . S
C229 C228 1.384 . S
C229 C230 1.377 . S
C230 H210 0.953 . S
C230 C229 1.377 . S
C230 C231 1.369 . S
C231 H211 0.945 . S
C231 C226 1.385 . S
C231 C230 1.369 . S
C232 C224 1.457 . S
C232 C233 1.372 . S
C232 C237 1.364 . S
C233 H212 0.952 1_545 S
C233 C232 1.372 . S
C233 C234 1.389 . S
C234 H213 0.949 1_545 S
C234 C233 1.389 . S
C234 C235 1.387 . S
C235 C234 1.387 . S
C235 C236 1.372 . S
C236 H214 0.950 . S
C236 C235 1.372 . S
C236 C237 1.379 . S
C237 H215 0.948 . S
C237 C232 1.364 . S
C237 C236 1.379 . S
C238 C207 1.383 . S
C238 C225 1.479 . S
C238 C239 1.398 . S
C239 C204 1.382 . S
C239 H216 0.951 . S
C239 C238 1.398 . S
C240 C241 1.384 . S
C240 H253 0.947 . S
C240 C275 1.382 . S
C241 C240 1.384 . S
C241 C242 1.378 . S
C242 C241 1.378 . S
C242 C243 1.378 . S
C242 H254 0.952 . S
C243 C242 1.378 . S
C243 H255 0.950 . S
C243 C274 1.383 . S
H244 C263 0.947 . S
H245 C264 0.946 . S
H246 C266 0.953 . S
H247 C267 0.945 . S
H248 C269 0.952 . S
H249 C270 0.950 1_556 S
H250 C272 0.944 1_556 S
H251 C273 0.948 . S
H252 C275 0.951 . S
H253 C240 0.947 . S
H254 C242 0.952 . S
H255 C243 0.950 . S
N256 C259 1.382 . S
N256 C261 1.363 . S
N257 C259 1.371 . S
N257 C260 1.372 . S
N258 C260 1.361 . S
N258 C261 1.377 . S
C259 N256 1.382 . S
C259 N257 1.371 . S
C259 C262 1.480 . S
C260 N257 1.372 . S
C260 N258 1.361 . S
C260 C268 1.457 . S
C261 N256 1.363 . S
C261 N258 1.377 . S
C261 C274 1.479 . S
C262 C259 1.480 . S
C262 C263 1.383 . S
C262 C267 1.385 . S
C263 H244 0.947 . S
C263 C262 1.383 . S
C263 C264 1.388 . S
C264 H245 0.946 . S
C264 C263 1.388 . S
C264 C265 1.384 . S
C265 C264 1.384 . S
C265 C266 1.377 . S
C266 H246 0.953 . S
C266 C265 1.377 . S
C266 C267 1.369 . S
C267 H247 0.945 . S
C267 C262 1.385 . S
C267 C266 1.369 . S
C268 C260 1.457 . S
C268 C269 1.372 . S
C268 C273 1.364 . S
C269 H248 0.952 . S
C269 C268 1.372 . S
C269 C270 1.389 . S
C270 H249 0.950 1_554 S
C270 C269 1.389 . S
C270 C271 1.387 1_554 S
C271 C270 1.387 1_556 S
C271 C272 1.372 1_556 S
C272 H250 0.944 1_554 S
C272 C271 1.372 1_554 S
C272 C273 1.379 . S
C273 H251 0.948 . S
C273 C268 1.364 . S
C273 C272 1.379 . S
C274 C243 1.383 . S
C274 C261 1.479 . S
C274 C275 1.398 . S
C275 C240 1.382 . S
C275 H252 0.951 . S
C275 C274 1.398 . S
C276 C277 1.363 . S
C276 C282 1.379 . S
C276 N284 1.356 . S
C277 C276 1.363 . S
C277 C283 1.363 . S
C278 C279 1.363 . S
C278 C283 1.379 . S
C278 N285 1.356 . S
C279 C278 1.363 . S
C279 C282 1.363 . S
N280 C282 1.356 . S
N280 H292 0.984 . S
N280 H293 0.985 . S
N281 C283 1.356 . S
N281 H286 0.984 . S
N281 H287 0.985 . S
C282 C276 1.379 . S
C282 C279 1.363 . S
C282 N280 1.356 . S
C283 C277 1.363 . S
C283 C278 1.379 . S
C283 N281 1.356 . S
N284 C276 1.356 . S
N284 H290 0.984 . S
N284 H291 0.984 . S
N285 C278 1.356 . S
N285 H288 0.984 . S
N285 H289 0.985 . S
H286 N281 0.984 . S
H287 N281 0.985 . S
H288 N285 0.984 . S
H289 N285 0.985 . S
H290 N284 0.984 . S
H291 N284 0.984 . S
H292 N280 0.984 . S
H293 N280 0.985 . S
C294 C295 1.363 . S
C294 C300 1.379 . S
C294 N302 1.356 . S
C295 C294 1.363 . S
C295 C301 1.363 . S
C296 C297 1.363 . S
C296 C301 1.379 . S
C296 N303 1.356 . S
C297 C296 1.363 . S
C297 C300 1.363 . S
N298 C300 1.356 . S
N298 H310 0.984 . S
N298 H311 0.985 . S
N299 C301 1.356 . S
N299 H304 0.984 . S
N299 H305 0.985 . S
C300 C294 1.379 . S
C300 C297 1.363 . S
C300 N298 1.356 . S
C301 C295 1.363 . S
C301 C296 1.379 . S
C301 N299 1.356 . S
N302 C294 1.356 . S
N302 H308 0.984 . S
N302 H309 0.984 . S
N303 C296 1.356 . S
N303 H306 0.984 . S
N303 H307 0.985 . S
H304 N299 0.984 . S
H305 N299 0.985 . S
H306 N303 0.984 . S
H307 N303 0.985 . S
H308 N302 0.984 . S
H309 N302 0.984 . S
H310 N298 0.984 . S
H311 N298 0.985 . S
C312 C313 1.363 . S
C312 C318 1.379 . S
C312 N320 1.356 . S
C313 C312 1.363 . S
C313 C319 1.363 . S
C314 C315 1.363 . S
C314 C319 1.379 . S
C314 N321 1.356 . S
C315 C314 1.363 . S
C315 C318 1.363 . S
N316 C318 1.356 . S
N316 H328 0.984 . S
N316 H329 0.985 . S
N317 C319 1.356 . S
N317 H322 0.984 . S
N317 H323 0.985 . S
C318 C312 1.379 . S
C318 C315 1.363 . S
C318 N316 1.356 . S
C319 C313 1.363 . S
C319 C314 1.379 . S
C319 N317 1.356 . S
N320 C312 1.356 . S
N320 H326 0.984 . S
N320 H327 0.984 . S
N321 C314 1.356 . S
N321 H324 0.984 . S
N321 H325 0.985 . S
H322 N317 0.984 . S
H323 N317 0.985 . S
H324 N321 0.984 . S
H325 N321 0.985 . S
H326 N320 0.984 . S
H327 N320 0.984 . S
H328 N316 0.984 . S
H329 N316 0.985 . S
C330 C331 1.363 . S
C330 C336 1.379 . S
C330 N338 1.356 . S
C331 C330 1.363 . S
C331 C337 1.363 . S
C332 C333 1.363 . S
C332 C337 1.379 . S
C332 N339 1.356 . S
C333 C332 1.363 . S
C333 C336 1.363 . S
N334 C336 1.356 . S
N334 H346 0.984 . S
N334 H347 0.985 . S
N335 C337 1.356 . S
N335 H340 0.984 . S
N335 H341 0.985 . S
C336 C330 1.379 . S
C336 C333 1.363 . S
C336 N334 1.356 . S
C337 C331 1.363 . S
C337 C332 1.379 . S
C337 N335 1.356 . S
N338 C330 1.356 . S
N338 H344 0.984 . S
N338 H345 0.984 . S
N339 C332 1.356 . S
N339 H342 0.984 . S
N339 H343 0.985 . S
H340 N335 0.984 . S
H341 N335 0.985 . S
H342 N339 0.984 . S
H343 N339 0.985 . S
H344 N338 0.984 . S
H345 N338 0.984 . S
H346 N334 0.984 . S
H347 N334 0.985 . S
C348 C349 1.363 . S
C348 C354 1.379 . S
C348 N356 1.356 . S
C349 C348 1.363 . S
C349 C355 1.363 . S
C350 C351 1.363 . S
C350 C355 1.379 . S
C350 N357 1.356 . S
C351 C350 1.363 . S
C351 C354 1.363 . S
N352 C354 1.356 . S
N352 H364 0.984 . S
N352 H365 0.985 . S
N353 C355 1.356 . S
N353 H358 0.984 . S
N353 H359 0.985 . S
C354 C348 1.379 . S
C354 C351 1.363 . S
C354 N352 1.356 . S
C355 C349 1.363 . S
C355 C350 1.379 . S
C355 N353 1.356 . S
N356 C348 1.356 . S
N356 H362 0.984 . S
N356 H363 0.984 . S
N357 C350 1.356 . S
N357 H360 0.984 . S
N357 H361 0.985 . S
H358 N353 0.984 . S
H359 N353 0.985 . S
H360 N357 0.984 . S
H361 N357 0.985 . S
H362 N356 0.984 . S
H363 N356 0.984 . S
H364 N352 0.984 . S
H365 N352 0.985 . S
C366 C367 1.363 . S
C366 C372 1.379 . S
C366 N374 1.356 . S
C367 C366 1.363 . S
C367 C373 1.363 . S
C368 C369 1.363 . S
C368 C373 1.379 . S
C368 N375 1.356 . S
C369 C368 1.363 . S
C369 C372 1.363 . S
N370 C372 1.356 . S
N370 H382 0.984 . S
N370 H383 0.985 . S
N371 C373 1.356 . S
N371 H376 0.984 . S
N371 H377 0.985 . S
C372 C366 1.379 . S
C372 C369 1.363 . S
C372 N370 1.356 . S
C373 C367 1.363 . S
C373 C368 1.379 . S
C373 N371 1.356 . S
N374 C366 1.356 . S
N374 H380 0.984 . S
N374 H381 0.984 . S
N375 C368 1.356 . S
N375 H378 0.984 . S
N375 H379 0.985 . S
H376 N371 0.984 . S
H377 N371 0.985 . S
H378 N375 0.984 . S
H379 N375 0.985 . S
H380 N374 0.984 . S
H381 N374 0.984 . S
H382 N370 0.984 . S
H383 N370 0.985 . S
C384 C385 1.363 . S
C384 C390 1.379 . S
C384 N392 1.356 . S
C385 C384 1.363 . S
C385 C391 1.363 . S
C386 C387 1.363 . S
C386 C391 1.379 . S
C386 N393 1.356 . S
C387 C386 1.363 . S
C387 C390 1.363 . S
N388 C390 1.356 . S
N388 H400 0.984 . S
N388 H401 0.985 . S
N389 C391 1.356 . S
N389 H394 0.984 . S
N389 H395 0.985 . S
C390 C384 1.379 . S
C390 C387 1.363 . S
C390 N388 1.356 . S
C391 C385 1.363 . S
C391 C386 1.379 . S
C391 N389 1.356 . S
N392 C384 1.356 . S
N392 H398 0.984 . S
N392 H399 0.984 . S
N393 C386 1.356 . S
N393 H396 0.984 . S
N393 H397 0.985 . S
H394 N389 0.984 . S
H395 N389 0.985 . S
H396 N393 0.984 . S
H397 N393 0.985 . S
H398 N392 0.984 . S
H399 N392 0.984 . S
H400 N388 0.984 . S
H401 N388 0.985 . S
C402 C403 1.363 . S
C402 C408 1.379 . S
C402 N410 1.356 . S
C403 C402 1.363 . S
C403 C409 1.363 . S
C404 C405 1.363 . S
C404 C409 1.379 . S
C404 N411 1.356 . S
C405 C404 1.363 . S
C405 C408 1.363 . S
N406 C408 1.356 . S
N406 H418 0.984 . S
N406 H419 0.985 . S
N407 C409 1.356 . S
N407 H412 0.984 . S
N407 H413 0.985 . S
C408 C402 1.379 . S
C408 C405 1.363 . S
C408 N406 1.356 . S
C409 C403 1.363 . S
C409 C404 1.379 . S
C409 N407 1.356 . S
N410 C402 1.356 . S
N410 H416 0.984 . S
N410 H417 0.984 . S
N411 C404 1.356 . S
N411 H414 0.984 . S
N411 H415 0.985 . S
H412 N407 0.984 . S
H413 N407 0.985 . S
H414 N411 0.984 . S
H415 N411 0.985 . S
H416 N410 0.984 . S
H417 N410 0.984 . S
H418 N406 0.984 . S
H419 N406 0.985 . S
C420 C421 1.363 . S
C420 C426 1.379 . S
C420 N428 1.356 . S
C421 C420 1.363 . S
C421 C427 1.363 . S
C422 C423 1.363 . S
C422 C427 1.379 . S
C422 N429 1.356 . S
C423 C422 1.363 . S
C423 C426 1.363 . S
N424 C426 1.356 . S
N424 H436 0.984 . S
N424 H437 0.985 . S
N425 C427 1.356 . S
N425 H430 0.984 . S
N425 H431 0.985 . S
C426 C420 1.379 . S
C426 C423 1.363 . S
C426 N424 1.356 . S
C427 C421 1.363 . S
C427 C422 1.379 . S
C427 N425 1.356 . S
N428 C420 1.356 . S
N428 H434 0.984 . S
N428 H435 0.984 . S
N429 C422 1.356 . S
N429 H432 0.984 . S
N429 H433 0.985 . S
H430 N425 0.984 . S
H431 N425 0.985 . S
H432 N429 0.984 . S
H433 N429 0.985 . S
H434 N428 0.984 . S
H435 N428 0.984 . S
H436 N424 0.984 . S
H437 N424 0.985 . S
C438 C439 1.363 . S
C438 C444 1.379 . S
C438 N446 1.356 . S
C439 C438 1.363 . S
C439 C445 1.363 . S
C440 C441 1.363 . S
C440 C445 1.379 . S
C440 N447 1.356 . S
C441 C440 1.363 . S
C441 C444 1.363 . S
N442 C444 1.356 . S
N442 H454 0.984 . S
N442 H455 0.985 . S
N443 C445 1.356 . S
N443 H448 0.984 . S
N443 H449 0.985 . S
C444 C438 1.379 . S
C444 C441 1.363 . S
C444 N442 1.356 . S
C445 C439 1.363 . S
C445 C440 1.379 . S
C445 N443 1.356 . S
N446 C438 1.356 . S
N446 H452 0.984 . S
N446 H453 0.984 . S
N447 C440 1.356 . S
N447 H450 0.984 . S
N447 H451 0.985 . S
H448 N443 0.984 . S
H449 N443 0.985 . S
H450 N447 0.984 . S
H451 N447 0.985 . S
H452 N446 0.984 . S
H453 N446 0.984 . S
H454 N442 0.984 . S
H455 N442 0.985 . S
C456 C457 1.363 . S
C456 C462 1.379 . S
C456 N464 1.356 . S
C457 C456 1.363 . S
C457 C463 1.363 . S
C458 C459 1.363 . S
C458 C463 1.379 . S
C458 N465 1.356 . S
C459 C458 1.363 . S
C459 C462 1.363 . S
N460 C462 1.356 . S
N460 H472 0.984 . S
N460 H473 0.985 . S
N461 C463 1.356 . S
N461 H466 0.984 . S
N461 H467 0.985 . S
C462 C456 1.379 . S
C462 C459 1.363 . S
C462 N460 1.356 . S
C463 C457 1.363 . S
C463 C458 1.379 . S
C463 N461 1.356 . S
N464 C456 1.356 . S
N464 H470 0.984 . S
N464 H471 0.984 . S
N465 C458 1.356 . S
N465 H468 0.984 . S
N465 H469 0.985 . S
H466 N461 0.984 . S
H467 N461 0.985 . S
H468 N465 0.984 . S
H469 N465 0.985 . S
H470 N464 0.984 . S
H471 N464 0.984 . S
H472 N460 0.984 . S
H473 N460 0.985 . S
C474 C475 1.363 . S
C474 C480 1.379 . S
C474 N482 1.356 . S
C475 C474 1.363 . S
C475 C481 1.363 . S
C476 C477 1.363 . S
C476 C481 1.379 . S
C476 N483 1.356 . S
C477 C476 1.363 . S
C477 C480 1.363 . S
N478 C480 1.356 . S
N478 H490 0.984 . S
N478 H491 0.985 . S
N479 C481 1.356 . S
N479 H484 0.984 . S
N479 H485 0.985 . S
C480 C474 1.379 . S
C480 C477 1.363 . S
C480 N478 1.356 . S
C481 C475 1.363 . S
C481 C476 1.379 . S
C481 N479 1.356 . S
N482 C474 1.356 . S
N482 H488 0.984 . S
N482 H489 0.984 . S
N483 C476 1.356 . S
N483 H486 0.984 . S
N483 H487 0.985 . S
H484 N479 0.984 . S
H485 N479 0.985 . S
H486 N483 0.984 . S
H487 N483 0.985 . S
H488 N482 0.984 . S
H489 N482 0.984 . S
H490 N478 0.984 . S
H491 N478 0.985 . S
C492 C493 1.363 . S
C492 C498 1.379 . S
C492 N500 1.356 . S
C493 C492 1.363 . S
C493 C499 1.363 . S
C494 C495 1.363 . S
C494 C499 1.379 . S
C494 N501 1.356 . S
C495 C494 1.363 . S
C495 C498 1.363 . S
N496 C498 1.356 . S
N496 H508 0.984 . S
N496 H509 0.985 . S
N497 C499 1.356 . S
N497 H502 0.984 . S
N497 H503 0.985 . S
C498 C492 1.379 . S
C498 C495 1.363 . S
C498 N496 1.356 . S
C499 C493 1.363 . S
C499 C494 1.379 . S
C499 N497 1.356 . S
N500 C492 1.356 . S
N500 H506 0.984 . S
N500 H507 0.984 . S
N501 C494 1.356 . S
N501 H504 0.984 . S
N501 H505 0.985 . S
H502 N497 0.984 . S
H503 N497 0.985 . S
H504 N501 0.984 . S
H505 N501 0.985 . S
H506 N500 0.984 . S
H507 N500 0.984 . S
H508 N496 0.984 . S
H509 N496 0.985 . S
C510 C511 1.363 1_565 S
C510 C516 1.379 . S
C510 N518 1.356 . S
C511 C510 1.363 1_545 S
C511 C517 1.363 . S
C512 C513 1.363 . S
C512 C517 1.379 . S
C512 N519 1.356 . S
C513 C512 1.363 . S
C513 C516 1.363 1_545 S
N514 C516 1.356 . S
N514 H526 0.984 . S
N514 H527 0.985 . S
N515 C517 1.356 . S
N515 H520 0.984 . S
N515 H521 0.985 . S
C516 C510 1.379 . S
C516 C513 1.363 1_565 S
C516 N514 1.356 . S
C517 C511 1.363 . S
C517 C512 1.379 . S
C517 N515 1.356 . S
N518 C510 1.356 . S
N518 H524 0.984 . S
N518 H525 0.984 . S
N519 C512 1.356 . S
N519 H522 0.984 . S
N519 H523 0.985 . S
H520 N515 0.984 . S
H521 N515 0.985 . S
H522 N519 0.984 . S
H523 N519 0.985 . S
H524 N518 0.984 . S
H525 N518 0.984 . S
H526 N514 0.984 . S
H527 N514 0.985 . S
C528 C529 1.363 . S
C528 C534 1.379 . S
C528 N536 1.356 . S
C529 C528 1.363 . S
C529 C535 1.363 . S
C530 C531 1.363 . S
C530 C535 1.379 . S
C530 N537 1.356 . S
C531 C530 1.363 . S
C531 C534 1.363 . S
N532 C534 1.356 . S
N532 H544 0.984 . S
N532 H545 0.985 . S
N533 C535 1.356 . S
N533 H538 0.984 . S
N533 H539 0.985 . S
C534 C528 1.379 . S
C534 C531 1.363 . S
C534 N532 1.356 . S
C535 C529 1.363 . S
C535 C530 1.379 . S
C535 N533 1.356 . S
N536 C528 1.356 . S
N536 H542 0.984 . S
N536 H543 0.984 . S
N537 C530 1.356 . S
N537 H540 0.984 . S
N537 H541 0.985 . S
H538 N533 0.984 . S
H539 N533 0.985 . S
H540 N537 0.984 . S
H541 N537 0.985 . S
H542 N536 0.984 . S
H543 N536 0.984 . S
H544 N532 0.984 . S
H545 N532 0.985 . S
C546 C547 1.363 . S
C546 C552 1.379 . S
C546 N554 1.356 . S
C547 C546 1.363 . S
C547 C553 1.363 . S
C548 C549 1.363 . S
C548 C553 1.379 . S
C548 N555 1.356 1_545 S
C549 C548 1.363 . S
C549 C552 1.363 . S
N550 C552 1.356 . S
N550 H562 0.984 . S
N550 H563 0.985 . S
N551 C553 1.356 1_565 S
N551 H556 0.984 . S
N551 H557 0.985 . S
C552 C546 1.379 . S
C552 C549 1.363 . S
C552 N550 1.356 . S
C553 C547 1.363 . S
C553 C548 1.379 . S
C553 N551 1.356 1_545 S
N554 C546 1.356 . S
N554 H560 0.984 . S
N554 H561 0.984 . S
N555 C548 1.356 1_565 S
N555 H558 0.984 . S
N555 H559 0.985 . S
H556 N551 0.984 . S
H557 N551 0.985 . S
H558 N555 0.984 . S
H559 N555 0.985 . S
H560 N554 0.984 . S
H561 N554 0.984 . S
H562 N550 0.984 . S
H563 N550 0.985 . S
C564 C565 1.363 . S
C564 C570 1.379 . S
C564 N572 1.356 . S
C565 C564 1.363 . S
C565 C571 1.363 . S
C566 C567 1.363 . S
C566 C571 1.379 . S
C566 N573 1.356 . S
C567 C566 1.363 . S
C567 C570 1.363 . S
N568 C570 1.356 . S
N568 H580 0.984 . S
N568 H581 0.985 . S
N569 C571 1.356 . S
N569 H574 0.984 . S
N569 H575 0.985 . S
C570 C564 1.379 . S
C570 C567 1.363 . S
C570 N568 1.356 . S
C571 C565 1.363 . S
C571 C566 1.379 . S
C571 N569 1.356 . S
N572 C564 1.356 . S
N572 H578 0.984 . S
N572 H579 0.984 . S
N573 C566 1.356 . S
N573 H576 0.984 . S
N573 H577 0.985 . S
H574 N569 0.984 . S
H575 N569 0.985 . S
H576 N573 0.984 . S
H577 N573 0.985 . S
H578 N572 0.984 . S
H579 N572 0.984 . S
H580 N568 0.984 . S
H581 N568 0.985 . S
C582 C583 1.363 1_655 S
C582 C588 1.379 . S
C582 N590 1.356 . S
C583 C582 1.363 1_455 S
C583 C589 1.363 . S
C584 C585 1.363 . S
C584 C589 1.379 . S
C584 N591 1.356 . S
C585 C584 1.363 . S
C585 C588 1.363 1_455 S
N586 C588 1.356 . S
N586 H598 0.984 . S
N586 H599 0.985 . S
N587 C589 1.356 . S
N587 H592 0.984 . S
N587 H593 0.985 . S
C588 C582 1.379 . S
C588 C585 1.363 1_655 S
C588 N586 1.356 . S
C589 C583 1.363 . S
C589 C584 1.379 . S
C589 N587 1.356 . S
N590 C582 1.356 . S
N590 H596 0.984 . S
N590 H597 0.984 . S
N591 C584 1.356 . S
N591 H594 0.984 . S
N591 H595 0.985 . S
H592 N587 0.984 . S
H593 N587 0.985 . S
H594 N591 0.984 . S
H595 N591 0.985 . S
H596 N590 0.984 . S
H597 N590 0.984 . S
H598 N586 0.984 . S
H599 N586 0.985 . S
C277 C2 1.159 . S
C279 C265 1.125 . S
C295 C21 1.114 . S
C297 C193 1.078 . S
C313 C42 1.159 . S
C315 C229 1.125 . S
C331 C1 1.111 . S
C333 C241 1.096 . S
C351 C169 1.140 . S
C349 C22 1.155 . S
C369 C205 1.097 . S
C367 C41 1.111 . S
C385 C38 2.018 . S
C387 C121 1.918 . S
C403 C59 2.049 . S
C405 C133 2.002 . S
C421 C18 2.015 . S
C423 C61 1.956 . S
C441 C97 2.002 . S
C439 C39 2.049 . S
C459 C157 1.918 . S
C457 C58 2.018 . S
C475 C19 2.052 . S
C477 C85 1.962 . S
C495 C163 1.572 . S
C493 C9 1.508 . S
C511 C29 1.508 . S
C513 C91 1.575 . S
C529 C49 1.508 . S
C531 C127 1.572 . S
C549 C235 1.389 . S
C547 C28 1.365 . S
C567 C271 1.388 . S
C565 C48 1.365 . S
C583 C8 1.364 . S
C585 C199 1.383 . S
