# Generated by pormake.
# Topology eea, (3,6)-cn, num edge types: 1
# Building blocks:
#     Node 0, Type 0, BuildingBlock: BETDAH_clean_linker_0, # of connection points: 3
#     Node 1, Type 0, BuildingBlock: BETDAH_clean_linker_0, # of connection points: 3
#     Node 2, Type 0, BuildingBlock: BETDAH_clean_linker_0, # of connection points: 3
#     Node 3, Type 0, BuildingBlock: BETDAH_clean_linker_0, # of connection points: 3
#     Node 4, Type 0, BuildingBlock: BETDAH_clean_linker_0, # of connection points: 3
#     Node 5, Type 0, BuildingBlock: BETDAH_clean_linker_0, # of connection points: 3
#     Node 6, Type 0, BuildingBlock: BETDAH_clean_linker_0, # of connection points: 3
#     Node 7, Type 0, BuildingBlock: BETDAH_clean_linker_0, # of connection points: 3
#     Node 8, Type 0, BuildingBlock: BETDAH_clean_linker_0, # of connection points: 3
#     Node 9, Type 0, BuildingBlock: BETDAH_clean_linker_0, # of connection points: 3
#     Node 10, Type 0, BuildingBlock: BETDAH_clean_linker_0, # of connection points: 3
#     Node 11, Type 0, BuildingBlock: BETDAH_clean_linker_0, # of connection points: 3
#     Node 12, Type 0, BuildingBlock: BETDAH_clean_linker_0, # of connection points: 3
#     Node 13, Type 0, BuildingBlock: BETDAH_clean_linker_0, # of connection points: 3
#     Node 14, Type 0, BuildingBlock: BETDAH_clean_linker_0, # of connection points: 3
#     Node 15, Type 0, BuildingBlock: BETDAH_clean_linker_0, # of connection points: 3
#     Node 16, Type 0, BuildingBlock: BETDAH_clean_linker_0, # of connection points: 3
#     Node 17, Type 0, BuildingBlock: BETDAH_clean_linker_0, # of connection points: 3
#     Node 18, Type 1, BuildingBlock: CUKXOW_clean_sbu_0, # of connection points: 6
#     Node 19, Type 1, BuildingBlock: CUKXOW_clean_sbu_0, # of connection points: 6
#     Node 20, Type 1, BuildingBlock: CUKXOW_clean_sbu_0, # of connection points: 6
#     Node 21, Type 1, BuildingBlock: CUKXOW_clean_sbu_0, # of connection points: 6
#     Node 22, Type 1, BuildingBlock: CUKXOW_clean_sbu_0, # of connection points: 6
#     Node 23, Type 1, BuildingBlock: CUKXOW_clean_sbu_0, # of connection points: 6
#     Node 24, Type 1, BuildingBlock: CUKXOW_clean_sbu_0, # of connection points: 6
#     Node 25, Type 1, BuildingBlock: CUKXOW_clean_sbu_0, # of connection points: 6
#     Node 26, Type 1, BuildingBlock: CUKXOW_clean_sbu_0, # of connection points: 6
#     Edge 27, Type (0, 1), BuildingBlock: XUDNAN_clean_linker_2, # of connection points: 2
#     Edge 28, Type (0, 1), BuildingBlock: XUDNAN_clean_linker_2, # of connection points: 2
#     Edge 29, Type (0, 1), BuildingBlock: XUDNAN_clean_linker_2, # of connection points: 2
#     Edge 30, Type (0, 1), BuildingBlock: XUDNAN_clean_linker_2, # of connection points: 2
#     Edge 31, Type (0, 1), BuildingBlock: XUDNAN_clean_linker_2, # of connection points: 2
#     Edge 32, Type (0, 1), BuildingBlock: XUDNAN_clean_linker_2, # of connection points: 2
#     Edge 33, Type (0, 1), BuildingBlock: XUDNAN_clean_linker_2, # of connection points: 2
#     Edge 34, Type (0, 1), BuildingBlock: XUDNAN_clean_linker_2, # of connection points: 2
#     Edge 35, Type (0, 1), BuildingBlock: XUDNAN_clean_linker_2, # of connection points: 2
#     Edge 36, Type (0, 1), BuildingBlock: XUDNAN_clean_linker_2, # of connection points: 2
#     Edge 37, Type (0, 1), BuildingBlock: XUDNAN_clean_linker_2, # of connection points: 2
#     Edge 38, Type (0, 1), BuildingBlock: XUDNAN_clean_linker_2, # of connection points: 2
#     Edge 39, Type (0, 1), BuildingBlock: XUDNAN_clean_linker_2, # of connection points: 2
#     Edge 40, Type (0, 1), BuildingBlock: XUDNAN_clean_linker_2, # of connection points: 2
#     Edge 41, Type (0, 1), BuildingBlock: XUDNAN_clean_linker_2, # of connection points: 2
#     Edge 42, Type (0, 1), BuildingBlock: XUDNAN_clean_linker_2, # of connection points: 2
#     Edge 43, Type (0, 1), BuildingBlock: XUDNAN_clean_linker_2, # of connection points: 2
#     Edge 44, Type (0, 1), BuildingBlock: XUDNAN_clean_linker_2, # of connection points: 2
#     Edge 45, Type (0, 1), BuildingBlock: XUDNAN_clean_linker_2, # of connection points: 2
#     Edge 46, Type (0, 1), BuildingBlock: XUDNAN_clean_linker_2, # of connection points: 2
#     Edge 47, Type (0, 1), BuildingBlock: XUDNAN_clean_linker_2, # of connection points: 2
#     Edge 48, Type (0, 1), BuildingBlock: XUDNAN_clean_linker_2, # of connection points: 2
#     Edge 49, Type (0, 1), BuildingBlock: XUDNAN_clean_linker_2, # of connection points: 2
#     Edge 50, Type (0, 1), BuildingBlock: XUDNAN_clean_linker_2, # of connection points: 2
#     Edge 51, Type (0, 1), BuildingBlock: XUDNAN_clean_linker_2, # of connection points: 2
#     Edge 52, Type (0, 1), BuildingBlock: XUDNAN_clean_linker_2, # of connection points: 2
#     Edge 53, Type (0, 1), BuildingBlock: XUDNAN_clean_linker_2, # of connection points: 2
#     Edge 54, Type (0, 1), BuildingBlock: XUDNAN_clean_linker_2, # of connection points: 2
#     Edge 55, Type (0, 1), BuildingBlock: XUDNAN_clean_linker_2, # of connection points: 2
#     Edge 56, Type (0, 1), BuildingBlock: XUDNAN_clean_linker_2, # of connection points: 2
#     Edge 57, Type (0, 1), BuildingBlock: XUDNAN_clean_linker_2, # of connection points: 2
#     Edge 58, Type (0, 1), BuildingBlock: XUDNAN_clean_linker_2, # of connection points: 2
#     Edge 59, Type (0, 1), BuildingBlock: XUDNAN_clean_linker_2, # of connection points: 2
#     Edge 60, Type (0, 1), BuildingBlock: XUDNAN_clean_linker_2, # of connection points: 2
#     Edge 61, Type (0, 1), BuildingBlock: XUDNAN_clean_linker_2, # of connection points: 2
#     Edge 62, Type (0, 1), BuildingBlock: XUDNAN_clean_linker_2, # of connection points: 2
#     Edge 63, Type (0, 1), BuildingBlock: XUDNAN_clean_linker_2, # of connection points: 2
#     Edge 64, Type (0, 1), BuildingBlock: XUDNAN_clean_linker_2, # of connection points: 2
#     Edge 65, Type (0, 1), BuildingBlock: XUDNAN_clean_linker_2, # of connection points: 2
#     Edge 66, Type (0, 1), BuildingBlock: XUDNAN_clean_linker_2, # of connection points: 2
#     Edge 67, Type (0, 1), BuildingBlock: XUDNAN_clean_linker_2, # of connection points: 2
#     Edge 68, Type (0, 1), BuildingBlock: XUDNAN_clean_linker_2, # of connection points: 2
#     Edge 69, Type (0, 1), BuildingBlock: XUDNAN_clean_linker_2, # of connection points: 2
#     Edge 70, Type (0, 1), BuildingBlock: XUDNAN_clean_linker_2, # of connection points: 2
#     Edge 71, Type (0, 1), BuildingBlock: XUDNAN_clean_linker_2, # of connection points: 2
#     Edge 72, Type (0, 1), BuildingBlock: XUDNAN_clean_linker_2, # of connection points: 2
#     Edge 73, Type (0, 1), BuildingBlock: XUDNAN_clean_linker_2, # of connection points: 2
#     Edge 74, Type (0, 1), BuildingBlock: XUDNAN_clean_linker_2, # of connection points: 2
#     Edge 75, Type (0, 1), BuildingBlock: XUDNAN_clean_linker_2, # of connection points: 2
#     Edge 76, Type (0, 1), BuildingBlock: XUDNAN_clean_linker_2, # of connection points: 2
#     Edge 77, Type (0, 1), BuildingBlock: XUDNAN_clean_linker_2, # of connection points: 2
#     Edge 78, Type (0, 1), BuildingBlock: XUDNAN_clean_linker_2, # of connection points: 2
#     Edge 79, Type (0, 1), BuildingBlock: XUDNAN_clean_linker_2, # of connection points: 2
#     Edge 80, Type (0, 1), BuildingBlock: XUDNAN_clean_linker_2, # of connection points: 2
# Relax obj value: 0.033
# Max RMSD: 0.156
# Mean RMSD: 0.090
data_MOF--net-eea--node1-CUKXOW_clean_sbu_0--node2-BETDAH_clean_linker_0--edge1-XUDNAN_clean_linker_2
_symmetry_space_group_name_H-M    P1
_symmetry_Int_Tables_number       1
_symmetry_cell_setting            triclinic
loop_
_symmetry_equiv_pos_as_xyz
'x, y, z'
_cell_length_a     59.937633
_cell_length_b     56.514438
_cell_length_c     49.993622
_cell_angle_alpha  93.189532
_cell_angle_beta   93.226323
_cell_angle_gamma 119.93435
loop_
_atom_site_label
_atom_site_type_symbol
_atom_site_fract_x
_atom_site_fract_y
_atom_site_fract_z
_atom_type_partial_charge
H0 H 0.27179 0.09551 0.448 0.0
H1 H 0.25679 0.1611 0.4344 0.0
H2 H 0.23545 0.09607 0.37168 0.0
C3 C 0.26474 0.10544 0.43479 0.0
C4 C 0.25349 0.09301 0.40881 0.0
C5 C 0.26566 0.12981 0.44428 0.0
C6 C 0.256 0.14226 0.42712 0.0
C7 C 0.24549 0.13031 0.40063 0.0
C8 C 0.24395 0.10552 0.39189 0.0
N9 N 0.23622 0.14238 0.38215 0.0
C10 C 0.23644 0.16688 0.3876 0.0
H11 H 0.94678 0.18035 0.47172 0.0
H12 H 0.86941 0.10899 0.45987 0.0
H13 H 0.91787 0.13156 0.3959 0.0
C14 C 0.93121 0.16282 0.45964 0.0
C15 C 0.93576 0.15685 0.43346 0.0
C16 C 0.90702 0.14616 0.4699 0.0
C17 C 0.88773 0.12315 0.45293 0.0
C18 C 0.89164 0.11848 0.4262 0.0
C19 C 0.91528 0.13554 0.41663 0.0
N20 N 0.87187 0.09745 0.40786 0.0
C21 C 0.85378 0.07164 0.41443 0.0
H22 H 0.84072 0.73021 0.46246 0.0
H23 H 0.9238 0.76962 0.47388 0.0
H24 H 0.88754 0.80144 0.42184 0.0
C25 C 0.85961 0.74594 0.45773 0.0
C26 C 0.86144 0.76541 0.44047 0.0
C27 C 0.88199 0.74763 0.47021 0.0
C28 C 0.90647 0.76821 0.46424 0.0
C29 C 0.90839 0.78741 0.44637 0.0
C30 C 0.88591 0.78633 0.43524 0.0
N31 N 0.93257 0.8086 0.43976 0.0
C32 C 0.95406 0.80565 0.43739 0.0
H33 H 0.08519 0.271 0.56942 0.0
H34 H 0.13486 0.23969 0.54748 0.0
H35 H 0.07927 0.20021 0.60403 0.0
C36 C 0.09182 0.25644 0.57149 0.0
C37 C 0.08007 0.2356 0.5887 0.0
C38 C 0.11117 0.25766 0.55599 0.0
C39 C 0.1197 0.23877 0.55901 0.0
C40 C 0.10842 0.21832 0.57657 0.0
C41 C 0.08818 0.21633 0.59077 0.0
N42 N 0.11667 0.19902 0.57938 0.0
C43 C 0.14094 0.20669 0.59182 0.0
H44 H 0.77095 0.82209 0.56872 0.0
H45 H 0.74272 0.87886 0.57492 0.0
H46 H 0.78065 0.86837 0.64428 0.0
C47 C 0.76836 0.83714 0.58036 0.0
C48 C 0.77718 0.8434 0.608 0.0
C49 C 0.75635 0.85023 0.56777 0.0
C50 C 0.75331 0.86971 0.58345 0.0
C51 C 0.76275 0.87689 0.61061 0.0
C52 C 0.77472 0.8638 0.62286 0.0
N53 N 0.75587 0.89353 0.62623 0.0
C54 C 0.77335 0.91997 0.63773 0.0
H55 H 0.18542 0.93408 0.57485 0.0
H56 H 0.12286 0.85498 0.59074 0.0
H57 H 0.14965 0.92444 0.64887 0.0
C58 C 0.17096 0.92132 0.58771 0.0
C59 C 0.16911 0.93296 0.61254 0.0
C60 C 0.1544 0.89308 0.5797 0.0
C61 C 0.13556 0.8767 0.59657 0.0
C62 C 0.13385 0.88822 0.62145 0.0
C63 C 0.15082 0.916 0.62932 0.0
N64 N 0.11662 0.87234 0.64006 0.0
C65 C 0.09188 0.84999 0.63342 0.0
H66 H 0.91794 0.41879 0.79472 0.0
H67 H 0.89219 0.47529 0.77903 0.0
H68 H 0.85705 0.39791 0.73154 0.0
C69 C 0.90518 0.42334 0.78298 0.0
C70 C 0.88734 0.40414 0.7621 0.0
C71 C 0.90642 0.44845 0.78994 0.0
C72 C 0.89108 0.45579 0.77417 0.0
C73 C 0.87384 0.43764 0.75261 0.0
C74 C 0.87149 0.41179 0.74734 0.0
N75 N 0.85788 0.44428 0.73631 0.0
C76 C 0.86234 0.47077 0.73438 0.0
H77 H 0.59794 0.51806 0.78651 0.0
H78 H 0.51514 0.46637 0.77083 0.0
H79 H 0.56277 0.48146 0.70616 0.0
C80 C 0.58095 0.50532 0.77259 0.0
C81 C 0.58382 0.50104 0.74522 0.0
C82 C 0.55621 0.49316 0.78213 0.0
C83 C 0.5343 0.47625 0.76396 0.0
C84 C 0.53686 0.47178 0.7368 0.0
C85 C 0.56139 0.48444 0.72747 0.0
N86 N 0.51458 0.45607 0.71841 0.0
C87 C 0.50298 0.42771 0.71382 0.0
H88 H 0.50809 0.09004 0.81448 0.0
H89 H 0.58033 0.09516 0.79807 0.0
H90 H 0.55038 0.13639 0.75162 0.0
C91 C 0.52458 0.09704 0.80294 0.0
C92 C 0.52624 0.11297 0.78168 0.0
C93 C 0.54389 0.09033 0.80947 0.0
C94 C 0.56535 0.1002 0.794 0.0
C95 C 0.56769 0.11703 0.77332 0.0
C96 C 0.54818 0.12321 0.76741 0.0
N97 N 0.58965 0.1291 0.75843 0.0
C98 C 0.60843 0.12158 0.75683 0.0
H99 H 0.74694 0.60618 0.89566 0.0
H100 H 0.7993 0.57557 0.88805 0.0
H101 H 0.74227 0.54336 0.94439 0.0
C102 C 0.75398 0.59294 0.90226 0.0
C103 C 0.74187 0.575 0.92204 0.0
C104 C 0.77463 0.59326 0.88998 0.0
C105 C 0.78355 0.57567 0.89763 0.0
C106 C 0.77177 0.55773 0.91727 0.0
C107 C 0.75096 0.5573 0.92918 0.0
N108 N 0.77923 0.53843 0.92377 0.0
C109 C 0.80367 0.54597 0.93569 0.0
H110 H 0.42793 0.15704 0.89249 0.0
H111 H 0.45418 0.24216 0.91534 0.0
H112 H 0.47449 0.19663 0.96758 0.0
C113 C 0.43799 0.17497 0.90699 0.0
C114 C 0.45077 0.17371 0.93087 0.0
C115 C 0.43958 0.19977 0.90101 0.0
C116 C 0.45303 0.22306 0.91981 0.0
C117 C 0.46552 0.22189 0.94393 0.0
C118 C 0.46465 0.19736 0.94904 0.0
N119 N 0.47965 0.24508 0.96319 0.0
C120 C 0.47701 0.26821 0.9643 0.0
H121 H 0.84559 0.2646 0.90323 0.0
H122 H 0.77922 0.18808 0.92017 0.0
H123 H 0.81216 0.2582 0.97784 0.0
C124 C 0.83081 0.25225 0.9159 0.0
C125 C 0.82998 0.26479 0.9406 0.0
C126 C 0.81266 0.22424 0.90781 0.0
C127 C 0.7939 0.2093 0.92551 0.0
C128 C 0.79432 0.2214 0.95091 0.0
C129 C 0.81225 0.24896 0.95827 0.0
N130 N 0.77831 0.2057 0.97031 0.0
C131 C 0.7515 0.19127 0.9663 0.0
H132 H 0.57781 0.74253 0.12891 0.0
H133 H 0.59203 0.82168 0.10756 0.0
H134 H 0.55093 0.75045 0.05064 0.0
C135 C 0.57659 0.7556 0.11459 0.0
C136 C 0.56395 0.74353 0.0889 0.0
C137 C 0.58765 0.78404 0.12169 0.0
C138 C 0.58381 0.79983 0.10293 0.0
C139 C 0.57006 0.78755 0.07751 0.0
C140 C 0.56109 0.75973 0.07038 0.0
N141 N 0.56517 0.80248 0.05836 0.0
C142 C 0.56569 0.82712 0.06424 0.0
H143 H 0.27035 0.84094 0.14211 0.0
H144 H 0.18965 0.78624 0.11492 0.0
H145 H 0.24635 0.81056 0.05836 0.0
C146 C 0.25515 0.82913 0.12601 0.0
C147 C 0.26158 0.82729 0.09953 0.0
C148 C 0.22909 0.81417 0.13182 0.0
C149 C 0.20973 0.79784 0.11083 0.0
C150 C 0.21599 0.79684 0.0844 0.0
C151 C 0.24171 0.81183 0.07886 0.0
N152 N 0.19671 0.78076 0.06305 0.0
C153 C 0.17888 0.75322 0.06441 0.0
H154 H 0.16443 0.41157 0.12688 0.0
H155 H 0.24526 0.4381 0.14437 0.0
H156 H 0.22196 0.47423 0.08373 0.0
C157 C 0.18445 0.4245 0.12307 0.0
C158 C 0.1906 0.44281 0.10307 0.0
C159 C 0.20409 0.42279 0.1382 0.0
C160 C 0.23 0.43923 0.13286 0.0
C161 C 0.23628 0.45746 0.11292 0.0
C162 C 0.2167 0.45949 0.09854 0.0
N163 N 0.26236 0.47547 0.10846 0.0
C164 C 0.27823 0.46641 0.09834 0.0
H165 H 0.42143 0.94597 0.23964 0.0
H166 H 0.48159 0.92509 0.23491 0.0
H167 H 0.43969 0.91023 0.30452 0.0
C168 C 0.43278 0.93759 0.24796 0.0
C169 C 0.42823 0.92809 0.27351 0.0
C170 C 0.45201 0.9367 0.23352 0.0
C171 C 0.46707 0.92655 0.24564 0.0
C172 C 0.46268 0.9174 0.27148 0.0
C173 C 0.44333 0.91814 0.28498 0.0
N174 N 0.47646 0.90638 0.28471 0.0
C175 C 0.49785 0.9057 0.2765 0.0
H176 H 0.0852 0.48469 0.23904 0.0
H177 H 0.10359 0.56926 0.2468 0.0
H178 H 0.13832 0.5403 0.30407 0.0
C179 C 0.09499 0.50502 0.24969 0.0
C180 C 0.11123 0.50979 0.27305 0.0
C181 C 0.09194 0.52619 0.2397 0.0
C182 C 0.10578 0.55268 0.25378 0.0
C183 C 0.12275 0.55774 0.27688 0.0
C184 C 0.12552 0.53634 0.28609 0.0
N185 N 0.13787 0.58405 0.29128 0.0
C186 C 0.13274 0.60546 0.29106 0.0
H187 H 0.50939 0.58816 0.2243 0.0
H188 H 0.44863 0.51464 0.25191 0.0
H189 H 0.49086 0.58805 0.30623 0.0
C190 C 0.4978 0.57756 0.24023 0.0
C191 C 0.50204 0.59177 0.26564 0.0
C192 C 0.47877 0.54974 0.23518 0.0
C193 C 0.46332 0.53614 0.2556 0.0
C194 C 0.46796 0.54996 0.28134 0.0
C195 C 0.48756 0.57752 0.28636 0.0
N196 N 0.45437 0.53607 0.30296 0.0
C197 C 0.42756 0.52229 0.30221 0.0
Tb198 Tb 0.53058 0.02542 0.0166 0.0
C199 C 0.5235 0.96975 0.03359 0.0
Tb200 Tb 0.47459 0.97559 0.01448 0.0
O201 O 0.53505 0.02778 0.06078 0.0
O202 O 0.49877 0.0121 0.03974 0.0
O203 O 0.53952 0.99356 0.02456 0.0
C204 C 0.42956 0.93702 0.02994 0.0
O205 O 0.49822 0.96032 0.03397 0.0
C206 C 0.4946 0.98544 0.9681 0.0
C207 C 0.48224 0.03049 0.99428 0.0
O208 O 0.44364 0.93247 0.01387 0.0
O209 O 0.44063 0.96313 0.0367 0.0
O210 O 0.4698 0.97233 0.97025 0.0
O211 O 0.50625 0.98919 0.99109 0.0
O212 O 0.46582 0.00711 1.00382 0.0
O213 O 0.50748 0.03966 0.99474 0.0
C214 C 0.57553 0.06708 0.00508 0.0
O215 O 0.55887 0.06943 0.01882 0.0
O216 O 0.56705 0.04134 0.99823 0.0
C217 C 0.51029 0.01547 0.06267 0.0
Tb218 Tb 0.98773 0.52031 0.01553 0.0
C219 C 0.04745 0.55946 0.02396 0.0
Tb220 Tb 0.02247 0.49429 0.01278 0.0
O221 O 1.00145 0.5341 0.05806 0.0
O222 O 0.99891 0.4982 0.04065 0.0
O223 O 0.02499 0.5576 0.01634 0.0
C224 C 0.05669 0.47819 0.02503 0.0
O225 O 0.0501 0.53759 0.0259 0.0
C226 C 1.00418 0.4993 0.96588 0.0
C227 C 0.96282 0.45525 1.00239 0.0
O228 O 0.05413 0.48762 1.00267 0.0
O229 O 0.0398 0.47763 0.04056 0.0
O230 O 0.01175 0.48172 0.96959 0.0
O231 O 0.01025 0.51524 0.98719 0.0
O232 O 0.98512 0.45673 0.01003 0.0
O233 O 0.96036 0.47731 1.00093 0.0
C234 C 0.95284 0.53635 0.00818 0.0
O235 O 0.95341 0.52143 0.02671 0.0
O236 O 0.97215 0.54265 0.99394 0.0
C237 C 0.0065 0.51463 0.06163 0.0
Tb238 Tb 0.47227 0.491 1.00415 0.0
C239 C 0.49117 0.44755 1.00247 0.0
Tb240 Tb 0.53173 0.51154 0.01244 0.0
O241 O 0.47509 0.50068 0.96137 0.0
O242 O 0.50153 0.49338 0.98141 0.0
O243 O 0.47212 0.45249 0.00698 0.0
C244 C 0.58059 0.53483 0.99996 0.0
O245 O 0.51524 0.46757 0.99998 0.0
C246 C 0.50783 0.4996 0.05658 0.0
C247 C 0.51195 0.55431 0.02099 0.0
O248 O 0.56949 0.51379 0.01384 0.0
O249 O 0.56431 0.54283 0.99346 0.0
O250 O 0.5306 0.50225 0.05478 0.0
O251 O 0.5024 0.50788 0.03577 0.0
O252 O 0.53164 0.55082 0.01519 0.0
O253 O 0.48806 0.53327 0.02125 0.0
C254 C 0.42268 0.47022 0.01373 0.0
O255 O 0.43602 0.49194 1.00135 0.0
O256 O 0.43704 0.45973 0.0198 0.0
C257 C 0.49723 0.50176 0.96028 0.0
Tb258 Tb 0.20209 0.36845 0.35295 0.0
C259 C 0.19561 0.30999 0.3612 0.0
Tb260 Tb 0.14736 0.31777 0.34951 0.0
O261 O 0.19849 0.38133 0.39435 0.0
O262 O 0.17829 0.34064 0.37915 0.0
O263 O 0.21128 0.33522 0.3546 0.0
C264 C 0.10085 0.27995 0.36224 0.0
O265 O 0.17078 0.30068 0.36413 0.0
C266 C 0.16818 0.32915 0.30329 0.0
C267 C 0.15382 0.37639 0.34219 0.0
O268 O 0.11354 0.27643 0.34371 0.0
O269 O 0.1141 0.30504 0.37327 0.0
O270 O 0.15021 0.30489 0.30815 0.0
O271 O 0.17103 0.34566 0.32283 0.0
O272 O 0.13835 0.35094 0.34838 0.0
O273 O 0.17874 0.38601 0.33923 0.0
C274 C 0.24923 0.40685 0.3424 0.0
O275 O 0.23607 0.40951 0.36088 0.0
O276 O 0.23598 0.38234 0.32995 0.0
C277 C 0.1805 0.35687 0.39852 0.0
Tb278 Tb 0.66358 0.84486 0.33988 0.0
C279 C 0.72171 0.88176 0.36209 0.0
Tb280 Tb 0.69668 0.81734 0.34509 0.0
O281 O 0.66702 0.85234 0.38393 0.0
O282 O 0.66781 0.81873 0.36602 0.0
O283 O 0.701 0.88139 0.35061 0.0
C284 C 0.72544 0.79707 0.36451 0.0
O285 O 0.72353 0.8593 0.36329 0.0
C286 C 0.69155 0.83085 0.29647 0.0
C287 C 0.63906 0.78162 0.32332 0.0
O288 O 0.72583 0.81886 0.37474 0.0
O289 O 0.70894 0.78672 0.34331 0.0
O290 O 0.69793 0.81258 0.3014 0.0
O291 O 0.69228 0.84297 0.31867 0.0
O292 O 0.65751 0.78203 0.33969 0.0
O293 O 0.63977 0.80456 0.31738 0.0
C294 C 0.6334 0.86416 0.32241 0.0
O295 O 0.62672 0.8444 0.33785 0.0
O296 O 0.65711 0.87327 0.31726 0.0
C297 C 0.67081 0.83208 0.38817 0.0
Tb298 Tb 0.15916 0.84127 0.3556 0.0
C299 C 0.16841 0.78961 0.35008 0.0
Tb300 Tb 0.21418 0.85076 0.3575 0.0
O301 O 0.15904 0.84913 0.31277 0.0
O302 O 0.18197 0.83507 0.32899 0.0
O303 O 0.15216 0.79885 0.35441 0.0
C304 C 0.26243 0.8675 0.34612 0.0
O305 O 0.19354 0.80641 0.34841 0.0
C306 C 0.19442 0.84541 0.4037 0.0
C307 C 0.20498 0.90185 0.35862 0.0
O308 O 0.25494 0.8659 0.37014 0.0
O309 O 0.24265 0.85906 0.32849 0.0
O310 O 0.21081 0.83752 0.39816 0.0
O311 O 0.19154 0.85744 0.3845 0.0
O312 O 0.22028 0.89188 0.35296 0.0
O313 O 0.1806 0.88582 0.36361 0.0
C314 C 0.11394 0.82634 0.37517 0.0
O315 O 0.12097 0.83812 0.35305 0.0
O316 O 0.13215 0.82279 0.38577 0.0
C317 C 0.17796 0.84466 0.30845 0.0
Tb318 Tb 0.86587 0.69256 0.68228 0.0
C319 C 0.84904 0.62979 0.68765 0.0
Tb320 Tb 0.80771 0.64882 0.67828 0.0
O321 O 0.86541 0.70637 0.72416 0.0
O322 O 0.8394 0.66647 0.70799 0.0
O323 O 0.86762 0.6546 0.6828 0.0
C324 C 0.75863 0.61501 0.68785 0.0
O325 O 0.82487 0.6241 0.69001 0.0
C326 C 0.82952 0.65805 0.63292 0.0
C327 C 0.82507 0.71229 0.67483 0.0
O328 O 0.76969 0.61256 0.66715 0.0
O329 O 0.77511 0.63706 0.70312 0.0
O330 O 0.80948 0.63484 0.6369 0.0
O331 O 0.83417 0.67504 0.65268 0.0
O332 O 0.80587 0.68704 0.67791 0.0
O333 O 0.84939 0.71827 0.67327 0.0
C334 C 0.91355 0.72088 0.66663 0.0
O335 O 0.90614 0.72664 0.68882 0.0
O336 O 0.89424 0.69912 0.65362 0.0
C337 C 0.84477 0.68348 0.72799 0.0
Tb338 Tb 0.32512 0.18729 0.68015 0.0
C339 C 0.38489 0.22987 0.67486 0.0
Tb340 Tb 0.36386 0.16595 0.67679 0.0
O341 O 0.32484 0.18278 0.72387 0.0
O342 O 0.35655 0.19043 0.70381 0.0
O343 O 0.36064 0.22505 0.67308 0.0
C344 C 0.39253 0.14799 0.70126 0.0
O345 O 0.39066 0.21025 0.67853 0.0
C346 C 0.34379 0.16918 0.63031 0.0
C347 C 0.30299 0.12281 0.67666 0.0
O348 O 0.39419 0.15467 0.67656 0.0
O349 O 0.37442 0.15073 0.71141 0.0
O350 O 0.36544 0.16876 0.6332 0.0
O351 O 0.33349 0.16412 0.65213 0.0
O352 O 0.32706 0.127 0.67852 0.0
O353 O 0.29798 0.14317 0.67496 0.0
C354 C 0.29333 0.20662 0.66916 0.0
O355 O 0.29716 0.1991 0.69223 0.0
O356 O 0.3078 0.20377 0.65243 0.0
C357 C 0.3474 0.1847 0.72595 0.0
Tb358 Tb 0.81786 0.1582 0.68654 0.0
C359 C 0.8348 0.11353 0.684 0.0
Tb360 Tb 0.87624 0.17739 0.69054 0.0
O361 O 0.81478 0.14916 0.64241 0.0
O362 O 0.84927 0.17906 0.66312 0.0
O363 O 0.81701 0.11952 0.69117 0.0
C364 C 0.92384 0.19075 0.67832 0.0
O365 O 0.85876 0.13281 0.68042 0.0
C366 C 0.85611 0.1718 0.73655 0.0
C367 C 0.85942 0.22187 0.69701 0.0
O368 O 0.9024 0.17196 0.66509 0.0
O369 O 0.91844 0.20149 0.69875 0.0
O370 O 0.88054 0.18766 0.73417 0.0
O371 O 0.84521 0.15753 0.71459 0.0
O372 O 0.87755 0.21665 0.68935 0.0
O373 O 0.8351 0.20227 0.69859 0.0
C374 C 0.76996 0.14492 0.69772 0.0
O375 O 0.77581 0.13584 0.67639 0.0
O376 O 0.79114 0.16188 0.71261 0.0
C377 C 0.8392 0.16582 0.64061 0.0
H378 H 0.30082 0.8816 0.1056 0.0
H379 H 0.28293 0.79958 0.0772 0.0
H380 H 0.32516 0.81859 0.05862 0.0
H381 H 0.33001 0.91312 0.04958 0.0
H382 H 0.35526 0.94474 0.06742 0.0
H383 H 0.32524 0.92489 0.08187 0.0
H384 H 0.35008 0.92279 0.12496 0.0
H385 H 0.38025 0.94295 0.11075 0.0
H386 H 0.37225 0.91016 0.12211 0.0
H387 H 0.36673 0.8463 0.03858 0.0
H388 H 0.40666 0.88129 0.02092 0.0
H389 H 0.39848 0.94565 0.06237 0.0
C390 C 0.30625 0.86771 0.09621 0.0
C391 C 0.28874 0.83912 0.09293 0.0
C392 C 0.29615 0.82154 0.07995 0.0
C393 C 0.32008 0.83213 0.06934 0.0
C394 C 0.33657 0.86043 0.07198 0.0
C395 C 0.33022 0.87803 0.08542 0.0
C396 C 0.35093 0.90772 0.08393 0.0
C397 C 0.33968 0.92354 0.06986 0.0
C398 C 0.36416 0.92173 0.11211 0.0
C399 C 0.36932 0.90396 0.06687 0.0
C400 C 0.36075 0.87651 0.06038 0.0
C401 C 0.37384 0.86788 0.04382 0.0
C402 C 0.3964 0.88785 0.03376 0.0
C403 C 0.4056 0.91608 0.04026 0.0
C404 C 0.3919 0.92416 0.05712 0.0
H405 H 0.14884 0.4459 0.11999 0.0
H406 H 0.18638 0.44436 0.0487 0.0
H407 H 0.15503 0.45118 0.02109 0.0
H408 H 0.08227 0.41039 0.08671 0.0
H409 H 0.07288 0.43118 0.1063 0.0
H410 H 0.09729 0.42448 0.12043 0.0
H411 H 0.12912 0.47672 0.13012 0.0
H412 H 0.10486 0.48357 0.11592 0.0
H413 H 0.13605 0.49835 0.10297 0.0
H414 H 0.12181 0.46111 1.00154 0.0
H415 H 0.08768 0.4724 0.99094 0.0
H416 H 0.0704 0.46682 0.07425 0.0
C417 C 0.15013 0.44651 0.0985 0.0
C418 C 0.17016 0.44468 0.08652 0.0
C419 C 0.17142 0.44601 0.05838 0.0
C420 C 0.15362 0.44975 0.04249 0.0
C421 C 0.13448 0.45203 0.05494 0.0
C422 C 0.13246 0.45032 0.08226 0.0
C423 C 0.11054 0.45445 0.09059 0.0
C424 C 0.0895 0.42858 0.10166 0.0
C425 C 0.12076 0.47978 0.11111 0.0
C426 C 0.10086 0.4591 0.06376 0.0
C427 C 0.11496 0.45752 0.0435 0.0
C428 C 0.11045 0.46212 0.01717 0.0
C429 C 0.09107 0.46858 0.01135 0.0
C430 C 0.07632 0.4703 0.0317 0.0
C431 C 0.0812 0.46532 0.05823 0.0
H432 H 0.57452 0.71802 0.04708 0.0
H433 H 0.52908 0.7021 0.11531 0.0
H434 H 0.51096 0.65225 0.10473 0.0
H435 H 0.52748 0.65904 1.0023 0.0
H436 H 0.55115 0.6524 0.98842 0.0
H437 H 0.55999 0.68685 1.00066 0.0
H438 H 0.59737 0.69029 0.03241 0.0
H439 H 0.58862 0.65584 0.02031 0.0
H440 H 0.59041 0.66489 0.05584 0.0
H441 H 0.49703 0.60484 0.08656 0.0
H442 H 0.48962 0.56163 0.06348 0.0
H443 H 0.54603 0.60703 0.00815 0.0
C444 C 0.56061 0.70391 0.0596 0.0
C445 C 0.55298 0.71372 0.08192 0.0
C446 C 0.53509 0.69487 0.09816 0.0
C447 C 0.52469 0.66659 0.09227 0.0
C448 C 0.53265 0.65753 0.07024 0.0
C449 C 0.55035 0.67553 0.05426 0.0
C450 C 0.55617 0.66016 0.03236 0.0
C451 C 0.54822 0.6649 1.00427 0.0
C452 C 0.58485 0.66828 0.03543 0.0
C453 C 0.53887 0.63073 0.0385 0.0
C454 C 0.52533 0.62986 0.0603 0.0
C455 C 0.50756 0.60524 0.06953 0.0
C456 C 0.5034 0.58079 0.05616 0.0
C457 C 0.51717 0.58099 0.03395 0.0
C458 C 0.53535 0.60633 0.02514 0.0
H459 H 0.8833 0.29584 0.94661 0.0
H460 H 0.81373 0.30071 0.95192 0.0
H461 H 0.84023 0.34997 0.96774 0.0
H462 H 0.91758 0.33967 0.00643 0.0
H463 H 0.94878 0.35595 0.99348 0.0
H464 H 0.92465 0.32149 0.98061 0.0
H465 H 0.92807 0.33608 0.9321 0.0
H466 H 0.9524 0.37055 0.94481 0.0
H467 H 0.92373 0.36451 0.92485 0.0
H468 H 0.87367 0.39795 0.98375 0.0
H469 H 0.91239 0.44237 0.99947 0.0
H470 H 0.96092 0.4068 0.98592 0.0
C471 C 0.8738 0.3075 0.95072 0.0
C472 C 0.84654 0.29469 0.94793 0.0
C473 C 0.83462 0.31031 0.95393 0.0
C474 C 0.84949 0.33823 0.9629 0.0
C475 C 0.87629 0.35022 0.96595 0.0
C476 C 0.88842 0.33547 0.96006 0.0
C477 C 0.91754 0.35329 0.96621 0.0
C478 C 0.92773 0.34191 0.98798 0.0
C479 C 0.93124 0.35628 0.94046 0.0
C480 C 0.91976 0.3802 0.97663 0.0
C481 C 0.8957 0.37795 0.97605 0.0
C482 C 0.89264 0.4 0.98432 0.0
C483 C 0.91477 0.42516 0.99324 0.0
C484 C 0.93969 0.42806 0.9941 0.0
C485 C 0.94212 0.40516 0.98581 0.0
H486 H 0.69926 0.53077 0.93994 0.0
H487 H 0.73403 0.61841 0.93386 0.0
H488 H 0.69694 0.6176 0.95345 0.0
H489 H 0.6336 0.51232 0.92533 0.0
H490 H 0.62148 0.48743 0.9496 0.0
H491 H 0.65055 0.49465 0.93452 0.0
H492 H 0.67546 0.50636 0.9819 0.0
H493 H 0.64644 0.49915 0.99712 0.0
H494 H 0.6755 0.53198 0.00509 0.0
H495 H 0.65476 0.60684 0.97123 0.0
H496 H 0.61207 0.58739 0.98923 0.0
H497 H 0.60706 0.50815 0.98859 0.0
C498 C 0.69946 0.54997 0.94306 0.0
C499 C 0.71973 0.57462 0.93492 0.0
C500 C 0.71861 0.59905 0.93913 0.0
C501 C 0.69768 0.59889 0.95053 0.0
C502 C 0.6781 0.57426 0.95814 0.0
C503 C 0.67895 0.55031 0.9549 0.0
C504 C 0.65555 0.52666 0.96517 0.0
C505 C 0.63934 0.50393 0.94229 0.0
C506 C 0.66373 0.51538 0.98872 0.0
C507 C 0.64134 0.54103 0.97452 0.0
C508 C 0.65455 0.56843 0.96999 0.0
C509 C 0.64447 0.58555 0.97531 0.0
C510 C 0.62025 0.57435 0.98549 0.0
C511 C 0.60666 0.54651 0.99075 0.0
C512 C 0.61743 0.52971 0.98538 0.0
H513 H 0.49178 0.16722 0.94625 0.0
H514 H 0.40835 0.1222 0.92899 0.0
H515 H 0.40716 0.07983 0.94167 0.0
H516 H 0.50186 0.11136 0.92097 0.0
H517 H 0.52792 0.1203 0.94656 0.0
H518 H 0.52213 0.14653 0.93488 0.0
H519 H 0.51836 0.16071 0.98392 0.0
H520 H 0.52409 0.13452 0.99572 0.0
H521 H 0.4954 0.13522 1.00344 0.0
H522 H 0.41511 0.04326 0.95969 0.0
H523 H 0.43165 0.01495 0.97895 0.0
H524 H 0.51005 0.08392 0.9827 0.0
C525 C 0.47328 0.14839 0.94502 0.0
C526 C 0.45012 0.14793 0.93678 0.0
C527 C 0.42631 0.12289 0.93514 0.0
C528 C 0.42546 0.09879 0.94236 0.0
C529 C 0.44865 0.10003 0.95076 0.0
C530 C 0.47214 0.12413 0.95177 0.0
C531 C 0.49426 0.12013 0.9617 0.0
C532 C 0.51262 0.12486 0.93971 0.0
C533 C 0.50887 0.13875 0.98774 0.0
C534 C 0.47952 0.09022 0.96689 0.0
C535 C 0.45324 0.07892 0.96041 0.0
C536 C 0.43568 0.05184 0.96457 0.0
C537 C 0.44526 0.03596 0.97564 0.0
C538 C 0.47215 0.04716 0.98233 0.0
C539 C 0.4894 0.07462 0.97764 0.0
H540 H 0.71733 0.13672 0.95714 0.0
H541 H 0.72436 0.21544 0.97958 0.0
H542 H 0.67841 0.19213 0.98899 0.0
H543 H 0.64869 0.1022 0.92605 0.0
H544 H 0.64112 0.07 0.93863 0.0
H545 H 0.67342 0.09306 0.93036 0.0
H546 H 0.69159 0.0926 0.9785 0.0
H547 H 0.65939 0.06986 0.98701 0.0
H548 H 0.67968 0.10205 0.00711 0.0
H549 H 0.63372 0.16021 1.00125 0.0
H550 H 0.59229 0.12181 0.01276 0.0
H551 H 0.6139 0.06375 0.98138 0.0
C552 C 0.70883 0.14893 0.96321 0.0
C553 C 0.72392 0.17773 0.9673 0.0
C554 C 0.71272 0.19329 0.97598 0.0
C555 C 0.68674 0.18025 0.98141 0.0
C556 C 0.67235 0.15167 0.97785 0.0
C557 C 0.68285 0.13618 0.96857 0.0
C558 C 0.66368 0.10577 0.96804 0.0
C559 C 0.65629 0.09195 0.93904 0.0
C560 C 0.67422 0.09177 0.98626 0.0
C561 C 0.64114 0.1066 0.97935 0.0
C562 C 0.64645 0.13326 0.98472 0.0
C563 C 0.62916 0.13923 0.99672 0.0
C564 C 0.60578 0.11736 1.00332 0.0
C565 C 0.59999 0.08995 0.99787 0.0
C566 C 0.61782 0.08455 0.98556 0.0
H567 H 0.8466 0.54899 0.91633 0.0
H568 H 0.81182 0.55105 0.98942 0.0
H569 H 0.84841 0.55249 0.01651 0.0
H570 H 0.86904 0.50524 0.93585 0.0
H571 H 0.89903 0.5221 0.92055 0.0
H572 H 0.87151 0.52389 0.907 0.0
H573 H 0.89868 0.57699 0.91241 0.0
H574 H 0.92634 0.57531 0.92588 0.0
H575 H 0.91502 0.59463 0.94486 0.0
H576 H 0.88547 0.54789 0.03502 0.0
H577 H 0.92264 0.54088 0.04423 0.0
H578 H 0.93535 0.54445 0.95969 0.0
C579 C 0.84715 0.55043 0.93808 0.0
C580 C 0.82675 0.55025 0.95103 0.0
C581 C 0.82757 0.55152 0.97936 0.0
C582 C 0.84821 0.55229 0.99484 0.0
C583 C 0.86793 0.55199 0.98159 0.0
C584 C 0.8678 0.55143 0.95388 0.0
C585 C 0.89087 0.55001 0.94469 0.0
C586 C 0.88207 0.52375 0.92592 0.0
C587 C 0.90879 0.57578 0.93116 0.0
C588 C 0.90357 0.5492 0.97148 0.0
C589 C 0.88997 0.55031 0.99249 0.0
C590 C 0.89662 0.54761 0.01885 0.0
C591 C 0.91768 0.54357 0.02389 0.0
C592 C 0.93203 0.54267 1.00277 0.0
C593 C 0.92507 0.54583 0.9763 0.0
H594 H 0.51439 0.3218 0.96561 0.0
H595 H 0.43284 0.26759 0.97265 0.0
H596 H 0.4276 0.30783 0.98312 0.0
H597 H 0.52533 0.3715 0.01955 0.0
H598 H 0.54739 0.40075 1.00309 0.0
H599 H 0.54461 0.36787 0.995 0.0
H600 H 0.53391 0.36998 0.94455 0.0
H601 H 0.53687 0.40298 0.95248 0.0
H602 H 0.50754 0.3754 0.93465 0.0
H603 H 0.43164 0.35349 0.99464 0.0
H604 H 0.44382 0.40179 1.00438 0.0
H605 H 0.52307 0.42715 0.9895 0.0
C606 C 0.49542 0.31858 0.96904 0.0
C607 C 0.47389 0.29185 0.96821 0.0
C608 C 0.44941 0.28808 0.97305 0.0
C609 C 0.44631 0.31075 0.97906 0.0
C610 C 0.46795 0.33697 0.98007 0.0
C611 C 0.492 0.34106 0.975 0.0
C612 C 0.51209 0.37141 0.97772 0.0
C613 C 0.53362 0.37827 1.00018 0.0
C614 C 0.52325 0.38047 0.95074 0.0
C615 C 0.49562 0.38371 0.98537 0.0
C616 C 0.47025 0.36343 0.98661 0.0
C617 C 0.45142 0.36956 0.99358 0.0
C618 C 0.4586 0.39716 0.99914 0.0
C619 C 0.48444 0.41844 0.99768 0.0
C620 C 0.50317 0.41147 0.9908 0.0
H621 H 0.12964 0.72364 0.04106 0.0
H622 H 0.19053 0.71728 0.08496 0.0
H623 H 0.16317 0.66655 0.07988 0.0
H624 H 0.07528 0.66576 0.06807 0.0
H625 H 0.05516 0.65503 0.03659 0.0
H626 H 0.07904 0.69068 0.04505 0.0
H627 H 0.09913 0.69096 1.0004 0.0
H628 H 0.07548 0.65526 0.99195 0.0
H629 H 0.10948 0.66652 0.99312 0.0
H630 H 0.13016 0.61675 0.06779 0.0
H631 H 0.09302 0.5712 0.05173 0.0
H632 H 0.05321 0.60994 0.01588 0.0
C633 C 0.13692 0.71145 0.04993 0.0
C634 C 0.16191 0.72399 0.0636 0.0
C635 C 0.17122 0.70775 0.07466 0.0
C636 C 0.15588 0.67903 0.07179 0.0
C637 C 0.13134 0.66709 0.05785 0.0
C638 C 0.1218 0.68277 0.0473 0.0
C639 C 0.09502 0.66481 0.03273 0.0
C640 C 0.07494 0.66934 0.04643 0.0
C641 C 0.09478 0.66969 1.00277 0.0
C642 C 0.09112 0.6366 0.03643 0.0
C643 C 0.1123 0.63839 0.05096 0.0
C644 C 0.11343 0.6151 0.05649 0.0
C645 C 0.09226 0.5893 0.0471 0.0
C646 C 0.07019 0.58693 0.03241 0.0
C647 C 0.06974 0.611 0.02705 0.0
H648 H 0.31297 0.49706 0.06494 0.0
H649 H 0.28443 0.42255 0.10477 0.0
H650 H 0.31669 0.41339 0.0846 0.0
H651 H 0.32634 0.4715 1.00282 0.0
H652 H 0.35526 0.50358 0.99948 0.0
H653 H 0.3292 0.50334 0.016 0.0
H654 H 0.36077 0.53057 0.0584 0.0
H655 H 0.3869 0.53099 0.04196 0.0
H656 H 0.37959 0.51737 0.07411 0.0
H657 H 0.35384 0.4141 0.06186 0.0
H658 H 0.39297 0.42468 0.03911 0.0
H659 H 0.39654 0.49843 0.0135 0.0
C660 C 0.31345 0.4787 0.06915 0.0
C661 C 0.29636 0.46036 0.08619 0.0
C662 C 0.29745 0.43669 0.09161 0.0
C663 C 0.31563 0.43137 0.08022 0.0
C664 C 0.33239 0.44993 0.06345 0.0
C665 C 0.33141 0.47312 0.05793 0.0
C666 C 0.35213 0.49035 0.04012 0.0
C667 C 0.34 0.4923 0.013 0.0
C668 C 0.37096 0.51901 0.05452 0.0
C669 C 0.36515 0.47345 0.03665 0.0
C670 C 0.35346 0.45016 0.05019 0.0
C671 C 0.36293 0.4321 0.05096 0.0
C672 C 0.38511 0.43823 0.03793 0.0
C673 C 0.39753 0.46215 0.02427 0.0
C674 C 0.38714 0.47972 0.02335 0.0
H675 H 0.52247 0.8308 0.05871 0.0
H676 H 0.60597 0.8791 0.07276 0.0
H677 H 0.60398 0.92174 0.07015 0.0
H678 H 0.51505 0.86902 0.01043 0.0
H679 H 0.48569 0.86624 0.02114 0.0
H680 H 0.49339 0.83996 0.02738 0.0
H681 H 0.48988 0.84673 0.07835 0.0
H682 H 0.48196 0.87294 0.07221 0.0
H683 H 0.50882 0.88045 0.09615 0.0
H684 H 0.59308 0.95832 0.06113 0.0
H685 H 0.57431 0.98659 0.04792 0.0
H686 H 0.49749 0.91454 0.04035 0.0
C687 C 0.54022 0.85047 0.06194 0.0
C688 C 0.56438 0.85199 0.0663 0.0
C689 C 0.58732 0.87779 0.06978 0.0
C690 C 0.58633 0.90201 0.06829 0.0
C691 C 0.56221 0.89992 0.06345 0.0
C692 C 0.53952 0.87481 0.06059 0.0
C693 C 0.51626 0.87809 0.05391 0.0
C694 C 0.50176 0.8624 0.02659 0.0
C695 C 0.49816 0.86902 0.07651 0.0
C696 C 0.52943 0.90885 0.05264 0.0
C697 C 0.55592 0.92106 0.05839 0.0
C698 C 0.57234 0.94903 0.05695 0.0
C699 C 0.56148 0.9649 0.04929 0.0
C700 C 0.53439 0.95285 0.04316 0.0
C701 C 0.51821 0.92447 0.04523 0.0
H702 H 0.97212 0.2128 0.4393 0.0
H703 H 0.95875 0.13393 0.40506 0.0
H704 H 0.99946 0.15701 0.38403 0.0
H705 H 0.99946 0.25043 0.38443 0.0
H706 H 0.02403 0.28118 0.40412 0.0
H707 H 0.99435 0.25876 0.41803 0.0
H708 H 0.02024 0.25442 0.45885 0.0
H709 H 0.05005 0.27705 0.44518 0.0
H710 H 0.04334 0.24355 0.45316 0.0
H711 H 0.03907 0.1879 0.36343 0.0
H712 H 0.07843 0.22543 0.34776 0.0
H713 H 0.0689 0.28494 0.39693 0.0
C714 C 0.978 0.2004 0.42777 0.0
C715 C 0.96187 0.17152 0.42343 0.0
C716 C 0.97033 0.15609 0.40812 0.0
C717 C 0.99356 0.16899 0.39621 0.0
C718 C 0.00854 0.19741 0.40012 0.0
C719 C 1.00147 0.21301 0.41588 0.0
C720 C 0.02136 0.24334 0.41647 0.0
C721 C 0.00906 0.25936 0.40508 0.0
C722 C 0.03453 0.2553 0.44512 0.0
C723 C 0.04015 0.24222 0.39796 0.0
C724 C 0.03227 0.21544 0.38883 0.0
C725 C 0.04566 0.20896 0.37068 0.0
C726 C 0.06789 0.23041 0.36176 0.0
C727 C 0.07665 0.258 0.37112 0.0
C728 C 0.06261 0.26398 0.3895 0.0
H729 H 0.84958 0.80625 0.44217 0.0
H730 H 0.8202 0.7217 0.4113 0.0
H731 H 0.7812 0.71996 0.38946 0.0
H732 H 0.78701 0.79759 0.45644 0.0
H733 H 0.79485 0.831 0.44698 0.0
H734 H 0.82012 0.82532 0.46048 0.0
H735 H 0.84456 0.84288 0.41823 0.0
H736 H 0.81939 0.8486 0.40463 0.0
H737 H 0.82815 0.8271 0.38531 0.0
H738 H 0.74711 0.72868 0.36844 0.0
H739 H 0.71881 0.74624 0.35225 0.0
H740 H 0.76917 0.82409 0.39933 0.0
C741 C 0.83487 0.78739 0.43083 0.0
C742 C 0.83781 0.76413 0.42819 0.0
C743 C 0.81814 0.73967 0.41352 0.0
C744 C 0.79602 0.73853 0.40105 0.0
C745 C 0.79376 0.76191 0.40388 0.0
C746 C 0.81249 0.78577 0.41869 0.0
C747 C 0.80533 0.80795 0.41874 0.0
C748 C 0.8016 0.81592 0.44736 0.0
C749 C 0.82556 0.83311 0.40596 0.0
C750 C 0.7799 0.79303 0.40119 0.0
C751 C 0.7736 0.76653 0.39273 0.0
C752 C 0.75166 0.74926 0.37521 0.0
C753 C 0.73577 0.7594 0.36608 0.0
C754 C 0.7418 0.78636 0.37476 0.0
C755 C 0.76399 0.80325 0.39269 0.0
H756 H 0.20927 0.04337 0.39803 0.0
H757 H 0.29266 0.08345 0.39931 0.0
H758 H 0.28902 0.03912 0.38371 0.0
H759 H 0.20125 0.98198 0.42414 0.0
H760 H 0.17103 0.95958 0.40415 0.0
H761 H 0.18019 0.99468 0.41369 0.0
H762 H 0.17505 1.00201 0.36348 0.0
H763 H 0.16601 0.96695 0.35381 0.0
H764 H 0.19272 0.99451 0.33968 0.0
H765 H 0.27624 0.99072 0.36819 0.0
H766 H 0.25592 0.94079 0.35768 0.0
H767 H 0.18063 0.93143 0.36875 0.0
C768 C 0.22667 0.0427 0.39476 0.0
C769 C 0.25124 0.06662 0.39949 0.0
C770 C 0.27372 0.06519 0.39559 0.0
C771 C 0.2718 0.0402 0.38669 0.0
C772 C 0.24726 0.01689 0.38214 0.0
C773 C 0.2251 0.01782 0.38634 0.0
C774 C 0.20124 0.9895 0.38154 0.0
C775 C 0.18764 0.98094 0.40742 0.0
C776 C 0.18266 0.98818 0.35824 0.0
C777 C 0.21344 0.97249 0.37394 0.0
C778 C 0.23996 0.98876 0.37413 0.0
C779 C 0.2555 0.97776 0.368 0.0
C780 C 0.2437 0.94931 0.36198 0.0
C781 C 0.21662 0.93206 0.3624 0.0
C782 C 0.20134 0.94398 0.3682 0.0
H783 H 0.54007 0.61956 0.30763 0.0
H784 H 0.50685 0.63123 0.23367 0.0
H785 H 0.53824 0.68095 0.24052 0.0
H786 H 0.55306 0.68215 0.34539 0.0
H787 H 0.58329 0.6886 0.36209 0.0
H788 H 0.55804 0.65391 0.35157 0.0
H789 H 0.58972 0.64618 0.32424 0.0
H790 H 0.61505 0.68085 0.33466 0.0
H791 H 0.60636 0.6691 0.29935 0.0
H792 H 0.57239 0.72926 0.25568 0.0
H793 H 0.60849 0.77314 0.27728 0.0
H794 H 0.62078 0.73037 0.34085 0.0
C795 C 0.53937 0.63265 0.29299 0.0
C796 C 0.52106 0.62159 0.2701 0.0
C797 C 0.52088 0.63928 0.2512 0.0
C798 C 0.53854 0.66753 0.25498 0.0
C799 C 0.55638 0.67778 0.27768 0.0
C800 C 0.55706 0.66092 0.29631 0.0
C801 C 0.57858 0.67721 0.31869 0.0
C802 C 0.56758 0.67536 0.34605 0.0
C803 C 0.59861 0.66777 0.31925 0.0
C804 C 0.58977 0.70585 0.30977 0.0
C805 C 0.57654 0.70569 0.28614 0.0
C806 C 0.58293 0.72966 0.27416 0.0
C807 C 0.60339 0.75449 0.28666 0.0
C808 C 0.61737 0.75516 0.31077 0.0
C809 C 0.61051 0.73045 0.32236 0.0
H810 H 0.37783 0.90766 0.25358 0.0
H811 H 0.43033 0.94463 0.32638 0.0
H812 H 0.39347 0.93497 0.35255 0.0
H813 H 0.33204 0.93138 0.27194 0.0
H814 H 0.3043 0.90002 0.25687 0.0
H815 H 0.33502 0.91271 0.24325 0.0
H816 H 0.33279 0.86633 0.24879 0.0
H817 H 0.3022 0.85351 0.26263 0.0
H818 H 0.32873 0.85344 0.28143 0.0
H819 H 0.35103 0.91627 0.37157 0.0
H820 H 0.30544 0.89353 0.38176 0.0
H821 H 0.28026 0.86968 0.2966 0.0
C822 C 0.3816 0.91452 0.27486 0.0
C823 C 0.40687 0.92689 0.28802 0.0
C824 C 0.41105 0.93501 0.31601 0.0
C825 C 0.39028 0.92965 0.331 0.0
C826 C 0.36548 0.91641 0.31765 0.0
C827 C 0.36104 0.90935 0.29015 0.0
C828 C 0.33235 0.89401 0.28103 0.0
C829 C 0.32553 0.91052 0.26216 0.0
C830 C 0.32352 0.86511 0.26769 0.0
C831 C 0.32139 0.89277 0.30782 0.0
C832 C 0.34086 0.90592 0.32865 0.0
C833 C 0.3356 0.90628 0.35541 0.0
C834 C 0.30969 0.89316 0.36102 0.0
C835 C 0.28949 0.87995 0.33996 0.0
C836 C 0.29542 0.87976 0.31305 0.0
H837 H 0.15459 0.50702 0.28798 0.0
H838 H 0.07081 0.4607 0.28321 0.0
H839 H 0.07254 0.42217 0.30238 0.0
H840 H 0.16246 0.44944 0.26863 0.0
H841 H 0.1916 0.46177 0.29081 0.0
H842 H 0.1835 0.48576 0.27746 0.0
H843 H 0.18641 0.5064 0.32612 0.0
H844 H 0.19417 0.48214 0.33946 0.0
H845 H 0.16698 0.48426 0.35026 0.0
H846 H 0.08343 0.38883 0.32215 0.0
H847 H 0.10253 0.36169 0.3382 0.0
H848 H 0.17924 0.42941 0.32888 0.0
C849 C 0.13666 0.48881 0.29116 0.0
C850 C 0.11256 0.48676 0.28425 0.0
C851 C 0.08944 0.46252 0.28828 0.0
C852 C 0.09025 0.44064 0.29927 0.0
C853 C 0.11432 0.44328 0.30591 0.0
C854 C 0.13711 0.46663 0.30178 0.0
C855 C 0.16037 0.46378 0.30964 0.0
C856 C 0.17535 0.46527 0.28517 0.0
C857 C 0.17802 0.48543 0.33275 0.0
C858 C 0.14709 0.43523 0.31888 0.0
C859 C 0.12056 0.42383 0.31676 0.0
C860 C 0.1042 0.39753 0.3239 0.0
C861 C 0.11525 0.3823 0.33307 0.0
C862 C 0.14239 0.39336 0.33482 0.0
C863 C 0.15843 0.42031 0.32785 0.0
H864 H 0.38838 0.47004 0.28659 0.0
H865 H 0.40657 0.54781 0.32815 0.0
H866 H 0.3617 0.5272 0.34059 0.0
H867 H 0.32054 0.44897 0.26137 0.0
H868 H 0.30875 0.41341 0.26606 0.0
H869 H 0.34154 0.43489 0.25819 0.0
H870 H 0.35836 0.42219 0.30077 0.0
H871 H 0.32569 0.40088 0.30887 0.0
H872 H 0.34917 0.42799 0.33314 0.0
H873 H 0.31686 0.49743 0.35247 0.0
H874 H 0.27347 0.46069 0.36105 0.0
H875 H 0.28302 0.40197 0.31065 0.0
C876 C 0.38258 0.48274 0.29776 0.0
C877 C 0.40056 0.51049 0.30629 0.0
C878 C 0.39278 0.52656 0.32129 0.0
C879 C 0.36741 0.51503 0.32844 0.0
C880 C 0.3501 0.48746 0.3202 0.0
C881 C 0.35717 0.47153 0.30491 0.0
C882 C 0.33499 0.44212 0.29975 0.0
C883 C 0.32592 0.4344 0.26955 0.0
C884 C 0.34251 0.42212 0.31133 0.0
C885 C 0.31471 0.44385 0.31524 0.0
C886 C 0.32386 0.47025 0.32676 0.0
C887 C 0.30932 0.47677 0.34324 0.0
C888 C 0.28477 0.45576 0.34809 0.0
C889 C 0.27494 0.42861 0.33643 0.0
C890 C 0.29002 0.42264 0.3196 0.0
H891 H 0.5028 0.86757 0.30036 0.0
H892 H 0.5421 0.93573 0.25242 0.0
H893 H 0.5814 0.9313 0.2572 0.0
H894 H 0.55544 0.88619 0.34744 0.0
H895 H 0.548 0.85162 0.35168 0.0
H896 H 0.52247 0.85827 0.34184 0.0
H897 H 0.50837 0.8235 0.29957 0.0
H898 H 0.53369 0.81646 0.30945 0.0
H899 H 0.53182 0.8273 0.27657 0.0
H900 H 0.61706 0.92079 0.27018 0.0
H901 H 0.64584 0.90505 0.28946 0.0
H902 H 0.58267 0.84464 0.32988 0.0
C903 C 0.51952 0.88107 0.29031 0.0
C904 C 0.51962 0.90162 0.27563 0.0
C905 C 0.54181 0.91956 0.26333 0.0
C906 C 0.56411 0.91721 0.26604 0.0
C907 C 0.56361 0.89692 0.28118 0.0
C908 C 0.54179 0.87909 0.29299 0.0
C909 C 0.54651 0.86017 0.3096 0.0
C910 C 0.5429 0.86433 0.3394 0.0
C911 C 0.52906 0.83008 0.2981 0.0
C912 C 0.57453 0.87026 0.30565 0.0
C913 C 0.58407 0.89134 0.28908 0.0
C914 C 0.60971 0.90422 0.28304 0.0
C915 C 0.62591 0.89524 0.29414 0.0
C916 C 0.6164 0.87374 0.31118 0.0
C917 C 0.59041 0.86115 0.31693 0.0
H918 H 0.172 0.65727 0.29208 0.0
H919 H 0.09069 0.60849 0.30329 0.0
H920 H 0.09037 0.65076 0.31919 0.0
H921 H 0.18987 0.70241 0.35011 0.0
H922 H 0.21309 0.73243 0.33546 0.0
H923 H 0.20622 0.69895 0.32227 0.0
H924 H 0.19425 0.70765 0.2746 0.0
H925 H 0.20155 0.74139 0.28757 0.0
H926 H 0.17029 0.71784 0.27003 0.0
H927 H 0.10019 0.69849 0.3368 0.0
H928 H 0.11852 0.74753 0.35244 0.0
H929 H 0.19373 0.76426 0.33034 0.0
C930 C 0.15401 0.65569 0.2972 0.0
C931 C 0.13124 0.62997 0.29609 0.0
C932 C 0.10816 0.62827 0.30361 0.0
C933 C 0.10788 0.6521 0.31276 0.0
C934 C 0.13088 0.67728 0.31425 0.0
C935 C 0.15346 0.67922 0.30639 0.0
C936 C 0.17585 0.70843 0.31103 0.0
C937 C 0.19752 0.71067 0.3309 0.0
C938 C 0.18608 0.71947 0.28421 0.0
C939 C 0.16253 0.7226 0.32321 0.0
C940 C 0.13658 0.7044 0.32478 0.0
C941 C 0.12047 0.71292 0.33553 0.0
C942 C 0.13109 0.7408 0.34448 0.0
C943 C 0.15761 0.75982 0.3428 0.0
C944 C 0.17344 0.75035 0.33217 0.0
H945 H 0.80578 0.04457 0.38914 0.0
H946 H 0.86075 0.03456 0.44005 0.0
H947 H 0.83138 0.98405 0.43453 0.0
H948 H 0.74592 0.98633 0.41078 0.0
H949 H 0.72972 0.97759 0.37721 0.0
H950 H 0.75347 0.01273 0.38841 0.0
H951 H 0.77874 0.01453 0.34744 0.0
H952 H 0.75535 0.97933 0.33636 0.0
H953 H 0.78911 0.9898 0.34224 0.0
H954 H 0.79796 0.93453 0.41919 0.0
H955 H 0.76246 0.89025 0.39727 0.0
H956 H 0.72971 0.93325 0.3561 0.0
C957 C 0.81112 0.03169 0.39982 0.0
C958 C 0.83506 0.0431 0.41544 0.0
C959 C 0.84211 0.02592 0.42846 0.0
C960 C 0.82562 0.99731 0.42533 0.0
C961 C 0.80228 0.98647 0.40914 0.0
C962 C 0.79492 1.00319 0.39686 0.0
C963 C 0.76979 0.9865 0.37901 0.0
C964 C 0.74846 0.99106 0.38949 0.0
C965 C 0.77349 0.99293 0.34952 0.0
C966 C 0.76449 0.9578 0.38255 0.0
C967 C 0.78331 0.95813 0.40012 0.0
C968 C 0.78301 0.93405 0.40558 0.0
C969 C 0.76287 0.90901 0.39285 0.0
C970 C 0.74334 0.90825 0.37484 0.0
C971 C 0.74424 0.93305 0.36982 0.0
H972 H 0.98119 0.82349 0.39463 0.0
H973 H 0.97837 0.78595 0.46852 0.0
H974 H 0.01872 0.78584 0.45979 0.0
H975 H 1.0057 0.78692 0.35514 0.0
H976 H 0.02602 0.81611 0.3376 0.0
H977 H 0.99666 0.81236 0.34937 0.0
H978 H 0.02276 0.86049 0.37583 0.0
H979 H 0.05218 0.86438 0.36417 0.0
H980 H 0.04963 0.86793 0.39975 0.0
H981 H 0.06003 0.79154 0.44366 0.0
H982 H 0.09919 0.80195 0.42131 0.0
H983 H 0.07488 0.83552 0.35746 0.0
C984 C 0.98908 0.8151 0.4088 0.0
C985 C 0.97697 0.80466 0.43217 0.0
C986 C 0.98759 0.79395 0.45049 0.0
C987 C 0.0104 0.79382 0.44567 0.0
C988 C 0.02209 0.80443 0.42242 0.0
C989 C 0.01177 0.81481 0.40425 0.0
C990 C 0.02834 0.82548 0.38111 0.0
C991 C 0.01327 0.80924 0.35422 0.0
C992 C 0.03885 0.85641 0.38018 0.0
C993 C 0.04976 0.81971 0.38917 0.0
C994 C 0.04576 0.80752 0.41304 0.0
C995 C 0.06325 0.80087 0.42488 0.0
C996 C 0.08541 0.80685 0.41202 0.0
C997 C 0.0899 0.81933 0.38758 0.0
C998 C 0.07179 0.82575 0.376 0.0
H999 H 0.24142 0.20023 0.34904 0.0
H1000 H 0.2265 0.18768 0.43233 0.0
H1001 H 0.21903 0.2271 0.43588 0.0
H1002 H 0.27362 0.27646 0.3569 0.0
H1003 H 0.25901 0.27746 0.32479 0.0
H1004 H 0.26606 0.25043 0.3298 0.0
H1005 H 0.21817 0.21411 0.31493 0.0
H1006 H 0.21098 0.24097 0.30992 0.0
H1007 H 0.19297 0.21522 0.33203 0.0
H1008 H 0.2081 0.26367 0.42866 0.0
H1009 H 0.19543 0.29595 0.41169 0.0
H1010 H 0.2187 0.28617 0.33328 0.0
C1011 C 0.23719 0.20633 0.36816 0.0
C1012 C 0.23477 0.19143 0.39057 0.0
C1013 C 0.22867 0.19926 0.41513 0.0
C1014 C 0.22444 0.22156 0.41728 0.0
C1015 C 0.22659 0.23574 0.39468 0.0
C1016 C 0.23301 0.22859 0.37062 0.0
C1017 C 0.23233 0.24596 0.34887 0.0
C1018 C 0.25937 0.26363 0.33955 0.0
C1019 C 0.21243 0.22799 0.32504 0.0
C1020 C 0.2238 0.26349 0.3642 0.0
C1021 C 0.22076 0.25734 0.39065 0.0
C1022 C 0.21096 0.26909 0.40821 0.0
C1023 C 0.20379 0.28733 0.39841 0.0
C1024 C 0.20663 0.29378 0.37143 0.0
C1025 C 0.21712 0.28209 0.3542 0.0
H1026 H 0.62737 0.55218 0.7607 0.0
H1027 H 0.59994 0.47824 0.70646 0.0
H1028 H 0.64142 0.49949 0.68665 0.0
H1029 H 0.66294 0.60045 0.71578 0.0
H1030 H 0.68974 0.62309 0.74009 0.0
H1031 H 0.65808 0.60212 0.75095 0.0
H1032 H 0.67655 0.58115 0.78425 0.0
H1033 H 0.70833 0.60238 0.77367 0.0
H1034 H 0.69451 0.56571 0.77191 0.0
H1035 H 0.68431 0.52922 0.67048 0.0
H1036 H 0.72791 0.5647 0.66124 0.0
H1037 H 0.72989 0.61876 0.72764 0.0
C1038 C 0.63017 0.54022 0.74498 0.0
C1039 C 0.60995 0.51357 0.73491 0.0
C1040 C 0.61463 0.49891 0.71411 0.0
C1041 C 0.63829 0.51072 0.70283 0.0
C1042 C 0.65747 0.53711 0.7128 0.0
C1043 C 0.65394 0.55158 0.73368 0.0
C1044 C 0.67797 0.57969 0.74053 0.0
C1045 C 0.6718 0.60269 0.73659 0.0
C1046 C 0.69005 0.58238 0.7693 0.0
C1047 C 0.69521 0.5789 0.71977 0.0
C1048 C 0.68288 0.55408 0.70402 0.0
C1049 C 0.69429 0.54862 0.68285 0.0
C1050 C 0.71902 0.56897 0.67769 0.0
C1051 C 0.73226 0.59444 0.69371 0.0
C1052 C 0.72022 0.59942 0.71512 0.0
H1053 H 0.50723 0.11599 0.73105 0.0
H1054 H 0.49746 0.12404 0.81593 0.0
H1055 H 0.46151 0.13204 0.80406 0.0
H1056 H 0.49554 0.1704 0.71307 0.0
H1057 H 0.47891 0.15315 0.68061 0.0
H1058 H 0.50343 0.14713 0.69567 0.0
H1059 H 0.4706 0.09493 0.69131 0.0
H1060 H 0.44592 0.1008 0.67642 0.0
H1061 H 0.44037 0.08247 0.70598 0.0
H1062 H 0.42622 0.13837 0.78331 0.0
H1063 H 0.39567 0.14587 0.75516 0.0
H1064 H 0.42959 0.13681 0.68361 0.0
C1065 C 0.49777 0.11972 0.74722 0.0
C1066 C 0.50514 0.119 0.77449 0.0
C1067 C 0.49191 0.12375 0.79488 0.0
C1068 C 0.47153 0.12852 0.78835 0.0
C1069 C 0.46467 0.12881 0.76134 0.0
C1070 C 0.47754 0.12485 0.74109 0.0
C1071 C 0.46665 0.12689 0.71368 0.0
C1072 C 0.48737 0.15082 0.69996 0.0
C1073 C 0.45521 0.09965 0.6958 0.0
C1074 C 0.44562 0.13259 0.72173 0.0
C1075 C 0.44473 0.13336 0.74933 0.0
C1076 C 0.42679 0.1379 0.7617 0.0
C1077 C 0.40944 0.14202 0.74549 0.0
C1078 C 0.41025 0.14185 0.7172 0.0
C1079 C 0.42856 0.13702 0.70517 0.0
H1080 H 0.86269 0.36512 0.71669 0.0
H1081 H 0.90548 0.37717 0.79472 0.0
H1082 H 0.90589 0.33523 0.78374 0.0
H1083 H 0.82055 0.29223 0.72284 0.0
H1084 H 0.81709 0.28291 0.68714 0.0
H1085 H 0.82247 0.31612 0.69935 0.0
H1086 H 0.86242 0.33925 0.6723 0.0
H1087 H 0.85738 0.30613 0.6603 0.0
H1088 H 0.88807 0.33161 0.67768 0.0
H1089 H 0.90549 0.29393 0.76316 0.0
H1090 H 0.89469 0.24965 0.73909 0.0
H1091 H 0.8432 0.2573 0.68034 0.0
C1092 C 0.87205 0.35935 0.73192 0.0
C1093 C 0.8853 0.37646 0.75622 0.0
C1094 C 0.89672 0.36658 0.77509 0.0
C1095 C 0.89676 0.3421 0.76928 0.0
C1096 C 0.88423 0.32655 0.74508 0.0
C1097 C 0.87117 0.33414 0.72716 0.0
C1098 C 0.85688 0.31195 0.70387 0.0
C1099 C 0.8275 0.3001 0.70328 0.0
C1100 C 0.86678 0.3229 0.67694 0.0
C1101 C 0.86438 0.29101 0.71147 0.0
C1102 C 0.88081 0.30039 0.73496 0.0
C1103 C 0.89212 0.286 0.74513 0.0
C1104 C 0.88592 0.26094 0.73133 0.0
C1105 C 0.86771 0.24993 0.70838 0.0
C1106 C 0.85687 0.26519 0.69815 0.0
H1107 H 0.2224 0.96552 0.61332 0.0
H1108 H 0.15362 0.96742 0.6328 0.0
H1109 H 0.18074 0.01507 0.65312 0.0
H1110 H 0.26237 0.00488 0.67322 0.0
H1111 H 0.29154 0.02363 0.65693 0.0
H1112 H 0.26698 0.98977 0.64284 0.0
H1113 H 0.26433 0.00848 0.59736 0.0
H1114 H 0.28919 0.04231 0.61117 0.0
H1115 H 0.25855 0.03685 0.59673 0.0
H1116 H 0.21455 0.06146 0.67247 0.0
H1117 H 0.25347 0.1062 0.68643 0.0
H1118 H 0.30142 0.07574 0.6549 0.0
C1119 C 0.21311 0.97618 0.62149 0.0
C1120 C 0.18586 0.96269 0.62162 0.0
C1121 C 0.17443 0.97724 0.63273 0.0
C1122 C 0.18967 0.0043 0.64434 0.0
C1123 C 0.21642 0.01673 0.64466 0.0
C1124 C 0.22813 1.0034 0.63328 0.0
C1125 C 0.2574 0.02184 0.63644 0.0
C1126 C 0.27033 0.00927 0.65337 0.0
C1127 C 0.26799 0.02772 0.60878 0.0
C1128 C 0.26017 0.04747 0.65143 0.0
C1129 C 0.2362 0.04389 0.65598 0.0
C1130 C 0.23344 0.06456 0.669 0.0
C1131 C 0.25571 0.0899 0.67694 0.0
C1132 C 0.28053 0.09449 0.67192 0.0
C1133 C 0.28278 0.07274 0.65943 0.0
H1134 H 0.02995 0.19365 0.58623 0.0
H1135 H 0.08394 0.27382 0.62712 0.0
H1136 H 0.05013 0.27033 0.65571 0.0
H1137 H 0.97451 0.20317 0.58475 0.0
H1138 H 0.95185 0.16797 0.58953 0.0
H1139 H 0.98041 0.17626 0.5729 0.0
H1140 H 0.9936 0.15185 0.60739 0.0
H1141 H 0.96506 0.14332 0.62416 0.0
H1142 H 0.99653 0.16188 0.64286 0.0
H1143 H 0.01104 0.25714 0.68095 0.0
H1144 H 0.96796 0.23763 0.69789 0.0
H1145 H 0.93834 0.16737 0.63842 0.0
C1146 C 0.03453 0.21041 0.60123 0.0
C1147 C 0.05945 0.23396 0.60474 0.0
C1148 C 0.06487 0.25569 0.62425 0.0
C1149 C 0.04586 0.2538 0.64059 0.0
C1150 C 0.02148 0.23021 0.63681 0.0
C1151 C 0.01562 0.20908 0.61733 0.0
C1152 C 0.9876 0.18651 0.61663 0.0
C1153 C 0.97271 0.18329 0.58933 0.0
C1154 C 0.98559 0.15928 0.62316 0.0
C1155 C 0.97868 0.19809 0.63898 0.0
C1156 C 0.99862 0.22317 0.65055 0.0
C1157 C 0.99525 0.23761 0.67194 0.0
C1158 C 0.97077 0.22632 0.6815 0.0
C1159 C 0.94992 0.20104 0.66947 0.0
C1160 C 0.95399 0.18673 0.648 0.0
H1161 H 0.75829 0.78757 0.6027 0.0
H1162 H 0.82003 0.86386 0.64435 0.0
H1163 H 0.83733 0.83814 0.66772 0.0
H1164 H 0.74831 0.74615 0.65838 0.0
H1165 H 0.74217 0.71607 0.63751 0.0
H1166 H 0.73444 0.74032 0.62403 0.0
H1167 H 0.76295 0.74585 0.5851 0.0
H1168 H 0.77055 0.72143 0.59832 0.0
H1169 H 0.79623 0.75511 0.59285 0.0
H1170 H 0.8492 0.80459 0.68484 0.0
H1171 H 0.85455 0.76537 0.69515 0.0
H1172 H 0.78413 0.71014 0.64424 0.0
C1173 C 0.77555 0.79888 0.61661 0.0
C1174 C 0.78786 0.82781 0.62163 0.0
C1175 C 0.81018 0.84175 0.6403 0.0
C1176 C 0.82017 0.8273 0.65364 0.0
C1177 C 0.80751 0.79884 0.64833 0.0
C1178 C 0.78565 0.78473 0.63032 0.0
C1179 C 0.77583 0.75409 0.62824 0.0
C1180 C 0.74857 0.73823 0.6376 0.0
C1181 C 0.77644 0.7435 0.59942 0.0
C1182 C 0.79571 0.75319 0.64771 0.0
C1183 C 0.81385 0.7793 0.65898 0.0
C1184 C 0.83494 0.78405 0.67641 0.0
C1185 C 0.8378 0.76165 0.68217 0.0
C1186 C 0.81954 0.73472 0.67088 0.0
C1187 C 0.798 0.73041 0.65372 0.0
H1188 H 0.05964 0.84351 0.67093 0.0
H1189 H 0.06445 0.80802 0.59398 0.0
H1190 H 0.01869 0.77068 0.59384 0.0
H1191 H 0.0208 0.78039 0.69923 0.0
H1192 H 1.00228 0.79247 0.71656 0.0
H1193 H 0.03493 0.81636 0.71005 0.0
H1194 H 0.01893 0.84515 0.68551 0.0
H1195 H 0.98623 0.82139 0.69203 0.0
H1196 H 0.99378 0.82883 0.65802 0.0
H1197 H 0.97243 0.73704 0.60294 0.0
H1198 H 0.92964 0.71001 0.62001 0.0
H1199 H 0.95555 0.76795 0.69119 0.0
C1200 C 0.05093 0.82787 0.65403 0.0
C1201 C 0.06522 0.82838 0.63242 0.0
C1202 C 0.05355 0.80777 0.61063 0.0
C1203 C 0.02767 0.78659 0.61045 0.0
C1204 C 0.01399 0.78653 0.63222 0.0
C1205 C 0.02525 0.80671 0.65358 0.0
C1206 C 0.00659 0.80198 0.67463 0.0
C1207 C 0.01676 0.79753 0.70172 0.0
C1208 C 1.00106 0.82575 0.67772 0.0
C1209 C 0.98301 0.77588 0.66193 0.0
C1210 C 0.98762 0.7673 0.63746 0.0
C1211 C 0.96868 0.74361 0.62207 0.0
C1212 C 0.94446 0.72837 0.63195 0.0
C1213 C 0.93937 0.73689 0.65692 0.0
C1214 C 0.95894 0.76094 0.67205 0.0
H1215 H 0.18089 0.20299 0.57311 0.0
H1216 H 0.1538 0.22319 0.64458 0.0
H1217 H 0.1925 0.22962 0.67202 0.0
H1218 H 0.20445 0.16413 0.6031 0.0
H1219 H 0.23239 0.17572 0.58447 0.0
H1220 H 0.20401 0.17539 0.57013 0.0
H1221 H 0.23159 0.22709 0.56371 0.0
H1222 H 0.26008 0.2275 0.57804 0.0
H1223 H 0.25099 0.25115 0.59221 0.0
H1224 H 0.23129 0.22882 0.69218 0.0
H1225 H 0.26848 0.22234 0.70361 0.0
H1226 H 0.27159 0.20441 0.61889 0.0
C1227 C 0.18352 0.20934 0.59445 0.0
C1228 C 0.16475 0.21291 0.60692 0.0
C1229 C 0.16828 0.22067 0.63484 0.0
C1230 C 0.19015 0.22436 0.6505 0.0
C1231 C 0.20828 0.22035 0.63778 0.0
C1232 C 0.20535 0.21323 0.61034 0.0
C1233 C 0.227 0.20877 0.60194 0.0
C1234 C 0.21632 0.17925 0.58917 0.0
C1235 C 0.24339 0.22989 0.58284 0.0
C1236 C 0.24214 0.21375 0.629 0.0
C1237 C 0.23107 0.22052 0.64939 0.0
C1238 C 0.24044 0.22405 0.67635 0.0
C1239 C 0.26151 0.22031 0.68267 0.0
C1240 C 0.27305 0.21332 0.66211 0.0
C1241 C 0.26347 0.21041 0.63494 0.0
H1242 H 0.8035 0.96765 0.61553 0.0
H1243 H 0.77108 0.9342 0.68903 0.0
H1244 H 0.78674 0.98107 0.7103 0.0
H1245 H 0.86175 0.03161 0.64906 0.0
H1246 H 0.86058 0.05222 0.62336 0.0
H1247 H 0.8495 0.01638 0.61497 0.0
H1248 H 0.80526 0.00888 0.59544 0.0
H1249 H 0.8161 0.04457 0.60398 0.0
H1250 H 0.78701 0.01856 0.61636 0.0
H1251 H 0.79986 0.03008 0.7211 0.0
H1252 H 0.81352 0.07931 0.72253 0.0
H1253 H 0.84037 0.08256 0.64339 0.0
C1254 C 0.80052 0.97042 0.63638 0.0
C1255 C 0.78654 0.94757 0.65096 0.0
C1256 C 0.78219 0.95163 0.67784 0.0
C1257 C 0.79093 0.97812 0.69001 0.0
C1258 C 0.80419 1.00033 0.67502 0.0
C1259 C 0.8094 0.99689 0.64894 0.0
C1260 C 0.82289 0.02422 0.63693 0.0
C1261 C 0.85031 0.03154 0.63072 0.0
C1262 C 0.80685 0.02403 0.61169 0.0
C1263 C 0.82368 0.04335 0.66001 0.0
C1264 C 0.81272 0.02906 0.68174 0.0
C1265 C 0.80904 0.04163 0.7045 0.0
C1266 C 0.81674 0.06951 0.7051 0.0
C1267 C 0.82834 0.08465 0.6833 0.0
C1268 C 0.83214 0.0715 0.66059 0.0
H1269 H 0.45133 0.39252 0.70665 0.0
H1270 H 0.52563 0.39709 0.7065 0.0
H1271 H 0.50348 0.34679 0.69426 0.0
H1272 H 0.41825 0.32806 0.73547 0.0
H1273 H 0.38806 0.31637 0.71539 0.0
H1274 H 0.40992 0.35254 0.7238 0.0
H1275 H 0.41014 0.36004 0.67311 0.0
H1276 H 0.38845 0.32383 0.66456 0.0
H1277 H 0.41893 0.34094 0.65021 0.0
H1278 H 0.47295 0.29589 0.68269 0.0
H1279 H 0.43671 0.24818 0.67418 0.0
H1280 H 0.38217 0.27704 0.68135 0.0
C1281 C 0.46283 0.3828 0.70406 0.0
C1282 C 0.49007 0.39833 0.70751 0.0
C1283 C 0.50469 0.38526 0.70397 0.0
C1284 C 0.49228 0.35681 0.69695 0.0
C1285 C 0.46528 0.34192 0.69352 0.0
C1286 C 0.45073 0.35445 0.69704 0.0
C1287 C 0.42202 0.33374 0.69257 0.0
C1288 C 0.40879 0.33261 0.71835 0.0
C1289 C 0.40913 0.34002 0.66869 0.0
C1290 C 0.42265 0.30758 0.68607 0.0
C1291 C 0.44777 0.31273 0.68667 0.0
C1292 C 0.4532 0.29165 0.68206 0.0
C1293 C 0.43244 0.26459 0.67719 0.0
C1294 C 0.4065 0.25875 0.67691 0.0
C1295 C 0.40169 0.28071 0.68105 0.0
H1296 H 0.65955 0.15283 0.77397 0.0
H1297 H 0.60362 0.08122 0.72165 0.0
H1298 H 0.63924 0.07799 0.70223 0.0
H1299 H 0.70411 0.18319 0.72734 0.0
H1300 H 0.73278 0.19598 0.7504 0.0
H1301 H 0.70316 0.19088 0.76261 0.0
H1302 H 0.70512 0.15914 0.79694 0.0
H1303 H 0.735 0.16447 0.78509 0.0
H1304 H 0.70806 0.13014 0.78528 0.0
H1305 H 0.68062 0.08598 0.68476 0.0
H1306 H 0.72518 0.10195 0.67317 0.0
H1307 H 0.75482 0.16767 0.73775 0.0
C1308 C 0.65493 0.13597 0.75907 0.0
C1309 C 0.629 0.11688 0.74955 0.0
C1310 C 0.62345 0.09562 0.72947 0.0
C1311 C 0.64354 0.09375 0.71827 0.0
C1312 C 0.66902 0.11328 0.72754 0.0
C1313 C 0.67482 0.13374 0.74781 0.0
C1314 C 0.70386 0.15291 0.75313 0.0
C1315 C 0.71141 0.18248 0.74806 0.0
C1316 C 0.71358 0.15157 0.78182 0.0
C1317 C 0.71341 0.14046 0.73224 0.0
C1318 C 0.69298 0.11763 0.7177 0.0
C1319 C 0.69679 0.10355 0.6963 0.0
C1320 C 0.72214 0.11286 0.68976 0.0
C1321 C 0.74339 0.13592 0.70464 0.0
C1322 C 0.73892 0.14982 0.7262 0.0
H1323 H 0.82605 0.48605 0.73302 0.0
H1324 H 0.90677 0.51486 0.72364 0.0
H1325 H 0.91251 0.55928 0.71104 0.0
H1326 H 0.81415 0.51584 0.67746 0.0
H1327 H 0.79297 0.52495 0.6936 0.0
H1328 H 0.79557 0.49619 0.70345 0.0
H1329 H 0.8082 0.51765 0.7531 0.0
H1330 H 0.80503 0.54609 0.74326 0.0
H1331 H 0.83482 0.55225 0.76079 0.0
H1332 H 0.90871 0.59959 0.69739 0.0
H1333 H 0.8964 0.63361 0.6855 0.0
H1334 H 0.8179 0.57845 0.70393 0.0
C1335 C 0.84499 0.50196 0.7287 0.0
C1336 C 0.8661 0.49742 0.72945 0.0
C1337 C 0.89051 0.51829 0.72335 0.0
C1338 C 0.89389 0.54347 0.71613 0.0
C1339 C 0.8726 0.54732 0.7152 0.0
C1340 C 0.84866 0.52723 0.72153 0.0
C1341 C 0.82882 0.53632 0.71837 0.0
C1342 C 0.80657 0.51718 0.69694 0.0
C1343 C 0.81863 0.53819 0.7455 0.0
C1344 C 0.84523 0.56449 0.70894 0.0
C1345 C 0.87043 0.57047 0.70729 0.0
C1346 C 0.88906 0.59517 0.69875 0.0
C1347 C 0.88184 0.61437 0.69197 0.0
C1348 C 0.85616 0.60881 0.69371 0.0
C1349 C 0.83768 0.58341 0.70226 0.0
H1350 H 0.49746 0.96125 0.20842 0.0
H1351 H 0.41525 0.93295 0.19508 0.0
H1352 H 0.42192 0.9519 0.15135 0.0
H1353 H 0.5216 0.02268 0.177 0.0
H1354 H 0.54617 0.01918 0.16104 0.0
H1355 H 0.53544 1.004 0.19194 0.0
H1356 H 0.52393 0.95641 0.16924 0.0
H1357 H 0.53494 0.97151 0.13836 0.0
H1358 H 0.50264 0.94281 0.13849 0.0
H1359 H 0.43793 0.97744 0.11086 0.0
H1360 H 0.46123 1.00125 0.0727 0.0
H1361 H 0.53125 0.00642 0.10845 0.0
C1362 C 0.48071 0.95859 0.19628 0.0
C1363 C 0.45591 0.94616 0.2059 0.0
C1364 C 0.43468 0.94333 0.18899 0.0
C1365 C 0.43818 0.95382 0.16387 0.0
C1366 C 0.46291 0.9665 0.15544 0.0
C1367 C 0.4837 0.96831 0.17076 0.0
C1368 C 0.50805 0.9819 0.15632 0.0
C1369 C 0.52905 0.00852 0.17255 0.0
C1370 C 0.51797 0.96197 0.15024 0.0
C1371 C 0.49772 0.98784 0.13073 0.0
C1372 C 0.47168 0.97907 0.13083 0.0
C1373 C 0.45811 0.98361 0.11015 0.0
C1374 C 0.47135 0.99676 0.0884 0.0
C1375 C 0.49753 0.00431 0.08703 0.0
C1376 C 0.51104 1.00035 0.10877 0.0
H1377 H 0.09722 0.56059 0.19983 0.0
H1378 H 0.04682 0.47825 0.22197 0.0
H1379 H 0.02165 0.46598 0.17795 0.0
H1380 H 0.04443 0.56609 0.16632 0.0
H1381 H 0.06379 0.58602 0.14092 0.0
H1382 H 0.07887 0.58818 0.17386 0.0
H1383 H 0.10998 0.57513 0.15205 0.0
H1384 H 0.0947 0.57252 0.11908 0.0
H1385 H 0.09678 0.5438 0.13012 0.0
H1386 H 1.00405 0.46112 0.13006 0.0
H1387 H 0.98952 0.46697 0.08477 0.0
H1388 H 0.04652 0.55371 0.09608 0.0
C1389 C 0.08068 0.54009 0.19573 0.0
C1390 C 0.07473 0.52021 0.21435 0.0
C1391 C 0.05271 0.49365 0.20784 0.0
C1392 C 0.03806 0.48644 0.18287 0.0
C1393 C 0.04503 0.50619 0.16474 0.0
C1394 C 0.0653 0.5327 0.17111 0.0
C1395 C 0.06765 0.55037 0.14845 0.0
C1396 C 0.06342 0.57406 0.15796 0.0
C1397 C 0.09383 0.56108 0.13674 0.0
C1398 C 0.04558 0.52956 0.12845 0.0
C1399 C 0.03322 0.50403 0.138 0.0
C1400 C 0.01324 0.48111 0.12254 0.0
C1401 C 1.00522 0.48454 0.09687 0.0
C1402 C 0.01671 0.51079 0.08738 0.0
C1403 C 0.03722 0.53352 0.10325 0.0
H1404 H 0.51558 0.54353 0.21173 0.0
H1405 H 0.43592 0.52409 0.19878 0.0
H1406 H 0.43321 0.50486 0.15206 0.0
H1407 H 0.53388 0.56512 0.14884 0.0
H1408 H 0.55445 0.55053 0.14555 0.0
H1409 H 0.54916 0.56021 0.17844 0.0
H1410 H 0.5331 0.51091 0.19159 0.0
H1411 H 0.53844 0.50108 0.1587 0.0
H1412 H 0.50705 0.48213 0.1709 0.0
H1413 H 0.44178 0.49475 0.10515 0.0
H1414 H 0.45935 0.49013 0.06296 0.0
H1415 H 0.53205 0.51184 0.10761 0.0
C1416 C 0.49743 0.53468 0.19915 0.0
C1417 C 0.4759 0.53514 0.20863 0.0
C1418 C 0.45248 0.52362 0.19178 0.0
C1419 C 0.45084 0.51276 0.1653 0.0
C1420 C 0.47264 0.51311 0.15633 0.0
C1421 C 0.49535 0.52333 0.17293 0.0
C1422 C 0.5163 0.52231 0.1582 0.0
C1423 C 0.53982 0.55126 0.15773 0.0
C1424 C 0.52418 0.50295 0.17059 0.0
C1425 C 0.50212 0.51067 0.13043 0.0
C1426 C 0.47699 0.50562 0.12973 0.0
C1427 C 0.4611 0.49772 0.10566 0.0
C1428 C 0.47117 0.49501 0.08178 0.0
C1429 C 0.49665 0.49962 0.08214 0.0
C1430 C 0.51217 0.50721 0.10686 0.0
H1431 H 0.95495 0.45993 0.81034 0.0
H1432 H 0.89204 0.47379 0.82789 0.0
H1433 H 0.91327 0.49369 0.87367 0.0
H1434 H 0.9594 0.43579 0.87085 0.0
H1435 H 0.99408 0.45094 0.87427 0.0
H1436 H 0.97687 0.44284 0.84136 0.0
H1437 H 1.00534 0.49322 0.83082 0.0
H1438 H 0.02286 0.50146 0.86368 0.0
H1439 H 0.00776 0.52063 0.85333 0.0
H1440 H 0.93686 0.50407 0.91959 0.0
H1441 H 0.96264 0.50687 0.96098 0.0
H1442 H 0.01068 0.48711 0.91442 0.0
C1443 C 0.94587 0.46766 0.8236 0.0
C1444 C 0.92178 0.4653 0.81537 0.0
C1445 C 0.91067 0.47578 0.83342 0.0
C1446 C 0.92252 0.48696 0.85959 0.0
C1447 C 0.94559 0.48773 0.86741 0.0
C1448 C 0.95733 0.47866 0.84984 0.0
C1449 C 0.98075 0.47935 0.86393 0.0
C1450 C 0.97757 0.45052 0.86252 0.0
C1451 C 1.00566 0.49989 0.85224 0.0
C1452 C 0.97983 0.4893 0.89239 0.0
C1453 C 0.95958 0.49433 0.8939 0.0
C1454 C 0.95345 0.50136 0.91844 0.0
C1455 C 0.96853 0.50353 0.94195 0.0
C1456 C 0.98963 0.49904 0.94087 0.0
C1457 C 0.99516 0.4916 0.91574 0.0
H1458 H 0.51927 0.502 0.80363 0.0
H1459 H 0.58581 0.49358 0.82622 0.0
H1460 H 0.57947 0.4983 0.87413 0.0
H1461 H 0.52945 0.5515 0.86033 0.0
H1462 H 0.49538 0.53651 0.86386 0.0
H1463 H 0.50619 0.53453 0.83132 0.0
H1464 H 0.47702 0.48163 0.82686 0.0
H1465 H 0.46613 0.48344 0.85934 0.0
H1466 H 0.48038 0.46241 0.85282 0.0
H1467 H 0.56388 0.49968 0.91893 0.0
H1468 H 0.54079 0.49886 0.95819 0.0
H1469 H 0.48463 0.50775 0.90776 0.0
C1470 C 0.53258 0.50125 0.81865 0.0
C1471 C 0.55314 0.4975 0.81108 0.0
C1472 C 0.5702 0.49686 0.83143 0.0
C1473 C 0.56667 0.49939 0.85872 0.0
C1474 C 0.54608 0.50273 0.86542 0.0
C1475 C 0.52938 0.50382 0.84603 0.0
C1476 C 0.50823 0.5066 0.85871 0.0
C1477 C 0.50993 0.53392 0.85323 0.0
C1478 C 0.48135 0.48206 0.84884 0.0
C1479 C 0.51534 0.5063 0.88826 0.0
C1480 C 0.53733 0.50416 0.89156 0.0
C1481 C 0.54697 0.5019 0.91664 0.0
C1482 C 0.53377 0.50165 0.93891 0.0
C1483 C 0.5113 0.50401 0.93623 0.0
C1484 C 0.50205 0.50651 0.91052 0.0
H1485 H 0.4994 0.05173 0.83077 0.0
H1486 H 0.58336 0.09143 0.84255 0.0
H1487 H 0.57959 0.06601 0.88199 0.0
H1488 H 0.49308 0.05983 0.90138 0.0
H1489 H 0.4625 0.02836 0.89982 0.0
H1490 H 0.47171 0.04726 0.87068 0.0
H1491 H 0.46519 1.00387 0.84257 0.0
H1492 H 0.45618 0.98493 0.87171 0.0
H1493 H 0.48238 0.98709 0.85392 0.0
H1494 H 0.56643 0.03603 0.92104 0.0
H1495 H 0.54519 0.00773 0.95794 0.0
H1496 H 0.4711 0.99407 0.92427 0.0
C1497 C 0.51724 0.05567 0.84157 0.0
C1498 C 0.54176 0.07388 0.8329 0.0
C1499 C 0.56422 0.07724 0.84785 0.0
C1500 C 0.56233 0.06303 0.87062 0.0
C1501 C 0.53789 0.04585 0.87872 0.0
C1502 C 0.5158 0.04251 0.86485 0.0
C1503 C 0.49197 0.02471 0.87885 0.0
C1504 C 0.47906 0.04102 0.88823 0.0
C1505 C 0.47281 0.9986 0.86067 0.0
C1506 C 0.50403 0.01812 0.90257 0.0
C1507 C 0.53053 0.03028 0.90205 0.0
C1508 C 0.54576 0.02682 0.92181 0.0
C1509 C 0.53364 0.01103 0.94287 0.0
C1510 C 0.50675 0.99951 0.9444 0.0
C1511 C 0.49175 1.00274 0.92369 0.0
H1512 H 0.11364 0.24677 0.50285 0.0
H1513 H 0.13188 0.31344 0.56331 0.0
H1514 H 0.15023 0.34669 0.52916 0.0
H1515 H 0.16942 0.28079 0.46793 0.0
H1516 H 0.1524 0.26557 0.43513 0.0
H1517 H 0.14037 0.24759 0.46433 0.0
H1518 H 0.0959 0.24423 0.45227 0.0
H1519 H 0.10829 0.26209 0.42305 0.0
H1520 H 0.09504 0.27513 0.44738 0.0
H1521 H 0.16917 0.37277 0.48836 0.0
H1522 H 0.18522 0.38887 0.4444 0.0
H1523 H 0.15228 0.30438 0.41113 0.0
C1524 C 0.12151 0.26839 0.50886 0.0
C1525 C 0.12162 0.27768 0.53568 0.0
C1526 C 0.13168 0.30602 0.5428 0.0
C1527 C 0.14212 0.32498 0.52357 0.0
C1528 C 0.14189 0.31515 0.49726 0.0
C1529 C 0.13156 0.28744 0.48987 0.0
C1530 C 0.13357 0.282 0.4604 0.0
C1531 C 0.14992 0.26819 0.45675 0.0
C1532 C 0.10659 0.26485 0.44487 0.0
C1533 C 0.1473 0.31101 0.45247 0.0
C1534 C 0.15193 0.32992 0.47388 0.0
C1535 C 0.16538 0.35809 0.4714 0.0
C1536 C 0.17444 0.36707 0.44643 0.0
C1537 C 0.16988 0.34789 0.4244 0.0
C1538 C 0.1559 0.31957 0.42752 0.0
H1539 H 0.75324 0.88369 0.53127 0.0
H1540 H 0.73416 0.79948 0.53847 0.0
H1541 H 0.71313 0.78654 0.49206 0.0
H1542 H 0.6933 0.86686 0.49869 0.0
H1543 H 0.70603 0.89443 0.47725 0.0
H1544 H 0.72318 0.8982 0.50937 0.0
H1545 H 0.76441 0.90893 0.48606 0.0
H1546 H 0.74734 0.90553 0.45394 0.0
H1547 H 0.76248 0.88525 0.45907 0.0
H1548 H 0.69188 0.78214 0.44536 0.0
H1549 H 0.67069 0.78648 0.40339 0.0
H1550 H 0.69983 0.87226 0.42889 0.0
C1551 C 0.74473 0.86249 0.52322 0.0
C1552 C 0.74557 0.8427 0.53883 0.0
C1553 C 0.73441 0.81529 0.52702 0.0
C1554 C 0.72221 0.80764 0.50062 0.0
C1555 C 0.72113 0.82754 0.48623 0.0
C1556 C 0.73209 0.85441 0.49715 0.0
C1557 C 0.72655 0.87142 0.47838 0.0
C1558 C 0.71136 0.88342 0.49172 0.0
C1559 C 0.75169 0.89412 0.4688 0.0
C1560 C 0.71009 0.84974 0.45553 0.0
C1561 C 0.70768 0.82469 0.46012 0.0
C1562 C 0.69358 0.80163 0.44164 0.0
C1563 C 0.68155 0.80424 0.41795 0.0
C1564 C 0.68329 0.82954 0.41326 0.0
C1565 C 0.69782 0.85255 0.43226 0.0
H1566 H 0.15644 0.9088 0.52816 0.0
H1567 H 0.16066 0.84861 0.57503 0.0
H1568 H 0.16887 0.82818 0.53447 0.0
H1569 H 0.12371 0.86117 0.46637 0.0
H1570 H 0.14077 0.88733 0.44431 0.0
H1571 H 0.13398 0.89648 0.47672 0.0
H1572 H 0.18282 0.9314 0.48874 0.0
H1573 H 0.18964 0.92228 0.45639 0.0
H1574 H 0.20587 0.91986 0.48669 0.0
H1575 H 0.18051 0.81692 0.49002 0.0
H1576 H 0.19227 0.81391 0.4438 0.0
H1577 H 0.17775 0.8792 0.42459 0.0
C1578 C 0.15891 0.89119 0.52974 0.0
C1579 C 0.15792 0.88024 0.55472 0.0
C1580 C 0.16113 0.85714 0.55605 0.0
C1581 C 0.16585 0.84544 0.53314 0.0
C1582 C 0.16686 0.85676 0.50886 0.0
C1583 C 0.16312 0.87888 0.50687 0.0
C1584 C 0.16534 0.88712 0.47831 0.0
C1585 C 0.1394 0.88276 0.46569 0.0
C1586 C 0.18722 0.91693 0.4775 0.0
C1587 C 0.17189 0.8669 0.46489 0.0
C1588 C 0.17258 0.84951 0.48287 0.0
C1589 C 0.17965 0.83014 0.47564 0.0
C1590 C 0.18635 0.8286 0.4494 0.0
C1591 C 0.18571 0.84613 0.43066 0.0
C1592 C 0.17804 0.86526 0.43843 0.0
H1593 H 0.61602 0.76671 0.15196 0.0
H1594 H 0.59582 0.83076 0.15261 0.0
H1595 H 0.62264 0.85163 0.19579 0.0
H1596 H 0.60919 0.75849 0.22241 0.0
H1597 H 0.63459 0.75036 0.22677 0.0
H1598 H 0.61579 0.74186 0.19469 0.0
H1599 H 0.65763 0.76938 0.17135 0.0
H1600 H 0.67675 0.77805 0.20324 0.0
H1601 H 0.67975 0.80484 0.18317 0.0
H1602 H 0.65349 0.86634 0.2391 0.0
H1603 H 0.6806 0.86989 0.28022 0.0
H1604 H 0.67377 0.79216 0.25363 0.0
C1605 C 0.61656 0.7848 0.16109 0.0
C1606 C 0.60354 0.79689 0.14827 0.0
C1607 C 0.6059 0.82118 0.16126 0.0
C1608 C 0.621 0.83316 0.18605 0.0
C1609 C 0.63327 0.82042 0.198 0.0
C1610 C 0.63074 0.79646 0.1861 0.0
C1611 C 0.64431 0.78561 0.2037 0.0
C1612 C 0.62481 0.75742 0.21241 0.0
C1613 C 0.66589 0.78441 0.18951 0.0
C1614 C 0.65531 0.80744 0.22726 0.0
C1615 C 0.64905 0.82757 0.22356 0.0
C1616 C 0.65792 0.8503 0.24242 0.0
C1617 C 0.67296 0.85201 0.26589 0.0
C1618 C 0.67829 0.83081 0.27061 0.0
C1619 C 0.66975 0.80857 0.25073 0.0
H1620 H 0.24091 0.85852 0.16821 0.0
H1621 H 0.19957 0.76956 0.15797 0.0
H1622 H 0.18213 0.76819 0.20172 0.0
H1623 H 0.25626 0.86503 0.24215 0.0
H1624 H 0.25195 0.8942 0.2478 0.0
H1625 H 0.26283 0.88831 0.21656 0.0
H1626 H 0.22464 0.88901 0.19029 0.0
H1627 H 0.21342 0.89446 0.22145 0.0
H1628 H 0.192 0.86573 0.19749 0.0
H1629 H 0.16762 0.7759 0.24517 0.0
H1630 H 0.15815 0.7925 0.28736 0.0
H1631 H 0.20776 0.87661 0.27034 0.0
C1632 C 0.2286 0.83882 0.17551 0.0
C1633 C 0.22156 0.81411 0.15969 0.0
C1634 C 0.20509 0.7887 0.16969 0.0
C1635 C 0.1951 0.78772 0.19452 0.0
C1636 C 0.20173 0.81234 0.20925 0.0
C1637 C 0.21827 0.83746 0.20036 0.0
C1638 C 0.2216 0.86076 0.22006 0.0
C1639 C 0.24984 0.8781 0.23237 0.0
C1640 C 0.21236 0.87854 0.2065 0.0
C1641 C 0.20391 0.84476 0.241 0.0
C1642 C 0.19286 0.81684 0.23436 0.0
C1643 C 0.17609 0.79769 0.25055 0.0
C1644 C 0.1707 0.80728 0.27436 0.0
C1645 C 0.18182 0.83573 0.28169 0.0
C1646 C 0.19858 0.85475 0.26479 0.0
H1647 H 0.22048 0.43571 0.19206 0.0
H1648 H 0.17261 0.36727 0.13236 0.0
H1649 H 0.1613 0.33527 0.16782 0.0
H1650 H 0.244 0.40081 0.23491 0.0
H1651 H 0.24192 0.41731 0.26581 0.0
H1652 H 0.24801 0.43465 0.23558 0.0
H1653 H 0.20824 0.44073 0.24038 0.0
H1654 H 0.20217 0.42354 0.27066 0.0
H1655 H 0.1771 0.41102 0.24317 0.0
H1656 H 0.15466 0.31089 0.20982 0.0
H1657 H 0.14947 0.29629 0.25586 0.0
H1658 H 0.19977 0.38084 0.28875 0.0
C1659 C 0.20786 0.41393 0.18652 0.0
C1660 C 0.19756 0.40378 0.15952 0.0
C1661 C 0.18069 0.3753 0.15296 0.0
C1662 C 0.1743 0.35704 0.17292 0.0
C1663 C 0.18473 0.36763 0.1994 0.0
C1664 C 0.20092 0.39546 0.20632 0.0
C1665 C 0.20792 0.4017 0.23654 0.0
C1666 C 0.2372 0.41437 0.24362 0.0
C1667 C 0.19828 0.42034 0.24837 0.0
C1668 C 0.19303 0.37308 0.24551 0.0
C1669 C 0.18011 0.35369 0.22374 0.0
C1670 C 0.16472 0.32589 0.22701 0.0
C1671 C 0.16194 0.31777 0.25322 0.0
C1672 C 0.17422 0.33741 0.27584 0.0
C1673 C 0.19029 0.36535 0.27183 0.0
H1674 H 0.77384 0.57886 0.83666 0.0
H1675 H 0.80155 0.64906 0.89565 0.0
H1676 H 0.82144 0.6803 0.86027 0.0
H1677 H 0.82781 0.60547 0.79789 0.0
H1678 H 0.80891 0.59132 0.76579 0.0
H1679 H 0.79669 0.57449 0.79556 0.0
H1680 H 0.75503 0.57717 0.7863 0.0
H1681 H 0.76707 0.5939 0.7564 0.0
H1682 H 0.75768 0.60992 0.78208 0.0
H1683 H 0.84013 0.70366 0.81873 0.0
H1684 H 0.85483 0.71735 0.77384 0.0
H1685 H 0.8125 0.63187 0.74164 0.0
C1686 C 0.78416 0.60083 0.842 0.0
C1687 C 0.7865 0.61174 0.86878 0.0
C1688 C 0.79976 0.64049 0.87518 0.0
C1689 C 0.81103 0.6583 0.85525 0.0
C1690 C 0.80841 0.64696 0.82896 0.0
C1691 C 0.79506 0.61888 0.82223 0.0
C1692 C 0.79474 0.61198 0.79242 0.0
C1693 C 0.80782 0.59481 0.78765 0.0
C1694 C 0.76698 0.59738 0.77849 0.0
C1695 C 0.81064 0.64051 0.78362 0.0
C1696 C 0.8183 0.66043 0.80494 0.0
C1697 C 0.83402 0.68825 0.80184 0.0
C1698 C 0.84228 0.69585 0.77633 0.0
C1699 C 0.83468 0.67571 0.75433 0.0
C1700 C 0.81841 0.64776 0.75805 0.0
H1701 H 0.391 0.16584 0.87437 0.0
H1702 H 0.46489 0.23863 0.86713 0.0
H1703 H 0.44889 0.24242 0.82195 0.0
H1704 H 0.37901 0.13792 0.80489 0.0
H1705 H 0.34476 0.12554 0.8026 0.0
H1706 H 0.3618 0.12811 0.83447 0.0
H1707 H 0.34553 0.15875 0.85603 0.0
H1708 H 0.32832 0.15622 0.82429 0.0
H1709 H 0.35146 0.18944 0.8411 0.0
H1710 H 0.42625 0.23735 0.77727 0.0
H1711 H 0.39678 0.22587 0.73619 0.0
H1712 H 0.33592 0.15798 0.77226 0.0
C1713 C 0.40372 0.18255 0.86321 0.0
C1714 C 0.42916 0.20205 0.87425 0.0
C1715 C 0.44526 0.22371 0.85917 0.0
C1716 C 0.4364 0.22593 0.83345 0.0
C1717 C 0.41129 0.20646 0.82314 0.0
C1718 C 0.39503 0.18532 0.83754 0.0
C1719 C 0.36874 0.16751 0.82172 0.0
C1720 C 0.36326 0.13802 0.81555 0.0
C1721 C 0.34724 0.16802 0.83668 0.0
C1722 C 0.37279 0.18206 0.79627 0.0
C1723 C 0.39766 0.20423 0.7975 0.0
C1724 C 0.40664 0.22025 0.77616 0.0
C1725 C 0.38977 0.21353 0.75291 0.0
C1726 C 0.36405 0.19129 0.75128 0.0
C1727 C 0.35537 0.1754 0.77328 0.0
H1728 H 0.83353 0.24792 0.86107 0.0
H1729 H 0.79504 0.16889 0.89422 0.0
H1730 H 0.79683 0.14662 0.85175 0.0
H1731 H 0.80879 0.22501 0.79072 0.0
H1732 H 0.83953 0.24756 0.77866 0.0
H1733 H 0.83116 0.25722 0.80985 0.0
H1734 H 0.87313 0.26332 0.8347 0.0
H1735 H 0.88158 0.25389 0.80352 0.0
H1736 H 0.87951 0.23532 0.83235 0.0
H1737 H 0.80364 0.13239 0.80533 0.0
H1738 H 0.82141 0.12914 0.76241 0.0
H1739 H 0.86181 0.21758 0.76375 0.0
C1740 C 0.8255 0.22597 0.85986 0.0
C1741 C 0.81358 0.21049 0.88152 0.0
C1742 C 0.80329 0.1816 0.87807 0.0
C1743 C 0.80439 0.16855 0.85388 0.0
C1744 C 0.81642 0.18453 0.83328 0.0
C1745 C 0.82727 0.21269 0.83625 0.0
C1746 C 0.84194 0.22557 0.81241 0.0
C1747 C 0.82961 0.23967 0.797 0.0
C1748 C 0.87074 0.2457 0.82129 0.0
C1749 C 0.83807 0.20027 0.79595 0.0
C1750 C 0.82255 0.17668 0.80782 0.0
C1751 C 0.81595 0.15076 0.79595 0.0
C1752 C 0.82603 0.14906 0.77164 0.0
C1753 C 0.84312 0.17316 0.76017 0.0
C1754 C 0.84895 0.19895 0.77233 0.0
H1755 H 0.31244 0.14338 0.47057 0.0
H1756 H 0.23994 0.14032 0.48205 0.0
H1757 H 0.25323 0.15289 0.53092 0.0
H1758 H 0.3174 0.1146 0.52888 0.0
H1759 H 0.35186 0.13641 0.53644 0.0
H1760 H 0.33767 0.12944 0.50219 0.0
H1761 H 0.35833 0.18156 0.49794 0.0
H1762 H 0.3728 0.18873 0.53216 0.0
H1763 H 0.35253 0.20243 0.52194 0.0
H1764 H 0.27133 0.1582 0.57874 0.0
H1765 H 0.29553 0.1624 0.62187 0.0
H1766 H 0.35887 0.16789 0.57958 0.0
C1767 C 0.29966 0.14593 0.48338 0.0
C1768 C 0.27522 0.141 0.4727 0.0
C1769 C 0.25884 0.14432 0.48992 0.0
C1770 C 0.26619 0.15132 0.51765 0.0
C1771 C 0.29019 0.15546 0.52768 0.0
C1772 C 0.30694 0.15348 0.51102 0.0
C1773 C 0.33141 0.15845 0.52702 0.0
C1774 C 0.33476 0.13322 0.52341 0.0
C1775 C 0.35517 0.18434 0.51931 0.0
C1776 C 0.32546 0.16268 0.55537 0.0
C1777 C 0.30149 0.16066 0.55527 0.0
C1778 C 0.29055 0.16094 0.57904 0.0
C1779 C 0.3046 0.16367 0.60353 0.0
C1780 C 0.32965 0.16698 0.6042 0.0
C1781 C 0.34014 0.16639 0.57973 0.0
H1782 H 0.85931 0.12826 0.49115 0.0
H1783 H 0.94237 0.17908 0.51387 0.0
H1784 H 0.93339 0.19212 0.55752 0.0
H1785 H 0.83767 0.16736 0.5265 0.0
H1786 H 0.8101 0.13827 0.5378 0.0
H1787 H 0.82249 0.13452 0.50682 0.0
H1788 H 0.82797 0.0952 0.52421 0.0
H1789 H 0.81525 0.09854 0.55508 0.0
H1790 H 0.84643 0.10097 0.55606 0.0
H1791 H 0.91554 0.2015 0.59869 0.0
H1792 H 0.89026 0.20083 0.63627 0.0
H1793 H 0.82009 0.13693 0.59056 0.0
C1794 C 0.876 0.14162 0.50506 0.0
C1795 C 0.90176 0.1528 0.49778 0.0
C1796 C 0.92236 0.17074 0.51754 0.0
C1797 C 0.91753 0.17812 0.54292 0.0
C1798 C 0.89205 0.16668 0.54904 0.0
C1799 C 0.87167 0.14824 0.53095 0.0
C1800 C 0.84614 0.13732 0.54324 0.0
C1801 C 0.82804 0.14483 0.52766 0.0
C1802 C 0.83319 0.10616 0.54474 0.0
C1803 C 0.8554 0.15278 0.57105 0.0
C1804 C 0.88193 0.17004 0.57375 0.0
C1805 C 0.89485 0.18755 0.59703 0.0
C1806 C 0.88036 0.18687 0.61835 0.0
C1807 C 0.85345 0.16802 0.61676 0.0
C1808 C 0.84075 0.15112 0.59257 0.0
H1809 H 0.89609 0.76196 0.52377 0.0
H1810 H 0.8593 0.69197 0.46379 0.0
H1811 H 0.84677 0.66064 0.49988 0.0
H1812 H 0.91756 0.73021 0.57637 0.0
H1813 H 0.90974 0.74663 0.60323 0.0
H1814 H 0.92048 0.76319 0.57295 0.0
H1815 H 0.8791 0.76683 0.56683 0.0
H1816 H 0.86816 0.75009 0.59686 0.0
H1817 H 0.84783 0.73618 0.56554 0.0
H1818 H 0.83299 0.63735 0.54212 0.0
H1819 H 0.81875 0.62396 0.58715 0.0
H1820 H 0.86305 0.70933 0.61943 0.0
C1821 C 0.88641 0.74002 0.51837 0.0
C1822 C 0.87921 0.7292 0.49117 0.0
C1823 C 0.86542 0.70046 0.4846 0.0
C1824 C 0.85824 0.6826 0.50495 0.0
C1825 C 0.86489 0.69387 0.53171 0.0
C1826 C 0.87878 0.72196 0.53847 0.0
C1827 C 0.88057 0.7289 0.56852 0.0
C1828 C 0.90877 0.74306 0.581 0.0
C1829 C 0.86817 0.74653 0.57478 0.0
C1830 C 0.86483 0.70043 0.57747 0.0
C1831 C 0.85632 0.68046 0.55605 0.0
C1832 C 0.83993 0.65277 0.55913 0.0
C1833 C 0.83187 0.64535 0.58471 0.0
C1834 C 0.84001 0.66557 0.60673 0.0
C1835 C 0.85694 0.69337 0.60305 0.0
loop_
_geom_bond_atom_site_label_1
_geom_bond_atom_site_label_2
_geom_bond_distance
_geom_bond_site_symmetry_2
_ccdc_geom_bond_type
H0 C3 0.929 . S
H1 C6 0.929 . S
H2 C8 0.930 . S
C3 H0 0.929 . S
C3 C4 1.398 . S
C3 C5 1.396 . S
C4 C3 1.398 . S
C4 C8 1.407 . S
C5 C3 1.396 . S
C5 C6 1.394 . S
C6 H1 0.929 . S
C6 C5 1.394 . S
C6 C7 1.382 . S
C7 C6 1.382 . S
C7 C8 1.392 . S
C7 N9 1.420 . S
C8 H2 0.930 . S
C8 C4 1.407 . S
C8 C7 1.392 . S
N9 C7 1.420 . S
N9 C10 1.244 . S
C10 N9 1.244 . S
H11 C14 0.929 . S
H12 C17 0.929 . S
H13 C19 0.930 . S
C14 H11 0.929 . S
C14 C15 1.398 . S
C14 C16 1.396 . S
C15 C14 1.398 . S
C15 C19 1.407 . S
C16 C14 1.396 . S
C16 C17 1.394 . S
C17 H12 0.929 . S
C17 C16 1.394 . S
C17 C18 1.382 . S
C18 C17 1.382 . S
C18 C19 1.392 . S
C18 N20 1.420 . S
C19 H13 0.930 . S
C19 C15 1.407 . S
C19 C18 1.392 . S
N20 C18 1.420 . S
N20 C21 1.244 . S
C21 N20 1.244 . S
H22 C25 0.929 . S
H23 C28 0.929 . S
H24 C30 0.930 . S
C25 H22 0.929 . S
C25 C26 1.398 . S
C25 C27 1.396 . S
C26 C25 1.398 . S
C26 C30 1.407 . S
C27 C25 1.396 . S
C27 C28 1.394 . S
C28 H23 0.929 . S
C28 C27 1.394 . S
C28 C29 1.382 . S
C29 C28 1.382 . S
C29 C30 1.392 . S
C29 N31 1.420 . S
C30 H24 0.930 . S
C30 C26 1.407 . S
C30 C29 1.392 . S
N31 C29 1.420 . S
N31 C32 1.244 . S
C32 N31 1.244 . S
H33 C36 0.929 . S
H34 C39 0.929 . S
H35 C41 0.930 . S
C36 H33 0.929 . S
C36 C37 1.398 . S
C36 C38 1.396 . S
C37 C36 1.398 . S
C37 C41 1.407 . S
C38 C36 1.396 . S
C38 C39 1.394 . S
C39 H34 0.929 . S
C39 C38 1.394 . S
C39 C40 1.382 . S
C40 C39 1.382 . S
C40 C41 1.392 . S
C40 N42 1.420 . S
C41 H35 0.930 . S
C41 C37 1.407 . S
C41 C40 1.392 . S
N42 C40 1.420 . S
N42 C43 1.244 . S
C43 N42 1.244 . S
H44 C47 0.929 . S
H45 C50 0.929 . S
H46 C52 0.930 . S
C47 H44 0.929 . S
C47 C48 1.398 . S
C47 C49 1.396 . S
C48 C47 1.398 . S
C48 C52 1.407 . S
C49 C47 1.396 . S
C49 C50 1.394 . S
C50 H45 0.929 . S
C50 C49 1.394 . S
C50 C51 1.382 . S
C51 C50 1.382 . S
C51 C52 1.392 . S
C51 N53 1.420 . S
C52 H46 0.930 . S
C52 C48 1.407 . S
C52 C51 1.392 . S
N53 C51 1.420 . S
N53 C54 1.244 . S
C54 N53 1.244 . S
H55 C58 0.929 . S
H56 C61 0.929 . S
H57 C63 0.930 . S
C58 H55 0.929 . S
C58 C59 1.398 . S
C58 C60 1.396 . S
C59 C58 1.398 . S
C59 C63 1.407 . S
C60 C58 1.396 . S
C60 C61 1.394 . S
C61 H56 0.929 . S
C61 C60 1.394 . S
C61 C62 1.382 . S
C62 C61 1.382 . S
C62 C63 1.392 . S
C62 N64 1.420 . S
C63 H57 0.930 . S
C63 C59 1.407 . S
C63 C62 1.392 . S
N64 C62 1.420 . S
N64 C65 1.244 . S
C65 N64 1.244 . S
H66 C69 0.929 . S
H67 C72 0.929 . S
H68 C74 0.930 . S
C69 H66 0.929 . S
C69 C70 1.398 . S
C69 C71 1.396 . S
C70 C69 1.398 . S
C70 C74 1.407 . S
C71 C69 1.396 . S
C71 C72 1.394 . S
C72 H67 0.929 . S
C72 C71 1.394 . S
C72 C73 1.382 . S
C73 C72 1.382 . S
C73 C74 1.392 . S
C73 N75 1.420 . S
C74 H68 0.930 . S
C74 C70 1.407 . S
C74 C73 1.392 . S
N75 C73 1.420 . S
N75 C76 1.244 . S
C76 N75 1.244 . S
H77 C80 0.929 . S
H78 C83 0.929 . S
H79 C85 0.930 . S
C80 H77 0.929 . S
C80 C81 1.398 . S
C80 C82 1.396 . S
C81 C80 1.398 . S
C81 C85 1.407 . S
C82 C80 1.396 . S
C82 C83 1.394 . S
C83 H78 0.929 . S
C83 C82 1.394 . S
C83 C84 1.382 . S
C84 C83 1.382 . S
C84 C85 1.392 . S
C84 N86 1.420 . S
C85 H79 0.930 . S
C85 C81 1.407 . S
C85 C84 1.392 . S
N86 C84 1.420 . S
N86 C87 1.244 . S
C87 N86 1.244 . S
H88 C91 0.929 . S
H89 C94 0.929 . S
H90 C96 0.930 . S
C91 H88 0.929 . S
C91 C92 1.398 . S
C91 C93 1.396 . S
C92 C91 1.398 . S
C92 C96 1.407 . S
C93 C91 1.396 . S
C93 C94 1.394 . S
C94 H89 0.929 . S
C94 C93 1.394 . S
C94 C95 1.382 . S
C95 C94 1.382 . S
C95 C96 1.392 . S
C95 N97 1.420 . S
C96 H90 0.930 . S
C96 C92 1.407 . S
C96 C95 1.392 . S
N97 C95 1.420 . S
N97 C98 1.244 . S
C98 N97 1.244 . S
H99 C102 0.929 . S
H100 C105 0.929 . S
H101 C107 0.930 . S
C102 H99 0.929 . S
C102 C103 1.398 . S
C102 C104 1.396 . S
C103 C102 1.398 . S
C103 C107 1.407 . S
C104 C102 1.396 . S
C104 C105 1.394 . S
C105 H100 0.929 . S
C105 C104 1.394 . S
C105 C106 1.382 . S
C106 C105 1.382 . S
C106 C107 1.392 . S
C106 N108 1.420 . S
C107 H101 0.930 . S
C107 C103 1.407 . S
C107 C106 1.392 . S
N108 C106 1.420 . S
N108 C109 1.244 . S
C109 N108 1.244 . S
H110 C113 0.929 . S
H111 C116 0.929 . S
H112 C118 0.930 . S
C113 H110 0.929 . S
C113 C114 1.398 . S
C113 C115 1.396 . S
C114 C113 1.398 . S
C114 C118 1.407 . S
C115 C113 1.396 . S
C115 C116 1.394 . S
C116 H111 0.929 . S
C116 C115 1.394 . S
C116 C117 1.382 . S
C117 C116 1.382 . S
C117 C118 1.392 . S
C117 N119 1.420 . S
C118 H112 0.930 . S
C118 C114 1.407 . S
C118 C117 1.392 . S
N119 C117 1.420 . S
N119 C120 1.244 . S
C120 N119 1.244 . S
H121 C124 0.929 . S
H122 C127 0.929 . S
H123 C129 0.930 . S
C124 H121 0.929 . S
C124 C125 1.398 . S
C124 C126 1.396 . S
C125 C124 1.398 . S
C125 C129 1.407 . S
C126 C124 1.396 . S
C126 C127 1.394 . S
C127 H122 0.929 . S
C127 C126 1.394 . S
C127 C128 1.382 . S
C128 C127 1.382 . S
C128 C129 1.392 . S
C128 N130 1.420 . S
C129 H123 0.930 . S
C129 C125 1.407 . S
C129 C128 1.392 . S
N130 C128 1.420 . S
N130 C131 1.244 . S
C131 N130 1.244 . S
H132 C135 0.929 . S
H133 C138 0.929 . S
H134 C140 0.930 . S
C135 H132 0.929 . S
C135 C136 1.398 . S
C135 C137 1.396 . S
C136 C135 1.398 . S
C136 C140 1.407 . S
C137 C135 1.396 . S
C137 C138 1.394 . S
C138 H133 0.929 . S
C138 C137 1.394 . S
C138 C139 1.382 . S
C139 C138 1.382 . S
C139 C140 1.392 . S
C139 N141 1.420 . S
C140 H134 0.930 . S
C140 C136 1.407 . S
C140 C139 1.392 . S
N141 C139 1.420 . S
N141 C142 1.244 . S
C142 N141 1.244 . S
H143 C146 0.929 . S
H144 C149 0.929 . S
H145 C151 0.930 . S
C146 H143 0.929 . S
C146 C147 1.398 . S
C146 C148 1.396 . S
C147 C146 1.398 . S
C147 C151 1.407 . S
C148 C146 1.396 . S
C148 C149 1.394 . S
C149 H144 0.929 . S
C149 C148 1.394 . S
C149 C150 1.382 . S
C150 C149 1.382 . S
C150 C151 1.392 . S
C150 N152 1.420 . S
C151 H145 0.930 . S
C151 C147 1.407 . S
C151 C150 1.392 . S
N152 C150 1.420 . S
N152 C153 1.244 . S
C153 N152 1.244 . S
H154 C157 0.929 . S
H155 C160 0.929 . S
H156 C162 0.930 . S
C157 H154 0.929 . S
C157 C158 1.398 . S
C157 C159 1.396 . S
C158 C157 1.398 . S
C158 C162 1.407 . S
C159 C157 1.396 . S
C159 C160 1.394 . S
C160 H155 0.929 . S
C160 C159 1.394 . S
C160 C161 1.382 . S
C161 C160 1.382 . S
C161 C162 1.392 . S
C161 N163 1.420 . S
C162 H156 0.930 . S
C162 C158 1.407 . S
C162 C161 1.392 . S
N163 C161 1.420 . S
N163 C164 1.244 . S
C164 N163 1.244 . S
H165 C168 0.929 . S
H166 C171 0.929 . S
H167 C173 0.930 . S
C168 H165 0.929 . S
C168 C169 1.398 . S
C168 C170 1.396 . S
C169 C168 1.398 . S
C169 C173 1.407 . S
C170 C168 1.396 . S
C170 C171 1.394 . S
C171 H166 0.929 . S
C171 C170 1.394 . S
C171 C172 1.382 . S
C172 C171 1.382 . S
C172 C173 1.392 . S
C172 N174 1.420 . S
C173 H167 0.930 . S
C173 C169 1.407 . S
C173 C172 1.392 . S
N174 C172 1.420 . S
N174 C175 1.244 . S
C175 N174 1.244 . S
H176 C179 0.929 . S
H177 C182 0.929 . S
H178 C184 0.930 . S
C179 H176 0.929 . S
C179 C180 1.398 . S
C179 C181 1.396 . S
C180 C179 1.398 . S
C180 C184 1.407 . S
C181 C179 1.396 . S
C181 C182 1.394 . S
C182 H177 0.929 . S
C182 C181 1.394 . S
C182 C183 1.382 . S
C183 C182 1.382 . S
C183 C184 1.392 . S
C183 N185 1.420 . S
C184 H178 0.930 . S
C184 C180 1.407 . S
C184 C183 1.392 . S
N185 C183 1.420 . S
N185 C186 1.244 . S
C186 N185 1.244 . S
H187 C190 0.929 . S
H188 C193 0.929 . S
H189 C195 0.930 . S
C190 H187 0.929 . S
C190 C191 1.398 . S
C190 C192 1.396 . S
C191 C190 1.398 . S
C191 C195 1.407 . S
C192 C190 1.396 . S
C192 C193 1.394 . S
C193 H188 0.929 . S
C193 C192 1.394 . S
C193 C194 1.382 . S
C194 C193 1.382 . S
C194 C195 1.392 . S
C194 N196 1.420 . S
C195 H189 0.930 . S
C195 C191 1.407 . S
C195 C194 1.392 . S
N196 C194 1.420 . S
N196 C197 1.244 . S
C197 N196 1.244 . S
Tb198 O201 2.453 . S
Tb198 O202 2.596 1_545 S
Tb198 O203 2.374 1_545 S
Tb198 O211 2.343 1_554 S
Tb198 O213 2.353 . S
Tb198 O215 2.427 . S
Tb198 O216 2.530 . S
C199 O203 1.251 . S
C199 O205 1.263 1_554 S
Tb200 O202 2.343 1_556 S
Tb200 O205 2.353 . S
Tb200 O208 2.427 1_556 S
Tb200 O209 2.513 1_556 S
Tb200 O210 2.453 . S
Tb200 O211 2.596 1_565 S
Tb200 O212 2.374 1_565 S
O201 Tb198 2.453 . S
O201 C217 1.245 1_545 S
O202 Tb198 2.596 1_565 S
O202 Tb200 2.343 1_554 S
O202 C217 1.259 . S
O203 Tb198 2.374 1_565 S
O203 C199 1.251 . S
C204 O208 1.275 . S
C204 O209 1.246 . S
O205 C199 1.263 1_556 S
O205 Tb200 2.353 . S
C206 O210 1.245 1_545 S
C206 O211 1.259 . S
C207 O212 1.249 1_554 S
C207 O213 1.263 . S
O208 Tb200 2.427 1_554 S
O208 C204 1.275 . S
O209 Tb200 2.513 1_554 S
O209 C204 1.246 . S
O210 Tb200 2.453 . S
O210 C206 1.245 1_565 S
O211 Tb198 2.343 1_556 S
O211 Tb200 2.596 1_545 S
O211 C206 1.259 . S
O212 Tb200 2.374 1_545 S
O212 C207 1.249 1_556 S
O213 Tb198 2.353 . S
O213 C207 1.263 . S
C214 O215 1.275 1_556 S
C214 O216 1.240 1_556 S
O215 Tb198 2.427 . S
O215 C214 1.275 1_554 S
O216 Tb198 2.530 . S
O216 C214 1.240 1_554 S
C217 O201 1.245 1_565 S
C217 O202 1.259 . S
Tb218 O221 2.453 . S
Tb218 O222 2.596 1_655 S
Tb218 O223 2.374 1_655 S
Tb218 O231 2.343 1_554 S
Tb218 O233 2.353 . S
Tb218 O235 2.427 1_554 S
Tb218 O236 2.513 1_554 S
C219 O223 1.251 . S
C219 O225 1.263 . S
Tb220 O222 2.343 1_556 S
Tb220 O225 2.353 1_556 S
Tb220 O228 2.427 1_556 S
Tb220 O229 2.513 1_556 S
Tb220 O230 2.453 . S
Tb220 O231 2.596 1_455 S
Tb220 O232 2.374 1_455 S
O221 Tb218 2.453 . S
O221 C237 1.245 1_655 S
O222 Tb218 2.596 1_455 S
O222 Tb220 2.343 1_554 S
O222 C237 1.259 . S
O223 Tb218 2.374 1_455 S
O223 C219 1.251 . S
C224 O228 1.275 . S
C224 O229 1.246 . S
O225 C219 1.263 . S
O225 Tb220 2.353 1_554 S
C226 O230 1.245 1_655 S
C226 O231 1.259 . S
C227 O232 1.250 1_554 S
C227 O233 1.263 . S
O228 Tb220 2.427 1_554 S
O228 C224 1.275 . S
O229 Tb220 2.513 1_554 S
O229 C224 1.246 . S
O230 Tb220 2.453 . S
O230 C226 1.245 1_455 S
O231 Tb218 2.343 1_556 S
O231 Tb220 2.596 1_655 S
O231 C226 1.259 . S
O232 Tb220 2.374 1_655 S
O232 C227 1.250 1_556 S
O233 Tb218 2.353 . S
O233 C227 1.263 . S
C234 O235 1.275 . S
C234 O236 1.246 . S
O235 Tb218 2.427 1_556 S
O235 C234 1.275 . S
O236 Tb218 2.513 1_556 S
O236 C234 1.246 . S
C237 O221 1.245 1_455 S
C237 O222 1.259 . S
Tb238 O241 2.453 . S
Tb238 O242 2.596 . S
Tb238 O243 2.374 1_556 S
Tb238 O251 2.343 1_556 S
Tb238 O253 2.353 1_556 S
Tb238 O255 2.427 1_556 S
Tb238 O256 2.513 1_556 S
C239 O243 1.251 . S
C239 O245 1.263 . S
Tb240 O242 2.343 1_554 S
Tb240 O245 2.353 . S
Tb240 O248 2.427 . S
Tb240 O249 2.494 1_554 S
Tb240 O250 2.453 . S
Tb240 O251 2.596 . S
Tb240 O252 2.374 . S
O241 Tb238 2.453 . S
O241 C257 1.245 . S
O242 Tb238 2.596 . S
O242 Tb240 2.343 1_556 S
O242 C257 1.259 . S
O243 Tb238 2.374 1_554 S
O243 C239 1.251 . S
C244 O248 1.275 1_556 S
C244 O249 1.251 . S
O245 C239 1.263 . S
O245 Tb240 2.353 . S
C246 O250 1.245 . S
C246 O251 1.259 . S
C247 O252 1.250 . S
C247 O253 1.263 . S
O248 Tb240 2.427 . S
O248 C244 1.275 1_554 S
O249 Tb240 2.494 1_556 S
O249 C244 1.251 . S
O250 Tb240 2.453 . S
O250 C246 1.245 . S
O251 Tb238 2.343 1_554 S
O251 Tb240 2.596 . S
O251 C246 1.259 . S
O252 Tb240 2.374 . S
O252 C247 1.250 . S
O253 Tb238 2.353 1_554 S
O253 C247 1.263 . S
C254 O255 1.275 . S
C254 O256 1.246 . S
O255 Tb238 2.427 1_554 S
O255 C254 1.275 . S
O256 Tb238 2.513 1_554 S
O256 C254 1.246 . S
C257 O241 1.245 . S
C257 O242 1.259 . S
Tb258 O261 2.453 . S
Tb258 O262 2.596 . S
Tb258 O263 2.374 . S
Tb258 O271 2.343 . S
Tb258 O273 2.353 . S
Tb258 O275 2.427 . S
Tb258 O276 2.513 . S
C259 O263 1.251 . S
C259 O265 1.263 . S
Tb260 O262 2.343 . S
Tb260 O265 2.353 . S
Tb260 O268 2.427 . S
Tb260 O269 2.513 . S
Tb260 O270 2.453 . S
Tb260 O271 2.596 . S
Tb260 O272 2.374 . S
O261 Tb258 2.453 . S
O261 C277 1.245 . S
O262 Tb258 2.596 . S
O262 Tb260 2.343 . S
O262 C277 1.259 . S
O263 Tb258 2.374 . S
O263 C259 1.251 . S
C264 O268 1.275 . S
C264 O269 1.246 . S
O265 C259 1.263 . S
O265 Tb260 2.353 . S
C266 O270 1.245 . S
C266 O271 1.259 . S
C267 O272 1.250 . S
C267 O273 1.263 . S
O268 Tb260 2.427 . S
O268 C264 1.275 . S
O269 Tb260 2.513 . S
O269 C264 1.246 . S
O270 Tb260 2.453 . S
O270 C266 1.245 . S
O271 Tb258 2.343 . S
O271 Tb260 2.596 . S
O271 C266 1.259 . S
O272 Tb260 2.374 . S
O272 C267 1.250 . S
O273 Tb258 2.353 . S
O273 C267 1.263 . S
C274 O275 1.275 . S
C274 O276 1.246 . S
O275 Tb258 2.427 . S
O275 C274 1.275 . S
O276 Tb258 2.513 . S
O276 C274 1.246 . S
C277 O261 1.245 . S
C277 O262 1.259 . S
Tb278 O281 2.453 . S
Tb278 O282 2.596 . S
Tb278 O283 2.374 . S
Tb278 O291 2.343 . S
Tb278 O293 2.353 . S
Tb278 O295 2.427 . S
Tb278 O296 2.513 . S
C279 O283 1.251 . S
C279 O285 1.263 . S
Tb280 O282 2.343 . S
Tb280 O285 2.353 . S
Tb280 O288 2.427 . S
Tb280 O289 2.513 . S
Tb280 O290 2.453 . S
Tb280 O291 2.596 . S
Tb280 O292 2.374 . S
O281 Tb278 2.453 . S
O281 C297 1.245 . S
O282 Tb278 2.596 . S
O282 Tb280 2.343 . S
O282 C297 1.259 . S
O283 Tb278 2.374 . S
O283 C279 1.251 . S
C284 O288 1.275 . S
C284 O289 1.246 . S
O285 C279 1.263 . S
O285 Tb280 2.353 . S
C286 O290 1.245 . S
C286 O291 1.259 . S
C287 O292 1.250 . S
C287 O293 1.263 . S
O288 Tb280 2.427 . S
O288 C284 1.275 . S
O289 Tb280 2.513 . S
O289 C284 1.246 . S
O290 Tb280 2.453 . S
O290 C286 1.245 . S
O291 Tb278 2.343 . S
O291 Tb280 2.596 . S
O291 C286 1.259 . S
O292 Tb280 2.374 . S
O292 C287 1.250 . S
O293 Tb278 2.353 . S
O293 C287 1.263 . S
C294 O295 1.275 . S
C294 O296 1.246 . S
O295 Tb278 2.427 . S
O295 C294 1.275 . S
O296 Tb278 2.513 . S
O296 C294 1.246 . S
C297 O281 1.245 . S
C297 O282 1.259 . S
Tb298 O301 2.453 . S
Tb298 O302 2.596 . S
Tb298 O303 2.374 . S
Tb298 O311 2.343 . S
Tb298 O313 2.353 . S
Tb298 O315 2.427 . S
Tb298 O316 2.513 . S
C299 O303 1.251 . S
C299 O305 1.263 . S
Tb300 O302 2.343 . S
Tb300 O305 2.353 . S
Tb300 O308 2.427 . S
Tb300 O309 2.513 . S
Tb300 O310 2.453 . S
Tb300 O311 2.596 . S
Tb300 O312 2.374 . S
O301 Tb298 2.453 . S
O301 C317 1.245 . S
O302 Tb298 2.596 . S
O302 Tb300 2.343 . S
O302 C317 1.259 . S
O303 Tb298 2.374 . S
O303 C299 1.251 . S
C304 O308 1.275 . S
C304 O309 1.246 . S
O305 C299 1.263 . S
O305 Tb300 2.353 . S
C306 O310 1.245 . S
C306 O311 1.259 . S
C307 O312 1.250 . S
C307 O313 1.263 . S
O308 Tb300 2.427 . S
O308 C304 1.275 . S
O309 Tb300 2.513 . S
O309 C304 1.246 . S
O310 Tb300 2.453 . S
O310 C306 1.245 . S
O311 Tb298 2.343 . S
O311 Tb300 2.596 . S
O311 C306 1.259 . S
O312 Tb300 2.374 . S
O312 C307 1.250 . S
O313 Tb298 2.353 . S
O313 C307 1.263 . S
C314 O315 1.275 . S
C314 O316 1.246 . S
O315 Tb298 2.427 . S
O315 C314 1.275 . S
O316 Tb298 2.513 . S
O316 C314 1.246 . S
C317 O301 1.245 . S
C317 O302 1.259 . S
Tb318 O321 2.453 . S
Tb318 O322 2.596 . S
Tb318 O323 2.374 . S
Tb318 O331 2.343 . S
Tb318 O333 2.353 . S
Tb318 O335 2.427 . S
Tb318 O336 2.513 . S
C319 O323 1.251 . S
C319 O325 1.263 . S
Tb320 O322 2.343 . S
Tb320 O325 2.353 . S
Tb320 O328 2.427 . S
Tb320 O329 2.513 . S
Tb320 O330 2.453 . S
Tb320 O331 2.596 . S
Tb320 O332 2.374 . S
O321 Tb318 2.453 . S
O321 C337 1.245 . S
O322 Tb318 2.596 . S
O322 Tb320 2.343 . S
O322 C337 1.259 . S
O323 Tb318 2.374 . S
O323 C319 1.251 . S
C324 O328 1.275 . S
C324 O329 1.246 . S
O325 C319 1.263 . S
O325 Tb320 2.353 . S
C326 O330 1.245 . S
C326 O331 1.259 . S
C327 O332 1.250 . S
C327 O333 1.263 . S
O328 Tb320 2.427 . S
O328 C324 1.275 . S
O329 Tb320 2.513 . S
O329 C324 1.246 . S
O330 Tb320 2.453 . S
O330 C326 1.245 . S
O331 Tb318 2.343 . S
O331 Tb320 2.596 . S
O331 C326 1.259 . S
O332 Tb320 2.374 . S
O332 C327 1.250 . S
O333 Tb318 2.353 . S
O333 C327 1.263 . S
C334 O335 1.275 . S
C334 O336 1.246 . S
O335 Tb318 2.427 . S
O335 C334 1.275 . S
O336 Tb318 2.513 . S
O336 C334 1.246 . S
C337 O321 1.245 . S
C337 O322 1.259 . S
Tb338 O341 2.453 . S
Tb338 O342 2.596 . S
Tb338 O343 2.374 . S
Tb338 O351 2.343 . S
Tb338 O353 2.353 . S
Tb338 O355 2.427 . S
Tb338 O356 2.513 . S
C339 O343 1.251 . S
C339 O345 1.263 . S
Tb340 O342 2.343 . S
Tb340 O345 2.353 . S
Tb340 O348 2.427 . S
Tb340 O349 2.513 . S
Tb340 O350 2.453 . S
Tb340 O351 2.596 . S
Tb340 O352 2.374 . S
O341 Tb338 2.453 . S
O341 C357 1.245 . S
O342 Tb338 2.596 . S
O342 Tb340 2.343 . S
O342 C357 1.259 . S
O343 Tb338 2.374 . S
O343 C339 1.251 . S
C344 O348 1.275 . S
C344 O349 1.246 . S
O345 C339 1.263 . S
O345 Tb340 2.353 . S
C346 O350 1.245 . S
C346 O351 1.259 . S
C347 O352 1.250 . S
C347 O353 1.263 . S
O348 Tb340 2.427 . S
O348 C344 1.275 . S
O349 Tb340 2.513 . S
O349 C344 1.246 . S
O350 Tb340 2.453 . S
O350 C346 1.245 . S
O351 Tb338 2.343 . S
O351 Tb340 2.596 . S
O351 C346 1.259 . S
O352 Tb340 2.374 . S
O352 C347 1.250 . S
O353 Tb338 2.353 . S
O353 C347 1.263 . S
C354 O355 1.275 . S
C354 O356 1.246 . S
O355 Tb338 2.427 . S
O355 C354 1.275 . S
O356 Tb338 2.513 . S
O356 C354 1.246 . S
C357 O341 1.245 . S
C357 O342 1.259 . S
Tb358 O361 2.453 . S
Tb358 O362 2.596 . S
Tb358 O363 2.374 . S
Tb358 O371 2.343 . S
Tb358 O373 2.353 . S
Tb358 O375 2.427 . S
Tb358 O376 2.513 . S
C359 O363 1.251 . S
C359 O365 1.263 . S
Tb360 O362 2.343 . S
Tb360 O365 2.353 . S
Tb360 O368 2.427 . S
Tb360 O369 2.513 . S
Tb360 O370 2.453 . S
Tb360 O371 2.596 . S
Tb360 O372 2.374 . S
O361 Tb358 2.453 . S
O361 C377 1.245 . S
O362 Tb358 2.596 . S
O362 Tb360 2.343 . S
O362 C377 1.259 . S
O363 Tb358 2.374 . S
O363 C359 1.251 . S
C364 O368 1.275 . S
C364 O369 1.246 . S
O365 C359 1.263 . S
O365 Tb360 2.353 . S
C366 O370 1.245 . S
C366 O371 1.259 . S
C367 O372 1.250 . S
C367 O373 1.263 . S
O368 Tb360 2.427 . S
O368 C364 1.275 . S
O369 Tb360 2.513 . S
O369 C364 1.246 . S
O370 Tb360 2.453 . S
O370 C366 1.245 . S
O371 Tb358 2.343 . S
O371 Tb360 2.596 . S
O371 C366 1.259 . S
O372 Tb360 2.374 . S
O372 C367 1.250 . S
O373 Tb358 2.353 . S
O373 C367 1.263 . S
C374 O375 1.275 . S
C374 O376 1.246 . S
O375 Tb358 2.427 . S
O375 C374 1.275 . S
O376 Tb358 2.513 . S
O376 C374 1.246 . S
C377 O361 1.245 . S
C377 O362 1.259 . S
H378 C390 0.930 . S
H379 C392 0.930 . S
H380 C393 0.930 . S
H381 C397 0.959 . S
H382 C397 0.959 . S
H383 C397 0.961 . S
H384 C398 0.960 . S
H385 C398 0.961 . S
H386 C398 0.959 . S
H387 C401 0.929 1_556 S
H388 C402 0.931 1_556 S
H389 C404 0.930 . S
C390 H378 0.930 . S
C390 C391 1.399 . S
C390 C395 1.399 . S
C391 C390 1.399 . S
C391 C392 1.376 . S
C392 H379 0.930 . S
C392 C391 1.376 . S
C392 C393 1.388 . S
C393 H380 0.930 . S
C393 C392 1.388 . S
C393 C394 1.390 . S
C394 C393 1.390 . S
C394 C395 1.394 . S
C394 C400 1.465 . S
C395 C390 1.399 . S
C395 C394 1.394 . S
C395 C396 1.516 . S
C396 C395 1.516 . S
C396 C397 1.502 . S
C396 C398 1.561 . S
C396 C399 1.526 . S
C397 H381 0.959 . S
C397 H382 0.959 . S
C397 H383 0.961 . S
C397 C396 1.502 . S
C398 H384 0.960 . S
C398 H385 0.961 . S
C398 H386 0.959 . S
C398 C396 1.561 . S
C399 C396 1.526 . S
C399 C400 1.396 . S
C399 C404 1.390 . S
C400 C394 1.465 . S
C400 C399 1.396 . S
C400 C401 1.399 . S
C401 H387 0.929 1_554 S
C401 C400 1.399 . S
C401 C402 1.385 . S
C402 H388 0.931 1_554 S
C402 C401 1.385 . S
C402 C403 1.389 . S
C403 C402 1.389 . S
C403 C404 1.387 . S
C404 H389 0.930 . S
C404 C399 1.390 . S
C404 C403 1.387 . S
H405 C417 0.930 . S
H406 C419 0.930 . S
H407 C420 0.930 . S
H408 C424 0.959 . S
H409 C424 0.959 . S
H410 C424 0.961 . S
H411 C425 0.960 . S
H412 C425 0.961 . S
H413 C425 0.959 . S
H414 C428 0.929 . S
H415 C429 0.931 . S
H416 C431 0.930 . S
C417 H405 0.930 . S
C417 C418 1.399 . S
C417 C422 1.399 . S
C418 C417 1.399 . S
C418 C419 1.376 . S
C419 H406 0.930 . S
C419 C418 1.376 . S
C419 C420 1.388 . S
C420 H407 0.930 . S
C420 C419 1.388 . S
C420 C421 1.390 . S
C421 C420 1.390 . S
C421 C422 1.394 . S
C421 C427 1.465 . S
C422 C417 1.399 . S
C422 C421 1.394 . S
C422 C423 1.516 . S
C423 C422 1.516 . S
C423 C424 1.502 . S
C423 C425 1.561 . S
C423 C426 1.526 . S
C424 H408 0.959 . S
C424 H409 0.959 . S
C424 H410 0.961 . S
C424 C423 1.502 . S
C425 H411 0.960 . S
C425 H412 0.961 . S
C425 H413 0.959 . S
C425 C423 1.561 . S
C426 C423 1.526 . S
C426 C427 1.396 . S
C426 C431 1.390 . S
C427 C421 1.465 . S
C427 C426 1.396 . S
C427 C428 1.399 . S
C428 H414 0.929 . S
C428 C427 1.399 . S
C428 C429 1.385 . S
C429 H415 0.931 . S
C429 C428 1.385 . S
C429 C430 1.389 . S
C430 C429 1.389 . S
C430 C431 1.387 . S
C431 H416 0.930 . S
C431 C426 1.390 . S
C431 C430 1.387 . S
H432 C444 0.930 . S
H433 C446 0.930 . S
H434 C447 0.930 . S
H435 C451 0.959 1_554 S
H436 C451 0.959 . S
H437 C451 0.961 . S
H438 C452 0.960 . S
H439 C452 0.961 . S
H440 C452 0.961 . S
H441 C455 0.929 . S
H442 C456 0.931 . S
H443 C458 0.930 1_556 S
C444 H432 0.930 . S
C444 C445 1.399 . S
C444 C449 1.399 . S
C445 C444 1.399 . S
C445 C446 1.376 . S
C446 H433 0.930 . S
C446 C445 1.376 . S
C446 C447 1.388 . S
C447 H434 0.930 . S
C447 C446 1.388 . S
C447 C448 1.390 . S
C448 C447 1.390 . S
C448 C449 1.394 . S
C448 C454 1.465 . S
C449 C444 1.399 . S
C449 C448 1.394 . S
C449 C450 1.516 . S
C450 C449 1.516 . S
C450 C451 1.502 1_554 S
C450 C452 1.561 1_554 S
C450 C453 1.526 . S
C451 H435 0.959 1_556 S
C451 H436 0.959 . S
C451 H437 0.961 . S
C451 C450 1.502 1_556 S
C452 H438 0.960 . S
C452 H439 0.961 . S
C452 H440 0.961 . S
C452 C450 1.561 1_556 S
C453 C450 1.526 . S
C453 C454 1.396 . S
C453 C458 1.390 . S
C454 C448 1.465 . S
C454 C453 1.396 . S
C454 C455 1.399 . S
C455 H441 0.929 . S
C455 C454 1.399 . S
C455 C456 1.385 . S
C456 H442 0.931 . S
C456 C455 1.385 . S
C456 C457 1.389 . S
C457 C456 1.389 . S
C457 C458 1.387 . S
C458 H443 0.930 1_554 S
C458 C453 1.390 . S
C458 C457 1.387 . S
H459 C471 0.930 . S
H460 C473 0.930 . S
H461 C474 0.930 . S
H462 C478 0.959 . S
H463 C478 0.959 . S
H464 C478 0.961 . S
H465 C479 0.960 . S
H466 C479 0.961 . S
H467 C479 0.959 . S
H468 C482 0.929 1_554 S
H469 C483 0.931 . S
H470 C485 0.930 . S
C471 H459 0.930 . S
C471 C472 1.399 . S
C471 C476 1.399 . S
C472 C471 1.399 . S
C472 C473 1.376 . S
C473 H460 0.930 . S
C473 C472 1.376 . S
C473 C474 1.388 . S
C474 H461 0.930 . S
C474 C473 1.388 . S
C474 C475 1.390 . S
C475 C474 1.390 . S
C475 C476 1.394 . S
C475 C481 1.465 . S
C476 C471 1.399 . S
C476 C475 1.394 . S
C476 C477 1.516 . S
C477 C476 1.516 . S
C477 C478 1.502 . S
C477 C479 1.561 . S
C477 C480 1.526 . S
C478 H462 0.959 . S
C478 H463 0.959 . S
C478 H464 0.961 . S
C478 C477 1.502 . S
C479 H465 0.960 . S
C479 H466 0.961 . S
C479 H467 0.959 . S
C479 C477 1.561 . S
C480 C477 1.526 . S
C480 C481 1.396 . S
C480 C485 1.390 . S
C481 C475 1.465 . S
C481 C480 1.396 . S
C481 C482 1.399 . S
C482 H468 0.929 1_556 S
C482 C481 1.399 . S
C482 C483 1.385 1_556 S
C483 H469 0.931 . S
C483 C482 1.385 1_554 S
C483 C484 1.389 1_554 S
C484 C483 1.389 1_556 S
C484 C485 1.387 . S
C485 H470 0.930 . S
C485 C480 1.390 . S
C485 C484 1.387 . S
H486 C498 0.930 . S
H487 C500 0.930 . S
H488 C501 0.930 . S
H489 C505 0.959 . S
H490 C505 0.959 . S
H491 C505 0.961 . S
H492 C506 0.960 . S
H493 C506 0.961 . S
H494 C506 0.959 . S
H495 C509 0.929 . S
H496 C510 0.931 . S
H497 C512 0.930 . S
C498 H486 0.930 . S
C498 C499 1.399 . S
C498 C503 1.399 . S
C499 C498 1.399 . S
C499 C500 1.376 . S
C500 H487 0.930 . S
C500 C499 1.376 . S
C500 C501 1.388 . S
C501 H488 0.930 . S
C501 C500 1.388 . S
C501 C502 1.390 . S
C502 C501 1.390 . S
C502 C503 1.394 . S
C502 C508 1.465 . S
C503 C498 1.399 . S
C503 C502 1.394 . S
C503 C504 1.516 . S
C504 C503 1.516 . S
C504 C505 1.502 . S
C504 C506 1.561 . S
C504 C507 1.526 . S
C505 H489 0.959 . S
C505 H490 0.959 . S
C505 H491 0.961 . S
C505 C504 1.502 . S
C506 H492 0.960 . S
C506 H493 0.961 . S
C506 H494 0.959 . S
C506 C504 1.561 . S
C507 C504 1.526 . S
C507 C508 1.396 . S
C507 C512 1.390 . S
C508 C502 1.465 . S
C508 C507 1.396 . S
C508 C509 1.399 . S
C509 H495 0.929 . S
C509 C508 1.399 . S
C509 C510 1.385 . S
C510 H496 0.931 . S
C510 C509 1.385 . S
C510 C511 1.389 . S
C511 C510 1.389 . S
C511 C512 1.387 . S
C512 H497 0.930 . S
C512 C507 1.390 . S
C512 C511 1.387 . S
H513 C525 0.930 . S
H514 C527 0.930 1_554 S
H515 C528 0.930 . S
H516 C532 0.959 . S
H517 C532 0.959 . S
H518 C532 0.961 . S
H519 C533 0.960 . S
H520 C533 0.961 . S
H521 C533 0.959 . S
H522 C536 0.929 . S
H523 C537 0.931 . S
H524 C539 0.930 . S
C525 H513 0.930 . S
C525 C526 1.399 . S
C525 C530 1.399 . S
C526 C525 1.399 . S
C526 C527 1.376 . S
C527 H514 0.930 1_556 S
C527 C526 1.376 . S
C527 C528 1.388 1_556 S
C528 H515 0.930 . S
C528 C527 1.388 1_554 S
C528 C529 1.390 1_554 S
C529 C528 1.390 1_556 S
C529 C530 1.394 . S
C529 C535 1.471 . S
C530 C525 1.399 . S
C530 C529 1.394 . S
C530 C531 1.516 . S
C531 C530 1.516 . S
C531 C532 1.502 . S
C531 C533 1.561 . S
C531 C534 1.526 . S
C532 H516 0.959 . S
C532 H517 0.959 . S
C532 H518 0.961 . S
C532 C531 1.502 . S
C533 H519 0.960 . S
C533 H520 0.961 . S
C533 H521 0.959 . S
C533 C531 1.561 . S
C534 C531 1.526 . S
C534 C535 1.414 . S
C534 C539 1.390 . S
C535 C529 1.471 . S
C535 C534 1.414 . S
C535 C536 1.380 1_556 S
C536 H522 0.929 . S
C536 C535 1.380 1_554 S
C536 C537 1.385 . S
C537 H523 0.931 . S
C537 C536 1.385 . S
C537 C538 1.389 . S
C538 C537 1.389 . S
C538 C539 1.387 1_554 S
C539 H524 0.930 . S
C539 C534 1.390 . S
C539 C538 1.387 1_556 S
H540 C552 0.930 . S
H541 C554 0.930 1_554 S
H542 C555 0.930 . S
H543 C559 0.959 . S
H544 C559 0.959 . S
H545 C559 0.961 . S
H546 C560 0.960 . S
H547 C560 0.961 . S
H548 C560 0.959 . S
H549 C563 0.929 . S
H550 C564 0.931 . S
H551 C566 0.930 . S
C552 H540 0.930 . S
C552 C553 1.399 . S
C552 C557 1.399 . S
C553 C552 1.399 . S
C553 C554 1.376 . S
C554 H541 0.930 1_556 S
C554 C553 1.376 . S
C554 C555 1.388 1_556 S
C555 H542 0.930 . S
C555 C554 1.388 1_554 S
C555 C556 1.390 1_554 S
C556 C555 1.390 1_556 S
C556 C557 1.394 . S
C556 C562 1.465 . S
C557 C552 1.399 . S
C557 C556 1.394 . S
C557 C558 1.516 . S
C558 C557 1.516 . S
C558 C559 1.502 . S
C558 C560 1.561 . S
C558 C561 1.526 . S
C559 H543 0.959 . S
C559 H544 0.959 . S
C559 H545 0.961 . S
C559 C558 1.502 . S
C560 H546 0.960 . S
C560 H547 0.961 . S
C560 H548 0.959 . S
C560 C558 1.561 . S
C561 C558 1.526 . S
C561 C562 1.396 . S
C561 C566 1.390 . S
C562 C556 1.465 . S
C562 C561 1.396 . S
C562 C563 1.399 1_556 S
C563 H549 0.929 . S
C563 C562 1.399 1_554 S
C563 C564 1.385 . S
C564 H550 0.931 . S
C564 C563 1.385 . S
C564 C565 1.389 1_554 S
C565 C564 1.389 1_556 S
C565 C566 1.387 . S
C566 H551 0.930 . S
C566 C561 1.390 . S
C566 C565 1.387 . S
H567 C579 0.930 . S
H568 C581 0.930 . S
H569 C582 0.961 . S
H570 C586 0.959 . S
H571 C586 0.959 . S
H572 C586 0.961 . S
H573 C587 0.960 . S
H574 C587 0.961 . S
H575 C587 0.959 . S
H576 C590 0.929 1_554 S
H577 C591 0.931 1_554 S
H578 C593 0.930 . S
C579 H567 0.930 . S
C579 C580 1.399 . S
C579 C584 1.399 . S
C580 C579 1.399 . S
C580 C581 1.376 . S
C581 H568 0.930 . S
C581 C580 1.376 . S
C581 C582 1.388 . S
C582 H569 0.961 . S
C582 C581 1.388 . S
C582 C583 1.390 . S
C583 C582 1.390 . S
C583 C584 1.394 . S
C583 C589 1.465 . S
C584 C579 1.399 . S
C584 C583 1.394 . S
C584 C585 1.516 . S
C585 C584 1.516 . S
C585 C586 1.502 . S
C585 C587 1.561 . S
C585 C588 1.526 . S
C586 H570 0.959 . S
C586 H571 0.959 . S
C586 H572 0.961 . S
C586 C585 1.502 . S
C587 H573 0.960 . S
C587 H574 0.961 . S
C587 H575 0.959 . S
C587 C585 1.561 . S
C588 C585 1.526 . S
C588 C589 1.396 . S
C588 C593 1.390 . S
C589 C583 1.465 . S
C589 C588 1.396 . S
C589 C590 1.399 . S
C590 H576 0.929 1_556 S
C590 C589 1.399 . S
C590 C591 1.385 . S
C591 H577 0.931 1_556 S
C591 C590 1.385 . S
C591 C592 1.389 . S
C592 C591 1.389 . S
C592 C593 1.387 . S
C593 H578 0.930 . S
C593 C588 1.390 . S
C593 C592 1.387 . S
H594 C606 0.930 . S
H595 C608 0.930 . S
H596 C609 0.930 . S
H597 C613 0.959 . S
H598 C613 0.959 . S
H599 C613 0.961 . S
H600 C614 0.960 . S
H601 C614 0.961 . S
H602 C614 0.959 . S
H603 C617 0.929 . S
H604 C618 0.931 . S
H605 C620 0.930 . S
C606 H594 0.930 . S
C606 C607 1.399 . S
C606 C611 1.399 . S
C607 C606 1.399 . S
C607 C608 1.376 1_556 S
C608 H595 0.930 . S
C608 C607 1.376 1_554 S
C608 C609 1.388 . S
C609 H596 0.930 . S
C609 C608 1.388 . S
C609 C610 1.390 . S
C610 C609 1.390 . S
C610 C611 1.394 1_554 S
C610 C616 1.465 . S
C611 C606 1.399 . S
C611 C610 1.394 1_556 S
C611 C612 1.516 . S
C612 C611 1.516 . S
C612 C613 1.502 . S
C612 C614 1.561 . S
C612 C615 1.526 . S
C613 H597 0.959 . S
C613 H598 0.959 . S
C613 H599 0.961 . S
C613 C612 1.502 . S
C614 H600 0.960 . S
C614 H601 0.961 . S
C614 H602 0.959 . S
C614 C612 1.561 . S
C615 C612 1.526 . S
C615 C616 1.396 1_556 S
C615 C620 1.390 . S
C616 C610 1.465 . S
C616 C615 1.396 1_554 S
C616 C617 1.399 . S
C617 H603 0.929 . S
C617 C616 1.399 . S
C617 C618 1.385 . S
C618 H604 0.931 . S
C618 C617 1.385 . S
C618 C619 1.389 . S
C619 C618 1.389 . S
C619 C620 1.387 1_554 S
C620 H605 0.930 . S
C620 C615 1.390 . S
C620 C619 1.387 1_556 S
H621 C633 0.930 . S
H622 C635 0.930 . S
H623 C636 0.930 . S
H624 C640 0.959 . S
H625 C640 0.959 . S
H626 C640 0.961 . S
H627 C641 0.962 . S
H628 C641 0.964 . S
H629 C641 0.968 . S
H630 C644 0.929 . S
H631 C645 0.931 . S
H632 C647 0.930 . S
C633 H621 0.930 . S
C633 C634 1.399 . S
C633 C638 1.399 . S
C634 C633 1.399 . S
C634 C635 1.376 . S
C635 H622 0.930 . S
C635 C634 1.376 . S
C635 C636 1.388 . S
C636 H623 0.930 . S
C636 C635 1.388 . S
C636 C637 1.390 . S
C637 C636 1.390 . S
C637 C638 1.394 . S
C637 C643 1.465 . S
C638 C633 1.399 . S
C638 C637 1.394 . S
C638 C639 1.516 . S
C639 C638 1.516 . S
C639 C640 1.502 . S
C639 C641 1.547 1_554 S
C639 C642 1.526 . S
C640 H624 0.959 . S
C640 H625 0.959 . S
C640 H626 0.961 . S
C640 C639 1.502 . S
C641 H627 0.962 . S
C641 H628 0.964 . S
C641 H629 0.968 . S
C641 C639 1.547 1_556 S
C642 C639 1.526 . S
C642 C643 1.396 . S
C642 C647 1.390 . S
C643 C637 1.465 . S
C643 C642 1.396 . S
C643 C644 1.399 . S
C644 H630 0.929 . S
C644 C643 1.399 . S
C644 C645 1.385 . S
C645 H631 0.931 . S
C645 C644 1.385 . S
C645 C646 1.389 . S
C646 C645 1.389 . S
C646 C647 1.387 . S
C647 H632 0.930 . S
C647 C642 1.390 . S
C647 C646 1.387 . S
H648 C660 0.930 . S
H649 C662 0.930 . S
H650 C663 0.930 . S
H651 C667 0.959 . S
H652 C667 0.959 . S
H653 C667 0.961 . S
H654 C668 0.960 . S
H655 C668 0.961 . S
H656 C668 0.959 . S
H657 C671 0.929 . S
H658 C672 0.931 . S
H659 C674 0.930 . S
C660 H648 0.930 . S
C660 C661 1.399 . S
C660 C665 1.399 . S
C661 C660 1.399 . S
C661 C662 1.376 . S
C662 H649 0.930 . S
C662 C661 1.376 . S
C662 C663 1.388 . S
C663 H650 0.930 . S
C663 C662 1.388 . S
C663 C664 1.390 . S
C664 C663 1.390 . S
C664 C665 1.394 . S
C664 C670 1.465 . S
C665 C660 1.399 . S
C665 C664 1.394 . S
C665 C666 1.516 . S
C666 C665 1.516 . S
C666 C667 1.502 . S
C666 C668 1.561 . S
C666 C669 1.526 . S
C667 H651 0.959 . S
C667 H652 0.959 . S
C667 H653 0.961 . S
C667 C666 1.502 . S
C668 H654 0.960 . S
C668 H655 0.961 . S
C668 H656 0.959 . S
C668 C666 1.561 . S
C669 C666 1.526 . S
C669 C670 1.396 . S
C669 C674 1.390 . S
C670 C664 1.465 . S
C670 C669 1.396 . S
C670 C671 1.399 . S
C671 H657 0.929 . S
C671 C670 1.399 . S
C671 C672 1.385 . S
C672 H658 0.931 . S
C672 C671 1.385 . S
C672 C673 1.389 . S
C673 C672 1.389 . S
C673 C674 1.387 . S
C674 H659 0.930 . S
C674 C669 1.390 . S
C674 C673 1.387 . S
H675 C687 0.930 . S
H676 C689 0.930 . S
H677 C690 0.930 . S
H678 C694 0.959 . S
H679 C694 0.959 . S
H680 C694 0.961 . S
H681 C695 0.960 . S
H682 C695 0.961 . S
H683 C695 0.959 1_554 S
H684 C698 0.929 . S
H685 C699 0.931 . S
H686 C701 0.930 1_556 S
C687 H675 0.930 . S
C687 C688 1.399 . S
C687 C692 1.399 . S
C688 C687 1.399 . S
C688 C689 1.376 . S
C689 H676 0.930 . S
C689 C688 1.376 . S
C689 C690 1.388 . S
C690 H677 0.930 . S
C690 C689 1.388 . S
C690 C691 1.390 . S
C691 C690 1.390 . S
C691 C692 1.394 . S
C691 C697 1.465 . S
C692 C687 1.399 . S
C692 C691 1.394 . S
C692 C693 1.516 . S
C693 C692 1.516 . S
C693 C694 1.502 1_554 S
C693 C695 1.561 1_554 S
C693 C696 1.526 . S
C694 H678 0.959 . S
C694 H679 0.959 . S
C694 H680 0.961 . S
C694 C693 1.502 1_556 S
C695 H681 0.960 . S
C695 H682 0.961 . S
C695 H683 0.959 1_556 S
C695 C693 1.561 1_556 S
C696 C693 1.526 . S
C696 C697 1.396 . S
C696 C701 1.390 . S
C697 C691 1.465 . S
C697 C696 1.396 . S
C697 C698 1.399 . S
C698 H684 0.929 . S
C698 C697 1.399 . S
C698 C699 1.385 . S
C699 H685 0.931 . S
C699 C698 1.385 . S
C699 C700 1.389 . S
C700 C699 1.389 . S
C700 C701 1.387 . S
C701 H686 0.930 1_554 S
C701 C696 1.390 . S
C701 C700 1.387 . S
H702 C714 0.930 . S
H703 C716 0.930 . S
H704 C717 0.930 . S
H705 C721 0.959 . S
H706 C721 0.959 . S
H707 C721 0.961 . S
H708 C722 0.960 1_655 S
H709 C722 0.961 . S
H710 C722 0.959 . S
H711 C725 0.929 . S
H712 C726 0.931 . S
H713 C728 0.930 . S
C714 H702 0.930 . S
C714 C715 1.399 . S
C714 C719 1.399 . S
C715 C714 1.399 . S
C715 C716 1.376 . S
C716 H703 0.930 . S
C716 C715 1.376 . S
C716 C717 1.388 . S
C717 H704 0.930 . S
C717 C716 1.388 . S
C717 C718 1.390 . S
C718 C717 1.390 . S
C718 C719 1.394 . S
C718 C724 1.465 1_655 S
C719 C714 1.399 . S
C719 C718 1.394 . S
C719 C720 1.516 . S
C720 C719 1.516 . S
C720 C721 1.502 . S
C720 C722 1.561 1_655 S
C720 C723 1.526 1_655 S
C721 H705 0.959 . S
C721 H706 0.959 . S
C721 H707 0.961 . S
C721 C720 1.502 . S
C722 H708 0.960 1_455 S
C722 H709 0.961 . S
C722 H710 0.959 . S
C722 C720 1.561 1_455 S
C723 C720 1.526 1_455 S
C723 C724 1.396 . S
C723 C728 1.390 . S
C724 C718 1.465 1_455 S
C724 C723 1.396 . S
C724 C725 1.399 . S
C725 H711 0.929 . S
C725 C724 1.399 . S
C725 C726 1.385 . S
C726 H712 0.931 . S
C726 C725 1.385 . S
C726 C727 1.389 . S
C727 C726 1.389 . S
C727 C728 1.387 . S
C728 H713 0.930 . S
C728 C723 1.390 . S
C728 C727 1.387 . S
H729 C741 0.930 . S
H730 C743 0.930 . S
H731 C744 0.930 . S
H732 C748 0.959 . S
H733 C748 0.959 . S
H734 C748 0.961 . S
H735 C749 0.960 . S
H736 C749 0.961 . S
H737 C749 0.959 . S
H738 C752 0.929 . S
H739 C753 0.931 . S
H740 C755 0.930 . S
C741 H729 0.930 . S
C741 C742 1.399 . S
C741 C746 1.399 . S
C742 C741 1.399 . S
C742 C743 1.376 . S
C743 H730 0.930 . S
C743 C742 1.376 . S
C743 C744 1.388 . S
C744 H731 0.930 . S
C744 C743 1.388 . S
C744 C745 1.390 . S
C745 C744 1.390 . S
C745 C746 1.394 . S
C745 C751 1.465 . S
C746 C741 1.399 . S
C746 C745 1.394 . S
C746 C747 1.516 . S
C747 C746 1.516 . S
C747 C748 1.502 . S
C747 C749 1.561 . S
C747 C750 1.526 . S
C748 H732 0.959 . S
C748 H733 0.959 . S
C748 H734 0.961 . S
C748 C747 1.502 . S
C749 H735 0.960 . S
C749 H736 0.961 . S
C749 H737 0.959 . S
C749 C747 1.561 . S
C750 C747 1.526 . S
C750 C751 1.396 . S
C750 C755 1.390 . S
C751 C745 1.465 . S
C751 C750 1.396 . S
C751 C752 1.399 . S
C752 H738 0.929 . S
C752 C751 1.399 . S
C752 C753 1.385 . S
C753 H739 0.931 . S
C753 C752 1.385 . S
C753 C754 1.389 . S
C754 C753 1.389 . S
C754 C755 1.387 . S
C755 H740 0.930 . S
C755 C750 1.390 . S
C755 C754 1.387 . S
H756 C768 0.930 . S
H757 C770 0.930 . S
H758 C771 0.930 . S
H759 C775 0.959 . S
H760 C775 0.959 . S
H761 C775 0.920 1_545 S
H762 C776 0.960 . S
H763 C776 0.961 1_565 S
H764 C776 0.959 . S
H765 C779 0.929 . S
H766 C780 0.931 . S
H767 C782 0.930 . S
C768 H756 0.930 . S
C768 C769 1.399 . S
C768 C773 1.399 . S
C769 C768 1.399 . S
C769 C770 1.376 . S
C770 H757 0.930 . S
C770 C769 1.376 . S
C770 C771 1.388 . S
C771 H758 0.930 . S
C771 C770 1.388 . S
C771 C772 1.390 . S
C772 C771 1.390 . S
C772 C773 1.394 . S
C772 C778 1.465 1_545 S
C773 C768 1.399 . S
C773 C772 1.394 . S
C773 C774 1.516 1_545 S
C774 C773 1.516 1_565 S
C774 C775 1.502 . S
C774 C776 1.561 1_565 S
C774 C777 1.526 . S
C775 H759 0.959 . S
C775 H760 0.959 . S
C775 H761 0.920 1_565 S
C775 C774 1.502 . S
C776 H762 0.960 . S
C776 H763 0.961 1_545 S
C776 H764 0.959 . S
C776 C774 1.561 1_545 S
C777 C774 1.526 . S
C777 C778 1.396 . S
C777 C782 1.390 . S
C778 C772 1.465 1_565 S
C778 C777 1.396 . S
C778 C779 1.399 . S
C779 H765 0.929 . S
C779 C778 1.399 . S
C779 C780 1.385 . S
C780 H766 0.931 . S
C780 C779 1.385 . S
C780 C781 1.389 . S
C781 C780 1.389 . S
C781 C782 1.387 . S
C782 H767 0.930 . S
C782 C777 1.390 . S
C782 C781 1.387 . S
H783 C795 0.930 . S
H784 C797 0.930 . S
H785 C798 0.930 . S
H786 C802 0.959 . S
H787 C802 0.959 . S
H788 C802 0.961 . S
H789 C803 0.960 . S
H790 C803 0.961 . S
H791 C803 0.959 . S
H792 C806 0.929 . S
H793 C807 0.931 . S
H794 C809 0.930 . S
C795 H783 0.930 . S
C795 C796 1.399 . S
C795 C800 1.399 . S
C796 C795 1.399 . S
C796 C797 1.376 . S
C797 H784 0.930 . S
C797 C796 1.376 . S
C797 C798 1.388 . S
C798 H785 0.930 . S
C798 C797 1.388 . S
C798 C799 1.390 . S
C799 C798 1.390 . S
C799 C800 1.394 . S
C799 C805 1.465 . S
C800 C795 1.399 . S
C800 C799 1.394 . S
C800 C801 1.516 . S
C801 C800 1.516 . S
C801 C802 1.502 . S
C801 C803 1.561 . S
C801 C804 1.526 . S
C802 H786 0.959 . S
C802 H787 0.959 . S
C802 H788 0.961 . S
C802 C801 1.502 . S
C803 H789 0.960 . S
C803 H790 0.961 . S
C803 H791 0.959 . S
C803 C801 1.561 . S
C804 C801 1.526 . S
C804 C805 1.396 . S
C804 C809 1.390 . S
C805 C799 1.465 . S
C805 C804 1.396 . S
C805 C806 1.399 . S
C806 H792 0.929 . S
C806 C805 1.399 . S
C806 C807 1.385 . S
C807 H793 0.931 . S
C807 C806 1.385 . S
C807 C808 1.389 . S
C808 C807 1.389 . S
C808 C809 1.387 . S
C809 H794 0.930 . S
C809 C804 1.390 . S
C809 C808 1.387 . S
H810 C822 0.930 . S
H811 C824 0.930 . S
H812 C825 0.930 . S
H813 C829 0.959 . S
H814 C829 0.959 . S
H815 C829 0.961 . S
H816 C830 0.960 . S
H817 C830 0.961 . S
H818 C830 0.959 . S
H819 C833 0.929 . S
H820 C834 0.931 . S
H821 C836 0.930 . S
C822 H810 0.930 . S
C822 C823 1.399 . S
C822 C827 1.399 . S
C823 C822 1.399 . S
C823 C824 1.376 . S
C824 H811 0.930 . S
C824 C823 1.376 . S
C824 C825 1.388 . S
C825 H812 0.930 . S
C825 C824 1.388 . S
C825 C826 1.390 . S
C826 C825 1.390 . S
C826 C827 1.394 . S
C826 C832 1.465 . S
C827 C822 1.399 . S
C827 C826 1.394 . S
C827 C828 1.516 . S
C828 C827 1.516 . S
C828 C829 1.502 . S
C828 C830 1.561 . S
C828 C831 1.526 . S
C829 H813 0.959 . S
C829 H814 0.959 . S
C829 H815 0.961 . S
C829 C828 1.502 . S
C830 H816 0.960 . S
C830 H817 0.961 . S
C830 H818 0.959 . S
C830 C828 1.561 . S
C831 C828 1.526 . S
C831 C832 1.396 . S
C831 C836 1.390 . S
C832 C826 1.465 . S
C832 C831 1.396 . S
C832 C833 1.399 . S
C833 H819 0.929 . S
C833 C832 1.399 . S
C833 C834 1.385 . S
C834 H820 0.931 . S
C834 C833 1.385 . S
C834 C835 1.389 . S
C835 C834 1.389 . S
C835 C836 1.387 . S
C836 H821 0.930 . S
C836 C831 1.390 . S
C836 C835 1.387 . S
H837 C849 0.930 . S
H838 C851 0.930 . S
H839 C852 0.930 . S
H840 C856 0.959 . S
H841 C856 0.959 . S
H842 C856 0.961 . S
H843 C857 0.960 . S
H844 C857 0.961 . S
H845 C857 0.959 . S
H846 C860 0.929 . S
H847 C861 0.931 . S
H848 C863 0.930 . S
C849 H837 0.930 . S
C849 C850 1.399 . S
C849 C854 1.399 . S
C850 C849 1.399 . S
C850 C851 1.376 . S
C851 H838 0.930 . S
C851 C850 1.376 . S
C851 C852 1.388 . S
C852 H839 0.930 . S
C852 C851 1.388 . S
C852 C853 1.390 . S
C853 C852 1.390 . S
C853 C854 1.394 . S
C853 C859 1.465 . S
C854 C849 1.399 . S
C854 C853 1.394 . S
C854 C855 1.516 . S
C855 C854 1.516 . S
C855 C856 1.502 . S
C855 C857 1.561 . S
C855 C858 1.526 . S
C856 H840 0.959 . S
C856 H841 0.959 . S
C856 H842 0.961 . S
C856 C855 1.502 . S
C857 H843 0.960 . S
C857 H844 0.961 . S
C857 H845 0.959 . S
C857 C855 1.561 . S
C858 C855 1.526 . S
C858 C859 1.396 . S
C858 C863 1.390 . S
C859 C853 1.465 . S
C859 C858 1.396 . S
C859 C860 1.399 . S
C860 H846 0.929 . S
C860 C859 1.399 . S
C860 C861 1.385 . S
C861 H847 0.931 . S
C861 C860 1.385 . S
C861 C862 1.389 . S
C862 C861 1.389 . S
C862 C863 1.387 . S
C863 H848 0.930 . S
C863 C858 1.390 . S
C863 C862 1.387 . S
H864 C876 0.930 . S
H865 C878 0.930 . S
H866 C879 0.930 . S
H867 C883 0.959 . S
H868 C883 0.959 . S
H869 C883 0.961 . S
H870 C884 0.960 . S
H871 C884 0.961 . S
H872 C884 0.959 . S
H873 C887 0.929 . S
H874 C888 0.931 . S
H875 C890 0.930 . S
C876 H864 0.930 . S
C876 C877 1.399 . S
C876 C881 1.399 . S
C877 C876 1.399 . S
C877 C878 1.376 . S
C878 H865 0.930 . S
C878 C877 1.376 . S
C878 C879 1.388 . S
C879 H866 0.930 . S
C879 C878 1.388 . S
C879 C880 1.390 . S
C880 C879 1.390 . S
C880 C881 1.394 . S
C880 C886 1.465 . S
C881 C876 1.399 . S
C881 C880 1.394 . S
C881 C882 1.516 . S
C882 C881 1.516 . S
C882 C883 1.502 . S
C882 C884 1.561 . S
C882 C885 1.526 . S
C883 H867 0.959 . S
C883 H868 0.959 . S
C883 H869 0.961 . S
C883 C882 1.502 . S
C884 H870 0.960 . S
C884 H871 0.961 . S
C884 H872 0.959 . S
C884 C882 1.561 . S
C885 C882 1.526 . S
C885 C886 1.396 . S
C885 C890 1.390 . S
C886 C880 1.465 . S
C886 C885 1.396 . S
C886 C887 1.399 . S
C887 H873 0.929 . S
C887 C886 1.399 . S
C887 C888 1.385 . S
C888 H874 0.931 . S
C888 C887 1.385 . S
C888 C889 1.389 . S
C889 C888 1.389 . S
C889 C890 1.387 . S
C890 H875 0.930 . S
C890 C885 1.390 . S
C890 C889 1.387 . S
H891 C903 0.930 . S
H892 C905 0.930 . S
H893 C906 0.930 . S
H894 C910 0.959 . S
H895 C910 0.959 . S
H896 C910 0.961 . S
H897 C911 0.960 . S
H898 C911 0.961 . S
H899 C911 0.959 . S
H900 C914 0.929 . S
H901 C915 0.931 . S
H902 C917 0.930 . S
C903 H891 0.930 . S
C903 C904 1.399 . S
C903 C908 1.399 . S
C904 C903 1.399 . S
C904 C905 1.376 . S
C905 H892 0.930 . S
C905 C904 1.376 . S
C905 C906 1.388 . S
C906 H893 0.930 . S
C906 C905 1.388 . S
C906 C907 1.390 . S
C907 C906 1.390 . S
C907 C908 1.394 . S
C907 C913 1.465 . S
C908 C903 1.399 . S
C908 C907 1.394 . S
C908 C909 1.516 . S
C909 C908 1.516 . S
C909 C910 1.502 . S
C909 C911 1.561 . S
C909 C912 1.526 . S
C910 H894 0.959 . S
C910 H895 0.959 . S
C910 H896 0.961 . S
C910 C909 1.502 . S
C911 H897 0.960 . S
C911 H898 0.961 . S
C911 H899 0.959 . S
C911 C909 1.561 . S
C912 C909 1.526 . S
C912 C913 1.396 . S
C912 C917 1.390 . S
C913 C907 1.465 . S
C913 C912 1.396 . S
C913 C914 1.399 . S
C914 H900 0.929 . S
C914 C913 1.399 . S
C914 C915 1.385 . S
C915 H901 0.931 . S
C915 C914 1.385 . S
C915 C916 1.389 . S
C916 C915 1.389 . S
C916 C917 1.387 . S
C917 H902 0.930 . S
C917 C912 1.390 . S
C917 C916 1.387 . S
H918 C930 0.930 . S
H919 C932 0.930 . S
H920 C933 0.930 . S
H921 C937 0.959 . S
H922 C937 0.959 . S
H923 C937 0.961 . S
H924 C938 0.960 . S
H925 C938 0.961 . S
H926 C938 0.959 . S
H927 C941 0.929 . S
H928 C942 0.931 . S
H929 C944 0.930 . S
C930 H918 0.930 . S
C930 C931 1.399 . S
C930 C935 1.399 . S
C931 C930 1.399 . S
C931 C932 1.376 . S
C932 H919 0.930 . S
C932 C931 1.376 . S
C932 C933 1.388 . S
C933 H920 0.930 . S
C933 C932 1.388 . S
C933 C934 1.390 . S
C934 C933 1.390 . S
C934 C935 1.394 . S
C934 C940 1.465 . S
C935 C930 1.399 . S
C935 C934 1.394 . S
C935 C936 1.516 . S
C936 C935 1.516 . S
C936 C937 1.502 . S
C936 C938 1.561 . S
C936 C939 1.526 . S
C937 H921 0.959 . S
C937 H922 0.959 . S
C937 H923 0.961 . S
C937 C936 1.502 . S
C938 H924 0.960 . S
C938 H925 0.961 . S
C938 H926 0.959 . S
C938 C936 1.561 . S
C939 C936 1.526 . S
C939 C940 1.396 . S
C939 C944 1.390 . S
C940 C934 1.465 . S
C940 C939 1.396 . S
C940 C941 1.399 . S
C941 H927 0.929 . S
C941 C940 1.399 . S
C941 C942 1.385 . S
C942 H928 0.931 . S
C942 C941 1.385 . S
C942 C943 1.389 . S
C943 C942 1.389 . S
C943 C944 1.387 . S
C944 H929 0.930 . S
C944 C939 1.390 . S
C944 C943 1.387 . S
H945 C957 0.930 . S
H946 C959 0.930 . S
H947 C960 0.930 . S
H948 C964 0.959 . S
H949 C964 0.959 . S
H950 C964 0.961 . S
H951 C965 0.960 . S
H952 C965 0.961 . S
H953 C965 0.959 . S
H954 C968 0.929 . S
H955 C969 0.931 . S
H956 C971 0.930 . S
C957 H945 0.930 . S
C957 C958 1.399 . S
C957 C962 1.399 1_545 S
C958 C957 1.399 . S
C958 C959 1.376 . S
C959 H946 0.930 . S
C959 C958 1.376 . S
C959 C960 1.388 1_545 S
C960 H947 0.930 . S
C960 C959 1.388 1_565 S
C960 C961 1.390 . S
C961 C960 1.390 . S
C961 C962 1.394 . S
C961 C967 1.465 . S
C962 C957 1.399 1_565 S
C962 C961 1.394 . S
C962 C963 1.516 . S
C963 C962 1.516 . S
C963 C964 1.502 . S
C963 C965 1.561 . S
C963 C966 1.526 . S
C964 H948 0.959 . S
C964 H949 0.959 . S
C964 H950 0.961 . S
C964 C963 1.502 . S
C965 H951 0.960 . S
C965 H952 0.961 . S
C965 H953 0.959 . S
C965 C963 1.561 . S
C966 C963 1.526 . S
C966 C967 1.396 . S
C966 C971 1.390 . S
C967 C961 1.465 . S
C967 C966 1.396 . S
C967 C968 1.399 . S
C968 H954 0.929 . S
C968 C967 1.399 . S
C968 C969 1.385 . S
C969 H955 0.931 . S
C969 C968 1.385 . S
C969 C970 1.389 . S
C970 C969 1.389 . S
C970 C971 1.387 . S
C971 H956 0.930 . S
C971 C966 1.390 . S
C971 C970 1.387 . S
H972 C984 0.930 . S
H973 C986 0.930 . S
H974 C987 0.930 . S
H975 C991 0.959 . S
H976 C991 0.959 . S
H977 C991 0.961 . S
H978 C992 0.960 . S
H979 C992 0.961 . S
H980 C992 0.959 . S
H981 C995 0.929 . S
H982 C996 0.931 . S
H983 C998 0.930 . S
C984 H972 0.930 . S
C984 C985 1.399 . S
C984 C989 1.399 1_655 S
C985 C984 1.399 . S
C985 C986 1.376 . S
C986 H973 0.930 . S
C986 C985 1.376 . S
C986 C987 1.388 1_655 S
C987 H974 0.930 . S
C987 C986 1.388 1_455 S
C987 C988 1.390 . S
C988 C987 1.390 . S
C988 C989 1.394 . S
C988 C994 1.465 . S
C989 C984 1.399 1_455 S
C989 C988 1.394 . S
C989 C990 1.516 . S
C990 C989 1.516 . S
C990 C991 1.502 . S
C990 C992 1.561 . S
C990 C993 1.526 . S
C991 H975 0.959 . S
C991 H976 0.959 . S
C991 H977 0.961 . S
C991 C990 1.502 . S
C992 H978 0.960 . S
C992 H979 0.961 . S
C992 H980 0.959 . S
C992 C990 1.561 . S
C993 C990 1.526 . S
C993 C994 1.396 . S
C993 C998 1.390 . S
C994 C988 1.465 . S
C994 C993 1.396 . S
C994 C995 1.399 . S
C995 H981 0.929 . S
C995 C994 1.399 . S
C995 C996 1.385 . S
C996 H982 0.931 . S
C996 C995 1.385 . S
C996 C997 1.389 . S
C997 C996 1.389 . S
C997 C998 1.387 . S
C998 H983 0.930 . S
C998 C993 1.390 . S
C998 C997 1.387 . S
H999 C1011 0.930 . S
H1000 C1013 0.930 . S
H1001 C1014 0.930 . S
H1002 C1018 0.959 . S
H1003 C1018 0.959 . S
H1004 C1018 0.961 . S
H1005 C1019 0.960 . S
H1006 C1019 0.961 . S
H1007 C1019 0.959 . S
H1008 C1022 0.929 . S
H1009 C1023 0.931 . S
H1010 C1025 0.930 . S
C1011 H999 0.930 . S
C1011 C1012 1.399 . S
C1011 C1016 1.399 . S
C1012 C1011 1.399 . S
C1012 C1013 1.376 . S
C1013 H1000 0.930 . S
C1013 C1012 1.376 . S
C1013 C1014 1.388 . S
C1014 H1001 0.930 . S
C1014 C1013 1.388 . S
C1014 C1015 1.390 . S
C1015 C1014 1.390 . S
C1015 C1016 1.394 . S
C1015 C1021 1.465 . S
C1016 C1011 1.399 . S
C1016 C1015 1.394 . S
C1016 C1017 1.516 . S
C1017 C1016 1.516 . S
C1017 C1018 1.502 . S
C1017 C1019 1.561 . S
C1017 C1020 1.526 . S
C1018 H1002 0.959 . S
C1018 H1003 0.959 . S
C1018 H1004 0.961 . S
C1018 C1017 1.502 . S
C1019 H1005 0.960 . S
C1019 H1006 0.961 . S
C1019 H1007 0.959 . S
C1019 C1017 1.561 . S
C1020 C1017 1.526 . S
C1020 C1021 1.396 . S
C1020 C1025 1.390 . S
C1021 C1015 1.465 . S
C1021 C1020 1.396 . S
C1021 C1022 1.399 . S
C1022 H1008 0.929 . S
C1022 C1021 1.399 . S
C1022 C1023 1.385 . S
C1023 H1009 0.931 . S
C1023 C1022 1.385 . S
C1023 C1024 1.389 . S
C1024 C1023 1.389 . S
C1024 C1025 1.387 . S
C1025 H1010 0.930 . S
C1025 C1020 1.390 . S
C1025 C1024 1.387 . S
H1026 C1038 0.930 . S
H1027 C1040 0.930 . S
H1028 C1041 0.930 . S
H1029 C1045 0.959 . S
H1030 C1045 0.959 . S
H1031 C1045 0.961 . S
H1032 C1046 0.960 . S
H1033 C1046 0.961 . S
H1034 C1046 0.959 . S
H1035 C1049 0.929 . S
H1036 C1050 0.931 . S
H1037 C1052 0.930 . S
C1038 H1026 0.930 . S
C1038 C1039 1.399 . S
C1038 C1043 1.399 . S
C1039 C1038 1.399 . S
C1039 C1040 1.376 . S
C1040 H1027 0.930 . S
C1040 C1039 1.376 . S
C1040 C1041 1.388 . S
C1041 H1028 0.930 . S
C1041 C1040 1.388 . S
C1041 C1042 1.390 . S
C1042 C1041 1.390 . S
C1042 C1043 1.394 . S
C1042 C1048 1.465 . S
C1043 C1038 1.399 . S
C1043 C1042 1.394 . S
C1043 C1044 1.516 . S
C1044 C1043 1.516 . S
C1044 C1045 1.502 . S
C1044 C1046 1.561 . S
C1044 C1047 1.526 . S
C1045 H1029 0.959 . S
C1045 H1030 0.959 . S
C1045 H1031 0.961 . S
C1045 C1044 1.502 . S
C1046 H1032 0.960 . S
C1046 H1033 0.961 . S
C1046 H1034 0.959 . S
C1046 C1044 1.561 . S
C1047 C1044 1.526 . S
C1047 C1048 1.396 . S
C1047 C1052 1.390 . S
C1048 C1042 1.465 . S
C1048 C1047 1.396 . S
C1048 C1049 1.399 . S
C1049 H1035 0.929 . S
C1049 C1048 1.399 . S
C1049 C1050 1.385 . S
C1050 H1036 0.931 . S
C1050 C1049 1.385 . S
C1050 C1051 1.389 . S
C1051 C1050 1.389 . S
C1051 C1052 1.387 . S
C1052 H1037 0.930 . S
C1052 C1047 1.390 . S
C1052 C1051 1.387 . S
H1053 C1065 0.930 . S
H1054 C1067 0.930 . S
H1055 C1068 0.930 . S
H1056 C1072 0.959 . S
H1057 C1072 0.959 . S
H1058 C1072 0.961 . S
H1059 C1073 0.960 . S
H1060 C1073 0.961 . S
H1061 C1073 0.959 . S
H1062 C1076 0.929 . S
H1063 C1077 0.931 . S
H1064 C1079 0.930 . S
C1065 H1053 0.930 . S
C1065 C1066 1.399 . S
C1065 C1070 1.399 . S
C1066 C1065 1.399 . S
C1066 C1067 1.376 . S
C1067 H1054 0.930 . S
C1067 C1066 1.376 . S
C1067 C1068 1.388 . S
C1068 H1055 0.930 . S
C1068 C1067 1.388 . S
C1068 C1069 1.390 . S
C1069 C1068 1.390 . S
C1069 C1070 1.394 . S
C1069 C1075 1.465 . S
C1070 C1065 1.399 . S
C1070 C1069 1.394 . S
C1070 C1071 1.516 . S
C1071 C1070 1.516 . S
C1071 C1072 1.502 . S
C1071 C1073 1.561 . S
C1071 C1074 1.526 . S
C1072 H1056 0.959 . S
C1072 H1057 0.959 . S
C1072 H1058 0.961 . S
C1072 C1071 1.502 . S
C1073 H1059 0.960 . S
C1073 H1060 0.961 . S
C1073 H1061 0.959 . S
C1073 C1071 1.561 . S
C1074 C1071 1.526 . S
C1074 C1075 1.396 . S
C1074 C1079 1.390 . S
C1075 C1069 1.465 . S
C1075 C1074 1.396 . S
C1075 C1076 1.399 . S
C1076 H1062 0.929 . S
C1076 C1075 1.399 . S
C1076 C1077 1.385 . S
C1077 H1063 0.931 . S
C1077 C1076 1.385 . S
C1077 C1078 1.389 . S
C1078 C1077 1.389 . S
C1078 C1079 1.387 . S
C1079 H1064 0.930 . S
C1079 C1074 1.390 . S
C1079 C1078 1.387 . S
H1080 C1092 0.930 . S
H1081 C1094 0.930 . S
H1082 C1095 0.930 . S
H1083 C1099 0.959 . S
H1084 C1099 0.959 . S
H1085 C1099 0.961 . S
H1086 C1100 0.960 . S
H1087 C1100 0.961 . S
H1088 C1100 0.959 . S
H1089 C1103 0.929 . S
H1090 C1104 0.931 . S
H1091 C1106 0.930 . S
C1092 H1080 0.930 . S
C1092 C1093 1.399 . S
C1092 C1097 1.399 . S
C1093 C1092 1.399 . S
C1093 C1094 1.376 . S
C1094 H1081 0.930 . S
C1094 C1093 1.376 . S
C1094 C1095 1.388 . S
C1095 H1082 0.930 . S
C1095 C1094 1.388 . S
C1095 C1096 1.390 . S
C1096 C1095 1.390 . S
C1096 C1097 1.394 . S
C1096 C1102 1.465 . S
C1097 C1092 1.399 . S
C1097 C1096 1.394 . S
C1097 C1098 1.516 . S
C1098 C1097 1.516 . S
C1098 C1099 1.502 . S
C1098 C1100 1.561 . S
C1098 C1101 1.526 . S
C1099 H1083 0.959 . S
C1099 H1084 0.959 . S
C1099 H1085 0.961 . S
C1099 C1098 1.502 . S
C1100 H1086 0.960 . S
C1100 H1087 0.961 . S
C1100 H1088 0.959 . S
C1100 C1098 1.561 . S
C1101 C1098 1.526 . S
C1101 C1102 1.396 . S
C1101 C1106 1.390 . S
C1102 C1096 1.465 . S
C1102 C1101 1.396 . S
C1102 C1103 1.399 . S
C1103 H1089 0.929 . S
C1103 C1102 1.399 . S
C1103 C1104 1.385 . S
C1104 H1090 0.931 . S
C1104 C1103 1.385 . S
C1104 C1105 1.389 . S
C1105 C1104 1.389 . S
C1105 C1106 1.387 . S
C1106 H1091 0.930 . S
C1106 C1101 1.390 . S
C1106 C1105 1.387 . S
H1107 C1119 0.930 . S
H1108 C1121 0.930 . S
H1109 C1122 0.930 . S
H1110 C1126 0.959 . S
H1111 C1126 0.959 1_545 S
H1112 C1126 0.961 . S
H1113 C1127 0.960 . S
H1114 C1127 0.961 . S
H1115 C1127 0.959 . S
H1116 C1130 0.929 . S
H1117 C1131 0.931 . S
H1118 C1133 0.930 . S
C1119 H1107 0.930 . S
C1119 C1120 1.399 . S
C1119 C1124 1.399 . S
C1120 C1119 1.399 . S
C1120 C1121 1.376 . S
C1121 H1108 0.930 . S
C1121 C1120 1.376 . S
C1121 C1122 1.388 . S
C1122 H1109 0.930 . S
C1122 C1121 1.388 . S
C1122 C1123 1.390 . S
C1123 C1122 1.390 . S
C1123 C1124 1.394 . S
C1123 C1129 1.465 1_565 S
C1124 C1119 1.399 . S
C1124 C1123 1.394 . S
C1124 C1125 1.516 1_565 S
C1125 C1124 1.516 1_545 S
C1125 C1126 1.502 1_545 S
C1125 C1127 1.561 . S
C1125 C1128 1.526 . S
C1126 H1110 0.959 . S
C1126 H1111 0.959 1_565 S
C1126 H1112 0.961 . S
C1126 C1125 1.502 1_565 S
C1127 H1113 0.960 . S
C1127 H1114 0.961 . S
C1127 H1115 0.959 . S
C1127 C1125 1.561 . S
C1128 C1125 1.526 . S
C1128 C1129 1.396 . S
C1128 C1133 1.390 . S
C1129 C1123 1.465 1_545 S
C1129 C1128 1.396 . S
C1129 C1130 1.399 . S
C1130 H1116 0.929 . S
C1130 C1129 1.399 . S
C1130 C1131 1.385 . S
C1131 H1117 0.931 . S
C1131 C1130 1.385 . S
C1131 C1132 1.389 . S
C1132 C1131 1.389 . S
C1132 C1133 1.387 . S
C1133 H1118 0.930 . S
C1133 C1128 1.390 . S
C1133 C1132 1.387 . S
H1134 C1146 0.930 . S
H1135 C1148 0.930 . S
H1136 C1149 0.930 . S
H1137 C1153 0.959 . S
H1138 C1153 0.959 . S
H1139 C1153 0.961 . S
H1140 C1154 0.960 . S
H1141 C1154 0.961 . S
H1142 C1154 0.959 . S
H1143 C1157 0.929 1_455 S
H1144 C1158 0.931 . S
H1145 C1160 0.930 . S
C1146 H1134 0.930 . S
C1146 C1147 1.399 . S
C1146 C1151 1.399 . S
C1147 C1146 1.399 . S
C1147 C1148 1.376 . S
C1148 H1135 0.930 . S
C1148 C1147 1.376 . S
C1148 C1149 1.388 . S
C1149 H1136 0.930 . S
C1149 C1148 1.388 . S
C1149 C1150 1.390 . S
C1150 C1149 1.390 . S
C1150 C1151 1.394 . S
C1150 C1156 1.465 . S
C1151 C1146 1.399 . S
C1151 C1150 1.394 . S
C1151 C1152 1.516 1_455 S
C1152 C1151 1.516 1_655 S
C1152 C1153 1.502 . S
C1152 C1154 1.561 . S
C1152 C1155 1.526 . S
C1153 H1137 0.959 . S
C1153 H1138 0.959 . S
C1153 H1139 0.961 . S
C1153 C1152 1.502 . S
C1154 H1140 0.960 . S
C1154 H1141 0.961 . S
C1154 H1142 0.959 . S
C1154 C1152 1.561 . S
C1155 C1152 1.526 . S
C1155 C1156 1.396 1_655 S
C1155 C1160 1.390 . S
C1156 C1150 1.465 . S
C1156 C1155 1.396 1_455 S
C1156 C1157 1.399 1_455 S
C1157 H1143 0.929 1_655 S
C1157 C1156 1.399 1_655 S
C1157 C1158 1.385 . S
C1158 H1144 0.931 . S
C1158 C1157 1.385 . S
C1158 C1159 1.389 . S
C1159 C1158 1.389 . S
C1159 C1160 1.387 . S
C1160 H1145 0.930 . S
C1160 C1155 1.390 . S
C1160 C1159 1.387 . S
H1161 C1173 0.930 . S
H1162 C1175 0.930 . S
H1163 C1176 0.930 . S
H1164 C1180 0.959 . S
H1165 C1180 0.959 . S
H1166 C1180 0.961 . S
H1167 C1181 0.960 . S
H1168 C1181 0.961 . S
H1169 C1181 0.959 . S
H1170 C1184 0.929 . S
H1171 C1185 0.931 . S
H1172 C1187 0.930 . S
C1173 H1161 0.930 . S
C1173 C1174 1.399 . S
C1173 C1178 1.399 . S
C1174 C1173 1.399 . S
C1174 C1175 1.376 . S
C1175 H1162 0.930 . S
C1175 C1174 1.376 . S
C1175 C1176 1.388 . S
C1176 H1163 0.930 . S
C1176 C1175 1.388 . S
C1176 C1177 1.390 . S
C1177 C1176 1.390 . S
C1177 C1178 1.394 . S
C1177 C1183 1.465 . S
C1178 C1173 1.399 . S
C1178 C1177 1.394 . S
C1178 C1179 1.516 . S
C1179 C1178 1.516 . S
C1179 C1180 1.502 . S
C1179 C1181 1.561 . S
C1179 C1182 1.526 . S
C1180 H1164 0.959 . S
C1180 H1165 0.959 . S
C1180 H1166 0.961 . S
C1180 C1179 1.502 . S
C1181 H1167 0.960 . S
C1181 H1168 0.961 . S
C1181 H1169 0.959 . S
C1181 C1179 1.561 . S
C1182 C1179 1.526 . S
C1182 C1183 1.396 . S
C1182 C1187 1.390 . S
C1183 C1177 1.465 . S
C1183 C1182 1.396 . S
C1183 C1184 1.399 . S
C1184 H1170 0.929 . S
C1184 C1183 1.399 . S
C1184 C1185 1.385 . S
C1185 H1171 0.931 . S
C1185 C1184 1.385 . S
C1185 C1186 1.389 . S
C1186 C1185 1.389 . S
C1186 C1187 1.387 . S
C1187 H1172 0.930 . S
C1187 C1182 1.390 . S
C1187 C1186 1.387 . S
H1188 C1200 0.930 . S
H1189 C1202 0.930 . S
H1190 C1203 0.930 1_655 S
H1191 C1207 0.959 . S
H1192 C1207 0.959 . S
H1193 C1207 0.961 1_455 S
H1194 C1208 0.960 1_455 S
H1195 C1208 0.961 . S
H1196 C1208 0.959 . S
H1197 C1211 0.929 . S
H1198 C1212 0.931 . S
H1199 C1214 0.930 . S
C1200 H1188 0.930 . S
C1200 C1201 1.399 . S
C1200 C1205 1.399 . S
C1201 C1200 1.399 . S
C1201 C1202 1.376 . S
C1202 H1189 0.930 . S
C1202 C1201 1.376 . S
C1202 C1203 1.388 . S
C1203 H1190 0.930 1_455 S
C1203 C1202 1.388 . S
C1203 C1204 1.390 1_455 S
C1204 C1203 1.390 1_655 S
C1204 C1205 1.394 1_655 S
C1204 C1210 1.465 . S
C1205 C1200 1.399 . S
C1205 C1204 1.394 1_455 S
C1205 C1206 1.516 1_455 S
C1206 C1205 1.516 1_655 S
C1206 C1207 1.502 . S
C1206 C1208 1.561 . S
C1206 C1209 1.526 . S
C1207 H1191 0.959 . S
C1207 H1192 0.959 . S
C1207 H1193 0.961 1_655 S
C1207 C1206 1.502 . S
C1208 H1194 0.960 1_655 S
C1208 H1195 0.961 . S
C1208 H1196 0.959 . S
C1208 C1206 1.561 . S
C1209 C1206 1.526 . S
C1209 C1210 1.396 . S
C1209 C1214 1.390 . S
C1210 C1204 1.465 . S
C1210 C1209 1.396 . S
C1210 C1211 1.399 . S
C1211 H1197 0.929 . S
C1211 C1210 1.399 . S
C1211 C1212 1.385 . S
C1212 H1198 0.931 . S
C1212 C1211 1.385 . S
C1212 C1213 1.389 . S
C1213 C1212 1.389 . S
C1213 C1214 1.387 . S
C1214 H1199 0.930 . S
C1214 C1209 1.390 . S
C1214 C1213 1.387 . S
H1215 C1227 0.930 . S
H1216 C1229 0.930 . S
H1217 C1230 0.930 . S
H1218 C1234 0.959 . S
H1219 C1234 0.959 . S
H1220 C1234 0.961 . S
H1221 C1235 0.960 . S
H1222 C1235 0.961 . S
H1223 C1235 0.959 . S
H1224 C1238 0.929 . S
H1225 C1239 0.931 . S
H1226 C1241 0.930 . S
C1227 H1215 0.930 . S
C1227 C1228 1.399 . S
C1227 C1232 1.399 . S
C1228 C1227 1.399 . S
C1228 C1229 1.376 . S
C1229 H1216 0.930 . S
C1229 C1228 1.376 . S
C1229 C1230 1.388 . S
C1230 H1217 0.930 . S
C1230 C1229 1.388 . S
C1230 C1231 1.390 . S
C1231 C1230 1.390 . S
C1231 C1232 1.394 . S
C1231 C1237 1.465 . S
C1232 C1227 1.399 . S
C1232 C1231 1.394 . S
C1232 C1233 1.516 . S
C1233 C1232 1.516 . S
C1233 C1234 1.502 . S
C1233 C1235 1.561 . S
C1233 C1236 1.526 . S
C1234 H1218 0.959 . S
C1234 H1219 0.959 . S
C1234 H1220 0.961 . S
C1234 C1233 1.502 . S
C1235 H1221 0.960 . S
C1235 H1222 0.961 . S
C1235 H1223 0.959 . S
C1235 C1233 1.561 . S
C1236 C1233 1.526 . S
C1236 C1237 1.396 . S
C1236 C1241 1.390 . S
C1237 C1231 1.465 . S
C1237 C1236 1.396 . S
C1237 C1238 1.399 . S
C1238 H1224 0.929 . S
C1238 C1237 1.399 . S
C1238 C1239 1.385 . S
C1239 H1225 0.931 . S
C1239 C1238 1.385 . S
C1239 C1240 1.389 . S
C1240 C1239 1.389 . S
C1240 C1241 1.387 . S
C1241 H1226 0.930 . S
C1241 C1236 1.390 . S
C1241 C1240 1.387 . S
H1242 C1254 0.930 . S
H1243 C1256 0.930 . S
H1244 C1257 0.920 1_545 S
H1245 C1261 0.959 . S
H1246 C1261 0.959 . S
H1247 C1261 0.961 . S
H1248 C1262 0.960 . S
H1249 C1262 0.961 . S
H1250 C1262 0.959 . S
H1251 C1265 0.929 . S
H1252 C1266 0.931 . S
H1253 C1268 0.930 . S
C1254 H1242 0.930 . S
C1254 C1255 1.399 . S
C1254 C1259 1.399 1_565 S
C1255 C1254 1.399 . S
C1255 C1256 1.376 . S
C1256 H1243 0.930 . S
C1256 C1255 1.376 . S
C1256 C1257 1.415 . S
C1257 H1244 0.920 1_565 S
C1257 C1256 1.415 . S
C1257 C1258 1.374 1_565 S
C1258 C1257 1.374 1_545 S
C1258 C1259 1.394 . S
C1258 C1264 1.465 . S
C1259 C1254 1.399 1_545 S
C1259 C1258 1.394 . S
C1259 C1260 1.516 . S
C1260 C1259 1.516 . S
C1260 C1261 1.502 . S
C1260 C1262 1.561 . S
C1260 C1263 1.526 . S
C1261 H1245 0.959 . S
C1261 H1246 0.959 . S
C1261 H1247 0.961 . S
C1261 C1260 1.502 . S
C1262 H1248 0.960 . S
C1262 H1249 0.961 . S
C1262 H1250 0.959 . S
C1262 C1260 1.561 . S
C1263 C1260 1.526 . S
C1263 C1264 1.396 . S
C1263 C1268 1.390 . S
C1264 C1258 1.465 . S
C1264 C1263 1.396 . S
C1264 C1265 1.399 . S
C1265 H1251 0.929 . S
C1265 C1264 1.399 . S
C1265 C1266 1.385 . S
C1266 H1252 0.931 . S
C1266 C1265 1.385 . S
C1266 C1267 1.389 . S
C1267 C1266 1.389 . S
C1267 C1268 1.387 . S
C1268 H1253 0.930 . S
C1268 C1263 1.390 . S
C1268 C1267 1.387 . S
H1269 C1281 0.930 . S
H1270 C1283 0.930 . S
H1271 C1284 0.930 . S
H1272 C1288 0.959 . S
H1273 C1288 0.959 . S
H1274 C1288 0.961 . S
H1275 C1289 0.960 . S
H1276 C1289 0.961 . S
H1277 C1289 0.959 . S
H1278 C1292 0.929 . S
H1279 C1293 0.931 . S
H1280 C1295 0.930 . S
C1281 H1269 0.930 . S
C1281 C1282 1.399 . S
C1281 C1286 1.399 . S
C1282 C1281 1.399 . S
C1282 C1283 1.376 . S
C1283 H1270 0.930 . S
C1283 C1282 1.376 . S
C1283 C1284 1.388 . S
C1284 H1271 0.930 . S
C1284 C1283 1.388 . S
C1284 C1285 1.390 . S
C1285 C1284 1.390 . S
C1285 C1286 1.394 . S
C1285 C1291 1.465 . S
C1286 C1281 1.399 . S
C1286 C1285 1.394 . S
C1286 C1287 1.516 . S
C1287 C1286 1.516 . S
C1287 C1288 1.502 . S
C1287 C1289 1.561 . S
C1287 C1290 1.526 . S
C1288 H1272 0.959 . S
C1288 H1273 0.959 . S
C1288 H1274 0.961 . S
C1288 C1287 1.502 . S
C1289 H1275 0.960 . S
C1289 H1276 0.961 . S
C1289 H1277 0.959 . S
C1289 C1287 1.561 . S
C1290 C1287 1.526 . S
C1290 C1291 1.396 . S
C1290 C1295 1.390 . S
C1291 C1285 1.465 . S
C1291 C1290 1.396 . S
C1291 C1292 1.399 . S
C1292 H1278 0.929 . S
C1292 C1291 1.399 . S
C1292 C1293 1.385 . S
C1293 H1279 0.931 . S
C1293 C1292 1.385 . S
C1293 C1294 1.389 . S
C1294 C1293 1.389 . S
C1294 C1295 1.387 . S
C1295 H1280 0.930 . S
C1295 C1290 1.390 . S
C1295 C1294 1.387 . S
H1296 C1308 0.930 . S
H1297 C1310 0.930 . S
H1298 C1311 0.930 . S
H1299 C1315 0.959 . S
H1300 C1315 0.959 . S
H1301 C1315 0.961 . S
H1302 C1316 0.960 . S
H1303 C1316 0.961 . S
H1304 C1316 0.959 . S
H1305 C1319 0.929 . S
H1306 C1320 0.931 . S
H1307 C1322 0.930 . S
C1308 H1296 0.930 . S
C1308 C1309 1.399 . S
C1308 C1313 1.399 . S
C1309 C1308 1.399 . S
C1309 C1310 1.376 . S
C1310 H1297 0.930 . S
C1310 C1309 1.376 . S
C1310 C1311 1.388 . S
C1311 H1298 0.930 . S
C1311 C1310 1.388 . S
C1311 C1312 1.390 . S
C1312 C1311 1.390 . S
C1312 C1313 1.394 . S
C1312 C1318 1.465 . S
C1313 C1308 1.399 . S
C1313 C1312 1.394 . S
C1313 C1314 1.516 . S
C1314 C1313 1.516 . S
C1314 C1315 1.502 . S
C1314 C1316 1.561 . S
C1314 C1317 1.526 . S
C1315 H1299 0.959 . S
C1315 H1300 0.959 . S
C1315 H1301 0.961 . S
C1315 C1314 1.502 . S
C1316 H1302 0.960 . S
C1316 H1303 0.961 . S
C1316 H1304 0.959 . S
C1316 C1314 1.561 . S
C1317 C1314 1.526 . S
C1317 C1318 1.396 . S
C1317 C1322 1.390 . S
C1318 C1312 1.465 . S
C1318 C1317 1.396 . S
C1318 C1319 1.399 . S
C1319 H1305 0.929 . S
C1319 C1318 1.399 . S
C1319 C1320 1.385 . S
C1320 H1306 0.931 . S
C1320 C1319 1.385 . S
C1320 C1321 1.389 . S
C1321 C1320 1.389 . S
C1321 C1322 1.387 . S
C1322 H1307 0.930 . S
C1322 C1317 1.390 . S
C1322 C1321 1.387 . S
H1323 C1335 0.930 . S
H1324 C1337 0.930 . S
H1325 C1338 0.930 . S
H1326 C1342 0.959 . S
H1327 C1342 0.959 . S
H1328 C1342 0.961 . S
H1329 C1343 0.960 . S
H1330 C1343 0.961 . S
H1331 C1343 0.959 . S
H1332 C1346 0.929 . S
H1333 C1347 0.931 . S
H1334 C1349 0.930 . S
C1335 H1323 0.930 . S
C1335 C1336 1.399 . S
C1335 C1340 1.399 . S
C1336 C1335 1.399 . S
C1336 C1337 1.376 . S
C1337 H1324 0.930 . S
C1337 C1336 1.376 . S
C1337 C1338 1.388 . S
C1338 H1325 0.930 . S
C1338 C1337 1.388 . S
C1338 C1339 1.390 . S
C1339 C1338 1.390 . S
C1339 C1340 1.394 . S
C1339 C1345 1.465 . S
C1340 C1335 1.399 . S
C1340 C1339 1.394 . S
C1340 C1341 1.516 . S
C1341 C1340 1.516 . S
C1341 C1342 1.502 . S
C1341 C1343 1.561 . S
C1341 C1344 1.526 . S
C1342 H1326 0.959 . S
C1342 H1327 0.959 . S
C1342 H1328 0.961 . S
C1342 C1341 1.502 . S
C1343 H1329 0.960 . S
C1343 H1330 0.961 . S
C1343 H1331 0.959 . S
C1343 C1341 1.561 . S
C1344 C1341 1.526 . S
C1344 C1345 1.396 . S
C1344 C1349 1.390 . S
C1345 C1339 1.465 . S
C1345 C1344 1.396 . S
C1345 C1346 1.399 . S
C1346 H1332 0.929 . S
C1346 C1345 1.399 . S
C1346 C1347 1.385 . S
C1347 H1333 0.931 . S
C1347 C1346 1.385 . S
C1347 C1348 1.389 . S
C1348 C1347 1.389 . S
C1348 C1349 1.387 . S
C1349 H1334 0.930 . S
C1349 C1344 1.390 . S
C1349 C1348 1.387 . S
H1350 C1362 0.930 . S
H1351 C1364 0.930 . S
H1352 C1365 0.930 . S
H1353 C1369 0.959 . S
H1354 C1369 0.959 1_545 S
H1355 C1369 0.961 . S
H1356 C1370 0.960 . S
H1357 C1370 0.961 . S
H1358 C1370 0.959 . S
H1359 C1373 0.929 . S
H1360 C1374 0.931 . S
H1361 C1376 0.930 1_545 S
C1362 H1350 0.930 . S
C1362 C1363 1.399 . S
C1362 C1367 1.399 . S
C1363 C1362 1.399 . S
C1363 C1364 1.376 . S
C1364 H1351 0.930 . S
C1364 C1363 1.376 . S
C1364 C1365 1.388 . S
C1365 H1352 0.930 . S
C1365 C1364 1.388 . S
C1365 C1366 1.390 . S
C1366 C1365 1.390 . S
C1366 C1367 1.394 . S
C1366 C1372 1.465 . S
C1367 C1362 1.399 . S
C1367 C1366 1.394 . S
C1367 C1368 1.516 . S
C1368 C1367 1.516 . S
C1368 C1369 1.502 . S
C1368 C1370 1.561 1_565 S
C1368 C1371 1.526 . S
C1369 H1353 0.959 . S
C1369 H1354 0.959 1_565 S
C1369 H1355 0.961 . S
C1369 C1368 1.502 . S
C1370 H1356 0.960 . S
C1370 H1357 0.961 . S
C1370 H1358 0.959 . S
C1370 C1368 1.561 1_545 S
C1371 C1368 1.526 . S
C1371 C1372 1.396 . S
C1371 C1376 1.390 . S
C1372 C1366 1.465 . S
C1372 C1371 1.396 . S
C1372 C1373 1.399 . S
C1373 H1359 0.929 . S
C1373 C1372 1.399 . S
C1373 C1374 1.385 . S
C1374 H1360 0.931 . S
C1374 C1373 1.385 . S
C1374 C1375 1.389 . S
C1375 C1374 1.389 . S
C1375 C1376 1.387 . S
C1376 H1361 0.930 1_565 S
C1376 C1371 1.390 . S
C1376 C1375 1.387 . S
H1377 C1389 0.930 . S
H1378 C1391 0.930 . S
H1379 C1392 0.930 . S
H1380 C1396 0.959 . S
H1381 C1396 0.959 . S
H1382 C1396 0.961 . S
H1383 C1397 0.960 . S
H1384 C1397 0.961 . S
H1385 C1397 0.959 . S
H1386 C1400 0.929 . S
H1387 C1401 0.931 . S
H1388 C1403 0.930 . S
C1389 H1377 0.930 . S
C1389 C1390 1.399 . S
C1389 C1394 1.399 . S
C1390 C1389 1.399 . S
C1390 C1391 1.376 . S
C1391 H1378 0.930 . S
C1391 C1390 1.376 . S
C1391 C1392 1.388 . S
C1392 H1379 0.930 . S
C1392 C1391 1.388 . S
C1392 C1393 1.390 . S
C1393 C1392 1.390 . S
C1393 C1394 1.394 . S
C1393 C1399 1.465 . S
C1394 C1389 1.399 . S
C1394 C1393 1.394 . S
C1394 C1395 1.516 . S
C1395 C1394 1.516 . S
C1395 C1396 1.502 . S
C1395 C1397 1.561 . S
C1395 C1398 1.526 . S
C1396 H1380 0.959 . S
C1396 H1381 0.959 . S
C1396 H1382 0.961 . S
C1396 C1395 1.502 . S
C1397 H1383 0.960 . S
C1397 H1384 0.961 . S
C1397 H1385 0.959 . S
C1397 C1395 1.561 . S
C1398 C1395 1.526 . S
C1398 C1399 1.396 . S
C1398 C1403 1.390 . S
C1399 C1393 1.465 . S
C1399 C1398 1.396 . S
C1399 C1400 1.399 . S
C1400 H1386 0.929 . S
C1400 C1399 1.399 . S
C1400 C1401 1.385 . S
C1401 H1387 0.931 . S
C1401 C1400 1.385 . S
C1401 C1402 1.389 . S
C1402 C1401 1.389 . S
C1402 C1403 1.387 . S
C1403 H1388 0.930 . S
C1403 C1398 1.390 . S
C1403 C1402 1.387 . S
H1404 C1416 0.930 . S
H1405 C1418 0.930 . S
H1406 C1419 0.930 . S
H1407 C1423 0.959 . S
H1408 C1423 0.959 . S
H1409 C1423 0.961 . S
H1410 C1424 0.960 . S
H1411 C1424 0.961 . S
H1412 C1424 0.959 . S
H1413 C1427 0.929 . S
H1414 C1428 0.931 . S
H1415 C1430 0.930 . S
C1416 H1404 0.930 . S
C1416 C1417 1.399 . S
C1416 C1421 1.399 . S
C1417 C1416 1.399 . S
C1417 C1418 1.376 . S
C1418 H1405 0.930 . S
C1418 C1417 1.376 . S
C1418 C1419 1.388 . S
C1419 H1406 0.930 . S
C1419 C1418 1.388 . S
C1419 C1420 1.390 . S
C1420 C1419 1.390 . S
C1420 C1421 1.394 . S
C1420 C1426 1.465 . S
C1421 C1416 1.399 . S
C1421 C1420 1.394 . S
C1421 C1422 1.516 . S
C1422 C1421 1.516 . S
C1422 C1423 1.502 . S
C1422 C1424 1.561 . S
C1422 C1425 1.526 . S
C1423 H1407 0.959 . S
C1423 H1408 0.959 . S
C1423 H1409 0.961 . S
C1423 C1422 1.502 . S
C1424 H1410 0.960 . S
C1424 H1411 0.961 . S
C1424 H1412 0.959 . S
C1424 C1422 1.561 . S
C1425 C1422 1.526 . S
C1425 C1426 1.396 . S
C1425 C1430 1.390 . S
C1426 C1420 1.465 . S
C1426 C1425 1.396 . S
C1426 C1427 1.399 . S
C1427 H1413 0.929 . S
C1427 C1426 1.399 . S
C1427 C1428 1.385 . S
C1428 H1414 0.931 . S
C1428 C1427 1.385 . S
C1428 C1429 1.389 . S
C1429 C1428 1.389 . S
C1429 C1430 1.387 . S
C1430 H1415 0.930 . S
C1430 C1425 1.390 . S
C1430 C1429 1.387 . S
H1431 C1443 0.930 . S
H1432 C1445 0.930 . S
H1433 C1446 0.930 . S
H1434 C1450 0.959 . S
H1435 C1450 0.959 . S
H1436 C1450 0.961 . S
H1437 C1451 0.960 . S
H1438 C1451 0.961 . S
H1439 C1451 0.959 . S
H1440 C1454 0.929 . S
H1441 C1455 0.931 . S
H1442 C1457 0.940 . S
C1443 H1431 0.930 . S
C1443 C1444 1.399 . S
C1443 C1448 1.399 . S
C1444 C1443 1.399 . S
C1444 C1445 1.376 . S
C1445 H1432 0.930 . S
C1445 C1444 1.376 . S
C1445 C1446 1.388 . S
C1446 H1433 0.930 . S
C1446 C1445 1.388 . S
C1446 C1447 1.390 . S
C1447 C1446 1.390 . S
C1447 C1448 1.394 . S
C1447 C1453 1.465 . S
C1448 C1443 1.399 . S
C1448 C1447 1.394 . S
C1448 C1449 1.516 . S
C1449 C1448 1.516 . S
C1449 C1450 1.502 1_655 S
C1449 C1451 1.561 . S
C1449 C1452 1.526 . S
C1450 H1434 0.959 . S
C1450 H1435 0.959 . S
C1450 H1436 0.961 . S
C1450 C1449 1.502 1_455 S
C1451 H1437 0.960 . S
C1451 H1438 0.961 . S
C1451 H1439 0.959 . S
C1451 C1449 1.561 . S
C1452 C1449 1.526 . S
C1452 C1453 1.396 . S
C1452 C1457 1.390 . S
C1453 C1447 1.465 . S
C1453 C1452 1.396 . S
C1453 C1454 1.399 . S
C1454 H1440 0.929 . S
C1454 C1453 1.399 . S
C1454 C1455 1.385 . S
C1455 H1441 0.931 . S
C1455 C1454 1.385 . S
C1455 C1456 1.389 . S
C1456 C1455 1.389 . S
C1456 C1457 1.387 . S
C1457 H1442 0.940 . S
C1457 C1452 1.390 . S
C1457 C1456 1.387 . S
H1458 C1470 0.930 . S
H1459 C1472 0.930 . S
H1460 C1473 0.930 . S
H1461 C1477 0.959 . S
H1462 C1477 0.959 . S
H1463 C1477 0.961 . S
H1464 C1478 0.960 . S
H1465 C1478 0.961 . S
H1466 C1478 0.959 . S
H1467 C1481 0.929 . S
H1468 C1482 0.931 . S
H1469 C1484 0.930 . S
C1470 H1458 0.930 . S
C1470 C1471 1.399 . S
C1470 C1475 1.399 . S
C1471 C1470 1.399 . S
C1471 C1472 1.376 . S
C1472 H1459 0.930 . S
C1472 C1471 1.376 . S
C1472 C1473 1.388 . S
C1473 H1460 0.930 . S
C1473 C1472 1.388 . S
C1473 C1474 1.390 . S
C1474 C1473 1.390 . S
C1474 C1475 1.394 . S
C1474 C1480 1.465 . S
C1475 C1470 1.399 . S
C1475 C1474 1.394 . S
C1475 C1476 1.516 . S
C1476 C1475 1.516 . S
C1476 C1477 1.502 . S
C1476 C1478 1.561 . S
C1476 C1479 1.526 . S
C1477 H1461 0.959 . S
C1477 H1462 0.959 . S
C1477 H1463 0.961 . S
C1477 C1476 1.502 . S
C1478 H1464 0.960 . S
C1478 H1465 0.961 . S
C1478 H1466 0.959 . S
C1478 C1476 1.561 . S
C1479 C1476 1.526 . S
C1479 C1480 1.396 . S
C1479 C1484 1.390 . S
C1480 C1474 1.465 . S
C1480 C1479 1.396 . S
C1480 C1481 1.399 . S
C1481 H1467 0.929 . S
C1481 C1480 1.399 . S
C1481 C1482 1.385 . S
C1482 H1468 0.931 . S
C1482 C1481 1.385 . S
C1482 C1483 1.389 . S
C1483 C1482 1.389 . S
C1483 C1484 1.387 . S
C1484 H1469 0.930 . S
C1484 C1479 1.390 . S
C1484 C1483 1.387 . S
H1485 C1497 0.930 . S
H1486 C1499 0.930 . S
H1487 C1500 0.930 . S
H1488 C1504 0.959 . S
H1489 C1504 0.959 1_565 S
H1490 C1504 0.961 . S
H1491 C1505 0.960 . S
H1492 C1505 0.961 . S
H1493 C1505 0.961 1_545 S
H1494 C1508 0.929 . S
H1495 C1509 0.931 . S
H1496 C1511 0.930 1_565 S
C1497 H1485 0.930 . S
C1497 C1498 1.399 . S
C1497 C1502 1.399 . S
C1498 C1497 1.399 . S
C1498 C1499 1.376 . S
C1499 H1486 0.930 . S
C1499 C1498 1.376 . S
C1499 C1500 1.388 . S
C1500 H1487 0.930 . S
C1500 C1499 1.388 . S
C1500 C1501 1.390 . S
C1501 C1500 1.390 . S
C1501 C1502 1.394 . S
C1501 C1507 1.465 . S
C1502 C1497 1.399 . S
C1502 C1501 1.394 . S
C1502 C1503 1.516 . S
C1503 C1502 1.516 . S
C1503 C1504 1.502 . S
C1503 C1505 1.561 1_545 S
C1503 C1506 1.526 . S
C1504 H1488 0.959 . S
C1504 H1489 0.959 1_545 S
C1504 H1490 0.961 . S
C1504 C1503 1.502 . S
C1505 H1491 0.960 . S
C1505 H1492 0.961 . S
C1505 H1493 0.961 1_565 S
C1505 C1503 1.561 1_565 S
C1506 C1503 1.526 . S
C1506 C1507 1.396 . S
C1506 C1511 1.390 . S
C1507 C1501 1.465 . S
C1507 C1506 1.396 . S
C1507 C1508 1.399 . S
C1508 H1494 0.929 . S
C1508 C1507 1.399 . S
C1508 C1509 1.385 . S
C1509 H1495 0.931 . S
C1509 C1508 1.385 . S
C1509 C1510 1.389 . S
C1510 C1509 1.389 . S
C1510 C1511 1.387 . S
C1511 H1496 0.930 1_545 S
C1511 C1506 1.390 . S
C1511 C1510 1.387 . S
H1512 C1524 0.930 . S
H1513 C1526 0.930 . S
H1514 C1527 0.930 . S
H1515 C1531 0.959 . S
H1516 C1531 0.959 . S
H1517 C1531 0.961 . S
H1518 C1532 0.960 . S
H1519 C1532 0.961 . S
H1520 C1532 0.959 . S
H1521 C1535 0.929 . S
H1522 C1536 0.931 . S
H1523 C1538 0.930 . S
C1524 H1512 0.930 . S
C1524 C1525 1.399 . S
C1524 C1529 1.399 . S
C1525 C1524 1.399 . S
C1525 C1526 1.376 . S
C1526 H1513 0.930 . S
C1526 C1525 1.376 . S
C1526 C1527 1.388 . S
C1527 H1514 0.930 . S
C1527 C1526 1.388 . S
C1527 C1528 1.390 . S
C1528 C1527 1.390 . S
C1528 C1529 1.394 . S
C1528 C1534 1.465 . S
C1529 C1524 1.399 . S
C1529 C1528 1.394 . S
C1529 C1530 1.516 . S
C1530 C1529 1.516 . S
C1530 C1531 1.502 . S
C1530 C1532 1.561 . S
C1530 C1533 1.526 . S
C1531 H1515 0.959 . S
C1531 H1516 0.959 . S
C1531 H1517 0.961 . S
C1531 C1530 1.502 . S
C1532 H1518 0.960 . S
C1532 H1519 0.961 . S
C1532 H1520 0.959 . S
C1532 C1530 1.561 . S
C1533 C1530 1.526 . S
C1533 C1534 1.396 . S
C1533 C1538 1.390 . S
C1534 C1528 1.465 . S
C1534 C1533 1.396 . S
C1534 C1535 1.399 . S
C1535 H1521 0.929 . S
C1535 C1534 1.399 . S
C1535 C1536 1.385 . S
C1536 H1522 0.931 . S
C1536 C1535 1.385 . S
C1536 C1537 1.389 . S
C1537 C1536 1.389 . S
C1537 C1538 1.387 . S
C1538 H1523 0.930 . S
C1538 C1533 1.390 . S
C1538 C1537 1.387 . S
H1539 C1551 0.930 . S
H1540 C1553 0.930 . S
H1541 C1554 0.930 . S
H1542 C1558 0.959 . S
H1543 C1558 0.959 . S
H1544 C1558 0.961 . S
H1545 C1559 0.960 . S
H1546 C1559 0.961 . S
H1547 C1559 0.959 . S
H1548 C1562 0.929 . S
H1549 C1563 0.931 . S
H1550 C1565 0.930 . S
C1551 H1539 0.930 . S
C1551 C1552 1.399 . S
C1551 C1556 1.399 . S
C1552 C1551 1.399 . S
C1552 C1553 1.376 . S
C1553 H1540 0.930 . S
C1553 C1552 1.376 . S
C1553 C1554 1.388 . S
C1554 H1541 0.930 . S
C1554 C1553 1.388 . S
C1554 C1555 1.390 . S
C1555 C1554 1.390 . S
C1555 C1556 1.394 . S
C1555 C1561 1.465 . S
C1556 C1551 1.399 . S
C1556 C1555 1.394 . S
C1556 C1557 1.516 . S
C1557 C1556 1.516 . S
C1557 C1558 1.502 . S
C1557 C1559 1.561 . S
C1557 C1560 1.526 . S
C1558 H1542 0.959 . S
C1558 H1543 0.959 . S
C1558 H1544 0.961 . S
C1558 C1557 1.502 . S
C1559 H1545 0.960 . S
C1559 H1546 0.961 . S
C1559 H1547 0.959 . S
C1559 C1557 1.561 . S
C1560 C1557 1.526 . S
C1560 C1561 1.396 . S
C1560 C1565 1.390 . S
C1561 C1555 1.465 . S
C1561 C1560 1.396 . S
C1561 C1562 1.399 . S
C1562 H1548 0.929 . S
C1562 C1561 1.399 . S
C1562 C1563 1.385 . S
C1563 H1549 0.931 . S
C1563 C1562 1.385 . S
C1563 C1564 1.389 . S
C1564 C1563 1.389 . S
C1564 C1565 1.387 . S
C1565 H1550 0.930 . S
C1565 C1560 1.390 . S
C1565 C1564 1.387 . S
H1566 C1578 0.930 . S
H1567 C1580 0.930 . S
H1568 C1581 0.930 . S
H1569 C1585 0.959 . S
H1570 C1585 0.959 . S
H1571 C1585 0.961 . S
H1572 C1586 0.960 . S
H1573 C1586 0.961 . S
H1574 C1586 0.959 . S
H1575 C1589 0.929 . S
H1576 C1590 0.931 . S
H1577 C1592 0.930 . S
C1578 H1566 0.930 . S
C1578 C1579 1.399 . S
C1578 C1583 1.399 . S
C1579 C1578 1.399 . S
C1579 C1580 1.376 . S
C1580 H1567 0.930 . S
C1580 C1579 1.376 . S
C1580 C1581 1.388 . S
C1581 H1568 0.930 . S
C1581 C1580 1.388 . S
C1581 C1582 1.390 . S
C1582 C1581 1.390 . S
C1582 C1583 1.394 . S
C1582 C1588 1.465 . S
C1583 C1578 1.399 . S
C1583 C1582 1.394 . S
C1583 C1584 1.516 . S
C1584 C1583 1.516 . S
C1584 C1585 1.502 . S
C1584 C1586 1.561 . S
C1584 C1587 1.526 . S
C1585 H1569 0.959 . S
C1585 H1570 0.959 . S
C1585 H1571 0.961 . S
C1585 C1584 1.502 . S
C1586 H1572 0.960 . S
C1586 H1573 0.961 . S
C1586 H1574 0.959 . S
C1586 C1584 1.561 . S
C1587 C1584 1.526 . S
C1587 C1588 1.396 . S
C1587 C1592 1.390 . S
C1588 C1582 1.465 . S
C1588 C1587 1.396 . S
C1588 C1589 1.399 . S
C1589 H1575 0.929 . S
C1589 C1588 1.399 . S
C1589 C1590 1.385 . S
C1590 H1576 0.931 . S
C1590 C1589 1.385 . S
C1590 C1591 1.389 . S
C1591 C1590 1.389 . S
C1591 C1592 1.387 . S
C1592 H1577 0.930 . S
C1592 C1587 1.390 . S
C1592 C1591 1.387 . S
H1593 C1605 0.930 . S
H1594 C1607 0.930 . S
H1595 C1608 0.930 . S
H1596 C1612 0.959 . S
H1597 C1612 0.959 . S
H1598 C1612 0.961 . S
H1599 C1613 0.960 . S
H1600 C1613 0.961 . S
H1601 C1613 0.959 . S
H1602 C1616 0.929 . S
H1603 C1617 0.931 . S
H1604 C1619 0.930 . S
C1605 H1593 0.930 . S
C1605 C1606 1.399 . S
C1605 C1610 1.399 . S
C1606 C1605 1.399 . S
C1606 C1607 1.376 . S
C1607 H1594 0.930 . S
C1607 C1606 1.376 . S
C1607 C1608 1.388 . S
C1608 H1595 0.930 . S
C1608 C1607 1.388 . S
C1608 C1609 1.390 . S
C1609 C1608 1.390 . S
C1609 C1610 1.394 . S
C1609 C1615 1.465 . S
C1610 C1605 1.399 . S
C1610 C1609 1.394 . S
C1610 C1611 1.516 . S
C1611 C1610 1.516 . S
C1611 C1612 1.502 . S
C1611 C1613 1.561 . S
C1611 C1614 1.526 . S
C1612 H1596 0.959 . S
C1612 H1597 0.959 . S
C1612 H1598 0.961 . S
C1612 C1611 1.502 . S
C1613 H1599 0.960 . S
C1613 H1600 0.961 . S
C1613 H1601 0.959 . S
C1613 C1611 1.561 . S
C1614 C1611 1.526 . S
C1614 C1615 1.396 . S
C1614 C1619 1.390 . S
C1615 C1609 1.465 . S
C1615 C1614 1.396 . S
C1615 C1616 1.399 . S
C1616 H1602 0.929 . S
C1616 C1615 1.399 . S
C1616 C1617 1.385 . S
C1617 H1603 0.931 . S
C1617 C1616 1.385 . S
C1617 C1618 1.389 . S
C1618 C1617 1.389 . S
C1618 C1619 1.387 . S
C1619 H1604 0.930 . S
C1619 C1614 1.390 . S
C1619 C1618 1.387 . S
H1620 C1632 0.930 . S
H1621 C1634 0.930 . S
H1622 C1635 0.930 . S
H1623 C1639 0.959 . S
H1624 C1639 0.959 . S
H1625 C1639 0.961 . S
H1626 C1640 0.960 . S
H1627 C1640 0.961 . S
H1628 C1640 0.959 . S
H1629 C1643 0.929 . S
H1630 C1644 0.931 . S
H1631 C1646 0.930 . S
C1632 H1620 0.930 . S
C1632 C1633 1.399 . S
C1632 C1637 1.399 . S
C1633 C1632 1.399 . S
C1633 C1634 1.376 . S
C1634 H1621 0.930 . S
C1634 C1633 1.376 . S
C1634 C1635 1.388 . S
C1635 H1622 0.930 . S
C1635 C1634 1.388 . S
C1635 C1636 1.390 . S
C1636 C1635 1.390 . S
C1636 C1637 1.394 . S
C1636 C1642 1.465 . S
C1637 C1632 1.399 . S
C1637 C1636 1.394 . S
C1637 C1638 1.516 . S
C1638 C1637 1.516 . S
C1638 C1639 1.502 . S
C1638 C1640 1.561 . S
C1638 C1641 1.526 . S
C1639 H1623 0.959 . S
C1639 H1624 0.959 . S
C1639 H1625 0.961 . S
C1639 C1638 1.502 . S
C1640 H1626 0.960 . S
C1640 H1627 0.961 . S
C1640 H1628 0.959 . S
C1640 C1638 1.561 . S
C1641 C1638 1.526 . S
C1641 C1642 1.396 . S
C1641 C1646 1.390 . S
C1642 C1636 1.465 . S
C1642 C1641 1.396 . S
C1642 C1643 1.399 . S
C1643 H1629 0.929 . S
C1643 C1642 1.399 . S
C1643 C1644 1.385 . S
C1644 H1630 0.931 . S
C1644 C1643 1.385 . S
C1644 C1645 1.389 . S
C1645 C1644 1.389 . S
C1645 C1646 1.387 . S
C1646 H1631 0.930 . S
C1646 C1641 1.390 . S
C1646 C1645 1.387 . S
H1647 C1659 0.930 . S
H1648 C1661 0.930 . S
H1649 C1662 0.930 . S
H1650 C1666 0.959 . S
H1651 C1666 0.959 . S
H1652 C1666 0.961 . S
H1653 C1667 0.960 . S
H1654 C1667 0.961 . S
H1655 C1667 0.959 . S
H1656 C1670 0.929 . S
H1657 C1671 0.931 . S
H1658 C1673 0.930 . S
C1659 H1647 0.930 . S
C1659 C1660 1.399 . S
C1659 C1664 1.399 . S
C1660 C1659 1.399 . S
C1660 C1661 1.376 . S
C1661 H1648 0.930 . S
C1661 C1660 1.376 . S
C1661 C1662 1.388 . S
C1662 H1649 0.930 . S
C1662 C1661 1.388 . S
C1662 C1663 1.390 . S
C1663 C1662 1.390 . S
C1663 C1664 1.394 . S
C1663 C1669 1.465 . S
C1664 C1659 1.399 . S
C1664 C1663 1.394 . S
C1664 C1665 1.516 . S
C1665 C1664 1.516 . S
C1665 C1666 1.502 . S
C1665 C1667 1.561 . S
C1665 C1668 1.526 . S
C1666 H1650 0.959 . S
C1666 H1651 0.959 . S
C1666 H1652 0.961 . S
C1666 C1665 1.502 . S
C1667 H1653 0.960 . S
C1667 H1654 0.961 . S
C1667 H1655 0.959 . S
C1667 C1665 1.561 . S
C1668 C1665 1.526 . S
C1668 C1669 1.396 . S
C1668 C1673 1.390 . S
C1669 C1663 1.465 . S
C1669 C1668 1.396 . S
C1669 C1670 1.399 . S
C1670 H1656 0.929 . S
C1670 C1669 1.399 . S
C1670 C1671 1.385 . S
C1671 H1657 0.931 . S
C1671 C1670 1.385 . S
C1671 C1672 1.389 . S
C1672 C1671 1.389 . S
C1672 C1673 1.387 . S
C1673 H1658 0.930 . S
C1673 C1668 1.390 . S
C1673 C1672 1.387 . S
H1674 C1686 0.930 . S
H1675 C1688 0.930 . S
H1676 C1689 0.930 . S
H1677 C1693 0.959 . S
H1678 C1693 0.959 . S
H1679 C1693 0.961 . S
H1680 C1694 0.960 . S
H1681 C1694 0.961 . S
H1682 C1694 0.959 . S
H1683 C1697 0.929 . S
H1684 C1698 0.931 . S
H1685 C1700 0.930 . S
C1686 H1674 0.930 . S
C1686 C1687 1.399 . S
C1686 C1691 1.399 . S
C1687 C1686 1.399 . S
C1687 C1688 1.376 . S
C1688 H1675 0.930 . S
C1688 C1687 1.376 . S
C1688 C1689 1.388 . S
C1689 H1676 0.930 . S
C1689 C1688 1.388 . S
C1689 C1690 1.390 . S
C1690 C1689 1.390 . S
C1690 C1691 1.394 . S
C1690 C1696 1.465 . S
C1691 C1686 1.399 . S
C1691 C1690 1.394 . S
C1691 C1692 1.516 . S
C1692 C1691 1.516 . S
C1692 C1693 1.502 . S
C1692 C1694 1.561 . S
C1692 C1695 1.526 . S
C1693 H1677 0.959 . S
C1693 H1678 0.959 . S
C1693 H1679 0.961 . S
C1693 C1692 1.502 . S
C1694 H1680 0.960 . S
C1694 H1681 0.961 . S
C1694 H1682 0.959 . S
C1694 C1692 1.561 . S
C1695 C1692 1.526 . S
C1695 C1696 1.396 . S
C1695 C1700 1.390 . S
C1696 C1690 1.465 . S
C1696 C1695 1.396 . S
C1696 C1697 1.399 . S
C1697 H1683 0.929 . S
C1697 C1696 1.399 . S
C1697 C1698 1.385 . S
C1698 H1684 0.931 . S
C1698 C1697 1.385 . S
C1698 C1699 1.389 . S
C1699 C1698 1.389 . S
C1699 C1700 1.387 . S
C1700 H1685 0.930 . S
C1700 C1695 1.390 . S
C1700 C1699 1.387 . S
H1701 C1713 0.930 . S
H1702 C1715 0.930 . S
H1703 C1716 0.930 . S
H1704 C1720 0.959 . S
H1705 C1720 0.959 . S
H1706 C1720 0.961 . S
H1707 C1721 0.960 . S
H1708 C1721 0.961 . S
H1709 C1721 0.959 . S
H1710 C1724 0.929 . S
H1711 C1725 0.931 . S
H1712 C1727 0.930 . S
C1713 H1701 0.930 . S
C1713 C1714 1.399 . S
C1713 C1718 1.399 . S
C1714 C1713 1.399 . S
C1714 C1715 1.376 . S
C1715 H1702 0.930 . S
C1715 C1714 1.376 . S
C1715 C1716 1.388 . S
C1716 H1703 0.930 . S
C1716 C1715 1.388 . S
C1716 C1717 1.390 . S
C1717 C1716 1.390 . S
C1717 C1718 1.394 . S
C1717 C1723 1.465 . S
C1718 C1713 1.399 . S
C1718 C1717 1.394 . S
C1718 C1719 1.516 . S
C1719 C1718 1.516 . S
C1719 C1720 1.502 . S
C1719 C1721 1.561 . S
C1719 C1722 1.526 . S
C1720 H1704 0.959 . S
C1720 H1705 0.959 . S
C1720 H1706 0.961 . S
C1720 C1719 1.502 . S
C1721 H1707 0.960 . S
C1721 H1708 0.961 . S
C1721 H1709 0.959 . S
C1721 C1719 1.561 . S
C1722 C1719 1.526 . S
C1722 C1723 1.396 . S
C1722 C1727 1.390 . S
C1723 C1717 1.465 . S
C1723 C1722 1.396 . S
C1723 C1724 1.399 . S
C1724 H1710 0.929 . S
C1724 C1723 1.399 . S
C1724 C1725 1.385 . S
C1725 H1711 0.931 . S
C1725 C1724 1.385 . S
C1725 C1726 1.389 . S
C1726 C1725 1.389 . S
C1726 C1727 1.387 . S
C1727 H1712 0.930 . S
C1727 C1722 1.390 . S
C1727 C1726 1.387 . S
H1728 C1740 0.930 . S
H1729 C1742 0.930 . S
H1730 C1743 0.930 . S
H1731 C1747 0.959 . S
H1732 C1747 0.959 . S
H1733 C1747 0.961 . S
H1734 C1748 0.960 . S
H1735 C1748 0.961 . S
H1736 C1748 0.959 . S
H1737 C1751 0.929 . S
H1738 C1752 0.931 . S
H1739 C1754 0.930 . S
C1740 H1728 0.930 . S
C1740 C1741 1.399 . S
C1740 C1745 1.399 . S
C1741 C1740 1.399 . S
C1741 C1742 1.376 . S
C1742 H1729 0.930 . S
C1742 C1741 1.376 . S
C1742 C1743 1.388 . S
C1743 H1730 0.930 . S
C1743 C1742 1.388 . S
C1743 C1744 1.390 . S
C1744 C1743 1.390 . S
C1744 C1745 1.394 . S
C1744 C1750 1.465 . S
C1745 C1740 1.399 . S
C1745 C1744 1.394 . S
C1745 C1746 1.516 . S
C1746 C1745 1.516 . S
C1746 C1747 1.502 . S
C1746 C1748 1.561 . S
C1746 C1749 1.526 . S
C1747 H1731 0.959 . S
C1747 H1732 0.959 . S
C1747 H1733 0.961 . S
C1747 C1746 1.502 . S
C1748 H1734 0.960 . S
C1748 H1735 0.961 . S
C1748 H1736 0.959 . S
C1748 C1746 1.561 . S
C1749 C1746 1.526 . S
C1749 C1750 1.396 . S
C1749 C1754 1.390 . S
C1750 C1744 1.465 . S
C1750 C1749 1.396 . S
C1750 C1751 1.399 . S
C1751 H1737 0.929 . S
C1751 C1750 1.399 . S
C1751 C1752 1.385 . S
C1752 H1738 0.931 . S
C1752 C1751 1.385 . S
C1752 C1753 1.389 . S
C1753 C1752 1.389 . S
C1753 C1754 1.387 . S
C1754 H1739 0.930 . S
C1754 C1749 1.390 . S
C1754 C1753 1.387 . S
H1755 C1767 0.930 . S
H1756 C1769 0.930 . S
H1757 C1770 0.930 . S
H1758 C1774 0.959 . S
H1759 C1774 0.959 . S
H1760 C1774 0.961 . S
H1761 C1775 0.960 . S
H1762 C1775 0.961 . S
H1763 C1775 0.959 . S
H1764 C1778 0.929 . S
H1765 C1779 0.931 . S
H1766 C1781 0.930 . S
C1767 H1755 0.930 . S
C1767 C1768 1.399 . S
C1767 C1772 1.399 . S
C1768 C1767 1.399 . S
C1768 C1769 1.376 . S
C1769 H1756 0.930 . S
C1769 C1768 1.376 . S
C1769 C1770 1.388 . S
C1770 H1757 0.930 . S
C1770 C1769 1.388 . S
C1770 C1771 1.390 . S
C1771 C1770 1.390 . S
C1771 C1772 1.394 . S
C1771 C1777 1.465 . S
C1772 C1767 1.399 . S
C1772 C1771 1.394 . S
C1772 C1773 1.516 . S
C1773 C1772 1.516 . S
C1773 C1774 1.502 . S
C1773 C1775 1.561 . S
C1773 C1776 1.526 . S
C1774 H1758 0.959 . S
C1774 H1759 0.959 . S
C1774 H1760 0.961 . S
C1774 C1773 1.502 . S
C1775 H1761 0.960 . S
C1775 H1762 0.961 . S
C1775 H1763 0.959 . S
C1775 C1773 1.561 . S
C1776 C1773 1.526 . S
C1776 C1777 1.396 . S
C1776 C1781 1.390 . S
C1777 C1771 1.465 . S
C1777 C1776 1.396 . S
C1777 C1778 1.399 . S
C1778 H1764 0.929 . S
C1778 C1777 1.399 . S
C1778 C1779 1.385 . S
C1779 H1765 0.931 . S
C1779 C1778 1.385 . S
C1779 C1780 1.389 . S
C1780 C1779 1.389 . S
C1780 C1781 1.387 . S
C1781 H1766 0.930 . S
C1781 C1776 1.390 . S
C1781 C1780 1.387 . S
H1782 C1794 0.930 . S
H1783 C1796 0.930 . S
H1784 C1797 0.930 . S
H1785 C1801 0.959 . S
H1786 C1801 0.959 . S
H1787 C1801 0.961 . S
H1788 C1802 0.960 . S
H1789 C1802 0.961 . S
H1790 C1802 0.959 . S
H1791 C1805 0.929 . S
H1792 C1806 0.931 . S
H1793 C1808 0.930 . S
C1794 H1782 0.930 . S
C1794 C1795 1.399 . S
C1794 C1799 1.399 . S
C1795 C1794 1.399 . S
C1795 C1796 1.376 . S
C1796 H1783 0.930 . S
C1796 C1795 1.376 . S
C1796 C1797 1.388 . S
C1797 H1784 0.930 . S
C1797 C1796 1.388 . S
C1797 C1798 1.390 . S
C1798 C1797 1.390 . S
C1798 C1799 1.394 . S
C1798 C1804 1.465 . S
C1799 C1794 1.399 . S
C1799 C1798 1.394 . S
C1799 C1800 1.516 . S
C1800 C1799 1.516 . S
C1800 C1801 1.502 . S
C1800 C1802 1.561 . S
C1800 C1803 1.526 . S
C1801 H1785 0.959 . S
C1801 H1786 0.959 . S
C1801 H1787 0.961 . S
C1801 C1800 1.502 . S
C1802 H1788 0.960 . S
C1802 H1789 0.961 . S
C1802 H1790 0.959 . S
C1802 C1800 1.561 . S
C1803 C1800 1.526 . S
C1803 C1804 1.396 . S
C1803 C1808 1.390 . S
C1804 C1798 1.465 . S
C1804 C1803 1.396 . S
C1804 C1805 1.399 . S
C1805 H1791 0.929 . S
C1805 C1804 1.399 . S
C1805 C1806 1.385 . S
C1806 H1792 0.931 . S
C1806 C1805 1.385 . S
C1806 C1807 1.389 . S
C1807 C1806 1.389 . S
C1807 C1808 1.387 . S
C1808 H1793 0.930 . S
C1808 C1803 1.390 . S
C1808 C1807 1.387 . S
H1809 C1821 0.930 . S
H1810 C1823 0.930 . S
H1811 C1824 0.930 . S
H1812 C1828 0.959 . S
H1813 C1828 0.959 . S
H1814 C1828 0.961 . S
H1815 C1829 0.960 . S
H1816 C1829 0.961 . S
H1817 C1829 0.959 . S
H1818 C1832 0.929 . S
H1819 C1833 0.931 . S
H1820 C1835 0.930 . S
C1821 H1809 0.930 . S
C1821 C1822 1.399 . S
C1821 C1826 1.399 . S
C1822 C1821 1.399 . S
C1822 C1823 1.376 . S
C1823 H1810 0.930 . S
C1823 C1822 1.376 . S
C1823 C1824 1.388 . S
C1824 H1811 0.930 . S
C1824 C1823 1.388 . S
C1824 C1825 1.390 . S
C1825 C1824 1.390 . S
C1825 C1826 1.394 . S
C1825 C1831 1.465 . S
C1826 C1821 1.399 . S
C1826 C1825 1.394 . S
C1826 C1827 1.516 . S
C1827 C1826 1.516 . S
C1827 C1828 1.502 . S
C1827 C1829 1.561 . S
C1827 C1830 1.526 . S
C1828 H1812 0.959 . S
C1828 H1813 0.959 . S
C1828 H1814 0.961 . S
C1828 C1827 1.502 . S
C1829 H1815 0.960 . S
C1829 H1816 0.961 . S
C1829 H1817 0.959 . S
C1829 C1827 1.561 . S
C1830 C1827 1.526 . S
C1830 C1831 1.396 . S
C1830 C1835 1.390 . S
C1831 C1825 1.465 . S
C1831 C1830 1.396 . S
C1831 C1832 1.399 . S
C1832 H1818 0.929 . S
C1832 C1831 1.399 . S
C1832 C1833 1.385 . S
C1833 H1819 0.931 . S
C1833 C1832 1.385 . S
C1833 C1834 1.389 . S
C1834 C1833 1.389 . S
C1834 C1835 1.387 . S
C1835 H1820 0.930 . S
C1835 C1830 1.390 . S
C1835 C1834 1.387 . S
C391 C147 1.557 . S
C403 C204 1.513 . S
C418 C158 1.517 . S
C430 C224 1.463 . S
C445 C136 1.488 . S
C457 C247 1.523 . S
C472 C125 1.424 . S
C484 C227 1.420 1_556 S
C511 C244 1.413 . S
C499 C103 1.444 . S
C526 C114 1.473 . S
C538 C207 1.459 . S
C565 C214 1.511 . S
C553 C131 1.583 . S
C592 C234 1.397 . S
C580 C109 1.466 . S
C607 C120 1.564 . S
C619 C239 1.531 . S
C634 C153 1.450 . S
C646 C219 1.470 . S
C661 C164 1.439 . S
C673 C254 1.412 . S
C700 C199 1.546 . S
C688 C142 1.502 . S
C727 C264 1.528 . S
C715 C15 1.550 . S
C742 C26 1.513 . S
C754 C284 1.472 . S
C769 C4 1.498 . S
C781 C307 1.514 . S
C796 C191 1.403 . S
C808 C287 1.435 . S
C823 C169 1.445 . S
C835 C304 1.407 . S
C850 C180 1.454 . S
C862 C267 1.468 . S
C877 C197 1.583 . S
C889 C274 1.510 . S
C904 C175 1.434 . S
C916 C294 1.464 . S
C943 C299 1.529 . S
C931 C186 1.554 . S
C958 C21 1.423 . S
C970 C279 1.478 . S
C997 C314 1.415 . S
C985 C32 1.437 . S
C1012 C10 1.506 . S
C1024 C259 1.553 . S
C1051 C324 1.519 . S
C1039 C81 1.554 . S
C1066 C92 1.497 . S
C1078 C344 1.512 . S
C1105 C367 1.523 . S
C1093 C70 1.487 . S
C1132 C347 1.411 . S
C1120 C59 1.434 . S
C1159 C364 1.404 . S
C1147 C37 1.446 . S
C1174 C48 1.471 . S
C1186 C327 1.461 . S
C1201 C65 1.539 . S
C1213 C334 1.559 . S
C1228 C43 1.453 . S
C1240 C354 1.410 . S
C1267 C359 1.529 . S
C1255 C54 1.557 . S
C1282 C87 1.473 . S
C1294 C339 1.442 . S
C1309 C98 1.453 . S
C1321 C374 1.392 . S
C1336 C76 1.551 . S
C1348 C319 1.515 . S
C1363 C170 1.362 . S
C1375 C217 1.320 . S
C1402 C237 1.655 . S
C1390 C181 1.694 . S
C1417 C192 1.496 . S
C1429 C246 1.502 . S
C1444 C71 1.657 . S
C1456 C226 1.648 . S
C1471 C82 1.587 . S
C1483 C257 1.491 . S
C1510 C206 1.341 . S
C1498 C93 1.342 . S
C1525 C38 1.349 . S
C1537 C277 1.277 . S
C1552 C49 1.694 . S
C1564 C297 1.654 . S
C1579 C60 1.490 . S
C1591 C306 1.459 . S
C1606 C137 1.659 . S
C1618 C286 1.651 . S
C1645 C317 1.491 . S
C1633 C148 1.587 . S
C1660 C159 1.310 . S
C1672 C266 1.272 . S
C1687 C104 1.347 . S
C1699 C337 1.284 . S
C1714 C115 1.719 . S
C1726 C357 1.603 . S
C1753 C366 1.453 . S
C1741 C126 1.522 . S
C1768 C5 1.655 . S
C1780 C346 1.645 . S
C1795 C16 1.564 . S
C1807 C377 1.550 . S
C1822 C27 1.335 . S
C1834 C326 1.282 . S
