# Generated by pormake.
# Topology nom, (4,4)-cn, num edge types: 1
# Building blocks:
#     Node 0, Type 0, BuildingBlock: MIFKUJ_clean_linker_1, # of connection points: 4
#     Node 1, Type 0, BuildingBlock: MIFKUJ_clean_linker_1, # of connection points: 4
#     Node 2, Type 0, BuildingBlock: MIFKUJ_clean_linker_1, # of connection points: 4
#     Node 3, Type 0, BuildingBlock: MIFKUJ_clean_linker_1, # of connection points: 4
#     Node 4, Type 0, BuildingBlock: MIFKUJ_clean_linker_1, # of connection points: 4
#     Node 5, Type 0, BuildingBlock: MIFKUJ_clean_linker_1, # of connection points: 4
#     Node 6, Type 1, BuildingBlock: UXUYUI_clean_sbu_0, # of connection points: 4
#     Node 7, Type 1, BuildingBlock: UXUYUI_clean_sbu_0, # of connection points: 4
#     Node 8, Type 1, BuildingBlock: UXUYUI_clean_sbu_0, # of connection points: 4
#     Node 9, Type 1, BuildingBlock: UXUYUI_clean_sbu_0, # of connection points: 4
#     Node 10, Type 1, BuildingBlock: UXUYUI_clean_sbu_0, # of connection points: 4
#     Node 11, Type 1, BuildingBlock: UXUYUI_clean_sbu_0, # of connection points: 4
#     Edge 12, Type (0, 1), BuildingBlock: KIFKEQ_clean_linker_1, # of connection points: 2
#     Edge 13, Type (0, 1), BuildingBlock: KIFKEQ_clean_linker_1, # of connection points: 2
#     Edge 14, Type (0, 1), BuildingBlock: KIFKEQ_clean_linker_1, # of connection points: 2
#     Edge 15, Type (0, 1), BuildingBlock: KIFKEQ_clean_linker_1, # of connection points: 2
#     Edge 16, Type (0, 1), BuildingBlock: KIFKEQ_clean_linker_1, # of connection points: 2
#     Edge 17, Type (0, 1), BuildingBlock: KIFKEQ_clean_linker_1, # of connection points: 2
#     Edge 18, Type (0, 1), BuildingBlock: KIFKEQ_clean_linker_1, # of connection points: 2
#     Edge 19, Type (0, 1), BuildingBlock: KIFKEQ_clean_linker_1, # of connection points: 2
#     Edge 20, Type (0, 1), BuildingBlock: KIFKEQ_clean_linker_1, # of connection points: 2
#     Edge 21, Type (0, 1), BuildingBlock: KIFKEQ_clean_linker_1, # of connection points: 2
#     Edge 22, Type (0, 1), BuildingBlock: KIFKEQ_clean_linker_1, # of connection points: 2
#     Edge 23, Type (0, 1), BuildingBlock: KIFKEQ_clean_linker_1, # of connection points: 2
#     Edge 24, Type (0, 1), BuildingBlock: KIFKEQ_clean_linker_1, # of connection points: 2
#     Edge 25, Type (0, 1), BuildingBlock: KIFKEQ_clean_linker_1, # of connection points: 2
#     Edge 26, Type (0, 1), BuildingBlock: KIFKEQ_clean_linker_1, # of connection points: 2
#     Edge 27, Type (0, 1), BuildingBlock: KIFKEQ_clean_linker_1, # of connection points: 2
#     Edge 28, Type (0, 1), BuildingBlock: KIFKEQ_clean_linker_1, # of connection points: 2
#     Edge 29, Type (0, 1), BuildingBlock: KIFKEQ_clean_linker_1, # of connection points: 2
#     Edge 30, Type (0, 1), BuildingBlock: KIFKEQ_clean_linker_1, # of connection points: 2
#     Edge 31, Type (0, 1), BuildingBlock: KIFKEQ_clean_linker_1, # of connection points: 2
#     Edge 32, Type (0, 1), BuildingBlock: KIFKEQ_clean_linker_1, # of connection points: 2
#     Edge 33, Type (0, 1), BuildingBlock: KIFKEQ_clean_linker_1, # of connection points: 2
#     Edge 34, Type (0, 1), BuildingBlock: KIFKEQ_clean_linker_1, # of connection points: 2
#     Edge 35, Type (0, 1), BuildingBlock: KIFKEQ_clean_linker_1, # of connection points: 2
# Relax obj value: 0.035
# Max RMSD: 0.144
# Mean RMSD: 0.118
data_MOF--net-nom--node1-UXUYUI_clean_sbu_0--node2-MIFKUJ_clean_linker_1--edge1-KIFKEQ_clean_linker_1
_symmetry_space_group_name_H-M    P1
_symmetry_Int_Tables_number       1
_symmetry_cell_setting            triclinic
loop_
_symmetry_equiv_pos_as_xyz
'x, y, z'
_cell_length_a     64.161067
_cell_length_b     64.121677
_cell_length_c     68.248788
_cell_angle_alpha  90.01931
_cell_angle_beta   89.99992
_cell_angle_gamma 120.00567
loop_
_atom_site_label
_atom_site_type_symbol
_atom_site_fract_x
_atom_site_fract_y
_atom_site_fract_z
_atom_type_partial_charge
H0 H 0.99559 0.48201 0.29227 0.0
H1 H 0.96676 0.46574 0.26523 0.0
H2 H 0.93904 0.51248 0.28131 0.0
H3 H 0.96823 0.52893 0.30821 0.0
H4 H 0.03154 0.53089 0.29869 0.0
H5 H 0.95577 0.46965 0.32903 0.0
H6 H 0.91361 0.45344 0.33862 0.0
H7 H 0.93351 0.51808 0.3718 0.0
H8 H 0.97535 0.53457 0.3617 0.0
H9 H 0.0409 0.56312 0.37973 0.0
H10 H 0.06918 0.57483 0.40702 0.0
H11 H 0.09983 0.53449 0.3814 0.0
H12 H 0.07186 0.52339 0.35392 0.0
H13 H 0.00652 0.52044 0.36841 0.0
H14 H 0.07339 0.5844 0.34061 0.0
H15 H 0.11449 0.61201 0.33014 0.0
H16 H 0.11198 0.5571 0.29184 0.0
H17 H 0.07101 0.5291 0.30305 0.0
C18 C 0.98391 0.50652 0.3023 0.0
C19 C 0.98331 0.48875 0.28994 0.0
C20 C 0.96671 0.47935 0.27461 0.0
C21 C 0.95055 0.48774 0.27121 0.0
C22 C 0.95136 0.50576 0.2835 0.0
C23 C 0.96791 0.51507 0.29893 0.0
C24 C 0.0015 0.51613 0.3186 0.0
C25 C 0.02611 0.52825 0.31396 0.0
C26 C 0.99431 0.51405 0.33845 0.0
C27 C 0.96873 0.50349 0.34442 0.0
C28 C 0.95103 0.48046 0.33815 0.0
C29 C 0.92698 0.47117 0.34369 0.0
C30 C 0.92037 0.48452 0.35596 0.0
C31 C 0.93817 0.50733 0.36249 0.0
C32 C 0.96206 0.51674 0.35672 0.0
C33 C 0.05431 0.54244 0.36476 0.0
C34 C 0.05376 0.55685 0.38 0.0
C35 C 0.06988 0.56343 0.39564 0.0
C36 C 0.08674 0.5555 0.3965 0.0
C37 C 0.08735 0.54121 0.38111 0.0
C38 C 0.07132 0.53478 0.3654 0.0
C39 C 0.03658 0.53471 0.34853 0.0
C40 C 0.012 0.52293 0.35315 0.0
C41 C 0.04375 0.53831 0.32865 0.0
C42 C 0.06919 0.55453 0.32284 0.0
C43 C 0.08181 0.5781 0.33025 0.0
C44 C 0.10523 0.59401 0.32403 0.0
C45 C 0.11649 0.58683 0.31006 0.0
C46 C 0.10391 0.56313 0.30276 0.0
C47 C 0.08045 0.54715 0.30906 0.0
H48 H 0.45672 0.97584 0.52513 0.0
H49 H 0.43101 0.93434 0.53583 0.0
H50 H 0.47958 0.9145 0.50888 0.0
H51 H 0.50531 0.95625 0.49811 0.0
H52 H 0.50317 0.0074 0.53415 0.0
H53 H 0.45781 0.96681 0.47469 0.0
H54 H 0.44519 0.93718 0.4482 0.0
H55 H 0.51957 0.96613 0.43135 0.0
H56 H 0.53205 0.99519 0.45819 0.0
H57 H 0.56248 0.07029 0.46977 0.0
H58 H 0.57761 0.11173 0.45863 0.0
H59 H 0.52185 0.1147 0.49198 0.0
H60 H 0.50718 0.07362 0.50321 0.0
H61 H 0.51996 0.03069 0.46416 0.0
H62 H 0.56641 0.07292 0.51873 0.0
H63 H 0.58318 0.10211 0.54543 0.0
H64 H 0.51282 0.07035 0.57223 0.0
H65 H 0.49599 0.04171 0.54511 0.0
C66 C 0.48286 0.96912 0.51073 0.0
C67 C 0.46191 0.96258 0.52159 0.0
C68 C 0.44727 0.93886 0.52776 0.0
C69 C 0.4533 0.92114 0.52328 0.0
C70 C 0.47433 0.9277 0.51239 0.0
C71 C 0.48905 0.95152 0.50624 0.0
C72 C 0.49811 0.9945 0.50442 0.0
C73 C 0.50665 0.01254 0.51883 0.0
C74 C 0.50378 0.0011 0.48452 0.0
C75 C 0.49589 0.98302 0.46855 0.0
C76 C 0.47138 0.96658 0.46541 0.0
C77 C 0.4642 0.94982 0.45015 0.0
C78 C 0.48139 0.94925 0.43768 0.0
C79 C 0.5059 0.96583 0.44085 0.0
C80 C 0.51305 0.98257 0.45609 0.0
C81 C 0.53391 0.06898 0.48752 0.0
C82 C 0.55363 0.07996 0.47472 0.0
C83 C 0.56217 0.1036 0.46831 0.0
C84 C 0.551 0.11659 0.47447 0.0
C85 C 0.53121 0.10544 0.48726 0.0
C86 C 0.52276 0.08191 0.49368 0.0
C87 C 0.52408 0.04363 0.49385 0.0
C88 C 0.51667 0.02561 0.4795 0.0
C89 C 0.5199 0.03702 0.51385 0.0
C90 C 0.52989 0.05521 0.52981 0.0
C91 C 0.55452 0.07245 0.5302 0.0
C92 C 0.56414 0.08897 0.5456 0.0
C93 C 0.54936 0.08853 0.561 0.0
C94 C 0.52466 0.07136 0.56049 0.0
C95 C 0.51504 0.05484 0.54508 0.0
H96 H 0.53312 0.55474 0.7029 0.0
H97 H 0.52137 0.57181 0.72992 0.0
H98 H 0.44652 0.5252 0.71506 0.0
H99 H 0.45842 0.50799 0.68818 0.0
H100 H 0.51941 0.5053 0.6972 0.0
H101 H 0.50695 0.56742 0.66445 0.0
H102 H 0.48183 0.5844 0.65439 0.0
H103 H 0.43175 0.51662 0.6272 0.0
H104 H 0.45692 0.49992 0.63714 0.0
H105 H 0.49567 0.4748 0.61471 0.0
H106 H 0.512 0.46334 0.58701 0.0
H107 H 0.5814 0.49601 0.61543 0.0
H108 H 0.56524 0.50803 0.64288 0.0
H109 H 0.50358 0.5146 0.62756 0.0
H110 H 0.50667 0.45061 0.65589 0.0
H111 H 0.52064 0.42332 0.66633 0.0
H112 H 0.57366 0.47905 0.70371 0.0
H113 H 0.5602 0.50665 0.69256 0.0
C114 C 0.49666 0.53024 0.69348 0.0
C115 C 0.51419 0.54822 0.70548 0.0
C116 C 0.50746 0.55807 0.7208 0.0
C117 C 0.48303 0.54991 0.72456 0.0
C118 C 0.46547 0.53174 0.7126 0.0
C119 C 0.47224 0.52201 0.69717 0.0
C120 C 0.50409 0.51999 0.67728 0.0
C121 C 0.51635 0.50763 0.68192 0.0
C122 C 0.49861 0.52166 0.65748 0.0
C123 C 0.48373 0.53237 0.65162 0.0
C124 C 0.49049 0.55622 0.65641 0.0
C125 C 0.47611 0.56588 0.65067 0.0
C126 C 0.45484 0.55188 0.63992 0.0
C127 C 0.44822 0.52802 0.63516 0.0
C128 C 0.46254 0.51842 0.6409 0.0
C129 C 0.52914 0.49217 0.631 0.0
C130 C 0.51442 0.47957 0.61499 0.0
C131 C 0.52376 0.47303 0.59916 0.0
C132 C 0.54796 0.4788 0.59908 0.0
C133 C 0.5626 0.49108 0.61521 0.0
C134 C 0.55334 0.49789 0.63093 0.0
C135 C 0.51952 0.50029 0.64734 0.0
C136 C 0.50686 0.51228 0.64278 0.0
C137 C 0.52337 0.49701 0.66726 0.0
C138 C 0.53258 0.48081 0.67324 0.0
C139 C 0.52158 0.45711 0.66609 0.0
C140 C 0.52938 0.44141 0.67227 0.0
C141 C 0.54821 0.44895 0.68593 0.0
C142 C 0.5593 0.47274 0.69302 0.0
C143 C 0.5515 0.48849 0.68677 0.0
H144 H 0.04439 0.56034 0.79413 0.0
H145 H 0.07372 0.57731 0.76757 0.0
H146 H 0.09751 0.52646 0.78041 0.0
H147 H 0.0685 0.51005 0.8073 0.0
H148 H 0.00675 0.51155 0.79883 0.0
H149 H 0.0819 0.56988 0.83228 0.0
H150 H 0.12384 0.58525 0.84203 0.0
H151 H 0.104 0.51632 0.86803 0.0
H152 H 0.06225 0.50117 0.85833 0.0
H153 H 0.99604 0.47465 0.87893 0.0
H154 H 0.96773 0.46264 0.90626 0.0
H155 H 0.9384 0.50483 0.88205 0.0
H156 H 0.96656 0.51652 0.85467 0.0
H157 H 0.03112 0.51645 0.86842 0.0
H158 H 0.96354 0.45573 0.83806 0.0
H159 H 0.92236 0.42994 0.82686 0.0
H160 H 0.92639 0.48924 0.79364 0.0
H161 H 0.96791 0.51501 0.80483 0.0
C162 C 0.05441 0.53408 0.80274 0.0
C163 C 0.05596 0.55289 0.7912 0.0
C164 C 0.07267 0.56248 0.77596 0.0
C165 C 0.08801 0.55325 0.7718 0.0
C166 C 0.08629 0.53428 0.78338 0.0
C167 C 0.06964 0.52479 0.79871 0.0
C168 C 0.03658 0.52407 0.81884 0.0
C169 C 0.01204 0.513 0.8141 0.0
C170 C 0.0435 0.52458 0.83859 0.0
C171 C 0.06898 0.53432 0.84447 0.0
C172 C 0.08665 0.55807 0.83998 0.0
C173 C 0.1106 0.56681 0.84554 0.0
C174 C 0.11725 0.55202 0.85584 0.0
C175 C 0.09944 0.52831 0.86039 0.0
C176 C 0.07557 0.51959 0.85479 0.0
C177 C 0.98337 0.49639 0.86469 0.0
C178 C 0.98348 0.48127 0.8795 0.0
C179 C 0.96734 0.4745 0.89516 0.0
C180 C 0.95083 0.48283 0.89639 0.0
C181 C 0.95062 0.4978 0.88142 0.0
C182 C 0.96674 0.50453 0.86576 0.0
C183 C 0.00121 0.50447 0.84851 0.0
C184 C 0.02574 0.51515 0.85319 0.0
C185 C 0.99424 0.50247 0.82862 0.0
C186 C 0.96873 0.48741 0.8225 0.0
C187 C 0.95546 0.46333 0.82862 0.0
C188 C 0.93186 0.44857 0.8222 0.0
C189 C 0.921 0.45753 0.80941 0.0
C190 C 0.9343 0.48171 0.80333 0.0
C191 C 0.95798 0.49649 0.80977 0.0
H192 H 0.58165 0.06215 0.02353 0.0
H193 H 0.60842 0.10372 0.03336 0.0
H194 H 0.56213 0.12502 0.00424 0.0
H195 H 0.53468 0.08299 0.99526 0.0
H196 H 0.53579 0.03216 0.03295 0.0
H197 H 0.57933 0.06693 0.97012 0.0
H198 H 0.59128 0.09561 0.94284 0.0
H199 H 0.51664 0.0736 0.93257 0.0
H200 H 0.50483 0.04494 0.95977 0.0
H201 H 0.47536 0.96712 0.96967 0.0
H202 H 0.46052 0.92562 0.95883 0.0
H203 H 0.51607 0.92319 0.99288 0.0
H204 H 0.53061 0.96443 0.00373 0.0
H205 H 0.51694 0.00627 0.96363 0.0
H206 H 0.47278 0.96383 0.01866 0.0
H207 H 0.45746 0.93536 0.04577 0.0
H208 H 0.52735 0.97309 0.07359 0.0
H209 H 0.54299 1.00029 0.04571 0.0
C210 C 0.55625 0.06944 0.0085 0.0
C211 C 0.57718 0.07575 0.01932 0.0
C212 C 0.59263 0.09961 0.02476 0.0
C213 C 0.58758 0.11781 0.01944 0.0
C214 C 0.5665 0.11145 0.00868 0.0
C215 C 0.55092 0.08746 0.00334 0.0
C216 C 0.54017 0.04386 0.00296 0.0
C217 C 0.53186 0.02638 0.0178 0.0
C218 C 0.53379 0.03649 0.98329 0.0
C219 C 0.54123 0.05396 0.96697 0.0
C220 C 0.5656 0.06836 0.96199 0.0
C221 C 0.57236 0.08461 0.94639 0.0
C222 C 0.55487 0.08684 0.93564 0.0
C223 C 0.5305 0.07242 0.94073 0.0
C224 C 0.52373 0.05598 0.95616 0.0
C225 C 0.50392 0.9688 0.9877 0.0
C226 C 0.48424 0.95757 0.97485 0.0
C227 C 0.47585 0.93389 0.96861 0.0
C228 C 0.48708 0.92105 0.97501 0.0
C229 C 0.50671 0.93236 0.98795 0.0
C230 C 0.51507 0.95598 0.99416 0.0
C231 C 0.51376 0.99432 0.99359 0.0
C232 C 0.52069 0.01184 0.97885 0.0
C233 C 0.51846 0.00168 0.01345 0.0
C234 C 0.50917 0.98411 0.02993 0.0
C235 C 0.48496 0.96568 0.03039 0.0
C236 C 0.47609 0.94961 0.04613 0.0
C237 C 0.49109 0.95187 0.06201 0.0
C238 C 0.51531 0.97044 0.06154 0.0
C239 C 0.52425 0.98627 0.04566 0.0
H240 H 0.50297 0.48193 0.20474 0.0
H241 H 0.51499 0.46539 0.23184 0.0
H242 H 0.58951 0.50937 0.21472 0.0
H243 H 0.57738 0.52658 0.18812 0.0
H244 H 0.51472 0.52843 0.19831 0.0
H245 H 0.52991 0.46919 0.16427 0.0
H246 H 0.55575 0.45313 0.15404 0.0
H247 H 0.60565 0.52201 0.12839 0.0
H248 H 0.57972 0.53779 0.13848 0.0
H249 H 0.54027 0.56542 0.1184 0.0
H250 H 0.52389 0.57757 0.09117 0.0
H251 H 0.45249 0.53548 0.11552 0.0
H252 H 0.46891 0.52299 0.14249 0.0
H253 H 0.53323 0.52306 0.12857 0.0
H254 H 0.52547 0.58374 0.15859 0.0
H255 H 0.50915 0.60879 0.16982 0.0
H256 H 0.45646 0.54963 0.2047 0.0
H257 H 0.47279 0.52446 0.19325 0.0
C258 C 0.53923 0.50529 0.19427 0.0
C259 C 0.5219 0.48802 0.20685 0.0
C260 C 0.5288 0.47843 0.22224 0.0
C261 C 0.55322 0.48594 0.22542 0.0
C262 C 0.57057 0.50333 0.21281 0.0
C263 C 0.56365 0.513 0.19745 0.0
C264 C 0.53159 0.51555 0.17818 0.0
C265 C 0.51836 0.52687 0.18302 0.0
C266 C 0.53768 0.51487 0.15834 0.0
C267 C 0.55297 0.50473 0.15222 0.0
C268 C 0.54647 0.48082 0.15651 0.0
C269 C 0.56127 0.47169 0.15069 0.0
C270 C 0.58274 0.48628 0.14035 0.0
C271 C 0.58907 0.51017 0.13603 0.0
C272 C 0.57431 0.51925 0.14186 0.0
C273 C 0.50585 0.54339 0.13254 0.0
C274 C 0.5211 0.55883 0.11787 0.0
C275 C 0.51173 0.5659 0.10241 0.0
C276 C 0.48689 0.5575 0.10121 0.0
C277 C 0.47167 0.54209 0.11595 0.0
C278 C 0.48106 0.53511 0.13145 0.0
C279 C 0.51568 0.53527 0.14864 0.0
C280 C 0.52935 0.52444 0.14384 0.0
C281 C 0.51092 0.53734 0.16858 0.0
C282 C 0.50014 0.55207 0.17483 0.0
C283 C 0.51011 0.57597 0.16837 0.0
C284 C 0.5008 0.59031 0.17483 0.0
C285 C 0.48147 0.58116 0.1881 0.0
C286 C 0.4715 0.55724 0.19461 0.0
C287 C 0.48075 0.54283 0.18803 0.0
Li288 Li 0.63711 0.40341 0.42915 0.0
Li289 Li 0.63055 0.3664 0.41487 0.0
Li290 Li 0.66756 0.40335 0.40823 0.0
Li291 Li 0.63037 0.39665 0.39417 0.0
C292 C 0.67349 0.39885 0.44759 0.0
N293 N 0.70901 0.42279 0.47534 0.0
C294 C 0.67955 0.3859 0.46059 0.0
C295 C 0.68551 0.424 0.44868 0.0
C296 C 0.69755 0.39833 0.47453 0.0
C297 C 0.70341 0.43575 0.46281 0.0
C298 C 0.58992 0.36642 0.42929 0.0
C299 C 0.54896 0.35003 0.44033 0.0
N300 N 0.55447 0.34223 0.45702 0.0
C301 C 0.59518 0.35825 0.44656 0.0
C302 C 0.56664 0.3623 0.42614 0.0
C303 C 0.57702 0.34605 0.46039 0.0
C304 C 0.62062 0.43133 0.44799 0.0
N305 N 0.63001 0.4168 0.4514 0.0
C306 C 0.6251 0.41874 0.48596 0.0
C307 C 0.63235 0.4104 0.46992 0.0
C308 C 0.61495 0.43344 0.48287 0.0
C309 C 0.61287 0.43986 0.4636 0.0
H310 H 0.61866 0.43583 0.43308 0.0
H311 H 0.63917 0.39824 0.47228 0.0
C312 C 0.63475 0.32682 0.42503 0.0
N313 N 0.61833 0.33302 0.41922 0.0
C314 C 0.62753 0.30292 0.42943 0.0
C315 C 0.5866 0.29211 0.42151 0.0
C316 C 0.59466 0.31625 0.41712 0.0
C317 C 0.60313 0.28524 0.42789 0.0
H318 H 0.65346 0.34059 0.42648 0.0
H319 H 0.582 0.32163 0.41227 0.0
C320 C 0.66648 0.44444 0.39446 0.0
N321 N 0.68871 0.48111 0.36736 0.0
C322 C 0.67634 0.44089 0.37739 0.0
C323 C 0.66788 0.46662 0.39774 0.0
C324 C 0.68752 0.45965 0.36387 0.0
C325 C 0.67922 0.48494 0.38387 0.0
C326 C 0.6351 0.36056 0.37547 0.0
C327 C 0.64806 0.35401 0.3629 0.0
C328 C 0.61004 0.34909 0.37388 0.0
C329 C 0.63571 0.33607 0.3489 0.0
C330 C 0.59836 0.33123 0.3597 0.0
N331 N 0.61132 0.32514 0.34761 0.0
C332 C 0.70683 0.39834 0.39937 0.0
C333 C 0.71778 0.4391 0.40463 0.0
C334 C 0.73059 0.405 0.39501 0.0
N335 N 0.70087 0.41534 0.40383 0.0
C336 C 0.74176 0.44662 0.40013 0.0
C337 C 0.74844 0.42948 0.39505 0.0
H338 H 0.69299 0.37955 0.39908 0.0
H339 H 0.71261 0.45226 0.40845 0.0
C340 C 0.60008 0.40997 0.37446 0.0
N341 N 0.61721 0.40368 0.37178 0.0
C342 C 0.59182 0.41757 0.35856 0.0
C343 C 0.61876 0.41175 0.33747 0.0
C344 C 0.62641 0.40418 0.35373 0.0
C345 C 0.60147 0.41888 0.3398 0.0
H346 H 0.59332 0.40967 0.38904 0.0
H347 H 0.64018 0.39932 0.35199 0.0
O348 O 0.65599 0.38682 0.43382 0.0
O349 O 0.60739 0.37862 0.41553 0.0
O350 O 0.65507 0.42626 0.4078 0.0
O351 O 0.64705 0.37803 0.38928 0.0
H352 H 0.67042 0.36643 0.45992 0.0
H353 H 0.68109 0.43437 0.43879 0.0
H354 H 0.70241 0.38853 0.48469 0.0
H355 H 0.71285 0.45519 0.46383 0.0
H356 H 0.53087 0.34671 0.43808 0.0
H357 H 0.61306 0.36123 0.44928 0.0
H358 H 0.56231 0.36857 0.41285 0.0
H359 H 0.58084 0.33963 0.47381 0.0
H360 H 0.62663 0.41305 0.50057 0.0
H361 H 0.60521 0.45123 0.46063 0.0
H362 H 0.64082 0.29844 0.43449 0.0
H363 H 0.56767 0.27898 0.41992 0.0
H364 H 0.67535 0.42381 0.37457 0.0
H365 H 0.66023 0.46959 0.41085 0.0
H366 H 0.69521 0.45714 0.3506 0.0
H367 H 0.68043 0.5022 0.38621 0.0
H368 H 0.66747 0.36272 0.36396 0.0
H369 H 0.59968 0.3539 0.38344 0.0
H370 H 0.64551 0.33082 0.33907 0.0
H371 H 0.57898 0.32221 0.35831 0.0
H372 H 0.73488 0.39106 0.39167 0.0
H373 H 0.75478 0.4657 0.40021 0.0
H374 H 0.57864 0.42314 0.36104 0.0
H375 H 0.62647 0.41221 0.32325 0.0
Li376 Li 0.25279 0.63872 0.60166 0.0
Li377 Li 0.28382 0.63291 0.58603 0.0
Li378 Li 0.28195 0.67007 0.58006 0.0
Li379 Li 0.25174 0.63208 0.56604 0.0
C380 C 0.2964 0.66695 0.62288 0.0
N381 N 0.31349 0.68481 0.65988 0.0
C382 C 0.3036 0.65455 0.63549 0.0
C383 C 0.29838 0.68869 0.62893 0.0
C384 C 0.31204 0.66379 0.65419 0.0
C385 C 0.30693 0.69736 0.64774 0.0
C386 C 0.24338 0.58788 0.5796 0.0
C387 C 0.25094 0.56481 0.55563 0.0
N388 N 0.23263 0.54417 0.56329 0.0
C389 C 0.22464 0.56647 0.58724 0.0
C390 C 0.25666 0.58708 0.56366 0.0
C391 C 0.21949 0.54454 0.57879 0.0
C392 C 0.21263 0.63183 0.62416 0.0
N393 N 0.23344 0.63109 0.62463 0.0
C394 C 0.22539 0.61613 0.65747 0.0
C395 C 0.23986 0.62319 0.64076 0.0
C396 C 0.20377 0.6167 0.65748 0.0
C397 C 0.19751 0.62478 0.64051 0.0
H398 H 0.20746 0.63734 0.61093 0.0
H399 H 0.25597 0.62185 0.64051 0.0
C400 C 0.32805 0.63411 0.58353 0.0
N401 N 0.30525 0.62124 0.59057 0.0
C402 C 0.34502 0.62726 0.58804 0.0
C403 C 0.31457 0.59391 0.60678 0.0
C404 C 0.29822 0.60142 0.60193 0.0
C405 C 0.33842 0.60704 0.59999 0.0
H406 H 0.33319 0.65004 0.57481 0.0
H407 H 0.28004 0.59176 0.60756 0.0
C408 C 0.23967 0.67275 0.58231 0.0
N409 N 0.22637 0.70741 0.58607 0.0
C410 C 0.22806 0.67713 0.56687 0.0
C411 C 0.24427 0.68578 0.59973 0.0
C412 C 0.22155 0.69479 0.56904 0.0
C413 C 0.23747 0.70328 0.60133 0.0
C414 C 0.29279 0.66084 0.54279 0.0
C415 C 0.27887 0.66994 0.53485 0.0
C416 C 0.31285 0.66357 0.53255 0.0
C417 C 0.28527 0.68165 0.51675 0.0
C418 C 0.31867 0.67538 0.51448 0.0
N419 N 0.30488 0.6841 0.50702 0.0
C420 C 0.32536 0.71344 0.58174 0.0
C421 C 0.29494 0.71673 0.56472 0.0
C422 C 0.34227 0.73726 0.5772 0.0
N423 N 0.30226 0.70365 0.57541 0.0
C424 C 0.31124 0.7406 0.55982 0.0
C425 C 0.33535 0.75108 0.56587 0.0
H426 H 0.3308 0.70247 0.58988 0.0
H427 H 0.27668 0.70849 0.55943 0.0
C428 C 0.20776 0.6138 0.54691 0.0
N429 N 0.23046 0.61775 0.5445 0.0
C430 C 0.1915 0.60539 0.53133 0.0
C431 C 0.22212 0.60466 0.51118 0.0
C432 C 0.23774 0.61292 0.52722 0.0
C433 C 0.19873 0.60114 0.51301 0.0
H434 H 0.20245 0.61767 0.56087 0.0
H435 H 0.25589 0.61612 0.52573 0.0
O436 O 0.28833 0.65828 0.60445 0.0
O437 O 0.24852 0.60945 0.58772 0.0
O438 O 0.24629 0.65562 0.58036 0.0
O439 O 0.28706 0.64955 0.5606 0.0
H440 H 0.30249 0.63786 0.63094 0.0
H441 H 0.29362 0.69892 0.61916 0.0
H442 H 0.31747 0.65427 0.66416 0.0
H443 H 0.30847 0.71412 0.65264 0.0
H444 H 0.26106 0.56392 0.5433 0.0
H445 H 0.2142 0.56681 0.59957 0.0
H446 H 0.27125 0.60343 0.55756 0.0
H447 H 0.20503 0.52782 0.58456 0.0
H448 H 0.23105 0.61016 0.67019 0.0
H449 H 0.18078 0.62501 0.63964 0.0
H450 H 0.36327 0.63811 0.58272 0.0
H451 H 0.30861 0.57806 0.61583 0.0
H452 H 0.22426 0.66712 0.55331 0.0
H453 H 0.25278 0.68225 0.61193 0.0
H454 H 0.21267 0.69848 0.55718 0.0
H455 H 0.24095 0.71353 0.61472 0.0
H456 H 0.26329 0.668 0.54257 0.0
H457 H 0.32382 0.65664 0.53852 0.0
H458 H 0.27466 0.68879 0.51044 0.0
H459 H 0.33416 0.67763 0.50639 0.0
H460 H 0.36072 0.74448 0.58194 0.0
H461 H 0.30508 0.75065 0.55121 0.0
H462 H 0.17353 0.60244 0.5336 0.0
H463 H 0.22858 0.60183 0.49734 0.0
Li464 Li 0.67147 0.2847 0.75263 0.0
Li465 Li 0.63564 0.25466 0.76781 0.0
Li466 Li 0.63977 0.25098 0.73233 0.0
Li467 Li 0.63292 0.28284 0.74683 0.0
C468 C 0.66502 0.2369 0.76709 0.0
N469 N 0.67266 0.21034 0.79513 0.0
C470 C 0.68237 0.24853 0.78167 0.0
C471 C 0.65158 0.21175 0.76677 0.0
C472 C 0.686 0.23478 0.79569 0.0
C473 C 0.65567 0.19865 0.7811 0.0
C474 C 0.6504 0.29398 0.79078 0.0
C475 C 0.62775 0.29168 0.81971 0.0
N476 N 0.64836 0.30144 0.83045 0.0
C477 C 0.67139 0.30407 0.80209 0.0
C478 C 0.62842 0.28783 0.79963 0.0
C479 C 0.66997 0.30768 0.82212 0.0
C480 C 0.71134 0.33006 0.75965 0.0
N481 N 0.70497 0.307 0.75512 0.0
C482 C 0.74601 0.31654 0.75654 0.0
C483 C 0.72173 0.30009 0.75306 0.0
C484 C 0.75304 0.34033 0.76195 0.0
C485 C 0.73539 0.34712 0.76313 0.0
H486 H 0.69758 0.33502 0.76106 0.0
H487 H 0.71615 0.28168 0.74916 0.0
C488 C 0.60141 0.21393 0.78887 0.0
N489 N 0.62286 0.23469 0.79073 0.0
C490 C 0.59212 0.19761 0.80444 0.0
C491 C 0.62689 0.22454 0.82371 0.0
C492 C 0.63565 0.24012 0.80772 0.0
C493 C 0.60497 0.20287 0.82212 0.0
H494 H 0.59176 0.20977 0.77512 0.0
H495 H 0.65304 0.25618 0.80875 0.0
C496 C 0.67676 0.30169 0.71682 0.0
N497 N 0.71863 0.3339 0.69779 0.0
C498 C 0.68312 0.32589 0.71528 0.0
C499 C 0.69163 0.29384 0.70869 0.0
C500 C 0.70438 0.3419 0.70559 0.0
C501 C 0.71274 0.31041 0.69913 0.0
C502 C 0.59004 0.2451 0.74216 0.0
C503 C 0.58288 0.24206 0.72254 0.0
C504 C 0.57543 0.24679 0.75651 0.0
C505 C 0.56128 0.24108 0.71756 0.0
C506 C 0.55397 0.24573 0.75095 0.0
N507 N 0.54741 0.24295 0.73175 0.0
C508 C 0.62002 0.20615 0.71272 0.0
C509 C 0.63689 0.24036 0.69197 0.0
C510 C 0.61231 0.19077 0.69651 0.0
N511 N 0.63211 0.23042 0.71017 0.0
C512 C 0.62945 0.22567 0.67536 0.0
C513 C 0.61681 0.2005 0.6775 0.0
H514 H 0.61571 0.19873 0.72734 0.0
H515 H 0.64594 0.2597 0.69033 0.0
C516 C 0.61572 0.31526 0.75492 0.0
N517 N 0.61889 0.30209 0.74085 0.0
C518 C 0.60687 0.33052 0.74995 0.0
C519 C 0.6046 0.31827 0.71615 0.0
C520 C 0.61357 0.30333 0.72176 0.0
C521 C 0.60133 0.33228 0.73031 0.0
H522 H 0.62047 0.31428 0.76992 0.0
H523 H 0.61673 0.29299 0.71084 0.0
O524 O 0.66092 0.25008 0.75344 0.0
O525 O 0.65147 0.29043 0.77113 0.0
O526 O 0.65641 0.28588 0.72674 0.0
O527 O 0.6114 0.24673 0.74728 0.0
H528 H 0.69257 0.26797 0.78245 0.0
H529 H 0.63797 0.20244 0.75571 0.0
H530 H 0.69926 0.24356 0.80712 0.0
H531 H 0.6453 0.17918 0.78108 0.0
H532 H 0.61083 0.28689 0.82676 0.0
H533 H 0.68854 0.3088 0.79555 0.0
H534 H 0.61202 0.27997 0.79111 0.0
H535 H 0.68604 0.31536 0.83107 0.0
H536 H 0.75911 0.31067 0.7552 0.0
H537 H 0.73996 0.36518 0.76742 0.0
H538 H 0.57513 0.18105 0.80266 0.0
H539 H 0.63757 0.22903 0.83697 0.0
H540 H 0.67185 0.33224 0.72164 0.0
H541 H 0.68706 0.27519 0.70999 0.0
H542 H 0.7096 0.3607 0.70431 0.0
H543 H 0.72449 0.30461 0.69284 0.0
H544 H 0.59402 0.24078 0.71124 0.0
H545 H 0.58062 0.24892 0.77178 0.0
H546 H 0.55559 0.23891 0.70242 0.0
H547 H 0.54252 0.24712 0.76189 0.0
H548 H 0.60223 0.17149 0.69885 0.0
H549 H 0.6334 0.23394 0.66099 0.0
H550 H 0.60446 0.34088 0.76135 0.0
H551 H 0.60094 0.31935 0.70081 0.0
Li552 Li 0.40103 0.63402 0.92959 0.0
Li553 Li 0.40855 0.67144 0.91464 0.0
Li554 Li 0.36998 0.63393 0.90856 0.0
Li555 Li 0.40766 0.63995 0.89373 0.0
C556 C 0.37975 0.65716 0.95192 0.0
N557 N 0.37337 0.66916 0.98946 0.0
C558 C 0.39918 0.67537 0.9622 0.0
C559 C 0.35699 0.64529 0.96064 0.0
C560 C 0.39562 0.68112 0.98118 0.0
C561 C 0.35416 0.65155 0.97966 0.0
C562 C 0.45288 0.67164 0.92236 0.0
C563 C 0.49576 0.69529 0.91726 0.0
N564 N 0.49893 0.70007 0.9368 0.0
C565 C 0.45659 0.67658 0.94241 0.0
C566 C 0.47263 0.68086 0.90969 0.0
C567 C 0.47999 0.69106 0.94941 0.0
C568 C 0.42609 0.61556 0.94953 0.0
N569 N 0.4078 0.62027 0.95177 0.0
C570 C 0.40324 0.60827 0.98539 0.0
C571 C 0.39602 0.61634 0.96914 0.0
C572 C 0.42268 0.60405 0.98371 0.0
C573 C 0.43386 0.60742 0.96536 0.0
H574 H 0.43499 0.61864 0.93549 0.0
H575 H 0.38128 0.61981 0.97054 0.0
C576 C 0.40458 0.71149 0.92307 0.0
N577 N 0.42126 0.70505 0.91872 0.0
C578 C 0.4117 0.73533 0.92768 0.0
C579 C 0.45308 0.74571 0.92267 0.0
C580 C 0.44513 0.72163 0.9181 0.0
C581 C 0.43626 0.75276 0.92776 0.0
H582 H 0.38571 0.69791 0.92338 0.0
H583 H 0.45806 0.71623 0.91424 0.0
C584 C 0.36646 0.58899 0.91561 0.0
N585 N 0.33423 0.54457 0.93118 0.0
C586 C 0.3647 0.56806 0.90773 0.0
C587 C 0.35186 0.58736 0.9314 0.0
C588 C 0.34828 0.54575 0.9158 0.0
C589 C 0.33568 0.56473 0.93907 0.0
C590 C 0.40188 0.67608 0.87503 0.0
C591 C 0.38792 0.68187 0.86297 0.0
C592 C 0.42685 0.68808 0.87263 0.0
C593 C 0.3992 0.69959 0.84862 0.0
C594 C 0.43746 0.70569 0.85813 0.0
N595 N 0.42353 0.71103 0.84651 0.0
C596 C 0.32653 0.63428 0.91067 0.0
C597 C 0.32421 0.60151 0.89273 0.0
C598 C 0.30254 0.62683 0.90632 0.0
N599 N 0.33679 0.62162 0.90382 0.0
C600 C 0.30017 0.59341 0.88802 0.0
C601 C 0.28907 0.60624 0.8947 0.0
H602 H 0.33716 0.65045 0.91918 0.0
H603 H 0.33296 0.59199 0.88728 0.0
C604 C 0.43767 0.62635 0.8742 0.0
N605 N 0.42029 0.63228 0.8715 0.0
C606 C 0.44602 0.61877 0.85835 0.0
C607 C 0.41872 0.62399 0.83722 0.0
C608 C 0.41077 0.63129 0.8535 0.0
C609 C 0.43638 0.61734 0.83958 0.0
H610 H 0.44471 0.62709 0.88875 0.0
H611 H 0.39664 0.63567 0.85184 0.0
O612 O 0.38276 0.65125 0.93327 0.0
O613 O 0.43013 0.65743 0.91514 0.0
O614 O 0.38252 0.61094 0.90789 0.0
O615 O 0.39109 0.65892 0.88925 0.0
H616 H 0.41678 0.68517 0.95555 0.0
H617 H 0.34168 0.63132 0.95284 0.0
H618 H 0.41051 0.69515 0.9893 0.0
H619 H 0.33667 0.64241 0.98662 0.0
H620 H 0.5112 0.70266 0.90761 0.0
H621 H 0.44163 0.66912 0.95251 0.0
H622 H 0.47013 0.67696 0.89416 0.0
H623 H 0.4831 0.69506 0.96489 0.0
H624 H 0.39414 0.60605 0.99925 0.0
H625 H 0.44857 0.60394 0.96324 0.0
H626 H 0.39813 0.73989 0.93169 0.0
H627 H 0.47216 0.75866 0.92225 0.0
H628 H 0.37592 0.56906 0.8955 0.0
H629 H 0.35301 0.60335 0.93768 0.0
H630 H 0.34671 0.52939 0.90985 0.0
H631 H 0.32428 0.5632 0.9513 0.0
H632 H 0.36856 0.67277 0.86471 0.0
H633 H 0.43791 0.68388 0.88188 0.0
H634 H 0.38862 0.70425 0.83916 0.0
H635 H 0.45677 0.71512 0.85611 0.0
H636 H 0.29485 0.63748 0.91153 0.0
H637 H 0.29041 0.57731 0.87921 0.0
H638 H 0.45978 0.61398 0.86078 0.0
H639 H 0.41056 0.62282 0.82307 0.0
Li640 Li 0.75412 0.40547 0.08664 0.0
Li641 Li 0.7857 0.39982 0.10164 0.0
Li642 Li 0.7857 0.40638 0.06588 0.0
Li643 Li 0.75579 0.3684 0.08024 0.0
C644 C 0.79451 0.45063 0.07984 0.0
N645 N 0.80499 0.49444 0.06394 0.0
C646 C 0.81304 0.47202 0.08771 0.0
C647 C 0.78132 0.4515 0.06387 0.0
C648 C 0.81805 0.494 0.07947 0.0
C649 C 0.7869 0.47382 0.05605 0.0
C650 C 0.74426 0.36379 0.12039 0.0
C651 C 0.74841 0.3325 0.1363 0.0
N652 N 0.73242 0.33066 0.15024 0.0
C653 C 0.72782 0.36156 0.13482 0.0
C654 C 0.75461 0.34914 0.12109 0.0
C655 C 0.72209 0.34472 0.14981 0.0
C656 C 0.71024 0.40501 0.08391 0.0
N657 N 0.73288 0.41733 0.09136 0.0
C658 C 0.72379 0.44465 0.10789 0.0
C659 C 0.73994 0.43684 0.1031 0.0
C660 C 0.70011 0.4321 0.10065 0.0
C661 C 0.69348 0.41215 0.08835 0.0
H662 H 0.70507 0.3893 0.07487 0.0
H663 H 0.75801 0.44611 0.109 0.0
C664 C 0.82921 0.41382 0.12132 0.0
N665 N 0.80574 0.40732 0.12401 0.0
C666 C 0.84503 0.42131 0.13722 0.0
C667 C 0.81214 0.41497 0.15839 0.0
C668 C 0.797 0.40776 0.14206 0.0
C669 C 0.83657 0.42212 0.15605 0.0
H670 H 0.83571 0.4136 0.10674 0.0
H671 H 0.7784 0.40307 0.14371 0.0
C672 C 0.74253 0.38138 0.04286 0.0
N673 N 0.72677 0.36653 0.00503 0.0
C674 C 0.74726 0.36474 0.03363 0.0
C675 C 0.72964 0.39036 0.03291 0.0
C676 C 0.73917 0.35747 0.01449 0.0
C677 C 0.72187 0.38267 0.01377 0.0
C678 C 0.80191 0.36986 0.07475 0.0
C679 C 0.80448 0.36603 0.05494 0.0
C680 C 0.81073 0.36068 0.08906 0.0
C681 C 0.81547 0.35271 0.0498 0.0
C682 C 0.82158 0.34743 0.08332 0.0
N683 N 0.82369 0.34374 0.06398 0.0
C684 C 0.82987 0.42635 0.04693 0.0
C685 C 0.79901 0.42405 0.0264 0.0
C686 C 0.8462 0.43475 0.0314 0.0
N687 N 0.80667 0.4207 0.04408 0.0
C688 C 0.81474 0.43238 0.01043 0.0
C689 C 0.8386 0.43743 0.01273 0.0
H690 H 0.83552 0.42373 0.06121 0.0
H691 H 0.78062 0.41987 0.02454 0.0
C692 C 0.71146 0.32768 0.07452 0.0
N693 N 0.73526 0.33485 0.07551 0.0
C694 C 0.69467 0.30401 0.06946 0.0
C695 C 0.72717 0.29538 0.06686 0.0
C696 C 0.74332 0.31921 0.07208 0.0
C697 C 0.70248 0.28755 0.06525 0.0
H698 H 0.70559 0.34055 0.07732 0.0
H699 H 0.76228 0.32522 0.07296 0.0
O700 O 0.78951 0.42901 0.08775 0.0
O701 O 0.75009 0.38028 0.10568 0.0
O702 O 0.75025 0.38881 0.0616 0.0
O703 O 0.79136 0.383 0.08015 0.0
H704 H 0.82342 0.47163 0.10007 0.0
H705 H 0.76692 0.43517 0.05758 0.0
H706 H 0.83234 0.51071 0.08542 0.0
H707 H 0.77683 0.47476 0.04369 0.0
H708 H 0.75629 0.32104 0.13702 0.0
H709 H 0.71964 0.3728 0.13445 0.0
H710 H 0.7672 0.35052 0.10998 0.0
H711 H 0.70943 0.34283 0.16111 0.0
H712 H 0.72978 0.46028 0.11722 0.0
H713 H 0.67535 0.40173 0.08267 0.0
H714 H 0.86369 0.42651 0.13481 0.0
H715 H 0.80498 0.4157 0.17258 0.0
H716 H 0.75694 0.3574 0.04117 0.0
H717 H 0.7258 0.40324 0.03986 0.0
H718 H 0.74273 0.3446 0.00717 0.0
H719 H 0.71196 0.38953 0.00586 0.0
H720 H 0.79824 0.37336 0.04362 0.0
H721 H 0.80923 0.36374 0.10446 0.0
H722 H 0.81752 0.34957 0.03453 0.0
H723 H 0.82838 0.34013 0.09425 0.0
H724 H 0.86454 0.4389 0.03398 0.0
H725 H 0.80804 0.43409 0.99631 0.0
H726 H 0.67581 0.29873 0.06877 0.0
H727 H 0.73409 0.28346 0.06355 0.0
Li728 Li 0.40423 0.78465 0.26742 0.0
Li729 Li 0.36711 0.7557 0.25164 0.0
Li730 Li 0.40332 0.75232 0.24704 0.0
Li731 Li 0.39954 0.78417 0.23125 0.0
C732 C 0.39533 0.74261 0.28663 0.0
N733 N 0.41499 0.72871 0.31637 0.0
C734 C 0.38039 0.72373 0.29912 0.0
C735 C 0.42027 0.75444 0.28925 0.0
C736 C 0.39067 0.71697 0.31408 0.0
C737 C 0.42986 0.74714 0.30437 0.0
C738 C 0.36318 0.79472 0.25477 0.0
C739 C 0.33152 0.80091 0.24229 0.0
N740 N 0.32376 0.80043 0.26092 0.0
C741 C 0.35509 0.79461 0.2738 0.0
C742 C 0.35149 0.79816 0.23888 0.0
C743 C 0.33505 0.79739 0.2766 0.0
C744 C 0.43577 0.82704 0.2884 0.0
N745 N 0.41665 0.80438 0.29007 0.0
C746 C 0.41252 0.8106 0.32405 0.0
C747 C 0.40507 0.79593 0.30744 0.0
C748 C 0.43198 0.83427 0.32276 0.0
C749 C 0.44383 0.84236 0.30466 0.0
H750 H 0.44436 0.83339 0.27432 0.0
H751 H 0.38969 0.77795 0.30829 0.0
C752 C 0.31729 0.72439 0.24218 0.0
N753 N 0.33344 0.73692 0.25655 0.0
C754 C 0.29309 0.70902 0.24681 0.0
C755 C 0.30259 0.71986 0.28089 0.0
C756 C 0.32659 0.73492 0.27561 0.0
C757 C 0.28551 0.70645 0.26642 0.0
H758 H 0.32318 0.72575 0.22721 0.0
H759 H 0.33993 0.74461 0.2868 0.0
C760 C 0.44686 0.79396 0.23461 0.0
N761 N 0.4856 0.80778 0.20979 0.0
C762 C 0.44477 0.78 0.21821 0.0
C763 C 0.46866 0.81496 0.2384 0.0
C764 C 0.46455 0.78728 0.20583 0.0
C765 C 0.48804 0.82164 0.22567 0.0
C766 C 0.37193 0.74428 0.2083 0.0
C767 C 0.37913 0.7313 0.19633 0.0
C768 C 0.3576 0.75296 0.20049 0.0
C769 C 0.37188 0.72729 0.17673 0.0
C770 C 0.35073 0.74858 0.18082 0.0
N771 N 0.35796 0.73595 0.16945 0.0
C772 C 0.39645 0.70705 0.23867 0.0
C773 C 0.43697 0.73505 0.24676 0.0
C774 C 0.40248 0.68949 0.23432 0.0
N775 N 0.41371 0.72944 0.24427 0.0
C776 C 0.44383 0.71798 0.24258 0.0
C777 C 0.42654 0.695 0.23585 0.0
H778 H 0.37804 0.70308 0.23705 0.0
H779 H 0.45031 0.75295 0.25144 0.0
C780 C 0.41244 0.82736 0.21108 0.0
N781 N 0.40903 0.80481 0.20872 0.0
C782 C 0.42087 0.84376 0.19553 0.0
C783 C 0.42171 0.8133 0.1753 0.0
C784 C 0.41363 0.79767 0.19127 0.0
C785 C 0.42575 0.83685 0.1773 0.0
H786 H 0.40906 0.83277 0.2252 0.0
H787 H 0.41143 0.77996 0.18971 0.0
O788 O 0.38544 0.74932 0.27191 0.0
O789 O 0.38254 0.79167 0.25172 0.0
O790 O 0.42765 0.78733 0.24683 0.0
O791 O 0.37911 0.74862 0.22747 0.0
H792 H 0.36104 0.71441 0.29726 0.0
H793 H 0.43214 0.76912 0.27977 0.0
H794 H 0.37932 0.70238 0.32386 0.0
H795 H 0.44913 0.75612 0.30657 0.0
H796 H 0.32224 0.80348 0.23012 0.0
H797 H 0.36404 0.79213 0.28626 0.0
H798 H 0.35784 0.79884 0.22409 0.0
H799 H 0.32846 0.79711 0.29125 0.0
H800 H 0.40303 0.80349 0.33772 0.0
H801 H 0.45867 0.86057 0.3029 0.0
H802 H 0.28049 0.69908 0.23519 0.0
H803 H 0.29763 0.71811 0.29622 0.0
H804 H 0.42801 0.76376 0.21501 0.0
H805 H 0.47058 0.82598 0.25104 0.0
H806 H 0.46315 0.77665 0.19306 0.0
H807 H 0.50502 0.83786 0.22842 0.0
H808 H 0.39038 0.72459 0.20204 0.0
H809 H 0.35191 0.76305 0.20952 0.0
H810 H 0.37738 0.71735 0.1673 0.0
H811 H 0.33968 0.75526 0.1746 0.0
H812 H 0.3885 0.67187 0.22955 0.0
H813 H 0.4626 0.72302 0.24389 0.0
H814 H 0.42408 0.86182 0.19796 0.0
H815 H 0.42479 0.80689 0.16153 0.0
H816 H 0.13466 0.63437 0.30108 0.0
H817 H 0.15383 0.57868 0.30264 0.0
H818 H 0.1751 0.66326 0.28997 0.0
H819 H 0.19431 0.60762 0.29138 0.0
H820 H 0.25676 0.66071 0.25261 0.0
H821 H 0.21561 0.63182 0.26237 0.0
H822 H 0.21629 0.68388 0.30295 0.0
H823 H 0.25718 0.713 0.29277 0.0
C824 C 0.14756 0.62833 0.2992 0.0
C825 C 0.14104 0.60423 0.30287 0.0
C826 C 0.17073 0.64489 0.2928 0.0
C827 C 0.18793 0.63775 0.28985 0.0
C828 C 0.18137 0.6136 0.29328 0.0
C829 C 0.15818 0.59702 0.29974 0.0
C830 C 0.248 0.66609 0.26342 0.0
C831 C 0.26021 0.68916 0.2719 0.0
C832 C 0.22454 0.64944 0.26918 0.0
C833 C 0.21272 0.65553 0.28347 0.0
C834 C 0.22483 0.6787 0.29177 0.0
C835 C 0.24832 0.69531 0.28608 0.0
H836 H 0.56628 0.13469 0.43753 0.0
H837 H 0.55498 0.15493 0.49528 0.0
H838 H 0.5788 0.17519 0.42567 0.0
H839 H 0.5671 0.19521 0.48331 0.0
H840 H 0.56384 0.2552 0.44984 0.0
H841 H 0.5514 0.21431 0.46057 0.0
H842 H 0.61194 0.21754 0.43009 0.0
H843 H 0.62411 0.2583 0.419 0.0
C844 C 0.5667 0.14782 0.44775 0.0
C845 C 0.55953 0.1415 0.46735 0.0
C846 C 0.5738 0.17099 0.44093 0.0
C847 C 0.57376 0.18831 0.45352 0.0
C848 C 0.56689 0.18211 0.47316 0.0
C849 C 0.55993 0.15901 0.48001 0.0
C850 C 0.5743 0.24706 0.44522 0.0
C851 C 0.59496 0.25996 0.43359 0.0
C852 C 0.56734 0.22376 0.45154 0.0
C853 C 0.58078 0.21278 0.44627 0.0
C854 C 0.60115 0.22548 0.4343 0.0
C855 C 0.60822 0.24887 0.42809 0.0
H856 H 0.43232 0.546 0.60467 0.0
H857 H 0.4424 0.58036 0.66108 0.0
H858 H 0.40486 0.56004 0.59513 0.0
H859 H 0.41566 0.5953 0.65121 0.0
H860 H 0.3441 0.59134 0.63581 0.0
H861 H 0.37309 0.57917 0.64515 0.0
H862 H 0.40337 0.5959 0.58686 0.0
H863 H 0.37366 0.60707 0.57726 0.0
C864 C 0.42874 0.55664 0.61501 0.0
C865 C 0.43941 0.5619 0.6337 0.0
C866 C 0.41322 0.56494 0.60945 0.0
C867 C 0.40801 0.57875 0.62242 0.0
C868 C 0.41906 0.58444 0.64097 0.0
C869 C 0.4346 0.57612 0.64654 0.0
C870 C 0.35677 0.59218 0.62491 0.0
C871 C 0.35643 0.60003 0.60574 0.0
C872 C 0.37363 0.58553 0.63035 0.0
C873 C 0.3906 0.5866 0.61677 0.0
C874 C 0.3904 0.59463 0.59763 0.0
C875 C 0.37351 0.60127 0.59218 0.0
H876 H 0.90341 0.45486 0.7723 0.0
H877 H 0.88226 0.42358 0.83003 0.0
H878 H 0.86311 0.42683 0.76007 0.0
H879 H 0.84217 0.39545 0.81774 0.0
H880 H 0.78307 0.33173 0.78449 0.0
H881 H 0.82372 0.36053 0.79535 0.0
H882 H 0.82058 0.41705 0.76345 0.0
H883 H 0.78004 0.38806 0.75216 0.0
C884 C 0.89011 0.44222 0.78243 0.0
C885 C 0.89612 0.4414 0.80213 0.0
C886 C 0.86704 0.42612 0.7754 0.0
C887 C 0.84954 0.40879 0.78789 0.0
C888 C 0.85541 0.40827 0.80766 0.0
C889 C 0.8784 0.42441 0.8147 0.0
C890 C 0.79118 0.35022 0.77954 0.0
C891 C 0.77834 0.35762 0.76746 0.0
C892 C 0.81435 0.36677 0.78596 0.0
C893 C 0.82527 0.3911 0.78039 0.0
C894 C 0.81268 0.39841 0.76793 0.0
C895 C 0.78942 0.38186 0.76159 0.0
H896 H 0.473 0.9032 0.93789 0.0
H897 H 0.48258 0.88264 0.99602 0.0
H898 H 0.46089 0.86282 0.92601 0.0
H899 H 0.47065 0.84236 0.9841 0.0
H900 H 0.47404 0.78194 0.95154 0.0
H901 H 0.48622 0.82267 0.9625 0.0
H902 H 0.4281 0.82089 0.92918 0.0
H903 H 0.41636 0.7804 0.91774 0.0
C904 C 0.47226 0.89 0.94819 0.0
C905 C 0.47882 0.89619 0.96791 0.0
C906 C 0.46537 0.86687 0.94136 0.0
C907 C 0.46494 0.84942 0.95409 0.0
C908 C 0.47122 0.85552 0.97384 0.0
C909 C 0.47805 0.87861 0.98068 0.0
C910 C 0.46407 0.79036 0.94634 0.0
C911 C 0.44424 0.77793 0.93377 0.0
C912 C 0.47086 0.81359 0.95281 0.0
C913 C 0.45803 0.82496 0.94681 0.0
C914 C 0.43845 0.81269 0.93398 0.0
C915 C 0.43159 0.78942 0.92756 0.0
H916 H 0.60647 0.49369 0.10549 0.0
H917 H 0.5951 0.45753 0.16118 0.0
H918 H 0.63444 0.48026 0.09598 0.0
H919 H 0.62232 0.4432 0.15132 0.0
H920 H 0.69389 0.44712 0.13661 0.0
H921 H 0.66498 0.45943 0.14587 0.0
H922 H 0.63616 0.4447 0.08706 0.0
H923 H 0.66581 0.43339 0.07756 0.0
C924 C 0.60989 0.48281 0.11569 0.0
C925 C 0.59867 0.47682 0.13415 0.0
C926 C 0.62571 0.47486 0.11014 0.0
C927 C 0.63067 0.46069 0.1229 0.0
C928 C 0.61913 0.45435 0.14124 0.0
C929 C 0.6033 0.46231 0.1468 0.0
C930 C 0.68158 0.44677 0.12558 0.0
C931 C 0.68227 0.43939 0.1063 0.0
C932 C 0.66477 0.45351 0.13097 0.0
C933 C 0.6482 0.453 0.11723 0.0
C934 C 0.64882 0.44552 0.09797 0.0
C935 C 0.66565 0.4388 0.09257 0.0
H936 H 0.43935 0.87956 0.50263 0.0
H937 H 0.4315 0.90572 0.55891 0.0
H938 H 0.412 0.83826 0.51316 0.0
H939 H 0.40352 0.86459 0.56916 0.0
H940 H 0.37165 0.78626 0.58786 0.0
H941 H 0.40158 0.82686 0.57763 0.0
H942 H 0.36922 0.81296 0.5201 0.0
H943 H 0.33992 0.77211 0.53008 0.0
C944 C 0.43192 0.87649 0.51729 0.0
C945 C 0.43752 0.89592 0.5299 0.0
C946 C 0.41604 0.85286 0.52324 0.0
C947 C 0.40547 0.84814 0.54197 0.0
C948 C 0.41148 0.86756 0.55471 0.0
C949 C 0.42731 0.89116 0.54875 0.0
C950 C 0.37107 0.7918 0.57298 0.0
C951 C 0.35335 0.77597 0.55982 0.0
C952 C 0.38808 0.81514 0.56717 0.0
C953 C 0.38779 0.82315 0.54805 0.0
C954 C 0.37013 0.80727 0.53486 0.0
C955 C 0.35312 0.78396 0.54068 0.0
H956 H 0.5197 0.40136 0.69531 0.0
H957 H 0.59413 0.45793 0.69256 0.0
H958 H 0.53222 0.37318 0.70643 0.0
H959 H 0.60663 0.42973 0.70381 0.0
H960 H 0.6181 0.37842 0.7431 0.0
H961 H 0.60494 0.40651 0.733 0.0
H962 H 0.55308 0.35278 0.6937 0.0
H963 H 0.56572 0.32445 0.70425 0.0
C964 C 0.53875 0.40775 0.69692 0.0
C965 C 0.55592 0.4319 0.69296 0.0
C966 C 0.54592 0.39159 0.70332 0.0
C967 C 0.57041 0.3992 0.70597 0.0
C968 C 0.58759 0.42338 0.70216 0.0
C969 C 0.58042 0.43954 0.69572 0.0
C970 C 0.60368 0.3725 0.73249 0.0
C971 C 0.59292 0.34918 0.7245 0.0
C972 C 0.59634 0.38869 0.72653 0.0
C973 C 0.57802 0.3819 0.71251 0.0
C974 C 0.5671 0.3585 0.70466 0.0
C975 C 0.5745 0.34235 0.71056 0.0
H976 H 0.15817 0.57971 0.83451 0.0
H977 H 0.13374 0.54485 0.8907 0.0
H978 H 0.19976 0.59371 0.84411 0.0
H979 H 0.17516 0.55803 0.9 0.0
H980 H 0.25378 0.60572 0.91767 0.0
H981 H 0.21268 0.59402 0.9083 0.0
H982 H 0.22595 0.57706 0.84999 0.0
H983 H 0.2673 0.58965 0.85912 0.0
C984 C 0.16168 0.57514 0.84894 0.0
C985 C 0.14264 0.56112 0.86182 0.0
C986 C 0.18549 0.58292 0.85436 0.0
C987 C 0.19079 0.5769 0.87279 0.0
C988 C 0.17175 0.56316 0.88576 0.0
C989 C 0.14797 0.55537 0.88034 0.0
C990 C 0.24799 0.5997 0.9028 0.0
C991 C 0.26384 0.5986 0.88916 0.0
C992 C 0.22436 0.59277 0.89748 0.0
C993 C 0.21602 0.58459 0.87839 0.0
C994 C 0.23187 0.58353 0.86475 0.0
C995 C 0.25549 0.59043 0.87007 0.0
H996 H 0.57608 0.15139 0.0323 0.0
H997 H 0.63685 0.14181 0.01996 0.0
H998 H 0.60354 0.19251 0.04322 0.0
H999 H 0.66414 0.18266 0.03126 0.0
H1000 H 0.70201 0.24569 0.07458 0.0
H1001 H 0.67419 0.20507 0.06299 0.0
H1002 H 0.63547 0.23212 0.02977 0.0
H1003 H 0.66354 0.27285 0.04096 0.0
C1004 C 0.59527 0.1581 0.03172 0.0
C1005 C 0.60422 0.14321 0.02535 0.0
C1006 C 0.61098 0.18162 0.03804 0.0
C1007 C 0.63597 0.19072 0.03824 0.0
C1008 C 0.64494 0.17599 0.03161 0.0
C1009 C 0.62928 0.15257 0.02517 0.0
C1010 C 0.68772 0.24306 0.06466 0.0
C1011 C 0.68508 0.26261 0.05871 0.0
C1012 C 0.67176 0.21976 0.05806 0.0
C1013 C 0.65268 0.21543 0.04545 0.0
C1014 C 0.64983 0.23487 0.03966 0.0
C1015 C 0.66589 0.2582 0.04615 0.0
H1016 H 0.46932 0.58562 0.22569 0.0
H1017 H 0.47273 0.61211 0.16691 0.0
H1018 H 0.45509 0.61223 0.23769 0.0
H1019 H 0.45919 0.63915 0.17896 0.0
H1020 H 0.41109 0.66603 0.20357 0.0
H1021 H 0.42311 0.63745 0.1926 0.0
H1022 H 0.47082 0.65587 0.24232 0.0
H1023 H 0.45819 0.68402 0.25367 0.0
C1024 C 0.46689 0.59702 0.21533 0.0
C1025 C 0.47214 0.59677 0.19536 0.0
C1026 C 0.45901 0.61244 0.22223 0.0
C1027 C 0.45606 0.62782 0.20928 0.0
C1028 C 0.46106 0.62736 0.18928 0.0
C1029 C 0.46904 0.61204 0.18241 0.0
C1030 C 0.42389 0.66375 0.21233 0.0
C1031 C 0.43363 0.67725 0.22954 0.0
C1032 C 0.43098 0.64757 0.20591 0.0
C1033 C 0.44798 0.64446 0.21655 0.0
C1034 C 0.45753 0.65772 0.23389 0.0
C1035 C 0.45049 0.67401 0.24029 0.0
H1036 H 0.88064 0.46496 0.3325 0.0
H1037 H 0.90302 0.48277 0.39272 0.0
H1038 H 0.83915 0.45157 0.34195 0.0
H1039 H 0.8615 0.46859 0.40242 0.0
H1040 H 0.79026 0.46644 0.4104 0.0
H1041 H 0.83137 0.4793 0.40067 0.0
H1042 H 0.80511 0.4214 0.35838 0.0
H1043 H 0.764 0.40967 0.36707 0.0
C1044 C 0.87656 0.46563 0.34781 0.0
C1045 C 0.89499 0.47495 0.36187 0.0
C1046 C 0.85279 0.4579 0.35327 0.0
C1047 C 0.84689 0.45906 0.37297 0.0
C1048 C 0.86538 0.46791 0.38707 0.0
C1049 C 0.88916 0.47591 0.38156 0.0
C1050 C 0.7932 0.45664 0.39883 0.0
C1051 C 0.7737 0.437 0.38954 0.0
C1052 C 0.81686 0.4638 0.39344 0.0
C1053 C 0.82167 0.45136 0.37876 0.0
C1054 C 0.80217 0.43163 0.36956 0.0
C1055 C 0.77851 0.42464 0.37479 0.0
H1056 H 0.07669 0.55771 0.4352 0.0
H1057 H 0.13422 0.56729 0.39656 0.0
H1058 H 0.10377 0.56846 0.46313 0.0
H1059 H 0.16114 0.57752 0.42467 0.0
H1060 H 0.19283 0.56939 0.48351 0.0
H1061 H 0.16607 0.55823 0.45519 0.0
H1062 H 0.1404 0.60519 0.4754 0.0
H1063 H 0.16743 0.61681 0.50339 0.0
C1064 C 0.09515 0.56229 0.43261 0.0
C1065 C 0.10328 0.56177 0.41357 0.0
C1066 C 0.11064 0.56835 0.44865 0.0
C1067 C 0.13458 0.57387 0.44608 0.0
C1068 C 0.14269 0.57308 0.42712 0.0
C1069 C 0.12724 0.56719 0.41103 0.0
C1070 C 0.18166 0.57752 0.48183 0.0
C1071 C 0.18223 0.59392 0.49584 0.0
C1072 C 0.16631 0.57109 0.46562 0.0
C1073 C 0.15108 0.58076 0.46314 0.0
C1074 C 0.15165 0.59713 0.4771 0.0
C1075 C 0.1671 0.60371 0.49319 0.0
H1076 H 0.59177 0.10241 0.58021 0.0
H1077 H 0.5304 0.11307 0.57973 0.0
H1078 H 0.60868 0.13006 0.60782 0.0
H1079 H 0.54691 0.14006 0.6078 0.0
H1080 H 0.59563 0.20627 0.64475 0.0
H1081 H 0.58012 0.17989 0.61628 0.0
H1082 H 0.60079 0.13166 0.64263 0.0
H1083 H 0.61703 0.15848 0.67085 0.0
C1084 C 0.58193 0.11073 0.58594 0.0
C1085 C 0.55974 0.10555 0.57773 0.0
C1086 C 0.5915 0.12636 0.60192 0.0
C1087 C 0.57913 0.13723 0.61005 0.0
C1088 C 0.55701 0.13217 0.60177 0.0
C1089 C 0.54742 0.1165 0.58582 0.0
C1090 C 0.59714 0.19019 0.64437 0.0
C1091 C 0.60763 0.18452 0.66005 0.0
C1092 C 0.58799 0.17492 0.62814 0.0
C1093 C 0.58916 0.15364 0.62719 0.0
C1094 C 0.59981 0.14804 0.64282 0.0
C1095 C 0.60889 0.16328 0.65908 0.0
H1096 H 0.5026 0.59725 0.73497 0.0
H1097 H 0.44753 0.52558 0.75159 0.0
H1098 H 0.49178 0.61389 0.76281 0.0
H1099 H 0.43642 0.54226 0.77921 0.0
H1100 H 0.44301 0.57846 0.83875 0.0
H1101 H 0.45443 0.56253 0.81083 0.0
H1102 H 0.45767 0.61895 0.77417 0.0
H1103 H 0.44667 0.63518 0.80221 0.0
C1104 C 0.48819 0.58506 0.74457 0.0
C1105 C 0.47594 0.5601 0.74111 0.0
C1106 C 0.48186 0.59461 0.76041 0.0
C1107 C 0.46329 0.57938 0.77323 0.0
C1108 C 0.45097 0.55443 0.76971 0.0
C1109 C 0.45717 0.5449 0.75378 0.0
C1110 C 0.44641 0.58762 0.82478 0.0
C1111 C 0.44398 0.60811 0.82269 0.0
C1112 C 0.45269 0.57834 0.80875 0.0
C1113 C 0.45686 0.58943 0.79028 0.0
C1114 C 0.45472 0.6101 0.78824 0.0
C1115 C 0.44825 0.61928 0.80424 0.0
H1116 H 0.96085 0.48026 0.935 0.0
H1117 H 0.90338 0.47095 0.89644 0.0
H1118 H 0.93385 0.46969 0.96298 0.0
H1119 H 0.87642 0.46057 0.92452 0.0
H1120 H 0.84355 0.46784 0.98249 0.0
H1121 H 0.87051 0.47894 0.95432 0.0
H1122 H 0.89814 0.43429 0.97622 0.0
H1123 H 0.87113 0.42302 0.00421 0.0
C1124 C 0.94239 0.47574 0.93245 0.0
C1125 C 0.93427 0.47635 0.91344 0.0
C1126 C 0.92693 0.46973 0.94851 0.0
C1127 C 0.90298 0.46426 0.94597 0.0
C1128 C 0.89486 0.46501 0.92699 0.0
C1129 C 0.91032 0.47095 0.91091 0.0
C1130 C 0.85526 0.46026 0.98122 0.0
C1131 C 0.85524 0.44462 0.99568 0.0
C1132 C 0.8707 0.46663 0.96508 0.0
C1133 C 0.8865 0.45754 0.96306 0.0
C1134 C 0.88647 0.44192 0.97751 0.0
C1135 C 0.87101 0.43551 0.99359 0.0
H1136 H 0.51426 0.93385 0.08415 0.0
H1137 H 0.44615 0.93186 0.07871 0.0
H1138 H 0.49911 0.90759 0.11247 0.0
H1139 H 0.43033 0.90396 0.10603 0.0
H1140 H 0.41536 0.87222 0.16718 0.0
H1141 H 0.43176 0.90061 0.14014 0.0
H1142 H 0.47322 0.8678 0.12161 0.0
H1143 H 0.45844 0.84087 0.14947 0.0
C1144 C 0.49603 0.92782 0.08894 0.0
C1145 C 0.48151 0.93512 0.07906 0.0
C1146 C 0.48717 0.91237 0.10506 0.0
C1147 C 0.46339 0.90345 0.11159 0.0
C1148 C 0.44882 0.91066 0.10165 0.0
C1149 C 0.4578 0.92639 0.0857 0.0
C1150 C 0.42828 0.87131 0.15754 0.0
C1151 C 0.43547 0.85412 0.16059 0.0
C1152 C 0.43743 0.88739 0.1418 0.0
C1153 C 0.45381 0.88655 0.12855 0.0
C1154 C 0.46093 0.86932 0.1316 0.0
C1155 C 0.45207 0.85349 0.14746 0.0
H1156 H 0.53102 0.43926 0.23842 0.0
H1157 H 0.59185 0.50985 0.25001 0.0
H1158 H 0.54247 0.42298 0.26604 0.0
H1159 H 0.6034 0.49349 0.27748 0.0
H1160 H 0.63051 0.45023 0.31166 0.0
H1161 H 0.61887 0.46596 0.28381 0.0
H1162 H 0.54456 0.42556 0.30216 0.0
H1163 H 0.55615 0.40927 0.32977 0.0
C1164 C 0.54675 0.45135 0.24693 0.0
C1165 C 0.5605 0.47588 0.24199 0.0
C1166 C 0.5533 0.442 0.26275 0.0
C1167 C 0.57382 0.45694 0.27396 0.0
C1168 C 0.58767 0.48143 0.26896 0.0
C1169 C 0.58107 0.4908 0.25319 0.0
C1170 C 0.61165 0.4445 0.30964 0.0
C1171 C 0.59423 0.42841 0.32288 0.0
C1172 C 0.60503 0.45373 0.29381 0.0
C1173 C 0.5808 0.44703 0.29078 0.0
C1174 C 0.56335 0.43089 0.30398 0.0
C1175 C 0.57 0.42174 0.3199 0.0
H1176 H 0.50207 0.923 0.42564 0.0
H1177 H 0.44367 0.93597 0.41241 0.0
H1178 H 0.49019 0.89495 0.3982 0.0
H1179 H 0.43184 0.908 0.38496 0.0
H1180 H 0.40281 0.83872 0.34966 0.0
H1181 H 0.41458 0.86557 0.37783 0.0
H1182 H 0.48944 0.89465 0.36261 0.0
H1183 H 0.47768 0.86704 0.33486 0.0
C1184 C 0.48678 0.91998 0.4168 0.0
C1185 C 0.47382 0.93174 0.42122 0.0
C1186 C 0.47999 0.90392 0.40106 0.0
C1187 C 0.46007 0.89922 0.38935 0.0
C1188 C 0.44704 0.9109 0.39385 0.0
C1189 C 0.45382 0.92694 0.4096 0.0
C1190 C 0.4218 0.8506 0.35246 0.0
C1191 C 0.4393 0.85065 0.34001 0.0
C1192 C 0.42854 0.86622 0.36848 0.0
C1193 C 0.45296 0.88233 0.37247 0.0
C1194 C 0.47048 0.88231 0.36009 0.0
C1195 C 0.46373 0.86667 0.34404 0.0
H1196 H 0.54267 0.4856 0.56036 0.0
H1197 H 0.57609 0.45791 0.59931 0.0
H1198 H 0.55953 0.47575 0.53223 0.0
H1199 H 0.59241 0.4473 0.5712 0.0
H1200 H 0.6371 0.452 0.51794 0.0
H1201 H 0.62142 0.46366 0.54586 0.0
H1202 H 0.55577 0.4429 0.51377 0.0
H1203 H 0.57186 0.43201 0.48574 0.0
C1204 C 0.55342 0.47714 0.56286 0.0
C1205 C 0.55804 0.47248 0.58201 0.0
C1206 C 0.56305 0.47142 0.54675 0.0
C1207 C 0.57733 0.46065 0.54937 0.0
C1208 C 0.58187 0.45596 0.56858 0.0
C1209 C 0.57244 0.46193 0.58471 0.0
C1210 C 0.61934 0.44999 0.5169 0.0
C1211 C 0.60573 0.44118 0.49965 0.0
C1212 C 0.61027 0.45655 0.53292 0.0
C1213 C 0.58726 0.45419 0.53215 0.0
C1214 C 0.57372 0.44541 0.51482 0.0
C1215 C 0.5829 0.4391 0.49874 0.0
H1216 H 0.13421 0.56129 0.7705 0.0
H1217 H 0.08145 0.56774 0.73566 0.0
H1218 H 0.16257 0.57706 0.74325 0.0
H1219 H 0.11001 0.58396 0.70864 0.0
H1220 H 0.17684 0.63533 0.6726 0.0
H1221 H 0.14924 0.62047 0.70038 0.0
H1222 H 0.16637 0.5641 0.70955 0.0
H1223 H 0.19355 0.57854 0.68158 0.0
C1224 C 0.12859 0.56592 0.75702 0.0
C1225 C 0.1055 0.5632 0.75531 0.0
C1226 C 0.14488 0.57503 0.74144 0.0
C1227 C 0.13853 0.58179 0.72383 0.0
C1228 C 0.11555 0.57924 0.72213 0.0
C1229 C 0.0992 0.56998 0.73765 0.0
C1230 C 0.1746 0.61964 0.68042 0.0
C1231 C 0.18747 0.60816 0.6748 0.0
C1232 C 0.15882 0.61117 0.69637 0.0
C1233 C 0.15566 0.59113 0.70715 0.0
C1234 C 0.16869 0.57979 0.7017 0.0
C1235 C 0.18433 0.58814 0.68568 0.0
H1236 H 0.54003 0.11921 0.92818 0.0
H1237 H 0.58554 0.09297 0.90563 0.0
H1238 H 0.55123 0.14706 0.9005 0.0
H1239 H 0.59678 0.12083 0.87797 0.0
H1240 H 0.58845 0.15455 0.82076 0.0
H1241 H 0.57584 0.12631 0.84825 0.0
H1242 H 0.58938 0.18397 0.88821 0.0
H1243 H 0.60195 0.21219 0.86072 0.0
C1244 C 0.55238 0.11938 0.91727 0.0
C1245 C 0.56194 0.10396 0.91903 0.0
C1246 C 0.55889 0.13539 0.90152 0.0
C1247 C 0.57482 0.13605 0.88708 0.0
C1248 C 0.5843 0.12055 0.88881 0.0
C1249 C 0.57805 0.10478 0.9047 0.0
C1250 C 0.58848 0.1611 0.8354 0.0
C1251 C 0.59614 0.18553 0.83863 0.0
C1252 C 0.58148 0.14501 0.85112 0.0
C1253 C 0.58171 0.15298 0.87035 0.0
C1254 C 0.58891 0.17732 0.87353 0.0
C1255 C 0.59622 0.19347 0.85784 0.0
H1256 H 0.44646 0.5286 0.07983 0.0
H1257 H 0.50471 0.60204 0.08464 0.0
H1258 H 0.43068 0.53968 0.05166 0.0
H1259 H 0.4888 0.61325 0.05664 0.0
H1260 H 0.46946 0.61922 0.99358 0.0
H1261 H 0.48443 0.60763 0.02184 0.0
H1262 H 0.4115 0.5622 0.04215 0.0
H1263 H 0.39643 0.57287 0.0133 0.0
C1264 C 0.45573 0.54719 0.07501 0.0
C1265 C 0.47687 0.56444 0.08443 0.0
C1266 C 0.44667 0.55356 0.05887 0.0
C1267 C 0.45849 0.57735 0.05182 0.0
C1268 C 0.47948 0.59466 0.06143 0.0
C1269 C 0.48858 0.58826 0.07751 0.0
C1270 C 0.45656 0.60648 0.00391 0.0
C1271 C 0.43171 0.5969 1.00108 0.0
C1272 C 0.46519 0.60011 0.0203 0.0
C1273 C 0.4492 0.58405 0.03435 0.0
C1274 C 0.42433 0.57444 0.03153 0.0
C1275 C 0.41569 0.58077 0.01509 0.0
H1276 H 0.93921 0.5126 0.24482 0.0
H1277 H 0.92266 0.44062 0.26033 0.0
H1278 H 0.91132 0.49645 0.21723 0.0
H1279 H 0.89514 0.42452 0.2325 0.0
H1280 H 0.82901 0.40359 0.19318 0.0
H1281 H 0.85606 0.41947 0.22134 0.0
H1282 H 0.90903 0.47694 0.18532 0.0
H1283 H 0.88182 0.46139 0.15731 0.0
C1284 C 0.92951 0.49332 0.2424 0.0
C1285 C 0.93315 0.47788 0.25473 0.0
C1286 C 0.91373 0.4841 0.22649 0.0
C1287 C 0.90111 0.45922 0.22265 0.0
C1288 C 0.90449 0.44375 0.23515 0.0
C1289 C 0.9204 0.45299 0.25098 0.0
C1290 C 0.84639 0.41966 0.19132 0.0
C1291 C 0.85329 0.43122 0.17303 0.0
C1292 C 0.86195 0.42864 0.20739 0.0
C1293 C 0.88465 0.44948 0.20556 0.0
C1294 C 0.89156 0.46099 0.18725 0.0
C1295 C 0.87608 0.45192 0.17115 0.0
loop_
_geom_bond_atom_site_label_1
_geom_bond_atom_site_label_2
_geom_bond_distance
_geom_bond_site_symmetry_2
_ccdc_geom_bond_type
H0 C19 0.949 . S
H1 C20 0.950 . S
H2 C22 0.950 . S
H3 C23 0.950 . S
H4 C25 0.950 . S
H5 C28 0.950 . S
H6 C29 0.950 . S
H7 C31 0.951 . S
H8 C32 0.949 . S
H9 C34 0.949 . S
H10 C35 0.950 . S
H11 C37 0.950 . S
H12 C38 0.950 . S
H13 C40 0.950 . S
H14 C43 0.950 . S
H15 C44 0.950 . S
H16 C46 0.951 . S
H17 C47 0.949 . S
C18 C19 1.376 . S
C18 C23 1.386 . S
C18 C24 1.477 1_655 S
C19 H0 0.949 . S
C19 C18 1.376 . S
C19 C20 1.397 . S
C20 H1 0.950 . S
C20 C19 1.397 . S
C20 C21 1.391 . S
C21 C20 1.391 . S
C21 C22 1.405 . S
C22 H2 0.950 . S
C22 C21 1.405 . S
C22 C23 1.367 . S
C23 H3 0.950 . S
C23 C18 1.386 . S
C23 C22 1.367 . S
C24 C18 1.477 1_455 S
C24 C25 1.391 . S
C24 C26 1.399 1_455 S
C25 H4 0.950 . S
C25 C24 1.391 . S
C25 C41 1.411 . S
C26 C24 1.399 1_655 S
C26 C27 1.489 . S
C26 C40 1.411 1_655 S
C27 C26 1.489 . S
C27 C28 1.383 . S
C27 C32 1.382 . S
C28 H5 0.950 . S
C28 C27 1.383 . S
C28 C29 1.395 . S
C29 H6 0.950 . S
C29 C28 1.395 . S
C29 C30 1.288 . S
C30 C29 1.288 . S
C30 C31 1.392 . S
C31 H7 0.951 . S
C31 C30 1.392 . S
C31 C32 1.392 . S
C32 H8 0.949 . S
C32 C27 1.382 . S
C32 C31 1.392 . S
C33 C34 1.376 . S
C33 C38 1.386 . S
C33 C39 1.483 . S
C34 H9 0.949 . S
C34 C33 1.376 . S
C34 C35 1.397 . S
C35 H10 0.950 . S
C35 C34 1.397 . S
C35 C36 1.391 . S
C36 C35 1.391 . S
C36 C37 1.405 . S
C37 H11 0.950 . S
C37 C36 1.405 . S
C37 C38 1.367 . S
C38 H12 0.950 . S
C38 C33 1.386 . S
C38 C37 1.367 . S
C39 C33 1.483 . S
C39 C40 1.382 . S
C39 C41 1.403 . S
C40 H13 0.950 . S
C40 C26 1.411 1_455 S
C40 C39 1.382 . S
C41 C25 1.411 . S
C41 C39 1.403 . S
C41 C42 1.489 . S
C42 C41 1.489 . S
C42 C43 1.383 . S
C42 C47 1.382 . S
C43 H14 0.950 . S
C43 C42 1.383 . S
C43 C44 1.395 . S
C44 H15 0.950 . S
C44 C43 1.395 . S
C44 C45 1.288 . S
C45 C44 1.288 . S
C45 C46 1.392 . S
C46 H16 0.951 . S
C46 C45 1.392 . S
C46 C47 1.392 . S
C47 H17 0.949 . S
C47 C42 1.382 . S
C47 C46 1.392 . S
H48 C67 0.949 . S
H49 C68 0.950 . S
H50 C70 0.950 . S
H51 C71 0.950 . S
H52 C73 0.950 . S
H53 C76 0.950 . S
H54 C77 0.950 . S
H55 C79 0.951 . S
H56 C80 0.957 . S
H57 C82 0.949 . S
H58 C83 0.950 . S
H59 C85 0.950 . S
H60 C86 0.950 . S
H61 C88 0.950 . S
H62 C91 0.950 . S
H63 C92 0.950 . S
H64 C94 0.951 . S
H65 C95 0.949 . S
C66 C67 1.376 . S
C66 C71 1.386 . S
C66 C72 1.483 . S
C67 H48 0.949 . S
C67 C66 1.376 . S
C67 C68 1.397 . S
C68 H49 0.950 . S
C68 C67 1.397 . S
C68 C69 1.391 . S
C69 C68 1.391 . S
C69 C70 1.405 . S
C70 H50 0.950 . S
C70 C69 1.405 . S
C70 C71 1.367 . S
C71 H51 0.950 . S
C71 C66 1.386 . S
C71 C70 1.367 . S
C72 C66 1.483 . S
C72 C73 1.382 1_565 S
C72 C74 1.403 1_565 S
C73 H52 0.950 . S
C73 C72 1.382 1_545 S
C73 C89 1.411 . S
C74 C72 1.403 1_545 S
C74 C75 1.489 1_545 S
C74 C88 1.411 . S
C75 C74 1.489 1_565 S
C75 C76 1.383 . S
C75 C80 1.382 . S
C76 H53 0.950 . S
C76 C75 1.383 . S
C76 C77 1.395 . S
C77 H54 0.950 . S
C77 C76 1.395 . S
C77 C78 1.288 . S
C78 C77 1.288 . S
C78 C79 1.392 . S
C79 H55 0.951 . S
C79 C78 1.392 . S
C79 C80 1.392 . S
C80 H56 0.957 . S
C80 C75 1.382 . S
C80 C79 1.392 . S
C81 C82 1.376 . S
C81 C86 1.386 . S
C81 C87 1.483 . S
C82 H57 0.949 . S
C82 C81 1.376 . S
C82 C83 1.397 . S
C83 H58 0.950 . S
C83 C82 1.397 . S
C83 C84 1.391 . S
C84 C83 1.391 . S
C84 C85 1.405 . S
C85 H59 0.950 . S
C85 C84 1.405 . S
C85 C86 1.367 . S
C86 H60 0.950 . S
C86 C81 1.386 . S
C86 C85 1.367 . S
C87 C81 1.483 . S
C87 C88 1.382 . S
C87 C89 1.403 . S
C88 H61 0.950 . S
C88 C74 1.411 . S
C88 C87 1.382 . S
C89 C73 1.411 . S
C89 C87 1.403 . S
C89 C90 1.489 . S
C90 C89 1.489 . S
C90 C91 1.383 . S
C90 C95 1.382 . S
C91 H62 0.950 . S
C91 C90 1.383 . S
C91 C92 1.395 . S
C92 H63 0.950 . S
C92 C91 1.395 . S
C92 C93 1.288 . S
C93 C92 1.288 . S
C93 C94 1.392 . S
C94 H64 0.951 . S
C94 C93 1.392 . S
C94 C95 1.392 . S
C95 H65 0.949 . S
C95 C90 1.382 . S
C95 C94 1.392 . S
H96 C115 0.949 . S
H97 C116 0.950 . S
H98 C118 0.950 . S
H99 C119 0.950 . S
H100 C121 0.950 . S
H101 C124 0.950 . S
H102 C125 0.950 . S
H103 C127 0.951 . S
H104 C128 0.949 . S
H105 C130 0.949 . S
H106 C131 0.950 . S
H107 C133 0.950 . S
H108 C134 0.950 . S
H109 C136 0.950 . S
H110 C139 0.950 . S
H111 C140 0.950 . S
H112 C142 0.951 . S
H113 C143 0.949 . S
C114 C115 1.376 . S
C114 C119 1.386 . S
C114 C120 1.483 . S
C115 H96 0.949 . S
C115 C114 1.376 . S
C115 C116 1.397 . S
C116 H97 0.950 . S
C116 C115 1.397 . S
C116 C117 1.391 . S
C117 C116 1.391 . S
C117 C118 1.405 . S
C118 H98 0.950 . S
C118 C117 1.405 . S
C118 C119 1.367 . S
C119 H99 0.950 . S
C119 C114 1.386 . S
C119 C118 1.367 . S
C120 C114 1.483 . S
C120 C121 1.382 . S
C120 C122 1.403 . S
C121 H100 0.950 . S
C121 C120 1.382 . S
C121 C137 1.411 . S
C122 C120 1.403 . S
C122 C123 1.489 . S
C122 C136 1.411 . S
C123 C122 1.489 . S
C123 C124 1.383 . S
C123 C128 1.382 . S
C124 H101 0.950 . S
C124 C123 1.383 . S
C124 C125 1.395 . S
C125 H102 0.950 . S
C125 C124 1.395 . S
C125 C126 1.288 . S
C126 C125 1.288 . S
C126 C127 1.392 . S
C127 H103 0.951 . S
C127 C126 1.392 . S
C127 C128 1.392 . S
C128 H104 0.949 . S
C128 C123 1.382 . S
C128 C127 1.392 . S
C129 C130 1.376 . S
C129 C134 1.386 . S
C129 C135 1.483 . S
C130 H105 0.949 . S
C130 C129 1.376 . S
C130 C131 1.397 . S
C131 H106 0.950 . S
C131 C130 1.397 . S
C131 C132 1.391 . S
C132 C131 1.391 . S
C132 C133 1.405 . S
C133 H107 0.950 . S
C133 C132 1.405 . S
C133 C134 1.367 . S
C134 H108 0.950 . S
C134 C129 1.386 . S
C134 C133 1.367 . S
C135 C129 1.483 . S
C135 C136 1.382 . S
C135 C137 1.403 . S
C136 H109 0.950 . S
C136 C122 1.411 . S
C136 C135 1.382 . S
C137 C121 1.411 . S
C137 C135 1.403 . S
C137 C138 1.489 . S
C138 C137 1.489 . S
C138 C139 1.383 . S
C138 C143 1.382 . S
C139 H110 0.950 . S
C139 C138 1.383 . S
C139 C140 1.395 . S
C140 H111 0.950 . S
C140 C139 1.395 . S
C140 C141 1.288 . S
C141 C140 1.288 . S
C141 C142 1.392 . S
C142 H112 0.951 . S
C142 C141 1.392 . S
C142 C143 1.392 . S
C143 H113 0.949 . S
C143 C138 1.382 . S
C143 C142 1.392 . S
H144 C163 0.949 . S
H145 C164 0.950 . S
H146 C166 0.950 . S
H147 C167 0.950 . S
H148 C169 0.950 . S
H149 C172 0.950 . S
H150 C173 0.950 . S
H151 C175 0.951 . S
H152 C176 0.949 . S
H153 C178 0.949 . S
H154 C179 0.950 . S
H155 C181 0.950 . S
H156 C182 0.950 . S
H157 C184 0.950 . S
H158 C187 0.950 . S
H159 C188 0.950 . S
H160 C190 0.951 . S
H161 C191 0.949 . S
C162 C163 1.376 . S
C162 C167 1.386 . S
C162 C168 1.483 . S
C163 H144 0.949 . S
C163 C162 1.376 . S
C163 C164 1.397 . S
C164 H145 0.950 . S
C164 C163 1.397 . S
C164 C165 1.391 . S
C165 C164 1.391 . S
C165 C166 1.405 . S
C166 H146 0.950 . S
C166 C165 1.405 . S
C166 C167 1.367 . S
C167 H147 0.950 . S
C167 C162 1.386 . S
C167 C166 1.367 . S
C168 C162 1.483 . S
C168 C169 1.382 . S
C168 C170 1.403 . S
C169 H148 0.950 . S
C169 C168 1.382 . S
C169 C185 1.411 1_455 S
C170 C168 1.403 . S
C170 C171 1.489 . S
C170 C184 1.411 . S
C171 C170 1.489 . S
C171 C172 1.383 . S
C171 C176 1.382 . S
C172 H149 0.950 . S
C172 C171 1.383 . S
C172 C173 1.395 . S
C173 H150 0.950 . S
C173 C172 1.395 . S
C173 C174 1.288 . S
C174 C173 1.288 . S
C174 C175 1.392 . S
C175 H151 0.951 . S
C175 C174 1.392 . S
C175 C176 1.392 . S
C176 H152 0.949 . S
C176 C171 1.382 . S
C176 C175 1.392 . S
C177 C178 1.376 . S
C177 C182 1.386 . S
C177 C183 1.472 1_655 S
C178 H153 0.949 . S
C178 C177 1.376 . S
C178 C179 1.397 . S
C179 H154 0.950 . S
C179 C178 1.397 . S
C179 C180 1.391 . S
C180 C179 1.391 . S
C180 C181 1.405 . S
C181 H155 0.950 . S
C181 C180 1.405 . S
C181 C182 1.367 . S
C182 H156 0.950 . S
C182 C177 1.386 . S
C182 C181 1.367 . S
C183 C177 1.472 1_455 S
C183 C184 1.399 . S
C183 C185 1.397 1_455 S
C184 H157 0.950 . S
C184 C170 1.411 . S
C184 C183 1.399 . S
C185 C169 1.411 1_655 S
C185 C183 1.397 1_655 S
C185 C186 1.489 . S
C186 C185 1.489 . S
C186 C187 1.383 . S
C186 C191 1.382 . S
C187 H158 0.950 . S
C187 C186 1.383 . S
C187 C188 1.395 . S
C188 H159 0.950 . S
C188 C187 1.395 . S
C188 C189 1.288 . S
C189 C188 1.288 . S
C189 C190 1.392 . S
C190 H160 0.951 . S
C190 C189 1.392 . S
C190 C191 1.392 . S
C191 H161 0.949 . S
C191 C186 1.382 . S
C191 C190 1.392 . S
H192 C211 0.949 . S
H193 C212 0.950 . S
H194 C214 0.950 . S
H195 C215 0.934 1_556 S
H196 C217 0.950 . S
H197 C220 0.950 . S
H198 C221 0.950 . S
H199 C223 0.951 . S
H200 C224 0.949 . S
H201 C226 0.949 . S
H202 C227 0.950 . S
H203 C229 0.950 . S
H204 C230 0.950 . S
H205 C232 0.950 . S
H206 C235 0.950 . S
H207 C236 0.950 . S
H208 C238 0.951 . S
H209 C239 0.957 . S
C210 C211 1.376 . S
C210 C215 1.393 . S
C210 C216 1.477 1_554 S
C211 H192 0.949 . S
C211 C210 1.376 . S
C211 C212 1.397 . S
C212 H193 0.950 . S
C212 C211 1.397 . S
C212 C213 1.391 . S
C213 C212 1.391 . S
C213 C214 1.405 . S
C214 H194 0.950 . S
C214 C213 1.405 . S
C214 C215 1.378 . S
C215 H195 0.934 1_554 S
C215 C210 1.393 . S
C215 C214 1.378 . S
C216 C210 1.477 1_556 S
C216 C217 1.364 1_556 S
C216 C218 1.425 . S
C217 H196 0.950 . S
C217 C216 1.364 1_554 S
C217 C233 1.411 . S
C218 C216 1.425 . S
C218 C219 1.489 . S
C218 C232 1.411 . S
C219 C218 1.489 . S
C219 C220 1.383 . S
C219 C224 1.382 . S
C220 H197 0.950 . S
C220 C219 1.383 . S
C220 C221 1.395 . S
C221 H198 0.950 . S
C221 C220 1.395 . S
C221 C222 1.288 . S
C222 C221 1.288 . S
C222 C223 1.392 . S
C223 H199 0.951 . S
C223 C222 1.392 . S
C223 C224 1.392 . S
C224 H200 0.949 . S
C224 C219 1.382 . S
C224 C223 1.392 . S
C225 C226 1.376 . S
C225 C230 1.386 . S
C225 C231 1.483 . S
C226 H201 0.949 . S
C226 C225 1.376 . S
C226 C227 1.397 . S
C227 H202 0.950 . S
C227 C226 1.397 . S
C227 C228 1.391 . S
C228 C227 1.391 . S
C228 C229 1.405 . S
C229 H203 0.950 . S
C229 C228 1.405 . S
C229 C230 1.367 . S
C230 H204 0.950 . S
C230 C225 1.386 . S
C230 C229 1.367 . S
C231 C225 1.483 . S
C231 C232 1.382 1_565 S
C231 C233 1.403 1_566 S
C232 H205 0.950 . S
C232 C218 1.411 . S
C232 C231 1.382 1_545 S
C233 C217 1.411 . S
C233 C231 1.403 1_544 S
C233 C234 1.489 1_545 S
C234 C233 1.489 1_565 S
C234 C235 1.383 . S
C234 C239 1.382 . S
C235 H206 0.950 . S
C235 C234 1.383 . S
C235 C236 1.395 . S
C236 H207 0.950 . S
C236 C235 1.395 . S
C236 C237 1.288 . S
C237 C236 1.288 . S
C237 C238 1.392 . S
C238 H208 0.951 . S
C238 C237 1.392 . S
C238 C239 1.392 . S
C239 H209 0.957 . S
C239 C234 1.382 . S
C239 C238 1.392 . S
H240 C259 0.949 . S
H241 C260 0.950 . S
H242 C262 0.950 . S
H243 C263 0.950 . S
H244 C265 0.950 . S
H245 C268 0.950 . S
H246 C269 0.950 . S
H247 C271 0.951 . S
H248 C272 0.949 . S
H249 C274 0.949 . S
H250 C275 0.950 . S
H251 C277 0.950 . S
H252 C278 0.950 . S
H253 C280 0.950 . S
H254 C283 0.950 . S
H255 C284 0.950 . S
H256 C286 0.951 . S
H257 C287 0.949 . S
C258 C259 1.376 . S
C258 C263 1.386 . S
C258 C264 1.483 . S
C259 H240 0.949 . S
C259 C258 1.376 . S
C259 C260 1.397 . S
C260 H241 0.950 . S
C260 C259 1.397 . S
C260 C261 1.391 . S
C261 C260 1.391 . S
C261 C262 1.405 . S
C262 H242 0.950 . S
C262 C261 1.405 . S
C262 C263 1.367 . S
C263 H243 0.950 . S
C263 C258 1.386 . S
C263 C262 1.367 . S
C264 C258 1.483 . S
C264 C265 1.382 . S
C264 C266 1.403 . S
C265 H244 0.950 . S
C265 C264 1.382 . S
C265 C281 1.411 . S
C266 C264 1.403 . S
C266 C267 1.489 . S
C266 C280 1.411 . S
C267 C266 1.489 . S
C267 C268 1.383 . S
C267 C272 1.382 . S
C268 H245 0.950 . S
C268 C267 1.383 . S
C268 C269 1.395 . S
C269 H246 0.950 . S
C269 C268 1.395 . S
C269 C270 1.288 . S
C270 C269 1.288 . S
C270 C271 1.392 . S
C271 H247 0.951 . S
C271 C270 1.392 . S
C271 C272 1.392 . S
C272 H248 0.949 . S
C272 C267 1.382 . S
C272 C271 1.392 . S
C273 C274 1.376 . S
C273 C278 1.386 . S
C273 C279 1.483 . S
C274 H249 0.949 . S
C274 C273 1.376 . S
C274 C275 1.397 . S
C275 H250 0.950 . S
C275 C274 1.397 . S
C275 C276 1.391 . S
C276 C275 1.391 . S
C276 C277 1.405 . S
C277 H251 0.950 . S
C277 C276 1.405 . S
C277 C278 1.367 . S
C278 H252 0.950 . S
C278 C273 1.386 . S
C278 C277 1.367 . S
C279 C273 1.483 . S
C279 C280 1.382 . S
C279 C281 1.403 . S
C280 H253 0.950 . S
C280 C266 1.411 . S
C280 C279 1.382 . S
C281 C265 1.411 . S
C281 C279 1.403 . S
C281 C282 1.489 . S
C282 C281 1.489 . S
C282 C283 1.383 . S
C282 C287 1.382 . S
C283 H254 0.950 . S
C283 C282 1.383 . S
C283 C284 1.395 . S
C284 H255 0.950 . S
C284 C283 1.395 . S
C284 C285 1.288 . S
C285 C284 1.288 . S
C285 C286 1.392 . S
C286 H256 0.951 . S
C286 C285 1.392 . S
C286 C287 1.392 . S
C287 H257 0.949 . S
C287 C282 1.382 . S
C287 C286 1.392 . S
Li288 N305 1.990 . S
Li288 O348 1.956 . S
Li288 O349 1.970 . S
Li288 O350 1.961 . S
Li289 N313 1.990 . S
Li289 O348 1.970 . S
Li289 O349 1.956 . S
Li289 O351 1.961 . S
Li290 N335 1.990 . S
Li290 O348 1.961 . S
Li290 O350 1.956 . S
Li290 O351 1.970 . S
Li291 N341 1.990 . S
Li291 O349 1.961 . S
Li291 O350 1.970 . S
Li291 O351 1.956 . S
C292 C294 1.348 . S
C292 C295 1.356 . S
C292 O348 1.325 . S
N293 C296 1.314 . S
N293 C297 1.279 . S
C294 C292 1.348 . S
C294 C296 1.353 . S
C294 H352 0.929 . S
C295 C292 1.356 . S
C295 C297 1.358 . S
C295 H353 0.930 . S
C296 N293 1.314 . S
C296 C294 1.353 . S
C296 H354 0.930 . S
C297 N293 1.279 . S
C297 C295 1.358 . S
C297 H355 0.930 . S
C298 C301 1.348 . S
C298 C302 1.356 . S
C298 O349 1.325 . S
C299 N300 1.279 . S
C299 C302 1.358 . S
C299 H356 0.930 . S
N300 C299 1.279 . S
N300 C303 1.314 . S
C301 C298 1.348 . S
C301 C303 1.353 . S
C301 H357 0.929 . S
C302 C298 1.356 . S
C302 C299 1.358 . S
C302 H358 0.930 . S
C303 N300 1.314 . S
C303 C301 1.353 . S
C303 H359 0.930 . S
C304 N305 1.314 . S
C304 C309 1.353 . S
C304 H310 0.930 . S
N305 Li288 1.990 . S
N305 C304 1.314 . S
N305 C307 1.279 . S
C306 C307 1.358 . S
C306 C308 1.356 . S
C306 H360 0.930 . S
C307 N305 1.279 . S
C307 C306 1.358 . S
C307 H311 0.930 . S
C308 C306 1.356 . S
C308 C309 1.348 . S
C309 C304 1.353 . S
C309 C308 1.348 . S
C309 H361 0.929 . S
H310 C304 0.930 . S
H311 C307 0.930 . S
C312 N313 1.314 . S
C312 C314 1.353 . S
C312 H318 0.930 . S
N313 Li289 1.990 . S
N313 C312 1.314 . S
N313 C316 1.279 . S
C314 C312 1.353 . S
C314 C317 1.348 . S
C314 H362 0.929 . S
C315 C316 1.358 . S
C315 C317 1.356 . S
C315 H363 0.930 . S
C316 N313 1.279 . S
C316 C315 1.358 . S
C316 H319 0.930 . S
C317 C314 1.348 . S
C317 C315 1.356 . S
H318 C312 0.930 . S
H319 C316 0.930 . S
C320 C322 1.348 . S
C320 C323 1.356 . S
C320 O350 1.325 . S
N321 C324 1.314 . S
N321 C325 1.279 . S
C322 C320 1.348 . S
C322 C324 1.353 . S
C322 H364 0.929 . S
C323 C320 1.356 . S
C323 C325 1.358 . S
C323 H365 0.930 . S
C324 N321 1.314 . S
C324 C322 1.353 . S
C324 H366 0.930 . S
C325 N321 1.279 . S
C325 C323 1.358 . S
C325 H367 0.930 . S
C326 C327 1.348 . S
C326 C328 1.356 . S
C326 O351 1.325 . S
C327 C326 1.348 . S
C327 C329 1.353 . S
C327 H368 0.929 . S
C328 C326 1.356 . S
C328 C330 1.358 . S
C328 H369 0.930 . S
C329 C327 1.353 . S
C329 N331 1.314 . S
C329 H370 0.930 . S
C330 C328 1.358 . S
C330 N331 1.279 . S
C330 H371 0.930 . S
N331 C329 1.314 . S
N331 C330 1.279 . S
C332 C334 1.353 . S
C332 N335 1.314 . S
C332 H338 0.930 . S
C333 N335 1.279 . S
C333 C336 1.358 . S
C333 H339 0.930 . S
C334 C332 1.353 . S
C334 C337 1.348 . S
C334 H372 0.929 . S
N335 Li290 1.990 . S
N335 C332 1.314 . S
N335 C333 1.279 . S
C336 C333 1.358 . S
C336 C337 1.356 . S
C336 H373 0.930 . S
C337 C334 1.348 . S
C337 C336 1.356 . S
H338 C332 0.930 . S
H339 C333 0.930 . S
C340 N341 1.314 . S
C340 C342 1.353 . S
C340 H346 0.930 . S
N341 Li291 1.990 . S
N341 C340 1.314 . S
N341 C344 1.279 . S
C342 C340 1.353 . S
C342 C345 1.348 . S
C342 H374 0.929 . S
C343 C344 1.358 . S
C343 C345 1.356 . S
C343 H375 0.930 . S
C344 N341 1.279 . S
C344 C343 1.358 . S
C344 H347 0.930 . S
C345 C342 1.348 . S
C345 C343 1.356 . S
H346 C340 0.930 . S
H347 C344 0.930 . S
O348 Li288 1.956 . S
O348 Li289 1.970 . S
O348 Li290 1.961 . S
O348 C292 1.325 . S
O349 Li288 1.970 . S
O349 Li289 1.956 . S
O349 Li291 1.961 . S
O349 C298 1.325 . S
O350 Li288 1.961 . S
O350 Li290 1.956 . S
O350 Li291 1.970 . S
O350 C320 1.325 . S
O351 Li289 1.961 . S
O351 Li290 1.970 . S
O351 Li291 1.956 . S
O351 C326 1.325 . S
H352 C294 0.929 . S
H353 C295 0.930 . S
H354 C296 0.930 . S
H355 C297 0.930 . S
H356 C299 0.930 . S
H357 C301 0.929 . S
H358 C302 0.930 . S
H359 C303 0.930 . S
H360 C306 0.930 . S
H361 C309 0.929 . S
H362 C314 0.929 . S
H363 C315 0.930 . S
H364 C322 0.929 . S
H365 C323 0.930 . S
H366 C324 0.930 . S
H367 C325 0.930 . S
H368 C327 0.929 . S
H369 C328 0.930 . S
H370 C329 0.930 . S
H371 C330 0.930 . S
H372 C334 0.929 . S
H373 C336 0.930 . S
H374 C342 0.929 . S
H375 C343 0.930 . S
Li376 N393 1.990 . S
Li376 O436 1.956 . S
Li376 O437 1.970 . S
Li376 O438 1.961 . S
Li377 N401 1.990 . S
Li377 O436 1.970 . S
Li377 O437 1.956 . S
Li377 O439 1.961 . S
Li378 N423 1.990 . S
Li378 O436 1.961 . S
Li378 O438 1.956 . S
Li378 O439 1.970 . S
Li379 N429 1.990 . S
Li379 O437 1.961 . S
Li379 O438 1.970 . S
Li379 O439 1.956 . S
C380 C382 1.348 . S
C380 C383 1.356 . S
C380 O436 1.325 . S
N381 C384 1.314 . S
N381 C385 1.279 . S
C382 C380 1.348 . S
C382 C384 1.353 . S
C382 H440 0.929 . S
C383 C380 1.356 . S
C383 C385 1.358 . S
C383 H441 0.930 . S
C384 N381 1.314 . S
C384 C382 1.353 . S
C384 H442 0.930 . S
C385 N381 1.279 . S
C385 C383 1.358 . S
C385 H443 0.930 . S
C386 C389 1.348 . S
C386 C390 1.356 . S
C386 O437 1.325 . S
C387 N388 1.279 . S
C387 C390 1.358 . S
C387 H444 0.930 . S
N388 C387 1.279 . S
N388 C391 1.314 . S
C389 C386 1.348 . S
C389 C391 1.353 . S
C389 H445 0.929 . S
C390 C386 1.356 . S
C390 C387 1.358 . S
C390 H446 0.930 . S
C391 N388 1.314 . S
C391 C389 1.353 . S
C391 H447 0.930 . S
C392 N393 1.314 . S
C392 C397 1.353 . S
C392 H398 0.930 . S
N393 Li376 1.990 . S
N393 C392 1.314 . S
N393 C395 1.279 . S
C394 C395 1.358 . S
C394 C396 1.356 . S
C394 H448 0.930 . S
C395 N393 1.279 . S
C395 C394 1.358 . S
C395 H399 0.930 . S
C396 C394 1.356 . S
C396 C397 1.348 . S
C397 C392 1.353 . S
C397 C396 1.348 . S
C397 H449 0.929 . S
H398 C392 0.930 . S
H399 C395 0.930 . S
C400 N401 1.314 . S
C400 C402 1.353 . S
C400 H406 0.930 . S
N401 Li377 1.990 . S
N401 C400 1.314 . S
N401 C404 1.279 . S
C402 C400 1.353 . S
C402 C405 1.348 . S
C402 H450 0.929 . S
C403 C404 1.358 . S
C403 C405 1.356 . S
C403 H451 0.930 . S
C404 N401 1.279 . S
C404 C403 1.358 . S
C404 H407 0.930 . S
C405 C402 1.348 . S
C405 C403 1.356 . S
H406 C400 0.930 . S
H407 C404 0.930 . S
C408 C410 1.348 . S
C408 C411 1.356 . S
C408 O438 1.325 . S
N409 C412 1.314 . S
N409 C413 1.279 . S
C410 C408 1.348 . S
C410 C412 1.353 . S
C410 H452 0.929 . S
C411 C408 1.356 . S
C411 C413 1.358 . S
C411 H453 0.930 . S
C412 N409 1.314 . S
C412 C410 1.353 . S
C412 H454 0.930 . S
C413 N409 1.279 . S
C413 C411 1.358 . S
C413 H455 0.930 . S
C414 C415 1.348 . S
C414 C416 1.356 . S
C414 O439 1.325 . S
C415 C414 1.348 . S
C415 C417 1.353 . S
C415 H456 0.929 . S
C416 C414 1.356 . S
C416 C418 1.358 . S
C416 H457 0.930 . S
C417 C415 1.353 . S
C417 N419 1.314 . S
C417 H458 0.930 . S
C418 C416 1.358 . S
C418 N419 1.279 . S
C418 H459 0.930 . S
N419 C417 1.314 . S
N419 C418 1.279 . S
C420 C422 1.353 . S
C420 N423 1.314 . S
C420 H426 0.930 . S
C421 N423 1.279 . S
C421 C424 1.358 . S
C421 H427 0.930 . S
C422 C420 1.353 . S
C422 C425 1.348 . S
C422 H460 0.929 . S
N423 Li378 1.990 . S
N423 C420 1.314 . S
N423 C421 1.279 . S
C424 C421 1.358 . S
C424 C425 1.356 . S
C424 H461 0.930 . S
C425 C422 1.348 . S
C425 C424 1.356 . S
H426 C420 0.930 . S
H427 C421 0.930 . S
C428 N429 1.314 . S
C428 C430 1.353 . S
C428 H434 0.930 . S
N429 Li379 1.990 . S
N429 C428 1.314 . S
N429 C432 1.279 . S
C430 C428 1.353 . S
C430 C433 1.348 . S
C430 H462 0.929 . S
C431 C432 1.358 . S
C431 C433 1.356 . S
C431 H463 0.930 . S
C432 N429 1.279 . S
C432 C431 1.358 . S
C432 H435 0.930 . S
C433 C430 1.348 . S
C433 C431 1.356 . S
H434 C428 0.930 . S
H435 C432 0.930 . S
O436 Li376 1.956 . S
O436 Li377 1.970 . S
O436 Li378 1.961 . S
O436 C380 1.325 . S
O437 Li376 1.970 . S
O437 Li377 1.956 . S
O437 Li379 1.961 . S
O437 C386 1.325 . S
O438 Li376 1.961 . S
O438 Li378 1.956 . S
O438 Li379 1.970 . S
O438 C408 1.325 . S
O439 Li377 1.961 . S
O439 Li378 1.970 . S
O439 Li379 1.956 . S
O439 C414 1.325 . S
H440 C382 0.929 . S
H441 C383 0.930 . S
H442 C384 0.930 . S
H443 C385 0.930 . S
H444 C387 0.930 . S
H445 C389 0.929 . S
H446 C390 0.930 . S
H447 C391 0.930 . S
H448 C394 0.930 . S
H449 C397 0.929 . S
H450 C402 0.929 . S
H451 C403 0.930 . S
H452 C410 0.929 . S
H453 C411 0.930 . S
H454 C412 0.930 . S
H455 C413 0.930 . S
H456 C415 0.929 . S
H457 C416 0.930 . S
H458 C417 0.930 . S
H459 C418 0.930 . S
H460 C422 0.929 . S
H461 C424 0.930 . S
H462 C430 0.929 . S
H463 C431 0.930 . S
Li464 N481 1.990 . S
Li464 O524 1.956 . S
Li464 O525 1.970 . S
Li464 O526 1.961 . S
Li465 N489 1.990 . S
Li465 O524 1.970 . S
Li465 O525 1.956 . S
Li465 O527 1.961 . S
Li466 N511 1.990 . S
Li466 O524 1.961 . S
Li466 O526 1.956 . S
Li466 O527 1.970 . S
Li467 N517 1.990 . S
Li467 O525 1.961 . S
Li467 O526 1.970 . S
Li467 O527 1.956 . S
C468 C470 1.348 . S
C468 C471 1.356 . S
C468 O524 1.325 . S
N469 C472 1.314 . S
N469 C473 1.279 . S
C470 C468 1.348 . S
C470 C472 1.353 . S
C470 H528 0.929 . S
C471 C468 1.356 . S
C471 C473 1.358 . S
C471 H529 0.930 . S
C472 N469 1.314 . S
C472 C470 1.353 . S
C472 H530 0.930 . S
C473 N469 1.279 . S
C473 C471 1.358 . S
C473 H531 0.930 . S
C474 C477 1.348 . S
C474 C478 1.356 . S
C474 O525 1.325 . S
C475 N476 1.279 . S
C475 C478 1.358 . S
C475 H532 0.930 . S
N476 C475 1.279 . S
N476 C479 1.314 . S
C477 C474 1.348 . S
C477 C479 1.353 . S
C477 H533 0.929 . S
C478 C474 1.356 . S
C478 C475 1.358 . S
C478 H534 0.930 . S
C479 N476 1.314 . S
C479 C477 1.353 . S
C479 H535 0.930 . S
C480 N481 1.314 . S
C480 C485 1.353 . S
C480 H486 0.930 . S
N481 Li464 1.990 . S
N481 C480 1.314 . S
N481 C483 1.279 . S
C482 C483 1.358 . S
C482 C484 1.356 . S
C482 H536 0.930 . S
C483 N481 1.279 . S
C483 C482 1.358 . S
C483 H487 0.930 . S
C484 C482 1.356 . S
C484 C485 1.348 . S
C485 C480 1.353 . S
C485 C484 1.348 . S
C485 H537 0.929 . S
H486 C480 0.930 . S
H487 C483 0.930 . S
C488 N489 1.314 . S
C488 C490 1.353 . S
C488 H494 0.930 . S
N489 Li465 1.990 . S
N489 C488 1.314 . S
N489 C492 1.279 . S
C490 C488 1.353 . S
C490 C493 1.348 . S
C490 H538 0.929 . S
C491 C492 1.358 . S
C491 C493 1.356 . S
C491 H539 0.930 . S
C492 N489 1.279 . S
C492 C491 1.358 . S
C492 H495 0.930 . S
C493 C490 1.348 . S
C493 C491 1.356 . S
H494 C488 0.930 . S
H495 C492 0.930 . S
C496 C498 1.348 . S
C496 C499 1.356 . S
C496 O526 1.325 . S
N497 C500 1.314 . S
N497 C501 1.279 . S
C498 C496 1.348 . S
C498 C500 1.353 . S
C498 H540 0.929 . S
C499 C496 1.356 . S
C499 C501 1.358 . S
C499 H541 0.930 . S
C500 N497 1.314 . S
C500 C498 1.353 . S
C500 H542 0.930 . S
C501 N497 1.279 . S
C501 C499 1.358 . S
C501 H543 0.930 . S
C502 C503 1.348 . S
C502 C504 1.356 . S
C502 O527 1.325 . S
C503 C502 1.348 . S
C503 C505 1.353 . S
C503 H544 0.929 . S
C504 C502 1.356 . S
C504 C506 1.358 . S
C504 H545 0.930 . S
C505 C503 1.353 . S
C505 N507 1.314 . S
C505 H546 0.930 . S
C506 C504 1.358 . S
C506 N507 1.279 . S
C506 H547 0.930 . S
N507 C505 1.314 . S
N507 C506 1.279 . S
C508 C510 1.353 . S
C508 N511 1.314 . S
C508 H514 0.930 . S
C509 N511 1.279 . S
C509 C512 1.358 . S
C509 H515 0.930 . S
C510 C508 1.353 . S
C510 C513 1.348 . S
C510 H548 0.929 . S
N511 Li466 1.990 . S
N511 C508 1.314 . S
N511 C509 1.279 . S
C512 C509 1.358 . S
C512 C513 1.356 . S
C512 H549 0.930 . S
C513 C510 1.348 . S
C513 C512 1.356 . S
H514 C508 0.930 . S
H515 C509 0.930 . S
C516 N517 1.314 . S
C516 C518 1.353 . S
C516 H522 0.930 . S
N517 Li467 1.990 . S
N517 C516 1.314 . S
N517 C520 1.279 . S
C518 C516 1.353 . S
C518 C521 1.348 . S
C518 H550 0.929 . S
C519 C520 1.358 . S
C519 C521 1.356 . S
C519 H551 0.930 . S
C520 N517 1.279 . S
C520 C519 1.358 . S
C520 H523 0.930 . S
C521 C518 1.348 . S
C521 C519 1.356 . S
H522 C516 0.930 . S
H523 C520 0.930 . S
O524 Li464 1.956 . S
O524 Li465 1.970 . S
O524 Li466 1.961 . S
O524 C468 1.325 . S
O525 Li464 1.970 . S
O525 Li465 1.956 . S
O525 Li467 1.961 . S
O525 C474 1.325 . S
O526 Li464 1.961 . S
O526 Li466 1.956 . S
O526 Li467 1.970 . S
O526 C496 1.325 . S
O527 Li465 1.961 . S
O527 Li466 1.970 . S
O527 Li467 1.956 . S
O527 C502 1.325 . S
H528 C470 0.929 . S
H529 C471 0.930 . S
H530 C472 0.930 . S
H531 C473 0.930 . S
H532 C475 0.930 . S
H533 C477 0.929 . S
H534 C478 0.930 . S
H535 C479 0.930 . S
H536 C482 0.930 . S
H537 C485 0.929 . S
H538 C490 0.929 . S
H539 C491 0.930 . S
H540 C498 0.929 . S
H541 C499 0.930 . S
H542 C500 0.930 . S
H543 C501 0.930 . S
H544 C503 0.929 . S
H545 C504 0.930 . S
H546 C505 0.930 . S
H547 C506 0.930 . S
H548 C510 0.929 . S
H549 C512 0.930 . S
H550 C518 0.929 . S
H551 C519 0.930 . S
Li552 N569 1.990 . S
Li552 O612 1.956 . S
Li552 O613 1.970 . S
Li552 O614 1.961 . S
Li553 N577 1.990 . S
Li553 O612 1.970 . S
Li553 O613 1.956 . S
Li553 O615 1.961 . S
Li554 N599 1.990 . S
Li554 O612 1.961 . S
Li554 O614 1.956 . S
Li554 O615 1.970 . S
Li555 N605 1.990 . S
Li555 O613 1.961 . S
Li555 O614 1.970 . S
Li555 O615 1.956 . S
C556 C558 1.348 . S
C556 C559 1.356 . S
C556 O612 1.325 . S
N557 C560 1.314 . S
N557 C561 1.279 . S
C558 C556 1.348 . S
C558 C560 1.353 . S
C558 H616 0.929 . S
C559 C556 1.356 . S
C559 C561 1.358 . S
C559 H617 0.930 . S
C560 N557 1.314 . S
C560 C558 1.353 . S
C560 H618 0.930 . S
C561 N557 1.279 . S
C561 C559 1.358 . S
C561 H619 0.930 . S
C562 C565 1.348 . S
C562 C566 1.356 . S
C562 O613 1.325 . S
C563 N564 1.279 . S
C563 C566 1.358 . S
C563 H620 0.930 . S
N564 C563 1.279 . S
N564 C567 1.314 . S
C565 C562 1.348 . S
C565 C567 1.353 . S
C565 H621 0.929 . S
C566 C562 1.356 . S
C566 C563 1.358 . S
C566 H622 0.930 . S
C567 N564 1.314 . S
C567 C565 1.353 . S
C567 H623 0.930 . S
C568 N569 1.314 . S
C568 C573 1.353 . S
C568 H574 0.930 . S
N569 Li552 1.990 . S
N569 C568 1.314 . S
N569 C571 1.279 . S
C570 C571 1.358 . S
C570 C572 1.356 . S
C570 H624 0.930 1_556 S
C571 N569 1.279 . S
C571 C570 1.358 . S
C571 H575 0.930 . S
C572 C570 1.356 . S
C572 C573 1.348 . S
C573 C568 1.353 . S
C573 C572 1.348 . S
C573 H625 0.929 . S
H574 C568 0.930 . S
H575 C571 0.930 . S
C576 N577 1.314 . S
C576 C578 1.353 . S
C576 H582 0.930 . S
N577 Li553 1.990 . S
N577 C576 1.314 . S
N577 C580 1.279 . S
C578 C576 1.353 . S
C578 C581 1.348 . S
C578 H626 0.929 . S
C579 C580 1.358 . S
C579 C581 1.356 . S
C579 H627 0.930 . S
C580 N577 1.279 . S
C580 C579 1.358 . S
C580 H583 0.930 . S
C581 C578 1.348 . S
C581 C579 1.356 . S
H582 C576 0.930 . S
H583 C580 0.930 . S
C584 C586 1.348 . S
C584 C587 1.356 . S
C584 O614 1.325 . S
N585 C588 1.314 . S
N585 C589 1.279 . S
C586 C584 1.348 . S
C586 C588 1.353 . S
C586 H628 0.929 . S
C587 C584 1.356 . S
C587 C589 1.358 . S
C587 H629 0.930 . S
C588 N585 1.314 . S
C588 C586 1.353 . S
C588 H630 0.930 . S
C589 N585 1.279 . S
C589 C587 1.358 . S
C589 H631 0.930 . S
C590 C591 1.348 . S
C590 C592 1.356 . S
C590 O615 1.325 . S
C591 C590 1.348 . S
C591 C593 1.353 . S
C591 H632 0.929 . S
C592 C590 1.356 . S
C592 C594 1.358 . S
C592 H633 0.930 . S
C593 C591 1.353 . S
C593 N595 1.314 . S
C593 H634 0.930 . S
C594 C592 1.358 . S
C594 N595 1.279 . S
C594 H635 0.930 . S
N595 C593 1.314 . S
N595 C594 1.279 . S
C596 C598 1.353 . S
C596 N599 1.314 . S
C596 H602 0.930 . S
C597 N599 1.279 . S
C597 C600 1.358 . S
C597 H603 0.930 . S
C598 C596 1.353 . S
C598 C601 1.348 . S
C598 H636 0.929 . S
N599 Li554 1.990 . S
N599 C596 1.314 . S
N599 C597 1.279 . S
C600 C597 1.358 . S
C600 C601 1.356 . S
C600 H637 0.930 . S
C601 C598 1.348 . S
C601 C600 1.356 . S
H602 C596 0.930 . S
H603 C597 0.930 . S
C604 N605 1.314 . S
C604 C606 1.353 . S
C604 H610 0.930 . S
N605 Li555 1.990 . S
N605 C604 1.314 . S
N605 C608 1.279 . S
C606 C604 1.353 . S
C606 C609 1.348 . S
C606 H638 0.929 . S
C607 C608 1.358 . S
C607 C609 1.356 . S
C607 H639 0.930 . S
C608 N605 1.279 . S
C608 C607 1.358 . S
C608 H611 0.930 . S
C609 C606 1.348 . S
C609 C607 1.356 . S
H610 C604 0.930 . S
H611 C608 0.930 . S
O612 Li552 1.956 . S
O612 Li553 1.970 . S
O612 Li554 1.961 . S
O612 C556 1.325 . S
O613 Li552 1.970 . S
O613 Li553 1.956 . S
O613 Li555 1.961 . S
O613 C562 1.325 . S
O614 Li552 1.961 . S
O614 Li554 1.956 . S
O614 Li555 1.970 . S
O614 C584 1.325 . S
O615 Li553 1.961 . S
O615 Li554 1.970 . S
O615 Li555 1.956 . S
O615 C590 1.325 . S
H616 C558 0.929 . S
H617 C559 0.930 . S
H618 C560 0.930 . S
H619 C561 0.930 . S
H620 C563 0.930 . S
H621 C565 0.929 . S
H622 C566 0.930 . S
H623 C567 0.930 . S
H624 C570 0.930 1_554 S
H625 C573 0.929 . S
H626 C578 0.929 . S
H627 C579 0.930 . S
H628 C586 0.929 . S
H629 C587 0.930 . S
H630 C588 0.930 . S
H631 C589 0.930 . S
H632 C591 0.929 . S
H633 C592 0.930 . S
H634 C593 0.930 . S
H635 C594 0.930 . S
H636 C598 0.929 . S
H637 C600 0.930 . S
H638 C606 0.929 . S
H639 C607 0.930 . S
Li640 N657 1.990 . S
Li640 O700 1.956 . S
Li640 O701 1.970 . S
Li640 O702 1.961 . S
Li641 N665 1.990 . S
Li641 O700 1.970 . S
Li641 O701 1.956 . S
Li641 O703 1.961 . S
Li642 N687 1.990 . S
Li642 O700 1.961 . S
Li642 O702 1.956 . S
Li642 O703 1.970 . S
Li643 N693 1.990 . S
Li643 O701 1.961 . S
Li643 O702 1.970 . S
Li643 O703 1.956 . S
C644 C646 1.348 . S
C644 C647 1.356 . S
C644 O700 1.325 . S
N645 C648 1.314 . S
N645 C649 1.279 . S
C646 C644 1.348 . S
C646 C648 1.353 . S
C646 H704 0.929 . S
C647 C644 1.356 . S
C647 C649 1.358 . S
C647 H705 0.930 . S
C648 N645 1.314 . S
C648 C646 1.353 . S
C648 H706 0.930 . S
C649 N645 1.279 . S
C649 C647 1.358 . S
C649 H707 0.930 . S
C650 C653 1.348 . S
C650 C654 1.356 . S
C650 O701 1.325 . S
C651 N652 1.279 . S
C651 C654 1.358 . S
C651 H708 0.930 . S
N652 C651 1.279 . S
N652 C655 1.314 . S
C653 C650 1.348 . S
C653 C655 1.353 . S
C653 H709 0.929 . S
C654 C650 1.356 . S
C654 C651 1.358 . S
C654 H710 0.930 . S
C655 N652 1.314 . S
C655 C653 1.353 . S
C655 H711 0.930 . S
C656 N657 1.314 . S
C656 C661 1.353 . S
C656 H662 0.930 . S
N657 Li640 1.990 . S
N657 C656 1.314 . S
N657 C659 1.279 . S
C658 C659 1.358 . S
C658 C660 1.356 . S
C658 H712 0.930 . S
C659 N657 1.279 . S
C659 C658 1.358 . S
C659 H663 0.930 . S
C660 C658 1.356 . S
C660 C661 1.348 . S
C661 C656 1.353 . S
C661 C660 1.348 . S
C661 H713 0.929 . S
H662 C656 0.930 . S
H663 C659 0.930 . S
C664 N665 1.314 . S
C664 C666 1.353 . S
C664 H670 0.930 . S
N665 Li641 1.990 . S
N665 C664 1.314 . S
N665 C668 1.279 . S
C666 C664 1.353 . S
C666 C669 1.348 . S
C666 H714 0.929 . S
C667 C668 1.358 . S
C667 C669 1.356 . S
C667 H715 0.930 . S
C668 N665 1.279 . S
C668 C667 1.358 . S
C668 H671 0.930 . S
C669 C666 1.348 . S
C669 C667 1.356 . S
H670 C664 0.930 . S
H671 C668 0.930 . S
C672 C674 1.348 . S
C672 C675 1.356 . S
C672 O702 1.325 . S
N673 C676 1.314 . S
N673 C677 1.279 . S
C674 C672 1.348 . S
C674 C676 1.353 . S
C674 H716 0.929 . S
C675 C672 1.356 . S
C675 C677 1.358 . S
C675 H717 0.930 . S
C676 N673 1.314 . S
C676 C674 1.353 . S
C676 H718 0.930 . S
C677 N673 1.279 . S
C677 C675 1.358 . S
C677 H719 0.930 . S
C678 C679 1.348 . S
C678 C680 1.356 . S
C678 O703 1.325 . S
C679 C678 1.348 . S
C679 C681 1.353 . S
C679 H720 0.929 . S
C680 C678 1.356 . S
C680 C682 1.358 . S
C680 H721 0.930 . S
C681 C679 1.353 . S
C681 N683 1.314 . S
C681 H722 0.930 . S
C682 C680 1.358 . S
C682 N683 1.279 . S
C682 H723 0.930 . S
N683 C681 1.314 . S
N683 C682 1.279 . S
C684 C686 1.353 . S
C684 N687 1.314 . S
C684 H690 0.930 . S
C685 N687 1.279 . S
C685 C688 1.358 . S
C685 H691 0.930 . S
C686 C684 1.353 . S
C686 C689 1.348 . S
C686 H724 0.929 . S
N687 Li642 1.990 . S
N687 C684 1.314 . S
N687 C685 1.279 . S
C688 C685 1.358 . S
C688 C689 1.356 . S
C688 H725 0.930 1_554 S
C689 C686 1.348 . S
C689 C688 1.356 . S
H690 C684 0.930 . S
H691 C685 0.930 . S
C692 N693 1.314 . S
C692 C694 1.353 . S
C692 H698 0.930 . S
N693 Li643 1.990 . S
N693 C692 1.314 . S
N693 C696 1.279 . S
C694 C692 1.353 . S
C694 C697 1.348 . S
C694 H726 0.929 . S
C695 C696 1.358 . S
C695 C697 1.356 . S
C695 H727 0.930 . S
C696 N693 1.279 . S
C696 C695 1.358 . S
C696 H699 0.930 . S
C697 C694 1.348 . S
C697 C695 1.356 . S
H698 C692 0.930 . S
H699 C696 0.930 . S
O700 Li640 1.956 . S
O700 Li641 1.970 . S
O700 Li642 1.961 . S
O700 C644 1.325 . S
O701 Li640 1.970 . S
O701 Li641 1.956 . S
O701 Li643 1.961 . S
O701 C650 1.325 . S
O702 Li640 1.961 . S
O702 Li642 1.956 . S
O702 Li643 1.970 . S
O702 C672 1.325 . S
O703 Li641 1.961 . S
O703 Li642 1.970 . S
O703 Li643 1.956 . S
O703 C678 1.325 . S
H704 C646 0.929 . S
H705 C647 0.930 . S
H706 C648 0.930 . S
H707 C649 0.930 . S
H708 C651 0.930 . S
H709 C653 0.929 . S
H710 C654 0.930 . S
H711 C655 0.930 . S
H712 C658 0.930 . S
H713 C661 0.929 . S
H714 C666 0.929 . S
H715 C667 0.930 . S
H716 C674 0.929 . S
H717 C675 0.930 . S
H718 C676 0.930 . S
H719 C677 0.930 . S
H720 C679 0.929 . S
H721 C680 0.930 . S
H722 C681 0.930 . S
H723 C682 0.930 . S
H724 C686 0.929 . S
H725 C688 0.930 1_556 S
H726 C694 0.929 . S
H727 C695 0.930 . S
Li728 N745 1.990 . S
Li728 O788 1.956 . S
Li728 O789 1.970 . S
Li728 O790 1.961 . S
Li729 N753 1.990 . S
Li729 O788 1.970 . S
Li729 O789 1.956 . S
Li729 O791 1.961 . S
Li730 N775 1.990 . S
Li730 O788 1.961 . S
Li730 O790 1.956 . S
Li730 O791 1.970 . S
Li731 N781 1.990 . S
Li731 O789 1.961 . S
Li731 O790 1.970 . S
Li731 O791 1.956 . S
C732 C734 1.348 . S
C732 C735 1.356 . S
C732 O788 1.325 . S
N733 C736 1.314 . S
N733 C737 1.279 . S
C734 C732 1.348 . S
C734 C736 1.353 . S
C734 H792 0.929 . S
C735 C732 1.356 . S
C735 C737 1.358 . S
C735 H793 0.930 . S
C736 N733 1.314 . S
C736 C734 1.353 . S
C736 H794 0.930 . S
C737 N733 1.279 . S
C737 C735 1.358 . S
C737 H795 0.930 . S
C738 C741 1.348 . S
C738 C742 1.356 . S
C738 O789 1.325 . S
C739 N740 1.279 . S
C739 C742 1.358 . S
C739 H796 0.930 . S
N740 C739 1.279 . S
N740 C743 1.314 . S
C741 C738 1.348 . S
C741 C743 1.353 . S
C741 H797 0.929 . S
C742 C738 1.356 . S
C742 C739 1.358 . S
C742 H798 0.930 . S
C743 N740 1.314 . S
C743 C741 1.353 . S
C743 H799 0.930 . S
C744 N745 1.314 . S
C744 C749 1.353 . S
C744 H750 0.930 . S
N745 Li728 1.990 . S
N745 C744 1.314 . S
N745 C747 1.279 . S
C746 C747 1.358 . S
C746 C748 1.356 . S
C746 H800 0.930 . S
C747 N745 1.279 . S
C747 C746 1.358 . S
C747 H751 0.930 . S
C748 C746 1.356 . S
C748 C749 1.348 . S
C749 C744 1.353 . S
C749 C748 1.348 . S
C749 H801 0.929 . S
H750 C744 0.930 . S
H751 C747 0.930 . S
C752 N753 1.314 . S
C752 C754 1.353 . S
C752 H758 0.930 . S
N753 Li729 1.990 . S
N753 C752 1.314 . S
N753 C756 1.279 . S
C754 C752 1.353 . S
C754 C757 1.348 . S
C754 H802 0.929 . S
C755 C756 1.358 . S
C755 C757 1.356 . S
C755 H803 0.930 . S
C756 N753 1.279 . S
C756 C755 1.358 . S
C756 H759 0.930 . S
C757 C754 1.348 . S
C757 C755 1.356 . S
H758 C752 0.930 . S
H759 C756 0.930 . S
C760 C762 1.348 . S
C760 C763 1.356 . S
C760 O790 1.325 . S
N761 C764 1.314 . S
N761 C765 1.279 . S
C762 C760 1.348 . S
C762 C764 1.353 . S
C762 H804 0.929 . S
C763 C760 1.356 . S
C763 C765 1.358 . S
C763 H805 0.930 . S
C764 N761 1.314 . S
C764 C762 1.353 . S
C764 H806 0.930 . S
C765 N761 1.279 . S
C765 C763 1.358 . S
C765 H807 0.930 . S
C766 C767 1.348 . S
C766 C768 1.356 . S
C766 O791 1.325 . S
C767 C766 1.348 . S
C767 C769 1.353 . S
C767 H808 0.929 . S
C768 C766 1.356 . S
C768 C770 1.358 . S
C768 H809 0.930 . S
C769 C767 1.353 . S
C769 N771 1.314 . S
C769 H810 0.930 . S
C770 C768 1.358 . S
C770 N771 1.279 . S
C770 H811 0.930 . S
N771 C769 1.314 . S
N771 C770 1.279 . S
C772 C774 1.353 . S
C772 N775 1.314 . S
C772 H778 0.930 . S
C773 N775 1.279 . S
C773 C776 1.358 . S
C773 H779 0.930 . S
C774 C772 1.353 . S
C774 C777 1.348 . S
C774 H812 0.929 . S
N775 Li730 1.990 . S
N775 C772 1.314 . S
N775 C773 1.279 . S
C776 C773 1.358 . S
C776 C777 1.356 . S
C776 H813 0.930 . S
C777 C774 1.348 . S
C777 C776 1.356 . S
H778 C772 0.930 . S
H779 C773 0.930 . S
C780 N781 1.314 . S
C780 C782 1.353 . S
C780 H786 0.930 . S
N781 Li731 1.990 . S
N781 C780 1.314 . S
N781 C784 1.279 . S
C782 C780 1.353 . S
C782 C785 1.348 . S
C782 H814 0.929 . S
C783 C784 1.358 . S
C783 C785 1.356 . S
C783 H815 0.930 . S
C784 N781 1.279 . S
C784 C783 1.358 . S
C784 H787 0.930 . S
C785 C782 1.348 . S
C785 C783 1.356 . S
H786 C780 0.930 . S
H787 C784 0.930 . S
O788 Li728 1.956 . S
O788 Li729 1.970 . S
O788 Li730 1.961 . S
O788 C732 1.325 . S
O789 Li728 1.970 . S
O789 Li729 1.956 . S
O789 Li731 1.961 . S
O789 C738 1.325 . S
O790 Li728 1.961 . S
O790 Li730 1.956 . S
O790 Li731 1.970 . S
O790 C760 1.325 . S
O791 Li729 1.961 . S
O791 Li730 1.970 . S
O791 Li731 1.956 . S
O791 C766 1.325 . S
H792 C734 0.929 . S
H793 C735 0.930 . S
H794 C736 0.930 . S
H795 C737 0.930 . S
H796 C739 0.930 . S
H797 C741 0.929 . S
H798 C742 0.930 . S
H799 C743 0.930 . S
H800 C746 0.930 . S
H801 C749 0.929 . S
H802 C754 0.929 . S
H803 C755 0.930 . S
H804 C762 0.929 . S
H805 C763 0.930 . S
H806 C764 0.930 . S
H807 C765 0.930 . S
H808 C767 0.929 . S
H809 C768 0.930 . S
H810 C769 0.930 . S
H811 C770 0.930 . S
H812 C774 0.929 . S
H813 C776 0.930 . S
H814 C782 0.929 . S
H815 C783 0.930 . S
H816 C824 0.950 . S
H817 C829 0.950 . S
H818 C826 0.950 . S
H819 C828 0.950 . S
H820 C830 0.950 . S
H821 C832 0.950 . S
H822 C834 0.950 . S
H823 C835 0.950 . S
C824 H816 0.950 . S
C824 C825 1.386 . S
C824 C826 1.391 . S
C825 C824 1.386 . S
C825 C829 1.393 . S
C826 H818 0.950 . S
C826 C824 1.391 . S
C826 C827 1.400 . S
C827 C826 1.400 . S
C827 C828 1.398 . S
C827 C833 1.491 . S
C828 H819 0.950 . S
C828 C827 1.398 . S
C828 C829 1.391 . S
C829 H817 0.950 . S
C829 C825 1.393 . S
C829 C828 1.391 . S
C830 H820 0.950 . S
C830 C831 1.386 . S
C830 C832 1.391 . S
C831 C830 1.386 . S
C831 C835 1.393 . S
C832 H821 0.950 . S
C832 C830 1.391 . S
C832 C833 1.400 . S
C833 C827 1.491 . S
C833 C832 1.400 . S
C833 C834 1.398 . S
C834 H822 0.950 . S
C834 C833 1.398 . S
C834 C835 1.391 . S
C835 H823 0.950 . S
C835 C831 1.393 . S
C835 C834 1.391 . S
H836 C844 0.950 . S
H837 C849 0.950 . S
H838 C846 0.950 . S
H839 C848 0.950 . S
H840 C850 0.950 . S
H841 C852 0.950 . S
H842 C854 0.950 . S
H843 C855 0.950 . S
C844 H836 0.950 . S
C844 C845 1.386 . S
C844 C846 1.391 . S
C845 C844 1.386 . S
C845 C849 1.393 . S
C846 H838 0.950 . S
C846 C844 1.391 . S
C846 C847 1.400 . S
C847 C846 1.400 . S
C847 C848 1.398 . S
C847 C853 1.491 . S
C848 H839 0.950 . S
C848 C847 1.398 . S
C848 C849 1.391 . S
C849 H837 0.950 . S
C849 C845 1.393 . S
C849 C848 1.391 . S
C850 H840 0.950 . S
C850 C851 1.386 . S
C850 C852 1.391 . S
C851 C850 1.386 . S
C851 C855 1.393 . S
C852 H841 0.950 . S
C852 C850 1.391 . S
C852 C853 1.400 . S
C853 C847 1.491 . S
C853 C852 1.400 . S
C853 C854 1.398 . S
C854 H842 0.950 . S
C854 C853 1.398 . S
C854 C855 1.391 . S
C855 H843 0.950 . S
C855 C851 1.393 . S
C855 C854 1.391 . S
H856 C864 0.950 . S
H857 C869 0.950 . S
H858 C866 0.950 . S
H859 C868 0.950 . S
H860 C870 0.950 . S
H861 C872 0.950 . S
H862 C874 0.950 . S
H863 C875 0.950 . S
C864 H856 0.950 . S
C864 C865 1.386 . S
C864 C866 1.391 . S
C865 C864 1.386 . S
C865 C869 1.393 . S
C866 H858 0.950 . S
C866 C864 1.391 . S
C866 C867 1.400 . S
C867 C866 1.400 . S
C867 C868 1.398 . S
C867 C873 1.491 . S
C868 H859 0.950 . S
C868 C867 1.398 . S
C868 C869 1.391 . S
C869 H857 0.950 . S
C869 C865 1.393 . S
C869 C868 1.391 . S
C870 H860 0.950 . S
C870 C871 1.386 . S
C870 C872 1.391 . S
C871 C870 1.386 . S
C871 C875 1.393 . S
C872 H861 0.950 . S
C872 C870 1.391 . S
C872 C873 1.400 . S
C873 C867 1.491 . S
C873 C872 1.400 . S
C873 C874 1.398 . S
C874 H862 0.950 . S
C874 C873 1.398 . S
C874 C875 1.391 . S
C875 H863 0.950 . S
C875 C871 1.393 . S
C875 C874 1.391 . S
H876 C884 0.950 . S
H877 C889 0.950 . S
H878 C886 0.950 . S
H879 C888 0.950 . S
H880 C890 0.950 . S
H881 C892 0.950 . S
H882 C894 0.950 . S
H883 C895 0.950 . S
C884 H876 0.950 . S
C884 C885 1.386 . S
C884 C886 1.391 . S
C885 C884 1.386 . S
C885 C889 1.393 . S
C886 H878 0.950 . S
C886 C884 1.391 . S
C886 C887 1.400 . S
C887 C886 1.400 . S
C887 C888 1.398 . S
C887 C893 1.491 . S
C888 H879 0.950 . S
C888 C887 1.398 . S
C888 C889 1.391 . S
C889 H877 0.950 . S
C889 C885 1.393 . S
C889 C888 1.391 . S
C890 H880 0.950 . S
C890 C891 1.386 . S
C890 C892 1.391 . S
C891 C890 1.386 . S
C891 C895 1.393 . S
C892 H881 0.950 . S
C892 C890 1.391 . S
C892 C893 1.400 . S
C893 C887 1.491 . S
C893 C892 1.400 . S
C893 C894 1.398 . S
C894 H882 0.950 . S
C894 C893 1.398 . S
C894 C895 1.391 . S
C895 H883 0.950 . S
C895 C891 1.393 . S
C895 C894 1.391 . S
H896 C904 0.950 . S
H897 C909 0.950 . S
H898 C906 0.950 . S
H899 C908 0.950 . S
H900 C910 0.950 . S
H901 C912 0.950 . S
H902 C914 0.950 . S
H903 C915 0.950 . S
C904 H896 0.950 . S
C904 C905 1.386 . S
C904 C906 1.391 . S
C905 C904 1.386 . S
C905 C909 1.393 . S
C906 H898 0.950 . S
C906 C904 1.391 . S
C906 C907 1.400 . S
C907 C906 1.400 . S
C907 C908 1.398 . S
C907 C913 1.491 . S
C908 H899 0.950 . S
C908 C907 1.398 . S
C908 C909 1.391 . S
C909 H897 0.950 . S
C909 C905 1.393 . S
C909 C908 1.391 . S
C910 H900 0.950 . S
C910 C911 1.386 . S
C910 C912 1.391 . S
C911 C910 1.386 . S
C911 C915 1.393 . S
C912 H901 0.950 . S
C912 C910 1.391 . S
C912 C913 1.400 . S
C913 C907 1.491 . S
C913 C912 1.400 . S
C913 C914 1.398 . S
C914 H902 0.950 . S
C914 C913 1.398 . S
C914 C915 1.391 . S
C915 H903 0.950 . S
C915 C911 1.393 . S
C915 C914 1.391 . S
H916 C924 0.950 . S
H917 C929 0.950 . S
H918 C926 0.950 . S
H919 C928 0.950 . S
H920 C930 0.950 . S
H921 C932 0.950 . S
H922 C934 0.950 . S
H923 C935 0.950 . S
C924 H916 0.950 . S
C924 C925 1.386 . S
C924 C926 1.391 . S
C925 C924 1.386 . S
C925 C929 1.393 . S
C926 H918 0.950 . S
C926 C924 1.391 . S
C926 C927 1.400 . S
C927 C926 1.400 . S
C927 C928 1.398 . S
C927 C933 1.491 . S
C928 H919 0.950 . S
C928 C927 1.398 . S
C928 C929 1.391 . S
C929 H917 0.950 . S
C929 C925 1.393 . S
C929 C928 1.391 . S
C930 H920 0.950 . S
C930 C931 1.386 . S
C930 C932 1.391 . S
C931 C930 1.386 . S
C931 C935 1.393 . S
C932 H921 0.950 . S
C932 C930 1.391 . S
C932 C933 1.400 . S
C933 C927 1.491 . S
C933 C932 1.400 . S
C933 C934 1.398 . S
C934 H922 0.950 . S
C934 C933 1.398 . S
C934 C935 1.391 . S
C935 H923 0.950 . S
C935 C931 1.393 . S
C935 C934 1.391 . S
H936 C944 0.950 . S
H937 C949 0.950 . S
H938 C946 0.950 . S
H939 C948 0.950 . S
H940 C950 0.950 . S
H941 C952 0.950 . S
H942 C954 0.950 . S
H943 C955 0.950 . S
C944 H936 0.950 . S
C944 C945 1.386 . S
C944 C946 1.391 . S
C945 C944 1.386 . S
C945 C949 1.393 . S
C946 H938 0.950 . S
C946 C944 1.391 . S
C946 C947 1.400 . S
C947 C946 1.400 . S
C947 C948 1.398 . S
C947 C953 1.491 . S
C948 H939 0.950 . S
C948 C947 1.398 . S
C948 C949 1.391 . S
C949 H937 0.950 . S
C949 C945 1.393 . S
C949 C948 1.391 . S
C950 H940 0.950 . S
C950 C951 1.386 . S
C950 C952 1.391 . S
C951 C950 1.386 . S
C951 C955 1.393 . S
C952 H941 0.950 . S
C952 C950 1.391 . S
C952 C953 1.400 . S
C953 C947 1.491 . S
C953 C952 1.400 . S
C953 C954 1.398 . S
C954 H942 0.950 . S
C954 C953 1.398 . S
C954 C955 1.391 . S
C955 H943 0.950 . S
C955 C951 1.393 . S
C955 C954 1.391 . S
H956 C964 0.950 . S
H957 C969 0.950 . S
H958 C966 0.950 . S
H959 C968 0.950 . S
H960 C970 0.950 . S
H961 C972 0.950 . S
H962 C974 0.950 . S
H963 C975 0.950 . S
C964 H956 0.950 . S
C964 C965 1.386 . S
C964 C966 1.391 . S
C965 C964 1.386 . S
C965 C969 1.393 . S
C966 H958 0.950 . S
C966 C964 1.391 . S
C966 C967 1.400 . S
C967 C966 1.400 . S
C967 C968 1.398 . S
C967 C973 1.491 . S
C968 H959 0.950 . S
C968 C967 1.398 . S
C968 C969 1.391 . S
C969 H957 0.950 . S
C969 C965 1.393 . S
C969 C968 1.391 . S
C970 H960 0.950 . S
C970 C971 1.386 . S
C970 C972 1.391 . S
C971 C970 1.386 . S
C971 C975 1.393 . S
C972 H961 0.950 . S
C972 C970 1.391 . S
C972 C973 1.400 . S
C973 C967 1.491 . S
C973 C972 1.400 . S
C973 C974 1.398 . S
C974 H962 0.950 . S
C974 C973 1.398 . S
C974 C975 1.391 . S
C975 H963 0.950 . S
C975 C971 1.393 . S
C975 C974 1.391 . S
H976 C984 0.950 . S
H977 C989 0.950 . S
H978 C986 0.950 . S
H979 C988 0.950 . S
H980 C990 0.950 . S
H981 C992 0.950 . S
H982 C994 0.950 . S
H983 C995 0.950 . S
C984 H976 0.950 . S
C984 C985 1.386 . S
C984 C986 1.391 . S
C985 C984 1.386 . S
C985 C989 1.393 . S
C986 H978 0.950 . S
C986 C984 1.391 . S
C986 C987 1.400 . S
C987 C986 1.400 . S
C987 C988 1.398 . S
C987 C993 1.491 . S
C988 H979 0.950 . S
C988 C987 1.398 . S
C988 C989 1.391 . S
C989 H977 0.950 . S
C989 C985 1.393 . S
C989 C988 1.391 . S
C990 H980 0.950 . S
C990 C991 1.386 . S
C990 C992 1.391 . S
C991 C990 1.386 . S
C991 C995 1.393 . S
C992 H981 0.950 . S
C992 C990 1.391 . S
C992 C993 1.400 . S
C993 C987 1.491 . S
C993 C992 1.400 . S
C993 C994 1.398 . S
C994 H982 0.950 . S
C994 C993 1.398 . S
C994 C995 1.391 . S
C995 H983 0.950 . S
C995 C991 1.393 . S
C995 C994 1.391 . S
H996 C1004 0.950 . S
H997 C1009 0.950 . S
H998 C1006 0.950 . S
H999 C1008 0.950 . S
H1000 C1010 0.950 . S
H1001 C1012 0.950 . S
H1002 C1014 0.950 . S
H1003 C1015 0.950 . S
C1004 H996 0.950 . S
C1004 C1005 1.386 . S
C1004 C1006 1.391 . S
C1005 C1004 1.386 . S
C1005 C1009 1.393 . S
C1006 H998 0.950 . S
C1006 C1004 1.391 . S
C1006 C1007 1.400 . S
C1007 C1006 1.400 . S
C1007 C1008 1.398 . S
C1007 C1013 1.491 . S
C1008 H999 0.950 . S
C1008 C1007 1.398 . S
C1008 C1009 1.391 . S
C1009 H997 0.950 . S
C1009 C1005 1.393 . S
C1009 C1008 1.391 . S
C1010 H1000 0.950 . S
C1010 C1011 1.386 . S
C1010 C1012 1.391 . S
C1011 C1010 1.386 . S
C1011 C1015 1.393 . S
C1012 H1001 0.950 . S
C1012 C1010 1.391 . S
C1012 C1013 1.400 . S
C1013 C1007 1.491 . S
C1013 C1012 1.400 . S
C1013 C1014 1.398 . S
C1014 H1002 0.950 . S
C1014 C1013 1.398 . S
C1014 C1015 1.391 . S
C1015 H1003 0.950 . S
C1015 C1011 1.393 . S
C1015 C1014 1.391 . S
H1016 C1024 0.950 . S
H1017 C1029 0.950 . S
H1018 C1026 0.950 . S
H1019 C1028 0.950 . S
H1020 C1030 0.950 . S
H1021 C1032 0.950 . S
H1022 C1034 0.950 . S
H1023 C1035 0.950 . S
C1024 H1016 0.950 . S
C1024 C1025 1.386 . S
C1024 C1026 1.391 . S
C1025 C1024 1.386 . S
C1025 C1029 1.393 . S
C1026 H1018 0.950 . S
C1026 C1024 1.391 . S
C1026 C1027 1.400 . S
C1027 C1026 1.400 . S
C1027 C1028 1.398 . S
C1027 C1033 1.491 . S
C1028 H1019 0.950 . S
C1028 C1027 1.398 . S
C1028 C1029 1.391 . S
C1029 H1017 0.950 . S
C1029 C1025 1.393 . S
C1029 C1028 1.391 . S
C1030 H1020 0.950 . S
C1030 C1031 1.386 . S
C1030 C1032 1.391 . S
C1031 C1030 1.386 . S
C1031 C1035 1.393 . S
C1032 H1021 0.950 . S
C1032 C1030 1.391 . S
C1032 C1033 1.400 . S
C1033 C1027 1.491 . S
C1033 C1032 1.400 . S
C1033 C1034 1.398 . S
C1034 H1022 0.950 . S
C1034 C1033 1.398 . S
C1034 C1035 1.391 . S
C1035 H1023 0.950 . S
C1035 C1031 1.393 . S
C1035 C1034 1.391 . S
H1036 C1044 0.950 . S
H1037 C1049 0.950 . S
H1038 C1046 0.950 . S
H1039 C1048 0.950 . S
H1040 C1050 0.950 . S
H1041 C1052 0.950 . S
H1042 C1054 0.950 . S
H1043 C1055 0.950 . S
C1044 H1036 0.950 . S
C1044 C1045 1.386 . S
C1044 C1046 1.391 . S
C1045 C1044 1.386 . S
C1045 C1049 1.393 . S
C1046 H1038 0.950 . S
C1046 C1044 1.391 . S
C1046 C1047 1.400 . S
C1047 C1046 1.400 . S
C1047 C1048 1.398 . S
C1047 C1053 1.491 . S
C1048 H1039 0.950 . S
C1048 C1047 1.398 . S
C1048 C1049 1.391 . S
C1049 H1037 0.950 . S
C1049 C1045 1.393 . S
C1049 C1048 1.391 . S
C1050 H1040 0.950 . S
C1050 C1051 1.386 . S
C1050 C1052 1.391 . S
C1051 C1050 1.386 . S
C1051 C1055 1.393 . S
C1052 H1041 0.950 . S
C1052 C1050 1.391 . S
C1052 C1053 1.400 . S
C1053 C1047 1.491 . S
C1053 C1052 1.400 . S
C1053 C1054 1.398 . S
C1054 H1042 0.950 . S
C1054 C1053 1.398 . S
C1054 C1055 1.391 . S
C1055 H1043 0.950 . S
C1055 C1051 1.393 . S
C1055 C1054 1.391 . S
H1056 C1064 0.950 . S
H1057 C1069 0.950 . S
H1058 C1066 0.950 . S
H1059 C1068 0.950 . S
H1060 C1070 0.950 . S
H1061 C1072 0.950 . S
H1062 C1074 0.950 . S
H1063 C1075 0.950 . S
C1064 H1056 0.950 . S
C1064 C1065 1.386 . S
C1064 C1066 1.391 . S
C1065 C1064 1.386 . S
C1065 C1069 1.393 . S
C1066 H1058 0.950 . S
C1066 C1064 1.391 . S
C1066 C1067 1.400 . S
C1067 C1066 1.400 . S
C1067 C1068 1.398 . S
C1067 C1073 1.491 . S
C1068 H1059 0.950 . S
C1068 C1067 1.398 . S
C1068 C1069 1.391 . S
C1069 H1057 0.950 . S
C1069 C1065 1.393 . S
C1069 C1068 1.391 . S
C1070 H1060 0.950 . S
C1070 C1071 1.386 . S
C1070 C1072 1.391 . S
C1071 C1070 1.386 . S
C1071 C1075 1.393 . S
C1072 H1061 0.950 . S
C1072 C1070 1.391 . S
C1072 C1073 1.400 . S
C1073 C1067 1.491 . S
C1073 C1072 1.400 . S
C1073 C1074 1.398 . S
C1074 H1062 0.950 . S
C1074 C1073 1.398 . S
C1074 C1075 1.391 . S
C1075 H1063 0.950 . S
C1075 C1071 1.393 . S
C1075 C1074 1.391 . S
H1076 C1084 0.950 . S
H1077 C1089 0.950 . S
H1078 C1086 0.950 . S
H1079 C1088 0.950 . S
H1080 C1090 0.950 . S
H1081 C1092 0.950 . S
H1082 C1094 0.950 . S
H1083 C1095 0.950 . S
C1084 H1076 0.950 . S
C1084 C1085 1.386 . S
C1084 C1086 1.391 . S
C1085 C1084 1.386 . S
C1085 C1089 1.393 . S
C1086 H1078 0.950 . S
C1086 C1084 1.391 . S
C1086 C1087 1.400 . S
C1087 C1086 1.400 . S
C1087 C1088 1.398 . S
C1087 C1093 1.491 . S
C1088 H1079 0.950 . S
C1088 C1087 1.398 . S
C1088 C1089 1.391 . S
C1089 H1077 0.950 . S
C1089 C1085 1.393 . S
C1089 C1088 1.391 . S
C1090 H1080 0.950 . S
C1090 C1091 1.386 . S
C1090 C1092 1.391 . S
C1091 C1090 1.386 . S
C1091 C1095 1.393 . S
C1092 H1081 0.950 . S
C1092 C1090 1.391 . S
C1092 C1093 1.400 . S
C1093 C1087 1.491 . S
C1093 C1092 1.400 . S
C1093 C1094 1.398 . S
C1094 H1082 0.950 . S
C1094 C1093 1.398 . S
C1094 C1095 1.391 . S
C1095 H1083 0.950 . S
C1095 C1091 1.393 . S
C1095 C1094 1.391 . S
H1096 C1104 0.950 . S
H1097 C1109 0.950 . S
H1098 C1106 0.950 . S
H1099 C1108 0.950 . S
H1100 C1110 0.950 . S
H1101 C1112 0.950 . S
H1102 C1114 0.950 . S
H1103 C1115 0.950 . S
C1104 H1096 0.950 . S
C1104 C1105 1.386 . S
C1104 C1106 1.391 . S
C1105 C1104 1.386 . S
C1105 C1109 1.393 . S
C1106 H1098 0.950 . S
C1106 C1104 1.391 . S
C1106 C1107 1.400 . S
C1107 C1106 1.400 . S
C1107 C1108 1.398 . S
C1107 C1113 1.491 . S
C1108 H1099 0.950 . S
C1108 C1107 1.398 . S
C1108 C1109 1.391 . S
C1109 H1097 0.950 . S
C1109 C1105 1.393 . S
C1109 C1108 1.391 . S
C1110 H1100 0.950 . S
C1110 C1111 1.386 . S
C1110 C1112 1.391 . S
C1111 C1110 1.386 . S
C1111 C1115 1.393 . S
C1112 H1101 0.950 . S
C1112 C1110 1.391 . S
C1112 C1113 1.400 . S
C1113 C1107 1.491 . S
C1113 C1112 1.400 . S
C1113 C1114 1.398 . S
C1114 H1102 0.950 . S
C1114 C1113 1.398 . S
C1114 C1115 1.391 . S
C1115 H1103 0.950 . S
C1115 C1111 1.393 . S
C1115 C1114 1.391 . S
H1116 C1124 0.950 . S
H1117 C1129 0.950 . S
H1118 C1126 0.950 . S
H1119 C1128 0.950 . S
H1120 C1130 0.950 . S
H1121 C1132 0.950 . S
H1122 C1134 0.950 . S
H1123 C1135 0.950 1_554 S
C1124 H1116 0.950 . S
C1124 C1125 1.386 . S
C1124 C1126 1.391 . S
C1125 C1124 1.386 . S
C1125 C1129 1.393 . S
C1126 H1118 0.950 . S
C1126 C1124 1.391 . S
C1126 C1127 1.400 . S
C1127 C1126 1.400 . S
C1127 C1128 1.398 . S
C1127 C1133 1.491 . S
C1128 H1119 0.950 . S
C1128 C1127 1.398 . S
C1128 C1129 1.391 . S
C1129 H1117 0.950 . S
C1129 C1125 1.393 . S
C1129 C1128 1.391 . S
C1130 H1120 0.950 . S
C1130 C1131 1.386 . S
C1130 C1132 1.391 . S
C1131 C1130 1.386 . S
C1131 C1135 1.393 . S
C1132 H1121 0.950 . S
C1132 C1130 1.391 . S
C1132 C1133 1.400 . S
C1133 C1127 1.491 . S
C1133 C1132 1.400 . S
C1133 C1134 1.398 . S
C1134 H1122 0.950 . S
C1134 C1133 1.398 . S
C1134 C1135 1.391 . S
C1135 H1123 0.950 1_556 S
C1135 C1131 1.393 . S
C1135 C1134 1.391 . S
H1136 C1144 0.950 . S
H1137 C1149 0.950 . S
H1138 C1146 0.950 . S
H1139 C1148 0.950 . S
H1140 C1150 0.950 . S
H1141 C1152 0.950 . S
H1142 C1154 0.950 . S
H1143 C1155 0.950 . S
C1144 H1136 0.950 . S
C1144 C1145 1.386 . S
C1144 C1146 1.391 . S
C1145 C1144 1.386 . S
C1145 C1149 1.393 . S
C1146 H1138 0.950 . S
C1146 C1144 1.391 . S
C1146 C1147 1.400 . S
C1147 C1146 1.400 . S
C1147 C1148 1.398 . S
C1147 C1153 1.491 . S
C1148 H1139 0.950 . S
C1148 C1147 1.398 . S
C1148 C1149 1.391 . S
C1149 H1137 0.950 . S
C1149 C1145 1.393 . S
C1149 C1148 1.391 . S
C1150 H1140 0.950 . S
C1150 C1151 1.386 . S
C1150 C1152 1.391 . S
C1151 C1150 1.386 . S
C1151 C1155 1.393 . S
C1152 H1141 0.950 . S
C1152 C1150 1.391 . S
C1152 C1153 1.400 . S
C1153 C1147 1.491 . S
C1153 C1152 1.400 . S
C1153 C1154 1.398 . S
C1154 H1142 0.950 . S
C1154 C1153 1.398 . S
C1154 C1155 1.391 . S
C1155 H1143 0.950 . S
C1155 C1151 1.393 . S
C1155 C1154 1.391 . S
H1156 C1164 0.950 . S
H1157 C1169 0.950 . S
H1158 C1166 0.950 . S
H1159 C1168 0.950 . S
H1160 C1170 0.950 . S
H1161 C1172 0.950 . S
H1162 C1174 0.950 . S
H1163 C1175 0.950 . S
C1164 H1156 0.950 . S
C1164 C1165 1.386 . S
C1164 C1166 1.391 . S
C1165 C1164 1.386 . S
C1165 C1169 1.393 . S
C1166 H1158 0.950 . S
C1166 C1164 1.391 . S
C1166 C1167 1.400 . S
C1167 C1166 1.400 . S
C1167 C1168 1.398 . S
C1167 C1173 1.491 . S
C1168 H1159 0.950 . S
C1168 C1167 1.398 . S
C1168 C1169 1.391 . S
C1169 H1157 0.950 . S
C1169 C1165 1.393 . S
C1169 C1168 1.391 . S
C1170 H1160 0.950 . S
C1170 C1171 1.386 . S
C1170 C1172 1.391 . S
C1171 C1170 1.386 . S
C1171 C1175 1.393 . S
C1172 H1161 0.950 . S
C1172 C1170 1.391 . S
C1172 C1173 1.400 . S
C1173 C1167 1.491 . S
C1173 C1172 1.400 . S
C1173 C1174 1.398 . S
C1174 H1162 0.950 . S
C1174 C1173 1.398 . S
C1174 C1175 1.391 . S
C1175 H1163 0.950 . S
C1175 C1171 1.393 . S
C1175 C1174 1.391 . S
H1176 C1184 0.950 . S
H1177 C1189 0.950 . S
H1178 C1186 0.950 . S
H1179 C1188 0.950 . S
H1180 C1190 0.950 . S
H1181 C1192 0.950 . S
H1182 C1194 0.950 . S
H1183 C1195 0.950 . S
C1184 H1176 0.950 . S
C1184 C1185 1.386 . S
C1184 C1186 1.391 . S
C1185 C1184 1.386 . S
C1185 C1189 1.393 . S
C1186 H1178 0.950 . S
C1186 C1184 1.391 . S
C1186 C1187 1.400 . S
C1187 C1186 1.400 . S
C1187 C1188 1.398 . S
C1187 C1193 1.491 . S
C1188 H1179 0.950 . S
C1188 C1187 1.398 . S
C1188 C1189 1.391 . S
C1189 H1177 0.950 . S
C1189 C1185 1.393 . S
C1189 C1188 1.391 . S
C1190 H1180 0.950 . S
C1190 C1191 1.386 . S
C1190 C1192 1.391 . S
C1191 C1190 1.386 . S
C1191 C1195 1.393 . S
C1192 H1181 0.950 . S
C1192 C1190 1.391 . S
C1192 C1193 1.400 . S
C1193 C1187 1.491 . S
C1193 C1192 1.400 . S
C1193 C1194 1.398 . S
C1194 H1182 0.950 . S
C1194 C1193 1.398 . S
C1194 C1195 1.391 . S
C1195 H1183 0.950 . S
C1195 C1191 1.393 . S
C1195 C1194 1.391 . S
H1196 C1204 0.950 . S
H1197 C1209 0.950 . S
H1198 C1206 0.950 . S
H1199 C1208 0.950 . S
H1200 C1210 0.950 . S
H1201 C1212 0.950 . S
H1202 C1214 0.950 . S
H1203 C1215 0.950 . S
C1204 H1196 0.950 . S
C1204 C1205 1.386 . S
C1204 C1206 1.391 . S
C1205 C1204 1.386 . S
C1205 C1209 1.393 . S
C1206 H1198 0.950 . S
C1206 C1204 1.391 . S
C1206 C1207 1.400 . S
C1207 C1206 1.400 . S
C1207 C1208 1.398 . S
C1207 C1213 1.491 . S
C1208 H1199 0.950 . S
C1208 C1207 1.398 . S
C1208 C1209 1.391 . S
C1209 H1197 0.950 . S
C1209 C1205 1.393 . S
C1209 C1208 1.391 . S
C1210 H1200 0.950 . S
C1210 C1211 1.386 . S
C1210 C1212 1.391 . S
C1211 C1210 1.386 . S
C1211 C1215 1.393 . S
C1212 H1201 0.950 . S
C1212 C1210 1.391 . S
C1212 C1213 1.400 . S
C1213 C1207 1.491 . S
C1213 C1212 1.400 . S
C1213 C1214 1.398 . S
C1214 H1202 0.950 . S
C1214 C1213 1.398 . S
C1214 C1215 1.391 . S
C1215 H1203 0.950 . S
C1215 C1211 1.393 . S
C1215 C1214 1.391 . S
H1216 C1224 0.950 . S
H1217 C1229 0.950 . S
H1218 C1226 0.950 . S
H1219 C1228 0.950 . S
H1220 C1230 0.950 . S
H1221 C1232 0.950 . S
H1222 C1234 0.950 . S
H1223 C1235 0.950 . S
C1224 H1216 0.950 . S
C1224 C1225 1.386 . S
C1224 C1226 1.391 . S
C1225 C1224 1.386 . S
C1225 C1229 1.393 . S
C1226 H1218 0.950 . S
C1226 C1224 1.391 . S
C1226 C1227 1.400 . S
C1227 C1226 1.400 . S
C1227 C1228 1.398 . S
C1227 C1233 1.491 . S
C1228 H1219 0.950 . S
C1228 C1227 1.398 . S
C1228 C1229 1.391 . S
C1229 H1217 0.950 . S
C1229 C1225 1.393 . S
C1229 C1228 1.391 . S
C1230 H1220 0.950 . S
C1230 C1231 1.386 . S
C1230 C1232 1.391 . S
C1231 C1230 1.386 . S
C1231 C1235 1.393 . S
C1232 H1221 0.950 . S
C1232 C1230 1.391 . S
C1232 C1233 1.400 . S
C1233 C1227 1.491 . S
C1233 C1232 1.400 . S
C1233 C1234 1.398 . S
C1234 H1222 0.950 . S
C1234 C1233 1.398 . S
C1234 C1235 1.391 . S
C1235 H1223 0.950 . S
C1235 C1231 1.393 . S
C1235 C1234 1.391 . S
H1236 C1244 0.950 . S
H1237 C1249 0.950 . S
H1238 C1246 0.950 . S
H1239 C1248 0.950 . S
H1240 C1250 0.950 . S
H1241 C1252 0.950 . S
H1242 C1254 0.950 . S
H1243 C1255 0.950 . S
C1244 H1236 0.950 . S
C1244 C1245 1.386 . S
C1244 C1246 1.391 . S
C1245 C1244 1.386 . S
C1245 C1249 1.393 . S
C1246 H1238 0.950 . S
C1246 C1244 1.391 . S
C1246 C1247 1.400 . S
C1247 C1246 1.400 . S
C1247 C1248 1.398 . S
C1247 C1253 1.491 . S
C1248 H1239 0.950 . S
C1248 C1247 1.398 . S
C1248 C1249 1.391 . S
C1249 H1237 0.950 . S
C1249 C1245 1.393 . S
C1249 C1248 1.391 . S
C1250 H1240 0.950 . S
C1250 C1251 1.386 . S
C1250 C1252 1.391 . S
C1251 C1250 1.386 . S
C1251 C1255 1.393 . S
C1252 H1241 0.950 . S
C1252 C1250 1.391 . S
C1252 C1253 1.400 . S
C1253 C1247 1.491 . S
C1253 C1252 1.400 . S
C1253 C1254 1.398 . S
C1254 H1242 0.950 . S
C1254 C1253 1.398 . S
C1254 C1255 1.391 . S
C1255 H1243 0.950 . S
C1255 C1251 1.393 . S
C1255 C1254 1.391 . S
H1256 C1264 0.950 . S
H1257 C1269 0.950 . S
H1258 C1266 0.950 . S
H1259 C1268 0.950 . S
H1260 C1270 0.950 1_556 S
H1261 C1272 0.950 . S
H1262 C1274 0.950 . S
H1263 C1275 0.950 . S
C1264 H1256 0.950 . S
C1264 C1265 1.386 . S
C1264 C1266 1.391 . S
C1265 C1264 1.386 . S
C1265 C1269 1.393 . S
C1266 H1258 0.950 . S
C1266 C1264 1.391 . S
C1266 C1267 1.400 . S
C1267 C1266 1.400 . S
C1267 C1268 1.398 . S
C1267 C1273 1.491 . S
C1268 H1259 0.950 . S
C1268 C1267 1.398 . S
C1268 C1269 1.391 . S
C1269 H1257 0.950 . S
C1269 C1265 1.393 . S
C1269 C1268 1.391 . S
C1270 H1260 0.950 1_554 S
C1270 C1271 1.386 . S
C1270 C1272 1.391 . S
C1271 C1270 1.386 . S
C1271 C1275 1.393 . S
C1272 H1261 0.950 . S
C1272 C1270 1.391 . S
C1272 C1273 1.400 . S
C1273 C1267 1.491 . S
C1273 C1272 1.400 . S
C1273 C1274 1.398 . S
C1274 H1262 0.950 . S
C1274 C1273 1.398 . S
C1274 C1275 1.391 . S
C1275 H1263 0.950 . S
C1275 C1271 1.393 . S
C1275 C1274 1.391 . S
H1276 C1284 0.950 . S
H1277 C1289 0.950 . S
H1278 C1286 0.950 . S
H1279 C1288 0.950 . S
H1280 C1290 0.950 . S
H1281 C1292 0.950 . S
H1282 C1294 0.950 . S
H1283 C1295 0.950 . S
C1284 H1276 0.950 . S
C1284 C1285 1.386 . S
C1284 C1286 1.391 . S
C1285 C1284 1.386 . S
C1285 C1289 1.393 . S
C1286 H1278 0.950 . S
C1286 C1284 1.391 . S
C1286 C1287 1.400 . S
C1287 C1286 1.400 . S
C1287 C1288 1.398 . S
C1287 C1293 1.491 . S
C1288 H1279 0.950 . S
C1288 C1287 1.398 . S
C1288 C1289 1.391 . S
C1289 H1277 0.950 . S
C1289 C1285 1.393 . S
C1289 C1288 1.391 . S
C1290 H1280 0.950 . S
C1290 C1291 1.386 . S
C1290 C1292 1.391 . S
C1291 C1290 1.386 . S
C1291 C1295 1.393 . S
C1292 H1281 0.950 . S
C1292 C1290 1.391 . S
C1292 C1293 1.400 . S
C1293 C1287 1.491 . S
C1293 C1292 1.400 . S
C1293 C1294 1.398 . S
C1294 H1282 0.950 . S
C1294 C1293 1.398 . S
C1294 C1295 1.391 . S
C1295 H1283 0.950 . S
C1295 C1291 1.393 . S
C1295 C1294 1.391 . S
C831 C757 1.649 . S
C825 C45 1.655 . S
C845 C84 1.638 . S
C851 C317 1.641 . S
C865 C126 1.585 . S
C871 C405 1.643 . S
C885 C189 1.649 . S
C891 C484 1.640 . S
C911 C581 1.643 . S
C905 C228 1.636 . S
C925 C270 1.585 . S
C931 C660 1.642 . S
C945 C69 1.634 . S
C951 C425 1.655 . S
C965 C141 1.655 . S
C971 C521 1.648 . S
C985 C174 1.610 . S
C991 C601 1.655 . S
C1011 C697 1.644 . S
C1005 C213 1.622 . S
C1031 C777 1.646 . S
C1025 C285 1.653 . S
C1051 C337 1.649 . S
C1045 C30 1.602 . S
C1065 C36 1.490 . S
C1071 C433 1.482 . S
C1085 C93 1.485 . S
C1091 C513 1.477 . S
C1111 C609 1.484 . S
C1105 C117 1.483 . S
C1125 C180 1.488 . S
C1131 C689 1.479 1_556 S
C1151 C785 1.484 . S
C1145 C237 1.485 . S
C1171 C345 1.480 . S
C1165 C261 1.480 . S
C1191 C748 1.478 . S
C1185 C78 1.477 . S
C1205 C132 1.488 . S
C1211 C308 1.480 . S
C1231 C396 1.487 . S
C1225 C165 1.488 . S
C1245 C222 1.481 . S
C1251 C493 1.481 . S
C1265 C276 1.484 . S
C1271 C572 1.484 1_554 S
C1285 C21 1.486 . S
C1291 C669 1.483 . S
