# Generated by pormake.
# Topology nom, (4,4)-cn, num edge types: 1
# Building blocks:
#     Node 0, Type 0, BuildingBlock: AZAVOO_clean_linker_0, # of connection points: 4
#     Node 1, Type 0, BuildingBlock: AZAVOO_clean_linker_0, # of connection points: 4
#     Node 2, Type 0, BuildingBlock: AZAVOO_clean_linker_0, # of connection points: 4
#     Node 3, Type 0, BuildingBlock: AZAVOO_clean_linker_0, # of connection points: 4
#     Node 4, Type 0, BuildingBlock: AZAVOO_clean_linker_0, # of connection points: 4
#     Node 5, Type 0, BuildingBlock: AZAVOO_clean_linker_0, # of connection points: 4
#     Node 6, Type 1, BuildingBlock: GALJAG_clean_sbu_0, # of connection points: 4
#     Node 7, Type 1, BuildingBlock: GALJAG_clean_sbu_0, # of connection points: 4
#     Node 8, Type 1, BuildingBlock: GALJAG_clean_sbu_0, # of connection points: 4
#     Node 9, Type 1, BuildingBlock: GALJAG_clean_sbu_0, # of connection points: 4
#     Node 10, Type 1, BuildingBlock: GALJAG_clean_sbu_0, # of connection points: 4
#     Node 11, Type 1, BuildingBlock: GALJAG_clean_sbu_0, # of connection points: 4
#     Edge 12, Type (0, 1), BuildingBlock: XIVTED_clean_linker_0, # of connection points: 2
#     Edge 13, Type (0, 1), BuildingBlock: XIVTED_clean_linker_0, # of connection points: 2
#     Edge 14, Type (0, 1), BuildingBlock: XIVTED_clean_linker_0, # of connection points: 2
#     Edge 15, Type (0, 1), BuildingBlock: XIVTED_clean_linker_0, # of connection points: 2
#     Edge 16, Type (0, 1), BuildingBlock: XIVTED_clean_linker_0, # of connection points: 2
#     Edge 17, Type (0, 1), BuildingBlock: XIVTED_clean_linker_0, # of connection points: 2
#     Edge 18, Type (0, 1), BuildingBlock: XIVTED_clean_linker_0, # of connection points: 2
#     Edge 19, Type (0, 1), BuildingBlock: XIVTED_clean_linker_0, # of connection points: 2
#     Edge 20, Type (0, 1), BuildingBlock: XIVTED_clean_linker_0, # of connection points: 2
#     Edge 21, Type (0, 1), BuildingBlock: XIVTED_clean_linker_0, # of connection points: 2
#     Edge 22, Type (0, 1), BuildingBlock: XIVTED_clean_linker_0, # of connection points: 2
#     Edge 23, Type (0, 1), BuildingBlock: XIVTED_clean_linker_0, # of connection points: 2
#     Edge 24, Type (0, 1), BuildingBlock: XIVTED_clean_linker_0, # of connection points: 2
#     Edge 25, Type (0, 1), BuildingBlock: XIVTED_clean_linker_0, # of connection points: 2
#     Edge 26, Type (0, 1), BuildingBlock: XIVTED_clean_linker_0, # of connection points: 2
#     Edge 27, Type (0, 1), BuildingBlock: XIVTED_clean_linker_0, # of connection points: 2
#     Edge 28, Type (0, 1), BuildingBlock: XIVTED_clean_linker_0, # of connection points: 2
#     Edge 29, Type (0, 1), BuildingBlock: XIVTED_clean_linker_0, # of connection points: 2
#     Edge 30, Type (0, 1), BuildingBlock: XIVTED_clean_linker_0, # of connection points: 2
#     Edge 31, Type (0, 1), BuildingBlock: XIVTED_clean_linker_0, # of connection points: 2
#     Edge 32, Type (0, 1), BuildingBlock: XIVTED_clean_linker_0, # of connection points: 2
#     Edge 33, Type (0, 1), BuildingBlock: XIVTED_clean_linker_0, # of connection points: 2
#     Edge 34, Type (0, 1), BuildingBlock: XIVTED_clean_linker_0, # of connection points: 2
#     Edge 35, Type (0, 1), BuildingBlock: XIVTED_clean_linker_0, # of connection points: 2
# Relax obj value: 0.113
# Max RMSD: 0.223
# Mean RMSD: 0.142
data_MOF--net-nom--node1-GALJAG_clean_sbu_0--node2-AZAVOO_clean_linker_0--edge1-XIVTED_clean_linker_0
_symmetry_space_group_name_H-M    P1
_symmetry_Int_Tables_number       1
_symmetry_cell_setting            triclinic
loop_
_symmetry_equiv_pos_as_xyz
'x, y, z'
_cell_length_a     48.048642
_cell_length_b     49.321608
_cell_length_c     61.580026
_cell_angle_alpha  90.236652
_cell_angle_beta   89.843168
_cell_angle_gamma 121.5984
loop_
_atom_site_label
_atom_site_type_symbol
_atom_site_fract_x
_atom_site_fract_y
_atom_site_fract_z
_atom_type_partial_charge
H0 H 0.06823 0.54285 0.16574 0.0
H1 H 0.24794 0.73038 0.3709 0.0
H2 H 0.0055 0.51502 0.28188 0.0
H3 H 0.96617 0.48519 0.25299 0.0
H4 H 0.95285 0.56426 0.24287 0.0
H5 H 0.99178 0.59375 0.27226 0.0
H6 H 0.07857 0.55317 0.26045 0.0
H7 H 0.07776 0.54291 0.22144 0.0
H8 H 0.0457 0.60857 0.20897 0.0
H9 H 0.04708 0.61891 0.24797 0.0
H10 H 0.14287 0.60158 0.2937 0.0
H11 H 0.19751 0.63667 0.27874 0.0
H12 H 0.16396 0.69336 0.2483 0.0
H13 H 0.11011 0.6593 0.26446 0.0
H14 H 0.11844 0.59022 0.34192 0.0
H15 H 0.16882 0.62078 0.36296 0.0
H16 H 0.18257 0.70806 0.33644 0.0
H17 H 0.13187 0.67723 0.31576 0.0
H18 H 0.04157 0.54893 0.35343 0.0
H19 H 0.05297 0.55176 0.39235 0.0
H20 H 0.09137 0.65298 0.39149 0.0
H21 H 0.07918 0.64975 0.35269 0.0
H22 H 0.97569 0.52172 0.31912 0.0
H23 H 0.92361 0.50805 0.33549 0.0
H24 H 0.96477 0.60691 0.35329 0.0
H25 H 0.01518 0.62055 0.33492 0.0
O26 O 0.06881 0.54756 0.18107 0.0
O27 O 0.05185 0.58117 0.17558 0.0
O28 O 0.21963 0.67216 0.37601 0.0
O29 O 0.22796 0.7177 0.36272 0.0
C30 C 0.03147 0.57704 0.29177 0.0
C31 C 0.06178 0.59154 0.28072 0.0
C32 C 0.09117 0.61022 0.29224 0.0
C33 C 0.09046 0.61294 0.31504 0.0
C34 C 0.06017 0.59841 0.32612 0.0
C35 C 0.03053 0.58164 0.31438 0.0
C36 C 0.0013 0.55642 0.27919 0.0
C37 C 0.993 0.52532 0.27407 0.0
C38 C 0.97065 0.5084 0.25754 0.0
C39 C 0.95676 0.52259 0.24563 0.0
C40 C 0.96339 0.55291 0.25179 0.0
C41 C 0.98532 0.56962 0.26864 0.0
C42 C 0.0627 0.58661 0.25698 0.0
C43 C 0.0716 0.56544 0.24923 0.0
C44 C 0.07101 0.55957 0.22696 0.0
C45 C 0.06152 0.57482 0.21209 0.0
C46 C 0.05303 0.59636 0.21997 0.0
C47 C 0.05376 0.60228 0.24223 0.0
C48 C 0.12266 0.62812 0.28036 0.0
C49 C 0.14733 0.62142 0.28362 0.0
C50 C 0.17846 0.64136 0.27488 0.0
C51 C 0.18528 0.6681 0.26249 0.0
C52 C 0.15979 0.67342 0.25814 0.0
C53 C 0.12886 0.65376 0.26714 0.0
C54 C 0.12153 0.63153 0.32735 0.0
C55 C 0.13236 0.61594 0.34071 0.0
C56 C 0.16116 0.63345 0.35268 0.0
C57 C 0.17973 0.66689 0.35139 0.0
C58 C 0.16886 0.68237 0.33783 0.0
C59 C 0.13998 0.66483 0.32595 0.0
C60 C 0.05991 0.59919 0.35023 0.0
C61 C 0.05147 0.5715 0.36181 0.0
C62 C 0.0583 0.57323 0.38397 0.0
C63 C 0.07359 0.60268 0.39489 0.0
C64 C 0.07948 0.62992 0.38358 0.0
C65 C 0.07264 0.62816 0.36141 0.0
C66 C -0.00082 0.57223 0.32545 0.0
C67 C 0.97318 0.54045 0.32619 0.0
C68 C 0.94354 0.53263 0.33596 0.0
C69 C 0.93958 0.55636 0.34567 0.0
C70 C 0.96626 0.58799 0.34551 0.0
C71 C 0.99544 0.59584 0.33526 0.0
C72 C 0.06041 0.56814 0.18848 0.0
C73 C 0.21028 0.68561 0.36414 0.0
H74 H 0.52681 0.14411 0.35615 0.0
H75 H 0.4654 0.2288 0.58152 0.0
H76 H 0.5075 0.06049 0.46606 0.0
H77 H 0.51538 0.02975 0.43828 0.0
H78 H 0.4118 0.97801 0.42455 0.0
H79 H 0.40408 0.00868 0.453 0.0
H80 H 0.52212 0.12697 0.45033 0.0
H81 H 0.53395 0.13984 0.41177 0.0
H82 H 0.43064 0.08226 0.39749 0.0
H83 H 0.41917 0.06985 0.43613 0.0
H84 H 0.52736 0.16436 0.49201 0.0
H85 H 0.55016 0.21901 0.47971 0.0
H86 H 0.45916 0.19112 0.44743 0.0
H87 H 0.43648 0.13618 0.45988 0.0
H88 H 0.51253 0.13667 0.53519 0.0
H89 H 0.52161 0.17723 0.56202 0.0
H90 H 0.43361 0.17252 0.54037 0.0
H91 H 0.42459 0.13161 0.51381 0.0
H92 H 0.49631 0.06731 0.53412 0.0
H93 H 0.50734 0.07103 0.57275 0.0
H94 H 0.41914 0.07204 0.58531 0.0
H95 H 0.40969 0.07041 0.54617 0.0
H96 H 0.46653 0.00856 0.49791 0.0
H97 H 0.43628 0.95284 0.50913 0.0
H98 H 0.35589 0.96284 0.52969 0.0
H99 H 0.38511 0.01737 0.51671 0.0
O100 O 0.52157 0.13881 0.37134 0.0
O101 O 0.46821 0.1089 0.36486 0.0
O102 O 0.50723 0.21403 0.58174 0.0
O103 O 0.46239 0.21277 0.57106 0.0
C104 C 0.45238 0.05859 0.47657 0.0
C105 C 0.46263 0.08965 0.46936 0.0
C106 C 0.46697 0.11322 0.48441 0.0
C107 C 0.46184 0.10591 0.50675 0.0
C108 C 0.45133 0.07476 0.5139 0.0
C109 C 0.44494 0.05065 0.49871 0.0
C110 C 0.45525 0.03674 0.46149 0.0
C111 C 0.48643 0.04214 0.45728 0.0
C112 C 0.49091 0.02475 0.44129 0.0
C113 C 0.46429 0.00174 0.429 0.0
C114 C 0.43275 0.99545 0.43384 0.0
C115 C 0.42827 0.01291 0.45 0.0
C116 C 0.46979 0.09764 0.44599 0.0
C117 C 0.50209 0.11734 0.43884 0.0
C118 C 0.50877 0.12456 0.41681 0.0
C119 C 0.48323 0.1121 0.40154 0.0
C120 C 0.45087 0.09228 0.40881 0.0
C121 C 0.44424 0.08513 0.43085 0.0
C122 C 0.48017 0.14642 0.47704 0.0
C123 C 0.51223 0.17012 0.48248 0.0
C124 C 0.52518 0.20133 0.47546 0.0
C125 C 0.50637 0.20945 0.46273 0.0
C126 C 0.47429 0.18555 0.45711 0.0
C127 C 0.46127 0.15426 0.46427 0.0
C128 C 0.46775 0.13103 0.52272 0.0
C129 C 0.49516 0.14431 0.53636 0.0
C130 C 0.50033 0.16754 0.55162 0.0
C131 C 0.47828 0.17808 0.55337 0.0
C132 C 0.45103 0.16491 0.53948 0.0
C133 C 0.44583 0.14158 0.52428 0.0
C134 C 0.45243 0.06893 0.53738 0.0
C135 C 0.47895 0.06753 0.54527 0.0
C136 C 0.4851 0.06951 0.56751 0.0
C137 C 0.46445 0.07236 0.5824 0.0
C138 C 0.43615 0.07083 0.57441 0.0
C139 C 0.4304 0.06948 0.55205 0.0
C140 C 0.42781 0.01695 0.50602 0.0
C141 C 0.44211 0.99847 0.50439 0.0
C142 C 0.42492 0.96669 0.5112 0.0
C143 C 0.39336 0.95298 0.52023 0.0
C144 C 0.37964 0.97203 0.52231 0.0
C145 C 0.39652 0.00346 0.51512 0.0
C146 C 0.49041 0.11976 0.37814 0.0
C147 C 0.48362 0.2027 0.5696 0.0
H148 H 0.53006 0.50032 0.78236 0.0
H149 H 0.553 0.40988 0.54547 0.0
H150 H 0.52609 0.57849 0.67237 0.0
H151 H 0.52267 0.60146 0.70674 0.0
H152 H 0.42382 0.52236 0.71546 0.0
H153 H 0.42718 0.49984 0.68058 0.0
H154 H 0.54716 0.53109 0.68974 0.0
H155 H 0.54991 0.52453 0.72893 0.0
H156 H 0.4476 0.45031 0.72895 0.0
H157 H 0.44529 0.45713 0.68976 0.0
H158 H 0.56689 0.49846 0.64889 0.0
H159 H 0.58484 0.46319 0.66211 0.0
H160 H 0.48458 0.39114 0.67645 0.0
H161 H 0.4669 0.42641 0.66307 0.0
H162 H 0.56365 0.52895 0.60431 0.0
H163 H 0.58669 0.5101 0.57694 0.0
H164 H 0.50328 0.41446 0.58422 0.0
H165 H 0.48026 0.43375 0.61131 0.0
H166 H 0.53269 0.5742 0.6046 0.0
H167 H 0.55205 0.59018 0.56739 0.0
H168 H 0.48576 0.49358 0.5457 0.0
H169 H 0.46572 0.4782 0.58279 0.0
H170 H 0.49437 0.58686 0.64114 0.0
H171 H 0.46 0.60773 0.63119 0.0
H172 H 0.39295 0.51855 0.59914 0.0
H173 H 0.42589 0.49715 0.61091 0.0
O174 O 0.5286 0.50212 0.7668 0.0
O175 O 0.47603 0.46391 0.76589 0.0
O176 O 0.58659 0.46763 0.55293 0.0
O177 O 0.54446 0.41797 0.55627 0.0
C178 C 0.48287 0.5202 0.65698 0.0
C179 C 0.49406 0.50011 0.66355 0.0
C180 C 0.50472 0.48656 0.64796 0.0
C181 C 0.50592 0.49448 0.62586 0.0
C182 C 0.49397 0.51403 0.61924 0.0
C183 C 0.48106 0.52573 0.63472 0.0
C184 C 0.47675 0.53775 0.67392 0.0
C185 C 0.50318 0.56689 0.68121 0.0
C186 C 0.50126 0.57987 0.70088 0.0
C187 C 0.47308 0.56351 0.71376 0.0
C188 C 0.44585 0.5353 0.7058 0.0
C189 C 0.44759 0.52261 0.68587 0.0
C190 C 0.49606 0.49457 0.68701 0.0
C191 C 0.52548 0.51326 0.69825 0.0
C192 C 0.52693 0.50953 0.72062 0.0
C193 C 0.49893 0.48696 0.73209 0.0
C194 C 0.46959 0.46793 0.72063 0.0
C195 C 0.4682 0.47171 0.69826 0.0
C196 C 0.51563 0.46493 0.65507 0.0
C197 C 0.54885 0.47494 0.65471 0.0
C198 C 0.55901 0.45479 0.66222 0.0
C199 C 0.5361 0.4245 0.6704 0.0
C200 C 0.50281 0.41451 0.67051 0.0
C201 C 0.49267 0.43453 0.66283 0.0
C202 C 0.52025 0.48272 0.60972 0.0
C203 C 0.55039 0.50395 0.59994 0.0
C204 C 0.5635 0.49311 0.58434 0.0
C205 C 0.54681 0.46075 0.57838 0.0
C206 C 0.51676 0.43952 0.58841 0.0
C207 C 0.50359 0.45043 0.60393 0.0
C208 C 0.49831 0.52492 0.5964 0.0
C209 C 0.52144 0.55682 0.59165 0.0
C210 C 0.53267 0.56583 0.57043 0.0
C211 C 0.521 0.543 0.5537 0.0
C212 C 0.49524 0.5118 0.55818 0.0
C213 C 0.48386 0.50287 0.57939 0.0
C214 C 0.46221 0.54013 0.62734 0.0
C215 C 0.47191 0.57164 0.63239 0.0
C216 C 0.45244 0.58373 0.62629 0.0
C217 C 0.42328 0.56475 0.61455 0.0
C218 C 0.41458 0.53365 0.60872 0.0
C219 C 0.43364 0.52144 0.61521 0.0
C220 C 0.50037 0.48352 0.75593 0.0
C221 C 0.56059 0.44912 0.56177 0.0
H222 H 0.04268 0.44015 0.96467 0.0
H223 H 0.22528 0.51567 0.74072 0.0
H224 H 0.98354 0.46527 0.83759 0.0
H225 H 0.94393 0.45623 0.86563 0.0
H226 H 0.94416 0.37256 0.88641 0.0
H227 H 0.98074 0.3799 0.85663 0.0
H228 H 0.04004 0.47561 0.87453 0.0
H229 H 0.04023 0.46831 0.91379 0.0
H230 H 0.05098 0.38758 0.90284 0.0
H231 H 0.05028 0.39488 0.86359 0.0
H232 H 0.11324 0.50039 0.85747 0.0
H233 H 0.16282 0.50952 0.87542 0.0
H234 H 0.14994 0.42434 0.84525 0.0
H235 H 0.10049 0.41568 0.82719 0.0
H236 H 0.1182 0.52381 0.80552 0.0
H237 H 0.16961 0.55065 0.78513 0.0
H238 H 0.15188 0.45913 0.76405 0.0
H239 H 0.10049 0.43268 0.78447 0.0
H240 H 0.04873 0.51002 0.78918 0.0
H241 H 0.06406 0.53895 0.75485 0.0
H242 H 0.06716 0.46147 0.72434 0.0
H243 H 0.05061 0.43221 0.75872 0.0
H244 H 0.98713 0.47228 0.79487 0.0
H245 H 0.93403 0.44938 0.77673 0.0
H246 H 0.92123 0.35599 0.78071 0.0
H247 H 0.97443 0.37918 0.79828 0.0
O248 O 0.04268 0.44261 0.94907 0.0
O249 O 0.04857 0.40149 0.94259 0.0
O250 O 0.21311 0.55212 0.76028 0.0
O251 O 0.20518 0.50569 0.74902 0.0
C252 C 0.01536 0.43373 0.83201 0.0
C253 C 0.04445 0.44007 0.84242 0.0
C254 C 0.07347 0.45197 0.83029 0.0
C255 C 0.07435 0.46037 0.80837 0.0
C256 C 0.04568 0.45516 0.79813 0.0
C257 C 0.01583 0.44012 0.8096 0.0
C258 C 0.98549 0.42353 0.84522 0.0
C259 C 0.97382 0.44414 0.84754 0.0
C260 C 0.9517 0.43931 0.86402 0.0
C261 C 0.94163 0.41436 0.87903 0.0
C262 C 0.95114 0.39211 0.87536 0.0
C263 C 0.97238 0.39636 0.85836 0.0
C264 C 0.04508 0.43574 0.86625 0.0
C265 C 0.04238 0.45634 0.88066 0.0
C266 C 0.04253 0.45213 0.90307 0.0
C267 C 0.04562 0.42735 0.91146 0.0
C268 C 0.04856 0.40689 0.89692 0.0
C269 C 0.04827 0.41105 0.87451 0.0
C270 C 0.10356 0.45754 0.84098 0.0
C271 C 0.12117 0.48373 0.85482 0.0
C272 C 0.14923 0.48867 0.8652 0.0
C273 C 0.16016 0.46751 0.86185 0.0
C274 C 0.14224 0.44114 0.84803 0.0
C275 C 0.11411 0.43619 0.8377 0.0
C276 C 0.10581 0.47639 0.79644 0.0
C277 C 0.12558 0.50966 0.79653 0.0
C278 C 0.15487 0.52489 0.78486 0.0
C279 C 0.16485 0.50702 0.77294 0.0
C280 C 0.14493 0.4736 0.77304 0.0
C281 C 0.11563 0.45842 0.7847 0.0
C282 C 0.0482 0.4689 0.77635 0.0
C283 C 0.05162 0.49885 0.77488 0.0
C284 C 0.06087 0.51553 0.75533 0.0
C285 C 0.06726 0.50271 0.73691 0.0
C286 C 0.06215 0.47191 0.73815 0.0
C287 C 0.0527 0.45513 0.75775 0.0
C288 C 0.98464 0.42737 0.79775 0.0
C289 C 0.97305 0.447 0.79146 0.0
C290 C 0.94264 0.43383 0.78127 0.0
C291 C 0.92345 0.40086 0.7772 0.0
C292 C 0.93559 0.3815 0.78322 0.0
C293 C 0.96585 0.39465 0.79342 0.0
C294 C 0.04573 0.42294 0.93528 0.0
C295 C 0.19585 0.52308 0.76041 0.0
H296 H 0.44487 0.97583 0.85008 0.0
H297 H 0.45131 0.82619 0.06394 0.0
H298 H 0.49603 0.06058 0.96174 0.0
H299 H 0.51347 0.10056 0.93326 0.0
H300 H 0.60183 0.0985 0.92458 0.0
H301 H 0.58507 0.06043 0.95424 0.0
H302 H 0.45004 0.98303 0.94501 0.0
H303 H 0.43836 0.97755 0.90602 0.0
H304 H 0.53715 0.00141 0.89283 0.0
H305 H 0.54834 0.00646 0.93185 0.0
H306 H 0.43083 0.92252 0.98077 0.0
H307 H 0.40634 0.86939 0.96407 0.0
H308 H 0.4997 0.89701 0.93537 0.0
H309 H 0.52389 0.94931 0.95232 0.0
H310 H 0.4502 0.954 0.02995 0.0
H311 H 0.42797 0.90722 0.05343 0.0
H312 H 0.49645 0.88469 0.02595 0.0
H313 H 0.51868 0.93172 0.00276 0.0
H314 H 0.49639 0.03272 0.03817 0.0
H315 H 0.50137 0.03579 0.07777 0.0
H316 H 0.55597 0.98864 0.0748 0.0
H317 H 0.55204 0.98701 0.03524 0.0
H318 H 0.52604 0.08459 0.00092 0.0
H319 H 0.56625 0.13706 0.01547 0.0
H320 H 0.63118 0.10328 0.02946 0.0
H321 H 0.59175 0.05177 0.01363 0.0
O322 O 0.44996 0.97803 0.86544 0.0
O323 O 0.50104 0.99052 0.85955 0.0
O324 O 0.4249 0.85744 0.06844 0.0
O325 O 0.45958 0.8448 0.05481 0.0
C326 C 0.52594 0.02951 0.97419 0.0
C327 C 0.50703 -0.00108 0.96486 0.0
C328 C 0.49474 0.97161 0.97798 0.0
C329 C 0.49972 0.97488 0.00068 0.0
C330 C 0.51844 0.00558 0.01003 0.0
C331 C 0.53245 0.03286 0.99667 0.0
C332 C 0.53932 0.05772 0.95996 0.0
C333 C 0.51961 0.06963 0.95409 0.0
C334 C 0.52946 0.09211 0.93756 0.0
C335 C 0.55879 0.10239 0.92615 0.0
C336 C 0.57928 0.09156 0.93301 0.0
C337 C 0.56973 0.06965 0.94993 0.0
C338 C 0.50009 0.99542 0.94119 0.0
C339 C 0.46908 0.98704 0.93365 0.0
C340 C 0.46251 0.98396 0.91138 0.0
C341 C 0.48686 0.98915 0.89629 0.0
C342 C 0.51788 0.99735 0.90399 0.0
C343 C 0.52438 0.00038 0.92625 0.0
C344 C 0.47905 0.93977 0.96759 0.0
C345 C 0.44583 0.917 0.9708 0.0
C346 C 0.43194 0.88681 0.96127 0.0
C347 C 0.45104 0.8793 0.9482 0.0
C348 C 0.48419 0.90236 0.94493 0.0
C349 C 0.49808 0.93219 0.95465 0.0
C350 C 0.48593 0.94615 0.01461 0.0
C351 C 0.46034 0.93891 0.02904 0.0
C352 C 0.44769 0.91218 0.04241 0.0
C353 C 0.46042 0.89218 0.04155 0.0
C354 C 0.48605 0.89953 0.02701 0.0
C355 C 0.49873 0.92632 0.01369 0.0
C356 C 0.52345 0.00924 0.0339 0.0
C357 C 0.50982 0.0235 0.04611 0.0
C358 C 0.51255 0.02507 0.06872 0.0
C359 C 0.52887 0.01226 0.07949 0.0
C360 C 0.54357 -0.00091 0.06706 0.0
C361 C 0.541 0.99773 0.04446 0.0
C362 C 0.55615 0.06453 0.00599 0.0
C363 C 0.54913 0.08874 0.0069 0.0
C364 C 0.57198 0.11856 0.01551 0.0
C365 C 0.60208 0.12451 0.0236 0.0
C366 C 0.60861 0.09984 0.02301 0.0
C367 C 0.58598 0.07027 0.01414 0.0
C368 C 0.47985 0.98597 0.87265 0.0
C369 C 0.44714 0.8638 0.05577 0.0
H370 H 0.63048 0.62768 0.00197 0.0
H371 H 0.77342 0.59354 0.22309 0.0
H372 H 0.59686 0.65473 0.12604 0.0
H373 H 0.56749 0.65579 0.09422 0.0
H374 H 0.65776 0.7326 0.06752 0.0
H375 H 0.68684 0.73231 0.10002 0.0
H376 H 0.62442 0.62182 0.09677 0.0
H377 H 0.61816 0.61573 0.05733 0.0
H378 H 0.71696 0.69563 0.04931 0.0
H379 H 0.72269 0.70168 0.08885 0.0
H380 H 0.65845 0.58931 0.129 0.0
H381 H 0.67922 0.55784 0.11313 0.0
H382 H 0.76925 0.64459 0.09623 0.0
H383 H 0.74856 0.67577 0.11302 0.0
H384 H 0.65068 0.59737 0.17583 0.0
H385 H 0.66967 0.57062 0.1995 0.0
H386 H 0.76963 0.6464 0.18822 0.0
H387 H 0.7502 0.67317 0.16485 0.0
H388 H 0.61509 0.63058 0.18479 0.0
H389 H 0.60685 0.61248 0.22227 0.0
H390 H 0.70921 0.67893 0.23536 0.0
H391 H 0.71675 0.69821 0.19798 0.0
H392 H 0.59931 0.66347 0.16729 0.0
H393 H 0.57923 0.69466 0.18483 0.0
H394 H 0.67406 0.78006 0.17643 0.0
H395 H 0.69413 0.74853 0.15925 0.0
O396 O 0.63383 0.63 0.01755 0.0
O397 O 0.68545 0.66982 0.01423 0.0
O398 O 0.71341 0.56538 0.21915 0.0
O399 O 0.76524 0.60354 0.21371 0.0
C400 C 0.66223 0.68341 0.12923 0.0
C401 C 0.67638 0.66739 0.11945 0.0
C402 C 0.68953 0.65341 0.13245 0.0
C403 C 0.68736 0.65417 0.15524 0.0
C404 C 0.67269 0.66966 0.16506 0.0
C405 C 0.66094 0.68504 0.15206 0.0
C406 C 0.64402 0.69328 0.11527 0.0
C407 C 0.61001 0.67307 0.11398 0.0
C408 C 0.59337 0.6733 0.09557 0.0
C409 C 0.61056 0.69358 0.07812 0.0
C410 C 0.64391 0.71662 0.08067 0.0
C411 C 0.66054 0.71659 0.09927 0.0
C412 C 0.67401 0.66214 0.09559 0.0
C413 C 0.64477 0.63778 0.08645 0.0
C414 C 0.64123 0.63443 0.06392 0.0
C415 C 0.66702 0.65527 0.05016 0.0
C416 C 0.69661 0.67921 0.05945 0.0
C417 C 0.70005 0.68262 0.082 0.0
C418 C 0.70209 0.63471 0.12219 0.0
C419 C 0.68265 0.60143 0.12187 0.0
C420 C 0.69447 0.58355 0.1126 0.0
C421 C 0.72588 0.59869 0.10331 0.0
C422 C 0.74512 0.63217 0.10345 0.0
C423 C 0.73331 0.65004 0.11288 0.0
C424 C 0.69907 0.63732 0.16883 0.0
C425 C 0.67665 0.60818 0.17856 0.0
C426 C 0.68758 0.59293 0.19202 0.0
C427 C 0.72119 0.60643 0.19581 0.0
C428 C 0.74359 0.6354 0.1857 0.0
C429 C 0.7326 0.65071 0.17231 0.0
C430 C 0.6664 0.66605 0.18874 0.0
C431 C 0.63531 0.64255 0.19605 0.0
C432 C 0.63082 0.63173 0.21738 0.0
C433 C 0.65751 0.6438 0.23165 0.0
C434 C 0.6881 0.66926 0.22481 0.0
C435 C 0.69248 0.68037 0.20347 0.0
C436 C 0.64829 0.7037 0.16229 0.0
C437 C 0.61585 0.68882 0.1695 0.0
C438 C 0.60444 0.70665 0.1795 0.0
C439 C 0.62517 0.73974 0.18211 0.0
C440 C 0.65754 0.75462 0.17456 0.0
C441 C 0.66903 0.73669 0.16481 0.0
C442 C 0.66281 0.6522 0.02623 0.0
C443 C 0.73291 0.59045 0.21026 0.0
In444 In 0.65963 0.49756 0.40018 0.0
O445 O 0.71434 0.52555 0.40773 0.0
O446 O 0.69573 0.48474 0.38735 0.0
C447 C 0.63478 0.52093 0.42852 0.0
C448 C 0.65703 0.52615 0.36382 0.0
C449 C 0.62431 0.43639 0.41284 0.0
O450 O 0.66293 0.52514 0.43092 0.0
O451 O 0.61947 0.50499 0.41196 0.0
O452 O 0.62201 0.4449 0.39391 0.0
O453 O 0.6445 0.45865 0.42507 0.0
C454 C 0.72032 0.50776 0.39642 0.0
O455 O 0.63977 0.49628 0.36617 0.0
O456 O 0.67565 0.54107 0.37953 0.0
In457 In 0.2293 0.66028 0.57235 0.0
O458 O 0.24693 0.62588 0.56692 0.0
O459 O 0.27437 0.66501 0.58835 0.0
C460 C 0.19314 0.64458 0.53579 0.0
C461 C 0.18901 0.63178 0.60666 0.0
C462 C 0.26625 0.72363 0.56545 0.0
O463 O 0.21522 0.6383 0.53845 0.0
O464 O 0.18937 0.65879 0.55152 0.0
O465 O 0.23974 0.71105 0.57597 0.0
O466 O 0.27411 0.70438 0.5587 0.0
C467 C 0.27121 0.64045 0.57944 0.0
O468 O 0.21271 0.66023 0.60744 0.0
O469 O 0.18549 0.61822 0.58864 0.0
In470 In 0.62029 0.23637 0.74178 0.0
O471 O 0.67211 0.25013 0.73203 0.0
O472 O 0.66619 0.28128 0.75293 0.0
C473 C 0.58264 0.18615 0.71556 0.0
C474 C 0.60853 0.21073 0.78185 0.0
C475 C 0.6049 0.27809 0.7269 0.0
O476 O 0.61345 0.20038 0.7153 0.0
O477 O 0.57121 0.19673 0.7293 0.0
O478 O 0.59841 0.26732 0.74602 0.0
O479 O 0.61931 0.26793 0.71535 0.0
C480 C 0.68563 0.27577 0.74286 0.0
O481 O 0.59399 0.22382 0.77445 0.0
O482 O 0.6287 0.21021 0.76899 0.0
In483 In 0.44906 0.6341 0.90478 0.0
O484 O 0.40096 0.59614 0.92071 0.0
O485 O 0.40794 0.59128 0.88725 0.0
C486 C 0.49352 0.64683 0.93622 0.0
C487 C 0.47477 0.63081 0.86681 0.0
C488 C 0.43227 0.67826 0.90797 0.0
O489 O 0.47018 0.61904 0.93214 0.0
O490 O 0.49503 0.66796 0.92402 0.0
O491 O 0.45156 0.6793 0.89359 0.0
O492 O 0.42129 0.65484 0.92064 0.0
C493 C 0.38937 0.58027 0.90347 0.0
O494 O 0.46689 0.65112 0.87052 0.0
O495 O 0.47106 0.61301 0.88267 0.0
In496 In 0.82102 0.409 0.06432 0.0
O497 O 0.82305 0.4051 0.10117 0.0
O498 O 0.86745 0.43616 0.08474 0.0
C499 C 0.77412 0.34678 0.06439 0.0
C500 C 0.80194 0.4514 0.06445 0.0
C501 C 0.84922 0.41289 0.0254 0.0
O502 O 0.80418 0.35649 0.06485 0.0
O503 O 0.76764 0.36849 0.06442 0.0
O504 O 0.83143 0.42422 0.02875 0.0
O505 O 0.85362 0.40036 0.04178 0.0
C506 C 0.85323 0.42519 0.10266 0.0
O507 O 0.83147 0.45948 0.06635 0.0
O508 O 0.78201 0.42187 0.06206 0.0
In509 In 0.48475 0.87896 0.25463 0.0
O510 O 0.51428 0.85558 0.26239 0.0
O511 O 0.50896 0.86438 0.2294 0.0
C512 C 0.49102 0.90056 0.29598 0.0
C513 C 0.50051 0.92655 0.22642 0.0
C514 C 0.42131 0.83414 0.24812 0.0
O515 O 0.50916 0.91776 0.28074 0.0
O516 O 0.47083 0.87222 0.29058 0.0
O517 O 0.43132 0.86319 0.25093 0.0
O518 O 0.44338 0.82755 0.24844 0.0
C519 C 0.52062 0.85365 0.24273 0.0
O520 O 0.47141 0.90544 0.23091 0.0
O521 O 0.52193 0.92419 0.23659 0.0
H522 H 0.23337 0.65769 0.24814 0.0
H523 H 0.37023 0.84341 0.24708 0.0
H524 H 0.21521 0.73297 0.26218 0.0
H525 H 0.39279 0.76952 0.24414 0.0
H526 H 0.31214 0.80277 0.24664 0.0
H527 H 0.29076 0.69795 0.24109 0.0
C528 C 0.24134 0.68262 0.24962 0.0
C529 C 0.21935 0.69187 0.25587 0.0
C530 C 0.32975 0.79539 0.24596 0.0
C531 C 0.28484 0.73798 0.24763 0.0
C532 C 0.36293 0.8186 0.24619 0.0
C533 C 0.38631 0.80977 0.24589 0.0
C534 C 0.31983 0.76307 0.24548 0.0
C535 C 0.3755 0.77729 0.24456 0.0
C536 C 0.27406 0.70557 0.24551 0.0
C537 C 0.231 0.72457 0.25714 0.0
N538 N 0.34297 0.75505 0.24457 0.0
N539 N 0.26292 0.74636 0.25319 0.0
H540 H 0.50152 0.23069 0.42252 0.0
H541 H 0.6236 0.41405 0.45331 0.0
H542 H 0.54357 0.26416 0.48609 0.0
H543 H 0.58114 0.38299 0.38959 0.0
H544 H 0.5926 0.35907 0.46568 0.0
H545 H 0.52808 0.28604 0.41032 0.0
C546 C 0.51607 0.24967 0.43397 0.0
C547 C 0.52055 0.24278 0.45532 0.0
C548 C 0.58994 0.36417 0.44899 0.0
C549 C 0.55124 0.30606 0.44142 0.0
C550 C 0.6077 0.39561 0.4419 0.0
C551 C 0.60505 0.40307 0.42036 0.0
C552 C 0.56937 0.33986 0.43443 0.0
C553 C 0.58395 0.37822 0.40633 0.0
C554 C 0.53137 0.28124 0.42696 0.0
C555 C 0.53991 0.26832 0.46938 0.0
N556 N 0.56698 0.34765 0.4136 0.0
N557 N 0.5546 0.29875 0.46217 0.0
H558 H 0.44056 0.62608 0.60399 0.0
H559 H 0.26121 0.58141 0.57193 0.0
H560 H 0.35616 0.53126 0.61196 0.0
H561 H 0.33283 0.67455 0.59637 0.0
H562 H 0.29878 0.56323 0.57995 0.0
H563 H 0.40402 0.64504 0.59513 0.0
C564 C 0.41446 0.60921 0.604 0.0
C565 C 0.40161 0.5769 0.60875 0.0
C566 C 0.30622 0.58765 0.58351 0.0
C567 C 0.35983 0.59846 0.59798 0.0
C568 C 0.28491 0.59805 0.57887 0.0
C569 C 0.29394 0.62946 0.5836 0.0
C570 C 0.33699 0.60899 0.59253 0.0
C571 C 0.3249 0.65007 0.59262 0.0
C572 C 0.39367 0.62009 0.59881 0.0
C573 C 0.36746 0.5562 0.60797 0.0
N574 N 0.34545 0.63952 0.5967 0.0
N575 N 0.34783 0.5673 0.60259 0.0
H576 H 0.89375 0.35289 0.74694 0.0
H577 H 0.71896 0.33309 0.76351 0.0
H578 H 0.87676 0.41498 0.78685 0.0
H579 H 0.73364 0.2674 0.72612 0.0
H580 H 0.77785 0.36677 0.76861 0.0
H581 H 0.83651 0.32478 0.73561 0.0
C582 C 0.87803 0.36074 0.75322 0.0
C583 C 0.89002 0.38615 0.76805 0.0
C584 C 0.76829 0.34511 0.75917 0.0
C585 C 0.82452 0.35414 0.75508 0.0
C586 C 0.73463 0.32584 0.75626 0.0
C587 C 0.72139 0.29726 0.74454 0.0
C588 C 0.78896 0.3357 0.7504 0.0
C589 C 0.74286 0.28917 0.73537 0.0
C590 C 0.84539 0.34474 0.74668 0.0
C591 C 0.8687 0.39568 0.77531 0.0
N592 N 0.77562 0.3082 0.73864 0.0
N593 N 0.83695 0.37949 0.7689 0.0
H594 H 0.45853 0.86335 0.90701 0.0
H595 H 0.39697 0.68454 0.94033 0.0
H596 H 0.41345 0.82201 0.96857 0.0
H597 H 0.45199 0.73019 0.88226 0.0
H598 H 0.39219 0.73077 0.94746 0.0
H599 H 0.44531 0.81096 0.89427 0.0
C600 C 0.44543 0.84309 0.91773 0.0
C601 C 0.43756 0.84703 0.93899 0.0
C602 C 0.40493 0.73049 0.93301 0.0
C603 C 0.42257 0.78711 0.92462 0.0
C604 C 0.40765 0.70412 0.92892 0.0
C605 C 0.42536 0.70384 0.91087 0.0
C606 C 0.42008 0.7567 0.91893 0.0
C607 C 0.43849 0.72966 0.89653 0.0
C608 C 0.43787 0.8132 0.91046 0.0
C609 C 0.42003 0.81997 0.95208 0.0
N610 N 0.43589 0.75521 0.901 0.0
N611 N 0.41358 0.79118 0.9448 0.0
H612 H 0.78807 0.61007 0.1065 0.0
H613 H 0.7405 0.44066 0.05895 0.0
H614 H 0.69315 0.54333 0.07958 0.0
H615 H 0.83937 0.51458 0.07449 0.0
H616 H 0.72284 0.47837 0.06539 0.0
H617 H 0.80775 0.57618 0.09374 0.0
C618 C 0.77145 0.58852 0.09765 0.0
C619 C 0.7388 0.57947 0.09426 0.0
C620 C 0.74845 0.48643 0.0672 0.0
C621 C 0.76107 0.54019 0.07995 0.0
C622 C 0.75852 0.46491 0.06354 0.0
C623 C 0.79139 0.4745 0.06634 0.0
C624 C 0.77139 0.51764 0.07391 0.0
C625 C 0.81376 0.50619 0.07223 0.0
C626 C 0.78268 0.56907 0.09047 0.0
C627 C 0.71831 0.55097 0.08297 0.0
N628 N 0.80329 0.52656 0.07602 0.0
N629 N 0.72971 0.53223 0.07637 0.0
H630 H 0.32688 0.91053 0.51861 0.0
H631 H 0.33035 0.75825 0.55341 0.0
H632 H 0.41674 0.91743 0.53814 0.0
H633 H 0.24696 0.76687 0.56603 0.0
H634 H 0.36201 0.81462 0.54327 0.0
H635 H 0.29652 0.85572 0.53138 0.0
C636 C 0.34034 0.90078 0.52574 0.0
C637 C 0.37462 0.91906 0.5274 0.0
C638 C 0.33685 0.80418 0.5484 0.0
C639 C 0.33972 0.85566 0.54145 0.0
C640 C 0.31877 0.77207 0.55412 0.0
C641 C 0.28602 0.75797 0.56056 0.0
C642 C 0.32182 0.82207 0.54864 0.0
C643 C 0.27218 0.7769 0.56124 0.0
C644 C 0.32289 0.86935 0.53292 0.0
C645 C 0.39048 0.90438 0.53618 0.0
N646 N 0.29006 0.80795 0.5551 0.0
N647 N 0.37292 0.87351 0.54276 0.0
H648 H 0.51627 0.38983 0.70785 0.0
H649 H 0.62007 0.30772 0.68746 0.0
H650 H 0.58032 0.41147 0.65284 0.0
H651 H 0.5693 0.29929 0.74735 0.0
H652 H 0.60408 0.3441 0.67374 0.0
H653 H 0.53352 0.35462 0.7218 0.0
C654 C 0.53388 0.38704 0.69867 0.0
C655 C 0.54682 0.40348 0.67912 0.0
C656 C 0.59653 0.33437 0.68991 0.0
C657 C 0.56683 0.36339 0.69504 0.0
C658 C 0.6056 0.31358 0.69773 0.0
C659 C 0.59596 0.3005 0.71857 0.0
C660 C 0.5775 0.34193 0.70297 0.0
C661 C 0.57726 0.30888 0.7312 0.0
C662 C 0.54388 0.3671 0.7067 0.0
C663 C 0.56995 0.39941 0.66805 0.0
N664 N 0.56854 0.32899 0.72316 0.0
N665 N 0.57911 0.37964 0.67612 0.0
H666 H 0.18279 0.48834 0.90316 0.0
H667 H 0.36296 0.53754 0.87035 0.0
H668 H 0.20859 0.46229 0.84275 0.0
H669 H 0.33851 0.56266 0.93162 0.0
H670 H 0.30501 0.5007 0.86333 0.0
H671 H 0.23767 0.50699 0.9169 0.0
C672 C 0.19991 0.48625 0.89287 0.0
C673 C 0.19131 0.47427 0.87164 0.0
C674 C 0.31223 0.51384 0.87849 0.0
C675 C 0.25402 0.49544 0.88725 0.0
C676 C 0.34534 0.53485 0.88251 0.0
C677 C 0.35538 0.55353 0.9014 0.0
C678 C 0.289 0.51191 0.89332 0.0
C679 C 0.33167 0.54887 0.91674 0.0
C680 C 0.23116 0.49672 0.90077 0.0
C681 C 0.21414 0.47138 0.8592 0.0
N682 N 0.29945 0.52893 0.91217 0.0
N683 N 0.24459 0.48234 0.86708 0.0
H684 H 0.59239 0.16624 0.04749 0.0
H685 H 0.78285 0.29708 0.05746 0.0
H686 H 0.6687 0.1559 0.01914 0.0
H687 H 0.70773 0.31932 0.06583 0.0
H688 H 0.74063 0.24177 0.0499 0.0
H689 H 0.63398 0.2195 0.06008 0.0
C690 C 0.6178 0.1751 0.04386 0.0
C691 C 0.62695 0.15647 0.03213 0.0
C692 C 0.73339 0.25871 0.05353 0.0
C693 C 0.67461 0.2171 0.04693 0.0
C694 C 0.75744 0.29023 0.05795 0.0
C695 C 0.74873 0.31281 0.06211 0.0
C696 C 0.7004 0.24967 0.05342 0.0
C697 C 0.71545 0.30265 0.06255 0.0
C698 C 0.64151 0.20542 0.05118 0.0
C699 C 0.6604 0.16906 0.02837 0.0
N700 N 0.69243 0.27178 0.05817 0.0
N701 N 0.68296 0.19855 0.03573 0.0
H702 H 0.63273 0.79547 0.16757 0.0
H703 H 0.53514 0.81508 0.26576 0.0
H704 H 0.58945 0.72717 0.2195 0.0
H705 H 0.54832 0.85925 0.20316 0.0
H706 H 0.56326 0.78877 0.25208 0.0
H707 H 0.61026 0.82548 0.18362 0.0
C708 C 0.61873 0.78697 0.18246 0.0
C709 C 0.61278 0.75875 0.19218 0.0
C710 C 0.56008 0.80435 0.24142 0.0
C711 C 0.58704 0.7929 0.21061 0.0
C712 C 0.5442 0.81944 0.24923 0.0
C713 C 0.53928 0.83918 0.23551 0.0
C714 C 0.57147 0.80951 0.21989 0.0
C715 C 0.55142 0.84402 0.21422 0.0
C716 C 0.60578 0.80398 0.19154 0.0
C717 C 0.59425 0.74864 0.21137 0.0
N718 N 0.56698 0.82931 0.20707 0.0
N719 N 0.58204 0.76573 0.22 0.0
H720 H 0.89336 0.50105 0.36639 0.0
H721 H 0.77782 0.56467 0.40063 0.0
H722 H 0.91245 0.59361 0.34734 0.0
H723 H 0.73845 0.46628 0.38332 0.0
H724 H 0.83245 0.57646 0.39034 0.0
H725 H 0.84057 0.48863 0.38106 0.0
C726 C 0.88665 0.51879 0.3652 0.0
C727 C 0.90773 0.5485 0.35547 0.0
C728 C 0.81183 0.55226 0.38902 0.0
C729 C 0.84781 0.53465 0.37303 0.0
C730 C 0.78078 0.54549 0.39499 0.0
C731 C 0.75368 0.51452 0.39266 0.0
C732 C 0.81579 0.52774 0.38113 0.0
C733 C 0.75876 0.49053 0.38518 0.0
C734 C 0.8566 0.51169 0.37376 0.0
C735 C 0.89768 0.57067 0.35503 0.0
N736 N 0.78928 0.49762 0.37969 0.0
N737 N 0.86857 0.56334 0.36375 0.0
H738 H 0.0721 0.63762 0.42936 0.0
H739 H 0.19301 0.6095 0.50133 0.0
H740 H 0.10605 0.57532 0.41078 0.0
H741 H 0.14837 0.66049 0.52478 0.0
H742 H 0.16095 0.59669 0.46802 0.0
H743 H 0.09922 0.64613 0.46456 0.0
C744 C 0.08502 0.62554 0.43276 0.0
C745 C 0.08674 0.60567 0.41713 0.0
C746 C 0.15803 0.61057 0.48047 0.0
C747 C 0.11797 0.61544 0.45723 0.0
C748 C 0.17641 0.61795 0.49946 0.0
C749 C 0.17341 0.63616 0.51578 0.0
C750 C 0.13665 0.62168 0.47768 0.0
C751 C 0.15144 0.64642 0.51256 0.0
C752 C 0.10043 0.63035 0.45285 0.0
C753 C 0.10366 0.59047 0.42243 0.0
N754 N 0.13401 0.63917 0.49382 0.0
N755 N 0.11879 0.59586 0.44194 0.0
H756 H 0.45356 0.11019 0.60969 0.0
H757 H 0.599 0.15395 0.68683 0.0
H758 H 0.4997 0.05487 0.60812 0.0
H759 H 0.51838 0.16308 0.70749 0.0
H760 H 0.56489 0.11881 0.65718 0.0
H761 H 0.47769 0.13067 0.64511 0.0
C762 C 0.46807 0.10164 0.61687 0.0
C763 C 0.47471 0.08085 0.60553 0.0
C764 C 0.55458 0.12811 0.66848 0.0
C765 C 0.50366 0.10558 0.64597 0.0
C766 C 0.57403 0.14821 0.68531 0.0
C767 C 0.56156 0.16163 0.69948 0.0
C768 C 0.52284 0.12212 0.6656 0.0
C769 C 0.52901 0.15337 0.69686 0.0
C770 C 0.48212 0.11367 0.63712 0.0
C771 C 0.49456 0.07153 0.6158 0.0
N772 N 0.51097 0.13461 0.67999 0.0
N773 N 0.50888 0.08447 0.63523 0.0
H774 H 0.45636 0.52757 0.75035 0.0
H775 H 0.48768 0.66763 0.83076 0.0
H776 H 0.49272 0.62342 0.72845 0.0
H777 H 0.47677 0.57945 0.85239 0.0
H778 H 0.48938 0.65231 0.79318 0.0
H779 H 0.46148 0.54578 0.78793 0.0
C780 C 0.46498 0.55239 0.7535 0.0
C781 C 0.47374 0.574 0.73635 0.0
C782 C 0.48706 0.63651 0.80617 0.0
C783 C 0.48023 0.59512 0.77922 0.0
C784 C 0.48621 0.64529 0.82761 0.0
C785 C 0.48193 0.62469 0.84467 0.0
C786 C 0.48311 0.60673 0.80179 0.0
C787 C 0.48011 0.59602 0.83971 0.0
C788 C 0.46831 0.56285 0.77493 0.0
C789 C 0.4856 0.60604 0.74127 0.0
N790 N 0.48027 0.58769 0.81868 0.0
N791 N 0.48834 0.61563 0.76229 0.0
H792 H 0.9471 0.46501 0.90197 0.0
H793 H 0.86751 0.37252 0.01003 0.0
H794 H 0.89765 0.36227 0.90369 0.0
H795 H 0.86013 0.45281 0.99156 0.0
H796 H 0.88717 0.37157 0.97333 0.0
H797 H 0.92265 0.46399 0.93677 0.0
C798 C 0.93069 0.44212 0.9093 0.0
C799 C 0.92448 0.41361 0.89951 0.0
C800 C 0.88117 0.38931 0.97738 0.0
C801 C 0.89768 0.41274 0.94015 0.0
C802 C 0.87027 0.39006 -0.00171 0.0
C803 C 0.86234 0.41285 0.00376 0.0
C804 C 0.88489 0.41201 0.9621 0.0
C805 C 0.86601 0.43487 0.98793 0.0
C806 C 0.91702 0.4417 0.92937 0.0
C807 C 0.90381 0.38494 0.91058 0.0
N808 N 0.87738 0.43413 0.96784 0.0
N809 N 0.89149 0.38528 0.93043 0.0
H810 H 0.47802 0.99824 0.10681 0.0
H811 H 0.5602 0.96643 0.20773 0.0
H812 H 0.57777 0.02062 0.1071 0.0
H813 H 0.45882 0.93836 0.2045 0.0
H814 H 0.57049 0.99659 0.17409 0.0
H815 H 0.47433 0.98697 0.14549 0.0
C816 C 0.49942 0.00144 0.11507 0.0
C817 C 0.52814 0.00999 0.10356 0.0
C818 C 0.54611 0.98425 0.18093 0.0
C819 C 0.52375 0.99629 0.14791 0.0
C820 C 0.54026 0.96714 0.20017 0.0
C821 C 0.5085 0.94948 0.20867 0.0
C822 C 0.51999 0.9836 0.17021 0.0
C823 C 0.48358 0.95129 0.1983 0.0
C824 C 0.49719 0.99473 0.13718 0.0
C825 C 0.55489 0.01335 0.11519 0.0
N826 N 0.48978 0.96769 0.17947 0.0
N827 N 0.55191 0.00609 0.13667 0.0
H828 H 0.6845 0.66978 0.27144 0.0
H829 H 0.62019 0.50027 0.32708 0.0
H830 H 0.62434 0.57972 0.23875 0.0
H831 H 0.68958 0.59012 0.35699 0.0
H832 H 0.61777 0.52908 0.29557 0.0
H833 H 0.68288 0.64105 0.30421 0.0
C834 C 0.67079 0.644 0.2712 0.0
C835 C 0.65442 0.62717 0.25235 0.0
C836 C 0.63351 0.54248 0.30904 0.0
C837 C 0.65249 0.59415 0.2897 0.0
C838 C 0.63491 0.52603 0.32699 0.0
C839 C 0.65523 0.54284 0.34457 0.0
C840 C 0.6525 0.57593 0.30875 0.0
C841 C 0.6737 0.57622 0.34371 0.0
C842 C 0.66983 0.62761 0.28989 0.0
C843 C 0.63681 0.59373 0.253 0.0
N844 N 0.67191 0.59167 0.32608 0.0
N845 N 0.63643 0.57836 0.27132 0.0
H846 H 0.51354 0.0288 0.39911 0.0
H847 H 0.44939 0.86934 0.32977 0.0
H848 H 0.42802 0.9388 0.41645 0.0
H849 H 0.53095 0.96121 0.3111 0.0
H850 H 0.44428 0.89288 0.36346 0.0
H851 H 0.52295 0.00309 0.36858 0.0
C852 C 0.49688 0.00351 0.39663 0.0
C853 C 0.47001 0.98589 0.41046 0.0
C854 C 0.46347 0.90782 0.35208 0.0
C855 C 0.48044 0.9563 0.37519 0.0
C856 C 0.46652 0.89438 0.3329 0.0
C857 C 0.49054 0.91342 0.31758 0.0
C858 C 0.48462 0.94053 0.35595 0.0
C859 C 0.51202 0.9457 0.32244 0.0
C860 C 0.50219 0.98887 0.37909 0.0
C861 C 0.44888 0.95333 0.40611 0.0
N862 N 0.50841 0.95827 0.34114 0.0
N863 N 0.45453 0.93957 0.38883 0.0
H864 H 0.58707 0.57694 0.54774 0.0
H865 H 0.57404 0.51259 0.42708 0.0
H866 H 0.49632 0.52398 0.5124 0.0
H867 H 0.6616 0.55456 0.46603 0.0
H868 H 0.54756 0.52625 0.45528 0.0
H869 H 0.61671 0.57945 0.51498 0.0
C870 C 0.57336 0.56655 0.53294 0.0
C871 C 0.53906 0.54998 0.53288 0.0
C872 C 0.57267 0.53277 0.45757 0.0
C873 C 0.57297 0.55198 0.49541 0.0
C874 C 0.58781 0.52497 0.44149 0.0
C875 C 0.6199 0.53205 0.44441 0.0
C876 C 0.58975 0.54771 0.4767 0.0
C877 C 0.6367 0.54836 0.46326 0.0
C878 C 0.59036 0.5677 0.51427 0.0
C879 C 0.52271 0.53653 0.51326 0.0
N880 N 0.6213 0.55538 0.47881 0.0
N881 N 0.5398 0.53748 0.49536 0.0
H882 H 0.05358 0.48436 0.69408 0.0
H883 H 0.19409 0.65377 0.64831 0.0
H884 H 0.11446 0.56602 0.73466 0.0
H885 H 0.13665 0.57089 0.60801 0.0
H886 H 0.16176 0.62333 0.67983 0.0
H887 H 0.08066 0.51685 0.662 0.0
C888 C 0.07255 0.50913 0.69625 0.0
C889 C 0.08172 0.52244 0.71712 0.0
C890 C 0.15609 0.61186 0.66407 0.0
C891 C 0.11278 0.55983 0.68048 0.0
C892 C 0.17451 0.62926 0.64608 0.0
C893 C 0.16816 0.61477 0.62556 0.0
C894 C 0.1312 0.57974 0.6615 0.0
C895 C 0.14248 0.58295 0.62357 0.0
C896 C 0.08792 0.52771 0.67793 0.0
C897 C 0.10622 0.5548 0.71891 0.0
N898 N 0.12506 0.56646 0.64132 0.0
N899 N 0.12097 0.5723 0.70087 0.0
H900 H 0.51594 0.10092 0.89599 0.0
H901 H 0.64732 0.19679 0.80562 0.0
H902 H 0.61926 0.14799 0.90994 0.0
H903 H 0.55605 0.19392 0.80802 0.0
H904 H 0.63627 0.17348 0.84208 0.0
H905 H 0.52888 0.13013 0.86204 0.0
C906 C 0.54135 0.11776 0.89222 0.0
C907 C 0.56652 0.12193 0.90611 0.0
C908 C 0.61881 0.17816 0.83463 0.0
C909 C 0.58135 0.15453 0.86661 0.0
C910 C 0.62497 0.19123 0.81383 0.0
C911 C 0.60247 0.19714 0.80385 0.0
C912 C 0.58965 0.17034 0.84522 0.0
C913 C 0.574 0.18972 0.81519 0.0
C914 C 0.54866 0.13423 0.87267 0.0
C915 C 0.59899 0.14344 0.89971 0.0
N916 N 0.5682 0.17635 0.83522 0.0
N917 N 0.60548 0.15867 0.88031 0.0
H918 H 0.57313 0.63611 0.05848 0.0
H919 H 0.54105 0.70563 0.95076 0.0
H920 H 0.61379 0.73649 0.04812 0.0
H921 H 0.49491 0.60547 0.96485 0.0
H922 H 0.57222 0.71792 0.98453 0.0
H923 H 0.54809 0.62503 0.02272 0.0
C924 C 0.5764 0.65584 0.04876 0.0
C925 C 0.59492 0.68724 0.05649 0.0
C926 C 0.55547 0.69326 0.98014 0.0
C927 C 0.56679 0.67473 0.01519 0.0
C928 C 0.53778 0.68622 0.96084 0.0
C929 C 0.51523 0.65447 0.9551 0.0
C930 C 0.55056 0.66835 0.99375 0.0
C931 C 0.51192 0.63026 0.96872 0.0
C932 C 0.56235 0.6495 0.02823 0.0
C933 C 0.59943 0.71193 0.04284 0.0
N934 N 0.52925 0.63772 0.98747 0.0
N935 N 0.58525 0.70513 0.02285 0.0
H936 H 0.90618 0.46115 0.23918 0.0
H937 H 0.9139 0.47717 0.11005 0.0
H938 H 0.96837 0.54958 0.20565 0.0
H939 H 0.82978 0.40167 0.14323 0.0
H940 H 0.93848 0.50057 0.14521 0.0
H941 H 0.88114 0.43585 0.20428 0.0
C942 C 0.91429 0.47524 0.22448 0.0
C943 C 0.93904 0.50753 0.22524 0.0
C944 C 0.91469 0.47881 0.14479 0.0
C945 C 0.91125 0.47876 0.18544 0.0
C946 C 0.90078 0.46531 0.12475 0.0
C947 C 0.86975 0.43749 0.12375 0.0
C948 C 0.89762 0.4642 0.16399 0.0
C949 C 0.85375 0.4232 0.1433 0.0
C950 C 0.90008 0.46085 0.20463 0.0
C951 C 0.94893 0.52477 0.20578 0.0
N952 N 0.86788 0.43672 0.16266 0.0
N953 N 0.93517 0.51011 0.18665 0.0
loop_
_geom_bond_atom_site_label_1
_geom_bond_atom_site_label_2
_geom_bond_distance
_geom_bond_site_symmetry_2
_ccdc_geom_bond_type
H0 O26 0.856 . S
H1 O29 0.854 . S
H2 C37 0.930 . S
H3 C38 0.930 . S
H4 C40 0.930 . S
H5 C41 0.930 . S
H6 C43 0.931 . S
H7 C44 0.930 . S
H8 C46 0.930 . S
H9 C47 0.929 . S
H10 C49 0.930 . S
H11 C50 0.931 . S
H12 C52 0.930 . S
H13 C53 0.929 . S
H14 C55 0.931 . S
H15 C56 0.930 . S
H16 C58 0.930 . S
H17 C59 0.932 . S
H18 C61 0.930 . S
H19 C62 0.929 . S
H20 C64 0.931 . S
H21 C65 0.930 . S
H22 C67 0.929 . S
H23 C68 0.931 . S
H24 C70 0.930 . S
H25 C71 0.929 1_455 S
O26 H0 0.856 . S
O26 C72 1.300 . S
O27 C72 1.209 . S
O28 C73 1.199 . S
O29 H1 0.854 . S
O29 C73 1.297 . S
C30 C31 1.404 . S
C30 C35 1.397 . S
C30 C36 1.492 . S
C31 C30 1.404 . S
C31 C32 1.396 . S
C31 C42 1.492 . S
C32 C31 1.396 . S
C32 C33 1.397 . S
C32 C48 1.509 . S
C33 C32 1.397 . S
C33 C34 1.412 . S
C33 C54 1.485 . S
C34 C33 1.412 . S
C34 C35 1.388 . S
C34 C60 1.490 . S
C35 C30 1.397 . S
C35 C34 1.388 . S
C35 C66 1.519 . S
C36 C30 1.492 . S
C36 C37 1.363 . S
C36 C41 1.390 1_455 S
C37 H2 0.930 . S
C37 C36 1.363 . S
C37 C38 1.372 1_455 S
C38 H3 0.930 . S
C38 C37 1.372 1_655 S
C38 C39 1.383 . S
C39 C38 1.383 . S
C39 C40 1.395 . S
C40 H4 0.930 . S
C40 C39 1.395 . S
C40 C41 1.362 . S
C41 H5 0.930 . S
C41 C36 1.390 1_655 S
C41 C40 1.362 . S
C42 C31 1.492 . S
C42 C43 1.377 . S
C42 C47 1.397 . S
C43 H6 0.931 . S
C43 C42 1.377 . S
C43 C44 1.376 . S
C44 H7 0.930 . S
C44 C43 1.376 . S
C44 C45 1.376 . S
C45 C44 1.376 . S
C45 C46 1.378 . S
C45 C72 1.486 . S
C46 H8 0.930 . S
C46 C45 1.378 . S
C46 C47 1.376 . S
C47 H9 0.929 . S
C47 C42 1.397 . S
C47 C46 1.376 . S
C48 C32 1.509 . S
C48 C49 1.391 . S
C48 C53 1.386 . S
C49 H10 0.930 . S
C49 C48 1.391 . S
C49 C50 1.375 . S
C50 H11 0.931 . S
C50 C49 1.375 . S
C50 C51 1.375 . S
C51 C50 1.375 . S
C51 C52 1.361 . S
C52 H12 0.930 . S
C52 C51 1.361 . S
C52 C53 1.399 . S
C53 H13 0.929 . S
C53 C48 1.386 . S
C53 C52 1.399 . S
C54 C33 1.485 . S
C54 C55 1.394 . S
C54 C59 1.360 . S
C55 H14 0.931 . S
C55 C54 1.394 . S
C55 C56 1.372 . S
C56 H15 0.930 . S
C56 C55 1.372 . S
C56 C57 1.397 . S
C57 C56 1.397 . S
C57 C58 1.390 . S
C57 C73 1.476 . S
C58 H16 0.930 . S
C58 C57 1.390 . S
C58 C59 1.366 . S
C59 H17 0.932 . S
C59 C54 1.360 . S
C59 C58 1.366 . S
C60 C34 1.490 . S
C60 C61 1.380 . S
C60 C65 1.386 . S
C61 H18 0.930 . S
C61 C60 1.380 . S
C61 C62 1.381 . S
C62 H19 0.929 . S
C62 C61 1.381 . S
C62 C63 1.371 . S
C63 C62 1.371 . S
C63 C64 1.380 . S
C64 H20 0.931 . S
C64 C63 1.380 . S
C64 C65 1.387 . S
C65 H21 0.930 . S
C65 C60 1.386 . S
C65 C64 1.387 . S
C66 C35 1.519 . S
C66 C67 1.377 1_455 S
C66 C71 1.361 1_455 S
C67 H22 0.929 . S
C67 C66 1.377 1_655 S
C67 C68 1.386 . S
C68 H23 0.931 . S
C68 C67 1.386 . S
C68 C69 1.363 . S
C69 C68 1.363 . S
C69 C70 1.385 . S
C70 H24 0.930 . S
C70 C69 1.385 . S
C70 C71 1.396 . S
C71 H25 0.929 1_655 S
C71 C66 1.361 1_655 S
C71 C70 1.396 . S
C72 O26 1.300 . S
C72 O27 1.209 . S
C72 C45 1.486 . S
C73 O28 1.199 . S
C73 O29 1.297 . S
C73 C57 1.476 . S
H74 O100 0.856 . S
H75 O103 0.854 . S
H76 C111 0.930 . S
H77 C112 0.930 . S
H78 C114 0.930 . S
H79 C115 0.930 . S
H80 C117 0.931 . S
H81 C118 0.930 . S
H82 C120 0.930 . S
H83 C121 0.929 . S
H84 C123 0.930 . S
H85 C124 0.931 . S
H86 C126 0.930 . S
H87 C127 0.929 . S
H88 C129 0.931 . S
H89 C130 0.930 . S
H90 C132 0.930 . S
H91 C133 0.932 . S
H92 C135 0.930 . S
H93 C136 0.929 . S
H94 C138 0.931 . S
H95 C139 0.930 . S
H96 C141 0.929 . S
H97 C142 0.931 . S
H98 C144 0.930 . S
H99 C145 0.929 . S
O100 H74 0.856 . S
O100 C146 1.300 . S
O101 C146 1.209 . S
O102 C147 1.199 . S
O103 H75 0.854 . S
O103 C147 1.297 . S
C104 C105 1.404 . S
C104 C109 1.397 . S
C104 C110 1.492 . S
C105 C104 1.404 . S
C105 C106 1.396 . S
C105 C116 1.492 . S
C106 C105 1.396 . S
C106 C107 1.397 . S
C106 C122 1.509 . S
C107 C106 1.397 . S
C107 C108 1.412 . S
C107 C128 1.485 . S
C108 C107 1.412 . S
C108 C109 1.388 . S
C108 C134 1.490 . S
C109 C104 1.397 . S
C109 C108 1.388 . S
C109 C140 1.519 . S
C110 C104 1.492 . S
C110 C111 1.363 . S
C110 C115 1.390 . S
C111 H76 0.930 . S
C111 C110 1.363 . S
C111 C112 1.372 . S
C112 H77 0.930 . S
C112 C111 1.372 . S
C112 C113 1.383 1_545 S
C113 C112 1.383 1_565 S
C113 C114 1.395 . S
C114 H78 0.930 . S
C114 C113 1.395 . S
C114 C115 1.362 1_565 S
C115 H79 0.930 . S
C115 C110 1.390 . S
C115 C114 1.362 1_545 S
C116 C105 1.492 . S
C116 C117 1.377 . S
C116 C121 1.397 . S
C117 H80 0.931 . S
C117 C116 1.377 . S
C117 C118 1.376 . S
C118 H81 0.930 . S
C118 C117 1.376 . S
C118 C119 1.376 . S
C119 C118 1.376 . S
C119 C120 1.378 . S
C119 C146 1.486 . S
C120 H82 0.930 . S
C120 C119 1.378 . S
C120 C121 1.376 . S
C121 H83 0.929 . S
C121 C116 1.397 . S
C121 C120 1.376 . S
C122 C106 1.509 . S
C122 C123 1.391 . S
C122 C127 1.386 . S
C123 H84 0.930 . S
C123 C122 1.391 . S
C123 C124 1.375 . S
C124 H85 0.931 . S
C124 C123 1.375 . S
C124 C125 1.375 . S
C125 C124 1.375 . S
C125 C126 1.361 . S
C126 H86 0.930 . S
C126 C125 1.361 . S
C126 C127 1.399 . S
C127 H87 0.929 . S
C127 C122 1.386 . S
C127 C126 1.399 . S
C128 C107 1.485 . S
C128 C129 1.394 . S
C128 C133 1.360 . S
C129 H88 0.931 . S
C129 C128 1.394 . S
C129 C130 1.372 . S
C130 H89 0.930 . S
C130 C129 1.372 . S
C130 C131 1.397 . S
C131 C130 1.397 . S
C131 C132 1.390 . S
C131 C147 1.476 . S
C132 H90 0.930 . S
C132 C131 1.390 . S
C132 C133 1.366 . S
C133 H91 0.932 . S
C133 C128 1.360 . S
C133 C132 1.366 . S
C134 C108 1.490 . S
C134 C135 1.380 . S
C134 C139 1.386 . S
C135 H92 0.930 . S
C135 C134 1.380 . S
C135 C136 1.381 . S
C136 H93 0.929 . S
C136 C135 1.381 . S
C136 C137 1.371 . S
C137 C136 1.371 . S
C137 C138 1.380 . S
C138 H94 0.931 . S
C138 C137 1.380 . S
C138 C139 1.387 . S
C139 H95 0.930 . S
C139 C134 1.386 . S
C139 C138 1.387 . S
C140 C109 1.519 . S
C140 C141 1.377 . S
C140 C145 1.361 . S
C141 H96 0.929 . S
C141 C140 1.377 . S
C141 C142 1.386 1_545 S
C142 H97 0.931 . S
C142 C141 1.386 1_565 S
C142 C143 1.363 . S
C143 C142 1.363 . S
C143 C144 1.385 . S
C144 H98 0.930 . S
C144 C143 1.385 . S
C144 C145 1.396 1_565 S
C145 H99 0.929 . S
C145 C140 1.361 . S
C145 C144 1.396 1_545 S
C146 O100 1.300 . S
C146 O101 1.209 . S
C146 C119 1.486 . S
C147 O102 1.199 . S
C147 O103 1.297 . S
C147 C131 1.476 . S
H148 O174 0.856 . S
H149 O177 0.854 . S
H150 C185 0.930 . S
H151 C186 0.930 . S
H152 C188 0.930 . S
H153 C189 0.930 . S
H154 C191 0.931 . S
H155 C192 0.930 . S
H156 C194 0.930 . S
H157 C195 0.929 . S
H158 C197 0.930 . S
H159 C198 0.931 . S
H160 C200 0.930 . S
H161 C201 0.929 . S
H162 C203 0.931 . S
H163 C204 0.930 . S
H164 C206 0.930 . S
H165 C207 0.932 . S
H166 C209 0.930 . S
H167 C210 0.929 . S
H168 C212 0.931 . S
H169 C213 0.930 . S
H170 C215 0.929 . S
H171 C216 0.931 . S
H172 C218 0.930 . S
H173 C219 0.929 . S
O174 H148 0.856 . S
O174 C220 1.300 . S
O175 C220 1.209 . S
O176 C221 1.199 . S
O177 H149 0.854 . S
O177 C221 1.297 . S
C178 C179 1.404 . S
C178 C183 1.397 . S
C178 C184 1.492 . S
C179 C178 1.404 . S
C179 C180 1.396 . S
C179 C190 1.492 . S
C180 C179 1.396 . S
C180 C181 1.397 . S
C180 C196 1.509 . S
C181 C180 1.397 . S
C181 C182 1.412 . S
C181 C202 1.485 . S
C182 C181 1.412 . S
C182 C183 1.388 . S
C182 C208 1.490 . S
C183 C178 1.397 . S
C183 C182 1.388 . S
C183 C214 1.519 . S
C184 C178 1.492 . S
C184 C185 1.363 . S
C184 C189 1.390 . S
C185 H150 0.930 . S
C185 C184 1.363 . S
C185 C186 1.372 . S
C186 H151 0.930 . S
C186 C185 1.372 . S
C186 C187 1.383 . S
C187 C186 1.383 . S
C187 C188 1.395 . S
C188 H152 0.930 . S
C188 C187 1.395 . S
C188 C189 1.362 . S
C189 H153 0.930 . S
C189 C184 1.390 . S
C189 C188 1.362 . S
C190 C179 1.492 . S
C190 C191 1.377 . S
C190 C195 1.397 . S
C191 H154 0.931 . S
C191 C190 1.377 . S
C191 C192 1.376 . S
C192 H155 0.930 . S
C192 C191 1.376 . S
C192 C193 1.376 . S
C193 C192 1.376 . S
C193 C194 1.378 . S
C193 C220 1.486 . S
C194 H156 0.930 . S
C194 C193 1.378 . S
C194 C195 1.376 . S
C195 H157 0.929 . S
C195 C190 1.397 . S
C195 C194 1.376 . S
C196 C180 1.509 . S
C196 C197 1.391 . S
C196 C201 1.386 . S
C197 H158 0.930 . S
C197 C196 1.391 . S
C197 C198 1.375 . S
C198 H159 0.931 . S
C198 C197 1.375 . S
C198 C199 1.375 . S
C199 C198 1.375 . S
C199 C200 1.361 . S
C200 H160 0.930 . S
C200 C199 1.361 . S
C200 C201 1.399 . S
C201 H161 0.929 . S
C201 C196 1.386 . S
C201 C200 1.399 . S
C202 C181 1.485 . S
C202 C203 1.394 . S
C202 C207 1.360 . S
C203 H162 0.931 . S
C203 C202 1.394 . S
C203 C204 1.372 . S
C204 H163 0.930 . S
C204 C203 1.372 . S
C204 C205 1.397 . S
C205 C204 1.397 . S
C205 C206 1.390 . S
C205 C221 1.476 . S
C206 H164 0.930 . S
C206 C205 1.390 . S
C206 C207 1.366 . S
C207 H165 0.932 . S
C207 C202 1.360 . S
C207 C206 1.366 . S
C208 C182 1.490 . S
C208 C209 1.380 . S
C208 C213 1.386 . S
C209 H166 0.930 . S
C209 C208 1.380 . S
C209 C210 1.381 . S
C210 H167 0.929 . S
C210 C209 1.381 . S
C210 C211 1.371 . S
C211 C210 1.371 . S
C211 C212 1.380 . S
C212 H168 0.931 . S
C212 C211 1.380 . S
C212 C213 1.387 . S
C213 H169 0.930 . S
C213 C208 1.386 . S
C213 C212 1.387 . S
C214 C183 1.519 . S
C214 C215 1.377 . S
C214 C219 1.361 . S
C215 H170 0.929 . S
C215 C214 1.377 . S
C215 C216 1.386 . S
C216 H171 0.931 . S
C216 C215 1.386 . S
C216 C217 1.363 . S
C217 C216 1.363 . S
C217 C218 1.385 . S
C218 H172 0.930 . S
C218 C217 1.385 . S
C218 C219 1.396 . S
C219 H173 0.929 . S
C219 C214 1.361 . S
C219 C218 1.396 . S
C220 O174 1.300 . S
C220 O175 1.209 . S
C220 C193 1.486 . S
C221 O176 1.199 . S
C221 O177 1.297 . S
C221 C205 1.476 . S
H222 O248 0.856 . S
H223 O251 0.854 . S
H224 C259 0.929 1_455 S
H225 C260 0.930 . S
H226 C262 0.930 . S
H227 C263 0.930 . S
H228 C265 0.931 . S
H229 C266 0.930 . S
H230 C268 0.930 . S
H231 C269 0.929 . S
H232 C271 0.930 . S
H233 C272 0.931 . S
H234 C274 0.930 . S
H235 C275 0.929 . S
H236 C277 0.931 . S
H237 C278 0.930 . S
H238 C280 0.930 . S
H239 C281 0.932 . S
H240 C283 0.930 . S
H241 C284 0.929 . S
H242 C286 0.931 . S
H243 C287 0.930 . S
H244 C289 0.929 . S
H245 C290 0.931 . S
H246 C292 0.930 . S
H247 C293 0.929 . S
O248 H222 0.856 . S
O248 C294 1.300 . S
O249 C294 1.209 . S
O250 C295 1.199 . S
O251 H223 0.854 . S
O251 C295 1.297 . S
C252 C253 1.404 . S
C252 C257 1.397 . S
C252 C258 1.492 . S
C253 C252 1.404 . S
C253 C254 1.396 . S
C253 C264 1.492 . S
C254 C253 1.396 . S
C254 C255 1.397 . S
C254 C270 1.509 . S
C255 C254 1.397 . S
C255 C256 1.412 . S
C255 C276 1.485 . S
C256 C255 1.412 . S
C256 C257 1.388 . S
C256 C282 1.490 . S
C257 C252 1.397 . S
C257 C256 1.388 . S
C257 C288 1.519 1_455 S
C258 C252 1.492 . S
C258 C259 1.362 1_455 S
C258 C263 1.390 1_455 S
C259 H224 0.929 1_655 S
C259 C258 1.362 1_655 S
C259 C260 1.375 . S
C260 H225 0.930 . S
C260 C259 1.375 . S
C260 C261 1.383 . S
C261 C260 1.383 . S
C261 C262 1.395 . S
C262 H226 0.930 . S
C262 C261 1.395 . S
C262 C263 1.362 . S
C263 H227 0.930 . S
C263 C258 1.390 1_655 S
C263 C262 1.362 . S
C264 C253 1.492 . S
C264 C265 1.377 . S
C264 C269 1.397 . S
C265 H228 0.931 . S
C265 C264 1.377 . S
C265 C266 1.376 . S
C266 H229 0.930 . S
C266 C265 1.376 . S
C266 C267 1.376 . S
C267 C266 1.376 . S
C267 C268 1.378 . S
C267 C294 1.486 . S
C268 H230 0.930 . S
C268 C267 1.378 . S
C268 C269 1.376 . S
C269 H231 0.929 . S
C269 C264 1.397 . S
C269 C268 1.376 . S
C270 C254 1.509 . S
C270 C271 1.391 . S
C270 C275 1.386 . S
C271 H232 0.930 . S
C271 C270 1.391 . S
C271 C272 1.375 . S
C272 H233 0.931 . S
C272 C271 1.375 . S
C272 C273 1.375 . S
C273 C272 1.375 . S
C273 C274 1.361 . S
C274 H234 0.930 . S
C274 C273 1.361 . S
C274 C275 1.399 . S
C275 H235 0.929 . S
C275 C270 1.386 . S
C275 C274 1.399 . S
C276 C255 1.485 . S
C276 C277 1.394 . S
C276 C281 1.360 . S
C277 H236 0.931 . S
C277 C276 1.394 . S
C277 C278 1.372 . S
C278 H237 0.930 . S
C278 C277 1.372 . S
C278 C279 1.397 . S
C279 C278 1.397 . S
C279 C280 1.390 . S
C279 C295 1.476 . S
C280 H238 0.930 . S
C280 C279 1.390 . S
C280 C281 1.366 . S
C281 H239 0.932 . S
C281 C276 1.360 . S
C281 C280 1.366 . S
C282 C256 1.490 . S
C282 C283 1.380 . S
C282 C287 1.386 . S
C283 H240 0.930 . S
C283 C282 1.380 . S
C283 C284 1.381 . S
C284 H241 0.929 . S
C284 C283 1.381 . S
C284 C285 1.371 . S
C285 C284 1.371 . S
C285 C286 1.380 . S
C286 H242 0.931 . S
C286 C285 1.380 . S
C286 C287 1.387 . S
C287 H243 0.930 . S
C287 C282 1.386 . S
C287 C286 1.387 . S
C288 C257 1.519 1_655 S
C288 C289 1.377 . S
C288 C293 1.361 . S
C289 H244 0.929 . S
C289 C288 1.377 . S
C289 C290 1.386 . S
C290 H245 0.931 . S
C290 C289 1.386 . S
C290 C291 1.363 . S
C291 C290 1.363 . S
C291 C292 1.385 . S
C292 H246 0.930 . S
C292 C291 1.385 . S
C292 C293 1.396 . S
C293 H247 0.929 . S
C293 C288 1.361 . S
C293 C292 1.396 . S
C294 O248 1.300 . S
C294 O249 1.209 . S
C294 C267 1.486 . S
C295 O250 1.199 . S
C295 O251 1.297 . S
C295 C279 1.476 . S
H296 O322 0.856 . S
H297 O325 0.854 . S
H298 C333 0.930 . S
H299 C334 0.930 . S
H300 C336 0.930 . S
H301 C337 0.930 . S
H302 C339 0.931 . S
H303 C340 0.930 . S
H304 C342 0.930 . S
H305 C343 0.929 . S
H306 C345 0.930 . S
H307 C346 0.931 . S
H308 C348 0.930 . S
H309 C349 0.929 . S
H310 C351 0.931 . S
H311 C352 0.930 . S
H312 C354 0.930 . S
H313 C355 0.932 . S
H314 C357 0.930 . S
H315 C358 0.929 . S
H316 C360 0.931 . S
H317 C361 0.930 . S
H318 C363 0.942 . S
H319 C364 0.931 . S
H320 C366 0.930 . S
H321 C367 0.929 . S
O322 H296 0.856 . S
O322 C368 1.300 . S
O323 C368 1.209 1_545 S
O324 C369 1.199 . S
O325 H297 0.854 . S
O325 C369 1.297 . S
C326 C327 1.404 . S
C326 C331 1.397 . S
C326 C332 1.492 . S
C327 C326 1.404 . S
C327 C328 1.396 1_545 S
C327 C338 1.493 . S
C328 C327 1.396 1_565 S
C328 C329 1.397 . S
C328 C344 1.509 . S
C329 C328 1.397 . S
C329 C330 1.412 1_566 S
C329 C350 1.485 1_556 S
C330 C329 1.412 1_544 S
C330 C331 1.388 1_554 S
C330 C356 1.490 . S
C331 C326 1.397 . S
C331 C330 1.388 1_556 S
C331 C362 1.504 1_556 S
C332 C326 1.492 . S
C332 C333 1.363 . S
C332 C337 1.390 . S
C333 H298 0.930 . S
C333 C332 1.363 . S
C333 C334 1.372 . S
C334 H299 0.930 . S
C334 C333 1.372 . S
C334 C335 1.383 . S
C335 C334 1.383 . S
C335 C336 1.395 . S
C336 H300 0.930 . S
C336 C335 1.395 . S
C336 C337 1.362 . S
C337 H301 0.930 . S
C337 C332 1.390 . S
C337 C336 1.362 . S
C338 C327 1.493 . S
C338 C339 1.376 1_545 S
C338 C343 1.397 . S
C339 H302 0.931 . S
C339 C338 1.376 1_565 S
C339 C340 1.376 . S
C340 H303 0.930 . S
C340 C339 1.376 . S
C340 C341 1.376 . S
C341 C340 1.376 . S
C341 C342 1.378 1_565 S
C341 C368 1.486 . S
C342 H304 0.930 . S
C342 C341 1.378 1_545 S
C342 C343 1.376 . S
C343 H305 0.929 . S
C343 C338 1.397 . S
C343 C342 1.376 . S
C344 C328 1.509 . S
C344 C345 1.391 . S
C344 C349 1.386 . S
C345 H306 0.930 . S
C345 C344 1.391 . S
C345 C346 1.375 . S
C346 H307 0.931 . S
C346 C345 1.375 . S
C346 C347 1.375 . S
C347 C346 1.375 . S
C347 C348 1.361 . S
C348 H308 0.930 . S
C348 C347 1.361 . S
C348 C349 1.399 . S
C349 H309 0.929 . S
C349 C344 1.386 . S
C349 C348 1.399 . S
C350 C329 1.485 1_554 S
C350 C351 1.394 . S
C350 C355 1.360 . S
C351 H310 0.931 . S
C351 C350 1.394 . S
C351 C352 1.372 . S
C352 H311 0.930 . S
C352 C351 1.372 . S
C352 C353 1.397 . S
C353 C352 1.397 . S
C353 C354 1.390 . S
C353 C369 1.476 . S
C354 H312 0.930 . S
C354 C353 1.390 . S
C354 C355 1.366 . S
C355 H313 0.932 . S
C355 C350 1.360 . S
C355 C354 1.366 . S
C356 C330 1.490 . S
C356 C357 1.380 . S
C356 C361 1.386 . S
C357 H314 0.930 . S
C357 C356 1.380 . S
C357 C358 1.381 . S
C358 H315 0.929 . S
C358 C357 1.381 . S
C358 C359 1.371 . S
C359 C358 1.371 . S
C359 C360 1.380 . S
C360 H316 0.931 . S
C360 C359 1.380 . S
C360 C361 1.387 . S
C361 H317 0.930 . S
C361 C356 1.386 . S
C361 C360 1.387 . S
C362 C331 1.504 1_554 S
C362 C363 1.374 1_554 S
C362 C367 1.380 . S
C363 H318 0.942 . S
C363 C362 1.374 1_556 S
C363 C364 1.376 1_556 S
C364 H319 0.931 . S
C364 C363 1.376 1_554 S
C364 C365 1.363 . S
C365 C364 1.363 . S
C365 C366 1.385 . S
C366 H320 0.930 . S
C366 C365 1.385 . S
C366 C367 1.396 . S
C367 H321 0.929 . S
C367 C362 1.380 . S
C367 C366 1.396 . S
C368 O322 1.300 . S
C368 O323 1.209 1_565 S
C368 C341 1.486 . S
C369 O324 1.199 . S
C369 O325 1.297 . S
C369 C353 1.476 . S
H370 O396 0.856 . S
H371 O399 0.854 . S
H372 C407 0.930 . S
H373 C408 0.930 . S
H374 C410 0.930 . S
H375 C411 0.930 . S
H376 C413 0.931 . S
H377 C414 0.930 . S
H378 C416 0.930 . S
H379 C417 0.929 . S
H380 C419 0.930 . S
H381 C420 0.931 . S
H382 C422 0.930 . S
H383 C423 0.929 . S
H384 C425 0.931 . S
H385 C426 0.930 . S
H386 C428 0.930 . S
H387 C429 0.932 . S
H388 C431 0.930 . S
H389 C432 0.929 . S
H390 C434 0.931 . S
H391 C435 0.930 . S
H392 C437 0.929 . S
H393 C438 0.931 . S
H394 C440 0.930 . S
H395 C441 0.929 . S
O396 H370 0.856 . S
O396 C442 1.300 . S
O397 C442 1.209 . S
O398 C443 1.199 . S
O399 H371 0.854 . S
O399 C443 1.297 . S
C400 C401 1.404 . S
C400 C405 1.397 . S
C400 C406 1.492 . S
C401 C400 1.404 . S
C401 C402 1.396 . S
C401 C412 1.492 . S
C402 C401 1.396 . S
C402 C403 1.397 . S
C402 C418 1.509 . S
C403 C402 1.397 . S
C403 C404 1.412 . S
C403 C424 1.485 . S
C404 C403 1.412 . S
C404 C405 1.388 . S
C404 C430 1.490 . S
C405 C400 1.397 . S
C405 C404 1.388 . S
C405 C436 1.519 . S
C406 C400 1.492 . S
C406 C407 1.363 . S
C406 C411 1.390 . S
C407 H372 0.930 . S
C407 C406 1.363 . S
C407 C408 1.372 . S
C408 H373 0.930 . S
C408 C407 1.372 . S
C408 C409 1.383 . S
C409 C408 1.383 . S
C409 C410 1.395 . S
C410 H374 0.930 . S
C410 C409 1.395 . S
C410 C411 1.362 . S
C411 H375 0.930 . S
C411 C406 1.390 . S
C411 C410 1.362 . S
C412 C401 1.492 . S
C412 C413 1.377 . S
C412 C417 1.397 . S
C413 H376 0.931 . S
C413 C412 1.377 . S
C413 C414 1.376 . S
C414 H377 0.930 . S
C414 C413 1.376 . S
C414 C415 1.376 . S
C415 C414 1.376 . S
C415 C416 1.378 . S
C415 C442 1.486 . S
C416 H378 0.930 . S
C416 C415 1.378 . S
C416 C417 1.376 . S
C417 H379 0.929 . S
C417 C412 1.397 . S
C417 C416 1.376 . S
C418 C402 1.509 . S
C418 C419 1.391 . S
C418 C423 1.386 . S
C419 H380 0.930 . S
C419 C418 1.391 . S
C419 C420 1.375 . S
C420 H381 0.931 . S
C420 C419 1.375 . S
C420 C421 1.375 . S
C421 C420 1.375 . S
C421 C422 1.361 . S
C422 H382 0.930 . S
C422 C421 1.361 . S
C422 C423 1.399 . S
C423 H383 0.929 . S
C423 C418 1.386 . S
C423 C422 1.399 . S
C424 C403 1.485 . S
C424 C425 1.394 . S
C424 C429 1.360 . S
C425 H384 0.931 . S
C425 C424 1.394 . S
C425 C426 1.372 . S
C426 H385 0.930 . S
C426 C425 1.372 . S
C426 C427 1.397 . S
C427 C426 1.397 . S
C427 C428 1.390 . S
C427 C443 1.476 . S
C428 H386 0.930 . S
C428 C427 1.390 . S
C428 C429 1.366 . S
C429 H387 0.932 . S
C429 C424 1.360 . S
C429 C428 1.366 . S
C430 C404 1.490 . S
C430 C431 1.380 . S
C430 C435 1.386 . S
C431 H388 0.930 . S
C431 C430 1.380 . S
C431 C432 1.381 . S
C432 H389 0.929 . S
C432 C431 1.381 . S
C432 C433 1.371 . S
C433 C432 1.371 . S
C433 C434 1.380 . S
C434 H390 0.931 . S
C434 C433 1.380 . S
C434 C435 1.387 . S
C435 H391 0.930 . S
C435 C430 1.386 . S
C435 C434 1.387 . S
C436 C405 1.519 . S
C436 C437 1.377 . S
C436 C441 1.361 . S
C437 H392 0.929 . S
C437 C436 1.377 . S
C437 C438 1.386 . S
C438 H393 0.931 . S
C438 C437 1.386 . S
C438 C439 1.363 . S
C439 C438 1.363 . S
C439 C440 1.385 . S
C440 H394 0.930 . S
C440 C439 1.385 . S
C440 C441 1.396 . S
C441 H395 0.929 . S
C441 C436 1.361 . S
C441 C440 1.396 . S
C442 O396 1.300 . S
C442 O397 1.209 . S
C442 C415 1.486 . S
C443 O398 1.199 . S
C443 O399 1.297 . S
C443 C427 1.476 . S
In444 O445 2.294 . S
In444 O446 2.326 . S
In444 O450 2.266 . S
In444 O451 2.326 . S
In444 O452 2.266 . S
In444 O453 2.326 . S
In444 O455 2.294 . S
In444 O456 2.326 . S
O445 In444 2.294 . S
O445 C454 1.240 . S
O446 In444 2.326 . S
O446 C454 1.252 . S
C447 O450 1.252 . S
C447 O451 1.260 . S
C448 O455 1.240 . S
C448 O456 1.252 . S
C449 O452 1.252 . S
C449 O453 1.260 . S
O450 In444 2.266 . S
O450 C447 1.252 . S
O451 In444 2.326 . S
O451 C447 1.260 . S
O452 In444 2.266 . S
O452 C449 1.252 . S
O453 In444 2.326 . S
O453 C449 1.260 . S
C454 O445 1.240 . S
C454 O446 1.252 . S
O455 In444 2.294 . S
O455 C448 1.240 . S
O456 In444 2.326 . S
O456 C448 1.252 . S
In457 O458 2.294 . S
In457 O459 2.326 . S
In457 O463 2.266 . S
In457 O464 2.326 . S
In457 O465 2.266 . S
In457 O466 2.326 . S
In457 O468 2.294 . S
In457 O469 2.326 . S
O458 In457 2.294 . S
O458 C467 1.240 . S
O459 In457 2.326 . S
O459 C467 1.252 . S
C460 O463 1.252 . S
C460 O464 1.260 . S
C461 O468 1.240 . S
C461 O469 1.252 . S
C462 O465 1.252 . S
C462 O466 1.260 . S
O463 In457 2.266 . S
O463 C460 1.252 . S
O464 In457 2.326 . S
O464 C460 1.260 . S
O465 In457 2.266 . S
O465 C462 1.252 . S
O466 In457 2.326 . S
O466 C462 1.260 . S
C467 O458 1.240 . S
C467 O459 1.252 . S
O468 In457 2.294 . S
O468 C461 1.240 . S
O469 In457 2.326 . S
O469 C461 1.252 . S
In470 O471 2.294 . S
In470 O472 2.326 . S
In470 O476 2.266 . S
In470 O477 2.326 . S
In470 O478 2.266 . S
In470 O479 2.326 . S
In470 O481 2.294 . S
In470 O482 2.326 . S
O471 In470 2.294 . S
O471 C480 1.240 . S
O472 In470 2.326 . S
O472 C480 1.252 . S
C473 O476 1.252 . S
C473 O477 1.260 . S
C474 O481 1.240 . S
C474 O482 1.252 . S
C475 O478 1.252 . S
C475 O479 1.260 . S
O476 In470 2.266 . S
O476 C473 1.252 . S
O477 In470 2.326 . S
O477 C473 1.260 . S
O478 In470 2.266 . S
O478 C475 1.252 . S
O479 In470 2.326 . S
O479 C475 1.260 . S
C480 O471 1.240 . S
C480 O472 1.252 . S
O481 In470 2.294 . S
O481 C474 1.240 . S
O482 In470 2.326 . S
O482 C474 1.252 . S
In483 O484 2.294 . S
In483 O485 2.326 . S
In483 O489 2.266 . S
In483 O490 2.326 . S
In483 O491 2.266 . S
In483 O492 2.326 . S
In483 O494 2.294 . S
In483 O495 2.326 . S
O484 In483 2.294 . S
O484 C493 1.240 . S
O485 In483 2.326 . S
O485 C493 1.252 . S
C486 O489 1.252 . S
C486 O490 1.260 . S
C487 O494 1.240 . S
C487 O495 1.252 . S
C488 O491 1.252 . S
C488 O492 1.260 . S
O489 In483 2.266 . S
O489 C486 1.252 . S
O490 In483 2.326 . S
O490 C486 1.260 . S
O491 In483 2.266 . S
O491 C488 1.252 . S
O492 In483 2.326 . S
O492 C488 1.260 . S
C493 O484 1.240 . S
C493 O485 1.252 . S
O494 In483 2.294 . S
O494 C487 1.240 . S
O495 In483 2.326 . S
O495 C487 1.252 . S
In496 O497 2.294 . S
In496 O498 2.326 . S
In496 O502 2.266 . S
In496 O503 2.326 . S
In496 O504 2.266 . S
In496 O505 2.326 . S
In496 O507 2.294 . S
In496 O508 2.326 . S
O497 In496 2.294 . S
O497 C506 1.240 . S
O498 In496 2.326 . S
O498 C506 1.252 . S
C499 O502 1.252 . S
C499 O503 1.260 . S
C500 O507 1.240 . S
C500 O508 1.252 . S
C501 O504 1.252 . S
C501 O505 1.260 . S
O502 In496 2.266 . S
O502 C499 1.252 . S
O503 In496 2.326 . S
O503 C499 1.260 . S
O504 In496 2.266 . S
O504 C501 1.252 . S
O505 In496 2.326 . S
O505 C501 1.260 . S
C506 O497 1.240 . S
C506 O498 1.252 . S
O507 In496 2.294 . S
O507 C500 1.240 . S
O508 In496 2.326 . S
O508 C500 1.252 . S
In509 O510 2.294 . S
In509 O511 2.326 . S
In509 O515 2.266 . S
In509 O516 2.326 . S
In509 O517 2.266 . S
In509 O518 2.326 . S
In509 O520 2.294 . S
In509 O521 2.326 . S
O510 In509 2.294 . S
O510 C519 1.240 . S
O511 In509 2.326 . S
O511 C519 1.252 . S
C512 O515 1.252 . S
C512 O516 1.260 . S
C513 O520 1.240 . S
C513 O521 1.252 . S
C514 O517 1.252 . S
C514 O518 1.260 . S
O515 In509 2.266 . S
O515 C512 1.252 . S
O516 In509 2.326 . S
O516 C512 1.260 . S
O517 In509 2.266 . S
O517 C514 1.252 . S
O518 In509 2.326 . S
O518 C514 1.260 . S
C519 O510 1.240 . S
C519 O511 1.252 . S
O520 In509 2.294 . S
O520 C513 1.240 . S
O521 In509 2.326 . S
O521 C513 1.252 . S
H522 C528 0.930 . S
H523 C532 0.930 . S
H524 C537 0.929 . S
H525 C535 0.929 . S
H526 C530 0.929 . S
H527 C536 0.929 . S
C528 H522 0.930 . S
C528 C529 1.367 . S
C528 C536 1.378 . S
C529 C528 1.367 . S
C529 C537 1.433 . S
C530 H526 0.929 . S
C530 C532 1.378 . S
C530 C534 1.350 . S
C531 C534 1.463 . S
C531 C536 1.350 . S
C531 N539 1.427 . S
C532 H523 0.930 . S
C532 C530 1.378 . S
C532 C533 1.367 . S
C533 C532 1.367 . S
C533 C535 1.433 . S
C534 C530 1.350 . S
C534 C531 1.463 . S
C534 N538 1.427 . S
C535 H525 0.929 . S
C535 C533 1.433 . S
C535 N538 1.384 . S
C536 H527 0.929 . S
C536 C528 1.378 . S
C536 C531 1.350 . S
C537 H524 0.929 . S
C537 C529 1.433 . S
C537 N539 1.384 . S
N538 C534 1.427 . S
N538 C535 1.384 . S
N539 C531 1.427 . S
N539 C537 1.384 . S
H540 C546 0.930 . S
H541 C550 0.930 . S
H542 C555 0.929 . S
H543 C553 0.929 . S
H544 C548 0.929 . S
H545 C554 0.929 . S
C546 H540 0.930 . S
C546 C547 1.367 . S
C546 C554 1.378 . S
C547 C546 1.367 . S
C547 C555 1.433 . S
C548 H544 0.929 . S
C548 C550 1.378 . S
C548 C552 1.350 . S
C549 C552 1.463 . S
C549 C554 1.350 . S
C549 N557 1.427 . S
C550 H541 0.930 . S
C550 C548 1.378 . S
C550 C551 1.367 . S
C551 C550 1.367 . S
C551 C553 1.433 . S
C552 C548 1.350 . S
C552 C549 1.463 . S
C552 N556 1.427 . S
C553 H543 0.929 . S
C553 C551 1.433 . S
C553 N556 1.384 . S
C554 H545 0.929 . S
C554 C546 1.378 . S
C554 C549 1.350 . S
C555 H542 0.929 . S
C555 C547 1.433 . S
C555 N557 1.384 . S
N556 C552 1.427 . S
N556 C553 1.384 . S
N557 C549 1.427 . S
N557 C555 1.384 . S
H558 C564 0.930 . S
H559 C568 0.930 . S
H560 C573 0.929 . S
H561 C571 0.929 . S
H562 C566 0.929 . S
H563 C572 0.929 . S
C564 H558 0.930 . S
C564 C565 1.367 . S
C564 C572 1.378 . S
C565 C564 1.367 . S
C565 C573 1.433 . S
C566 H562 0.929 . S
C566 C568 1.378 . S
C566 C570 1.350 . S
C567 C570 1.463 . S
C567 C572 1.350 . S
C567 N575 1.427 . S
C568 H559 0.930 . S
C568 C566 1.378 . S
C568 C569 1.367 . S
C569 C568 1.367 . S
C569 C571 1.433 . S
C570 C566 1.350 . S
C570 C567 1.463 . S
C570 N574 1.427 . S
C571 H561 0.929 . S
C571 C569 1.433 . S
C571 N574 1.384 . S
C572 H563 0.929 . S
C572 C564 1.378 . S
C572 C567 1.350 . S
C573 H560 0.929 . S
C573 C565 1.433 . S
C573 N575 1.384 . S
N574 C570 1.427 . S
N574 C571 1.384 . S
N575 C567 1.427 . S
N575 C573 1.384 . S
H576 C582 0.930 . S
H577 C586 0.930 . S
H578 C591 0.929 . S
H579 C589 0.929 . S
H580 C584 0.929 . S
H581 C590 0.929 . S
C582 H576 0.930 . S
C582 C583 1.367 . S
C582 C590 1.378 . S
C583 C582 1.367 . S
C583 C591 1.433 . S
C584 H580 0.929 . S
C584 C586 1.378 . S
C584 C588 1.350 . S
C585 C588 1.463 . S
C585 C590 1.350 . S
C585 N593 1.427 . S
C586 H577 0.930 . S
C586 C584 1.378 . S
C586 C587 1.367 . S
C587 C586 1.367 . S
C587 C589 1.433 . S
C588 C584 1.350 . S
C588 C585 1.463 . S
C588 N592 1.427 . S
C589 H579 0.929 . S
C589 C587 1.433 . S
C589 N592 1.384 . S
C590 H581 0.929 . S
C590 C582 1.378 . S
C590 C585 1.350 . S
C591 H578 0.929 . S
C591 C583 1.433 . S
C591 N593 1.384 . S
N592 C588 1.427 . S
N592 C589 1.384 . S
N593 C585 1.427 . S
N593 C591 1.384 . S
H594 C600 0.930 . S
H595 C604 0.930 . S
H596 C609 0.929 . S
H597 C607 0.929 . S
H598 C602 0.929 . S
H599 C608 0.929 . S
C600 H594 0.930 . S
C600 C601 1.367 . S
C600 C608 1.378 . S
C601 C600 1.367 . S
C601 C609 1.433 . S
C602 H598 0.929 . S
C602 C604 1.378 . S
C602 C606 1.350 . S
C603 C606 1.463 . S
C603 C608 1.350 . S
C603 N611 1.427 . S
C604 H595 0.930 . S
C604 C602 1.378 . S
C604 C605 1.367 . S
C605 C604 1.367 . S
C605 C607 1.433 . S
C606 C602 1.350 . S
C606 C603 1.463 . S
C606 N610 1.427 . S
C607 H597 0.929 . S
C607 C605 1.433 . S
C607 N610 1.384 . S
C608 H599 0.929 . S
C608 C600 1.378 . S
C608 C603 1.350 . S
C609 H596 0.929 . S
C609 C601 1.433 . S
C609 N611 1.384 . S
N610 C606 1.427 . S
N610 C607 1.384 . S
N611 C603 1.427 . S
N611 C609 1.384 . S
H612 C618 0.930 . S
H613 C622 0.930 . S
H614 C627 0.929 . S
H615 C625 0.929 . S
H616 C620 0.929 . S
H617 C626 0.929 . S
C618 H612 0.930 . S
C618 C619 1.367 . S
C618 C626 1.378 . S
C619 C618 1.367 . S
C619 C627 1.433 . S
C620 H616 0.929 . S
C620 C622 1.378 . S
C620 C624 1.350 . S
C621 C624 1.463 . S
C621 C626 1.350 . S
C621 N629 1.427 . S
C622 H613 0.930 . S
C622 C620 1.378 . S
C622 C623 1.367 . S
C623 C622 1.367 . S
C623 C625 1.433 . S
C624 C620 1.350 . S
C624 C621 1.463 . S
C624 N628 1.427 . S
C625 H615 0.929 . S
C625 C623 1.433 . S
C625 N628 1.384 . S
C626 H617 0.929 . S
C626 C618 1.378 . S
C626 C621 1.350 . S
C627 H614 0.929 . S
C627 C619 1.433 . S
C627 N629 1.384 . S
N628 C624 1.427 . S
N628 C625 1.384 . S
N629 C621 1.427 . S
N629 C627 1.384 . S
H630 C636 0.930 . S
H631 C640 0.930 . S
H632 C645 0.929 . S
H633 C643 0.929 . S
H634 C638 0.929 . S
H635 C644 0.929 . S
C636 H630 0.930 . S
C636 C637 1.367 . S
C636 C644 1.378 . S
C637 C636 1.367 . S
C637 C645 1.433 . S
C638 H634 0.929 . S
C638 C640 1.378 . S
C638 C642 1.350 . S
C639 C642 1.463 . S
C639 C644 1.350 . S
C639 N647 1.427 . S
C640 H631 0.930 . S
C640 C638 1.378 . S
C640 C641 1.367 . S
C641 C640 1.367 . S
C641 C643 1.433 . S
C642 C638 1.350 . S
C642 C639 1.463 . S
C642 N646 1.427 . S
C643 H633 0.929 . S
C643 C641 1.433 . S
C643 N646 1.384 . S
C644 H635 0.929 . S
C644 C636 1.378 . S
C644 C639 1.350 . S
C645 H632 0.929 . S
C645 C637 1.433 . S
C645 N647 1.384 . S
N646 C642 1.427 . S
N646 C643 1.384 . S
N647 C639 1.427 . S
N647 C645 1.384 . S
H648 C654 0.930 . S
H649 C658 0.930 . S
H650 C663 0.929 . S
H651 C661 0.929 . S
H652 C656 0.929 . S
H653 C662 0.929 . S
C654 H648 0.930 . S
C654 C655 1.367 . S
C654 C662 1.378 . S
C655 C654 1.367 . S
C655 C663 1.433 . S
C656 H652 0.929 . S
C656 C658 1.378 . S
C656 C660 1.350 . S
C657 C660 1.463 . S
C657 C662 1.350 . S
C657 N665 1.427 . S
C658 H649 0.930 . S
C658 C656 1.378 . S
C658 C659 1.367 . S
C659 C658 1.367 . S
C659 C661 1.433 . S
C660 C656 1.350 . S
C660 C657 1.463 . S
C660 N664 1.427 . S
C661 H651 0.929 . S
C661 C659 1.433 . S
C661 N664 1.384 . S
C662 H653 0.929 . S
C662 C654 1.378 . S
C662 C657 1.350 . S
C663 H650 0.929 . S
C663 C655 1.433 . S
C663 N665 1.384 . S
N664 C660 1.427 . S
N664 C661 1.384 . S
N665 C657 1.427 . S
N665 C663 1.384 . S
H666 C672 0.930 . S
H667 C676 0.930 . S
H668 C681 0.929 . S
H669 C679 0.929 . S
H670 C674 0.929 . S
H671 C680 0.929 . S
C672 H666 0.930 . S
C672 C673 1.367 . S
C672 C680 1.378 . S
C673 C672 1.367 . S
C673 C681 1.433 . S
C674 H670 0.929 . S
C674 C676 1.378 . S
C674 C678 1.350 . S
C675 C678 1.463 . S
C675 C680 1.350 . S
C675 N683 1.427 . S
C676 H667 0.930 . S
C676 C674 1.378 . S
C676 C677 1.367 . S
C677 C676 1.367 . S
C677 C679 1.433 . S
C678 C674 1.350 . S
C678 C675 1.463 . S
C678 N682 1.427 . S
C679 H669 0.929 . S
C679 C677 1.433 . S
C679 N682 1.384 . S
C680 H671 0.929 . S
C680 C672 1.378 . S
C680 C675 1.350 . S
C681 H668 0.929 . S
C681 C673 1.433 . S
C681 N683 1.384 . S
N682 C678 1.427 . S
N682 C679 1.384 . S
N683 C675 1.427 . S
N683 C681 1.384 . S
H684 C690 0.930 . S
H685 C694 0.930 . S
H686 C699 0.929 . S
H687 C697 0.929 . S
H688 C692 0.929 . S
H689 C698 0.929 . S
C690 H684 0.930 . S
C690 C691 1.367 . S
C690 C698 1.378 . S
C691 C690 1.367 . S
C691 C699 1.433 . S
C692 H688 0.929 . S
C692 C694 1.378 . S
C692 C696 1.350 . S
C693 C696 1.463 . S
C693 C698 1.350 . S
C693 N701 1.427 . S
C694 H685 0.930 . S
C694 C692 1.378 . S
C694 C695 1.367 . S
C695 C694 1.367 . S
C695 C697 1.433 . S
C696 C692 1.350 . S
C696 C693 1.463 . S
C696 N700 1.427 . S
C697 H687 0.929 . S
C697 C695 1.433 . S
C697 N700 1.384 . S
C698 H689 0.929 . S
C698 C690 1.378 . S
C698 C693 1.350 . S
C699 H686 0.929 . S
C699 C691 1.433 . S
C699 N701 1.384 . S
N700 C696 1.427 . S
N700 C697 1.384 . S
N701 C693 1.427 . S
N701 C699 1.384 . S
H702 C708 0.930 . S
H703 C712 0.930 . S
H704 C717 0.929 . S
H705 C715 0.929 . S
H706 C710 0.929 . S
H707 C716 0.929 . S
C708 H702 0.930 . S
C708 C709 1.367 . S
C708 C716 1.378 . S
C709 C708 1.367 . S
C709 C717 1.433 . S
C710 H706 0.929 . S
C710 C712 1.378 . S
C710 C714 1.350 . S
C711 C714 1.463 . S
C711 C716 1.350 . S
C711 N719 1.427 . S
C712 H703 0.930 . S
C712 C710 1.378 . S
C712 C713 1.367 . S
C713 C712 1.367 . S
C713 C715 1.433 . S
C714 C710 1.350 . S
C714 C711 1.463 . S
C714 N718 1.427 . S
C715 H705 0.929 . S
C715 C713 1.433 . S
C715 N718 1.384 . S
C716 H707 0.929 . S
C716 C708 1.378 . S
C716 C711 1.350 . S
C717 H704 0.929 . S
C717 C709 1.433 . S
C717 N719 1.384 . S
N718 C714 1.427 . S
N718 C715 1.384 . S
N719 C711 1.427 . S
N719 C717 1.384 . S
H720 C726 0.930 . S
H721 C730 0.930 . S
H722 C735 0.929 . S
H723 C733 0.929 . S
H724 C728 0.929 . S
H725 C734 0.929 . S
C726 H720 0.930 . S
C726 C727 1.367 . S
C726 C734 1.378 . S
C727 C726 1.367 . S
C727 C735 1.433 . S
C728 H724 0.929 . S
C728 C730 1.378 . S
C728 C732 1.350 . S
C729 C732 1.463 . S
C729 C734 1.350 . S
C729 N737 1.427 . S
C730 H721 0.930 . S
C730 C728 1.378 . S
C730 C731 1.367 . S
C731 C730 1.367 . S
C731 C733 1.433 . S
C732 C728 1.350 . S
C732 C729 1.463 . S
C732 N736 1.427 . S
C733 H723 0.929 . S
C733 C731 1.433 . S
C733 N736 1.384 . S
C734 H725 0.929 . S
C734 C726 1.378 . S
C734 C729 1.350 . S
C735 H722 0.929 . S
C735 C727 1.433 . S
C735 N737 1.384 . S
N736 C732 1.427 . S
N736 C733 1.384 . S
N737 C729 1.427 . S
N737 C735 1.384 . S
H738 C744 0.930 . S
H739 C748 0.930 . S
H740 C753 0.929 . S
H741 C751 0.929 . S
H742 C746 0.929 . S
H743 C752 0.929 . S
C744 H738 0.930 . S
C744 C745 1.367 . S
C744 C752 1.378 . S
C745 C744 1.367 . S
C745 C753 1.433 . S
C746 H742 0.929 . S
C746 C748 1.378 . S
C746 C750 1.350 . S
C747 C750 1.463 . S
C747 C752 1.350 . S
C747 N755 1.427 . S
C748 H739 0.930 . S
C748 C746 1.378 . S
C748 C749 1.367 . S
C749 C748 1.367 . S
C749 C751 1.433 . S
C750 C746 1.350 . S
C750 C747 1.463 . S
C750 N754 1.427 . S
C751 H741 0.929 . S
C751 C749 1.433 . S
C751 N754 1.384 . S
C752 H743 0.929 . S
C752 C744 1.378 . S
C752 C747 1.350 . S
C753 H740 0.929 . S
C753 C745 1.433 . S
C753 N755 1.384 . S
N754 C750 1.427 . S
N754 C751 1.384 . S
N755 C747 1.427 . S
N755 C753 1.384 . S
H756 C762 0.930 . S
H757 C766 0.930 . S
H758 C771 0.929 . S
H759 C769 0.929 . S
H760 C764 0.929 . S
H761 C770 0.929 . S
C762 H756 0.930 . S
C762 C763 1.367 . S
C762 C770 1.378 . S
C763 C762 1.367 . S
C763 C771 1.433 . S
C764 H760 0.929 . S
C764 C766 1.378 . S
C764 C768 1.350 . S
C765 C768 1.463 . S
C765 C770 1.350 . S
C765 N773 1.427 . S
C766 H757 0.930 . S
C766 C764 1.378 . S
C766 C767 1.367 . S
C767 C766 1.367 . S
C767 C769 1.433 . S
C768 C764 1.350 . S
C768 C765 1.463 . S
C768 N772 1.427 . S
C769 H759 0.929 . S
C769 C767 1.433 . S
C769 N772 1.384 . S
C770 H761 0.929 . S
C770 C762 1.378 . S
C770 C765 1.350 . S
C771 H758 0.929 . S
C771 C763 1.433 . S
C771 N773 1.384 . S
N772 C768 1.427 . S
N772 C769 1.384 . S
N773 C765 1.427 . S
N773 C771 1.384 . S
H774 C780 0.930 . S
H775 C784 0.930 . S
H776 C789 0.929 . S
H777 C787 0.929 . S
H778 C782 0.929 . S
H779 C788 0.929 . S
C780 H774 0.930 . S
C780 C781 1.367 . S
C780 C788 1.378 . S
C781 C780 1.367 . S
C781 C789 1.433 . S
C782 H778 0.929 . S
C782 C784 1.378 . S
C782 C786 1.350 . S
C783 C786 1.463 . S
C783 C788 1.350 . S
C783 N791 1.427 . S
C784 H775 0.930 . S
C784 C782 1.378 . S
C784 C785 1.367 . S
C785 C784 1.367 . S
C785 C787 1.433 . S
C786 C782 1.350 . S
C786 C783 1.463 . S
C786 N790 1.427 . S
C787 H777 0.929 . S
C787 C785 1.433 . S
C787 N790 1.384 . S
C788 H779 0.929 . S
C788 C780 1.378 . S
C788 C783 1.350 . S
C789 H776 0.929 . S
C789 C781 1.433 . S
C789 N791 1.384 . S
N790 C786 1.427 . S
N790 C787 1.384 . S
N791 C783 1.427 . S
N791 C789 1.384 . S
H792 C798 0.930 . S
H793 C802 0.930 . S
H794 C807 0.929 . S
H795 C805 0.943 . S
H796 C800 0.929 . S
H797 C806 0.929 . S
C798 H792 0.930 . S
C798 C799 1.367 . S
C798 C806 1.378 . S
C799 C798 1.367 . S
C799 C807 1.433 . S
C800 H796 0.929 . S
C800 C802 1.378 1_556 S
C800 C804 1.350 . S
C801 C804 1.463 . S
C801 C806 1.350 . S
C801 N809 1.427 . S
C802 H793 0.930 . S
C802 C800 1.378 1_554 S
C802 C803 1.367 . S
C803 C802 1.367 . S
C803 C805 1.447 . S
C804 C800 1.350 . S
C804 C801 1.463 . S
C804 N808 1.427 . S
C805 H795 0.943 . S
C805 C803 1.447 . S
C805 N808 1.355 1_554 S
C806 H797 0.929 . S
C806 C798 1.378 . S
C806 C801 1.350 . S
C807 H794 0.929 . S
C807 C799 1.433 . S
C807 N809 1.384 . S
N808 C804 1.427 . S
N808 C805 1.355 1_556 S
N809 C801 1.427 . S
N809 C807 1.384 . S
H810 C816 0.930 . S
H811 C820 0.930 . S
H812 C825 0.929 . S
H813 C823 0.929 . S
H814 C818 0.929 1_545 S
H815 C824 0.929 . S
C816 H810 0.930 . S
C816 C817 1.367 1_565 S
C816 C824 1.378 . S
C817 C816 1.367 1_545 S
C817 C825 1.433 . S
C818 H814 0.929 1_565 S
C818 C820 1.378 . S
C818 C822 1.350 . S
C819 C822 1.463 . S
C819 C824 1.350 . S
C819 N827 1.427 1_565 S
C820 H811 0.930 . S
C820 C818 1.378 . S
C820 C821 1.367 . S
C821 C820 1.367 . S
C821 C823 1.433 . S
C822 C818 1.350 . S
C822 C819 1.463 . S
C822 N826 1.427 . S
C823 H813 0.929 . S
C823 C821 1.433 . S
C823 N826 1.384 . S
C824 H815 0.929 . S
C824 C816 1.378 . S
C824 C819 1.350 . S
C825 H812 0.929 . S
C825 C817 1.433 . S
C825 N827 1.384 . S
N826 C822 1.427 . S
N826 C823 1.384 . S
N827 C819 1.427 1_545 S
N827 C825 1.384 . S
H828 C834 0.930 . S
H829 C838 0.930 . S
H830 C843 0.929 . S
H831 C841 0.929 . S
H832 C836 0.929 . S
H833 C842 0.929 . S
C834 H828 0.930 . S
C834 C835 1.367 . S
C834 C842 1.378 . S
C835 C834 1.367 . S
C835 C843 1.433 . S
C836 H832 0.929 . S
C836 C838 1.378 . S
C836 C840 1.350 . S
C837 C840 1.463 . S
C837 C842 1.350 . S
C837 N845 1.427 . S
C838 H829 0.930 . S
C838 C836 1.378 . S
C838 C839 1.367 . S
C839 C838 1.367 . S
C839 C841 1.433 . S
C840 C836 1.350 . S
C840 C837 1.463 . S
C840 N844 1.427 . S
C841 H831 0.929 . S
C841 C839 1.433 . S
C841 N844 1.384 . S
C842 H833 0.929 . S
C842 C834 1.378 . S
C842 C837 1.350 . S
C843 H830 0.929 . S
C843 C835 1.433 . S
C843 N845 1.384 . S
N844 C840 1.427 . S
N844 C841 1.384 . S
N845 C837 1.427 . S
N845 C843 1.384 . S
H846 C852 0.930 1_545 S
H847 C856 0.930 . S
H848 C861 0.929 . S
H849 C859 0.929 . S
H850 C854 0.929 . S
H851 C860 0.929 . S
C852 H846 0.930 1_565 S
C852 C853 1.367 . S
C852 C860 1.378 . S
C853 C852 1.367 . S
C853 C861 1.433 . S
C854 H850 0.929 . S
C854 C856 1.378 . S
C854 C858 1.350 . S
C855 C858 1.463 . S
C855 C860 1.350 . S
C855 N863 1.427 . S
C856 H847 0.930 . S
C856 C854 1.378 . S
C856 C857 1.367 . S
C857 C856 1.367 . S
C857 C859 1.433 . S
C858 C854 1.350 . S
C858 C855 1.463 . S
C858 N862 1.427 . S
C859 H849 0.929 . S
C859 C857 1.433 . S
C859 N862 1.384 . S
C860 H851 0.929 . S
C860 C852 1.378 . S
C860 C855 1.350 . S
C861 H848 0.929 . S
C861 C853 1.433 . S
C861 N863 1.384 . S
N862 C858 1.427 . S
N862 C859 1.384 . S
N863 C855 1.427 . S
N863 C861 1.384 . S
H864 C870 0.930 . S
H865 C874 0.930 . S
H866 C879 0.929 . S
H867 C877 0.929 . S
H868 C872 0.929 . S
H869 C878 0.929 . S
C870 H864 0.930 . S
C870 C871 1.367 . S
C870 C878 1.378 . S
C871 C870 1.367 . S
C871 C879 1.433 . S
C872 H868 0.929 . S
C872 C874 1.378 . S
C872 C876 1.350 . S
C873 C876 1.463 . S
C873 C878 1.350 . S
C873 N881 1.427 . S
C874 H865 0.930 . S
C874 C872 1.378 . S
C874 C875 1.367 . S
C875 C874 1.367 . S
C875 C877 1.433 . S
C876 C872 1.350 . S
C876 C873 1.463 . S
C876 N880 1.427 . S
C877 H867 0.929 . S
C877 C875 1.433 . S
C877 N880 1.384 . S
C878 H869 0.929 . S
C878 C870 1.378 . S
C878 C873 1.350 . S
C879 H866 0.929 . S
C879 C871 1.433 . S
C879 N881 1.384 . S
N880 C876 1.427 . S
N880 C877 1.384 . S
N881 C873 1.427 . S
N881 C879 1.384 . S
H882 C888 0.930 . S
H883 C892 0.930 . S
H884 C897 0.929 . S
H885 C895 0.929 . S
H886 C890 0.929 . S
H887 C896 0.929 . S
C888 H882 0.930 . S
C888 C889 1.367 . S
C888 C896 1.378 . S
C889 C888 1.367 . S
C889 C897 1.433 . S
C890 H886 0.929 . S
C890 C892 1.378 . S
C890 C894 1.350 . S
C891 C894 1.463 . S
C891 C896 1.350 . S
C891 N899 1.427 . S
C892 H883 0.930 . S
C892 C890 1.378 . S
C892 C893 1.367 . S
C893 C892 1.367 . S
C893 C895 1.433 . S
C894 C890 1.350 . S
C894 C891 1.463 . S
C894 N898 1.427 . S
C895 H885 0.929 . S
C895 C893 1.433 . S
C895 N898 1.384 . S
C896 H887 0.929 . S
C896 C888 1.378 . S
C896 C891 1.350 . S
C897 H884 0.929 . S
C897 C889 1.433 . S
C897 N899 1.384 . S
N898 C894 1.427 . S
N898 C895 1.384 . S
N899 C891 1.427 . S
N899 C897 1.384 . S
H900 C906 0.930 . S
H901 C910 0.930 . S
H902 C915 0.929 . S
H903 C913 0.929 . S
H904 C908 0.929 . S
H905 C914 0.929 . S
C906 H900 0.930 . S
C906 C907 1.367 . S
C906 C914 1.378 . S
C907 C906 1.367 . S
C907 C915 1.433 . S
C908 H904 0.929 . S
C908 C910 1.378 . S
C908 C912 1.350 . S
C909 C912 1.463 . S
C909 C914 1.350 . S
C909 N917 1.427 . S
C910 H901 0.930 . S
C910 C908 1.378 . S
C910 C911 1.367 . S
C911 C910 1.367 . S
C911 C913 1.433 . S
C912 C908 1.350 . S
C912 C909 1.463 . S
C912 N916 1.427 . S
C913 H903 0.929 . S
C913 C911 1.433 . S
C913 N916 1.384 . S
C914 H905 0.929 . S
C914 C906 1.378 . S
C914 C909 1.350 . S
C915 H902 0.929 . S
C915 C907 1.433 . S
C915 N917 1.384 . S
N916 C912 1.427 . S
N916 C913 1.384 . S
N917 C909 1.427 . S
N917 C915 1.384 . S
H918 C924 0.930 . S
H919 C928 0.930 . S
H920 C933 0.929 . S
H921 C931 0.929 . S
H922 C926 0.929 . S
H923 C932 0.929 . S
C924 H918 0.930 . S
C924 C925 1.367 . S
C924 C932 1.378 . S
C925 C924 1.367 . S
C925 C933 1.433 . S
C926 H922 0.929 . S
C926 C928 1.378 . S
C926 C930 1.350 1_556 S
C927 C930 1.463 . S
C927 C932 1.350 . S
C927 N935 1.427 . S
C928 H919 0.930 . S
C928 C926 1.378 . S
C928 C929 1.367 . S
C929 C928 1.367 . S
C929 C931 1.433 . S
C930 C926 1.350 1_554 S
C930 C927 1.463 . S
C930 N934 1.427 1_554 S
C931 H921 0.929 . S
C931 C929 1.433 . S
C931 N934 1.384 . S
C932 H923 0.929 . S
C932 C924 1.378 . S
C932 C927 1.350 . S
C933 H920 0.929 . S
C933 C925 1.433 . S
C933 N935 1.384 . S
N934 C930 1.427 1_556 S
N934 C931 1.384 . S
N935 C927 1.427 . S
N935 C933 1.384 . S
H936 C942 0.930 . S
H937 C946 0.930 . S
H938 C951 0.929 . S
H939 C949 0.929 . S
H940 C944 0.929 . S
H941 C950 0.929 . S
C942 H936 0.930 . S
C942 C943 1.367 . S
C942 C950 1.378 . S
C943 C942 1.367 . S
C943 C951 1.433 . S
C944 H940 0.929 . S
C944 C946 1.378 . S
C944 C948 1.350 . S
C945 C948 1.463 . S
C945 C950 1.350 . S
C945 N953 1.427 . S
C946 H937 0.930 . S
C946 C944 1.378 . S
C946 C947 1.367 . S
C947 C946 1.367 . S
C947 C949 1.433 . S
C948 C944 1.350 . S
C948 C945 1.463 . S
C948 N952 1.427 . S
C949 H939 0.929 . S
C949 C947 1.433 . S
C949 N952 1.384 . S
C950 H941 0.929 . S
C950 C942 1.378 . S
C950 C945 1.350 . S
C951 H938 0.929 . S
C951 C943 1.433 . S
C951 N953 1.384 . S
N952 C948 1.427 . S
N952 C949 1.384 . S
N953 C945 1.427 . S
N953 C951 1.384 . S
C533 C514 1.258 . S
C529 C51 1.247 . S
C547 C125 1.528 . S
C551 C449 1.529 . S
C565 C217 2.498 . S
C569 C467 2.510 . S
C583 C291 1.652 . S
C587 C480 1.654 . S
C605 C488 0.715 . S
C601 C347 0.720 . S
C619 C421 0.985 . S
C623 C500 0.990 . S
C637 C143 2.379 . S
C641 C462 2.379 . S
C655 C199 1.378 . S
C659 C475 1.381 . S
C673 C273 0.648 . S
C677 C493 0.643 . S
C695 C499 1.498 . S
C691 C365 1.492 . S
C713 C519 1.879 . S
C709 C439 1.881 . S
C731 C454 2.350 . S
C727 C69 2.336 . S
C745 C63 1.442 . S
C749 C460 1.531 . S
C763 C137 1.617 . S
C767 C473 1.705 . S
C785 C487 1.421 . S
C781 C187 1.382 . S
C799 C261 1.599 . S
C803 C501 1.647 . S
C821 C513 1.364 . S
C817 C359 1.277 . S
C839 C448 1.274 . S
C835 C433 1.221 . S
C857 C512 1.784 . S
C853 C113 1.744 . S
C871 C211 1.334 . S
C875 C447 1.387 . S
C893 C461 1.654 . S
C889 C285 1.569 . S
C907 C335 1.288 . S
C911 C474 1.325 . S
C925 C409 1.480 . S
C929 C486 1.530 . S
C943 C39 1.686 . S
C947 C506 1.716 . S
