# Generated by pormake.
# Topology ctn, (3,4)-cn, num edge types: 1
# Building blocks:
#     Node 0, Type 0, BuildingBlock: ESEHIV_clean_linker_0, # of connection points: 3
#     Node 1, Type 0, BuildingBlock: ESEHIV_clean_linker_0, # of connection points: 3
#     Node 2, Type 0, BuildingBlock: ESEHIV_clean_linker_0, # of connection points: 3
#     Node 3, Type 0, BuildingBlock: ESEHIV_clean_linker_0, # of connection points: 3
#     Node 4, Type 0, BuildingBlock: ESEHIV_clean_linker_0, # of connection points: 3
#     Node 5, Type 0, BuildingBlock: ESEHIV_clean_linker_0, # of connection points: 3
#     Node 6, Type 0, BuildingBlock: ESEHIV_clean_linker_0, # of connection points: 3
#     Node 7, Type 0, BuildingBlock: ESEHIV_clean_linker_0, # of connection points: 3
#     Node 8, Type 0, BuildingBlock: ESEHIV_clean_linker_0, # of connection points: 3
#     Node 9, Type 0, BuildingBlock: ESEHIV_clean_linker_0, # of connection points: 3
#     Node 10, Type 0, BuildingBlock: ESEHIV_clean_linker_0, # of connection points: 3
#     Node 11, Type 0, BuildingBlock: ESEHIV_clean_linker_0, # of connection points: 3
#     Node 12, Type 0, BuildingBlock: ESEHIV_clean_linker_0, # of connection points: 3
#     Node 13, Type 0, BuildingBlock: ESEHIV_clean_linker_0, # of connection points: 3
#     Node 14, Type 0, BuildingBlock: ESEHIV_clean_linker_0, # of connection points: 3
#     Node 15, Type 0, BuildingBlock: ESEHIV_clean_linker_0, # of connection points: 3
#     Node 16, Type 1, BuildingBlock: KUFVIS_clean_sbu_0, # of connection points: 4
#     Node 17, Type 1, BuildingBlock: KUFVIS_clean_sbu_0, # of connection points: 4
#     Node 18, Type 1, BuildingBlock: KUFVIS_clean_sbu_0, # of connection points: 4
#     Node 19, Type 1, BuildingBlock: KUFVIS_clean_sbu_0, # of connection points: 4
#     Node 20, Type 1, BuildingBlock: KUFVIS_clean_sbu_0, # of connection points: 4
#     Node 21, Type 1, BuildingBlock: KUFVIS_clean_sbu_0, # of connection points: 4
#     Node 22, Type 1, BuildingBlock: KUFVIS_clean_sbu_0, # of connection points: 4
#     Node 23, Type 1, BuildingBlock: KUFVIS_clean_sbu_0, # of connection points: 4
#     Node 24, Type 1, BuildingBlock: KUFVIS_clean_sbu_0, # of connection points: 4
#     Node 25, Type 1, BuildingBlock: KUFVIS_clean_sbu_0, # of connection points: 4
#     Node 26, Type 1, BuildingBlock: KUFVIS_clean_sbu_0, # of connection points: 4
#     Node 27, Type 1, BuildingBlock: KUFVIS_clean_sbu_0, # of connection points: 4
#     Edge 28, Type (0, 1), BuildingBlock: KIFKEQ_clean_linker_1, # of connection points: 2
#     Edge 29, Type (0, 1), BuildingBlock: KIFKEQ_clean_linker_1, # of connection points: 2
#     Edge 30, Type (0, 1), BuildingBlock: KIFKEQ_clean_linker_1, # of connection points: 2
#     Edge 31, Type (0, 1), BuildingBlock: KIFKEQ_clean_linker_1, # of connection points: 2
#     Edge 32, Type (0, 1), BuildingBlock: KIFKEQ_clean_linker_1, # of connection points: 2
#     Edge 33, Type (0, 1), BuildingBlock: KIFKEQ_clean_linker_1, # of connection points: 2
#     Edge 34, Type (0, 1), BuildingBlock: KIFKEQ_clean_linker_1, # of connection points: 2
#     Edge 35, Type (0, 1), BuildingBlock: KIFKEQ_clean_linker_1, # of connection points: 2
#     Edge 36, Type (0, 1), BuildingBlock: KIFKEQ_clean_linker_1, # of connection points: 2
#     Edge 37, Type (0, 1), BuildingBlock: KIFKEQ_clean_linker_1, # of connection points: 2
#     Edge 38, Type (0, 1), BuildingBlock: KIFKEQ_clean_linker_1, # of connection points: 2
#     Edge 39, Type (0, 1), BuildingBlock: KIFKEQ_clean_linker_1, # of connection points: 2
#     Edge 40, Type (0, 1), BuildingBlock: KIFKEQ_clean_linker_1, # of connection points: 2
#     Edge 41, Type (0, 1), BuildingBlock: KIFKEQ_clean_linker_1, # of connection points: 2
#     Edge 42, Type (0, 1), BuildingBlock: KIFKEQ_clean_linker_1, # of connection points: 2
#     Edge 43, Type (0, 1), BuildingBlock: KIFKEQ_clean_linker_1, # of connection points: 2
#     Edge 44, Type (0, 1), BuildingBlock: KIFKEQ_clean_linker_1, # of connection points: 2
#     Edge 45, Type (0, 1), BuildingBlock: KIFKEQ_clean_linker_1, # of connection points: 2
#     Edge 46, Type (0, 1), BuildingBlock: KIFKEQ_clean_linker_1, # of connection points: 2
#     Edge 47, Type (0, 1), BuildingBlock: KIFKEQ_clean_linker_1, # of connection points: 2
#     Edge 48, Type (0, 1), BuildingBlock: KIFKEQ_clean_linker_1, # of connection points: 2
#     Edge 49, Type (0, 1), BuildingBlock: KIFKEQ_clean_linker_1, # of connection points: 2
#     Edge 50, Type (0, 1), BuildingBlock: KIFKEQ_clean_linker_1, # of connection points: 2
#     Edge 51, Type (0, 1), BuildingBlock: KIFKEQ_clean_linker_1, # of connection points: 2
#     Edge 52, Type (0, 1), BuildingBlock: KIFKEQ_clean_linker_1, # of connection points: 2
#     Edge 53, Type (0, 1), BuildingBlock: KIFKEQ_clean_linker_1, # of connection points: 2
#     Edge 54, Type (0, 1), BuildingBlock: KIFKEQ_clean_linker_1, # of connection points: 2
#     Edge 55, Type (0, 1), BuildingBlock: KIFKEQ_clean_linker_1, # of connection points: 2
#     Edge 56, Type (0, 1), BuildingBlock: KIFKEQ_clean_linker_1, # of connection points: 2
#     Edge 57, Type (0, 1), BuildingBlock: KIFKEQ_clean_linker_1, # of connection points: 2
#     Edge 58, Type (0, 1), BuildingBlock: KIFKEQ_clean_linker_1, # of connection points: 2
#     Edge 59, Type (0, 1), BuildingBlock: KIFKEQ_clean_linker_1, # of connection points: 2
#     Edge 60, Type (0, 1), BuildingBlock: KIFKEQ_clean_linker_1, # of connection points: 2
#     Edge 61, Type (0, 1), BuildingBlock: KIFKEQ_clean_linker_1, # of connection points: 2
#     Edge 62, Type (0, 1), BuildingBlock: KIFKEQ_clean_linker_1, # of connection points: 2
#     Edge 63, Type (0, 1), BuildingBlock: KIFKEQ_clean_linker_1, # of connection points: 2
#     Edge 64, Type (0, 1), BuildingBlock: KIFKEQ_clean_linker_1, # of connection points: 2
#     Edge 65, Type (0, 1), BuildingBlock: KIFKEQ_clean_linker_1, # of connection points: 2
#     Edge 66, Type (0, 1), BuildingBlock: KIFKEQ_clean_linker_1, # of connection points: 2
#     Edge 67, Type (0, 1), BuildingBlock: KIFKEQ_clean_linker_1, # of connection points: 2
#     Edge 68, Type (0, 1), BuildingBlock: KIFKEQ_clean_linker_1, # of connection points: 2
#     Edge 69, Type (0, 1), BuildingBlock: KIFKEQ_clean_linker_1, # of connection points: 2
#     Edge 70, Type (0, 1), BuildingBlock: KIFKEQ_clean_linker_1, # of connection points: 2
#     Edge 71, Type (0, 1), BuildingBlock: KIFKEQ_clean_linker_1, # of connection points: 2
#     Edge 72, Type (0, 1), BuildingBlock: KIFKEQ_clean_linker_1, # of connection points: 2
#     Edge 73, Type (0, 1), BuildingBlock: KIFKEQ_clean_linker_1, # of connection points: 2
#     Edge 74, Type (0, 1), BuildingBlock: KIFKEQ_clean_linker_1, # of connection points: 2
#     Edge 75, Type (0, 1), BuildingBlock: KIFKEQ_clean_linker_1, # of connection points: 2
# Relax obj value: 0.012
# Max RMSD: 0.062
# Mean RMSD: 0.030
data_MOF--net-ctn--node1-KUFVIS_clean_sbu_0--node2-ESEHIV_clean_linker_0--edge1-KIFKEQ_clean_linker_1
_symmetry_space_group_name_H-M    P1
_symmetry_Int_Tables_number       1
_symmetry_cell_setting            triclinic
loop_
_symmetry_equiv_pos_as_xyz
'x, y, z'
_cell_length_a     51.747279
_cell_length_b     51.577758
_cell_length_c     51.85111
_cell_angle_alpha  90.837297
_cell_angle_beta   90.378416
_cell_angle_gamma 91.567464
loop_
_atom_site_label
_atom_site_type_symbol
_atom_site_fract_x
_atom_site_fract_y
_atom_site_fract_z
_atom_type_partial_charge
H0 H 0.01124 0.07625 0.06238 0.0
H1 H 0.05769 0.00991 0.07519 0.0
H2 H 0.07776 0.06364 0.01529 0.0
C3 C 0.02774 0.06477 0.05742 0.0
C4 C 0.04326 0.07205 0.0364 0.0
C5 C 0.03323 0.04276 0.07202 0.0
C6 C 0.05437 0.02764 0.06493 0.0
C7 C 0.07066 0.03474 0.04437 0.0
C8 C 0.065 0.05726 0.03052 0.0
H9 H 0.3319 0.66821 0.2291 0.0
H10 H 0.3539 0.74151 0.196 0.0
H11 H 0.28922 0.69741 0.16487 0.0
C12 C 0.32904 0.68302 0.21492 0.0
C13 C 0.30819 0.68022 0.19742 0.0
C14 C 0.34592 0.70493 0.21465 0.0
C15 C 0.34158 0.72422 0.19625 0.0
C16 C 0.32136 0.72155 0.17809 0.0
C17 C 0.3049 0.69942 0.17875 0.0
H18 H 0.96222 0.51488 0.07563 0.0
H19 H 0.01342 0.4546 0.05238 0.0
H20 H 0.94345 0.46692 0.0096 0.0
C21 C 0.96715 0.49919 0.06266 0.0
C22 C 0.95084 0.49334 0.04142 0.0
C23 C 0.98967 0.48511 0.06721 0.0
C24 C 0.9956 0.46481 0.04994 0.0
C25 C 0.97904 0.45779 0.02918 0.0
C26 C 0.95674 0.47234 0.0251 0.0
H27 H 0.67144 0.78461 0.1977 0.0
H28 H 0.73406 0.83053 0.16655 0.0
H29 H 0.69971 0.85248 0.23878 0.0
C30 C 0.68457 0.80131 0.19896 0.0
C31 C 0.68274 0.81877 0.21991 0.0
C32 C 0.7034 0.80514 0.17983 0.0
C33 C 0.72025 0.82698 0.18177 0.0
C34 C 0.71926 0.84433 0.20294 0.0
C35 C 0.70033 0.83994 0.22188 0.0
H36 H 1.00278 0.94867 0.47326 0.0
H37 H 0.0576 0.00926 0.45286 0.0
H38 H 0.06918 0.966 0.52179 0.0
C39 C 0.02022 0.9601 0.47746 0.0
C40 C 0.03486 0.95488 0.49974 0.0
C41 C 0.02818 0.97975 0.46036 0.0
C42 C 0.05117 0.99408 0.46576 0.0
C43 C 0.06571 0.98935 0.48803 0.0
C44 C 0.05743 0.96995 0.50498 0.0
H45 H 0.16705 0.72971 0.82925 0.0
H46 H 0.24055 0.69875 0.85069 0.0
H47 H 0.20041 0.66964 0.78309 0.0
C48 C 0.18265 0.71655 0.82586 0.0
C49 C 0.18149 0.70017 0.80393 0.0
C50 C 0.20388 0.71642 0.84301 0.0
C51 C 0.22366 0.69874 0.83826 0.0
C52 C 0.22248 0.68158 0.81693 0.0
C53 C 0.20149 0.68274 0.79963 0.0
H54 H 0.95481 0.55315 0.51249 0.0
H55 H 0.02117 0.57337 0.467 0.0
H56 H 0.97059 0.50947 0.44327 0.0
C57 C 0.96717 0.54918 0.49618 0.0
C58 C 0.96047 0.52897 0.47874 0.0
C59 C 0.98889 0.56533 0.49172 0.0
C60 C 1.00441 0.56077 0.47016 0.0
C61 C 0.99822 0.54047 0.45255 0.0
C62 C 0.97612 0.52468 0.45703 0.0
H63 H 0.78707 0.8322 0.85556 0.0
H64 H 0.82909 0.85047 0.7867 0.0
H65 H 0.85042 0.78524 0.8323 0.0
C66 C 0.80278 0.82829 0.84248 0.0
C67 C 0.81825 0.80669 0.84658 0.0
C68 C 0.80648 0.84415 0.82093 0.0
C69 C 0.82654 0.83866 0.80365 0.0
C70 C 0.84267 0.81751 0.80761 0.0
C71 C 0.83848 0.80187 0.82934 0.0
H72 H 0.28273 0.32507 0.3524 0.0
H73 H 0.32196 0.34373 0.28196 0.0
H74 H 0.3503 0.2837 0.3306 0.0
C75 C 0.29851 0.32196 0.33919 0.0
C76 C 0.31607 0.30223 0.34405 0.0
C77 C 0.30077 0.3374 0.31712 0.0
C78 C 0.32086 0.33273 0.29957 0.0
C79 C 0.33853 0.31293 0.30393 0.0
C80 C 0.33629 0.29835 0.32659 0.0
H81 H 0.47038 0.02079 0.57184 0.0
H82 H 0.51343 0.95235 0.55489 0.0
H83 H 0.4467 0.96959 0.50929 0.0
C84 C 0.47306 1.00331 0.56045 0.0
C85 C 0.45589 0.99725 0.53992 0.0
C86 C 0.49387 0.98726 0.56623 0.0
C87 C 0.49787 0.96526 0.55051 0.0
C88 C 0.48098 0.95891 0.52993 0.0
C89 C 0.46001 0.97487 0.52484 0.0
H90 H 0.17271 0.28225 0.70406 0.0
H91 H 0.23974 0.32472 0.67757 0.0
H92 H 0.1949 0.35438 0.74077 0.0
C93 C 0.18567 0.2991 0.70533 0.0
C94 C 0.18181 0.31787 0.72467 0.0
C95 C 0.20614 0.30176 0.68779 0.0
C96 C 0.22349 0.32318 0.6905 0.0
C97 C 0.22001 0.34239 0.70975 0.0
C98 C 0.19851 0.33974 0.72619 0.0
H99 H 0.83685 0.17456 0.72909 0.0
H100 H 0.85449 0.24772 0.69469 0.0
H101 H 0.78529 0.20517 0.67193 0.0
C102 C 0.83156 0.18942 0.71566 0.0
C103 C 0.80855 0.18682 0.70102 0.0
C104 C 0.84758 0.21166 0.71407 0.0
C105 C 0.84168 0.23084 0.69625 0.0
C106 C 0.81975 0.22811 0.68021 0.0
C107 C 0.80303 0.20631 0.6831 0.0
H108 H 0.51227 0.5795 0.55873 0.0
H109 H 0.56225 0.51608 0.57376 0.0
H110 H 0.57644 0.56515 0.50863 0.0
C111 C 0.5289 0.5682 0.55364 0.0
C112 C 0.54352 0.57489 0.53185 0.0
C113 C 0.53552 0.54704 0.56891 0.0
C114 C 0.55709 0.53246 0.56212 0.0
C115 C 0.57202 0.53883 0.5404 0.0
C116 C 0.56507 0.5601 0.52539 0.0
H117 H 0.50314 0.44441 0.97163 0.0
H118 H 0.55347 0.50958 0.95352 0.0
H119 H 0.56884 0.46427 0.02019 0.0
C120 C 0.51975 0.45691 0.9762 0.0
C121 C 0.53519 0.45153 0.99788 0.0
C122 C 0.52599 0.47795 0.96003 0.0
C123 C 0.54786 0.49378 0.96605 0.0
C124 C 0.56324 0.48874 0.98765 0.0
C125 C 0.5568 0.46784 1.00349 0.0
H126 H 0.66762 0.23392 0.32781 0.0
H127 H 0.73884 0.19958 0.34983 0.0
H128 H 0.69725 0.17047 0.28282 0.0
C129 C 0.68212 0.21951 0.32441 0.0
C130 C 0.67961 0.20224 0.30318 0.0
C131 C 0.70362 0.21884 0.34097 0.0
C132 C 0.72247 0.20025 0.33672 0.0
C133 C 0.72017 0.18234 0.31608 0.0
C134 C 0.69864 0.18351 0.29937 0.0
H135 H 0.45168 0.05314 0.00749 0.0
H136 H 0.52041 0.06944 0.9645 0.0
H137 H 0.47336 1.00134 0.94585 0.0
C138 C 0.465 0.04749 0.9925 0.0
C139 C 0.45965 0.02524 0.97714 0.0
C140 C 0.48714 0.06303 0.98818 0.0
C141 C 0.50398 0.05658 0.96819 0.0
C142 C 0.49914 0.03446 0.95244 0.0
C143 C 0.47703 0.01876 0.95735 0.0
Mn144 Mn 0.25771 0.87814 0.01241 0.0
Mn145 Mn 0.25265 0.89897 0.95121 0.0
C146 C 0.23618 0.85295 0.98112 0.0
C147 C 0.27825 0.85509 0.04486 0.0
C148 C 0.21989 0.91952 0.99475 0.0
O149 O 0.28654 0.90602 0.01098 0.0
O150 O 0.28084 0.91856 0.96988 0.0
C151 C 0.30304 0.88065 0.93249 0.0
N152 N 0.27679 0.8808 0.93038 0.0
C153 C 0.2773 0.85204 0.89342 0.0
C154 C 0.30434 0.85171 0.89512 0.0
C155 C 0.31725 0.86602 0.91478 0.0
C156 C 0.26417 0.86695 0.91163 0.0
H157 H 0.31308 0.89156 0.94759 0.0
C158 C 0.29264 0.92009 0.99171 0.0
O159 O 0.26245 0.87349 0.05028 0.0
O160 O 0.28304 0.85094 0.02064 0.0
N161 N 0.2265 0.88133 0.93076 0.0
C162 C 0.20032 0.88289 0.93238 0.0
C163 C 0.18453 0.86964 0.91412 0.0
C164 C 0.19581 0.85497 0.89437 0.0
C165 C 0.22279 0.8536 0.8931 0.0
C166 C 0.23755 0.86746 0.91167 0.0
H167 H 0.19154 0.89401 0.94758 0.0
O168 O 0.23085 0.85001 1.00533 0.0
O169 O 0.25346 0.87079 0.97601 0.0
O170 O 0.23014 0.90611 0.0124 0.0
O171 O 0.22655 0.91815 0.97109 0.0
C172 C 0.23562 0.83885 0.87429 0.0
C173 C 0.26284 0.83795 0.87454 0.0
H174 H 0.31537 0.84042 0.88152 0.0
H175 H 0.33811 0.86578 0.91628 0.0
H176 H 0.16372 0.87068 0.91531 0.0
H177 H 0.18354 0.84475 0.88036 0.0
H178 H 0.22474 0.82791 0.85969 0.0
H179 H 0.27247 0.82627 0.86018 0.0
Mn180 Mn 0.14973 0.50986 0.25762 0.0
Mn181 Mn 0.12955 0.57154 0.25539 0.0
C182 C 0.17425 0.5417 0.23702 0.0
C183 C 0.17304 0.47659 0.27635 0.0
C184 C 0.10763 0.52873 0.22059 0.0
O185 O 0.12293 0.51049 0.28651 0.0
O186 O 0.11051 0.55176 0.28222 0.0
C187 C 0.14952 0.58859 0.30675 0.0
N188 N 0.14848 0.59172 0.28073 0.0
C189 C 0.1767 0.62955 0.2835 0.0
C190 C 0.17796 0.6268 0.31034 0.0
C191 C 0.16438 0.60618 0.32199 0.0
C192 C 0.16168 0.61135 0.2693 0.0
H193 H 0.13911 0.57278 0.3158 0.0
C194 C 0.10896 0.52957 0.293 0.0
O195 O 0.15391 0.47166 0.26056 0.0
O196 O 0.17781 0.5008 0.28223 0.0
N197 N 0.14634 0.59323 0.23061 0.0
C198 C 0.14363 0.59276 0.20445 0.0
C199 C 0.15563 0.61232 0.18987 0.0
C200 C 0.17023 0.63219 0.20232 0.0
C201 C 0.17297 0.63216 0.22924 0.0
C202 C 0.16023 0.61237 0.24279 0.0
H203 H 0.1325 0.57753 0.19477 0.0
O204 O 0.17666 0.51743 0.23087 0.0
O205 O 0.15749 0.54666 0.25482 0.0
O206 O 0.12079 0.51062 0.23024 0.0
O207 O 0.10967 0.55237 0.2282 0.0
C208 C 0.18785 0.65095 0.24317 0.0
C209 C 0.18987 0.64954 0.27026 0.0
H210 H 0.18938 0.64035 0.32217 0.0
H211 H 0.16533 0.60388 0.34269 0.0
H212 H 0.15358 0.61212 0.16908 0.0
H213 H 0.1792 0.64738 0.19098 0.0
H214 H 0.19801 0.66644 0.23323 0.0
H215 H 0.20159 0.66393 0.28074 0.0
Mn216 Mn 0.75851 0.6299 0.01333 0.0
Mn217 Mn 0.70342 0.64984 0.98529 0.0
C218 C 0.72065 0.60468 0.01571 0.0
C219 C 0.7976 0.60801 0.01266 0.0
C220 C 0.72527 0.67303 0.03529 0.0
O221 O 0.77153 0.65798 0.98843 0.0
O222 O 0.7338 0.66637 0.96848 0.0
C223 C 0.70961 0.62532 0.93378 0.0
N224 N 0.6953 0.62898 0.95541 0.0
C225 C 0.66057 0.60168 0.93843 0.0
C226 C 0.67479 0.5979 0.91582 0.0
C227 C 0.69947 0.60967 0.91355 0.0
C228 C 0.6717 0.61746 0.95794 0.0
H229 H 0.72865 0.63417 0.93205 0.0
C230 C 0.75836 0.66932 0.97112 0.0
O231 O 0.79341 0.62662 0.02906 0.0
O232 O 0.77943 0.60274 0.99582 0.0
N233 N 0.67236 0.63516 0.99949 0.0
C234 C 0.6618 0.6396 0.0231 0.0
C235 C 0.63736 0.62872 0.02876 0.0
C236 C 0.62392 0.61362 0.01002 0.0
C237 C 0.63512 0.60942 0.98582 0.0
C238 C 0.65944 0.62093 0.98122 0.0
H239 H 0.67192 0.65138 0.0375 0.0
O240 O 0.73914 0.60184 0.03237 0.0
O241 O 0.72488 0.62201 0.99823 0.0
O242 O 0.74406 0.65771 0.03721 0.0
O243 O 0.70949 0.67234 0.01622 0.0
C244 C 0.62326 0.59397 0.96622 0.0
C245 C 0.63603 0.59 0.94258 0.0
H246 H 0.66707 0.58578 0.9002 0.0
H247 H 0.71065 0.60664 0.89625 0.0
H248 H 0.62885 0.63202 0.04749 0.0
H249 H 0.60508 0.60526 0.01447 0.0
H250 H 0.60451 0.58471 0.96927 0.0
H251 H 0.62693 0.57771 0.92784 0.0
Mn252 Mn 0.8793 0.01513 0.2632 0.0
Mn253 Mn 0.90077 0.95393 0.25911 0.0
C254 C 0.85521 0.98293 0.24163 0.0
C255 C 0.85543 0.04795 0.28255 0.0
C256 C 0.92176 0.9975 0.22606 0.0
O257 O 0.9064 0.0147 0.2923 0.0
O258 O 0.919 0.97335 0.28749 0.0
C259 C 0.88033 0.93524 0.30892 0.0
N260 N 0.88166 0.9329 0.28276 0.0
C261 C 0.85286 0.89546 0.28258 0.0
C262 C 0.85131 0.89738 0.30953 0.0
C263 C 0.86506 0.91739 0.32274 0.0
C264 C 0.86838 0.91381 0.26985 0.0
H265 H 0.8908 0.95063 0.31915 0.0
C266 C 0.92021 0.9956 0.29885 0.0
O267 O 0.87447 0.05318 0.26715 0.0
O268 O 0.85127 0.0237 0.28798 0.0
N269 N 0.88455 0.93282 0.23265 0.0
C270 C 0.88768 0.93401 0.20661 0.0
C271 C 0.87517 0.91537 0.19056 0.0
C272 C 0.85974 0.89561 0.20144 0.0
C273 C 0.85698 0.89465 0.2283 0.0
C274 C 0.87013 0.91361 0.24333 0.0
H275 H 0.8996 0.94909 0.19813 0.0
O276 O 0.85218 0.00713 0.23622 0.0
O277 O 0.87237 0.97832 0.25923 0.0
O278 O 0.90759 0.015 0.23567 0.0
O279 O 0.92099 0.974 0.23355 0.0
C280 C 0.84157 0.87574 0.24073 0.0
C281 C 0.83941 0.87622 0.26785 0.0
H282 H 0.83952 0.88368 0.32026 0.0
H283 H 0.86387 0.91907 0.34352 0.0
H284 H 0.8774 0.91622 0.16985 0.0
H285 H 0.85008 0.88131 0.18898 0.0
H286 H 0.83113 0.86086 0.22963 0.0
H287 H 0.82727 0.86176 0.27716 0.0
Mn288 Mn 0.26116 0.13084 0.51571 0.0
Mn289 Mn 0.20514 0.15185 0.49027 0.0
C290 C 0.22384 0.10481 0.51685 0.0
C291 C 0.30077 0.10992 0.51364 0.0
C292 C 0.22679 0.17127 0.54157 0.0
O293 O 0.27353 0.16032 0.49233 0.0
O294 O 0.23498 0.17183 0.47611 0.0
C295 C 0.21278 0.13444 0.43627 0.0
N296 N 0.19824 0.13448 0.45806 0.0
C297 C 0.16489 0.10793 0.43753 0.0
C298 C 0.17944 0.10771 0.41481 0.0
C299 C 0.20352 0.12096 0.41421 0.0
C300 C 0.17511 0.1217 0.45889 0.0
H301 H 0.23128 0.14463 0.43575 0.0
C302 C 0.25963 0.17436 0.4779 0.0
O303 O 0.29621 0.12752 0.53097 0.0
O304 O 0.28257 0.10499 0.49672 0.0
N305 N 0.17448 0.13435 0.50213 0.0
C306 C 0.1635 0.13539 0.52593 0.0
C307 C 0.13956 0.12266 0.52997 0.0
C308 C 0.12704 0.10925 0.50947 0.0
C309 C 0.13859 0.10868 0.48509 0.0
C310 C 0.16239 0.12185 0.48218 0.0
H311 H 0.17297 0.1458 0.54171 0.0
O312 O 0.24247 0.10151 0.53327 0.0
O313 O 0.22745 0.1233 0.50038 0.0
O314 O 0.24664 0.15719 0.54139 0.0
O315 O 0.20999 0.17076 0.52343 0.0
C316 C 0.12768 0.09512 0.46369 0.0
C317 C 0.14086 0.09468 0.43995 0.0
H318 H 0.17241 0.09728 0.39777 0.0
H319 H 0.21491 0.12079 0.39678 0.0
H320 H 0.13078 0.12316 0.54885 0.0
H321 H 0.10867 0.0993 0.5127 0.0
H322 H 0.10937 0.0846 0.46541 0.0
H323 H 0.13247 0.08386 0.42376 0.0
Mn324 Mn 0.38211 0.51677 0.76069 0.0
Mn325 Mn 0.40372 0.45564 0.75508 0.0
C326 C 0.35683 0.48438 0.74075 0.0
C327 C 0.3592 0.54971 0.78105 0.0
C328 C 0.42314 0.49972 0.72179 0.0
O329 O 0.41052 0.51619 0.78851 0.0
O330 O 0.4228 0.47474 0.78313 0.0
C331 C 0.38638 0.43501 0.80528 0.0
N332 N 0.38632 0.43352 0.77903 0.0
C333 C 0.35918 0.39487 0.7792 0.0
C334 C 0.35906 0.39592 0.80623 0.0
C335 C 0.37269 0.41611 0.81932 0.0
C336 C 0.37336 0.41412 0.76624 0.0
H337 H 0.39676 0.45052 0.81543 0.0
C338 C 0.42437 0.49694 0.79462 0.0
O339 O 0.37747 0.55479 0.76473 0.0
O340 O 0.35531 0.52551 0.78683 0.0
N341 N 0.38634 0.43512 0.72888 0.0
C342 C 0.38665 0.43812 0.70282 0.0
C343 C 0.37292 0.42023 0.68691 0.0
C344 C 0.35911 0.39939 0.69793 0.0
C345 C 0.35919 0.39662 0.72479 0.0
C346 C 0.37336 0.41497 0.73967 0.0
H347 H 0.39713 0.45417 0.69426 0.0
O348 O 0.35361 0.50853 0.73518 0.0
O349 O 0.37516 0.47989 0.75718 0.0
O350 O 0.40904 0.51698 0.73184 0.0
O351 O 0.42276 0.47623 0.72916 0.0
C352 C 0.34522 0.37676 0.73741 0.0
C353 C 0.34524 0.37587 0.76459 0.0
H354 H 0.34836 0.38151 0.81713 0.0
H355 H 0.37258 0.41712 0.84018 0.0
H356 H 0.37287 0.42256 0.6662 0.0
H357 H 0.34831 0.38579 0.68561 0.0
H358 H 0.33401 0.36235 0.72641 0.0
H359 H 0.33406 0.36077 0.77408 0.0
Mn360 Mn 0.75729 0.38125 0.51076 0.0
Mn361 Mn 0.75244 0.40119 0.44927 0.0
C362 C 0.73527 0.35579 0.47982 0.0
C363 C 0.77783 0.35867 0.54351 0.0
C364 C 0.72137 0.42393 0.49329 0.0
O365 O 0.78638 0.40921 0.50852 0.0
O366 O 0.78315 0.41811 0.46611 0.0
C367 C 0.7995 0.37729 0.42843 0.0
N368 N 0.77346 0.38037 0.42748 0.0
C369 C 0.7692 0.35163 0.39063 0.0
C370 C 0.79603 0.34851 0.39095 0.0
C371 C 0.81122 0.36128 0.41004 0.0
C372 C 0.75861 0.36779 0.4095 0.0
H373 H 0.81121 0.38683 0.44322 0.0
C374 C 0.79442 0.42062 0.48815 0.0
O375 O 0.76223 0.3773 0.54863 0.0
O376 O 0.78258 0.35408 0.51934 0.0
N377 N 0.7237 0.38567 0.43075 0.0
C378 C 0.69797 0.38955 0.434 0.0
C379 C 0.68003 0.3774 0.41699 0.0
C380 C 0.68872 0.36158 0.39673 0.0
C381 C 0.71529 0.35804 0.39366 0.0
C382 C 0.73227 0.37073 0.41112 0.0
H383 H 0.69116 0.40178 0.44944 0.0
O384 O 0.73031 0.35291 0.50412 0.0
O385 O 0.75251 0.37356 0.47459 0.0
O386 O 0.72969 0.40887 0.51055 0.0
O387 O 0.72936 0.42341 0.47001 0.0
C388 C 0.72557 0.34217 0.37413 0.0
C389 C 0.75251 0.33899 0.37261 0.0
H390 H 0.80513 0.33612 0.37683 0.0
H391 H 0.8319 0.35874 0.4106 0.0
H392 H 0.65955 0.38023 0.41951 0.0
H393 H 0.67481 0.35212 0.38376 0.0
H394 H 0.71292 0.33205 0.36038 0.0
H395 H 0.76016 0.32648 0.35771 0.0
Mn396 Mn 0.6517 0.01132 0.75824 0.0
Mn397 Mn 0.62975 0.07234 0.75573 0.0
C398 C 0.67621 0.04382 0.73877 0.0
C399 C 0.67504 0.97887 0.77818 0.0
C400 C 0.60912 0.02816 0.72133 0.0
O401 O 0.62351 0.01141 0.78592 0.0
O402 O 0.61294 0.05357 0.78463 0.0
C403 C 0.65129 0.09341 0.80503 0.0
N404 N 0.64885 0.09486 0.77893 0.0
C405 C 0.67541 0.13389 0.77814 0.0
C406 C 0.67786 0.13302 0.80506 0.0
C407 C 0.66583 0.11263 0.81854 0.0
C408 C 0.66045 0.11433 0.76574 0.0
H409 H 0.64234 0.07762 0.81544 0.0
C410 C 0.61113 0.0309 0.79444 0.0
O411 O 0.65683 0.97336 0.7615 0.0
O412 O 0.67877 1.00319 0.7843 0.0
N413 N 0.64499 0.09263 0.72887 0.0
C414 C 0.64275 0.08927 0.70283 0.0
C415 C 0.65496 0.10717 0.68644 0.0
C416 C 0.66923 0.12838 0.69697 0.0
C417 C 0.67115 0.13151 0.72383 0.0
C418 C 0.65842 0.11314 0.73921 0.0
H419 H 0.63188 0.07297 0.69461 0.0
O420 O 0.67972 0.01966 0.73284 0.0
O421 O 0.65838 0.0482 0.75567 0.0
O422 O 0.62443 0.01108 0.72943 0.0
O423 O 0.60896 0.05125 0.73053 0.0
C424 C 0.68576 0.15173 0.73593 0.0
C425 C 0.68787 0.15294 0.76306 0.0
H426 H 0.68927 0.14767 0.81553 0.0
H427 H 0.66787 0.11167 0.83929 0.0
H428 H 0.65347 0.10457 0.66573 0.0
H429 H 0.67886 0.14198 0.68427 0.0
H430 H 0.69588 0.16617 0.72453 0.0
H431 H 0.69958 0.16828 0.77212 0.0
Mn432 Mn 0.01284 0.25927 0.8804 0.0
Mn433 Mn 0.95112 0.2527 0.90008 0.0
C434 C 0.98206 0.23778 0.85453 0.0
C435 C 0.04584 0.28112 0.85843 0.0
C436 C 0.99496 0.22157 0.92208 0.0
O437 O 0.01048 0.28729 0.90878 0.0
O438 O 0.96787 0.2833 0.91766 0.0
C439 C 0.93044 0.30039 0.8775 0.0
N440 N 0.92957 0.2741 0.87975 0.0
C441 C 0.89371 0.27008 0.85002 0.0
C442 C 0.89398 0.29713 0.84771 0.0
C443 C 0.9125 0.31233 0.86143 0.0
C444 C 0.91204 0.25926 0.86637 0.0
H445 H 0.94482 0.31214 0.88774 0.0
C446 C 0.99009 0.29474 0.92034 0.0
O447 O 0.05078 0.26492 0.87662 0.0
O448 O 0.02169 0.28578 0.85404 0.0
N449 N 0.93285 0.22405 0.88378 0.0
C450 C 0.93619 0.19816 0.88687 0.0
C451 C 0.91973 0.18023 0.87378 0.0
C452 C 0.89997 0.18908 0.85772 0.0
C453 C 0.89682 0.21581 0.85493 0.0
C454 C 0.91368 0.23276 0.86862 0.0
H455 H 0.95133 0.19121 0.89919 0.0
O456 O 1.0064 0.23316 0.85166 0.0
O457 O 0.97674 0.25427 0.87266 0.0
O458 O 0.01232 0.23065 0.90716 0.0
O459 O 0.97164 0.22917 0.92179 0.0
C460 C 0.87787 0.22628 0.83878 0.0
C461 C 0.87632 0.25339 0.83634 0.0
H462 H 0.88026 0.30641 0.83522 0.0
H463 H 0.91301 0.33321 0.85953 0.0
H464 H 0.92232 0.15963 0.876 0.0
H465 H 0.88745 0.17519 0.84749 0.0
H466 H 0.86463 0.21365 0.82787 0.0
H467 H 0.86189 0.2612 0.82361 0.0
Mn468 Mn 0.51309 0.76232 0.37654 0.0
Mn469 Mn 0.4512 0.75627 0.39624 0.0
C470 C 0.48224 0.74027 0.35113 0.0
C471 C 0.54657 0.78317 0.35423 0.0
C472 C 0.49466 0.72476 0.41828 0.0
O473 O 0.51101 0.79091 0.40452 0.0
O474 O 0.4686 0.78634 0.41393 0.0
C475 C 0.43188 0.80457 0.3737 0.0
N476 N 0.43011 0.77833 0.37616 0.0
C477 C 0.39335 0.77543 0.3475 0.0
C478 C 0.39449 0.80247 0.34504 0.0
C479 C 0.41394 0.81708 0.35808 0.0
C480 C 0.41177 0.76404 0.36332 0.0
H481 H 0.44698 0.81585 0.3834 0.0
C482 C 0.49069 0.79802 0.41643 0.0
O483 O 0.55111 0.76735 0.37285 0.0
O484 O 0.52252 0.78815 0.34962 0.0
N485 N 0.43199 0.72816 0.38009 0.0
C486 C 0.43444 0.70217 0.38333 0.0
C487 C 0.41692 0.68475 0.37094 0.0
C488 C 0.39693 0.69423 0.35556 0.0
C489 C 0.39467 0.72106 0.35266 0.0
C490 C 0.41264 0.73748 0.36556 0.0
H491 H 0.44966 0.69476 0.39526 0.0
O492 O 0.50658 0.73561 0.34839 0.0
O493 O 0.47681 0.75734 0.3687 0.0
O494 O 0.51222 0.73419 0.40381 0.0
O495 O 0.47127 0.73213 0.41764 0.0
C496 C 0.37544 0.73216 0.33731 0.0
C497 C 0.37491 0.7593 0.33455 0.0
H498 H 0.38073 0.81218 0.33295 0.0
H499 H 0.41515 0.83793 0.35604 0.0
H500 H 0.4188 0.66407 0.37326 0.0
H501 H 0.38352 0.68073 0.34596 0.0
H502 H 0.36111 0.71999 0.32731 0.0
H503 H 0.36033 0.76756 0.3223 0.0
Mn504 Mn 0.01238 0.75847 0.63452 0.0
Mn505 Mn 0.98458 0.7023 0.65465 0.0
C506 C 0.01512 0.72082 0.60948 0.0
C507 C 0.01055 0.79803 0.6129 0.0
C508 C 0.0346 0.72537 0.67735 0.0
O509 O 0.98743 0.77039 0.66276 0.0
O510 O 0.96705 0.73211 0.67073 0.0
C511 C 0.9332 0.70686 0.62988 0.0
N512 N 0.95502 0.69324 0.63379 0.0
C513 C 0.93891 0.65805 0.60668 0.0
C514 C 0.91611 0.67155 0.60266 0.0
C515 C 0.91331 0.69612 0.61421 0.0
C516 C 0.95808 0.66976 0.62246 0.0
H517 H 0.93108 0.72583 0.63856 0.0
C518 C 0.96976 0.75674 0.67375 0.0
O519 O 0.02745 0.79421 0.63095 0.0
O520 O 0.99413 0.7791 0.60789 0.0
N521 N 0.99944 0.67173 0.6404 0.0
C522 C 0.02316 0.66188 0.64512 0.0
C523 C 0.0293 0.63763 0.63453 0.0
C524 C 0.01094 0.62364 0.61943 0.0
C525 C 0.98663 0.6341 0.61493 0.0
C526 C 0.98152 0.65826 0.62616 0.0
H527 H 0.03727 0.67241 0.65691 0.0
O528 O 0.03149 0.74 0.60631 0.0
O529 O 0.99764 0.72437 0.6269 0.0
O530 O 0.03674 0.74424 0.66183 0.0
O531 O 0.01526 0.7094 0.67708 0.0
C532 C 0.96737 0.62164 0.5995 0.0
C533 C 0.94358 0.63367 0.59526 0.0
H534 H 0.90075 0.66336 0.59053 0.0
H535 H 0.89587 0.70676 0.611 0.0
H536 H 0.04812 0.62969 0.63807 0.0
H537 H 0.01577 0.60493 0.61132 0.0
H538 H 0.9708 0.60299 0.59047 0.0
H539 H 0.92911 0.62412 0.58298 0.0
Mn540 Mn 0.50974 0.25536 0.13215 0.0
Mn541 Mn 0.48329 0.19833 0.15165 0.0
C542 C 0.51293 0.21822 0.10649 0.0
C543 C 0.50774 0.29512 0.11107 0.0
C544 C 0.53294 0.22207 0.17439 0.0
O545 O 0.48448 0.26649 0.16037 0.0
O546 O 0.46552 0.22756 0.16861 0.0
C547 C 0.43125 0.20229 0.12815 0.0
N548 N 0.45347 0.18909 0.13123 0.0
C549 C 0.43748 0.15414 0.10375 0.0
C550 C 0.41428 0.1672 0.10056 0.0
C551 C 0.41122 0.19144 0.11272 0.0
C552 C 0.45673 0.16589 0.11939 0.0
H553 H 0.4289 0.221 0.1373 0.0
C554 C 0.46743 0.25227 0.17161 0.0
O555 O 0.52445 0.29119 0.12925 0.0
O556 O 0.49144 0.27617 0.10567 0.0
N557 N 0.49846 0.16838 0.13642 0.0
C558 C 0.52264 0.15918 0.14002 0.0
C559 C 0.5292 0.13551 0.12841 0.0
C560 C 0.51081 0.12145 0.11341 0.0
C561 C 0.48601 0.13123 0.11009 0.0
C562 C 0.48052 0.15484 0.12227 0.0
H563 H 0.53682 0.16981 0.15164 0.0
O564 O 0.52918 0.23759 0.10377 0.0
O565 O 0.49545 0.22116 0.12404 0.0
O566 O 0.53429 0.24135 0.15934 0.0
O567 O 0.5142 0.20542 0.17377 0.0
C568 C 0.46669 0.11872 0.09478 0.0
C569 C 0.44246 0.13021 0.09155 0.0
H570 H 0.39883 0.15896 0.08858 0.0
H571 H 0.39347 0.20175 0.11016 0.0
H572 H 0.5484 0.12811 0.13102 0.0
H573 H 0.51599 0.10327 0.10438 0.0
H574 H 0.47041 0.1005 0.08503 0.0
H575 H 0.42794 0.12065 0.07933 0.0
H576 H 0.18577 0.76629 0.8462 0.0
H577 H 0.22664 0.70982 0.89076 0.0
H578 H 0.19047 0.79728 0.88183 0.0
H579 H 0.23321 0.74202 0.92524 0.0
H580 H 0.26947 0.82488 0.95334 0.0
H581 H 0.25947 0.79019 0.92183 0.0
H582 H 0.17798 0.7991 0.93525 0.0
H583 H 0.18812 0.83347 0.96762 0.0
C584 C 0.19548 0.76021 0.86355 0.0
C585 C 0.20588 0.73528 0.86527 0.0
C586 C 0.19834 0.77819 0.88388 0.0
C587 C 0.21233 0.77205 0.90609 0.0
C588 C 0.22247 0.74722 0.90816 0.0
C589 C 0.21894 0.72891 0.88818 0.0
C590 C 0.24943 0.81934 0.94959 0.0
C591 C 0.22949 0.83212 0.96234 0.0
C592 C 0.24375 0.79943 0.93176 0.0
C593 C 0.21799 0.7921 0.92618 0.0
C594 C 0.19798 0.80454 0.93925 0.0
C595 C 0.20373 0.8241 0.95765 0.0
H596 H 0.01325 0.49482 0.42955 0.0
H597 H 0.01879 0.57803 0.42155 0.0
H598 H 0.0385 0.48948 0.39011 0.0
H599 H 0.04471 0.57277 0.38313 0.0
H600 H 0.0665 0.55814 0.30163 0.0
H601 H 0.03902 0.55857 0.3393 0.0
H602 H 0.08221 0.49643 0.3721 0.0
H603 H 0.10964 0.49559 0.33368 0.0
C604 C 0.01985 0.51195 0.41943 0.0
C605 C 0.01399 0.53686 0.42881 0.0
C606 C 0.03454 0.50889 0.39697 0.0
C607 C 0.04353 0.53067 0.3833 0.0
C608 C 0.03778 0.55551 0.39285 0.0
C609 C 0.02317 0.55856 0.41518 0.0
C610 C 0.07009 0.54437 0.31673 0.0
C611 C 0.09052 0.52703 0.31474 0.0
C612 C 0.05438 0.54473 0.33847 0.0
C613 C 0.0587 0.52794 0.35905 0.0
C614 C 0.07832 0.50964 0.3566 0.0
C615 C 0.09405 0.50915 0.3346 0.0
H616 H 0.85106 0.77924 0.87773 0.0
H617 H 0.77007 0.7905 0.86179 0.0
H618 H 0.8393 0.74489 0.90794 0.0
H619 H 0.75851 0.75768 0.89279 0.0
H620 H 0.74343 0.67884 0.92216 0.0
H621 H 0.76009 0.71161 0.89334 0.0
H622 H 0.81863 0.73438 0.94964 0.0
H623 H 0.80222 0.70041 0.97856 0.0
C624 C 0.83079 0.77462 0.8808 0.0
C625 C 0.81155 0.78769 0.86715 0.0
C626 C 0.82407 0.7551 0.89832 0.0
C627 C 0.79797 0.74821 0.90253 0.0
C628 C 0.77883 0.76201 0.88963 0.0
C629 C 0.7855 0.78128 0.87211 0.0
C630 C 0.76004 0.69057 0.9284 0.0
C631 C 0.77131 0.68718 0.95281 0.0
C632 C 0.76948 0.70959 0.9119 0.0
C633 C 0.79026 0.72617 0.91941 0.0
C634 C 0.80253 0.72199 0.94329 0.0
C635 C 0.79317 0.70255 0.95984 0.0
H636 H 0.97558 0.98374 0.45541 0.0
H637 H 0.04617 0.98777 0.41154 0.0
H638 H 0.95059 0.99132 0.41609 0.0
H639 H 0.02128 0.99571 0.37244 0.0
H640 H 0.9646 0.9699 0.30654 0.0
H641 H 0.99099 0.96877 0.34545 0.0
H642 H 0.94227 0.02501 0.38188 0.0
H643 H 0.91561 0.02619 0.34252 0.0
C644 C 0.98576 0.98629 0.4374 0.0
C645 C 0.01287 0.98502 0.43661 0.0
C646 C 0.97147 0.99095 0.41494 0.0
C647 C 0.98394 0.99415 0.39113 0.0
C648 C 0.01106 0.99319 0.39044 0.0
C649 C 0.02534 0.98878 0.41289 0.0
C650 C 0.95967 0.98234 0.32269 0.0
C651 C 0.93797 0.99813 0.32142 0.0
C652 C 0.97489 0.98175 0.34499 0.0
C653 C 0.96871 0.99672 0.36682 0.0
C654 C 0.94741 0.0131 0.36542 0.0
C655 C 0.93231 0.01398 0.34283 0.0
H656 H 0.16823 0.27758 0.65841 0.0
H657 H 0.25111 0.2813 0.6693 0.0
H658 H 0.17292 0.24516 0.6244 0.0
H659 H 0.25593 0.24999 0.63414 0.0
H660 H 0.2544 0.17469 0.58695 0.0
H661 H 0.24923 0.20541 0.62255 0.0
H662 H 0.18689 0.24082 0.58123 0.0
H663 H 0.19145 0.20962 0.54611 0.0
C664 C 0.18748 0.27147 0.65359 0.0
C665 C 0.20927 0.28209 0.66672 0.0
C666 C 0.19021 0.2531 0.63378 0.0
C667 C 0.21482 0.24495 0.62635 0.0
C668 C 0.23664 0.25554 0.63948 0.0
C669 C 0.2339 0.27382 0.65944 0.0
C670 C 0.23951 0.18896 0.58549 0.0
C671 C 0.22334 0.18959 0.5636 0.0
C672 C 0.23666 0.20673 0.60587 0.0
C673 C 0.21768 0.22571 0.60483 0.0
C674 C 0.20146 0.22626 0.58297 0.0
C675 C 0.20417 0.20839 0.56269 0.0
H676 H 0.51827 0.57948 0.60688 0.0
H677 H 0.51712 0.49904 0.58275 0.0
H678 H 0.49216 0.56835 0.64429 0.0
H679 H 0.49033 0.48785 0.61967 0.0
H680 H 0.46229 0.47179 0.70073 0.0
H681 H 0.49008 0.48342 0.66481 0.0
H682 H 0.45014 0.55541 0.65686 0.0
H683 H 0.42304 0.54421 0.69344 0.0
C684 C 0.51223 0.55942 0.60948 0.0
C685 C 0.51976 0.54014 0.59186 0.0
C686 C 0.49715 0.55301 0.6309 0.0
C687 C 0.48897 0.52716 0.63513 0.0
C688 C 0.49659 0.50789 0.61743 0.0
C689 C 0.51189 0.51429 0.59616 0.0
C690 C 0.45948 0.49016 0.6914 0.0
C691 C 0.4404 0.50706 0.70009 0.0
C692 C 0.47535 0.49677 0.67061 0.0
C693 C 0.47241 0.52036 0.65772 0.0
C694 C 0.45334 0.53728 0.66648 0.0
C695 C 0.43765 0.53078 0.68744 0.0
H696 H 0.82406 0.28112 0.68543 0.0
H697 H 0.80315 0.22032 0.63043 0.0
H698 H 0.81656 0.31362 0.65266 0.0
H699 H 0.79487 0.25283 0.59791 0.0
H700 H 0.80664 0.31526 0.53807 0.0
H701 H 0.81791 0.28446 0.57133 0.0
H702 H 0.78099 0.33215 0.62866 0.0
H703 H 0.77006 0.36312 0.59549 0.0
C704 C 0.81789 0.27468 0.66634 0.0
C705 C 0.81426 0.24808 0.66055 0.0
C706 C 0.81337 0.29333 0.64761 0.0
C707 C 0.80521 0.28586 0.62259 0.0
C708 C 0.8015 0.25927 0.61686 0.0
C709 C 0.80591 0.24063 0.6356 0.0
C710 C 0.80125 0.31937 0.55783 0.0
C711 C 0.78741 0.34164 0.5641 0.0
C712 C 0.8075 0.30157 0.57687 0.0
C713 C 0.80013 0.30567 0.60265 0.0
C714 C 0.78712 0.32845 0.60905 0.0
C715 C 0.7808 0.3462 0.59 0.0
H716 H 0.47962 1.00575 0.61379 0.0
H717 H 0.54643 0.98158 0.57102 0.0
H718 H 0.50699 0.01521 0.65134 0.0
H719 H 0.57369 0.99055 0.6089 0.0
H720 H 0.60854 0.9843 0.69062 0.0
H721 H 0.5807 0.97417 0.65344 0.0
H722 H 0.542 0.0465 0.66479 0.0
H723 H 0.56967 0.05668 0.70199 0.0
C724 C 0.50017 1.00268 0.61225 0.0
C725 C 0.51077 0.99303 0.5892 0.0
C726 C 0.51585 0.00802 0.63387 0.0
C727 C 0.54251 1.00365 0.63312 0.0
C728 C 0.55315 0.99382 0.6102 0.0
C729 C 0.53749 0.98866 0.58849 0.0
C730 C 0.594 0.99801 0.68532 0.0
C731 C 0.59139 0.02132 0.69941 0.0
C732 C 0.57817 0.99226 0.66387 0.0
C733 C 0.55918 0.00955 0.65611 0.0
C734 C 0.55629 0.03266 0.67039 0.0
C735 C 0.57225 0.03852 0.69169 0.0
H736 H 0.88798 0.17982 0.7233 0.0
H737 H 0.85524 0.25219 0.7472 0.0
H738 H 0.92224 0.18581 0.75567 0.0
H739 H 0.88815 0.25768 0.78046 0.0
H740 H 0.95953 0.27397 0.82627 0.0
H741 H 0.9297 0.26791 0.79031 0.0
H742 H 0.93327 0.18464 0.79866 0.0
H743 H 0.96509 0.19122 0.83347 0.0
C744 C 0.88819 0.197 0.73558 0.0
C745 C 0.86924 0.21571 0.73263 0.0
C746 C 0.90764 0.20036 0.75435 0.0
C747 C 0.90821 0.22225 0.77097 0.0
C748 C 0.88899 0.24085 0.76785 0.0
C749 C 0.86996 0.23773 0.74878 0.0
C750 C 0.95394 0.25439 0.82024 0.0
C751 C 0.96398 0.23304 0.83289 0.0
C752 C 0.93662 0.25083 0.79972 0.0
C753 C 0.9284 0.22574 0.79163 0.0
C754 C 0.93919 0.20429 0.80398 0.0
C755 C 0.95721 0.20794 0.82413 0.0
H756 H 0.52298 0.94472 0.5017 0.0
H757 H 0.44663 0.91867 0.52404 0.0
H758 H 0.52708 0.90585 0.4744 0.0
H759 H 0.45105 0.87925 0.49836 0.0
H760 H 0.4503 0.82794 0.42901 0.0
H761 H 0.44976 0.86627 0.45591 0.0
H762 H 0.53179 0.86037 0.47026 0.0
H763 H 0.53256 0.82219 0.44144 0.0
C764 C 0.50723 0.93045 0.50095 0.0
C765 C 0.48432 0.93478 0.51457 0.0
C766 C 0.50961 0.90808 0.48548 0.0
C767 C 0.48925 0.88941 0.48369 0.0
C768 C 0.46684 0.89346 0.49839 0.0
C769 C 0.46429 0.91598 0.51332 0.0
C770 C 0.46836 0.83469 0.43776 0.0
C771 C 0.49148 0.82175 0.43311 0.0
C772 C 0.46798 0.85672 0.45356 0.0
C773 C 0.49059 0.86633 0.46592 0.0
C774 C 0.51395 0.85366 0.46105 0.0
C775 C 0.51442 0.8317 0.44463 0.0
H776 H 0.16995 0.27379 0.75096 0.0
H777 H 0.14748 0.3533 0.74292 0.0
H778 H 0.13759 0.26758 0.78441 0.0
H779 H 0.11538 0.34724 0.77692 0.0
H780 H 0.04106 0.31261 0.8167 0.0
H781 H 0.07403 0.32302 0.78468 0.0
H782 H 0.13029 0.28208 0.82919 0.0
H783 H 0.09737 0.27146 0.86101 0.0
C784 C 0.15796 0.2899 0.75623 0.0
C785 C 0.16123 0.31401 0.74424 0.0
C786 C 0.13966 0.28645 0.77564 0.0
C787 C 0.12408 0.307 0.7835 0.0
C788 C 0.12705 0.33103 0.77126 0.0
C789 C 0.14551 0.33453 0.75191 0.0
C790 C 0.06057 0.30621 0.81987 0.0
C791 C 0.06655 0.29106 0.84132 0.0
C792 C 0.07947 0.31221 0.80153 0.0
C793 C 0.10468 0.30306 0.80421 0.0
C794 C 0.11092 0.28898 0.82631 0.0
C795 C 0.09209 0.28309 0.84467 0.0
H796 H 0.57505 0.61392 0.51392 0.0
H797 H 0.49549 0.5866 0.51378 0.0
H798 H 0.56318 0.65082 0.48795 0.0
H799 H 0.48358 0.623 0.48709 0.0
H800 H 0.46608 0.70353 0.45769 0.0
H801 H 0.47787 0.6683 0.48598 0.0
H802 H 0.55057 0.66187 0.44612 0.0
H803 H 0.53927 0.69757 0.41871 0.0
C804 C 0.55504 0.61569 0.50809 0.0
C805 C 0.53623 0.59732 0.51585 0.0
C806 C 0.54819 0.63682 0.49312 0.0
C807 C 0.52237 0.63999 0.48522 0.0
C808 C 0.50356 0.62156 0.49309 0.0
C809 C 0.51039 0.60058 0.50831 0.0
C810 C 0.48464 0.69469 0.45508 0.0
C811 C 0.50173 0.70356 0.43595 0.0
C812 C 0.49136 0.67431 0.47121 0.0
C813 C 0.51524 0.6621 0.46846 0.0
C814 C 0.53226 0.67102 0.44928 0.0
C815 C 0.52567 0.6915 0.43337 0.0
H816 H 0.87487 0.84989 0.77954 0.0
H817 H 0.85512 0.76891 0.79082 0.0
H818 H 0.9053 0.83772 0.74582 0.0
H819 H 0.88643 0.75685 0.75873 0.0
H820 H 0.92038 0.74074 0.68252 0.0
H821 H 0.89025 0.7575 0.71362 0.0
H822 H 0.94624 0.81727 0.7366 0.0
H823 H 0.97637 0.80089 0.70418 0.0
C824 C 0.87708 0.82952 0.77498 0.0
C825 C 0.86244 0.81042 0.78801 0.0
C826 C 0.89476 0.82254 0.75584 0.0
C827 C 0.8982 0.7963 0.74928 0.0
C828 C 0.88397 0.77729 0.76278 0.0
C829 C 0.86625 0.78422 0.78164 0.0
C830 C 0.92629 0.75763 0.69398 0.0
C831 C 0.95093 0.7693 0.69104 0.0
C832 C 0.90902 0.76714 0.71205 0.0
C833 C 0.91598 0.78835 0.72819 0.0
C834 C 0.94022 0.80088 0.72452 0.0
C835 C 0.95751 0.7915 0.70599 0.0
H836 H 0.01788 0.90573 0.48598 0.0
H837 H 0.03539 0.95439 0.55261 0.0
H838 H 0.00965 0.86891 0.51404 0.0
H839 H 0.02693 0.91768 0.58073 0.0
H840 H 0.04373 0.83983 0.61862 0.0
H841 H 0.0471 0.87814 0.5919 0.0
H842 H 0.98187 0.84982 0.5462 0.0
H843 H 0.97891 0.81105 0.57269 0.0
C844 C 0.0195 0.9087 0.50665 0.0
C845 C 0.02746 0.93301 0.517 0.0
C846 C 0.01477 0.88755 0.52279 0.0
C847 C 0.0178 0.89018 0.54972 0.0
C848 C 0.02491 0.91474 0.56008 0.0
C849 C 0.02972 0.93584 0.54395 0.0
C850 C 0.02996 0.84183 0.603 0.0
C851 C 0.01109 0.8223 0.59779 0.0
C852 C 0.03179 0.86394 0.58772 0.0
C853 C 0.01477 0.86718 0.5668 0.0
C854 C 0.99553 0.84786 0.56191 0.0
C855 C 0.9937 0.8257 0.57722 0.0
H856 H 0.12975 0.70231 0.81429 0.0
H857 H 0.18393 0.70236 0.75133 0.0
H858 H 0.09422 0.70803 0.78377 0.0
H859 H 0.14836 0.70774 0.72076 0.0
H860 H 0.08241 0.74967 0.6795 0.0
H861 H 0.11759 0.7424 0.70983 0.0
H862 H 0.07059 0.68442 0.74809 0.0
H863 H 0.03528 0.69166 0.71783 0.0
C864 C 0.13404 0.70345 0.79391 0.0
C865 C 0.15966 0.70194 0.78523 0.0
C866 C 0.11368 0.70654 0.77642 0.0
C867 C 0.11847 0.70844 0.74984 0.0
C868 C 0.14405 0.70661 0.74113 0.0
C869 C 0.16439 0.70326 0.75861 0.0
C870 C 0.07948 0.73541 0.6944 0.0
C871 C 0.05589 0.72131 0.69619 0.0
C872 C 0.09976 0.73111 0.71167 0.0
C873 C 0.09693 0.71279 0.73133 0.0
C874 C 0.07332 0.69882 0.73328 0.0
C875 C 0.0531 0.70293 0.71585 0.0
H876 H 0.97419 0.61417 0.48248 0.0
H877 H 0.01546 0.56859 0.53732 0.0
H878 H 0.98257 0.65317 0.50901 0.0
H879 H 0.02401 0.60757 0.56407 0.0
H880 H 0.97369 0.70729 0.57998 0.0
H881 H 0.96868 0.67039 0.55022 0.0
H882 H 0.04768 0.64982 0.56544 0.0
H883 H 0.05244 0.68695 0.5955 0.0
C884 C 0.98503 0.61263 0.50032 0.0
C885 C 0.99405 0.58857 0.5081 0.0
C886 C 0.9898 0.63486 0.51553 0.0
C887 C 1.00387 0.6335 0.53876 0.0
C888 C 0.01326 0.60934 0.54625 0.0
C889 C 0.00826 0.58703 0.5311 0.0
C890 C 0.98996 0.69486 0.57685 0.0
C891 C 0.01316 0.69932 0.59051 0.0
C892 C 0.98722 0.67389 0.55962 0.0
C893 C 0.00771 0.65696 0.5556 0.0
C894 C 0.03139 0.66222 0.56844 0.0
C895 C 0.03419 0.68347 0.58552 0.0
H896 H 0.77023 0.84646 0.18754 0.0
H897 H 0.71233 0.89267 0.22497 0.0
H898 H 0.8019 0.88179 0.19403 0.0
H899 H 0.74491 0.92689 0.2332 0.0
H900 H 0.83891 0.96894 0.19301 0.0
H901 H 0.80513 0.93613 0.18132 0.0
H902 H 0.79146 0.92233 0.26203 0.0
H903 H 0.82559 0.95432 0.27358 0.0
C904 C 0.76403 0.86412 0.19686 0.0
C905 C 0.7385 0.86642 0.2058 0.0
C906 C 0.78235 0.88426 0.20073 0.0
C907 C 0.7758 0.90684 0.21424 0.0
C908 C 0.75038 0.9095 0.22287 0.0
C909 C 0.73184 0.8897 0.21838 0.0
C910 C 0.82868 0.95874 0.20812 0.0
C911 C 0.83514 0.96349 0.23411 0.0
C912 C 0.80946 0.9401 0.20149 0.0
C913 C 0.79583 0.92685 0.22084 0.0
C914 C 0.80169 0.93239 0.24682 0.0
C915 C 0.82126 0.95048 0.25339 0.0
H916 H 0.71382 0.13092 0.30246 0.0
H917 H 0.77274 0.18952 0.3202 0.0
H918 H 0.74723 0.09896 0.29614 0.0
H919 H 0.80602 0.15741 0.31483 0.0
H920 H 0.85853 0.09983 0.27258 0.0
H921 H 0.82619 0.13223 0.2813 0.0
H922 H 0.77896 0.0746 0.31992 0.0
H923 H 0.81116 0.04204 0.31077 0.0
C924 C 0.73389 0.137 0.30498 0.0
C925 C 0.74054 0.16281 0.31187 0.0
C926 C 0.75305 0.11859 0.30169 0.0
C927 C 0.77937 0.12553 0.30511 0.0
C928 C 0.786 0.15138 0.31186 0.0
C929 C 0.76686 0.16976 0.31519 0.0
C930 C 0.84141 0.09413 0.28324 0.0
C931 C 0.83744 0.06831 0.29094 0.0
C932 C 0.82285 0.11275 0.28829 0.0
C933 C 0.79982 0.10603 0.30115 0.0
C934 C 0.79625 0.08037 0.30959 0.0
C935 C 0.81485 0.06175 0.30457 0.0
H936 H 0.43646 0.01146 0.0228 0.0
H937 H 0.42755 1.00358 0.94013 0.0
H938 H 0.39541 0.98772 0.02861 0.0
H939 H 0.38735 0.97901 0.94594 0.0
H940 H 0.30401 0.96109 0.9609 0.0
H941 H 0.34392 0.98676 0.95915 0.0
H942 H 0.37419 0.94487 0.02371 0.0
H943 H 0.33368 0.91932 0.02585 0.0
C944 C 0.42581 1.00462 1.00587 0.0
C945 C 0.43535 0.00953 0.98098 0.0
C946 C 0.40239 0.99079 0.00922 0.0
C947 C 0.3879 0.98162 0.98776 0.0
C948 C 0.39771 0.98616 0.96293 0.0
C949 C 0.42103 0.99996 0.95959 0.0
C950 C 0.31902 0.95745 0.97495 0.0
C951 C 0.31567 0.93793 0.99339 0.0
C952 C 0.34205 0.97209 0.9738 0.0
C953 C 0.36255 0.96756 0.99092 0.0
C954 C 0.3588 0.94891 0.01023 0.0
C955 C 0.33557 0.93426 0.01148 0.0
H956 H 0.2481 0.3339 0.32224 0.0
H957 H 0.30985 0.38692 0.30029 0.0
H958 H 0.21665 0.36738 0.31454 0.0
H959 H 0.2783 0.42026 0.29198 0.0
H960 H 0.21786 0.482 0.30443 0.0
H961 H 0.24827 0.44838 0.31521 0.0
H962 H 0.1979 0.39069 0.27832 0.0
H963 H 0.16738 0.42426 0.26775 0.0
C964 C 0.25499 0.35275 0.31586 0.0
C965 C 0.28154 0.35776 0.31199 0.0
C966 C 0.23691 0.37187 0.31122 0.0
C967 C 0.24492 0.39655 0.3027 0.0
C968 C 0.27148 0.40157 0.29883 0.0
C969 C 0.28955 0.38238 0.30333 0.0
C970 C 0.21312 0.4621 0.29888 0.0
C971 C 0.19018 0.45583 0.28521 0.0
C972 C 0.23068 0.44286 0.30486 0.0
C973 C 0.22565 0.41685 0.29746 0.0
C974 C 0.20231 0.41048 0.28449 0.0
C975 C 0.18483 0.42975 0.27837 0.0
H976 H 0.07468 0.0261 0.52538 0.0
H977 H 0.11117 0.98604 0.46255 0.0
H978 H 0.11431 0.05185 0.53328 0.0
H979 H 0.15149 0.01035 0.47122 0.0
H980 H 0.20873 0.07944 0.4731 0.0
H981 H 0.17179 0.04986 0.46685 0.0
H982 H 0.15636 0.05386 0.54875 0.0
H983 H 0.1928 0.0847 0.55438 0.0
C984 C 0.09142 0.02266 0.5135 0.0
C985 C 0.09 1.00432 0.4933 0.0
C986 C 0.11428 0.03719 0.51814 0.0
C987 C 0.13641 0.03331 0.50297 0.0
C988 C 0.13489 0.01441 0.48304 0.0
C989 C 0.11186 1.0003 0.47811 0.0
C990 C 0.19724 0.07406 0.48967 0.0
C991 C 0.2027 0.0852 0.51397 0.0
C992 C 0.17625 0.0567 0.48623 0.0
C993 C 0.16048 0.04966 0.5072 0.0
C994 C 0.16736 0.05943 0.53194 0.0
C995 C 0.18835 0.07694 0.53529 0.0
H996 H 0.80054 0.15971 0.74588 0.0
H997 H 0.77333 0.16306 0.66689 0.0
H998 H 0.77193 0.12344 0.75328 0.0
H999 H 0.74152 0.12907 0.67569 0.0
H1000 H 0.69781 0.05358 0.69174 0.0
H1001 H 0.73114 0.08643 0.68189 0.0
H1002 H 0.73168 0.11134 0.7621 0.0
H1003 H 0.70061 0.07712 0.77173 0.0
C1004 C 0.78856 0.15284 0.7299 0.0
C1005 C 0.78989 0.16456 0.70556 0.0
C1006 C 0.77133 0.1322 0.73447 0.0
C1007 C 0.75379 0.12317 0.7153 0.0
C1008 C 0.75484 0.13498 0.69097 0.0
C1009 C 0.77287 0.15506 0.68606 0.0
C1010 C 0.70535 0.06615 0.7071 0.0
C1011 C 0.69599 0.06368 0.73227 0.0
C1012 C 0.72427 0.08519 0.7015 0.0
C1013 C 0.73422 0.1021 0.72104 0.0
C1014 C 0.72518 0.09873 0.74639 0.0
C1015 C 0.70678 0.07942 0.75196 0.0
H1016 H 0.42425 0.0203 0.57509 0.0
H1017 H 0.43615 0.01193 0.49304 0.0
H1018 H 0.3879 0.04804 0.56703 0.0
H1019 H 0.39949 0.03969 0.48496 0.0
H1020 H 0.31426 0.06807 0.48359 0.0
H1021 H 0.35205 0.04103 0.48882 0.0
H1022 H 0.37948 0.09104 0.55129 0.0
H1023 H 0.34175 0.11767 0.54635 0.0
C1024 C 0.4193 0.02458 0.55531 0.0
C1025 C 0.43335 0.01398 0.53475 0.0
C1026 C 0.39839 0.04051 0.55067 0.0
C1027 C 0.39084 0.04632 0.52533 0.0
C1028 C 0.40463 0.03547 0.50471 0.0
C1029 C 0.42565 0.01953 0.50936 0.0
C1030 C 0.32851 0.07341 0.49824 0.0
C1031 C 0.32487 0.09494 0.51465 0.0
C1032 C 0.35021 0.05795 0.50121 0.0
C1033 C 0.36869 0.06365 0.5207 0.0
C1034 C 0.36541 0.08573 0.53644 0.0
C1035 C 0.34382 0.10114 0.53347 0.0
H1036 H 0.61036 0.52216 0.57219 0.0
H1037 H 0.58515 0.5201 0.49269 0.0
H1038 H 0.64729 0.49603 0.56093 0.0
H1039 H 0.62164 0.49332 0.48139 0.0
H1040 H 0.70179 0.46344 0.46464 0.0
H1041 H 0.66696 0.49227 0.47604 0.0
H1042 H 0.65824 0.45361 0.54899 0.0
H1043 H 0.69357 0.42557 0.53804 0.0
C1044 C 0.61262 0.51592 0.55232 0.0
C1045 C 0.59479 0.52317 0.53336 0.0
C1046 C 0.63378 0.50085 0.54582 0.0
C1047 C 0.63755 0.49235 0.52021 0.0
C1048 C 0.61973 0.49979 0.50123 0.0
C1049 C 0.59871 0.51509 0.5077 0.0
C1050 C 0.69256 0.46121 0.4832 0.0
C1051 C 0.70065 0.44217 0.50042 0.0
C1052 C 0.67239 0.47765 0.48968 0.0
C1053 C 0.6596 0.47537 0.51347 0.0
C1054 C 0.66782 0.45638 0.5307 0.0
C1055 C 0.68809 0.44012 0.52432 0.0
H1056 H 0.74491 0.25141 0.34898 0.0
H1057 H 0.67031 0.23045 0.38004 0.0
H1058 H 0.75145 0.28374 0.38288 0.0
H1059 H 0.67718 0.26195 0.41526 0.0
H1060 H 0.68772 0.33741 0.46295 0.0
H1061 H 0.67916 0.30419 0.42953 0.0
H1062 H 0.76138 0.29138 0.42449 0.0
H1063 H 0.76951 0.32593 0.45589 0.0
C1064 C 0.73002 0.25361 0.36339 0.0
C1065 C 0.70719 0.23841 0.36201 0.0
C1066 C 0.73377 0.2721 0.38306 0.0
C1067 C 0.71498 0.27561 0.4023 0.0
C1068 C 0.69201 0.26029 0.40076 0.0
C1069 C 0.68807 0.24207 0.38069 0.0
C1070 C 0.70378 0.32742 0.45443 0.0
C1071 C 0.72925 0.33462 0.46124 0.0
C1072 C 0.69898 0.30817 0.43545 0.0
C1073 C 0.71957 0.29514 0.42365 0.0
C1074 C 0.74495 0.30147 0.43206 0.0
C1075 C 0.7497 0.32113 0.45033 0.0
H1076 H 0.55192 0.04196 0.94961 0.0
H1077 H 0.486 0.01387 0.90454 0.0
H1078 H 0.57918 0.03816 0.91163 0.0
H1079 H 0.5139 0.00876 0.86705 0.0
H1080 H 0.58853 0.98647 0.81463 0.0
H1081 H 0.56166 0.98332 0.85361 0.0
H1082 H 0.57096 0.06587 0.86617 0.0
H1083 H 0.59672 0.06934 0.82733 0.0
C1084 C 0.5432 0.03476 0.93177 0.0
C1085 C 0.51652 0.02867 0.93022 0.0
C1086 C 0.55894 0.03233 0.91011 0.0
C1087 C 0.54859 0.02316 0.88651 0.0
C1088 C 0.52236 0.01562 0.88515 0.0
C1089 C 0.50643 0.01851 0.90672 0.0
C1090 C 0.58477 1.00391 0.82571 0.0
C1091 C 0.59481 0.02814 0.81779 0.0
C1092 C 0.5694 1.00209 0.84792 0.0
C1093 C 0.56449 0.02436 0.86288 0.0
C1094 C 0.57467 0.04841 0.85507 0.0
C1095 C 0.58937 0.05033 0.83271 0.0
H1096 H 0.30049 0.31471 0.39323 0.0
H1097 H 0.32308 0.24972 0.3457 0.0
H1098 H 0.29058 0.28514 0.42838 0.0
H1099 H 0.31379 0.22042 0.38106 0.0
H1100 H 0.30845 0.17588 0.45695 0.0
H1101 H 0.32604 0.20813 0.42683 0.0
H1102 H 0.2558 0.25103 0.43306 0.0
H1103 H 0.23837 0.21913 0.46274 0.0
C1104 C 0.30349 0.29419 0.39028 0.0
C1105 C 0.3124 0.28467 0.36647 0.0
C1106 C 0.29796 0.27727 0.41049 0.0
C1107 C 0.30138 0.25044 0.40748 0.0
C1108 C 0.3113 0.24102 0.38412 0.0
C1109 C 0.31663 0.25789 0.36383 0.0
C1110 C 0.29702 0.19243 0.45214 0.0
C1111 C 0.27198 0.19486 0.46206 0.0
C1112 C 0.30699 0.21078 0.43482 0.0
C1113 C 0.29228 0.23212 0.42758 0.0
C1114 C 0.26773 0.23501 0.43843 0.0
C1115 C 0.25767 0.21658 0.4553 0.0
H1116 H 0.51144 0.52455 0.94001 0.0
H1117 H 0.5059 0.44187 0.92565 0.0
H1118 H 0.48858 0.53194 0.89944 0.0
H1119 H 0.48228 0.44918 0.88587 0.0
H1120 H 0.46662 0.46826 0.80385 0.0
H1121 H 0.49134 0.46558 0.8436 0.0
H1122 H 0.44633 0.52641 0.87753 0.0
H1123 H 0.42167 0.52945 0.83718 0.0
C1124 C 0.50528 0.50794 0.92827 0.0
C1125 C 0.51062 0.48259 0.93613 0.0
C1126 C 0.49197 0.51219 0.90513 0.0
C1127 C 0.48379 0.49119 0.88921 0.0
C1128 C 0.48869 0.46587 0.89737 0.0
C1129 C 0.50194 0.46163 0.92044 0.0
C1130 C 0.46214 0.48135 0.81964 0.0
C1131 C 0.44197 0.49892 0.81737 0.0
C1132 C 0.47622 0.47964 0.84256 0.0
C1133 C 0.47046 0.49533 0.86403 0.0
C1134 C 0.45127 0.514 0.86138 0.0
C1135 C 0.43717 0.51581 0.83824 0.0
H1136 H 0.74803 0.78718 0.15897 0.0
H1137 H 0.66494 0.77961 0.15177 0.0
H1138 H 0.75283 0.75613 0.12372 0.0
H1139 H 0.66975 0.74749 0.11719 0.0
H1140 H 0.68887 0.71078 0.0384 0.0
H1141 H 0.68333 0.74282 0.07284 0.0
H1142 H 0.74709 0.71073 0.11477 0.0
H1143 H 0.75308 0.67923 0.0802 0.0
C1144 C 0.73075 0.77896 0.14981 0.0
C1145 C 0.70609 0.78602 0.15821 0.0
C1146 C 0.73351 0.76084 0.12979 0.0
C1147 C 0.71168 0.74915 0.11763 0.0
C1148 C 0.68699 0.75627 0.12593 0.0
C1149 C 0.68422 0.77447 0.14598 0.0
C1150 C 0.70175 0.71057 0.05493 0.0
C1151 C 0.72153 0.69244 0.05636 0.0
C1152 C 0.69845 0.72887 0.07479 0.0
C1153 C 0.71481 0.72947 0.09659 0.0
C1154 C 0.73441 0.71118 0.09809 0.0
C1155 C 0.73775 0.69296 0.07826 0.0
H1156 H 0.049 0.02312 0.11834 0.0
H1157 H 0.98049 0.04615 0.0774 0.0
H1158 H 0.02265 0.01202 0.15562 0.0
H1159 H 0.95438 0.03578 0.11504 0.0
H1160 H 0.92213 0.04184 0.19751 0.0
H1161 H 0.94914 0.05242 0.16055 0.0
H1162 H 0.9876 0.97968 0.16801 0.0
H1163 H 0.96059 0.96895 0.20502 0.0
C1164 C 0.02833 0.02564 0.11714 0.0
C1165 C 0.01697 0.0356 0.09472 0.0
C1166 C 0.01324 0.01935 0.13859 0.0
C1167 C 0.98645 0.02313 0.13833 0.0
C1168 C 0.97504 0.03302 0.11598 0.0
C1169 C 0.99007 0.03904 0.09442 0.0
C1170 C 0.93644 0.02812 0.19143 0.0
C1171 C 0.93915 1.00452 0.20435 0.0
C1172 C 0.95178 0.03413 0.1701 0.0
C1173 C 0.97044 0.01685 0.16129 0.0
C1174 C 0.97351 0.99348 0.17444 0.0
C1175 C 0.95795 0.9873 0.1956 0.0
H1176 H 0.30979 0.71524 0.12672 0.0
H1177 H 0.32321 0.77438 0.18548 0.0
H1178 H 0.30148 0.74866 0.09521 0.0
H1179 H 0.31586 0.8079 0.15371 0.0
H1180 H 0.26854 0.85679 0.09667 0.0
H1181 H 0.28058 0.82529 0.12894 0.0
H1182 H 0.32264 0.78289 0.07112 0.0
H1183 H 0.31016 0.81411 0.03876 0.0
C1184 C 0.31103 0.73538 0.13291 0.0
C1185 C 0.31711 0.74208 0.15866 0.0
C1186 C 0.30659 0.75459 0.11475 0.0
C1187 C 0.30808 0.78103 0.12186 0.0
C1188 C 0.31434 0.78774 0.14759 0.0
C1189 C 0.31882 0.76852 0.16575 0.0
C1190 C 0.28063 0.84093 0.09091 0.0
C1191 C 0.28828 0.83791 0.0651 0.0
C1192 C 0.28761 0.82288 0.10945 0.0
C1193 C 0.30241 0.80138 0.10262 0.0
C1194 C 0.31084 0.79893 0.07698 0.0
C1195 C 0.30386 0.81697 0.05845 0.0
H1196 H 0.99926 0.53272 0.09108 0.0
H1197 H 0.01936 0.45205 0.09568 0.0
H1198 H 0.02507 0.54249 0.129 0.0
H1199 H 0.048 0.4625 0.13152 0.0
H1200 H 0.08258 0.48232 0.2097 0.0
H1201 H 0.05321 0.47191 0.17396 0.0
H1202 H 0.06477 0.54982 0.14538 0.0
H1203 H 0.09186 0.56059 0.1823 0.0
C1204 C 0.0092 0.51696 0.10001 0.0
C1205 C 1.00684 0.49147 0.09001 0.0
C1206 C 0.02468 0.52274 0.12166 0.0
C1207 C 0.03911 0.50344 0.13362 0.0
C1208 C 0.03701 0.47799 0.12341 0.0
C1209 C 0.02088 0.47205 0.10225 0.0
C1210 C 0.07862 0.49721 0.19581 0.0
C1211 C 0.08966 0.52226 0.19886 0.0
C1212 C 0.06192 0.49121 0.17505 0.0
C1213 C 0.0564 0.5099 0.15632 0.0
C1214 C 0.06775 0.53491 0.15945 0.0
C1215 C 0.08372 0.54109 0.18062 0.0
H1216 H 0.34817 0.68714 0.26477 0.0
H1217 H 0.39363 0.72938 0.20854 0.0
H1218 H 0.38352 0.69221 0.29564 0.0
H1219 H 0.4276 0.73668 0.24078 0.0
H1220 H 0.45548 0.77317 0.32216 0.0
H1221 H 0.4243 0.7626 0.28767 0.0
H1222 H 0.43617 0.68101 0.29873 0.0
H1223 H 0.4682 0.69174 0.33295 0.0
C1224 C 0.36559 0.69731 0.25872 0.0
C1225 C 0.36767 0.70788 0.23383 0.0
C1226 C 0.38576 0.70043 0.27668 0.0
C1227 C 0.40805 0.71506 0.27063 0.0
C1228 C 0.41043 0.72549 0.24591 0.0
C1229 C 0.3907 0.72157 0.22759 0.0
C1230 C 0.45147 0.75298 0.31712 0.0
C1231 C 0.46369 0.73319 0.33042 0.0
C1232 C 0.43382 0.74697 0.29733 0.0
C1233 C 0.42791 0.72103 0.29064 0.0
C1234 C 0.44044 0.70116 0.30366 0.0
C1235 C 0.45865 0.70724 0.32312 0.0
H1236 H 1.00125 0.41186 0.04267 0.0
H1237 H 0.96947 0.45135 0.97708 0.0
H1238 H 0.00762 0.37349 0.01557 0.0
H1239 H 0.97455 0.41232 0.95068 0.0
H1240 H 0.94981 0.32479 0.9338 0.0
H1241 H 0.95062 0.365 0.95871 0.0
H1242 H 0.03303 0.35992 0.9693 0.0
H1243 H 0.03258 0.31953 0.9433 0.0
C1244 C 0.99598 0.41264 0.02246 0.0
C1245 C 0.9846 0.43487 0.01224 0.0
C1246 C 0.9996 0.39055 0.007 0.0
C1247 C 0.99153 0.39 0.98113 0.0
C1248 C 0.98082 0.41227 0.97066 0.0
C1249 C 0.97765 0.43453 0.98593 0.0
C1250 C 0.96823 0.33209 0.94127 0.0
C1251 C 0.99118 0.31885 0.93644 0.0
C1252 C 0.96863 0.35526 0.95547 0.0
C1253 C 0.99188 0.36558 0.96573 0.0
C1254 C 0.01487 0.35229 0.96147 0.0
C1255 C 0.01459 0.32926 0.94662 0.0
H1256 H 0.66936 0.77366 0.24427 0.0
H1257 H 0.6513 0.85481 0.24142 0.0
H1258 H 0.6371 0.76726 0.27794 0.0
H1259 H 0.61925 0.84849 0.27538 0.0
H1260 H 0.54316 0.81588 0.31324 0.0
H1261 H 0.57648 0.82561 0.28133 0.0
H1262 H 0.63059 0.78014 0.32391 0.0
H1263 H 0.59737 0.77036 0.35574 0.0
C1264 C 0.65842 0.7901 0.25077 0.0
C1265 C 0.66285 0.81473 0.24017 0.0
C1266 C 0.64014 0.78651 0.27025 0.0
C1267 C 0.62571 0.80741 0.27943 0.0
C1268 C 0.62997 0.83199 0.26865 0.0
C1269 C 0.64843 0.83563 0.24934 0.0
C1270 C 0.56229 0.80831 0.31602 0.0
C1271 C 0.56757 0.79228 0.337 0.0
C1272 C 0.58138 0.8139 0.29773 0.0
C1273 C 0.60608 0.80339 0.29994 0.0
C1274 C 0.61162 0.78817 0.32145 0.0
C1275 C 0.59263 0.78277 0.33981 0.0
H1276 H 0.02336 0.11886 0.05193 0.0
H1277 H 0.04746 0.07671 0.98394 0.0
H1278 H 0.01122 0.15509 0.02499 0.0
H1279 H 0.03607 0.11323 0.95731 0.0
H1280 H 0.03966 0.19442 0.92257 0.0
H1281 H 0.05124 0.15908 0.95061 0.0
H1282 H 0.97847 0.16522 0.99012 0.0
H1283 H 0.96668 0.20075 0.96196 0.0
C1284 C 0.02598 0.11718 0.03128 0.0
C1285 C 0.03649 0.09472 0.02021 0.0
C1286 C 0.01906 0.13802 0.01586 0.0
C1287 C 0.02274 0.13707 0.98903 0.0
C1288 C 0.03333 0.11473 0.97797 0.0
C1289 C 0.03998 0.09381 0.99331 0.0
C1290 C 0.02608 0.1884 0.93727 0.0
C1291 C 1.00218 0.20054 0.93993 0.0
C1292 C 0.03271 0.16799 0.95326 0.0
C1293 C 0.01576 0.15927 0.97253 0.0
C1294 C 0.99203 0.17162 0.97556 0.0
C1295 C 0.98524 0.19191 0.95933 0.0
H1296 H 0.3539 0.26452 0.28993 0.0
H1297 H 0.36757 0.34546 0.27271 0.0
H1298 H 0.38552 0.25247 0.25822 0.0
H1299 H 0.39839 0.33309 0.23934 0.0
H1300 H 0.47166 0.29832 0.19951 0.0
H1301 H 0.44083 0.31482 0.2312 0.0
H1302 H 0.38866 0.25016 0.21309 0.0
H1303 H 0.41948 0.23337 0.18276 0.0
C1304 C 0.36374 0.27986 0.27948 0.0
C1305 C 0.35819 0.30604 0.28416 0.0
C1306 C 0.38165 0.27287 0.26086 0.0
C1307 C 0.39433 0.29175 0.24585 0.0
C1308 C 0.38907 0.31802 0.25058 0.0
C1309 C 0.37117 0.32509 0.26952 0.0
C1310 C 0.45351 0.28781 0.20228 0.0
C1311 C 0.44824 0.26432 0.1889 0.0
C1312 C 0.4358 0.29728 0.22036 0.0
C1313 C 0.41244 0.28354 0.22516 0.0
C1314 C 0.40676 0.26085 0.21064 0.0
C1315 C 0.42445 0.25128 0.19302 0.0
H1316 H 0.48786 0.43222 0.01402 0.0
H1317 H 0.5697 0.41826 0.01856 0.0
H1318 H 0.47927 0.39507 0.04189 0.0
H1319 H 0.56114 0.38168 0.04654 0.0
H1320 H 0.54096 0.3366 0.11779 0.0
H1321 H 0.54593 0.37455 0.09076 0.0
H1322 H 0.48237 0.34657 0.04268 0.0
H1323 H 0.47721 0.30844 0.07 0.0
C1324 C 0.50399 0.42118 0.02079 0.0
C1325 C 0.52951 0.42849 0.01424 0.0
C1326 C 0.49906 0.39993 0.0368 0.0
C1327 C 0.51954 0.38561 0.04671 0.0
C1328 C 0.54495 0.39265 0.03975 0.0
C1329 C 0.54986 0.4137 0.0237 0.0
C1330 C 0.52785 0.33859 0.10162 0.0
C1331 C 0.50878 0.31937 0.09599 0.0
C1332 C 0.53082 0.3603 0.08601 0.0
C1333 C 0.51477 0.36345 0.06435 0.0
C1334 C 0.495 0.34476 0.05926 0.0
C1335 C 0.49208 0.32289 0.07488 0.0
H1336 H 0.65105 0.16328 0.27862 0.0
H1337 H 0.65876 0.24674 0.28499 0.0
H1338 H 0.61608 0.1676 0.24726 0.0
H1339 H 0.6231 0.25103 0.25481 0.0
H1340 H 0.57786 0.25113 0.17965 0.0
H1341 H 0.61302 0.2456 0.21019 0.0
H1342 H 0.57179 0.18019 0.24307 0.0
H1343 H 0.53681 0.18524 0.21196 0.0
C1344 C 0.64528 0.18254 0.2734 0.0
C1345 C 0.65777 0.20464 0.28445 0.0
C1346 C 0.625 0.18503 0.25562 0.0
C1347 C 0.61668 0.20968 0.24842 0.0
C1348 C 0.62913 0.23173 0.25957 0.0
C1349 C 0.64941 0.22925 0.27724 0.0
C1350 C 0.5762 0.23554 0.19336 0.0
C1351 C 0.55434 0.21871 0.1933 0.0
C1352 C 0.59638 0.23246 0.21104 0.0
C1353 C 0.59528 0.21253 0.22927 0.0
C1354 C 0.57349 0.19558 0.22915 0.0
C1355 C 0.5533 0.19861 0.21138 0.0
H1356 H 0.5198 0.06912 0.02919 0.0
H1357 H 0.46595 0.11008 0.98218 0.0
H1358 H 0.52761 0.10817 0.05577 0.0
H1359 H 0.47434 0.14958 0.00786 0.0
H1360 H 0.47072 0.20401 0.07838 0.0
H1361 H 0.46557 0.16766 0.04818 0.0
H1362 H 0.54635 0.15051 0.05826 0.0
H1363 H 0.55096 0.18666 0.08934 0.0
C1364 C 0.50983 0.08667 0.02452 0.0
C1365 C 0.49219 0.08675 1.0039 0.0
C1366 C 0.51444 0.10912 0.03953 0.0
C1367 C 0.50163 0.1322 0.03406 0.0
C1368 C 0.48425 0.13217 0.01301 0.0
C1369 C 0.47949 0.10964 0.99819 0.0
C1370 C 0.48731 0.19236 0.07411 0.0
C1371 C 0.51094 0.19733 0.08683 0.0
C1372 C 0.48451 0.17172 0.0565 0.0
C1373 C 0.50545 0.15575 0.05093 0.0
C1374 C 0.52961 0.1619 0.06255 0.0
C1375 C 0.53236 0.18266 0.0802 0.0
H1376 H 0.25165 0.36636 0.67351 0.0
H1377 H 0.23259 0.36942 0.75466 0.0
H1378 H 0.28431 0.40016 0.68064 0.0
H1379 H 0.26174 0.40575 0.76071 0.0
H1380 H 0.3345 0.45205 0.77468 0.0
H1381 H 0.30228 0.41822 0.76666 0.0
H1382 H 0.29629 0.44228 0.68713 0.0
H1383 H 0.33098 0.47462 0.69515 0.0
C1384 C 0.25407 0.37423 0.69284 0.0
C1385 C 0.23911 0.36464 0.71343 0.0
C1386 C 0.27258 0.39427 0.69684 0.0
C1387 C 0.2761 0.40605 0.72135 0.0
C1388 C 0.2605 0.39701 0.74165 0.0
C1389 C 0.24289 0.37633 0.73793 0.0
C1390 C 0.32665 0.44964 0.75535 0.0
C1391 C 0.33606 0.46495 0.73524 0.0
C1392 C 0.30755 0.43056 0.75076 0.0
C1393 C 0.29631 0.42702 0.72608 0.0
C1394 C 0.30483 0.4436 0.70621 0.0
C1395 C 0.32453 0.46237 0.71078 0.0
H1396 H 0.24705 0.66944 0.77184 0.0
H1397 H 0.24505 0.65077 0.85271 0.0
H1398 H 0.28121 0.6383 0.7652 0.0
H1399 H 0.27951 0.61991 0.84616 0.0
H1400 H 0.31847 0.5451 0.81441 0.0
H1401 H 0.28609 0.57743 0.82408 0.0
H1402 H 0.32728 0.63281 0.77685 0.0
H1403 H 0.35954 0.60057 0.76711 0.0
C1404 C 0.25386 0.65865 0.78818 0.0
C1405 C 0.24332 0.6626 0.81279 0.0
C1406 C 0.27363 0.641 0.78444 0.0
C1407 C 0.28318 0.62669 0.80518 0.0
C1408 C 0.27251 0.63051 0.82976 0.0
C1409 C 0.25291 0.64834 0.83354 0.0
C1410 C 0.32083 0.5643 0.80642 0.0
C1411 C 0.34158 0.5702 0.78993 0.0
C1412 C 0.30228 0.58284 0.81197 0.0
C1413 C 0.30395 0.60762 0.801 0.0
C1414 C 0.3252 0.61377 0.78526 0.0
C1415 C 0.34382 0.59534 0.77987 0.0
H1416 H 0.9446 0.50031 0.52018 0.0
H1417 H 0.92083 0.52417 0.44454 0.0
H1418 H 0.90454 0.47418 0.52412 0.0
H1419 H 0.88036 0.49969 0.44881 0.0
H1420 H 0.82522 0.43242 0.44764 0.0
H1421 H 0.86491 0.4577 0.44707 0.0
H1422 H 0.85902 0.47189 0.52919 0.0
H1423 H 0.81938 0.44466 0.52997 0.0
C1424 C 0.93063 0.50009 0.50452 0.0
C1425 C 0.93593 0.51381 0.48186 0.0
C1426 C 0.90758 0.48531 0.50682 0.0
C1427 C 0.88917 0.48434 0.48664 0.0
C1428 C 0.89428 0.49907 0.46445 0.0
C1429 C 0.91745 0.5133 0.46198 0.0
C1430 C 0.83223 0.44081 0.46571 0.0
C1431 C 0.81885 0.43656 0.48886 0.0
C1432 C 0.85508 0.45568 0.46532 0.0
C1433 C 0.86516 0.4675 0.48796 0.0
C1434 C 0.85201 0.46305 0.51133 0.0
C1435 C 0.82918 0.44756 0.5118 0.0
H1436 H 0.78355 0.8552 0.77486 0.0
H1437 H 0.78701 0.87997 0.85475 0.0
H1438 H 0.75129 0.88761 0.76627 0.0
H1439 H 0.75416 0.91203 0.84628 0.0
H1440 H 0.71589 0.98486 0.81181 0.0
H1441 H 0.74781 0.95273 0.8229 0.0
H1442 H 0.70591 0.89519 0.77657 0.0
H1443 H 0.6742 0.92731 0.76528 0.0
C1444 C 0.77761 0.86774 0.79055 0.0
C1445 C 0.78794 0.86504 0.81548 0.0
C1446 C 0.75883 0.88608 0.78571 0.0
C1447 C 0.74994 0.90227 0.80564 0.0
C1448 C 0.76063 0.89994 0.83048 0.0
C1449 C 0.77934 0.88147 0.83536 0.0
C1450 C 0.71331 0.96526 0.80426 0.0
C1451 C 0.69254 0.95869 0.78758 0.0
C1452 C 0.7316 0.94683 0.81065 0.0
C1453 C 0.72959 0.92145 0.80039 0.0
C1454 C 0.7083 0.91469 0.78442 0.0
C1455 C 0.68999 0.93306 0.77814 0.0
H1456 H 0.56829 0.53257 0.01724 0.0
H1457 H 0.61141 0.47966 0.97032 0.0
H1458 H 0.60784 0.55843 0.02611 0.0
H1459 H 0.65116 0.50508 0.97931 0.0
H1460 H 0.70766 0.57535 0.9739 0.0
H1461 H 0.67053 0.54568 0.96837 0.0
H1462 H 0.64923 0.55952 0.04779 0.0
H1463 H 0.68642 0.58978 0.05291 0.0
C1464 C 0.58635 0.52656 0.00891 0.0
C1465 C 0.587 0.50442 0.99297 0.0
C1466 C 0.60903 0.54117 0.0141 0.0
C1467 C 0.63276 0.53394 1.00336 0.0
C1468 C 0.63323 0.51148 0.98761 0.0
C1469 C 0.61057 0.49687 0.98249 0.0
C1470 C 0.69499 0.57197 0.99013 0.0
C1471 C 0.69919 0.58543 0.01352 0.0
C1472 C 0.67388 0.55472 0.98711 0.0
C1473 C 0.65661 0.55039 0.00754 0.0
C1474 C 0.66179 0.56283 0.03148 0.0
C1475 C 0.68309 0.58001 0.03451 0.0
H1476 H 0.2557 0.6799 0.18829 0.0
H1477 H 0.31707 0.62978 0.21185 0.0
H1478 H 0.22438 0.64463 0.19474 0.0
H1479 H 0.28497 0.59537 0.22027 0.0
H1480 H 0.20437 0.57202 0.26847 0.0
H1481 H 0.23791 0.60395 0.25621 0.0
H1482 H 0.22282 0.58635 0.17587 0.0
H1483 H 0.18961 0.55371 0.1882 0.0
C1484 C 0.26269 0.66139 0.19448 0.0
C1485 C 0.28915 0.65797 0.19963 0.0
C1486 C 0.24457 0.64127 0.19841 0.0
C1487 C 0.25231 0.6175 0.20814 0.0
C1488 C 0.27861 0.61367 0.21284 0.0
C1489 C 0.2969 0.63355 0.20828 0.0
C1490 C 0.20824 0.57502 0.2482 0.0
C1491 C 0.1941 0.561 0.2292 0.0
C1492 C 0.22747 0.59307 0.24124 0.0
C1493 C 0.23276 0.59749 0.21516 0.0
C1494 C 0.21894 0.5832 0.1961 0.0
C1495 C 0.20004 0.56467 0.20311 0.0
H1496 H 0.91656 0.51313 0.07633 0.0
H1497 H 0.93269 0.50986 0.99472 0.0
H1498 H 0.88038 0.54113 0.06807 0.0
H1499 H 0.89616 0.53766 0.98646 0.0
H1500 H 0.81147 0.56663 0.98229 0.0
H1501 H 0.84829 0.5385 0.98845 0.0
H1502 H 0.87354 0.58561 0.05388 0.0
H1503 H 0.83681 0.61347 0.04789 0.0
C1504 C 0.91251 0.51848 0.05663 0.0
C1505 C 0.92776 0.50934 0.03624 0.0
C1506 C 0.89172 0.53455 0.05189 0.0
C1507 C 0.88547 0.54185 0.02661 0.0
C1508 C 0.9003 0.53226 0.00613 0.0
C1509 C 0.92122 0.51626 0.01089 0.0
C1510 C 0.82503 0.57111 0.99782 0.0
C1511 C 0.82113 0.59227 0.01464 0.0
C1512 C 0.84616 0.55501 1.00133 0.0
C1513 C 0.86373 0.55963 0.02184 0.0
C1514 C 0.86013 0.5812 0.03819 0.0
C1515 C 0.83916 0.59732 0.03461 0.0
H1516 H 0.09221 0.02713 0.99629 0.0
H1517 H 0.10107 1.0052 0.07599 0.0
H1518 H 0.12913 1.00192 0.98491 0.0
H1519 H 0.13589 0.97731 0.06402 0.0
H1520 H 0.21215 0.94382 0.04124 0.0
H1521 H 0.1777 0.97278 0.053 0.0
H1522 H 0.14428 0.96225 0.97666 0.0
H1523 H 0.17996 0.93534 0.96452 0.0
C1524 C 0.10189 0.01696 0.01151 0.0
C1525 C 0.09331 0.01854 0.0372 0.0
C1526 C 0.12295 1.00184 1.0048 0.0
C1527 C 0.13576 0.98707 0.02337 0.0
C1528 C 0.12708 0.98855 0.04904 0.0
C1529 C 0.1065 1.00427 0.05589 0.0
C1530 C 0.19747 0.94788 0.02697 0.0
C1531 C 0.19882 0.93719 1.00196 0.0
C1532 C 0.17745 0.96437 0.03377 0.0
C1533 C 0.15774 0.97006 0.01594 0.0
C1534 C 0.15917 0.95909 0.99093 0.0
C1535 C 0.1796 0.94327 0.98395 0.0
loop_
_geom_bond_atom_site_label_1
_geom_bond_atom_site_label_2
_geom_bond_distance
_geom_bond_site_symmetry_2
_ccdc_geom_bond_type
H0 C3 0.931 . S
H1 C6 0.928 . S
H2 C8 0.931 1_556 S
C3 H0 0.931 . S
C3 C4 1.413 . S
C3 C5 1.360 . S
C4 C3 1.413 . S
C4 C8 1.429 . S
C5 C3 1.360 . S
C5 C6 1.372 . S
C6 H1 0.928 . S
C6 C5 1.372 . S
C6 C7 1.404 . S
C7 C6 1.404 . S
C7 C8 1.391 . S
C8 H2 0.931 1_554 S
C8 C4 1.429 . S
C8 C7 1.391 . S
H9 C12 0.931 . S
H10 C15 0.928 . S
H11 C17 0.930 . S
C12 H9 0.931 . S
C12 C13 1.413 . S
C12 C14 1.360 . S
C13 C12 1.413 . S
C13 C17 1.429 . S
C14 C12 1.360 . S
C14 C15 1.372 . S
C15 H10 0.928 . S
C15 C14 1.372 . S
C15 C16 1.404 . S
C16 C15 1.404 . S
C16 C17 1.391 . S
C17 H11 0.930 . S
C17 C13 1.429 . S
C17 C16 1.391 . S
H18 C21 0.931 . S
H19 C24 0.928 1_455 S
H20 C26 0.921 1_556 S
C21 H18 0.931 . S
C21 C22 1.413 . S
C21 C23 1.360 . S
C22 C21 1.413 . S
C22 C26 1.429 . S
C23 C21 1.360 . S
C23 C24 1.372 . S
C24 H19 0.928 1_655 S
C24 C23 1.372 . S
C24 C25 1.404 . S
C25 C24 1.404 . S
C25 C26 1.391 . S
C26 H20 0.921 1_554 S
C26 C22 1.429 . S
C26 C25 1.391 . S
H27 C30 0.931 . S
H28 C33 0.928 . S
H29 C35 0.930 . S
C30 H27 0.931 . S
C30 C31 1.413 . S
C30 C32 1.360 . S
C31 C30 1.413 . S
C31 C35 1.429 . S
C32 C30 1.360 . S
C32 C33 1.372 . S
C33 H28 0.928 . S
C33 C32 1.372 . S
C33 C34 1.404 . S
C34 C33 1.404 . S
C34 C35 1.391 . S
C35 H29 0.930 . S
C35 C31 1.429 . S
C35 C34 1.391 . S
H36 C39 0.931 . S
H37 C42 0.928 1_545 S
H38 C44 0.930 . S
C39 H36 0.931 . S
C39 C40 1.413 . S
C39 C41 1.360 . S
C40 C39 1.413 . S
C40 C44 1.429 . S
C41 C39 1.360 . S
C41 C42 1.372 . S
C42 H37 0.928 1_565 S
C42 C41 1.372 . S
C42 C43 1.404 . S
C43 C42 1.404 . S
C43 C44 1.391 . S
C44 H38 0.930 . S
C44 C40 1.429 . S
C44 C43 1.391 . S
H45 C48 0.931 . S
H46 C51 0.928 . S
H47 C53 0.930 . S
C48 H45 0.931 . S
C48 C49 1.413 . S
C48 C50 1.360 . S
C49 C48 1.413 . S
C49 C53 1.429 . S
C50 C48 1.360 . S
C50 C51 1.372 . S
C51 H46 0.928 . S
C51 C50 1.372 . S
C51 C52 1.404 . S
C52 C51 1.404 . S
C52 C53 1.391 . S
C53 H47 0.930 . S
C53 C49 1.429 . S
C53 C52 1.391 . S
H54 C57 0.931 . S
H55 C60 0.928 1_455 S
H56 C62 0.930 . S
C57 H54 0.931 . S
C57 C58 1.413 . S
C57 C59 1.360 . S
C58 C57 1.413 . S
C58 C62 1.429 . S
C59 C57 1.360 . S
C59 C60 1.372 . S
C60 H55 0.928 1_655 S
C60 C59 1.372 . S
C60 C61 1.404 . S
C61 C60 1.404 . S
C61 C62 1.391 . S
C62 H56 0.930 . S
C62 C58 1.429 . S
C62 C61 1.391 . S
H63 C66 0.931 . S
H64 C69 0.928 . S
H65 C71 0.930 . S
C66 H63 0.931 . S
C66 C67 1.413 . S
C66 C68 1.360 . S
C67 C66 1.413 . S
C67 C71 1.429 . S
C68 C66 1.360 . S
C68 C69 1.372 . S
C69 H64 0.928 . S
C69 C68 1.372 . S
C69 C70 1.404 . S
C70 C69 1.404 . S
C70 C71 1.391 . S
C71 H65 0.930 . S
C71 C67 1.429 . S
C71 C70 1.391 . S
H72 C75 0.931 . S
H73 C78 0.928 . S
H74 C80 0.930 . S
C75 H72 0.931 . S
C75 C76 1.413 . S
C75 C77 1.360 . S
C76 C75 1.413 . S
C76 C80 1.429 . S
C77 C75 1.360 . S
C77 C78 1.372 . S
C78 H73 0.928 . S
C78 C77 1.372 . S
C78 C79 1.404 . S
C79 C78 1.404 . S
C79 C80 1.391 . S
C80 H74 0.930 . S
C80 C76 1.429 . S
C80 C79 1.391 . S
H81 C84 0.931 1_545 S
H82 C87 0.928 . S
H83 C89 0.930 . S
C84 H81 0.931 1_565 S
C84 C85 1.413 . S
C84 C86 1.360 . S
C85 C84 1.413 . S
C85 C89 1.429 . S
C86 C84 1.360 . S
C86 C87 1.372 . S
C87 H82 0.928 . S
C87 C86 1.372 . S
C87 C88 1.404 . S
C88 C87 1.404 . S
C88 C89 1.391 . S
C89 H83 0.930 . S
C89 C85 1.429 . S
C89 C88 1.391 . S
H90 C93 0.931 . S
H91 C96 0.928 . S
H92 C98 0.930 . S
C93 H90 0.931 . S
C93 C94 1.413 . S
C93 C95 1.360 . S
C94 C93 1.413 . S
C94 C98 1.429 . S
C95 C93 1.360 . S
C95 C96 1.372 . S
C96 H91 0.928 . S
C96 C95 1.372 . S
C96 C97 1.404 . S
C97 C96 1.404 . S
C97 C98 1.391 . S
C98 H92 0.930 . S
C98 C94 1.429 . S
C98 C97 1.391 . S
H99 C102 0.931 . S
H100 C105 0.928 . S
H101 C107 0.930 . S
C102 H99 0.931 . S
C102 C103 1.413 . S
C102 C104 1.360 . S
C103 C102 1.413 . S
C103 C107 1.429 . S
C104 C102 1.360 . S
C104 C105 1.372 . S
C105 H100 0.928 . S
C105 C104 1.372 . S
C105 C106 1.404 . S
C106 C105 1.404 . S
C106 C107 1.391 . S
C107 H101 0.930 . S
C107 C103 1.429 . S
C107 C106 1.391 . S
H108 C111 0.931 . S
H109 C114 0.928 . S
H110 C116 0.930 . S
C111 H108 0.931 . S
C111 C112 1.413 . S
C111 C113 1.360 . S
C112 C111 1.413 . S
C112 C116 1.429 . S
C113 C111 1.360 . S
C113 C114 1.372 . S
C114 H109 0.928 . S
C114 C113 1.372 . S
C114 C115 1.404 . S
C115 C114 1.404 . S
C115 C116 1.391 . S
C116 H110 0.930 . S
C116 C112 1.429 . S
C116 C115 1.391 . S
H117 C120 0.931 . S
H118 C123 0.928 . S
H119 C125 0.930 1_554 S
C120 H117 0.931 . S
C120 C121 1.413 . S
C120 C122 1.360 . S
C121 C120 1.413 . S
C121 C125 1.429 . S
C122 C120 1.360 . S
C122 C123 1.372 . S
C123 H118 0.928 . S
C123 C122 1.372 . S
C123 C124 1.404 . S
C124 C123 1.404 . S
C124 C125 1.391 . S
C125 H119 0.930 1_556 S
C125 C121 1.429 . S
C125 C124 1.391 . S
H126 C129 0.931 . S
H127 C132 0.928 . S
H128 C134 0.930 . S
C129 H126 0.931 . S
C129 C130 1.413 . S
C129 C131 1.360 . S
C130 C129 1.413 . S
C130 C134 1.429 . S
C131 C129 1.360 . S
C131 C132 1.372 . S
C132 H127 0.928 . S
C132 C131 1.372 . S
C132 C133 1.404 . S
C133 C132 1.404 . S
C133 C134 1.391 . S
C134 H128 0.930 . S
C134 C130 1.429 . S
C134 C133 1.391 . S
H135 C138 0.931 1_554 S
H136 C141 0.928 . S
H137 C143 0.930 . S
C138 H135 0.931 1_556 S
C138 C139 1.413 . S
C138 C140 1.360 . S
C139 C138 1.413 . S
C139 C143 1.429 . S
C140 C138 1.360 . S
C140 C141 1.372 . S
C141 H136 0.928 . S
C141 C140 1.372 . S
C141 C142 1.404 . S
C142 C141 1.404 . S
C142 C143 1.391 . S
C143 H137 0.930 . S
C143 C139 1.429 . S
C143 C142 1.391 . S
Mn144 O149 2.095 . S
Mn144 O159 2.162 . S
Mn144 O160 2.297 . S
Mn144 O168 2.385 1_554 S
Mn144 O169 2.209 1_554 S
Mn144 O170 2.094 . S
Mn145 O150 2.121 . S
Mn145 N152 2.257 . S
Mn145 N161 2.282 . S
Mn145 O169 2.215 . S
Mn145 O171 2.117 . S
C146 O168 1.234 . S
C146 O169 1.283 . S
C147 O159 1.281 . S
C147 O160 1.236 . S
C148 O170 1.240 . S
C148 O171 1.264 1_554 S
O149 Mn144 2.095 . S
O149 C158 1.241 1_554 S
O150 Mn145 2.121 . S
O150 C158 1.270 . S
C151 N152 1.326 . S
C151 C155 1.460 . S
C151 H157 0.929 . S
N152 Mn145 2.257 . S
N152 C151 1.326 . S
N152 C156 1.362 . S
C153 C154 1.258 . S
C153 C156 1.431 . S
C153 C173 1.449 . S
C154 C153 1.258 . S
C154 C155 1.477 . S
C154 H174 0.931 . S
C155 C151 1.460 . S
C155 C154 1.477 . S
C155 H175 0.930 . S
C156 N152 1.362 . S
C156 C153 1.431 . S
C156 C166 1.476 . S
H157 C151 0.929 . S
C158 O149 1.241 1_556 S
C158 O150 1.270 . S
O159 Mn144 2.162 . S
O159 C147 1.281 . S
O160 Mn144 2.297 . S
O160 C147 1.236 . S
N161 Mn145 2.282 . S
N161 C162 1.328 . S
N161 C166 1.318 . S
C162 N161 1.328 . S
C162 C163 1.457 . S
C162 H167 0.929 . S
C163 C162 1.457 . S
C163 C164 1.291 . S
C163 H176 0.931 . S
C164 C163 1.291 . S
C164 C165 1.373 . S
C164 H177 0.929 . S
C165 C164 1.373 . S
C165 C166 1.396 . S
C165 C172 1.403 . S
C166 C156 1.476 . S
C166 N161 1.318 . S
C166 C165 1.396 . S
H167 C162 0.929 . S
O168 Mn144 2.385 1_556 S
O168 C146 1.234 . S
O169 Mn144 2.209 1_556 S
O169 Mn145 2.215 . S
O169 C146 1.283 . S
O170 Mn144 2.094 . S
O170 C148 1.240 . S
O171 Mn145 2.117 . S
O171 C148 1.264 1_556 S
C172 C165 1.403 . S
C172 C173 1.399 . S
C172 H178 0.929 . S
C173 C153 1.449 . S
C173 C172 1.399 . S
C173 H179 0.930 . S
H174 C154 0.931 . S
H175 C155 0.930 . S
H176 C163 0.931 . S
H177 C164 0.929 . S
H178 C172 0.929 . S
H179 C173 0.930 . S
Mn180 O185 2.095 . S
Mn180 O195 2.162 . S
Mn180 O196 2.297 . S
Mn180 O204 2.385 . S
Mn180 O205 2.209 . S
Mn180 O206 2.094 . S
Mn181 O186 2.121 . S
Mn181 N188 2.257 . S
Mn181 N197 2.282 . S
Mn181 O205 2.215 . S
Mn181 O207 2.117 . S
C182 O204 1.234 . S
C182 O205 1.283 . S
C183 O195 1.281 . S
C183 O196 1.236 . S
C184 O206 1.240 . S
C184 O207 1.264 . S
O185 Mn180 2.095 . S
O185 C194 1.250 . S
O186 Mn181 2.121 . S
O186 C194 1.258 . S
C187 N188 1.326 . S
C187 C191 1.460 . S
C187 H193 0.929 . S
N188 Mn181 2.257 . S
N188 C187 1.326 . S
N188 C192 1.362 . S
C189 C190 1.258 . S
C189 C192 1.431 . S
C189 C209 1.449 . S
C190 C189 1.258 . S
C190 C191 1.477 . S
C190 H210 0.931 . S
C191 C187 1.460 . S
C191 C190 1.477 . S
C191 H211 0.930 . S
C192 N188 1.362 . S
C192 C189 1.431 . S
C192 C202 1.476 . S
H193 C187 0.929 . S
C194 O185 1.250 . S
C194 O186 1.258 . S
O195 Mn180 2.162 . S
O195 C183 1.281 . S
O196 Mn180 2.297 . S
O196 C183 1.236 . S
N197 Mn181 2.282 . S
N197 C198 1.328 . S
N197 C202 1.318 . S
C198 N197 1.328 . S
C198 C199 1.457 . S
C198 H203 0.929 . S
C199 C198 1.457 . S
C199 C200 1.291 . S
C199 H212 0.931 . S
C200 C199 1.291 . S
C200 C201 1.373 . S
C200 H213 0.929 . S
C201 C200 1.373 . S
C201 C202 1.396 . S
C201 C208 1.403 . S
C202 C192 1.476 . S
C202 N197 1.318 . S
C202 C201 1.396 . S
H203 C198 0.929 . S
O204 Mn180 2.385 . S
O204 C182 1.234 . S
O205 Mn180 2.209 . S
O205 Mn181 2.215 . S
O205 C182 1.283 . S
O206 Mn180 2.094 . S
O206 C184 1.240 . S
O207 Mn181 2.117 . S
O207 C184 1.264 . S
C208 C201 1.403 . S
C208 C209 1.399 . S
C208 H214 0.929 . S
C209 C189 1.449 . S
C209 C208 1.399 . S
C209 H215 0.930 . S
H210 C190 0.931 . S
H211 C191 0.930 . S
H212 C199 0.931 . S
H213 C200 0.929 . S
H214 C208 0.929 . S
H215 C209 0.930 . S
Mn216 O221 2.095 1_554 S
Mn216 O231 2.162 . S
Mn216 O232 2.297 1_554 S
Mn216 O240 2.385 . S
Mn216 O241 2.209 1_554 S
Mn216 O242 2.094 . S
Mn217 O222 2.121 . S
Mn217 N224 2.257 . S
Mn217 N233 2.282 . S
Mn217 O241 2.215 . S
Mn217 O243 2.117 1_556 S
C218 O240 1.270 . S
C218 O241 1.258 1_554 S
C219 O231 1.281 . S
C219 O232 1.236 1_554 S
C220 O242 1.240 . S
C220 O243 1.264 . S
O221 Mn216 2.095 1_556 S
O221 C230 1.250 . S
O222 Mn217 2.121 . S
O222 C230 1.258 . S
C223 N224 1.326 . S
C223 C227 1.460 . S
C223 H229 0.929 . S
N224 Mn217 2.257 . S
N224 C223 1.326 . S
N224 C228 1.362 . S
C225 C226 1.258 . S
C225 C228 1.431 . S
C225 C245 1.449 . S
C226 C225 1.258 . S
C226 C227 1.477 . S
C226 H246 0.931 . S
C227 C223 1.460 . S
C227 C226 1.477 . S
C227 H247 0.930 . S
C228 N224 1.362 . S
C228 C225 1.431 . S
C228 C238 1.476 . S
H229 C223 0.929 . S
C230 O221 1.250 . S
C230 O222 1.258 . S
O231 Mn216 2.162 . S
O231 C219 1.281 . S
O232 Mn216 2.297 1_556 S
O232 C219 1.236 1_556 S
N233 Mn217 2.282 . S
N233 C234 1.328 1_556 S
N233 C238 1.318 . S
C234 N233 1.328 1_554 S
C234 C235 1.457 . S
C234 H239 0.929 . S
C235 C234 1.457 . S
C235 C236 1.291 . S
C235 H248 0.931 . S
C236 C235 1.291 . S
C236 C237 1.373 1_554 S
C236 H249 0.929 . S
C237 C236 1.373 1_556 S
C237 C238 1.396 . S
C237 C244 1.403 . S
C238 C228 1.476 . S
C238 N233 1.318 . S
C238 C237 1.396 . S
H239 C234 0.929 . S
O240 Mn216 2.385 . S
O240 C218 1.270 . S
O241 Mn216 2.209 1_556 S
O241 Mn217 2.215 . S
O241 C218 1.258 1_556 S
O242 Mn216 2.094 . S
O242 C220 1.240 . S
O243 Mn217 2.117 1_554 S
O243 C220 1.264 . S
C244 C237 1.403 . S
C244 C245 1.399 . S
C244 H250 0.929 . S
C245 C225 1.449 . S
C245 C244 1.399 . S
C245 H251 0.930 . S
H246 C226 0.931 . S
H247 C227 0.930 . S
H248 C235 0.931 . S
H249 C236 0.929 . S
H250 C244 0.929 . S
H251 C245 0.930 . S
Mn252 O257 2.095 . S
Mn252 O267 2.162 . S
Mn252 O268 2.297 . S
Mn252 O276 2.385 1_545 S
Mn252 O277 2.209 1_545 S
Mn252 O278 2.094 . S
Mn253 O258 2.121 . S
Mn253 N260 2.257 . S
Mn253 N269 2.282 . S
Mn253 O277 2.215 . S
Mn253 O279 2.117 . S
C254 O276 1.234 . S
C254 O277 1.283 . S
C255 O267 1.281 . S
C255 O268 1.236 . S
C256 O278 1.240 . S
C256 O279 1.264 1_545 S
O257 Mn252 2.095 . S
O257 C266 1.250 1_545 S
O258 Mn253 2.121 . S
O258 C266 1.258 . S
C259 N260 1.326 . S
C259 C263 1.460 . S
C259 H265 0.929 . S
N260 Mn253 2.257 . S
N260 C259 1.326 . S
N260 C264 1.362 . S
C261 C262 1.258 . S
C261 C264 1.431 . S
C261 C281 1.449 . S
C262 C261 1.258 . S
C262 C263 1.477 . S
C262 H282 0.931 . S
C263 C259 1.460 . S
C263 C262 1.477 . S
C263 H283 0.930 . S
C264 N260 1.362 . S
C264 C261 1.431 . S
C264 C274 1.476 . S
H265 C259 0.929 . S
C266 O257 1.250 1_565 S
C266 O258 1.258 . S
O267 Mn252 2.162 . S
O267 C255 1.281 . S
O268 Mn252 2.297 . S
O268 C255 1.236 . S
N269 Mn253 2.282 . S
N269 C270 1.328 . S
N269 C274 1.318 . S
C270 N269 1.328 . S
C270 C271 1.457 . S
C270 H275 0.929 . S
C271 C270 1.457 . S
C271 C272 1.291 . S
C271 H284 0.931 . S
C272 C271 1.291 . S
C272 C273 1.373 . S
C272 H285 0.929 . S
C273 C272 1.373 . S
C273 C274 1.396 . S
C273 C280 1.403 . S
C274 C264 1.476 . S
C274 N269 1.318 . S
C274 C273 1.396 . S
H275 C270 0.929 . S
O276 Mn252 2.385 1_565 S
O276 C254 1.234 . S
O277 Mn252 2.209 1_565 S
O277 Mn253 2.215 . S
O277 C254 1.283 . S
O278 Mn252 2.094 . S
O278 C256 1.240 . S
O279 Mn253 2.117 . S
O279 C256 1.264 1_565 S
C280 C273 1.403 . S
C280 C281 1.399 . S
C280 H286 0.929 . S
C281 C261 1.449 . S
C281 C280 1.399 . S
C281 H287 0.930 . S
H282 C262 0.931 . S
H283 C263 0.930 . S
H284 C271 0.931 . S
H285 C272 0.929 . S
H286 C280 0.929 . S
H287 C281 0.930 . S
Mn288 O293 2.095 . S
Mn288 O303 2.162 . S
Mn288 O304 2.297 . S
Mn288 O312 2.385 . S
Mn288 O313 2.209 . S
Mn288 O314 2.094 . S
Mn289 O294 2.121 . S
Mn289 N296 2.257 . S
Mn289 N305 2.282 . S
Mn289 O313 2.215 . S
Mn289 O315 2.117 . S
C290 O312 1.234 . S
C290 O313 1.283 . S
C291 O303 1.281 . S
C291 O304 1.236 . S
C292 O314 1.240 . S
C292 O315 1.264 . S
O293 Mn288 2.095 . S
O293 C302 1.250 . S
O294 Mn289 2.121 . S
O294 C302 1.258 . S
C295 N296 1.326 . S
C295 C299 1.460 . S
C295 H301 0.929 . S
N296 Mn289 2.257 . S
N296 C295 1.326 . S
N296 C300 1.362 . S
C297 C298 1.258 . S
C297 C300 1.431 . S
C297 C317 1.449 . S
C298 C297 1.258 . S
C298 C299 1.477 . S
C298 H318 0.931 . S
C299 C295 1.460 . S
C299 C298 1.477 . S
C299 H319 0.930 . S
C300 N296 1.362 . S
C300 C297 1.431 . S
C300 C310 1.476 . S
H301 C295 0.929 . S
C302 O293 1.250 . S
C302 O294 1.258 . S
O303 Mn288 2.162 . S
O303 C291 1.281 . S
O304 Mn288 2.297 . S
O304 C291 1.236 . S
N305 Mn289 2.282 . S
N305 C306 1.328 . S
N305 C310 1.318 . S
C306 N305 1.328 . S
C306 C307 1.457 . S
C306 H311 0.929 . S
C307 C306 1.457 . S
C307 C308 1.291 . S
C307 H320 0.931 . S
C308 C307 1.291 . S
C308 C309 1.373 . S
C308 H321 0.929 . S
C309 C308 1.373 . S
C309 C310 1.396 . S
C309 C316 1.403 . S
C310 C300 1.476 . S
C310 N305 1.318 . S
C310 C309 1.396 . S
H311 C306 0.929 . S
O312 Mn288 2.385 . S
O312 C290 1.234 . S
O313 Mn288 2.209 . S
O313 Mn289 2.215 . S
O313 C290 1.283 . S
O314 Mn288 2.094 . S
O314 C292 1.240 . S
O315 Mn289 2.117 . S
O315 C292 1.264 . S
C316 C309 1.403 . S
C316 C317 1.399 . S
C316 H322 0.929 . S
C317 C297 1.449 . S
C317 C316 1.399 . S
C317 H323 0.930 . S
H318 C298 0.931 . S
H319 C299 0.930 . S
H320 C307 0.931 . S
H321 C308 0.929 . S
H322 C316 0.929 . S
H323 C317 0.930 . S
Mn324 O329 2.095 . S
Mn324 O339 2.162 . S
Mn324 O340 2.297 . S
Mn324 O348 2.385 . S
Mn324 O349 2.209 . S
Mn324 O350 2.094 . S
Mn325 O330 2.121 . S
Mn325 N332 2.257 . S
Mn325 N341 2.282 . S
Mn325 O349 2.215 . S
Mn325 O351 2.117 . S
C326 O348 1.234 . S
C326 O349 1.283 . S
C327 O339 1.281 . S
C327 O340 1.236 . S
C328 O350 1.240 . S
C328 O351 1.264 . S
O329 Mn324 2.095 . S
O329 C338 1.250 . S
O330 Mn325 2.121 . S
O330 C338 1.258 . S
C331 N332 1.326 . S
C331 C335 1.460 . S
C331 H337 0.929 . S
N332 Mn325 2.257 . S
N332 C331 1.326 . S
N332 C336 1.362 . S
C333 C334 1.258 . S
C333 C336 1.431 . S
C333 C353 1.449 . S
C334 C333 1.258 . S
C334 C335 1.477 . S
C334 H354 0.931 . S
C335 C331 1.460 . S
C335 C334 1.477 . S
C335 H355 0.930 . S
C336 N332 1.362 . S
C336 C333 1.431 . S
C336 C346 1.476 . S
H337 C331 0.929 . S
C338 O329 1.250 . S
C338 O330 1.258 . S
O339 Mn324 2.162 . S
O339 C327 1.281 . S
O340 Mn324 2.297 . S
O340 C327 1.236 . S
N341 Mn325 2.282 . S
N341 C342 1.328 . S
N341 C346 1.318 . S
C342 N341 1.328 . S
C342 C343 1.457 . S
C342 H347 0.929 . S
C343 C342 1.457 . S
C343 C344 1.291 . S
C343 H356 0.931 . S
C344 C343 1.291 . S
C344 C345 1.373 . S
C344 H357 0.929 . S
C345 C344 1.373 . S
C345 C346 1.396 . S
C345 C352 1.403 . S
C346 C336 1.476 . S
C346 N341 1.318 . S
C346 C345 1.396 . S
H347 C342 0.929 . S
O348 Mn324 2.385 . S
O348 C326 1.234 . S
O349 Mn324 2.209 . S
O349 Mn325 2.215 . S
O349 C326 1.283 . S
O350 Mn324 2.094 . S
O350 C328 1.240 . S
O351 Mn325 2.117 . S
O351 C328 1.264 . S
C352 C345 1.403 . S
C352 C353 1.399 . S
C352 H358 0.929 . S
C353 C333 1.449 . S
C353 C352 1.399 . S
C353 H359 0.930 . S
H354 C334 0.931 . S
H355 C335 0.930 . S
H356 C343 0.931 . S
H357 C344 0.929 . S
H358 C352 0.929 . S
H359 C353 0.930 . S
Mn360 O365 2.095 . S
Mn360 O375 2.162 . S
Mn360 O376 2.297 . S
Mn360 O384 2.385 . S
Mn360 O385 2.209 . S
Mn360 O386 2.094 . S
Mn361 O366 2.121 . S
Mn361 N368 2.257 . S
Mn361 N377 2.282 . S
Mn361 O385 2.215 . S
Mn361 O387 2.117 . S
C362 O384 1.234 . S
C362 O385 1.283 . S
C363 O375 1.281 . S
C363 O376 1.236 . S
C364 O386 1.240 . S
C364 O387 1.264 . S
O365 Mn360 2.095 . S
O365 C374 1.250 . S
O366 Mn361 2.121 . S
O366 C374 1.258 . S
C367 N368 1.326 . S
C367 C371 1.460 . S
C367 H373 0.929 . S
N368 Mn361 2.257 . S
N368 C367 1.326 . S
N368 C372 1.362 . S
C369 C370 1.258 . S
C369 C372 1.431 . S
C369 C389 1.449 . S
C370 C369 1.258 . S
C370 C371 1.477 . S
C370 H390 0.931 . S
C371 C367 1.460 . S
C371 C370 1.477 . S
C371 H391 0.930 . S
C372 N368 1.362 . S
C372 C369 1.431 . S
C372 C382 1.476 . S
H373 C367 0.929 . S
C374 O365 1.250 . S
C374 O366 1.258 . S
O375 Mn360 2.162 . S
O375 C363 1.281 . S
O376 Mn360 2.297 . S
O376 C363 1.236 . S
N377 Mn361 2.282 . S
N377 C378 1.328 . S
N377 C382 1.318 . S
C378 N377 1.328 . S
C378 C379 1.457 . S
C378 H383 0.929 . S
C379 C378 1.457 . S
C379 C380 1.291 . S
C379 H392 0.931 . S
C380 C379 1.291 . S
C380 C381 1.373 . S
C380 H393 0.929 . S
C381 C380 1.373 . S
C381 C382 1.396 . S
C381 C388 1.403 . S
C382 C372 1.476 . S
C382 N377 1.318 . S
C382 C381 1.396 . S
H383 C378 0.929 . S
O384 Mn360 2.385 . S
O384 C362 1.234 . S
O385 Mn360 2.209 . S
O385 Mn361 2.215 . S
O385 C362 1.283 . S
O386 Mn360 2.094 . S
O386 C364 1.240 . S
O387 Mn361 2.117 . S
O387 C364 1.264 . S
C388 C381 1.403 . S
C388 C389 1.399 . S
C388 H394 0.929 . S
C389 C369 1.449 . S
C389 C388 1.399 . S
C389 H395 0.930 . S
H390 C370 0.931 . S
H391 C371 0.930 . S
H392 C379 0.931 . S
H393 C380 0.929 . S
H394 C388 0.929 . S
H395 C389 0.930 . S
Mn396 O401 2.095 . S
Mn396 O411 2.162 . S
Mn396 O412 2.297 . S
Mn396 O420 2.385 1_565 S
Mn396 O421 2.209 1_565 S
Mn396 O422 2.094 . S
Mn397 O402 2.121 . S
Mn397 N404 2.257 . S
Mn397 N413 2.282 . S
Mn397 O421 2.215 . S
Mn397 O423 2.117 . S
C398 O420 1.234 . S
C398 O421 1.283 . S
C399 O411 1.281 . S
C399 O412 1.236 . S
C400 O422 1.223 1_545 S
C400 O423 1.286 . S
O401 Mn396 2.095 . S
O401 C410 1.250 1_565 S
O402 Mn397 2.121 . S
O402 C410 1.258 . S
C403 N404 1.326 . S
C403 C407 1.460 . S
C403 H409 0.929 . S
N404 Mn397 2.257 . S
N404 C403 1.326 . S
N404 C408 1.362 . S
C405 C406 1.258 . S
C405 C408 1.431 . S
C405 C425 1.449 . S
C406 C405 1.258 . S
C406 C407 1.477 . S
C406 H426 0.931 . S
C407 C403 1.460 . S
C407 C406 1.477 . S
C407 H427 0.930 . S
C408 N404 1.362 . S
C408 C405 1.431 . S
C408 C418 1.476 . S
H409 C403 0.929 . S
C410 O401 1.250 1_545 S
C410 O402 1.258 . S
O411 Mn396 2.162 . S
O411 C399 1.281 . S
O412 Mn396 2.297 . S
O412 C399 1.236 . S
N413 Mn397 2.282 . S
N413 C414 1.328 . S
N413 C418 1.318 . S
C414 N413 1.328 . S
C414 C415 1.457 . S
C414 H419 0.929 . S
C415 C414 1.457 . S
C415 C416 1.291 . S
C415 H428 0.931 . S
C416 C415 1.291 . S
C416 C417 1.373 . S
C416 H429 0.929 . S
C417 C416 1.373 . S
C417 C418 1.396 . S
C417 C424 1.403 . S
C418 C408 1.476 . S
C418 N413 1.318 . S
C418 C417 1.396 . S
H419 C414 0.929 . S
O420 Mn396 2.385 1_545 S
O420 C398 1.234 . S
O421 Mn396 2.209 1_545 S
O421 Mn397 2.215 . S
O421 C398 1.283 . S
O422 Mn396 2.094 . S
O422 C400 1.223 1_565 S
O423 Mn397 2.117 . S
O423 C400 1.286 . S
C424 C417 1.403 . S
C424 C425 1.399 . S
C424 H430 0.929 . S
C425 C405 1.449 . S
C425 C424 1.399 . S
C425 H431 0.930 . S
H426 C406 0.931 . S
H427 C407 0.930 . S
H428 C415 0.931 . S
H429 C416 0.929 . S
H430 C424 0.929 . S
H431 C425 0.930 . S
Mn432 O437 2.095 . S
Mn432 O447 2.162 . S
Mn432 O448 2.297 . S
Mn432 O456 2.385 1_455 S
Mn432 O457 2.209 1_455 S
Mn432 O458 2.094 . S
Mn433 O438 2.121 . S
Mn433 N440 2.257 . S
Mn433 N449 2.282 . S
Mn433 O457 2.215 . S
Mn433 O459 2.117 . S
C434 O456 1.234 . S
C434 O457 1.283 . S
C435 O447 1.281 . S
C435 O448 1.236 . S
C436 O458 1.240 . S
C436 O459 1.264 1_455 S
O437 Mn432 2.095 . S
O437 C446 1.250 1_455 S
O438 Mn433 2.121 . S
O438 C446 1.258 . S
C439 N440 1.326 . S
C439 C443 1.460 . S
C439 H445 0.929 . S
N440 Mn433 2.257 . S
N440 C439 1.326 . S
N440 C444 1.362 . S
C441 C442 1.258 . S
C441 C444 1.431 . S
C441 C461 1.449 . S
C442 C441 1.258 . S
C442 C443 1.477 . S
C442 H462 0.931 . S
C443 C439 1.460 . S
C443 C442 1.477 . S
C443 H463 0.930 . S
C444 N440 1.362 . S
C444 C441 1.431 . S
C444 C454 1.476 . S
H445 C439 0.929 . S
C446 O437 1.250 1_655 S
C446 O438 1.258 . S
O447 Mn432 2.162 . S
O447 C435 1.281 . S
O448 Mn432 2.297 . S
O448 C435 1.236 . S
N449 Mn433 2.282 . S
N449 C450 1.328 . S
N449 C454 1.318 . S
C450 N449 1.328 . S
C450 C451 1.457 . S
C450 H455 0.929 . S
C451 C450 1.457 . S
C451 C452 1.291 . S
C451 H464 0.931 . S
C452 C451 1.291 . S
C452 C453 1.373 . S
C452 H465 0.929 . S
C453 C452 1.373 . S
C453 C454 1.396 . S
C453 C460 1.403 . S
C454 C444 1.476 . S
C454 N449 1.318 . S
C454 C453 1.396 . S
H455 C450 0.929 . S
O456 Mn432 2.385 1_655 S
O456 C434 1.234 . S
O457 Mn432 2.209 1_655 S
O457 Mn433 2.215 . S
O457 C434 1.283 . S
O458 Mn432 2.094 . S
O458 C436 1.240 . S
O459 Mn433 2.117 . S
O459 C436 1.264 1_655 S
C460 C453 1.403 . S
C460 C461 1.399 . S
C460 H466 0.929 . S
C461 C441 1.449 . S
C461 C460 1.399 . S
C461 H467 0.930 . S
H462 C442 0.931 . S
H463 C443 0.930 . S
H464 C451 0.931 . S
H465 C452 0.929 . S
H466 C460 0.929 . S
H467 C461 0.930 . S
Mn468 O473 2.095 . S
Mn468 O483 2.162 . S
Mn468 O484 2.297 . S
Mn468 O492 2.385 . S
Mn468 O493 2.209 . S
Mn468 O494 2.094 . S
Mn469 O474 2.121 . S
Mn469 N476 2.257 . S
Mn469 N485 2.282 . S
Mn469 O493 2.215 . S
Mn469 O495 2.117 . S
C470 O492 1.234 . S
C470 O493 1.283 . S
C471 O483 1.281 . S
C471 O484 1.236 . S
C472 O494 1.240 . S
C472 O495 1.264 . S
O473 Mn468 2.095 . S
O473 C482 1.250 . S
O474 Mn469 2.121 . S
O474 C482 1.258 . S
C475 N476 1.326 . S
C475 C479 1.460 . S
C475 H481 0.929 . S
N476 Mn469 2.257 . S
N476 C475 1.326 . S
N476 C480 1.362 . S
C477 C478 1.258 . S
C477 C480 1.431 . S
C477 C497 1.449 . S
C478 C477 1.258 . S
C478 C479 1.477 . S
C478 H498 0.931 . S
C479 C475 1.460 . S
C479 C478 1.477 . S
C479 H499 0.930 . S
C480 N476 1.362 . S
C480 C477 1.431 . S
C480 C490 1.476 . S
H481 C475 0.929 . S
C482 O473 1.250 . S
C482 O474 1.258 . S
O483 Mn468 2.162 . S
O483 C471 1.281 . S
O484 Mn468 2.297 . S
O484 C471 1.236 . S
N485 Mn469 2.282 . S
N485 C486 1.328 . S
N485 C490 1.318 . S
C486 N485 1.328 . S
C486 C487 1.457 . S
C486 H491 0.929 . S
C487 C486 1.457 . S
C487 C488 1.291 . S
C487 H500 0.931 . S
C488 C487 1.291 . S
C488 C489 1.373 . S
C488 H501 0.929 . S
C489 C488 1.373 . S
C489 C490 1.396 . S
C489 C496 1.403 . S
C490 C480 1.476 . S
C490 N485 1.318 . S
C490 C489 1.396 . S
H491 C486 0.929 . S
O492 Mn468 2.385 . S
O492 C470 1.234 . S
O493 Mn468 2.209 . S
O493 Mn469 2.215 . S
O493 C470 1.283 . S
O494 Mn468 2.094 . S
O494 C472 1.240 . S
O495 Mn469 2.117 . S
O495 C472 1.264 . S
C496 C489 1.403 . S
C496 C497 1.399 . S
C496 H502 0.929 . S
C497 C477 1.449 . S
C497 C496 1.399 . S
C497 H503 0.930 . S
H498 C478 0.931 . S
H499 C479 0.930 . S
H500 C487 0.931 . S
H501 C488 0.929 . S
H502 C496 0.929 . S
H503 C497 0.930 . S
Mn504 O509 2.095 1_455 S
Mn504 O519 2.162 . S
Mn504 O520 2.297 1_455 S
Mn504 O528 2.385 . S
Mn504 O529 2.209 1_455 S
Mn504 O530 2.094 . S
Mn505 O510 2.121 . S
Mn505 N512 2.257 . S
Mn505 N521 2.282 1_655 S
Mn505 O529 2.215 . S
Mn505 O531 2.117 1_655 S
C506 O528 1.234 . S
C506 O529 1.283 1_455 S
C507 O519 1.281 . S
C507 O520 1.236 1_455 S
C508 O530 1.240 . S
C508 O531 1.264 . S
O509 Mn504 2.095 1_655 S
O509 C518 1.250 . S
O510 Mn505 2.121 . S
O510 C518 1.258 . S
C511 N512 1.326 . S
C511 C515 1.460 . S
C511 H517 0.929 . S
N512 Mn505 2.257 . S
N512 C511 1.326 . S
N512 C516 1.362 . S
C513 C514 1.258 . S
C513 C516 1.431 . S
C513 C533 1.449 . S
C514 C513 1.258 . S
C514 C515 1.477 . S
C514 H534 0.931 . S
C515 C511 1.460 . S
C515 C514 1.477 . S
C515 H535 0.930 . S
C516 N512 1.362 . S
C516 C513 1.431 . S
C516 C526 1.476 . S
H517 C511 0.929 . S
C518 O509 1.250 . S
C518 O510 1.258 . S
O519 Mn504 2.162 . S
O519 C507 1.281 . S
O520 Mn504 2.297 1_655 S
O520 C507 1.236 1_655 S
N521 Mn505 2.282 1_455 S
N521 C522 1.328 . S
N521 C526 1.318 1_455 S
C522 N521 1.328 . S
C522 C523 1.457 . S
C522 H527 0.929 . S
C523 C522 1.457 . S
C523 C524 1.291 . S
C523 H536 0.931 . S
C524 C523 1.291 . S
C524 C525 1.373 1_455 S
C524 H537 0.929 . S
C525 C524 1.373 1_655 S
C525 C526 1.396 . S
C525 C532 1.403 . S
C526 C516 1.476 . S
C526 N521 1.318 1_655 S
C526 C525 1.396 . S
H527 C522 0.929 . S
O528 Mn504 2.385 . S
O528 C506 1.234 . S
O529 Mn504 2.209 1_655 S
O529 Mn505 2.215 . S
O529 C506 1.283 1_655 S
O530 Mn504 2.094 . S
O530 C508 1.240 . S
O531 Mn505 2.117 1_455 S
O531 C508 1.264 . S
C532 C525 1.403 . S
C532 C533 1.399 . S
C532 H538 0.929 . S
C533 C513 1.449 . S
C533 C532 1.399 . S
C533 H539 0.930 . S
H534 C514 0.931 . S
H535 C515 0.930 . S
H536 C523 0.931 . S
H537 C524 0.929 . S
H538 C532 0.929 . S
H539 C533 0.930 . S
Mn540 O545 2.095 . S
Mn540 O555 2.162 . S
Mn540 O556 2.297 . S
Mn540 O564 2.385 . S
Mn540 O565 2.209 . S
Mn540 O566 2.094 . S
Mn541 O546 2.121 . S
Mn541 N548 2.257 . S
Mn541 N557 2.282 . S
Mn541 O565 2.215 . S
Mn541 O567 2.117 . S
C542 O564 1.234 . S
C542 O565 1.283 . S
C543 O555 1.281 . S
C543 O556 1.236 . S
C544 O566 1.240 . S
C544 O567 1.264 . S
O545 Mn540 2.095 . S
O545 C554 1.250 . S
O546 Mn541 2.121 . S
O546 C554 1.258 . S
C547 N548 1.326 . S
C547 C551 1.460 . S
C547 H553 0.929 . S
N548 Mn541 2.257 . S
N548 C547 1.326 . S
N548 C552 1.362 . S
C549 C550 1.258 . S
C549 C552 1.431 . S
C549 C569 1.449 . S
C550 C549 1.258 . S
C550 C551 1.477 . S
C550 H570 0.931 . S
C551 C547 1.460 . S
C551 C550 1.477 . S
C551 H571 0.930 . S
C552 N548 1.362 . S
C552 C549 1.431 . S
C552 C562 1.476 . S
H553 C547 0.929 . S
C554 O545 1.250 . S
C554 O546 1.258 . S
O555 Mn540 2.162 . S
O555 C543 1.281 . S
O556 Mn540 2.297 . S
O556 C543 1.236 . S
N557 Mn541 2.282 . S
N557 C558 1.328 . S
N557 C562 1.318 . S
C558 N557 1.328 . S
C558 C559 1.457 . S
C558 H563 0.929 . S
C559 C558 1.457 . S
C559 C560 1.291 . S
C559 H572 0.931 . S
C560 C559 1.291 . S
C560 C561 1.373 . S
C560 H573 0.929 . S
C561 C560 1.373 . S
C561 C562 1.396 . S
C561 C568 1.403 . S
C562 C552 1.476 . S
C562 N557 1.318 . S
C562 C561 1.396 . S
H563 C558 0.929 . S
O564 Mn540 2.385 . S
O564 C542 1.234 . S
O565 Mn540 2.209 . S
O565 Mn541 2.215 . S
O565 C542 1.283 . S
O566 Mn540 2.094 . S
O566 C544 1.240 . S
O567 Mn541 2.117 . S
O567 C544 1.264 . S
C568 C561 1.403 . S
C568 C569 1.399 . S
C568 H574 0.929 . S
C569 C549 1.449 . S
C569 C568 1.399 . S
C569 H575 0.930 . S
H570 C550 0.931 . S
H571 C551 0.930 . S
H572 C559 0.931 . S
H573 C560 0.929 . S
H574 C568 0.929 . S
H575 C569 0.930 . S
H576 C584 0.950 . S
H577 C589 0.950 . S
H578 C586 0.950 . S
H579 C588 0.950 . S
H580 C590 0.950 . S
H581 C592 0.950 . S
H582 C594 0.950 . S
H583 C595 0.950 . S
C584 H576 0.950 . S
C584 C585 1.386 . S
C584 C586 1.391 . S
C585 C584 1.386 . S
C585 C589 1.393 . S
C586 H578 0.950 . S
C586 C584 1.391 . S
C586 C587 1.400 . S
C587 C586 1.400 . S
C587 C588 1.398 . S
C587 C593 1.491 . S
C588 H579 0.950 . S
C588 C587 1.398 . S
C588 C589 1.391 . S
C589 H577 0.950 . S
C589 C585 1.393 . S
C589 C588 1.391 . S
C590 H580 0.950 . S
C590 C591 1.386 . S
C590 C592 1.391 . S
C591 C590 1.386 . S
C591 C595 1.393 . S
C592 H581 0.950 . S
C592 C590 1.391 . S
C592 C593 1.400 . S
C593 C587 1.491 . S
C593 C592 1.400 . S
C593 C594 1.398 . S
C594 H582 0.950 . S
C594 C593 1.398 . S
C594 C595 1.391 . S
C595 H583 0.950 . S
C595 C591 1.393 . S
C595 C594 1.391 . S
H596 C604 0.950 . S
H597 C609 0.950 . S
H598 C606 0.950 . S
H599 C608 0.950 . S
H600 C610 0.950 . S
H601 C612 0.950 . S
H602 C614 0.950 . S
H603 C615 0.950 . S
C604 H596 0.950 . S
C604 C605 1.386 . S
C604 C606 1.391 . S
C605 C604 1.386 . S
C605 C609 1.393 . S
C606 H598 0.950 . S
C606 C604 1.391 . S
C606 C607 1.400 . S
C607 C606 1.400 . S
C607 C608 1.398 . S
C607 C613 1.491 . S
C608 H599 0.950 . S
C608 C607 1.398 . S
C608 C609 1.391 . S
C609 H597 0.950 . S
C609 C605 1.393 . S
C609 C608 1.391 . S
C610 H600 0.950 . S
C610 C611 1.386 . S
C610 C612 1.391 . S
C611 C610 1.386 . S
C611 C615 1.393 . S
C612 H601 0.950 . S
C612 C610 1.391 . S
C612 C613 1.400 . S
C613 C607 1.491 . S
C613 C612 1.400 . S
C613 C614 1.398 . S
C614 H602 0.950 . S
C614 C613 1.398 . S
C614 C615 1.391 . S
C615 H603 0.950 . S
C615 C611 1.393 . S
C615 C614 1.391 . S
H616 C624 0.950 . S
H617 C629 0.950 . S
H618 C626 0.950 . S
H619 C628 0.950 . S
H620 C630 0.950 . S
H621 C632 0.950 . S
H622 C634 0.950 . S
H623 C635 0.950 . S
C624 H616 0.950 . S
C624 C625 1.386 . S
C624 C626 1.391 . S
C625 C624 1.386 . S
C625 C629 1.393 . S
C626 H618 0.950 . S
C626 C624 1.391 . S
C626 C627 1.400 . S
C627 C626 1.400 . S
C627 C628 1.398 . S
C627 C633 1.491 . S
C628 H619 0.950 . S
C628 C627 1.398 . S
C628 C629 1.391 . S
C629 H617 0.950 . S
C629 C625 1.393 . S
C629 C628 1.391 . S
C630 H620 0.950 . S
C630 C631 1.386 . S
C630 C632 1.391 . S
C631 C630 1.386 . S
C631 C635 1.393 . S
C632 H621 0.950 . S
C632 C630 1.391 . S
C632 C633 1.400 . S
C633 C627 1.491 . S
C633 C632 1.400 . S
C633 C634 1.398 . S
C634 H622 0.950 . S
C634 C633 1.398 . S
C634 C635 1.391 . S
C635 H623 0.950 . S
C635 C631 1.393 . S
C635 C634 1.391 . S
H636 C644 0.950 . S
H637 C649 0.950 . S
H638 C646 0.950 1_545 S
H639 C648 0.950 1_455 S
H640 C650 0.950 . S
H641 C652 0.950 . S
H642 C654 0.957 . S
H643 C655 0.950 . S
C644 H636 0.950 . S
C644 C645 1.386 1_655 S
C644 C646 1.391 . S
C645 C644 1.386 1_455 S
C645 C649 1.393 . S
C646 H638 0.950 1_565 S
C646 C644 1.391 . S
C646 C647 1.400 . S
C647 C646 1.400 . S
C647 C648 1.398 . S
C647 C653 1.491 . S
C648 H639 0.950 1_655 S
C648 C647 1.398 . S
C648 C649 1.391 1_655 S
C649 H637 0.950 . S
C649 C645 1.393 . S
C649 C648 1.391 1_455 S
C650 H640 0.950 . S
C650 C651 1.386 . S
C650 C652 1.391 . S
C651 C650 1.386 . S
C651 C655 1.393 1_565 S
C652 H641 0.950 . S
C652 C650 1.391 . S
C652 C653 1.400 . S
C653 C647 1.491 . S
C653 C652 1.400 . S
C653 C654 1.386 1_565 S
C654 H642 0.957 . S
C654 C653 1.386 1_545 S
C654 C655 1.397 . S
C655 H643 0.950 . S
C655 C651 1.393 1_545 S
C655 C654 1.397 . S
H656 C664 0.950 . S
H657 C669 0.950 . S
H658 C666 0.950 . S
H659 C668 0.950 . S
H660 C670 0.950 . S
H661 C672 0.950 . S
H662 C674 0.950 . S
H663 C675 0.950 . S
C664 H656 0.950 . S
C664 C665 1.386 . S
C664 C666 1.391 . S
C665 C664 1.386 . S
C665 C669 1.393 . S
C666 H658 0.950 . S
C666 C664 1.391 . S
C666 C667 1.400 . S
C667 C666 1.400 . S
C667 C668 1.398 . S
C667 C673 1.491 . S
C668 H659 0.950 . S
C668 C667 1.398 . S
C668 C669 1.391 . S
C669 H657 0.950 . S
C669 C665 1.393 . S
C669 C668 1.391 . S
C670 H660 0.950 . S
C670 C671 1.386 . S
C670 C672 1.391 . S
C671 C670 1.386 . S
C671 C675 1.393 . S
C672 H661 0.950 . S
C672 C670 1.391 . S
C672 C673 1.400 . S
C673 C667 1.491 . S
C673 C672 1.400 . S
C673 C674 1.398 . S
C674 H662 0.950 . S
C674 C673 1.398 . S
C674 C675 1.391 . S
C675 H663 0.950 . S
C675 C671 1.393 . S
C675 C674 1.391 . S
H676 C684 0.950 . S
H677 C689 0.950 . S
H678 C686 0.950 . S
H679 C688 0.950 . S
H680 C690 0.950 . S
H681 C692 0.950 . S
H682 C694 0.950 . S
H683 C695 0.950 . S
C684 H676 0.950 . S
C684 C685 1.386 . S
C684 C686 1.391 . S
C685 C684 1.386 . S
C685 C689 1.393 . S
C686 H678 0.950 . S
C686 C684 1.391 . S
C686 C687 1.400 . S
C687 C686 1.400 . S
C687 C688 1.398 . S
C687 C693 1.491 . S
C688 H679 0.950 . S
C688 C687 1.398 . S
C688 C689 1.391 . S
C689 H677 0.950 . S
C689 C685 1.393 . S
C689 C688 1.391 . S
C690 H680 0.950 . S
C690 C691 1.386 . S
C690 C692 1.391 . S
C691 C690 1.386 . S
C691 C695 1.393 . S
C692 H681 0.950 . S
C692 C690 1.391 . S
C692 C693 1.400 . S
C693 C687 1.491 . S
C693 C692 1.400 . S
C693 C694 1.398 . S
C694 H682 0.950 . S
C694 C693 1.398 . S
C694 C695 1.391 . S
C695 H683 0.950 . S
C695 C691 1.393 . S
C695 C694 1.391 . S
H696 C704 0.950 . S
H697 C709 0.950 . S
H698 C706 0.950 . S
H699 C708 0.950 . S
H700 C710 0.950 . S
H701 C712 0.950 . S
H702 C714 0.950 . S
H703 C715 0.950 . S
C704 H696 0.950 . S
C704 C705 1.386 . S
C704 C706 1.391 . S
C705 C704 1.386 . S
C705 C709 1.393 . S
C706 H698 0.950 . S
C706 C704 1.391 . S
C706 C707 1.400 . S
C707 C706 1.400 . S
C707 C708 1.398 . S
C707 C713 1.491 . S
C708 H699 0.950 . S
C708 C707 1.398 . S
C708 C709 1.391 . S
C709 H697 0.950 . S
C709 C705 1.393 . S
C709 C708 1.391 . S
C710 H700 0.950 . S
C710 C711 1.386 . S
C710 C712 1.391 . S
C711 C710 1.386 . S
C711 C715 1.393 . S
C712 H701 0.950 . S
C712 C710 1.391 . S
C712 C713 1.400 . S
C713 C707 1.491 . S
C713 C712 1.400 . S
C713 C714 1.398 . S
C714 H702 0.950 . S
C714 C713 1.398 . S
C714 C715 1.391 . S
C715 H703 0.950 . S
C715 C711 1.393 . S
C715 C714 1.391 . S
H716 C724 0.950 . S
H717 C729 0.950 . S
H718 C726 0.950 . S
H719 C728 0.950 . S
H720 C730 0.950 . S
H721 C732 0.950 1_545 S
H722 C734 0.950 . S
H723 C735 0.950 . S
C724 H716 0.950 . S
C724 C725 1.386 . S
C724 C726 1.391 . S
C725 C724 1.386 . S
C725 C729 1.393 . S
C726 H718 0.950 . S
C726 C724 1.391 . S
C726 C727 1.400 . S
C727 C726 1.400 . S
C727 C728 1.398 . S
C727 C733 1.491 . S
C728 H719 0.950 . S
C728 C727 1.398 . S
C728 C729 1.391 . S
C729 H717 0.950 . S
C729 C725 1.393 . S
C729 C728 1.391 . S
C730 H720 0.950 . S
C730 C731 1.386 1_545 S
C730 C732 1.391 1_545 S
C731 C730 1.386 1_565 S
C731 C735 1.393 . S
C732 H721 0.950 1_565 S
C732 C730 1.391 1_565 S
C732 C733 1.400 . S
C733 C727 1.491 . S
C733 C732 1.400 . S
C733 C734 1.398 . S
C734 H722 0.950 . S
C734 C733 1.398 . S
C734 C735 1.391 . S
C735 H723 0.950 . S
C735 C731 1.393 . S
C735 C734 1.391 . S
H736 C744 0.950 . S
H737 C749 0.950 . S
H738 C746 0.950 . S
H739 C748 0.950 . S
H740 C750 0.950 . S
H741 C752 0.950 . S
H742 C754 0.950 . S
H743 C755 0.950 . S
C744 H736 0.950 . S
C744 C745 1.386 . S
C744 C746 1.391 . S
C745 C744 1.386 . S
C745 C749 1.393 . S
C746 H738 0.950 . S
C746 C744 1.391 . S
C746 C747 1.400 . S
C747 C746 1.400 . S
C747 C748 1.398 . S
C747 C753 1.491 . S
C748 H739 0.950 . S
C748 C747 1.398 . S
C748 C749 1.391 . S
C749 H737 0.950 . S
C749 C745 1.393 . S
C749 C748 1.391 . S
C750 H740 0.950 . S
C750 C751 1.386 . S
C750 C752 1.391 . S
C751 C750 1.386 . S
C751 C755 1.393 . S
C752 H741 0.950 . S
C752 C750 1.391 . S
C752 C753 1.400 . S
C753 C747 1.491 . S
C753 C752 1.400 . S
C753 C754 1.398 . S
C754 H742 0.950 . S
C754 C753 1.398 . S
C754 C755 1.391 . S
C755 H743 0.950 . S
C755 C751 1.393 . S
C755 C754 1.391 . S
H756 C764 0.950 . S
H757 C769 0.950 . S
H758 C766 0.950 . S
H759 C768 0.950 . S
H760 C770 0.950 . S
H761 C772 0.950 . S
H762 C774 0.950 . S
H763 C775 0.950 . S
C764 H756 0.950 . S
C764 C765 1.386 . S
C764 C766 1.391 . S
C765 C764 1.386 . S
C765 C769 1.393 . S
C766 H758 0.950 . S
C766 C764 1.391 . S
C766 C767 1.400 . S
C767 C766 1.400 . S
C767 C768 1.398 . S
C767 C773 1.491 . S
C768 H759 0.950 . S
C768 C767 1.398 . S
C768 C769 1.391 . S
C769 H757 0.950 . S
C769 C765 1.393 . S
C769 C768 1.391 . S
C770 H760 0.950 . S
C770 C771 1.386 . S
C770 C772 1.391 . S
C771 C770 1.386 . S
C771 C775 1.393 . S
C772 H761 0.950 . S
C772 C770 1.391 . S
C772 C773 1.400 . S
C773 C767 1.491 . S
C773 C772 1.400 . S
C773 C774 1.398 . S
C774 H762 0.950 . S
C774 C773 1.398 . S
C774 C775 1.391 . S
C775 H763 0.950 . S
C775 C771 1.393 . S
C775 C774 1.391 . S
H776 C784 0.950 . S
H777 C789 0.950 . S
H778 C786 0.950 . S
H779 C788 0.950 . S
H780 C790 0.950 . S
H781 C792 0.950 . S
H782 C794 0.950 . S
H783 C795 0.950 . S
C784 H776 0.950 . S
C784 C785 1.386 . S
C784 C786 1.391 . S
C785 C784 1.386 . S
C785 C789 1.393 . S
C786 H778 0.950 . S
C786 C784 1.391 . S
C786 C787 1.400 . S
C787 C786 1.400 . S
C787 C788 1.398 . S
C787 C793 1.491 . S
C788 H779 0.950 . S
C788 C787 1.398 . S
C788 C789 1.391 . S
C789 H777 0.950 . S
C789 C785 1.393 . S
C789 C788 1.391 . S
C790 H780 0.950 . S
C790 C791 1.386 . S
C790 C792 1.391 . S
C791 C790 1.386 . S
C791 C795 1.393 . S
C792 H781 0.950 . S
C792 C790 1.391 . S
C792 C793 1.400 . S
C793 C787 1.491 . S
C793 C792 1.400 . S
C793 C794 1.398 . S
C794 H782 0.950 . S
C794 C793 1.398 . S
C794 C795 1.391 . S
C795 H783 0.950 . S
C795 C791 1.393 . S
C795 C794 1.391 . S
H796 C804 0.950 . S
H797 C809 0.950 . S
H798 C806 0.950 . S
H799 C808 0.950 . S
H800 C810 0.950 . S
H801 C812 0.950 . S
H802 C814 0.950 . S
H803 C815 0.950 . S
C804 H796 0.950 . S
C804 C805 1.386 . S
C804 C806 1.391 . S
C805 C804 1.386 . S
C805 C809 1.393 . S
C806 H798 0.950 . S
C806 C804 1.391 . S
C806 C807 1.400 . S
C807 C806 1.400 . S
C807 C808 1.398 . S
C807 C813 1.491 . S
C808 H799 0.950 . S
C808 C807 1.398 . S
C808 C809 1.391 . S
C809 H797 0.950 . S
C809 C805 1.393 . S
C809 C808 1.391 . S
C810 H800 0.950 . S
C810 C811 1.386 . S
C810 C812 1.391 . S
C811 C810 1.386 . S
C811 C815 1.393 . S
C812 H801 0.950 . S
C812 C810 1.391 . S
C812 C813 1.400 . S
C813 C807 1.491 . S
C813 C812 1.400 . S
C813 C814 1.398 . S
C814 H802 0.950 . S
C814 C813 1.398 . S
C814 C815 1.391 . S
C815 H803 0.950 . S
C815 C811 1.393 . S
C815 C814 1.391 . S
H816 C824 0.950 . S
H817 C829 0.950 . S
H818 C826 0.950 . S
H819 C828 0.950 . S
H820 C830 0.950 . S
H821 C832 0.950 . S
H822 C834 0.950 . S
H823 C835 0.950 . S
C824 H816 0.950 . S
C824 C825 1.386 . S
C824 C826 1.391 . S
C825 C824 1.386 . S
C825 C829 1.393 . S
C826 H818 0.950 . S
C826 C824 1.391 . S
C826 C827 1.400 . S
C827 C826 1.400 . S
C827 C828 1.398 . S
C827 C833 1.491 . S
C828 H819 0.950 . S
C828 C827 1.398 . S
C828 C829 1.391 . S
C829 H817 0.950 . S
C829 C825 1.393 . S
C829 C828 1.391 . S
C830 H820 0.950 . S
C830 C831 1.386 . S
C830 C832 1.391 . S
C831 C830 1.386 . S
C831 C835 1.393 . S
C832 H821 0.950 . S
C832 C830 1.391 . S
C832 C833 1.400 . S
C833 C827 1.491 . S
C833 C832 1.400 . S
C833 C834 1.398 . S
C834 H822 0.950 . S
C834 C833 1.398 . S
C834 C835 1.391 . S
C835 H823 0.950 . S
C835 C831 1.393 . S
C835 C834 1.391 . S
H836 C844 0.950 . S
H837 C849 0.950 . S
H838 C846 0.950 . S
H839 C848 0.950 . S
H840 C850 0.950 . S
H841 C852 0.950 . S
H842 C854 0.950 . S
H843 C855 0.950 . S
C844 H836 0.950 . S
C844 C845 1.386 . S
C844 C846 1.391 . S
C845 C844 1.386 . S
C845 C849 1.393 . S
C846 H838 0.950 . S
C846 C844 1.391 . S
C846 C847 1.400 . S
C847 C846 1.400 . S
C847 C848 1.398 . S
C847 C853 1.491 . S
C848 H839 0.950 . S
C848 C847 1.398 . S
C848 C849 1.391 . S
C849 H837 0.950 . S
C849 C845 1.393 . S
C849 C848 1.391 . S
C850 H840 0.950 . S
C850 C851 1.386 . S
C850 C852 1.391 . S
C851 C850 1.386 . S
C851 C855 1.393 . S
C852 H841 0.950 . S
C852 C850 1.391 . S
C852 C853 1.400 . S
C853 C847 1.491 . S
C853 C852 1.400 . S
C853 C854 1.398 . S
C854 H842 0.950 . S
C854 C853 1.398 . S
C854 C855 1.391 . S
C855 H843 0.950 . S
C855 C851 1.393 . S
C855 C854 1.391 . S
H856 C864 0.950 . S
H857 C869 0.950 . S
H858 C866 0.950 . S
H859 C868 0.950 . S
H860 C870 0.950 . S
H861 C872 0.950 . S
H862 C874 0.950 . S
H863 C875 0.950 . S
C864 H856 0.950 . S
C864 C865 1.386 . S
C864 C866 1.391 . S
C865 C864 1.386 . S
C865 C869 1.393 . S
C866 H858 0.950 . S
C866 C864 1.391 . S
C866 C867 1.400 . S
C867 C866 1.400 . S
C867 C868 1.398 . S
C867 C873 1.491 . S
C868 H859 0.950 . S
C868 C867 1.398 . S
C868 C869 1.391 . S
C869 H857 0.950 . S
C869 C865 1.393 . S
C869 C868 1.391 . S
C870 H860 0.950 . S
C870 C871 1.386 . S
C870 C872 1.391 . S
C871 C870 1.386 . S
C871 C875 1.393 . S
C872 H861 0.950 . S
C872 C870 1.391 . S
C872 C873 1.400 . S
C873 C867 1.491 . S
C873 C872 1.400 . S
C873 C874 1.398 . S
C874 H862 0.950 . S
C874 C873 1.398 . S
C874 C875 1.391 . S
C875 H863 0.950 . S
C875 C871 1.393 . S
C875 C874 1.391 . S
H876 C884 0.940 1_455 S
H877 C889 0.950 . S
H878 C886 0.950 . S
H879 C888 0.950 . S
H880 C890 0.950 . S
H881 C892 0.950 . S
H882 C894 0.950 . S
H883 C895 0.950 . S
C884 H876 0.940 1_655 S
C884 C885 1.397 . S
C884 C886 1.390 1_655 S
C885 C884 1.397 . S
C885 C889 1.393 . S
C886 H878 0.950 . S
C886 C884 1.390 1_455 S
C886 C887 1.400 1_455 S
C887 C886 1.400 1_655 S
C887 C888 1.398 . S
C887 C893 1.491 . S
C888 H879 0.950 . S
C888 C887 1.398 . S
C888 C889 1.391 . S
C889 H877 0.950 . S
C889 C885 1.393 . S
C889 C888 1.391 . S
C890 H880 0.950 . S
C890 C891 1.386 . S
C890 C892 1.391 . S
C891 C890 1.386 . S
C891 C895 1.393 1_655 S
C892 H881 0.950 . S
C892 C890 1.391 . S
C892 C893 1.400 . S
C893 C887 1.491 . S
C893 C892 1.400 . S
C893 C894 1.398 1_655 S
C894 H882 0.950 . S
C894 C893 1.398 1_455 S
C894 C895 1.391 . S
C895 H883 0.950 . S
C895 C891 1.393 1_455 S
C895 C894 1.391 . S
H896 C904 0.950 . S
H897 C909 0.950 . S
H898 C906 0.950 . S
H899 C908 0.950 . S
H900 C910 0.950 . S
H901 C912 0.950 . S
H902 C914 0.950 . S
H903 C915 0.950 . S
C904 H896 0.950 . S
C904 C905 1.386 . S
C904 C906 1.391 . S
C905 C904 1.386 . S
C905 C909 1.393 . S
C906 H898 0.950 . S
C906 C904 1.391 . S
C906 C907 1.400 . S
C907 C906 1.400 . S
C907 C908 1.398 . S
C907 C913 1.491 . S
C908 H899 0.950 . S
C908 C907 1.398 . S
C908 C909 1.391 . S
C909 H897 0.950 . S
C909 C905 1.393 . S
C909 C908 1.391 . S
C910 H900 0.950 . S
C910 C911 1.386 . S
C910 C912 1.391 . S
C911 C910 1.386 . S
C911 C915 1.393 . S
C912 H901 0.950 . S
C912 C910 1.391 . S
C912 C913 1.400 . S
C913 C907 1.491 . S
C913 C912 1.400 . S
C913 C914 1.398 . S
C914 H902 0.950 . S
C914 C913 1.398 . S
C914 C915 1.391 . S
C915 H903 0.950 . S
C915 C911 1.393 . S
C915 C914 1.391 . S
H916 C924 0.950 . S
H917 C929 0.950 . S
H918 C926 0.950 . S
H919 C928 0.950 . S
H920 C930 0.950 . S
H921 C932 0.950 . S
H922 C934 0.950 . S
H923 C935 0.950 . S
C924 H916 0.950 . S
C924 C925 1.386 . S
C924 C926 1.391 . S
C925 C924 1.386 . S
C925 C929 1.393 . S
C926 H918 0.950 . S
C926 C924 1.391 . S
C926 C927 1.400 . S
C927 C926 1.400 . S
C927 C928 1.398 . S
C927 C933 1.491 . S
C928 H919 0.950 . S
C928 C927 1.398 . S
C928 C929 1.391 . S
C929 H917 0.950 . S
C929 C925 1.393 . S
C929 C928 1.391 . S
C930 H920 0.950 . S
C930 C931 1.386 . S
C930 C932 1.391 . S
C931 C930 1.386 . S
C931 C935 1.393 . S
C932 H921 0.950 . S
C932 C930 1.391 . S
C932 C933 1.400 . S
C933 C927 1.491 . S
C933 C932 1.400 . S
C933 C934 1.398 . S
C934 H922 0.950 . S
C934 C933 1.398 . S
C934 C935 1.391 . S
C935 H923 0.950 . S
C935 C931 1.393 . S
C935 C934 1.391 . S
H936 C944 0.950 1_554 S
H937 C949 0.950 . S
H938 C946 0.950 . S
H939 C948 0.950 . S
H940 C950 0.950 . S
H941 C952 0.950 . S
H942 C954 0.950 . S
H943 C955 0.950 . S
C944 H936 0.950 1_556 S
C944 C945 1.386 1_565 S
C944 C946 1.391 1_556 S
C945 C944 1.386 1_545 S
C945 C949 1.393 . S
C946 H938 0.950 . S
C946 C944 1.391 1_554 S
C946 C947 1.400 1_554 S
C947 C946 1.400 1_556 S
C947 C948 1.398 . S
C947 C953 1.491 . S
C948 H939 0.950 . S
C948 C947 1.398 . S
C948 C949 1.391 1_565 S
C949 H937 0.950 . S
C949 C945 1.393 . S
C949 C948 1.391 1_545 S
C950 H940 0.950 . S
C950 C951 1.370 1_556 S
C950 C952 1.391 . S
C951 C950 1.370 1_554 S
C951 C955 1.404 . S
C952 H941 0.950 . S
C952 C950 1.391 . S
C952 C953 1.400 . S
C953 C947 1.491 . S
C953 C952 1.400 . S
C953 C954 1.398 1_556 S
C954 H942 0.950 . S
C954 C953 1.398 1_554 S
C954 C955 1.391 . S
C955 H943 0.950 . S
C955 C951 1.404 . S
C955 C954 1.391 . S
H956 C964 0.950 . S
H957 C969 0.950 . S
H958 C966 0.950 . S
H959 C968 0.950 . S
H960 C970 0.950 . S
H961 C972 0.950 . S
H962 C974 0.950 . S
H963 C975 0.950 . S
C964 H956 0.950 . S
C964 C965 1.386 . S
C964 C966 1.391 . S
C965 C964 1.386 . S
C965 C969 1.393 . S
C966 H958 0.950 . S
C966 C964 1.391 . S
C966 C967 1.400 . S
C967 C966 1.400 . S
C967 C968 1.398 . S
C967 C973 1.491 . S
C968 H959 0.950 . S
C968 C967 1.398 . S
C968 C969 1.391 . S
C969 H957 0.950 . S
C969 C965 1.393 . S
C969 C968 1.391 . S
C970 H960 0.950 . S
C970 C971 1.386 . S
C970 C972 1.391 . S
C971 C970 1.386 . S
C971 C975 1.393 . S
C972 H961 0.950 . S
C972 C970 1.391 . S
C972 C973 1.400 . S
C973 C967 1.491 . S
C973 C972 1.400 . S
C973 C974 1.398 . S
C974 H962 0.950 . S
C974 C973 1.398 . S
C974 C975 1.391 . S
C975 H963 0.950 . S
C975 C971 1.393 . S
C975 C974 1.391 . S
H976 C984 0.950 . S
H977 C989 0.950 . S
H978 C986 0.950 . S
H979 C988 0.950 . S
H980 C990 0.950 . S
H981 C992 0.950 . S
H982 C994 0.950 . S
H983 C995 0.950 . S
C984 H976 0.950 . S
C984 C985 1.386 . S
C984 C986 1.391 . S
C985 C984 1.386 . S
C985 C989 1.393 1_545 S
C986 H978 0.950 . S
C986 C984 1.391 . S
C986 C987 1.400 . S
C987 C986 1.400 . S
C987 C988 1.398 . S
C987 C993 1.491 . S
C988 H979 0.950 . S
C988 C987 1.398 . S
C988 C989 1.391 1_545 S
C989 H977 0.950 . S
C989 C985 1.393 1_565 S
C989 C988 1.391 1_565 S
C990 H980 0.950 . S
C990 C991 1.386 . S
C990 C992 1.391 . S
C991 C990 1.386 . S
C991 C995 1.393 . S
C992 H981 0.950 . S
C992 C990 1.391 . S
C992 C993 1.400 . S
C993 C987 1.491 . S
C993 C992 1.400 . S
C993 C994 1.398 . S
C994 H982 0.950 . S
C994 C993 1.398 . S
C994 C995 1.391 . S
C995 H983 0.950 . S
C995 C991 1.393 . S
C995 C994 1.391 . S
H996 C1004 0.950 . S
H997 C1009 0.950 . S
H998 C1006 0.950 . S
H999 C1008 0.950 . S
H1000 C1010 0.950 . S
H1001 C1012 0.950 . S
H1002 C1014 0.950 . S
H1003 C1015 0.950 . S
C1004 H996 0.950 . S
C1004 C1005 1.386 . S
C1004 C1006 1.391 . S
C1005 C1004 1.386 . S
C1005 C1009 1.393 . S
C1006 H998 0.950 . S
C1006 C1004 1.391 . S
C1006 C1007 1.400 . S
C1007 C1006 1.400 . S
C1007 C1008 1.398 . S
C1007 C1013 1.491 . S
C1008 H999 0.950 . S
C1008 C1007 1.398 . S
C1008 C1009 1.391 . S
C1009 H997 0.950 . S
C1009 C1005 1.393 . S
C1009 C1008 1.391 . S
C1010 H1000 0.950 . S
C1010 C1011 1.386 . S
C1010 C1012 1.391 . S
C1011 C1010 1.386 . S
C1011 C1015 1.393 . S
C1012 H1001 0.950 . S
C1012 C1010 1.391 . S
C1012 C1013 1.400 . S
C1013 C1007 1.491 . S
C1013 C1012 1.400 . S
C1013 C1014 1.398 . S
C1014 H1002 0.950 . S
C1014 C1013 1.398 . S
C1014 C1015 1.391 . S
C1015 H1003 0.950 . S
C1015 C1011 1.393 . S
C1015 C1014 1.391 . S
H1016 C1024 0.950 . S
H1017 C1029 0.950 . S
H1018 C1026 0.950 . S
H1019 C1028 0.950 . S
H1020 C1030 0.950 . S
H1021 C1032 0.950 . S
H1022 C1034 0.950 . S
H1023 C1035 0.950 . S
C1024 H1016 0.950 . S
C1024 C1025 1.386 . S
C1024 C1026 1.391 . S
C1025 C1024 1.386 . S
C1025 C1029 1.393 . S
C1026 H1018 0.950 . S
C1026 C1024 1.391 . S
C1026 C1027 1.400 . S
C1027 C1026 1.400 . S
C1027 C1028 1.398 . S
C1027 C1033 1.491 . S
C1028 H1019 0.950 . S
C1028 C1027 1.398 . S
C1028 C1029 1.391 . S
C1029 H1017 0.950 . S
C1029 C1025 1.393 . S
C1029 C1028 1.391 . S
C1030 H1020 0.950 . S
C1030 C1031 1.386 . S
C1030 C1032 1.391 . S
C1031 C1030 1.386 . S
C1031 C1035 1.393 . S
C1032 H1021 0.950 . S
C1032 C1030 1.391 . S
C1032 C1033 1.400 . S
C1033 C1027 1.491 . S
C1033 C1032 1.400 . S
C1033 C1034 1.398 . S
C1034 H1022 0.950 . S
C1034 C1033 1.398 . S
C1034 C1035 1.391 . S
C1035 H1023 0.950 . S
C1035 C1031 1.393 . S
C1035 C1034 1.391 . S
H1036 C1044 0.950 . S
H1037 C1049 0.950 . S
H1038 C1046 0.950 . S
H1039 C1048 0.950 . S
H1040 C1050 0.950 . S
H1041 C1052 0.950 . S
H1042 C1054 0.950 . S
H1043 C1055 0.950 . S
C1044 H1036 0.950 . S
C1044 C1045 1.386 . S
C1044 C1046 1.391 . S
C1045 C1044 1.386 . S
C1045 C1049 1.393 . S
C1046 H1038 0.950 . S
C1046 C1044 1.391 . S
C1046 C1047 1.400 . S
C1047 C1046 1.400 . S
C1047 C1048 1.398 . S
C1047 C1053 1.491 . S
C1048 H1039 0.950 . S
C1048 C1047 1.398 . S
C1048 C1049 1.391 . S
C1049 H1037 0.950 . S
C1049 C1045 1.393 . S
C1049 C1048 1.391 . S
C1050 H1040 0.950 . S
C1050 C1051 1.386 . S
C1050 C1052 1.391 . S
C1051 C1050 1.386 . S
C1051 C1055 1.393 . S
C1052 H1041 0.950 . S
C1052 C1050 1.391 . S
C1052 C1053 1.400 . S
C1053 C1047 1.491 . S
C1053 C1052 1.400 . S
C1053 C1054 1.398 . S
C1054 H1042 0.950 . S
C1054 C1053 1.398 . S
C1054 C1055 1.391 . S
C1055 H1043 0.950 . S
C1055 C1051 1.393 . S
C1055 C1054 1.391 . S
H1056 C1064 0.950 . S
H1057 C1069 0.950 . S
H1058 C1066 0.950 . S
H1059 C1068 0.950 . S
H1060 C1070 0.950 . S
H1061 C1072 0.950 . S
H1062 C1074 0.950 . S
H1063 C1075 0.950 . S
C1064 H1056 0.950 . S
C1064 C1065 1.386 . S
C1064 C1066 1.391 . S
C1065 C1064 1.386 . S
C1065 C1069 1.393 . S
C1066 H1058 0.950 . S
C1066 C1064 1.391 . S
C1066 C1067 1.400 . S
C1067 C1066 1.400 . S
C1067 C1068 1.398 . S
C1067 C1073 1.491 . S
C1068 H1059 0.950 . S
C1068 C1067 1.398 . S
C1068 C1069 1.391 . S
C1069 H1057 0.950 . S
C1069 C1065 1.393 . S
C1069 C1068 1.391 . S
C1070 H1060 0.950 . S
C1070 C1071 1.386 . S
C1070 C1072 1.391 . S
C1071 C1070 1.386 . S
C1071 C1075 1.393 . S
C1072 H1061 0.950 . S
C1072 C1070 1.391 . S
C1072 C1073 1.400 . S
C1073 C1067 1.491 . S
C1073 C1072 1.400 . S
C1073 C1074 1.398 . S
C1074 H1062 0.950 . S
C1074 C1073 1.398 . S
C1074 C1075 1.391 . S
C1075 H1063 0.950 . S
C1075 C1071 1.393 . S
C1075 C1074 1.391 . S
H1076 C1084 0.950 . S
H1077 C1089 0.950 . S
H1078 C1086 0.950 . S
H1079 C1088 0.950 . S
H1080 C1090 0.950 1_565 S
H1081 C1092 0.950 . S
H1082 C1094 0.950 . S
H1083 C1095 0.950 . S
C1084 H1076 0.950 . S
C1084 C1085 1.386 . S
C1084 C1086 1.391 . S
C1085 C1084 1.386 . S
C1085 C1089 1.393 . S
C1086 H1078 0.950 . S
C1086 C1084 1.391 . S
C1086 C1087 1.400 . S
C1087 C1086 1.400 . S
C1087 C1088 1.398 . S
C1087 C1093 1.491 . S
C1088 H1079 0.950 . S
C1088 C1087 1.398 . S
C1088 C1089 1.391 . S
C1089 H1077 0.950 . S
C1089 C1085 1.393 . S
C1089 C1088 1.391 . S
C1090 H1080 0.950 1_545 S
C1090 C1091 1.386 . S
C1090 C1092 1.391 . S
C1091 C1090 1.386 . S
C1091 C1095 1.393 . S
C1092 H1081 0.950 . S
C1092 C1090 1.391 . S
C1092 C1093 1.400 . S
C1093 C1087 1.491 . S
C1093 C1092 1.400 . S
C1093 C1094 1.398 . S
C1094 H1082 0.950 . S
C1094 C1093 1.398 . S
C1094 C1095 1.391 . S
C1095 H1083 0.950 . S
C1095 C1091 1.393 . S
C1095 C1094 1.391 . S
H1096 C1104 0.950 . S
H1097 C1109 0.950 . S
H1098 C1106 0.950 . S
H1099 C1108 0.950 . S
H1100 C1110 0.950 . S
H1101 C1112 0.950 . S
H1102 C1114 0.950 . S
H1103 C1115 0.950 . S
C1104 H1096 0.950 . S
C1104 C1105 1.386 . S
C1104 C1106 1.391 . S
C1105 C1104 1.386 . S
C1105 C1109 1.393 . S
C1106 H1098 0.950 . S
C1106 C1104 1.391 . S
C1106 C1107 1.400 . S
C1107 C1106 1.400 . S
C1107 C1108 1.398 . S
C1107 C1113 1.491 . S
C1108 H1099 0.950 . S
C1108 C1107 1.398 . S
C1108 C1109 1.391 . S
C1109 H1097 0.950 . S
C1109 C1105 1.393 . S
C1109 C1108 1.391 . S
C1110 H1100 0.950 . S
C1110 C1111 1.386 . S
C1110 C1112 1.391 . S
C1111 C1110 1.386 . S
C1111 C1115 1.393 . S
C1112 H1101 0.950 . S
C1112 C1110 1.391 . S
C1112 C1113 1.400 . S
C1113 C1107 1.491 . S
C1113 C1112 1.400 . S
C1113 C1114 1.398 . S
C1114 H1102 0.950 . S
C1114 C1113 1.398 . S
C1114 C1115 1.391 . S
C1115 H1103 0.950 . S
C1115 C1111 1.393 . S
C1115 C1114 1.391 . S
H1116 C1124 0.950 . S
H1117 C1129 0.950 . S
H1118 C1126 0.950 . S
H1119 C1128 0.950 . S
H1120 C1130 0.950 . S
H1121 C1132 0.950 . S
H1122 C1134 0.950 . S
H1123 C1135 0.950 . S
C1124 H1116 0.950 . S
C1124 C1125 1.386 . S
C1124 C1126 1.391 . S
C1125 C1124 1.386 . S
C1125 C1129 1.393 . S
C1126 H1118 0.950 . S
C1126 C1124 1.391 . S
C1126 C1127 1.400 . S
C1127 C1126 1.400 . S
C1127 C1128 1.398 . S
C1127 C1133 1.491 . S
C1128 H1119 0.950 . S
C1128 C1127 1.398 . S
C1128 C1129 1.391 . S
C1129 H1117 0.950 . S
C1129 C1125 1.393 . S
C1129 C1128 1.391 . S
C1130 H1120 0.950 . S
C1130 C1131 1.386 . S
C1130 C1132 1.391 . S
C1131 C1130 1.386 . S
C1131 C1135 1.393 . S
C1132 H1121 0.950 . S
C1132 C1130 1.391 . S
C1132 C1133 1.400 . S
C1133 C1127 1.491 . S
C1133 C1132 1.400 . S
C1133 C1134 1.398 . S
C1134 H1122 0.950 . S
C1134 C1133 1.398 . S
C1134 C1135 1.391 . S
C1135 H1123 0.950 . S
C1135 C1131 1.393 . S
C1135 C1134 1.391 . S
H1136 C1144 0.950 . S
H1137 C1149 0.950 . S
H1138 C1146 0.950 . S
H1139 C1148 0.950 . S
H1140 C1150 0.950 . S
H1141 C1152 0.950 . S
H1142 C1154 0.950 . S
H1143 C1155 0.950 . S
C1144 H1136 0.950 . S
C1144 C1145 1.386 . S
C1144 C1146 1.391 . S
C1145 C1144 1.386 . S
C1145 C1149 1.393 . S
C1146 H1138 0.950 . S
C1146 C1144 1.391 . S
C1146 C1147 1.400 . S
C1147 C1146 1.400 . S
C1147 C1148 1.398 . S
C1147 C1153 1.491 . S
C1148 H1139 0.950 . S
C1148 C1147 1.398 . S
C1148 C1149 1.391 . S
C1149 H1137 0.950 . S
C1149 C1145 1.393 . S
C1149 C1148 1.391 . S
C1150 H1140 0.950 . S
C1150 C1151 1.386 . S
C1150 C1152 1.391 . S
C1151 C1150 1.386 . S
C1151 C1155 1.393 . S
C1152 H1141 0.950 . S
C1152 C1150 1.391 . S
C1152 C1153 1.400 . S
C1153 C1147 1.491 . S
C1153 C1152 1.400 . S
C1153 C1154 1.398 . S
C1154 H1142 0.950 . S
C1154 C1153 1.398 . S
C1154 C1155 1.391 . S
C1155 H1143 0.950 . S
C1155 C1151 1.393 . S
C1155 C1154 1.391 . S
H1156 C1164 0.950 . S
H1157 C1169 0.950 . S
H1158 C1166 0.950 1_455 S
H1159 C1168 0.950 . S
H1160 C1170 0.950 . S
H1161 C1172 0.950 . S
H1162 C1174 0.950 . S
H1163 C1175 0.950 . S
C1164 H1156 0.950 . S
C1164 C1165 1.386 . S
C1164 C1166 1.391 1_455 S
C1165 C1164 1.386 . S
C1165 C1169 1.393 1_455 S
C1166 H1158 0.950 1_655 S
C1166 C1164 1.391 1_655 S
C1166 C1167 1.400 . S
C1167 C1166 1.400 . S
C1167 C1168 1.398 . S
C1167 C1173 1.491 . S
C1168 H1159 0.950 . S
C1168 C1167 1.398 . S
C1168 C1169 1.391 . S
C1169 H1157 0.950 . S
C1169 C1165 1.393 1_655 S
C1169 C1168 1.391 . S
C1170 H1160 0.950 . S
C1170 C1171 1.386 . S
C1170 C1172 1.391 . S
C1171 C1170 1.386 . S
C1171 C1175 1.393 . S
C1172 H1161 0.950 . S
C1172 C1170 1.391 . S
C1172 C1173 1.400 . S
C1173 C1167 1.491 . S
C1173 C1172 1.400 . S
C1173 C1174 1.398 . S
C1174 H1162 0.950 . S
C1174 C1173 1.398 . S
C1174 C1175 1.391 . S
C1175 H1163 0.950 . S
C1175 C1171 1.393 . S
C1175 C1174 1.391 . S
H1176 C1184 0.950 . S
H1177 C1189 0.950 . S
H1178 C1186 0.950 . S
H1179 C1188 0.950 . S
H1180 C1190 0.950 . S
H1181 C1192 0.950 . S
H1182 C1194 0.950 . S
H1183 C1195 0.950 . S
C1184 H1176 0.950 . S
C1184 C1185 1.386 . S
C1184 C1186 1.391 . S
C1185 C1184 1.386 . S
C1185 C1189 1.393 . S
C1186 H1178 0.950 . S
C1186 C1184 1.391 . S
C1186 C1187 1.400 . S
C1187 C1186 1.400 . S
C1187 C1188 1.398 . S
C1187 C1193 1.491 . S
C1188 H1179 0.950 . S
C1188 C1187 1.398 . S
C1188 C1189 1.391 . S
C1189 H1177 0.950 . S
C1189 C1185 1.393 . S
C1189 C1188 1.391 . S
C1190 H1180 0.950 . S
C1190 C1191 1.386 . S
C1190 C1192 1.391 . S
C1191 C1190 1.386 . S
C1191 C1195 1.393 . S
C1192 H1181 0.950 . S
C1192 C1190 1.391 . S
C1192 C1193 1.400 . S
C1193 C1187 1.491 . S
C1193 C1192 1.400 . S
C1193 C1194 1.398 . S
C1194 H1182 0.950 . S
C1194 C1193 1.398 . S
C1194 C1195 1.391 . S
C1195 H1183 0.950 . S
C1195 C1191 1.393 . S
C1195 C1194 1.391 . S
H1196 C1204 0.950 . S
H1197 C1209 0.968 . S
H1198 C1206 0.950 . S
H1199 C1208 0.950 . S
H1200 C1210 0.950 . S
H1201 C1212 0.950 . S
H1202 C1214 0.950 . S
H1203 C1215 0.950 . S
C1204 H1196 0.950 . S
C1204 C1205 1.386 . S
C1204 C1206 1.391 . S
C1205 C1204 1.386 . S
C1205 C1209 1.391 1_455 S
C1206 H1198 0.950 . S
C1206 C1204 1.391 . S
C1206 C1207 1.400 . S
C1207 C1206 1.400 . S
C1207 C1208 1.398 . S
C1207 C1213 1.491 . S
C1208 H1199 0.950 . S
C1208 C1207 1.398 . S
C1208 C1209 1.375 1_455 S
C1209 H1197 0.968 . S
C1209 C1205 1.391 1_655 S
C1209 C1208 1.375 1_655 S
C1210 H1200 0.950 . S
C1210 C1211 1.386 . S
C1210 C1212 1.391 . S
C1211 C1210 1.386 . S
C1211 C1215 1.393 . S
C1212 H1201 0.950 . S
C1212 C1210 1.391 . S
C1212 C1213 1.400 . S
C1213 C1207 1.491 . S
C1213 C1212 1.400 . S
C1213 C1214 1.398 . S
C1214 H1202 0.950 . S
C1214 C1213 1.398 . S
C1214 C1215 1.391 . S
C1215 H1203 0.950 . S
C1215 C1211 1.393 . S
C1215 C1214 1.391 . S
H1216 C1224 0.950 . S
H1217 C1229 0.950 . S
H1218 C1226 0.950 . S
H1219 C1228 0.950 . S
H1220 C1230 0.950 . S
H1221 C1232 0.950 . S
H1222 C1234 0.950 . S
H1223 C1235 0.950 . S
C1224 H1216 0.950 . S
C1224 C1225 1.386 . S
C1224 C1226 1.391 . S
C1225 C1224 1.386 . S
C1225 C1229 1.393 . S
C1226 H1218 0.950 . S
C1226 C1224 1.391 . S
C1226 C1227 1.400 . S
C1227 C1226 1.400 . S
C1227 C1228 1.398 . S
C1227 C1233 1.491 . S
C1228 H1219 0.950 . S
C1228 C1227 1.398 . S
C1228 C1229 1.391 . S
C1229 H1217 0.950 . S
C1229 C1225 1.393 . S
C1229 C1228 1.391 . S
C1230 H1220 0.950 . S
C1230 C1231 1.386 . S
C1230 C1232 1.391 . S
C1231 C1230 1.386 . S
C1231 C1235 1.393 . S
C1232 H1221 0.950 . S
C1232 C1230 1.391 . S
C1232 C1233 1.400 . S
C1233 C1227 1.491 . S
C1233 C1232 1.400 . S
C1233 C1234 1.398 . S
C1234 H1222 0.950 . S
C1234 C1233 1.398 . S
C1234 C1235 1.391 . S
C1235 H1223 0.950 . S
C1235 C1231 1.393 . S
C1235 C1234 1.391 . S
H1236 C1244 0.950 . S
H1237 C1249 0.950 . S
H1238 C1246 0.950 1_554 S
H1239 C1248 0.950 . S
H1240 C1250 0.950 . S
H1241 C1252 0.950 . S
H1242 C1254 0.956 . S
H1243 C1255 0.950 . S
C1244 H1236 0.950 . S
C1244 C1245 1.370 1_554 S
C1244 C1246 1.391 1_554 S
C1245 C1244 1.370 1_556 S
C1245 C1249 1.430 . S
C1246 H1238 0.950 1_556 S
C1246 C1244 1.391 1_556 S
C1246 C1247 1.400 . S
C1247 C1246 1.400 . S
C1247 C1248 1.398 . S
C1247 C1253 1.491 . S
C1248 H1239 0.950 . S
C1248 C1247 1.398 . S
C1248 C1249 1.391 . S
C1249 H1237 0.950 . S
C1249 C1245 1.430 . S
C1249 C1248 1.391 . S
C1250 H1240 0.950 . S
C1250 C1251 1.386 . S
C1250 C1252 1.391 . S
C1251 C1250 1.386 . S
C1251 C1255 1.393 1_655 S
C1252 H1241 0.950 . S
C1252 C1250 1.391 . S
C1252 C1253 1.400 . S
C1253 C1247 1.491 . S
C1253 C1252 1.400 . S
C1253 C1254 1.398 . S
C1254 H1242 0.956 . S
C1254 C1253 1.398 . S
C1254 C1255 1.390 1_655 S
C1255 H1243 0.950 . S
C1255 C1251 1.393 1_455 S
C1255 C1254 1.390 1_455 S
H1256 C1264 0.950 . S
H1257 C1269 0.950 . S
H1258 C1266 0.950 . S
H1259 C1268 0.950 . S
H1260 C1270 0.950 . S
H1261 C1272 0.950 . S
H1262 C1274 0.950 . S
H1263 C1275 0.950 . S
C1264 H1256 0.950 . S
C1264 C1265 1.386 . S
C1264 C1266 1.391 . S
C1265 C1264 1.386 . S
C1265 C1269 1.393 . S
C1266 H1258 0.950 . S
C1266 C1264 1.391 . S
C1266 C1267 1.400 . S
C1267 C1266 1.400 . S
C1267 C1268 1.398 . S
C1267 C1273 1.491 . S
C1268 H1259 0.950 . S
C1268 C1267 1.398 . S
C1268 C1269 1.391 . S
C1269 H1257 0.950 . S
C1269 C1265 1.393 . S
C1269 C1268 1.391 . S
C1270 H1260 0.950 . S
C1270 C1271 1.386 . S
C1270 C1272 1.391 . S
C1271 C1270 1.386 . S
C1271 C1275 1.393 . S
C1272 H1261 0.950 . S
C1272 C1270 1.391 . S
C1272 C1273 1.400 . S
C1273 C1267 1.491 . S
C1273 C1272 1.400 . S
C1273 C1274 1.398 . S
C1274 H1262 0.950 . S
C1274 C1273 1.398 . S
C1274 C1275 1.391 . S
C1275 H1263 0.950 . S
C1275 C1271 1.393 . S
C1275 C1274 1.391 . S
H1276 C1284 0.950 . S
H1277 C1289 0.950 . S
H1278 C1286 0.950 1_655 S
H1279 C1288 0.950 . S
H1280 C1290 0.950 . S
H1281 C1292 0.950 . S
H1282 C1294 0.950 . S
H1283 C1295 0.950 . S
C1284 H1276 0.950 . S
C1284 C1285 1.387 . S
C1284 C1286 1.391 1_554 S
C1285 C1284 1.387 . S
C1285 C1289 1.388 1_554 S
C1286 H1278 0.950 1_455 S
C1286 C1284 1.391 1_556 S
C1286 C1287 1.400 . S
C1287 C1286 1.400 . S
C1287 C1288 1.398 . S
C1287 C1293 1.491 . S
C1288 H1279 0.950 . S
C1288 C1287 1.398 . S
C1288 C1289 1.391 . S
C1289 H1277 0.950 . S
C1289 C1285 1.388 1_556 S
C1289 C1288 1.391 . S
C1290 H1280 0.950 . S
C1290 C1291 1.386 . S
C1290 C1292 1.391 . S
C1291 C1290 1.386 . S
C1291 C1295 1.393 1_455 S
C1292 H1281 0.950 . S
C1292 C1290 1.391 . S
C1292 C1293 1.400 . S
C1293 C1287 1.491 . S
C1293 C1292 1.400 . S
C1293 C1294 1.398 1_455 S
C1294 H1282 0.950 . S
C1294 C1293 1.398 1_655 S
C1294 C1295 1.391 . S
C1295 H1283 0.950 . S
C1295 C1291 1.393 1_655 S
C1295 C1294 1.391 . S
H1296 C1304 0.950 . S
H1297 C1309 0.950 . S
H1298 C1306 0.950 . S
H1299 C1308 0.950 . S
H1300 C1310 0.950 . S
H1301 C1312 0.950 . S
H1302 C1314 0.950 . S
H1303 C1315 0.950 . S
C1304 H1296 0.950 . S
C1304 C1305 1.386 . S
C1304 C1306 1.391 . S
C1305 C1304 1.386 . S
C1305 C1309 1.393 . S
C1306 H1298 0.950 . S
C1306 C1304 1.391 . S
C1306 C1307 1.400 . S
C1307 C1306 1.400 . S
C1307 C1308 1.398 . S
C1307 C1313 1.491 . S
C1308 H1299 0.950 . S
C1308 C1307 1.398 . S
C1308 C1309 1.391 . S
C1309 H1297 0.950 . S
C1309 C1305 1.393 . S
C1309 C1308 1.391 . S
C1310 H1300 0.950 . S
C1310 C1311 1.386 . S
C1310 C1312 1.391 . S
C1311 C1310 1.386 . S
C1311 C1315 1.393 . S
C1312 H1301 0.950 . S
C1312 C1310 1.391 . S
C1312 C1313 1.400 . S
C1313 C1307 1.491 . S
C1313 C1312 1.400 . S
C1313 C1314 1.398 . S
C1314 H1302 0.950 . S
C1314 C1313 1.398 . S
C1314 C1315 1.391 . S
C1315 H1303 0.950 . S
C1315 C1311 1.393 . S
C1315 C1314 1.391 . S
H1316 C1324 0.950 . S
H1317 C1329 0.950 . S
H1318 C1326 0.950 . S
H1319 C1328 0.950 . S
H1320 C1330 0.950 . S
H1321 C1332 0.950 . S
H1322 C1334 0.950 . S
H1323 C1335 0.950 . S
C1324 H1316 0.950 . S
C1324 C1325 1.386 1_556 S
C1324 C1326 1.391 1_556 S
C1325 C1324 1.386 1_554 S
C1325 C1329 1.393 . S
C1326 H1318 0.950 . S
C1326 C1324 1.391 1_554 S
C1326 C1327 1.400 . S
C1327 C1326 1.400 . S
C1327 C1328 1.398 . S
C1327 C1333 1.491 . S
C1328 H1319 0.950 . S
C1328 C1327 1.398 . S
C1328 C1329 1.391 . S
C1329 H1317 0.950 . S
C1329 C1325 1.393 . S
C1329 C1328 1.391 . S
C1330 H1320 0.950 . S
C1330 C1331 1.386 . S
C1330 C1332 1.391 . S
C1331 C1330 1.386 . S
C1331 C1335 1.393 . S
C1332 H1321 0.950 . S
C1332 C1330 1.391 . S
C1332 C1333 1.400 . S
C1333 C1327 1.491 . S
C1333 C1332 1.400 . S
C1333 C1334 1.398 . S
C1334 H1322 0.950 . S
C1334 C1333 1.398 . S
C1334 C1335 1.391 . S
C1335 H1323 0.950 . S
C1335 C1331 1.393 . S
C1335 C1334 1.391 . S
H1336 C1344 0.950 . S
H1337 C1349 0.950 . S
H1338 C1346 0.950 . S
H1339 C1348 0.950 . S
H1340 C1350 0.950 . S
H1341 C1352 0.950 . S
H1342 C1354 0.950 . S
H1343 C1355 0.950 . S
C1344 H1336 0.950 . S
C1344 C1345 1.386 . S
C1344 C1346 1.391 . S
C1345 C1344 1.386 . S
C1345 C1349 1.393 . S
C1346 H1338 0.950 . S
C1346 C1344 1.391 . S
C1346 C1347 1.400 . S
C1347 C1346 1.400 . S
C1347 C1348 1.398 . S
C1347 C1353 1.491 . S
C1348 H1339 0.950 . S
C1348 C1347 1.398 . S
C1348 C1349 1.391 . S
C1349 H1337 0.950 . S
C1349 C1345 1.393 . S
C1349 C1348 1.391 . S
C1350 H1340 0.950 . S
C1350 C1351 1.386 . S
C1350 C1352 1.391 . S
C1351 C1350 1.386 . S
C1351 C1355 1.393 . S
C1352 H1341 0.950 . S
C1352 C1350 1.391 . S
C1352 C1353 1.400 . S
C1353 C1347 1.491 . S
C1353 C1352 1.400 . S
C1353 C1354 1.398 . S
C1354 H1342 0.950 . S
C1354 C1353 1.398 . S
C1354 C1355 1.391 . S
C1355 H1343 0.950 . S
C1355 C1351 1.393 . S
C1355 C1354 1.391 . S
H1356 C1364 0.950 . S
H1357 C1369 0.949 . S
H1358 C1366 0.950 . S
H1359 C1368 0.950 . S
H1360 C1370 0.950 . S
H1361 C1372 0.950 . S
H1362 C1374 0.950 . S
H1363 C1375 0.950 . S
C1364 H1356 0.950 . S
C1364 C1365 1.386 . S
C1364 C1366 1.391 . S
C1365 C1364 1.386 . S
C1365 C1369 1.393 1_554 S
C1366 H1358 0.950 . S
C1366 C1364 1.391 . S
C1366 C1367 1.400 . S
C1367 C1366 1.400 . S
C1367 C1368 1.398 . S
C1367 C1373 1.491 . S
C1368 H1359 0.950 . S
C1368 C1367 1.398 . S
C1368 C1369 1.391 1_554 S
C1369 H1357 0.949 . S
C1369 C1365 1.393 1_556 S
C1369 C1368 1.391 1_556 S
C1370 H1360 0.950 . S
C1370 C1371 1.386 . S
C1370 C1372 1.391 . S
C1371 C1370 1.386 . S
C1371 C1375 1.393 . S
C1372 H1361 0.950 . S
C1372 C1370 1.391 . S
C1372 C1373 1.400 . S
C1373 C1367 1.491 . S
C1373 C1372 1.400 . S
C1373 C1374 1.398 . S
C1374 H1362 0.950 . S
C1374 C1373 1.398 . S
C1374 C1375 1.391 . S
C1375 H1363 0.950 . S
C1375 C1371 1.393 . S
C1375 C1374 1.391 . S
H1376 C1384 0.950 . S
H1377 C1389 0.950 . S
H1378 C1386 0.950 . S
H1379 C1388 0.950 . S
H1380 C1390 0.950 . S
H1381 C1392 0.950 . S
H1382 C1394 0.950 . S
H1383 C1395 0.950 . S
C1384 H1376 0.950 . S
C1384 C1385 1.386 . S
C1384 C1386 1.391 . S
C1385 C1384 1.386 . S
C1385 C1389 1.393 . S
C1386 H1378 0.950 . S
C1386 C1384 1.391 . S
C1386 C1387 1.400 . S
C1387 C1386 1.400 . S
C1387 C1388 1.398 . S
C1387 C1393 1.491 . S
C1388 H1379 0.950 . S
C1388 C1387 1.398 . S
C1388 C1389 1.391 . S
C1389 H1377 0.950 . S
C1389 C1385 1.393 . S
C1389 C1388 1.391 . S
C1390 H1380 0.950 . S
C1390 C1391 1.386 . S
C1390 C1392 1.391 . S
C1391 C1390 1.386 . S
C1391 C1395 1.393 . S
C1392 H1381 0.950 . S
C1392 C1390 1.391 . S
C1392 C1393 1.400 . S
C1393 C1387 1.491 . S
C1393 C1392 1.400 . S
C1393 C1394 1.398 . S
C1394 H1382 0.950 . S
C1394 C1393 1.398 . S
C1394 C1395 1.391 . S
C1395 H1383 0.950 . S
C1395 C1391 1.393 . S
C1395 C1394 1.391 . S
H1396 C1404 0.950 . S
H1397 C1409 0.950 . S
H1398 C1406 0.950 . S
H1399 C1408 0.950 . S
H1400 C1410 0.950 . S
H1401 C1412 0.950 . S
H1402 C1414 0.950 . S
H1403 C1415 0.950 . S
C1404 H1396 0.950 . S
C1404 C1405 1.386 . S
C1404 C1406 1.391 . S
C1405 C1404 1.386 . S
C1405 C1409 1.393 . S
C1406 H1398 0.950 . S
C1406 C1404 1.391 . S
C1406 C1407 1.400 . S
C1407 C1406 1.400 . S
C1407 C1408 1.398 . S
C1407 C1413 1.491 . S
C1408 H1399 0.950 . S
C1408 C1407 1.398 . S
C1408 C1409 1.391 . S
C1409 H1397 0.950 . S
C1409 C1405 1.393 . S
C1409 C1408 1.391 . S
C1410 H1400 0.950 . S
C1410 C1411 1.386 . S
C1410 C1412 1.391 . S
C1411 C1410 1.386 . S
C1411 C1415 1.393 . S
C1412 H1401 0.950 . S
C1412 C1410 1.391 . S
C1412 C1413 1.400 . S
C1413 C1407 1.491 . S
C1413 C1412 1.400 . S
C1413 C1414 1.398 . S
C1414 H1402 0.950 . S
C1414 C1413 1.398 . S
C1414 C1415 1.391 . S
C1415 H1403 0.950 . S
C1415 C1411 1.393 . S
C1415 C1414 1.391 . S
H1416 C1424 0.950 . S
H1417 C1429 0.950 . S
H1418 C1426 0.950 . S
H1419 C1428 0.950 . S
H1420 C1430 0.950 . S
H1421 C1432 0.950 . S
H1422 C1434 0.950 . S
H1423 C1435 0.950 . S
C1424 H1416 0.950 . S
C1424 C1425 1.386 . S
C1424 C1426 1.391 . S
C1425 C1424 1.386 . S
C1425 C1429 1.393 . S
C1426 H1418 0.950 . S
C1426 C1424 1.391 . S
C1426 C1427 1.400 . S
C1427 C1426 1.400 . S
C1427 C1428 1.398 . S
C1427 C1433 1.491 . S
C1428 H1419 0.950 . S
C1428 C1427 1.398 . S
C1428 C1429 1.391 . S
C1429 H1417 0.950 . S
C1429 C1425 1.393 . S
C1429 C1428 1.391 . S
C1430 H1420 0.950 . S
C1430 C1431 1.386 . S
C1430 C1432 1.391 . S
C1431 C1430 1.386 . S
C1431 C1435 1.393 . S
C1432 H1421 0.950 . S
C1432 C1430 1.391 . S
C1432 C1433 1.400 . S
C1433 C1427 1.491 . S
C1433 C1432 1.400 . S
C1433 C1434 1.398 . S
C1434 H1422 0.950 . S
C1434 C1433 1.398 . S
C1434 C1435 1.391 . S
C1435 H1423 0.950 . S
C1435 C1431 1.393 . S
C1435 C1434 1.391 . S
H1436 C1444 0.950 . S
H1437 C1449 0.950 . S
H1438 C1446 0.950 . S
H1439 C1448 0.950 . S
H1440 C1450 0.950 . S
H1441 C1452 0.950 . S
H1442 C1454 0.950 . S
H1443 C1455 0.950 . S
C1444 H1436 0.950 . S
C1444 C1445 1.386 . S
C1444 C1446 1.391 . S
C1445 C1444 1.386 . S
C1445 C1449 1.393 . S
C1446 H1438 0.950 . S
C1446 C1444 1.391 . S
C1446 C1447 1.400 . S
C1447 C1446 1.400 . S
C1447 C1448 1.398 . S
C1447 C1453 1.491 . S
C1448 H1439 0.950 . S
C1448 C1447 1.398 . S
C1448 C1449 1.391 . S
C1449 H1437 0.950 . S
C1449 C1445 1.393 . S
C1449 C1448 1.391 . S
C1450 H1440 0.950 . S
C1450 C1451 1.386 . S
C1450 C1452 1.391 . S
C1451 C1450 1.386 . S
C1451 C1455 1.393 . S
C1452 H1441 0.950 . S
C1452 C1450 1.391 . S
C1452 C1453 1.400 . S
C1453 C1447 1.491 . S
C1453 C1452 1.400 . S
C1453 C1454 1.398 . S
C1454 H1442 0.950 . S
C1454 C1453 1.398 . S
C1454 C1455 1.391 . S
C1455 H1443 0.950 . S
C1455 C1451 1.393 . S
C1455 C1454 1.391 . S
H1456 C1464 0.950 . S
H1457 C1469 0.950 . S
H1458 C1466 0.950 . S
H1459 C1468 0.950 . S
H1460 C1470 0.950 . S
H1461 C1472 0.950 . S
H1462 C1474 0.950 . S
H1463 C1475 0.950 1_554 S
C1464 H1456 0.950 . S
C1464 C1465 1.386 . S
C1464 C1466 1.391 . S
C1465 C1464 1.386 . S
C1465 C1469 1.393 . S
C1466 H1458 0.950 . S
C1466 C1464 1.391 . S
C1466 C1467 1.400 . S
C1467 C1466 1.400 . S
C1467 C1468 1.398 . S
C1467 C1473 1.491 . S
C1468 H1459 0.950 . S
C1468 C1467 1.398 . S
C1468 C1469 1.391 . S
C1469 H1457 0.950 . S
C1469 C1465 1.393 . S
C1469 C1468 1.391 . S
C1470 H1460 0.950 . S
C1470 C1471 1.386 . S
C1470 C1472 1.391 . S
C1471 C1470 1.386 . S
C1471 C1475 1.393 . S
C1472 H1461 0.950 . S
C1472 C1470 1.391 . S
C1472 C1473 1.400 . S
C1473 C1467 1.491 . S
C1473 C1472 1.400 . S
C1473 C1474 1.398 . S
C1474 H1462 0.950 . S
C1474 C1473 1.398 . S
C1474 C1475 1.391 . S
C1475 H1463 0.950 1_556 S
C1475 C1471 1.393 . S
C1475 C1474 1.391 . S
H1476 C1484 0.950 . S
H1477 C1489 0.950 . S
H1478 C1486 0.950 . S
H1479 C1488 0.950 . S
H1480 C1490 0.950 . S
H1481 C1492 0.950 . S
H1482 C1494 0.950 . S
H1483 C1495 0.950 . S
C1484 H1476 0.950 . S
C1484 C1485 1.386 . S
C1484 C1486 1.391 . S
C1485 C1484 1.386 . S
C1485 C1489 1.393 . S
C1486 H1478 0.950 . S
C1486 C1484 1.391 . S
C1486 C1487 1.400 . S
C1487 C1486 1.400 . S
C1487 C1488 1.398 . S
C1487 C1493 1.491 . S
C1488 H1479 0.950 . S
C1488 C1487 1.398 . S
C1488 C1489 1.391 . S
C1489 H1477 0.950 . S
C1489 C1485 1.393 . S
C1489 C1488 1.391 . S
C1490 H1480 0.950 . S
C1490 C1491 1.386 . S
C1490 C1492 1.391 . S
C1491 C1490 1.386 . S
C1491 C1495 1.393 . S
C1492 H1481 0.950 . S
C1492 C1490 1.391 . S
C1492 C1493 1.400 . S
C1493 C1487 1.491 . S
C1493 C1492 1.400 . S
C1493 C1494 1.398 . S
C1494 H1482 0.950 . S
C1494 C1493 1.398 . S
C1494 C1495 1.391 . S
C1495 H1483 0.950 . S
C1495 C1491 1.393 . S
C1495 C1494 1.391 . S
H1496 C1504 0.950 . S
H1497 C1509 0.950 1_556 S
H1498 C1506 0.950 . S
H1499 C1508 0.950 1_556 S
H1500 C1510 0.950 . S
H1501 C1512 0.950 . S
H1502 C1514 0.950 . S
H1503 C1515 0.950 . S
C1504 H1496 0.950 . S
C1504 C1505 1.386 . S
C1504 C1506 1.391 . S
C1505 C1504 1.386 . S
C1505 C1509 1.393 . S
C1506 H1498 0.950 . S
C1506 C1504 1.391 . S
C1506 C1507 1.400 . S
C1507 C1506 1.400 . S
C1507 C1508 1.398 . S
C1507 C1513 1.491 . S
C1508 H1499 0.950 1_554 S
C1508 C1507 1.398 . S
C1508 C1509 1.391 . S
C1509 H1497 0.950 1_554 S
C1509 C1505 1.393 . S
C1509 C1508 1.391 . S
C1510 H1500 0.950 . S
C1510 C1511 1.386 1_556 S
C1510 C1512 1.391 . S
C1511 C1510 1.386 1_554 S
C1511 C1515 1.393 . S
C1512 H1501 0.950 . S
C1512 C1510 1.391 . S
C1512 C1513 1.400 1_556 S
C1513 C1507 1.491 . S
C1513 C1512 1.400 1_554 S
C1513 C1514 1.398 . S
C1514 H1502 0.950 . S
C1514 C1513 1.398 . S
C1514 C1515 1.391 . S
C1515 H1503 0.950 . S
C1515 C1511 1.393 . S
C1515 C1514 1.391 . S
H1516 C1524 0.950 . S
H1517 C1529 0.950 . S
H1518 C1526 0.968 . S
H1519 C1528 0.961 . S
H1520 C1530 0.950 . S
H1521 C1532 0.950 . S
H1522 C1534 0.936 1_556 S
H1523 C1535 0.950 1_556 S
C1524 H1516 0.950 . S
C1524 C1525 1.395 . S
C1524 C1526 1.391 . S
C1525 C1524 1.395 . S
C1525 C1529 1.390 1_565 S
C1526 H1518 0.968 . S
C1526 C1524 1.391 . S
C1526 C1527 1.400 . S
C1527 C1526 1.400 . S
C1527 C1528 1.398 . S
C1527 C1533 1.491 . S
C1528 H1519 0.961 . S
C1528 C1527 1.398 . S
C1528 C1529 1.391 1_565 S
C1529 H1517 0.950 . S
C1529 C1525 1.390 1_545 S
C1529 C1528 1.391 1_545 S
C1530 H1520 0.950 . S
C1530 C1531 1.386 . S
C1530 C1532 1.391 . S
C1531 C1530 1.386 . S
C1531 C1535 1.393 . S
C1532 H1521 0.950 . S
C1532 C1530 1.391 . S
C1532 C1533 1.400 . S
C1533 C1527 1.491 . S
C1533 C1532 1.400 . S
C1533 C1534 1.398 . S
C1534 H1522 0.936 1_554 S
C1534 C1533 1.398 . S
C1534 C1535 1.391 . S
C1535 H1523 0.950 1_554 S
C1535 C1531 1.393 . S
C1535 C1534 1.391 . S
C591 C146 1.436 . S
C585 C50 1.439 . S
C611 C194 1.589 . S
C605 C61 1.637 1_455 S
C625 C67 1.433 . S
C631 C230 1.387 . S
C651 C266 1.537 . S
C645 C41 1.592 . S
C671 C292 1.440 . S
C665 C95 1.438 . S
C691 C328 1.563 . S
C685 C113 1.566 . S
C705 C106 1.468 . S
C711 C363 1.472 . S
C731 C400 1.587 1_565 S
C725 C86 1.594 . S
C745 C104 1.427 . S
C751 C434 1.424 . S
C771 C482 1.542 . S
C765 C88 1.580 . S
C785 C94 1.430 . S
C791 C435 1.439 . S
C811 C472 1.578 . S
C805 C112 1.581 . S
C825 C70 1.455 . S
C831 C518 1.406 . S
C845 C40 1.604 . S
C851 C507 1.602 . S
C865 C49 1.472 . S
C871 C508 1.471 . S
C885 C59 1.627 . S
C891 C506 1.621 1_655 S
C905 C34 1.424 . S
C911 C254 1.421 . S
C925 C133 1.415 . S
C931 C255 1.426 . S
C951 C158 1.569 1_554 S
C945 C139 1.623 . S
C971 C183 1.469 . S
C965 C77 1.470 . S
C985 C43 1.596 1_545 S
C991 C290 1.595 . S
C1011 C398 1.455 . S
C1005 C103 1.459 . S
C1031 C291 1.584 . S
C1025 C85 1.587 1_545 S
C1051 C364 1.576 . S
C1045 C115 1.579 . S
C1071 C362 1.428 . S
C1065 C131 1.432 . S
C1085 C142 1.639 . S
C1091 C410 1.574 . S
C1105 C76 1.428 . S
C1111 C302 1.373 . S
C1131 C338 1.544 . S
C1125 C122 1.591 . S
C1145 C32 1.436 . S
C1151 C220 1.439 . S
C1171 C256 1.559 . S
C1165 C5 1.563 . S
C1191 C147 1.475 . S
C1185 C16 1.464 . S
C1211 C184 1.590 . S
C1205 C23 1.593 1_455 S
C1225 C14 1.431 . S
C1231 C470 1.428 . S
C1245 C25 1.559 1_556 S
C1251 C446 1.541 . S
C1265 C31 1.429 . S
C1271 C471 1.440 . S
C1285 C4 1.581 . S
C1291 C436 1.575 . S
C1311 C554 1.377 . S
C1305 C79 1.451 . S
C1331 C543 1.598 . S
C1325 C121 1.604 1_554 S
C1351 C544 1.475 . S
C1345 C130 1.476 . S
C1365 C140 1.628 1_554 S
C1371 C542 1.627 . S
C1385 C97 1.428 . S
C1391 C326 1.424 . S
C1411 C327 1.423 . S
C1405 C52 1.423 . S
C1431 C374 1.582 . S
C1425 C58 1.623 . S
C1451 C399 1.470 . S
C1445 C68 1.477 . S
C1465 C124 1.596 . S
C1471 C218 1.586 1_556 S
C1491 C182 1.467 . S
C1485 C13 1.472 . S
C1505 C22 1.587 . S
C1511 C219 1.585 . S
C1531 C148 1.577 . S
C1525 C7 1.572 1_565 S
