# Generated by pormake.
# Topology anh, (6,3)-cn, num edge types: 1
# Building blocks:
#     Node 0, Type 0, BuildingBlock: INOVEN_clean_sbu_0, # of connection points: 6
#     Node 1, Type 0, BuildingBlock: INOVEN_clean_sbu_0, # of connection points: 6
#     Node 2, Type 0, BuildingBlock: INOVEN_clean_sbu_0, # of connection points: 6
#     Node 3, Type 1, BuildingBlock: PAMTOO_clean_linker_0, # of connection points: 3
#     Node 4, Type 1, BuildingBlock: PAMTOO_clean_linker_0, # of connection points: 3
#     Node 5, Type 1, BuildingBlock: PAMTOO_clean_linker_0, # of connection points: 3
#     Node 6, Type 1, BuildingBlock: PAMTOO_clean_linker_0, # of connection points: 3
#     Node 7, Type 1, BuildingBlock: PAMTOO_clean_linker_0, # of connection points: 3
#     Node 8, Type 1, BuildingBlock: PAMTOO_clean_linker_0, # of connection points: 3
#     Edge 9, Type (0, 1), BuildingBlock: OJICUG_clean_linker_0, # of connection points: 2
#     Edge 10, Type (0, 1), BuildingBlock: OJICUG_clean_linker_0, # of connection points: 2
#     Edge 11, Type (0, 1), BuildingBlock: OJICUG_clean_linker_0, # of connection points: 2
#     Edge 12, Type (0, 1), BuildingBlock: OJICUG_clean_linker_0, # of connection points: 2
#     Edge 13, Type (0, 1), BuildingBlock: OJICUG_clean_linker_0, # of connection points: 2
#     Edge 14, Type (0, 1), BuildingBlock: OJICUG_clean_linker_0, # of connection points: 2
#     Edge 15, Type (0, 1), BuildingBlock: OJICUG_clean_linker_0, # of connection points: 2
#     Edge 16, Type (0, 1), BuildingBlock: OJICUG_clean_linker_0, # of connection points: 2
#     Edge 17, Type (0, 1), BuildingBlock: OJICUG_clean_linker_0, # of connection points: 2
#     Edge 18, Type (0, 1), BuildingBlock: OJICUG_clean_linker_0, # of connection points: 2
#     Edge 19, Type (0, 1), BuildingBlock: OJICUG_clean_linker_0, # of connection points: 2
#     Edge 20, Type (0, 1), BuildingBlock: OJICUG_clean_linker_0, # of connection points: 2
#     Edge 21, Type (0, 1), BuildingBlock: OJICUG_clean_linker_0, # of connection points: 2
#     Edge 22, Type (0, 1), BuildingBlock: OJICUG_clean_linker_0, # of connection points: 2
#     Edge 23, Type (0, 1), BuildingBlock: OJICUG_clean_linker_0, # of connection points: 2
#     Edge 24, Type (0, 1), BuildingBlock: OJICUG_clean_linker_0, # of connection points: 2
#     Edge 25, Type (0, 1), BuildingBlock: OJICUG_clean_linker_0, # of connection points: 2
#     Edge 26, Type (0, 1), BuildingBlock: OJICUG_clean_linker_0, # of connection points: 2
# Relax obj value: 0.225
# Max RMSD: 0.217
# Mean RMSD: 0.137
data_MOF--net-anh--node1-INOVEN_clean_sbu_0--node2-PAMTOO_clean_linker_0--edge1-OJICUG_clean_linker_0
_symmetry_space_group_name_H-M    P1
_symmetry_Int_Tables_number       1
_symmetry_cell_setting            triclinic
loop_
_symmetry_equiv_pos_as_xyz
'x, y, z'
_cell_length_a     21.901308
_cell_length_b     29.067958
_cell_length_c     35.832795
_cell_angle_alpha  89.01746
_cell_angle_beta   90.867198
_cell_angle_gamma 132.98688
loop_
_atom_site_label
_atom_site_type_symbol
_atom_site_fract_x
_atom_site_fract_y
_atom_site_fract_z
_atom_type_partial_charge
Gd0 Gd 0.353 0.60082 0.14301 0.0
Gd1 Gd 0.24501 0.62069 0.17592 0.0
C2 C 0.4368 0.74473 0.15534 0.0
C3 C 0.43704 0.58568 0.10503 0.0
C4 C 0.42754 0.53073 0.10256 0.0
C5 C 0.37655 0.48102 0.12828 0.0
C6 C 0.46387 0.52532 0.07326 0.0
C7 C 0.39819 0.42068 0.09549 0.0
C8 C 0.44929 0.4706 0.06971 0.0
C9 C 0.3623 0.42662 0.12488 0.0
C10 C 0.33615 0.58902 0.21805 0.0
C11 C 0.16475 0.47922 0.16561 0.0
C12 C 0.16515 0.63894 0.21451 0.0
C13 C 1.07476 0.60192 0.21738 0.0
C14 C 1.0413 0.62402 0.19968 0.0
C15 C 1.02001 0.54089 0.23295 0.0
C16 C 0.90105 0.52065 0.20611 0.0
C17 C 0.93394 0.50076 0.2275 0.0
C18 C 0.95539 0.58375 0.1939 0.0
C19 C 0.21516 0.58836 0.10288 0.0
O20 O 0.44527 0.70768 0.14072 0.0
O21 O 0.36673 0.72161 0.17156 0.0
O22 O 0.37445 0.57717 0.09104 0.0
O23 O 0.46241 0.61393 0.1374 0.0
O24 O 0.33784 0.55355 0.19766 0.0
O25 O 0.34604 0.62956 0.19808 0.0
O26 O 0.16694 0.51713 0.18686 0.0
O27 O 0.22498 0.50203 0.14142 0.0
O28 O 0.1988 0.66635 0.18205 0.0
O29 O 0.19104 0.61268 0.22845 0.0
O30 O 1.15865 0.5729 0.12592 0.0
O31 O 0.28562 0.6252 0.11856 0.0
H32 H 0.34665 0.48388 0.15068 0.0
H33 H 0.50264 0.56301 0.05295 0.0
H34 H 0.47833 0.46746 0.04697 0.0
H35 H 0.32179 0.38866 0.14485 0.0
H36 H 1.08199 0.67104 0.18779 0.0
H37 H 1.04359 0.52258 0.24734 0.0
H38 H 0.89369 0.45296 0.23807 0.0
H39 H 0.93278 0.60089 0.17713 0.0
Gd40 Gd 0.83165 0.08915 0.47965 0.0
Gd41 Gd 0.71151 0.10331 0.45963 0.0
C42 C 0.63495 0.96373 0.46467 0.0
C43 C 0.90577 0.05818 0.51224 0.0
C44 C 0.89072 1.00107 0.52001 0.0
C45 C 0.87988 0.96384 0.49117 0.0
C46 C 0.88824 0.98396 0.55719 0.0
C47 C 0.86428 0.89322 0.53678 0.0
C48 C 0.87484 0.93055 0.56551 0.0
C49 C 0.86695 0.91054 0.49948 0.0
C50 C 0.82094 0.10169 0.40585 0.0
C51 C 0.91116 0.22899 0.46701 0.0
C52 C 0.63418 0.13649 0.43552 0.0
C53 C 0.63956 0.18872 0.44435 0.0
C54 C 0.56874 0.17515 0.45763 0.0
C55 C 0.71535 0.25188 0.4416 0.0
C56 C 0.64985 0.28672 0.46656 0.0
C57 C 0.72034 0.30035 0.45247 0.0
C58 C 0.57383 0.22357 0.46872 0.0
C59 C 0.72821 0.09446 0.53366 0.0
O60 O 0.70483 0.98844 0.48257 0.0
O61 O 0.62774 1.0003 0.44719 0.0
O62 O 0.9199 0.07812 0.47763 0.0
O63 O 0.85792 0.06244 0.52981 0.0
O64 O 0.88829 0.12199 0.42252 0.0
O65 O 0.75986 0.06995 0.42799 0.0
O66 O 0.83737 0.20272 0.45301 0.0
O67 O 0.92268 0.19474 0.48417 0.0
O68 O 0.60531 0.0949 0.46212 0.0
O69 O 0.69756 0.15089 0.41824 0.0
O70 O 0.65851 0.06947 0.51756 0.0
O71 O 0.7866 0.12566 0.51031 0.0
H72 H 0.88161 0.97587 0.46219 0.0
H73 H 0.8964 1.0119 0.57991 0.0
H74 H 0.87165 0.9181 0.59454 0.0
H75 H 0.86001 0.88333 0.47665 0.0
H76 H 0.50961 0.12688 0.45997 0.0
H77 H 0.77122 0.26392 0.43169 0.0
H78 H 0.77998 0.34843 0.45077 0.0
H79 H 0.51814 0.21157 0.47898 0.0
Gd80 Gd 0.74421 0.60437 0.84793 0.0
Gd81 Gd 0.61603 0.46273 0.8507 0.0
C82 C 0.54414 0.5288 0.85096 0.0
C83 C 0.83378 0.72156 0.83025 0.0
C84 C 0.82272 0.76427 0.81755 0.0
C85 C 0.80347 0.7893 0.84279 0.0
C86 C 0.83499 0.78245 0.77979 0.0
C87 C 0.80788 0.8491 0.79257 0.0
C88 C 0.82728 0.82413 0.7674 0.0
C89 C 0.79611 0.83126 0.83041 0.0
C90 C 0.70347 0.55192 0.91661 0.0
C91 C 0.81811 0.53956 0.8536 0.0
C92 C 0.53315 0.34613 0.86602 0.0
C93 C 0.54312 0.30258 0.85547 0.0
C94 C 0.54099 0.28846 0.81787 0.0
C95 C 0.55857 0.27677 0.88314 0.0
C96 C 0.57169 0.22476 0.83576 0.0
C97 C 0.57291 0.2384 0.87342 0.0
C98 C 0.5548 0.24986 0.80816 0.0
C99 C 0.6558 0.51155 0.78094 0.0
O100 O 0.61986 0.57987 0.83908 0.0
O101 O 0.53037 0.47882 0.86266 0.0
O102 O 0.81333 0.70034 0.86466 0.0
O103 O 0.81244 0.67891 0.80652 0.0
O104 O 0.77936 0.60176 0.90731 0.0
O105 O 0.65434 0.53451 0.88993 0.0
O106 O 0.73916 0.48609 0.85847 0.0
O107 O 0.83656 0.59262 0.84578 0.0
O108 O 0.51155 0.36418 0.83942 0.0
O109 O 0.59075 0.39206 0.8882 0.0
O110 O 0.58197 0.46011 0.79078 0.0
O111 O 0.70626 0.53222 0.80776 0.0
H112 H 0.79428 0.7767 0.87213 0.0
H113 H 0.85118 0.76476 0.75976 0.0
H114 H 0.8379 0.83762 0.73818 0.0
H115 H 0.78034 0.84924 0.85042 0.0
H116 H 0.52938 0.30762 0.79578 0.0
H117 H 0.56089 0.28714 0.91232 0.0
H118 H 0.58662 0.2205 0.89538 0.0
H119 H 0.55182 0.23947 0.77896 0.0
H120 H 0.91724 0.23176 0.25412 0.0
H121 H 0.75293 0.03479 0.22995 0.0
H122 H 0.87875 0.17043 0.14028 0.0
H123 H 0.7086 1.02819 0.10997 0.0
C124 C 0.6976 1.01876 0.14046 0.0
O125 O 0.77339 0.04884 0.15797 0.0
H126 H 0.67111 0.0386 0.14954 0.0
C127 C 0.88632 0.19448 0.23378 0.0
C128 C 0.90442 0.20973 0.19558 0.0
C129 C 0.83245 0.13185 0.24641 0.0
C130 C 0.79451 0.08333 0.2205 0.0
C131 C 0.81006 0.0969 0.1823 0.0
C132 C 0.86595 0.16017 0.16983 0.0
H133 H 0.78195 0.67836 0.63599 0.0
H134 H 0.71394 0.50473 0.60878 0.0
H135 H 0.79407 0.63919 0.52214 0.0
H136 H 0.67038 0.51018 0.49317 0.0
C137 C 0.67117 0.48629 0.51749 0.0
O138 O 0.74425 0.52962 0.53739 0.0
H139 H 0.61596 0.46589 0.53505 0.0
C140 C 0.77583 0.64833 0.61554 0.0
C141 C 0.7917 0.66633 0.57766 0.0
C142 C 0.74724 0.59003 0.62697 0.0
C143 C 0.73607 0.54993 0.60035 0.0
C144 C 0.75367 0.56802 0.56272 0.0
C145 C 0.78124 0.62596 0.5514 0.0
H146 H 1.0559 0.54688 0.94276 0.0
H147 H 0.26911 0.56708 0.93224 0.0
H148 H 1.1382 0.54782 0.83405 0.0
H149 H 0.23477 0.49645 0.82183 0.0
C150 C 0.25601 0.50902 0.85132 0.0
O151 O 0.26544 0.56011 0.86048 0.0
H152 H 0.20535 0.46727 0.8685 0.0
C153 C 1.09894 0.55004 0.92555 0.0
C154 C 1.08865 0.54692 0.88657 0.0
C155 C 0.16386 0.55776 0.94256 0.0
C156 C 0.21789 0.56008 0.91988 0.0
C157 C 0.20881 0.55543 0.88098 0.0
C158 C 1.14454 0.54988 0.86414 0.0
H159 H 0.16977 0.46045 0.37358 0.0
H160 H 0.38061 0.65806 0.39052 0.0
H161 H 0.23395 0.53741 0.48426 0.0
H162 H 0.32599 0.68316 0.49996 0.0
C163 C 0.34722 0.6923 0.47056 0.0
O164 O 0.36279 0.65468 0.46227 0.0
H165 H 0.29555 0.67979 0.45279 0.0
C166 C 0.21011 0.50031 0.3921 0.0
C167 C 0.19356 0.49127 0.43059 0.0
C168 C 0.27746 0.56002 0.37721 0.0
C169 C 0.32817 0.61159 0.40135 0.0
C170 C 0.31257 0.60379 0.43976 0.0
C171 C 0.24587 0.54338 0.45452 0.0
H172 H 0.78919 1.01588 0.68318 0.0
H173 H 0.7183 0.118 0.70909 0.0
H174 H 0.74534 0.03175 0.79734 0.0
H175 H 0.61292 0.0319 0.81445 0.0
C176 C 0.62888 0.06496 0.79165 0.0
O177 O 0.71063 0.09965 0.78118 0.0
H178 H 0.58546 0.03685 0.76782 0.0
C179 C 0.77372 0.03351 0.70369 0.0
C180 C 0.77007 1.01922 0.74183 0.0
C181 C 0.75465 0.06874 0.69165 0.0
C182 C 0.73382 0.09119 0.71803 0.0
C183 C 0.73171 0.07844 0.75603 0.0
C184 C 0.74985 0.04273 0.76789 0.0
H185 H 0.6992 0.46489 0.08104 0.0
H186 H 0.49633 0.3059 0.01624 0.0
H187 H 0.53282 0.27902 0.12961 0.0
H188 H 0.33542 0.1741 0.10694 0.0
C189 C 0.3559 0.2019 0.08064 0.0
O190 O 0.43379 0.22479 0.07094 0.0
H191 H 0.31016 0.16901 0.05866 0.0
C192 C 0.64539 0.41488 0.07856 0.0
C193 C 0.62195 0.37496 0.10911 0.0
C194 C 0.60135 0.39076 0.0447 0.0
C195 C 0.53179 0.32581 0.04199 0.0
C196 C 0.50607 0.28599 0.0728 0.0
C197 C 0.55228 0.31025 0.10605 0.0
C198 C 0.36291 0.3338 0.05705 0.0
C199 C 0.38217 0.36249 0.09193 0.0
H200 H 0.33732 0.2594 0.02643 0.0
C201 C 0.38643 0.33538 0.1235 0.0
H202 H 0.35862 0.35341 0.0323 0.0
C203 C 0.37375 0.28161 0.12012 0.0
C204 C 0.35575 0.25355 0.0852 0.0
H205 H 0.40214 0.35689 0.15066 0.0
H206 H 0.38076 0.26308 0.14457 0.0
C207 C 0.34954 0.27966 0.05375 0.0
C208 C 1.06073 0.33089 0.4786 0.0
C209 C 0.98245 0.29804 0.46139 0.0
H210 H 0.18898 0.41855 0.48298 0.0
C211 C 0.97343 0.33138 0.43678 0.0
H212 H 1.06998 0.30683 0.49775 0.0
C213 C 1.0412 0.39474 0.42834 0.0
C214 C 1.11996 0.42703 0.44449 0.0
H215 H 0.9146 0.30803 0.42282 0.0
H216 H 1.03261 0.41823 0.40826 0.0
C217 C 1.12874 0.39493 0.4704 0.0
C218 C 0.75749 0.88229 0.74579 0.0
C219 C 0.79981 0.89348 0.77929 0.0
H220 H 0.71385 0.91241 0.70805 0.0
C221 C 0.83408 0.94719 0.8 0.0
H222 H 0.72939 0.84088 0.72945 0.0
C223 C 0.82571 0.98854 0.7876 0.0
C224 C 0.78262 0.97702 0.75426 0.0
H225 H 0.86815 0.95762 0.82564 0.0
H226 H 0.85343 1.02976 0.80404 0.0
C227 C 0.74885 0.92347 0.73346 0.0
C228 C 0.78334 0.41613 0.17756 0.0
C229 C 0.81471 0.47422 0.19084 0.0
H230 H 0.69578 0.33833 0.14136 0.0
C231 C 0.76963 0.49168 0.18315 0.0
H232 H 0.81649 0.40118 0.18259 0.0
C233 C 0.70109 0.45589 0.15897 0.0
C234 C 0.67573 0.40157 0.14262 0.0
H235 H 0.79078 0.53526 0.19369 0.0
H236 H 0.67145 0.4729 0.15101 0.0
C237 C 0.71414 0.37998 0.15377 0.0
C238 C 0.56724 0.85411 0.4849 0.0
C239 C 0.56393 0.89397 0.46409 0.0
H240 H 0.50187 0.75955 0.50311 0.0
C241 C 0.49082 0.8665 0.44361 0.0
H242 H 0.62235 0.87341 0.50106 0.0
C243 C 0.42232 0.8013 0.44461 0.0
C244 C 0.42496 0.76169 0.46605 0.0
H245 H 0.4858 0.89546 0.42722 0.0
H246 H 0.36636 0.78196 0.42921 0.0
C247 C 0.49843 0.78881 0.486 0.0
C248 C 0.55708 0.13182 0.84677 0.0
C249 C 0.58833 0.18485 0.82515 0.0
H250 H 0.54556 0.05269 0.85315 0.0
C251 C 0.6347 0.19897 0.79295 0.0
H252 H 0.51992 0.11888 0.87135 0.0
C253 C 0.64858 0.16068 0.78241 0.0
C254 C 0.6177 0.10803 0.80416 0.0
H255 H 0.66063 0.2398 0.77587 0.0
H256 H 0.68332 0.17209 0.75717 0.0
C257 C 0.57145 0.09375 0.83631 0.0
C258 C 0.89083 0.83577 0.57613 0.0
C259 C 0.84943 0.83607 0.54584 0.0
H260 H 0.90587 0.78227 0.60961 0.0
C261 C 0.79205 0.7808 0.52497 0.0
H262 H 0.93667 0.87779 0.59236 0.0
C263 C 0.77517 0.72627 0.53465 0.0
C264 C 0.81486 0.72562 0.56556 0.0
H265 H 0.75815 0.77899 0.5018 0.0
H266 H 0.72883 0.68397 0.5187 0.0
C267 C 0.8735 0.78114 0.58595 0.0
C268 C 0.97129 0.59328 0.84928 0.0
C269 C 0.88729 0.53965 0.8579 0.0
H270 H 1.09999 0.63715 0.85035 0.0
C271 C 0.8705 0.4864 0.87214 0.0
H272 H 0.98747 0.63534 0.83829 0.0
C273 C 0.93527 0.48763 0.87903 0.0
C274 C 1.01928 0.54161 0.87125 0.0
H275 H 0.80728 0.44411 0.87931 0.0
H276 H 0.91991 0.44678 0.89178 0.0
C277 C 1.03608 0.59417 0.85577 0.0
C278 C 0.50299 0.85378 0.17358 0.0
C279 C 0.50732 0.81471 0.15361 0.0
H280 H 0.5597 0.94791 0.1857 0.0
C281 C 0.57834 0.84351 0.13153 0.0
H282 H 0.45001 0.83369 0.19124 0.0
C283 C 0.64143 0.90945 0.12838 0.0
C284 C 0.63516 0.94809 0.14732 0.0
H285 H 0.58424 0.81517 0.11588 0.0
H286 H 0.69404 0.9303 0.11027 0.0
C287 C 0.56613 0.91945 0.1706 0.0
C288 C 0.61734 0.33114 0.51304 0.0
C289 C 0.65584 0.33799 0.4796 0.0
H290 H 0.59288 0.37289 0.5513 0.0
C291 C 0.70047 0.39428 0.45895 0.0
H292 H 0.58391 0.2889 0.52996 0.0
C293 C 0.70543 0.4422 0.47122 0.0
C294 C 0.66565 0.43468 0.50425 0.0
H295 H 0.73059 0.40095 0.43304 0.0
H296 H 0.73986 0.48504 0.45478 0.0
C297 C 0.62266 0.37917 0.52535 0.0
C298 C 0.3988 0.47776 0.87125 0.0
C299 C 0.47399 0.52776 0.85297 0.0
H300 H 0.27437 0.43387 0.88582 0.0
C301 C 0.47975 0.57526 0.83665 0.0
H302 H 0.39108 0.44024 0.88437 0.0
C303 C 0.41164 0.57152 0.83758 0.0
C304 C 0.33612 0.52081 0.85547 0.0
H305 H 0.53617 0.61461 0.82227 0.0
H306 H 0.41724 0.60742 0.82338 0.0
C307 C 0.33154 0.47438 0.87243 0.0
C308 C 1.02775 0.38521 0.19416 0.0
C309 C 1.09452 0.40964 0.17023 0.0
H310 H 0.91501 0.30369 0.21996 0.0
C311 C 1.09426 0.36691 0.15197 0.0
H312 H 1.02487 0.41626 0.2084 0.0
C313 C 1.03062 0.30173 0.15869 0.0
C314 C 0.96584 0.27771 0.18391 0.0
H315 H 1.14447 0.38387 0.13326 0.0
H316 H 1.03412 0.27043 0.14536 0.0
C317 C 0.96449 0.32039 0.20083 0.0
C318 C 0.17322 0.60467 0.04279 0.0
C319 C 0.20249 0.58062 0.06216 0.0
H320 H 1.14108 0.61858 -0.01006 0.0
C321 C 0.21777 0.54811 0.04249 0.0
H322 H 0.16092 0.62987 0.05752 0.0
C323 C 0.20456 0.54011 0.00385 0.0
C324 C 0.17647 0.56506 0.98398 0.0
H325 H 0.23785 0.52747 0.05709 0.0
H326 H 0.21524 0.51355 -0.01032 0.0
C327 C 0.16119 0.59761 0.00409 0.0
C328 C 0.79328 0.13478 0.34856 0.0
C329 C 0.81393 0.10283 0.36509 0.0
H330 H 0.78348 0.16942 0.29766 0.0
C331 C 0.83589 0.07726 0.34236 0.0
H332 H 0.77825 0.15616 0.36563 0.0
C333 C 0.83793 0.08406 0.30355 0.0
C334 C 0.8202 0.11803 0.287 0.0
H335 H 0.85288 0.05298 0.3547 0.0
H336 H 0.85684 0.06514 0.28657 0.0
C337 C 0.79704 0.1428 0.3098 0.0
C338 C 0.62146 0.49572 0.71299 0.0
C339 C 0.68017 0.53226 0.7417 0.0
H340 H 0.59751 0.48507 0.65406 0.0
C341 C 0.7618 0.58761 0.7324 0.0
H342 H 0.55815 0.45266 0.71931 0.0
C343 C 0.78373 0.60673 0.69505 0.0
C344 C 0.72501 0.56982 0.66644 0.0
H345 H 0.80864 0.61608 0.75388 0.0
H346 H 0.84677 0.6499 0.68845 0.0
C347 C 0.64392 0.514 0.67569 0.0
C348 C 0.81384 0.11565 0.58994 0.0
C349 C 0.73736 0.09049 0.57418 0.0
H350 H 0.8789 0.12724 0.63981 0.0
C351 C 0.66791 0.0601 0.59751 0.0
H352 H 0.8687 0.14028 0.57269 0.0
C353 C 0.67443 0.05439 0.63578 0.0
C354 C 0.75008 0.07789 0.65137 0.0
H355 H 0.60824 0.04049 0.58618 0.0
H356 H 0.61979 0.03037 0.65313 0.0
C357 C 0.81982 0.1085 0.62822 0.0
C358 C 0.73852 0.52297 0.97361 0.0
C359 C 0.6787 0.51372 0.95059 0.0
H360 H 0.76087 0.49016 0.02089 0.0
C361 C 0.59364 0.46487 0.95901 0.0
H362 H 0.80441 0.55994 0.96745 0.0
C363 C 0.56858 0.4253 -0.01033 0.0
C364 C 0.62812 0.43352 0.01242 0.0
H365 H 0.54623 0.45692 0.94168 0.0
H366 H 0.50254 0.38844 -0.00438 0.0
C367 C 0.71344 0.48303 0.00418 0.0
C368 C 0.30254 0.53102 0.27804 0.0
C369 C 0.32255 0.58218 0.25872 0.0
H370 H 0.27356 0.48429 0.33071 0.0
C371 C 0.32891 0.62656 0.27854 0.0
H372 H 0.29742 0.49621 0.26342 0.0
C373 C 0.31492 0.6197 0.31702 0.0
C374 C 0.29416 0.56821 0.33643 0.0
H375 H 0.34452 0.66662 0.26428 0.0
H376 H 0.31898 0.65415 0.33145 0.0
C377 C 0.2884 0.52406 0.31651 0.0
loop_
_geom_bond_atom_site_label_1
_geom_bond_atom_site_label_2
_geom_bond_distance
_geom_bond_site_symmetry_2
_ccdc_geom_bond_type
Gd0 C3 2.818 . S
Gd0 O20 2.377 . S
Gd0 O22 2.448 . S
Gd0 O23 2.506 . S
Gd0 O24 2.435 . S
Gd0 O25 2.717 1_455 S
Gd0 O27 2.395 1_455 S
Gd0 O31 2.327 . S
Gd1 C12 2.818 . S
Gd1 O21 2.395 1_655 S
Gd1 O25 2.327 . S
Gd1 O26 2.377 . S
Gd1 O28 2.448 . S
Gd1 O29 2.506 . S
Gd1 O30 2.435 . S
Gd1 O31 2.717 1_655 S
C2 O20 1.240 . S
C2 O21 1.240 . S
C3 Gd0 2.818 . S
C3 C4 1.510 . S
C3 O22 1.249 . S
C3 O23 1.252 . S
C4 C3 1.510 . S
C4 C5 1.404 . S
C4 C6 1.352 . S
C5 C4 1.404 . S
C5 C9 1.389 . S
C5 H32 0.930 . S
C6 C4 1.352 . S
C6 C8 1.374 . S
C6 H33 0.931 . S
C7 C8 1.359 . S
C7 C9 1.364 . S
C8 C6 1.374 . S
C8 C7 1.359 . S
C8 H34 0.931 . S
C9 C5 1.389 . S
C9 C7 1.364 . S
C9 H35 0.931 . S
C10 O24 1.256 . S
C10 O25 1.257 1_455 S
C11 O26 1.240 . S
C11 O27 1.240 . S
C12 Gd1 2.818 . S
C12 C13 1.510 . S
C12 O28 1.249 . S
C12 O29 1.252 . S
C13 C12 1.510 . S
C13 C14 1.404 . S
C13 C15 1.352 . S
C14 C13 1.404 . S
C14 C18 1.389 . S
C14 H36 0.930 . S
C15 C13 1.352 . S
C15 C17 1.374 . S
C15 H37 0.931 . S
C16 C17 1.359 . S
C16 C18 1.364 . S
C17 C15 1.374 . S
C17 C16 1.359 . S
C17 H38 0.931 . S
C18 C14 1.389 . S
C18 C16 1.364 . S
C18 H39 0.931 . S
C19 O30 1.256 1_455 S
C19 O31 1.257 . S
O20 Gd0 2.377 . S
O20 C2 1.240 . S
O21 Gd1 2.395 1_455 S
O21 C2 1.240 . S
O22 Gd0 2.448 . S
O22 C3 1.249 . S
O23 Gd0 2.506 . S
O23 C3 1.252 . S
O24 Gd0 2.435 . S
O24 C10 1.256 . S
O25 Gd0 2.717 1_655 S
O25 Gd1 2.327 . S
O25 C10 1.257 1_655 S
O26 Gd1 2.377 . S
O26 C11 1.240 . S
O27 Gd0 2.395 1_655 S
O27 C11 1.240 . S
O28 Gd1 2.448 . S
O28 C12 1.249 . S
O29 Gd1 2.506 . S
O29 C12 1.252 . S
O30 Gd1 2.435 . S
O30 C19 1.256 1_655 S
O31 Gd0 2.327 . S
O31 Gd1 2.717 1_455 S
O31 C19 1.257 . S
H32 C5 0.930 . S
H33 C6 0.931 . S
H34 C8 0.931 . S
H35 C9 0.931 . S
H36 C14 0.930 . S
H37 C15 0.931 . S
H38 C17 0.931 . S
H39 C18 0.931 . S
Gd40 C43 2.818 1_545 S
Gd40 O60 2.377 1_545 S
Gd40 O62 2.448 1_545 S
Gd40 O63 2.506 1_545 S
Gd40 O64 2.435 . S
Gd40 O65 2.717 . S
Gd40 O67 2.395 . S
Gd40 O71 2.327 . S
Gd41 C52 2.818 . S
Gd41 O61 2.395 1_545 S
Gd41 O65 2.327 . S
Gd41 O66 2.377 . S
Gd41 O68 2.448 . S
Gd41 O69 2.506 . S
Gd41 O70 2.435 . S
Gd41 O71 2.717 . S
C42 O60 1.240 . S
C42 O61 1.240 . S
C43 Gd40 2.818 1_565 S
C43 C44 1.510 . S
C43 O62 1.249 . S
C43 O63 1.252 . S
C44 C43 1.510 . S
C44 C45 1.404 . S
C44 C46 1.352 . S
C45 C44 1.404 . S
C45 C49 1.389 . S
C45 H72 0.930 . S
C46 C44 1.352 . S
C46 C48 1.374 . S
C46 H73 0.931 . S
C47 C48 1.359 . S
C47 C49 1.364 . S
C48 C46 1.374 . S
C48 C47 1.359 . S
C48 H74 0.931 . S
C49 C45 1.389 . S
C49 C47 1.364 . S
C49 H75 0.931 . S
C50 O64 1.256 . S
C50 O65 1.257 . S
C51 O66 1.240 . S
C51 O67 1.240 . S
C52 Gd41 2.818 . S
C52 C53 1.510 . S
C52 O68 1.249 . S
C52 O69 1.252 . S
C53 C52 1.510 . S
C53 C54 1.404 . S
C53 C55 1.352 . S
C54 C53 1.404 . S
C54 C58 1.389 . S
C54 H76 0.930 . S
C55 C53 1.352 . S
C55 C57 1.374 . S
C55 H77 0.931 . S
C56 C57 1.359 . S
C56 C58 1.364 . S
C57 C55 1.374 . S
C57 C56 1.359 . S
C57 H78 0.931 . S
C58 C54 1.389 . S
C58 C56 1.364 . S
C58 H79 0.931 . S
C59 O70 1.256 . S
C59 O71 1.257 . S
O60 Gd40 2.377 1_565 S
O60 C42 1.240 . S
O61 Gd41 2.395 1_565 S
O61 C42 1.240 . S
O62 Gd40 2.448 1_565 S
O62 C43 1.249 . S
O63 Gd40 2.506 1_565 S
O63 C43 1.252 . S
O64 Gd40 2.435 . S
O64 C50 1.256 . S
O65 Gd40 2.717 . S
O65 Gd41 2.327 . S
O65 C50 1.257 . S
O66 Gd41 2.377 . S
O66 C51 1.240 . S
O67 Gd40 2.395 . S
O67 C51 1.240 . S
O68 Gd41 2.448 . S
O68 C52 1.249 . S
O69 Gd41 2.506 . S
O69 C52 1.252 . S
O70 Gd41 2.435 . S
O70 C59 1.256 . S
O71 Gd40 2.327 . S
O71 Gd41 2.717 . S
O71 C59 1.257 . S
H72 C45 0.930 . S
H73 C46 0.931 . S
H74 C48 0.931 . S
H75 C49 0.931 . S
H76 C54 0.930 . S
H77 C55 0.931 . S
H78 C57 0.931 . S
H79 C58 0.931 . S
Gd80 C83 2.818 . S
Gd80 O100 2.377 . S
Gd80 O102 2.448 . S
Gd80 O103 2.506 . S
Gd80 O104 2.435 . S
Gd80 O105 2.717 . S
Gd80 O107 2.395 . S
Gd80 O111 2.327 . S
Gd81 C92 2.818 . S
Gd81 O101 2.395 . S
Gd81 O105 2.327 . S
Gd81 O106 2.377 . S
Gd81 O108 2.448 . S
Gd81 O109 2.506 . S
Gd81 O110 2.435 . S
Gd81 O111 2.717 . S
C82 O100 1.240 . S
C82 O101 1.240 . S
C83 Gd80 2.818 . S
C83 C84 1.510 . S
C83 O102 1.249 . S
C83 O103 1.252 . S
C84 C83 1.510 . S
C84 C85 1.404 . S
C84 C86 1.352 . S
C85 C84 1.404 . S
C85 C89 1.389 . S
C85 H112 0.930 . S
C86 C84 1.352 . S
C86 C88 1.374 . S
C86 H113 0.931 . S
C87 C88 1.359 . S
C87 C89 1.364 . S
C88 C86 1.374 . S
C88 C87 1.359 . S
C88 H114 0.931 . S
C89 C85 1.389 . S
C89 C87 1.364 . S
C89 H115 0.931 . S
C90 O104 1.256 . S
C90 O105 1.257 . S
C91 O106 1.240 . S
C91 O107 1.240 . S
C92 Gd81 2.818 . S
C92 C93 1.510 . S
C92 O108 1.249 . S
C92 O109 1.252 . S
C93 C92 1.510 . S
C93 C94 1.404 . S
C93 C95 1.352 . S
C94 C93 1.404 . S
C94 C98 1.389 . S
C94 H116 0.930 . S
C95 C93 1.352 . S
C95 C97 1.374 . S
C95 H117 0.931 . S
C96 C97 1.359 . S
C96 C98 1.364 . S
C97 C95 1.374 . S
C97 C96 1.359 . S
C97 H118 0.931 . S
C98 C94 1.389 . S
C98 C96 1.364 . S
C98 H119 0.931 . S
C99 O110 1.256 . S
C99 O111 1.257 . S
O100 Gd80 2.377 . S
O100 C82 1.240 . S
O101 Gd81 2.395 . S
O101 C82 1.240 . S
O102 Gd80 2.448 . S
O102 C83 1.249 . S
O103 Gd80 2.506 . S
O103 C83 1.252 . S
O104 Gd80 2.435 . S
O104 C90 1.256 . S
O105 Gd80 2.717 . S
O105 Gd81 2.327 . S
O105 C90 1.257 . S
O106 Gd81 2.377 . S
O106 C91 1.240 . S
O107 Gd80 2.395 . S
O107 C91 1.240 . S
O108 Gd81 2.448 . S
O108 C92 1.249 . S
O109 Gd81 2.506 . S
O109 C92 1.252 . S
O110 Gd81 2.435 . S
O110 C99 1.256 . S
O111 Gd80 2.327 . S
O111 Gd81 2.717 . S
O111 C99 1.257 . S
H112 C85 0.930 . S
H113 C86 0.931 . S
H114 C88 0.931 . S
H115 C89 0.931 . S
H116 C94 0.930 . S
H117 C95 0.931 . S
H118 C97 0.931 . S
H119 C98 0.931 . S
H120 C127 0.929 . S
H121 C130 0.930 . S
H122 C132 0.929 . S
H123 C124 0.969 . S
C124 H123 0.969 . S
C124 O125 1.550 . S
C124 H126 0.973 . S
O125 C124 1.550 . S
O125 C131 1.412 . S
H126 C124 0.973 . S
C127 H120 0.929 . S
C127 C128 1.400 . S
C127 C129 1.364 . S
C128 C127 1.400 . S
C128 C132 1.377 . S
C129 C127 1.364 . S
C129 C130 1.374 1_545 S
C130 H121 0.930 . S
C130 C129 1.374 1_565 S
C130 C131 1.383 . S
C131 O125 1.412 . S
C131 C130 1.383 . S
C131 C132 1.394 1_565 S
C132 H122 0.929 . S
C132 C128 1.377 . S
C132 C131 1.394 1_545 S
H133 C140 0.929 . S
H134 C143 0.930 . S
H135 C145 0.929 . S
H136 C137 0.969 . S
C137 H136 0.969 . S
C137 O138 1.550 . S
C137 H139 0.973 . S
O138 C137 1.550 . S
O138 C144 1.412 . S
H139 C137 0.973 . S
C140 H133 0.929 . S
C140 C141 1.400 . S
C140 C142 1.364 . S
C141 C140 1.400 . S
C141 C145 1.377 . S
C142 C140 1.364 . S
C142 C143 1.374 . S
C143 H134 0.930 . S
C143 C142 1.374 . S
C143 C144 1.383 . S
C144 O138 1.412 . S
C144 C143 1.383 . S
C144 C145 1.394 . S
C145 H135 0.929 . S
C145 C141 1.377 . S
C145 C144 1.394 . S
H146 C153 0.928 . S
H147 C156 0.930 . S
H148 C158 0.929 . S
H149 C150 0.969 . S
C150 H149 0.969 . S
C150 O151 1.550 . S
C150 H152 0.973 . S
O151 C150 1.550 . S
O151 C157 1.412 . S
H152 C150 0.973 . S
C153 H146 0.928 . S
C153 C154 1.400 . S
C153 C155 1.364 . S
C154 C153 1.400 . S
C154 C158 1.377 . S
C155 C153 1.364 . S
C155 C156 1.374 . S
C156 H147 0.930 . S
C156 C155 1.374 . S
C156 C157 1.383 . S
C157 O151 1.412 . S
C157 C156 1.383 . S
C157 C158 1.394 . S
C158 H148 0.929 . S
C158 C154 1.377 . S
C158 C157 1.394 . S
H159 C166 0.929 . S
H160 C169 0.930 . S
H161 C171 0.929 . S
H162 C163 0.969 . S
C163 H162 0.969 . S
C163 O164 1.550 . S
C163 H165 0.973 . S
O164 C163 1.550 . S
O164 C170 1.412 . S
H165 C163 0.973 . S
C166 H159 0.929 . S
C166 C167 1.400 . S
C166 C168 1.364 1_655 S
C167 C166 1.400 . S
C167 C171 1.377 1_655 S
C168 C166 1.364 1_455 S
C168 C169 1.374 . S
C169 H160 0.930 . S
C169 C168 1.374 . S
C169 C170 1.383 . S
C170 O164 1.412 . S
C170 C169 1.383 . S
C170 C171 1.394 . S
C171 H161 0.929 . S
C171 C167 1.377 1_455 S
C171 C170 1.394 . S
H172 C179 0.929 . S
H173 C182 0.930 . S
H174 C184 0.929 . S
H175 C176 0.969 . S
C176 H175 0.969 . S
C176 O177 1.550 . S
C176 H178 0.973 . S
O177 C176 1.550 . S
O177 C183 1.412 . S
H178 C176 0.973 . S
C179 H172 0.929 . S
C179 C180 1.400 . S
C179 C181 1.364 1_565 S
C180 C179 1.400 . S
C180 C184 1.377 . S
C181 C179 1.364 1_545 S
C181 C182 1.374 . S
C182 H173 0.930 . S
C182 C181 1.374 . S
C182 C183 1.383 . S
C183 O177 1.412 . S
C183 C182 1.383 . S
C183 C184 1.394 1_545 S
C184 H174 0.929 . S
C184 C180 1.377 . S
C184 C183 1.394 1_565 S
H185 C192 0.929 . S
H186 C195 0.930 . S
H187 C197 0.929 . S
H188 C189 0.969 . S
C189 H188 0.969 . S
C189 O190 1.550 . S
C189 H191 0.973 . S
O190 C189 1.550 . S
O190 C196 1.412 . S
H191 C189 0.973 . S
C192 H185 0.929 . S
C192 C193 1.400 . S
C192 C194 1.364 . S
C193 C192 1.400 . S
C193 C197 1.377 . S
C194 C192 1.364 . S
C194 C195 1.374 . S
C195 H186 0.930 . S
C195 C194 1.374 . S
C195 C196 1.383 . S
C196 O190 1.412 . S
C196 C195 1.383 . S
C196 C197 1.394 . S
C197 H187 0.929 . S
C197 C193 1.377 . S
C197 C196 1.394 . S
C198 C199 1.387 . S
C198 H202 0.950 . S
C198 C207 1.390 . S
C199 C198 1.387 . S
C199 C201 1.387 . S
H200 C207 0.950 . S
C201 C199 1.387 . S
C201 C203 1.390 . S
C201 H205 0.950 . S
H202 C198 0.950 . S
C203 C201 1.390 . S
C203 C204 1.387 . S
C203 H206 0.950 . S
C204 C203 1.387 . S
C204 C207 1.387 . S
H205 C201 0.950 . S
H206 C203 0.950 . S
C207 C198 1.390 . S
C207 H200 0.950 . S
C207 C204 1.387 . S
C208 C209 1.387 . S
C208 H212 0.950 . S
C208 C217 1.390 . S
C209 C208 1.387 . S
C209 C211 1.387 . S
H210 C217 0.950 . S
C211 C209 1.387 . S
C211 C213 1.390 . S
C211 H215 0.950 . S
H212 C208 0.950 . S
C213 C211 1.390 . S
C213 C214 1.387 . S
C213 H216 0.950 . S
C214 C213 1.387 . S
C214 C217 1.387 . S
H215 C211 0.950 . S
H216 C213 0.950 . S
C217 C208 1.390 . S
C217 H210 0.950 . S
C217 C214 1.387 . S
C218 C219 1.387 . S
C218 H222 0.950 . S
C218 C227 1.390 . S
C219 C218 1.387 . S
C219 C221 1.387 . S
H220 C227 0.950 . S
C221 C219 1.387 . S
C221 C223 1.390 . S
C221 H225 0.950 . S
H222 C218 0.950 . S
C223 C221 1.390 . S
C223 C224 1.387 . S
C223 H226 0.950 1_565 S
C224 C223 1.387 . S
C224 C227 1.387 . S
H225 C221 0.950 . S
H226 C223 0.950 1_545 S
C227 C218 1.390 . S
C227 H220 0.950 . S
C227 C224 1.387 . S
C228 C229 1.387 . S
C228 H232 0.950 . S
C228 C237 1.390 . S
C229 C228 1.387 . S
C229 C231 1.387 . S
H230 C237 0.950 . S
C231 C229 1.387 . S
C231 C233 1.390 . S
C231 H235 0.950 . S
H232 C228 0.950 . S
C233 C231 1.390 . S
C233 C234 1.387 . S
C233 H236 0.950 . S
C234 C233 1.387 . S
C234 C237 1.387 . S
H235 C231 0.950 . S
H236 C233 0.950 . S
C237 C228 1.390 . S
C237 H230 0.950 . S
C237 C234 1.387 . S
C238 C239 1.387 . S
C238 H242 0.950 . S
C238 C247 1.390 . S
C239 C238 1.387 . S
C239 C241 1.387 . S
H240 C247 0.950 . S
C241 C239 1.387 . S
C241 C243 1.390 . S
C241 H245 0.950 . S
H242 C238 0.950 . S
C243 C241 1.390 . S
C243 C244 1.387 . S
C243 H246 0.950 . S
C244 C243 1.387 . S
C244 C247 1.387 . S
H245 C241 0.950 . S
H246 C243 0.950 . S
C247 C238 1.390 . S
C247 H240 0.950 . S
C247 C244 1.387 . S
C248 C249 1.387 . S
C248 H252 0.950 . S
C248 C257 1.390 . S
C249 C248 1.387 . S
C249 C251 1.387 . S
H250 C257 0.950 . S
C251 C249 1.387 . S
C251 C253 1.390 . S
C251 H255 0.950 . S
H252 C248 0.950 . S
C253 C251 1.390 . S
C253 C254 1.387 . S
C253 H256 0.950 . S
C254 C253 1.387 . S
C254 C257 1.387 . S
H255 C251 0.950 . S
H256 C253 0.950 . S
C257 C248 1.390 . S
C257 H250 0.950 . S
C257 C254 1.387 . S
C258 C259 1.387 . S
C258 H262 0.950 . S
C258 C267 1.390 . S
C259 C258 1.387 . S
C259 C261 1.387 . S
H260 C267 0.950 . S
C261 C259 1.387 . S
C261 C263 1.390 . S
C261 H265 0.950 . S
H262 C258 0.950 . S
C263 C261 1.390 . S
C263 C264 1.387 . S
C263 H266 0.950 . S
C264 C263 1.387 . S
C264 C267 1.387 . S
H265 C261 0.950 . S
H266 C263 0.950 . S
C267 C258 1.390 . S
C267 H260 0.950 . S
C267 C264 1.387 . S
C268 C269 1.387 . S
C268 H272 0.950 . S
C268 C277 1.390 . S
C269 C268 1.387 . S
C269 C271 1.387 . S
H270 C277 0.950 . S
C271 C269 1.387 . S
C271 C273 1.390 . S
C271 H275 0.950 . S
H272 C268 0.950 . S
C273 C271 1.390 . S
C273 C274 1.387 . S
C273 H276 0.950 . S
C274 C273 1.387 . S
C274 C277 1.387 . S
H275 C271 0.950 . S
H276 C273 0.950 . S
C277 C268 1.390 . S
C277 H270 0.950 . S
C277 C274 1.387 . S
C278 C279 1.387 . S
C278 H282 0.950 . S
C278 C287 1.390 . S
C279 C278 1.387 . S
C279 C281 1.387 . S
H280 C287 0.950 . S
C281 C279 1.387 . S
C281 C283 1.390 . S
C281 H285 0.950 . S
H282 C278 0.950 . S
C283 C281 1.390 . S
C283 C284 1.387 . S
C283 H286 0.950 . S
C284 C283 1.387 . S
C284 C287 1.387 . S
H285 C281 0.950 . S
H286 C283 0.950 . S
C287 C278 1.390 . S
C287 H280 0.950 . S
C287 C284 1.387 . S
C288 C289 1.387 . S
C288 H292 0.950 . S
C288 C297 1.390 . S
C289 C288 1.387 . S
C289 C291 1.387 . S
H290 C297 0.950 . S
C291 C289 1.387 . S
C291 C293 1.390 . S
C291 H295 0.950 . S
H292 C288 0.950 . S
C293 C291 1.390 . S
C293 C294 1.387 . S
C293 H296 0.950 . S
C294 C293 1.387 . S
C294 C297 1.387 . S
H295 C291 0.950 . S
H296 C293 0.950 . S
C297 C288 1.390 . S
C297 H290 0.950 . S
C297 C294 1.387 . S
C298 C299 1.387 . S
C298 H302 0.950 . S
C298 C307 1.390 . S
C299 C298 1.387 . S
C299 C301 1.387 . S
H300 C307 0.950 . S
C301 C299 1.387 . S
C301 C303 1.390 . S
C301 H305 0.950 . S
H302 C298 0.950 . S
C303 C301 1.390 . S
C303 C304 1.387 . S
C303 H306 0.950 . S
C304 C303 1.387 . S
C304 C307 1.387 . S
H305 C301 0.950 . S
H306 C303 0.950 . S
C307 C298 1.390 . S
C307 H300 0.950 . S
C307 C304 1.387 . S
C308 C309 1.387 . S
C308 H312 0.950 . S
C308 C317 1.390 . S
C309 C308 1.387 . S
C309 C311 1.387 . S
H310 C317 0.950 . S
C311 C309 1.387 . S
C311 C313 1.390 . S
C311 H315 0.950 . S
H312 C308 0.950 . S
C313 C311 1.390 . S
C313 C314 1.387 . S
C313 H316 0.950 . S
C314 C313 1.387 . S
C314 C317 1.387 . S
H315 C311 0.950 . S
H316 C313 0.950 . S
C317 C308 1.390 . S
C317 H310 0.950 . S
C317 C314 1.387 . S
C318 C319 1.387 . S
C318 H322 0.950 . S
C318 C327 1.390 . S
C319 C318 1.387 . S
C319 C321 1.387 . S
H320 C327 0.950 1_556 S
C321 C319 1.387 . S
C321 C323 1.390 1_554 S
C321 H325 0.950 . S
H322 C318 0.950 . S
C323 C321 1.390 1_556 S
C323 C324 1.387 . S
C323 H326 0.950 . S
C324 C323 1.387 . S
C324 C327 1.387 1_556 S
H325 C321 0.950 . S
H326 C323 0.950 . S
C327 C318 1.390 . S
C327 H320 0.950 1_554 S
C327 C324 1.387 1_554 S
C328 C329 1.387 . S
C328 H332 0.950 . S
C328 C337 1.390 . S
C329 C328 1.387 . S
C329 C331 1.387 1_545 S
H330 C337 0.950 . S
C331 C329 1.387 1_565 S
C331 C333 1.390 . S
C331 H335 0.950 . S
H332 C328 0.950 . S
C333 C331 1.390 . S
C333 C334 1.387 1_565 S
C333 H336 0.950 . S
C334 C333 1.387 1_545 S
C334 C337 1.387 . S
H335 C331 0.950 . S
H336 C333 0.950 . S
C337 C328 1.390 . S
C337 H330 0.950 . S
C337 C334 1.387 . S
C338 C339 1.387 . S
C338 H342 0.950 . S
C338 C347 1.390 . S
C339 C338 1.387 . S
C339 C341 1.387 . S
H340 C347 0.950 . S
C341 C339 1.387 . S
C341 C343 1.390 . S
C341 H345 0.950 . S
H342 C338 0.950 . S
C343 C341 1.390 . S
C343 C344 1.387 . S
C343 H346 0.950 . S
C344 C343 1.387 . S
C344 C347 1.387 . S
H345 C341 0.950 . S
H346 C343 0.950 . S
C347 C338 1.390 . S
C347 H340 0.950 . S
C347 C344 1.387 . S
C348 C349 1.387 . S
C348 H352 0.950 . S
C348 C357 1.390 . S
C349 C348 1.387 . S
C349 C351 1.387 1_545 S
H350 C357 0.950 . S
C351 C349 1.387 1_565 S
C351 C353 1.390 . S
C351 H355 0.950 . S
H352 C348 0.950 . S
C353 C351 1.390 . S
C353 C354 1.387 1_565 S
C353 H356 0.950 . S
C354 C353 1.387 1_545 S
C354 C357 1.387 . S
H355 C351 0.950 . S
H356 C353 0.950 . S
C357 C348 1.390 . S
C357 H350 0.950 . S
C357 C354 1.387 . S
C358 C359 1.387 . S
C358 H362 0.950 . S
C358 C367 1.390 1_556 S
C359 C358 1.387 . S
C359 C361 1.387 . S
H360 C367 0.950 . S
C361 C359 1.387 . S
C361 C363 1.390 . S
C361 H365 0.950 . S
H362 C358 0.950 . S
C363 C361 1.390 . S
C363 C364 1.387 1_556 S
C363 H366 0.950 . S
C364 C363 1.387 1_554 S
C364 C367 1.387 . S
H365 C361 0.950 . S
H366 C363 0.950 . S
C367 C358 1.390 1_554 S
C367 H360 0.950 . S
C367 C364 1.387 . S
C368 C369 1.387 . S
C368 H372 0.950 . S
C368 C377 1.390 . S
C369 C368 1.387 . S
C369 C371 1.387 1_655 S
H370 C377 0.950 . S
C371 C369 1.387 1_455 S
C371 C373 1.390 . S
C371 H375 0.950 . S
H372 C368 0.950 . S
C373 C371 1.390 . S
C373 C374 1.387 . S
C373 H376 0.950 . S
C374 C373 1.387 . S
C374 C377 1.387 1_455 S
H375 C371 0.950 . S
H376 C373 0.950 . S
C377 C368 1.390 . S
C377 H370 0.950 . S
C377 C374 1.387 1_655 S
C199 C7 1.007 . S
C204 C189 1.148 . S
C209 C51 1.877 . S
C214 C167 1.841 . S
C219 C87 1.357 . S
C224 C180 1.404 . S
C229 C16 0.748 . S
C234 C193 0.747 . S
C244 C163 1.869 . S
C239 C42 2.057 . S
C254 C176 1.373 . S
C249 C96 1.397 . S
C259 C47 1.148 . S
C264 C141 1.163 . S
C269 C91 3.089 . S
C274 C154 3.043 1_655 S
C279 C2 2.078 . S
C284 C124 1.910 . S
C294 C137 1.459 . S
C289 C56 1.434 . S
C304 C150 2.894 . S
C299 C82 3.090 . S
C309 C11 1.888 . S
C314 C128 1.876 . S
C324 C155 1.780 . S
C319 C19 1.731 . S
C329 C50 1.448 . S
C334 C129 1.475 . S
C339 C99 1.503 . S
C344 C142 1.615 . S
C354 C181 1.537 . S
C349 C59 1.464 . S
C364 C194 1.293 . S
C359 C90 1.307 . S
C369 C10 1.402 1_655 S
C374 C168 1.456 . S
