# Generated by pormake.
# Topology anh, (6,3)-cn, num edge types: 1
# Building blocks:
#     Node 0, Type 0, BuildingBlock: BETGAK_clean_sbu_0, # of connection points: 6
#     Node 1, Type 0, BuildingBlock: BETGAK_clean_sbu_0, # of connection points: 6
#     Node 2, Type 0, BuildingBlock: BETGAK_clean_sbu_0, # of connection points: 6
#     Node 3, Type 1, BuildingBlock: BELTOD_clean_linker_0, # of connection points: 3
#     Node 4, Type 1, BuildingBlock: BELTOD_clean_linker_0, # of connection points: 3
#     Node 5, Type 1, BuildingBlock: BELTOD_clean_linker_0, # of connection points: 3
#     Node 6, Type 1, BuildingBlock: BELTOD_clean_linker_0, # of connection points: 3
#     Node 7, Type 1, BuildingBlock: BELTOD_clean_linker_0, # of connection points: 3
#     Node 8, Type 1, BuildingBlock: BELTOD_clean_linker_0, # of connection points: 3
#     Edge 9, Type (0, 1), BuildingBlock: XIVTED_clean_linker_0, # of connection points: 2
#     Edge 10, Type (0, 1), BuildingBlock: XIVTED_clean_linker_0, # of connection points: 2
#     Edge 11, Type (0, 1), BuildingBlock: XIVTED_clean_linker_0, # of connection points: 2
#     Edge 12, Type (0, 1), BuildingBlock: XIVTED_clean_linker_0, # of connection points: 2
#     Edge 13, Type (0, 1), BuildingBlock: XIVTED_clean_linker_0, # of connection points: 2
#     Edge 14, Type (0, 1), BuildingBlock: XIVTED_clean_linker_0, # of connection points: 2
#     Edge 15, Type (0, 1), BuildingBlock: XIVTED_clean_linker_0, # of connection points: 2
#     Edge 16, Type (0, 1), BuildingBlock: XIVTED_clean_linker_0, # of connection points: 2
#     Edge 17, Type (0, 1), BuildingBlock: XIVTED_clean_linker_0, # of connection points: 2
#     Edge 18, Type (0, 1), BuildingBlock: XIVTED_clean_linker_0, # of connection points: 2
#     Edge 19, Type (0, 1), BuildingBlock: XIVTED_clean_linker_0, # of connection points: 2
#     Edge 20, Type (0, 1), BuildingBlock: XIVTED_clean_linker_0, # of connection points: 2
#     Edge 21, Type (0, 1), BuildingBlock: XIVTED_clean_linker_0, # of connection points: 2
#     Edge 22, Type (0, 1), BuildingBlock: XIVTED_clean_linker_0, # of connection points: 2
#     Edge 23, Type (0, 1), BuildingBlock: XIVTED_clean_linker_0, # of connection points: 2
#     Edge 24, Type (0, 1), BuildingBlock: XIVTED_clean_linker_0, # of connection points: 2
#     Edge 25, Type (0, 1), BuildingBlock: XIVTED_clean_linker_0, # of connection points: 2
#     Edge 26, Type (0, 1), BuildingBlock: XIVTED_clean_linker_0, # of connection points: 2
# Relax obj value: 0.181
# Max RMSD: 0.205
# Mean RMSD: 0.149
data_MOF--net-anh--node1-BETGAK_clean_sbu_0--node2-BELTOD_clean_linker_0--edge1-XIVTED_clean_linker_0
_symmetry_space_group_name_H-M    P1
_symmetry_Int_Tables_number       1
_symmetry_cell_setting            triclinic
loop_
_symmetry_equiv_pos_as_xyz
'x, y, z'
_cell_length_a     34.438739
_cell_length_b     41.553373
_cell_length_c     61.079363
_cell_angle_alpha  92.937002
_cell_angle_beta   88.631998
_cell_angle_gamma 128.67418
loop_
_atom_site_label
_atom_site_type_symbol
_atom_site_fract_x
_atom_site_fract_y
_atom_site_fract_z
_atom_type_partial_charge
La0 La 0.12075 0.53075 0.14121 0.0
La1 La 1.06425 0.55546 0.16357 0.0
C2 C 0.17608 0.527 0.11553 0.0
C3 C 0.229 0.54637 0.11654 0.0
C4 C 0.25733 0.57017 0.13527 0.0
C5 C 0.30468 0.58169 0.13825 0.0
C6 C 0.32426 0.5696 0.1225 0.0
C7 C 0.2972 0.54863 0.10296 0.0
C8 C 0.24978 0.53696 0.10006 0.0
C9 C 0.11764 0.52682 0.1841 0.0
C10 C 0.17551 0.62629 0.15606 0.0
C11 C 1.00441 0.55504 0.18808 0.0
C12 C 0.95074 0.5215 0.18973 0.0
C13 C 0.92514 0.49405 0.17159 0.0
C14 C 0.87561 0.45947 0.1733 0.0
C15 C 0.85038 0.45143 0.1932 0.0
C16 C 0.87572 0.47924 0.21135 0.0
C17 C 0.92586 0.51397 0.20966 0.0
C18 C 0.06808 0.55799 0.12036 0.0
C19 C 1.01032 0.46026 0.15047 0.0
O20 O 0.14934 0.50066 0.13072 0.0
O21 O 0.16532 0.55176 0.11309 0.0
O22 O 0.1209 0.50336 0.17084 0.0
O23 O 0.12177 0.55388 0.17346 0.0
O24 O 0.17524 0.59904 0.1435 0.0
O25 O 0.13691 0.61489 0.16825 0.0
O26 O 1.01924 0.57293 0.16929 0.0
O27 O 1.03225 0.54597 0.19468 0.0
O28 O 0.06835 0.58393 0.1332 0.0
O29 O 1.06259 0.5311 0.13164 0.0
O30 O 1.0128 0.48761 0.16382 0.0
O31 O 1.0464 0.47204 0.13646 0.0
H32 H 0.24167 0.57773 0.14815 0.0
H33 H 0.3248 0.59805 0.15338 0.0
H34 H 0.31092 0.53837 0.09064 0.0
H35 H 0.22824 0.51851 0.08555 0.0
H36 H 0.94367 0.49895 0.15609 0.0
H37 H 0.85687 0.43923 0.15886 0.0
H38 H 0.857 0.47383 0.22684 0.0
H39 H 0.94532 0.53454 0.22391 0.0
La40 La 0.62379 0.02353 0.479 0.0
La41 La 0.55724 0.04548 0.47256 0.0
C42 C 0.66394 0.99327 0.49127 0.0
C43 C 0.64996 0.95293 0.49674 0.0
C44 C 0.66442 0.93425 0.48278 0.0
C45 C 0.65575 0.89811 0.48847 0.0
C46 C 0.63279 0.87996 0.50838 0.0
C47 C 0.61719 0.89809 0.52213 0.0
C48 C 0.62565 0.93419 0.51638 0.0
C49 C 0.6195 0.0405 0.43877 0.0
C50 C 0.50723 0.95275 0.47162 0.0
C51 C 0.51762 0.0763 0.46053 0.0
C52 C 0.52575 0.11537 0.46544 0.0
C53 C 0.4868 0.11404 0.47427 0.0
C54 C 0.49429 0.15048 0.48031 0.0
C55 C 0.54096 0.18916 0.47761 0.0
C56 C 0.57963 0.19044 0.46825 0.0
C57 C 0.5721 0.15394 0.46221 0.0
C58 C 0.56599 0.03266 0.51343 0.0
C59 C 0.67549 0.11712 0.47924 0.0
O60 O 0.65894 0.99772 0.47074 0.0
O61 O 0.65037 0.01013 0.50472 0.0
O62 O 0.6591 0.04998 0.44799 0.0
O63 O 0.58301 0.01999 0.45151 0.0
O64 O 0.5487 0.96429 0.481 0.0
O65 O 0.50454 0.98008 0.46334 0.0
O66 O 0.50154 0.05176 0.47682 0.0
O67 O 0.55191 0.07822 0.44934 0.0
O68 O 0.52598 0.02399 0.50527 0.0
O69 O 0.59973 0.05066 0.49944 0.0
O70 O 0.63191 0.10637 0.47312 0.0
O71 O 0.68023 0.08947 0.48502 0.0
H72 H 0.68371 0.94824 0.46767 0.0
H73 H 0.66888 0.88533 0.47765 0.0
H74 H 0.59898 0.88464 0.53749 0.0
H75 H 0.61407 0.94779 0.52754 0.0
H76 H 0.45063 0.08468 0.47677 0.0
H77 H 0.46346 0.14833 0.48713 0.0
H78 H 0.61617 0.21964 0.46611 0.0
H79 H 0.60277 0.15598 0.45531 0.0
La80 La 0.60756 0.5511 0.84428 0.0
La81 La 0.53787 0.45857 0.84374 0.0
C82 C 0.65263 0.62541 0.83571 0.0
C83 C 0.64048 0.65212 0.82957 0.0
C84 C 0.60739 0.65478 0.84181 0.0
C85 C 0.59842 0.6818 0.836 0.0
C86 C 0.62193 0.70626 0.81772 0.0
C87 C 0.65424 0.70288 0.80531 0.0
C88 C 0.66352 0.67621 0.81123 0.0
C89 C 0.58621 0.51786 0.88266 0.0
C90 C 0.48924 0.50164 0.84466 0.0
C91 C 0.49576 0.38459 0.85188 0.0
C92 C 0.5089 0.35758 0.84661 0.0
C93 C 0.54545 0.3689 0.83098 0.0
C94 C 0.55831 0.3435 0.82598 0.0
C95 C 0.5351 0.30632 0.83662 0.0
C96 C 0.49855 0.29522 0.85237 0.0
C97 C 0.48561 0.3207 0.85733 0.0
C98 C 0.55807 0.48971 0.80481 0.0
C99 C 0.65755 0.50917 0.84447 0.0
O100 O 0.6418 0.612 0.85562 0.0
O101 O 0.64211 0.59683 0.82105 0.0
O102 O 0.62975 0.55144 0.87794 0.0
O103 O 0.55709 0.50596 0.86679 0.0
O104 O 0.53372 0.53518 0.83889 0.0
O105 O 0.48343 0.46866 0.85072 0.0
O106 O 0.48437 0.39564 0.83506 0.0
O107 O 0.52591 0.4158 0.86563 0.0
O108 O 0.51611 0.45532 0.80999 0.0
O109 O 0.58815 0.50344 0.82064 0.0
O110 O 0.61205 0.47379 0.84694 0.0
O111 O 0.66469 0.5437 0.841 0.0
H112 H 0.58875 0.63628 0.85595 0.0
H113 H 0.57299 0.68347 0.84574 0.0
H114 H 0.67338 0.72166 0.79131 0.0
H115 H 0.68923 0.67472 0.80158 0.0
H116 H 0.5639 0.39734 0.82254 0.0
H117 H 0.58599 0.35277 0.81352 0.0
H118 H 0.48039 0.26711 0.86108 0.0
H119 H 0.45756 0.31168 0.86956 0.0
P120 P 0.64517 0.03178 0.20267 0.0
H121 H 0.61844 0.95779 0.17848 0.0
H122 H 0.539 0.89425 0.16595 0.0
H123 H 0.46729 0.9477 0.18375 0.0
H124 H 0.54736 0.01116 0.19695 0.0
H125 H 0.73762 0.07793 0.17794 0.0
H126 H 0.78948 0.14682 0.16392 0.0
H127 H 0.6772 0.1595 0.18163 0.0
H128 H 0.62565 0.09027 0.19618 0.0
H129 H 0.57242 0.97307 0.23415 0.0
H130 H 0.69035 0.1044 0.23298 0.0
O131 O 0.68272 0.01949 0.20467 0.0
H132 H 0.56087 0.98002 0.27315 0.0
H133 H 0.67789 0.11181 0.27178 0.0
C134 C 0.58875 0.9891 0.18883 0.0
C135 C 0.58586 0.95622 0.17937 0.0
C136 C 0.54021 0.91979 0.17206 0.0
C137 C 0.49641 0.91552 0.17401 0.0
C138 C 0.50005 0.94958 0.18236 0.0
C139 C 0.54587 0.98608 0.1897 0.0
C140 C 0.678 0.07913 0.18837 0.0
C141 C 0.72367 0.09516 0.17854 0.0
C142 C 0.75331 0.13468 0.17036 0.0
C143 C 0.73786 0.15906 0.17179 0.0
C144 C 0.69067 0.1419 0.18059 0.0
C145 C 0.66092 0.10218 0.18873 0.0
C146 C 0.63137 0.03833 0.23044 0.0
C147 C 0.59481 0.00361 0.24211 0.0
C148 C 0.58813 0.00764 0.26446 0.0
C149 C 0.61836 0.0465 0.27567 0.0
C150 C 0.65421 0.08136 0.26375 0.0
C151 C 0.661 0.07723 0.24143 0.0
P152 P 0.69374 0.58056 0.57447 0.0
H153 H 0.73577 0.55751 0.54121 0.0
H154 H 0.70309 0.4924 0.52173 0.0
H155 H 0.55877 0.43616 0.55026 0.0
H156 H 0.59232 0.50158 0.57015 0.0
H157 H 0.75366 0.6697 0.57381 0.0
H158 H 0.73617 0.71523 0.56306 0.0
H159 H 0.58821 0.60924 0.54234 0.0
H160 H 0.60602 0.56354 0.55323 0.0
H161 H 0.65935 0.51041 0.60113 0.0
H162 H 0.68613 0.62655 0.61001 0.0
O163 O 0.75523 0.60694 0.57514 0.0
H164 H 0.63508 0.49628 0.6395 0.0
H165 H 0.66288 0.61284 0.6485 0.0
C166 C 0.66672 0.53419 0.55745 0.0
C167 C 0.69696 0.53133 0.54313 0.0
C168 C 0.67806 0.49403 0.53184 0.0
C169 C 0.62836 0.4588 0.53457 0.0
C170 C 0.59745 0.46244 0.54809 0.0
C171 C 0.61644 0.49989 0.55934 0.0
C172 C 0.68147 0.61323 0.56399 0.0
C173 C 0.71767 0.65616 0.56666 0.0
C174 C 0.70746 0.68218 0.56072 0.0
C175 C 0.66073 0.66581 0.55195 0.0
C176 C 0.62468 0.62273 0.54889 0.0
C177 C 0.63484 0.5966 0.55509 0.0
C178 C 0.67277 0.56884 0.60239 0.0
C179 C 0.65912 0.53253 0.61115 0.0
C180 C 0.64551 0.52456 0.63314 0.0
C181 C 0.64676 0.55335 0.64692 0.0
C182 C 0.66158 0.59013 0.63824 0.0
C183 C 0.67446 0.59778 0.61617 0.0
P184 P 0.11605 0.56173 0.88077 0.0
H185 H 0.16068 0.56239 0.83914 0.0
H186 H 0.21656 0.5463 0.82978 0.0
H187 H 0.18725 0.49149 0.89235 0.0
H188 H 0.13114 0.50698 0.90136 0.0
H189 H 0.08834 0.61238 0.87061 0.0
H190 H 1.01071 0.59807 0.86189 0.0
H191 H 0.93654 0.46728 0.85905 0.0
H192 H 1.01586 0.48229 0.86835 0.0
H193 H 0.17871 0.62117 0.91678 0.0
H194 H 1.03977 0.49766 0.90973 0.0
O195 O 0.16082 0.61111 0.87534 0.0
H196 H 0.16953 0.61945 0.95651 0.0
H197 H 1.03012 0.49585 0.9496 0.0
C198 C 0.14109 0.53584 0.87093 0.0
C199 C 0.16484 0.54557 0.85053 0.0
C200 C 0.19764 0.53696 0.84536 0.0
C201 C 0.20752 0.51821 0.86044 0.0
C202 C 0.18078 0.50579 0.8802 0.0
C203 C 0.1482 0.51461 0.88539 0.0
C204 C 1.05881 0.54855 0.86956 0.0
C205 C 1.05592 0.58052 0.86753 0.0
C206 C 1.01094 0.5722 0.86251 0.0
C207 C 0.96671 0.53142 0.85946 0.0
C208 C 0.96955 0.49913 0.86132 0.0
C209 C 1.0151 0.50763 0.86637 0.0
C210 C 0.10952 0.55976 0.91021 0.0
C211 C 0.14602 0.59372 0.92373 0.0
C212 C 0.14066 0.59278 0.9465 0.0
C213 C 0.09889 0.55766 0.95624 0.0
C214 C 1.06284 0.52332 0.94264 0.0
C215 C 0.06811 0.52441 0.91982 0.0
P216 P 0.13115 0.51455 0.42259 0.0
H217 H 0.20216 0.55581 0.45897 0.0
H218 H 0.25692 0.62736 0.47292 0.0
H219 H 0.18458 0.65541 0.42991 0.0
H220 H 0.12766 0.58297 0.41729 0.0
H221 H 0.11288 0.46411 0.45882 0.0
H222 H 1.03714 0.40355 0.47412 0.0
H223 H 0.94924 0.41661 0.43181 0.0
H224 H 1.02566 0.47883 0.41756 0.0
H225 H 0.18844 0.57942 0.39104 0.0
H226 H 1.05821 0.45127 0.38975 0.0
O227 O 0.16938 0.5028 0.42357 0.0
H228 H 0.18011 0.58086 0.35173 0.0
H229 H 1.04936 0.45264 0.35035 0.0
C230 C 0.16225 0.5645 0.43645 0.0
C231 C 0.19744 0.57721 0.45289 0.0
C232 C 0.22917 0.61838 0.46067 0.0
C233 C 0.22674 0.64785 0.45195 0.0
C234 C 0.18809 0.63396 0.43696 0.0
C235 C 0.15562 0.59246 0.42955 0.0
C236 C 0.07485 0.47496 0.43643 0.0
C237 C 0.0773 0.45428 0.45305 0.0
C238 C 1.0338 0.41935 0.46166 0.0
C239 C 0.9868 0.40415 0.45371 0.0
C240 C 0.9846 0.42709 0.43829 0.0
C241 C 1.02834 0.46254 0.42994 0.0
C242 C 0.12205 0.516 0.39375 0.0
C243 C 0.15693 0.55195 0.38251 0.0
C244 C 0.15232 0.5527 0.35993 0.0
C245 C 0.1135 0.5171 0.34795 0.0
C246 C 0.07945 0.4807 0.35912 0.0
C247 C 0.08403 0.48007 0.38176 0.0
P248 P 0.67172 0.0576 0.74659 0.0
H249 H 0.72518 0.13118 0.77604 0.0
H250 H 0.7005 0.16838 0.79544 0.0
H251 H 0.54925 0.07539 0.77222 0.0
H252 H 0.57413 0.03727 0.75367 0.0
H253 H 0.71619 0.04351 0.78081 0.0
H254 H 0.6953 0.98086 0.79549 0.0
H255 H 0.56262 0.90711 0.75491 0.0
H256 H 0.58389 0.97017 0.74029 0.0
H257 H 0.63122 0.08822 0.72009 0.0
H258 H 0.66925 0.00732 0.71069 0.0
O259 O 0.73375 0.08967 0.7458 0.0
H260 H 0.60749 0.07734 0.68153 0.0
H261 H 0.64627 0.9969 0.67185 0.0
C262 C 0.6517 0.08204 0.76296 0.0
C263 C 0.6866 0.11856 0.77527 0.0
C264 C 0.67244 0.14001 0.78626 0.0
C265 C 0.62306 0.12551 0.78502 0.0
C266 C 0.58757 0.08755 0.77361 0.0
C267 C 0.60175 0.0658 0.76286 0.0
C268 C 0.65233 0.01135 0.75904 0.0
C269 C 0.6824 0.01387 0.7752 0.0
C270 C 0.67021 0.97802 0.7837 0.0
C271 C 0.62755 0.93896 0.77619 0.0
C272 C 0.59617 0.93671 0.76073 0.0
C273 C 0.60825 0.9727 0.75238 0.0
C274 C 0.6503 0.04734 0.71854 0.0
C275 C 0.63335 0.06729 0.70993 0.0
C276 C 0.61996 0.06121 0.6878 0.0
C277 C 0.6246 0.03597 0.67373 0.0
C278 C 0.64224 0.01647 0.68232 0.0
C279 C 0.65503 0.02217 0.70453 0.0
P280 P 0.43472 0.31922 0.09161 0.0
H281 H 0.41141 0.26518 0.12669 0.0
H282 H 0.46434 0.26087 0.15045 0.0
H283 H 0.5914 0.34791 0.11111 0.0
H284 H 0.53937 0.3539 0.08826 0.0
H285 H 0.37224 0.32837 0.12035 0.0
H286 H 0.38468 0.38944 0.13615 0.0
H287 H 0.53537 0.46669 0.11216 0.0
H288 H 0.5224 0.40541 0.0962 0.0
H289 H 0.49113 0.31152 0.05675 0.0
H290 H 0.41039 0.35924 0.06446 0.0
O291 O 0.37456 0.27837 0.09245 0.0
H292 H 0.51839 0.34056 0.02036 0.0
H293 H 0.43618 0.38704 0.02817 0.0
C294 C 0.47101 0.3085 0.10509 0.0
C295 C 0.45036 0.2823 0.12275 0.0
C296 C 0.48048 0.27993 0.13636 0.0
C297 C 0.53151 0.3034 0.13225 0.0
C298 C 0.55181 0.32862 0.11418 0.0
C299 C 0.52197 0.33179 0.10098 0.0
C300 C 0.44616 0.36254 0.10688 0.0
C301 C 0.40823 0.35833 0.11889 0.0
C302 C 0.41561 0.39329 0.12808 0.0
C303 C 0.46101 0.43291 0.12529 0.0
C304 C 0.49993 0.43662 0.11441 0.0
C305 C 0.49257 0.40164 0.10534 0.0
C306 C 0.45032 0.33465 0.06367 0.0
C307 C 0.47951 0.32838 0.05074 0.0
C308 C 0.49489 0.3448 0.02993 0.0
C309 C 0.47979 0.36639 0.02158 0.0
C310 C 0.44835 0.37052 0.03415 0.0
C311 C 0.43374 0.35474 0.05495 0.0
H312 H 0.40225 0.59117 0.09608 0.0
H313 H 0.4298 0.45031 0.16255 0.0
H314 H 0.34379 0.55135 0.16095 0.0
H315 H 0.49953 0.49918 0.10029 0.0
H316 H 0.41727 0.50204 0.16677 0.0
H317 H 0.45731 0.574 0.10169 0.0
C318 C 0.40194 0.57981 0.11171 0.0
C319 C 0.36756 0.5717 0.12785 0.0
C320 C 0.43641 0.50214 0.15241 0.0
C321 C 0.42963 0.55127 0.13426 0.0
C322 C 0.44341 0.47252 0.15 0.0
C323 C 0.46467 0.46986 0.13082 0.0
C324 C 0.44989 0.5287 0.13533 0.0
C325 C 0.48262 0.4999 0.11527 0.0
C326 C 0.43338 0.57001 0.11493 0.0
C327 C 0.36938 0.55777 0.14796 0.0
N328 N 0.47378 0.52746 0.11763 0.0
N329 N 0.39895 0.54701 0.1504 0.0
H330 H 0.68146 0.18516 0.47273 0.0
H331 H 0.97695 0.335 0.4616 0.0
H332 H 0.77262 0.14937 0.48441 0.0
H333 H 0.89153 0.37869 0.46017 0.0
H334 H 0.90204 0.26726 0.47054 0.0
H335 H 0.75697 0.25621 0.46858 0.0
C336 C 0.71726 0.1922 0.47454 0.0
C337 C 0.72054 0.16103 0.47875 0.0
C338 C 0.89961 0.29168 0.46845 0.0
C339 C 0.80722 0.24238 0.47396 0.0
C340 C 0.94265 0.33069 0.46349 0.0
C341 C 0.94102 0.36308 0.46023 0.0
C342 C 0.85402 0.28442 0.46997 0.0
C343 C 0.89474 0.35474 0.46229 0.0
C344 C 0.76039 0.23284 0.47221 0.0
C345 C 0.76808 0.17221 0.48114 0.0
N346 N 0.85308 0.31622 0.46692 0.0
N347 N 0.8094 0.21179 0.47854 0.0
H348 H 0.60581 0.72085 0.777 0.0
H349 H 0.63564 0.92107 0.81771 0.0
H350 H 0.62127 0.76025 0.84515 0.0
H351 H 0.5984 0.8706 0.75108 0.0
H352 H 0.62781 0.86129 0.82841 0.0
H353 H 0.60035 0.7743 0.7674 0.0
C354 C 0.60788 0.74069 0.78996 0.0
C355 C 0.61433 0.73626 0.8119 0.0
C356 C 0.62086 0.86309 0.81149 0.0
C357 C 0.60816 0.79763 0.80104 0.0
C358 C 0.62552 0.89728 0.80536 0.0
C359 C 0.61789 0.90095 0.78345 0.0
C360 C 0.60898 0.83248 0.79555 0.0
C361 C 0.60424 0.86893 0.76819 0.0
C362 C 0.60453 0.77109 0.78448 0.0
C363 C 0.61604 0.76244 0.82805 0.0
N364 N 0.60069 0.83628 0.77449 0.0
N365 N 0.61346 0.79225 0.82228 0.0
H366 H 0.80445 0.37275 0.17679 0.0
H367 H 0.54377 0.32725 0.17546 0.0
H368 H 0.7745 0.44845 0.21103 0.0
H369 H 0.59714 0.28823 0.12466 0.0
H370 H 0.61485 0.35014 0.19866 0.0
H371 H 0.71567 0.32066 0.16867 0.0
C372 C 0.77899 0.37793 0.18306 0.0
C373 C 0.79689 0.41549 0.19399 0.0
C374 C 0.61009 0.33538 0.18271 0.0
C375 C 0.69565 0.35615 0.18481 0.0
C376 C 0.56954 0.32216 0.16954 0.0
C377 C 0.56529 0.30638 0.14812 0.0
C378 C 0.64611 0.33242 0.17432 0.0
C379 C 0.59966 0.30069 0.14105 0.0
C380 C 0.72842 0.3482 0.17845 0.0
C381 C 0.76228 0.42017 0.20229 0.0
N382 N 0.63909 0.31422 0.15403 0.0
N383 N 0.71326 0.3912 0.19709 0.0
H384 H 0.41137 0.91593 0.45832 0.0
H385 H 0.32605 0.68813 0.45913 0.0
H386 H 0.50462 0.88774 0.48079 0.0
H387 H 0.22023 0.7112 0.45548 0.0
H388 H 0.39223 0.7616 0.46528 0.0
H389 H 0.34148 0.84172 0.45498 0.0
C390 C 0.41719 0.89422 0.46256 0.0
C391 C 0.46405 0.90817 0.46978 0.0
C392 C 0.3545 0.75063 0.4633 0.0
C393 C 0.38437 0.82336 0.46591 0.0
C394 C 0.31633 0.70841 0.45998 0.0
C395 C 0.26691 0.69291 0.45695 0.0
C396 C 0.34377 0.77811 0.46331 0.0
C397 C 0.25761 0.72147 0.45748 0.0
C398 C 0.37723 0.8519 0.46073 0.0
C399 C 0.46929 0.87858 0.47514 0.0
N400 N 0.29568 0.76267 0.46048 0.0
N401 N 0.43011 0.8377 0.47297 0.0
H402 H 0.62783 0.32959 0.82797 0.0
H403 H 0.53594 0.09998 0.8053 0.0
H404 H 0.47403 0.22143 0.8327 0.0
H405 H 0.67918 0.20973 0.78612 0.0
H406 H 0.51439 0.14329 0.81926 0.0
H407 H 0.64926 0.28533 0.81676 0.0
C408 C 0.59847 0.29654 0.82659 0.0
C409 C 0.5489 0.27934 0.83108 0.0
C410 C 0.55059 0.15779 0.81207 0.0
C411 C 0.57346 0.22826 0.81851 0.0
C412 C 0.56289 0.13309 0.804 0.0
C413 C 0.60958 0.1511 0.79452 0.0
C414 C 0.58529 0.20084 0.81077 0.0
C415 C 0.64314 0.19432 0.79363 0.0
C416 C 0.61081 0.27124 0.82028 0.0
C417 C 0.51276 0.23612 0.82956 0.0
N418 N 0.63033 0.21759 0.80162 0.0
N419 N 0.52572 0.21208 0.82333 0.0
H420 H 0.60529 0.81137 0.48356 0.0
H421 H 0.681 0.73128 0.57683 0.0
H422 H 0.65117 0.86697 0.54903 0.0
H423 H 0.61561 0.66434 0.51493 0.0
H424 H 0.66807 0.78018 0.56702 0.0
H425 H 0.60632 0.75613 0.49473 0.0
C426 C 0.61532 0.81185 0.50031 0.0
C427 C 0.62838 0.84401 0.51535 0.0
C428 C 0.65625 0.75471 0.55559 0.0
C429 C 0.6297 0.78089 0.52824 0.0
C430 C 0.66388 0.7269 0.56114 0.0
C431 C 0.64983 0.69393 0.54658 0.0
C432 C 0.63475 0.74988 0.5352 0.0
C433 C 0.62694 0.6893 0.52665 0.0
C434 C 0.6157 0.78021 0.5067 0.0
C435 C 0.64041 0.8427 0.53692 0.0
N436 N 0.62053 0.71721 0.52145 0.0
N437 N 0.6412 0.81193 0.54264 0.0
H438 H 0.75394 0.57193 0.83333 0.0
H439 H 0.8715 0.46834 0.87378 0.0
H440 H 0.66296 0.4491 0.8575 0.0
H441 H 0.95056 0.57659 0.83535 0.0
H442 H 0.79527 0.46048 0.86904 0.0
H443 H 0.82658 0.5746 0.83554 0.0
C444 C 0.74907 0.5454 0.8391 0.0
C445 C 0.70187 0.51024 0.84527 0.0
C446 C 0.82932 0.48584 0.86159 0.0
C447 C 0.78596 0.51327 0.84799 0.0
C448 C 0.87299 0.49024 0.86416 0.0
C449 C 0.9183 0.52353 0.8552 0.0
C450 C 0.83068 0.51501 0.85007 0.0
C451 C 0.91729 0.551 0.8431 0.0
C452 C 0.79078 0.54694 0.84031 0.0
C453 C 0.69841 0.47689 0.85255 0.0
N454 N 0.87465 0.5463 0.84107 0.0
N455 N 0.7398 0.47932 0.85384 0.0
H456 H 0.19288 0.6899 0.18211 0.0
H457 H 0.47144 0.85833 0.1405 0.0
H458 H 0.26244 0.66263 0.13322 0.0
H459 H 0.40867 0.87905 0.19615 0.0
H460 H 0.39254 0.78879 0.13502 0.0
H461 H 0.26898 0.76134 0.18489 0.0
C462 C 0.22406 0.69889 0.1719 0.0
C463 C 0.22118 0.67003 0.15746 0.0
C464 C 0.39598 0.80867 0.14835 0.0
C465 C 0.30869 0.75213 0.16056 0.0
C466 C 0.44111 0.8484 0.15154 0.0
C467 C 0.44706 0.87474 0.16892 0.0
C468 C 0.35626 0.79502 0.16258 0.0
C469 C 0.4059 0.86023 0.18239 0.0
C470 C 0.26759 0.73977 0.17351 0.0
C471 C 0.26292 0.68369 0.14463 0.0
N472 N 0.36247 0.82138 0.179 0.0
N473 N 0.30493 0.72371 0.1465 0.0
H474 H 0.50742 0.20357 0.51508 0.0
H475 H 0.6481 0.44168 0.49357 0.0
H476 H 0.59456 0.26323 0.45745 0.0
H477 H 0.56759 0.38298 0.55265 0.0
H478 H 0.624 0.37556 0.47884 0.0
H479 H 0.5239 0.26777 0.52775 0.0
C480 C 0.52963 0.23004 0.50496 0.0
C481 C 0.54964 0.22788 0.48514 0.0
C482 C 0.61136 0.3771 0.49498 0.0
C483 C 0.56923 0.30192 0.49975 0.0
C484 C 0.62524 0.4149 0.50344 0.0
C485 C 0.61011 0.41808 0.52446 0.0
C486 C 0.58214 0.34208 0.50761 0.0
C487 C 0.57976 0.38206 0.53629 0.0
C488 C 0.53929 0.26683 0.51229 0.0
C489 C 0.57888 0.26353 0.47296 0.0
N490 N 0.56705 0.3457 0.52777 0.0
N491 N 0.58784 0.29905 0.48047 0.0
H492 H 0.39376 0.44155 0.85876 0.0
H493 H 0.2986 0.57279 0.84083 0.0
H494 H 0.4861 0.5635 0.83343 0.0
H495 H 0.20968 0.45519 0.87105 0.0
H496 H 0.36548 0.56791 0.83602 0.0
H497 H 0.32479 0.44432 0.86162 0.0
C498 C 0.39962 0.46888 0.85369 0.0
C499 C 0.44618 0.50232 0.84582 0.0
C500 C 0.3313 0.54306 0.84364 0.0
C501 C 0.36669 0.5057 0.84911 0.0
C502 C 0.29268 0.54562 0.84624 0.0
C503 C 0.24784 0.5143 0.85635 0.0
C504 C 0.32552 0.50884 0.8511 0.0
C505 C 0.24346 0.48038 0.86337 0.0
C506 C 0.36008 0.47045 0.85538 0.0
C507 C 0.45111 0.53689 0.83959 0.0
N508 N 0.28157 0.47858 0.86062 0.0
N509 N 0.41208 0.53764 0.84137 0.0
H510 H 0.93173 0.42567 0.17846 0.0
H511 H 0.80274 0.19267 0.13712 0.0
H512 H 0.98833 0.3938 0.12515 0.0
H513 H 0.75318 0.22627 0.19277 0.0
H514 H 0.8661 0.26585 0.13018 0.0
H515 H 0.86166 0.35284 0.18154 0.0
C516 C 0.92927 0.40343 0.16723 0.0
C517 C 0.9662 0.41606 0.1515 0.0
C518 C 0.84109 0.25718 0.1438 0.0
C519 C 0.88568 0.33204 0.1551 0.0
C520 C 0.80495 0.21535 0.14783 0.0
C521 C 0.77262 0.20308 0.16568 0.0
C522 C 0.84515 0.28715 0.15772 0.0
C523 C 0.7768 0.23402 0.17871 0.0
C524 C 0.88914 0.3617 0.16905 0.0
C525 C 0.96089 0.38556 0.13755 0.0
N526 N 0.81255 0.2745 0.17456 0.0
N527 N 0.92153 0.34498 0.13974 0.0
H528 H 0.0864 0.61695 0.0936 0.0
H529 H 0.06781 0.49472 0.9831 0.0
H530 H 1.05904 0.50045 0.09236 0.0
H531 H 0.11684 0.61909 0.98464 0.0
H532 H 1.05939 0.49463 0.02297 0.0
H533 H 0.0933 0.61699 0.0535 0.0
C534 C 0.08177 0.59138 0.08486 0.0
C535 C 0.07211 0.55866 0.09624 0.0
C536 C 0.07202 0.52197 0.0146 0.0
C537 C 0.0798 0.55834 0.0505 0.0
C538 C 0.07653 0.52193 0.99181 0.0
C539 C 0.09312 0.55698 0.98048 0.0
C540 C 0.08385 0.55721 0.02622 0.0
C541 C 0.1045 0.59156 0.9927 0.0
C542 C 0.08579 0.59142 0.06201 0.0
C543 C 1.06652 0.5263 0.08419 0.0
N544 N 0.09956 0.59077 0.01487 0.0
N545 N 0.07035 0.52692 0.06199 0.0
H546 H 0.6971 0.09128 0.41241 0.0
H547 H 0.53517 0.00518 0.30185 0.0
H548 H 0.53688 0.00362 0.41214 0.0
H549 H 0.6953 0.09543 0.30501 0.0
H550 H 0.53318 0.00739 0.34203 0.0
H551 H 0.69534 0.09714 0.37309 0.0
C552 C 0.66143 0.07341 0.40402 0.0
C553 C 0.6171 0.0466 0.41543 0.0
C554 C 0.56865 0.02699 0.33388 0.0
C555 C 0.61467 0.05279 0.37021 0.0
C556 C 0.56987 0.02562 0.31095 0.0
C557 C 0.61551 0.05008 0.29994 0.0
C558 C 0.6134 0.05287 0.3459 0.0
C559 C 0.65917 0.07639 0.31263 0.0
C560 C 0.66041 0.07676 0.38153 0.0
C561 C 0.57189 0.02449 0.40384 0.0
N562 N 0.657 0.07684 0.33484 0.0
N563 N 0.57181 0.02772 0.38174 0.0
H564 H 0.64937 0.55371 0.789 0.0
H565 H 0.56517 0.4828 0.66395 0.0
H566 H 0.49814 0.45434 0.76877 0.0
H567 H 0.69713 0.60503 0.68298 0.0
H568 H 0.54341 0.46914 0.70262 0.0
H569 H 0.67102 0.57125 0.75048 0.0
C570 C 0.62067 0.53591 0.77649 0.0
C571 C 0.57188 0.50264 0.78204 0.0
C572 C 0.57704 0.49902 0.69835 0.0
C573 C 0.59649 0.52183 0.73811 0.0
C574 C 0.58958 0.50671 0.67631 0.0
C575 C 0.63297 0.54507 0.6703 0.0
C576 C 0.60846 0.52969 0.71456 0.0
C577 C 0.66313 0.57515 0.68695 0.0
C578 C 0.63304 0.54583 0.75455 0.0
C579 C 0.53623 0.4802 0.76519 0.0
N580 N 0.65051 0.56674 0.70837 0.0
N581 N 0.54932 0.48999 0.74399 0.0
H582 H 0.65238 0.06042 0.53368 0.0
H583 H 0.54311 0.02048 0.65442 0.0
H584 H 0.49765 1.00048 0.54623 0.0
H585 H 0.68035 0.04199 0.63912 0.0
H586 H 0.52722 0.01694 0.61512 0.0
H587 H 0.66504 0.05765 0.57254 0.0
C588 C 0.62094 0.04622 0.54458 0.0
C589 C 0.57379 0.03025 0.53673 0.0
C590 C 0.56063 0.02214 0.62037 0.0
C591 C 0.58822 0.02792 0.58129 0.0
C592 C 0.56981 0.02436 0.64276 0.0
C593 C 0.61312 0.03156 0.65 0.0
C594 C 0.59538 0.0278 0.60512 0.0
C595 C 0.64631 0.03604 0.63422 0.0
C596 C 0.62821 0.04479 0.56678 0.0
C597 C 0.53458 0.01305 0.55165 0.0
N598 N 0.63696 0.03443 0.61254 0.0
N599 N 0.54272 0.01256 0.57327 0.0
H600 H 0.49314 0.45503 0.89514 0.0
H601 H 0.57492 0.4154 0.00567 0.0
H602 H 0.6465 0.52896 0.91603 0.0
H603 H 0.42383 0.36127 0.98871 0.0
H604 H 0.60288 0.45211 0.97134 0.0
H605 H 0.46817 0.4158 0.92793 0.0
C606 C 0.52162 0.46303 0.90671 0.0
C607 C 0.57194 0.49529 0.90294 0.0
C608 C 0.56362 0.43203 0.97513 0.0
C609 C 0.54358 0.45035 0.94066 0.0
C610 C 0.54764 0.41084 0.99457 0.0
C611 C 0.49703 0.38544 2e-05 0.0
C612 C 0.5286 0.42735 0.96102 0.0
C613 C 0.46323 0.38089 0.98523 0.0
C614 C 0.50733 0.4406 0.92546 0.0
C615 C 0.60727 0.50437 0.91846 0.0
N616 N 0.47962 0.40166 0.96647 0.0
N617 N 0.59241 0.48191 0.93671 0.0
H618 H 0.10155 0.46627 0.20808 0.0
H619 H 0.12694 0.57742 0.32401 0.0
H620 H 0.12652 0.58177 0.21462 0.0
H621 H 0.09285 0.45826 0.3168 0.0
H622 H 0.12583 0.57938 0.28409 0.0
H623 H 0.09723 0.46255 0.24796 0.0
C624 C 0.1061 0.49085 0.21796 0.0
C625 C 0.11446 0.52439 0.20813 0.0
C626 C 0.11836 0.55271 0.29124 0.0
C627 C 0.1096 0.52044 0.25376 0.0
C628 C 0.1192 0.55165 0.31402 0.0
C629 C 0.11012 0.51767 0.32378 0.0
C630 C 0.10864 0.51965 0.27806 0.0
C631 C 0.09957 0.48489 0.31003 0.0
C632 C 0.10351 0.48869 0.24072 0.0
C633 C 0.1199 0.55533 0.22162 0.0
N634 N 0.09939 0.48681 0.2879 0.0
N635 N 0.11753 0.55269 0.24379 0.0
loop_
_geom_bond_atom_site_label_1
_geom_bond_atom_site_label_2
_geom_bond_distance
_geom_bond_site_symmetry_2
_ccdc_geom_bond_type
La0 C2 2.928 . S
La0 O20 2.521 . S
La0 O21 2.628 . S
La0 O22 2.554 . S
La0 O23 2.757 . S
La0 O24 2.470 . S
La0 O29 2.482 . S
La0 O31 2.503 1_455 S
La1 C11 2.928 . S
La1 O23 2.482 1_655 S
La1 O25 2.503 1_655 S
La1 O26 2.521 . S
La1 O27 2.628 . S
La1 O28 2.554 . S
La1 O29 2.757 1_655 S
La1 O30 2.470 . S
C2 La0 2.928 . S
C2 C3 1.503 . S
C2 O20 1.261 . S
C2 O21 1.243 . S
C3 C2 1.503 . S
C3 C4 1.394 . S
C3 C8 1.373 . S
C4 C3 1.394 . S
C4 C5 1.380 . S
C4 H32 0.930 . S
C5 C4 1.380 . S
C5 C6 1.376 . S
C5 H33 0.930 . S
C6 C5 1.376 . S
C6 C7 1.370 . S
C7 C6 1.370 . S
C7 C8 1.396 . S
C7 H34 0.929 . S
C8 C3 1.373 . S
C8 C7 1.396 . S
C8 H35 0.929 . S
C9 O22 1.240 . S
C9 O23 1.289 . S
C10 O24 1.258 . S
C10 O25 1.256 . S
C11 La1 2.928 . S
C11 C12 1.503 . S
C11 O26 1.261 . S
C11 O27 1.243 . S
C12 C11 1.503 . S
C12 C13 1.394 . S
C12 C17 1.373 . S
C13 C12 1.394 . S
C13 C14 1.380 . S
C13 H36 0.930 . S
C14 C13 1.380 . S
C14 C15 1.376 . S
C14 H37 0.930 . S
C15 C14 1.376 . S
C15 C16 1.370 . S
C16 C15 1.370 . S
C16 C17 1.396 . S
C16 H38 0.929 . S
C17 C12 1.373 . S
C17 C16 1.396 . S
C17 H39 0.929 . S
C18 O28 1.240 1_455 S
C18 O29 1.289 . S
C19 O30 1.258 . S
C19 O31 1.256 . S
O20 La0 2.521 . S
O20 C2 1.261 . S
O21 La0 2.628 . S
O21 C2 1.243 . S
O22 La0 2.554 . S
O22 C9 1.240 . S
O23 La0 2.757 . S
O23 La1 2.482 1_455 S
O23 C9 1.289 . S
O24 La0 2.470 . S
O24 C10 1.258 . S
O25 La1 2.503 1_455 S
O25 C10 1.256 . S
O26 La1 2.521 . S
O26 C11 1.261 . S
O27 La1 2.628 . S
O27 C11 1.243 . S
O28 La1 2.554 . S
O28 C18 1.240 1_655 S
O29 La0 2.482 . S
O29 La1 2.757 1_455 S
O29 C18 1.289 . S
O30 La1 2.470 . S
O30 C19 1.258 . S
O31 La0 2.503 1_655 S
O31 C19 1.256 . S
H32 C4 0.930 . S
H33 C5 0.930 . S
H34 C7 0.929 . S
H35 C8 0.929 . S
H36 C13 0.930 . S
H37 C14 0.930 . S
H38 C16 0.929 . S
H39 C17 0.929 . S
La40 C42 2.928 . S
La40 O60 2.521 . S
La40 O61 2.628 . S
La40 O62 2.554 . S
La40 O63 2.757 1_565 S
La40 O64 2.470 . S
La40 O69 2.482 . S
La40 O71 2.503 1_565 S
La41 C51 2.928 . S
La41 O63 2.482 . S
La41 O65 2.503 1_545 S
La41 O66 2.521 . S
La41 O67 2.628 . S
La41 O68 2.554 . S
La41 O69 2.757 1_545 S
La41 O70 2.470 . S
C42 La40 2.928 . S
C42 C43 1.503 . S
C42 O60 1.261 . S
C42 O61 1.243 . S
C43 C42 1.503 . S
C43 C44 1.394 . S
C43 C48 1.373 . S
C44 C43 1.394 . S
C44 C45 1.380 . S
C44 H72 0.930 . S
C45 C44 1.380 . S
C45 C46 1.376 . S
C45 H73 0.930 . S
C46 C45 1.376 . S
C46 C47 1.370 . S
C47 C46 1.370 . S
C47 C48 1.396 . S
C47 H74 0.929 . S
C48 C43 1.373 . S
C48 C47 1.396 . S
C48 H75 0.929 . S
C49 O62 1.240 1_545 S
C49 O63 1.289 . S
C50 O64 1.258 . S
C50 O65 1.256 . S
C51 La41 2.928 . S
C51 C52 1.503 . S
C51 O66 1.261 . S
C51 O67 1.243 . S
C52 C51 1.503 . S
C52 C53 1.394 . S
C52 C57 1.373 . S
C53 C52 1.394 . S
C53 C54 1.380 . S
C53 H76 0.930 . S
C54 C53 1.380 . S
C54 C55 1.376 . S
C54 H77 0.930 . S
C55 C54 1.376 . S
C55 C56 1.370 . S
C56 C55 1.370 . S
C56 C57 1.396 . S
C56 H78 0.929 . S
C57 C52 1.373 . S
C57 C56 1.396 . S
C57 H79 0.929 . S
C58 O68 1.240 . S
C58 O69 1.289 1_545 S
C59 O70 1.258 . S
C59 O71 1.256 . S
O60 La40 2.521 . S
O60 C42 1.261 . S
O61 La40 2.628 . S
O61 C42 1.243 . S
O62 La40 2.554 . S
O62 C49 1.240 1_565 S
O63 La40 2.757 1_545 S
O63 La41 2.482 . S
O63 C49 1.289 . S
O64 La40 2.470 . S
O64 C50 1.258 . S
O65 La41 2.503 1_565 S
O65 C50 1.256 . S
O66 La41 2.521 . S
O66 C51 1.261 . S
O67 La41 2.628 . S
O67 C51 1.243 . S
O68 La41 2.554 . S
O68 C58 1.240 . S
O69 La40 2.482 . S
O69 La41 2.757 1_565 S
O69 C58 1.289 1_565 S
O70 La41 2.470 . S
O70 C59 1.258 . S
O71 La40 2.503 1_545 S
O71 C59 1.256 . S
H72 C44 0.930 . S
H73 C45 0.930 . S
H74 C47 0.929 . S
H75 C48 0.929 . S
H76 C53 0.930 . S
H77 C54 0.930 . S
H78 C56 0.929 . S
H79 C57 0.929 . S
La80 C82 2.928 . S
La80 O100 2.521 . S
La80 O101 2.628 . S
La80 O102 2.554 . S
La80 O103 2.757 . S
La80 O104 2.470 . S
La80 O109 2.482 . S
La80 O111 2.503 . S
La81 C91 2.928 . S
La81 O103 2.482 . S
La81 O105 2.503 . S
La81 O106 2.521 . S
La81 O107 2.628 . S
La81 O108 2.554 . S
La81 O109 2.757 . S
La81 O110 2.470 . S
C82 La80 2.928 . S
C82 C83 1.503 . S
C82 O100 1.261 . S
C82 O101 1.243 . S
C83 C82 1.503 . S
C83 C84 1.394 . S
C83 C88 1.373 . S
C84 C83 1.394 . S
C84 C85 1.380 . S
C84 H112 0.930 . S
C85 C84 1.380 . S
C85 C86 1.376 . S
C85 H113 0.930 . S
C86 C85 1.376 . S
C86 C87 1.370 . S
C87 C86 1.370 . S
C87 C88 1.396 . S
C87 H114 0.929 . S
C88 C83 1.373 . S
C88 C87 1.396 . S
C88 H115 0.929 . S
C89 O102 1.240 . S
C89 O103 1.289 . S
C90 O104 1.258 . S
C90 O105 1.256 . S
C91 La81 2.928 . S
C91 C92 1.503 . S
C91 O106 1.261 . S
C91 O107 1.243 . S
C92 C91 1.503 . S
C92 C93 1.394 . S
C92 C97 1.373 . S
C93 C92 1.394 . S
C93 C94 1.380 . S
C93 H116 0.930 . S
C94 C93 1.380 . S
C94 C95 1.376 . S
C94 H117 0.930 . S
C95 C94 1.376 . S
C95 C96 1.370 . S
C96 C95 1.370 . S
C96 C97 1.396 . S
C96 H118 0.929 . S
C97 C92 1.373 . S
C97 C96 1.396 . S
C97 H119 0.929 . S
C98 O108 1.240 . S
C98 O109 1.289 . S
C99 O110 1.258 . S
C99 O111 1.256 . S
O100 La80 2.521 . S
O100 C82 1.261 . S
O101 La80 2.628 . S
O101 C82 1.243 . S
O102 La80 2.554 . S
O102 C89 1.240 . S
O103 La80 2.757 . S
O103 La81 2.482 . S
O103 C89 1.289 . S
O104 La80 2.470 . S
O104 C90 1.258 . S
O105 La81 2.503 . S
O105 C90 1.256 . S
O106 La81 2.521 . S
O106 C91 1.261 . S
O107 La81 2.628 . S
O107 C91 1.243 . S
O108 La81 2.554 . S
O108 C98 1.240 . S
O109 La80 2.482 . S
O109 La81 2.757 . S
O109 C98 1.289 . S
O110 La81 2.470 . S
O110 C99 1.258 . S
O111 La80 2.503 . S
O111 C99 1.256 . S
H112 C84 0.930 . S
H113 C85 0.930 . S
H114 C87 0.929 . S
H115 C88 0.929 . S
H116 C93 0.930 . S
H117 C94 0.930 . S
H118 C96 0.929 . S
H119 C97 0.929 . S
P120 O131 1.482 1_545 S
P120 C134 1.811 1_545 S
P120 C140 1.810 . S
P120 C146 1.822 . S
H121 C135 0.941 . S
H122 C136 0.939 . S
H123 C138 0.940 . S
H124 C139 0.940 . S
H125 C141 0.939 . S
H126 C142 0.942 . S
H127 C144 0.940 . S
H128 C145 0.939 . S
H129 C147 0.941 . S
H130 C151 0.939 . S
O131 P120 1.482 1_565 S
H132 C148 0.939 . S
H133 C150 0.940 . S
C134 P120 1.811 1_565 S
C134 C135 1.389 . S
C134 C139 1.391 . S
C135 H121 0.941 . S
C135 C134 1.389 . S
C135 C136 1.397 . S
C136 H122 0.939 . S
C136 C135 1.397 . S
C136 C137 1.378 . S
C137 C136 1.378 . S
C137 C138 1.378 . S
C138 H123 0.940 . S
C138 C137 1.378 . S
C138 C139 1.396 . S
C139 H124 0.940 . S
C139 C134 1.391 . S
C139 C138 1.396 . S
C140 P120 1.810 . S
C140 C141 1.378 . S
C140 C145 1.400 . S
C141 H125 0.939 . S
C141 C140 1.378 . S
C141 C142 1.361 . S
C142 H126 0.942 . S
C142 C141 1.361 . S
C142 C143 1.369 . S
C143 C142 1.369 . S
C143 C144 1.404 . S
C144 H127 0.940 . S
C144 C143 1.404 . S
C144 C145 1.389 . S
C145 H128 0.939 . S
C145 C140 1.400 . S
C145 C144 1.389 . S
C146 P120 1.822 . S
C146 C147 1.391 1_545 S
C146 C151 1.391 . S
C147 H129 0.941 . S
C147 C146 1.391 1_565 S
C147 C148 1.396 . S
C148 H132 0.939 . S
C148 C147 1.396 . S
C148 C149 1.397 1_565 S
C149 C148 1.397 1_545 S
C149 C150 1.385 . S
C150 H133 0.940 . S
C150 C149 1.385 . S
C150 C151 1.388 . S
C151 H130 0.939 . S
C151 C146 1.391 . S
C151 C150 1.388 . S
P152 O163 1.490 . S
P152 C166 1.812 . S
P152 C172 1.803 . S
P152 C178 1.819 . S
H153 C167 0.941 . S
H154 C168 0.939 . S
H155 C170 0.940 . S
H156 C171 0.940 . S
H157 C173 0.939 . S
H158 C174 0.942 . S
H159 C176 0.940 . S
H160 C177 0.939 . S
H161 C179 0.941 . S
H162 C183 0.939 . S
O163 P152 1.490 . S
H164 C180 0.939 . S
H165 C182 0.940 . S
C166 P152 1.812 . S
C166 C167 1.389 . S
C166 C171 1.391 . S
C167 H153 0.941 . S
C167 C166 1.389 . S
C167 C168 1.397 . S
C168 H154 0.939 . S
C168 C167 1.397 . S
C168 C169 1.378 . S
C169 C168 1.378 . S
C169 C170 1.378 . S
C170 H155 0.940 . S
C170 C169 1.378 . S
C170 C171 1.396 . S
C171 H156 0.940 . S
C171 C166 1.391 . S
C171 C170 1.396 . S
C172 P152 1.803 . S
C172 C173 1.378 . S
C172 C177 1.400 . S
C173 H157 0.939 . S
C173 C172 1.378 . S
C173 C174 1.361 . S
C174 H158 0.942 . S
C174 C173 1.361 . S
C174 C175 1.369 . S
C175 C174 1.369 . S
C175 C176 1.404 . S
C176 H159 0.940 . S
C176 C175 1.404 . S
C176 C177 1.389 . S
C177 H160 0.939 . S
C177 C172 1.400 . S
C177 C176 1.389 . S
C178 P152 1.819 . S
C178 C179 1.391 . S
C178 C183 1.391 . S
C179 H161 0.941 . S
C179 C178 1.391 . S
C179 C180 1.396 . S
C180 H164 0.939 . S
C180 C179 1.396 . S
C180 C181 1.397 . S
C181 C180 1.397 . S
C181 C182 1.385 . S
C182 H165 0.940 . S
C182 C181 1.385 . S
C182 C183 1.388 . S
C183 H162 0.939 . S
C183 C178 1.391 . S
C183 C182 1.388 . S
P184 O195 1.490 . S
P184 C198 1.812 . S
P184 C204 1.803 . S
P184 C210 1.819 . S
H185 C199 0.941 . S
H186 C200 0.939 . S
H187 C202 0.940 . S
H188 C203 0.940 . S
H189 C205 0.939 . S
H190 C206 0.942 . S
H191 C208 0.940 . S
H192 C209 0.939 . S
H193 C211 0.941 . S
H194 C215 0.951 . S
O195 P184 1.490 . S
H196 C212 0.939 . S
H197 C214 0.940 1_655 S
C198 P184 1.812 . S
C198 C199 1.389 . S
C198 C203 1.391 . S
C199 H185 0.941 . S
C199 C198 1.389 . S
C199 C200 1.397 . S
C200 H186 0.939 . S
C200 C199 1.397 . S
C200 C201 1.378 . S
C201 C200 1.378 . S
C201 C202 1.378 . S
C202 H187 0.940 . S
C202 C201 1.378 . S
C202 C203 1.396 . S
C203 H188 0.940 . S
C203 C198 1.391 . S
C203 C202 1.396 . S
C204 P184 1.803 . S
C204 C205 1.378 . S
C204 C209 1.400 . S
C205 H189 0.939 . S
C205 C204 1.378 . S
C205 C206 1.361 1_455 S
C206 H190 0.942 . S
C206 C205 1.361 1_655 S
C206 C207 1.369 . S
C207 C206 1.369 . S
C207 C208 1.404 . S
C208 H191 0.940 . S
C208 C207 1.404 . S
C208 C209 1.389 1_655 S
C209 H192 0.939 . S
C209 C204 1.400 . S
C209 C208 1.389 1_455 S
C210 P184 1.819 . S
C210 C211 1.391 . S
C210 C215 1.391 . S
C211 H193 0.941 . S
C211 C210 1.391 . S
C211 C212 1.396 . S
C212 H196 0.939 . S
C212 C211 1.396 . S
C212 C213 1.397 . S
C213 C212 1.397 . S
C213 C214 1.385 . S
C214 H197 0.940 1_455 S
C214 C213 1.385 . S
C214 C215 1.388 . S
C215 H194 0.951 . S
C215 C210 1.391 . S
C215 C214 1.388 . S
P216 O227 1.490 . S
P216 C230 1.812 . S
P216 C236 1.803 1_455 S
P216 C242 1.819 . S
H217 C231 0.941 . S
H218 C232 0.939 . S
H219 C234 0.940 . S
H220 C235 0.940 . S
H221 C237 0.939 . S
H222 C238 0.942 . S
H223 C240 0.940 . S
H224 C241 0.939 . S
H225 C243 0.941 . S
H226 C247 0.939 . S
O227 P216 1.490 . S
H228 C244 0.939 . S
H229 C246 0.940 . S
C230 P216 1.812 . S
C230 C231 1.389 . S
C230 C235 1.391 . S
C231 H217 0.941 . S
C231 C230 1.389 . S
C231 C232 1.397 . S
C232 H218 0.939 . S
C232 C231 1.397 . S
C232 C233 1.378 . S
C233 C232 1.378 . S
C233 C234 1.378 . S
C234 H219 0.940 . S
C234 C233 1.378 . S
C234 C235 1.396 . S
C235 H220 0.940 . S
C235 C230 1.391 . S
C235 C234 1.396 . S
C236 P216 1.803 1_655 S
C236 C237 1.378 . S
C236 C241 1.400 . S
C237 H221 0.939 . S
C237 C236 1.378 . S
C237 C238 1.361 . S
C238 H222 0.942 . S
C238 C237 1.361 . S
C238 C239 1.369 . S
C239 C238 1.369 . S
C239 C240 1.404 . S
C240 H223 0.940 . S
C240 C239 1.404 . S
C240 C241 1.389 . S
C241 H224 0.939 . S
C241 C236 1.400 . S
C241 C240 1.389 . S
C242 P216 1.819 . S
C242 C243 1.391 . S
C242 C247 1.391 1_455 S
C243 H225 0.941 . S
C243 C242 1.391 . S
C243 C244 1.396 . S
C244 H228 0.939 . S
C244 C243 1.396 . S
C244 C245 1.397 . S
C245 C244 1.397 . S
C245 C246 1.385 1_455 S
C246 H229 0.940 . S
C246 C245 1.385 1_655 S
C246 C247 1.388 . S
C247 H226 0.939 . S
C247 C242 1.391 1_655 S
C247 C246 1.388 . S
P248 O259 1.490 . S
P248 C262 1.812 . S
P248 C268 1.803 1_545 S
P248 C274 1.819 . S
H249 C263 0.941 . S
H250 C264 0.939 . S
H251 C266 0.940 . S
H252 C267 0.940 . S
H253 C269 0.939 . S
H254 C270 0.942 . S
H255 C272 0.940 . S
H256 C273 0.939 . S
H257 C275 0.941 . S
H258 C279 0.939 . S
O259 P248 1.490 . S
H260 C276 0.939 . S
H261 C278 0.940 . S
C262 P248 1.812 . S
C262 C263 1.389 . S
C262 C267 1.391 . S
C263 H249 0.941 . S
C263 C262 1.389 . S
C263 C264 1.397 . S
C264 H250 0.939 . S
C264 C263 1.397 . S
C264 C265 1.378 . S
C265 C264 1.378 . S
C265 C266 1.378 . S
C266 H251 0.940 . S
C266 C265 1.378 . S
C266 C267 1.396 . S
C267 H252 0.940 . S
C267 C262 1.391 . S
C267 C266 1.396 . S
C268 P248 1.803 1_565 S
C268 C269 1.378 . S
C268 C273 1.400 . S
C269 H253 0.939 . S
C269 C268 1.378 . S
C269 C270 1.361 . S
C270 H254 0.942 . S
C270 C269 1.361 . S
C270 C271 1.369 . S
C271 C270 1.369 . S
C271 C272 1.404 . S
C272 H255 0.940 . S
C272 C271 1.404 . S
C272 C273 1.389 . S
C273 H256 0.939 . S
C273 C268 1.400 . S
C273 C272 1.389 . S
C274 P248 1.819 . S
C274 C275 1.391 . S
C274 C279 1.391 1_545 S
C275 H257 0.941 . S
C275 C274 1.391 . S
C275 C276 1.396 . S
C276 H260 0.939 . S
C276 C275 1.396 . S
C276 C277 1.397 . S
C277 C276 1.397 . S
C277 C278 1.385 1_545 S
C278 H261 0.940 . S
C278 C277 1.385 1_565 S
C278 C279 1.388 . S
C279 H258 0.939 . S
C279 C274 1.391 1_565 S
C279 C278 1.388 . S
P280 O291 1.490 . S
P280 C294 1.812 . S
P280 C300 1.803 . S
P280 C306 1.819 . S
H281 C295 0.941 . S
H282 C296 0.939 . S
H283 C298 0.940 . S
H284 C299 0.940 . S
H285 C301 0.939 . S
H286 C302 0.942 . S
H287 C304 0.940 . S
H288 C305 0.939 . S
H289 C307 0.941 . S
H290 C311 0.939 . S
O291 P280 1.490 . S
H292 C308 0.939 . S
H293 C310 0.940 . S
C294 P280 1.812 . S
C294 C295 1.389 . S
C294 C299 1.391 . S
C295 H281 0.941 . S
C295 C294 1.389 . S
C295 C296 1.397 . S
C296 H282 0.939 . S
C296 C295 1.397 . S
C296 C297 1.378 . S
C297 C296 1.378 . S
C297 C298 1.378 . S
C298 H283 0.940 . S
C298 C297 1.378 . S
C298 C299 1.396 . S
C299 H284 0.940 . S
C299 C294 1.391 . S
C299 C298 1.396 . S
C300 P280 1.803 . S
C300 C301 1.378 . S
C300 C305 1.400 . S
C301 H285 0.939 . S
C301 C300 1.378 . S
C301 C302 1.361 . S
C302 H286 0.942 . S
C302 C301 1.361 . S
C302 C303 1.369 . S
C303 C302 1.369 . S
C303 C304 1.404 . S
C304 H287 0.940 . S
C304 C303 1.404 . S
C304 C305 1.389 . S
C305 H288 0.939 . S
C305 C300 1.400 . S
C305 C304 1.389 . S
C306 P280 1.819 . S
C306 C307 1.391 . S
C306 C311 1.391 . S
C307 H289 0.941 . S
C307 C306 1.391 . S
C307 C308 1.396 . S
C308 H292 0.939 . S
C308 C307 1.396 . S
C308 C309 1.397 . S
C309 C308 1.397 . S
C309 C310 1.385 . S
C310 H293 0.940 . S
C310 C309 1.385 . S
C310 C311 1.388 . S
C311 H290 0.939 . S
C311 C306 1.391 . S
C311 C310 1.388 . S
H312 C318 0.930 . S
H313 C322 0.930 . S
H314 C327 0.929 . S
H315 C325 0.929 . S
H316 C320 0.929 . S
H317 C326 0.929 . S
C318 H312 0.930 . S
C318 C319 1.367 . S
C318 C326 1.378 . S
C319 C318 1.367 . S
C319 C327 1.433 . S
C320 H316 0.929 . S
C320 C322 1.378 . S
C320 C324 1.350 . S
C321 C324 1.463 . S
C321 C326 1.350 . S
C321 N329 1.427 . S
C322 H313 0.930 . S
C322 C320 1.378 . S
C322 C323 1.367 . S
C323 C322 1.367 . S
C323 C325 1.433 . S
C324 C320 1.350 . S
C324 C321 1.463 . S
C324 N328 1.427 . S
C325 H315 0.929 . S
C325 C323 1.433 . S
C325 N328 1.384 . S
C326 H317 0.929 . S
C326 C318 1.378 . S
C326 C321 1.350 . S
C327 H314 0.929 . S
C327 C319 1.433 . S
C327 N329 1.384 . S
N328 C324 1.427 . S
N328 C325 1.384 . S
N329 C321 1.427 . S
N329 C327 1.384 . S
H330 C336 0.930 . S
H331 C340 0.930 . S
H332 C345 0.929 . S
H333 C343 0.929 . S
H334 C338 0.929 . S
H335 C344 0.929 . S
C336 H330 0.930 . S
C336 C337 1.367 . S
C336 C344 1.378 . S
C337 C336 1.367 . S
C337 C345 1.433 . S
C338 H334 0.929 . S
C338 C340 1.378 . S
C338 C342 1.350 . S
C339 C342 1.463 . S
C339 C344 1.350 . S
C339 N347 1.427 . S
C340 H331 0.930 . S
C340 C338 1.378 . S
C340 C341 1.367 . S
C341 C340 1.367 . S
C341 C343 1.433 . S
C342 C338 1.350 . S
C342 C339 1.463 . S
C342 N346 1.427 . S
C343 H333 0.929 . S
C343 C341 1.433 . S
C343 N346 1.384 . S
C344 H335 0.929 . S
C344 C336 1.378 . S
C344 C339 1.350 . S
C345 H332 0.929 . S
C345 C337 1.433 . S
C345 N347 1.384 . S
N346 C342 1.427 . S
N346 C343 1.384 . S
N347 C339 1.427 . S
N347 C345 1.384 . S
H348 C354 0.930 . S
H349 C358 0.930 . S
H350 C363 0.929 . S
H351 C361 0.929 . S
H352 C356 0.929 . S
H353 C362 0.929 . S
C354 H348 0.930 . S
C354 C355 1.367 . S
C354 C362 1.378 . S
C355 C354 1.367 . S
C355 C363 1.433 . S
C356 H352 0.929 . S
C356 C358 1.378 . S
C356 C360 1.350 . S
C357 C360 1.463 . S
C357 C362 1.350 . S
C357 N365 1.427 . S
C358 H349 0.930 . S
C358 C356 1.378 . S
C358 C359 1.367 . S
C359 C358 1.367 . S
C359 C361 1.433 . S
C360 C356 1.350 . S
C360 C357 1.463 . S
C360 N364 1.427 . S
C361 H351 0.929 . S
C361 C359 1.433 . S
C361 N364 1.384 . S
C362 H353 0.929 . S
C362 C354 1.378 . S
C362 C357 1.350 . S
C363 H350 0.929 . S
C363 C355 1.433 . S
C363 N365 1.384 . S
N364 C360 1.427 . S
N364 C361 1.384 . S
N365 C357 1.427 . S
N365 C363 1.384 . S
H366 C372 0.930 . S
H367 C376 0.930 . S
H368 C381 0.929 . S
H369 C379 0.929 . S
H370 C374 0.929 . S
H371 C380 0.929 . S
C372 H366 0.930 . S
C372 C373 1.367 . S
C372 C380 1.378 . S
C373 C372 1.367 . S
C373 C381 1.433 . S
C374 H370 0.929 . S
C374 C376 1.378 . S
C374 C378 1.350 . S
C375 C378 1.463 . S
C375 C380 1.350 . S
C375 N383 1.427 . S
C376 H367 0.930 . S
C376 C374 1.378 . S
C376 C377 1.367 . S
C377 C376 1.367 . S
C377 C379 1.433 . S
C378 C374 1.350 . S
C378 C375 1.463 . S
C378 N382 1.427 . S
C379 H369 0.929 . S
C379 C377 1.433 . S
C379 N382 1.384 . S
C380 H371 0.929 . S
C380 C372 1.378 . S
C380 C375 1.350 . S
C381 H368 0.929 . S
C381 C373 1.433 . S
C381 N383 1.384 . S
N382 C378 1.427 . S
N382 C379 1.384 . S
N383 C375 1.427 . S
N383 C381 1.384 . S
H384 C390 0.930 . S
H385 C394 0.930 . S
H386 C399 0.929 . S
H387 C397 0.929 . S
H388 C392 0.929 . S
H389 C398 0.929 . S
C390 H384 0.930 . S
C390 C391 1.367 . S
C390 C398 1.378 . S
C391 C390 1.367 . S
C391 C399 1.433 . S
C392 H388 0.929 . S
C392 C394 1.378 . S
C392 C396 1.350 . S
C393 C396 1.463 . S
C393 C398 1.350 . S
C393 N401 1.427 . S
C394 H385 0.930 . S
C394 C392 1.378 . S
C394 C395 1.367 . S
C395 C394 1.367 . S
C395 C397 1.433 . S
C396 C392 1.350 . S
C396 C393 1.463 . S
C396 N400 1.427 . S
C397 H387 0.929 . S
C397 C395 1.433 . S
C397 N400 1.384 . S
C398 H389 0.929 . S
C398 C390 1.378 . S
C398 C393 1.350 . S
C399 H386 0.929 . S
C399 C391 1.433 . S
C399 N401 1.384 . S
N400 C396 1.427 . S
N400 C397 1.384 . S
N401 C393 1.427 . S
N401 C399 1.384 . S
H402 C408 0.930 . S
H403 C412 0.930 . S
H404 C417 0.929 . S
H405 C415 0.929 . S
H406 C410 0.929 . S
H407 C416 0.929 . S
C408 H402 0.930 . S
C408 C409 1.367 . S
C408 C416 1.378 . S
C409 C408 1.367 . S
C409 C417 1.433 . S
C410 H406 0.929 . S
C410 C412 1.378 . S
C410 C414 1.350 . S
C411 C414 1.463 . S
C411 C416 1.350 . S
C411 N419 1.427 . S
C412 H403 0.930 . S
C412 C410 1.378 . S
C412 C413 1.367 . S
C413 C412 1.367 . S
C413 C415 1.433 . S
C414 C410 1.350 . S
C414 C411 1.463 . S
C414 N418 1.427 . S
C415 H405 0.929 . S
C415 C413 1.433 . S
C415 N418 1.384 . S
C416 H407 0.929 . S
C416 C408 1.378 . S
C416 C411 1.350 . S
C417 H404 0.929 . S
C417 C409 1.433 . S
C417 N419 1.384 . S
N418 C414 1.427 . S
N418 C415 1.384 . S
N419 C411 1.427 . S
N419 C417 1.384 . S
H420 C426 0.930 . S
H421 C430 0.930 . S
H422 C435 0.929 . S
H423 C433 0.929 . S
H424 C428 0.929 . S
H425 C434 0.929 . S
C426 H420 0.930 . S
C426 C427 1.367 . S
C426 C434 1.378 . S
C427 C426 1.367 . S
C427 C435 1.433 . S
C428 H424 0.929 . S
C428 C430 1.378 . S
C428 C432 1.350 . S
C429 C432 1.463 . S
C429 C434 1.350 . S
C429 N437 1.427 . S
C430 H421 0.930 . S
C430 C428 1.378 . S
C430 C431 1.367 . S
C431 C430 1.367 . S
C431 C433 1.433 . S
C432 C428 1.350 . S
C432 C429 1.463 . S
C432 N436 1.427 . S
C433 H423 0.929 . S
C433 C431 1.433 . S
C433 N436 1.384 . S
C434 H425 0.929 . S
C434 C426 1.378 . S
C434 C429 1.350 . S
C435 H422 0.929 . S
C435 C427 1.433 . S
C435 N437 1.384 . S
N436 C432 1.427 . S
N436 C433 1.384 . S
N437 C429 1.427 . S
N437 C435 1.384 . S
H438 C444 0.930 . S
H439 C448 0.930 . S
H440 C453 0.929 . S
H441 C451 0.929 . S
H442 C446 0.929 . S
H443 C452 0.929 . S
C444 H438 0.930 . S
C444 C445 1.367 . S
C444 C452 1.378 . S
C445 C444 1.367 . S
C445 C453 1.433 . S
C446 H442 0.929 . S
C446 C448 1.378 . S
C446 C450 1.350 . S
C447 C450 1.463 . S
C447 C452 1.350 . S
C447 N455 1.427 . S
C448 H439 0.930 . S
C448 C446 1.378 . S
C448 C449 1.367 . S
C449 C448 1.367 . S
C449 C451 1.433 . S
C450 C446 1.350 . S
C450 C447 1.463 . S
C450 N454 1.427 . S
C451 H441 0.929 . S
C451 C449 1.433 . S
C451 N454 1.384 . S
C452 H443 0.929 . S
C452 C444 1.378 . S
C452 C447 1.350 . S
C453 H440 0.929 . S
C453 C445 1.433 . S
C453 N455 1.384 . S
N454 C450 1.427 . S
N454 C451 1.384 . S
N455 C447 1.427 . S
N455 C453 1.384 . S
H456 C462 0.930 . S
H457 C466 0.930 . S
H458 C471 0.929 . S
H459 C469 0.929 . S
H460 C464 0.929 . S
H461 C470 0.929 . S
C462 H456 0.930 . S
C462 C463 1.367 . S
C462 C470 1.378 . S
C463 C462 1.367 . S
C463 C471 1.433 . S
C464 H460 0.929 . S
C464 C466 1.378 . S
C464 C468 1.350 . S
C465 C468 1.463 . S
C465 C470 1.350 . S
C465 N473 1.427 . S
C466 H457 0.930 . S
C466 C464 1.378 . S
C466 C467 1.367 . S
C467 C466 1.367 . S
C467 C469 1.433 . S
C468 C464 1.350 . S
C468 C465 1.463 . S
C468 N472 1.427 . S
C469 H459 0.929 . S
C469 C467 1.433 . S
C469 N472 1.384 . S
C470 H461 0.929 . S
C470 C462 1.378 . S
C470 C465 1.350 . S
C471 H458 0.929 . S
C471 C463 1.433 . S
C471 N473 1.384 . S
N472 C468 1.427 . S
N472 C469 1.384 . S
N473 C465 1.427 . S
N473 C471 1.384 . S
H474 C480 0.930 . S
H475 C484 0.930 . S
H476 C489 0.929 . S
H477 C487 0.929 . S
H478 C482 0.929 . S
H479 C488 0.929 . S
C480 H474 0.930 . S
C480 C481 1.367 . S
C480 C488 1.378 . S
C481 C480 1.367 . S
C481 C489 1.433 . S
C482 H478 0.929 . S
C482 C484 1.378 . S
C482 C486 1.350 . S
C483 C486 1.463 . S
C483 C488 1.350 . S
C483 N491 1.427 . S
C484 H475 0.930 . S
C484 C482 1.378 . S
C484 C485 1.367 . S
C485 C484 1.367 . S
C485 C487 1.433 . S
C486 C482 1.350 . S
C486 C483 1.463 . S
C486 N490 1.427 . S
C487 H477 0.929 . S
C487 C485 1.433 . S
C487 N490 1.384 . S
C488 H479 0.929 . S
C488 C480 1.378 . S
C488 C483 1.350 . S
C489 H476 0.929 . S
C489 C481 1.433 . S
C489 N491 1.384 . S
N490 C486 1.427 . S
N490 C487 1.384 . S
N491 C483 1.427 . S
N491 C489 1.384 . S
H492 C498 0.930 . S
H493 C502 0.930 . S
H494 C507 0.929 . S
H495 C505 0.929 . S
H496 C500 0.929 . S
H497 C506 0.929 . S
C498 H492 0.930 . S
C498 C499 1.367 . S
C498 C506 1.378 . S
C499 C498 1.367 . S
C499 C507 1.433 . S
C500 H496 0.929 . S
C500 C502 1.378 . S
C500 C504 1.350 . S
C501 C504 1.463 . S
C501 C506 1.350 . S
C501 N509 1.427 . S
C502 H493 0.930 . S
C502 C500 1.378 . S
C502 C503 1.367 . S
C503 C502 1.367 . S
C503 C505 1.433 . S
C504 C500 1.350 . S
C504 C501 1.463 . S
C504 N508 1.427 . S
C505 H495 0.929 . S
C505 C503 1.433 . S
C505 N508 1.384 . S
C506 H497 0.929 . S
C506 C498 1.378 . S
C506 C501 1.350 . S
C507 H494 0.929 . S
C507 C499 1.433 . S
C507 N509 1.384 . S
N508 C504 1.427 . S
N508 C505 1.384 . S
N509 C501 1.427 . S
N509 C507 1.384 . S
H510 C516 0.930 . S
H511 C520 0.930 . S
H512 C525 0.929 . S
H513 C523 0.929 . S
H514 C518 0.929 . S
H515 C524 0.929 . S
C516 H510 0.930 . S
C516 C517 1.367 . S
C516 C524 1.378 . S
C517 C516 1.367 . S
C517 C525 1.433 . S
C518 H514 0.929 . S
C518 C520 1.378 . S
C518 C522 1.350 . S
C519 C522 1.463 . S
C519 C524 1.350 . S
C519 N527 1.427 . S
C520 H511 0.930 . S
C520 C518 1.378 . S
C520 C521 1.367 . S
C521 C520 1.367 . S
C521 C523 1.433 . S
C522 C518 1.350 . S
C522 C519 1.463 . S
C522 N526 1.427 . S
C523 H513 0.929 . S
C523 C521 1.433 . S
C523 N526 1.384 . S
C524 H515 0.929 . S
C524 C516 1.378 . S
C524 C519 1.350 . S
C525 H512 0.929 . S
C525 C517 1.433 . S
C525 N527 1.384 . S
N526 C522 1.427 . S
N526 C523 1.384 . S
N527 C519 1.427 . S
N527 C525 1.384 . S
H528 C534 0.930 . S
H529 C538 0.930 1_655 S
H530 C543 0.929 1_655 S
H531 C541 0.929 . S
H532 C536 0.929 1_655 S
H533 C542 0.929 . S
C534 H528 0.930 . S
C534 C535 1.367 . S
C534 C542 1.378 . S
C535 C534 1.367 . S
C535 C543 1.433 . S
C536 H532 0.929 1_455 S
C536 C538 1.378 1_554 S
C536 C540 1.350 . S
C537 C540 1.463 . S
C537 C542 1.350 . S
C537 N545 1.427 . S
C538 H529 0.930 1_455 S
C538 C536 1.378 1_556 S
C538 C539 1.367 . S
C539 C538 1.367 . S
C539 C541 1.433 . S
C540 C536 1.350 . S
C540 C537 1.463 . S
C540 N544 1.427 . S
C541 H531 0.929 . S
C541 C539 1.433 . S
C541 N544 1.384 1_556 S
C542 H533 0.929 . S
C542 C534 1.378 . S
C542 C537 1.350 . S
C543 H530 0.929 1_455 S
C543 C535 1.433 . S
C543 N545 1.384 . S
N544 C540 1.427 . S
N544 C541 1.384 1_554 S
N545 C537 1.427 . S
N545 C543 1.384 . S
H546 C552 0.930 . S
H547 C556 0.930 . S
H548 C561 0.929 . S
H549 C559 0.929 . S
H550 C554 0.929 . S
H551 C560 0.929 . S
C552 H546 0.930 . S
C552 C553 1.367 . S
C552 C560 1.378 . S
C553 C552 1.367 . S
C553 C561 1.433 1_545 S
C554 H550 0.929 . S
C554 C556 1.378 . S
C554 C558 1.350 1_565 S
C555 C558 1.463 . S
C555 C560 1.350 . S
C555 N563 1.427 1_545 S
C556 H547 0.930 . S
C556 C554 1.378 . S
C556 C557 1.367 1_565 S
C557 C556 1.367 1_545 S
C557 C559 1.433 . S
C558 C554 1.350 1_545 S
C558 C555 1.463 . S
C558 N562 1.427 . S
C559 H549 0.929 . S
C559 C557 1.433 . S
C559 N562 1.384 . S
C560 H551 0.929 . S
C560 C552 1.378 . S
C560 C555 1.350 . S
C561 H548 0.929 . S
C561 C553 1.433 1_565 S
C561 N563 1.384 . S
N562 C558 1.427 . S
N562 C559 1.384 . S
N563 C555 1.427 1_565 S
N563 C561 1.384 . S
H564 C570 0.930 . S
H565 C574 0.930 . S
H566 C579 0.929 . S
H567 C577 0.929 . S
H568 C572 0.929 . S
H569 C578 0.929 . S
C570 H564 0.930 . S
C570 C571 1.367 . S
C570 C578 1.378 . S
C571 C570 1.367 . S
C571 C579 1.433 . S
C572 H568 0.929 . S
C572 C574 1.378 . S
C572 C576 1.350 . S
C573 C576 1.463 . S
C573 C578 1.350 . S
C573 N581 1.427 . S
C574 H565 0.930 . S
C574 C572 1.378 . S
C574 C575 1.367 . S
C575 C574 1.367 . S
C575 C577 1.433 . S
C576 C572 1.350 . S
C576 C573 1.463 . S
C576 N580 1.427 . S
C577 H567 0.929 . S
C577 C575 1.433 . S
C577 N580 1.384 . S
C578 H569 0.929 . S
C578 C570 1.378 . S
C578 C573 1.350 . S
C579 H566 0.929 . S
C579 C571 1.433 . S
C579 N581 1.384 . S
N580 C576 1.427 . S
N580 C577 1.384 . S
N581 C573 1.427 . S
N581 C579 1.384 . S
H582 C588 0.930 . S
H583 C592 0.930 . S
H584 C597 0.929 . S
H585 C595 0.929 . S
H586 C590 0.929 . S
H587 C596 0.929 . S
C588 H582 0.930 . S
C588 C589 1.367 1_565 S
C588 C596 1.378 . S
C589 C588 1.367 1_545 S
C589 C597 1.433 . S
C590 H586 0.929 . S
C590 C592 1.378 . S
C590 C594 1.350 . S
C591 C594 1.463 . S
C591 C596 1.350 1_545 S
C591 N599 1.427 . S
C592 H583 0.930 . S
C592 C590 1.378 . S
C592 C593 1.390 . S
C593 C592 1.390 . S
C593 C595 1.411 1_545 S
C594 C590 1.350 . S
C594 C591 1.463 . S
C594 N598 1.427 1_545 S
C595 H585 0.929 . S
C595 C593 1.411 1_565 S
C595 N598 1.384 . S
C596 H587 0.929 . S
C596 C588 1.378 . S
C596 C591 1.350 1_565 S
C597 H584 0.929 . S
C597 C589 1.433 . S
C597 N599 1.384 . S
N598 C594 1.427 1_565 S
N598 C595 1.384 . S
N599 C591 1.427 . S
N599 C597 1.384 . S
H600 C606 0.930 . S
H601 C610 0.956 . S
H602 C615 0.929 . S
H603 C613 0.929 1_554 S
H604 C608 0.929 . S
H605 C614 0.929 . S
C606 H600 0.930 . S
C606 C607 1.367 . S
C606 C614 1.378 . S
C607 C606 1.367 . S
C607 C615 1.433 . S
C608 H604 0.929 . S
C608 C610 1.378 . S
C608 C612 1.350 . S
C609 C612 1.463 . S
C609 C614 1.350 . S
C609 N617 1.427 . S
C610 H601 0.956 . S
C610 C608 1.378 . S
C610 C611 1.367 1_556 S
C611 C610 1.367 1_554 S
C611 C613 1.433 1_554 S
C612 C608 1.350 . S
C612 C609 1.463 . S
C612 N616 1.427 . S
C613 H603 0.929 1_556 S
C613 C611 1.433 1_556 S
C613 N616 1.384 . S
C614 H605 0.929 . S
C614 C606 1.378 . S
C614 C609 1.350 . S
C615 H602 0.929 . S
C615 C607 1.433 . S
C615 N617 1.384 . S
N616 C612 1.427 . S
N616 C613 1.384 . S
N617 C609 1.427 . S
N617 C615 1.384 . S
H618 C624 0.930 . S
H619 C628 0.930 . S
H620 C633 0.929 . S
H621 C631 0.929 . S
H622 C626 0.929 . S
H623 C632 0.929 . S
C624 H618 0.930 . S
C624 C625 1.367 1_655 S
C624 C632 1.378 . S
C625 C624 1.367 1_455 S
C625 C633 1.433 . S
C626 H622 0.929 . S
C626 C628 1.378 . S
C626 C630 1.350 . S
C627 C630 1.463 . S
C627 C632 1.350 1_455 S
C627 N635 1.427 . S
C628 H619 0.930 . S
C628 C626 1.378 . S
C628 C629 1.367 . S
C629 C628 1.367 . S
C629 C631 1.433 1_455 S
C630 C626 1.350 . S
C630 C627 1.463 . S
C630 N634 1.427 1_455 S
C631 H621 0.929 . S
C631 C629 1.433 1_655 S
C631 N634 1.384 . S
C632 H623 0.929 . S
C632 C624 1.378 . S
C632 C627 1.350 1_655 S
C633 H620 0.929 . S
C633 C625 1.433 . S
C633 N635 1.384 . S
N634 C630 1.427 1_655 S
N634 C631 1.384 . S
N635 C627 1.427 . S
N635 C633 1.384 . S
C319 C6 0.587 . S
C323 C303 0.517 . S
C337 C59 1.892 . S
C341 C239 1.837 . S
C355 C86 1.237 . S
C359 C271 1.223 . S
C373 C15 0.479 . S
C377 C297 0.437 . S
C395 C233 1.899 . S
C391 C50 1.945 . S
C413 C265 1.281 . S
C409 C95 1.274 . S
C427 C46 1.218 . S
C431 C175 1.215 . S
C445 C99 3.066 . S
C449 C207 3.005 . S
C463 C10 1.965 . S
C467 C137 1.939 . S
C485 C169 1.269 . S
C481 C55 1.260 . S
C503 C201 2.989 . S
C499 C90 2.998 . S
C517 C19 1.890 . S
C521 C143 1.855 . S
C539 C213 1.749 . S
C535 C18 1.706 . S
C553 C49 1.327 . S
C557 C149 1.352 . S
C571 C98 1.459 . S
C575 C181 1.483 . S
C593 C277 1.448 . S
C589 C58 1.446 . S
C611 C309 1.079 . S
C607 C89 1.066 . S
C625 C9 1.321 . S
C629 C245 1.338 . S
