# Generated by pormake.
# Topology anh, (6,3)-cn, num edge types: 1
# Building blocks:
#     Node 0, Type 0, BuildingBlock: BETFEN_clean_sbu_0, # of connection points: 6
#     Node 1, Type 0, BuildingBlock: BETFEN_clean_sbu_0, # of connection points: 6
#     Node 2, Type 0, BuildingBlock: BETFEN_clean_sbu_0, # of connection points: 6
#     Node 3, Type 1, BuildingBlock: MIDCAF_clean_linker_0, # of connection points: 3
#     Node 4, Type 1, BuildingBlock: MIDCAF_clean_linker_0, # of connection points: 3
#     Node 5, Type 1, BuildingBlock: MIDCAF_clean_linker_0, # of connection points: 3
#     Node 6, Type 1, BuildingBlock: MIDCAF_clean_linker_0, # of connection points: 3
#     Node 7, Type 1, BuildingBlock: MIDCAF_clean_linker_0, # of connection points: 3
#     Node 8, Type 1, BuildingBlock: MIDCAF_clean_linker_0, # of connection points: 3
#     Edge 9, Type (0, 1), BuildingBlock: XIVTED_clean_linker_0, # of connection points: 2
#     Edge 10, Type (0, 1), BuildingBlock: XIVTED_clean_linker_0, # of connection points: 2
#     Edge 11, Type (0, 1), BuildingBlock: XIVTED_clean_linker_0, # of connection points: 2
#     Edge 12, Type (0, 1), BuildingBlock: XIVTED_clean_linker_0, # of connection points: 2
#     Edge 13, Type (0, 1), BuildingBlock: XIVTED_clean_linker_0, # of connection points: 2
#     Edge 14, Type (0, 1), BuildingBlock: XIVTED_clean_linker_0, # of connection points: 2
#     Edge 15, Type (0, 1), BuildingBlock: XIVTED_clean_linker_0, # of connection points: 2
#     Edge 16, Type (0, 1), BuildingBlock: XIVTED_clean_linker_0, # of connection points: 2
#     Edge 17, Type (0, 1), BuildingBlock: XIVTED_clean_linker_0, # of connection points: 2
#     Edge 18, Type (0, 1), BuildingBlock: XIVTED_clean_linker_0, # of connection points: 2
#     Edge 19, Type (0, 1), BuildingBlock: XIVTED_clean_linker_0, # of connection points: 2
#     Edge 20, Type (0, 1), BuildingBlock: XIVTED_clean_linker_0, # of connection points: 2
#     Edge 21, Type (0, 1), BuildingBlock: XIVTED_clean_linker_0, # of connection points: 2
#     Edge 22, Type (0, 1), BuildingBlock: XIVTED_clean_linker_0, # of connection points: 2
#     Edge 23, Type (0, 1), BuildingBlock: XIVTED_clean_linker_0, # of connection points: 2
#     Edge 24, Type (0, 1), BuildingBlock: XIVTED_clean_linker_0, # of connection points: 2
#     Edge 25, Type (0, 1), BuildingBlock: XIVTED_clean_linker_0, # of connection points: 2
#     Edge 26, Type (0, 1), BuildingBlock: XIVTED_clean_linker_0, # of connection points: 2
# Relax obj value: 0.184
# Max RMSD: 0.208
# Mean RMSD: 0.156
data_MOF--net-anh--node1-BETFEN_clean_sbu_0--node2-MIDCAF_clean_linker_0--edge1-XIVTED_clean_linker_0
_symmetry_space_group_name_H-M    P1
_symmetry_Int_Tables_number       1
_symmetry_cell_setting            triclinic
loop_
_symmetry_equiv_pos_as_xyz
'x, y, z'
_cell_length_a     36.046123
_cell_length_b     38.070708
_cell_length_c     66.945942
_cell_angle_alpha  90.351959
_cell_angle_beta   92.277777
_cell_angle_gamma 107.28239
loop_
_atom_site_label
_atom_site_type_symbol
_atom_site_fract_x
_atom_site_fract_y
_atom_site_fract_z
_atom_type_partial_charge
Pr0 Pr 0.02488 0.52275 0.14987 0.0
Pr1 Pr 0.04785 0.6032 0.14222 0.0
C2 C 0.99267 0.45364 0.1625 0.0
C3 C 0.95379 0.4269 0.16479 0.0
C4 C 0.93843 0.39884 0.15035 0.0
C5 C 0.90243 0.37265 0.15276 0.0
C6 C 0.88106 0.37372 0.16975 0.0
C7 C 0.89637 0.40193 0.18415 0.0
C8 C 0.93232 0.42817 0.18172 0.0
C9 C 0.03582 0.53988 0.10971 0.0
C10 C 0.95547 0.56395 0.14203 0.0
C11 C 0.08166 0.67278 0.13086 0.0
C12 C 0.11761 0.70086 0.13769 0.0
C13 C 0.13877 0.69451 0.1546 0.0
C14 C 0.17221 0.72151 0.16169 0.0
C15 C 0.18524 0.75529 0.15193 0.0
C16 C 0.16445 0.7612 0.13467 0.0
C17 C 0.13074 0.73416 0.12764 0.0
C18 C 0.03867 0.58652 0.18258 0.0
C19 C 0.1178 0.56164 0.14812 0.0
O20 O 1.003 0.48246 0.17453 0.0
O21 O 1.00401 0.46116 0.1443 0.0
O22 O 1.01756 0.55444 0.12128 0.0
O23 O 0.04889 0.51553 0.11866 0.0
O24 O 0.98206 0.59064 0.13367 0.0
O25 O 0.96526 0.53721 0.15131 0.0
O26 O 0.08624 0.64407 0.12164 0.0
O27 O 0.05444 0.66408 0.14386 0.0
O28 O 0.05579 0.57143 0.17068 0.0
O29 O 0.02708 0.61201 0.17397 0.0
O30 O 0.09179 0.5328 0.1552 0.0
O31 O 0.10739 0.58964 0.14083 0.0
H32 H 0.95439 0.39693 0.13721 0.0
H33 H 0.89135 0.35154 0.14128 0.0
H34 H 0.88106 0.40323 0.1976 0.0
H35 H 0.94346 0.44913 0.19326 0.0
H36 H 0.12916 0.66876 0.16243 0.0
H37 H 0.18793 0.71591 0.17482 0.0
H38 H 0.17368 0.78703 0.12692 0.0
H39 H 0.11474 0.7394 0.11453 0.0
Pr40 Pr 0.58261 0.06211 0.51784 0.0
Pr41 Pr 0.49616 0.03828 0.52119 0.0
C42 C 0.65682 0.09233 0.50744 0.0
C43 C 0.68591 0.12818 0.50448 0.0
C44 C 0.72548 0.13081 0.50638 0.0
C45 C 0.75378 0.16392 0.5026 0.0
C46 C 0.74306 0.19517 0.4968 0.0
C47 C 0.70325 0.19266 0.49541 0.0
C48 C 0.67491 0.15943 0.49921 0.0
C49 C 0.5582 0.05007 0.55675 0.0
C50 C 0.53717 0.12944 0.52175 0.0
C51 C 0.42152 1.00588 0.5302 0.0
C52 C 0.39203 0.97019 0.52608 0.0
C53 C 0.35316 0.96566 0.5303 0.0
C54 C 0.32449 0.93253 0.52544 0.0
C55 C 0.33422 0.90326 0.51625 0.0
C56 C 0.37346 0.90778 0.51237 0.0
C57 C 0.40207 0.94099 0.51718 0.0
C58 C 0.51963 0.04935 0.48211 0.0
C59 C 0.54235 0.97089 0.51906 0.0
O60 O 0.62724 0.08246 0.4945 0.0
O61 O 0.64731 0.08356 0.52579 0.0
O62 O 0.54446 0.06715 0.54377 0.0
O63 O 0.58651 0.03935 0.55008 0.0
O64 O 0.5062 0.10268 0.52709 0.0
O65 O 0.56827 0.12056 0.51591 0.0
O66 O 0.45117 1.00564 0.54208 0.0
O67 O 0.43152 1.02697 0.51479 0.0
O68 O 0.53406 0.03266 0.49506 0.0
O69 O 0.4915 0.05993 0.48899 0.0
O70 O 0.57422 0.99747 0.5147 0.0
O71 O 0.51032 0.9798 0.52313 0.0
H72 H 0.73453 0.10704 0.51055 0.0
H73 H 0.78411 0.16499 0.50418 0.0
H74 H 0.69392 0.21604 0.49083 0.0
H75 H 0.64445 0.15798 0.49771 0.0
H76 H 0.34489 0.98793 0.53715 0.0
H77 H 0.29467 0.92984 0.52886 0.0
H78 H 0.38193 0.88604 0.50509 0.0
H79 H 0.43193 0.9441 0.51365 0.0
Pr80 Pr 0.5241 0.5264 0.81223 0.0
Pr81 Pr 0.5542 0.60466 0.82679 0.0
C82 C 0.5127 0.45966 0.7956 0.0
C83 C 0.52812 0.42927 0.80155 0.0
C84 C 0.50293 0.39748 0.80951 0.0
C85 C 0.5176 0.37091 0.81819 0.0
C86 C 0.55773 0.37536 0.81885 0.0
C87 C 0.58288 0.40632 0.81011 0.0
C88 C 0.56823 0.43322 0.80163 0.0
C89 C 0.52389 0.53419 0.8536 0.0
C90 C 0.62096 0.56476 0.8216 0.0
C91 C 0.56141 0.66752 0.84699 0.0
C92 C 0.53176 0.68537 0.85175 0.0
C93 C 0.50312 0.68683 0.83723 0.0
C94 C 0.473 0.70079 0.84211 0.0
C95 C 0.47043 0.7132 0.86169 0.0
C96 C 0.499 0.71142 0.87629 0.0
C97 C 0.52941 0.69757 0.87133 0.0
C98 C 0.55471 0.59622 0.78542 0.0
C99 C 0.45847 0.56723 0.81709 0.0
O100 O 0.53735 0.48929 0.78875 0.0
O101 O 0.48869 0.46692 0.80799 0.0
O102 O 0.55121 0.55112 0.84286 0.0
O103 O 0.49619 0.51105 0.84316 0.0
O104 O 0.61375 0.59301 0.83033 0.0
O105 O 0.5927 0.53813 0.81264 0.0
O106 O 0.55781 0.63629 0.85587 0.0
O107 O 0.56968 0.66673 0.82815 0.0
O108 O 0.52711 0.57961 0.79613 0.0
O109 O 0.58268 0.61945 0.79585 0.0
O110 O 0.46678 0.54209 0.80598 0.0
O111 O 0.486 0.59068 0.82822 0.0
H112 H 0.47193 0.39372 0.8096 0.0
H113 H 0.49749 0.34677 0.82437 0.0
H114 H 0.6139 0.41015 0.81029 0.0
H115 H 0.58844 0.45747 0.79564 0.0
H116 H 0.50372 0.67687 0.82209 0.0
H117 H 0.45214 0.70249 0.83034 0.0
H118 H 0.4978 0.72058 0.89152 0.0
H119 H 0.5508 0.69594 0.88284 0.0
C120 C 0.43621 0.93959 0.22928 0.0
C121 C 0.42353 0.9451 0.20975 0.0
C122 C 0.44418 0.97676 0.19966 0.0
C123 C 0.47598 1.00285 0.20916 0.0
H124 H 0.58475 0.08793 0.2001 0.0
H125 H 0.63095 0.13855 0.18346 0.0
H126 H 0.66177 0.19752 0.23994 0.0
H127 H 0.61585 0.14753 0.25648 0.0
H128 H 0.59054 0.10826 0.29618 0.0
H129 H 0.5931 0.10815 0.3326 0.0
H130 H 0.52094 0.99505 0.33144 0.0
H131 H 0.51827 0.99493 0.29496 0.0
H132 H 0.47617 0.9606 0.25396 0.0
H133 H 0.42164 0.9151 0.23733 0.0
H134 H 0.43507 0.982 0.18465 0.0
H135 H 0.49062 1.02736 0.20116 0.0
N136 N 0.54284 0.05525 0.22994 0.0
N137 N 0.5739 0.08077 0.26041 0.0
N138 N 0.52331 1.02551 0.26007 0.0
C139 C 0.57043 0.08237 0.24018 0.0
C140 C 0.55061 0.05243 0.27047 0.0
C141 C 0.5191 1.0267 0.23984 0.0
C142 C 0.5967 0.11354 0.22965 0.0
C143 C 0.60114 0.11185 0.20891 0.0
C144 C 0.62771 0.14073 0.1994 0.0
C145 C 0.64992 0.17203 0.21039 0.0
C146 C 0.64475 0.17401 0.231 0.0
C147 C 0.6186 0.14512 0.24051 0.0
C148 C 0.55398 0.05166 0.2926 0.0
C149 C 0.57545 0.08322 0.30363 0.0
C150 C 0.57681 0.08326 0.32451 0.0
C151 C 0.55713 0.05164 0.33484 0.0
C152 C 0.53665 1.01973 0.32386 0.0
C153 C 0.53491 1.01979 0.30296 0.0
C154 C 0.48766 0.99789 0.22899 0.0
C155 C 0.46772 0.96566 0.23879 0.0
C156 C 0.50984 0.41321 0.54108 0.0
C157 C 0.53547 0.40357 0.52809 0.0
C158 C 0.56025 0.43358 0.51773 0.0
C159 C 0.55993 0.47089 0.52066 0.0
H160 H 0.60528 0.64654 0.53759 0.0
H161 H 0.6044 0.70963 0.53239 0.0
H162 H 0.48145 0.66998 0.51726 0.0
H163 H 0.48274 0.6067 0.52294 0.0
H164 H 0.56089 0.61921 0.5944 0.0
H165 H 0.56391 0.625 0.63066 0.0
H166 H 0.53866 0.50722 0.6353 0.0
H167 H 0.53514 0.50118 0.59891 0.0
H168 H 0.4904 0.45535 0.55489 0.0
H169 H 0.49055 0.39235 0.54984 0.0
H170 H 0.58049 0.42845 0.50741 0.0
H171 H 0.58071 0.49264 0.51306 0.0
N172 N 0.54033 0.55029 0.53051 0.0
N173 N 0.54625 0.58594 0.56019 0.0
N174 N 0.54174 0.52353 0.56222 0.0
C175 C 0.54359 0.58404 0.53993 0.0
C176 C 0.5453 0.55627 0.57143 0.0
C177 C 0.53951 0.51949 0.54197 0.0
C178 C 0.54452 0.62032 0.52979 0.0
C179 C 0.57826 0.65095 0.53227 0.0
C180 C 0.57757 0.68781 0.52946 0.0
C181 C 0.5428 0.69655 0.52435 0.0
C182 C 0.50909 0.6657 0.52136 0.0
C183 C 0.50991 0.62871 0.52413 0.0
C184 C 0.54773 0.55969 0.59362 0.0
C185 C 0.55597 0.59445 0.60308 0.0
C186 C 0.55797 0.59785 0.62392 0.0
C187 C 0.55161 0.5666 0.6359 0.0
C188 C 0.54335 0.53182 0.6265 0.0
C189 C 0.54157 0.5284 0.60562 0.0
C190 C 0.53482 0.48014 0.53412 0.0
C191 C 0.50969 0.45011 0.54402 0.0
C192 C 0.89883 0.52646 0.85349 0.0
C193 C 0.89506 0.55121 0.83862 0.0
C194 C 0.92914 0.57472 0.83078 0.0
C195 C 0.96609 0.57429 0.83819 0.0
H196 H 0.08973 0.54323 0.82802 0.0
H197 H 0.15361 0.54771 0.81465 0.0
H198 H 0.20957 0.59798 0.87033 0.0
H199 H 0.14692 0.59396 0.88339 0.0
H200 H 0.08992 0.53574 0.92174 0.0
H201 H 0.0897 0.53466 0.95802 0.0
H202 H 0.99297 0.5802 0.95647 0.0
H203 H 0.99181 0.57885 0.92013 0.0
H204 H 0.93721 0.50821 0.87319 0.0
H205 H 0.87334 0.50824 0.86002 0.0
H206 H 0.92721 0.59398 0.81924 0.0
H207 H 0.9918 0.59361 0.83247 0.0
N208 N 0.0412 0.55952 0.85524 0.0
N209 N 0.07428 0.56187 0.88649 0.0
N210 N 1.00749 0.55403 0.88506 0.0
C211 C 0.07502 0.563 0.86621 0.0
C212 C 0.04082 0.55756 0.89601 0.0
C213 C 1.0072 0.55481 0.86478 0.0
C214 C 0.11305 0.56811 0.8568 0.0
C215 C 0.11578 0.55567 0.83723 0.0
C216 C 0.15234 0.55796 0.82965 0.0
C217 C 0.18685 0.57332 0.84138 0.0
C218 C 0.18385 0.58649 0.86071 0.0
C219 C 0.14766 0.58388 0.86829 0.0
C220 C 0.04082 0.55726 0.91809 0.0
C221 C 0.06857 0.54541 0.9292 0.0
C222 C 0.06859 0.54512 0.95007 0.0
C223 C 0.04143 0.55752 0.96042 0.0
C224 C 1.01388 0.5697 0.94919 0.0
C225 C 1.01331 0.56917 0.92829 0.0
C226 C 0.96952 0.55088 0.85384 0.0
C227 C 0.9355 0.52653 0.86109 0.0
C228 C 0.12216 0.67903 0.44072 0.0
C229 C 0.1337 0.67636 0.46079 0.0
C230 C 0.12024 0.64224 0.47022 0.0
C231 C 0.09579 0.61146 0.45972 0.0
H232 H 0.99576 0.51176 0.46454 0.0
H233 H 0.95252 0.45662 0.47919 0.0
H234 H 0.94007 0.39947 0.42226 0.0
H235 H 0.98313 0.45388 0.40772 0.0
H236 H 1.00865 0.49732 0.3685 0.0
H237 H 1.00747 0.5012 0.33209 0.0
H238 H 0.06927 0.61716 0.33696 0.0
H239 H 0.07033 0.61356 0.37322 0.0
H240 H 0.09038 0.65158 0.41469 0.0
H241 H 0.13237 0.70476 0.43293 0.0
H242 H 0.12851 0.6394 0.48572 0.0
H243 H 0.08612 0.58549 0.46731 0.0
N244 N 0.03926 0.55061 0.4367 0.0
N245 N 1.01823 0.52267 0.40517 0.0
N246 N 0.06069 0.58252 0.4074 0.0
C247 C 1.01771 0.52103 0.42546 0.0
C248 C 0.03959 0.55329 0.39602 0.0
C249 C 0.06093 0.58151 0.42768 0.0
C250 C 0.99298 0.48739 0.43493 0.0
C251 C 0.98402 0.48734 0.4552 0.0
C252 C 0.95904 0.45584 0.46357 0.0
C253 C 0.9429 0.42362 0.45191 0.0
C254 C 0.95236 0.42362 0.43175 0.0
C255 C 0.97693 0.45504 0.42337 0.0
C256 C 0.03946 0.55515 0.37387 0.0
C257 C 0.02202 0.52366 0.36183 0.0
C258 C 0.02153 0.52579 0.34096 0.0
C259 C 0.03813 0.55951 0.33167 0.0
C260 C 0.05579 0.59088 0.34368 0.0
C261 C 0.05658 0.58872 0.3645 0.0
C262 C 0.08487 0.6141 0.4395 0.0
C263 C 0.09824 0.64835 0.43021 0.0
C264 C 0.55216 0.12869 0.80339 0.0
C265 C 0.54951 0.13135 0.82422 0.0
C266 C 0.52533 0.10129 0.83418 0.0
C267 C 0.50225 0.07044 0.82338 0.0
H268 H 0.39404 0.98596 0.82541 0.0
H269 H 0.36357 0.93389 0.84618 0.0
H270 H 0.36525 0.85951 0.79737 0.0
H271 H 0.39417 0.91155 0.77648 0.0
H272 H 0.43182 0.95112 0.73294 0.0
H273 H 0.44113 0.95255 0.69678 0.0
H274 H 0.48723 0.07095 0.70027 0.0
H275 H 0.47833 0.06964 0.73608 0.0
H276 H 0.5311 0.09767 0.77652 0.0
H277 H 0.56992 0.15142 0.79509 0.0
H278 H 0.52298 0.10225 0.85024 0.0
H279 H 0.48286 0.04837 0.83143 0.0
N280 N 0.44906 1.01129 0.79974 0.0
N281 N 0.42601 0.98233 0.76865 0.0
N282 N 0.47678 0.03778 0.77039 0.0
C283 C 0.42405 0.98323 0.78892 0.0
C284 C 0.45211 1.00998 0.75932 0.0
C285 C 0.47573 0.03851 0.7906 0.0
C286 C 0.39746 0.95269 0.79953 0.0
C287 C 0.38685 0.95845 0.81897 0.0
C288 C 0.36936 0.92862 0.83087 0.0
C289 C 0.36285 0.89245 0.82367 0.0
C290 C 0.36962 0.88692 0.80347 0.0
C291 C 0.38659 0.91681 0.79147 0.0
C292 C 0.45452 1.01024 0.73734 0.0
C293 C 0.44353 0.97741 0.7259 0.0
C294 C 0.44903 0.97819 0.70528 0.0
C295 C 0.46481 1.01187 0.69578 0.0
C296 C 0.47464 0.04465 0.70717 0.0
C297 C 0.46979 0.04383 0.72771 0.0
C298 C 0.50305 0.06903 0.8024 0.0
C299 C 0.5293 0.09792 0.79264 0.0
C300 C 0.67378 0.58794 0.10742 0.0
C301 C 0.67827 0.56803 0.12447 0.0
C302 C 0.64459 0.54801 0.13414 0.0
C303 C 0.60733 0.54748 0.12661 0.0
H304 H 0.47279 0.5376 0.13561 0.0
H305 H 0.41086 0.53859 0.14967 0.0
H306 H 0.38234 0.58877 0.09588 0.0
H307 H 0.44299 0.58777 0.08204 0.0
H308 H 0.4689 0.55676 0.04149 0.0
H309 H 0.46813 0.55548 0.00508 0.0
H310 H 0.5888 0.55792 0.00724 0.0
H311 H 0.58995 0.55989 0.04355 0.0
H312 H 0.63488 0.60203 0.08634 0.0
H313 H 0.69878 0.60321 0.09935 0.0
H314 H 0.64704 0.5325 0.14738 0.0
H315 H 0.58185 0.53111 0.13395 0.0
N316 N 0.53227 0.56164 0.10861 0.0
N317 N 0.49816 0.55924 0.07761 0.0
N318 N 0.5634 0.56114 0.0784 0.0
C319 C 0.49867 0.56042 0.09793 0.0
C320 C 0.53023 0.55933 0.06772 0.0
C321 C 0.56494 0.56229 0.09869 0.0
C322 C 0.46289 0.56247 0.10767 0.0
C323 C 0.45334 0.54909 0.12694 0.0
C324 C 0.41783 0.54944 0.13491 0.0
C325 C 0.39173 0.56393 0.12392 0.0
C326 C 0.40185 0.57784 0.10488 0.0
C327 C 0.43669 0.57699 0.09687 0.0
C328 C 0.52947 0.5584 0.04553 0.0
C329 C 0.49532 0.55706 0.03423 0.0
C330 C 0.4948 0.55616 0.01334 0.0
C331 C 0.52841 0.55661 0.00324 0.0
C332 C 0.56255 0.55807 0.01453 0.0
C333 C 0.56309 0.55894 0.0354 0.0
C334 C 0.60323 0.5664 0.10908 0.0
C335 C 0.63695 0.58705 0.09985 0.0
H336 H 0.17958 0.61997 0.13884 0.0
H337 H 0.33669 0.5083 0.14208 0.0
H338 H 0.15138 0.50642 0.15629 0.0
H339 H 0.35952 0.62049 0.12312 0.0
H340 H 0.27078 0.50796 0.15056 0.0
H341 H 0.24705 0.62138 0.13596 0.0
C342 C 0.18754 0.59526 0.14214 0.0
C343 C 0.15947 0.56291 0.14768 0.0
C344 C 0.29037 0.53273 0.1447 0.0
C345 C 0.23744 0.56435 0.14432 0.0
C346 C 0.32808 0.53302 0.14 0.0
C347 C 0.3536 0.56436 0.1317 0.0
C348 C 0.27817 0.56408 0.14118 0.0
C349 C 0.34071 0.59551 0.12918 0.0
C350 C 0.22627 0.59612 0.1405 0.0
C351 C 0.17192 0.53195 0.15193 0.0
N352 N 0.30402 0.59449 0.13378 0.0
N353 N 0.20991 0.53335 0.15003 0.0
H354 H 0.74644 0.26704 0.50541 0.0
H355 H 0.94139 0.35189 0.44642 0.0
H356 H 0.80873 0.20209 0.47597 0.0
H357 H 0.88245 0.4189 0.47663 0.0
H358 H 0.89385 0.29685 0.45823 0.0
H359 H 0.79621 0.32303 0.49585 0.0
C360 C 0.77049 0.26451 0.49692 0.0
C361 C 0.77333 0.22968 0.49154 0.0
C362 C 0.8913 0.32354 0.46237 0.0
C363 C 0.83061 0.29372 0.48067 0.0
C364 C 0.91842 0.35503 0.45556 0.0
C365 C 0.91578 0.39012 0.4604 0.0
C366 C 0.86102 0.32695 0.47409 0.0
C367 C 0.88574 0.39243 0.47262 0.0
C368 C 0.79903 0.2965 0.49157 0.0
C369 C 0.8055 0.2282 0.48074 0.0
N370 N 0.85938 0.36128 0.47893 0.0
N371 N 0.8327 0.25965 0.47564 0.0
H372 H 0.47743 0.77384 0.88556 0.0
H373 H 0.31944 0.81957 0.81824 0.0
H374 H 0.39396 0.69335 0.84783 0.0
H375 H 0.39545 0.89459 0.86145 0.0
H376 H 0.33124 0.76816 0.83634 0.0
H377 H 0.43378 0.81166 0.88518 0.0
C378 C 0.44946 0.76355 0.87762 0.0
C379 C 0.44009 0.73102 0.86604 0.0
C380 C 0.3444 0.79584 0.8422 0.0
C381 C 0.39042 0.775 0.86495 0.0
C382 C 0.33774 0.82524 0.83182 0.0
C383 C 0.35766 0.86159 0.83783 0.0
C384 C 0.37153 0.80298 0.85852 0.0
C385 C 0.3799 0.86719 0.85594 0.0
C386 C 0.42451 0.78536 0.87731 0.0
C387 C 0.40319 0.71912 0.85621 0.0
N388 N 0.38708 0.83827 0.86531 0.0
N389 N 0.38016 0.7416 0.8554 0.0
H390 H 0.9274 0.61972 0.12952 0.0
H391 H 0.70217 0.509 0.13723 0.0
H392 H 0.88949 0.50963 0.15242 0.0
H393 H 0.74565 0.62543 0.1266 0.0
H394 H 0.76942 0.5076 0.1433 0.0
H395 H 0.86023 0.62097 0.1279 0.0
C396 C 0.90495 0.59571 0.13419 0.0
C397 C 0.91429 0.56447 0.14106 0.0
C398 C 0.76414 0.53348 0.13981 0.0
C399 C 0.83663 0.56573 0.13923 0.0
C400 C 0.72572 0.53437 0.13649 0.0
C401 C 0.71812 0.56731 0.13115 0.0
C402 C 0.79519 0.56574 0.13769 0.0
C403 C 0.74998 0.59923 0.13025 0.0
C404 C 0.86646 0.59651 0.13335 0.0
C405 C 0.88372 0.53431 0.14702 0.0
N406 N 0.78691 0.59756 0.13328 0.0
N407 N 0.84624 0.5356 0.14586 0.0
H408 H 0.33622 0.83171 0.51909 0.0
H409 H 0.13027 0.7472 0.46064 0.0
H410 H 0.26196 0.8961 0.49907 0.0
H411 H 0.19831 0.68029 0.48499 0.0
H412 H 0.17764 0.80176 0.47555 0.0
H413 H 0.28595 0.7758 0.50742 0.0
C414 C 0.30937 0.83412 0.51225 0.0
C415 C 0.3034 0.86876 0.51005 0.0
C416 C 0.18218 0.77517 0.47777 0.0
C417 C 0.24561 0.80477 0.49673 0.0
C418 C 0.15517 0.74399 0.4692 0.0
C419 C 0.16046 0.70913 0.47145 0.0
C420 C 0.21505 0.77168 0.4886 0.0
C421 C 0.19297 0.70659 0.48296 0.0
C422 C 0.28058 0.80215 0.5057 0.0
C423 C 0.26776 0.87006 0.50131 0.0
N424 N 0.21921 0.73748 0.49096 0.0
N425 N 0.2404 0.83864 0.4949 0.0
H426 H 0.54165 0.34383 0.85527 0.0
H427 H 0.51687 0.16263 0.8529 0.0
H428 H 0.60768 0.34191 0.80319 0.0
H429 H 0.61991 0.18347 0.81864 0.0
H430 H 0.53265 0.22747 0.86046 0.0
H431 H 0.55501 0.28787 0.86678 0.0
C432 C 0.55924 0.33165 0.84635 0.0
C433 C 0.5725 0.34662 0.82794 0.0
C434 C 0.55291 0.21813 0.85196 0.0
C435 C 0.58653 0.28193 0.84049 0.0
C436 C 0.54382 0.18064 0.84763 0.0
C437 C 0.56636 0.1676 0.83451 0.0
C438 C 0.58455 0.24283 0.84289 0.0
C439 C 0.60085 0.19254 0.82817 0.0
C440 C 0.56666 0.29959 0.85285 0.0
C441 C 0.59632 0.33076 0.8173 0.0
N442 N 0.60823 0.22914 0.83188 0.0
N443 N 0.60185 0.29874 0.82351 0.0
H444 H 0.60275 0.94071 0.51209 0.0
H445 H 0.48121 0.72675 0.53018 0.0
H446 H 0.48232 0.90668 0.52697 0.0
H447 H 0.60191 0.76151 0.51546 0.0
H448 H 0.48073 0.79103 0.52861 0.0
H449 H 0.60265 0.87604 0.51304 0.0
C450 C 0.57612 0.91987 0.51555 0.0
C451 C 0.54249 0.93029 0.51943 0.0
C452 C 0.50739 0.78471 0.5257 0.0
C453 C 0.54221 0.85416 0.52057 0.0
C454 C 0.50772 0.74742 0.52645 0.0
C455 C 0.54169 0.73712 0.52297 0.0
C456 C 0.54126 0.81322 0.52138 0.0
C457 C 0.57487 0.76682 0.5186 0.0
C458 C 0.57613 0.88251 0.5161 0.0
C459 C 0.50916 0.90091 0.52383 0.0
N460 N 0.57373 0.80273 0.51794 0.0
N461 N 0.50993 0.86485 0.52426 0.0
H462 H 0.64631 0.50528 0.81276 0.0
H463 H 0.87239 0.61354 0.83395 0.0
H464 H 0.68844 0.61934 0.83163 0.0
H465 H 0.82764 0.49519 0.83022 0.0
H466 H 0.80613 0.6173 0.8281 0.0
H467 H 0.7133 0.50221 0.81456 0.0
C468 C 0.6696 0.52975 0.81717 0.0
C469 C 0.66156 0.56259 0.82212 0.0
C470 C 0.81084 0.59051 0.82843 0.0
C471 C 0.73854 0.5593 0.8241 0.0
C472 C 0.84874 0.58835 0.83157 0.0
C473 C 0.85567 0.55399 0.83264 0.0
C474 C 0.77952 0.55809 0.82614 0.0
C475 C 0.82367 0.52226 0.82972 0.0
C476 C 0.70787 0.52794 0.81825 0.0
C477 C 0.6931 0.59335 0.8278 0.0
N478 N 0.78708 0.52507 0.82664 0.0
N479 N 0.73008 0.59096 0.82861 0.0
H480 H 0.20285 0.77745 0.19091 0.0
H481 H 0.41019 0.92023 0.17055 0.0
H482 H 0.24615 0.79961 0.13169 0.0
H483 H 0.35582 0.90921 0.22743 0.0
H484 H 0.35167 0.87536 0.15588 0.0
H485 H 0.26034 0.82431 0.20453 0.0
C486 C 0.22459 0.79211 0.18077 0.0
C487 C 0.21981 0.78446 0.16014 0.0
C488 C 0.35261 0.88285 0.17157 0.0
C489 C 0.28579 0.83848 0.17564 0.0
C490 C 0.38595 0.90857 0.17994 0.0
C491 C 0.38816 0.91835 0.20032 0.0
C492 C 0.32131 0.86673 0.18367 0.0
C493 C 0.3559 0.90201 0.21177 0.0
C494 C 0.25733 0.81906 0.18854 0.0
C495 C 0.24861 0.8048 0.14768 0.0
N496 N 0.32398 0.87699 0.20332 0.0
N497 N 0.28052 0.83078 0.15563 0.0
H498 H 0.47804 0.15896 0.53208 0.0
H499 H 0.59643 0.37513 0.51754 0.0
H500 H 0.59586 0.19435 0.51301 0.0
H501 H 0.47676 0.33683 0.5339 0.0
H502 H 0.5973 0.31076 0.5157 0.0
H503 H 0.4779 0.22352 0.53305 0.0
C504 C 0.50405 0.18008 0.52808 0.0
C505 C 0.53702 0.17006 0.52245 0.0
C506 C 0.5708 0.31638 0.51971 0.0
C507 C 0.53702 0.24616 0.52357 0.0
C508 C 0.57011 0.35363 0.52066 0.0
C509 C 0.53651 0.36302 0.52605 0.0
C510 C 0.53765 0.28706 0.52412 0.0
C511 C 0.50391 0.33244 0.53007 0.0
C512 C 0.50391 0.21739 0.52863 0.0
C513 C 0.56955 0.19982 0.51747 0.0
N514 N 0.5054 0.2967 0.52906 0.0
N515 N 0.5687 0.23588 0.51816 0.0
H516 H 0.39083 0.51875 0.8007 0.0
H517 H 0.25478 0.62978 0.84608 0.0
H518 H 0.43309 0.61981 0.83531 0.0
H519 H 0.20873 0.52051 0.82034 0.0
H520 H 0.32007 0.62938 0.83816 0.0
H521 H 0.32405 0.52147 0.80398 0.0
C522 C 0.38619 0.54165 0.80884 0.0
C523 C 0.41781 0.56907 0.81777 0.0
C524 C 0.29575 0.6055 0.83413 0.0
C525 C 0.34141 0.57237 0.82152 0.0
C526 C 0.25834 0.60567 0.83868 0.0
C527 C 0.22606 0.57492 0.83414 0.0
C528 C 0.30133 0.57433 0.82489 0.0
C529 C 0.23264 0.54487 0.82411 0.0
C530 C 0.34802 0.54313 0.81073 0.0
C531 C 0.40985 0.59801 0.82817 0.0
N532 N 0.26952 0.54519 0.81997 0.0
N533 N 0.37263 0.59885 0.82976 0.0
H534 H 0.81451 0.38188 0.18516 0.0
H535 H 0.70348 0.16569 0.18375 0.0
H536 H 0.86224 0.29958 0.16151 0.0
H537 H 0.6647 0.24645 0.21543 0.0
H538 H 0.757 0.21527 0.17109 0.0
H539 H 0.75518 0.33336 0.1924 0.0
C540 C 0.81255 0.35363 0.18147 0.0
C541 C 0.84366 0.34484 0.17287 0.0
C542 C 0.7366 0.22216 0.18069 0.0
C543 C 0.7755 0.28913 0.18092 0.0
C544 C 0.70588 0.19389 0.18779 0.0
C545 C 0.67979 0.20194 0.2008 0.0
C546 C 0.74118 0.25876 0.18657 0.0
C547 C 0.68452 0.23898 0.2057 0.0
C548 C 0.77855 0.32595 0.18552 0.0
C549 C 0.83899 0.30777 0.168 0.0
N550 N 0.71473 0.26598 0.19867 0.0
N551 N 0.80569 0.28129 0.17221 0.0
H552 H 0.98852 0.56763 0.0857 0.0
H553 H 0.10433 0.56876 0.98718 0.0
H554 H 0.08714 0.5256 0.08453 0.0
H555 H 0.97939 0.54667 0.98504 0.0
H556 H 0.10371 0.56616 0.02357 0.0
H557 H 0.99031 0.57404 0.04919 0.0
C558 C 1.0107 0.56006 0.07776 0.0
C559 C 0.0376 0.54586 0.08801 0.0
C560 C 0.07653 0.562 0.01504 0.0
C561 C 0.04013 0.55363 0.04661 0.0
C562 C 0.0767 0.56317 0.99422 0.0
C563 C 0.04178 0.55757 0.98276 0.0
C564 C 0.04137 0.55603 0.02461 0.0
C565 C 1.00718 0.5517 0.99305 0.0
C566 C 1.01158 0.56355 0.057 0.0
C567 C 0.06573 0.53639 0.0771 0.0
N568 N 1.00789 0.55121 0.01336 0.0
N569 N 0.06643 0.54063 0.05696 0.0
H570 H 0.49947 0.0926 0.45428 0.0
H571 H 0.56805 1.00052 0.36137 0.0
H572 H 0.56149 1.01222 0.46177 0.0
H573 H 0.54358 0.10468 0.35853 0.0
H574 H 0.56268 1.00152 0.3978 0.0
H575 H 0.51226 0.09492 0.4187 0.0
C576 C 0.51591 0.07551 0.4484 0.0
C577 C 0.5293 0.05206 0.46089 0.0
C578 C 0.55884 1.02428 0.38919 0.0
C579 C 0.54376 0.0543 0.42017 0.0
C580 C 0.56168 1.02362 0.36844 0.0
C581 C 0.55623 0.05256 0.35695 0.0
C582 C 0.54984 0.05377 0.39843 0.0
C583 C 0.54834 0.08197 0.36684 0.0
C584 C 0.52332 0.07693 0.42811 0.0
C585 C 0.55065 1.03064 0.45257 0.0
N586 N 0.54504 0.08166 0.38697 0.0
N587 N 0.55691 1.03198 0.43263 0.0
H588 H 0.50002 0.54681 0.76166 0.0
H589 H 0.60436 0.61819 0.65977 0.0
H590 H 0.60839 0.63372 0.75937 0.0
H591 H 0.50271 0.52378 0.66264 0.0
H592 H 0.6055 0.62516 0.69613 0.0
H593 H 0.49969 0.5387 0.72534 0.0
C594 C 0.52372 0.56423 0.75349 0.0
C595 C 0.55421 0.59109 0.7635 0.0
C596 C 0.58299 0.60285 0.68883 0.0
C597 C 0.55407 0.58197 0.72194 0.0
C598 C 0.58219 0.59897 0.66804 0.0
C599 C 0.55332 0.57041 0.6581 0.0
C600 C 0.55457 0.57814 0.69983 0.0
C601 C 0.52572 0.54599 0.66967 0.0
C602 C 0.52357 0.55954 0.73276 0.0
C603 C 0.58427 0.61276 0.75222 0.0
N604 N 0.52693 0.55051 0.68988 0.0
N605 N 0.5834 0.6078 0.73204 0.0
H606 H 0.57825 1.00713 0.58525 0.0
H607 H 0.44696 0.05661 0.66768 0.0
H608 H 0.50257 0.07439 0.57361 0.0
H609 H 0.50197 0.97096 0.67516 0.0
H610 H 0.46743 0.06379 0.63319 0.0
H611 H 0.55174 0.99415 0.61847 0.0
C612 C 0.55609 1.01918 0.58972 0.0
C613 C 0.54273 0.04205 0.57679 0.0
C614 C 0.47473 0.04316 0.64229 0.0
C615 C 0.51229 1.02734 0.61462 0.0
C616 C 0.4631 0.03911 0.66196 0.0
C617 C 0.47294 1.01326 0.67426 0.0
C618 C 0.49682 1.02152 0.63492 0.0
C619 C 0.49361 0.99106 0.66611 0.0
C620 C 0.54084 1.01163 0.60861 0.0
C621 C 0.5138 0.05677 0.58321 0.0
N622 N 0.50525 0.99596 0.64698 0.0
N623 N 0.49969 0.04933 0.60172 0.0
H624 H 0.4671 0.4993 0.87841 0.0
H625 H 0.58451 0.59484 0.9783 0.0
H626 H 0.58124 0.57823 0.87858 0.0
H627 H 0.47096 0.51464 0.97753 0.0
H628 H 0.58362 0.59021 0.94184 0.0
H629 H 0.46765 0.50573 0.91474 0.0
C630 C 0.49232 0.51799 0.88613 0.0
C631 C 0.52423 0.53818 0.87553 0.0
C632 C 0.55887 0.57368 0.94964 0.0
C633 C 0.52509 0.54578 0.91713 0.0
C634 C 0.55943 0.57617 0.97048 0.0
C635 C 0.52779 0.55502 0.98103 0.0
C636 C 0.52647 0.54982 0.93924 0.0
C637 C 0.49581 0.53178 0.97004 0.0
C638 C 0.49261 0.52169 0.90688 0.0
C639 C 0.55608 0.56212 0.88624 0.0
N640 N 0.49603 0.52974 0.94978 0.0
N641 N 0.55574 0.56523 0.90648 0.0
H642 H 0.06252 0.53528 0.204 0.0
H643 H 0.02015 0.61264 0.30944 0.0
H644 H 1.01159 0.62369 0.21055 0.0
H645 H 0.05242 0.51276 0.30353 0.0
H646 H 1.01922 0.61801 0.27315 0.0
H647 H 0.06106 0.52709 0.24035 0.0
C648 C 0.051 0.5529 0.21309 0.0
C649 C 0.03731 0.58031 0.20432 0.0
C650 C 0.02642 0.59483 0.27974 0.0
C651 C 0.03568 0.57125 0.24576 0.0
C652 C 0.02719 0.59188 0.30049 0.0
C653 C 0.03657 0.56231 0.30954 0.0
C654 C 0.03537 0.56816 0.26786 0.0
C655 C 0.04479 0.53588 0.29716 0.0
C656 C 0.05011 0.54819 0.2338 0.0
C657 C 0.02255 0.60231 0.21672 0.0
N658 N 0.04422 0.53953 0.27694 0.0
N659 N 0.0223 0.59741 0.23679 0.0
loop_
_geom_bond_atom_site_label_1
_geom_bond_atom_site_label_2
_geom_bond_distance
_geom_bond_site_symmetry_2
_ccdc_geom_bond_type
Pr0 C2 2.880 . S
Pr0 O20 2.562 . S
Pr0 O21 2.490 . S
Pr0 O22 2.695 1_655 S
Pr0 O23 2.512 . S
Pr0 O25 2.437 . S
Pr0 O28 2.436 . S
Pr0 O30 2.438 1_655 S
Pr1 C11 2.880 . S
Pr1 O22 2.436 . S
Pr1 O24 2.438 1_455 S
Pr1 O26 2.562 . S
Pr1 O27 2.490 . S
Pr1 O28 2.695 1_455 S
Pr1 O29 2.512 . S
Pr1 O31 2.437 . S
C2 Pr0 2.880 . S
C2 C3 1.491 . S
C2 O20 1.254 . S
C2 O21 1.225 . S
C3 C2 1.491 . S
C3 C4 1.392 . S
C3 C8 1.356 . S
C4 C3 1.392 . S
C4 C5 1.368 . S
C4 H32 0.929 . S
C5 C4 1.368 . S
C5 C6 1.386 . S
C5 H33 0.929 . S
C6 C5 1.386 . S
C6 C7 1.373 . S
C7 C6 1.373 . S
C7 C8 1.409 . S
C7 H34 0.931 . S
C8 C3 1.356 . S
C8 C7 1.409 . S
C8 H35 0.930 . S
C9 O22 1.270 . S
C9 O23 1.248 1_455 S
C10 O24 1.267 . S
C10 O25 1.278 . S
C11 Pr1 2.880 . S
C11 C12 1.491 . S
C11 O26 1.254 . S
C11 O27 1.225 . S
C12 C11 1.491 . S
C12 C13 1.392 . S
C12 C17 1.356 . S
C13 C12 1.392 . S
C13 C14 1.368 . S
C13 H36 0.929 . S
C14 C13 1.368 . S
C14 C15 1.386 . S
C14 H37 0.929 . S
C15 C14 1.386 . S
C15 C16 1.373 . S
C16 C15 1.373 . S
C16 C17 1.409 . S
C16 H38 0.931 . S
C17 C12 1.356 . S
C17 C16 1.409 . S
C17 H39 0.930 . S
C18 O28 1.270 1_455 S
C18 O29 1.248 . S
C19 O30 1.267 . S
C19 O31 1.278 . S
O20 Pr0 2.562 . S
O20 C2 1.254 . S
O21 Pr0 2.490 . S
O21 C2 1.225 . S
O22 Pr0 2.695 1_455 S
O22 Pr1 2.436 . S
O22 C9 1.270 . S
O23 Pr0 2.512 . S
O23 C9 1.248 1_655 S
O24 Pr1 2.438 1_655 S
O24 C10 1.267 . S
O25 Pr0 2.437 . S
O25 C10 1.278 . S
O26 Pr1 2.562 . S
O26 C11 1.254 . S
O27 Pr1 2.490 . S
O27 C11 1.225 . S
O28 Pr0 2.436 . S
O28 Pr1 2.695 1_655 S
O28 C18 1.270 1_655 S
O29 Pr1 2.512 . S
O29 C18 1.248 . S
O30 Pr0 2.438 1_455 S
O30 C19 1.267 . S
O31 Pr1 2.437 . S
O31 C19 1.278 . S
H32 C4 0.929 . S
H33 C5 0.929 . S
H34 C7 0.931 . S
H35 C8 0.930 . S
H36 C13 0.929 . S
H37 C14 0.929 . S
H38 C16 0.931 . S
H39 C17 0.930 . S
Pr40 C42 2.880 . S
Pr40 O60 2.562 . S
Pr40 O61 2.490 . S
Pr40 O62 2.695 . S
Pr40 O63 2.512 . S
Pr40 O65 2.437 . S
Pr40 O68 2.436 . S
Pr40 O70 2.438 1_545 S
Pr41 C51 2.880 . S
Pr41 O62 2.436 1_565 S
Pr41 O64 2.438 1_565 S
Pr41 O66 2.562 . S
Pr41 O67 2.490 . S
Pr41 O68 2.695 1_565 S
Pr41 O69 2.512 . S
Pr41 O71 2.437 . S
C42 Pr40 2.880 . S
C42 C43 1.491 . S
C42 O60 1.254 . S
C42 O61 1.225 . S
C43 C42 1.491 . S
C43 C44 1.392 . S
C43 C48 1.356 . S
C44 C43 1.392 . S
C44 C45 1.368 . S
C44 H72 0.929 . S
C45 C44 1.368 . S
C45 C46 1.386 . S
C45 H73 0.929 . S
C46 C45 1.386 . S
C46 C47 1.373 . S
C47 C46 1.373 . S
C47 C48 1.409 . S
C47 H74 0.931 . S
C48 C43 1.356 . S
C48 C47 1.409 . S
C48 H75 0.930 . S
C49 O62 1.270 . S
C49 O63 1.248 . S
C50 O64 1.267 . S
C50 O65 1.278 . S
C51 Pr41 2.880 . S
C51 C52 1.491 . S
C51 O66 1.254 . S
C51 O67 1.225 . S
C52 C51 1.491 . S
C52 C53 1.392 . S
C52 C57 1.356 . S
C53 C52 1.392 . S
C53 C54 1.368 . S
C53 H76 0.929 . S
C54 C53 1.368 . S
C54 C55 1.386 . S
C54 H77 0.929 . S
C55 C54 1.386 . S
C55 C56 1.373 . S
C56 C55 1.373 . S
C56 C57 1.409 . S
C56 H78 0.931 . S
C57 C52 1.356 . S
C57 C56 1.409 . S
C57 H79 0.930 . S
C58 O68 1.270 . S
C58 O69 1.248 1_545 S
C59 O70 1.267 . S
C59 O71 1.278 . S
O60 Pr40 2.562 . S
O60 C42 1.254 . S
O61 Pr40 2.490 . S
O61 C42 1.225 . S
O62 Pr40 2.695 . S
O62 Pr41 2.436 1_545 S
O62 C49 1.270 . S
O63 Pr40 2.512 . S
O63 C49 1.248 . S
O64 Pr41 2.438 1_545 S
O64 C50 1.267 . S
O65 Pr40 2.437 . S
O65 C50 1.278 . S
O66 Pr41 2.562 . S
O66 C51 1.254 . S
O67 Pr41 2.490 . S
O67 C51 1.225 . S
O68 Pr40 2.436 . S
O68 Pr41 2.695 1_545 S
O68 C58 1.270 . S
O69 Pr41 2.512 . S
O69 C58 1.248 1_565 S
O70 Pr40 2.438 1_565 S
O70 C59 1.267 . S
O71 Pr41 2.437 . S
O71 C59 1.278 . S
H72 C44 0.929 . S
H73 C45 0.929 . S
H74 C47 0.931 . S
H75 C48 0.930 . S
H76 C53 0.929 . S
H77 C54 0.929 . S
H78 C56 0.931 . S
H79 C57 0.930 . S
Pr80 C82 2.880 . S
Pr80 O100 2.562 . S
Pr80 O101 2.490 . S
Pr80 O102 2.695 . S
Pr80 O103 2.512 . S
Pr80 O105 2.437 . S
Pr80 O108 2.436 . S
Pr80 O110 2.438 . S
Pr81 C91 2.880 . S
Pr81 O102 2.436 . S
Pr81 O104 2.438 . S
Pr81 O106 2.562 . S
Pr81 O107 2.490 . S
Pr81 O108 2.695 . S
Pr81 O109 2.512 . S
Pr81 O111 2.437 . S
C82 Pr80 2.880 . S
C82 C83 1.491 . S
C82 O100 1.254 . S
C82 O101 1.225 . S
C83 C82 1.491 . S
C83 C84 1.392 . S
C83 C88 1.356 . S
C84 C83 1.392 . S
C84 C85 1.368 . S
C84 H112 0.929 . S
C85 C84 1.368 . S
C85 C86 1.386 . S
C85 H113 0.929 . S
C86 C85 1.386 . S
C86 C87 1.373 . S
C87 C86 1.373 . S
C87 C88 1.409 . S
C87 H114 0.931 . S
C88 C83 1.356 . S
C88 C87 1.409 . S
C88 H115 0.930 . S
C89 O102 1.270 . S
C89 O103 1.248 . S
C90 O104 1.267 . S
C90 O105 1.278 . S
C91 Pr81 2.880 . S
C91 C92 1.491 . S
C91 O106 1.254 . S
C91 O107 1.225 . S
C92 C91 1.491 . S
C92 C93 1.392 . S
C92 C97 1.356 . S
C93 C92 1.392 . S
C93 C94 1.368 . S
C93 H116 0.929 . S
C94 C93 1.368 . S
C94 C95 1.386 . S
C94 H117 0.929 . S
C95 C94 1.386 . S
C95 C96 1.373 . S
C96 C95 1.373 . S
C96 C97 1.409 . S
C96 H118 0.931 . S
C97 C92 1.356 . S
C97 C96 1.409 . S
C97 H119 0.930 . S
C98 O108 1.270 . S
C98 O109 1.248 . S
C99 O110 1.267 . S
C99 O111 1.278 . S
O100 Pr80 2.562 . S
O100 C82 1.254 . S
O101 Pr80 2.490 . S
O101 C82 1.225 . S
O102 Pr80 2.695 . S
O102 Pr81 2.436 . S
O102 C89 1.270 . S
O103 Pr80 2.512 . S
O103 C89 1.248 . S
O104 Pr81 2.438 . S
O104 C90 1.267 . S
O105 Pr80 2.437 . S
O105 C90 1.278 . S
O106 Pr81 2.562 . S
O106 C91 1.254 . S
O107 Pr81 2.490 . S
O107 C91 1.225 . S
O108 Pr80 2.436 . S
O108 Pr81 2.695 . S
O108 C98 1.270 . S
O109 Pr81 2.512 . S
O109 C98 1.248 . S
O110 Pr80 2.438 . S
O110 C99 1.267 . S
O111 Pr81 2.437 . S
O111 C99 1.278 . S
H112 C84 0.929 . S
H113 C85 0.929 . S
H114 C87 0.931 . S
H115 C88 0.930 . S
H116 C93 0.929 . S
H117 C94 0.929 . S
H118 C96 0.931 . S
H119 C97 0.930 . S
C120 C121 1.384 . S
C120 H133 0.947 . S
C120 C155 1.382 . S
C121 C120 1.384 . S
C121 C122 1.378 . S
C122 C121 1.378 . S
C122 C123 1.378 . S
C122 H134 0.952 . S
C123 C122 1.378 . S
C123 H135 0.950 . S
C123 C154 1.383 . S
H124 C143 0.947 . S
H125 C144 0.946 . S
H126 C146 0.953 . S
H127 C147 0.945 . S
H128 C149 0.952 . S
H129 C150 0.949 . S
H130 C152 0.950 . S
H131 C153 0.948 . S
H132 C155 0.951 . S
H133 C120 0.947 . S
H134 C122 0.952 . S
H135 C123 0.950 . S
N136 C139 1.382 . S
N136 C141 1.363 1_545 S
N137 C139 1.371 . S
N137 C140 1.372 . S
N138 C140 1.360 . S
N138 C141 1.377 1_545 S
C139 N136 1.382 . S
C139 N137 1.371 . S
C139 C142 1.480 . S
C140 N137 1.372 . S
C140 N138 1.360 . S
C140 C148 1.457 . S
C141 N136 1.363 1_565 S
C141 N138 1.377 1_565 S
C141 C154 1.479 . S
C142 C139 1.480 . S
C142 C143 1.383 . S
C142 C147 1.385 . S
C143 H124 0.947 . S
C143 C142 1.383 . S
C143 C144 1.388 . S
C144 H125 0.946 . S
C144 C143 1.388 . S
C144 C145 1.384 . S
C145 C144 1.384 . S
C145 C146 1.377 . S
C146 H126 0.953 . S
C146 C145 1.377 . S
C146 C147 1.369 . S
C147 H127 0.945 . S
C147 C142 1.385 . S
C147 C146 1.369 . S
C148 C140 1.457 . S
C148 C149 1.372 . S
C148 C153 1.364 1_545 S
C149 H128 0.952 . S
C149 C148 1.372 . S
C149 C150 1.389 . S
C150 H129 0.949 . S
C150 C149 1.389 . S
C150 C151 1.387 . S
C151 C150 1.387 . S
C151 C152 1.372 1_545 S
C152 H130 0.950 . S
C152 C151 1.372 1_565 S
C152 C153 1.379 . S
C153 H131 0.948 . S
C153 C148 1.364 1_565 S
C153 C152 1.379 . S
C154 C123 1.383 . S
C154 C141 1.479 . S
C154 C155 1.398 . S
C155 C120 1.382 . S
C155 H132 0.951 . S
C155 C154 1.398 . S
C156 C157 1.384 . S
C156 H169 0.947 . S
C156 C191 1.382 . S
C157 C156 1.384 . S
C157 C158 1.378 . S
C158 C157 1.378 . S
C158 C159 1.378 . S
C158 H170 0.952 . S
C159 C158 1.378 . S
C159 H171 0.950 . S
C159 C190 1.383 . S
H160 C179 0.947 . S
H161 C180 0.946 . S
H162 C182 0.953 . S
H163 C183 0.945 . S
H164 C185 0.952 . S
H165 C186 0.949 . S
H166 C188 0.950 . S
H167 C189 0.948 . S
H168 C191 0.951 . S
H169 C156 0.947 . S
H170 C158 0.952 . S
H171 C159 0.950 . S
N172 C175 1.382 . S
N172 C177 1.363 . S
N173 C175 1.371 . S
N173 C176 1.372 . S
N174 C176 1.361 . S
N174 C177 1.377 . S
C175 N172 1.382 . S
C175 N173 1.371 . S
C175 C178 1.480 . S
C176 N173 1.372 . S
C176 N174 1.361 . S
C176 C184 1.457 . S
C177 N172 1.363 . S
C177 N174 1.377 . S
C177 C190 1.479 . S
C178 C175 1.480 . S
C178 C179 1.383 . S
C178 C183 1.385 . S
C179 H160 0.947 . S
C179 C178 1.383 . S
C179 C180 1.388 . S
C180 H161 0.946 . S
C180 C179 1.388 . S
C180 C181 1.384 . S
C181 C180 1.384 . S
C181 C182 1.377 . S
C182 H162 0.953 . S
C182 C181 1.377 . S
C182 C183 1.369 . S
C183 H163 0.945 . S
C183 C178 1.385 . S
C183 C182 1.369 . S
C184 C176 1.457 . S
C184 C185 1.372 . S
C184 C189 1.364 . S
C185 H164 0.952 . S
C185 C184 1.372 . S
C185 C186 1.389 . S
C186 H165 0.949 . S
C186 C185 1.389 . S
C186 C187 1.387 . S
C187 C186 1.387 . S
C187 C188 1.372 . S
C188 H166 0.950 . S
C188 C187 1.372 . S
C188 C189 1.379 . S
C189 H167 0.948 . S
C189 C184 1.364 . S
C189 C188 1.379 . S
C190 C159 1.383 . S
C190 C177 1.479 . S
C190 C191 1.398 . S
C191 C156 1.382 . S
C191 H168 0.951 . S
C191 C190 1.398 . S
C192 C193 1.384 . S
C192 H205 0.947 . S
C192 C227 1.382 . S
C193 C192 1.384 . S
C193 C194 1.378 . S
C194 C193 1.378 . S
C194 C195 1.378 . S
C194 H206 0.952 . S
C195 C194 1.378 . S
C195 H207 0.950 . S
C195 C226 1.383 . S
H196 C215 0.947 . S
H197 C216 0.946 . S
H198 C218 0.953 . S
H199 C219 0.945 . S
H200 C221 0.952 . S
H201 C222 0.949 . S
H202 C224 0.950 . S
H203 C225 0.948 . S
H204 C227 0.951 . S
H205 C192 0.947 . S
H206 C194 0.952 . S
H207 C195 0.950 . S
N208 C211 1.382 . S
N208 C213 1.363 1_455 S
N209 C211 1.371 . S
N209 C212 1.372 . S
N210 C212 1.361 1_655 S
N210 C213 1.377 . S
C211 N208 1.382 . S
C211 N209 1.371 . S
C211 C214 1.480 . S
C212 N209 1.372 . S
C212 N210 1.361 1_455 S
C212 C220 1.457 . S
C213 N208 1.363 1_655 S
C213 N210 1.377 . S
C213 C226 1.479 . S
C214 C211 1.480 . S
C214 C215 1.383 . S
C214 C219 1.385 . S
C215 H196 0.947 . S
C215 C214 1.383 . S
C215 C216 1.388 . S
C216 H197 0.946 . S
C216 C215 1.388 . S
C216 C217 1.384 . S
C217 C216 1.384 . S
C217 C218 1.377 . S
C218 H198 0.953 . S
C218 C217 1.377 . S
C218 C219 1.369 . S
C219 H199 0.945 . S
C219 C214 1.385 . S
C219 C218 1.369 . S
C220 C212 1.457 . S
C220 C221 1.372 . S
C220 C225 1.364 1_455 S
C221 H200 0.952 . S
C221 C220 1.372 . S
C221 C222 1.389 . S
C222 H201 0.949 . S
C222 C221 1.389 . S
C222 C223 1.387 . S
C223 C222 1.387 . S
C223 C224 1.372 1_455 S
C224 H202 0.950 . S
C224 C223 1.372 1_655 S
C224 C225 1.379 . S
C225 H203 0.948 . S
C225 C220 1.364 1_655 S
C225 C224 1.379 . S
C226 C195 1.383 . S
C226 C213 1.479 . S
C226 C227 1.398 . S
C227 C192 1.382 . S
C227 H204 0.951 . S
C227 C226 1.398 . S
C228 C229 1.384 . S
C228 H241 0.947 . S
C228 C263 1.382 . S
C229 C228 1.384 . S
C229 C230 1.378 . S
C230 C229 1.378 . S
C230 C231 1.378 . S
C230 H242 0.952 . S
C231 C230 1.378 . S
C231 H243 0.950 . S
C231 C262 1.383 . S
H232 C251 0.947 . S
H233 C252 0.946 . S
H234 C254 0.953 . S
H235 C255 0.945 . S
H236 C257 0.952 . S
H237 C258 0.949 . S
H238 C260 0.950 . S
H239 C261 0.948 . S
H240 C263 0.951 . S
H241 C228 0.947 . S
H242 C230 0.952 . S
H243 C231 0.950 . S
N244 C247 1.382 1_455 S
N244 C249 1.363 . S
N245 C247 1.371 . S
N245 C248 1.372 1_655 S
N246 C248 1.361 . S
N246 C249 1.377 . S
C247 N244 1.382 1_655 S
C247 N245 1.371 . S
C247 C250 1.480 . S
C248 N245 1.372 1_455 S
C248 N246 1.361 . S
C248 C256 1.457 . S
C249 N244 1.363 . S
C249 N246 1.377 . S
C249 C262 1.479 . S
C250 C247 1.480 . S
C250 C251 1.383 . S
C250 C255 1.385 . S
C251 H232 0.947 . S
C251 C250 1.383 . S
C251 C252 1.388 . S
C252 H233 0.946 . S
C252 C251 1.388 . S
C252 C253 1.384 . S
C253 C252 1.384 . S
C253 C254 1.377 . S
C254 H234 0.953 . S
C254 C253 1.377 . S
C254 C255 1.369 . S
C255 H235 0.945 . S
C255 C250 1.385 . S
C255 C254 1.369 . S
C256 C248 1.457 . S
C256 C257 1.372 1_455 S
C256 C261 1.364 . S
C257 H236 0.952 . S
C257 C256 1.372 1_655 S
C257 C258 1.389 . S
C258 H237 0.949 . S
C258 C257 1.389 . S
C258 C259 1.387 . S
C259 C258 1.387 . S
C259 C260 1.372 1_655 S
C260 H238 0.950 . S
C260 C259 1.372 1_455 S
C260 C261 1.379 . S
C261 H239 0.948 . S
C261 C256 1.364 . S
C261 C260 1.379 . S
C262 C231 1.383 . S
C262 C249 1.479 . S
C262 C263 1.398 . S
C263 C228 1.382 . S
C263 H240 0.951 . S
C263 C262 1.398 . S
C264 C265 1.384 . S
C264 H277 0.947 . S
C264 C299 1.382 . S
C265 C264 1.384 . S
C265 C266 1.378 . S
C266 C265 1.378 . S
C266 C267 1.378 . S
C266 H278 0.952 . S
C267 C266 1.378 . S
C267 H279 0.950 . S
C267 C298 1.383 . S
H268 C287 0.947 . S
H269 C288 0.946 . S
H270 C290 0.953 . S
H271 C291 0.945 . S
H272 C293 0.952 . S
H273 C294 0.949 . S
H274 C296 0.950 . S
H275 C297 0.948 . S
H276 C299 0.951 . S
H277 C264 0.947 . S
H278 C266 0.952 . S
H279 C267 0.950 . S
N280 C283 1.382 1_545 S
N280 C285 1.363 . S
N281 C283 1.371 . S
N281 C284 1.372 1_565 S
N282 C284 1.361 . S
N282 C285 1.377 . S
C283 N280 1.382 1_565 S
C283 N281 1.371 . S
C283 C286 1.480 . S
C284 N281 1.372 1_545 S
C284 N282 1.361 . S
C284 C292 1.457 . S
C285 N280 1.363 . S
C285 N282 1.377 . S
C285 C298 1.479 . S
C286 C283 1.480 . S
C286 C287 1.383 . S
C286 C291 1.385 . S
C287 H268 0.947 . S
C287 C286 1.383 . S
C287 C288 1.388 . S
C288 H269 0.946 . S
C288 C287 1.388 . S
C288 C289 1.384 . S
C289 C288 1.384 . S
C289 C290 1.377 . S
C290 H270 0.953 . S
C290 C289 1.377 . S
C290 C291 1.369 . S
C291 H271 0.945 . S
C291 C286 1.385 . S
C291 C290 1.369 . S
C292 C284 1.457 . S
C292 C293 1.372 1_545 S
C292 C297 1.364 . S
C293 H272 0.952 . S
C293 C292 1.372 1_565 S
C293 C294 1.389 . S
C294 H273 0.949 . S
C294 C293 1.389 . S
C294 C295 1.387 1_565 S
C295 C294 1.387 1_545 S
C295 C296 1.372 . S
C296 H274 0.950 . S
C296 C295 1.372 . S
C296 C297 1.379 . S
C297 H275 0.948 . S
C297 C292 1.364 . S
C297 C296 1.379 . S
C298 C267 1.383 . S
C298 C285 1.479 . S
C298 C299 1.398 . S
C299 C264 1.382 . S
C299 H276 0.951 . S
C299 C298 1.398 . S
C300 C301 1.384 . S
C300 H313 0.947 . S
C300 C335 1.382 . S
C301 C300 1.384 . S
C301 C302 1.378 . S
C302 C301 1.378 . S
C302 C303 1.378 . S
C302 H314 0.952 . S
C303 C302 1.378 . S
C303 H315 0.950 . S
C303 C334 1.383 . S
H304 C323 0.947 . S
H305 C324 0.946 . S
H306 C326 0.953 . S
H307 C327 0.945 . S
H308 C329 0.952 . S
H309 C330 0.949 . S
H310 C332 0.950 . S
H311 C333 0.948 . S
H312 C335 0.951 . S
H313 C300 0.947 . S
H314 C302 0.952 . S
H315 C303 0.950 . S
N316 C319 1.382 . S
N316 C321 1.363 . S
N317 C319 1.371 . S
N317 C320 1.372 . S
N318 C320 1.361 . S
N318 C321 1.377 . S
C319 N316 1.382 . S
C319 N317 1.371 . S
C319 C322 1.480 . S
C320 N317 1.372 . S
C320 N318 1.361 . S
C320 C328 1.457 . S
C321 N316 1.363 . S
C321 N318 1.377 . S
C321 C334 1.479 . S
C322 C319 1.480 . S
C322 C323 1.383 . S
C322 C327 1.385 . S
C323 H304 0.947 . S
C323 C322 1.383 . S
C323 C324 1.388 . S
C324 H305 0.946 . S
C324 C323 1.388 . S
C324 C325 1.384 . S
C325 C324 1.384 . S
C325 C326 1.377 . S
C326 H306 0.953 . S
C326 C325 1.377 . S
C326 C327 1.369 . S
C327 H307 0.945 . S
C327 C322 1.385 . S
C327 C326 1.369 . S
C328 C320 1.457 . S
C328 C329 1.372 . S
C328 C333 1.364 . S
C329 H308 0.952 . S
C329 C328 1.372 . S
C329 C330 1.389 . S
C330 H309 0.949 . S
C330 C329 1.389 . S
C330 C331 1.387 . S
C331 C330 1.387 . S
C331 C332 1.372 . S
C332 H310 0.950 . S
C332 C331 1.372 . S
C332 C333 1.379 . S
C333 H311 0.948 . S
C333 C328 1.364 . S
C333 C332 1.379 . S
C334 C303 1.383 . S
C334 C321 1.479 . S
C334 C335 1.398 . S
C335 C300 1.382 . S
C335 H312 0.951 . S
C335 C334 1.398 . S
H336 C342 0.930 . S
H337 C346 0.930 . S
H338 C351 0.929 . S
H339 C349 0.929 . S
H340 C344 0.929 . S
H341 C350 0.929 . S
C342 H336 0.930 . S
C342 C343 1.367 . S
C342 C350 1.378 . S
C343 C342 1.367 . S
C343 C351 1.433 . S
C344 H340 0.929 . S
C344 C346 1.378 . S
C344 C348 1.350 . S
C345 C348 1.463 . S
C345 C350 1.350 . S
C345 N353 1.427 . S
C346 H337 0.930 . S
C346 C344 1.378 . S
C346 C347 1.367 . S
C347 C346 1.367 . S
C347 C349 1.433 . S
C348 C344 1.350 . S
C348 C345 1.463 . S
C348 N352 1.427 . S
C349 H339 0.929 . S
C349 C347 1.433 . S
C349 N352 1.384 . S
C350 H341 0.929 . S
C350 C342 1.378 . S
C350 C345 1.350 . S
C351 H338 0.929 . S
C351 C343 1.433 . S
C351 N353 1.384 . S
N352 C348 1.427 . S
N352 C349 1.384 . S
N353 C345 1.427 . S
N353 C351 1.384 . S
H354 C360 0.930 . S
H355 C364 0.930 . S
H356 C369 0.929 . S
H357 C367 0.929 . S
H358 C362 0.929 . S
H359 C368 0.929 . S
C360 H354 0.930 . S
C360 C361 1.367 . S
C360 C368 1.378 . S
C361 C360 1.367 . S
C361 C369 1.433 . S
C362 H358 0.929 . S
C362 C364 1.378 . S
C362 C366 1.350 . S
C363 C366 1.463 . S
C363 C368 1.350 . S
C363 N371 1.427 . S
C364 H355 0.930 . S
C364 C362 1.378 . S
C364 C365 1.367 . S
C365 C364 1.367 . S
C365 C367 1.433 . S
C366 C362 1.350 . S
C366 C363 1.463 . S
C366 N370 1.427 . S
C367 H357 0.929 . S
C367 C365 1.433 . S
C367 N370 1.384 . S
C368 H359 0.929 . S
C368 C360 1.378 . S
C368 C363 1.350 . S
C369 H356 0.929 . S
C369 C361 1.433 . S
C369 N371 1.384 . S
N370 C366 1.427 . S
N370 C367 1.384 . S
N371 C363 1.427 . S
N371 C369 1.384 . S
H372 C378 0.930 . S
H373 C382 0.930 . S
H374 C387 0.929 . S
H375 C385 0.929 . S
H376 C380 0.929 . S
H377 C386 0.929 . S
C378 H372 0.930 . S
C378 C379 1.367 . S
C378 C386 1.378 . S
C379 C378 1.367 . S
C379 C387 1.433 . S
C380 H376 0.929 . S
C380 C382 1.378 . S
C380 C384 1.350 . S
C381 C384 1.463 . S
C381 C386 1.350 . S
C381 N389 1.427 . S
C382 H373 0.930 . S
C382 C380 1.378 . S
C382 C383 1.367 . S
C383 C382 1.367 . S
C383 C385 1.433 . S
C384 C380 1.350 . S
C384 C381 1.463 . S
C384 N388 1.427 . S
C385 H375 0.929 . S
C385 C383 1.433 . S
C385 N388 1.384 . S
C386 H377 0.929 . S
C386 C378 1.378 . S
C386 C381 1.350 . S
C387 H374 0.929 . S
C387 C379 1.433 . S
C387 N389 1.384 . S
N388 C384 1.427 . S
N388 C385 1.384 . S
N389 C381 1.427 . S
N389 C387 1.384 . S
H390 C396 0.930 . S
H391 C400 0.930 . S
H392 C405 0.929 . S
H393 C403 0.929 . S
H394 C398 0.929 . S
H395 C404 0.929 . S
C396 H390 0.930 . S
C396 C397 1.367 . S
C396 C404 1.378 . S
C397 C396 1.367 . S
C397 C405 1.433 . S
C398 H394 0.929 . S
C398 C400 1.378 . S
C398 C402 1.350 . S
C399 C402 1.463 . S
C399 C404 1.350 . S
C399 N407 1.427 . S
C400 H391 0.930 . S
C400 C398 1.378 . S
C400 C401 1.367 . S
C401 C400 1.367 . S
C401 C403 1.433 . S
C402 C398 1.350 . S
C402 C399 1.463 . S
C402 N406 1.427 . S
C403 H393 0.929 . S
C403 C401 1.433 . S
C403 N406 1.384 . S
C404 H395 0.929 . S
C404 C396 1.378 . S
C404 C399 1.350 . S
C405 H392 0.929 . S
C405 C397 1.433 . S
C405 N407 1.384 . S
N406 C402 1.427 . S
N406 C403 1.384 . S
N407 C399 1.427 . S
N407 C405 1.384 . S
H408 C414 0.930 . S
H409 C418 0.930 . S
H410 C423 0.929 . S
H411 C421 0.929 . S
H412 C416 0.929 . S
H413 C422 0.929 . S
C414 H408 0.930 . S
C414 C415 1.367 . S
C414 C422 1.378 . S
C415 C414 1.367 . S
C415 C423 1.433 . S
C416 H412 0.929 . S
C416 C418 1.378 . S
C416 C420 1.350 . S
C417 C420 1.463 . S
C417 C422 1.350 . S
C417 N425 1.427 . S
C418 H409 0.930 . S
C418 C416 1.378 . S
C418 C419 1.367 . S
C419 C418 1.367 . S
C419 C421 1.433 . S
C420 C416 1.350 . S
C420 C417 1.463 . S
C420 N424 1.427 . S
C421 H411 0.929 . S
C421 C419 1.433 . S
C421 N424 1.384 . S
C422 H413 0.929 . S
C422 C414 1.378 . S
C422 C417 1.350 . S
C423 H410 0.929 . S
C423 C415 1.433 . S
C423 N425 1.384 . S
N424 C420 1.427 . S
N424 C421 1.384 . S
N425 C417 1.427 . S
N425 C423 1.384 . S
H426 C432 0.930 . S
H427 C436 0.930 . S
H428 C441 0.929 . S
H429 C439 0.929 . S
H430 C434 0.929 . S
H431 C440 0.929 . S
C432 H426 0.930 . S
C432 C433 1.367 . S
C432 C440 1.378 . S
C433 C432 1.367 . S
C433 C441 1.433 . S
C434 H430 0.929 . S
C434 C436 1.378 . S
C434 C438 1.350 . S
C435 C438 1.463 . S
C435 C440 1.350 . S
C435 N443 1.427 . S
C436 H427 0.930 . S
C436 C434 1.378 . S
C436 C437 1.367 . S
C437 C436 1.367 . S
C437 C439 1.433 . S
C438 C434 1.350 . S
C438 C435 1.463 . S
C438 N442 1.427 . S
C439 H429 0.929 . S
C439 C437 1.433 . S
C439 N442 1.384 . S
C440 H431 0.929 . S
C440 C432 1.378 . S
C440 C435 1.350 . S
C441 H428 0.929 . S
C441 C433 1.433 . S
C441 N443 1.384 . S
N442 C438 1.427 . S
N442 C439 1.384 . S
N443 C435 1.427 . S
N443 C441 1.384 . S
H444 C450 0.930 . S
H445 C454 0.930 . S
H446 C459 0.929 . S
H447 C457 0.929 . S
H448 C452 0.929 . S
H449 C458 0.929 . S
C450 H444 0.930 . S
C450 C451 1.367 . S
C450 C458 1.378 . S
C451 C450 1.367 . S
C451 C459 1.433 . S
C452 H448 0.929 . S
C452 C454 1.378 . S
C452 C456 1.350 . S
C453 C456 1.463 . S
C453 C458 1.350 . S
C453 N461 1.427 . S
C454 H445 0.930 . S
C454 C452 1.378 . S
C454 C455 1.367 . S
C455 C454 1.367 . S
C455 C457 1.433 . S
C456 C452 1.350 . S
C456 C453 1.463 . S
C456 N460 1.427 . S
C457 H447 0.929 . S
C457 C455 1.433 . S
C457 N460 1.384 . S
C458 H449 0.929 . S
C458 C450 1.378 . S
C458 C453 1.350 . S
C459 H446 0.929 . S
C459 C451 1.433 . S
C459 N461 1.384 . S
N460 C456 1.427 . S
N460 C457 1.384 . S
N461 C453 1.427 . S
N461 C459 1.384 . S
H462 C468 0.930 . S
H463 C472 0.930 . S
H464 C477 0.929 . S
H465 C475 0.929 . S
H466 C470 0.929 . S
H467 C476 0.929 . S
C468 H462 0.930 . S
C468 C469 1.367 . S
C468 C476 1.378 . S
C469 C468 1.367 . S
C469 C477 1.433 . S
C470 H466 0.929 . S
C470 C472 1.378 . S
C470 C474 1.350 . S
C471 C474 1.463 . S
C471 C476 1.350 . S
C471 N479 1.427 . S
C472 H463 0.930 . S
C472 C470 1.378 . S
C472 C473 1.367 . S
C473 C472 1.367 . S
C473 C475 1.433 . S
C474 C470 1.350 . S
C474 C471 1.463 . S
C474 N478 1.427 . S
C475 H465 0.929 . S
C475 C473 1.433 . S
C475 N478 1.384 . S
C476 H467 0.929 . S
C476 C468 1.378 . S
C476 C471 1.350 . S
C477 H464 0.929 . S
C477 C469 1.433 . S
C477 N479 1.384 . S
N478 C474 1.427 . S
N478 C475 1.384 . S
N479 C471 1.427 . S
N479 C477 1.384 . S
H480 C486 0.930 . S
H481 C490 0.930 . S
H482 C495 0.929 . S
H483 C493 0.929 . S
H484 C488 0.929 . S
H485 C494 0.929 . S
C486 H480 0.930 . S
C486 C487 1.367 . S
C486 C494 1.378 . S
C487 C486 1.367 . S
C487 C495 1.433 . S
C488 H484 0.929 . S
C488 C490 1.378 . S
C488 C492 1.350 . S
C489 C492 1.463 . S
C489 C494 1.350 . S
C489 N497 1.427 . S
C490 H481 0.930 . S
C490 C488 1.378 . S
C490 C491 1.367 . S
C491 C490 1.367 . S
C491 C493 1.433 . S
C492 C488 1.350 . S
C492 C489 1.463 . S
C492 N496 1.427 . S
C493 H483 0.929 . S
C493 C491 1.433 . S
C493 N496 1.384 . S
C494 H485 0.929 . S
C494 C486 1.378 . S
C494 C489 1.350 . S
C495 H482 0.929 . S
C495 C487 1.433 . S
C495 N497 1.384 . S
N496 C492 1.427 . S
N496 C493 1.384 . S
N497 C489 1.427 . S
N497 C495 1.384 . S
H498 C504 0.930 . S
H499 C508 0.930 . S
H500 C513 0.929 . S
H501 C511 0.929 . S
H502 C506 0.929 . S
H503 C512 0.929 . S
C504 H498 0.930 . S
C504 C505 1.367 . S
C504 C512 1.378 . S
C505 C504 1.367 . S
C505 C513 1.433 . S
C506 H502 0.929 . S
C506 C508 1.378 . S
C506 C510 1.350 . S
C507 C510 1.463 . S
C507 C512 1.350 . S
C507 N515 1.427 . S
C508 H499 0.930 . S
C508 C506 1.378 . S
C508 C509 1.367 . S
C509 C508 1.367 . S
C509 C511 1.433 . S
C510 C506 1.350 . S
C510 C507 1.463 . S
C510 N514 1.427 . S
C511 H501 0.929 . S
C511 C509 1.433 . S
C511 N514 1.384 . S
C512 H503 0.929 . S
C512 C504 1.378 . S
C512 C507 1.350 . S
C513 H500 0.929 . S
C513 C505 1.433 . S
C513 N515 1.384 . S
N514 C510 1.427 . S
N514 C511 1.384 . S
N515 C507 1.427 . S
N515 C513 1.384 . S
H516 C522 0.930 . S
H517 C526 0.930 . S
H518 C531 0.929 . S
H519 C529 0.929 . S
H520 C524 0.929 . S
H521 C530 0.929 . S
C522 H516 0.930 . S
C522 C523 1.367 . S
C522 C530 1.378 . S
C523 C522 1.367 . S
C523 C531 1.433 . S
C524 H520 0.929 . S
C524 C526 1.378 . S
C524 C528 1.350 . S
C525 C528 1.463 . S
C525 C530 1.350 . S
C525 N533 1.427 . S
C526 H517 0.930 . S
C526 C524 1.378 . S
C526 C527 1.367 . S
C527 C526 1.367 . S
C527 C529 1.433 . S
C528 C524 1.350 . S
C528 C525 1.463 . S
C528 N532 1.427 . S
C529 H519 0.929 . S
C529 C527 1.433 . S
C529 N532 1.384 . S
C530 H521 0.929 . S
C530 C522 1.378 . S
C530 C525 1.350 . S
C531 H518 0.929 . S
C531 C523 1.433 . S
C531 N533 1.384 . S
N532 C528 1.427 . S
N532 C529 1.384 . S
N533 C525 1.427 . S
N533 C531 1.384 . S
H534 C540 0.930 . S
H535 C544 0.930 . S
H536 C549 0.929 . S
H537 C547 0.929 . S
H538 C542 0.929 . S
H539 C548 0.929 . S
C540 H534 0.930 . S
C540 C541 1.367 . S
C540 C548 1.378 . S
C541 C540 1.367 . S
C541 C549 1.433 . S
C542 H538 0.929 . S
C542 C544 1.378 . S
C542 C546 1.350 . S
C543 C546 1.463 . S
C543 C548 1.350 . S
C543 N551 1.427 . S
C544 H535 0.930 . S
C544 C542 1.378 . S
C544 C545 1.367 . S
C545 C544 1.367 . S
C545 C547 1.433 . S
C546 C542 1.350 . S
C546 C543 1.463 . S
C546 N550 1.427 . S
C547 H537 0.929 . S
C547 C545 1.433 . S
C547 N550 1.384 . S
C548 H539 0.929 . S
C548 C540 1.378 . S
C548 C543 1.350 . S
C549 H536 0.929 . S
C549 C541 1.433 . S
C549 N551 1.384 . S
N550 C546 1.427 . S
N550 C547 1.384 . S
N551 C543 1.427 . S
N551 C549 1.384 . S
H552 C558 0.930 . S
H553 C562 0.947 . S
H554 C567 0.929 . S
H555 C565 0.929 1_556 S
H556 C560 0.929 . S
H557 C566 0.929 . S
C558 H552 0.930 . S
C558 C559 1.367 1_655 S
C558 C566 1.378 . S
C559 C558 1.367 1_455 S
C559 C567 1.433 . S
C560 H556 0.929 . S
C560 C562 1.378 . S
C560 C564 1.350 . S
C561 C564 1.463 . S
C561 C566 1.350 1_455 S
C561 N569 1.427 . S
C562 H553 0.947 . S
C562 C560 1.378 . S
C562 C563 1.367 1_554 S
C563 C562 1.367 1_556 S
C563 C565 1.433 1_456 S
C564 C560 1.350 . S
C564 C561 1.463 . S
C564 N568 1.427 1_455 S
C565 H555 0.929 1_554 S
C565 C563 1.433 1_654 S
C565 N568 1.384 . S
C566 H557 0.929 . S
C566 C558 1.378 . S
C566 C561 1.350 1_655 S
C567 H554 0.929 . S
C567 C559 1.433 . S
C567 N569 1.384 . S
N568 C564 1.427 1_655 S
N568 C565 1.384 . S
N569 C561 1.427 . S
N569 C567 1.384 . S
H570 C576 0.930 . S
H571 C580 0.930 . S
H572 C585 0.929 . S
H573 C583 0.929 . S
H574 C578 0.929 . S
H575 C584 0.929 . S
C576 H570 0.930 . S
C576 C577 1.367 . S
C576 C584 1.378 . S
C577 C576 1.367 . S
C577 C585 1.433 1_545 S
C578 H574 0.929 . S
C578 C580 1.378 . S
C578 C582 1.350 1_565 S
C579 C582 1.463 . S
C579 C584 1.350 . S
C579 N587 1.427 1_545 S
C580 H571 0.930 . S
C580 C578 1.378 . S
C580 C581 1.367 1_565 S
C581 C580 1.367 1_545 S
C581 C583 1.433 . S
C582 C578 1.350 1_545 S
C582 C579 1.463 . S
C582 N586 1.427 . S
C583 H573 0.929 . S
C583 C581 1.433 . S
C583 N586 1.384 . S
C584 H575 0.929 . S
C584 C576 1.378 . S
C584 C579 1.350 . S
C585 H572 0.929 . S
C585 C577 1.433 1_565 S
C585 N587 1.384 . S
N586 C582 1.427 . S
N586 C583 1.384 . S
N587 C579 1.427 1_565 S
N587 C585 1.384 . S
H588 C594 0.930 . S
H589 C598 0.930 . S
H590 C603 0.929 . S
H591 C601 0.929 . S
H592 C596 0.929 . S
H593 C602 0.929 . S
C594 H588 0.930 . S
C594 C595 1.367 . S
C594 C602 1.378 . S
C595 C594 1.367 . S
C595 C603 1.433 . S
C596 H592 0.929 . S
C596 C598 1.378 . S
C596 C600 1.350 . S
C597 C600 1.463 . S
C597 C602 1.350 . S
C597 N605 1.427 . S
C598 H589 0.930 . S
C598 C596 1.378 . S
C598 C599 1.367 . S
C599 C598 1.367 . S
C599 C601 1.433 . S
C600 C596 1.350 . S
C600 C597 1.463 . S
C600 N604 1.427 . S
C601 H591 0.929 . S
C601 C599 1.433 . S
C601 N604 1.384 . S
C602 H593 0.929 . S
C602 C594 1.378 . S
C602 C597 1.350 . S
C603 H590 0.929 . S
C603 C595 1.433 . S
C603 N605 1.384 . S
N604 C600 1.427 . S
N604 C601 1.384 . S
N605 C597 1.427 . S
N605 C603 1.384 . S
H606 C612 0.930 . S
H607 C616 0.930 . S
H608 C621 0.929 . S
H609 C619 0.929 . S
H610 C614 0.929 . S
H611 C620 0.929 . S
C612 H606 0.930 . S
C612 C613 1.367 1_565 S
C612 C620 1.378 . S
C613 C612 1.367 1_545 S
C613 C621 1.433 . S
C614 H610 0.929 . S
C614 C616 1.378 . S
C614 C618 1.350 . S
C615 C618 1.463 . S
C615 C620 1.350 1_545 S
C615 N623 1.427 . S
C616 H607 0.930 . S
C616 C614 1.378 . S
C616 C617 1.367 . S
C617 C616 1.367 . S
C617 C619 1.433 1_545 S
C618 C614 1.350 . S
C618 C615 1.463 . S
C618 N622 1.427 1_545 S
C619 H609 0.929 . S
C619 C617 1.433 1_565 S
C619 N622 1.384 . S
C620 H611 0.929 . S
C620 C612 1.378 . S
C620 C615 1.350 1_565 S
C621 H608 0.929 . S
C621 C613 1.433 . S
C621 N623 1.384 . S
N622 C618 1.427 1_565 S
N622 C619 1.384 . S
N623 C615 1.427 . S
N623 C621 1.384 . S
H624 C630 0.930 . S
H625 C634 0.930 1_554 S
H626 C639 0.929 . S
H627 C637 0.929 1_554 S
H628 C632 0.929 . S
H629 C638 0.929 . S
C630 H624 0.930 . S
C630 C631 1.367 . S
C630 C638 1.378 . S
C631 C630 1.367 . S
C631 C639 1.433 . S
C632 H628 0.929 . S
C632 C634 1.378 . S
C632 C636 1.350 . S
C633 C636 1.463 . S
C633 C638 1.350 . S
C633 N641 1.427 . S
C634 H625 0.930 1_556 S
C634 C632 1.378 . S
C634 C635 1.367 1_556 S
C635 C634 1.367 1_554 S
C635 C637 1.433 1_554 S
C636 C632 1.350 . S
C636 C633 1.463 . S
C636 N640 1.427 . S
C637 H627 0.929 1_556 S
C637 C635 1.433 1_556 S
C637 N640 1.384 . S
C638 H629 0.929 . S
C638 C630 1.378 . S
C638 C633 1.350 . S
C639 H626 0.929 . S
C639 C631 1.433 . S
C639 N641 1.384 . S
N640 C636 1.427 . S
N640 C637 1.384 . S
N641 C633 1.427 . S
N641 C639 1.384 . S
H642 C648 0.930 . S
H643 C652 0.930 . S
H644 C657 0.929 . S
H645 C655 0.929 . S
H646 C650 0.929 . S
H647 C656 0.929 . S
C648 H642 0.930 . S
C648 C649 1.367 . S
C648 C656 1.378 . S
C649 C648 1.367 . S
C649 C657 1.433 . S
C650 H646 0.929 . S
C650 C652 1.378 . S
C650 C654 1.356 . S
C651 C654 1.461 1_455 S
C651 C656 1.350 . S
C651 N659 1.427 . S
C652 H643 0.930 . S
C652 C650 1.378 . S
C652 C653 1.367 . S
C653 C652 1.367 . S
C653 C655 1.433 . S
C654 C650 1.356 . S
C654 C651 1.461 1_655 S
C654 N658 1.428 . S
C655 H645 0.929 . S
C655 C653 1.433 . S
C655 N658 1.385 . S
C656 H647 0.929 . S
C656 C648 1.378 . S
C656 C651 1.350 . S
C657 H644 0.929 . S
C657 C649 1.433 . S
C657 N659 1.384 . S
N658 C654 1.428 . S
N658 C655 1.385 . S
N659 C651 1.427 . S
N659 C657 1.384 . S
C343 C19 1.932 . S
C347 C325 1.864 . S
C361 C46 1.232 . S
C365 C253 1.218 . S
C379 C95 0.442 . S
C383 C289 0.335 . S
C397 C10 2.026 . S
C401 C301 1.984 . S
C419 C229 1.309 . S
C415 C55 1.307 . S
C437 C265 0.582 . S
C433 C86 0.603 . S
C451 C59 3.107 . S
C455 C181 3.025 . S
C469 C90 2.055 . S
C473 C193 2.019 . S
C487 C15 1.282 . S
C491 C121 1.302 . S
C509 C157 2.993 . S
C505 C50 3.011 . S
C527 C217 1.864 . S
C523 C99 1.922 . S
C541 C6 1.214 . S
C545 C145 1.214 . S
C563 C223 1.374 . S
C559 C9 1.324 . S
C577 C58 1.451 . S
C581 C151 1.501 . S
C595 C98 1.709 . S
C599 C187 1.771 . S
C617 C295 1.085 . S
C613 C49 1.072 . S
C635 C331 1.358 . S
C631 C89 1.323 . S
C649 C18 1.447 . S
C653 C259 1.481 . S
