# Generated by pormake.
# Topology ptr, (4,4)-cn, num edge types: 1
# Building blocks:
#     Node 0, Type 0, BuildingBlock: UXUYUI_clean_sbu_0, # of connection points: 4
#     Node 1, Type 0, BuildingBlock: UXUYUI_clean_sbu_0, # of connection points: 4
#     Node 2, Type 0, BuildingBlock: UXUYUI_clean_sbu_0, # of connection points: 4
#     Node 3, Type 0, BuildingBlock: UXUYUI_clean_sbu_0, # of connection points: 4
#     Node 4, Type 0, BuildingBlock: UXUYUI_clean_sbu_0, # of connection points: 4
#     Node 5, Type 0, BuildingBlock: UXUYUI_clean_sbu_0, # of connection points: 4
#     Node 6, Type 0, BuildingBlock: UXUYUI_clean_sbu_0, # of connection points: 4
#     Node 7, Type 0, BuildingBlock: UXUYUI_clean_sbu_0, # of connection points: 4
#     Node 8, Type 0, BuildingBlock: UXUYUI_clean_sbu_0, # of connection points: 4
#     Node 9, Type 0, BuildingBlock: UXUYUI_clean_sbu_0, # of connection points: 4
#     Node 10, Type 0, BuildingBlock: UXUYUI_clean_sbu_0, # of connection points: 4
#     Node 11, Type 0, BuildingBlock: UXUYUI_clean_sbu_0, # of connection points: 4
#     Node 12, Type 0, BuildingBlock: UXUYUI_clean_sbu_0, # of connection points: 4
#     Node 13, Type 0, BuildingBlock: UXUYUI_clean_sbu_0, # of connection points: 4
#     Node 14, Type 0, BuildingBlock: UXUYUI_clean_sbu_0, # of connection points: 4
#     Node 15, Type 0, BuildingBlock: UXUYUI_clean_sbu_0, # of connection points: 4
#     Node 16, Type 0, BuildingBlock: UXUYUI_clean_sbu_0, # of connection points: 4
#     Node 17, Type 0, BuildingBlock: UXUYUI_clean_sbu_0, # of connection points: 4
#     Node 18, Type 1, BuildingBlock: NAHDIM_clean_linker_0, # of connection points: 4
#     Node 19, Type 1, BuildingBlock: NAHDIM_clean_linker_0, # of connection points: 4
#     Node 20, Type 1, BuildingBlock: NAHDIM_clean_linker_0, # of connection points: 4
#     Node 21, Type 1, BuildingBlock: NAHDIM_clean_linker_0, # of connection points: 4
#     Node 22, Type 1, BuildingBlock: NAHDIM_clean_linker_0, # of connection points: 4
#     Node 23, Type 1, BuildingBlock: NAHDIM_clean_linker_0, # of connection points: 4
#     Node 24, Type 1, BuildingBlock: NAHDIM_clean_linker_0, # of connection points: 4
#     Node 25, Type 1, BuildingBlock: NAHDIM_clean_linker_0, # of connection points: 4
#     Node 26, Type 1, BuildingBlock: NAHDIM_clean_linker_0, # of connection points: 4
#     Node 27, Type 1, BuildingBlock: NAHDIM_clean_linker_0, # of connection points: 4
#     Node 28, Type 1, BuildingBlock: NAHDIM_clean_linker_0, # of connection points: 4
#     Node 29, Type 1, BuildingBlock: NAHDIM_clean_linker_0, # of connection points: 4
#     Node 30, Type 1, BuildingBlock: NAHDIM_clean_linker_0, # of connection points: 4
#     Node 31, Type 1, BuildingBlock: NAHDIM_clean_linker_0, # of connection points: 4
#     Node 32, Type 1, BuildingBlock: NAHDIM_clean_linker_0, # of connection points: 4
#     Node 33, Type 1, BuildingBlock: NAHDIM_clean_linker_0, # of connection points: 4
#     Node 34, Type 1, BuildingBlock: NAHDIM_clean_linker_0, # of connection points: 4
#     Node 35, Type 1, BuildingBlock: NAHDIM_clean_linker_0, # of connection points: 4
#     Edge 36, Type (0, 1), BuildingBlock: XIVTED_clean_linker_0, # of connection points: 2
#     Edge 37, Type (0, 1), BuildingBlock: XIVTED_clean_linker_0, # of connection points: 2
#     Edge 38, Type (0, 1), BuildingBlock: XIVTED_clean_linker_0, # of connection points: 2
#     Edge 39, Type (0, 1), BuildingBlock: XIVTED_clean_linker_0, # of connection points: 2
#     Edge 40, Type (0, 1), BuildingBlock: XIVTED_clean_linker_0, # of connection points: 2
#     Edge 41, Type (0, 1), BuildingBlock: XIVTED_clean_linker_0, # of connection points: 2
#     Edge 42, Type (0, 1), BuildingBlock: XIVTED_clean_linker_0, # of connection points: 2
#     Edge 43, Type (0, 1), BuildingBlock: XIVTED_clean_linker_0, # of connection points: 2
#     Edge 44, Type (0, 1), BuildingBlock: XIVTED_clean_linker_0, # of connection points: 2
#     Edge 45, Type (0, 1), BuildingBlock: XIVTED_clean_linker_0, # of connection points: 2
#     Edge 46, Type (0, 1), BuildingBlock: XIVTED_clean_linker_0, # of connection points: 2
#     Edge 47, Type (0, 1), BuildingBlock: XIVTED_clean_linker_0, # of connection points: 2
#     Edge 48, Type (0, 1), BuildingBlock: XIVTED_clean_linker_0, # of connection points: 2
#     Edge 49, Type (0, 1), BuildingBlock: XIVTED_clean_linker_0, # of connection points: 2
#     Edge 50, Type (0, 1), BuildingBlock: XIVTED_clean_linker_0, # of connection points: 2
#     Edge 51, Type (0, 1), BuildingBlock: XIVTED_clean_linker_0, # of connection points: 2
#     Edge 52, Type (0, 1), BuildingBlock: XIVTED_clean_linker_0, # of connection points: 2
#     Edge 53, Type (0, 1), BuildingBlock: XIVTED_clean_linker_0, # of connection points: 2
#     Edge 54, Type (0, 1), BuildingBlock: XIVTED_clean_linker_0, # of connection points: 2
#     Edge 55, Type (0, 1), BuildingBlock: XIVTED_clean_linker_0, # of connection points: 2
#     Edge 56, Type (0, 1), BuildingBlock: XIVTED_clean_linker_0, # of connection points: 2
#     Edge 57, Type (0, 1), BuildingBlock: XIVTED_clean_linker_0, # of connection points: 2
#     Edge 58, Type (0, 1), BuildingBlock: XIVTED_clean_linker_0, # of connection points: 2
#     Edge 59, Type (0, 1), BuildingBlock: XIVTED_clean_linker_0, # of connection points: 2
#     Edge 60, Type (0, 1), BuildingBlock: XIVTED_clean_linker_0, # of connection points: 2
#     Edge 61, Type (0, 1), BuildingBlock: XIVTED_clean_linker_0, # of connection points: 2
#     Edge 62, Type (0, 1), BuildingBlock: XIVTED_clean_linker_0, # of connection points: 2
#     Edge 63, Type (0, 1), BuildingBlock: XIVTED_clean_linker_0, # of connection points: 2
#     Edge 64, Type (0, 1), BuildingBlock: XIVTED_clean_linker_0, # of connection points: 2
#     Edge 65, Type (0, 1), BuildingBlock: XIVTED_clean_linker_0, # of connection points: 2
#     Edge 66, Type (0, 1), BuildingBlock: XIVTED_clean_linker_0, # of connection points: 2
#     Edge 67, Type (0, 1), BuildingBlock: XIVTED_clean_linker_0, # of connection points: 2
#     Edge 68, Type (0, 1), BuildingBlock: XIVTED_clean_linker_0, # of connection points: 2
#     Edge 69, Type (0, 1), BuildingBlock: XIVTED_clean_linker_0, # of connection points: 2
#     Edge 70, Type (0, 1), BuildingBlock: XIVTED_clean_linker_0, # of connection points: 2
#     Edge 71, Type (0, 1), BuildingBlock: XIVTED_clean_linker_0, # of connection points: 2
#     Edge 72, Type (0, 1), BuildingBlock: XIVTED_clean_linker_0, # of connection points: 2
#     Edge 73, Type (0, 1), BuildingBlock: XIVTED_clean_linker_0, # of connection points: 2
#     Edge 74, Type (0, 1), BuildingBlock: XIVTED_clean_linker_0, # of connection points: 2
#     Edge 75, Type (0, 1), BuildingBlock: XIVTED_clean_linker_0, # of connection points: 2
#     Edge 76, Type (0, 1), BuildingBlock: XIVTED_clean_linker_0, # of connection points: 2
#     Edge 77, Type (0, 1), BuildingBlock: XIVTED_clean_linker_0, # of connection points: 2
#     Edge 78, Type (0, 1), BuildingBlock: XIVTED_clean_linker_0, # of connection points: 2
#     Edge 79, Type (0, 1), BuildingBlock: XIVTED_clean_linker_0, # of connection points: 2
#     Edge 80, Type (0, 1), BuildingBlock: XIVTED_clean_linker_0, # of connection points: 2
#     Edge 81, Type (0, 1), BuildingBlock: XIVTED_clean_linker_0, # of connection points: 2
#     Edge 82, Type (0, 1), BuildingBlock: XIVTED_clean_linker_0, # of connection points: 2
#     Edge 83, Type (0, 1), BuildingBlock: XIVTED_clean_linker_0, # of connection points: 2
#     Edge 84, Type (0, 1), BuildingBlock: XIVTED_clean_linker_0, # of connection points: 2
#     Edge 85, Type (0, 1), BuildingBlock: XIVTED_clean_linker_0, # of connection points: 2
#     Edge 86, Type (0, 1), BuildingBlock: XIVTED_clean_linker_0, # of connection points: 2
#     Edge 87, Type (0, 1), BuildingBlock: XIVTED_clean_linker_0, # of connection points: 2
#     Edge 88, Type (0, 1), BuildingBlock: XIVTED_clean_linker_0, # of connection points: 2
#     Edge 89, Type (0, 1), BuildingBlock: XIVTED_clean_linker_0, # of connection points: 2
#     Edge 90, Type (0, 1), BuildingBlock: XIVTED_clean_linker_0, # of connection points: 2
#     Edge 91, Type (0, 1), BuildingBlock: XIVTED_clean_linker_0, # of connection points: 2
#     Edge 92, Type (0, 1), BuildingBlock: XIVTED_clean_linker_0, # of connection points: 2
#     Edge 93, Type (0, 1), BuildingBlock: XIVTED_clean_linker_0, # of connection points: 2
#     Edge 94, Type (0, 1), BuildingBlock: XIVTED_clean_linker_0, # of connection points: 2
#     Edge 95, Type (0, 1), BuildingBlock: XIVTED_clean_linker_0, # of connection points: 2
#     Edge 96, Type (0, 1), BuildingBlock: XIVTED_clean_linker_0, # of connection points: 2
#     Edge 97, Type (0, 1), BuildingBlock: XIVTED_clean_linker_0, # of connection points: 2
#     Edge 98, Type (0, 1), BuildingBlock: XIVTED_clean_linker_0, # of connection points: 2
#     Edge 99, Type (0, 1), BuildingBlock: XIVTED_clean_linker_0, # of connection points: 2
#     Edge 100, Type (0, 1), BuildingBlock: XIVTED_clean_linker_0, # of connection points: 2
#     Edge 101, Type (0, 1), BuildingBlock: XIVTED_clean_linker_0, # of connection points: 2
#     Edge 102, Type (0, 1), BuildingBlock: XIVTED_clean_linker_0, # of connection points: 2
#     Edge 103, Type (0, 1), BuildingBlock: XIVTED_clean_linker_0, # of connection points: 2
#     Edge 104, Type (0, 1), BuildingBlock: XIVTED_clean_linker_0, # of connection points: 2
#     Edge 105, Type (0, 1), BuildingBlock: XIVTED_clean_linker_0, # of connection points: 2
#     Edge 106, Type (0, 1), BuildingBlock: XIVTED_clean_linker_0, # of connection points: 2
#     Edge 107, Type (0, 1), BuildingBlock: XIVTED_clean_linker_0, # of connection points: 2
# Relax obj value: 0.120
# Max RMSD: 0.338
# Mean RMSD: 0.137
data_MOF--net-ptr--node1-UXUYUI_clean_sbu_0--node2-NAHDIM_clean_linker_0--edge1-XIVTED_clean_linker_0
_symmetry_space_group_name_H-M    P1
_symmetry_Int_Tables_number       1
_symmetry_cell_setting            triclinic
loop_
_symmetry_equiv_pos_as_xyz
'x, y, z'
_cell_length_a     111.10564
_cell_length_b     110.8992
_cell_length_c     91.134048
_cell_angle_alpha  90.839099
_cell_angle_beta   90.24726
_cell_angle_gamma 120.43919
loop_
_atom_site_label
_atom_site_type_symbol
_atom_site_fract_x
_atom_site_fract_y
_atom_site_fract_z
_atom_type_partial_charge
Li0 Li 0.99004 0.32855 0.00256 0.0
Li1 Li 0.01446 0.33957 0.01286 0.0
Li2 Li 0.99808 0.34828 0.02041 0.0
Li3 Li 0.00729 0.35153 0.99602 0.0
C4 C 0.98992 0.31731 0.0306 0.0
N5 N 0.97748 0.29224 0.0452 0.0
C6 C 0.99476 0.30797 0.02867 0.0
C7 C 0.97889 0.314 0.04014 0.0
C8 C 0.98829 0.29532 0.03609 0.0
C9 C 0.9727 0.30124 0.04736 0.0
C10 C 0.01348 0.33704 0.97884 0.0
C11 C 0.03357 0.34866 0.96333 0.0
N12 N 0.02499 0.34435 0.95132 0.0
C13 C 0.00484 0.33267 0.96637 0.0
C14 C 0.02796 0.34506 0.97735 0.0
C15 C 0.01087 0.3365 0.95253 0.0
C16 C 0.96447 0.3115 0.98714 0.0
N17 N 0.97497 0.31138 0.99472 0.0
C18 C 0.96576 0.28724 0.9883 0.0
C19 C 0.97584 0.2996 0.9953 0.0
C20 C 0.95472 0.28703 0.98046 0.0
C21 C 0.9541 0.29937 0.98011 0.0
H22 H 0.96431 0.32109 0.98611 0.0
H23 H 0.98467 0.29991 0.00069 0.0
C24 C 0.0314 0.33926 0.03511 0.0
N25 N 0.02794 0.3358 0.02073 0.0
C26 C 0.03957 0.33492 0.04242 0.0
C27 C 0.04086 0.32396 0.01982 0.0
C28 C 0.03264 0.32851 0.01293 0.0
C29 C 0.04417 0.32689 0.03485 0.0
H30 H 0.02728 0.34487 0.04105 0.0
H31 H 0.02954 0.32575 0.00155 0.0
C32 C 0.97515 0.34361 0.00462 0.0
N33 N 0.94954 0.34067 0.01112 0.0
C34 C 0.9713 0.35274 0.9987 0.0
C35 C 0.96601 0.33303 0.01391 0.0
C36 C 0.9583 0.35108 0.00211 0.0
C37 C 0.95309 0.33169 0.01703 0.0
C38 C 0.02907 0.37192 0.01286 0.0
C39 C 0.02708 0.3834 0.01267 0.0
C40 C 0.04247 0.37396 0.01126 0.0
C41 C 0.03858 0.39676 0.0107 0.0
C42 C 0.0537 0.38749 0.00934 0.0
N43 N 0.05153 0.39851 0.00909 0.0
C44 C 0.99471 0.35361 0.05017 0.0
C45 C 0.99194 0.36769 0.03271 0.0
C46 C 0.99377 0.36153 0.0617 0.0
N47 N 0.99398 0.35696 0.03604 0.0
C48 C 0.99098 0.3759 0.04385 0.0
C49 C 0.99223 0.37307 0.05857 0.0
H50 H 0.99661 0.34517 0.05247 0.0
H51 H 0.99163 0.37025 0.02137 0.0
C52 C 0.0007 0.36133 0.97159 0.0
N53 N 0.01203 0.36391 0.97979 0.0
C54 C 0.00191 0.37029 0.96041 0.0
C55 C 0.02665 0.38411 0.96568 0.0
C56 C 0.02497 0.37474 0.9767 0.0
C57 C 0.01493 0.38214 0.95763 0.0
H58 H 0.9906 0.35239 0.97391 0.0
H59 H 0.03394 0.37636 0.98296 0.0
O60 O 0.99625 0.32984 0.02361 0.0
O61 O 0.00777 0.33377 0.99247 0.0
O62 O 0.98798 0.34532 0.00167 0.0
O63 O 0.018 0.35878 0.01491 0.0
H64 H 0.00332 0.31037 0.02139 0.0
H65 H 0.97519 0.32122 0.04201 0.0
H66 H 0.99187 0.28796 0.03461 0.0
H67 H 0.96412 0.29852 0.05473 0.0
H68 H 0.04476 0.35493 0.962 0.0
H69 H 0.99361 0.32652 0.96738 0.0
H70 H 0.03476 0.34861 0.98694 0.0
H71 H 0.00432 0.33326 0.94277 0.0
H72 H 0.9669 0.27811 0.98857 0.0
H73 H 0.94578 0.29975 0.9743 0.0
H74 H 0.04165 0.33724 0.05405 0.0
H75 H 0.0443 0.31792 0.01352 0.0
H76 H 0.97832 0.3611 0.99163 0.0
H77 H 0.96881 0.32587 0.01852 0.0
H78 H 0.95519 0.35808 0.99761 0.0
H79 H 0.9459 0.32352 0.02416 0.0
H80 H 0.01677 0.38198 0.01389 0.0
H81 H 0.04418 0.36518 0.01147 0.0
H82 H 0.0372 0.40573 0.01044 0.0
H83 H 0.06414 0.38924 0.00804 0.0
H84 H 0.99494 0.3591 0.07289 0.0
H85 H 0.98965 0.38459 0.04097 0.0
H86 H 0.99266 0.36804 0.95417 0.0
H87 H 0.03692 0.39305 0.96388 0.0
Li88 Li 0.66742 0.65787 0.00533 0.0
Li89 Li 0.65534 0.66722 0.01952 0.0
Li90 Li 0.6504 0.64334 0.02289 0.0
Li91 Li 0.64265 0.6496 0.00072 0.0
C92 C 0.68199 0.66739 0.02953 0.0
N93 N 0.71066 0.68077 0.03312 0.0
C94 C 0.68987 0.68198 0.03076 0.0
C95 C 0.6887 0.65961 0.03013 0.0
C96 C 0.70435 0.68854 0.03259 0.0
C97 C 0.7032 0.66657 0.03194 0.0
C98 C 0.65605 0.67264 0.98527 0.0
C99 C 0.64221 0.67916 0.97056 0.0
N100 N 0.64964 0.67962 0.95854 0.0
C101 C 0.66355 0.67318 0.97276 0.0
C102 C 0.64531 0.67567 0.98417 0.0
C103 C 0.66015 0.67675 0.95936 0.0
C104 C 0.68938 0.65453 0.99295 0.0
N105 N 0.68495 0.66357 0.99653 0.0
C106 C 0.70633 0.68296 0.98843 0.0
C107 C 0.69308 0.67753 0.99436 0.0
C108 C 0.71137 0.67396 0.9848 0.0
C109 C 0.70266 0.65954 0.98709 0.0
H110 H 0.6827 0.64349 0.9948 0.0
H111 H 0.68925 0.68446 0.99728 0.0
C112 C 0.6604 0.685 0.04406 0.0
N113 N 0.65789 0.68361 0.02934 0.0
C114 C 0.66394 0.69755 0.05135 0.0
C115 C 0.66182 0.70683 0.02826 0.0
C116 C 0.6584 0.69414 0.02142 0.0
C117 C 0.66491 0.70875 0.04337 0.0
H118 H 0.66014 0.67652 0.05004 0.0
H119 H 0.65669 0.69289 0.0097 0.0
C120 C 0.6471 0.62454 0.00357 0.0
N121 N 0.63653 0.59636 0.00802 0.0
C122 C 0.63306 0.61492 0.00044 0.0
C123 C 0.65577 0.61983 0.00892 0.0
C124 C 0.62792 0.60072 0.00276 0.0
C125 C 0.65023 0.60554 0.01111 0.0
C126 C 0.63053 0.65449 0.03043 0.0
C127 C 0.63125 0.65284 0.04552 0.0
C128 C 0.62383 0.66139 0.0252 0.0
C129 C 0.62524 0.65816 0.05516 0.0
C130 C 0.61797 0.66658 0.03518 0.0
N131 N 0.6188 0.66487 0.04983 0.0
C132 C 0.65311 0.6262 0.04466 0.0
C133 C 0.6302 0.62052 0.03782 0.0
C134 C 0.6478 0.61513 0.05445 0.0
N135 N 0.64426 0.62863 0.03659 0.0
C136 C 0.62447 0.60953 0.04762 0.0
C137 C 0.63327 0.60663 0.05611 0.0
H138 H 0.66424 0.63278 0.04344 0.0
H139 H 0.62342 0.6227 0.03125 0.0
C140 C 0.6313 0.64171 0.97197 0.0
N141 N 0.62818 0.64259 0.98622 0.0
C142 C 0.62077 0.63622 0.96123 0.0
C143 C 0.60392 0.63192 0.98014 0.0
C144 C 0.61482 0.6378 0.99047 0.0
C145 C 0.6069 0.63116 0.96533 0.0
H146 H 0.64194 0.64512 0.96898 0.0
H147 H 0.6126 0.6383 0.00193 0.0
O148 O 0.66784 0.66078 0.02735 0.0
O149 O 0.65915 0.66907 0.99849 0.0
O150 O 0.65223 0.63854 0.0018 0.0
O151 O 0.63663 0.64965 0.02084 0.0
H152 H 0.68493 0.6882 0.03009 0.0
H153 H 0.68283 0.64835 0.02888 0.0
H154 H 0.71058 0.69982 0.03349 0.0
H155 H 0.70853 0.66069 0.03231 0.0
H156 H 0.63387 0.68145 0.96955 0.0
H157 H 0.67178 0.67071 0.97333 0.0
H158 H 0.63928 0.67514 0.99368 0.0
H159 H 0.66583 0.67716 0.94959 0.0
H160 H 0.71249 0.69409 0.9866 0.0
H161 H 0.70614 0.65222 0.98462 0.0
H162 H 0.66617 0.69858 0.06303 0.0
H163 H 0.6627 0.71526 0.02165 0.0
H164 H 0.62617 0.61838 0.9964 0.0
H165 H 0.6666 0.62714 0.01164 0.0
H166 H 0.61706 0.59316 0.00044 0.0
H167 H 0.65679 0.60175 0.01535 0.0
H168 H 0.63656 0.64769 0.04978 0.0
H169 H 0.62323 0.66281 0.01355 0.0
H170 H 0.62577 0.65701 0.06687 0.0
H171 H 0.61279 0.67198 0.03129 0.0
H172 H 0.65503 0.61321 0.06055 0.0
H173 H 0.61323 0.60356 0.04868 0.0
H174 H 0.62339 0.63557 0.94992 0.0
H175 H 0.5933 0.62802 0.98366 0.0
Li176 Li 0.34506 0.99518 0.99562 0.0
Li177 Li 0.35064 0.00733 0.01938 0.0
Li178 Li 0.32593 0.99004 0.01235 0.0
Li179 Li 0.33768 0.01297 0.00106 0.0
C180 C 0.34254 0.97498 0.01434 0.0
N181 N 0.3443 0.95107 0.0116 0.0
C182 C 0.3534 0.97427 0.02128 0.0
C183 C 0.33249 0.96348 0.00617 0.0
C184 C 0.35414 0.96211 0.01972 0.0
C185 C 0.33358 0.9515 0.00487 0.0
C186 C 0.36956 0.02739 0.99902 0.0
C187 C 0.38425 0.05253 0.99969 0.0
N188 N 0.39558 0.05121 0.99711 0.0
C189 C 0.38133 0.02631 0.99612 0.0
C190 C 0.37101 0.04062 0.00059 0.0
C191 C 0.3944 0.03846 0.99531 0.0
C192 C 0.34933 0.98855 0.96671 0.0
N193 N 0.35317 0.98929 0.98102 0.0
C194 C 0.37258 0.98683 0.97434 0.0
C195 C 0.36437 0.9882 0.985 0.0
C196 C 0.36931 0.98674 0.95942 0.0
C197 C 0.35726 0.98717 0.95564 0.0
H198 H 0.34059 0.98983 0.96385 0.0
H199 H 0.36747 0.98928 0.99642 0.0
C200 C 0.36199 0.01643 0.0485 0.0
N201 N 0.36433 0.01338 0.03466 0.0
C202 C 0.37166 0.0191 0.05978 0.0
C203 C 0.38579 0.01524 0.0424 0.0
C204 C 0.37595 0.01278 0.03147 0.0
C205 C 0.38362 0.01828 0.05681 0.0
H206 H 0.35241 0.01628 0.05094 0.0
H207 H 0.37727 0.00976 0.02054 0.0
C208 C 0.31443 0.98585 0.98464 0.0
N209 N 0.28856 0.96878 0.97165 0.0
C210 C 0.3046 0.99017 0.98407 0.0
C211 C 0.3112 0.97298 0.97833 0.0
C212 C 0.29155 0.98135 0.97754 0.0
C213 C 0.29804 0.96446 0.97188 0.0
C214 C 0.33413 0.01952 0.03026 0.0
C215 C 0.32225 0.0178 0.03736 0.0
C216 C 0.34663 0.03231 0.03149 0.0
C217 C 0.32303 0.02902 0.04538 0.0
C218 C 0.347 0.04326 0.03963 0.0
N219 N 0.33528 0.04141 0.04634 0.0
C220 C 0.30519 0.96502 0.02655 0.0
C221 C 0.29879 0.98153 0.0196 0.0
C222 C 0.29238 0.95699 0.0335 0.0
N223 N 0.30813 0.97707 0.01985 0.0
C224 C 0.28592 0.97388 0.02635 0.0
C225 C 0.28262 0.96151 0.03362 0.0
H226 H 0.31294 0.96188 0.02698 0.0
H227 H 0.3016 0.99141 0.01466 0.0
C228 C 0.33971 0.03097 0.97872 0.0
N229 N 0.33407 0.02619 0.99209 0.0
C230 C 0.33537 0.03858 0.97035 0.0
C231 C 0.31988 0.0366 0.98991 0.0
C232 C 0.32447 0.029 0.99786 0.0
C233 C 0.32505 0.04117 0.97578 0.0
H234 H 0.34708 0.02828 0.97427 0.0
H235 H 0.3198 0.02471 0.00827 0.0
O236 O 0.34177 0.98688 0.01556 0.0
O237 O 0.35663 0.0156 0.9996 0.0
O238 O 0.32727 0.99436 0.99098 0.0
O239 O 0.33349 0.00867 0.02224 0.0
H240 H 0.36122 0.98302 0.02775 0.0
H241 H 0.3239 0.96378 0.00096 0.0
H242 H 0.36253 0.96144 0.02496 0.0
H243 H 0.32588 0.94254 0.99854 0.0
H244 H 0.38551 0.06282 0.00097 0.0
H245 H 0.38041 0.0162 0.99454 0.0
H246 H 0.362 0.04173 0.00237 0.0
H247 H 0.4036 0.03775 0.99319 0.0
H248 H 0.38172 0.98642 0.97773 0.0
H249 H 0.35447 0.98731 0.94427 0.0
H250 H 0.36949 0.02117 0.07081 0.0
H251 H 0.39488 0.01451 0.03965 0.0
H252 H 0.30698 0.00018 0.9887 0.0
H253 H 0.31882 0.96965 0.97827 0.0
H254 H 0.28381 0.98451 0.97714 0.0
H255 H 0.29539 0.95445 0.96701 0.0
H256 H 0.31251 0.00794 0.03664 0.0
H257 H 0.356 0.03367 0.02646 0.0
H258 H 0.31389 0.02786 0.05087 0.0
H259 H 0.35662 0.05321 0.04068 0.0
H260 H 0.29026 0.94751 0.03895 0.0
H261 H 0.27891 0.97799 0.02646 0.0
H262 H 0.33951 0.04171 0.95944 0.0
H263 H 0.31202 0.03847 0.9946 0.0
Li264 Li 0.01097 0.67285 0.018 0.0
Li265 Li 0.99483 0.64912 0.0243 0.0
Li266 Li 0.00442 0.65413 0.00031 0.0
Li267 Li 0.98789 0.66096 0.00728 0.0
C268 C 0.02864 0.66218 0.01632 0.0
N269 N 0.05654 0.67211 0.0108 0.0
C270 C 0.03573 0.65652 0.02351 0.0
C271 C 0.03577 0.67294 0.00635 0.0
C272 C 0.04983 0.66167 0.02057 0.0
C273 C 0.04986 0.67779 0.0037 0.0
C274 C 0.99537 0.66956 0.04276 0.0
C275 C 0.99046 0.67893 0.06446 0.0
N276 N 0.00025 0.67755 0.07204 0.0
C277 C 0.00539 0.66823 0.05076 0.0
C278 C 0.98785 0.67496 0.04964 0.0
C279 C 0.00769 0.67232 0.06555 0.0
C280 C 0.0213 0.70091 0.02102 0.0
N281 N 0.02428 0.69097 0.02512 0.0
C282 C 0.04301 0.70747 0.04061 0.0
C283 C 0.03494 0.69394 0.03462 0.0
C284 C 0.03985 0.71783 0.0369 0.0
C285 C 0.02898 0.71446 0.0268 0.0
H286 H 0.01266 0.69816 0.01355 0.0
H287 H 0.0369 0.68575 0.0379 0.0
C288 C 0.99661 0.62878 0.03962 0.0
N289 N 0.98946 0.63572 0.03933 0.0
C290 C 0.99424 0.61928 0.05066 0.0
C291 C 0.97676 0.62384 0.06065 0.0
C292 C 0.9796 0.6334 0.04947 0.0
C293 C 0.98428 0.61679 0.06142 0.0
H294 H 0.00431 0.63076 0.03134 0.0
H295 H 0.97412 0.63913 0.04903 0.0
C296 C 0.00342 0.67398 0.98279 0.0
N297 N 0.9985 0.67735 0.95382 0.0
C298 C 0.99368 0.66249 0.97434 0.0
C299 C 0.01064 0.68718 0.97652 0.0
C300 C 0.99135 0.66441 0.95971 0.0
C301 C 0.00801 0.68867 0.96185 0.0
C302 C 0.97074 0.63225 0.00806 0.0
C303 C 0.96404 0.61927 0.00074 0.0
C304 C 0.9633 0.6356 0.01803 0.0
C305 C 0.95 0.60981 0.00357 0.0
C306 C 0.94928 0.62586 0.02057 0.0
N307 N 0.94298 0.61327 0.01335 0.0
C308 C 0.00318 0.63229 0.98415 0.0
C309 C 0.01921 0.65435 0.9743 0.0
C310 C 0.00528 0.62537 0.97244 0.0
N311 N 0.00992 0.64648 0.98473 0.0
C312 C 0.02171 0.64784 0.9624 0.0
C313 C 0.01448 0.63316 0.96125 0.0
H314 H 0.99594 0.62634 0.99268 0.0
H315 H 0.02437 0.66563 0.97499 0.0
C316 C 0.97715 0.67819 0.00471 0.0
N317 N 0.97444 0.66528 0.00035 0.0
C318 C 0.96969 0.68391 0.99865 0.0
C319 C 0.9563 0.66271 0.98409 0.0
C320 C 0.96414 0.65739 0.9904 0.0
C321 C 0.9593 0.67628 0.98798 0.0
H322 H 0.98553 0.68425 0.01251 0.0
H323 H 0.96241 0.64727 0.98689 0.0
O324 O 0.01485 0.65721 0.01921 0.0
O325 O 0.99293 0.66573 0.02823 0.0
O326 O 0.00586 0.67246 0.99718 0.0
O327 O 0.98448 0.64157 0.00529 0.0
H328 H 0.03041 0.64824 0.03132 0.0
H329 H 0.03057 0.67757 0.00075 0.0
H330 H 0.05543 0.65737 0.02606 0.0
H331 H 0.05549 0.68611 0.99602 0.0
H332 H 0.98471 0.68313 0.06993 0.0
H333 H 0.01134 0.66411 0.04564 0.0
H334 H 0.98007 0.67607 0.04358 0.0
H335 H 0.01542 0.67136 0.07188 0.0
H336 H 0.05126 0.70966 0.04845 0.0
H337 H 0.02635 0.72219 0.02349 0.0
H338 H 0.00012 0.61393 0.05077 0.0
H339 H 0.96907 0.62226 0.06881 0.0
H340 H 0.98796 0.6522 0.979 0.0
H341 H 0.01819 0.69618 0.98293 0.0
H342 H 0.98384 0.65561 0.95305 0.0
H343 H 0.01352 0.69883 0.95685 0.0
H344 H 0.96962 0.61653 0.99293 0.0
H345 H 0.96821 0.6456 0.02375 0.0
H346 H 0.9447 0.59973 0.99799 0.0
H347 H 0.94341 0.62831 0.02826 0.0
H348 H 0.99967 0.61405 0.97207 0.0
H349 H 0.02881 0.65421 0.95394 0.0
H350 H 0.97219 0.69433 0.00209 0.0
H351 H 0.94844 0.65654 0.97582 0.0
Li352 Li 0.33857 0.34922 0.01072 0.0
Li353 Li 0.36297 0.35535 0.01522 0.0
Li354 Li 0.35602 0.3623 0.99267 0.0
Li355 Li 0.34906 0.33788 0.99536 0.0
C356 C 0.35127 0.37536 0.02201 0.0
N357 N 0.3425 0.38966 0.03995 0.0
C358 C 0.35703 0.37979 0.03609 0.0
C359 C 0.3411 0.37826 0.01702 0.0
C360 C 0.35245 0.387 0.045 0.0
C361 C 0.33679 0.38549 0.02627 0.0
C362 C 0.34223 0.32698 0.02695 0.0
C363 C 0.34015 0.30528 0.03467 0.0
N364 N 0.33456 0.30634 0.04753 0.0
C365 C 0.3364 0.3278 0.04021 0.0
C366 C 0.34407 0.31558 0.02412 0.0
C367 C 0.33262 0.31729 0.05049 0.0
C368 C 0.30983 0.3343 0.01181 0.0
N369 N 0.32112 0.34413 0.01957 0.0
C370 C 0.30658 0.34291 0.03946 0.0
C371 C 0.31976 0.34852 0.03317 0.0
C372 C 0.2948 0.33247 0.03182 0.0
C373 C 0.29652 0.32828 0.01776 0.0
H374 H 0.31123 0.33082 0.00115 0.0
H375 H 0.3289 0.35596 0.03939 0.0
C376 C 0.39062 0.36913 0.02686 0.0
N377 N 0.37693 0.36082 0.03022 0.0
C378 C 0.40091 0.37372 0.03785 0.0
C379 C 0.3828 0.36121 0.05554 0.0
C380 C 0.37289 0.35685 0.04422 0.0
C381 C 0.39703 0.36983 0.05245 0.0
H382 H 0.39354 0.37234 0.01566 0.0
H383 H 0.36195 0.35052 0.04668 0.0
C384 C 0.3337 0.34848 0.97607 0.0
N385 N 0.32736 0.35511 0.94914 0.0
C386 C 0.33748 0.34436 0.96316 0.0
C387 C 0.3266 0.35585 0.97531 0.0
C388 C 0.3342 0.34784 0.94964 0.0
C389 C 0.32352 0.35914 0.96158 0.0
C390 C 0.3778 0.34947 0.99375 0.0
C391 C 0.38748 0.35361 0.98243 0.0
C392 C 0.37762 0.34049 0.00446 0.0
C393 C 0.39678 0.34864 0.98199 0.0
C394 C 0.3871 0.33575 0.00365 0.0
N395 N 0.3964 0.33988 0.99252 0.0
C396 C 0.3597 0.3873 0.97984 0.0
C397 C 0.36819 0.37494 0.96608 0.0
C398 C 0.36368 0.39724 0.96888 0.0
N399 N 0.36193 0.37639 0.97821 0.0
C400 C 0.37238 0.38465 0.95487 0.0
C401 C 0.37009 0.39598 0.95614 0.0
H402 H 0.35472 0.38823 0.98958 0.0
H403 H 0.36978 0.36612 0.96506 0.0
C404 C 0.32937 0.31142 0.98733 0.0
N405 N 0.34331 0.32034 0.98605 0.0
C406 C 0.32309 0.29804 0.98106 0.0
C407 C 0.34567 0.30315 0.97226 0.0
C408 C 0.35153 0.31655 0.97864 0.0
C409 C 0.33124 0.29373 0.9734 0.0
H410 H 0.32313 0.31475 0.9933 0.0
H411 H 0.36257 0.32388 0.97762 0.0
O412 O 0.35567 0.36835 0.01313 0.0
O413 O 0.34578 0.33705 0.01662 0.0
O414 O 0.33717 0.34552 0.98939 0.0
O415 O 0.36856 0.35419 0.99421 0.0
H416 H 0.36498 0.37773 0.04009 0.0
H417 H 0.33642 0.37478 0.00623 0.0
H418 H 0.3568 0.39047 0.05593 0.0
H419 H 0.32887 0.38772 0.02258 0.0
H420 H 0.34154 0.29643 0.03262 0.0
H421 H 0.33498 0.33656 0.04265 0.0
H422 H 0.34847 0.31467 0.01389 0.0
H423 H 0.32816 0.31785 0.06083 0.0
H424 H 0.30567 0.34627 0.05041 0.0
H425 H 0.28768 0.32032 0.01149 0.0
H426 H 0.41174 0.38049 0.03499 0.0
H427 H 0.37933 0.35784 0.0666 0.0
H428 H 0.34304 0.33869 0.96358 0.0
H429 H 0.32356 0.35906 0.98523 0.0
H430 H 0.33714 0.34481 0.93955 0.0
H431 H 0.31809 0.36491 0.96082 0.0
H432 H 0.38778 0.36058 0.97406 0.0
H433 H 0.37031 0.33727 0.01335 0.0
H434 H 0.40431 0.35173 0.97328 0.0
H435 H 0.38706 0.3288 0.01187 0.0
H436 H 0.36151 0.40566 0.97027 0.0
H437 H 0.37744 0.38332 0.94537 0.0
H438 H 0.31199 0.29105 0.98242 0.0
H439 H 0.35229 0.30024 0.96637 0.0
Li440 Li 0.66304 0.99236 0.01454 0.0
Li441 Li 0.65727 0.01028 0.02176 0.0
Li442 Li 0.65299 0.0003 0.99591 0.0
Li443 Li 0.67672 0.01634 0.00481 0.0
C444 C 0.63552 0.97773 0.01967 0.0
N445 N 0.61775 0.95133 0.03017 0.0
C446 C 0.63071 0.9761 0.03406 0.0
C447 C 0.63115 0.96597 0.01056 0.0
C448 C 0.62177 0.96266 0.03918 0.0
C449 C 0.62221 0.9527 0.01609 0.0
C450 C 0.68321 0.01957 0.03605 0.0
C451 C 0.6967 0.04326 0.04541 0.0
N452 N 0.70023 0.03855 0.05746 0.0
C453 C 0.687 0.01496 0.04847 0.0
C454 C 0.68812 0.03382 0.03446 0.0
C455 C 0.6956 0.02472 0.0592 0.0
C456 C 0.67335 0.97388 0.01455 0.0
N457 N 0.66547 0.97793 0.02216 0.0
C458 C 0.66574 0.96544 0.04315 0.0
C459 C 0.66148 0.97378 0.03613 0.0
C460 C 0.67453 0.96168 0.03586 0.0
C461 C 0.678 0.96568 0.0212 0.0
H462 H 0.67678 0.97774 0.00363 0.0
H463 H 0.65568 0.97759 0.04214 0.0
C464 C 0.63927 0.01861 0.03305 0.0
N465 N 0.6492 0.01553 0.037 0.0
C466 C 0.63081 0.01967 0.04367 0.0
C467 C 0.64337 0.01494 0.06228 0.0
C468 C 0.65158 0.01397 0.0513 0.0
C469 C 0.63252 0.01739 0.05848 0.0
H470 H 0.6374 0.01946 0.02156 0.0
H471 H 0.65927 0.01114 0.0541 0.0
C472 C 0.66948 0.99303 0.98067 0.0
N473 N 0.66928 0.98274 0.95282 0.0
C474 C 0.67795 0.00206 0.96978 0.0
C475 C 0.66104 0.97875 0.97745 0.0
C476 C 0.67766 0.99665 0.95576 0.0
C477 C 0.66105 0.97376 0.96329 0.0
C478 C 0.66559 0.03341 0.99824 0.0
C479 C 0.66813 0.03664 0.9834 0.0
C480 C 0.6675 0.04381 0.00842 0.0
C481 C 0.67267 0.05029 0.97899 0.0
C482 C 0.67208 0.05733 0.00358 0.0
N483 N 0.67455 0.06027 0.98909 0.0
C484 C 0.6265 0.9875 0.98218 0.0
C485 C 0.64534 6e-05 0.96606 0.0
C486 C 0.61687 0.98459 0.97082 0.0
N487 N 0.64044 0.99517 0.97963 0.0
C488 C 0.63611 0.99736 0.95439 0.0
C489 C 0.62165 0.9897 0.95672 0.0
H490 H 0.62286 0.98396 0.99313 0.0
H491 H 0.65642 0.00633 0.96432 0.0
C492 C 0.70297 0.02278 0.99775 0.0
N493 N 0.69534 0.02918 0.99903 0.0
C494 C 0.71644 0.02993 0.99223 0.0
C495 C 0.71432 0.05047 0.99003 0.0
C496 C 0.70082 0.04287 0.99563 0.0
C497 C 0.72221 0.04389 0.98799 0.0
H498 H 0.6984 0.01192 0.0007 0.0
H499 H 0.69472 0.04788 0.99702 0.0
O500 O 0.64434 0.9908 0.01448 0.0
O501 O 0.67476 0.01012 0.02552 0.0
O502 O 0.66964 0.99812 0.99447 0.0
O503 O 0.66095 0.02007 0.00276 0.0
H504 H 0.63392 0.98511 0.04123 0.0
H505 H 0.6346 0.96708 0.99933 0.0
H506 H 0.61804 0.96123 0.05032 0.0
H507 H 0.61878 0.94349 0.00917 0.0
H508 H 0.70058 0.05433 0.04433 0.0
H509 H 0.68329 0.00394 0.04983 0.0
H510 H 0.68537 0.03755 0.02486 0.0
H511 H 0.69858 0.0213 0.0689 0.0
H512 H 0.66265 0.96247 0.05438 0.0
H513 H 0.68495 0.96328 0.01521 0.0
H514 H 0.62246 0.02136 0.04019 0.0
H515 H 0.64512 0.01321 0.07356 0.0
H516 H 0.68452 0.01315 0.97206 0.0
H517 H 0.6546 0.9716 0.98581 0.0
H518 H 0.68408 0.00353 0.94719 0.0
H519 H 0.65453 0.96274 0.96063 0.0
H520 H 0.66676 0.02876 0.97539 0.0
H521 H 0.66548 0.04147 0.01994 0.0
H522 H 0.67475 0.05296 0.96755 0.0
H523 H 0.67365 0.06549 0.01135 0.0
H524 H 0.60583 0.97881 0.97318 0.0
H525 H 0.64028 0.00136 0.94368 0.0
H526 H 0.72225 0.02453 0.99124 0.0
H527 H 0.71837 0.06123 0.98694 0.0
Li528 Li 0.65519 0.66451 0.33295 0.0
Li529 Li 0.67527 0.67431 0.35001 0.0
Li530 Li 0.65724 0.68113 0.35115 0.0
Li531 Li 0.67344 0.68929 0.33144 0.0
C532 C 0.64607 0.64877 0.35657 0.0
N533 N 0.62776 0.62045 0.35958 0.0
C534 C 0.65101 0.64001 0.36095 0.0
C535 C 0.6318 0.64315 0.35388 0.0
C536 C 0.64159 0.62571 0.36238 0.0
C537 C 0.62272 0.6288 0.35541 0.0
C538 C 0.6808 0.67319 0.31497 0.0
C539 C 0.70036 0.67825 0.29957 0.0
N540 N 0.69203 0.67524 0.28748 0.0
C541 C 0.67242 0.67008 0.30239 0.0
C542 C 0.69487 0.67725 0.31356 0.0
C543 C 0.67829 0.6712 0.2886 0.0
C544 C 0.63336 0.64654 0.31262 0.0
N545 N 0.64367 0.64787 0.32178 0.0
C546 C 0.63979 0.62549 0.31413 0.0
C547 C 0.647 0.63769 0.32264 0.0
C548 C 0.6293 0.62387 0.30423 0.0
C549 C 0.62602 0.63458 0.30366 0.0
H550 H 0.63114 0.65496 0.31193 0.0
H551 H 0.65543 0.63916 0.32982 0.0
C552 C 0.68944 0.67259 0.37513 0.0
N553 N 0.68684 0.66945 0.36058 0.0
C554 C 0.69676 0.66764 0.38315 0.0
C555 C 0.6988 0.65665 0.36092 0.0
C556 C 0.69145 0.66179 0.35336 0.0
C557 C 0.70134 0.65935 0.37608 0.0
H558 H 0.68548 0.67858 0.38057 0.0
H559 H 0.68907 0.65934 0.34181 0.0
C560 C 0.64406 0.68582 0.33068 0.0
N561 N 0.62628 0.6963 0.33333 0.0
C562 C 0.64923 0.70017 0.32951 0.0
C563 C 0.62984 0.67679 0.33311 0.0
C564 C 0.64007 0.70527 0.33089 0.0
C565 C 0.62103 0.68229 0.33445 0.0
C566 C 0.69167 0.7032 0.35555 0.0
C567 C 0.69519 0.71507 0.36422 0.0
C568 C 0.70224 0.70116 0.35003 0.0
C569 C 0.70926 0.72477 0.36709 0.0
C570 C 0.71617 0.71108 0.35318 0.0
N571 N 0.71937 0.7226 0.36156 0.0
C572 C 0.63661 0.67782 0.37208 0.0
C573 C 0.65363 0.70107 0.36618 0.0
C574 C 0.63064 0.68271 0.3823 0.0
N575 N 0.64794 0.68703 0.36436 0.0
C576 C 0.64804 0.7064 0.37628 0.0
C577 C 0.6365 0.69719 0.38464 0.0
H578 H 0.63238 0.66671 0.37052 0.0
H579 H 0.66261 0.70813 0.35984 0.0
C580 C 0.67577 0.70155 0.30451 0.0
N581 N 0.68272 0.70395 0.31752 0.0
C582 C 0.68099 0.71154 0.29356 0.0
C583 C 0.70043 0.72652 0.30961 0.0
C584 C 0.69485 0.71619 0.32024 0.0
C585 C 0.69345 0.7243 0.29607 0.0
H586 H 0.66599 0.6919 0.30269 0.0
H587 H 0.70011 0.71819 0.33069 0.0
O588 O 0.65516 0.66277 0.35493 0.0
O589 O 0.67529 0.67231 0.32859 0.0
O590 O 0.65291 0.68067 0.32971 0.0
O591 O 0.67794 0.6935 0.35288 0.0
H592 H 0.662 0.64417 0.36316 0.0
H593 H 0.62781 0.64977 0.35044 0.0
H594 H 0.64527 0.6188 0.3657 0.0
H595 H 0.61166 0.62429 0.35324 0.0
H596 H 0.71124 0.68141 0.29833 0.0
H597 H 0.66156 0.66706 0.30323 0.0
H598 H 0.70152 0.67959 0.32315 0.0
H599 H 0.67194 0.66891 0.27877 0.0
H600 H 0.64254 0.61747 0.31525 0.0
H601 H 0.61821 0.63396 0.29607 0.0
H602 H 0.69836 0.66985 0.39484 0.0
H603 H 0.7023 0.65048 0.35499 0.0
H604 H 0.66022 0.70732 0.32775 0.0
H605 H 0.62568 0.66566 0.33405 0.0
H606 H 0.64394 0.71636 0.3301 0.0
H607 H 0.61002 0.67544 0.33641 0.0
H608 H 0.68715 0.71676 0.36869 0.0
H609 H 0.69971 0.69208 0.3433 0.0
H610 H 0.71213 0.73402 0.37375 0.0
H611 H 0.72444 0.70964 0.34893 0.0
H612 H 0.62183 0.67525 0.38862 0.0
H613 H 0.65275 0.71763 0.37757 0.0
H614 H 0.6753 0.70928 0.28326 0.0
H615 H 0.70992 0.73629 0.31216 0.0
Li616 Li 0.30091 0.97939 0.34456 0.0
Li617 Li 0.3081 0.97147 0.36582 0.0
Li618 Li 0.31666 0.99644 0.36235 0.0
Li619 Li 0.32484 0.98387 0.34699 0.0
C620 C 0.28371 0.9777 0.36492 0.0
N621 N 0.25591 0.96988 0.36214 0.0
C622 C 0.2733 0.96387 0.36734 0.0
C623 C 0.28 0.98757 0.36117 0.0
C624 C 0.2593 0.96012 0.36587 0.0
C625 C 0.26588 0.9834 0.35978 0.0
C626 C 0.31081 0.95908 0.33473 0.0
C627 C 0.32388 0.94813 0.32718 0.0
N628 N 0.31906 0.94705 0.3132 0.0
C629 C 0.30603 0.9579 0.32026 0.0
C630 C 0.31983 0.95417 0.33821 0.0
C631 C 0.3103 0.95175 0.30955 0.0
C632 C 0.28527 0.98291 0.32162 0.0
N633 N 0.28572 0.97385 0.33119 0.0
C634 C 0.26503 0.95477 0.32051 0.0
C635 C 0.2758 0.96006 0.33095 0.0
C636 C 0.26447 0.96376 0.31021 0.0
C637 C 0.27461 0.97807 0.31101 0.0
H638 H 0.2934 0.99379 0.32192 0.0
H639 H 0.27652 0.95308 0.3386 0.0
C640 C 0.29617 0.95839 0.39265 0.0
N641 N 0.30175 0.95703 0.37991 0.0
C642 C 0.29094 0.94769 0.40287 0.0
C643 C 0.29766 0.93459 0.38685 0.0
C644 C 0.30255 0.94543 0.37686 0.0
C645 C 0.29165 0.93559 0.39999 0.0
H646 H 0.29564 0.96774 0.39476 0.0
H647 H 0.30684 0.94452 0.36661 0.0
C648 C 0.32451 0.01054 0.33745 0.0
N649 N 0.33705 0.03882 0.33214 0.0
C650 C 0.33856 0.01813 0.33354 0.0
C651 C 0.31681 0.01731 0.33854 0.0
C652 C 0.34472 0.03243 0.33092 0.0
C653 C 0.32335 0.03162 0.33586 0.0
C654 C 0.33054 0.98437 0.38166 0.0
C655 C 0.32875 0.99048 0.39435 0.0
C656 C 0.33478 0.97451 0.38285 0.0
C657 C 0.33123 0.98661 0.40805 0.0
C658 C 0.33713 0.9709 0.39675 0.0
N659 N 0.33532 0.97697 0.40896 0.0
C660 C 0.315 0.01688 0.38068 0.0
C661 C 0.33713 0.0233 0.3709 0.0
C662 C 0.32072 0.0296 0.3885 0.0
N663 N 0.32327 0.01401 0.37214 0.0
C664 C 0.34321 0.0362 0.37825 0.0
C665 C 0.33508 0.03946 0.38744 0.0
H666 H 0.30406 0.00915 0.38174 0.0
H667 H 0.34351 0.02059 0.3643 0.0
C668 C 0.34055 0.98594 0.32176 0.0
N669 N 0.34058 0.98589 0.33668 0.0
C670 C 0.35189 0.98702 0.31407 0.0
C671 C 0.36324 0.98846 0.33727 0.0
C672 C 0.35166 0.98727 0.34449 0.0
C673 C 0.36343 0.98827 0.32185 0.0
H674 H 0.33167 0.98506 0.31585 0.0
H675 H 0.35149 0.98741 0.35633 0.0
O676 O 0.29748 0.98151 0.36599 0.0
O677 O 0.30691 0.96525 0.34535 0.0
O678 O 0.31834 0.99658 0.34023 0.0
O679 O 0.32777 0.98771 0.36816 0.0
H680 H 0.276 0.95607 0.37014 0.0
H681 H 0.28793 0.99831 0.35925 0.0
H682 H 0.25113 0.94944 0.36763 0.0
H683 H 0.26285 0.99091 0.35682 0.0
H684 H 0.33094 0.9444 0.32972 0.0
H685 H 0.29925 0.96182 0.31725 0.0
H686 H 0.32397 0.95533 0.34924 0.0
H687 H 0.30669 0.9508 0.29832 0.0
H688 H 0.25734 0.9437 0.32037 0.0
H689 H 0.27462 0.98532 0.30318 0.0
H690 H 0.28642 0.94885 0.41292 0.0
H691 H 0.29822 0.92534 0.38414 0.0
H692 H 0.34469 0.01308 0.33268 0.0
H693 H 0.30595 0.01161 0.34159 0.0
H694 H 0.3556 0.03845 0.32796 0.0
H695 H 0.31755 0.03701 0.33676 0.0
H696 H 0.32534 0.99803 0.39366 0.0
H697 H 0.336 0.9695 0.37315 0.0
H698 H 0.32984 0.99123 0.41797 0.0
H699 H 0.34032 0.96321 0.39784 0.0
H700 H 0.31404 0.03148 0.39562 0.0
H701 H 0.35423 0.04347 0.37677 0.0
H702 H 0.3517 0.98703 0.30219 0.0
H703 H 0.37186 0.98929 0.34369 0.0
Li704 Li 0.02442 0.32451 0.3306 0.0
Li705 Li 0.03208 0.33809 0.35378 0.0
Li706 Li 0.0063 0.323 0.34748 0.0
Li707 Li 0.0212 0.34498 0.33524 0.0
C708 C 0.01964 0.30488 0.3536 0.0
N709 N 0.01784 0.27956 0.35906 0.0
C710 C 0.03093 0.30454 0.35997 0.0
C711 C 0.00734 0.29232 0.35027 0.0
C712 C 0.02985 0.29164 0.36257 0.0
C713 C 0.00666 0.27964 0.35305 0.0
C714 C 0.05299 0.35218 0.33433 0.0
C715 C 0.07436 0.37284 0.34218 0.0
N716 N 0.08181 0.36735 0.33627 0.0
C717 C 0.06087 0.3468 0.32824 0.0
C718 C 0.05979 0.36535 0.34126 0.0
C719 C 0.07542 0.35462 0.32936 0.0
C720 C 0.02773 0.31807 0.30172 0.0
N721 N 0.02926 0.31536 0.31589 0.0
C722 C 0.03966 0.30204 0.30817 0.0
C723 C 0.03503 0.30746 0.31928 0.0
C724 C 0.03846 0.3049 0.29344 0.0
C725 C 0.03225 0.3129 0.29027 0.0
H726 H 0.02325 0.32452 0.29935 0.0
H727 H 0.03654 0.30578 0.33058 0.0
C728 C 0.04396 0.3504 0.38148 0.0
N729 N 0.04581 0.34452 0.36913 0.0
C730 C 0.05419 0.35581 0.39257 0.0
C731 C 0.06794 0.34887 0.3781 0.0
C732 C 0.05737 0.34343 0.36741 0.0
C733 C 0.06644 0.35524 0.39083 0.0
H734 H 0.03461 0.35101 0.38265 0.0
H735 H 0.05848 0.33845 0.35765 0.0
C736 C 0.9968 0.31643 0.3181 0.0
N737 N 0.97433 0.29601 0.30206 0.0
C738 C 0.98767 0.31965 0.31088 0.0
C739 C 0.99461 0.30289 0.31695 0.0
C740 C 0.97634 0.30916 0.3029 0.0
C741 C 0.98317 0.2927 0.30885 0.0
C742 C 0.01474 0.3531 0.35968 0.0
C743 C 0.00124 0.35098 0.3604 0.0
C744 C 0.02621 0.36654 0.36196 0.0
C745 C 0.99945 0.36241 0.36312 0.0
C746 C 0.02399 0.3777 0.36463 0.0
N747 N 0.01077 0.37542 0.36513 0.0
C748 C 0.98603 0.30323 0.36676 0.0
C749 C 0.9774 0.31249 0.34904 0.0
C750 C 0.97275 0.2954 0.37278 0.0
N751 N 0.98807 0.31151 0.35507 0.0
C752 C 0.964 0.30493 0.35475 0.0
C753 C 0.96154 0.2963 0.36684 0.0
H754 H 0.99477 0.3029 0.37157 0.0
H755 H 0.97936 0.31943 0.34002 0.0
C756 C 0.033 0.37163 0.3221 0.0
N757 N 0.02093 0.3603 0.32644 0.0
C758 C 0.03283 0.38304 0.31605 0.0
C759 C 0.00777 0.37077 0.3188 0.0
C760 C 0.00844 0.35961 0.3248 0.0
C761 C 0.02009 0.38273 0.31439 0.0
H762 H 0.04278 0.37186 0.3234 0.0
H763 H 0.999 0.35044 0.32831 0.0
O764 O 0.02052 0.31744 0.35108 0.0
O765 O 0.03871 0.34462 0.33343 0.0
O766 O 0.00793 0.32659 0.32601 0.0
O767 O 0.01671 0.34211 0.35666 0.0
H768 H 0.04047 0.31412 0.36279 0.0
H769 H 0.99834 0.29233 0.34576 0.0
H770 H 0.03855 0.29124 0.36738 0.0
H771 H 0.99721 0.26985 0.35048 0.0
H772 H 0.07974 0.38299 0.34761 0.0
H773 H 0.05583 0.33669 0.32274 0.0
H774 H 0.05389 0.36972 0.346 0.0
H775 H 0.08164 0.35055 0.32475 0.0
H776 H 0.0446 0.29613 0.31113 0.0
H777 H 0.031 0.31525 0.27906 0.0
H778 H 0.05268 0.36067 0.40223 0.0
H779 H 0.07714 0.34804 0.37646 0.0
H780 H 0.98928 0.33011 0.3115 0.0
H781 H 0.00174 0.30029 0.32212 0.0
H782 H 0.96914 0.31149 0.29735 0.0
H783 H 0.98135 0.28216 0.30791 0.0
H784 H 0.99223 0.34066 0.35875 0.0
H785 H 0.03672 0.36835 0.3616 0.0
H786 H 0.98906 0.36093 0.36359 0.0
H787 H 0.03279 0.38817 0.36631 0.0
H788 H 0.97135 0.28903 0.38223 0.0
H789 H 0.95565 0.30587 0.34977 0.0
H790 H 0.0426 0.39209 0.31297 0.0
H791 H 0.99769 0.36997 0.31753 0.0
Li792 Li 0.67709 0.9878 0.35125 0.0
Li793 Li 0.66221 0.96307 0.35772 0.0
Li794 Li 0.67581 0.96996 0.33491 0.0
Li795 Li 0.65519 0.97211 0.33635 0.0
C796 C 0.6942 0.98028 0.36455 0.0
N797 N 0.71723 0.99372 0.38304 0.0
C798 C 0.69327 0.97626 0.37916 0.0
C799 C 0.70686 0.99107 0.35932 0.0
C800 C 0.70503 0.9832 0.38834 0.0
C801 C 0.71837 0.99776 0.36885 0.0
C802 C 0.6499 0.98025 0.36783 0.0
C803 C 0.62845 0.97826 0.37642 0.0
N804 N 0.63518 0.9855 0.38887 0.0
C805 C 0.65659 0.98772 0.38069 0.0
C806 C 0.63571 0.97552 0.36565 0.0
C807 C 0.64898 0.99024 0.39121 0.0
C808 C 0.68836 0.01671 0.34996 0.0
N809 N 0.68772 0.00658 0.35872 0.0
C810 C 0.69975 0.02336 0.37804 0.0
C811 C 0.69336 0.00968 0.3725 0.0
C812 C 0.7002 0.03398 0.36941 0.0
C813 C 0.69459 0.03054 0.35509 0.0
H814 H 0.68361 0.01394 0.33913 0.0
H815 H 0.69249 0.00148 0.37943 0.0
C816 C 0.65276 0.93671 0.37019 0.0
N817 N 0.65528 0.94985 0.37319 0.0
C818 C 0.64692 0.92639 0.38079 0.0
C819 C 0.64699 0.94345 0.39763 0.0
C820 C 0.65273 0.95341 0.38667 0.0
C821 C 0.64383 0.92968 0.39469 0.0
H822 H 0.65513 0.9342 0.35948 0.0
H823 H 0.65509 0.96395 0.38893 0.0
C824 C 0.68104 0.99001 0.31685 0.0
N825 N 0.69543 0.99662 0.29081 0.0
C826 C 0.67388 0.98438 0.30358 0.0
C827 C 0.69548 0.99911 0.31689 0.0
C828 C 0.68136 0.98783 0.29052 0.0
C829 C 0.70258 0.0023 0.3036 0.0
C830 C 0.64302 0.94306 0.33734 0.0
C831 C 0.63987 0.93162 0.32812 0.0
C832 C 0.63277 0.94252 0.34659 0.0
C833 C 0.62647 0.91986 0.32825 0.0
C834 C 0.6195 0.93057 0.34642 0.0
N835 N 0.61664 0.91958 0.33731 0.0
C836 C 0.69931 0.96962 0.32249 0.0
C837 C 0.67778 0.95682 0.30955 0.0
C838 C 0.70605 0.96615 0.31174 0.0
N839 N 0.68545 0.96499 0.32114 0.0
C840 C 0.68406 0.95307 0.29859 0.0
C841 C 0.69841 0.95782 0.29954 0.0
H842 H 0.70518 0.97612 0.3318 0.0
H843 H 0.66678 0.95336 0.30874 0.0
C844 C 0.63787 0.98242 0.32743 0.0
N845 N 0.64044 0.97176 0.32542 0.0
C846 C 0.62757 0.9829 0.31905 0.0
C847 C 0.62287 0.96149 0.30664 0.0
C848 C 0.6333 0.96147 0.31519 0.0
C849 C 0.61991 0.97233 0.30849 0.0
H850 H 0.64391 0.9906 0.33548 0.0
H851 H 0.63587 0.95339 0.31343 0.0
O852 O 0.68281 0.97356 0.3554 0.0
O853 O 0.65725 0.97791 0.35725 0.0
O854 O 0.67398 0.98644 0.32978 0.0
O855 O 0.6561 0.95465 0.3373 0.0
H856 H 0.68358 0.96789 0.38337 0.0
H857 H 0.70773 0.99439 0.34809 0.0
H858 H 0.70446 0.98022 0.39968 0.0
H859 H 0.72821 0.00619 0.36498 0.0
H860 H 0.61748 0.97465 0.37486 0.0
H861 H 0.66748 0.99129 0.38269 0.0
H862 H 0.63032 0.96982 0.35574 0.0
H863 H 0.65403 0.99593 0.40125 0.0
H864 H 0.70408 0.02555 0.38908 0.0
H865 H 0.69452 0.03832 0.34811 0.0
H866 H 0.64487 0.91595 0.37814 0.0
H867 H 0.64472 0.94644 0.40817 0.0
H868 H 0.6627 0.97729 0.30339 0.0
H869 H 0.70115 0.00359 0.32708 0.0
H870 H 0.67598 0.98347 0.28017 0.0
H871 H 0.71377 0.00926 0.30346 0.0
H872 H 0.6477 0.93183 0.32093 0.0
H873 H 0.63508 0.95116 0.35393 0.0
H874 H 0.62388 0.91094 0.32115 0.0
H875 H 0.61148 0.93001 0.35354 0.0
H876 H 0.71716 0.97019 0.31285 0.0
H877 H 0.6777 0.94648 0.28951 0.0
H878 H 0.62559 0.99141 0.32085 0.0
H879 H 0.61743 0.95331 0.2984 0.0
Li880 Li 0.03456 0.69807 0.35295 0.0
Li881 Li 0.00964 0.68886 0.34791 0.0
Li882 Li 0.02323 0.68015 0.33422 0.0
Li883 Li 0.02672 0.70325 0.32901 0.0
C884 C 0.02071 0.67491 0.36892 0.0
N885 N 0.02496 0.66776 0.39659 0.0
C886 C 0.01215 0.67415 0.38051 0.0
C887 C 0.03134 0.67192 0.37138 0.0
C888 C 0.01449 0.67054 0.39442 0.0
C889 C 0.03336 0.66837 0.38546 0.0
C890 C 0.02127 0.71817 0.35458 0.0
C891 C 0.01192 0.73333 0.3505 0.0
N892 N 0.0141 0.73723 0.36493 0.0
C893 C 0.02355 0.72247 0.36933 0.0
C894 C 0.01553 0.72376 0.34505 0.0
C895 C 0.0198 0.73206 0.37436 0.0
C896 C 0.06214 0.71027 0.36444 0.0
N897 N 0.04862 0.70553 0.36801 0.0
C898 C 0.05487 0.71057 0.39342 0.0
C899 C 0.04488 0.70576 0.38215 0.0
C900 C 0.06891 0.71537 0.39013 0.0
C901 C 0.07251 0.71527 0.37537 0.0
H902 H 0.06487 0.71013 0.35309 0.0
H903 H 0.03408 0.70194 0.38473 0.0
C904 C 0.98232 0.66879 0.35298 0.0
N905 N 0.99164 0.68248 0.35603 0.0
C906 C 0.96883 0.6625 0.35852 0.0
C907 C 0.97467 0.68455 0.37018 0.0
C908 C 0.9881 0.69041 0.36445 0.0
C909 C 0.96485 0.67039 0.36728 0.0
H910 H 0.98544 0.66274 0.34626 0.0
H911 H 0.99564 0.70122 0.36685 0.0
C912 C 0.04855 0.69368 0.32441 0.0
N913 N 0.06253 0.68396 0.30745 0.0
C914 C 0.05001 0.69619 0.30936 0.0
C915 C 0.05431 0.68635 0.33087 0.0
C916 C 0.0571 0.69116 0.30097 0.0
C917 C 0.0613 0.68148 0.3221 0.0
C918 C 0.99934 0.68451 0.31757 0.0
C919 C 0.99532 0.67651 0.30457 0.0
C920 C 0.9928 0.692 0.32152 0.0
C921 C 0.98501 0.67636 0.2956 0.0
C922 C 0.98253 0.69157 0.31228 0.0
N923 N 0.97889 0.68384 0.2996 0.0
C924 C 0.01996 0.65318 0.33381 0.0
C925 C 0.0212 0.66261 0.31031 0.0
C926 C 0.01754 0.6406 0.32747 0.0
N927 N 0.02163 0.66381 0.3252 0.0
C928 C 0.01872 0.65017 0.3035 0.0
C929 C 0.01667 0.6389 0.31212 0.0
H930 H 0.02009 0.65431 0.3456 0.0
H931 H 0.02251 0.67121 0.30374 0.0
C932 C 0.03966 0.73053 0.31772 0.0
N933 N 0.03136 0.71675 0.31415 0.0
C934 C 0.04362 0.74066 0.30695 0.0
C935 C 0.03059 0.72219 0.28902 0.0
C936 C 0.02687 0.71244 0.30012 0.0
C937 C 0.03911 0.73653 0.29235 0.0
H938 H 0.04329 0.73365 0.32893 0.0
H939 H 0.02058 0.70141 0.29749 0.0
O940 O 0.01863 0.67851 0.35524 0.0
O941 O 0.02498 0.70886 0.34945 0.0
O942 O 0.0414 0.69826 0.33276 0.0
O943 O 0.00941 0.68474 0.32647 0.0
H944 H 0.00387 0.67642 0.37882 0.0
H945 H 0.03806 0.67246 0.36256 0.0
H946 H 0.00799 0.66997 0.4035 0.0
H947 H 0.04161 0.66613 0.38754 0.0
H948 H 0.00742 0.73768 0.34325 0.0
H949 H 0.02809 0.7184 0.37685 0.0
H950 H 0.01394 0.72084 0.33354 0.0
H951 H 0.02144 0.7354 0.38578 0.0
H952 H 0.05153 0.71023 0.40463 0.0
H953 H 0.08322 0.71905 0.37227 0.0
H954 H 0.96155 0.65162 0.35582 0.0
H955 H 0.97209 0.69098 0.37701 0.0
H956 H 0.04565 0.70186 0.30419 0.0
H957 H 0.05329 0.68436 0.34251 0.0
H958 H 0.05825 0.69296 0.28929 0.0
H959 H 0.06573 0.67572 0.32693 0.0
H960 H 0.00014 0.67051 0.3014 0.0
H961 H 0.9955 0.69795 0.33169 0.0
H962 H 0.98187 0.67027 0.28547 0.0
H963 H 0.9774 0.69734 0.31522 0.0
H964 H 0.01579 0.63211 0.33454 0.0
H965 H 0.01824 0.64932 0.29163 0.0
H966 H 0.05036 0.75158 0.30998 0.0
H967 H 0.02678 0.71852 0.27795 0.0
Li968 Li 0.30781 0.34022 0.3558 0.0
Li969 Li 0.31402 0.3223 0.34992 0.0
Li970 Li 0.32551 0.34514 0.3367 0.0
Li971 Li 0.30124 0.3273 0.33195 0.0
C972 C 0.33533 0.34903 0.36887 0.0
N973 N 0.35427 0.36411 0.39116 0.0
C974 C 0.33554 0.34242 0.38173 0.0
C975 C 0.34493 0.36328 0.36726 0.0
C976 C 0.34514 0.35023 0.3929 0.0
C977 C 0.35437 0.37072 0.37867 0.0
C978 C 0.28807 0.30792 0.35989 0.0
C979 C 0.2784 0.28306 0.36226 0.0
N980 N 0.27438 0.28389 0.37614 0.0
C981 C 0.28377 0.30851 0.37414 0.0
C982 C 0.28529 0.29509 0.35386 0.0
C983 C 0.27688 0.29625 0.38219 0.0
C984 C 0.29449 0.35407 0.36806 0.0
N985 N 0.30212 0.34796 0.37126 0.0
C986 C 0.30149 0.35246 0.39688 0.0
C987 C 0.30552 0.34694 0.38534 0.0
C988 C 0.29377 0.35902 0.39393 0.0
C989 C 0.29025 0.35977 0.37928 0.0
H990 H 0.29167 0.3545 0.35679 0.0
H991 H 0.31122 0.34167 0.38764 0.0
C992 C 0.32757 0.30706 0.34954 0.0
N993 N 0.31879 0.30943 0.3578 0.0
C994 C 0.33363 0.29976 0.35528 0.0
C995 C 0.32107 0.29696 0.37775 0.0
C996 C 0.31532 0.3044 0.3716 0.0
C997 C 0.33067 0.29488 0.36971 0.0
H998 H 0.33041 0.31145 0.33873 0.0
H999 H 0.3086 0.30671 0.3781 0.0
C1000 C 0.31346 0.36175 0.3343 0.0
N1001 N 0.32249 0.38988 0.33174 0.0
C1002 C 0.3101 0.3666 0.32175 0.0
C1003 C 0.32132 0.3712 0.34558 0.0
C1004 C 0.31479 0.38086 0.32065 0.0
C1005 C 0.32581 0.38538 0.34408 0.0
C1006 C 0.31572 0.31995 0.31517 0.0
C1007 C 0.32065 0.3284 0.30286 0.0
C1008 C 0.30806 0.30541 0.31337 0.0
C1009 C 0.31767 0.32213 0.28889 0.0
C1010 C 0.30529 0.29954 0.29921 0.0
N1011 N 0.3101 0.30796 0.28737 0.0
C1012 C 0.35358 0.35603 0.33318 0.0
C1013 C 0.34494 0.36731 0.31813 0.0
C1014 C 0.36675 0.36363 0.32703 0.0
N1015 N 0.34301 0.35793 0.32862 0.0
C1016 C 0.35799 0.37512 0.3116 0.0
C1017 C 0.36905 0.37318 0.31592 0.0
H1018 H 0.35162 0.34827 0.34133 0.0
H1019 H 0.33628 0.36839 0.31446 0.0
C1020 C 0.27595 0.30664 0.31806 0.0
N1021 N 0.28749 0.31948 0.31668 0.0
C1022 C 0.2662 0.30073 0.30656 0.0
C1023 C 0.28027 0.32151 0.29255 0.0
C1024 C 0.28977 0.32697 0.30429 0.0
C1025 C 0.26831 0.30816 0.29354 0.0
H1026 H 0.27436 0.3009 0.32803 0.0
H1027 H 0.29909 0.33712 0.30345 0.0
O1028 O 0.32613 0.34147 0.35771 0.0
O1029 O 0.29483 0.31982 0.35186 0.0
O1030 O 0.30909 0.34784 0.33544 0.0
O1031 O 0.31824 0.32589 0.32892 0.0
H1032 H 0.32827 0.33142 0.38317 0.0
H1033 H 0.34522 0.36855 0.35728 0.0
H1034 H 0.34532 0.34525 0.40295 0.0
H1035 H 0.36182 0.38176 0.37758 0.0
H1036 H 0.27627 0.27308 0.35777 0.0
H1037 H 0.28569 0.31832 0.37893 0.0
H1038 H 0.28858 0.29444 0.34287 0.0
H1039 H 0.27353 0.29656 0.39324 0.0
H1040 H 0.30452 0.35171 0.40799 0.0
H1041 H 0.28412 0.36454 0.37652 0.0
H1042 H 0.34114 0.29864 0.34874 0.0
H1043 H 0.31836 0.29325 0.38885 0.0
H1044 H 0.30396 0.35945 0.31293 0.0
H1045 H 0.3238 0.36762 0.35546 0.0
H1046 H 0.31231 0.38476 0.31097 0.0
H1047 H 0.3319 0.39279 0.35275 0.0
H1048 H 0.32655 0.33967 0.30408 0.0
H1049 H 0.30426 0.29873 0.3228 0.0
H1050 H 0.32133 0.32854 0.27925 0.0
H1051 H 0.29932 0.28831 0.29764 0.0
H1052 H 0.37487 0.36159 0.3305 0.0
H1053 H 0.35933 0.3824 0.30309 0.0
H1054 H 0.25726 0.29033 0.30778 0.0
H1055 H 0.28228 0.32773 0.28284 0.0
Li1056 Li 0.32276 0.00217 0.66657 0.0
Li1057 Li 0.34396 0.01665 0.68114 0.0
Li1058 Li 0.32447 0.02095 0.68174 0.0
Li1059 Li 0.33916 0.02645 0.66019 0.0
C1060 C 0.31698 0.99096 0.69303 0.0
N1061 N 0.30118 0.9635 0.70163 0.0
C1062 C 0.32351 0.98402 0.69865 0.0
C1063 C 0.30243 0.98397 0.69187 0.0
C1064 C 0.31533 0.97013 0.70293 0.0
C1065 C 0.29462 0.97007 0.69623 0.0
C1066 C 0.34902 0.01187 0.64758 0.0
C1067 C 0.36931 0.024 0.63239 0.0
N1068 N 0.362 0.01534 0.6209 0.0
C1069 C 0.34172 0.00305 0.63564 0.0
C1070 C 0.36294 0.02238 0.64597 0.0
C1071 C 0.34847 0.00499 0.62224 0.0
C1072 C 0.30081 0.98127 0.64883 0.0
N1073 N 0.31128 0.98392 0.65845 0.0
C1074 C 0.30746 0.96087 0.65476 0.0
C1075 C 0.31474 0.97409 0.66146 0.0
C1076 C 0.2968 0.95786 0.64444 0.0
C1077 C 0.29343 0.96826 0.64163 0.0
H1078 H 0.29853 0.98942 0.64637 0.0
H1079 H 0.32338 0.97662 0.66883 0.0
C1080 C 0.35759 0.01725 0.70752 0.0
N1081 N 0.35784 0.01602 0.69268 0.0
C1082 C 0.36697 0.01565 0.71633 0.0
C1083 C 0.37665 0.01154 0.6944 0.0
C1084 C 0.36716 0.01333 0.68601 0.0
C1085 C 0.3765 0.01252 0.70977 0.0
H1086 H 0.34981 0.01905 0.71251 0.0
H1087 H 0.36698 0.0122 0.6742 0.0
C1088 C 0.30882 0.02065 0.66021 0.0
N1089 N 0.28956 0.0294 0.66025 0.0
C1090 C 0.3127 0.03412 0.6557 0.0
C1091 C 0.29514 0.0116 0.66465 0.0
C1092 C 0.3028 0.03835 0.65581 0.0
C1093 C 0.28556 0.01623 0.66463 0.0
C1094 C 0.35539 0.04289 0.68937 0.0
C1095 C 0.3527 0.0453 0.70375 0.0
C1096 C 0.36919 0.04837 0.68488 0.0
C1097 C 0.36388 0.05312 0.71344 0.0
C1098 C 0.38007 0.05611 0.69491 0.0
N1099 N 0.37722 0.05831 0.70887 0.0
C1100 C 0.30568 0.01957 0.70386 0.0
C1101 C 0.31924 0.04148 0.69253 0.0
C1102 C 0.30009 0.0253 0.71353 0.0
N1103 N 0.31516 0.02774 0.69375 0.0
C1104 C 0.31399 0.04765 0.702 0.0
C1105 C 0.30446 0.03959 0.71283 0.0
H1106 H 0.30278 0.00872 0.70473 0.0
H1107 H 0.32691 0.04775 0.68446 0.0
C1108 C 0.34098 0.03421 0.63071 0.0
N1109 N 0.3464 0.03897 0.64438 0.0
C1110 C 0.34467 0.04351 0.61916 0.0
C1111 C 0.35956 0.06241 0.63597 0.0
C1112 C 0.35567 0.05272 0.64716 0.0
C1113 C 0.3538 0.05789 0.62179 0.0
H1114 H 0.33338 0.02326 0.62891 0.0
H1115 H 0.35953 0.05626 0.65822 0.0
O1116 O 0.32481 0.00451 0.68866 0.0
O1117 O 0.34255 0.01026 0.66074 0.0
O1118 O 0.31843 0.01641 0.6605 0.0
O1119 O 0.34459 0.03507 0.67977 0.0
H1120 H 0.33476 0.98924 0.69959 0.0
H1121 H 0.29722 0.98916 0.68747 0.0
H1122 H 0.32024 0.96461 0.70724 0.0
H1123 H 0.28336 0.96451 0.69531 0.0
H1124 H 0.38006 0.03214 0.63097 0.0
H1125 H 0.33094 0.99487 0.63666 0.0
H1126 H 0.36873 0.02931 0.65509 0.0
H1127 H 0.34294 0.99828 0.6129 0.0
H1128 H 0.31033 0.9532 0.65754 0.0
H1129 H 0.28552 0.9666 0.63357 0.0
H1130 H 0.36637 0.01627 0.72815 0.0
H1131 H 0.3839 0.00921 0.68893 0.0
H1132 H 0.32326 0.04128 0.6523 0.0
H1133 H 0.29199 0.00114 0.66817 0.0
H1134 H 0.30567 0.04877 0.65242 0.0
H1135 H 0.27496 0.00937 0.66811 0.0
H1136 H 0.3421 0.04104 0.70746 0.0
H1137 H 0.37145 0.04655 0.67381 0.0
H1138 H 0.36195 0.05502 0.72462 0.0
H1139 H 0.39079 0.06035 0.69161 0.0
H1140 H 0.29288 0.01876 0.72183 0.0
H1141 H 0.31752 0.05867 0.70099 0.0
H1142 H 0.34008 0.03952 0.6084 0.0
H1143 H 0.36641 0.07339 0.63861 0.0
Li1144 Li 0.99787 0.31536 0.66862 0.0
Li1145 Li 0.98455 0.32288 0.68338 0.0
Li1146 Li 0.98048 0.29912 0.68485 0.0
Li1147 Li 0.97317 0.3066 0.66332 0.0
C1148 C 0.01133 0.32335 0.69372 0.0
N1149 N 0.03978 0.33709 0.69905 0.0
C1150 C 0.01868 0.33773 0.69682 0.0
C1151 C 0.01844 0.31595 0.69339 0.0
C1152 C 0.03307 0.34448 0.69949 0.0
C1153 C 0.03283 0.32309 0.69608 0.0
C1154 C 0.98654 0.33017 0.64932 0.0
C1155 C 0.97321 0.33695 0.6341 0.0
N1156 N 0.98072 0.33714 0.62227 0.0
C1157 C 0.99412 0.33044 0.637 0.0
C1158 C 0.97601 0.33348 0.64787 0.0
C1159 C 0.99103 0.334 0.62343 0.0
C1160 C 0.02 0.31372 0.65434 0.0
N1161 N 0.01574 0.32226 0.6602 0.0
C1162 C 0.03729 0.34255 0.65405 0.0
C1163 C 0.02404 0.3364 0.66014 0.0
C1164 C 0.04203 0.33406 0.64783 0.0
C1165 C 0.03322 0.31944 0.64808 0.0
H1166 H 0.01312 0.30251 0.6544 0.0
H1167 H 0.02031 0.34291 0.66481 0.0
C1168 C 0.98667 0.33809 0.70924 0.0
N1169 N 0.98589 0.3382 0.69436 0.0
C1170 C 0.98836 0.34949 0.71761 0.0
C1171 C 0.98833 0.36086 0.69518 0.0
C1172 C 0.98667 0.34925 0.68725 0.0
C1173 C 0.98933 0.36114 0.71057 0.0
H1174 H 0.98619 0.32921 0.71458 0.0
H1175 H 0.9863 0.34918 0.67541 0.0
C1176 C 0.97897 0.28219 0.66397 0.0
N1177 N 0.96988 0.25401 0.66564 0.0
C1178 C 0.96543 0.27225 0.65937 0.0
C1179 C 0.98791 0.27781 0.66933 0.0
C1180 C 0.96104 0.25804 0.66031 0.0
C1181 C 0.98311 0.26351 0.67012 0.0
C1182 C 0.95947 0.30841 0.69347 0.0
C1183 C 0.95853 0.30418 0.708 0.0
C1184 C 0.95382 0.31666 0.68945 0.0
C1185 C 0.95193 0.30828 0.71828 0.0
C1186 C 0.94734 0.32057 0.70006 0.0
N1187 N 0.94654 0.31633 0.71413 0.0
C1188 C 0.98351 0.28314 0.70748 0.0
C1189 C 0.96097 0.27365 0.69672 0.0
C1190 C 0.97853 0.27212 0.71733 0.0
N1191 N 0.97468 0.28371 0.69753 0.0
C1192 C 0.95554 0.26253 0.70638 0.0
C1193 C 0.96432 0.26176 0.71699 0.0
H1194 H 0.99432 0.29139 0.70802 0.0
H1195 H 0.95418 0.27446 0.68875 0.0
C1196 C 0.96281 0.29896 0.6343 0.0
N1197 N 0.95943 0.30068 0.64817 0.0
C1198 C 0.95306 0.29505 0.62287 0.0
C1199 C 0.93639 0.29432 0.64032 0.0
C1200 C 0.94649 0.2983 0.65139 0.0
C1201 C 0.93965 0.29273 0.6258 0.0
H1202 H 0.97315 0.30076 0.6321 0.0
H1203 H 0.94398 0.29945 0.66257 0.0
O1204 O 0.9973 0.3166 0.69075 0.0
O1205 O 0.98923 0.32647 0.66266 0.0
O1206 O 0.98336 0.29614 0.66346 0.0
O1207 O 0.96614 0.30475 0.6833 0.0
H1208 H 0.01339 0.34365 0.697 0.0
H1209 H 0.01295 0.30486 0.69085 0.0
H1210 H 0.0389 0.35561 0.70183 0.0
H1211 H 0.03848 0.31751 0.69576 0.0
H1212 H 0.96502 0.33943 0.63281 0.0
H1213 H 0.00221 0.32777 0.63785 0.0
H1214 H 0.9699 0.33314 0.65723 0.0
H1215 H 0.99679 0.3342 0.61381 0.0
H1216 H 0.04378 0.35384 0.65433 0.0
H1217 H 0.03639 0.31252 0.64326 0.0
H1218 H 0.98899 0.34923 0.72945 0.0
H1219 H 0.98928 0.36971 0.6893 0.0
H1220 H 0.95835 0.27545 0.65527 0.0
H1221 H 0.99838 0.28537 0.67304 0.0
H1222 H 0.95057 0.25023 0.65686 0.0
H1223 H 0.98988 0.25997 0.67435 0.0
H1224 H 0.96299 0.29795 0.71137 0.0
H1225 H 0.95463 0.32021 0.67831 0.0
H1226 H 0.95117 0.30512 0.72957 0.0
H1227 H 0.94301 0.32702 0.69712 0.0
H1228 H 0.98561 0.27199 0.72545 0.0
H1229 H 0.94456 0.25467 0.70564 0.0
H1230 H 0.95608 0.29406 0.61183 0.0
H1231 H 0.9261 0.29235 0.64315 0.0
Li1232 Li 0.67996 0.67665 0.66637 0.0
Li1233 Li 0.66885 0.65478 0.67984 0.0
Li1234 Li 0.69453 0.67305 0.68424 0.0
Li1235 Li 0.68662 0.65857 0.66164 0.0
C1236 C 0.67429 0.68387 0.69319 0.0
N1237 N 0.6677 0.70339 0.70348 0.0
C1238 C 0.66049 0.68096 0.69264 0.0
C1239 C 0.68468 0.6966 0.69929 0.0
C1240 C 0.65738 0.69099 0.69779 0.0
C1241 C 0.68115 0.70636 0.70435 0.0
C1242 C 0.65691 0.64615 0.65181 0.0
C1243 C 0.6416 0.62124 0.64866 0.0
N1244 N 0.63351 0.62357 0.63923 0.0
C1245 C 0.64847 0.64831 0.64205 0.0
C1246 C 0.65347 0.63252 0.65512 0.0
C1247 C 0.63668 0.63675 0.63582 0.0
C1248 C 0.68452 0.70247 0.65343 0.0
N1249 N 0.67517 0.6894 0.65802 0.0
C1250 C 0.65611 0.69259 0.6515 0.0
C1251 C 0.66121 0.68437 0.65705 0.0
C1252 C 0.66547 0.70623 0.64691 0.0
C1253 C 0.67987 0.71112 0.64786 0.0
H1254 H 0.69555 0.70625 0.6541 0.0
H1255 H 0.65399 0.67392 0.66071 0.0
C1256 C 0.6513 0.63408 0.70028 0.0
N1257 N 0.65174 0.64205 0.68886 0.0
C1258 C 0.63876 0.62586 0.70764 0.0
C1259 C 0.62747 0.6341 0.69117 0.0
C1260 C 0.64013 0.64203 0.6841 0.0
C1261 C 0.62672 0.62606 0.70327 0.0
H1262 H 0.66074 0.63441 0.70392 0.0
H1263 H 0.6408 0.64851 0.67503 0.0
C1264 C 0.71083 0.69166 0.66135 0.0
N1265 N 0.73544 0.71662 0.65734 0.0
C1266 C 0.72002 0.69272 0.65034 0.0
C1267 C 0.71415 0.70331 0.67028 0.0
C1268 C 0.73242 0.70542 0.6485 0.0
C1269 C 0.72663 0.71583 0.66809 0.0
C1270 C 0.68976 0.64282 0.68272 0.0
C1271 C 0.70402 0.64756 0.68384 0.0
C1272 C 0.68017 0.62844 0.68227 0.0
C1273 C 0.7085 0.63785 0.68411 0.0
C1274 C 0.68506 0.61906 0.68258 0.0
N1275 N 0.69901 0.62392 0.68346 0.0
C1276 C 0.70575 0.68178 0.71278 0.0
C1277 C 0.72264 0.68655 0.69452 0.0
C1278 C 0.71615 0.68759 0.72366 0.0
N1279 N 0.70916 0.68143 0.69854 0.0
C1280 C 0.73338 0.69253 0.70501 0.0
C1281 C 0.73019 0.69308 0.71981 0.0
H1282 H 0.69492 0.67751 0.71567 0.0
H1283 H 0.72506 0.68584 0.68318 0.0
C1284 C 0.68493 0.64178 0.63628 0.0
N1285 N 0.69317 0.65055 0.64729 0.0
C1286 C 0.69055 0.63681 0.62573 0.0
C1287 C 0.71301 0.6501 0.63792 0.0
C1288 C 0.70695 0.65473 0.64825 0.0
C1289 C 0.7048 0.64108 0.6264 0.0
H1290 H 0.6741 0.63885 0.63544 0.0
H1291 H 0.71334 0.66192 0.65694 0.0
O1292 O 0.67755 0.6742 0.6881 0.0
O1293 O 0.66827 0.65733 0.65838 0.0
O1294 O 0.69887 0.67916 0.6636 0.0
O1295 O 0.68519 0.65219 0.68244 0.0
H1296 H 0.65227 0.67112 0.68817 0.0
H1297 H 0.69533 0.69891 0.70025 0.0
H1298 H 0.64677 0.68891 0.69728 0.0
H1299 H 0.68911 0.71627 0.70903 0.0
H1300 H 0.63882 0.61064 0.65116 0.0
H1301 H 0.65101 0.65878 0.63927 0.0
H1302 H 0.65991 0.6307 0.6626 0.0
H1303 H 0.63004 0.63827 0.62827 0.0
H1304 H 0.64493 0.68821 0.65071 0.0
H1305 H 0.6875 0.72159 0.64455 0.0
H1306 H 0.63862 0.61987 0.71698 0.0
H1307 H 0.61838 0.63439 0.68733 0.0
H1308 H 0.71762 0.68384 0.64327 0.0
H1309 H 0.70716 0.70268 0.67878 0.0
H1310 H 0.73963 0.70638 0.64003 0.0
H1311 H 0.72932 0.72492 0.67494 0.0
H1312 H 0.71158 0.65863 0.68436 0.0
H1313 H 0.66907 0.62454 0.68184 0.0
H1314 H 0.71953 0.6414 0.68484 0.0
H1315 H 0.67776 0.60791 0.68218 0.0
H1316 H 0.71325 0.68789 0.73493 0.0
H1317 H 0.74403 0.69641 0.70161 0.0
H1318 H 0.6839 0.63005 0.61689 0.0
H1319 H 0.72401 0.65357 0.63892 0.0
Li1320 Li 0.3467 0.32989 0.68708 0.0
Li1321 Li 0.32923 0.30601 0.69077 0.0
Li1322 Li 0.34408 0.3135 0.66792 0.0
Li1323 Li 0.32609 0.32046 0.67261 0.0
C1324 C 0.36145 0.31788 0.69661 0.0
N1325 N 0.38553 0.32644 0.71293 0.0
C1326 C 0.36142 0.31967 0.71181 0.0
C1327 C 0.37366 0.3203 0.6897 0.0
C1328 C 0.37373 0.32406 0.71987 0.0
C1329 C 0.38575 0.32465 0.69815 0.0
C1330 C 0.31478 0.31852 0.70008 0.0
C1331 C 0.2898 0.30308 0.7 0.0
N1332 N 0.28893 0.30995 0.71206 0.0
C1333 C 0.31363 0.32543 0.71248 0.0
C1334 C 0.30277 0.30724 0.6938 0.0
C1335 C 0.30047 0.32094 0.71837 0.0
C1336 C 0.3527 0.35438 0.70124 0.0
N1337 N 0.35915 0.34721 0.69727 0.0
C1338 C 0.38109 0.36607 0.7061 0.0
C1339 C 0.3731 0.35276 0.69962 0.0
C1340 C 0.37467 0.37374 0.71015 0.0
C1341 C 0.36025 0.36765 0.70771 0.0
H1342 H 0.34169 0.34995 0.69893 0.0
H1343 H 0.37817 0.34714 0.69603 0.0
C1344 C 0.31429 0.27794 0.70053 0.0
N1345 N 0.3205 0.29164 0.70469 0.0
C1346 C 0.30817 0.2675 0.71102 0.0
C1347 C 0.31499 0.28552 0.72978 0.0
C1348 C 0.32094 0.29558 0.71896 0.0
C1349 C 0.30854 0.27125 0.7259 0.0
H1350 H 0.3142 0.27513 0.6891 0.0
H1351 H 0.32596 0.30656 0.72193 0.0
C1352 C 0.35619 0.34523 0.66399 0.0
N1353 N 0.37803 0.37248 0.66199 0.0
C1354 C 0.3535 0.35616 0.66229 0.0
C1355 C 0.36999 0.34816 0.66454 0.0
C1356 C 0.36468 0.36987 0.66135 0.0
C1357 C 0.38089 0.362 0.66351 0.0
C1358 C 0.31518 0.29398 0.65787 0.0
C1359 C 0.32005 0.29858 0.64375 0.0
C1360 C 0.30213 0.28199 0.65967 0.0
C1361 C 0.31176 0.29104 0.63163 0.0
C1362 C 0.29413 0.27477 0.64727 0.0
N1363 N 0.29908 0.27941 0.63362 0.0
C1364 C 0.34906 0.29386 0.6533 0.0
C1365 C 0.3607 0.31649 0.64314 0.0
C1366 C 0.35437 0.28889 0.6424 0.0
N1367 N 0.3523 0.30744 0.65345 0.0
C1368 C 0.36643 0.31205 0.63223 0.0
C1369 C 0.36322 0.29807 0.63173 0.0
H1370 H 0.3422 0.28686 0.66154 0.0
H1371 H 0.36275 0.3271 0.64318 0.0
C1372 C 0.31527 0.33773 0.67011 0.0
N1373 N 0.3135 0.32558 0.66428 0.0
C1374 C 0.3078 0.34366 0.66455 0.0
C1375 C 0.29621 0.32413 0.64744 0.0
C1376 C 0.30401 0.31859 0.65332 0.0
C1377 C 0.29827 0.33697 0.6529 0.0
H1378 H 0.32277 0.34298 0.67894 0.0
H1379 H 0.30257 0.30887 0.64893 0.0
O1380 O 0.34951 0.31347 0.68854 0.0
O1381 O 0.32766 0.32279 0.69432 0.0
O1382 O 0.34538 0.33176 0.66526 0.0
O1383 O 0.32316 0.30106 0.66992 0.0
H1384 H 0.35203 0.31781 0.71731 0.0
H1385 H 0.3738 0.31885 0.67794 0.0
H1386 H 0.3739 0.32558 0.73164 0.0
H1387 H 0.3953 0.32662 0.69296 0.0
H1388 H 0.28043 0.29437 0.69524 0.0
H1389 H 0.32283 0.33413 0.71753 0.0
H1390 H 0.30342 0.30174 0.68424 0.0
H1391 H 0.29944 0.32618 0.72797 0.0
H1392 H 0.39219 0.37035 0.70777 0.0
H1393 H 0.35489 0.37328 0.71029 0.0
H1394 H 0.30343 0.25663 0.70756 0.0
H1395 H 0.31532 0.28891 0.74106 0.0
H1396 H 0.34292 0.35412 0.66171 0.0
H1397 H 0.37229 0.33987 0.66608 0.0
H1398 H 0.36275 0.37843 0.66011 0.0
H1399 H 0.39161 0.36442 0.66406 0.0
H1400 H 0.33002 0.30797 0.64217 0.0
H1401 H 0.29821 0.27831 0.67053 0.0
H1402 H 0.31537 0.29449 0.62064 0.0
H1403 H 0.28399 0.26549 0.64849 0.0
H1404 H 0.35165 0.27803 0.64235 0.0
H1405 H 0.37301 0.31937 0.62403 0.0
H1406 H 0.3095 0.35342 0.66929 0.0
H1407 H 0.28894 0.31863 0.63847 0.0
Li1408 Li 0.68466 0.02649 0.67715 0.0
Li1409 Li 0.70799 0.03007 0.67905 0.0
Li1410 Li 0.70119 0.0374 0.65701 0.0
Li1411 Li 0.69146 0.01239 0.66183 0.0
C1412 C 0.70035 0.05559 0.67911 0.0
N1413 N 0.69532 0.07745 0.68246 0.0
C1414 C 0.70666 0.06529 0.69067 0.0
C1415 C 0.69149 0.05701 0.66927 0.0
C1416 C 0.70398 0.07626 0.69218 0.0
C1417 C 0.68909 0.06813 0.67114 0.0
C1418 C 0.68835 0.01097 0.69834 0.0
C1419 C 0.68087 0.99591 0.71925 0.0
N1420 N 0.6848 0.00723 0.72824 0.0
C1421 C 0.69232 0.02246 0.70779 0.0
C1422 C 0.68258 0.99759 0.70409 0.0
C1423 C 0.69044 0.02035 0.72287 0.0
C1424 C 0.65664 0.01289 0.6837 0.0
N1425 N 0.66889 0.02471 0.68712 0.0
C1426 C 0.65748 0.03192 0.70432 0.0
C1427 C 0.66957 0.03413 0.6973 0.0
C1428 C 0.64464 0.01983 0.70092 0.0
C1429 C 0.64433 0.01023 0.69047 0.0
H1430 H 0.65646 0.00553 0.67566 0.0
H1431 H 0.67949 0.04327 0.70013 0.0
C1432 C 0.73156 0.04849 0.69613 0.0
N1433 N 0.72279 0.03475 0.69272 0.0
C1434 C 0.74159 0.05239 0.7073 0.0
C1435 C 0.7337 0.02793 0.71082 0.0
C1436 C 0.72375 0.02451 0.69969 0.0
C1437 C 0.74263 0.04202 0.71491 0.0
H1438 H 0.73053 0.05641 0.69043 0.0
H1439 H 0.71648 0.01365 0.69698 0.0
C1440 C 0.67212 0.02003 0.6454 0.0
N1441 N 0.65267 0.01546 0.62376 0.0
C1442 C 0.67127 0.01251 0.63261 0.0
C1443 C 0.66294 0.02506 0.64726 0.0
C1444 C 0.66141 0.01036 0.62177 0.0
C1445 C 0.65322 0.02269 0.63617 0.0
C1446 C 0.71964 0.02101 0.65771 0.0
C1447 C 0.73178 0.02707 0.64938 0.0
C1448 C 0.71599 0.00893 0.66558 0.0
C1449 C 0.74009 0.02094 0.64907 0.0
C1450 C 0.72457 0.00312 0.665 0.0
N1451 N 0.73635 0.00919 0.65683 0.0
C1452 C 0.7163 0.06464 0.64509 0.0
C1453 C 0.70265 0.04652 0.62783 0.0
C1454 C 0.72045 0.07467 0.63419 0.0
N1455 N 0.70732 0.0509 0.6418 0.0
C1456 C 0.70655 0.05617 0.61659 0.0
C1457 C 0.71547 0.07049 0.61972 0.0
H1458 H 0.72018 0.06784 0.6562 0.0
H1459 H 0.69586 0.03553 0.6254 0.0
C1460 C 0.67184 0.98417 0.65965 0.0
N1461 N 0.68367 0.99423 0.65332 0.0
C1462 C 0.66476 0.97063 0.65371 0.0
C1463 C 0.68225 0.97801 0.63489 0.0
C1464 C 0.68902 0.99144 0.64121 0.0
C1465 C 0.66988 0.9674 0.64108 0.0
H1466 H 0.66778 0.98678 0.66917 0.0
H1467 H 0.69838 0.99971 0.63633 0.0
O1468 O 0.70271 0.04466 0.67768 0.0
O1469 O 0.6901 0.01274 0.68352 0.0
O1470 O 0.68155 0.02202 0.65625 0.0
O1471 O 0.71142 0.02692 0.65805 0.0
H1472 H 0.71346 0.06427 0.69846 0.0
H1473 H 0.68661 0.04966 0.66024 0.0
H1474 H 0.70876 0.08382 0.70109 0.0
H1475 H 0.68227 0.06936 0.66358 0.0
H1476 H 0.67643 0.9856 0.72386 0.0
H1477 H 0.69683 0.03291 0.70356 0.0
H1478 H 0.67948 0.98859 0.69691 0.0
H1479 H 0.69347 0.02915 0.73031 0.0
H1480 H 0.6582 0.03947 0.71247 0.0
H1481 H 0.63464 0.00085 0.68741 0.0
H1482 H 0.74834 0.06337 0.71006 0.0
H1483 H 0.73402 0.01962 0.71655 0.0
H1484 H 0.67825 0.00851 0.63098 0.0
H1485 H 0.66325 0.03068 0.65719 0.0
H1486 H 0.6607 0.00464 0.61177 0.0
H1487 H 0.64609 0.02656 0.63746 0.0
H1488 H 0.73473 0.03642 0.64321 0.0
H1489 H 0.70663 0.00408 0.67208 0.0
H1490 H 0.74951 0.02552 0.64267 0.0
H1491 H 0.72188 0.99378 0.67105 0.0
H1492 H 0.72755 0.08556 0.63704 0.0
H1493 H 0.7024 0.05246 0.60562 0.0
H1494 H 0.65515 0.96288 0.65871 0.0
H1495 H 0.68664 0.97596 0.62523 0.0
Li1496 Li 0.9714 0.67408 0.69091 0.0
Li1497 Li 0.97428 0.65441 0.68674 0.0
Li1498 Li 0.98842 0.67582 0.67327 0.0
Li1499 Li 0.96296 0.65992 0.66704 0.0
C1500 C 0.99414 0.68099 0.70687 0.0
N1501 N 0.00531 0.69732 0.73198 0.0
C1502 C 0.99259 0.67471 0.72046 0.0
C1503 C 0.00147 0.69557 0.70603 0.0
C1504 C 0.99829 0.68315 0.73303 0.0
C1505 C 0.00701 0.70364 0.71886 0.0
C1506 C 0.94648 0.64203 0.69329 0.0
C1507 C 0.92576 0.61926 0.69069 0.0
N1508 N 0.92643 0.61719 0.70527 0.0
C1509 C 0.94694 0.63969 0.70826 0.0
C1510 C 0.93579 0.63176 0.68442 0.0
C1511 C 0.93672 0.62705 0.7141 0.0
C1512 C 0.96514 0.6947 0.70123 0.0
N1513 N 0.9668 0.68385 0.70517 0.0
C1514 C 0.96119 0.6859 0.73 0.0
C1515 C 0.96482 0.67934 0.71921 0.0
C1516 C 0.9593 0.6971 0.72632 0.0
C1517 C 0.96137 0.70152 0.71169 0.0
H1518 H 0.96657 0.69795 0.68994 0.0
H1519 H 0.96608 0.67064 0.72207 0.0
C1520 C 0.98812 0.64306 0.70166 0.0
N1521 N 0.9755 0.63945 0.69562 0.0
C1522 C 0.99053 0.63288 0.70742 0.0
C1523 C 0.96689 0.61534 0.70068 0.0
C1524 C 0.96499 0.62586 0.69492 0.0
C1525 C 0.97984 0.61877 0.70696 0.0
H1526 H 0.99648 0.65385 0.70162 0.0
H1527 H 0.95525 0.62307 0.68948 0.0
C1528 C 0.97916 0.69195 0.66133 0.0
N1529 N 0.99084 0.71454 0.64289 0.0
C1530 C 0.97556 0.69008 0.64641 0.0
C1531 C 0.98856 0.70533 0.6669 0.0
C1532 C 0.98161 0.70163 0.63726 0.0
C1533 C 0.99439 0.71661 0.65739 0.0
C1534 C 0.98264 0.6467 0.66339 0.0
C1535 C 0.99674 0.65076 0.66471 0.0
C1536 C 0.9727 0.63262 0.66074 0.0
C1537 C 0.00066 0.64065 0.66339 0.0
C1538 C 0.97703 0.62283 0.6595 0.0
N1539 N 0.99081 0.62701 0.66084 0.0
C1540 C 0.01796 0.69177 0.67296 0.0
C1541 C 0.00689 0.68919 0.64992 0.0
C1542 C 0.03109 0.69859 0.66648 0.0
N1543 N 0.0062 0.68718 0.66463 0.0
C1544 C 0.01979 0.69615 0.64302 0.0
C1545 C 0.03215 0.70073 0.65125 0.0
H1546 H 0.01712 0.6896 0.68455 0.0
H1547 H 0.9974 0.68499 0.64344 0.0
C1548 C 0.93935 0.6564 0.651 0.0
N1549 N 0.9495 0.65299 0.65159 0.0
C1550 C 0.92952 0.65124 0.6395 0.0
C1551 C 0.94071 0.63908 0.62965 0.0
C1552 C 0.95045 0.64466 0.64113 0.0
C1553 C 0.93009 0.64235 0.62875 0.0
H1554 H 0.93894 0.66315 0.65943 0.0
H1555 H 0.95884 0.64244 0.64164 0.0
O1556 O 0.98854 0.67291 0.69444 0.0
O1557 O 0.95629 0.65437 0.68735 0.0
O1558 O 0.97338 0.68076 0.67046 0.0
O1559 O 0.97857 0.6564 0.66509 0.0
H1560 H 0.98686 0.66344 0.72133 0.0
H1561 H 0.00288 0.70058 0.6956 0.0
H1562 H 0.99709 0.67843 0.74363 0.0
H1563 H 0.01267 0.71494 0.71837 0.0
H1564 H 0.91745 0.61121 0.68395 0.0
H1565 H 0.95522 0.64742 0.71524 0.0
H1566 H 0.93526 0.63338 0.67282 0.0
H1567 H 0.937 0.62506 0.72565 0.0
H1568 H 0.95998 0.68226 0.74116 0.0
H1569 H 0.95986 0.70998 0.70828 0.0
H1570 H 0.00081 0.63601 0.71177 0.0
H1571 H 0.95832 0.60463 0.70008 0.0
H1572 H 0.96829 0.67981 0.64191 0.0
H1573 H 0.9913 0.707 0.67845 0.0
H1574 H 0.979 0.70033 0.62568 0.0
H1575 H 0.00172 0.72701 0.66154 0.0
H1576 H 0.00458 0.66156 0.6669 0.0
H1577 H 0.9617 0.62923 0.66003 0.0
H1578 H 0.01153 0.64364 0.66444 0.0
H1579 H 0.96943 0.61189 0.65758 0.0
H1580 H 0.04023 0.70161 0.67327 0.0
H1581 H 0.02002 0.69767 0.6313 0.0
H1582 H 0.92146 0.654 0.63911 0.0
H1583 H 0.94163 0.63246 0.62141 0.0
C1584 C 0.18764 0.27269 0.05279 0.0
C1585 C 0.19568 0.28274 0.06558 0.0
C1586 C 0.18576 0.27698 0.08985 0.0
C1587 C 0.18953 0.29033 0.09535 0.0
C1588 C 0.18152 0.29202 0.10615 0.0
C1589 C 0.16944 0.28011 0.11142 0.0
C1590 C 0.16606 0.26659 0.10642 0.0
C1591 C 0.17444 0.2652 0.09584 0.0
C1592 C 0.18566 0.30657 0.1115 0.0
C1593 C 0.15321 0.25366 0.1117 0.0
C1594 C 0.08619 0.29509 0.07148 0.0
C1595 C 0.0933 0.28874 0.07918 0.0
C1596 C 0.11358 0.29528 0.095 0.0
C1597 C 0.10941 0.28149 0.09892 0.0
C1598 C 0.118 0.27867 0.10782 0.0
C1599 C 0.13096 0.28985 0.113 0.0
C1600 C 0.13504 0.30375 0.10936 0.0
C1601 C 0.12627 0.30628 0.1004 0.0
C1602 C 0.11334 0.26372 0.11151 0.0
C1603 C 0.14877 0.31591 0.11475 0.0
C1604 C 0.10469 0.28175 0.20669 0.0
C1605 C 0.10224 0.26901 0.20045 0.0
C1606 C 0.11283 0.26819 0.19298 0.0
C1607 C 0.12616 0.28031 0.19177 0.0
C1608 C 0.12877 0.29306 0.19833 0.0
C1609 C 0.11798 0.2936 0.2057 0.0
C1610 C 0.10971 0.25441 0.18611 0.0
C1611 C 0.14288 0.30617 0.19726 0.0
C1612 C 0.20541 0.24876 0.20403 0.0
C1613 C 0.20344 0.26122 0.20721 0.0
C1614 C 0.1816 0.26122 0.20398 0.0
C1615 C 0.16753 0.25176 0.20096 0.0
C1616 C 0.15907 0.25606 0.19403 0.0
C1617 C 0.16478 0.27031 0.19049 0.0
C1618 C 0.17885 0.2801 0.19432 0.0
C1619 C 0.18717 0.27542 0.2009 0.0
C1620 C 0.1441 0.24531 0.19031 0.0
C1621 C 0.18512 0.29547 0.19132 0.0
C1622 C 0.15954 0.28193 0.12076 0.0
C1623 C 0.15038 0.28517 0.11368 0.0
C1624 C 0.14058 0.2869 0.1215 0.0
C1625 C 0.13983 0.28543 0.1369 0.0
C1626 C 0.13009 0.28711 0.1451 0.0
C1627 C 0.12924 0.28535 0.16022 0.0
C1628 C 0.13814 0.28188 0.16772 0.0
C1629 C 0.13713 0.27975 0.18303 0.0
C1630 C 0.14617 0.27638 0.19017 0.0
C1631 C 0.15614 0.27482 0.18237 0.0
C1632 C 0.15723 0.27678 0.16701 0.0
C1633 C 0.16698 0.27511 0.15875 0.0
C1634 C 0.16791 0.27699 0.14364 0.0
C1635 C 0.15894 0.28035 0.13615 0.0
C1636 C 0.14903 0.28209 0.14424 0.0
C1637 C 0.14819 0.28034 0.15968 0.0
C1638 C 0.07259 0.27104 0.20068 0.0
C1639 C 0.08065 0.27315 0.21511 0.0
O1640 O 0.19258 0.27527 0.07845 0.0
O1641 O 0.18945 0.25627 0.20992 0.0
O1642 O 0.09462 0.2832 0.21355 0.0
O1643 O 0.10577 0.29838 0.086 0.0
H1644 H 0.19203 0.29043 0.06605 0.0
H1645 H 0.17624 0.2678 0.05459 0.0
H1646 H 0.19018 0.26423 0.05185 0.0
H1647 H 0.19019 0.27843 0.04231 0.0
H1648 H 0.19859 0.29941 0.09098 0.0
H1649 H 0.17176 0.25494 0.09161 0.0
H1650 H 0.1783 0.30955 0.10686 0.0
H1651 H 0.19641 0.31444 0.10817 0.0
H1652 H 0.18502 0.30687 0.12365 0.0
H1653 H 0.15184 0.24393 0.10644 0.0
H1654 H 0.14379 0.25439 0.10934 0.0
H1655 H 0.1539 0.25288 0.12377 0.0
H1656 H 0.09375 0.28023 0.073 0.0
H1657 H 0.08596 0.29209 0.05955 0.0
H1658 H 0.09417 0.30651 0.06991 0.0
H1659 H 0.06685 0.28832 0.08455 0.0
H1660 H 0.09954 0.27286 0.09498 0.0
H1661 H 0.12937 0.31687 0.0974 0.0
H1662 H 0.12107 0.26098 0.1074 0.0
H1663 H 0.10294 0.25619 0.10669 0.0
H1664 H 0.11287 0.26254 0.12361 0.0
H1665 H 0.15002 0.32615 0.11176 0.0
H1666 H 0.15749 0.31507 0.10996 0.0
H1667 H 0.1496 0.31558 0.12687 0.0
H1668 H 0.07971 0.26306 0.21827 0.0
H1669 H 0.09209 0.25967 0.20117 0.0
H1670 H 0.11982 0.30337 0.21058 0.0
H1671 H 0.11097 0.25549 0.17404 0.0
H1672 H 0.09895 0.24582 0.18842 0.0
H1673 H 0.11725 0.25147 0.1903 0.0
H1674 H 0.14337 0.31517 0.20331 0.0
H1675 H 0.14529 0.30895 0.18555 0.0
H1676 H 0.15108 0.30427 0.20172 0.0
H1677 H 0.20674 0.26773 0.19719 0.0
H1678 H 0.21651 0.25241 0.20155 0.0
H1679 H 0.19891 0.24271 0.19436 0.0
H1680 H 0.20221 0.24172 0.21359 0.0
H1681 H 0.1633 0.24086 0.20363 0.0
H1682 H 0.19796 0.28286 0.20371 0.0
H1683 H 0.1417 0.24615 0.17866 0.0
H1684 H 0.13707 0.2473 0.19724 0.0
H1685 H 0.14176 0.23446 0.19222 0.0
H1686 H 0.19543 0.30194 0.19687 0.0
H1687 H 0.17799 0.29914 0.19501 0.0
H1688 H 0.18654 0.29715 0.17933 0.0
H1689 H 0.15081 0.28624 0.10184 0.0
H1690 H 0.12295 0.28974 0.13991 0.0
H1691 H 0.12148 0.28671 0.16594 0.0
H1692 H 0.14524 0.27465 0.2019 0.0
H1693 H 0.17402 0.27231 0.16386 0.0
H1694 H 0.17566 0.27565 0.13786 0.0
H1695 H 0.06135 0.26323 0.20209 0.0
H1696 H 0.07663 0.26712 0.19184 0.0
H1697 H 0.07362 0.28106 0.19711 0.0
C1698 C 0.74389 0.9403 0.09501 0.0
C1699 C 0.73019 0.92731 0.08999 0.0
C1700 C 0.72401 0.90911 0.10843 0.0
C1701 C 0.71336 0.90035 0.11783 0.0
C1702 C 0.71367 0.88939 0.12495 0.0
C1703 C 0.72531 0.88757 0.1231 0.0
C1704 C 0.73622 0.89649 0.11367 0.0
C1705 C 0.73535 0.90703 0.10623 0.0
C1706 C 0.7015 0.87976 0.13438 0.0
C1707 C 0.74886 0.89498 0.11151 0.0
C1708 C 0.7234 0.81599 0.06332 0.0
C1709 C 0.71296 0.8093 0.07573 0.0
C1710 C 0.72038 0.82164 0.09935 0.0
C1711 C 0.73308 0.83101 0.10618 0.0
C1712 C 0.73406 0.84113 0.1163 0.0
C1713 C 0.72189 0.84151 0.11999 0.0
C1714 C 0.70885 0.83152 0.1137 0.0
C1715 C 0.70823 0.82167 0.10341 0.0
C1716 C 0.74818 0.85167 0.12268 0.0
C1717 C 0.69562 0.83139 0.11769 0.0
C1718 C 0.72432 0.81752 0.21326 0.0
C1719 C 0.73744 0.82752 0.20789 0.0
C1720 C 0.7393 0.83959 0.20102 0.0
C1721 C 0.72781 0.84167 0.19944 0.0
C1722 C 0.71467 0.83177 0.20506 0.0
C1723 C 0.71313 0.81984 0.21194 0.0
C1724 C 0.75348 0.85003 0.19523 0.0
C1725 C 0.70221 0.83368 0.20356 0.0
C1726 C 0.7599 0.95325 0.21444 0.0
C1727 C 0.74745 0.93881 0.21767 0.0
C1728 C 0.74753 0.91691 0.21537 0.0
C1729 C 0.75707 0.9125 0.21274 0.0
C1730 C 0.75291 0.89966 0.2056 0.0
C1731 C 0.73873 0.89086 0.20144 0.0
C1732 C 0.72883 0.89484 0.20507 0.0
C1733 C 0.73336 0.90792 0.21186 0.0
C1734 C 0.76376 0.89571 0.2021 0.0
C1735 C 0.71353 0.88546 0.2014 0.0
C1736 C 0.72593 0.87623 0.13092 0.0
C1737 C 0.72343 0.86439 0.12281 0.0
C1738 C 0.72305 0.85298 0.12959 0.0
C1739 C 0.72445 0.85302 0.14502 0.0
C1740 C 0.72304 0.84131 0.15232 0.0
C1741 C 0.72452 0.84151 0.16752 0.0
C1742 C 0.72769 0.85353 0.17595 0.0
C1743 C 0.7294 0.85392 0.19138 0.0
C1744 C 0.73273 0.86609 0.19941 0.0
C1745 C 0.7345 0.87802 0.19243 0.0
C1746 C 0.73269 0.87778 0.17702 0.0
C1747 C 0.73442 0.88959 0.1696 0.0
C1748 C 0.73224 0.88913 0.15452 0.0
C1749 C 0.7285 0.87692 0.14621 0.0
C1750 C 0.72736 0.86513 0.15333 0.0
C1751 C 0.72922 0.86547 0.16879 0.0
C1752 C 0.73216 0.79423 0.2063 0.0
C1753 C 0.73091 0.80038 0.22101 0.0
O1754 O 0.72294 0.9195 0.10197 0.0
O1755 O 0.75234 0.92991 0.2212 0.0
O1756 O 0.72187 0.80548 0.21963 0.0
O1757 O 0.7202 0.81265 0.089 0.0
H1758 H 0.73262 0.92089 0.0824 0.0
H1759 H 0.75085 0.93725 0.10051 0.0
H1760 H 0.74188 0.9468 0.10289 0.0
H1761 H 0.74947 0.94672 0.0854 0.0
H1762 H 0.70463 0.902 0.11941 0.0
H1763 H 0.74366 0.91369 0.09894 0.0
H1764 H 0.69851 0.86868 0.13236 0.0
H1765 H 0.69223 0.88084 0.13231 0.0
H1766 H 0.70453 0.88232 0.14612 0.0
H1767 H 0.75736 0.90403 0.10575 0.0
H1768 H 0.74583 0.88536 0.10488 0.0
H1769 H 0.75295 0.8939 0.12225 0.0
H1770 H 0.70584 0.81362 0.07529 0.0
H1771 H 0.72935 0.82754 0.06491 0.0
H1772 H 0.71784 0.8135 0.05254 0.0
H1773 H 0.7309 0.81216 0.06317 0.0
H1774 H 0.74234 0.8307 0.10313 0.0
H1775 H 0.69827 0.814 0.09858 0.0
H1776 H 0.74821 0.85035 0.13472 0.0
H1777 H 0.75035 0.86245 0.12075 0.0
H1778 H 0.75674 0.85054 0.11788 0.0
H1779 H 0.68614 0.8219 0.11337 0.0
H1780 H 0.69588 0.84074 0.11311 0.0
H1781 H 0.69486 0.83195 0.12981 0.0
H1782 H 0.74139 0.80896 0.22468 0.0
H1783 H 0.74627 0.82598 0.20887 0.0
H1784 H 0.70306 0.81212 0.21616 0.0
H1785 H 0.75285 0.85052 0.18311 0.0
H1786 H 0.76154 0.84729 0.198 0.0
H1787 H 0.75683 0.86062 0.1998 0.0
H1788 H 0.69271 0.82506 0.20861 0.0
H1789 H 0.69998 0.83416 0.19176 0.0
H1790 H 0.70457 0.84374 0.20884 0.0
H1791 H 0.74097 0.93507 0.20742 0.0
H1792 H 0.75625 0.96056 0.21141 0.0
H1793 H 0.76587 0.95244 0.20511 0.0
H1794 H 0.76699 0.9576 0.22417 0.0
H1795 H 0.76794 0.91944 0.21575 0.0
H1796 H 0.72586 0.91113 0.21439 0.0
H1797 H 0.76349 0.89337 0.19017 0.0
H1798 H 0.76135 0.88609 0.20805 0.0
H1799 H 0.77448 0.90411 0.20525 0.0
H1800 H 0.70694 0.8889 0.20715 0.0
H1801 H 0.71001 0.8745 0.20439 0.0
H1802 H 0.71185 0.88559 0.1894 0.0
H1803 H 0.72187 0.86407 0.11101 0.0
H1804 H 0.72065 0.83181 0.14637 0.0
H1805 H 0.72323 0.83216 0.17255 0.0
H1806 H 0.73411 0.86632 0.21122 0.0
H1807 H 0.73736 0.89931 0.17538 0.0
H1808 H 0.73361 0.8985 0.14943 0.0
H1809 H 0.73924 0.78995 0.20748 0.0
H1810 H 0.73654 0.80243 0.19785 0.0
H1811 H 0.72175 0.78573 0.20238 0.0
C1812 C 0.21059 0.92004 0.07468 0.0
C1813 C 0.19751 0.91365 0.0831 0.0
C1814 C 0.18536 0.89649 0.10205 0.0
C1815 C 0.17545 0.90055 0.10479 0.0
C1816 C 0.16397 0.89258 0.11379 0.0
C1817 C 0.16232 0.88026 0.12011 0.0
C1818 C 0.17251 0.8764 0.11779 0.0
C1819 C 0.18398 0.88466 0.10887 0.0
C1820 C 0.15339 0.89709 0.11622 0.0
C1821 C 0.17103 0.86331 0.12433 0.0
C1822 C 0.08491 0.82499 0.05515 0.0
C1823 C 0.08894 0.81882 0.06785 0.0
C1824 C 0.09384 0.82841 0.09274 0.0
C1825 C 0.10327 0.82422 0.09711 0.0
C1826 C 0.11292 0.83133 0.10855 0.0
C1827 C 0.11325 0.84296 0.11559 0.0
C1828 C 0.10332 0.8468 0.1116 0.0
C1829 C 0.09353 0.83924 0.1004 0.0
C1830 C 0.1231 0.82671 0.11275 0.0
C1831 C 0.10347 0.85928 0.11864 0.0
C1832 C 0.08029 0.82513 0.20724 0.0
C1833 C 0.08966 0.82049 0.20404 0.0
C1834 C 0.10276 0.82959 0.19802 0.0
C1835 C 0.10647 0.84354 0.195 0.0
C1836 C 0.09724 0.84835 0.19874 0.0
C1837 C 0.08433 0.8391 0.205 0.0
C1838 C 0.11256 0.82426 0.1947 0.0
C1839 C 0.10089 0.86318 0.19583 0.0
C1840 C 0.20149 0.93443 0.21334 0.0
C1841 C 0.19401 0.92629 0.22706 0.0
C1842 C 0.17782 0.90275 0.21665 0.0
C1843 C 0.17572 0.88929 0.21473 0.0
C1844 C 0.16461 0.87915 0.20609 0.0
C1845 C 0.15531 0.88257 0.19926 0.0
C1846 C 0.15716 0.89608 0.20138 0.0
C1847 C 0.16842 0.90606 0.21002 0.0
C1848 C 0.16293 0.86485 0.20405 0.0
C1849 C 0.14733 0.90001 0.19436 0.0
C1850 C 0.14928 0.87075 0.12793 0.0
C1851 C 0.13777 0.86136 0.11937 0.0
C1852 C 0.125 0.85211 0.12572 0.0
C1853 C 0.12364 0.85206 0.14114 0.0
C1854 C 0.11103 0.84273 0.14793 0.0
C1855 C 0.10972 0.84302 0.1631 0.0
C1856 C 0.12102 0.85254 0.17207 0.0
C1857 C 0.11976 0.85297 0.1875 0.0
C1858 C 0.13114 0.86273 0.19604 0.0
C1859 C 0.14383 0.87214 0.1896 0.0
C1860 C 0.14535 0.87175 0.17422 0.0
C1861 C 0.15802 0.88096 0.16741 0.0
C1862 C 0.15936 0.88064 0.15225 0.0
C1863 C 0.14808 0.87109 0.14334 0.0
C1864 C 0.13521 0.86167 0.14997 0.0
C1865 C 0.13387 0.86196 0.16544 0.0
C1866 C 0.04442 0.79932 0.20473 0.0
C1867 C 0.05901 0.80234 0.20906 0.0
O1868 O 0.19618 0.90352 0.09276 0.0
O1869 O 0.18907 0.91212 0.22485 0.0
O1870 O 0.06733 0.81646 0.21249 0.0
O1871 O 0.08519 0.82246 0.08096 0.0
H1872 H 0.18784 0.91071 0.07662 0.0
H1873 H 0.20713 0.91712 0.06285 0.0
H1874 H 0.21506 0.9129 0.07551 0.0
H1875 H 0.2222 0.94219 0.08312 0.0
H1876 H 0.17651 0.90983 0.09981 0.0
H1877 H 0.19173 0.88168 0.10681 0.0
H1878 H 0.1434 0.8895 0.11067 0.0
H1879 H 0.15691 0.90766 0.11187 0.0
H1880 H 0.15129 0.89713 0.12812 0.0
H1881 H 0.17999 0.86187 0.12168 0.0
H1882 H 0.16127 0.85404 0.12014 0.0
H1883 H 0.17021 0.86372 0.13644 0.0
H1884 H 0.1005 0.82354 0.0674 0.0
H1885 H 0.08784 0.82224 0.0445 0.0
H1886 H 0.09051 0.83657 0.05634 0.0
H1887 H 0.0735 0.82102 0.05503 0.0
H1888 H 0.10319 0.81553 0.09145 0.0
H1889 H 0.08606 0.84225 0.09702 0.0
H1890 H 0.12405 0.8266 0.12488 0.0
H1891 H 0.13357 0.83425 0.10846 0.0
H1892 H 0.11992 0.81614 0.1082 0.0
H1893 H 0.09565 0.86143 0.11357 0.0
H1894 H 0.11399 0.86873 0.11769 0.0
H1895 H 0.10119 0.85742 0.1305 0.0
H1896 H 0.06312 0.79948 0.1993 0.0
H1897 H 0.08677 0.8098 0.20628 0.0
H1898 H 0.07711 0.84262 0.20774 0.0
H1899 H 0.11354 0.82366 0.18263 0.0
H1900 H 0.10884 0.81372 0.19923 0.0
H1901 H 0.12312 0.83162 0.19928 0.0
H1902 H 0.09222 0.86504 0.19854 0.0
H1903 H 0.10357 0.86561 0.1841 0.0
H1904 H 0.11022 0.87054 0.20249 0.0
H1905 H 0.18517 0.92795 0.22961 0.0
H1906 H 0.20561 0.94579 0.21518 0.0
H1907 H 0.19418 0.93092 0.2038 0.0
H1908 H 0.21031 0.93279 0.21059 0.0
H1909 H 0.18298 0.88681 0.21992 0.0
H1910 H 0.16979 0.91637 0.21144 0.0
H1911 H 0.16333 0.86265 0.19219 0.0
H1912 H 0.15255 0.85676 0.20808 0.0
H1913 H 0.17114 0.86387 0.20998 0.0
H1914 H 0.14972 0.91068 0.19771 0.0
H1915 H 0.1364 0.89238 0.19736 0.0
H1916 H 0.14802 0.89958 0.18223 0.0
H1917 H 0.13873 0.86134 0.10752 0.0
H1918 H 0.10202 0.83515 0.14158 0.0
H1919 H 0.09971 0.83568 0.16769 0.0
H1920 H 0.13006 0.8631 0.20784 0.0
H1921 H 0.16706 0.88856 0.17372 0.0
H1922 H 0.16934 0.88799 0.1476 0.0
H1923 H 0.03967 0.80219 0.21384 0.0
H1924 H 0.03755 0.78805 0.20186 0.0
H1925 H 0.04508 0.80553 0.19499 0.0
C1926 C 0.29208 0.07969 0.93512 0.0
C1927 C 0.28572 0.08658 0.92703 0.0
C1928 C 0.2923 0.1083 0.91436 0.0
C1929 C 0.27877 0.10396 0.90904 0.0
C1930 C 0.27608 0.11305 0.90098 0.0
C1931 C 0.28717 0.12664 0.89793 0.0
C1932 C 0.30086 0.1309 0.90291 0.0
C1933 C 0.30322 0.12167 0.91112 0.0
C1934 C 0.26133 0.1082 0.89592 0.0
C1935 C 0.31294 0.14527 0.89974 0.0
C1936 C 0.268 0.18631 0.96181 0.0
C1937 C 0.27813 0.19132 0.94898 0.0
C1938 C 0.27292 0.18043 0.92464 0.0
C1939 C 0.28649 0.18411 0.92053 0.0
C1940 C 0.2887 0.17652 0.90948 0.0
C1941 C 0.27708 0.16489 0.90259 0.0
C1942 C 0.26338 0.16148 0.9064 0.0
C1943 C 0.2615 0.16952 0.91719 0.0
C1944 C 0.30345 0.18069 0.90548 0.0
C1945 C 0.25072 0.14903 0.8995 0.0
C1946 C 0.26115 0.18253 0.81087 0.0
C1947 C 0.27529 0.18742 0.81403 0.0
C1948 C 0.27947 0.17853 0.82009 0.0
C1949 C 0.26929 0.16454 0.8232 0.0
C1950 C 0.2551 0.15948 0.81954 0.0
C1951 C 0.25126 0.16853 0.81323 0.0
C1952 C 0.29475 0.18411 0.82335 0.0
C1953 C 0.24397 0.1446 0.82254 0.0
C1954 C 0.27326 0.07424 0.80621 0.0
C1955 C 0.2734 0.08168 0.7921 0.0
C1956 C 0.28091 0.10544 0.80163 0.0
C1957 C 0.29238 0.11898 0.80323 0.0
C1958 C 0.29163 0.1292 0.81177 0.0
C1959 C 0.279 0.12579 0.81879 0.0
C1960 C 0.26721 0.11222 0.81693 0.0
C1961 C 0.26828 0.10216 0.8084 0.0
C1962 C 0.30438 0.14357 0.81353 0.0
C1963 C 0.25352 0.10829 0.82412 0.0
C1964 C 0.28432 0.13666 0.89023 0.0
C1965 C 0.28234 0.14602 0.89884 0.0
C1966 C 0.27928 0.15556 0.89249 0.0
C1967 C 0.27809 0.15581 0.87706 0.0
C1968 C 0.27503 0.16526 0.87028 0.0
C1969 C 0.27344 0.1651 0.8551 0.0
C1970 C 0.2751 0.15565 0.84609 0.0
C1971 C 0.27336 0.15529 0.83066 0.0
C1972 C 0.27493 0.14563 0.82207 0.0
C1973 C 0.2782 0.13624 0.82847 0.0
C1974 C 0.28014 0.13655 0.84385 0.0
C1975 C 0.28363 0.12738 0.85061 0.0
C1976 C 0.28515 0.12749 0.86578 0.0
C1977 C 0.28319 0.13674 0.87478 0.0
C1978 C 0.27996 0.14628 0.86818 0.0
C1979 C 0.27847 0.14621 0.85269 0.0
C1980 C 0.2509 0.20803 0.81297 0.0
C1981 C 0.26253 0.20513 0.80882 0.0
O1982 O 0.29523 0.10003 0.92274 0.0
O1983 O 0.2826 0.09596 0.79361 0.0
O1984 O 0.25668 0.191 0.80557 0.0
O1985 O 0.27053 0.18702 0.93593 0.0
H1986 H 0.27598 0.08538 0.93187 0.0
H1987 H 0.30276 0.08816 0.93907 0.0
H1988 H 0.28919 0.06242 0.91981 0.0
H1989 H 0.28731 0.07776 0.94638 0.0
H1990 H 0.27023 0.09357 0.91127 0.0
H1991 H 0.31363 0.1249 0.91518 0.0
H1992 H 0.25809 0.11559 0.90003 0.0
H1993 H 0.25376 0.09755 0.89977 0.0
H1994 H 0.26086 0.10813 0.88375 0.0
H1995 H 0.32314 0.14646 0.90302 0.0
H1996 H 0.3116 0.15324 0.90583 0.0
H1997 H 0.31314 0.14744 0.88786 0.0
H1998 H 0.28458 0.18629 0.95016 0.0
H1999 H 0.27384 0.18955 0.97243 0.0
H2000 H 0.26151 0.17471 0.96142 0.0
H2001 H 0.26095 0.19068 0.96125 0.0
H2002 H 0.29535 0.19285 0.92602 0.0
H2003 H 0.25107 0.16689 0.92037 0.0
H2004 H 0.3045 0.18053 0.89338 0.0
H2005 H 0.30602 0.17304 0.91009 0.0
H2006 H 0.31117 0.19126 0.90987 0.0
H2007 H 0.24083 0.14714 0.90454 0.0
H2008 H 0.25148 0.13948 0.90064 0.0
H2009 H 0.25025 0.15076 0.8876 0.0
H2010 H 0.26956 0.20814 0.81864 0.0
H2011 H 0.28306 0.19815 0.81171 0.0
H2012 H 0.24041 0.16482 0.81053 0.0
H2013 H 0.29647 0.18469 0.83541 0.0
H2014 H 0.30149 0.1947 0.81885 0.0
H2015 H 0.298 0.17691 0.81868 0.0
H2016 H 0.23331 0.14256 0.81994 0.0
H2017 H 0.24442 0.14223 0.83426 0.0
H2018 H 0.24589 0.13732 0.81583 0.0
H2019 H 0.26271 0.07968 0.78967 0.0
H2020 H 0.26604 0.06277 0.8049 0.0
H2021 H 0.26964 0.078 0.81559 0.0
H2022 H 0.28391 0.07624 0.80886 0.0
H2023 H 0.30206 0.12145 0.79792 0.0
H2024 H 0.25924 0.0918 0.80721 0.0
H2025 H 0.30724 0.14595 0.82534 0.0
H2026 H 0.30202 0.15154 0.80943 0.0
H2027 H 0.31349 0.14452 0.8075 0.0
H2028 H 0.24505 0.09764 0.82076 0.0
H2029 H 0.25028 0.11595 0.8213 0.0
H2030 H 0.25484 0.10865 0.83623 0.0
H2031 H 0.28309 0.14579 0.9107 0.0
H2032 H 0.27368 0.1728 0.87666 0.0
H2033 H 0.27088 0.17249 0.85053 0.0
H2034 H 0.27338 0.14528 0.81027 0.0
H2035 H 0.28517 0.11996 0.84425 0.0
H2036 H 0.2878 0.12017 0.87038 0.0
H2037 H 0.24317 0.20497 0.80384 0.0
H2038 H 0.25533 0.21932 0.81566 0.0
H2039 H 0.24539 0.20193 0.82278 0.0
C2040 C 0.82754 0.08466 0.96354 0.0
C2041 C 0.82061 0.08879 0.95167 0.0
C2042 C 0.8286 0.09251 0.92651 0.0
C2043 C 0.82501 0.10238 0.92222 0.0
C2044 C 0.83207 0.11157 0.91078 0.0
C2045 C 0.84314 0.11104 0.90373 0.0
C2046 C 0.84645 0.10075 0.90777 0.0
C2047 C 0.83887 0.09139 0.91891 0.0
C2048 C 0.82796 0.12211 0.90654 0.0
C2049 C 0.85836 0.09999 0.9008 0.0
C2050 C 0.91079 0.22182 0.92881 0.0
C2051 C 0.90197 0.21048 0.91818 0.0
C2052 C 0.89601 0.18671 0.91133 0.0
C2053 C 0.90025 0.17682 0.91156 0.0
C2054 C 0.89222 0.16364 0.90467 0.0
C2055 C 0.87954 0.16028 0.8975 0.0
C2056 C 0.87511 0.1702 0.89733 0.0
C2057 C 0.88343 0.18334 0.90413 0.0
C2058 C 0.89725 0.15332 0.90502 0.0
C2059 C 0.86151 0.16687 0.89003 0.0
C2060 C 0.90009 0.1705 0.80245 0.0
C2061 C 0.90347 0.16107 0.80874 0.0
C2062 C 0.89367 0.14987 0.8171 0.0
C2063 C 0.88026 0.14808 0.81923 0.0
C2064 C 0.87669 0.15729 0.81253 0.0
C2065 C 0.88665 0.16834 0.80418 0.0
C2066 C 0.89774 0.1401 0.82394 0.0
C2067 C 0.86246 0.15564 0.81452 0.0
C2068 C 0.79075 0.03932 0.81287 0.0
C2069 C 0.79674 0.05435 0.80776 0.0
C2070 C 0.82061 0.07368 0.81224 0.0
C2071 C 0.83393 0.07632 0.81609 0.0
C2072 C 0.84395 0.08926 0.82229 0.0
C2073 C 0.84058 0.09985 0.82448 0.0
C2074 C 0.82733 0.09747 0.82 0.0
C2075 C 0.81747 0.08441 0.81388 0.0
C2076 C 0.85806 0.09153 0.82675 0.0
C2077 C 0.82354 0.10868 0.82185 0.0
C2078 C 0.85217 0.12214 0.89334 0.0
C2079 C 0.86163 0.13532 0.89932 0.0
C2080 C 0.87071 0.14631 0.89044 0.0
C2081 C 0.87075 0.14406 0.87515 0.0
C2082 C 0.88016 0.15473 0.86598 0.0
C2083 C 0.88004 0.15247 0.85092 0.0
C2084 C 0.87046 0.13945 0.84443 0.0
C2085 C 0.87026 0.13707 0.82912 0.0
C2086 C 0.86045 0.1241 0.82297 0.0
C2087 C 0.8508 0.11331 0.83175 0.0
C2088 C 0.85097 0.11542 0.84713 0.0
C2089 C 0.8415 0.10477 0.85632 0.0
C2090 C 0.8418 0.10695 0.87144 0.0
C2091 C 0.85161 0.11984 0.87796 0.0
C2092 C 0.86109 0.1308 0.86887 0.0
C2093 C 0.86084 0.12855 0.85347 0.0
C2094 C 0.93106 0.19432 0.80828 0.0
C2095 C 0.92367 0.18737 0.79369 0.0
O2096 O 0.82251 0.08416 0.93813 0.0
O2097 O 0.81114 0.0607 0.80701 0.0
O2098 O 0.90938 0.18186 0.79482 0.0
O2099 O 0.90424 0.19929 0.91821 0.0
H2100 H 0.82588 0.10044 0.95206 0.0
H2101 H 0.83887 0.08949 0.96132 0.0
H2102 H 0.82283 0.07311 0.9637 0.0
H2103 H 0.82634 0.08841 0.97451 0.0
H2104 H 0.81676 0.10295 0.92791 0.0
H2105 H 0.84142 0.0836 0.92226 0.0
H2106 H 0.83578 0.13256 0.91109 0.0
H2107 H 0.81755 0.11936 0.91085 0.0
H2108 H 0.82777 0.12291 0.89442 0.0
H2109 H 0.86058 0.09247 0.90637 0.0
H2110 H 0.86799 0.11047 0.90109 0.0
H2111 H 0.85576 0.09666 0.88912 0.0
H2112 H 0.90105 0.21389 0.90699 0.0
H2113 H 0.91977 0.22029 0.93194 0.0
H2114 H 0.89545 0.2213 0.94504 0.0
H2115 H 0.91737 0.23132 0.92198 0.0
H2116 H 0.90995 0.17948 0.91714 0.0
H2117 H 0.87996 0.19086 0.90386 0.0
H2118 H 0.88983 0.14404 0.91134 0.0
H2119 H 0.9078 0.15787 0.91013 0.0
H2120 H 0.89754 0.14964 0.8937 0.0
H2121 H 0.85903 0.1753 0.89181 0.0
H2122 H 0.85282 0.15696 0.89432 0.0
H2123 H 0.86208 0.16536 0.87805 0.0
H2124 H 0.92583 0.17889 0.79068 0.0
H2125 H 0.91374 0.16242 0.80734 0.0
H2126 H 0.88409 0.17559 0.79919 0.0
H2127 H 0.89783 0.14117 0.83607 0.0
H2128 H 0.90821 0.14228 0.82042 0.0
H2129 H 0.88991 0.12909 0.82096 0.0
H2130 H 0.86127 0.16361 0.80848 0.0
H2131 H 0.86068 0.15654 0.82637 0.0
H2132 H 0.85427 0.14507 0.81061 0.0
H2133 H 0.79373 0.05964 0.81624 0.0
H2134 H 0.77918 0.03396 0.8134 0.0
H2135 H 0.79488 0.03939 0.82402 0.0
H2136 H 0.7937 0.03331 0.80534 0.0
H2137 H 0.83632 0.06805 0.81457 0.0
H2138 H 0.80738 0.08266 0.81037 0.0
H2139 H 0.85977 0.09387 0.83872 0.0
H2140 H 0.86639 0.10071 0.82099 0.0
H2141 H 0.8591 0.08228 0.8242 0.0
H2142 H 0.81298 0.10537 0.81736 0.0
H2143 H 0.83131 0.11831 0.81623 0.0
H2144 H 0.82387 0.11139 0.83368 0.0
H2145 H 0.86183 0.13711 0.91109 0.0
H2146 H 0.88776 0.16496 0.87037 0.0
H2147 H 0.88755 0.16109 0.84444 0.0
H2148 H 0.8603 0.12238 0.81121 0.0
H2149 H 0.83375 0.09461 0.85193 0.0
H2150 H 0.83425 0.0984 0.87798 0.0
H2151 H 0.92881 0.20266 0.81157 0.0
H2152 H 0.94253 0.199 0.80725 0.0
H2153 H 0.92751 0.18653 0.81713 0.0
C2154 C 0.81729 0.71737 0.953 0.0
C2155 C 0.8073 0.71723 0.94123 0.0
C2156 C 0.81811 0.71367 0.91937 0.0
C2157 C 0.82912 0.72756 0.91817 0.0
C2158 C 0.84038 0.73087 0.90889 0.0
C2159 C 0.84074 0.72007 0.9008 0.0
C2160 C 0.82949 0.70615 0.90166 0.0
C2161 C 0.81821 0.70318 0.91078 0.0
C2162 C 0.85209 0.74587 0.90803 0.0
C2163 C 0.82961 0.69434 0.89335 0.0
C2164 C 0.91294 0.7353 0.96303 0.0
C2165 C 0.91035 0.72497 0.95042 0.0
C2166 C 0.90723 0.731 0.92582 0.0
C2167 C 0.89729 0.71783 0.92011 0.0
C2168 C 0.88801 0.71659 0.9089 0.0
C2169 C 0.88862 0.72879 0.90347 0.0
C2170 C 0.89913 0.74213 0.90875 0.0
C2171 C 0.90849 0.74305 0.91971 0.0
C2172 C 0.87719 0.70222 0.90329 0.0
C2173 C 0.9 0.75536 0.90339 0.0
C2174 C 0.92166 0.74796 0.81249 0.0
C2175 C 0.91199 0.73372 0.8145 0.0
C2176 C 0.89882 0.72946 0.82045 0.0
C2177 C 0.89535 0.73966 0.82462 0.0
C2178 C 0.90487 0.75396 0.82201 0.0
C2179 C 0.91785 0.7579 0.81579 0.0
C2180 C 0.88873 0.71409 0.8226 0.0
C2181 C 0.90147 0.76512 0.82614 0.0
C2182 C 0.80279 0.7388 0.80906 0.0
C2183 C 0.8079 0.7344 0.7955 0.0
C2184 C 0.82321 0.72662 0.80622 0.0
C2185 C 0.82434 0.7149 0.80915 0.0
C2186 C 0.83589 0.71614 0.81686 0.0
C2187 C 0.84654 0.72949 0.82187 0.0
C2188 C 0.84565 0.74146 0.81869 0.0
C2189 C 0.83405 0.73993 0.81082 0.0
C2190 C 0.83658 0.70317 0.81992 0.0
C2191 C 0.85685 0.75585 0.82387 0.0
C2192 C 0.85346 0.72319 0.89255 0.0
C2193 C 0.86473 0.72437 0.9006 0.0
C2194 C 0.8772 0.72749 0.89384 0.0
C2195 C 0.87852 0.7294 0.8785 0.0
C2196 C 0.89089 0.73249 0.87131 0.0
C2197 C 0.89214 0.7346 0.85624 0.0
C2198 C 0.88097 0.73343 0.84774 0.0
C2199 C 0.88212 0.73551 0.8324 0.0
C2200 C 0.87074 0.73407 0.82427 0.0
C2201 C 0.85823 0.73083 0.83109 0.0
C2202 C 0.85697 0.72898 0.84645 0.0
C2203 C 0.84466 0.72607 0.85372 0.0
C2204 C 0.8435 0.72424 0.86882 0.0
C2205 C 0.85457 0.72516 0.87723 0.0
C2206 C 0.86714 0.72822 0.87017 0.0
C2207 C 0.86835 0.73018 0.85477 0.0
C2208 C 0.9573 0.75758 0.81535 0.0
C2209 C 0.94266 0.7463 0.81028 0.0
O2210 O 0.80737 0.70988 0.92881 0.0
O2211 O 0.81146 0.7245 0.79915 0.0
O2212 O 0.93475 0.75249 0.80752 0.0
O2213 O 0.91538 0.73231 0.93755 0.0
H2214 H 0.81054 0.72815 0.93831 0.0
H2215 H 0.81706 0.72304 0.96305 0.0
H2216 H 0.81431 0.70651 0.9559 0.0
H2217 H 0.82817 0.72278 0.94896 0.0
H2218 H 0.82912 0.73587 0.9245 0.0
H2219 H 0.80962 0.69253 0.9117 0.0
H2220 H 0.86152 0.74704 0.91365 0.0
H2221 H 0.84936 0.75326 0.91329 0.0
H2222 H 0.85481 0.74882 0.8964 0.0
H2223 H 0.82029 0.68402 0.89563 0.0
H2224 H 0.83913 0.694 0.89635 0.0
H2225 H 0.82995 0.69618 0.88138 0.0
H2226 H 0.89883 0.71776 0.94965 0.0
H2227 H 0.90902 0.72964 0.97349 0.0
H2228 H 0.90733 0.741 0.96076 0.0
H2229 H 0.92426 0.74307 0.96431 0.0
H2230 H 0.89663 0.70853 0.92462 0.0
H2231 H 0.91635 0.75317 0.92413 0.0
H2232 H 0.87646 0.70207 0.89112 0.0
H2233 H 0.86682 0.69952 0.90766 0.0
H2234 H 0.87957 0.69407 0.90672 0.0
H2235 H 0.90849 0.76487 0.90897 0.0
H2236 H 0.88993 0.75495 0.90527 0.0
H2237 H 0.90188 0.75626 0.8914 0.0
H2238 H 0.9382 0.73893 0.81956 0.0
H2239 H 0.91471 0.72594 0.81144 0.0
H2240 H 0.92531 0.76884 0.81396 0.0
H2241 H 0.88755 0.71188 0.83451 0.0
H2242 H 0.89231 0.7074 0.81726 0.0
H2243 H 0.87828 0.71116 0.81807 0.0
H2244 H 0.91027 0.77583 0.82406 0.0
H2245 H 0.89877 0.76439 0.83794 0.0
H2246 H 0.89222 0.76344 0.81971 0.0
H2247 H 0.81715 0.74377 0.79099 0.0
H2248 H 0.79957 0.74642 0.80597 0.0
H2249 H 0.81121 0.74386 0.81749 0.0
H2250 H 0.79377 0.72957 0.81403 0.0
H2251 H 0.81601 0.70468 0.8055 0.0
H2252 H 0.83348 0.74917 0.80853 0.0
H2253 H 0.83579 0.70133 0.83191 0.0
H2254 H 0.84678 0.70463 0.81637 0.0
H2255 H 0.82806 0.69373 0.81425 0.0
H2256 H 0.85444 0.76409 0.82088 0.0
H2257 H 0.86697 0.75839 0.81895 0.0
H2258 H 0.85812 0.75602 0.83598 0.0
H2259 H 0.8638 0.72293 0.91238 0.0
H2260 H 0.89977 0.7334 0.87728 0.0
H2261 H 0.90198 0.73711 0.85134 0.0
H2262 H 0.87168 0.73562 0.81251 0.0
H2263 H 0.83577 0.7252 0.84781 0.0
H2264 H 0.83379 0.72206 0.87382 0.0
H2265 H 0.96389 0.75286 0.81746 0.0
H2266 H 0.95663 0.76261 0.8257 0.0
H2267 H 0.9624 0.7658 0.80698 0.0
C2268 C 0.85678 0.61313 0.38456 0.0
C2269 C 0.86431 0.62347 0.39728 0.0
C2270 C 0.85325 0.61728 0.42103 0.0
C2271 C 0.85595 0.63034 0.4264 0.0
C2272 C 0.84719 0.63129 0.43682 0.0
C2273 C 0.83542 0.61892 0.44182 0.0
C2274 C 0.83298 0.60571 0.43677 0.0
C2275 C 0.84213 0.60508 0.42662 0.0
C2276 C 0.85031 0.64553 0.4422 0.0
C2277 C 0.82046 0.59229 0.44168 0.0
C2278 C 0.74721 0.63184 0.41002 0.0
C2279 C 0.7551 0.62536 0.41558 0.0
C2280 C 0.77687 0.63183 0.42862 0.0
C2281 C 0.77328 0.61801 0.43165 0.0
C2282 C 0.78248 0.61523 0.43948 0.0
C2283 C 0.79546 0.62649 0.4445 0.0
C2284 C 0.79906 0.6404 0.44157 0.0
C2285 C 0.7897 0.64288 0.43362 0.0
C2286 C 0.77837 0.60026 0.44235 0.0
C2287 C 0.81279 0.65264 0.44683 0.0
C2288 C 0.77089 0.61752 0.53915 0.0
C2289 C 0.76769 0.60491 0.53195 0.0
C2290 C 0.7779 0.60383 0.52395 0.0
C2291 C 0.79152 0.61559 0.52305 0.0
C2292 C 0.79484 0.62818 0.53053 0.0
C2293 C 0.78448 0.62894 0.53854 0.0
C2294 C 0.77408 0.59018 0.51627 0.0
C2295 C 0.80926 0.64091 0.52983 0.0
C2296 C 0.87988 0.59594 0.52923 0.0
C2297 C 0.87432 0.60499 0.53565 0.0
C2298 C 0.85061 0.60063 0.53212 0.0
C2299 C 0.83731 0.59003 0.5277 0.0
C2300 C 0.8276 0.5932 0.52174 0.0
C2301 C 0.83128 0.60736 0.5204 0.0
C2302 C 0.84443 0.61812 0.5257 0.0
C2303 C 0.85397 0.61465 0.53154 0.0
C2304 C 0.81358 0.58147 0.51642 0.0
C2305 C 0.84851 0.6333 0.52481 0.0
C2306 C 0.82507 0.61985 0.45131 0.0
C2307 C 0.81551 0.6227 0.44452 0.0
C2308 C 0.80537 0.62368 0.45259 0.0
C2309 C 0.80463 0.62172 0.46792 0.0
C2310 C 0.7946 0.62271 0.47637 0.0
C2311 C 0.79382 0.62056 0.49142 0.0
C2312 C 0.80302 0.6173 0.4986 0.0
C2313 C 0.80216 0.61487 0.51386 0.0
C2314 C 0.8115 0.6117 0.52066 0.0
C2315 C 0.82177 0.61091 0.5126 0.0
C2316 C 0.82281 0.61333 0.49733 0.0
C2317 C 0.83308 0.61269 0.48891 0.0
C2318 C 0.83395 0.61499 0.47388 0.0
C2319 C 0.82449 0.61783 0.46665 0.0
C2320 C 0.81417 0.61869 0.47495 0.0
C2321 C 0.81335 0.61646 0.49031 0.0
C2322 C 0.7401 0.61043 0.5326 0.0
C2323 C 0.74697 0.61022 0.54715 0.0
O2324 O 0.8611 0.61621 0.4103 0.0
O2325 O 0.85993 0.59694 0.53671 0.0
O2326 O 0.7613 0.61925 0.54668 0.0
O2327 O 0.76831 0.63494 0.42092 0.0
H2328 H 0.86044 0.63099 0.39733 0.0
H2329 H 0.84532 0.60776 0.38617 0.0
H2330 H 0.85993 0.60509 0.38396 0.0
H2331 H 0.85922 0.61872 0.37399 0.0
H2332 H 0.86484 0.63976 0.42234 0.0
H2333 H 0.84027 0.59506 0.42249 0.0
H2334 H 0.84255 0.64788 0.43738 0.0
H2335 H 0.86091 0.65392 0.43907 0.0
H2336 H 0.84942 0.64569 0.45432 0.0
H2337 H 0.81956 0.58294 0.43598 0.0
H2338 H 0.81076 0.59258 0.43958 0.0
H2339 H 0.82123 0.59116 0.45367 0.0
H2340 H 0.7547 0.6169 0.40846 0.0
H2341 H 0.74522 0.62883 0.39799 0.0
H2342 H 0.75511 0.64319 0.40799 0.0
H2343 H 0.72969 0.62499 0.42588 0.0
H2344 H 0.76335 0.60933 0.4279 0.0
H2345 H 0.79237 0.6535 0.43126 0.0
H2346 H 0.78641 0.59811 0.43793 0.0
H2347 H 0.7681 0.59265 0.43732 0.0
H2348 H 0.77787 0.59857 0.45436 0.0
H2349 H 0.81373 0.66285 0.4443 0.0
H2350 H 0.8215 0.65213 0.44153 0.0
H2351 H 0.81396 0.65208 0.45887 0.0
H2352 H 0.74471 0.59941 0.54924 0.0
H2353 H 0.75728 0.5959 0.53241 0.0
H2354 H 0.78688 0.63859 0.54419 0.0
H2355 H 0.77472 0.59163 0.50422 0.0
H2356 H 0.76337 0.5817 0.51893 0.0
H2357 H 0.78162 0.58685 0.5194 0.0
H2358 H 0.81011 0.65001 0.53604 0.0
H2359 H 0.81202 0.64388 0.51821 0.0
H2360 H 0.81703 0.63842 0.53438 0.0
H2361 H 0.87733 0.61359 0.52774 0.0
H2362 H 0.89145 0.60212 0.52855 0.0
H2363 H 0.87553 0.59229 0.51798 0.0
H2364 H 0.87682 0.58661 0.53603 0.0
H2365 H 0.83473 0.57924 0.52845 0.0
H2366 H 0.86404 0.62291 0.53554 0.0
H2367 H 0.81248 0.58235 0.50443 0.0
H2368 H 0.80511 0.58232 0.52187 0.0
H2369 H 0.81215 0.571 0.51862 0.0
H2370 H 0.8587 0.64038 0.53033 0.0
H2371 H 0.84037 0.63492 0.52991 0.0
H2372 H 0.84923 0.63625 0.51312 0.0
H2373 H 0.81592 0.62413 0.43273 0.0
H2374 H 0.78721 0.62513 0.47144 0.0
H2375 H 0.78586 0.62143 0.49734 0.0
H2376 H 0.81076 0.60981 0.53236 0.0
H2377 H 0.84057 0.61041 0.49384 0.0
H2378 H 0.84208 0.6144 0.46797 0.0
H2379 H 0.7286 0.60335 0.53306 0.0
H2380 H 0.74403 0.60679 0.52339 0.0
H2381 H 0.74239 0.6212 0.53027 0.0
C2382 C 0.40463 0.27339 0.41983 0.0
C2383 C 0.39073 0.26072 0.41467 0.0
C2384 C 0.38456 0.24195 0.43244 0.0
C2385 C 0.37401 0.23312 0.44188 0.0
C2386 C 0.37444 0.2222 0.4489 0.0
C2387 C 0.38614 0.2205 0.44694 0.0
C2388 C 0.39681 0.22927 0.4372 0.0
C2389 C 0.39579 0.23978 0.42984 0.0
C2390 C 0.36244 0.21265 0.45857 0.0
C2391 C 0.40941 0.22775 0.43483 0.0
C2392 C 0.37309 0.11628 0.41874 0.0
C2393 C 0.38033 0.13073 0.42485 0.0
C2394 C 0.37537 0.14897 0.43239 0.0
C2395 C 0.3889 0.15847 0.43769 0.0
C2396 C 0.39175 0.17077 0.44526 0.0
C2397 C 0.38077 0.17343 0.44801 0.0
C2398 C 0.36712 0.16387 0.44272 0.0
C2399 C 0.36466 0.15186 0.4348 0.0
C2400 C 0.40654 0.18094 0.45027 0.0
C2401 C 0.35511 0.16626 0.44553 0.0
C2402 C 0.3784 0.15603 0.54605 0.0
C2403 C 0.39229 0.1649 0.54213 0.0
C2404 C 0.39606 0.17632 0.53298 0.0
C2405 C 0.38561 0.17886 0.52761 0.0
C2406 C 0.3715 0.16982 0.53132 0.0
C2407 C 0.36803 0.15848 0.54044 0.0
C2408 C 0.41117 0.18571 0.52911 0.0
C2409 C 0.36007 0.17222 0.52573 0.0
C2410 C 0.40828 0.28699 0.53515 0.0
C2411 C 0.39884 0.27291 0.54234 0.0
C2412 C 0.40324 0.25356 0.53881 0.0
C2413 C 0.41422 0.25131 0.53549 0.0
C2414 C 0.41171 0.23878 0.52872 0.0
C2415 C 0.39782 0.2282 0.52537 0.0
C2416 C 0.38661 0.23013 0.52938 0.0
C2417 C 0.38943 0.24276 0.53616 0.0
C2418 C 0.42387 0.23694 0.52482 0.0
C2419 C 0.37166 0.2189 0.52632 0.0
C2420 C 0.38731 0.20985 0.45553 0.0
C2421 C 0.38442 0.19738 0.44845 0.0
C2422 C 0.38361 0.18627 0.45632 0.0
C2423 C 0.38534 0.18744 0.47178 0.0
C2424 C 0.38359 0.17615 0.4802 0.0
C2425 C 0.38503 0.17734 0.49541 0.0
C2426 C 0.38834 0.1899 0.5028 0.0
C2427 C 0.38934 0.19108 0.51828 0.0
C2428 C 0.39279 0.20375 0.52528 0.0
C2429 C 0.39502 0.21532 0.51722 0.0
C2430 C 0.39383 0.21427 0.50173 0.0
C2431 C 0.39576 0.22562 0.4933 0.0
C2432 C 0.3939 0.22429 0.47814 0.0
C2433 C 0.39007 0.21156 0.47082 0.0
C2434 C 0.38873 0.2002 0.47901 0.0
C2435 C 0.39043 0.2015 0.49451 0.0
C2436 C 0.35981 0.14409 0.57408 0.0
C2437 C 0.36284 0.13646 0.56173 0.0
O2438 O 0.38355 0.25255 0.42646 0.0
O2439 O 0.40636 0.2662 0.54458 0.0
O2440 O 0.37555 0.14542 0.55534 0.0
O2441 O 0.37223 0.13699 0.42494 0.0
H2442 H 0.39286 0.25445 0.40656 0.0
H2443 H 0.41157 0.26998 0.42466 0.0
H2444 H 0.40292 0.27966 0.42829 0.0
H2445 H 0.41009 0.28016 0.41038 0.0
H2446 H 0.36532 0.2348 0.4437 0.0
H2447 H 0.40396 0.24642 0.4224 0.0
H2448 H 0.35977 0.2016 0.45704 0.0
H2449 H 0.35297 0.21331 0.45627 0.0
H2450 H 0.36548 0.21569 0.47024 0.0
H2451 H 0.41746 0.23629 0.42812 0.0
H2452 H 0.40614 0.21761 0.42915 0.0
H2453 H 0.41417 0.2277 0.44555 0.0
H2454 H 0.3912 0.13755 0.42099 0.0
H2455 H 0.3793 0.11671 0.40878 0.0
H2456 H 0.3638 0.11484 0.41215 0.0
H2457 H 0.3707 0.10318 0.43821 0.0
H2458 H 0.39734 0.15646 0.43583 0.0
H2459 H 0.35427 0.1445 0.43065 0.0
H2460 H 0.40953 0.19177 0.44726 0.0
H2461 H 0.41416 0.17839 0.44544 0.0
H2462 H 0.40727 0.18071 0.4624 0.0
H2463 H 0.34489 0.15702 0.44233 0.0
H2464 H 0.35657 0.17535 0.43916 0.0
H2465 H 0.35485 0.16876 0.45734 0.0
H2466 H 0.35436 0.13252 0.55329 0.0
H2467 H 0.40023 0.16292 0.54643 0.0
H2468 H 0.35719 0.15171 0.54317 0.0
H2469 H 0.41226 0.18625 0.51699 0.0
H2470 H 0.418 0.18204 0.53374 0.0
H2471 H 0.41485 0.19649 0.53333 0.0
H2472 H 0.34964 0.16444 0.52993 0.0
H2473 H 0.35967 0.17162 0.51355 0.0
H2474 H 0.36237 0.18286 0.52906 0.0
H2475 H 0.39005 0.26692 0.53441 0.0
H2476 H 0.40258 0.29273 0.53364 0.0
H2477 H 0.41152 0.28522 0.52419 0.0
H2478 H 0.41784 0.29356 0.54189 0.0
H2479 H 0.42483 0.2596 0.53785 0.0
H2480 H 0.38083 0.24414 0.53938 0.0
H2481 H 0.42411 0.23564 0.51274 0.0
H2482 H 0.42256 0.2273 0.52988 0.0
H2483 H 0.43403 0.24599 0.52854 0.0
H2484 H 0.3641 0.22193 0.53031 0.0
H2485 H 0.36944 0.20908 0.5317 0.0
H2486 H 0.37 0.21668 0.51433 0.0
H2487 H 0.38249 0.19621 0.43668 0.0
H2488 H 0.38089 0.16618 0.47513 0.0
H2489 H 0.38346 0.16827 0.50134 0.0
H2490 H 0.39335 0.20451 0.53717 0.0
H2491 H 0.39856 0.23562 0.49834 0.0
H2492 H 0.39543 0.23335 0.47224 0.0
H2493 H 0.36828 0.14828 0.58254 0.0
H2494 H 0.34974 0.13681 0.57935 0.0
H2495 H 0.35902 0.15294 0.56971 0.0
C2496 C 0.85457 0.23632 0.39216 0.0
C2497 C 0.86381 0.24272 0.40592 0.0
C2498 C 0.85038 0.22493 0.42437 0.0
C2499 C 0.83966 0.22809 0.42594 0.0
C2500 C 0.82809 0.21993 0.43476 0.0
C2501 C 0.82717 0.20837 0.44216 0.0
C2502 C 0.83799 0.20526 0.44077 0.0
C2503 C 0.84949 0.21365 0.43194 0.0
C2504 C 0.81676 0.22357 0.43611 0.0
C2505 C 0.83732 0.193 0.44849 0.0
C2506 C 0.72525 0.13325 0.41675 0.0
C2507 C 0.73722 0.13114 0.41166 0.0
C2508 C 0.75675 0.14397 0.4293 0.0
C2509 C 0.76543 0.1422 0.43905 0.0
C2510 C 0.77693 0.15371 0.44585 0.0
C2511 C 0.77943 0.16735 0.4433 0.0
C2512 C 0.77076 0.16926 0.43331 0.0
C2513 C 0.75962 0.15755 0.42623 0.0
C2514 C 0.78627 0.15119 0.45586 0.0
C2515 C 0.77311 0.18365 0.4303 0.0
C2516 C 0.75113 0.15985 0.53554 0.0
C2517 C 0.76054 0.15546 0.53164 0.0
C2518 C 0.7731 0.16457 0.52466 0.0
C2519 C 0.77617 0.17828 0.52131 0.0
C2520 C 0.76695 0.18288 0.52577 0.0
C2521 C 0.75462 0.17363 0.53303 0.0
C2522 C 0.78295 0.15948 0.52063 0.0
C2523 C 0.76995 0.19745 0.52255 0.0
C2524 C 0.87225 0.27033 0.53226 0.0
C2525 C 0.86638 0.26127 0.54586 0.0
C2526 C 0.84955 0.23786 0.53564 0.0
C2527 C 0.84731 0.22443 0.53311 0.0
C2528 C 0.83521 0.21411 0.52586 0.0
C2529 C 0.82512 0.21737 0.52097 0.0
C2530 C 0.82715 0.23087 0.52372 0.0
C2531 C 0.83935 0.241 0.53105 0.0
C2532 C 0.83332 0.19978 0.52318 0.0
C2533 C 0.81654 0.23463 0.51867 0.0
C2534 C 0.81468 0.19934 0.45102 0.0
C2535 C 0.80316 0.18826 0.44383 0.0
C2536 C 0.79091 0.17952 0.45136 0.0
C2537 C 0.79002 0.18196 0.4665 0.0
C2538 C 0.77765 0.17379 0.47428 0.0
C2539 C 0.77712 0.17575 0.48932 0.0
C2540 C 0.78893 0.18594 0.49717 0.0
C2541 C 0.7887 0.18756 0.51259 0.0
C2542 C 0.80058 0.19795 0.52 0.0
C2543 C 0.81275 0.20684 0.51241 0.0
C2544 C 0.8132 0.20534 0.49702 0.0
C2545 C 0.82528 0.21413 0.48905 0.0
C2546 C 0.82574 0.21232 0.47396 0.0
C2547 C 0.81419 0.20158 0.46627 0.0
C2548 C 0.80182 0.19279 0.47404 0.0
C2549 C 0.8013 0.19473 0.48941 0.0
C2550 C 0.71544 0.13358 0.5353 0.0
C2551 C 0.73033 0.1369 0.53855 0.0
O2552 O 0.86163 0.23231 0.41564 0.0
O2553 O 0.86174 0.24739 0.54235 0.0
O2554 O 0.73863 0.15109 0.54169 0.0
O2555 O 0.74564 0.13225 0.42346 0.0
H2556 H 0.86132 0.25024 0.41132 0.0
H2557 H 0.84336 0.23084 0.39505 0.0
H2558 H 0.85681 0.22866 0.38669 0.0
H2559 H 0.85647 0.24465 0.3843 0.0
H2560 H 0.84015 0.23682 0.42028 0.0
H2561 H 0.85779 0.2113 0.43074 0.0
H2562 H 0.80679 0.21481 0.43161 0.0
H2563 H 0.81928 0.23324 0.43018 0.0
H2564 H 0.8151 0.22503 0.44786 0.0
H2565 H 0.8465 0.19187 0.44615 0.0
H2566 H 0.82769 0.1832 0.44504 0.0
H2567 H 0.83676 0.19431 0.46053 0.0
H2568 H 0.74348 0.13918 0.4034 0.0
H2569 H 0.71829 0.1319 0.40731 0.0
H2570 H 0.72937 0.14393 0.42144 0.0
H2571 H 0.71901 0.12564 0.42532 0.0
H2572 H 0.76319 0.13169 0.44126 0.0
H2573 H 0.75309 0.15911 0.41858 0.0
H2574 H 0.7838 0.15212 0.46745 0.0
H2575 H 0.79742 0.15908 0.45413 0.0
H2576 H 0.7848 0.14059 0.4541 0.0
H2577 H 0.76448 0.18322 0.42368 0.0
H2578 H 0.78299 0.18972 0.42421 0.0
H2579 H 0.77418 0.18937 0.44077 0.0
H2580 H 0.73396 0.13403 0.5284 0.0
H2581 H 0.7581 0.14493 0.53408 0.0
H2582 H 0.74738 0.17697 0.53631 0.0
H2583 H 0.78267 0.15787 0.50855 0.0
H2584 H 0.78013 0.14945 0.52594 0.0
H2585 H 0.79383 0.16742 0.52385 0.0
H2586 H 0.76132 0.19914 0.52597 0.0
H2587 H 0.77169 0.19943 0.51062 0.0
H2588 H 0.77966 0.20523 0.52842 0.0
H2589 H 0.8576 0.2623 0.55025 0.0
H2590 H 0.86401 0.26708 0.52368 0.0
H2591 H 0.87619 0.28149 0.53518 0.0
H2592 H 0.88093 0.26932 0.5276 0.0
H2593 H 0.8552 0.22209 0.53673 0.0
H2594 H 0.84085 0.25132 0.53296 0.0
H2595 H 0.83315 0.19775 0.51119 0.0
H2596 H 0.82315 0.19166 0.52759 0.0
H2597 H 0.8418 0.19869 0.52833 0.0
H2598 H 0.81954 0.24553 0.52182 0.0
H2599 H 0.80622 0.22736 0.52347 0.0
H2600 H 0.81531 0.23342 0.50655 0.0
H2601 H 0.80377 0.18635 0.43222 0.0
H2602 H 0.76826 0.16571 0.46885 0.0
H2603 H 0.76734 0.16906 0.49473 0.0
H2604 H 0.8004 0.19906 0.53183 0.0
H2605 H 0.83455 0.22248 0.4944 0.0
H2606 H 0.83533 0.21934 0.46842 0.0
H2607 H 0.70858 0.12226 0.53262 0.0
H2608 H 0.7154 0.13965 0.52572 0.0
H2609 H 0.71113 0.13639 0.54487 0.0
C2610 C 0.03355 0.48087 0.28662 0.0
C2611 C 0.02225 0.46886 0.27727 0.0
C2612 C 0.01938 0.47631 0.25326 0.0
C2613 C 0.00482 0.46977 0.25194 0.0
C2614 C 0.99864 0.47525 0.24278 0.0
C2615 C 0.00723 0.48757 0.23492 0.0
C2616 C 0.02194 0.49389 0.23589 0.0
C2617 C 0.02782 0.48799 0.24487 0.0
C2618 C 0.98293 0.46802 0.24171 0.0
C2619 C 0.03146 0.50713 0.22782 0.0
C2620 C 0.96551 0.53204 0.29341 0.0
C2621 C 0.97726 0.53865 0.28226 0.0
C2622 C 0.97645 0.52949 0.25771 0.0
C2623 C 0.99077 0.53554 0.25514 0.0
C2624 C 0.99565 0.5296 0.24477 0.0
C2625 C 0.98598 0.51716 0.23711 0.0
C2626 C 0.97148 0.51124 0.23949 0.0
C2627 C 0.96691 0.51773 0.24953 0.0
C2628 C 0.01115 0.53644 0.24227 0.0
C2629 C 0.96081 0.49778 0.2319 0.0
C2630 C 0.97028 0.53104 0.14536 0.0
C2631 C 0.98469 0.53678 0.14757 0.0
C2632 C 0.98995 0.52879 0.15364 0.0
C2633 C 0.9806 0.51477 0.15751 0.0
C2634 C 0.96615 0.50873 0.15449 0.0
C2635 C 0.96119 0.51694 0.14831 0.0
C2636 C 0.00547 0.5354 0.15628 0.0
C2637 C 0.95592 0.49375 0.15826 0.0
C2638 C 0.01686 0.44251 0.14963 0.0
C2639 C 0.00459 0.44068 0.14022 0.0
C2640 C 0.00379 0.46228 0.14158 0.0
C2641 C 0.01357 0.47658 0.14242 0.0
C2642 C 0.01046 0.48593 0.1496 0.0
C2643 C 0.99712 0.48082 0.1558 0.0
C2644 C 0.98691 0.46647 0.15422 0.0
C2645 C 0.99035 0.45733 0.1471 0.0
C2646 C 0.02153 0.50119 0.15096 0.0
C2647 C 0.97245 0.46076 0.16032 0.0
C2648 C 0.0009 0.49444 0.2266 0.0
C2649 C 0.99661 0.50241 0.23461 0.0
C2650 C 0.99107 0.50969 0.22763 0.0
C2651 C 0.99002 0.5093 0.21214 0.0
C2652 C 0.98516 0.51705 0.2047 0.0
C2653 C 0.98381 0.51628 0.18948 0.0
C2654 C 0.98731 0.50775 0.1811 0.0
C2655 C 0.9858 0.50676 0.16562 0.0
C2656 C 0.98917 0.49802 0.15766 0.0
C2657 C 0.99413 0.49026 0.16475 0.0
C2658 C 0.99595 0.49131 0.18019 0.0
C2659 C 0.00116 0.48384 0.18764 0.0
C2660 C 0.0028 0.48485 0.20283 0.0
C2661 C 0.99928 0.49334 0.21117 0.0
C2662 C 0.99393 0.5009 0.2039 0.0
C2663 C 0.99242 0.50001 0.18838 0.0
C2664 C 0.95791 0.55207 0.15512 0.0
C2665 C 0.96898 0.55232 0.14497 0.0
O2666 O 0.02552 0.47155 0.26257 0.0
O2667 O 0.00756 0.45362 0.13509 0.0
O2668 O 0.96484 0.53878 0.14037 0.0
O2669 O 0.97157 0.5346 0.26825 0.0
H2670 H 0.01218 0.46834 0.2797 0.0
H2671 H 0.03407 0.49083 0.28378 0.0
H2672 H 0.04393 0.48199 0.28462 0.0
H2673 H 0.03111 0.47897 0.29847 0.0
H2674 H 0.99831 0.46042 0.25809 0.0
H2675 H 0.03906 0.49282 0.24586 0.0
H2676 H 0.97934 0.47455 0.24737 0.0
H2677 H 0.97778 0.45757 0.24681 0.0
H2678 H 0.97951 0.46679 0.23004 0.0
H2679 H 0.04265 0.51124 0.23053 0.0
H2680 H 0.02884 0.51531 0.23056 0.0
H2681 H 0.02991 0.50506 0.21581 0.0
H2682 H 0.98441 0.53458 0.28457 0.0
H2683 H 0.96982 0.53497 0.30477 0.0
H2684 H 0.96 0.52046 0.29222 0.0
H2685 H 0.95782 0.5355 0.29164 0.0
H2686 H 0.99812 0.54487 0.26129 0.0
H2687 H 0.95586 0.51324 0.25156 0.0
H2688 H 0.01332 0.5367 0.23035 0.0
H2689 H 0.01517 0.53025 0.24766 0.0
H2690 H 0.01695 0.54728 0.24686 0.0
H2691 H 0.95024 0.49352 0.2366 0.0
H2692 H 0.96393 0.48975 0.23273 0.0
H2693 H 0.96018 0.49969 0.22008 0.0
H2694 H 0.9788 0.55696 0.15162 0.0
H2695 H 0.99184 0.54751 0.1446 0.0
H2696 H 0.95011 0.51253 0.14625 0.0
H2697 H 0.00765 0.53625 0.16826 0.0
H2698 H 0.01146 0.546 0.15157 0.0
H2699 H 0.00923 0.52868 0.1514 0.0
H2700 H 0.94505 0.49053 0.15496 0.0
H2701 H 0.95627 0.49238 0.17027 0.0
H2702 H 0.95892 0.4867 0.15271 0.0
H2703 H 0.9952 0.43604 0.14725 0.0
H2704 H 0.01469 0.43225 0.15384 0.0
H2705 H 0.01848 0.44955 0.15917 0.0
H2706 H 0.0266 0.44717 0.14315 0.0
H2707 H 0.02382 0.48032 0.13783 0.0
H2708 H 0.9825 0.44638 0.14579 0.0
H2709 H 0.02394 0.50425 0.16274 0.0
H2710 H 0.01757 0.5077 0.14618 0.0
H2711 H 0.03132 0.50355 0.14535 0.0
H2712 H 0.96537 0.44961 0.15716 0.0
H2713 H 0.96785 0.46699 0.15638 0.0
H2714 H 0.97311 0.46169 0.17248 0.0
H2715 H 0.99756 0.5029 0.24649 0.0
H2716 H 0.98233 0.52379 0.21058 0.0
H2717 H 0.97992 0.52242 0.18438 0.0
H2718 H 0.98784 0.49719 0.14582 0.0
H2719 H 0.00404 0.47712 0.18181 0.0
H2720 H 0.00681 0.47883 0.20797 0.0
H2721 H 0.96087 0.56288 0.1586 0.0
H2722 H 0.9571 0.54607 0.1651 0.0
H2723 H 0.94751 0.54698 0.1496 0.0
C2724 C 0.45999 0.39586 0.25711 0.0
C2725 C 0.45992 0.40876 0.26326 0.0
C2726 C 0.47225 0.42766 0.24554 0.0
C2727 C 0.4705 0.43655 0.23624 0.0
C2728 C 0.48186 0.44739 0.22904 0.0
C2729 C 0.49529 0.44908 0.23086 0.0
C2730 C 0.49719 0.44012 0.24028 0.0
C2731 C 0.48566 0.42957 0.24765 0.0
C2732 C 0.47945 0.45698 0.21944 0.0
C2733 C 0.51135 0.44159 0.24238 0.0
C2734 C 0.58791 0.55036 0.26555 0.0
C2735 C 0.58022 0.53647 0.25815 0.0
C2736 C 0.5569 0.51954 0.24889 0.0
C2737 C 0.56056 0.51001 0.24315 0.0
C2738 C 0.55093 0.49823 0.23489 0.0
C2739 C 0.53749 0.49616 0.23183 0.0
C2740 C 0.5338 0.50579 0.23751 0.0
C2741 C 0.54351 0.51725 0.24614 0.0
C2742 C 0.55513 0.48795 0.22952 0.0
C2743 C 0.51963 0.50401 0.23441 0.0
C2744 C 0.56458 0.51434 0.13819 0.0
C2745 C 0.56823 0.50613 0.14662 0.0
C2746 C 0.55798 0.49435 0.15392 0.0
C2747 C 0.54387 0.49095 0.15309 0.0
C2748 C 0.54015 0.49907 0.14441 0.0
C2749 C 0.55057 0.51055 0.13691 0.0
C2750 C 0.56226 0.48564 0.16267 0.0
C2751 C 0.52523 0.49578 0.14327 0.0
C2752 C 0.4625 0.37978 0.14079 0.0
C2753 C 0.46502 0.39412 0.13638 0.0
C2754 C 0.48745 0.4157 0.13943 0.0
C2755 C 0.50126 0.41977 0.14291 0.0
C2756 C 0.51011 0.43264 0.15002 0.0
C2757 C 0.50507 0.4418 0.15331 0.0
C2758 C 0.49134 0.43808 0.14899 0.0
C2759 C 0.48262 0.425 0.14219 0.0
C2760 C 0.52472 0.4363 0.15434 0.0
C2761 C 0.4858 0.44783 0.15176 0.0
C2762 C 0.50724 0.46013 0.22272 0.0
C2763 C 0.51653 0.47252 0.23024 0.0
C2764 C 0.5273 0.48379 0.22293 0.0
C2765 C 0.52857 0.48288 0.20756 0.0
C2766 C 0.53858 0.49435 0.19965 0.0
C2767 C 0.53994 0.49324 0.18459 0.0
C2768 C 0.53148 0.48056 0.17689 0.0
C2769 C 0.53306 0.47919 0.16167 0.0
C2770 C 0.5243 0.4665 0.15431 0.0
C2771 C 0.51398 0.455 0.16177 0.0
C2772 C 0.51236 0.45611 0.17704 0.0
C2773 C 0.50224 0.4447 0.18496 0.0
C2774 C 0.50054 0.44597 0.19991 0.0
C2775 C 0.50903 0.45866 0.20757 0.0
C2776 C 0.51958 0.47016 0.19992 0.0
C2777 C 0.52114 0.46894 0.18461 0.0
C2778 C 0.59118 0.54181 0.14855 0.0
C2779 C 0.58841 0.5339 0.13381 0.0
O2780 O 0.46067 0.41732 0.25196 0.0
O2781 O 0.47908 0.40275 0.13346 0.0
O2782 O 0.57414 0.52597 0.13112 0.0
O2783 O 0.56591 0.53096 0.25713 0.0
H2784 H 0.46896 0.41461 0.27094 0.0
H2785 H 0.46983 0.39899 0.25122 0.0
H2786 H 0.45112 0.3899 0.2493 0.0
H2787 H 0.45917 0.38891 0.26619 0.0
H2788 H 0.46012 0.435 0.23471 0.0
H2789 H 0.4872 0.42277 0.25482 0.0
H2790 H 0.48742 0.46807 0.22186 0.0
H2791 H 0.46891 0.4556 0.22096 0.0
H2792 H 0.48047 0.45474 0.20775 0.0
H2793 H 0.51086 0.43299 0.24895 0.0
H2794 H 0.51846 0.45169 0.24808 0.0
H2795 H 0.51596 0.4417 0.23156 0.0
H2796 H 0.58343 0.5289 0.26162 0.0
H2797 H 0.59285 0.54871 0.2756 0.0
H2798 H 0.58004 0.55182 0.27197 0.0
H2799 H 0.60038 0.56472 0.24752 0.0
H2800 H 0.57084 0.51155 0.24522 0.0
H2801 H 0.54076 0.52464 0.25061 0.0
H2802 H 0.54672 0.47704 0.23156 0.0
H2803 H 0.5649 0.48973 0.23492 0.0
H2804 H 0.55685 0.48901 0.21751 0.0
H2805 H 0.51907 0.51335 0.2379 0.0
H2806 H 0.51157 0.49483 0.24038 0.0
H2807 H 0.51707 0.502 0.2225 0.0
H2808 H 0.59299 0.52702 0.13405 0.0
H2809 H 0.57901 0.50879 0.14755 0.0
H2810 H 0.54785 0.51688 0.13029 0.0
H2811 H 0.56155 0.48745 0.17456 0.0
H2812 H 0.57313 0.48829 0.16034 0.0
H2813 H 0.55511 0.47433 0.16023 0.0
H2814 H 0.52424 0.50376 0.13699 0.0
H2815 H 0.52095 0.49513 0.15441 0.0
H2816 H 0.51875 0.48544 0.13772 0.0
H2817 H 0.46193 0.39828 0.14595 0.0
H2818 H 0.4513 0.37267 0.14327 0.0
H2819 H 0.46877 0.3809 0.15079 0.0
H2820 H 0.4656 0.375 0.13187 0.0
H2821 H 0.50494 0.41259 0.1405 0.0
H2822 H 0.47206 0.42205 0.139 0.0
H2823 H 0.52646 0.43879 0.16629 0.0
H2824 H 0.53241 0.44575 0.14843 0.0
H2825 H 0.52675 0.42767 0.15179 0.0
H2826 H 0.47572 0.44429 0.14592 0.0
H2827 H 0.49349 0.45856 0.14822 0.0
H2828 H 0.48417 0.44838 0.1637 0.0
H2829 H 0.51535 0.4734 0.24196 0.0
H2830 H 0.54542 0.50435 0.205 0.0
H2831 H 0.5478 0.50245 0.17909 0.0
H2832 H 0.52555 0.46556 0.14263 0.0
H2833 H 0.49545 0.43465 0.17969 0.0
H2834 H 0.49255 0.43685 0.20541 0.0
H2835 H 0.58683 0.54889 0.14835 0.0
H2836 H 0.60256 0.54809 0.15099 0.0
H2837 H 0.58624 0.53434 0.15761 0.0
C2838 C 0.44771 0.97925 0.28251 0.0
C2839 C 0.44677 0.99117 0.27537 0.0
C2840 C 0.45638 0.99276 0.25115 0.0
C2841 C 0.46819 0.00622 0.2516 0.0
C2842 C 0.47968 0.00955 0.24267 0.0
C2843 C 0.47929 0.99917 0.23314 0.0
C2844 C 0.46715 0.98573 0.23227 0.0
C2845 C 0.45573 0.98277 0.24117 0.0
C2846 C 0.49233 0.02406 0.24359 0.0
C2847 C 0.4664 0.97439 0.22228 0.0
C2848 C 0.56052 0.97811 0.26799 0.0
C2849 C 0.54866 0.97757 0.25997 0.0
C2850 C 0.54096 0.99303 0.25042 0.0
C2851 C 0.53048 0.98275 0.24121 0.0
C2852 C 0.52179 0.98578 0.23277 0.0
C2853 C 0.52364 0.99937 0.23348 0.0
C2854 C 0.53429 0.00979 0.24257 0.0
C2855 C 0.54283 0.00648 0.25093 0.0
C2856 C 0.5105 0.9744 0.22321 0.0
C2857 C 0.53653 0.02439 0.24353 0.0
C2858 C 0.55466 0.01646 0.14108 0.0
C2859 C 0.5427 0.00371 0.14457 0.0
C2860 C 0.53154 0.00345 0.15199 0.0
C2861 C 0.53246 0.0162 0.15633 0.0
C2862 C 0.54441 0.02905 0.15274 0.0
C2863 C 0.55532 0.029 0.14506 0.0
C2864 C 0.51882 0.98952 0.1553 0.0
C2865 C 0.54572 0.04282 0.15722 0.0
C2866 C 0.44301 0.02364 0.15152 0.0
C2867 C 0.45069 0.02733 0.13686 0.0
C2868 C 0.46696 0.01874 0.14114 0.0
C2869 C 0.46818 0.00685 0.13968 0.0
C2870 C 0.4787 0.00586 0.14717 0.0
C2871 C 0.48848 0.01724 0.15605 0.0
C2872 C 0.4877 0.02958 0.15706 0.0
C2873 C 0.47685 0.03015 0.14975 0.0
C2874 C 0.47917 0.99252 0.14581 0.0
C2875 C 0.49823 0.04211 0.16603 0.0
C2876 C 0.49193 0.00205 0.22489 0.0
C2877 C 0.50203 0.00041 0.23226 0.0
C2878 C 0.51401 0.00241 0.22517 0.0
C2879 C 0.51612 0.00634 0.2103 0.0
C2880 C 0.52809 0.0085 0.20286 0.0
C2881 C 0.52983 0.01187 0.18807 0.0
C2882 C 0.51965 0.01317 0.18016 0.0
C2883 C 0.52103 0.01596 0.16497 0.0
C2884 C 0.51089 0.01752 0.15752 0.0
C2885 C 0.49913 0.01601 0.16475 0.0
C2886 C 0.49738 0.01282 0.17985 0.0
C2887 C 0.48547 0.01077 0.18738 0.0
C2888 C 0.48375 0.00746 0.20218 0.0
C2889 C 0.49378 0.00586 0.20998 0.0
C2890 C 0.50591 0.00797 0.20265 0.0
C2891 C 0.5077 0.01143 0.18757 0.0
C2892 C 0.57865 0.00864 0.12039 0.0
C2893 C 0.56722 0.00567 0.13066 0.0
O2894 O 0.44549 0.98911 0.26027 0.0
O2895 O 0.4561 0.01867 0.13411 0.0
O2896 O 0.56569 0.01707 0.13395 0.0
O2897 O 0.54938 0.99038 0.25899 0.0
H2898 H 0.45647 0.00114 0.27832 0.0
H2899 H 0.45712 0.97917 0.27857 0.0
H2900 H 0.43834 0.96898 0.27967 0.0
H2901 H 0.44857 0.9807 0.29464 0.0
H2902 H 0.46845 0.01414 0.25891 0.0
H2903 H 0.44645 0.97247 0.2408 0.0
H2904 H 0.50122 0.02355 0.24849 0.0
H2905 H 0.49045 0.03134 0.25039 0.0
H2906 H 0.49541 0.02837 0.23242 0.0
H2907 H 0.45635 0.96437 0.22322 0.0
H2908 H 0.47509 0.97254 0.22496 0.0
H2909 H 0.46764 0.97778 0.21072 0.0
H2910 H 0.53813 0.96875 0.26282 0.0
H2911 H 0.55581 0.9712 0.27779 0.0
H2912 H 0.56562 0.98819 0.27469 0.0
H2913 H 0.57165 0.97318 0.25059 0.0
H2914 H 0.52894 0.97231 0.2406 0.0
H2915 H 0.55096 0.01436 0.25801 0.0
H2916 H 0.51209 0.97767 0.21159 0.0
H2917 H 0.50014 0.97269 0.22648 0.0
H2918 H 0.51034 0.96433 0.22394 0.0
H2919 H 0.5457 0.03151 0.25053 0.0
H2920 H 0.5271 0.02399 0.24812 0.0
H2921 H 0.53805 0.02879 0.23237 0.0
H2922 H 0.56646 0.99934 0.14038 0.0
H2923 H 0.54195 0.99388 0.14152 0.0
H2924 H 0.56454 0.03879 0.14229 0.0
H2925 H 0.5184 0.9877 0.16728 0.0
H2926 H 0.51891 0.98068 0.1495 0.0
H2927 H 0.50916 0.98951 0.1521 0.0
H2928 H 0.55596 0.0519 0.15422 0.0
H2929 H 0.54439 0.04315 0.16926 0.0
H2930 H 0.5373 0.04382 0.15181 0.0
H2931 H 0.45926 0.03844 0.13722 0.0
H2932 H 0.43851 0.03042 0.15369 0.0
H2933 H 0.45034 0.02527 0.16068 0.0
H2934 H 0.43447 0.01251 0.15138 0.0
H2935 H 0.46059 0.99816 0.13292 0.0
H2936 H 0.47622 0.03953 0.15086 0.0
H2937 H 0.47936 0.98855 0.15687 0.0
H2938 H 0.48889 0.99469 0.14019 0.0
H2939 H 0.47011 0.98422 0.13948 0.0
H2940 H 0.4975 0.05156 0.16391 0.0
H2941 H 0.50899 0.04448 0.1636 0.0
H2942 H 0.49641 0.03974 0.17788 0.0
H2943 H 0.50042 0.99724 0.24364 0.0
H2944 H 0.53621 0.00753 0.20836 0.0
H2945 H 0.53923 0.01336 0.1829 0.0
H2946 H 0.51199 0.0196 0.14586 0.0
H2947 H 0.47728 0.01164 0.18191 0.0
H2948 H 0.47439 0.00602 0.2074 0.0
H2949 H 0.58622 0.0068 0.12692 0.0
H2950 H 0.58574 0.02038 0.1202 0.0
H2951 H 0.56742 0.99609 0.10021 0.0
C2952 C 0.54185 0.99255 0.7277 0.0
C2953 C 0.55239 0.00131 0.73982 0.0
C2954 C 0.54131 0.9959 0.76361 0.0
C2955 C 0.54523 0.00928 0.76913 0.0
C2956 C 0.53706 0.01113 0.77961 0.0
C2957 C 0.52474 0.99933 0.78463 0.0
C2958 C 0.52114 0.98576 0.77956 0.0
C2959 C 0.52962 0.98422 0.76924 0.0
C2960 C 0.54138 0.0257 0.78504 0.0
C2961 C 0.50806 0.97294 0.78462 0.0
C2962 C 0.43249 0.00134 0.74935 0.0
C2963 C 0.44219 0.99755 0.75611 0.0
C2964 C 0.46398 0.00778 0.77013 0.0
C2965 C 0.46189 0.99484 0.77483 0.0
C2966 C 0.4721 0.99409 0.78316 0.0
C2967 C 0.48468 0.00653 0.7869 0.0
C2968 C 0.48679 0.01959 0.78235 0.0
C2969 C 0.47635 0.02004 0.77404 0.0
C2970 C 0.4695 0.97997 0.78785 0.0
C2971 C 0.50008 0.03301 0.78622 0.0
C2972 C 0.46087 0.0013 0.87991 0.0
C2973 C 0.45768 0.98879 0.87257 0.0
C2974 C 0.46811 0.98747 0.86539 0.0
C2975 C 0.48199 0.9989 0.86553 0.0
C2976 C 0.48533 0.0113 0.87345 0.0
C2977 C 0.47471 0.01227 0.88069 0.0
C2978 C 0.46425 0.97394 0.8574 0.0
C2979 C 0.50003 0.02365 0.87389 0.0
C2980 C 0.55565 0.96178 0.86278 0.0
C2981 C 0.55559 0.97302 0.87265 0.0
C2982 C 0.53454 0.97466 0.87297 0.0
C2983 C 0.52049 0.96604 0.86913 0.0
C2984 C 0.51257 0.9717 0.86385 0.0
C2985 C 0.51883 0.98639 0.86278 0.0
C2986 C 0.53277 0.99522 0.8677 0.0
C2987 C 0.54052 0.98924 0.8727 0.0
C2988 C 0.49765 0.96196 0.85897 0.0
C2989 C 0.53958 0.01092 0.86722 0.0
C2990 C 0.51504 0.0013 0.79412 0.0
C2991 C 0.50559 0.00423 0.7872 0.0
C2992 C 0.4957 0.00565 0.79522 0.0
C2993 C 0.49543 0.00459 0.81065 0.0
C2994 C 0.48588 0.00641 0.81906 0.0
C2995 C 0.48523 0.00467 0.83417 0.0
C2996 C 0.49394 0.00079 0.84141 0.0
C2997 C 0.49277 0.99817 0.85663 0.0
C2998 C 0.50135 0.994 0.86343 0.0
C2999 C 0.51113 0.99235 0.85538 0.0
C3000 C 0.51264 0.99518 0.84019 0.0
C3001 C 0.52246 0.99376 0.83177 0.0
C3002 C 0.52355 0.99613 0.81676 0.0
C3003 C 0.51459 0.99965 0.8095 0.0
C3004 C 0.50474 0.00132 0.81779 0.0
C3005 C 0.50388 0.99925 0.83317 0.0
C3006 C 0.43891 0.01037 0.87058 0.0
C3007 C 0.43783 0.99902 0.88077 0.0
O3008 O 0.54855 0.99398 0.7528 0.0
O3009 O 0.54201 0.96857 0.87682 0.0
O3010 O 0.45093 0.00303 0.88657 0.0
O3011 O 0.45436 0.00881 0.7618 0.0
H3012 H 0.55222 0.01123 0.74094 0.0
H3013 H 0.53133 0.99059 0.73067 0.0
H3014 H 0.54125 0.9823 0.72618 0.0
H3015 H 0.54484 0.9982 0.71716 0.0
H3016 H 0.55463 0.01828 0.76519 0.0
H3017 H 0.52685 0.97392 0.76504 0.0
H3018 H 0.53382 0.02864 0.78091 0.0
H3019 H 0.55198 0.03358 0.78134 0.0
H3020 H 0.54119 0.026 0.79723 0.0
H3021 H 0.50661 0.96316 0.77943 0.0
H3022 H 0.4988 0.97388 0.78198 0.0
H3023 H 0.50848 0.97211 0.79671 0.0
H3024 H 0.44386 0.98989 0.7497 0.0
H3025 H 0.43157 0.99806 0.73742 0.0
H3026 H 0.43877 0.01292 0.74713 0.0
H3027 H 0.41404 0.99181 0.7642 0.0
H3028 H 0.45233 0.98525 0.77202 0.0
H3029 H 0.47787 0.02998 0.77042 0.0
H3030 H 0.46981 0.97966 0.80001 0.0
H3031 H 0.47786 0.97822 0.78362 0.0
H3032 H 0.45925 0.97126 0.78385 0.0
H3033 H 0.49993 0.04237 0.78232 0.0
H3034 H 0.50909 0.03281 0.78124 0.0
H3035 H 0.50175 0.03393 0.7983 0.0
H3036 H 0.43363 0.98914 0.87424 0.0
H3037 H 0.44712 0.97998 0.87255 0.0
H3038 H 0.4771 0.02178 0.88663 0.0
H3039 H 0.46541 0.97573 0.84541 0.0
H3040 H 0.45334 0.96559 0.85953 0.0
H3041 H 0.47142 0.97022 0.86076 0.0
H3042 H 0.50094 0.03253 0.88059 0.0
H3043 H 0.50347 0.02726 0.86256 0.0
H3044 H 0.50723 0.02044 0.87852 0.0
H3045 H 0.55987 0.98264 0.86598 0.0
H3046 H 0.56648 0.96509 0.85939 0.0
H3047 H 0.54926 0.96016 0.85275 0.0
H3048 H 0.55121 0.95167 0.86854 0.0
H3049 H 0.51592 0.9548 0.86971 0.0
H3050 H 0.55125 0.99595 0.87631 0.0
H3051 H 0.49622 0.96391 0.84735 0.0
H3052 H 0.49057 0.96403 0.8657 0.0
H3053 H 0.4945 0.95077 0.86001 0.0
H3054 H 0.54981 0.01632 0.87312 0.0
H3055 H 0.53263 0.01432 0.87215 0.0
H3056 H 0.54127 0.01426 0.85562 0.0
H3057 H 0.50563 0.00494 0.77534 0.0
H3058 H 0.47877 0.00917 0.81404 0.0
H3059 H 0.47764 0.00618 0.84006 0.0
H3060 H 0.50014 0.99164 0.87502 0.0
H3061 H 0.52943 0.99076 0.83668 0.0
H3062 H 0.5313 0.9949 0.81084 0.0
H3063 H 0.42847 0.00735 0.86593 0.0
H3064 H 0.44595 0.01172 0.86134 0.0
H3065 H 0.44317 0.02053 0.87661 0.0
C3066 C 0.0166 0.54988 0.72482 0.0
C3067 C 0.00618 0.54816 0.73667 0.0
C3068 C 0.00885 0.54125 0.76125 0.0
C3069 C 0.9948 0.53184 0.7644 0.0
C3070 C 0.99122 0.52196 0.77549 0.0
C3071 C 0.00192 0.52149 0.78349 0.0
C3072 C 0.0161 0.53126 0.78057 0.0
C3073 C 0.01934 0.5412 0.76966 0.0
C3074 C 0.97603 0.5119 0.77851 0.0
C3075 C 0.02787 0.53101 0.78865 0.0
C3076 C 0.9969 0.42241 0.76172 0.0
C3077 C 6e-05 0.43435 0.77166 0.0
C3078 C 0.99081 0.44938 0.7786 0.0
C3079 C 0.00372 0.46045 0.78375 0.0
C3080 C 0.00482 0.47269 0.78971 0.0
C3081 C 0.99271 0.47379 0.79089 0.0
C3082 C 0.97971 0.46271 0.78569 0.0
C3083 C 0.97895 0.45065 0.77953 0.0
C3084 C 0.01897 0.48444 0.79478 0.0
C3085 C 0.96663 0.46358 0.78678 0.0
C3086 C 0.01059 0.46798 0.88215 0.0
C3087 C 0.02106 0.47748 0.87282 0.0
C3088 C 0.01961 0.48776 0.86563 0.0
C3089 C 0.00737 0.48851 0.86763 0.0
C3090 C 0.99708 0.47937 0.87746 0.0
C3091 C 0.99889 0.46928 0.88469 0.0
C3092 C 0.03098 0.49752 0.85544 0.0
C3093 C 0.98394 0.47991 0.87986 0.0
C3094 C 0.03075 0.5963 0.85918 0.0
C3095 C 0.02232 0.58502 0.87037 0.0
C3096 C 0.02375 0.56371 0.86992 0.0
C3097 C 0.03311 0.55945 0.86569 0.0
C3098 C 0.02836 0.54558 0.86127 0.0
C3099 C 0.01388 0.53568 0.86138 0.0
C3100 C 0.00443 0.53973 0.86653 0.0
C3101 C 0.00947 0.55372 0.8708 0.0
C3102 C 0.03878 0.54157 0.85611 0.0
C3103 C 0.98899 0.52934 0.86717 0.0
C3104 C 0.9984 0.5102 0.79415 0.0
C3105 C 0.99531 0.49713 0.7885 0.0
C3106 C 0.99378 0.48652 0.79773 0.0
C3107 C 0.99517 0.48887 0.81309 0.0
C3108 C 0.99381 0.47844 0.82267 0.0
C3109 C 0.99661 0.48129 0.8376 0.0
C3110 C 0.00075 0.49464 0.84353 0.0
C3111 C 0.00494 0.49803 0.85841 0.0
C3112 C 0.00862 0.51127 0.86408 0.0
C3113 C 0.00862 0.52141 0.85512 0.0
C3114 C 0.00495 0.51835 0.84006 0.0
C3115 C 0.0054 0.52848 0.83058 0.0
C3116 C 0.00283 0.5257 0.81559 0.0
C3117 C 0.99977 0.51272 0.8095 0.0
C3118 C 0.99844 0.5021 0.81897 0.0
C3119 C 0.00114 0.50496 0.83424 0.0
C3120 C 0.01552 0.44447 0.87002 0.0
C3121 C 0.01988 0.45214 0.88497 0.0
O3122 O 0.01269 0.55058 0.75028 0.0
O3123 O 0.02891 0.57749 0.87311 0.0
O3124 O 0.01122 0.45733 0.88865 0.0
O3125 O 0.98944 0.43741 0.77265 0.0
H3126 H 0.99724 0.53724 0.73562 0.0
H3127 H 0.0202 0.54231 0.72656 0.0
H3128 H 0.02584 0.56064 0.72523 0.0
H3129 H 0.01162 0.54781 0.71375 0.0
H3130 H 0.98665 0.53224 0.75826 0.0
H3131 H 0.03014 0.54867 0.76726 0.0
H3132 H 0.9733 0.50121 0.77485 0.0
H3133 H 0.96903 0.51476 0.77272 0.0
H3134 H 0.9741 0.51159 0.79049 0.0
H3135 H 0.03818 0.53807 0.78372 0.0
H3136 H 0.02614 0.52024 0.78867 0.0
H3137 H 0.02821 0.53439 0.80024 0.0
H3138 H 0.00496 0.43455 0.78243 0.0
H3139 H 0.01194 0.43232 0.74334 0.0
H3140 H 0.98519 0.41632 0.76006 0.0
H3141 H 0.99713 0.41432 0.7689 0.0
H3142 H 0.01302 0.45968 0.78311 0.0
H3143 H 0.96905 0.44209 0.7755 0.0
H3144 H 0.01926 0.4853 0.80694 0.0
H3145 H 0.02093 0.49456 0.79041 0.0
H3146 H 0.02757 0.48273 0.79128 0.0
H3147 H 0.9572 0.45379 0.7829 0.0
H3148 H 0.96776 0.47238 0.7801 0.0
H3149 H 0.96509 0.46577 0.79833 0.0
H3150 H 0.03088 0.46089 0.88452 0.0
H3151 H 0.03032 0.47685 0.87089 0.0
H3152 H 0.99093 0.46202 0.892 0.0
H3153 H 0.02734 0.4945 0.8439 0.0
H3154 H 0.04072 0.49716 0.85693 0.0
H3155 H 0.03341 0.50845 0.85727 0.0
H3156 H 0.97699 0.47219 0.88801 0.0
H3157 H 0.97813 0.47781 0.8693 0.0
H3158 H 0.98668 0.49055 0.88374 0.0
H3159 H 0.01183 0.57826 0.86524 0.0
H3160 H 0.0258 0.60267 0.85706 0.0
H3161 H 0.03107 0.59129 0.84866 0.0
H3162 H 0.04165 0.6033 0.86313 0.0
H3163 H 0.04414 0.56719 0.86537 0.0
H3164 H 0.00224 0.5568 0.87481 0.0
H3165 H 0.03614 0.53726 0.84472 0.0
H3166 H 0.03825 0.53327 0.86319 0.0
H3167 H 0.04965 0.55058 0.85638 0.0
H3168 H 0.98313 0.53382 0.87255 0.0
H3169 H 0.98716 0.51995 0.87323 0.0
H3170 H 0.98477 0.52584 0.85586 0.0
H3171 H 0.99479 0.49544 0.77669 0.0
H3172 H 0.99089 0.46806 0.81868 0.0
H3173 H 0.99571 0.47295 0.84439 0.0
H3174 H 0.01208 0.5139 0.87543 0.0
H3175 H 0.00803 0.53878 0.83458 0.0
H3176 H 0.00355 0.53395 0.80877 0.0
H3177 H 0.02227 0.44007 0.86722 0.0
H3178 H 0.01659 0.45175 0.86123 0.0
H3179 H 0.00446 0.43582 0.87021 0.0
C3180 C 0.52322 0.57073 0.73865 0.0
C3181 C 0.53325 0.57586 0.75193 0.0
C3182 C 0.51985 0.5568 0.7691 0.0
C3183 C 0.50988 0.56061 0.77263 0.0
C3184 C 0.49815 0.55183 0.78097 0.0
C3185 C 0.49631 0.53897 0.78588 0.0
C3186 C 0.50649 0.53527 0.78271 0.0
C3187 C 0.51818 0.54429 0.77443 0.0
C3188 C 0.48755 0.55615 0.78429 0.0
C3189 C 0.50484 0.52164 0.78782 0.0
C3190 C 0.41377 0.48015 0.72247 0.0
C3191 C 0.42027 0.47591 0.73471 0.0
C3192 C 0.42679 0.48639 0.75918 0.0
C3193 C 0.43667 0.48259 0.76283 0.0
C3194 C 0.44679 0.48997 0.77381 0.0
C3195 C 0.44719 0.50157 0.78104 0.0
C3196 C 0.437 0.50521 0.77755 0.0
C3197 C 0.42671 0.49732 0.76689 0.0
C3198 C 0.45727 0.48558 0.77743 0.0
C3199 C 0.43727 0.51774 0.78464 0.0
C3200 C 0.41338 0.48614 0.87289 0.0
C3201 C 0.42187 0.4805 0.86955 0.0
C3202 C 0.43511 0.48884 0.86341 0.0
C3203 C 0.43977 0.503 0.8603 0.0
C3204 C 0.43136 0.50878 0.86406 0.0
C3205 C 0.41834 0.50029 0.87052 0.0
C3206 C 0.44405 0.48249 0.86015 0.0
C3207 C 0.436 0.52385 0.86102 0.0
C3208 C 0.53974 0.58703 0.87277 0.0
C3209 C 0.53215 0.5841 0.88747 0.0
C3210 C 0.5124 0.56052 0.88165 0.0
C3211 C 0.50863 0.54644 0.88161 0.0
C3212 C 0.49724 0.53642 0.87318 0.0
C3213 C 0.48921 0.54058 0.86488 0.0
C3214 C 0.49255 0.55471 0.86545 0.0
C3215 C 0.50422 0.56458 0.87368 0.0
C3216 C 0.49397 0.52145 0.87288 0.0
C3217 C 0.48391 0.55945 0.85718 0.0
C3218 C 0.48332 0.52907 0.79355 0.0
C3219 C 0.47179 0.51984 0.78491 0.0
C3220 C 0.45897 0.51061 0.79119 0.0
C3221 C 0.45754 0.51052 0.80661 0.0
C3222 C 0.44481 0.50139 0.81334 0.0
C3223 C 0.44338 0.50181 0.82848 0.0
C3224 C 0.45471 0.51114 0.83752 0.0
C3225 C 0.45332 0.51176 0.85291 0.0
C3226 C 0.46478 0.52128 0.86152 0.0
C3227 C 0.47766 0.53029 0.85519 0.0
C3228 C 0.47929 0.52973 0.83985 0.0
C3229 C 0.49216 0.53853 0.83315 0.0
C3230 C 0.49353 0.5383 0.818 0.0
C3231 C 0.48213 0.52915 0.80898 0.0
C3232 C 0.46915 0.51991 0.81552 0.0
C3233 C 0.46773 0.52021 0.83099 0.0
C3234 C 0.3768 0.46258 0.87171 0.0
C3235 C 0.3911 0.46434 0.87505 0.0
O3236 O 0.53103 0.56467 0.76045 0.0
O3237 O 0.52402 0.56977 0.88942 0.0
O3238 O 0.40041 0.47829 0.87847 0.0
O3239 O 0.41737 0.47988 0.74811 0.0
H3240 H 0.53158 0.58333 0.75865 0.0
H3241 H 0.51221 0.5656 0.74225 0.0
H3242 H 0.52457 0.56307 0.73193 0.0
H3243 H 0.5252 0.57969 0.73169 0.0
H3244 H 0.51103 0.57032 0.76881 0.0
H3245 H 0.52593 0.54146 0.77177 0.0
H3246 H 0.47741 0.54863 0.77895 0.0
H3247 H 0.49085 0.56682 0.78039 0.0
H3248 H 0.48581 0.55586 0.7963 0.0
H3249 H 0.51385 0.52043 0.78478 0.0
H3250 H 0.49518 0.51276 0.7829 0.0
H3251 H 0.5037 0.521 0.79992 0.0
H3252 H 0.43176 0.48165 0.73289 0.0
H3253 H 0.41615 0.47732 0.71156 0.0
H3254 H 0.41814 0.49165 0.72295 0.0
H3255 H 0.40226 0.47487 0.72369 0.0
H3256 H 0.4365 0.47389 0.75707 0.0
H3257 H 0.41893 0.50006 0.76402 0.0
H3258 H 0.45862 0.48551 0.78951 0.0
H3259 H 0.46754 0.49322 0.77282 0.0
H3260 H 0.45411 0.47504 0.7728 0.0
H3261 H 0.4298 0.52023 0.77929 0.0
H3262 H 0.44791 0.52707 0.78416 0.0
H3263 H 0.43448 0.51564 0.79637 0.0
H3264 H 0.39438 0.46111 0.86489 0.0
H3265 H 0.41823 0.46963 0.87185 0.0
H3266 H 0.41177 0.50457 0.87336 0.0
H3267 H 0.4448 0.48155 0.84809 0.0
H3268 H 0.43973 0.47194 0.8649 0.0
H3269 H 0.4548 0.48938 0.86455 0.0
H3270 H 0.42772 0.5264 0.86343 0.0
H3271 H 0.43901 0.52617 0.84935 0.0
H3272 H 0.44533 0.53081 0.86789 0.0
H3273 H 0.52546 0.58889 0.88766 0.0
H3274 H 0.54628 0.59847 0.87107 0.0
H3275 H 0.5321 0.58253 0.86352 0.0
H3276 H 0.54651 0.58233 0.87246 0.0
H3277 H 0.51492 0.5434 0.88791 0.0
H3278 H 0.50682 0.57539 0.8738 0.0
H3279 H 0.49373 0.51789 0.86137 0.0
H3280 H 0.48347 0.51461 0.87752 0.0
H3281 H 0.50173 0.52007 0.87925 0.0
H3282 H 0.4865 0.57017 0.86056 0.0
H3283 H 0.47261 0.55215 0.85896 0.0
H3284 H 0.48583 0.5594 0.84525 0.0
H3285 H 0.47276 0.52 0.77305 0.0
H3286 H 0.43577 0.49394 0.80695 0.0
H3287 H 0.43325 0.49471 0.833 0.0
H3288 H 0.46359 0.52184 0.87328 0.0
H3289 H 0.50131 0.54579 0.83953 0.0
H3290 H 0.50363 0.54541 0.81343 0.0
H3291 H 0.3729 0.46573 0.88139 0.0
H3292 H 0.36915 0.45152 0.86867 0.0
H3293 H 0.3776 0.46925 0.86235 0.0
C3294 C 0.62855 0.77463 0.61804 0.0
C3295 C 0.6266 0.76379 0.6062 0.0
C3296 C 0.6285 0.77708 0.58406 0.0
C3297 C 0.61488 0.7749 0.58419 0.0
C3298 C 0.61101 0.78233 0.57483 0.0
C3299 C 0.62099 0.7923 0.5653 0.0
C3300 C 0.63465 0.79441 0.565 0.0
C3301 C 0.63815 0.78659 0.57425 0.0
C3302 C 0.59627 0.77967 0.57528 0.0
C3303 C 0.64564 0.80511 0.55516 0.0
C3304 C 0.59918 0.8711 0.58619 0.0
C3305 C 0.61241 0.87222 0.59288 0.0
C3306 C 0.61843 0.85824 0.57641 0.0
C3307 C 0.62853 0.85912 0.56672 0.0
C3308 C 0.62744 0.8471 0.56014 0.0
C3309 C 0.61571 0.83385 0.56307 0.0
C3310 C 0.60547 0.83283 0.57297 0.0
C3311 C 0.60699 0.84503 0.57966 0.0
C3312 C 0.6388 0.84861 0.54996 0.0
C3313 C 0.59284 0.81887 0.57633 0.0
C3314 C 0.58766 0.83675 0.47328 0.0
C3315 C 0.60176 0.84141 0.47627 0.0
C3316 C 0.60574 0.8325 0.48268 0.0
C3317 C 0.59534 0.81879 0.48653 0.0
C3318 C 0.58118 0.8139 0.4829 0.0
C3319 C 0.57756 0.82291 0.47608 0.0
C3320 C 0.62102 0.83789 0.48568 0.0
C3321 C 0.56982 0.79932 0.48666 0.0
C3322 C 0.59731 0.72647 0.47667 0.0
C3323 C 0.59933 0.73468 0.46261 0.0
C3324 C 0.60694 0.7585 0.47212 0.0
C3325 C 0.6185 0.77194 0.47391 0.0
C3326 C 0.61747 0.78252 0.48139 0.0
C3327 C 0.6045 0.77952 0.48726 0.0
C3328 C 0.59267 0.766 0.48532 0.0
C3329 C 0.59399 0.7556 0.47775 0.0
C3330 C 0.63028 0.79686 0.48317 0.0
C3331 C 0.57869 0.76252 0.49142 0.0
C3332 C 0.61728 0.80103 0.55626 0.0
C3333 C 0.61774 0.81263 0.56309 0.0
C3334 C 0.61406 0.82115 0.55546 0.0
C3335 C 0.60962 0.81796 0.54063 0.0
C3336 C 0.60522 0.82592 0.53284 0.0
C3337 C 0.60148 0.82312 0.51808 0.0
C3338 C 0.60219 0.81238 0.51046 0.0
C3339 C 0.59915 0.80995 0.49524 0.0
C3340 C 0.59987 0.79911 0.48805 0.0
C3341 C 0.60343 0.79049 0.49569 0.0
C3342 C 0.60644 0.79271 0.51092 0.0
C3343 C 0.6099 0.78414 0.51899 0.0
C3344 C 0.6132 0.78666 0.5339 0.0
C3345 C 0.6134 0.79799 0.54126 0.0
C3346 C 0.60964 0.80657 0.53341 0.0
C3347 C 0.60603 0.80385 0.51826 0.0
C3348 C 0.57736 0.86235 0.47447 0.0
C3349 C 0.58918 0.85938 0.47166 0.0
O3350 O 0.63284 0.77042 0.59326 0.0
O3351 O 0.6089 0.74875 0.46504 0.0
O3352 O 0.58345 0.84536 0.46784 0.0
O3353 O 0.62015 0.87042 0.5821 0.0
H3354 H 0.61527 0.75643 0.60422 0.0
H3355 H 0.62351 0.78059 0.61454 0.0
H3356 H 0.63984 0.78212 0.62009 0.0
H3357 H 0.62367 0.76938 0.62846 0.0
H3358 H 0.60719 0.76749 0.59157 0.0
H3359 H 0.64861 0.78817 0.57416 0.0
H3360 H 0.59639 0.78898 0.5801 0.0
H3361 H 0.58932 0.77044 0.58194 0.0
H3362 H 0.59184 0.778 0.56399 0.0
H3363 H 0.65603 0.80615 0.55695 0.0
H3364 H 0.64661 0.81548 0.55711 0.0
H3365 H 0.64248 0.80208 0.5435 0.0
H3366 H 0.6094 0.8641 0.60137 0.0
H3367 H 0.59318 0.87287 0.59483 0.0
H3368 H 0.59235 0.86055 0.58125 0.0
H3369 H 0.60187 0.87893 0.57747 0.0
H3370 H 0.63734 0.86934 0.56433 0.0
H3371 H 0.59911 0.84413 0.58721 0.0
H3372 H 0.63478 0.84654 0.53849 0.0
H3373 H 0.64198 0.84086 0.5526 0.0
H3374 H 0.64816 0.85927 0.55062 0.0
H3375 H 0.58516 0.81995 0.58315 0.0
H3376 H 0.5962 0.8124 0.58231 0.0
H3377 H 0.5876 0.81317 0.56598 0.0
H3378 H 0.59524 0.86178 0.48216 0.0
H3379 H 0.60965 0.85201 0.47364 0.0
H3380 H 0.56673 0.81937 0.47348 0.0
H3381 H 0.6233 0.84046 0.49755 0.0
H3382 H 0.62783 0.84747 0.47942 0.0
H3383 H 0.62372 0.82978 0.48282 0.0
H3384 H 0.55923 0.79744 0.48396 0.0
H3385 H 0.57033 0.79751 0.49854 0.0
H3386 H 0.57141 0.79154 0.48049 0.0
H3387 H 0.58915 0.73334 0.45895 0.0
H3388 H 0.58981 0.71516 0.47463 0.0
H3389 H 0.59307 0.73018 0.48551 0.0
H3390 H 0.60742 0.72781 0.48057 0.0
H3391 H 0.62842 0.7741 0.46949 0.0
H3392 H 0.58489 0.74529 0.4764 0.0
H3393 H 0.63288 0.79936 0.49501 0.0
H3394 H 0.62815 0.80486 0.47869 0.0
H3395 H 0.63949 0.79763 0.47753 0.0
H3396 H 0.57046 0.75151 0.48898 0.0
H3397 H 0.57539 0.76959 0.48673 0.0
H3398 H 0.57961 0.76427 0.5035 0.0
H3399 H 0.62109 0.81512 0.57449 0.0
H3400 H 0.60465 0.83445 0.53806 0.0
H3401 H 0.59819 0.82963 0.51268 0.0
H3402 H 0.59772 0.79742 0.47634 0.0
H3403 H 0.61013 0.77539 0.51385 0.0
H3404 H 0.61579 0.77973 0.53954 0.0
H3405 H 0.58168 0.87349 0.47775 0.0
H3406 H 0.57073 0.85572 0.48349 0.0
H3407 H 0.57072 0.85999 0.46447 0.0
C3408 C 0.12703 0.72715 0.59685 0.0
C3409 C 0.1259 0.73943 0.60323 0.0
C3410 C 0.13869 0.75917 0.58657 0.0
C3411 C 0.13718 0.76842 0.57759 0.0
C3412 C 0.14878 0.77977 0.57122 0.0
C3413 C 0.16222 0.78156 0.57342 0.0
C3414 C 0.16386 0.77223 0.58251 0.0
C3415 C 0.15211 0.76126 0.58918 0.0
C3416 C 0.14659 0.7898 0.56214 0.0
C3417 C 0.178 0.77375 0.58506 0.0
C3418 C 0.25472 0.88091 0.61354 0.0
C3419 C 0.24677 0.86651 0.60736 0.0
C3420 C 0.2237 0.85046 0.59687 0.0
C3421 C 0.22709 0.84063 0.59146 0.0
C3422 C 0.2177 0.8294 0.5824 0.0
C3423 C 0.20479 0.82816 0.57837 0.0
C3424 C 0.20133 0.83801 0.58386 0.0
C3425 C 0.21079 0.84895 0.59319 0.0
C3426 C 0.22158 0.81885 0.57714 0.0
C3427 C 0.1877 0.83705 0.57974 0.0
C3428 C 0.23404 0.85345 0.48498 0.0
C3429 C 0.23643 0.84257 0.48874 0.0
C3430 C 0.22619 0.8307 0.49593 0.0
C3431 C 0.21326 0.82962 0.4993 0.0
C3432 C 0.21081 0.84051 0.49547 0.0
C3433 C 0.2213 0.85235 0.48846 0.0
C3434 C 0.22918 0.81932 0.49996 0.0
C3435 C 0.1971 0.83965 0.49877 0.0
C3436 C 0.12998 0.71988 0.48037 0.0
C3437 C 0.13341 0.73455 0.47606 0.0
C3438 C 0.15626 0.75541 0.4802 0.0
C3439 C 0.16986 0.75887 0.48387 0.0
C3440 C 0.17885 0.77133 0.4916 0.0
C3441 C 0.17416 0.78068 0.49538 0.0
C3442 C 0.1607 0.77765 0.49081 0.0
C3443 C 0.15184 0.765 0.48332 0.0
C3444 C 0.1932 0.7743 0.49611 0.0
C3445 C 0.15555 0.78762 0.4942 0.0
C3446 C 0.1745 0.79319 0.56618 0.0
C3447 C 0.18368 0.80488 0.57474 0.0
C3448 C 0.19496 0.81653 0.56846 0.0
C3449 C 0.1969 0.81679 0.55311 0.0
C3450 C 0.20765 0.82864 0.54631 0.0
C3451 C 0.20948 0.82878 0.5312 0.0
C3452 C 0.20065 0.81706 0.5223 0.0
C3453 C 0.20234 0.81713 0.50692 0.0
C3454 C 0.19352 0.8052 0.49844 0.0
C3455 C 0.18297 0.79312 0.50492 0.0
C3456 C 0.18101 0.79292 0.52026 0.0
C3457 C 0.17048 0.78095 0.52714 0.0
C3458 C 0.16838 0.78098 0.54218 0.0
C3459 C 0.17681 0.79292 0.55095 0.0
C3460 C 0.18786 0.80489 0.54435 0.0
C3461 C 0.18984 0.80496 0.52896 0.0
C3462 C 0.2621 0.87852 0.46116 0.0
C3463 C 0.25592 0.86705 0.47183 0.0
O3464 O 0.12691 0.74835 0.59221 0.0
O3465 O 0.14765 0.74272 0.4738 0.0
O3466 O 0.24367 0.86508 0.47796 0.0
O3467 O 0.23261 0.86154 0.60556 0.0
H3468 H 0.13445 0.74519 0.61147 0.0
H3469 H 0.13743 0.73091 0.59197 0.0
H3470 H 0.11902 0.72146 0.58812 0.0
H3471 H 0.12564 0.71974 0.60565 0.0
H3472 H 0.12681 0.76679 0.5757 0.0
H3473 H 0.15351 0.75429 0.5962 0.0
H3474 H 0.15467 0.8008 0.56485 0.0
H3475 H 0.13612 0.78854 0.56385 0.0
H3476 H 0.14752 0.78786 0.55033 0.0
H3477 H 0.17727 0.76461 0.59074 0.0
H3478 H 0.18457 0.78327 0.59189 0.0
H3479 H 0.18337 0.77502 0.57445 0.0
H3480 H 0.24929 0.85886 0.61219 0.0
H3481 H 0.25912 0.87986 0.62432 0.0
H3482 H 0.24694 0.88329 0.61881 0.0
H3483 H 0.26817 0.89344 0.59495 0.0
H3484 H 0.237 0.84159 0.59434 0.0
H3485 H 0.20825 0.85657 0.59744 0.0
H3486 H 0.21289 0.80806 0.57907 0.0
H3487 H 0.23115 0.8203 0.5827 0.0
H3488 H 0.22344 0.81991 0.56515 0.0
H3489 H 0.18713 0.84624 0.58382 0.0
H3490 H 0.17891 0.82745 0.58443 0.0
H3491 H 0.18628 0.83622 0.56762 0.0
H3492 H 0.26335 0.86674 0.47986 0.0
H3493 H 0.24628 0.84331 0.48616 0.0
H3494 H 0.21955 0.86077 0.48551 0.0
H3495 H 0.22733 0.81708 0.51184 0.0
H3496 H 0.24008 0.82215 0.49749 0.0
H3497 H 0.22195 0.80956 0.49377 0.0
H3498 H 0.19647 0.84854 0.49417 0.0
H3499 H 0.19575 0.83963 0.51083 0.0
H3500 H 0.18831 0.82971 0.49421 0.0
H3501 H 0.1302 0.73876 0.48548 0.0
H3502 H 0.11859 0.71311 0.48216 0.0
H3503 H 0.13557 0.72049 0.49074 0.0
H3504 H 0.13326 0.71501 0.47171 0.0
H3505 H 0.17323 0.7515 0.48117 0.0
H3506 H 0.14149 0.76259 0.47995 0.0
H3507 H 0.19455 0.77586 0.5082 0.0
H3508 H 0.20123 0.78412 0.491 0.0
H3509 H 0.19507 0.76572 0.49279 0.0
H3510 H 0.14562 0.78463 0.4883 0.0
H3511 H 0.16354 0.79842 0.49117 0.0
H3512 H 0.15379 0.7877 0.50617 0.0
H3513 H 0.18202 0.80492 0.58646 0.0
H3514 H 0.21473 0.83799 0.55258 0.0
H3515 H 0.21792 0.8382 0.52658 0.0
H3516 H 0.1949 0.80531 0.48666 0.0
H3517 H 0.16365 0.77145 0.52098 0.0
H3518 H 0.16007 0.77149 0.54684 0.0
H3519 H 0.27259 0.8864 0.46608 0.0
H3520 H 0.25731 0.88527 0.46314 0.0
H3521 H 0.25968 0.86744 0.43964 0.0
C3522 C 0.14912 0.38917 0.62075 0.0
C3523 C 0.13933 0.38304 0.60733 0.0
C3524 C 0.15303 0.37719 0.5905 0.0
C3525 C 0.16315 0.39103 0.58715 0.0
C3526 C 0.17462 0.39385 0.5784 0.0
C3527 C 0.17594 0.38262 0.57278 0.0
C3528 C 0.16557 0.36869 0.57574 0.0
C3529 C 0.15425 0.36617 0.58458 0.0
C3530 C 0.1855 0.40883 0.57538 0.0
C3531 C 0.16659 0.35647 0.56981 0.0
C3532 C 0.24739 0.39318 0.63394 0.0
C3533 C 0.24552 0.38367 0.62075 0.0
C3534 C 0.242 0.39091 0.5969 0.0
C3535 C 0.23184 0.378 0.59082 0.0
C3536 C 0.22251 0.37732 0.57997 0.0
C3537 C 0.22334 0.38982 0.57522 0.0
C3538 C 0.23407 0.40289 0.5808 0.0
C3539 C 0.24343 0.40327 0.59144 0.0
C3540 C 0.21143 0.36322 0.57399 0.0
C3541 C 0.23526 0.41642 0.576 0.0
C3542 C 0.25538 0.40644 0.48371 0.0
C3543 C 0.2454 0.39236 0.4861 0.0
C3544 C 0.23243 0.38866 0.49224 0.0
C3545 C 0.22948 0.39928 0.49619 0.0
C3546 C 0.23931 0.41341 0.49322 0.0
C3547 C 0.25207 0.41677 0.48683 0.0
C3548 C 0.222 0.37345 0.49479 0.0
C3549 C 0.23647 0.425 0.49713 0.0
C3550 C 0.13999 0.40382 0.47907 0.0
C3551 C 0.14415 0.39749 0.46635 0.0
C3552 C 0.15819 0.38878 0.47828 0.0
C3553 C 0.15848 0.37673 0.48188 0.0
C3554 C 0.1699 0.37753 0.48945 0.0
C3555 C 0.18123 0.39078 0.49376 0.0
C3556 C 0.18116 0.40306 0.48993 0.0
C3557 C 0.16971 0.40196 0.48211 0.0
C3558 C 0.16973 0.36422 0.49309 0.0
C3559 C 0.19308 0.41736 0.49433 0.0
C3560 C 0.18859 0.38547 0.56457 0.0
C3561 C 0.19981 0.38651 0.5726 0.0
C3562 C 0.21208 0.38908 0.56573 0.0
C3563 C 0.21329 0.39073 0.55036 0.0
C3564 C 0.22549 0.39337 0.54308 0.0
C3565 C 0.2266 0.39512 0.52796 0.0
C3566 C 0.21545 0.39404 0.51948 0.0
C3567 C 0.21645 0.39573 0.50409 0.0
C3568 C 0.20513 0.39449 0.49601 0.0
C3569 C 0.19281 0.39176 0.50291 0.0
C3570 C 0.19168 0.39021 0.51832 0.0
C3571 C 0.17952 0.3877 0.52565 0.0
C3572 C 0.17846 0.38611 0.54079 0.0
C3573 C 0.18955 0.38706 0.54919 0.0
C3574 C 0.20195 0.38969 0.54206 0.0
C3575 C 0.20302 0.39128 0.5266 0.0
C3576 C 0.29069 0.41495 0.48598 0.0
C3577 C 0.27587 0.40391 0.48116 0.0
O3578 O 0.1421 0.37393 0.59951 0.0
O3579 O 0.14655 0.38714 0.47137 0.0
O3580 O 0.26827 0.41044 0.47848 0.0
O3581 O 0.2503 0.39169 0.60826 0.0
H3582 H 0.14079 0.3917 0.60015 0.0
H3583 H 0.16015 0.39545 0.61732 0.0
H3584 H 0.14812 0.3807 0.62792 0.0
H3585 H 0.14657 0.39616 0.6272 0.0
H3586 H 0.16232 0.39972 0.59144 0.0
H3587 H 0.14637 0.35554 0.58712 0.0
H3588 H 0.19577 0.41112 0.5799 0.0
H3589 H 0.18284 0.4164 0.58029 0.0
H3590 H 0.18666 0.41042 0.56336 0.0
H3591 H 0.15722 0.34626 0.57231 0.0
H3592 H 0.17592 0.35675 0.57466 0.0
H3593 H 0.16796 0.35727 0.55773 0.0
H3594 H 0.23412 0.37596 0.61979 0.0
H3595 H 0.24372 0.38697 0.6441 0.0
H3596 H 0.24113 0.39831 0.63218 0.0
H3597 H 0.25851 0.40146 0.63544 0.0
H3598 H 0.23108 0.36847 0.59473 0.0
H3599 H 0.25148 0.41318 0.59609 0.0
H3600 H 0.2108 0.36342 0.56184 0.0
H3601 H 0.20113 0.36072 0.57836 0.0
H3602 H 0.21346 0.35476 0.5771 0.0
H3603 H 0.24419 0.42571 0.58141 0.0
H3604 H 0.22549 0.41638 0.57863 0.0
H3605 H 0.23658 0.41738 0.56394 0.0
H3606 H 0.27134 0.39659 0.49048 0.0
H3607 H 0.24772 0.38425 0.48317 0.0
H3608 H 0.25976 0.42758 0.4847 0.0
H3609 H 0.22088 0.37155 0.50677 0.0
H3610 H 0.22521 0.36638 0.48966 0.0
H3611 H 0.2116 0.37075 0.49032 0.0
H3612 H 0.24551 0.43552 0.49485 0.0
H3613 H 0.23388 0.42457 0.50894 0.0
H3614 H 0.22731 0.42356 0.4907 0.0
H3615 H 0.15378 0.40594 0.46128 0.0
H3616 H 0.13748 0.41166 0.47486 0.0
H3617 H 0.14867 0.40918 0.48718 0.0
H3618 H 0.13077 0.39558 0.48486 0.0
H3619 H 0.14962 0.36662 0.47881 0.0
H3620 H 0.16982 0.41144 0.47928 0.0
H3621 H 0.16875 0.3627 0.50513 0.0
H3622 H 0.17971 0.36498 0.48981 0.0
H3623 H 0.16094 0.3549 0.48757 0.0
H3624 H 0.19106 0.42585 0.49136 0.0
H3625 H 0.20273 0.4192 0.4888 0.0
H3626 H 0.19502 0.4179 0.50635 0.0
H3627 H 0.19896 0.38526 0.58441 0.0
H3628 H 0.23434 0.39421 0.54903 0.0
H3629 H 0.2363 0.39727 0.52299 0.0
H3630 H 0.20597 0.39579 0.48421 0.0
H3631 H 0.17065 0.38692 0.51978 0.0
H3632 H 0.16884 0.38414 0.54583 0.0
H3633 H 0.297 0.40997 0.48825 0.0
H3634 H 0.29032 0.42035 0.49619 0.0
H3635 H 0.29588 0.4229 0.47736 0.0
H3636 H 0.97994 0.36657 0.08566 0.0
H3637 H 0.01785 0.44641 0.11352 0.0
H3638 H 0.0066 0.40162 0.05864 0.0
H3639 H 0.98616 0.41238 0.13831 0.0
H3640 H 0.01422 0.42995 0.09351 0.0
H3641 H 0.98241 0.38297 0.10539 0.0
C3642 C 0.98628 0.3777 0.08387 0.0
C3643 C 0.99302 0.38273 0.07047 0.0
C3644 C 0.00795 0.42608 0.10326 0.0
C3645 C 0.99593 0.40152 0.09295 0.0
C3646 C 0.00999 0.43548 0.11465 0.0
C3647 C 0.00205 0.43078 0.12744 0.0
C3648 C 0.99807 0.41181 0.10474 0.0
C3649 C 0.99231 0.41645 0.12852 0.0
C3650 C 0.98765 0.38705 0.0951 0.0
C3651 C 0.00104 0.39727 0.0687 0.0
N3652 N 0.99058 0.40746 0.11731 0.0
N3653 N 0.00232 0.40613 0.07983 0.0
H3654 H 0.6087 0.58136 0.05371 0.0
H3655 H 0.6164 0.5499 0.12845 0.0
H3656 H 0.64402 0.60521 0.08298 0.0
H3657 H 0.57651 0.54156 0.11135 0.0
H3658 H 0.62801 0.56722 0.10921 0.0
H3659 H 0.59804 0.5634 0.07223 0.0
C3660 C 0.61424 0.5829 0.064 0.0
C3661 C 0.62724 0.59503 0.0668 0.0
C3662 C 0.61671 0.56151 0.10971 0.0
C3663 C 0.61519 0.57417 0.08784 0.0
C3664 C 0.6101 0.55165 0.12063 0.0
C3665 C 0.59546 0.54421 0.12155 0.0
C3666 C 0.60863 0.56373 0.09945 0.0
C3667 C 0.58779 0.54689 0.1111 0.0
C3668 C 0.60815 0.57257 0.07452 0.0
C3669 C 0.63406 0.59606 0.08021 0.0
N3670 N 0.59447 0.55636 0.10044 0.0
N3671 N 0.62795 0.58577 0.09023 0.0
H3672 H 0.39454 0.03814 0.07893 0.0
H3673 H 0.43404 0.00413 0.119 0.0
H3674 H 0.39482 0.00176 0.062 0.0
H3675 H 0.44393 0.04657 0.12759 0.0
H3676 H 0.41767 0.00197 0.0997 0.0
H3677 H 0.4107 0.04029 0.09859 0.0
C3678 C 0.39798 0.0306 0.07938 0.0
C3679 C 0.39342 0.01982 0.06878 0.0
C3680 C 0.42351 0.01179 0.10573 0.0
C3681 C 0.4118 0.02216 0.0912 0.0
C3682 C 0.43289 0.01305 0.11672 0.0
C3683 C 0.44068 0.02572 0.12462 0.0
C3684 C 0.42163 0.02315 0.10284 0.0
C3685 C 0.43837 0.03675 0.12151 0.0
C3686 C 0.40724 0.03187 0.09053 0.0
C3687 C 0.39825 0.01035 0.06982 0.0
N3688 N 0.42906 0.03522 0.11087 0.0
N3689 N 0.40713 0.01171 0.08086 0.0
H3690 H 0.36332 0.97284 0.93273 0.0
H3691 H 0.44285 0.014 0.9068 0.0
H3692 H 0.39774 0.00287 0.95991 0.0
H3693 H 0.40991 0.97942 0.88215 0.0
H3694 H 0.42619 0.01052 0.92604 0.0
H3695 H 0.37995 0.97548 0.91365 0.0
C3696 C 0.37437 0.97995 0.93469 0.0
C3697 C 0.37915 0.98757 0.94797 0.0
C3698 C 0.42261 0.0036 0.91649 0.0
C3699 C 0.3982 0.9907 0.92623 0.0
C3700 C 0.43213 0.00556 0.90554 0.0
C3701 C 0.42781 0.99675 0.89304 0.0
C3702 C 0.4086 0.99289 0.91485 0.0
C3703 C 0.4137 0.98625 0.89175 0.0
C3704 C 0.38385 0.98142 0.92384 0.0
C3705 C 0.39359 0.9966 0.94996 0.0
N3706 N 0.40459 0.9846 0.90253 0.0
N3707 N 0.40257 0.99794 0.93921 0.0
H3708 H 0.0362 0.39749 0.93835 0.0
H3709 H 0.9972 0.43352 0.90123 0.0
H3710 H 0.99625 0.39086 0.95245 0.0
H3711 H 0.04063 0.44738 0.89415 0.0
H3712 H 0.99616 0.41665 0.9189 0.0
H3713 H 0.03763 0.41481 0.92101 0.0
C3714 C 0.02775 0.39969 0.93786 0.0
C3715 C 0.01605 0.39261 0.94685 0.0
C3716 C 0.00596 0.42348 0.9136 0.0
C3717 C 0.01756 0.4123 0.9269 0.0
C3718 C 0.00657 0.43315 0.90357 0.0
C3719 C 0.01913 0.44214 0.89653 0.0
C3720 C 0.01792 0.42258 0.91642 0.0
C3721 C 0.03083 0.44085 0.89959 0.0
C3722 C 0.02856 0.40954 0.92791 0.0
C3723 C 0.00535 0.3958 0.94556 0.0
N3724 N 0.02995 0.43127 0.90931 0.0
N3725 N 0.00635 0.40536 0.93577 0.0
H3726 H 0.60444 0.64235 0.93981 0.0
H3727 H 0.54147 0.57175 0.90761 0.0
H3728 H 0.58376 0.60514 0.96567 0.0
H3729 H 0.5474 0.61183 0.89524 0.0
H3730 H 0.55915 0.58341 0.92694 0.0
H3731 H 0.58576 0.63096 0.92116 0.0
C3732 C 0.59594 0.63179 0.94153 0.0
C3733 C 0.59554 0.62464 0.95424 0.0
C3734 C 0.55648 0.58962 0.92005 0.0
C3735 C 0.57442 0.61155 0.933 0.0
C3736 C 0.54637 0.58298 0.90901 0.0
C3737 C 0.54276 0.59082 0.8999 0.0
C3738 C 0.56333 0.60421 0.92174 0.0
C3739 C 0.54978 0.6054 0.9021 0.0
C3740 C 0.5853 0.62534 0.93096 0.0
C3741 C 0.58433 0.611 0.95603 0.0
N3742 N 0.5598 0.61165 0.91273 0.0
N3743 N 0.57427 0.60482 0.94544 0.0
H3744 H 0.03855 0.63862 0.94732 0.0
H3745 H 0.99861 0.58264 0.8825 0.0
H3746 H 0.99383 0.61133 0.94541 0.0
H3747 H 0.04297 0.60213 0.89028 0.0
H3748 H 0.99674 0.59404 0.90485 0.0
H3749 H 0.04056 0.62653 0.92555 0.0
C3750 C 0.02917 0.6301 0.9423 0.0
C3751 C 0.01601 0.62593 0.94819 0.0
C3752 C 0.00689 0.5958 0.9017 0.0
C3753 C 0.01822 0.6121 0.92334 0.0
C3754 C 0.00795 0.58929 0.88896 0.0
C3755 C 0.02097 0.59151 0.88452 0.0
C3756 C 0.01896 0.60469 0.91002 0.0
C3757 C 0.03275 0.60023 0.8933 0.0
C3758 C 0.03032 0.62316 0.92995 0.0
C3759 C 0.00419 0.61477 0.94133 0.0
N3760 N 0.03148 0.60657 0.90558 0.0
N3761 N 0.00557 0.60829 0.92924 0.0
H3762 H 0.36832 0.39102 0.92637 0.0
H3763 H 0.39215 0.46956 0.90499 0.0
H3764 H 0.38108 0.42445 0.9585 0.0
H3765 H 0.38664 0.43772 0.87348 0.0
H3766 H 0.388 0.45327 0.92482 0.0
H3767 H 0.3748 0.40798 0.90689 0.0
C3768 C 0.37261 0.40194 0.92936 0.0
C3769 C 0.37416 0.40627 0.94416 0.0
C3770 C 0.38787 0.4499 0.91358 0.0
C3771 C 0.38139 0.42578 0.9218 0.0
C3772 C 0.3903 0.45921 0.90228 0.0
C3773 C 0.39 0.45505 0.88759 0.0
C3774 C 0.38486 0.43624 0.91017 0.0
C3775 C 0.38718 0.4414 0.88467 0.0
C3776 C 0.37624 0.41162 0.9182 0.0
C3777 C 0.37949 0.42056 0.94728 0.0
N3778 N 0.38467 0.43247 0.89583 0.0
N3779 N 0.38288 0.42978 0.93621 0.0
H3780 H 0.62414 0.0083 0.93579 0.0
H3781 H 0.5507 0.95627 0.89656 0.0
H3782 H 0.59631 0.96623 0.9502 0.0
H3783 H 0.58135 0.99592 0.87894 0.0
H3784 H 0.5664 0.96041 0.91743 0.0
H3785 H 0.60782 0.00454 0.91588 0.0
C3786 C 0.61465 0.99822 0.93471 0.0
C3787 C 0.61167 0.98752 0.94464 0.0
C3788 C 0.56967 0.96824 0.90903 0.0
C3789 C 0.59278 0.98323 0.92194 0.0
C3790 C 0.5607 0.9659 0.89717 0.0
C3791 C 0.56473 0.97581 0.88607 0.0
C3792 C 0.58276 0.98058 0.90979 0.0
C3793 C 0.57783 0.98805 0.88731 0.0
C3794 C 0.60528 0.99612 0.92338 0.0
C3795 C 0.59901 0.97481 0.94289 0.0
N3796 N 0.58638 0.99009 0.89895 0.0
N3797 N 0.59004 0.97302 0.93174 0.0
H3798 H 0.61982 0.03311 0.06165 0.0
H3799 H 0.56156 0.9764 0.12491 0.0
H3800 H 0.62109 0.99816 0.08021 0.0
H3801 H 0.56121 0.01918 0.10386 0.0
H3802 H 0.58603 0.98488 0.10736 0.0
H3803 H 0.6005 0.02847 0.07797 0.0
C3804 C 0.61614 0.02456 0.06923 0.0
C3805 C 0.62208 0.01599 0.0695 0.0
C3806 C 0.58074 0.99081 0.10725 0.0
C3807 C 0.60004 0.01066 0.08812 0.0
C3808 C 0.56512 0.98487 0.11727 0.0
C3809 C 0.55974 0.99822 0.11817 0.0
C3810 C 0.58757 0.00655 0.09702 0.0
C3811 C 0.56501 0.01192 0.10406 0.0
C3812 C 0.60515 0.02195 0.07855 0.0
C3813 C 0.61698 0.00516 0.0797 0.0
N3814 N 0.57937 0.01532 0.09587 0.0
N3815 N 0.60618 0.00273 0.08849 0.0
H3816 H 0.00414 0.61567 0.0781 0.0
H3817 H 0.95018 0.54864 0.12294 0.0
H3818 H 0.95951 0.59606 0.07235 0.0
H3819 H 0.99279 0.57639 0.13706 0.0
H3820 H 0.95375 0.56414 0.10243 0.0
H3821 H 0.0005 0.5996 0.09793 0.0
C3822 C 0.99357 0.60792 0.08098 0.0
C3823 C 0.9821 0.60717 0.07357 0.0
C3824 C 0.9623 0.56683 0.11004 0.0
C3825 C 0.97786 0.58875 0.09624 0.0
C3826 C 0.96028 0.558 0.12171 0.0
C3827 C 0.97116 0.56134 0.13181 0.0
C3828 C 0.97536 0.57898 0.10833 0.0
C3829 C 0.9841 0.57348 0.12959 0.0
C3830 C 0.9915 0.59881 0.09234 0.0
C3831 C 0.96862 0.59705 0.07787 0.0
N3832 N 0.98584 0.58185 0.11809 0.0
N3833 N 0.96687 0.58817 0.08888 0.0
H3834 H 0.39549 0.37892 0.08012 0.0
H3835 H 0.46905 0.38975 0.10734 0.0
H3836 H 0.42291 0.37225 0.05214 0.0
H3837 H 0.44054 0.39451 0.13542 0.0
H3838 H 0.4532 0.38508 0.08646 0.0
H3839 H 0.41265 0.38621 0.10003 0.0
C3840 C 0.40511 0.37894 0.07817 0.0
C3841 C 0.40769 0.37483 0.06445 0.0
C3842 C 0.45047 0.38728 0.09716 0.0
C3843 C 0.42752 0.38334 0.08723 0.0
C3844 C 0.45954 0.39001 0.10904 0.0
C3845 C 0.45615 0.39266 0.12308 0.0
C3846 C 0.43787 0.3871 0.09935 0.0
C3847 C 0.4436 0.39264 0.12475 0.0
C3848 C 0.41495 0.38319 0.08953 0.0
C3849 C 0.4205 0.37539 0.06249 0.0
N3850 N 0.43491 0.38987 0.11305 0.0
N3851 N 0.4299 0.37949 0.07377 0.0
H3852 H 0.65137 0.71864 0.4043 0.0
H3853 H 0.58431 0.71521 0.44084 0.0
H3854 H 0.60913 0.68827 0.39114 0.0
H3855 H 0.62634 0.74088 0.45764 0.0
H3856 H 0.59308 0.70586 0.42181 0.0
H3857 H 0.6423 0.72775 0.42304 0.0
C3858 C 0.64017 0.71394 0.40529 0.0
C3859 C 0.63099 0.70271 0.39608 0.0
C3860 C 0.60038 0.71358 0.42962 0.0
C3861 C 0.62051 0.71302 0.41767 0.0
C3862 C 0.5954 0.71895 0.44042 0.0
C3863 C 0.60466 0.72907 0.4506 0.0
C3864 C 0.61474 0.71833 0.42903 0.0
C3865 C 0.61888 0.73333 0.44981 0.0
C3866 C 0.63499 0.71908 0.41607 0.0
C3867 C 0.61657 0.69687 0.39807 0.0
N3868 N 0.62348 0.728 0.43918 0.0
N3869 N 0.61177 0.70212 0.40862 0.0
H3870 H 0.26614 0.92335 0.41308 0.0
H3871 H 0.27876 0.86289 0.45913 0.0
H3872 H 0.30361 0.92095 0.41016 0.0
H3873 H 0.23132 0.85972 0.4502 0.0
H3874 H 0.29034 0.88745 0.44118 0.0
H3875 H 0.25588 0.90276 0.42873 0.0
C3876 C 0.27225 0.91858 0.41588 0.0
C3877 C 0.28571 0.9238 0.41029 0.0
C3878 C 0.27927 0.88157 0.44329 0.0
C3879 C 0.27407 0.90034 0.42805 0.0
C3880 C 0.27216 0.86594 0.45349 0.0
C3881 C 0.25377 0.85962 0.45869 0.0
C3882 C 0.26801 0.88754 0.43674 0.0
C3883 C 0.24229 0.86406 0.44795 0.0
C3884 C 0.26636 0.90679 0.4247 0.0
C3885 C 0.29315 0.91715 0.41413 0.0
N3886 N 0.25109 0.87857 0.43906 0.0
N3887 N 0.28723 0.90575 0.42281 0.0
H3888 H 0.06405 0.35213 0.42061 0.0
H3889 H 0.14473 0.40565 0.43781 0.0
H3890 H 0.09443 0.37237 0.38669 0.0
H3891 H 0.11744 0.37495 0.46871 0.0
H3892 H 0.12586 0.39542 0.41942 0.0
H3893 H 0.08293 0.36237 0.43904 0.0
C3894 C 0.07469 0.35877 0.41707 0.0
C3895 C 0.07771 0.36139 0.40213 0.0
C3896 C 0.12401 0.39092 0.43023 0.0
C3897 C 0.0993 0.37315 0.42308 0.0
C3898 C 0.13477 0.39676 0.44072 0.0
C3899 C 0.13263 0.39116 0.45482 0.0
C3900 C 0.11098 0.3795 0.43391 0.0
C3901 C 0.11949 0.37963 0.45799 0.0
C3902 C 0.08546 0.36454 0.42756 0.0
C3903 C 0.09168 0.36999 0.3981 0.0
N3904 N 0.10913 0.37422 0.44765 0.0
N3905 N 0.10196 0.37562 0.40852 0.0
H3906 H 0.05334 0.31949 0.26959 0.0
H3907 H 0.06351 0.25763 0.23753 0.0
H3908 H 0.03693 0.27949 0.29025 0.0
H3909 H 0.08325 0.29901 0.2196 0.0
H3910 H 0.05292 0.26509 0.25641 0.0
H3911 H 0.06341 0.31175 0.25051 0.0
C3912 C 0.05174 0.30902 0.27004 0.0
C3913 C 0.04424 0.30011 0.28154 0.0
C3914 C 0.05963 0.27257 0.2484 0.0
C3915 C 0.05592 0.29124 0.25979 0.0
C3916 C 0.0657 0.26832 0.23766 0.0
C3917 C 0.07445 0.27779 0.22714 0.0
C3918 C 0.0622 0.28635 0.24855 0.0
C3919 C 0.07672 0.29145 0.22763 0.0
C3920 C 0.05759 0.30465 0.2592 0.0
C3921 C 0.04274 0.28675 0.28168 0.0
N3922 N 0.07065 0.29532 0.23815 0.0
N3923 N 0.04851 0.28272 0.27097 0.0
H3924 H 0.67854 0.73171 0.27799 0.0
H3925 H 0.74585 0.79486 0.24121 0.0
H3926 H 0.72073 0.74221 0.28851 0.0
H3927 H 0.70365 0.77995 0.22627 0.0
H3928 H 0.73693 0.77628 0.25935 0.0
H3929 H 0.6876 0.74993 0.25965 0.0
C3930 C 0.68971 0.73775 0.27637 0.0
C3931 C 0.69887 0.73535 0.2848 0.0
C3932 C 0.72961 0.77712 0.25215 0.0
C3933 C 0.70935 0.75646 0.26393 0.0
C3934 C 0.7347 0.78774 0.24186 0.0
C3935 C 0.72545 0.78915 0.23248 0.0
C3936 C 0.71517 0.76778 0.25303 0.0
C3937 C 0.71112 0.77943 0.23351 0.0
C3938 C 0.69488 0.74823 0.26594 0.0
C3939 C 0.71327 0.74377 0.28241 0.0
N3940 N 0.70641 0.76922 0.24366 0.0
N3941 N 0.71806 0.75395 0.27221 0.0
H3942 H 0.25616 0.94015 0.2935 0.0
H3943 H 0.19854 0.94689 0.24722 0.0
H3944 H 0.24869 0.97447 0.29951 0.0
H3945 H 0.21296 0.9185 0.23572 0.0
H3946 H 0.2155 0.95613 0.26763 0.0
H3947 H 0.23884 0.9309 0.27362 0.0
C3948 C 0.25078 0.94568 0.2907 0.0
C3949 C 0.25382 0.95807 0.29822 0.0
C3950 C 0.21489 0.94782 0.26069 0.0
C3951 C 0.23404 0.94759 0.27534 0.0
C3952 C 0.20518 0.94251 0.24911 0.0
C3953 C 0.20409 0.93167 0.24001 0.0
C3954 C 0.22361 0.94228 0.26316 0.0
C3955 C 0.21319 0.92661 0.24268 0.0
C3956 C 0.24096 0.94045 0.27928 0.0
C3957 C 0.24672 0.96494 0.29394 0.0
N3958 N 0.22249 0.9319 0.25405 0.0
N3959 N 0.23711 0.95958 0.28281 0.0
H3960 H 0.71893 0.95105 0.30235 0.0
H3961 H 0.72374 0.94049 0.21584 0.0
H3962 H 0.69377 0.95645 0.26981 0.0
H3963 H 0.75255 0.94032 0.24755 0.0
H3964 H 0.71133 0.94436 0.23578 0.0
H3965 H 0.73032 0.94546 0.28269 0.0
C3966 C 0.71583 0.95112 0.29108 0.0
C3967 C 0.70536 0.95424 0.28776 0.0
C3968 C 0.72029 0.94337 0.23841 0.0
C3969 C 0.71825 0.94766 0.2652 0.0
C3970 C 0.72732 0.94108 0.22705 0.0
C3971 C 0.73904 0.93987 0.23009 0.0
C3972 C 0.72508 0.94456 0.25295 0.0
C3973 C 0.74343 0.94098 0.24477 0.0
C3974 C 0.72229 0.94784 0.27987 0.0
C3975 C 0.70163 0.95392 0.27295 0.0
N3976 N 0.73645 0.94327 0.25566 0.0
N3977 N 0.70807 0.95071 0.26224 0.0
H3978 H 0.041 0.76221 0.29373 0.0
H3979 H 0.06053 0.7784 0.209 0.0
H3980 H 0.04691 0.73489 0.26421 0.0
H3981 H 0.05498 0.80603 0.23829 0.0
H3982 H 0.05691 0.763 0.22952 0.0
H3983 H 0.04741 0.77905 0.27404 0.0
C3984 C 0.04375 0.75979 0.28315 0.0
C3985 C 0.04333 0.74706 0.28062 0.0
C3986 C 0.0566 0.77249 0.23152 0.0
C3987 C 0.05056 0.76626 0.25796 0.0
C3988 C 0.05872 0.7813 0.21982 0.0
C3989 C 0.05818 0.79356 0.222 0.0
C3990 C 0.05377 0.77588 0.24551 0.0
C3991 C 0.05561 0.79674 0.23619 0.0
C3992 C 0.04734 0.76939 0.27188 0.0
C3993 C 0.04684 0.74444 0.26661 0.0
N3994 N 0.05345 0.78793 0.2474 0.0
N3995 N 0.05027 0.75393 0.25583 0.0
H3996 H 0.23967 0.2918 0.2943 0.0
H3997 H 0.23005 0.28365 0.20694 0.0
H3998 H 0.27396 0.31028 0.26406 0.0
H3999 H 0.19765 0.25736 0.23689 0.0
H4000 H 0.24562 0.29585 0.22788 0.0
H4001 H 0.2235 0.28117 0.27349 0.0
C4002 C 0.24383 0.2936 0.28332 0.0
C4003 C 0.25825 0.30195 0.28099 0.0
C4004 C 0.23506 0.2875 0.22989 0.0
C4005 C 0.23972 0.28997 0.25709 0.0
C4006 C 0.22616 0.28061 0.21795 0.0
C4007 C 0.21248 0.26966 0.22019 0.0
C4008 C 0.23027 0.28338 0.24421 0.0
C4009 C 0.20804 0.26592 0.23468 0.0
C4010 C 0.23456 0.28758 0.27144 0.0
C4011 C 0.26295 0.30412 0.26644 0.0
N4012 N 0.21691 0.27277 0.24614 0.0
N4013 N 0.25372 0.29816 0.25507 0.0
H4014 H 0.29364 0.38372 0.39455 0.0
H4015 H 0.27241 0.37762 0.47911 0.0
H4016 H 0.28417 0.34812 0.42109 0.0
H4017 H 0.28081 0.41284 0.45255 0.0
H4018 H 0.27529 0.36602 0.45751 0.0
H4019 H 0.28756 0.39392 0.41514 0.0
C4020 C 0.29016 0.37798 0.40465 0.0
C4021 C 0.28951 0.36508 0.40611 0.0
C4022 C 0.27638 0.37623 0.45634 0.0
C4023 C 0.28268 0.37678 0.42979 0.0
C4024 C 0.27469 0.38282 0.46866 0.0
C4025 C 0.27627 0.39614 0.46756 0.0
C4026 C 0.27982 0.38307 0.44283 0.0
C4027 C 0.2794 0.40251 0.45381 0.0
C4028 C 0.28676 0.38385 0.41643 0.0
C4029 C 0.28508 0.35821 0.41954 0.0
N4030 N 0.28113 0.39594 0.44199 0.0
N4031 N 0.28189 0.36416 0.43085 0.0
H4032 H 0.64959 0.93187 0.42423 0.0
H4033 H 0.58518 0.85593 0.44159 0.0
H4034 H 0.62246 0.90262 0.39079 0.0
H4035 H 0.61388 0.88423 0.47464 0.0
H4036 H 0.59937 0.87238 0.42264 0.0
H4037 H 0.63725 0.91415 0.44274 0.0
C4038 C 0.64104 0.92171 0.42078 0.0
C4039 C 0.63701 0.91875 0.40594 0.0
C4040 C 0.60267 0.87493 0.43402 0.0
C4041 C 0.62285 0.89838 0.42707 0.0
C4042 C 0.59461 0.86552 0.44481 0.0
C4043 C 0.5985 0.86866 0.45967 0.0
C4044 C 0.6146 0.88767 0.43812 0.0
C4045 C 0.61062 0.88136 0.46329 0.0
C4046 C 0.63404 0.91157 0.43134 0.0
C4047 C 0.626 0.90533 0.40208 0.0
N4048 N 0.61822 0.89042 0.45261 0.0
N4049 N 0.61925 0.89567 0.41258 0.0
H4050 H 0.07111 0.73046 0.4152 0.0
H4051 H 0.13704 0.72822 0.44764 0.0
H4052 H 0.09115 0.7111 0.39239 0.0
H4053 H 0.11133 0.73903 0.47348 0.0
H4054 H 0.12242 0.72506 0.42604 0.0
H4055 H 0.08777 0.73667 0.43549 0.0
C4056 C 0.07899 0.72749 0.41444 0.0
C4057 C 0.07961 0.72011 0.40209 0.0
C4058 C 0.12004 0.72822 0.43641 0.0
C4059 C 0.09888 0.7274 0.42524 0.0
C4060 C 0.1284 0.73006 0.4487 0.0
C4061 C 0.12536 0.73387 0.46234 0.0
C4062 C 0.10859 0.73023 0.43777 0.0
C4063 C 0.11402 0.7361 0.46316 0.0
C4064 C 0.08855 0.73112 0.42601 0.0
C4065 C 0.09031 0.71688 0.40161 0.0
N4066 N 0.10603 0.73421 0.45106 0.0
N4067 N 0.09947 0.72049 0.41304 0.0
H4068 H 0.32025 0.06457 0.72742 0.0
H4069 H 0.25674 0.06003 0.77309 0.0
H4070 H 0.27806 0.02973 0.72351 0.0
H4071 H 0.30006 0.08962 0.78289 0.0
H4072 H 0.26397 0.04991 0.75333 0.0
H4073 H 0.31262 0.07517 0.74607 0.0
C4074 C 0.30934 0.05921 0.73039 0.0
C4075 C 0.29976 0.04625 0.72386 0.0
C4076 C 0.27188 0.05869 0.75974 0.0
C4077 C 0.29097 0.05829 0.74536 0.0
C4078 C 0.26776 0.06449 0.77094 0.0
C4079 C 0.2778 0.07589 0.7794 0.0
C4080 C 0.28615 0.06428 0.757 0.0
C4081 C 0.29196 0.08106 0.77643 0.0
C4082 C 0.30501 0.06522 0.74113 0.0
C4083 C 0.2858 0.03967 0.72834 0.0
N4084 N 0.29571 0.07526 0.76544 0.0
N4085 N 0.28182 0.04577 0.7388 0.0
H4086 H 0.97527 0.246 0.72695 0.0
H4087 H 0.91553 0.20626 0.78621 0.0
H4088 H 0.94017 0.25216 0.73229 0.0
H4089 H 0.94515 0.19355 0.77474 0.0
H4090 H 0.92539 0.22415 0.76747 0.0
H4091 H 0.96541 0.22777 0.74548 0.0
C4092 C 0.96551 0.24353 0.73204 0.0
C4093 C 0.9585 0.25056 0.72803 0.0
C4094 C 0.92966 0.21738 0.76894 0.0
C4095 C 0.94718 0.22976 0.7492 0.0
C4096 C 0.924 0.20713 0.7796 0.0
C4097 C 0.92928 0.19815 0.78174 0.0
C4098 C 0.94089 0.21887 0.76053 0.0
C4099 C 0.94059 0.20006 0.7732 0.0
C4100 C 0.95985 0.23308 0.74255 0.0
C4101 C 0.94583 0.24687 0.73489 0.0
N4102 N 0.94601 0.21021 0.76295 0.0
N4103 N 0.94061 0.23678 0.74516 0.0
H4104 H 0.73021 0.68301 0.74709 0.0
H4105 H 0.8063 0.74611 0.76965 0.0
H4106 H 0.75581 0.71698 0.71839 0.0
H4107 H 0.78343 0.70891 0.79517 0.0
H4108 H 0.78741 0.73622 0.75128 0.0
H4109 H 0.74902 0.69304 0.7655 0.0
C4110 C 0.73976 0.69263 0.7447 0.0
C4111 C 0.74145 0.69916 0.73118 0.0
C4112 C 0.78654 0.73019 0.76086 0.0
C4113 C 0.76306 0.71066 0.75216 0.0
C4114 C 0.79732 0.73582 0.77133 0.0
C4115 C 0.79649 0.72824 0.78385 0.0
C4116 C 0.77475 0.71694 0.76301 0.0
C4117 C 0.78453 0.71503 0.78559 0.0
C4118 C 0.75053 0.6983 0.75517 0.0
C4119 C 0.75412 0.71151 0.7286 0.0
N4120 N 0.77414 0.70981 0.7753 0.0
N4121 N 0.76443 0.71687 0.739 0.0
H4122 H 0.72975 0.65696 0.61274 0.0
H4123 H 0.7246 0.59358 0.56445 0.0
H4124 H 0.6944 0.61494 0.61384 0.0
H4125 H 0.75509 0.63692 0.5574 0.0
H4126 H 0.71424 0.60084 0.58384 0.0
H4127 H 0.74017 0.64942 0.59383 0.0
C4128 C 0.72422 0.64611 0.60906 0.0
C4129 C 0.7112 0.63655 0.61491 0.0
C4130 C 0.72325 0.60875 0.57812 0.0
C4131 C 0.72304 0.62787 0.59316 0.0
C4132 C 0.7292 0.60461 0.56712 0.0
C4133 C 0.74093 0.61463 0.55957 0.0
C4134 C 0.72906 0.62304 0.58156 0.0
C4135 C 0.74627 0.62882 0.56318 0.0
C4136 C 0.73013 0.64184 0.59819 0.0
C4137 C 0.7044 0.62268 0.60955 0.0
N4138 N 0.74034 0.63259 0.57397 0.0
N4139 N 0.71042 0.61874 0.59901 0.0
H4140 H 0.33502 0.05701 0.60161 0.0
H4141 H 0.38405 0.13585 0.57706 0.0
H4142 H 0.378 0.08254 0.61591 0.0
H4143 H 0.34185 0.10902 0.56124 0.0
H4144 H 0.38295 0.1159 0.58951 0.0
H4145 H 0.33829 0.07516 0.58473 0.0
C4146 C 0.34524 0.06632 0.60103 0.0
C4147 C 0.35623 0.06824 0.61031 0.0
C4148 C 0.37401 0.11432 0.58313 0.0
C4149 C 0.35994 0.08933 0.59116 0.0
C4150 C 0.37466 0.12569 0.57599 0.0
C4151 C 0.36307 0.12402 0.56796 0.0
C4152 C 0.36162 0.10125 0.58241 0.0
C4153 C 0.35105 0.11071 0.56718 0.0
C4154 C 0.34706 0.07676 0.59144 0.0
C4155 C 0.36915 0.08069 0.60919 0.0
N4156 N 0.35062 0.09987 0.57437 0.0
N4157 N 0.37061 0.09082 0.5999 0.0
H4158 H 0.92061 0.30127 0.62182 0.0
H4159 H 0.8881 0.25609 0.54783 0.0
H4160 H 0.93457 0.27477 0.60247 0.0
H4161 H 0.87052 0.27805 0.57017 0.0
H4162 H 0.90616 0.26406 0.56696 0.0
H4163 H 0.903 0.29394 0.60232 0.0
C4164 C 0.91994 0.29386 0.61352 0.0
C4165 C 0.92908 0.28859 0.61384 0.0
C4166 C 0.89832 0.26709 0.56773 0.0
C4167 C 0.90903 0.28031 0.59135 0.0
C4168 C 0.88801 0.26252 0.55684 0.0
C4169 C 0.87762 0.26616 0.55761 0.0
C4170 C 0.89838 0.27551 0.57943 0.0
C4171 C 0.87819 0.27481 0.56932 0.0
C4172 C 0.90992 0.28974 0.60234 0.0
C4173 C 0.92788 0.27923 0.60259 0.0
N4174 N 0.88836 0.27915 0.5798 0.0
N4175 N 0.91804 0.27538 0.59183 0.0
H4176 H 0.39017 0.31003 0.62252 0.0
H4177 H 0.37154 0.26316 0.55001 0.0
H4178 H 0.34889 0.27495 0.61383 0.0
H4179 H 0.41353 0.28698 0.56748 0.0
H4180 H 0.36286 0.26794 0.57272 0.0
H4181 H 0.39892 0.30259 0.60172 0.0
C4182 C 0.38298 0.30072 0.61625 0.0
C4183 C 0.3688 0.2931 0.61984 0.0
C4184 C 0.37396 0.27204 0.57162 0.0
C4185 C 0.37867 0.2846 0.59601 0.0
C4186 C 0.37892 0.26934 0.55866 0.0
C4187 C 0.39329 0.27487 0.55678 0.0
C4188 C 0.38346 0.28048 0.5827 0.0
C4189 C 0.40239 0.28271 0.5684 0.0
C4190 C 0.38797 0.29644 0.60445 0.0
C4191 C 0.35992 0.28106 0.61146 0.0
N4192 N 0.39734 0.28544 0.58079 0.0
N4193 N 0.36497 0.27726 0.59981 0.0
H4194 H 0.72199 0.06859 0.59107 0.0
H4195 H 0.72855 0.14115 0.5682 0.0
H4196 H 0.71775 0.0963 0.6216 0.0
H4197 H 0.73161 0.11283 0.53762 0.0
H4198 H 0.72634 0.12574 0.58828 0.0
H4199 H 0.72709 0.08542 0.57168 0.0
C4200 C 0.72211 0.07821 0.5937 0.0
C4201 C 0.71934 0.08098 0.60799 0.0
C4202 C 0.72764 0.12296 0.5772 0.0
C4203 C 0.72531 0.10039 0.58581 0.0
C4204 C 0.72897 0.13179 0.56577 0.0
C4205 C 0.73043 0.12833 0.55127 0.0
C4206 C 0.72765 0.11051 0.5741 0.0
C4207 C 0.73065 0.11594 0.54867 0.0
C4208 C 0.72511 0.08786 0.58263 0.0
C4209 C 0.71993 0.09376 0.61079 0.0
N4210 N 0.72923 0.10746 0.55996 0.0
N4211 N 0.72277 0.10295 0.59979 0.0
H4212 H 0.91455 0.61515 0.61954 0.0
H4213 H 0.89185 0.6325 0.54393 0.0
H4214 H 0.92263 0.65654 0.60995 0.0
H4215 H 0.87149 0.59085 0.56124 0.0
H4216 H 0.90376 0.6417 0.56763 0.0
H4217 H 0.89928 0.60603 0.59783 0.0
C4218 C 0.91301 0.62228 0.61288 0.0
C4219 C 0.91986 0.6366 0.61645 0.0
C4220 C 0.89659 0.63056 0.56628 0.0
C4221 C 0.90258 0.62632 0.59156 0.0
C4222 C 0.88983 0.62532 0.55276 0.0
C4223 C 0.88081 0.61089 0.55059 0.0
C4224 C 0.89448 0.62128 0.57763 0.0
C4225 C 0.87849 0.60203 0.56242 0.0
C4226 C 0.90426 0.61708 0.60055 0.0
C4227 C 0.91747 0.64542 0.60757 0.0
N4228 N 0.88542 0.60735 0.57538 0.0
N4229 N 0.90915 0.64016 0.59539 0.0
H4230 H 0.94131 0.68493 0.74918 0.0
H4231 H 0.95097 0.7565 0.78242 0.0
H4232 H 0.96779 0.72505 0.72957 0.0
H4233 H 0.93599 0.71891 0.80734 0.0
H4234 H 0.95381 0.7444 0.76113 0.0
H4235 H 0.93598 0.69659 0.76881 0.0
C4236 C 0.94606 0.6962 0.74899 0.0
C4237 C 0.9552 0.70402 0.73776 0.0
C4238 C 0.94984 0.7388 0.77124 0.0
C4239 C 0.94886 0.7174 0.76014 0.0
C4240 C 0.9482 0.74567 0.78335 0.0
C4241 C 0.94335 0.73871 0.79667 0.0
C4242 C 0.94646 0.72482 0.77242 0.0
C4243 C 0.93982 0.72466 0.79729 0.0
C4244 C 0.94292 0.70283 0.76019 0.0
C4245 C 0.96064 0.71856 0.73792 0.0
N4246 N 0.94146 0.71819 0.78536 0.0
N4247 N 0.95744 0.72479 0.74898 0.0
H4248 H 0.28395 0.24598 0.72456 0.0
H4249 H 0.28854 0.22868 0.80867 0.0
H4250 H 0.31892 0.27185 0.7534 0.0
H4251 H 0.25431 0.20156 0.77968 0.0
H4252 H 0.3004 0.24395 0.78809 0.0
H4253 H 0.27348 0.2289 0.74407 0.0
C4254 C 0.2895 0.24802 0.73494 0.0
C4255 C 0.3023 0.26044 0.73737 0.0
C4256 C 0.29035 0.2346 0.78616 0.0
C4257 C 0.2903 0.24098 0.75981 0.0
C4258 C 0.28361 0.22587 0.79791 0.0
C4259 C 0.27048 0.21382 0.79584 0.0
C4260 C 0.28385 0.23135 0.77225 0.0
C4261 C 0.26448 0.21072 0.78169 0.0
C4262 C 0.28348 0.23829 0.7461 0.0
C4263 C 0.30892 0.26256 0.75111 0.0
N4264 N 0.27117 0.21947 0.77045 0.0
N4265 N 0.30282 0.25298 0.76181 0.0
H4266 H 0.74739 0.06064 0.73733 0.0
H4267 H 0.80069 0.04514 0.78092 0.0
H4268 H 0.75985 0.03178 0.72151 0.0
H4269 H 0.77883 0.06383 0.80105 0.0
H4270 H 0.78895 0.04357 0.75751 0.0
H4271 H 0.76212 0.06538 0.75917 0.0
C4272 C 0.75337 0.05545 0.73836 0.0
C4273 C 0.75236 0.04576 0.72762 0.0
C4274 C 0.7868 0.04809 0.76703 0.0
C4275 C 0.76915 0.05107 0.75262 0.0
C4276 C 0.7935 0.04901 0.78035 0.0
C4277 C 0.79064 0.05453 0.79293 0.0
C4278 C 0.77725 0.05283 0.76626 0.0
C4279 C 0.78129 0.05947 0.79162 0.0
C4280 C 0.76169 0.05808 0.75087 0.0
C4281 C 0.76021 0.0392 0.72962 0.0
N4282 N 0.7749 0.05847 0.77853 0.0
N4283 N 0.76826 0.04195 0.74189 0.0
H4284 H 0.06409 0.33896 0.05682 0.0
H4285 H 0.06577 0.26283 0.07147 0.0
H4286 H 0.04047 0.30062 0.03148 0.0
H4287 H 0.09142 0.30812 0.10307 0.0
H4288 H 0.0552 0.2774 0.0546 0.0
H4289 H 0.07402 0.32767 0.07144 0.0
C4290 C 0.06102 0.3282 0.05428 0.0
C4291 C 0.05137 0.32072 0.04291 0.0
C4292 C 0.062 0.28247 0.06398 0.0
C4293 C 0.06273 0.30782 0.05955 0.0
C4294 C 0.06764 0.27303 0.07486 0.0
C4295 C 0.08174 0.2847 0.08803 0.0
C4296 C 0.06779 0.30036 0.06859 0.0
C4297 C 0.0839 0.30165 0.09467 0.0
C4298 C 0.06673 0.32179 0.06261 0.0
C4299 C 0.04798 0.30686 0.04 0.0
N4300 N 0.07752 0.30815 0.08316 0.0
N4301 N 0.0536 0.30084 0.04832 0.0
H4302 H 0.65539 0.72702 0.03965 0.0
H4303 H 0.72014 0.78962 0.08284 0.0
H4304 H 0.68665 0.72236 0.06295 0.0
H4305 H 0.68714 0.79356 0.06269 0.0
H4306 H 0.70722 0.76456 0.07698 0.0
H4307 H 0.66598 0.751 0.04929 0.0
C4308 C 0.66442 0.73102 0.04687 0.0
C4309 C 0.67019 0.7227 0.05043 0.0
C4310 C 0.7027 0.77085 0.074 0.0
C4311 C 0.6824 0.75014 0.06148 0.0
C4312 C 0.71005 0.78514 0.07739 0.0
C4313 C 0.70458 0.79361 0.07345 0.0
C4314 C 0.68988 0.76502 0.06638 0.0
C4315 C 0.69163 0.78735 0.06609 0.0
C4316 C 0.67045 0.74469 0.05241 0.0
C4317 C 0.68179 0.72835 0.06 0.0
N4318 N 0.68474 0.77344 0.06273 0.0
N4319 N 0.68758 0.74175 0.06508 0.0
H4320 H 0.2788 0.9495 0.06065 0.0
H4321 H 0.19571 0.93695 0.06855 0.0
H4322 H 0.25661 0.95685 0.02619 0.0
H4323 H 0.22082 0.92363 0.10724 0.0
H4324 H 0.22032 0.94593 0.05106 0.0
H4325 H 0.25784 0.93989 0.07566 0.0
C4326 C 0.26947 0.94889 0.05612 0.0
C4327 C 0.26953 0.95411 0.04215 0.0
C4328 C 0.21967 0.94168 0.06182 0.0
C4329 C 0.24566 0.94342 0.0594 0.0
C4330 C 0.20488 0.93712 0.07287 0.0
C4331 C 0.20452 0.9271 0.08919 0.0
C4332 C 0.23334 0.93911 0.06862 0.0
C4333 C 0.22069 0.92862 0.09717 0.0
C4334 C 0.25755 0.9435 0.06476 0.0
C4335 C 0.25715 0.95321 0.03699 0.0
N4336 N 0.23306 0.93343 0.08518 0.0
N4337 N 0.24576 0.94809 0.04567 0.0
H4338 H 0.33831 0.06276 0.95638 0.0
H4339 H 0.26099 0.05722 0.9285 0.0
H4340 H 0.29757 0.0338 0.97331 0.0
H4341 H 0.30946 0.08965 0.90649 0.0
H4342 H 0.27499 0.04691 0.94675 0.0
H4343 H 0.32741 0.07185 0.93986 0.0
C4344 C 0.3271 0.05833 0.95666 0.0
C4345 C 0.31887 0.04751 0.9663 0.0
C4346 C 0.28077 0.05487 0.93877 0.0
C4347 C 0.30641 0.05788 0.94751 0.0
C4348 C 0.27184 0.06043 0.92693 0.0
C4349 C 0.28415 0.07638 0.91684 0.0
C4350 C 0.29933 0.0627 0.93753 0.0
C4351 C 0.30245 0.08095 0.91319 0.0
C4352 C 0.32091 0.06355 0.94726 0.0
C4353 C 0.3044 0.04229 0.96628 0.0
N4354 N 0.30833 0.07432 0.92513 0.0
N4355 N 0.29864 0.04751 0.957 0.0
H4356 H 0.94249 0.28547 0.95372 0.0
H4357 H 0.89683 0.19518 0.94806 0.0
H4358 H 0.94326 0.2594 0.98806 0.0
H4359 H 0.88884 0.22837 0.9157 0.0
H4360 H 0.91651 0.22015 0.9644 0.0
H4361 H 0.92509 0.26454 0.94045 0.0
C4362 C 0.93893 0.27538 0.95857 0.0
C4363 C 0.94428 0.27427 0.97217 0.0
C4364 C 0.91074 0.22081 0.95517 0.0
C4365 C 0.92456 0.25023 0.95678 0.0
C4366 C 0.89805 0.20529 0.94581 0.0
C4367 C 0.89209 0.20925 0.92834 0.0
C4368 C 0.91401 0.23746 0.94902 0.0
C4369 C 0.893 0.22622 0.92543 0.0
C4370 C 0.92905 0.26342 0.95092 0.0
C4371 C 0.93953 0.2608 0.9776 0.0
N4372 N 0.90503 0.23884 0.93552 0.0
N4373 N 0.92994 0.24929 0.96986 0.0
H4374 H 0.72012 0.66227 0.96357 0.0
H4375 H 0.79579 0.72989 0.95705 0.0
H4376 H 0.73515 0.69874 0.99198 0.0
H4377 H 0.78603 0.68937 0.94006 0.0
H4378 H 0.77263 0.71917 0.96798 0.0
H4379 H 0.74342 0.67241 0.9531 0.0
C4380 C 0.72831 0.67234 0.96771 0.0
C4381 C 0.72558 0.67968 0.97864 0.0
C4382 C 0.77553 0.71264 0.9618 0.0
C4383 C 0.75219 0.69145 0.96645 0.0
C4384 C 0.78869 0.71876 0.95549 0.0
C4385 C 0.79271 0.71059 0.94733 0.0
C4386 C 0.76627 0.6982 0.95994 0.0
C4387 C 0.78324 0.69613 0.94596 0.0
C4388 C 0.74159 0.67815 0.96165 0.0
C4389 C 0.73661 0.69281 0.98336 0.0
N4390 N 0.77041 0.69041 0.95211 0.0
N4391 N 0.74938 0.69829 0.97719 0.0
H4392 H 0.9711 0.70264 0.97721 0.0
H4393 H 0.89834 0.69764 0.95894 0.0
H4394 H 0.93132 0.66476 0.98182 0.0
H4395 H 0.93839 0.73366 0.94972 0.0
H4396 H 0.91008 0.68503 0.96643 0.0
H4397 H 0.95924 0.71385 0.96633 0.0
C4398 C 0.95984 0.69669 0.97595 0.0
C4399 C 0.95216 0.6828 0.9806 0.0
C4400 C 0.9163 0.69563 0.96262 0.0
C4401 C 0.93849 0.69556 0.96805 0.0
C4402 C 0.9096 0.70282 0.95832 0.0
C4403 C 0.91742 0.71668 0.95363 0.0
C4404 C 0.93094 0.70242 0.9624 0.0
C4405 C 0.93199 0.72296 0.95318 0.0
C4406 C 0.95308 0.70306 0.96964 0.0
C4407 C 0.93763 0.67548 0.97839 0.0
N4408 N 0.93829 0.71582 0.9576 0.0
N4409 N 0.93124 0.68199 0.97239 0.0
H4410 H 0.30654 0.27948 0.95808 0.0
H4411 H 0.30534 0.20682 0.9586 0.0
H4412 H 0.34076 0.27524 0.97419 0.0
H4413 H 0.27166 0.21145 0.94161 0.0
H4414 H 0.31939 0.2322 0.9623 0.0
H4415 H 0.29453 0.25501 0.94991 0.0
C4416 C 0.31156 0.2734 0.95984 0.0
C4417 C 0.32461 0.27936 0.96698 0.0
C4418 C 0.30899 0.2277 0.95759 0.0
C4419 C 0.31091 0.25131 0.95762 0.0
C4420 C 0.301 0.21323 0.95545 0.0
C4421 C 0.28737 0.20707 0.94969 0.0
C4422 C 0.30326 0.23607 0.95412 0.0
C4423 C 0.28216 0.21581 0.94596 0.0
C4424 C 0.30471 0.25944 0.95512 0.0
C4425 C 0.33073 0.27107 0.9687 0.0
N4426 N 0.29008 0.22986 0.94832 0.0
N4427 N 0.32377 0.25743 0.9642 0.0
H4428 H 0.74317 0.07122 0.99245 0.0
H4429 H 0.79874 0.06216 0.94521 0.0
H4430 H 0.7333 0.03353 0.96815 0.0
H4431 H 0.80786 0.10108 0.96609 0.0
H4432 H 0.77441 0.05177 0.95273 0.0
H4433 H 0.7666 0.08272 0.98209 0.0
C4434 C 0.74587 0.06539 0.98485 0.0
C4435 C 0.73628 0.05133 0.98131 0.0
C4436 C 0.78168 0.06264 0.95552 0.0
C4437 C 0.76313 0.06439 0.96951 0.0
C4438 C 0.79554 0.06857 0.95117 0.0
C4439 C 0.80525 0.08256 0.95483 0.0
C4440 C 0.77753 0.07068 0.9638 0.0
C4441 C 0.80064 0.09031 0.96288 0.0
C4442 C 0.75928 0.07195 0.97898 0.0
C4443 C 0.74043 0.04428 0.97147 0.0
N4444 N 0.78713 0.08426 0.96714 0.0
N4445 N 0.75354 0.05086 0.96599 0.0
H4446 H 0.68097 0.94207 0.02568 0.0
H4447 H 0.71668 0.94022 0.10142 0.0
H4448 H 0.68378 0.9663 0.06445 0.0
H4449 H 0.72295 0.92421 0.06054 0.0
H4450 H 0.70213 0.94745 0.08851 0.0
H4451 H 0.69394 0.93301 0.03878 0.0
C4452 C 0.68424 0.94545 0.03694 0.0
C4453 C 0.68123 0.95498 0.04394 0.0
C4454 C 0.70667 0.94235 0.08234 0.0
C4455 C 0.69596 0.94455 0.059 0.0
C4456 C 0.71497 0.93823 0.08971 0.0
C4457 C 0.72105 0.93165 0.08203 0.0
C4458 C 0.70435 0.93982 0.06716 0.0
C4459 C 0.71846 0.92927 0.06686 0.0
C4460 C 0.69162 0.94025 0.04441 0.0
C4461 C 0.68558 0.9588 0.05863 0.0
N4462 N 0.71029 0.93335 0.05991 0.0
N4463 N 0.69273 0.9536 0.06562 0.0
H4464 H 0.06814 0.73482 0.04117 0.0
H4465 H 0.06137 0.79907 0.07242 0.0
H4466 H 0.02892 0.73309 0.04822 0.0
H4467 H 0.1003 0.80305 0.05872 0.0
H4468 H 0.04962 0.77393 0.06694 0.0
H4469 H 0.08043 0.75892 0.05093 0.0
C4470 C 0.06213 0.73947 0.04491 0.0
C4471 C 0.04751 0.73203 0.04372 0.0
C4472 C 0.06076 0.78027 0.06526 0.0
C4473 C 0.06145 0.75951 0.05484 0.0
C4474 C 0.06746 0.79458 0.06844 0.0
C4475 C 0.08182 0.8031 0.06607 0.0
C4476 C 0.06847 0.77442 0.0596 0.0
C4477 C 0.08922 0.79682 0.06076 0.0
C4478 C 0.06913 0.75323 0.0504 0.0
C4479 C 0.04022 0.73856 0.04868 0.0
N4480 N 0.08246 0.78286 0.05765 0.0
N4481 N 0.04726 0.75192 0.05396 0.0
H4482 H 0.28176 0.34468 0.0458 0.0
H4483 H 0.21311 0.27184 0.0636 0.0
H4484 H 0.27622 0.30448 0.03335 0.0
H4485 H 0.2135 0.31087 0.06162 0.0
H4486 H 0.23783 0.28412 0.05697 0.0
H4487 H 0.25817 0.33281 0.05603 0.0
C4488 C 0.2756 0.33336 0.04533 0.0
C4489 C 0.28085 0.32554 0.03861 0.0
C4490 C 0.23251 0.29 0.05806 0.0
C4491 C 0.25403 0.31194 0.05032 0.0
C4492 C 0.21845 0.28301 0.06186 0.0
C4493 C 0.21123 0.29033 0.06295 0.0
C4494 C 0.23945 0.30443 0.05552 0.0
C4495 C 0.21866 0.30482 0.06076 0.0
C4496 C 0.26216 0.32661 0.0511 0.0
C4497 C 0.27246 0.3109 0.03824 0.0
N4498 N 0.23236 0.3114 0.0571 0.0
N4499 N 0.25947 0.30457 0.04402 0.0
H4500 H 0.6971 0.63288 0.37307 0.0
H4501 H 0.75648 0.6446 0.44164 0.0
H4502 H 0.72083 0.67117 0.39846 0.0
H4503 H 0.72677 0.59964 0.41051 0.0
H4504 H 0.74186 0.65591 0.42586 0.0
H4505 H 0.70809 0.6224 0.38712 0.0
C4506 C 0.70471 0.63914 0.38152 0.0
C4507 C 0.7081 0.65297 0.38453 0.0
C4508 C 0.73946 0.64529 0.42373 0.0
C4509 C 0.72052 0.64091 0.40081 0.0
C4510 C 0.74791 0.63821 0.43416 0.0
C4511 C 0.74477 0.62129 0.42612 0.0
C4512 C 0.72721 0.63482 0.40956 0.0
C4513 C 0.72917 0.60986 0.41453 0.0
C4514 C 0.7109 0.63309 0.38961 0.0
C4515 C 0.71782 0.66044 0.39585 0.0
N4516 N 0.72286 0.6185 0.40646 0.0
N4517 N 0.72372 0.65431 0.40358 0.0
H4518 H 0.32386 0.05587 0.39537 0.0
H4519 H 0.40122 0.12195 0.43262 0.0
H4520 H 0.36148 0.05368 0.39966 0.0
H4521 H 0.35268 0.11571 0.44244 0.0
H4522 H 0.38629 0.09521 0.41747 0.0
H4523 H 0.33519 0.07776 0.40981 0.0
C4524 C 0.33443 0.05988 0.39936 0.0
C4525 C 0.34169 0.05284 0.39616 0.0
C4526 C 0.38067 0.0997 0.42262 0.0
C4527 C 0.35473 0.07802 0.41236 0.0
C4528 C 0.38995 0.1157 0.43275 0.0
C4529 C 0.37865 0.12304 0.43739 0.0
C4530 C 0.36208 0.09127 0.42078 0.0
C4531 C 0.35933 0.11178 0.43879 0.0
C4532 C 0.34089 0.07242 0.40753 0.0
C4533 C 0.3555 0.0588 0.40146 0.0
N4534 N 0.35314 0.09742 0.42897 0.0
N4535 N 0.36158 0.07107 0.40921 0.0
H4536 H 0.94362 0.30591 0.37224 0.0
H4537 H 0.88163 0.23264 0.40032 0.0
H4538 H 0.94739 0.26925 0.37645 0.0
H4539 H 0.88014 0.27074 0.40066 0.0
H4540 H 0.90568 0.2457 0.39157 0.0
H4541 H 0.92026 0.29304 0.38248 0.0
C4542 C 0.9395 0.29512 0.37527 0.0
C4543 C 0.94745 0.28862 0.37339 0.0
C4544 C 0.90015 0.25124 0.39371 0.0
C4545 C 0.92068 0.27381 0.38526 0.0
C4546 C 0.88645 0.2438 0.39876 0.0
C4547 C 0.87899 0.25069 0.40153 0.0
C4548 C 0.90636 0.26563 0.39118 0.0
C4549 C 0.8856 0.26509 0.39891 0.0
C4550 C 0.92619 0.2878 0.3812 0.0
C4551 C 0.94167 0.27469 0.37778 0.0
N4552 N 0.89888 0.27207 0.39389 0.0
N4553 N 0.9286 0.26773 0.38344 0.0
H4554 H 0.00389 0.39365 0.32311 0.0
H4555 H 0.03861 0.45797 0.26832 0.0
H4556 H 0.0354 0.3996 0.29178 0.0
H4557 H 0.00394 0.44918 0.29619 0.0
H4558 H 0.03759 0.43658 0.27664 0.0
H4559 H 0.00365 0.41385 0.31323 0.0
C4560 C 0.01068 0.39912 0.31407 0.0
C4561 C 0.01969 0.39489 0.30829 0.0
C4562 C 0.03011 0.43924 0.28083 0.0
C4563 C 0.01962 0.41823 0.29705 0.0
C4564 C 0.03066 0.45141 0.27603 0.0
C4565 C 0.02117 0.45519 0.28137 0.0
C4566 C 0.02013 0.4309 0.2912 0.0
C4567 C 0.0113 0.44652 0.29164 0.0
C4568 C 0.01059 0.41072 0.30848 0.0
C4569 C 0.02843 0.40258 0.29674 0.0
N4570 N 0.01105 0.4348 0.29623 0.0
N4571 N 0.0282 0.41389 0.29153 0.0
H4572 H 0.602 0.60983 0.29394 0.0
H4573 H 0.60991 0.5441 0.25192 0.0
H4574 H 0.64058 0.6093 0.29144 0.0
H4575 H 0.57023 0.55427 0.24148 0.0
H4576 H 0.62247 0.56956 0.26942 0.0
H4577 H 0.59102 0.58935 0.27736 0.0
C4578 C 0.60821 0.60551 0.28991 0.0
C4579 C 0.62228 0.61136 0.29424 0.0
C4580 C 0.61269 0.56608 0.26366 0.0
C4581 C 0.60964 0.58779 0.27554 0.0
C4582 C 0.60557 0.5509 0.25214 0.0
C4583 C 0.58732 0.54501 0.24643 0.0
C4584 C 0.60346 0.57531 0.26587 0.0
C4585 C 0.58051 0.55728 0.24571 0.0
C4586 C 0.60189 0.59378 0.2805 0.0
C4587 C 0.62965 0.60506 0.28878 0.0
N4588 N 0.58893 0.57071 0.25684 0.0
N4589 N 0.62322 0.59358 0.27981 0.0
H4590 H 0.36334 0.97343 0.29747 0.0
H4591 H 0.44656 0.00856 0.29693 0.0
H4592 H 0.3912 0.00547 0.32838 0.0
H4593 H 0.41888 0.97468 0.2677 0.0
H4594 H 0.42639 0.00855 0.30755 0.0
H4595 H 0.38355 0.97479 0.28526 0.0
C4596 C 0.37371 0.98083 0.30161 0.0
C4597 C 0.37558 0.98931 0.314 0.0
C4598 C 0.42471 0.00118 0.29873 0.0
C4599 C 0.39874 0.99083 0.30018 0.0
C4600 C 0.43622 0.00123 0.29264 0.0
C4601 C 0.43439 0.99177 0.28126 0.0
C4602 C 0.41122 0.99152 0.2935 0.0
C4603 C 0.42075 0.9823 0.2763 0.0
C4604 C 0.38524 0.98154 0.2947 0.0
C4605 C 0.38925 0.99858 0.319 0.0
N4606 N 0.40968 0.98241 0.28245 0.0
N4607 N 0.40029 0.99908 0.31209 0.0
H4608 H 0.59409 0.95057 0.30059 0.0
H4609 H 0.57487 0.00109 0.24435 0.0
H4610 H 0.62127 0.99496 0.29505 0.0
H4611 H 0.54303 0.94838 0.25373 0.0
H4612 H 0.59466 0.99961 0.26391 0.0
H4613 H 0.577 0.95117 0.28411 0.0
C4614 C 0.59646 0.96044 0.29589 0.0
C4615 C 0.60915 0.97272 0.29914 0.0
C4616 C 0.58473 0.99035 0.26133 0.0
C4617 C 0.58965 0.97348 0.28033 0.0
C4618 C 0.57306 0.99124 0.24856 0.0
C4619 C 0.55551 0.97508 0.24861 0.0
C4620 C 0.57983 0.97409 0.26991 0.0
C4621 C 0.553 0.958 0.25446 0.0
C4622 C 0.58668 0.96078 0.28654 0.0
C4623 C 0.61158 0.98527 0.29293 0.0
N4624 N 0.5652 0.95971 0.26571 0.0
N4625 N 0.60193 0.98531 0.28374 0.0
H4626 H 0.99819 0.62521 0.28944 0.0
H4627 H 0.0017 0.55527 0.29739 0.0
H4628 H 0.02607 0.62114 0.31939 0.0
H4629 H 0.97016 0.55758 0.27194 0.0
H4630 H 0.01296 0.58038 0.30276 0.0
H4631 H 0.99014 0.60154 0.28002 0.0
C4632 C 0.00278 0.61942 0.29388 0.0
C4633 C 0.01276 0.62513 0.30529 0.0
C4634 C 0.00367 0.57545 0.29585 0.0
C4635 C 0.00344 0.59796 0.29469 0.0
C4636 C 0.99729 0.56114 0.29274 0.0
C4637 C 0.98508 0.5544 0.28409 0.0
C4638 C 0.99773 0.58307 0.29037 0.0
C4639 C 0.97965 0.56243 0.27852 0.0
C4640 C 0.9981 0.60587 0.28857 0.0
C4641 C 0.0182 0.61707 0.31074 0.0
N4642 N 0.98599 0.57634 0.2818 0.0
N4643 N 0.01342 0.60387 0.30545 0.0
H4644 H 0.37357 0.37746 0.28645 0.0
H4645 H 0.45599 0.40785 0.29318 0.0
H4646 H 0.39543 0.38464 0.32784 0.0
H4647 H 0.43353 0.39923 0.25204 0.0
H4648 H 0.43415 0.40046 0.30623 0.0
H4649 H 0.39577 0.38698 0.27378 0.0
C4650 C 0.38306 0.38123 0.2929 0.0
C4651 C 0.38262 0.38021 0.30824 0.0
C4652 C 0.43401 0.40025 0.29435 0.0
C4653 C 0.40808 0.39089 0.29376 0.0
C4654 C 0.44646 0.40446 0.28692 0.0
C4655 C 0.44657 0.40431 0.27153 0.0
C4656 C 0.42158 0.39578 0.28631 0.0
C4657 C 0.43391 0.39965 0.26392 0.0
C4658 C 0.39573 0.38655 0.28564 0.0
C4659 C 0.39526 0.38506 0.31599 0.0
N4660 N 0.42195 0.3956 0.27138 0.0
N4661 N 0.40746 0.39013 0.30867 0.0
H4662 H 0.34068 0.2988 0.39796 0.0
H4663 H 0.3826 0.25848 0.38557 0.0
H4664 H 0.3388 0.27734 0.35732 0.0
H4665 H 0.37812 0.27388 0.42772 0.0
H4666 H 0.36734 0.26602 0.37461 0.0
H4667 H 0.35483 0.29012 0.40881 0.0
C4668 C 0.34305 0.29208 0.39135 0.0
C4669 C 0.33846 0.28877 0.37668 0.0
C4670 C 0.36969 0.26773 0.38626 0.0
C4671 C 0.35505 0.27906 0.389 0.0
C4672 C 0.37842 0.26347 0.39249 0.0
C4673 C 0.38162 0.26557 0.40756 0.0
C4674 C 0.36421 0.27422 0.39516 0.0
C4675 C 0.37594 0.2721 0.41604 0.0
C4676 C 0.35126 0.28723 0.39754 0.0
C4677 C 0.34222 0.28031 0.36861 0.0
N4678 N 0.36755 0.2762 0.40973 0.0
N4679 N 0.35034 0.27579 0.37485 0.0
H4680 H 0.69703 0.04155 0.39722 0.0
H4681 H 0.73768 0.12385 0.38261 0.0
H4682 H 0.71582 0.05919 0.3557 0.0
H4683 H 0.72362 0.10574 0.42515 0.0
H4684 H 0.72871 0.1003 0.37204 0.0
H4685 H 0.70587 0.06506 0.40722 0.0
C4686 C 0.70315 0.05037 0.39023 0.0
C4687 C 0.70577 0.04835 0.3756 0.0
C4688 C 0.72758 0.10149 0.38368 0.0
C4689 C 0.71572 0.07541 0.38697 0.0
C4690 C 0.73267 0.11491 0.3897 0.0
C4691 C 0.73142 0.11673 0.40477 0.0
C4692 C 0.72113 0.08983 0.39281 0.0
C4693 C 0.7248 0.10479 0.41347 0.0
C4694 C 0.70811 0.06382 0.39593 0.0
C4695 C 0.71345 0.06022 0.36699 0.0
N4696 N 0.71993 0.09188 0.40737 0.0
N4697 N 0.71816 0.07325 0.3728 0.0
H4698 H 0.94924 0.64434 0.37901 0.0
H4699 H 0.88097 0.65052 0.38841 0.0
H4700 H 0.94775 0.68152 0.36917 0.0
H4701 H 0.8829 0.61402 0.40022 0.0
H4702 H 0.90576 0.66245 0.38242 0.0
H4703 H 0.92527 0.63338 0.38773 0.0
C4704 C 0.94387 0.6502 0.37866 0.0
C4705 C 0.95051 0.66385 0.37325 0.0
C4706 C 0.90082 0.65188 0.38645 0.0
C4707 C 0.92305 0.65138 0.38333 0.0
C4708 C 0.88668 0.64509 0.38991 0.0
C4709 C 0.87992 0.63132 0.39493 0.0
C4710 C 0.90825 0.64479 0.38786 0.0
C4711 C 0.88776 0.62469 0.3965 0.0
C4712 C 0.9302 0.64396 0.38373 0.0
C4713 C 0.9431 0.67102 0.37333 0.0
N4714 N 0.9015 0.63147 0.39291 0.0
N4715 N 0.92976 0.66467 0.37821 0.0
H4716 H 0.38153 0.99102 0.70615 0.0
H4717 H 0.43817 0.01523 0.78058 0.0
H4718 H 0.39191 0.0267 0.73431 0.0
H4719 H 0.41725 0.96885 0.75085 0.0
H4720 H 0.42046 0.02131 0.76253 0.0
H4721 H 0.39574 0.9853 0.72184 0.0
C4722 C 0.38692 0.99773 0.71557 0.0
C4723 C 0.38557 0.00937 0.71893 0.0
C4724 C 0.42031 0.01154 0.76113 0.0
C4725 C 0.40168 0.00279 0.73698 0.0
C4726 C 0.43061 0.00758 0.77291 0.0
C4727 C 0.43133 0.99203 0.76611 0.0
C4728 C 0.40997 0.99935 0.74682 0.0
C4729 C 0.4174 0.97833 0.75417 0.0
C4730 C 0.39492 0.99439 0.72458 0.0
C4731 C 0.3926 0.01757 0.73141 0.0
N4732 N 0.40901 0.98418 0.74478 0.0
N4733 N 0.40041 0.01414 0.74 0.0
H4734 H 0.00727 0.37346 0.73391 0.0
H4735 H 0.99115 0.4419 0.74219 0.0
H4736 H 0.97786 0.37775 0.70661 0.0
H4737 H 0.02822 0.43659 0.77104 0.0
H4738 H 0.98476 0.41605 0.72731 0.0
H4739 H 0.01266 0.39499 0.74707 0.0
C4740 C 0.00183 0.37884 0.73079 0.0
C4741 C 0.99211 0.37379 0.71912 0.0
C4742 C 0.99292 0.42067 0.73561 0.0
C4743 C 0.9984 0.39854 0.73399 0.0
C4744 C 0.99733 0.43701 0.74398 0.0
C4745 C 0.00915 0.44111 0.76019 0.0
C4746 C 0.00199 0.41194 0.74114 0.0
C4747 C 0.02072 0.43367 0.76214 0.0
C4748 C 0.005 0.39119 0.73823 0.0
C4749 C 0.98555 0.38136 0.71541 0.0
N4750 N 0.01489 0.41895 0.75312 0.0
N4751 N 0.98883 0.39339 0.72282 0.0
H4752 H 0.61388 0.59923 0.71357 0.0
H4753 H 0.55021 0.60402 0.74825 0.0
H4754 H 0.60974 0.63583 0.71205 0.0
H4755 H 0.54971 0.56508 0.74266 0.0
H4756 H 0.57344 0.61633 0.73755 0.0
H4757 H 0.59172 0.58699 0.72675 0.0
C4758 C 0.60834 0.6047 0.71608 0.0
C4759 C 0.61357 0.61851 0.7116 0.0
C4760 C 0.56833 0.60511 0.73878 0.0
C4761 C 0.58834 0.60465 0.72665 0.0
C4762 C 0.55511 0.5981 0.74497 0.0
C4763 C 0.54814 0.58356 0.7466 0.0
C4764 C 0.57464 0.59753 0.73406 0.0
C4765 C 0.55484 0.57634 0.74185 0.0
C4766 C 0.5957 0.5977 0.72354 0.0
C4767 C 0.60597 0.6251 0.71508 0.0
N4768 N 0.56772 0.58341 0.73579 0.0
N4769 N 0.59376 0.61812 0.72238 0.0
H4770 H 0.64296 0.70791 0.65643 0.0
H4771 H 0.65332 0.76809 0.60208 0.0
H4772 H 0.67585 0.72516 0.62448 0.0
H4773 H 0.61438 0.74067 0.62328 0.0
H4774 H 0.66308 0.75439 0.61203 0.0
H4775 H 0.63371 0.72185 0.64633 0.0
C4776 C 0.64821 0.71455 0.64723 0.0
C4777 C 0.66015 0.71521 0.64122 0.0
C4778 C 0.65237 0.75132 0.61438 0.0
C4779 C 0.6497 0.73146 0.62978 0.0
C4780 C 0.64677 0.75909 0.60867 0.0
C4781 C 0.63287 0.75527 0.61155 0.0
C4782 C 0.64413 0.73987 0.62333 0.0
C4783 C 0.62503 0.74378 0.62056 0.0
C4784 C 0.64294 0.72256 0.64151 0.0
C4785 C 0.6667 0.72437 0.62957 0.0
N4786 N 0.63077 0.7365 0.62614 0.0
N4787 N 0.66139 0.73213 0.62423 0.0
H4788 H 0.26951 0.94267 0.63432 0.0
H4789 H 0.2764 0.87261 0.60362 0.0
H4790 H 0.30797 0.94179 0.63554 0.0
H4791 H 0.23847 0.88344 0.58691 0.0
H4792 H 0.28918 0.89947 0.61863 0.0
H4793 H 0.25859 0.92067 0.62015 0.0
C4794 C 0.27571 0.93795 0.63161 0.0
C4795 C 0.28975 0.94421 0.63621 0.0
C4796 C 0.27968 0.89578 0.61226 0.0
C4797 C 0.27714 0.91888 0.62031 0.0
C4798 C 0.27246 0.87967 0.60228 0.0
C4799 C 0.25456 0.87388 0.59531 0.0
C4800 C 0.27096 0.90563 0.61193 0.0
C4801 C 0.24849 0.88647 0.5919 0.0
C4802 C 0.26942 0.92536 0.62358 0.0
C4803 C 0.29707 0.93732 0.63258 0.0
N4804 N 0.2569 0.90071 0.6019 0.0
N4805 N 0.29066 0.925 0.62491 0.0
H4806 H 0.06122 0.32542 0.64928 0.0
H4807 H 0.11982 0.39131 0.6061 0.0
H4808 H 0.0548 0.35743 0.63094 0.0
H4809 H 0.12502 0.35729 0.62034 0.0
H4810 H 0.09592 0.37901 0.61522 0.0
H4811 H 0.08453 0.33675 0.63867 0.0
C4812 C 0.06466 0.33476 0.64293 0.0
C4813 C 0.05605 0.34051 0.64108 0.0
C4814 C 0.10224 0.37417 0.61626 0.0
C4815 C 0.08279 0.35364 0.62905 0.0
C4816 C 0.11586 0.38118 0.61104 0.0
C4817 C 0.12433 0.37522 0.6123 0.0
C4818 C 0.09708 0.36115 0.62296 0.0
C4819 C 0.11877 0.36217 0.61901 0.0
C4820 C 0.078 0.34127 0.63694 0.0
C4821 C 0.06115 0.35275 0.63289 0.0
N4822 N 0.1055 0.35558 0.6241 0.0
N4823 N 0.07418 0.35892 0.62723 0.0
H4824 H 0.30892 0.36444 0.64616 0.0
H4825 H 0.23485 0.3558 0.62633 0.0
H4826 H 0.2706 0.32452 0.64485 0.0
H4827 H 0.27397 0.39426 0.62122 0.0
H4828 H 0.24769 0.34397 0.63258 0.0
H4829 H 0.29629 0.37544 0.6367 0.0
C4830 C 0.29782 0.35799 0.64389 0.0
C4831 C 0.29077 0.34356 0.64643 0.0
C4832 C 0.25348 0.35497 0.62996 0.0
C4833 C 0.27624 0.35609 0.6355 0.0
C4834 C 0.24616 0.36171 0.62638 0.0
C4835 C 0.25337 0.37602 0.62325 0.0
C4836 C 0.26814 0.36263 0.63059 0.0
C4837 C 0.26802 0.38321 0.62355 0.0
C4838 C 0.29064 0.36427 0.63839 0.0
C4839 C 0.27645 0.33567 0.64301 0.0
N4840 N 0.27492 0.37647 0.62726 0.0
N4841 N 0.26963 0.34206 0.63784 0.0
H4842 H 0.65645 0.94202 0.65467 0.0
H4843 H 0.6282 0.89755 0.57956 0.0
H4844 H 0.66531 0.96039 0.61177 0.0
H4845 H 0.61669 0.87932 0.62237 0.0
H4846 H 0.64256 0.92059 0.5912 0.0
H4847 H 0.6426 0.91888 0.6431 0.0
C4848 C 0.65548 0.9412 0.64281 0.0
C4849 C 0.66205 0.9532 0.63419 0.0
C4850 C 0.63693 0.91157 0.59807 0.0
C4851 C 0.64627 0.9267 0.62086 0.0
C4852 C 0.62875 0.89843 0.59143 0.0
C4853 C 0.62136 0.88651 0.60002 0.0
C4854 C 0.63772 0.91285 0.61345 0.0
C4855 C 0.62232 0.88823 0.61535 0.0
C4856 C 0.6476 0.92797 0.63621 0.0
C4857 C 0.6606 0.95145 0.61886 0.0
N4858 N 0.63038 0.90115 0.62158 0.0
N4859 N 0.65284 0.93847 0.6127 0.0
H4860 H 0.03802 0.6941 0.62405 0.0
H4861 H 0.12066 0.74112 0.63257 0.0
H4862 H 0.05792 0.72143 0.66168 0.0
H4863 H 0.09958 0.72572 0.59075 0.0
H4864 H 0.09793 0.73225 0.64427 0.0
H4865 H 0.06066 0.70396 0.61239 0.0
C4866 C 0.04709 0.70229 0.62983 0.0
C4867 C 0.04594 0.70696 0.6439 0.0
C4868 C 0.09831 0.73084 0.63253 0.0
C4869 C 0.07208 0.71803 0.63067 0.0
C4870 C 0.11125 0.73586 0.62586 0.0
C4871 C 0.11199 0.73406 0.61068 0.0
C4872 C 0.08603 0.72385 0.62397 0.0
C4873 C 0.09947 0.7272 0.6025 0.0
C4874 C 0.06006 0.70785 0.62318 0.0
C4875 C 0.05824 0.71733 0.65093 0.0
N4876 N 0.08701 0.72228 0.60926 0.0
N4877 N 0.0708 0.72247 0.64428 0.0
H4878 H 0.97014 0.59235 0.69539 0.0
H4879 H 0.01757 0.57551 0.74685 0.0
H4880 H 0.99557 0.61988 0.73089 0.0
H4881 H 0.98377 0.54409 0.72009 0.0
H4882 H 0.01016 0.59218 0.74073 0.0
H4883 H 0.97533 0.57472 0.70389 0.0
C4884 C 0.97667 0.59466 0.70509 0.0
C4885 C 0.98243 0.60769 0.71241 0.0
C4886 C 0.00424 0.58158 0.73636 0.0
C4887 C 0.98868 0.58757 0.722 0.0
C4888 C 0.00844 0.57205 0.73989 0.0
C4889 C 0.00108 0.5583 0.73421 0.0
C4890 C 0.99281 0.57745 0.72679 0.0
C4891 C 0.98957 0.55452 0.72489 0.0
C4892 C 0.9797 0.58458 0.70988 0.0
C4893 C 0.99108 0.61011 0.72472 0.0
N4894 N 0.98583 0.56406 0.72141 0.0
N4895 N 0.99401 0.60019 0.72907 0.0
H4896 H 0.40062 0.39452 0.70178 0.0
H4897 H 0.39581 0.45448 0.74606 0.0
H4898 H 0.36752 0.38628 0.73188 0.0
H4899 H 0.43157 0.462 0.72074 0.0
H4900 H 0.38585 0.4293 0.74212 0.0
H4901 H 0.41285 0.41902 0.70982 0.0
C4902 C 0.39602 0.39779 0.71025 0.0
C4903 C 0.38294 0.38831 0.71606 0.0
C4904 C 0.39597 0.43644 0.73759 0.0
C4905 C 0.39679 0.41647 0.72511 0.0
C4906 C 0.40167 0.4508 0.7399 0.0
C4907 C 0.41462 0.46031 0.73389 0.0
C4908 C 0.40316 0.43155 0.729 0.0
C4909 C 0.42163 0.455 0.7257 0.0
C4910 C 0.40297 0.41183 0.71477 0.0
C4911 C 0.37743 0.39326 0.72687 0.0
N4912 N 0.41579 0.44099 0.72342 0.0
N4913 N 0.38432 0.407 0.73094 0.0
H4914 H 0.62355 0.99516 0.7115 0.0
H4915 H 0.57428 0.02629 0.73064 0.0
H4916 H 0.63601 0.03859 0.7066 0.0
H4917 H 0.56319 0.98374 0.73905 0.0
H4918 H 0.5972 0.03116 0.72237 0.0
H4919 H 0.60158 0.99086 0.72209 0.0
C4920 C 0.62165 0.00379 0.71265 0.0
C4921 C 0.63159 0.01724 0.70807 0.0
C4922 C 0.58981 0.02078 0.72613 0.0
C4923 C 0.6065 0.01242 0.72027 0.0
C4924 C 0.57674 0.01802 0.73087 0.0
C4925 C 0.56689 0.00463 0.73564 0.0
C4926 C 0.593 0.01004 0.726 0.0
C4927 C 0.57055 0.99423 0.73555 0.0
C4928 C 0.60914 0.00135 0.71877 0.0
C4929 C 0.62869 0.02808 0.71006 0.0
N4930 N 0.58329 0.99714 0.73076 0.0
N4931 N 0.61637 0.02542 0.71592 0.0
loop_
_geom_bond_atom_site_label_1
_geom_bond_atom_site_label_2
_geom_bond_distance
_geom_bond_site_symmetry_2
_ccdc_geom_bond_type
Li0 N17 1.975 1_554 S
Li0 O60 2.008 . S
Li0 O61 1.946 1_654 S
Li0 O62 1.955 1_554 S
Li1 N25 1.990 . S
Li1 O60 1.970 1_455 S
Li1 O61 1.956 1_554 S
Li1 O63 1.961 . S
Li2 N47 1.990 . S
Li2 O60 1.961 . S
Li2 O62 1.900 1_554 S
Li2 O63 1.970 1_655 S
Li3 N53 1.990 . S
Li3 O61 1.961 . S
Li3 O62 1.989 1_455 S
Li3 O63 1.956 1_556 S
C4 C6 1.324 1_655 S
C4 C7 1.356 . S
C4 O60 1.325 . S
N5 C8 1.314 . S
N5 C9 1.279 . S
C6 C4 1.324 1_455 S
C6 C8 1.351 1_455 S
C6 H64 0.955 . S
C7 C4 1.356 . S
C7 C9 1.358 . S
C7 H65 0.930 . S
C8 N5 1.314 . S
C8 C6 1.351 1_655 S
C8 H66 0.927 . S
C9 N5 1.279 . S
C9 C7 1.358 . S
C9 H67 0.930 . S
C10 C13 1.348 . S
C10 C14 1.356 . S
C10 O61 1.325 . S
C11 N12 1.279 . S
C11 C14 1.358 . S
C11 H68 0.930 . S
N12 C11 1.279 . S
N12 C15 1.314 . S
C13 C10 1.348 . S
C13 C15 1.353 . S
C13 H69 0.939 . S
C14 C10 1.356 . S
C14 C11 1.358 . S
C14 H70 0.930 . S
C15 N12 1.314 . S
C15 C13 1.353 . S
C15 H71 0.930 . S
C16 N17 1.314 . S
C16 C21 1.353 . S
C16 H22 0.930 . S
N17 Li0 1.975 1_556 S
N17 C16 1.314 . S
N17 C19 1.263 1_556 S
C18 C19 1.347 1_556 S
C18 C20 1.356 . S
C18 H72 0.930 1_556 S
C19 N17 1.263 1_554 S
C19 C18 1.347 1_554 S
C19 H23 0.962 . S
C20 C18 1.356 . S
C20 C21 1.348 . S
C21 C16 1.353 . S
C21 C20 1.348 . S
C21 H73 0.929 . S
H22 C16 0.930 . S
H23 C19 0.962 . S
C24 N25 1.314 . S
C24 C26 1.353 . S
C24 H30 0.930 . S
N25 Li1 1.990 . S
N25 C24 1.314 . S
N25 C28 1.279 . S
C26 C24 1.353 . S
C26 C29 1.348 . S
C26 H74 0.929 . S
C27 C28 1.358 . S
C27 C29 1.356 . S
C27 H75 0.930 . S
C28 N25 1.279 . S
C28 C27 1.358 . S
C28 H31 0.930 . S
C29 C26 1.348 . S
C29 C27 1.356 . S
H30 C24 0.930 . S
H31 C28 0.930 . S
C32 C34 1.348 . S
C32 C35 1.356 . S
C32 O62 1.344 . S
N33 C36 1.314 . S
N33 C37 1.279 . S
C34 C32 1.348 . S
C34 C36 1.353 . S
C34 H76 0.929 . S
C35 C32 1.356 . S
C35 C37 1.358 . S
C35 H77 0.930 1_556 S
C36 N33 1.314 . S
C36 C34 1.353 . S
C36 H78 0.930 . S
C37 N33 1.279 . S
C37 C35 1.358 . S
C37 H79 0.930 . S
C38 C39 1.348 . S
C38 C40 1.356 . S
C38 O63 1.325 . S
C39 C38 1.348 . S
C39 C41 1.353 . S
C39 H80 0.929 . S
C40 C38 1.356 . S
C40 C42 1.358 . S
C40 H81 0.930 . S
C41 C39 1.353 . S
C41 N43 1.314 . S
C41 H82 0.930 . S
C42 C40 1.358 . S
C42 N43 1.279 . S
C42 H83 0.930 . S
N43 C41 1.314 . S
N43 C42 1.279 . S
C44 C46 1.353 . S
C44 N47 1.314 . S
C44 H50 0.930 . S
C45 N47 1.279 . S
C45 C48 1.358 . S
C45 H51 0.930 . S
C46 C44 1.353 . S
C46 C49 1.348 . S
C46 H84 0.929 . S
N47 Li2 1.990 . S
N47 C44 1.314 . S
N47 C45 1.279 . S
C48 C45 1.358 . S
C48 C49 1.356 . S
C48 H85 0.930 . S
C49 C46 1.348 . S
C49 C48 1.356 . S
H50 C44 0.930 . S
H51 C45 0.930 . S
C52 N53 1.314 . S
C52 C54 1.353 . S
C52 H58 0.930 . S
N53 Li3 1.990 . S
N53 C52 1.314 . S
N53 C56 1.279 . S
C54 C52 1.353 . S
C54 C57 1.348 . S
C54 H86 0.929 . S
C55 C56 1.358 . S
C55 C57 1.356 . S
C55 H87 0.930 . S
C56 N53 1.279 . S
C56 C55 1.358 . S
C56 H59 0.930 . S
C57 C54 1.348 . S
C57 C55 1.356 . S
H58 C52 0.930 . S
H59 C56 0.930 . S
O60 Li0 2.008 . S
O60 Li1 1.970 1_655 S
O60 Li2 1.961 . S
O60 C4 1.325 . S
O61 Li0 1.946 1_456 S
O61 Li1 1.956 1_556 S
O61 Li3 1.961 . S
O61 C10 1.325 . S
O62 Li0 1.955 1_556 S
O62 Li2 1.900 1_556 S
O62 Li3 1.989 1_655 S
O62 C32 1.344 . S
O63 Li1 1.961 . S
O63 Li2 1.970 1_455 S
O63 Li3 1.956 1_554 S
O63 C38 1.325 . S
H64 C6 0.955 . S
H65 C7 0.930 . S
H66 C8 0.927 . S
H67 C9 0.930 . S
H68 C11 0.930 . S
H69 C13 0.939 . S
H70 C14 0.930 . S
H71 C15 0.930 . S
H72 C18 0.930 1_554 S
H73 C21 0.929 . S
H74 C26 0.929 . S
H75 C27 0.930 . S
H76 C34 0.929 . S
H77 C35 0.930 1_554 S
H78 C36 0.930 . S
H79 C37 0.930 . S
H80 C39 0.929 . S
H81 C40 0.930 . S
H82 C41 0.930 . S
H83 C42 0.930 . S
H84 C46 0.929 . S
H85 C48 0.930 . S
H86 C54 0.929 . S
H87 C55 0.930 . S
Li88 N105 1.973 1_554 S
Li88 O148 1.956 . S
Li88 O149 1.970 . S
Li88 O150 1.961 . S
Li89 N113 1.990 . S
Li89 O148 1.970 . S
Li89 O149 1.956 . S
Li89 O151 1.961 . S
Li90 N135 1.990 . S
Li90 O148 1.961 . S
Li90 O150 1.956 . S
Li90 O151 1.970 . S
Li91 N141 1.990 1_554 S
Li91 O149 1.961 . S
Li91 O150 1.970 . S
Li91 O151 1.956 . S
C92 C94 1.348 . S
C92 C95 1.356 . S
C92 O148 1.325 . S
N93 C96 1.314 . S
N93 C97 1.279 . S
C94 C92 1.348 . S
C94 C96 1.353 . S
C94 H152 0.929 . S
C95 C92 1.356 . S
C95 C97 1.358 . S
C95 H153 0.930 . S
C96 N93 1.314 . S
C96 C94 1.353 . S
C96 H154 0.930 . S
C97 N93 1.279 . S
C97 C95 1.358 . S
C97 H155 0.930 . S
C98 C101 1.348 . S
C98 C102 1.356 . S
C98 O149 1.325 1_556 S
C99 N100 1.279 . S
C99 C102 1.358 . S
C99 H156 0.930 . S
N100 C99 1.279 . S
N100 C103 1.314 . S
C101 C98 1.348 . S
C101 C103 1.353 . S
C101 H157 0.929 . S
C102 C98 1.356 . S
C102 C99 1.358 . S
C102 H158 0.930 . S
C103 N100 1.314 . S
C103 C101 1.353 . S
C103 H159 0.930 . S
C104 N105 1.357 . S
C104 C109 1.353 . S
C104 H110 0.930 . S
N105 Li88 1.973 1_556 S
N105 C104 1.357 . S
N105 C107 1.262 1_556 S
C106 C107 1.358 1_556 S
C106 C108 1.356 . S
C106 H160 0.930 1_556 S
C107 N105 1.262 1_554 S
C107 C106 1.358 1_554 S
C107 H111 0.930 . S
C108 C106 1.356 . S
C108 C109 1.348 . S
C109 C104 1.353 . S
C109 C108 1.348 . S
C109 H161 0.929 . S
H110 C104 0.930 . S
H111 C107 0.930 . S
C112 N113 1.314 . S
C112 C114 1.353 . S
C112 H118 0.930 . S
N113 Li89 1.990 . S
N113 C112 1.314 . S
N113 C116 1.279 . S
C114 C112 1.353 . S
C114 C117 1.348 . S
C114 H162 0.929 . S
C115 C116 1.358 . S
C115 C117 1.356 . S
C115 H163 0.930 . S
C116 N113 1.279 . S
C116 C115 1.358 . S
C116 H119 0.930 . S
C117 C114 1.348 . S
C117 C115 1.356 . S
H118 C112 0.930 . S
H119 C116 0.930 . S
C120 C122 1.346 . S
C120 C123 1.357 1_556 S
C120 O150 1.326 1_556 S
N121 C124 1.314 . S
N121 C125 1.279 . S
C122 C120 1.346 . S
C122 C124 1.353 . S
C122 H164 0.929 . S
C123 C120 1.357 1_554 S
C123 C125 1.358 1_554 S
C123 H165 0.930 . S
C124 N121 1.314 . S
C124 C122 1.353 . S
C124 H166 0.930 . S
C125 N121 1.279 . S
C125 C123 1.358 1_556 S
C125 H167 0.930 . S
C126 C127 1.348 . S
C126 C128 1.356 . S
C126 O151 1.325 . S
C127 C126 1.348 . S
C127 C129 1.353 . S
C127 H168 0.929 . S
C128 C126 1.356 . S
C128 C130 1.358 . S
C128 H169 0.930 . S
C129 C127 1.353 . S
C129 N131 1.314 . S
C129 H170 0.930 . S
C130 C128 1.358 . S
C130 N131 1.279 . S
C130 H171 0.930 . S
N131 C129 1.314 . S
N131 C130 1.279 . S
C132 C134 1.353 . S
C132 N135 1.314 . S
C132 H138 0.930 . S
C133 N135 1.279 . S
C133 C136 1.358 . S
C133 H139 0.930 . S
C134 C132 1.353 . S
C134 C137 1.348 . S
C134 H172 0.929 . S
N135 Li90 1.990 . S
N135 C132 1.314 . S
N135 C133 1.279 . S
C136 C133 1.358 . S
C136 C137 1.356 . S
C136 H173 0.930 . S
C137 C134 1.348 . S
C137 C136 1.356 . S
H138 C132 0.930 . S
H139 C133 0.930 . S
C140 N141 1.314 . S
C140 C142 1.353 . S
C140 H146 0.930 . S
N141 Li91 1.990 1_556 S
N141 C140 1.314 . S
N141 C144 1.279 . S
C142 C140 1.353 . S
C142 C145 1.348 . S
C142 H174 0.929 . S
C143 C144 1.358 . S
C143 C145 1.356 . S
C143 H175 0.930 . S
C144 N141 1.279 . S
C144 C143 1.358 . S
C144 H147 0.924 . S
C145 C142 1.348 . S
C145 C143 1.356 . S
H146 C140 0.930 . S
H147 C144 0.924 . S
O148 Li88 1.956 . S
O148 Li89 1.970 . S
O148 Li90 1.961 . S
O148 C92 1.325 . S
O149 Li88 1.970 . S
O149 Li89 1.956 . S
O149 Li91 1.961 . S
O149 C98 1.325 1_554 S
O150 Li88 1.961 . S
O150 Li90 1.956 . S
O150 Li91 1.970 . S
O150 C120 1.326 1_554 S
O151 Li89 1.961 . S
O151 Li90 1.970 . S
O151 Li91 1.956 . S
O151 C126 1.325 . S
H152 C94 0.929 . S
H153 C95 0.930 . S
H154 C96 0.930 . S
H155 C97 0.930 . S
H156 C99 0.930 . S
H157 C101 0.929 . S
H158 C102 0.930 . S
H159 C103 0.930 . S
H160 C106 0.930 1_554 S
H161 C109 0.929 . S
H162 C114 0.929 . S
H163 C115 0.930 . S
H164 C122 0.929 . S
H165 C123 0.930 . S
H166 C124 0.930 . S
H167 C125 0.930 . S
H168 C127 0.929 . S
H169 C128 0.930 . S
H170 C129 0.930 . S
H171 C130 0.930 . S
H172 C134 0.929 . S
H173 C136 0.930 . S
H174 C142 0.929 . S
H175 C143 0.930 . S
Li176 N193 1.990 . S
Li176 O236 1.956 1_556 S
Li176 O237 1.958 1_566 S
Li176 O238 1.961 . S
Li177 N201 1.990 . S
Li177 O236 1.970 1_545 S
Li177 O237 2.001 . S
Li177 O239 1.961 . S
Li178 N223 1.990 . S
Li178 O236 1.961 . S
Li178 O238 1.956 1_554 S
Li178 O239 1.970 1_565 S
Li179 N229 1.990 1_554 S
Li179 O237 1.965 . S
Li179 O238 1.970 1_544 S
Li179 O239 1.956 . S
C180 C182 1.348 . S
C180 C183 1.356 . S
C180 O236 1.325 . S
N181 C184 1.314 . S
N181 C185 1.279 . S
C182 C180 1.348 . S
C182 C184 1.353 . S
C182 H240 0.929 . S
C183 C180 1.356 . S
C183 C185 1.358 . S
C183 H241 0.930 . S
C184 N181 1.314 . S
C184 C182 1.353 . S
C184 H242 0.930 . S
C185 N181 1.279 . S
C185 C183 1.358 . S
C185 H243 0.930 . S
C186 C189 1.348 . S
C186 C190 1.340 1_556 S
C186 O237 1.311 1_556 S
C187 N188 1.279 . S
C187 C190 1.339 1_556 S
C187 H244 0.950 . S
N188 C187 1.279 . S
N188 C191 1.314 . S
C189 C186 1.348 . S
C189 C191 1.353 . S
C189 H245 0.929 . S
C190 C186 1.340 1_554 S
C190 C187 1.339 1_554 S
C190 H246 0.971 . S
C191 N188 1.314 . S
C191 C189 1.353 . S
C191 H247 0.930 . S
C192 N193 1.314 . S
C192 C197 1.353 . S
C192 H198 0.930 . S
N193 Li176 1.990 . S
N193 C192 1.314 . S
N193 C195 1.279 . S
C194 C195 1.358 . S
C194 C196 1.356 . S
C194 H248 0.930 . S
C195 N193 1.279 . S
C195 C194 1.358 . S
C195 H199 0.930 . S
C196 C194 1.356 . S
C196 C197 1.348 . S
C197 C192 1.353 . S
C197 C196 1.348 . S
C197 H249 0.929 . S
H198 C192 0.930 . S
H199 C195 0.930 . S
C200 N201 1.314 . S
C200 C202 1.353 . S
C200 H206 0.930 . S
N201 Li177 1.990 . S
N201 C200 1.314 . S
N201 C204 1.279 . S
C202 C200 1.353 . S
C202 C205 1.348 . S
C202 H250 0.929 . S
C203 C204 1.358 . S
C203 C205 1.356 . S
C203 H251 0.930 . S
C204 N201 1.279 . S
C204 C203 1.358 . S
C204 H207 0.930 . S
C205 C202 1.348 . S
C205 C203 1.356 . S
H206 C200 0.930 . S
H207 C204 0.930 . S
C208 C210 1.348 . S
C208 C211 1.356 . S
C208 O238 1.325 . S
N209 C212 1.314 . S
N209 C213 1.279 . S
C210 C208 1.348 . S
C210 C212 1.353 . S
C210 H252 0.929 1_565 S
C211 C208 1.356 . S
C211 C213 1.358 . S
C211 H253 0.930 . S
C212 N209 1.314 . S
C212 C210 1.353 . S
C212 H254 0.930 . S
C213 N209 1.279 . S
C213 C211 1.358 . S
C213 H255 0.930 . S
C214 C215 1.348 . S
C214 C216 1.356 . S
C214 O239 1.325 . S
C215 C214 1.348 . S
C215 C217 1.353 . S
C215 H256 0.929 1_545 S
C216 C214 1.356 . S
C216 C218 1.358 . S
C216 H257 0.930 . S
C217 C215 1.353 . S
C217 N219 1.314 . S
C217 H258 0.930 . S
C218 C216 1.358 . S
C218 N219 1.279 . S
C218 H259 0.930 . S
N219 C217 1.314 . S
N219 C218 1.279 . S
C220 C222 1.353 . S
C220 N223 1.314 . S
C220 H226 0.930 . S
C221 N223 1.279 . S
C221 C224 1.358 . S
C221 H227 0.930 . S
C222 C220 1.353 . S
C222 C225 1.348 . S
C222 H260 0.929 . S
N223 Li178 1.990 . S
N223 C220 1.314 . S
N223 C221 1.279 . S
C224 C221 1.358 . S
C224 C225 1.356 . S
C224 H261 0.930 . S
C225 C222 1.348 . S
C225 C224 1.356 . S
H226 C220 0.930 . S
H227 C221 0.930 . S
C228 N229 1.314 . S
C228 C230 1.353 . S
C228 H234 0.930 . S
N229 Li179 1.990 1_556 S
N229 C228 1.314 . S
N229 C232 1.279 1_556 S
C230 C228 1.353 . S
C230 C233 1.348 . S
C230 H262 0.929 . S
C231 C232 1.358 1_556 S
C231 C233 1.356 . S
C231 H263 0.930 1_556 S
C232 N229 1.279 1_554 S
C232 C231 1.358 1_554 S
C232 H235 0.930 . S
C233 C230 1.348 . S
C233 C231 1.356 . S
H234 C228 0.930 . S
H235 C232 0.930 . S
O236 Li176 1.956 1_554 S
O236 Li177 1.970 1_565 S
O236 Li178 1.961 . S
O236 C180 1.325 . S
O237 Li176 1.958 1_544 S
O237 Li177 2.001 . S
O237 Li179 1.965 . S
O237 C186 1.311 1_554 S
O238 Li176 1.961 . S
O238 Li178 1.956 1_556 S
O238 Li179 1.970 1_566 S
O238 C208 1.325 . S
O239 Li177 1.961 . S
O239 Li178 1.970 1_545 S
O239 Li179 1.956 . S
O239 C214 1.325 . S
H240 C182 0.929 . S
H241 C183 0.930 . S
H242 C184 0.930 . S
H243 C185 0.930 . S
H244 C187 0.950 . S
H245 C189 0.929 . S
H246 C190 0.971 . S
H247 C191 0.930 . S
H248 C194 0.930 . S
H249 C197 0.929 . S
H250 C202 0.929 . S
H251 C203 0.930 . S
H252 C210 0.929 1_545 S
H253 C211 0.930 . S
H254 C212 0.930 . S
H255 C213 0.930 . S
H256 C215 0.929 1_565 S
H257 C216 0.930 . S
H258 C217 0.930 . S
H259 C218 0.930 . S
H260 C222 0.929 . S
H261 C224 0.930 . S
H262 C230 0.929 . S
H263 C231 0.930 1_554 S
Li264 N281 1.990 . S
Li264 O324 1.956 . S
Li264 O325 1.970 1_455 S
Li264 O326 1.961 1_554 S
Li265 N289 1.990 . S
Li265 O324 1.970 1_655 S
Li265 O325 1.956 . S
Li265 O327 1.961 . S
Li266 N311 1.990 . S
Li266 O324 1.961 1_556 S
Li266 O326 1.956 . S
Li266 O327 1.970 1_456 S
Li267 N317 1.990 1_554 S
Li267 O325 1.961 . S
Li267 O326 1.970 1_654 S
Li267 O327 1.956 . S
C268 C270 1.348 . S
C268 C271 1.356 . S
C268 O324 1.325 . S
N269 C272 1.314 . S
N269 C273 1.279 . S
C270 C268 1.348 . S
C270 C272 1.353 . S
C270 H328 0.929 . S
C271 C268 1.356 . S
C271 C273 1.358 . S
C271 H329 0.930 . S
C272 N269 1.314 . S
C272 C270 1.353 . S
C272 H330 0.930 . S
C273 N269 1.279 . S
C273 C271 1.358 . S
C273 H331 0.930 . S
C274 C277 1.348 . S
C274 C278 1.356 . S
C274 O325 1.325 . S
C275 N276 1.279 . S
C275 C278 1.358 . S
C275 H332 0.930 . S
N276 C275 1.279 . S
N276 C279 1.314 . S
C277 C274 1.348 . S
C277 C279 1.353 . S
C277 H333 0.929 1_655 S
C278 C274 1.356 . S
C278 C275 1.358 . S
C278 H334 0.930 . S
C279 N276 1.314 . S
C279 C277 1.353 . S
C279 H335 0.930 . S
C280 N281 1.314 . S
C280 C285 1.353 . S
C280 H286 0.930 . S
N281 Li264 1.990 . S
N281 C280 1.314 . S
N281 C283 1.279 . S
C282 C283 1.358 . S
C282 C284 1.356 . S
C282 H336 0.930 . S
C283 N281 1.279 . S
C283 C282 1.358 . S
C283 H287 0.930 . S
C284 C282 1.356 . S
C284 C285 1.348 . S
C285 C280 1.353 . S
C285 C284 1.348 . S
C285 H337 0.929 . S
H286 C280 0.930 . S
H287 C283 0.930 . S
C288 N289 1.314 . S
C288 C290 1.353 . S
C288 H294 0.930 . S
N289 Li265 1.990 . S
N289 C288 1.314 . S
N289 C292 1.279 . S
C290 C288 1.353 . S
C290 C293 1.348 . S
C290 H338 0.929 . S
C291 C292 1.358 . S
C291 C293 1.356 . S
C291 H339 0.930 . S
C292 N289 1.279 . S
C292 C291 1.358 . S
C292 H295 0.930 . S
C293 C290 1.348 . S
C293 C291 1.356 . S
H294 C288 0.930 . S
H295 C292 0.930 . S
C296 C298 1.348 . S
C296 C299 1.356 . S
C296 O326 1.325 . S
N297 C300 1.314 . S
N297 C301 1.279 . S
C298 C296 1.348 . S
C298 C300 1.353 . S
C298 H340 0.929 1_455 S
C299 C296 1.356 . S
C299 C301 1.358 . S
C299 H341 0.930 . S
C300 N297 1.314 . S
C300 C298 1.353 . S
C300 H342 0.930 . S
C301 N297 1.279 . S
C301 C299 1.358 . S
C301 H343 0.930 . S
C302 C303 1.374 . S
C302 C304 1.341 1_556 S
C302 O327 1.316 1_556 S
C303 C302 1.374 . S
C303 C305 1.353 . S
C303 H344 0.929 . S
C304 C302 1.341 1_554 S
C304 C306 1.358 . S
C304 H345 0.930 . S
C305 C303 1.353 . S
C305 N307 1.314 . S
C305 H346 0.930 . S
C306 C304 1.358 . S
C306 N307 1.279 1_554 S
C306 H347 0.930 . S
N307 C305 1.314 . S
N307 C306 1.279 1_556 S
C308 C310 1.353 . S
C308 N311 1.314 . S
C308 H314 0.930 . S
C309 N311 1.279 . S
C309 C312 1.358 . S
C309 H315 0.930 . S
C310 C308 1.353 . S
C310 C313 1.348 . S
C310 H348 0.929 . S
N311 Li266 1.990 . S
N311 C308 1.314 . S
N311 C309 1.279 . S
C312 C309 1.358 . S
C312 C313 1.356 . S
C312 H349 0.930 . S
C313 C310 1.348 . S
C313 C312 1.356 . S
H314 C308 0.930 . S
H315 C309 0.930 . S
C316 N317 1.314 1_554 S
C316 C318 1.353 1_554 S
C316 H322 0.930 . S
N317 Li267 1.990 1_556 S
N317 C316 1.314 1_556 S
N317 C320 1.279 . S
C318 C316 1.353 1_556 S
C318 C321 1.348 . S
C318 H350 0.922 1_556 S
C319 C320 1.358 . S
C319 C321 1.356 . S
C319 H351 0.930 . S
C320 N317 1.279 . S
C320 C319 1.358 . S
C320 H323 0.930 . S
C321 C318 1.348 . S
C321 C319 1.356 . S
H322 C316 0.930 . S
H323 C320 0.930 . S
O324 Li264 1.956 . S
O324 Li265 1.970 1_455 S
O324 Li266 1.961 1_554 S
O324 C268 1.325 . S
O325 Li264 1.970 1_655 S
O325 Li265 1.956 . S
O325 Li267 1.961 . S
O325 C274 1.325 . S
O326 Li264 1.961 1_556 S
O326 Li266 1.956 . S
O326 Li267 1.970 1_456 S
O326 C296 1.325 . S
O327 Li265 1.961 . S
O327 Li266 1.970 1_654 S
O327 Li267 1.956 . S
O327 C302 1.316 1_554 S
H328 C270 0.929 . S
H329 C271 0.930 . S
H330 C272 0.930 . S
H331 C273 0.930 . S
H332 C275 0.930 . S
H333 C277 0.929 1_455 S
H334 C278 0.930 . S
H335 C279 0.930 . S
H336 C282 0.930 . S
H337 C285 0.929 . S
H338 C290 0.929 . S
H339 C291 0.930 . S
H340 C298 0.929 1_655 S
H341 C299 0.930 . S
H342 C300 0.930 . S
H343 C301 0.930 . S
H344 C303 0.929 . S
H345 C304 0.930 . S
H346 C305 0.930 . S
H347 C306 0.930 . S
H348 C310 0.929 . S
H349 C312 0.930 . S
H350 C318 0.922 1_554 S
H351 C319 0.930 . S
Li352 N369 1.990 . S
Li352 O412 1.956 . S
Li352 O413 1.970 . S
Li352 O414 1.961 1_554 S
Li353 N377 1.990 . S
Li353 O412 1.970 . S
Li353 O413 1.956 . S
Li353 O415 1.961 1_554 S
Li354 N399 1.990 . S
Li354 O412 1.961 1_556 S
Li354 O414 1.956 . S
Li354 O415 1.970 . S
Li355 N405 1.990 . S
Li355 O413 1.961 1_556 S
Li355 O414 1.970 . S
Li355 O415 1.956 . S
C356 C358 1.348 . S
C356 C359 1.356 . S
C356 O412 1.325 . S
N357 C360 1.314 . S
N357 C361 1.279 . S
C358 C356 1.348 . S
C358 C360 1.353 . S
C358 H416 0.929 . S
C359 C356 1.356 . S
C359 C361 1.358 . S
C359 H417 0.930 . S
C360 N357 1.314 . S
C360 C358 1.353 . S
C360 H418 0.930 . S
C361 N357 1.279 . S
C361 C359 1.358 . S
C361 H419 0.930 . S
C362 C365 1.348 . S
C362 C366 1.356 . S
C362 O413 1.325 . S
C363 N364 1.279 . S
C363 C366 1.358 . S
C363 H420 0.930 . S
N364 C363 1.279 . S
N364 C367 1.314 . S
C365 C362 1.348 . S
C365 C367 1.353 . S
C365 H421 0.929 . S
C366 C362 1.356 . S
C366 C363 1.358 . S
C366 H422 0.930 . S
C367 N364 1.314 . S
C367 C365 1.353 . S
C367 H423 0.930 . S
C368 N369 1.314 . S
C368 C373 1.353 . S
C368 H374 0.930 . S
N369 Li352 1.990 . S
N369 C368 1.314 . S
N369 C371 1.279 . S
C370 C371 1.358 . S
C370 C372 1.356 . S
C370 H424 0.930 . S
C371 N369 1.279 . S
C371 C370 1.358 . S
C371 H375 0.930 . S
C372 C370 1.356 . S
C372 C373 1.348 . S
C373 C368 1.353 . S
C373 C372 1.348 . S
C373 H425 0.929 . S
H374 C368 0.930 . S
H375 C371 0.930 . S
C376 N377 1.314 . S
C376 C378 1.353 . S
C376 H382 0.930 . S
N377 Li353 1.990 . S
N377 C376 1.314 . S
N377 C380 1.279 . S
C378 C376 1.353 . S
C378 C381 1.348 . S
C378 H426 0.929 . S
C379 C380 1.358 . S
C379 C381 1.356 . S
C379 H427 0.930 . S
C380 N377 1.279 . S
C380 C379 1.358 . S
C380 H383 0.930 . S
C381 C378 1.348 . S
C381 C379 1.356 . S
H382 C376 0.930 . S
H383 C380 0.930 . S
C384 C386 1.348 . S
C384 C387 1.356 . S
C384 O414 1.325 . S
N385 C388 1.314 . S
N385 C389 1.279 . S
C386 C384 1.348 . S
C386 C388 1.353 . S
C386 H428 0.929 . S
C387 C384 1.356 . S
C387 C389 1.358 . S
C387 H429 0.930 . S
C388 N385 1.314 . S
C388 C386 1.353 . S
C388 H430 0.930 . S
C389 N385 1.279 . S
C389 C387 1.358 . S
C389 H431 0.930 . S
C390 C391 1.348 . S
C390 C392 1.356 . S
C390 O415 1.325 . S
C391 C390 1.348 . S
C391 C393 1.353 . S
C391 H432 0.929 . S
C392 C390 1.356 . S
C392 C394 1.358 . S
C392 H433 0.930 1_556 S
C393 C391 1.353 . S
C393 N395 1.314 . S
C393 H434 0.930 . S
C394 C392 1.358 . S
C394 N395 1.279 . S
C394 H435 0.930 . S
N395 C393 1.314 . S
N395 C394 1.279 . S
C396 C398 1.353 . S
C396 N399 1.314 . S
C396 H402 0.930 . S
C397 N399 1.279 . S
C397 C400 1.358 . S
C397 H403 0.930 . S
C398 C396 1.353 . S
C398 C401 1.348 . S
C398 H436 0.929 . S
N399 Li354 1.990 . S
N399 C396 1.314 . S
N399 C397 1.279 . S
C400 C397 1.358 . S
C400 C401 1.356 . S
C400 H437 0.930 . S
C401 C398 1.348 . S
C401 C400 1.356 . S
H402 C396 0.930 . S
H403 C397 0.930 . S
C404 N405 1.314 . S
C404 C406 1.353 . S
C404 H410 0.930 . S
N405 Li355 1.990 . S
N405 C404 1.314 . S
N405 C408 1.279 . S
C406 C404 1.353 . S
C406 C409 1.348 . S
C406 H438 0.929 . S
C407 C408 1.358 . S
C407 C409 1.356 . S
C407 H439 0.930 . S
C408 N405 1.279 . S
C408 C407 1.358 . S
C408 H411 0.930 . S
C409 C406 1.348 . S
C409 C407 1.356 . S
H410 C404 0.930 . S
H411 C408 0.930 . S
O412 Li352 1.956 . S
O412 Li353 1.970 . S
O412 Li354 1.961 1_554 S
O412 C356 1.325 . S
O413 Li352 1.970 . S
O413 Li353 1.956 . S
O413 Li355 1.961 1_554 S
O413 C362 1.325 . S
O414 Li352 1.961 1_556 S
O414 Li354 1.956 . S
O414 Li355 1.970 . S
O414 C384 1.325 . S
O415 Li353 1.961 1_556 S
O415 Li354 1.970 . S
O415 Li355 1.956 . S
O415 C390 1.325 . S
H416 C358 0.929 . S
H417 C359 0.930 . S
H418 C360 0.930 . S
H419 C361 0.930 . S
H420 C363 0.930 . S
H421 C365 0.929 . S
H422 C366 0.930 . S
H423 C367 0.930 . S
H424 C370 0.930 . S
H425 C373 0.929 . S
H426 C378 0.929 . S
H427 C379 0.930 . S
H428 C386 0.929 . S
H429 C387 0.930 . S
H430 C388 0.930 . S
H431 C389 0.930 . S
H432 C391 0.929 . S
H433 C392 0.930 1_554 S
H434 C393 0.930 . S
H435 C394 0.930 . S
H436 C398 0.929 . S
H437 C400 0.930 . S
H438 C406 0.929 . S
H439 C407 0.930 . S
Li440 N457 1.990 . S
Li440 O500 1.956 . S
Li440 O501 1.970 1_565 S
Li440 O502 1.961 1_554 S
Li441 N465 1.990 . S
Li441 O500 1.970 1_545 S
Li441 O501 1.956 . S
Li441 O503 1.961 . S
Li442 N487 1.990 . S
Li442 O500 1.961 1_556 S
Li442 O502 1.956 . S
Li442 O503 1.970 1_566 S
Li443 N493 1.972 1_554 S
Li443 O501 1.961 . S
Li443 O502 1.970 1_544 S
Li443 O503 1.956 . S
C444 C446 1.348 . S
C444 C447 1.356 . S
C444 O500 1.325 . S
N445 C448 1.314 . S
N445 C449 1.279 . S
C446 C444 1.348 . S
C446 C448 1.353 . S
C446 H504 0.929 . S
C447 C444 1.356 . S
C447 C449 1.358 . S
C447 H505 0.930 . S
C448 N445 1.314 . S
C448 C446 1.353 . S
C448 H506 0.930 . S
C449 N445 1.279 . S
C449 C447 1.358 . S
C449 H507 0.930 . S
C450 C453 1.348 . S
C450 C454 1.356 . S
C450 O501 1.325 . S
C451 N452 1.279 . S
C451 C454 1.358 . S
C451 H508 0.930 . S
N452 C451 1.279 . S
N452 C455 1.314 . S
C453 C450 1.348 . S
C453 C455 1.353 . S
C453 H509 0.929 1_545 S
C454 C450 1.356 . S
C454 C451 1.358 . S
C454 H510 0.930 . S
C455 N452 1.314 . S
C455 C453 1.353 . S
C455 H511 0.930 . S
C456 N457 1.314 . S
C456 C461 1.353 . S
C456 H462 0.930 . S
N457 Li440 1.990 . S
N457 C456 1.314 . S
N457 C459 1.279 . S
C458 C459 1.358 . S
C458 C460 1.356 . S
C458 H512 0.930 . S
C459 N457 1.279 . S
C459 C458 1.358 . S
C459 H463 0.930 . S
C460 C458 1.356 . S
C460 C461 1.348 . S
C461 C456 1.353 . S
C461 C460 1.348 . S
C461 H513 0.929 . S
H462 C456 0.930 . S
H463 C459 0.930 . S
C464 N465 1.314 . S
C464 C466 1.353 . S
C464 H470 0.930 . S
N465 Li441 1.990 . S
N465 C464 1.314 . S
N465 C468 1.279 . S
C466 C464 1.353 . S
C466 C469 1.348 . S
C466 H514 0.929 . S
C467 C468 1.358 . S
C467 C469 1.356 . S
C467 H515 0.930 . S
C468 N465 1.279 . S
C468 C467 1.358 . S
C468 H471 0.930 . S
C469 C466 1.348 . S
C469 C467 1.356 . S
H470 C464 0.930 . S
H471 C468 0.930 . S
C472 C474 1.348 . S
C472 C475 1.356 . S
C472 O502 1.325 . S
N473 C476 1.314 . S
N473 C477 1.279 . S
C474 C472 1.348 . S
C474 C476 1.353 . S
C474 H516 0.929 1_565 S
C475 C472 1.356 . S
C475 C477 1.358 . S
C475 H517 0.930 . S
C476 N473 1.314 . S
C476 C474 1.353 . S
C476 H518 0.930 . S
C477 N473 1.279 . S
C477 C475 1.358 . S
C477 H519 0.930 . S
C478 C479 1.333 1_554 S
C478 C480 1.364 . S
C478 O503 1.330 . S
C479 C478 1.333 1_556 S
C479 C481 1.353 . S
C479 H520 0.929 . S
C480 C478 1.364 . S
C480 C482 1.358 . S
C480 H521 0.930 . S
C481 C479 1.353 . S
C481 N483 1.314 . S
C481 H522 0.930 . S
C482 C480 1.358 . S
C482 N483 1.279 1_554 S
C482 H523 0.930 . S
N483 C481 1.314 . S
N483 C482 1.279 1_556 S
C484 C486 1.353 . S
C484 N487 1.314 . S
C484 H490 0.930 . S
C485 N487 1.279 . S
C485 C488 1.358 . S
C485 H491 0.930 . S
C486 C484 1.353 . S
C486 C489 1.348 . S
C486 H524 0.929 . S
N487 Li442 1.990 . S
N487 C484 1.314 . S
N487 C485 1.279 . S
C488 C485 1.358 . S
C488 C489 1.356 . S
C488 H525 0.930 . S
C489 C486 1.348 . S
C489 C488 1.356 . S
H490 C484 0.930 . S
H491 C485 0.930 . S
C492 N493 1.303 1_554 S
C492 C494 1.353 1_554 S
C492 H498 0.930 . S
N493 Li443 1.972 1_556 S
N493 C492 1.303 1_556 S
N493 C496 1.318 . S
C494 C492 1.353 1_556 S
C494 C497 1.348 . S
C494 H526 0.929 1_556 S
C495 C496 1.358 . S
C495 C497 1.356 . S
C495 H527 0.930 . S
C496 N493 1.318 . S
C496 C495 1.358 . S
C496 H499 0.930 . S
C497 C494 1.348 . S
C497 C495 1.356 . S
H498 C492 0.930 . S
H499 C496 0.930 . S
O500 Li440 1.956 . S
O500 Li441 1.970 1_565 S
O500 Li442 1.961 1_554 S
O500 C444 1.325 . S
O501 Li440 1.970 1_545 S
O501 Li441 1.956 . S
O501 Li443 1.961 . S
O501 C450 1.325 . S
O502 Li440 1.961 1_556 S
O502 Li442 1.956 . S
O502 Li443 1.970 1_566 S
O502 C472 1.325 . S
O503 Li441 1.961 . S
O503 Li442 1.970 1_544 S
O503 Li443 1.956 . S
O503 C478 1.330 . S
H504 C446 0.929 . S
H505 C447 0.930 . S
H506 C448 0.930 . S
H507 C449 0.930 . S
H508 C451 0.930 . S
H509 C453 0.929 1_565 S
H510 C454 0.930 . S
H511 C455 0.930 . S
H512 C458 0.930 . S
H513 C461 0.929 . S
H514 C466 0.929 . S
H515 C467 0.930 . S
H516 C474 0.929 1_545 S
H517 C475 0.930 . S
H518 C476 0.930 . S
H519 C477 0.930 . S
H520 C479 0.929 . S
H521 C480 0.930 . S
H522 C481 0.930 . S
H523 C482 0.930 . S
H524 C486 0.929 . S
H525 C488 0.930 . S
H526 C494 0.929 1_554 S
H527 C495 0.930 . S
Li528 N545 1.990 . S
Li528 O588 1.956 . S
Li528 O589 1.970 . S
Li528 O590 1.961 . S
Li529 N553 1.990 . S
Li529 O588 1.970 . S
Li529 O589 1.956 . S
Li529 O591 1.961 . S
Li530 N575 1.990 . S
Li530 O588 1.961 . S
Li530 O590 1.956 . S
Li530 O591 1.970 . S
Li531 N581 1.990 . S
Li531 O589 1.961 . S
Li531 O590 1.970 . S
Li531 O591 1.956 . S
C532 C534 1.348 . S
C532 C535 1.356 . S
C532 O588 1.325 . S
N533 C536 1.314 . S
N533 C537 1.279 . S
C534 C532 1.348 . S
C534 C536 1.353 . S
C534 H592 0.929 . S
C535 C532 1.356 . S
C535 C537 1.358 . S
C535 H593 0.930 . S
C536 N533 1.314 . S
C536 C534 1.353 . S
C536 H594 0.930 . S
C537 N533 1.279 . S
C537 C535 1.358 . S
C537 H595 0.930 . S
C538 C541 1.348 . S
C538 C542 1.356 . S
C538 O589 1.325 . S
C539 N540 1.279 . S
C539 C542 1.358 . S
C539 H596 0.930 . S
N540 C539 1.279 . S
N540 C543 1.314 . S
C541 C538 1.348 . S
C541 C543 1.353 . S
C541 H597 0.929 . S
C542 C538 1.356 . S
C542 C539 1.358 . S
C542 H598 0.930 . S
C543 N540 1.314 . S
C543 C541 1.353 . S
C543 H599 0.930 . S
C544 N545 1.314 . S
C544 C549 1.353 . S
C544 H550 0.930 . S
N545 Li528 1.990 . S
N545 C544 1.314 . S
N545 C547 1.279 . S
C546 C547 1.358 . S
C546 C548 1.356 . S
C546 H600 0.930 . S
C547 N545 1.279 . S
C547 C546 1.358 . S
C547 H551 0.930 . S
C548 C546 1.356 . S
C548 C549 1.348 . S
C549 C544 1.353 . S
C549 C548 1.348 . S
C549 H601 0.929 . S
H550 C544 0.930 . S
H551 C547 0.930 . S
C552 N553 1.314 . S
C552 C554 1.353 . S
C552 H558 0.930 . S
N553 Li529 1.990 . S
N553 C552 1.314 . S
N553 C556 1.279 . S
C554 C552 1.353 . S
C554 C557 1.348 . S
C554 H602 0.929 . S
C555 C556 1.358 . S
C555 C557 1.356 . S
C555 H603 0.930 . S
C556 N553 1.279 . S
C556 C555 1.358 . S
C556 H559 0.930 . S
C557 C554 1.348 . S
C557 C555 1.356 . S
H558 C552 0.930 . S
H559 C556 0.930 . S
C560 C562 1.348 . S
C560 C563 1.356 . S
C560 O590 1.325 . S
N561 C564 1.314 . S
N561 C565 1.279 . S
C562 C560 1.348 . S
C562 C564 1.353 . S
C562 H604 0.929 . S
C563 C560 1.356 . S
C563 C565 1.358 . S
C563 H605 0.930 . S
C564 N561 1.314 . S
C564 C562 1.353 . S
C564 H606 0.930 . S
C565 N561 1.279 . S
C565 C563 1.358 . S
C565 H607 0.930 . S
C566 C567 1.348 . S
C566 C568 1.356 . S
C566 O591 1.325 . S
C567 C566 1.348 . S
C567 C569 1.353 . S
C567 H608 0.929 . S
C568 C566 1.356 . S
C568 C570 1.358 . S
C568 H609 0.930 . S
C569 C567 1.353 . S
C569 N571 1.314 . S
C569 H610 0.930 . S
C570 C568 1.358 . S
C570 N571 1.279 . S
C570 H611 0.930 . S
N571 C569 1.314 . S
N571 C570 1.279 . S
C572 C574 1.353 . S
C572 N575 1.314 . S
C572 H578 0.930 . S
C573 N575 1.279 . S
C573 C576 1.358 . S
C573 H579 0.930 . S
C574 C572 1.353 . S
C574 C577 1.348 . S
C574 H612 0.929 . S
N575 Li530 1.990 . S
N575 C572 1.314 . S
N575 C573 1.279 . S
C576 C573 1.358 . S
C576 C577 1.356 . S
C576 H613 0.930 . S
C577 C574 1.348 . S
C577 C576 1.356 . S
H578 C572 0.930 . S
H579 C573 0.930 . S
C580 N581 1.314 . S
C580 C582 1.353 . S
C580 H586 0.930 . S
N581 Li531 1.990 . S
N581 C580 1.314 . S
N581 C584 1.279 . S
C582 C580 1.353 . S
C582 C585 1.348 . S
C582 H614 0.929 . S
C583 C584 1.358 . S
C583 C585 1.356 . S
C583 H615 0.930 . S
C584 N581 1.279 . S
C584 C583 1.358 . S
C584 H587 0.930 . S
C585 C582 1.348 . S
C585 C583 1.356 . S
H586 C580 0.930 . S
H587 C584 0.930 . S
O588 Li528 1.956 . S
O588 Li529 1.970 . S
O588 Li530 1.961 . S
O588 C532 1.325 . S
O589 Li528 1.970 . S
O589 Li529 1.956 . S
O589 Li531 1.961 . S
O589 C538 1.325 . S
O590 Li528 1.961 . S
O590 Li530 1.956 . S
O590 Li531 1.970 . S
O590 C560 1.325 . S
O591 Li529 1.961 . S
O591 Li530 1.970 . S
O591 Li531 1.956 . S
O591 C566 1.325 . S
H592 C534 0.929 . S
H593 C535 0.930 . S
H594 C536 0.930 . S
H595 C537 0.930 . S
H596 C539 0.930 . S
H597 C541 0.929 . S
H598 C542 0.930 . S
H599 C543 0.930 . S
H600 C546 0.930 . S
H601 C549 0.929 . S
H602 C554 0.929 . S
H603 C555 0.930 . S
H604 C562 0.929 . S
H605 C563 0.930 . S
H606 C564 0.930 . S
H607 C565 0.930 . S
H608 C567 0.929 . S
H609 C568 0.930 . S
H610 C569 0.930 . S
H611 C570 0.930 . S
H612 C574 0.929 . S
H613 C576 0.930 . S
H614 C582 0.929 . S
H615 C583 0.930 . S
Li616 N633 1.990 . S
Li616 O676 1.956 . S
Li616 O677 1.970 . S
Li616 O678 1.961 . S
Li617 N641 1.990 . S
Li617 O676 1.970 . S
Li617 O677 1.956 . S
Li617 O679 1.961 . S
Li618 N663 1.990 1_565 S
Li618 O676 1.961 . S
Li618 O678 1.956 . S
Li618 O679 1.970 . S
Li619 N669 1.990 . S
Li619 O677 1.961 . S
Li619 O678 1.970 . S
Li619 O679 1.956 . S
C620 C622 1.348 . S
C620 C623 1.356 . S
C620 O676 1.325 . S
N621 C624 1.314 . S
N621 C625 1.279 . S
C622 C620 1.348 . S
C622 C624 1.353 . S
C622 H680 0.929 . S
C623 C620 1.356 . S
C623 C625 1.358 . S
C623 H681 0.930 . S
C624 N621 1.314 . S
C624 C622 1.353 . S
C624 H682 0.930 . S
C625 N621 1.279 . S
C625 C623 1.358 . S
C625 H683 0.930 . S
C626 C629 1.348 . S
C626 C630 1.356 . S
C626 O677 1.325 . S
C627 N628 1.279 . S
C627 C630 1.358 . S
C627 H684 0.930 . S
N628 C627 1.279 . S
N628 C631 1.314 . S
C629 C626 1.348 . S
C629 C631 1.353 . S
C629 H685 0.929 . S
C630 C626 1.356 . S
C630 C627 1.358 . S
C630 H686 0.930 . S
C631 N628 1.314 . S
C631 C629 1.353 . S
C631 H687 0.930 . S
C632 N633 1.314 . S
C632 C637 1.353 . S
C632 H638 0.930 . S
N633 Li616 1.990 . S
N633 C632 1.314 . S
N633 C635 1.279 . S
C634 C635 1.358 . S
C634 C636 1.356 . S
C634 H688 0.930 . S
C635 N633 1.279 . S
C635 C634 1.358 . S
C635 H639 0.930 . S
C636 C634 1.356 . S
C636 C637 1.348 . S
C637 C632 1.353 . S
C637 C636 1.348 . S
C637 H689 0.929 . S
H638 C632 0.930 . S
H639 C635 0.930 . S
C640 N641 1.314 . S
C640 C642 1.353 . S
C640 H646 0.930 . S
N641 Li617 1.990 . S
N641 C640 1.314 . S
N641 C644 1.279 . S
C642 C640 1.353 . S
C642 C645 1.348 . S
C642 H690 0.929 . S
C643 C644 1.358 . S
C643 C645 1.356 . S
C643 H691 0.930 . S
C644 N641 1.279 . S
C644 C643 1.358 . S
C644 H647 0.930 . S
C645 C642 1.348 . S
C645 C643 1.356 . S
H646 C640 0.930 . S
H647 C644 0.930 . S
C648 C650 1.348 . S
C648 C651 1.356 . S
C648 O678 1.325 1_545 S
N649 C652 1.314 . S
N649 C653 1.279 . S
C650 C648 1.348 . S
C650 C652 1.353 . S
C650 H692 0.929 . S
C651 C648 1.356 . S
C651 C653 1.358 . S
C651 H693 0.930 . S
C652 N649 1.314 . S
C652 C650 1.353 . S
C652 H694 0.930 . S
C653 N649 1.279 . S
C653 C651 1.358 . S
C653 H695 0.930 . S
C654 C655 1.348 1_565 S
C654 C656 1.356 . S
C654 O679 1.325 . S
C655 C654 1.348 1_545 S
C655 C657 1.353 . S
C655 H696 0.929 . S
C656 C654 1.356 . S
C656 C658 1.358 . S
C656 H697 0.930 . S
C657 C655 1.353 . S
C657 N659 1.314 1_545 S
C657 H698 0.930 . S
C658 C656 1.358 . S
C658 N659 1.279 . S
C658 H699 0.930 . S
N659 C657 1.314 1_565 S
N659 C658 1.279 . S
C660 C662 1.353 . S
C660 N663 1.314 . S
C660 H666 0.930 . S
C661 N663 1.279 . S
C661 C664 1.358 . S
C661 H667 0.930 . S
C662 C660 1.353 . S
C662 C665 1.348 . S
C662 H700 0.929 . S
N663 Li618 1.990 1_545 S
N663 C660 1.314 . S
N663 C661 1.279 . S
C664 C661 1.358 . S
C664 C665 1.356 . S
C664 H701 0.930 . S
C665 C662 1.348 . S
C665 C664 1.356 . S
H666 C660 0.930 . S
H667 C661 0.930 . S
C668 N669 1.314 . S
C668 C670 1.353 . S
C668 H674 0.930 . S
N669 Li619 1.990 . S
N669 C668 1.314 . S
N669 C672 1.279 . S
C670 C668 1.353 . S
C670 C673 1.348 . S
C670 H702 0.929 . S
C671 C672 1.358 . S
C671 C673 1.356 . S
C671 H703 0.930 . S
C672 N669 1.279 . S
C672 C671 1.358 . S
C672 H675 0.930 . S
C673 C670 1.348 . S
C673 C671 1.356 . S
H674 C668 0.930 . S
H675 C672 0.930 . S
O676 Li616 1.956 . S
O676 Li617 1.970 . S
O676 Li618 1.961 . S
O676 C620 1.325 . S
O677 Li616 1.970 . S
O677 Li617 1.956 . S
O677 Li619 1.961 . S
O677 C626 1.325 . S
O678 Li616 1.961 . S
O678 Li618 1.956 . S
O678 Li619 1.970 . S
O678 C648 1.325 1_565 S
O679 Li617 1.961 . S
O679 Li618 1.970 . S
O679 Li619 1.956 . S
O679 C654 1.325 . S
H680 C622 0.929 . S
H681 C623 0.930 . S
H682 C624 0.930 . S
H683 C625 0.930 . S
H684 C627 0.930 . S
H685 C629 0.929 . S
H686 C630 0.930 . S
H687 C631 0.930 . S
H688 C634 0.930 . S
H689 C637 0.929 . S
H690 C642 0.929 . S
H691 C643 0.930 . S
H692 C650 0.929 . S
H693 C651 0.930 . S
H694 C652 0.930 . S
H695 C653 0.930 . S
H696 C655 0.929 . S
H697 C656 0.930 . S
H698 C657 0.930 . S
H699 C658 0.930 . S
H700 C662 0.929 . S
H701 C664 0.930 . S
H702 C670 0.929 . S
H703 C671 0.930 . S
Li704 N721 1.990 . S
Li704 O764 1.956 . S
Li704 O765 1.970 . S
Li704 O766 1.961 . S
Li705 N729 1.990 . S
Li705 O764 1.970 . S
Li705 O765 1.956 . S
Li705 O767 1.961 . S
Li706 N751 1.990 1_455 S
Li706 O764 1.961 . S
Li706 O766 1.956 . S
Li706 O767 1.970 . S
Li707 N757 1.990 . S
Li707 O765 1.961 . S
Li707 O766 1.970 . S
Li707 O767 1.956 . S
C708 C710 1.348 . S
C708 C711 1.356 . S
C708 O764 1.325 . S
N709 C712 1.314 . S
N709 C713 1.279 . S
C710 C708 1.348 . S
C710 C712 1.353 . S
C710 H768 0.929 . S
C711 C708 1.356 . S
C711 C713 1.358 . S
C711 H769 0.930 . S
C712 N709 1.314 . S
C712 C710 1.353 . S
C712 H770 0.930 . S
C713 N709 1.279 . S
C713 C711 1.358 . S
C713 H771 0.930 . S
C714 C717 1.348 . S
C714 C718 1.356 . S
C714 O765 1.325 . S
C715 N716 1.279 . S
C715 C718 1.358 . S
C715 H772 0.930 . S
N716 C715 1.279 . S
N716 C719 1.314 . S
C717 C714 1.348 . S
C717 C719 1.353 . S
C717 H773 0.929 . S
C718 C714 1.356 . S
C718 C715 1.358 . S
C718 H774 0.930 . S
C719 N716 1.314 . S
C719 C717 1.353 . S
C719 H775 0.930 . S
C720 N721 1.314 . S
C720 C725 1.353 . S
C720 H726 0.930 . S
N721 Li704 1.990 . S
N721 C720 1.314 . S
N721 C723 1.279 . S
C722 C723 1.358 . S
C722 C724 1.356 . S
C722 H776 0.930 . S
C723 N721 1.279 . S
C723 C722 1.358 . S
C723 H727 0.930 . S
C724 C722 1.356 . S
C724 C725 1.348 . S
C725 C720 1.353 . S
C725 C724 1.348 . S
C725 H777 0.929 . S
H726 C720 0.930 . S
H727 C723 0.930 . S
C728 N729 1.314 . S
C728 C730 1.353 . S
C728 H734 0.930 . S
N729 Li705 1.990 . S
N729 C728 1.314 . S
N729 C732 1.279 . S
C730 C728 1.353 . S
C730 C733 1.348 . S
C730 H778 0.929 . S
C731 C732 1.358 . S
C731 C733 1.356 . S
C731 H779 0.930 . S
C732 N729 1.279 . S
C732 C731 1.358 . S
C732 H735 0.930 . S
C733 C730 1.348 . S
C733 C731 1.356 . S
H734 C728 0.930 . S
H735 C732 0.930 . S
C736 C738 1.328 1_455 S
C736 C739 1.359 1_455 S
C736 O766 1.339 . S
N737 C740 1.314 . S
N737 C741 1.279 . S
C738 C736 1.328 1_655 S
C738 C740 1.353 . S
C738 H780 0.929 . S
C739 C736 1.359 1_655 S
C739 C741 1.358 . S
C739 H781 0.930 . S
C740 N737 1.314 . S
C740 C738 1.353 . S
C740 H782 0.930 . S
C741 N737 1.279 . S
C741 C739 1.358 . S
C741 H783 0.930 . S
C742 C743 1.348 . S
C742 C744 1.356 . S
C742 O767 1.325 . S
C743 C742 1.348 . S
C743 C745 1.353 1_455 S
C743 H784 0.929 1_455 S
C744 C742 1.356 . S
C744 C746 1.358 . S
C744 H785 0.930 . S
C745 C743 1.353 1_655 S
C745 N747 1.314 1_655 S
C745 H786 0.930 . S
C746 C744 1.358 . S
C746 N747 1.279 . S
C746 H787 0.930 . S
N747 C745 1.314 1_455 S
N747 C746 1.279 . S
C748 C750 1.353 . S
C748 N751 1.314 . S
C748 H754 0.930 . S
C749 N751 1.279 . S
C749 C752 1.358 . S
C749 H755 0.930 . S
C750 C748 1.353 . S
C750 C753 1.348 . S
C750 H788 0.929 . S
N751 Li706 1.990 1_655 S
N751 C748 1.314 . S
N751 C749 1.279 . S
C752 C749 1.358 . S
C752 C753 1.356 . S
C752 H789 0.930 . S
C753 C750 1.348 . S
C753 C752 1.356 . S
H754 C748 0.930 . S
H755 C749 0.930 . S
C756 N757 1.314 . S
C756 C758 1.353 . S
C756 H762 0.930 . S
N757 Li707 1.990 . S
N757 C756 1.314 . S
N757 C760 1.279 . S
C758 C756 1.353 . S
C758 C761 1.348 . S
C758 H790 0.929 . S
C759 C760 1.358 . S
C759 C761 1.356 . S
C759 H791 0.930 . S
C760 N757 1.279 . S
C760 C759 1.358 . S
C760 H763 0.930 . S
C761 C758 1.348 . S
C761 C759 1.356 . S
H762 C756 0.930 . S
H763 C760 0.930 . S
O764 Li704 1.956 . S
O764 Li705 1.970 . S
O764 Li706 1.961 . S
O764 C708 1.325 . S
O765 Li704 1.970 . S
O765 Li705 1.956 . S
O765 Li707 1.961 . S
O765 C714 1.325 . S
O766 Li704 1.961 . S
O766 Li706 1.956 . S
O766 Li707 1.970 . S
O766 C736 1.339 . S
O767 Li705 1.961 . S
O767 Li706 1.970 . S
O767 Li707 1.956 . S
O767 C742 1.325 . S
H768 C710 0.929 . S
H769 C711 0.930 . S
H770 C712 0.930 . S
H771 C713 0.930 . S
H772 C715 0.930 . S
H773 C717 0.929 . S
H774 C718 0.930 . S
H775 C719 0.930 . S
H776 C722 0.930 . S
H777 C725 0.929 . S
H778 C730 0.929 . S
H779 C731 0.930 . S
H780 C738 0.929 . S
H781 C739 0.930 . S
H782 C740 0.930 . S
H783 C741 0.930 . S
H784 C743 0.929 1_655 S
H785 C744 0.930 . S
H786 C745 0.930 . S
H787 C746 0.930 . S
H788 C750 0.929 . S
H789 C752 0.930 . S
H790 C758 0.929 . S
H791 C759 0.930 . S
Li792 N809 1.990 1_565 S
Li792 O852 1.956 . S
Li792 O853 1.970 . S
Li792 O854 1.961 . S
Li793 N817 1.990 . S
Li793 O852 1.970 . S
Li793 O853 1.956 . S
Li793 O855 1.961 . S
Li794 N839 1.990 . S
Li794 O852 1.961 . S
Li794 O854 1.956 . S
Li794 O855 1.970 . S
Li795 N845 1.990 . S
Li795 O853 1.961 . S
Li795 O854 1.970 . S
Li795 O855 1.956 . S
C796 C798 1.348 . S
C796 C799 1.356 . S
C796 O852 1.325 . S
N797 C800 1.314 . S
N797 C801 1.279 . S
C798 C796 1.348 . S
C798 C800 1.353 . S
C798 H856 0.929 . S
C799 C796 1.356 . S
C799 C801 1.358 . S
C799 H857 0.930 . S
C800 N797 1.314 . S
C800 C798 1.353 . S
C800 H858 0.930 . S
C801 N797 1.279 . S
C801 C799 1.358 . S
C801 H859 0.930 . S
C802 C805 1.348 . S
C802 C806 1.356 . S
C802 O853 1.325 . S
C803 N804 1.279 . S
C803 C806 1.358 . S
C803 H860 0.930 . S
N804 C803 1.279 . S
N804 C807 1.314 1_565 S
C805 C802 1.348 . S
C805 C807 1.353 1_565 S
C805 H861 0.929 1_565 S
C806 C802 1.356 . S
C806 C803 1.358 . S
C806 H862 0.930 . S
C807 N804 1.314 1_545 S
C807 C805 1.353 1_545 S
C807 H863 0.930 . S
C808 N809 1.314 . S
C808 C813 1.353 . S
C808 H814 0.930 . S
N809 Li792 1.990 1_545 S
N809 C808 1.314 . S
N809 C811 1.279 . S
C810 C811 1.358 . S
C810 C812 1.356 . S
C810 H864 0.930 . S
C811 N809 1.279 . S
C811 C810 1.358 . S
C811 H815 0.930 . S
C812 C810 1.356 . S
C812 C813 1.348 . S
C813 C808 1.353 . S
C813 C812 1.348 . S
C813 H865 0.929 . S
H814 C808 0.930 . S
H815 C811 0.930 . S
C816 N817 1.314 . S
C816 C818 1.353 . S
C816 H822 0.930 . S
N817 Li793 1.990 . S
N817 C816 1.314 . S
N817 C820 1.279 . S
C818 C816 1.353 . S
C818 C821 1.348 . S
C818 H866 0.929 . S
C819 C820 1.358 . S
C819 C821 1.356 . S
C819 H867 0.930 . S
C820 N817 1.279 . S
C820 C819 1.358 . S
C820 H823 0.930 . S
C821 C818 1.348 . S
C821 C819 1.356 . S
H822 C816 0.930 . S
H823 C820 0.930 . S
C824 C826 1.348 . S
C824 C827 1.356 . S
C824 O854 1.325 1_545 S
N825 C828 1.314 . S
N825 C829 1.279 . S
C826 C824 1.348 . S
C826 C828 1.353 . S
C826 H868 0.929 1_545 S
C827 C824 1.356 . S
C827 C829 1.358 . S
C827 H869 0.930 . S
C828 N825 1.314 . S
C828 C826 1.353 . S
C828 H870 0.930 . S
C829 N825 1.279 . S
C829 C827 1.358 . S
C829 H871 0.930 . S
C830 C831 1.348 . S
C830 C832 1.356 . S
C830 O855 1.325 . S
C831 C830 1.348 . S
C831 C833 1.353 . S
C831 H872 0.929 . S
C832 C830 1.356 . S
C832 C834 1.358 . S
C832 H873 0.930 . S
C833 C831 1.353 . S
C833 N835 1.314 . S
C833 H874 0.930 . S
C834 C832 1.358 . S
C834 N835 1.279 . S
C834 H875 0.930 . S
N835 C833 1.314 . S
N835 C834 1.279 . S
C836 C838 1.353 . S
C836 N839 1.314 . S
C836 H842 0.930 . S
C837 N839 1.279 . S
C837 C840 1.358 . S
C837 H843 0.930 . S
C838 C836 1.353 . S
C838 C841 1.348 . S
C838 H876 0.929 . S
N839 Li794 1.990 . S
N839 C836 1.314 . S
N839 C837 1.279 . S
C840 C837 1.358 . S
C840 C841 1.356 . S
C840 H877 0.930 . S
C841 C838 1.348 . S
C841 C840 1.356 . S
H842 C836 0.930 . S
H843 C837 0.930 . S
C844 N845 1.314 . S
C844 C846 1.353 . S
C844 H850 0.930 . S
N845 Li795 1.990 . S
N845 C844 1.314 . S
N845 C848 1.279 . S
C846 C844 1.353 . S
C846 C849 1.348 . S
C846 H878 0.855 1_565 S
C847 C848 1.358 . S
C847 C849 1.356 . S
C847 H879 0.930 . S
C848 N845 1.279 . S
C848 C847 1.358 . S
C848 H851 0.930 . S
C849 C846 1.348 . S
C849 C847 1.356 . S
H850 C844 0.930 . S
H851 C848 0.930 . S
O852 Li792 1.956 . S
O852 Li793 1.970 . S
O852 Li794 1.961 . S
O852 C796 1.325 . S
O853 Li792 1.970 . S
O853 Li793 1.956 . S
O853 Li795 1.961 . S
O853 C802 1.325 . S
O854 Li792 1.961 . S
O854 Li794 1.956 . S
O854 Li795 1.970 . S
O854 C824 1.325 1_565 S
O855 Li793 1.961 . S
O855 Li794 1.970 . S
O855 Li795 1.956 . S
O855 C830 1.325 . S
H856 C798 0.929 . S
H857 C799 0.930 . S
H858 C800 0.930 . S
H859 C801 0.930 . S
H860 C803 0.930 . S
H861 C805 0.929 1_545 S
H862 C806 0.930 . S
H863 C807 0.930 . S
H864 C810 0.930 . S
H865 C813 0.929 . S
H866 C818 0.929 . S
H867 C819 0.930 . S
H868 C826 0.929 1_565 S
H869 C827 0.930 . S
H870 C828 0.930 . S
H871 C829 0.930 . S
H872 C831 0.929 . S
H873 C832 0.930 . S
H874 C833 0.930 . S
H875 C834 0.930 . S
H876 C838 0.929 . S
H877 C840 0.930 . S
H878 C846 0.855 1_545 S
H879 C847 0.930 . S
Li880 N897 1.990 . S
Li880 O940 1.956 . S
Li880 O941 1.970 . S
Li880 O942 1.961 . S
Li881 N905 1.990 1_455 S
Li881 O940 1.970 . S
Li881 O941 1.956 . S
Li881 O943 1.961 . S
Li882 N927 1.990 . S
Li882 O940 1.961 . S
Li882 O942 1.956 . S
Li882 O943 1.970 . S
Li883 N933 1.990 . S
Li883 O941 1.961 . S
Li883 O942 1.970 . S
Li883 O943 1.956 . S
C884 C886 1.348 . S
C884 C887 1.356 . S
C884 O940 1.325 . S
N885 C888 1.314 1_455 S
N885 C889 1.279 . S
C886 C884 1.348 . S
C886 C888 1.353 1_455 S
C886 H944 0.929 1_455 S
C887 C884 1.356 . S
C887 C889 1.358 . S
C887 H945 0.930 . S
C888 N885 1.314 1_655 S
C888 C886 1.353 1_655 S
C888 H946 0.930 . S
C889 N885 1.279 . S
C889 C887 1.358 . S
C889 H947 0.930 . S
C890 C893 1.348 . S
C890 C894 1.356 . S
C890 O941 1.325 . S
C891 N892 1.279 . S
C891 C894 1.358 . S
C891 H948 0.930 . S
N892 C891 1.279 . S
N892 C895 1.314 . S
C893 C890 1.348 . S
C893 C895 1.353 . S
C893 H949 0.929 . S
C894 C890 1.356 . S
C894 C891 1.358 . S
C894 H950 0.930 . S
C895 N892 1.314 . S
C895 C893 1.353 . S
C895 H951 0.930 . S
C896 N897 1.314 . S
C896 C901 1.353 . S
C896 H902 0.930 . S
N897 Li880 1.990 . S
N897 C896 1.314 . S
N897 C899 1.279 . S
C898 C899 1.358 . S
C898 C900 1.356 . S
C898 H952 0.930 . S
C899 N897 1.279 . S
C899 C898 1.358 . S
C899 H903 0.930 . S
C900 C898 1.356 . S
C900 C901 1.348 . S
C901 C896 1.353 . S
C901 C900 1.348 . S
C901 H953 0.929 . S
H902 C896 0.930 . S
H903 C899 0.930 . S
C904 N905 1.314 . S
C904 C906 1.353 . S
C904 H910 0.930 . S
N905 Li881 1.990 1_655 S
N905 C904 1.314 . S
N905 C908 1.279 . S
C906 C904 1.353 . S
C906 C909 1.348 . S
C906 H954 0.929 . S
C907 C908 1.358 . S
C907 C909 1.356 . S
C907 H955 0.930 . S
C908 N905 1.279 . S
C908 C907 1.358 . S
C908 H911 0.930 . S
C909 C906 1.348 . S
C909 C907 1.356 . S
H910 C904 0.930 . S
H911 C908 0.930 . S
C912 C914 1.348 . S
C912 C915 1.356 . S
C912 O942 1.325 . S
N913 C916 1.314 . S
N913 C917 1.279 . S
C914 C912 1.348 . S
C914 C916 1.353 . S
C914 H956 0.929 . S
C915 C912 1.356 . S
C915 C917 1.358 . S
C915 H957 0.930 . S
C916 N913 1.314 . S
C916 C914 1.353 . S
C916 H958 0.930 . S
C917 N913 1.279 . S
C917 C915 1.358 . S
C917 H959 0.930 . S
C918 C919 1.348 . S
C918 C920 1.356 . S
C918 O943 1.325 1_655 S
C919 C918 1.348 . S
C919 C921 1.353 . S
C919 H960 0.929 1_655 S
C920 C918 1.356 . S
C920 C922 1.358 . S
C920 H961 0.930 . S
C921 C919 1.353 . S
C921 N923 1.314 . S
C921 H962 0.930 . S
C922 C920 1.358 . S
C922 N923 1.279 . S
C922 H963 0.930 . S
N923 C921 1.314 . S
N923 C922 1.279 . S
C924 C926 1.353 . S
C924 N927 1.314 . S
C924 H930 1.004 . S
C925 N927 1.279 . S
C925 C928 1.358 . S
C925 H931 0.930 . S
C926 C924 1.353 . S
C926 C929 1.348 . S
C926 H964 0.929 1_455 S
N927 Li882 1.990 . S
N927 C924 1.314 . S
N927 C925 1.279 . S
C928 C925 1.358 . S
C928 C929 1.356 . S
C928 H965 0.930 . S
C929 C926 1.348 . S
C929 C928 1.356 . S
H930 C924 1.004 . S
H931 C925 0.930 . S
C932 N933 1.314 . S
C932 C934 1.353 . S
C932 H938 0.930 . S
N933 Li883 1.990 . S
N933 C932 1.314 . S
N933 C936 1.279 . S
C934 C932 1.353 . S
C934 C937 1.348 . S
C934 H966 0.929 . S
C935 C936 1.358 . S
C935 C937 1.356 . S
C935 H967 0.930 . S
C936 N933 1.279 . S
C936 C935 1.358 . S
C936 H939 0.930 . S
C937 C934 1.348 . S
C937 C935 1.356 . S
H938 C932 0.930 . S
H939 C936 0.930 . S
O940 Li880 1.956 . S
O940 Li881 1.970 . S
O940 Li882 1.961 . S
O940 C884 1.325 . S
O941 Li880 1.970 . S
O941 Li881 1.956 . S
O941 Li883 1.961 . S
O941 C890 1.325 . S
O942 Li880 1.961 . S
O942 Li882 1.956 . S
O942 Li883 1.970 . S
O942 C912 1.325 . S
O943 Li881 1.961 . S
O943 Li882 1.970 . S
O943 Li883 1.956 . S
O943 C918 1.325 1_455 S
H944 C886 0.929 1_655 S
H945 C887 0.930 . S
H946 C888 0.930 . S
H947 C889 0.930 . S
H948 C891 0.930 . S
H949 C893 0.929 . S
H950 C894 0.930 . S
H951 C895 0.930 . S
H952 C898 0.930 . S
H953 C901 0.929 . S
H954 C906 0.929 . S
H955 C907 0.930 . S
H956 C914 0.929 . S
H957 C915 0.930 . S
H958 C916 0.930 . S
H959 C917 0.930 . S
H960 C919 0.929 1_455 S
H961 C920 0.930 . S
H962 C921 0.930 . S
H963 C922 0.930 . S
H964 C926 0.929 1_655 S
H965 C928 0.930 . S
H966 C934 0.929 . S
H967 C935 0.930 . S
Li968 N985 1.990 . S
Li968 O1028 1.956 . S
Li968 O1029 1.970 . S
Li968 O1030 1.961 . S
Li969 N993 1.990 . S
Li969 O1028 1.970 . S
Li969 O1029 1.956 . S
Li969 O1031 1.961 . S
Li970 N1015 1.990 . S
Li970 O1028 1.961 . S
Li970 O1030 1.956 . S
Li970 O1031 1.970 . S
Li971 N1021 1.990 . S
Li971 O1029 1.961 . S
Li971 O1030 1.970 . S
Li971 O1031 1.956 . S
C972 C974 1.348 . S
C972 C975 1.356 . S
C972 O1028 1.325 . S
N973 C976 1.314 . S
N973 C977 1.279 . S
C974 C972 1.348 . S
C974 C976 1.353 . S
C974 H1032 0.929 . S
C975 C972 1.356 . S
C975 C977 1.358 . S
C975 H1033 0.930 . S
C976 N973 1.314 . S
C976 C974 1.353 . S
C976 H1034 0.930 . S
C977 N973 1.279 . S
C977 C975 1.358 . S
C977 H1035 0.930 . S
C978 C981 1.348 . S
C978 C982 1.356 . S
C978 O1029 1.325 . S
C979 N980 1.279 . S
C979 C982 1.358 . S
C979 H1036 0.930 . S
N980 C979 1.279 . S
N980 C983 1.314 . S
C981 C978 1.348 . S
C981 C983 1.353 . S
C981 H1037 0.929 . S
C982 C978 1.356 . S
C982 C979 1.358 . S
C982 H1038 0.930 . S
C983 N980 1.314 . S
C983 C981 1.353 . S
C983 H1039 0.930 . S
C984 N985 1.314 . S
C984 C989 1.353 . S
C984 H990 0.930 . S
N985 Li968 1.990 . S
N985 C984 1.314 . S
N985 C987 1.279 . S
C986 C987 1.358 . S
C986 C988 1.356 . S
C986 H1040 0.930 . S
C987 N985 1.279 . S
C987 C986 1.358 . S
C987 H991 0.930 . S
C988 C986 1.356 . S
C988 C989 1.348 . S
C989 C984 1.353 . S
C989 C988 1.348 . S
C989 H1041 0.929 . S
H990 C984 0.930 . S
H991 C987 0.930 . S
C992 N993 1.314 . S
C992 C994 1.353 . S
C992 H998 0.930 . S
N993 Li969 1.990 . S
N993 C992 1.314 . S
N993 C996 1.279 . S
C994 C992 1.353 . S
C994 C997 1.348 . S
C994 H1042 0.929 . S
C995 C996 1.358 . S
C995 C997 1.356 . S
C995 H1043 0.930 . S
C996 N993 1.279 . S
C996 C995 1.358 . S
C996 H999 0.930 . S
C997 C994 1.348 . S
C997 C995 1.356 . S
H998 C992 0.930 . S
H999 C996 0.930 . S
C1000 C1002 1.348 . S
C1000 C1003 1.356 . S
C1000 O1030 1.325 . S
N1001 C1004 1.314 . S
N1001 C1005 1.279 . S
C1002 C1000 1.348 . S
C1002 C1004 1.353 . S
C1002 H1044 0.929 . S
C1003 C1000 1.356 . S
C1003 C1005 1.358 . S
C1003 H1045 0.930 . S
C1004 N1001 1.314 . S
C1004 C1002 1.353 . S
C1004 H1046 0.930 . S
C1005 N1001 1.279 . S
C1005 C1003 1.358 . S
C1005 H1047 0.930 . S
C1006 C1007 1.348 . S
C1006 C1008 1.356 . S
C1006 O1031 1.325 . S
C1007 C1006 1.348 . S
C1007 C1009 1.353 . S
C1007 H1048 0.929 . S
C1008 C1006 1.356 . S
C1008 C1010 1.358 . S
C1008 H1049 0.930 . S
C1009 C1007 1.353 . S
C1009 N1011 1.314 . S
C1009 H1050 0.930 . S
C1010 C1008 1.358 . S
C1010 N1011 1.279 . S
C1010 H1051 0.930 . S
N1011 C1009 1.314 . S
N1011 C1010 1.279 . S
C1012 C1014 1.353 . S
C1012 N1015 1.314 . S
C1012 H1018 0.930 . S
C1013 N1015 1.279 . S
C1013 C1016 1.358 . S
C1013 H1019 0.930 . S
C1014 C1012 1.353 . S
C1014 C1017 1.348 . S
C1014 H1052 0.929 . S
N1015 Li970 1.990 . S
N1015 C1012 1.314 . S
N1015 C1013 1.279 . S
C1016 C1013 1.358 . S
C1016 C1017 1.356 . S
C1016 H1053 0.930 . S
C1017 C1014 1.348 . S
C1017 C1016 1.356 . S
H1018 C1012 0.930 . S
H1019 C1013 0.930 . S
C1020 N1021 1.314 . S
C1020 C1022 1.353 . S
C1020 H1026 0.930 . S
N1021 Li971 1.990 . S
N1021 C1020 1.314 . S
N1021 C1024 1.279 . S
C1022 C1020 1.353 . S
C1022 C1025 1.348 . S
C1022 H1054 0.929 . S
C1023 C1024 1.358 . S
C1023 C1025 1.356 . S
C1023 H1055 0.930 . S
C1024 N1021 1.279 . S
C1024 C1023 1.358 . S
C1024 H1027 0.930 . S
C1025 C1022 1.348 . S
C1025 C1023 1.356 . S
H1026 C1020 0.930 . S
H1027 C1024 0.930 . S
O1028 Li968 1.956 . S
O1028 Li969 1.970 . S
O1028 Li970 1.961 . S
O1028 C972 1.325 . S
O1029 Li968 1.970 . S
O1029 Li969 1.956 . S
O1029 Li971 1.961 . S
O1029 C978 1.325 . S
O1030 Li968 1.961 . S
O1030 Li970 1.956 . S
O1030 Li971 1.970 . S
O1030 C1000 1.325 . S
O1031 Li969 1.961 . S
O1031 Li970 1.970 . S
O1031 Li971 1.956 . S
O1031 C1006 1.325 . S
H1032 C974 0.929 . S
H1033 C975 0.930 . S
H1034 C976 0.930 . S
H1035 C977 0.930 . S
H1036 C979 0.930 . S
H1037 C981 0.929 . S
H1038 C982 0.930 . S
H1039 C983 0.930 . S
H1040 C986 0.930 . S
H1041 C989 0.929 . S
H1042 C994 0.929 . S
H1043 C995 0.930 . S
H1044 C1002 0.929 . S
H1045 C1003 0.930 . S
H1046 C1004 0.930 . S
H1047 C1005 0.930 . S
H1048 C1007 0.929 . S
H1049 C1008 0.930 . S
H1050 C1009 0.930 . S
H1051 C1010 0.930 . S
H1052 C1014 0.929 . S
H1053 C1016 0.930 . S
H1054 C1022 0.929 . S
H1055 C1023 0.930 . S
Li1056 N1073 1.990 1_545 S
Li1056 O1116 1.956 . S
Li1056 O1117 1.970 . S
Li1056 O1118 1.961 . S
Li1057 N1081 1.990 . S
Li1057 O1116 1.970 . S
Li1057 O1117 1.956 . S
Li1057 O1119 1.961 . S
Li1058 N1103 1.990 . S
Li1058 O1116 1.961 . S
Li1058 O1118 1.956 . S
Li1058 O1119 1.970 . S
Li1059 N1109 1.990 . S
Li1059 O1117 1.961 . S
Li1059 O1118 1.970 . S
Li1059 O1119 1.956 . S
C1060 C1062 1.348 . S
C1060 C1063 1.356 . S
C1060 O1116 1.325 1_565 S
N1061 C1064 1.314 . S
N1061 C1065 1.279 . S
C1062 C1060 1.348 . S
C1062 C1064 1.353 . S
C1062 H1120 0.929 . S
C1063 C1060 1.356 . S
C1063 C1065 1.358 . S
C1063 H1121 0.930 . S
C1064 N1061 1.314 . S
C1064 C1062 1.353 . S
C1064 H1122 0.930 . S
C1065 N1061 1.279 . S
C1065 C1063 1.358 . S
C1065 H1123 0.930 . S
C1066 C1069 1.348 1_545 S
C1066 C1070 1.356 . S
C1066 O1117 1.325 . S
C1067 N1068 1.279 . S
C1067 C1070 1.358 . S
C1067 H1124 0.930 . S
N1068 C1067 1.279 . S
N1068 C1071 1.314 1_545 S
C1069 C1066 1.348 1_565 S
C1069 C1071 1.353 . S
C1069 H1125 0.929 . S
C1070 C1066 1.356 . S
C1070 C1067 1.358 . S
C1070 H1126 0.930 . S
C1071 N1068 1.314 1_565 S
C1071 C1069 1.353 . S
C1071 H1127 0.930 . S
C1072 N1073 1.314 . S
C1072 C1077 1.353 . S
C1072 H1078 0.930 . S
N1073 Li1056 1.990 1_565 S
N1073 C1072 1.314 . S
N1073 C1075 1.279 . S
C1074 C1075 1.358 . S
C1074 C1076 1.356 . S
C1074 H1128 0.930 . S
C1075 N1073 1.279 . S
C1075 C1074 1.358 . S
C1075 H1079 0.930 . S
C1076 C1074 1.356 . S
C1076 C1077 1.348 . S
C1077 C1072 1.353 . S
C1077 C1076 1.348 . S
C1077 H1129 0.929 . S
H1078 C1072 0.930 . S
H1079 C1075 0.930 . S
C1080 N1081 1.314 . S
C1080 C1082 1.353 . S
C1080 H1086 0.930 . S
N1081 Li1057 1.990 . S
N1081 C1080 1.314 . S
N1081 C1084 1.279 . S
C1082 C1080 1.353 . S
C1082 C1085 1.348 . S
C1082 H1130 0.929 . S
C1083 C1084 1.358 . S
C1083 C1085 1.356 . S
C1083 H1131 0.930 . S
C1084 N1081 1.279 . S
C1084 C1083 1.358 . S
C1084 H1087 0.930 . S
C1085 C1082 1.348 . S
C1085 C1083 1.356 . S
H1086 C1080 0.930 . S
H1087 C1084 0.930 . S
C1088 C1090 1.348 . S
C1088 C1091 1.356 . S
C1088 O1118 1.325 . S
N1089 C1092 1.314 . S
N1089 C1093 1.279 . S
C1090 C1088 1.348 . S
C1090 C1092 1.353 . S
C1090 H1132 0.929 . S
C1091 C1088 1.356 . S
C1091 C1093 1.358 . S
C1091 H1133 0.930 . S
C1092 N1089 1.314 . S
C1092 C1090 1.353 . S
C1092 H1134 0.930 . S
C1093 N1089 1.279 . S
C1093 C1091 1.358 . S
C1093 H1135 0.930 . S
C1094 C1095 1.348 . S
C1094 C1096 1.356 . S
C1094 O1119 1.325 . S
C1095 C1094 1.348 . S
C1095 C1097 1.353 . S
C1095 H1136 0.929 . S
C1096 C1094 1.356 . S
C1096 C1098 1.358 . S
C1096 H1137 0.930 . S
C1097 C1095 1.353 . S
C1097 N1099 1.314 . S
C1097 H1138 0.930 . S
C1098 C1096 1.358 . S
C1098 N1099 1.279 . S
C1098 H1139 0.930 . S
N1099 C1097 1.314 . S
N1099 C1098 1.279 . S
C1100 C1102 1.353 . S
C1100 N1103 1.314 . S
C1100 H1106 0.930 . S
C1101 N1103 1.279 . S
C1101 C1104 1.358 . S
C1101 H1107 0.930 . S
C1102 C1100 1.353 . S
C1102 C1105 1.348 . S
C1102 H1140 0.929 . S
N1103 Li1058 1.990 . S
N1103 C1100 1.314 . S
N1103 C1101 1.279 . S
C1104 C1101 1.358 . S
C1104 C1105 1.356 . S
C1104 H1141 0.930 . S
C1105 C1102 1.348 . S
C1105 C1104 1.356 . S
H1106 C1100 0.930 . S
H1107 C1101 0.930 . S
C1108 N1109 1.314 . S
C1108 C1110 1.353 . S
C1108 H1114 0.930 . S
N1109 Li1059 1.990 . S
N1109 C1108 1.314 . S
N1109 C1112 1.279 . S
C1110 C1108 1.353 . S
C1110 C1113 1.348 . S
C1110 H1142 0.929 . S
C1111 C1112 1.358 . S
C1111 C1113 1.356 . S
C1111 H1143 0.930 . S
C1112 N1109 1.279 . S
C1112 C1111 1.358 . S
C1112 H1115 0.930 . S
C1113 C1110 1.348 . S
C1113 C1111 1.356 . S
H1114 C1108 0.930 . S
H1115 C1112 0.930 . S
O1116 Li1056 1.956 . S
O1116 Li1057 1.970 . S
O1116 Li1058 1.961 . S
O1116 C1060 1.325 1_545 S
O1117 Li1056 1.970 . S
O1117 Li1057 1.956 . S
O1117 Li1059 1.961 . S
O1117 C1066 1.325 . S
O1118 Li1056 1.961 . S
O1118 Li1058 1.956 . S
O1118 Li1059 1.970 . S
O1118 C1088 1.325 . S
O1119 Li1057 1.961 . S
O1119 Li1058 1.970 . S
O1119 Li1059 1.956 . S
O1119 C1094 1.325 . S
H1120 C1062 0.929 . S
H1121 C1063 0.930 . S
H1122 C1064 0.930 . S
H1123 C1065 0.930 . S
H1124 C1067 0.930 . S
H1125 C1069 0.929 . S
H1126 C1070 0.930 . S
H1127 C1071 0.930 . S
H1128 C1074 0.930 . S
H1129 C1077 0.929 . S
H1130 C1082 0.929 . S
H1131 C1083 0.930 . S
H1132 C1090 0.929 . S
H1133 C1091 0.930 . S
H1134 C1092 0.930 . S
H1135 C1093 0.930 . S
H1136 C1095 0.929 . S
H1137 C1096 0.930 . S
H1138 C1097 0.930 . S
H1139 C1098 0.930 . S
H1140 C1102 0.929 . S
H1141 C1104 0.930 . S
H1142 C1110 0.929 . S
H1143 C1111 0.930 . S
Li1144 N1161 1.990 1_655 S
Li1144 O1204 1.956 . S
Li1144 O1205 1.970 . S
Li1144 O1206 1.961 . S
Li1145 N1169 1.990 . S
Li1145 O1204 1.970 . S
Li1145 O1205 1.956 . S
Li1145 O1207 1.961 . S
Li1146 N1191 1.990 . S
Li1146 O1204 1.961 . S
Li1146 O1206 1.956 . S
Li1146 O1207 1.970 . S
Li1147 N1197 1.990 . S
Li1147 O1205 1.961 . S
Li1147 O1206 1.970 . S
Li1147 O1207 1.956 . S
C1148 C1150 1.348 . S
C1148 C1151 1.356 . S
C1148 O1204 1.325 1_455 S
N1149 C1152 1.314 . S
N1149 C1153 1.279 . S
C1150 C1148 1.348 . S
C1150 C1152 1.353 . S
C1150 H1208 0.929 . S
C1151 C1148 1.356 . S
C1151 C1153 1.358 . S
C1151 H1209 0.930 . S
C1152 N1149 1.314 . S
C1152 C1150 1.353 . S
C1152 H1210 0.930 . S
C1153 N1149 1.279 . S
C1153 C1151 1.358 . S
C1153 H1211 0.930 . S
C1154 C1157 1.348 1_655 S
C1154 C1158 1.356 . S
C1154 O1205 1.325 . S
C1155 N1156 1.279 . S
C1155 C1158 1.358 . S
C1155 H1212 0.930 . S
N1156 C1155 1.279 . S
N1156 C1159 1.314 1_655 S
C1157 C1154 1.348 1_455 S
C1157 C1159 1.353 . S
C1157 H1213 0.929 . S
C1158 C1154 1.356 . S
C1158 C1155 1.358 . S
C1158 H1214 0.930 . S
C1159 N1156 1.314 1_455 S
C1159 C1157 1.353 . S
C1159 H1215 0.930 . S
C1160 N1161 1.314 . S
C1160 C1165 1.353 . S
C1160 H1166 0.930 . S
N1161 Li1144 1.990 1_455 S
N1161 C1160 1.314 . S
N1161 C1163 1.279 . S
C1162 C1163 1.358 . S
C1162 C1164 1.356 . S
C1162 H1216 0.930 . S
C1163 N1161 1.279 . S
C1163 C1162 1.358 . S
C1163 H1167 0.930 . S
C1164 C1162 1.356 . S
C1164 C1165 1.348 . S
C1165 C1160 1.353 . S
C1165 C1164 1.348 . S
C1165 H1217 0.929 . S
H1166 C1160 0.930 . S
H1167 C1163 0.930 . S
C1168 N1169 1.314 . S
C1168 C1170 1.353 . S
C1168 H1174 0.930 . S
N1169 Li1145 1.990 . S
N1169 C1168 1.314 . S
N1169 C1172 1.279 . S
C1170 C1168 1.353 . S
C1170 C1173 1.348 . S
C1170 H1218 0.929 . S
C1171 C1172 1.358 . S
C1171 C1173 1.356 . S
C1171 H1219 0.930 . S
C1172 N1169 1.279 . S
C1172 C1171 1.358 . S
C1172 H1175 0.930 . S
C1173 C1170 1.348 . S
C1173 C1171 1.356 . S
H1174 C1168 0.930 . S
H1175 C1172 0.930 . S
C1176 C1178 1.348 . S
C1176 C1179 1.356 . S
C1176 O1206 1.325 . S
N1177 C1180 1.314 . S
N1177 C1181 1.279 . S
C1178 C1176 1.348 . S
C1178 C1180 1.353 . S
C1178 H1220 0.929 . S
C1179 C1176 1.356 . S
C1179 C1181 1.358 . S
C1179 H1221 0.930 . S
C1180 N1177 1.314 . S
C1180 C1178 1.353 . S
C1180 H1222 0.930 . S
C1181 N1177 1.279 . S
C1181 C1179 1.358 . S
C1181 H1223 0.930 . S
C1182 C1183 1.348 . S
C1182 C1184 1.356 . S
C1182 O1207 1.325 . S
C1183 C1182 1.348 . S
C1183 C1185 1.353 . S
C1183 H1224 0.929 . S
C1184 C1182 1.356 . S
C1184 C1186 1.358 . S
C1184 H1225 0.930 . S
C1185 C1183 1.353 . S
C1185 N1187 1.314 . S
C1185 H1226 0.930 . S
C1186 C1184 1.358 . S
C1186 N1187 1.279 . S
C1186 H1227 0.930 . S
N1187 C1185 1.314 . S
N1187 C1186 1.279 . S
C1188 C1190 1.353 . S
C1188 N1191 1.314 . S
C1188 H1194 0.930 . S
C1189 N1191 1.279 . S
C1189 C1192 1.358 . S
C1189 H1195 0.930 . S
C1190 C1188 1.353 . S
C1190 C1193 1.348 . S
C1190 H1228 0.929 . S
N1191 Li1146 1.990 . S
N1191 C1188 1.314 . S
N1191 C1189 1.279 . S
C1192 C1189 1.358 . S
C1192 C1193 1.356 . S
C1192 H1229 0.930 . S
C1193 C1190 1.348 . S
C1193 C1192 1.356 . S
H1194 C1188 0.930 . S
H1195 C1189 0.930 . S
C1196 N1197 1.314 . S
C1196 C1198 1.353 . S
C1196 H1202 0.930 . S
N1197 Li1147 1.990 . S
N1197 C1196 1.314 . S
N1197 C1200 1.279 . S
C1198 C1196 1.353 . S
C1198 C1201 1.348 . S
C1198 H1230 0.929 . S
C1199 C1200 1.358 . S
C1199 C1201 1.356 . S
C1199 H1231 0.930 . S
C1200 N1197 1.279 . S
C1200 C1199 1.358 . S
C1200 H1203 0.930 . S
C1201 C1198 1.348 . S
C1201 C1199 1.356 . S
H1202 C1196 0.930 . S
H1203 C1200 0.930 . S
O1204 Li1144 1.956 . S
O1204 Li1145 1.970 . S
O1204 Li1146 1.961 . S
O1204 C1148 1.325 1_655 S
O1205 Li1144 1.970 . S
O1205 Li1145 1.956 . S
O1205 Li1147 1.961 . S
O1205 C1154 1.325 . S
O1206 Li1144 1.961 . S
O1206 Li1146 1.956 . S
O1206 Li1147 1.970 . S
O1206 C1176 1.325 . S
O1207 Li1145 1.961 . S
O1207 Li1146 1.970 . S
O1207 Li1147 1.956 . S
O1207 C1182 1.325 . S
H1208 C1150 0.929 . S
H1209 C1151 0.930 . S
H1210 C1152 0.930 . S
H1211 C1153 0.930 . S
H1212 C1155 0.930 . S
H1213 C1157 0.929 . S
H1214 C1158 0.930 . S
H1215 C1159 0.930 . S
H1216 C1162 0.930 . S
H1217 C1165 0.929 . S
H1218 C1170 0.929 . S
H1219 C1171 0.930 . S
H1220 C1178 0.929 . S
H1221 C1179 0.930 . S
H1222 C1180 0.930 . S
H1223 C1181 0.930 . S
H1224 C1183 0.929 . S
H1225 C1184 0.930 . S
H1226 C1185 0.930 . S
H1227 C1186 0.930 . S
H1228 C1190 0.929 . S
H1229 C1192 0.930 . S
H1230 C1198 0.929 . S
H1231 C1199 0.930 . S
Li1232 N1249 1.990 . S
Li1232 O1292 1.956 . S
Li1232 O1293 1.970 . S
Li1232 O1294 1.961 . S
Li1233 N1257 1.990 . S
Li1233 O1292 1.970 . S
Li1233 O1293 1.956 . S
Li1233 O1295 1.961 . S
Li1234 N1279 1.990 . S
Li1234 O1292 1.961 . S
Li1234 O1294 1.956 . S
Li1234 O1295 1.970 . S
Li1235 N1285 1.990 . S
Li1235 O1293 1.961 . S
Li1235 O1294 1.970 . S
Li1235 O1295 1.956 . S
C1236 C1238 1.348 . S
C1236 C1239 1.356 . S
C1236 O1292 1.325 . S
N1237 C1240 1.314 . S
N1237 C1241 1.279 . S
C1238 C1236 1.348 . S
C1238 C1240 1.353 . S
C1238 H1296 0.929 . S
C1239 C1236 1.356 . S
C1239 C1241 1.358 . S
C1239 H1297 0.930 . S
C1240 N1237 1.314 . S
C1240 C1238 1.353 . S
C1240 H1298 0.930 . S
C1241 N1237 1.279 . S
C1241 C1239 1.358 . S
C1241 H1299 0.930 . S
C1242 C1245 1.348 . S
C1242 C1246 1.356 . S
C1242 O1293 1.325 . S
C1243 N1244 1.279 . S
C1243 C1246 1.358 . S
C1243 H1300 0.930 . S
N1244 C1243 1.279 . S
N1244 C1247 1.314 . S
C1245 C1242 1.348 . S
C1245 C1247 1.353 . S
C1245 H1301 0.929 . S
C1246 C1242 1.356 . S
C1246 C1243 1.358 . S
C1246 H1302 0.930 . S
C1247 N1244 1.314 . S
C1247 C1245 1.353 . S
C1247 H1303 0.930 . S
C1248 N1249 1.314 . S
C1248 C1253 1.353 . S
C1248 H1254 0.930 . S
N1249 Li1232 1.990 . S
N1249 C1248 1.314 . S
N1249 C1251 1.279 . S
C1250 C1251 1.358 . S
C1250 C1252 1.356 . S
C1250 H1304 0.930 . S
C1251 N1249 1.279 . S
C1251 C1250 1.358 . S
C1251 H1255 0.930 . S
C1252 C1250 1.356 . S
C1252 C1253 1.348 . S
C1253 C1248 1.353 . S
C1253 C1252 1.348 . S
C1253 H1305 0.929 . S
H1254 C1248 0.930 . S
H1255 C1251 0.930 . S
C1256 N1257 1.314 . S
C1256 C1258 1.353 . S
C1256 H1262 0.930 . S
N1257 Li1233 1.990 . S
N1257 C1256 1.314 . S
N1257 C1260 1.279 . S
C1258 C1256 1.353 . S
C1258 C1261 1.348 . S
C1258 H1306 0.929 . S
C1259 C1260 1.358 . S
C1259 C1261 1.356 . S
C1259 H1307 0.930 . S
C1260 N1257 1.279 . S
C1260 C1259 1.358 . S
C1260 H1263 0.930 . S
C1261 C1258 1.348 . S
C1261 C1259 1.356 . S
H1262 C1256 0.930 . S
H1263 C1260 0.930 . S
C1264 C1266 1.348 . S
C1264 C1267 1.356 . S
C1264 O1294 1.325 . S
N1265 C1268 1.314 . S
N1265 C1269 1.279 . S
C1266 C1264 1.348 . S
C1266 C1268 1.353 . S
C1266 H1308 0.929 . S
C1267 C1264 1.356 . S
C1267 C1269 1.358 . S
C1267 H1309 0.930 . S
C1268 N1265 1.314 . S
C1268 C1266 1.353 . S
C1268 H1310 0.930 . S
C1269 N1265 1.279 . S
C1269 C1267 1.358 . S
C1269 H1311 0.930 . S
C1270 C1271 1.348 . S
C1270 C1272 1.356 . S
C1270 O1295 1.325 . S
C1271 C1270 1.348 . S
C1271 C1273 1.353 . S
C1271 H1312 0.929 . S
C1272 C1270 1.356 . S
C1272 C1274 1.358 . S
C1272 H1313 0.930 . S
C1273 C1271 1.353 . S
C1273 N1275 1.314 . S
C1273 H1314 0.930 . S
C1274 C1272 1.358 . S
C1274 N1275 1.279 . S
C1274 H1315 0.930 . S
N1275 C1273 1.314 . S
N1275 C1274 1.279 . S
C1276 C1278 1.353 . S
C1276 N1279 1.314 . S
C1276 H1282 0.930 . S
C1277 N1279 1.279 . S
C1277 C1280 1.358 . S
C1277 H1283 0.930 . S
C1278 C1276 1.353 . S
C1278 C1281 1.348 . S
C1278 H1316 0.929 . S
N1279 Li1234 1.990 . S
N1279 C1276 1.314 . S
N1279 C1277 1.279 . S
C1280 C1277 1.358 . S
C1280 C1281 1.356 . S
C1280 H1317 0.930 . S
C1281 C1278 1.348 . S
C1281 C1280 1.356 . S
H1282 C1276 0.930 . S
H1283 C1277 0.930 . S
C1284 N1285 1.314 . S
C1284 C1286 1.353 . S
C1284 H1290 0.930 . S
N1285 Li1235 1.990 . S
N1285 C1284 1.314 . S
N1285 C1288 1.279 . S
C1286 C1284 1.353 . S
C1286 C1289 1.348 . S
C1286 H1318 0.929 . S
C1287 C1288 1.358 . S
C1287 C1289 1.356 . S
C1287 H1319 0.930 . S
C1288 N1285 1.279 . S
C1288 C1287 1.358 . S
C1288 H1291 0.930 . S
C1289 C1286 1.348 . S
C1289 C1287 1.356 . S
H1290 C1284 0.930 . S
H1291 C1288 0.930 . S
O1292 Li1232 1.956 . S
O1292 Li1233 1.970 . S
O1292 Li1234 1.961 . S
O1292 C1236 1.325 . S
O1293 Li1232 1.970 . S
O1293 Li1233 1.956 . S
O1293 Li1235 1.961 . S
O1293 C1242 1.325 . S
O1294 Li1232 1.961 . S
O1294 Li1234 1.956 . S
O1294 Li1235 1.970 . S
O1294 C1264 1.325 . S
O1295 Li1233 1.961 . S
O1295 Li1234 1.970 . S
O1295 Li1235 1.956 . S
O1295 C1270 1.325 . S
H1296 C1238 0.929 . S
H1297 C1239 0.930 . S
H1298 C1240 0.930 . S
H1299 C1241 0.930 . S
H1300 C1243 0.930 . S
H1301 C1245 0.929 . S
H1302 C1246 0.930 . S
H1303 C1247 0.930 . S
H1304 C1250 0.930 . S
H1305 C1253 0.929 . S
H1306 C1258 0.929 . S
H1307 C1259 0.930 . S
H1308 C1266 0.929 . S
H1309 C1267 0.930 . S
H1310 C1268 0.930 . S
H1311 C1269 0.930 . S
H1312 C1271 0.929 . S
H1313 C1272 0.930 . S
H1314 C1273 0.930 . S
H1315 C1274 0.930 . S
H1316 C1278 0.929 . S
H1317 C1280 0.930 . S
H1318 C1286 0.929 . S
H1319 C1287 0.930 . S
Li1320 N1337 1.990 . S
Li1320 O1380 1.956 . S
Li1320 O1381 1.970 . S
Li1320 O1382 1.961 . S
Li1321 N1345 1.990 . S
Li1321 O1380 1.970 . S
Li1321 O1381 1.956 . S
Li1321 O1383 1.961 . S
Li1322 N1367 1.990 . S
Li1322 O1380 1.961 . S
Li1322 O1382 1.956 . S
Li1322 O1383 1.970 . S
Li1323 N1373 1.990 . S
Li1323 O1381 1.961 . S
Li1323 O1382 1.970 . S
Li1323 O1383 1.956 . S
C1324 C1326 1.348 . S
C1324 C1327 1.356 . S
C1324 O1380 1.325 . S
N1325 C1328 1.314 . S
N1325 C1329 1.279 . S
C1326 C1324 1.348 . S
C1326 C1328 1.353 . S
C1326 H1384 0.929 . S
C1327 C1324 1.356 . S
C1327 C1329 1.358 . S
C1327 H1385 0.930 . S
C1328 N1325 1.314 . S
C1328 C1326 1.353 . S
C1328 H1386 0.930 . S
C1329 N1325 1.279 . S
C1329 C1327 1.358 . S
C1329 H1387 0.930 . S
C1330 C1333 1.348 . S
C1330 C1334 1.356 . S
C1330 O1381 1.325 . S
C1331 N1332 1.279 . S
C1331 C1334 1.358 . S
C1331 H1388 0.930 . S
N1332 C1331 1.279 . S
N1332 C1335 1.314 . S
C1333 C1330 1.348 . S
C1333 C1335 1.353 . S
C1333 H1389 0.929 . S
C1334 C1330 1.356 . S
C1334 C1331 1.358 . S
C1334 H1390 0.930 . S
C1335 N1332 1.314 . S
C1335 C1333 1.353 . S
C1335 H1391 0.930 . S
C1336 N1337 1.314 . S
C1336 C1341 1.353 . S
C1336 H1342 0.930 . S
N1337 Li1320 1.990 . S
N1337 C1336 1.314 . S
N1337 C1339 1.279 . S
C1338 C1339 1.358 . S
C1338 C1340 1.356 . S
C1338 H1392 0.930 . S
C1339 N1337 1.279 . S
C1339 C1338 1.358 . S
C1339 H1343 0.930 . S
C1340 C1338 1.356 . S
C1340 C1341 1.348 . S
C1341 C1336 1.353 . S
C1341 C1340 1.348 . S
C1341 H1393 0.929 . S
H1342 C1336 0.930 . S
H1343 C1339 0.930 . S
C1344 N1345 1.314 . S
C1344 C1346 1.353 . S
C1344 H1350 0.930 . S
N1345 Li1321 1.990 . S
N1345 C1344 1.314 . S
N1345 C1348 1.279 . S
C1346 C1344 1.353 . S
C1346 C1349 1.348 . S
C1346 H1394 0.929 . S
C1347 C1348 1.358 . S
C1347 C1349 1.356 . S
C1347 H1395 0.930 . S
C1348 N1345 1.279 . S
C1348 C1347 1.358 . S
C1348 H1351 0.930 . S
C1349 C1346 1.348 . S
C1349 C1347 1.356 . S
H1350 C1344 0.930 . S
H1351 C1348 0.930 . S
C1352 C1354 1.348 . S
C1352 C1355 1.356 . S
C1352 O1382 1.325 . S
N1353 C1356 1.314 . S
N1353 C1357 1.279 . S
C1354 C1352 1.348 . S
C1354 C1356 1.353 . S
C1354 H1396 0.929 . S
C1355 C1352 1.356 . S
C1355 C1357 1.358 . S
C1355 H1397 0.930 . S
C1356 N1353 1.314 . S
C1356 C1354 1.353 . S
C1356 H1398 0.930 . S
C1357 N1353 1.279 . S
C1357 C1355 1.358 . S
C1357 H1399 0.930 . S
C1358 C1359 1.348 . S
C1358 C1360 1.356 . S
C1358 O1383 1.325 . S
C1359 C1358 1.348 . S
C1359 C1361 1.353 . S
C1359 H1400 0.929 . S
C1360 C1358 1.356 . S
C1360 C1362 1.358 . S
C1360 H1401 0.930 . S
C1361 C1359 1.353 . S
C1361 N1363 1.314 . S
C1361 H1402 0.930 . S
C1362 C1360 1.358 . S
C1362 N1363 1.279 . S
C1362 H1403 0.930 . S
N1363 C1361 1.314 . S
N1363 C1362 1.279 . S
C1364 C1366 1.353 . S
C1364 N1367 1.314 . S
C1364 H1370 0.930 . S
C1365 N1367 1.279 . S
C1365 C1368 1.358 . S
C1365 H1371 0.930 . S
C1366 C1364 1.353 . S
C1366 C1369 1.348 . S
C1366 H1404 0.929 . S
N1367 Li1322 1.990 . S
N1367 C1364 1.314 . S
N1367 C1365 1.279 . S
C1368 C1365 1.358 . S
C1368 C1369 1.356 . S
C1368 H1405 0.930 . S
C1369 C1366 1.348 . S
C1369 C1368 1.356 . S
H1370 C1364 0.930 . S
H1371 C1365 0.930 . S
C1372 N1373 1.314 . S
C1372 C1374 1.353 . S
C1372 H1378 0.930 . S
N1373 Li1323 1.990 . S
N1373 C1372 1.314 . S
N1373 C1376 1.279 . S
C1374 C1372 1.353 . S
C1374 C1377 1.348 . S
C1374 H1406 0.929 . S
C1375 C1376 1.358 . S
C1375 C1377 1.356 . S
C1375 H1407 0.930 . S
C1376 N1373 1.279 . S
C1376 C1375 1.358 . S
C1376 H1379 0.930 . S
C1377 C1374 1.348 . S
C1377 C1375 1.356 . S
H1378 C1372 0.930 . S
H1379 C1376 0.930 . S
O1380 Li1320 1.956 . S
O1380 Li1321 1.970 . S
O1380 Li1322 1.961 . S
O1380 C1324 1.325 . S
O1381 Li1320 1.970 . S
O1381 Li1321 1.956 . S
O1381 Li1323 1.961 . S
O1381 C1330 1.325 . S
O1382 Li1320 1.961 . S
O1382 Li1322 1.956 . S
O1382 Li1323 1.970 . S
O1382 C1352 1.325 . S
O1383 Li1321 1.961 . S
O1383 Li1322 1.970 . S
O1383 Li1323 1.956 . S
O1383 C1358 1.325 . S
H1384 C1326 0.929 . S
H1385 C1327 0.930 . S
H1386 C1328 0.930 . S
H1387 C1329 0.930 . S
H1388 C1331 0.930 . S
H1389 C1333 0.929 . S
H1390 C1334 0.930 . S
H1391 C1335 0.930 . S
H1392 C1338 0.930 . S
H1393 C1341 0.929 . S
H1394 C1346 0.929 . S
H1395 C1347 0.930 . S
H1396 C1354 0.929 . S
H1397 C1355 0.930 . S
H1398 C1356 0.930 . S
H1399 C1357 0.930 . S
H1400 C1359 0.929 . S
H1401 C1360 0.930 . S
H1402 C1361 0.930 . S
H1403 C1362 0.930 . S
H1404 C1366 0.929 . S
H1405 C1368 0.930 . S
H1406 C1374 0.929 . S
H1407 C1375 0.930 . S
Li1408 N1425 1.990 . S
Li1408 O1468 1.956 . S
Li1408 O1469 1.970 . S
Li1408 O1470 1.961 . S
Li1409 N1433 1.990 . S
Li1409 O1468 1.970 . S
Li1409 O1469 1.956 . S
Li1409 O1471 1.961 . S
Li1410 N1455 1.990 . S
Li1410 O1468 1.961 . S
Li1410 O1470 1.956 . S
Li1410 O1471 1.970 . S
Li1411 N1461 1.990 1_545 S
Li1411 O1469 1.961 . S
Li1411 O1470 1.970 . S
Li1411 O1471 1.956 . S
C1412 C1414 1.348 . S
C1412 C1415 1.356 . S
C1412 O1468 1.325 . S
N1413 C1416 1.314 . S
N1413 C1417 1.279 . S
C1414 C1412 1.348 . S
C1414 C1416 1.353 . S
C1414 H1472 0.929 . S
C1415 C1412 1.356 . S
C1415 C1417 1.358 . S
C1415 H1473 0.930 . S
C1416 N1413 1.314 . S
C1416 C1414 1.353 . S
C1416 H1474 0.930 . S
C1417 N1413 1.279 . S
C1417 C1415 1.358 . S
C1417 H1475 0.930 . S
C1418 C1421 1.348 . S
C1418 C1422 1.356 . S
C1418 O1469 1.325 1_565 S
C1419 N1420 1.279 . S
C1419 C1422 1.358 . S
C1419 H1476 0.930 . S
N1420 C1419 1.279 . S
N1420 C1423 1.314 . S
C1421 C1418 1.348 . S
C1421 C1423 1.353 . S
C1421 H1477 0.929 1_565 S
C1422 C1418 1.356 . S
C1422 C1419 1.358 . S
C1422 H1478 0.930 . S
C1423 N1420 1.314 . S
C1423 C1421 1.353 . S
C1423 H1479 0.930 . S
C1424 N1425 1.314 . S
C1424 C1429 1.353 . S
C1424 H1430 0.980 . S
N1425 Li1408 1.990 . S
N1425 C1424 1.314 . S
N1425 C1427 1.279 . S
C1426 C1427 1.358 . S
C1426 C1428 1.356 . S
C1426 H1480 0.930 . S
C1427 N1425 1.279 . S
C1427 C1426 1.358 . S
C1427 H1431 0.930 . S
C1428 C1426 1.356 . S
C1428 C1429 1.348 . S
C1429 C1424 1.353 . S
C1429 C1428 1.348 . S
C1429 H1481 0.929 1_545 S
H1430 C1424 0.980 . S
H1431 C1427 0.930 . S
C1432 N1433 1.314 . S
C1432 C1434 1.353 . S
C1432 H1438 0.930 . S
N1433 Li1409 1.990 . S
N1433 C1432 1.314 . S
N1433 C1436 1.279 . S
C1434 C1432 1.353 . S
C1434 C1437 1.348 . S
C1434 H1482 0.929 . S
C1435 C1436 1.358 . S
C1435 C1437 1.356 . S
C1435 H1483 0.930 . S
C1436 N1433 1.279 . S
C1436 C1435 1.358 . S
C1436 H1439 0.930 . S
C1437 C1434 1.348 . S
C1437 C1435 1.356 . S
H1438 C1432 0.930 . S
H1439 C1436 0.930 . S
C1440 C1442 1.402 . S
C1440 C1443 1.356 . S
C1440 O1470 1.325 . S
N1441 C1444 1.314 1_545 S
N1441 C1445 1.279 . S
C1442 C1440 1.402 . S
C1442 C1444 1.373 1_545 S
C1442 H1484 0.861 1_545 S
C1443 C1440 1.356 . S
C1443 C1445 1.358 . S
C1443 H1485 0.930 . S
C1444 N1441 1.314 1_565 S
C1444 C1442 1.373 1_565 S
C1444 H1486 0.930 . S
C1445 N1441 1.279 . S
C1445 C1443 1.358 . S
C1445 H1487 0.930 . S
C1446 C1447 1.348 . S
C1446 C1448 1.356 . S
C1446 O1471 1.325 . S
C1447 C1446 1.348 . S
C1447 C1449 1.353 . S
C1447 H1488 0.929 . S
C1448 C1446 1.356 . S
C1448 C1450 1.358 . S
C1448 H1489 0.930 . S
C1449 C1447 1.353 . S
C1449 N1451 1.314 . S
C1449 H1490 0.930 . S
C1450 C1448 1.358 . S
C1450 N1451 1.279 . S
C1450 H1491 0.930 . S
N1451 C1449 1.314 . S
N1451 C1450 1.279 . S
C1452 C1454 1.353 . S
C1452 N1455 1.314 . S
C1452 H1458 0.930 . S
C1453 N1455 1.279 . S
C1453 C1456 1.358 . S
C1453 H1459 0.930 . S
C1454 C1452 1.353 . S
C1454 C1457 1.348 . S
C1454 H1492 0.929 . S
N1455 Li1410 1.990 . S
N1455 C1452 1.314 . S
N1455 C1453 1.279 . S
C1456 C1453 1.358 . S
C1456 C1457 1.356 . S
C1456 H1493 0.930 . S
C1457 C1454 1.348 . S
C1457 C1456 1.356 . S
H1458 C1452 0.930 . S
H1459 C1453 0.930 . S
C1460 N1461 1.314 . S
C1460 C1462 1.353 . S
C1460 H1466 0.930 . S
N1461 Li1411 1.990 1_565 S
N1461 C1460 1.314 . S
N1461 C1464 1.279 . S
C1462 C1460 1.353 . S
C1462 C1465 1.348 . S
C1462 H1494 0.929 . S
C1463 C1464 1.358 . S
C1463 C1465 1.356 . S
C1463 H1495 0.930 . S
C1464 N1461 1.279 . S
C1464 C1463 1.358 . S
C1464 H1467 0.930 . S
C1465 C1462 1.348 . S
C1465 C1463 1.356 . S
H1466 C1460 0.930 . S
H1467 C1464 0.930 . S
O1468 Li1408 1.956 . S
O1468 Li1409 1.970 . S
O1468 Li1410 1.961 . S
O1468 C1412 1.325 . S
O1469 Li1408 1.970 . S
O1469 Li1409 1.956 . S
O1469 Li1411 1.961 . S
O1469 C1418 1.325 1_545 S
O1470 Li1408 1.961 . S
O1470 Li1410 1.956 . S
O1470 Li1411 1.970 . S
O1470 C1440 1.325 . S
O1471 Li1409 1.961 . S
O1471 Li1410 1.970 . S
O1471 Li1411 1.956 . S
O1471 C1446 1.325 . S
H1472 C1414 0.929 . S
H1473 C1415 0.930 . S
H1474 C1416 0.930 . S
H1475 C1417 0.930 . S
H1476 C1419 0.930 . S
H1477 C1421 0.929 1_545 S
H1478 C1422 0.930 . S
H1479 C1423 0.930 . S
H1480 C1426 0.930 . S
H1481 C1429 0.929 1_565 S
H1482 C1434 0.929 . S
H1483 C1435 0.930 . S
H1484 C1442 0.861 1_565 S
H1485 C1443 0.930 . S
H1486 C1444 0.930 . S
H1487 C1445 0.930 . S
H1488 C1447 0.929 . S
H1489 C1448 0.930 . S
H1490 C1449 0.930 . S
H1491 C1450 0.930 . S
H1492 C1454 0.929 . S
H1493 C1456 0.930 . S
H1494 C1462 0.929 . S
H1495 C1463 0.930 . S
Li1496 N1513 1.990 . S
Li1496 O1556 1.956 . S
Li1496 O1557 1.970 . S
Li1496 O1558 1.961 . S
Li1497 N1521 1.990 . S
Li1497 O1556 1.970 . S
Li1497 O1557 1.956 . S
Li1497 O1559 1.961 . S
Li1498 N1543 1.990 1_655 S
Li1498 O1556 1.961 . S
Li1498 O1558 1.956 . S
Li1498 O1559 1.970 . S
Li1499 N1549 1.990 . S
Li1499 O1557 1.961 . S
Li1499 O1558 1.970 . S
Li1499 O1559 1.956 . S
C1500 C1502 1.348 . S
C1500 C1503 1.356 . S
C1500 O1556 1.325 1_455 S
N1501 C1504 1.314 . S
N1501 C1505 1.279 . S
C1502 C1500 1.348 . S
C1502 C1504 1.353 . S
C1502 H1560 0.929 1_455 S
C1503 C1500 1.356 . S
C1503 C1505 1.358 . S
C1503 H1561 0.930 . S
C1504 N1501 1.314 . S
C1504 C1502 1.353 . S
C1504 H1562 0.930 . S
C1505 N1501 1.279 . S
C1505 C1503 1.358 . S
C1505 H1563 0.930 . S
C1506 C1509 1.348 . S
C1506 C1510 1.356 . S
C1506 O1557 1.325 . S
C1507 N1508 1.279 . S
C1507 C1510 1.358 . S
C1507 H1564 0.930 . S
N1508 C1507 1.279 . S
N1508 C1511 1.314 . S
C1509 C1506 1.348 . S
C1509 C1511 1.353 . S
C1509 H1565 0.929 . S
C1510 C1506 1.356 . S
C1510 C1507 1.358 . S
C1510 H1566 0.930 . S
C1511 N1508 1.314 . S
C1511 C1509 1.353 . S
C1511 H1567 0.930 . S
C1512 N1513 1.314 . S
C1512 C1517 1.353 . S
C1512 H1518 0.930 . S
N1513 Li1496 1.990 . S
N1513 C1512 1.314 . S
N1513 C1515 1.279 . S
C1514 C1515 1.358 . S
C1514 C1516 1.356 . S
C1514 H1568 0.930 . S
C1515 N1513 1.279 . S
C1515 C1514 1.358 . S
C1515 H1519 0.930 . S
C1516 C1514 1.356 . S
C1516 C1517 1.348 . S
C1517 C1512 1.353 . S
C1517 C1516 1.348 . S
C1517 H1569 0.929 . S
H1518 C1512 0.930 . S
H1519 C1515 0.930 . S
C1520 N1521 1.314 . S
C1520 C1522 1.353 . S
C1520 H1526 0.930 . S
N1521 Li1497 1.990 . S
N1521 C1520 1.314 . S
N1521 C1524 1.279 . S
C1522 C1520 1.353 . S
C1522 C1525 1.348 . S
C1522 H1570 0.923 . S
C1523 C1524 1.358 . S
C1523 C1525 1.356 . S
C1523 H1571 0.930 . S
C1524 N1521 1.279 . S
C1524 C1523 1.358 . S
C1524 H1527 0.930 . S
C1525 C1522 1.348 . S
C1525 C1523 1.356 . S
H1526 C1520 0.930 . S
H1527 C1524 0.930 . S
C1528 C1530 1.348 . S
C1528 C1531 1.356 . S
C1528 O1558 1.325 . S
N1529 C1532 1.314 . S
N1529 C1533 1.279 . S
C1530 C1528 1.348 . S
C1530 C1532 1.353 . S
C1530 H1572 0.929 . S
C1531 C1528 1.356 . S
C1531 C1533 1.358 . S
C1531 H1573 0.930 . S
C1532 N1529 1.314 . S
C1532 C1530 1.353 . S
C1532 H1574 0.930 . S
C1533 N1529 1.279 . S
C1533 C1531 1.358 . S
C1533 H1575 0.930 . S
C1534 C1535 1.348 . S
C1534 C1536 1.356 . S
C1534 O1559 1.325 . S
C1535 C1534 1.348 . S
C1535 C1537 1.374 . S
C1535 H1576 0.929 1_655 S
C1536 C1534 1.356 . S
C1536 C1538 1.358 . S
C1536 H1577 0.930 . S
C1537 C1535 1.374 . S
C1537 N1539 1.312 . S
C1537 H1578 0.909 1_655 S
C1538 C1536 1.358 . S
C1538 N1539 1.279 . S
C1538 H1579 0.930 . S
N1539 C1537 1.312 . S
N1539 C1538 1.279 . S
C1540 C1542 1.353 . S
C1540 N1543 1.314 . S
C1540 H1546 0.930 . S
C1541 N1543 1.279 . S
C1541 C1544 1.358 . S
C1541 H1547 0.930 . S
C1542 C1540 1.353 . S
C1542 C1545 1.348 . S
C1542 H1580 0.929 . S
N1543 Li1498 1.990 1_455 S
N1543 C1540 1.314 . S
N1543 C1541 1.279 . S
C1544 C1541 1.358 . S
C1544 C1545 1.356 . S
C1544 H1581 0.930 . S
C1545 C1542 1.348 . S
C1545 C1544 1.356 . S
H1546 C1540 0.930 . S
H1547 C1541 0.930 . S
C1548 N1549 1.314 . S
C1548 C1550 1.353 . S
C1548 H1554 0.930 . S
N1549 Li1499 1.990 . S
N1549 C1548 1.314 . S
N1549 C1552 1.279 . S
C1550 C1548 1.353 . S
C1550 C1553 1.348 . S
C1550 H1582 0.929 . S
C1551 C1552 1.358 . S
C1551 C1553 1.356 . S
C1551 H1583 0.930 . S
C1552 N1549 1.279 . S
C1552 C1551 1.358 . S
C1552 H1555 0.930 . S
C1553 C1550 1.348 . S
C1553 C1551 1.356 . S
H1554 C1548 0.930 . S
H1555 C1552 0.930 . S
O1556 Li1496 1.956 . S
O1556 Li1497 1.970 . S
O1556 Li1498 1.961 . S
O1556 C1500 1.325 1_655 S
O1557 Li1496 1.970 . S
O1557 Li1497 1.956 . S
O1557 Li1499 1.961 . S
O1557 C1506 1.325 . S
O1558 Li1496 1.961 . S
O1558 Li1498 1.956 . S
O1558 Li1499 1.970 . S
O1558 C1528 1.325 . S
O1559 Li1497 1.961 . S
O1559 Li1498 1.970 . S
O1559 Li1499 1.956 . S
O1559 C1534 1.325 . S
H1560 C1502 0.929 1_655 S
H1561 C1503 0.930 . S
H1562 C1504 0.930 . S
H1563 C1505 0.930 . S
H1564 C1507 0.930 . S
H1565 C1509 0.929 . S
H1566 C1510 0.930 . S
H1567 C1511 0.930 . S
H1568 C1514 0.930 . S
H1569 C1517 0.929 . S
H1570 C1522 0.923 . S
H1571 C1523 0.930 . S
H1572 C1530 0.929 . S
H1573 C1531 0.930 . S
H1574 C1532 0.930 . S
H1575 C1533 0.930 . S
H1576 C1535 0.929 1_455 S
H1577 C1536 0.930 . S
H1578 C1537 0.909 1_455 S
H1579 C1538 0.930 . S
H1580 C1542 0.929 . S
H1581 C1544 0.930 . S
H1582 C1550 0.929 . S
H1583 C1551 0.930 . S
C1584 C1585 1.560 . S
C1584 H1645 0.959 . S
C1584 H1646 0.959 . S
C1584 H1647 0.960 . S
C1585 C1584 1.560 . S
C1585 O1640 1.426 . S
C1585 H1644 0.980 . S
C1586 C1587 1.407 . S
C1586 C1591 1.418 . S
C1586 O1640 1.334 . S
C1587 C1586 1.407 . S
C1587 C1588 1.360 . S
C1587 H1648 0.929 . S
C1588 C1587 1.360 . S
C1588 C1589 1.401 . S
C1588 C1592 1.527 . S
C1589 C1588 1.401 . S
C1589 C1590 1.405 . S
C1589 C1622 1.587 . S
C1590 C1589 1.405 . S
C1590 C1591 1.332 . S
C1590 C1593 1.496 . S
C1591 C1586 1.418 . S
C1591 C1590 1.332 . S
C1591 H1649 0.929 . S
C1592 C1588 1.527 . S
C1592 H1650 0.959 . S
C1592 H1651 0.961 . S
C1592 H1652 0.961 . S
C1593 C1590 1.496 . S
C1593 H1653 0.960 . S
C1593 H1654 0.960 . S
C1593 H1655 0.961 . S
C1594 C1595 1.517 . S
C1594 H1657 0.961 . S
C1594 H1658 0.960 . S
C1594 H1659 0.959 . S
C1595 C1594 1.517 . S
C1595 O1643 1.468 . S
C1595 H1656 0.980 . S
C1596 C1597 1.349 . S
C1596 C1601 1.367 . S
C1596 O1643 1.408 . S
C1597 C1596 1.349 . S
C1597 C1598 1.407 . S
C1597 H1660 0.930 . S
C1598 C1597 1.407 . S
C1598 C1599 1.449 . S
C1598 C1602 1.535 . S
C1599 C1598 1.449 . S
C1599 C1600 1.384 . S
C1599 C1624 1.553 . S
C1600 C1599 1.384 . S
C1600 C1601 1.364 . S
C1600 C1603 1.450 . S
C1601 C1596 1.367 . S
C1601 C1600 1.364 . S
C1601 H1661 0.931 . S
C1602 C1598 1.535 . S
C1602 H1662 0.959 . S
C1602 H1663 0.961 . S
C1602 H1664 0.959 . S
C1603 C1600 1.450 . S
C1603 H1665 0.960 . S
C1603 H1666 0.960 . S
C1603 H1667 0.960 . S
C1604 C1605 1.309 . S
C1604 C1609 1.304 . S
C1604 O1642 1.435 . S
C1605 C1604 1.309 . S
C1605 C1606 1.476 . S
C1605 H1669 0.930 . S
C1606 C1605 1.476 . S
C1606 C1607 1.400 . S
C1606 C1610 1.567 . S
C1607 C1606 1.400 . S
C1607 C1608 1.373 . S
C1607 C1629 1.432 . S
C1608 C1607 1.373 . S
C1608 C1609 1.339 . S
C1608 C1611 1.530 . S
C1609 C1604 1.304 . S
C1609 C1608 1.339 . S
C1609 H1670 0.930 . S
C1610 C1606 1.567 . S
C1610 H1671 0.961 . S
C1610 H1672 0.960 . S
C1610 H1673 0.958 . S
C1611 C1608 1.530 . S
C1611 H1674 0.961 . S
C1611 H1675 0.960 . S
C1611 H1676 0.960 . S
C1612 C1613 1.530 . S
C1612 H1678 0.961 . S
C1612 H1679 0.961 . S
C1612 H1680 0.959 . S
C1613 C1612 1.530 . S
C1613 O1641 1.412 . S
C1613 H1677 0.980 . S
C1614 C1615 1.288 . S
C1614 C1619 1.377 . S
C1614 O1641 1.393 . S
C1615 C1614 1.288 . S
C1615 C1616 1.369 . S
C1615 H1681 0.932 . S
C1616 C1615 1.369 . S
C1616 C1617 1.398 . S
C1616 C1620 1.527 . S
C1617 C1616 1.398 . S
C1617 C1618 1.380 . S
C1617 C1631 1.497 . S
C1618 C1617 1.380 . S
C1618 C1619 1.383 . S
C1618 C1621 1.603 . S
C1619 C1614 1.377 . S
C1619 C1618 1.383 . S
C1619 H1682 0.929 . S
C1620 C1616 1.527 . S
C1620 H1683 0.961 . S
C1620 H1684 0.959 . S
C1620 H1685 0.959 . S
C1621 C1618 1.603 . S
C1621 H1686 0.960 . S
C1621 H1687 0.962 . S
C1621 H1688 0.961 . S
C1622 C1589 1.587 . S
C1622 C1623 1.360 . S
C1622 C1635 1.412 . S
C1623 C1622 1.360 . S
C1623 C1624 1.365 . S
C1623 H1689 0.929 . S
C1624 C1599 1.553 . S
C1624 C1623 1.365 . S
C1624 C1625 1.404 . S
C1625 C1624 1.404 . S
C1625 C1626 1.395 . S
C1625 C1636 1.451 . S
C1626 C1625 1.395 . S
C1626 C1627 1.322 . S
C1626 H1690 0.930 . S
C1627 C1626 1.322 . S
C1627 C1628 1.459 . S
C1627 H1691 0.929 . S
C1628 C1627 1.459 . S
C1628 C1629 1.445 . S
C1628 C1637 1.395 . S
C1629 C1607 1.432 . S
C1629 C1628 1.445 . S
C1629 C1630 1.370 . S
C1630 C1629 1.370 . S
C1630 C1631 1.438 . S
C1630 H1692 0.930 . S
C1631 C1617 1.497 . S
C1631 C1630 1.438 . S
C1631 C1632 1.360 . S
C1632 C1631 1.360 . S
C1632 C1633 1.401 . S
C1632 C1637 1.446 . S
C1633 C1632 1.401 . S
C1633 C1634 1.347 . S
C1633 H1693 0.929 . S
C1634 C1633 1.347 . S
C1634 C1635 1.455 . S
C1634 H1694 0.930 . S
C1635 C1622 1.412 . S
C1635 C1634 1.455 . S
C1635 C1636 1.331 . S
C1636 C1625 1.451 . S
C1636 C1635 1.331 . S
C1636 C1637 1.497 . S
C1637 C1628 1.395 . S
C1637 C1632 1.446 . S
C1637 C1636 1.497 . S
C1638 C1639 1.582 . S
C1638 H1695 0.962 . S
C1638 H1696 0.959 . S
C1638 H1697 0.958 . S
C1639 C1638 1.582 . S
C1639 O1642 1.458 . S
C1639 H1668 0.980 . S
O1640 C1585 1.426 . S
O1640 C1586 1.334 . S
O1641 C1613 1.412 . S
O1641 C1614 1.393 . S
O1642 C1604 1.435 . S
O1642 C1639 1.458 . S
O1643 C1595 1.468 . S
O1643 C1596 1.408 . S
H1644 C1585 0.980 . S
H1645 C1584 0.959 . S
H1646 C1584 0.959 . S
H1647 C1584 0.960 . S
H1648 C1587 0.929 . S
H1649 C1591 0.929 . S
H1650 C1592 0.959 . S
H1651 C1592 0.961 . S
H1652 C1592 0.961 . S
H1653 C1593 0.960 . S
H1654 C1593 0.960 . S
H1655 C1593 0.961 . S
H1656 C1595 0.980 . S
H1657 C1594 0.961 . S
H1658 C1594 0.960 . S
H1659 C1594 0.959 . S
H1660 C1597 0.930 . S
H1661 C1601 0.931 . S
H1662 C1602 0.959 . S
H1663 C1602 0.961 . S
H1664 C1602 0.959 . S
H1665 C1603 0.960 . S
H1666 C1603 0.960 . S
H1667 C1603 0.960 . S
H1668 C1639 0.980 . S
H1669 C1605 0.930 . S
H1670 C1609 0.930 . S
H1671 C1610 0.961 . S
H1672 C1610 0.960 . S
H1673 C1610 0.958 . S
H1674 C1611 0.961 . S
H1675 C1611 0.960 . S
H1676 C1611 0.960 . S
H1677 C1613 0.980 . S
H1678 C1612 0.961 . S
H1679 C1612 0.961 . S
H1680 C1612 0.959 . S
H1681 C1615 0.932 . S
H1682 C1619 0.929 . S
H1683 C1620 0.961 . S
H1684 C1620 0.959 . S
H1685 C1620 0.959 . S
H1686 C1621 0.960 . S
H1687 C1621 0.962 . S
H1688 C1621 0.961 . S
H1689 C1623 0.929 . S
H1690 C1626 0.930 . S
H1691 C1627 0.929 . S
H1692 C1630 0.930 . S
H1693 C1633 0.929 . S
H1694 C1634 0.930 . S
H1695 C1638 0.962 . S
H1696 C1638 0.959 . S
H1697 C1638 0.958 . S
C1698 C1699 1.560 . S
C1698 H1759 0.959 . S
C1698 H1760 0.959 . S
C1698 H1761 0.960 . S
C1699 C1698 1.560 . S
C1699 O1754 1.426 . S
C1699 H1758 0.980 . S
C1700 C1701 1.407 . S
C1700 C1705 1.418 . S
C1700 O1754 1.334 . S
C1701 C1700 1.407 . S
C1701 C1702 1.360 . S
C1701 H1762 0.929 . S
C1702 C1701 1.360 . S
C1702 C1703 1.401 . S
C1702 C1706 1.527 . S
C1703 C1702 1.401 . S
C1703 C1704 1.405 . S
C1703 C1736 1.587 . S
C1704 C1703 1.405 . S
C1704 C1705 1.332 . S
C1704 C1707 1.496 . S
C1705 C1700 1.418 . S
C1705 C1704 1.332 . S
C1705 H1763 0.929 . S
C1706 C1702 1.527 . S
C1706 H1764 0.959 . S
C1706 H1765 0.961 . S
C1706 H1766 0.961 . S
C1707 C1704 1.496 . S
C1707 H1767 0.960 . S
C1707 H1768 0.960 . S
C1707 H1769 0.961 . S
C1708 C1709 1.517 . S
C1708 H1771 0.961 . S
C1708 H1772 0.960 . S
C1708 H1773 0.959 . S
C1709 C1708 1.517 . S
C1709 O1757 1.468 . S
C1709 H1770 0.980 . S
C1710 C1711 1.349 . S
C1710 C1715 1.367 . S
C1710 O1757 1.408 . S
C1711 C1710 1.349 . S
C1711 C1712 1.407 . S
C1711 H1774 0.930 . S
C1712 C1711 1.407 . S
C1712 C1713 1.449 . S
C1712 C1716 1.535 . S
C1713 C1712 1.449 . S
C1713 C1714 1.384 . S
C1713 C1738 1.553 . S
C1714 C1713 1.384 . S
C1714 C1715 1.364 . S
C1714 C1717 1.450 . S
C1715 C1710 1.367 . S
C1715 C1714 1.364 . S
C1715 H1775 0.931 . S
C1716 C1712 1.535 . S
C1716 H1776 0.959 . S
C1716 H1777 0.961 . S
C1716 H1778 0.959 . S
C1717 C1714 1.450 . S
C1717 H1779 0.960 . S
C1717 H1780 0.960 . S
C1717 H1781 0.960 . S
C1718 C1719 1.309 . S
C1718 C1723 1.304 . S
C1718 O1756 1.435 . S
C1719 C1718 1.309 . S
C1719 C1720 1.476 . S
C1719 H1783 0.930 . S
C1720 C1719 1.476 . S
C1720 C1721 1.400 . S
C1720 C1724 1.567 . S
C1721 C1720 1.400 . S
C1721 C1722 1.373 . S
C1721 C1743 1.432 . S
C1722 C1721 1.373 . S
C1722 C1723 1.339 . S
C1722 C1725 1.530 . S
C1723 C1718 1.304 . S
C1723 C1722 1.339 . S
C1723 H1784 0.930 . S
C1724 C1720 1.567 . S
C1724 H1785 0.961 . S
C1724 H1786 0.960 . S
C1724 H1787 0.958 . S
C1725 C1722 1.530 . S
C1725 H1788 0.961 . S
C1725 H1789 0.960 . S
C1725 H1790 0.960 . S
C1726 C1727 1.530 . S
C1726 H1792 0.961 . S
C1726 H1793 0.961 . S
C1726 H1794 0.959 . S
C1727 C1726 1.530 . S
C1727 O1755 1.412 . S
C1727 H1791 0.980 . S
C1728 C1729 1.288 . S
C1728 C1733 1.377 . S
C1728 O1755 1.393 . S
C1729 C1728 1.288 . S
C1729 C1730 1.369 . S
C1729 H1795 0.932 . S
C1730 C1729 1.369 . S
C1730 C1731 1.398 . S
C1730 C1734 1.527 . S
C1731 C1730 1.398 . S
C1731 C1732 1.380 . S
C1731 C1745 1.497 . S
C1732 C1731 1.380 . S
C1732 C1733 1.383 . S
C1732 C1735 1.603 . S
C1733 C1728 1.377 . S
C1733 C1732 1.383 . S
C1733 H1796 0.929 . S
C1734 C1730 1.527 . S
C1734 H1797 0.961 . S
C1734 H1798 0.959 . S
C1734 H1799 0.959 . S
C1735 C1732 1.603 . S
C1735 H1800 0.960 . S
C1735 H1801 0.962 . S
C1735 H1802 0.961 . S
C1736 C1703 1.587 . S
C1736 C1737 1.360 . S
C1736 C1749 1.412 . S
C1737 C1736 1.360 . S
C1737 C1738 1.365 . S
C1737 H1803 0.929 . S
C1738 C1713 1.553 . S
C1738 C1737 1.365 . S
C1738 C1739 1.404 . S
C1739 C1738 1.404 . S
C1739 C1740 1.395 . S
C1739 C1750 1.451 . S
C1740 C1739 1.395 . S
C1740 C1741 1.322 . S
C1740 H1804 0.930 . S
C1741 C1740 1.322 . S
C1741 C1742 1.459 . S
C1741 H1805 0.929 . S
C1742 C1741 1.459 . S
C1742 C1743 1.445 . S
C1742 C1751 1.395 . S
C1743 C1721 1.432 . S
C1743 C1742 1.445 . S
C1743 C1744 1.370 . S
C1744 C1743 1.370 . S
C1744 C1745 1.438 . S
C1744 H1806 0.930 . S
C1745 C1731 1.497 . S
C1745 C1744 1.438 . S
C1745 C1746 1.360 . S
C1746 C1745 1.360 . S
C1746 C1747 1.401 . S
C1746 C1751 1.446 . S
C1747 C1746 1.401 . S
C1747 C1748 1.347 . S
C1747 H1807 0.929 . S
C1748 C1747 1.347 . S
C1748 C1749 1.455 . S
C1748 H1808 0.930 . S
C1749 C1736 1.412 . S
C1749 C1748 1.455 . S
C1749 C1750 1.331 . S
C1750 C1739 1.451 . S
C1750 C1749 1.331 . S
C1750 C1751 1.497 . S
C1751 C1742 1.395 . S
C1751 C1746 1.446 . S
C1751 C1750 1.497 . S
C1752 C1753 1.582 . S
C1752 H1809 0.962 . S
C1752 H1810 0.959 . S
C1752 H1811 0.958 . S
C1753 C1752 1.582 . S
C1753 O1756 1.458 . S
C1753 H1782 0.980 . S
O1754 C1699 1.426 . S
O1754 C1700 1.334 . S
O1755 C1727 1.412 . S
O1755 C1728 1.393 . S
O1756 C1718 1.435 . S
O1756 C1753 1.458 . S
O1757 C1709 1.468 . S
O1757 C1710 1.408 . S
H1758 C1699 0.980 . S
H1759 C1698 0.959 . S
H1760 C1698 0.959 . S
H1761 C1698 0.960 . S
H1762 C1701 0.929 . S
H1763 C1705 0.929 . S
H1764 C1706 0.959 . S
H1765 C1706 0.961 . S
H1766 C1706 0.961 . S
H1767 C1707 0.960 . S
H1768 C1707 0.960 . S
H1769 C1707 0.961 . S
H1770 C1709 0.980 . S
H1771 C1708 0.961 . S
H1772 C1708 0.960 . S
H1773 C1708 0.959 . S
H1774 C1711 0.930 . S
H1775 C1715 0.931 . S
H1776 C1716 0.959 . S
H1777 C1716 0.961 . S
H1778 C1716 0.959 . S
H1779 C1717 0.960 . S
H1780 C1717 0.960 . S
H1781 C1717 0.960 . S
H1782 C1753 0.980 . S
H1783 C1719 0.930 . S
H1784 C1723 0.930 . S
H1785 C1724 0.961 . S
H1786 C1724 0.960 . S
H1787 C1724 0.958 . S
H1788 C1725 0.961 . S
H1789 C1725 0.960 . S
H1790 C1725 0.960 . S
H1791 C1727 0.980 . S
H1792 C1726 0.961 . S
H1793 C1726 0.961 . S
H1794 C1726 0.959 . S
H1795 C1729 0.932 . S
H1796 C1733 0.929 . S
H1797 C1734 0.961 . S
H1798 C1734 0.959 . S
H1799 C1734 0.959 . S
H1800 C1735 0.960 . S
H1801 C1735 0.962 . S
H1802 C1735 0.961 . S
H1803 C1737 0.929 . S
H1804 C1740 0.930 . S
H1805 C1741 0.929 . S
H1806 C1744 0.930 . S
H1807 C1747 0.929 . S
H1808 C1748 0.930 . S
H1809 C1752 0.962 . S
H1810 C1752 0.959 . S
H1811 C1752 0.958 . S
C1812 C1813 1.560 . S
C1812 H1873 0.959 . S
C1812 H1874 0.959 . S
C1812 H1875 0.960 . S
C1813 C1812 1.560 . S
C1813 O1868 1.426 . S
C1813 H1872 0.980 . S
C1814 C1815 1.407 . S
C1814 C1819 1.418 . S
C1814 O1868 1.334 . S
C1815 C1814 1.407 . S
C1815 C1816 1.360 . S
C1815 H1876 0.929 . S
C1816 C1815 1.360 . S
C1816 C1817 1.401 . S
C1816 C1820 1.527 . S
C1817 C1816 1.401 . S
C1817 C1818 1.405 . S
C1817 C1850 1.587 . S
C1818 C1817 1.405 . S
C1818 C1819 1.332 . S
C1818 C1821 1.496 . S
C1819 C1814 1.418 . S
C1819 C1818 1.332 . S
C1819 H1877 0.929 . S
C1820 C1816 1.527 . S
C1820 H1878 0.959 . S
C1820 H1879 0.961 . S
C1820 H1880 0.961 . S
C1821 C1818 1.496 . S
C1821 H1881 0.960 . S
C1821 H1882 0.960 . S
C1821 H1883 0.961 . S
C1822 C1823 1.517 . S
C1822 H1885 0.961 . S
C1822 H1886 0.960 . S
C1822 H1887 0.959 . S
C1823 C1822 1.517 . S
C1823 O1871 1.468 . S
C1823 H1884 0.980 . S
C1824 C1825 1.349 . S
C1824 C1829 1.367 . S
C1824 O1871 1.408 . S
C1825 C1824 1.349 . S
C1825 C1826 1.407 . S
C1825 H1888 0.930 . S
C1826 C1825 1.407 . S
C1826 C1827 1.449 . S
C1826 C1830 1.535 . S
C1827 C1826 1.449 . S
C1827 C1828 1.384 . S
C1827 C1852 1.553 . S
C1828 C1827 1.384 . S
C1828 C1829 1.364 . S
C1828 C1831 1.450 . S
C1829 C1824 1.367 . S
C1829 C1828 1.364 . S
C1829 H1889 0.931 . S
C1830 C1826 1.535 . S
C1830 H1890 0.959 . S
C1830 H1891 0.961 . S
C1830 H1892 0.959 . S
C1831 C1828 1.450 . S
C1831 H1893 0.960 . S
C1831 H1894 0.960 . S
C1831 H1895 0.960 . S
C1832 C1833 1.309 . S
C1832 C1837 1.304 . S
C1832 O1870 1.435 . S
C1833 C1832 1.309 . S
C1833 C1834 1.476 . S
C1833 H1897 0.930 . S
C1834 C1833 1.476 . S
C1834 C1835 1.400 . S
C1834 C1838 1.567 . S
C1835 C1834 1.400 . S
C1835 C1836 1.373 . S
C1835 C1857 1.432 . S
C1836 C1835 1.373 . S
C1836 C1837 1.339 . S
C1836 C1839 1.530 . S
C1837 C1832 1.304 . S
C1837 C1836 1.339 . S
C1837 H1898 0.930 . S
C1838 C1834 1.567 . S
C1838 H1899 0.961 . S
C1838 H1900 0.960 . S
C1838 H1901 0.958 . S
C1839 C1836 1.530 . S
C1839 H1902 0.961 . S
C1839 H1903 0.960 . S
C1839 H1904 0.960 . S
C1840 C1841 1.530 . S
C1840 H1906 0.961 . S
C1840 H1907 0.961 . S
C1840 H1908 0.959 . S
C1841 C1840 1.530 . S
C1841 O1869 1.412 . S
C1841 H1905 0.980 . S
C1842 C1843 1.288 . S
C1842 C1847 1.377 . S
C1842 O1869 1.393 . S
C1843 C1842 1.288 . S
C1843 C1844 1.369 . S
C1843 H1909 0.932 . S
C1844 C1843 1.369 . S
C1844 C1845 1.398 . S
C1844 C1848 1.527 . S
C1845 C1844 1.398 . S
C1845 C1846 1.380 . S
C1845 C1859 1.497 . S
C1846 C1845 1.380 . S
C1846 C1847 1.383 . S
C1846 C1849 1.603 . S
C1847 C1842 1.377 . S
C1847 C1846 1.383 . S
C1847 H1910 0.929 . S
C1848 C1844 1.527 . S
C1848 H1911 0.961 . S
C1848 H1912 0.959 . S
C1848 H1913 0.959 . S
C1849 C1846 1.603 . S
C1849 H1914 0.960 . S
C1849 H1915 0.962 . S
C1849 H1916 0.961 . S
C1850 C1817 1.587 . S
C1850 C1851 1.360 . S
C1850 C1863 1.412 . S
C1851 C1850 1.360 . S
C1851 C1852 1.365 . S
C1851 H1917 0.929 . S
C1852 C1827 1.553 . S
C1852 C1851 1.365 . S
C1852 C1853 1.404 . S
C1853 C1852 1.404 . S
C1853 C1854 1.395 . S
C1853 C1864 1.451 . S
C1854 C1853 1.395 . S
C1854 C1855 1.322 . S
C1854 H1918 0.930 . S
C1855 C1854 1.322 . S
C1855 C1856 1.459 . S
C1855 H1919 0.929 . S
C1856 C1855 1.459 . S
C1856 C1857 1.445 . S
C1856 C1865 1.395 . S
C1857 C1835 1.432 . S
C1857 C1856 1.445 . S
C1857 C1858 1.370 . S
C1858 C1857 1.370 . S
C1858 C1859 1.438 . S
C1858 H1920 0.930 . S
C1859 C1845 1.497 . S
C1859 C1858 1.438 . S
C1859 C1860 1.360 . S
C1860 C1859 1.360 . S
C1860 C1861 1.401 . S
C1860 C1865 1.446 . S
C1861 C1860 1.401 . S
C1861 C1862 1.347 . S
C1861 H1921 0.929 . S
C1862 C1861 1.347 . S
C1862 C1863 1.455 . S
C1862 H1922 0.930 . S
C1863 C1850 1.412 . S
C1863 C1862 1.455 . S
C1863 C1864 1.331 . S
C1864 C1853 1.451 . S
C1864 C1863 1.331 . S
C1864 C1865 1.497 . S
C1865 C1856 1.395 . S
C1865 C1860 1.446 . S
C1865 C1864 1.497 . S
C1866 C1867 1.582 . S
C1866 H1923 0.962 . S
C1866 H1924 0.959 . S
C1866 H1925 0.958 . S
C1867 C1866 1.582 . S
C1867 O1870 1.458 . S
C1867 H1896 0.980 . S
O1868 C1813 1.426 . S
O1868 C1814 1.334 . S
O1869 C1841 1.412 . S
O1869 C1842 1.393 . S
O1870 C1832 1.435 . S
O1870 C1867 1.458 . S
O1871 C1823 1.468 . S
O1871 C1824 1.408 . S
H1872 C1813 0.980 . S
H1873 C1812 0.959 . S
H1874 C1812 0.959 . S
H1875 C1812 0.960 . S
H1876 C1815 0.929 . S
H1877 C1819 0.929 . S
H1878 C1820 0.959 . S
H1879 C1820 0.961 . S
H1880 C1820 0.961 . S
H1881 C1821 0.960 . S
H1882 C1821 0.960 . S
H1883 C1821 0.961 . S
H1884 C1823 0.980 . S
H1885 C1822 0.961 . S
H1886 C1822 0.960 . S
H1887 C1822 0.959 . S
H1888 C1825 0.930 . S
H1889 C1829 0.931 . S
H1890 C1830 0.959 . S
H1891 C1830 0.961 . S
H1892 C1830 0.959 . S
H1893 C1831 0.960 . S
H1894 C1831 0.960 . S
H1895 C1831 0.960 . S
H1896 C1867 0.980 . S
H1897 C1833 0.930 . S
H1898 C1837 0.930 . S
H1899 C1838 0.961 . S
H1900 C1838 0.960 . S
H1901 C1838 0.958 . S
H1902 C1839 0.961 . S
H1903 C1839 0.960 . S
H1904 C1839 0.960 . S
H1905 C1841 0.980 . S
H1906 C1840 0.961 . S
H1907 C1840 0.961 . S
H1908 C1840 0.959 . S
H1909 C1843 0.932 . S
H1910 C1847 0.929 . S
H1911 C1848 0.961 . S
H1912 C1848 0.959 . S
H1913 C1848 0.959 . S
H1914 C1849 0.960 . S
H1915 C1849 0.962 . S
H1916 C1849 0.961 . S
H1917 C1851 0.929 . S
H1918 C1854 0.930 . S
H1919 C1855 0.929 . S
H1920 C1858 0.930 . S
H1921 C1861 0.929 . S
H1922 C1862 0.930 . S
H1923 C1866 0.962 . S
H1924 C1866 0.959 . S
H1925 C1866 0.958 . S
C1926 C1927 1.560 . S
C1926 H1987 0.959 . S
C1926 H1988 0.959 . S
C1926 H1989 0.960 . S
C1927 C1926 1.560 . S
C1927 O1982 1.426 . S
C1927 H1986 0.980 . S
C1928 C1929 1.407 . S
C1928 C1933 1.418 . S
C1928 O1982 1.334 . S
C1929 C1928 1.407 . S
C1929 C1930 1.360 . S
C1929 H1990 0.929 . S
C1930 C1929 1.360 . S
C1930 C1931 1.401 . S
C1930 C1934 1.527 . S
C1931 C1930 1.401 . S
C1931 C1932 1.405 . S
C1931 C1964 1.587 . S
C1932 C1931 1.405 . S
C1932 C1933 1.332 . S
C1932 C1935 1.496 . S
C1933 C1928 1.418 . S
C1933 C1932 1.332 . S
C1933 H1991 0.929 . S
C1934 C1930 1.527 . S
C1934 H1992 0.959 . S
C1934 H1993 0.961 . S
C1934 H1994 0.961 . S
C1935 C1932 1.496 . S
C1935 H1995 0.960 . S
C1935 H1996 0.960 . S
C1935 H1997 0.961 . S
C1936 C1937 1.517 . S
C1936 H1999 0.961 . S
C1936 H2000 0.960 . S
C1936 H2001 0.959 . S
C1937 C1936 1.517 . S
C1937 O1985 1.468 . S
C1937 H1998 0.980 . S
C1938 C1939 1.349 . S
C1938 C1943 1.367 . S
C1938 O1985 1.408 . S
C1939 C1938 1.349 . S
C1939 C1940 1.407 . S
C1939 H2002 0.930 . S
C1940 C1939 1.407 . S
C1940 C1941 1.449 . S
C1940 C1944 1.535 . S
C1941 C1940 1.449 . S
C1941 C1942 1.384 . S
C1941 C1966 1.553 . S
C1942 C1941 1.384 . S
C1942 C1943 1.364 . S
C1942 C1945 1.450 . S
C1943 C1938 1.367 . S
C1943 C1942 1.364 . S
C1943 H2003 0.931 . S
C1944 C1940 1.535 . S
C1944 H2004 0.959 . S
C1944 H2005 0.961 . S
C1944 H2006 0.959 . S
C1945 C1942 1.450 . S
C1945 H2007 0.960 . S
C1945 H2008 0.960 . S
C1945 H2009 0.960 . S
C1946 C1947 1.309 . S
C1946 C1951 1.304 . S
C1946 O1984 1.435 . S
C1947 C1946 1.309 . S
C1947 C1948 1.476 . S
C1947 H2011 0.930 . S
C1948 C1947 1.476 . S
C1948 C1949 1.400 . S
C1948 C1952 1.567 . S
C1949 C1948 1.400 . S
C1949 C1950 1.373 . S
C1949 C1971 1.432 . S
C1950 C1949 1.373 . S
C1950 C1951 1.339 . S
C1950 C1953 1.530 . S
C1951 C1946 1.304 . S
C1951 C1950 1.339 . S
C1951 H2012 0.930 . S
C1952 C1948 1.567 . S
C1952 H2013 0.961 . S
C1952 H2014 0.960 . S
C1952 H2015 0.958 . S
C1953 C1950 1.530 . S
C1953 H2016 0.961 . S
C1953 H2017 0.960 . S
C1953 H2018 0.960 . S
C1954 C1955 1.530 . S
C1954 H2020 0.961 . S
C1954 H2021 0.961 . S
C1954 H2022 0.959 . S
C1955 C1954 1.530 . S
C1955 O1983 1.412 . S
C1955 H2019 0.980 . S
C1956 C1957 1.288 . S
C1956 C1961 1.377 . S
C1956 O1983 1.393 . S
C1957 C1956 1.288 . S
C1957 C1958 1.369 . S
C1957 H2023 0.932 . S
C1958 C1957 1.369 . S
C1958 C1959 1.398 . S
C1958 C1962 1.527 . S
C1959 C1958 1.398 . S
C1959 C1960 1.380 . S
C1959 C1973 1.497 . S
C1960 C1959 1.380 . S
C1960 C1961 1.383 . S
C1960 C1963 1.603 . S
C1961 C1956 1.377 . S
C1961 C1960 1.383 . S
C1961 H2024 0.929 . S
C1962 C1958 1.527 . S
C1962 H2025 0.961 . S
C1962 H2026 0.959 . S
C1962 H2027 0.959 . S
C1963 C1960 1.603 . S
C1963 H2028 0.960 . S
C1963 H2029 0.962 . S
C1963 H2030 0.961 . S
C1964 C1931 1.587 . S
C1964 C1965 1.360 . S
C1964 C1977 1.412 . S
C1965 C1964 1.360 . S
C1965 C1966 1.365 . S
C1965 H2031 0.929 . S
C1966 C1941 1.553 . S
C1966 C1965 1.365 . S
C1966 C1967 1.404 . S
C1967 C1966 1.404 . S
C1967 C1968 1.395 . S
C1967 C1978 1.451 . S
C1968 C1967 1.395 . S
C1968 C1969 1.322 . S
C1968 H2032 0.930 . S
C1969 C1968 1.322 . S
C1969 C1970 1.459 . S
C1969 H2033 0.929 . S
C1970 C1969 1.459 . S
C1970 C1971 1.445 . S
C1970 C1979 1.395 . S
C1971 C1949 1.432 . S
C1971 C1970 1.445 . S
C1971 C1972 1.370 . S
C1972 C1971 1.370 . S
C1972 C1973 1.438 . S
C1972 H2034 0.930 . S
C1973 C1959 1.497 . S
C1973 C1972 1.438 . S
C1973 C1974 1.360 . S
C1974 C1973 1.360 . S
C1974 C1975 1.401 . S
C1974 C1979 1.446 . S
C1975 C1974 1.401 . S
C1975 C1976 1.347 . S
C1975 H2035 0.929 . S
C1976 C1975 1.347 . S
C1976 C1977 1.455 . S
C1976 H2036 0.930 . S
C1977 C1964 1.412 . S
C1977 C1976 1.455 . S
C1977 C1978 1.331 . S
C1978 C1967 1.451 . S
C1978 C1977 1.331 . S
C1978 C1979 1.497 . S
C1979 C1970 1.395 . S
C1979 C1974 1.446 . S
C1979 C1978 1.497 . S
C1980 C1981 1.582 . S
C1980 H2037 0.962 . S
C1980 H2038 0.959 . S
C1980 H2039 0.958 . S
C1981 C1980 1.582 . S
C1981 O1984 1.458 . S
C1981 H2010 0.980 . S
O1982 C1927 1.426 . S
O1982 C1928 1.334 . S
O1983 C1955 1.412 . S
O1983 C1956 1.393 . S
O1984 C1946 1.435 . S
O1984 C1981 1.458 . S
O1985 C1937 1.468 . S
O1985 C1938 1.408 . S
H1986 C1927 0.980 . S
H1987 C1926 0.959 . S
H1988 C1926 0.959 . S
H1989 C1926 0.960 . S
H1990 C1929 0.929 . S
H1991 C1933 0.929 . S
H1992 C1934 0.959 . S
H1993 C1934 0.961 . S
H1994 C1934 0.961 . S
H1995 C1935 0.960 . S
H1996 C1935 0.960 . S
H1997 C1935 0.961 . S
H1998 C1937 0.980 . S
H1999 C1936 0.961 . S
H2000 C1936 0.960 . S
H2001 C1936 0.959 . S
H2002 C1939 0.930 . S
H2003 C1943 0.931 . S
H2004 C1944 0.959 . S
H2005 C1944 0.961 . S
H2006 C1944 0.959 . S
H2007 C1945 0.960 . S
H2008 C1945 0.960 . S
H2009 C1945 0.960 . S
H2010 C1981 0.980 . S
H2011 C1947 0.930 . S
H2012 C1951 0.930 . S
H2013 C1952 0.961 . S
H2014 C1952 0.960 . S
H2015 C1952 0.958 . S
H2016 C1953 0.961 . S
H2017 C1953 0.960 . S
H2018 C1953 0.960 . S
H2019 C1955 0.980 . S
H2020 C1954 0.961 . S
H2021 C1954 0.961 . S
H2022 C1954 0.959 . S
H2023 C1957 0.932 . S
H2024 C1961 0.929 . S
H2025 C1962 0.961 . S
H2026 C1962 0.959 . S
H2027 C1962 0.959 . S
H2028 C1963 0.960 . S
H2029 C1963 0.962 . S
H2030 C1963 0.961 . S
H2031 C1965 0.929 . S
H2032 C1968 0.930 . S
H2033 C1969 0.929 . S
H2034 C1972 0.930 . S
H2035 C1975 0.929 . S
H2036 C1976 0.930 . S
H2037 C1980 0.962 . S
H2038 C1980 0.959 . S
H2039 C1980 0.958 . S
C2040 C2041 1.560 . S
C2040 H2101 0.959 . S
C2040 H2102 0.959 . S
C2040 H2103 0.960 . S
C2041 C2040 1.560 . S
C2041 O2096 1.426 . S
C2041 H2100 0.980 . S
C2042 C2043 1.407 . S
C2042 C2047 1.418 . S
C2042 O2096 1.334 . S
C2043 C2042 1.407 . S
C2043 C2044 1.360 . S
C2043 H2104 0.929 . S
C2044 C2043 1.360 . S
C2044 C2045 1.401 . S
C2044 C2048 1.527 . S
C2045 C2044 1.401 . S
C2045 C2046 1.405 . S
C2045 C2078 1.587 . S
C2046 C2045 1.405 . S
C2046 C2047 1.332 . S
C2046 C2049 1.496 . S
C2047 C2042 1.418 . S
C2047 C2046 1.332 . S
C2047 H2105 0.929 . S
C2048 C2044 1.527 . S
C2048 H2106 0.959 . S
C2048 H2107 0.961 . S
C2048 H2108 0.961 . S
C2049 C2046 1.496 . S
C2049 H2109 0.960 . S
C2049 H2110 0.960 . S
C2049 H2111 0.961 . S
C2050 C2051 1.517 . S
C2050 H2113 0.961 . S
C2050 H2114 0.960 . S
C2050 H2115 0.959 . S
C2051 C2050 1.517 . S
C2051 O2099 1.468 . S
C2051 H2112 0.980 . S
C2052 C2053 1.349 . S
C2052 C2057 1.367 . S
C2052 O2099 1.408 . S
C2053 C2052 1.349 . S
C2053 C2054 1.407 . S
C2053 H2116 0.930 . S
C2054 C2053 1.407 . S
C2054 C2055 1.449 . S
C2054 C2058 1.535 . S
C2055 C2054 1.449 . S
C2055 C2056 1.384 . S
C2055 C2080 1.553 . S
C2056 C2055 1.384 . S
C2056 C2057 1.364 . S
C2056 C2059 1.450 . S
C2057 C2052 1.367 . S
C2057 C2056 1.364 . S
C2057 H2117 0.931 . S
C2058 C2054 1.535 . S
C2058 H2118 0.959 . S
C2058 H2119 0.961 . S
C2058 H2120 0.959 . S
C2059 C2056 1.450 . S
C2059 H2121 0.960 . S
C2059 H2122 0.960 . S
C2059 H2123 0.960 . S
C2060 C2061 1.309 . S
C2060 C2065 1.304 . S
C2060 O2098 1.435 . S
C2061 C2060 1.309 . S
C2061 C2062 1.476 . S
C2061 H2125 0.930 . S
C2062 C2061 1.476 . S
C2062 C2063 1.400 . S
C2062 C2066 1.567 . S
C2063 C2062 1.400 . S
C2063 C2064 1.373 . S
C2063 C2085 1.432 . S
C2064 C2063 1.373 . S
C2064 C2065 1.339 . S
C2064 C2067 1.530 . S
C2065 C2060 1.304 . S
C2065 C2064 1.339 . S
C2065 H2126 0.930 . S
C2066 C2062 1.567 . S
C2066 H2127 0.961 . S
C2066 H2128 0.960 . S
C2066 H2129 0.958 . S
C2067 C2064 1.530 . S
C2067 H2130 0.961 . S
C2067 H2131 0.960 . S
C2067 H2132 0.960 . S
C2068 C2069 1.530 . S
C2068 H2134 0.961 . S
C2068 H2135 0.961 . S
C2068 H2136 0.959 . S
C2069 C2068 1.530 . S
C2069 O2097 1.412 . S
C2069 H2133 0.980 . S
C2070 C2071 1.288 . S
C2070 C2075 1.377 . S
C2070 O2097 1.393 . S
C2071 C2070 1.288 . S
C2071 C2072 1.369 . S
C2071 H2137 0.932 . S
C2072 C2071 1.369 . S
C2072 C2073 1.398 . S
C2072 C2076 1.527 . S
C2073 C2072 1.398 . S
C2073 C2074 1.380 . S
C2073 C2087 1.497 . S
C2074 C2073 1.380 . S
C2074 C2075 1.383 . S
C2074 C2077 1.603 . S
C2075 C2070 1.377 . S
C2075 C2074 1.383 . S
C2075 H2138 0.929 . S
C2076 C2072 1.527 . S
C2076 H2139 0.961 . S
C2076 H2140 0.959 . S
C2076 H2141 0.959 . S
C2077 C2074 1.603 . S
C2077 H2142 0.960 . S
C2077 H2143 0.962 . S
C2077 H2144 0.961 . S
C2078 C2045 1.587 . S
C2078 C2079 1.360 . S
C2078 C2091 1.412 . S
C2079 C2078 1.360 . S
C2079 C2080 1.365 . S
C2079 H2145 0.929 . S
C2080 C2055 1.553 . S
C2080 C2079 1.365 . S
C2080 C2081 1.404 . S
C2081 C2080 1.404 . S
C2081 C2082 1.395 . S
C2081 C2092 1.451 . S
C2082 C2081 1.395 . S
C2082 C2083 1.322 . S
C2082 H2146 0.930 . S
C2083 C2082 1.322 . S
C2083 C2084 1.459 . S
C2083 H2147 0.929 . S
C2084 C2083 1.459 . S
C2084 C2085 1.445 . S
C2084 C2093 1.395 . S
C2085 C2063 1.432 . S
C2085 C2084 1.445 . S
C2085 C2086 1.370 . S
C2086 C2085 1.370 . S
C2086 C2087 1.438 . S
C2086 H2148 0.930 . S
C2087 C2073 1.497 . S
C2087 C2086 1.438 . S
C2087 C2088 1.360 . S
C2088 C2087 1.360 . S
C2088 C2089 1.401 . S
C2088 C2093 1.446 . S
C2089 C2088 1.401 . S
C2089 C2090 1.347 . S
C2089 H2149 0.929 . S
C2090 C2089 1.347 . S
C2090 C2091 1.455 . S
C2090 H2150 0.930 . S
C2091 C2078 1.412 . S
C2091 C2090 1.455 . S
C2091 C2092 1.331 . S
C2092 C2081 1.451 . S
C2092 C2091 1.331 . S
C2092 C2093 1.497 . S
C2093 C2084 1.395 . S
C2093 C2088 1.446 . S
C2093 C2092 1.497 . S
C2094 C2095 1.582 . S
C2094 H2151 0.962 . S
C2094 H2152 0.959 . S
C2094 H2153 0.958 . S
C2095 C2094 1.582 . S
C2095 O2098 1.458 . S
C2095 H2124 0.980 . S
O2096 C2041 1.426 . S
O2096 C2042 1.334 . S
O2097 C2069 1.412 . S
O2097 C2070 1.393 . S
O2098 C2060 1.435 . S
O2098 C2095 1.458 . S
O2099 C2051 1.468 . S
O2099 C2052 1.408 . S
H2100 C2041 0.980 . S
H2101 C2040 0.959 . S
H2102 C2040 0.959 . S
H2103 C2040 0.960 . S
H2104 C2043 0.929 . S
H2105 C2047 0.929 . S
H2106 C2048 0.959 . S
H2107 C2048 0.961 . S
H2108 C2048 0.961 . S
H2109 C2049 0.960 . S
H2110 C2049 0.960 . S
H2111 C2049 0.961 . S
H2112 C2051 0.980 . S
H2113 C2050 0.961 . S
H2114 C2050 0.960 . S
H2115 C2050 0.959 . S
H2116 C2053 0.930 . S
H2117 C2057 0.931 . S
H2118 C2058 0.959 . S
H2119 C2058 0.961 . S
H2120 C2058 0.959 . S
H2121 C2059 0.960 . S
H2122 C2059 0.960 . S
H2123 C2059 0.960 . S
H2124 C2095 0.980 . S
H2125 C2061 0.930 . S
H2126 C2065 0.930 . S
H2127 C2066 0.961 . S
H2128 C2066 0.960 . S
H2129 C2066 0.958 . S
H2130 C2067 0.961 . S
H2131 C2067 0.960 . S
H2132 C2067 0.960 . S
H2133 C2069 0.980 . S
H2134 C2068 0.961 . S
H2135 C2068 0.961 . S
H2136 C2068 0.959 . S
H2137 C2071 0.932 . S
H2138 C2075 0.929 . S
H2139 C2076 0.961 . S
H2140 C2076 0.959 . S
H2141 C2076 0.959 . S
H2142 C2077 0.960 . S
H2143 C2077 0.962 . S
H2144 C2077 0.961 . S
H2145 C2079 0.929 . S
H2146 C2082 0.930 . S
H2147 C2083 0.929 . S
H2148 C2086 0.930 . S
H2149 C2089 0.929 . S
H2150 C2090 0.930 . S
H2151 C2094 0.962 . S
H2152 C2094 0.959 . S
H2153 C2094 0.958 . S
C2154 C2155 1.560 . S
C2154 H2215 0.959 . S
C2154 H2216 0.959 . S
C2154 H2217 0.960 . S
C2155 C2154 1.560 . S
C2155 O2210 1.426 . S
C2155 H2214 0.980 . S
C2156 C2157 1.407 . S
C2156 C2161 1.418 . S
C2156 O2210 1.334 . S
C2157 C2156 1.407 . S
C2157 C2158 1.360 . S
C2157 H2218 0.929 . S
C2158 C2157 1.360 . S
C2158 C2159 1.401 . S
C2158 C2162 1.527 . S
C2159 C2158 1.401 . S
C2159 C2160 1.405 . S
C2159 C2192 1.587 . S
C2160 C2159 1.405 . S
C2160 C2161 1.332 . S
C2160 C2163 1.496 . S
C2161 C2156 1.418 . S
C2161 C2160 1.332 . S
C2161 H2219 0.929 . S
C2162 C2158 1.527 . S
C2162 H2220 0.959 . S
C2162 H2221 0.961 . S
C2162 H2222 0.961 . S
C2163 C2160 1.496 . S
C2163 H2223 0.960 . S
C2163 H2224 0.960 . S
C2163 H2225 0.961 . S
C2164 C2165 1.517 . S
C2164 H2227 0.961 . S
C2164 H2228 0.960 . S
C2164 H2229 0.959 . S
C2165 C2164 1.517 . S
C2165 O2213 1.468 . S
C2165 H2226 0.980 . S
C2166 C2167 1.349 . S
C2166 C2171 1.367 . S
C2166 O2213 1.408 . S
C2167 C2166 1.349 . S
C2167 C2168 1.407 . S
C2167 H2230 0.930 . S
C2168 C2167 1.407 . S
C2168 C2169 1.449 . S
C2168 C2172 1.535 . S
C2169 C2168 1.449 . S
C2169 C2170 1.384 . S
C2169 C2194 1.553 . S
C2170 C2169 1.384 . S
C2170 C2171 1.364 . S
C2170 C2173 1.450 . S
C2171 C2166 1.367 . S
C2171 C2170 1.364 . S
C2171 H2231 0.931 . S
C2172 C2168 1.535 . S
C2172 H2232 0.959 . S
C2172 H2233 0.961 . S
C2172 H2234 0.959 . S
C2173 C2170 1.450 . S
C2173 H2235 0.960 . S
C2173 H2236 0.960 . S
C2173 H2237 0.960 . S
C2174 C2175 1.309 . S
C2174 C2179 1.304 . S
C2174 O2212 1.435 . S
C2175 C2174 1.309 . S
C2175 C2176 1.476 . S
C2175 H2239 0.930 . S
C2176 C2175 1.476 . S
C2176 C2177 1.400 . S
C2176 C2180 1.567 . S
C2177 C2176 1.400 . S
C2177 C2178 1.373 . S
C2177 C2199 1.432 . S
C2178 C2177 1.373 . S
C2178 C2179 1.339 . S
C2178 C2181 1.530 . S
C2179 C2174 1.304 . S
C2179 C2178 1.339 . S
C2179 H2240 0.930 . S
C2180 C2176 1.567 . S
C2180 H2241 0.961 . S
C2180 H2242 0.960 . S
C2180 H2243 0.958 . S
C2181 C2178 1.530 . S
C2181 H2244 0.961 . S
C2181 H2245 0.960 . S
C2181 H2246 0.960 . S
C2182 C2183 1.530 . S
C2182 H2248 0.961 . S
C2182 H2249 0.961 . S
C2182 H2250 0.959 . S
C2183 C2182 1.530 . S
C2183 O2211 1.412 . S
C2183 H2247 0.980 . S
C2184 C2185 1.288 . S
C2184 C2189 1.377 . S
C2184 O2211 1.393 . S
C2185 C2184 1.288 . S
C2185 C2186 1.369 . S
C2185 H2251 0.932 . S
C2186 C2185 1.369 . S
C2186 C2187 1.398 . S
C2186 C2190 1.527 . S
C2187 C2186 1.398 . S
C2187 C2188 1.380 . S
C2187 C2201 1.497 . S
C2188 C2187 1.380 . S
C2188 C2189 1.383 . S
C2188 C2191 1.603 . S
C2189 C2184 1.377 . S
C2189 C2188 1.383 . S
C2189 H2252 0.929 . S
C2190 C2186 1.527 . S
C2190 H2253 0.961 . S
C2190 H2254 0.959 . S
C2190 H2255 0.959 . S
C2191 C2188 1.603 . S
C2191 H2256 0.960 . S
C2191 H2257 0.962 . S
C2191 H2258 0.961 . S
C2192 C2159 1.587 . S
C2192 C2193 1.360 . S
C2192 C2205 1.412 . S
C2193 C2192 1.360 . S
C2193 C2194 1.365 . S
C2193 H2259 0.929 . S
C2194 C2169 1.553 . S
C2194 C2193 1.365 . S
C2194 C2195 1.404 . S
C2195 C2194 1.404 . S
C2195 C2196 1.395 . S
C2195 C2206 1.451 . S
C2196 C2195 1.395 . S
C2196 C2197 1.322 . S
C2196 H2260 0.930 . S
C2197 C2196 1.322 . S
C2197 C2198 1.459 . S
C2197 H2261 0.929 . S
C2198 C2197 1.459 . S
C2198 C2199 1.445 . S
C2198 C2207 1.395 . S
C2199 C2177 1.432 . S
C2199 C2198 1.445 . S
C2199 C2200 1.370 . S
C2200 C2199 1.370 . S
C2200 C2201 1.438 . S
C2200 H2262 0.930 . S
C2201 C2187 1.497 . S
C2201 C2200 1.438 . S
C2201 C2202 1.360 . S
C2202 C2201 1.360 . S
C2202 C2203 1.401 . S
C2202 C2207 1.446 . S
C2203 C2202 1.401 . S
C2203 C2204 1.347 . S
C2203 H2263 0.929 . S
C2204 C2203 1.347 . S
C2204 C2205 1.455 . S
C2204 H2264 0.930 . S
C2205 C2192 1.412 . S
C2205 C2204 1.455 . S
C2205 C2206 1.331 . S
C2206 C2195 1.451 . S
C2206 C2205 1.331 . S
C2206 C2207 1.497 . S
C2207 C2198 1.395 . S
C2207 C2202 1.446 . S
C2207 C2206 1.497 . S
C2208 C2209 1.582 . S
C2208 H2265 0.962 . S
C2208 H2266 0.959 . S
C2208 H2267 0.958 . S
C2209 C2208 1.582 . S
C2209 O2212 1.458 . S
C2209 H2238 0.980 . S
O2210 C2155 1.426 . S
O2210 C2156 1.334 . S
O2211 C2183 1.412 . S
O2211 C2184 1.393 . S
O2212 C2174 1.435 . S
O2212 C2209 1.458 . S
O2213 C2165 1.468 . S
O2213 C2166 1.408 . S
H2214 C2155 0.980 . S
H2215 C2154 0.959 . S
H2216 C2154 0.959 . S
H2217 C2154 0.960 . S
H2218 C2157 0.929 . S
H2219 C2161 0.929 . S
H2220 C2162 0.959 . S
H2221 C2162 0.961 . S
H2222 C2162 0.961 . S
H2223 C2163 0.960 . S
H2224 C2163 0.960 . S
H2225 C2163 0.961 . S
H2226 C2165 0.980 . S
H2227 C2164 0.961 . S
H2228 C2164 0.960 . S
H2229 C2164 0.959 . S
H2230 C2167 0.930 . S
H2231 C2171 0.931 . S
H2232 C2172 0.959 . S
H2233 C2172 0.961 . S
H2234 C2172 0.959 . S
H2235 C2173 0.960 . S
H2236 C2173 0.960 . S
H2237 C2173 0.960 . S
H2238 C2209 0.980 . S
H2239 C2175 0.930 . S
H2240 C2179 0.930 . S
H2241 C2180 0.961 . S
H2242 C2180 0.960 . S
H2243 C2180 0.958 . S
H2244 C2181 0.961 . S
H2245 C2181 0.960 . S
H2246 C2181 0.960 . S
H2247 C2183 0.980 . S
H2248 C2182 0.961 . S
H2249 C2182 0.961 . S
H2250 C2182 0.959 . S
H2251 C2185 0.932 . S
H2252 C2189 0.929 . S
H2253 C2190 0.961 . S
H2254 C2190 0.959 . S
H2255 C2190 0.959 . S
H2256 C2191 0.960 . S
H2257 C2191 0.962 . S
H2258 C2191 0.961 . S
H2259 C2193 0.929 . S
H2260 C2196 0.930 . S
H2261 C2197 0.929 . S
H2262 C2200 0.930 . S
H2263 C2203 0.929 . S
H2264 C2204 0.930 . S
H2265 C2208 0.962 . S
H2266 C2208 0.959 . S
H2267 C2208 0.958 . S
C2268 C2269 1.560 . S
C2268 H2329 0.959 . S
C2268 H2330 0.959 . S
C2268 H2331 0.960 . S
C2269 C2268 1.560 . S
C2269 O2324 1.426 . S
C2269 H2328 0.980 . S
C2270 C2271 1.407 . S
C2270 C2275 1.418 . S
C2270 O2324 1.334 . S
C2271 C2270 1.407 . S
C2271 C2272 1.360 . S
C2271 H2332 0.929 . S
C2272 C2271 1.360 . S
C2272 C2273 1.401 . S
C2272 C2276 1.527 . S
C2273 C2272 1.401 . S
C2273 C2274 1.405 . S
C2273 C2306 1.587 . S
C2274 C2273 1.405 . S
C2274 C2275 1.332 . S
C2274 C2277 1.496 . S
C2275 C2270 1.418 . S
C2275 C2274 1.332 . S
C2275 H2333 0.929 . S
C2276 C2272 1.527 . S
C2276 H2334 0.959 . S
C2276 H2335 0.961 . S
C2276 H2336 0.961 . S
C2277 C2274 1.496 . S
C2277 H2337 0.960 . S
C2277 H2338 0.960 . S
C2277 H2339 0.961 . S
C2278 C2279 1.517 . S
C2278 H2341 0.961 . S
C2278 H2342 0.960 . S
C2278 H2343 0.959 . S
C2279 C2278 1.517 . S
C2279 O2327 1.468 . S
C2279 H2340 0.980 . S
C2280 C2281 1.349 . S
C2280 C2285 1.367 . S
C2280 O2327 1.408 . S
C2281 C2280 1.349 . S
C2281 C2282 1.407 . S
C2281 H2344 0.930 . S
C2282 C2281 1.407 . S
C2282 C2283 1.449 . S
C2282 C2286 1.535 . S
C2283 C2282 1.449 . S
C2283 C2284 1.384 . S
C2283 C2308 1.553 . S
C2284 C2283 1.384 . S
C2284 C2285 1.364 . S
C2284 C2287 1.450 . S
C2285 C2280 1.367 . S
C2285 C2284 1.364 . S
C2285 H2345 0.931 . S
C2286 C2282 1.535 . S
C2286 H2346 0.959 . S
C2286 H2347 0.961 . S
C2286 H2348 0.959 . S
C2287 C2284 1.450 . S
C2287 H2349 0.960 . S
C2287 H2350 0.960 . S
C2287 H2351 0.960 . S
C2288 C2289 1.309 . S
C2288 C2293 1.304 . S
C2288 O2326 1.435 . S
C2289 C2288 1.309 . S
C2289 C2290 1.476 . S
C2289 H2353 0.930 . S
C2290 C2289 1.476 . S
C2290 C2291 1.400 . S
C2290 C2294 1.567 . S
C2291 C2290 1.400 . S
C2291 C2292 1.373 . S
C2291 C2313 1.432 . S
C2292 C2291 1.373 . S
C2292 C2293 1.339 . S
C2292 C2295 1.530 . S
C2293 C2288 1.304 . S
C2293 C2292 1.339 . S
C2293 H2354 0.930 . S
C2294 C2290 1.567 . S
C2294 H2355 0.961 . S
C2294 H2356 0.960 . S
C2294 H2357 0.958 . S
C2295 C2292 1.530 . S
C2295 H2358 0.961 . S
C2295 H2359 0.960 . S
C2295 H2360 0.960 . S
C2296 C2297 1.530 . S
C2296 H2362 0.961 . S
C2296 H2363 0.961 . S
C2296 H2364 0.959 . S
C2297 C2296 1.530 . S
C2297 O2325 1.412 . S
C2297 H2361 0.980 . S
C2298 C2299 1.288 . S
C2298 C2303 1.377 . S
C2298 O2325 1.393 . S
C2299 C2298 1.288 . S
C2299 C2300 1.369 . S
C2299 H2365 0.932 . S
C2300 C2299 1.369 . S
C2300 C2301 1.398 . S
C2300 C2304 1.527 . S
C2301 C2300 1.398 . S
C2301 C2302 1.380 . S
C2301 C2315 1.497 . S
C2302 C2301 1.380 . S
C2302 C2303 1.383 . S
C2302 C2305 1.603 . S
C2303 C2298 1.377 . S
C2303 C2302 1.383 . S
C2303 H2366 0.929 . S
C2304 C2300 1.527 . S
C2304 H2367 0.961 . S
C2304 H2368 0.959 . S
C2304 H2369 0.959 . S
C2305 C2302 1.603 . S
C2305 H2370 0.960 . S
C2305 H2371 0.962 . S
C2305 H2372 0.961 . S
C2306 C2273 1.587 . S
C2306 C2307 1.360 . S
C2306 C2319 1.412 . S
C2307 C2306 1.360 . S
C2307 C2308 1.365 . S
C2307 H2373 0.929 . S
C2308 C2283 1.553 . S
C2308 C2307 1.365 . S
C2308 C2309 1.404 . S
C2309 C2308 1.404 . S
C2309 C2310 1.395 . S
C2309 C2320 1.451 . S
C2310 C2309 1.395 . S
C2310 C2311 1.322 . S
C2310 H2374 0.930 . S
C2311 C2310 1.322 . S
C2311 C2312 1.459 . S
C2311 H2375 0.929 . S
C2312 C2311 1.459 . S
C2312 C2313 1.445 . S
C2312 C2321 1.395 . S
C2313 C2291 1.432 . S
C2313 C2312 1.445 . S
C2313 C2314 1.370 . S
C2314 C2313 1.370 . S
C2314 C2315 1.438 . S
C2314 H2376 0.930 . S
C2315 C2301 1.497 . S
C2315 C2314 1.438 . S
C2315 C2316 1.360 . S
C2316 C2315 1.360 . S
C2316 C2317 1.401 . S
C2316 C2321 1.446 . S
C2317 C2316 1.401 . S
C2317 C2318 1.347 . S
C2317 H2377 0.929 . S
C2318 C2317 1.347 . S
C2318 C2319 1.455 . S
C2318 H2378 0.930 . S
C2319 C2306 1.412 . S
C2319 C2318 1.455 . S
C2319 C2320 1.331 . S
C2320 C2309 1.451 . S
C2320 C2319 1.331 . S
C2320 C2321 1.497 . S
C2321 C2312 1.395 . S
C2321 C2316 1.446 . S
C2321 C2320 1.497 . S
C2322 C2323 1.582 . S
C2322 H2379 0.962 . S
C2322 H2380 0.959 . S
C2322 H2381 0.958 . S
C2323 C2322 1.582 . S
C2323 O2326 1.458 . S
C2323 H2352 0.980 . S
O2324 C2269 1.426 . S
O2324 C2270 1.334 . S
O2325 C2297 1.412 . S
O2325 C2298 1.393 . S
O2326 C2288 1.435 . S
O2326 C2323 1.458 . S
O2327 C2279 1.468 . S
O2327 C2280 1.408 . S
H2328 C2269 0.980 . S
H2329 C2268 0.959 . S
H2330 C2268 0.959 . S
H2331 C2268 0.960 . S
H2332 C2271 0.929 . S
H2333 C2275 0.929 . S
H2334 C2276 0.959 . S
H2335 C2276 0.961 . S
H2336 C2276 0.961 . S
H2337 C2277 0.960 . S
H2338 C2277 0.960 . S
H2339 C2277 0.961 . S
H2340 C2279 0.980 . S
H2341 C2278 0.961 . S
H2342 C2278 0.960 . S
H2343 C2278 0.959 . S
H2344 C2281 0.930 . S
H2345 C2285 0.931 . S
H2346 C2286 0.959 . S
H2347 C2286 0.961 . S
H2348 C2286 0.959 . S
H2349 C2287 0.960 . S
H2350 C2287 0.960 . S
H2351 C2287 0.960 . S
H2352 C2323 0.980 . S
H2353 C2289 0.930 . S
H2354 C2293 0.930 . S
H2355 C2294 0.961 . S
H2356 C2294 0.960 . S
H2357 C2294 0.958 . S
H2358 C2295 0.961 . S
H2359 C2295 0.960 . S
H2360 C2295 0.960 . S
H2361 C2297 0.980 . S
H2362 C2296 0.961 . S
H2363 C2296 0.961 . S
H2364 C2296 0.959 . S
H2365 C2299 0.932 . S
H2366 C2303 0.929 . S
H2367 C2304 0.961 . S
H2368 C2304 0.959 . S
H2369 C2304 0.959 . S
H2370 C2305 0.960 . S
H2371 C2305 0.962 . S
H2372 C2305 0.961 . S
H2373 C2307 0.929 . S
H2374 C2310 0.930 . S
H2375 C2311 0.929 . S
H2376 C2314 0.930 . S
H2377 C2317 0.929 . S
H2378 C2318 0.930 . S
H2379 C2322 0.962 . S
H2380 C2322 0.959 . S
H2381 C2322 0.958 . S
C2382 C2383 1.560 . S
C2382 H2443 0.959 . S
C2382 H2444 0.959 . S
C2382 H2445 0.960 . S
C2383 C2382 1.560 . S
C2383 O2438 1.426 . S
C2383 H2442 0.980 . S
C2384 C2385 1.407 . S
C2384 C2389 1.418 . S
C2384 O2438 1.334 . S
C2385 C2384 1.407 . S
C2385 C2386 1.360 . S
C2385 H2446 0.929 . S
C2386 C2385 1.360 . S
C2386 C2387 1.401 . S
C2386 C2390 1.527 . S
C2387 C2386 1.401 . S
C2387 C2388 1.405 . S
C2387 C2420 1.587 . S
C2388 C2387 1.405 . S
C2388 C2389 1.332 . S
C2388 C2391 1.496 . S
C2389 C2384 1.418 . S
C2389 C2388 1.332 . S
C2389 H2447 0.929 . S
C2390 C2386 1.527 . S
C2390 H2448 0.959 . S
C2390 H2449 0.961 . S
C2390 H2450 0.961 . S
C2391 C2388 1.496 . S
C2391 H2451 0.960 . S
C2391 H2452 0.960 . S
C2391 H2453 0.961 . S
C2392 C2393 1.517 . S
C2392 H2455 0.961 . S
C2392 H2456 0.960 . S
C2392 H2457 0.959 . S
C2393 C2392 1.517 . S
C2393 O2441 1.468 . S
C2393 H2454 0.980 . S
C2394 C2395 1.349 . S
C2394 C2399 1.367 . S
C2394 O2441 1.408 . S
C2395 C2394 1.349 . S
C2395 C2396 1.407 . S
C2395 H2458 0.930 . S
C2396 C2395 1.407 . S
C2396 C2397 1.449 . S
C2396 C2400 1.535 . S
C2397 C2396 1.449 . S
C2397 C2398 1.384 . S
C2397 C2422 1.553 . S
C2398 C2397 1.384 . S
C2398 C2399 1.364 . S
C2398 C2401 1.450 . S
C2399 C2394 1.367 . S
C2399 C2398 1.364 . S
C2399 H2459 0.931 . S
C2400 C2396 1.535 . S
C2400 H2460 0.959 . S
C2400 H2461 0.961 . S
C2400 H2462 0.959 . S
C2401 C2398 1.450 . S
C2401 H2463 0.960 . S
C2401 H2464 0.960 . S
C2401 H2465 0.960 . S
C2402 C2403 1.309 . S
C2402 C2407 1.304 . S
C2402 O2440 1.435 . S
C2403 C2402 1.309 . S
C2403 C2404 1.476 . S
C2403 H2467 0.930 . S
C2404 C2403 1.476 . S
C2404 C2405 1.400 . S
C2404 C2408 1.567 . S
C2405 C2404 1.400 . S
C2405 C2406 1.373 . S
C2405 C2427 1.432 . S
C2406 C2405 1.373 . S
C2406 C2407 1.339 . S
C2406 C2409 1.530 . S
C2407 C2402 1.304 . S
C2407 C2406 1.339 . S
C2407 H2468 0.930 . S
C2408 C2404 1.567 . S
C2408 H2469 0.961 . S
C2408 H2470 0.960 . S
C2408 H2471 0.958 . S
C2409 C2406 1.530 . S
C2409 H2472 0.961 . S
C2409 H2473 0.960 . S
C2409 H2474 0.960 . S
C2410 C2411 1.530 . S
C2410 H2476 0.961 . S
C2410 H2477 0.961 . S
C2410 H2478 0.959 . S
C2411 C2410 1.530 . S
C2411 O2439 1.412 . S
C2411 H2475 0.980 . S
C2412 C2413 1.288 . S
C2412 C2417 1.377 . S
C2412 O2439 1.393 . S
C2413 C2412 1.288 . S
C2413 C2414 1.369 . S
C2413 H2479 0.932 . S
C2414 C2413 1.369 . S
C2414 C2415 1.398 . S
C2414 C2418 1.527 . S
C2415 C2414 1.398 . S
C2415 C2416 1.380 . S
C2415 C2429 1.497 . S
C2416 C2415 1.380 . S
C2416 C2417 1.383 . S
C2416 C2419 1.603 . S
C2417 C2412 1.377 . S
C2417 C2416 1.383 . S
C2417 H2480 0.929 . S
C2418 C2414 1.527 . S
C2418 H2481 0.961 . S
C2418 H2482 0.959 . S
C2418 H2483 0.959 . S
C2419 C2416 1.603 . S
C2419 H2484 0.960 . S
C2419 H2485 0.962 . S
C2419 H2486 0.961 . S
C2420 C2387 1.587 . S
C2420 C2421 1.360 . S
C2420 C2433 1.412 . S
C2421 C2420 1.360 . S
C2421 C2422 1.365 . S
C2421 H2487 0.929 . S
C2422 C2397 1.553 . S
C2422 C2421 1.365 . S
C2422 C2423 1.404 . S
C2423 C2422 1.404 . S
C2423 C2424 1.395 . S
C2423 C2434 1.451 . S
C2424 C2423 1.395 . S
C2424 C2425 1.322 . S
C2424 H2488 0.930 . S
C2425 C2424 1.322 . S
C2425 C2426 1.459 . S
C2425 H2489 0.929 . S
C2426 C2425 1.459 . S
C2426 C2427 1.445 . S
C2426 C2435 1.395 . S
C2427 C2405 1.432 . S
C2427 C2426 1.445 . S
C2427 C2428 1.370 . S
C2428 C2427 1.370 . S
C2428 C2429 1.438 . S
C2428 H2490 0.930 . S
C2429 C2415 1.497 . S
C2429 C2428 1.438 . S
C2429 C2430 1.360 . S
C2430 C2429 1.360 . S
C2430 C2431 1.401 . S
C2430 C2435 1.446 . S
C2431 C2430 1.401 . S
C2431 C2432 1.347 . S
C2431 H2491 0.929 . S
C2432 C2431 1.347 . S
C2432 C2433 1.455 . S
C2432 H2492 0.930 . S
C2433 C2420 1.412 . S
C2433 C2432 1.455 . S
C2433 C2434 1.331 . S
C2434 C2423 1.451 . S
C2434 C2433 1.331 . S
C2434 C2435 1.497 . S
C2435 C2426 1.395 . S
C2435 C2430 1.446 . S
C2435 C2434 1.497 . S
C2436 C2437 1.582 . S
C2436 H2493 0.962 . S
C2436 H2494 0.959 . S
C2436 H2495 0.958 . S
C2437 C2436 1.582 . S
C2437 O2440 1.458 . S
C2437 H2466 0.980 . S
O2438 C2383 1.426 . S
O2438 C2384 1.334 . S
O2439 C2411 1.412 . S
O2439 C2412 1.393 . S
O2440 C2402 1.435 . S
O2440 C2437 1.458 . S
O2441 C2393 1.468 . S
O2441 C2394 1.408 . S
H2442 C2383 0.980 . S
H2443 C2382 0.959 . S
H2444 C2382 0.959 . S
H2445 C2382 0.960 . S
H2446 C2385 0.929 . S
H2447 C2389 0.929 . S
H2448 C2390 0.959 . S
H2449 C2390 0.961 . S
H2450 C2390 0.961 . S
H2451 C2391 0.960 . S
H2452 C2391 0.960 . S
H2453 C2391 0.961 . S
H2454 C2393 0.980 . S
H2455 C2392 0.961 . S
H2456 C2392 0.960 . S
H2457 C2392 0.959 . S
H2458 C2395 0.930 . S
H2459 C2399 0.931 . S
H2460 C2400 0.959 . S
H2461 C2400 0.961 . S
H2462 C2400 0.959 . S
H2463 C2401 0.960 . S
H2464 C2401 0.960 . S
H2465 C2401 0.960 . S
H2466 C2437 0.980 . S
H2467 C2403 0.930 . S
H2468 C2407 0.930 . S
H2469 C2408 0.961 . S
H2470 C2408 0.960 . S
H2471 C2408 0.958 . S
H2472 C2409 0.961 . S
H2473 C2409 0.960 . S
H2474 C2409 0.960 . S
H2475 C2411 0.980 . S
H2476 C2410 0.961 . S
H2477 C2410 0.961 . S
H2478 C2410 0.959 . S
H2479 C2413 0.932 . S
H2480 C2417 0.929 . S
H2481 C2418 0.961 . S
H2482 C2418 0.959 . S
H2483 C2418 0.959 . S
H2484 C2419 0.960 . S
H2485 C2419 0.962 . S
H2486 C2419 0.961 . S
H2487 C2421 0.929 . S
H2488 C2424 0.930 . S
H2489 C2425 0.929 . S
H2490 C2428 0.930 . S
H2491 C2431 0.929 . S
H2492 C2432 0.930 . S
H2493 C2436 0.962 . S
H2494 C2436 0.959 . S
H2495 C2436 0.958 . S
C2496 C2497 1.560 . S
C2496 H2557 0.959 . S
C2496 H2558 0.959 . S
C2496 H2559 0.960 . S
C2497 C2496 1.560 . S
C2497 O2552 1.426 . S
C2497 H2556 0.980 . S
C2498 C2499 1.407 . S
C2498 C2503 1.418 . S
C2498 O2552 1.334 . S
C2499 C2498 1.407 . S
C2499 C2500 1.360 . S
C2499 H2560 0.929 . S
C2500 C2499 1.360 . S
C2500 C2501 1.401 . S
C2500 C2504 1.527 . S
C2501 C2500 1.401 . S
C2501 C2502 1.405 . S
C2501 C2534 1.587 . S
C2502 C2501 1.405 . S
C2502 C2503 1.332 . S
C2502 C2505 1.496 . S
C2503 C2498 1.418 . S
C2503 C2502 1.332 . S
C2503 H2561 0.929 . S
C2504 C2500 1.527 . S
C2504 H2562 0.959 . S
C2504 H2563 0.961 . S
C2504 H2564 0.961 . S
C2505 C2502 1.496 . S
C2505 H2565 0.960 . S
C2505 H2566 0.960 . S
C2505 H2567 0.961 . S
C2506 C2507 1.517 . S
C2506 H2569 0.961 . S
C2506 H2570 0.960 . S
C2506 H2571 0.959 . S
C2507 C2506 1.517 . S
C2507 O2555 1.468 . S
C2507 H2568 0.980 . S
C2508 C2509 1.349 . S
C2508 C2513 1.367 . S
C2508 O2555 1.408 . S
C2509 C2508 1.349 . S
C2509 C2510 1.407 . S
C2509 H2572 0.930 . S
C2510 C2509 1.407 . S
C2510 C2511 1.449 . S
C2510 C2514 1.535 . S
C2511 C2510 1.449 . S
C2511 C2512 1.384 . S
C2511 C2536 1.553 . S
C2512 C2511 1.384 . S
C2512 C2513 1.364 . S
C2512 C2515 1.450 . S
C2513 C2508 1.367 . S
C2513 C2512 1.364 . S
C2513 H2573 0.931 . S
C2514 C2510 1.535 . S
C2514 H2574 0.959 . S
C2514 H2575 0.961 . S
C2514 H2576 0.959 . S
C2515 C2512 1.450 . S
C2515 H2577 0.960 . S
C2515 H2578 0.960 . S
C2515 H2579 0.960 . S
C2516 C2517 1.309 . S
C2516 C2521 1.304 . S
C2516 O2554 1.435 . S
C2517 C2516 1.309 . S
C2517 C2518 1.476 . S
C2517 H2581 0.930 . S
C2518 C2517 1.476 . S
C2518 C2519 1.400 . S
C2518 C2522 1.567 . S
C2519 C2518 1.400 . S
C2519 C2520 1.373 . S
C2519 C2541 1.432 . S
C2520 C2519 1.373 . S
C2520 C2521 1.339 . S
C2520 C2523 1.530 . S
C2521 C2516 1.304 . S
C2521 C2520 1.339 . S
C2521 H2582 0.930 . S
C2522 C2518 1.567 . S
C2522 H2583 0.961 . S
C2522 H2584 0.960 . S
C2522 H2585 0.958 . S
C2523 C2520 1.530 . S
C2523 H2586 0.961 . S
C2523 H2587 0.960 . S
C2523 H2588 0.960 . S
C2524 C2525 1.530 . S
C2524 H2590 0.961 . S
C2524 H2591 0.961 . S
C2524 H2592 0.959 . S
C2525 C2524 1.530 . S
C2525 O2553 1.412 . S
C2525 H2589 0.980 . S
C2526 C2527 1.288 . S
C2526 C2531 1.377 . S
C2526 O2553 1.393 . S
C2527 C2526 1.288 . S
C2527 C2528 1.369 . S
C2527 H2593 0.932 . S
C2528 C2527 1.369 . S
C2528 C2529 1.398 . S
C2528 C2532 1.527 . S
C2529 C2528 1.398 . S
C2529 C2530 1.380 . S
C2529 C2543 1.497 . S
C2530 C2529 1.380 . S
C2530 C2531 1.383 . S
C2530 C2533 1.603 . S
C2531 C2526 1.377 . S
C2531 C2530 1.383 . S
C2531 H2594 0.929 . S
C2532 C2528 1.527 . S
C2532 H2595 0.961 . S
C2532 H2596 0.959 . S
C2532 H2597 0.959 . S
C2533 C2530 1.603 . S
C2533 H2598 0.960 . S
C2533 H2599 0.962 . S
C2533 H2600 0.961 . S
C2534 C2501 1.587 . S
C2534 C2535 1.360 . S
C2534 C2547 1.412 . S
C2535 C2534 1.360 . S
C2535 C2536 1.365 . S
C2535 H2601 0.929 . S
C2536 C2511 1.553 . S
C2536 C2535 1.365 . S
C2536 C2537 1.404 . S
C2537 C2536 1.404 . S
C2537 C2538 1.395 . S
C2537 C2548 1.451 . S
C2538 C2537 1.395 . S
C2538 C2539 1.322 . S
C2538 H2602 0.930 . S
C2539 C2538 1.322 . S
C2539 C2540 1.459 . S
C2539 H2603 0.929 . S
C2540 C2539 1.459 . S
C2540 C2541 1.445 . S
C2540 C2549 1.395 . S
C2541 C2519 1.432 . S
C2541 C2540 1.445 . S
C2541 C2542 1.370 . S
C2542 C2541 1.370 . S
C2542 C2543 1.438 . S
C2542 H2604 0.930 . S
C2543 C2529 1.497 . S
C2543 C2542 1.438 . S
C2543 C2544 1.360 . S
C2544 C2543 1.360 . S
C2544 C2545 1.401 . S
C2544 C2549 1.446 . S
C2545 C2544 1.401 . S
C2545 C2546 1.347 . S
C2545 H2605 0.929 . S
C2546 C2545 1.347 . S
C2546 C2547 1.455 . S
C2546 H2606 0.930 . S
C2547 C2534 1.412 . S
C2547 C2546 1.455 . S
C2547 C2548 1.331 . S
C2548 C2537 1.451 . S
C2548 C2547 1.331 . S
C2548 C2549 1.497 . S
C2549 C2540 1.395 . S
C2549 C2544 1.446 . S
C2549 C2548 1.497 . S
C2550 C2551 1.582 . S
C2550 H2607 0.962 . S
C2550 H2608 0.959 . S
C2550 H2609 0.958 . S
C2551 C2550 1.582 . S
C2551 O2554 1.458 . S
C2551 H2580 0.980 . S
O2552 C2497 1.426 . S
O2552 C2498 1.334 . S
O2553 C2525 1.412 . S
O2553 C2526 1.393 . S
O2554 C2516 1.435 . S
O2554 C2551 1.458 . S
O2555 C2507 1.468 . S
O2555 C2508 1.408 . S
H2556 C2497 0.980 . S
H2557 C2496 0.959 . S
H2558 C2496 0.959 . S
H2559 C2496 0.960 . S
H2560 C2499 0.929 . S
H2561 C2503 0.929 . S
H2562 C2504 0.959 . S
H2563 C2504 0.961 . S
H2564 C2504 0.961 . S
H2565 C2505 0.960 . S
H2566 C2505 0.960 . S
H2567 C2505 0.961 . S
H2568 C2507 0.980 . S
H2569 C2506 0.961 . S
H2570 C2506 0.960 . S
H2571 C2506 0.959 . S
H2572 C2509 0.930 . S
H2573 C2513 0.931 . S
H2574 C2514 0.959 . S
H2575 C2514 0.961 . S
H2576 C2514 0.959 . S
H2577 C2515 0.960 . S
H2578 C2515 0.960 . S
H2579 C2515 0.960 . S
H2580 C2551 0.980 . S
H2581 C2517 0.930 . S
H2582 C2521 0.930 . S
H2583 C2522 0.961 . S
H2584 C2522 0.960 . S
H2585 C2522 0.958 . S
H2586 C2523 0.961 . S
H2587 C2523 0.960 . S
H2588 C2523 0.960 . S
H2589 C2525 0.980 . S
H2590 C2524 0.961 . S
H2591 C2524 0.961 . S
H2592 C2524 0.959 . S
H2593 C2527 0.932 . S
H2594 C2531 0.929 . S
H2595 C2532 0.961 . S
H2596 C2532 0.959 . S
H2597 C2532 0.959 . S
H2598 C2533 0.960 . S
H2599 C2533 0.962 . S
H2600 C2533 0.961 . S
H2601 C2535 0.929 . S
H2602 C2538 0.930 . S
H2603 C2539 0.929 . S
H2604 C2542 0.930 . S
H2605 C2545 0.929 . S
H2606 C2546 0.930 . S
H2607 C2550 0.962 . S
H2608 C2550 0.959 . S
H2609 C2550 0.958 . S
C2610 C2611 1.560 . S
C2610 H2671 0.959 . S
C2610 H2672 0.959 . S
C2610 H2673 0.960 . S
C2611 C2610 1.560 . S
C2611 O2666 1.426 . S
C2611 H2670 0.980 . S
C2612 C2613 1.407 1_455 S
C2612 C2617 1.418 . S
C2612 O2666 1.334 . S
C2613 C2612 1.407 1_655 S
C2613 C2614 1.360 . S
C2613 H2674 0.929 . S
C2614 C2613 1.360 . S
C2614 C2615 1.401 1_655 S
C2614 C2618 1.527 . S
C2615 C2614 1.401 1_455 S
C2615 C2616 1.405 . S
C2615 C2648 1.587 1_455 S
C2616 C2615 1.405 . S
C2616 C2617 1.332 . S
C2616 C2619 1.496 . S
C2617 C2612 1.418 . S
C2617 C2616 1.332 . S
C2617 H2675 0.929 . S
C2618 C2614 1.527 . S
C2618 H2676 0.959 . S
C2618 H2677 0.961 . S
C2618 H2678 0.961 . S
C2619 C2616 1.496 . S
C2619 H2679 0.960 . S
C2619 H2680 0.960 . S
C2619 H2681 0.961 . S
C2620 C2621 1.517 . S
C2620 H2683 0.963 . S
C2620 H2684 0.960 . S
C2620 H2685 0.959 . S
C2621 C2620 1.517 . S
C2621 O2669 1.468 . S
C2621 H2682 0.980 1_655 S
C2622 C2623 1.349 . S
C2622 C2627 1.367 . S
C2622 O2669 1.408 . S
C2623 C2622 1.349 . S
C2623 C2624 1.355 1_655 S
C2623 H2686 0.930 1_655 S
C2624 C2623 1.355 1_455 S
C2624 C2625 1.404 1_455 S
C2624 C2628 1.627 . S
C2625 C2624 1.404 1_655 S
C2625 C2626 1.384 . S
C2625 C2650 1.553 . S
C2626 C2625 1.384 . S
C2626 C2627 1.364 . S
C2626 C2629 1.450 . S
C2627 C2622 1.367 . S
C2627 C2626 1.364 . S
C2627 H2687 0.931 . S
C2628 C2624 1.627 . S
C2628 H2688 0.959 . S
C2628 H2689 0.961 . S
C2628 H2690 0.959 . S
C2629 C2626 1.450 . S
C2629 H2691 0.960 . S
C2629 H2692 0.960 . S
C2629 H2693 0.960 . S
C2630 C2631 1.309 . S
C2630 C2635 1.304 . S
C2630 O2668 1.435 . S
C2631 C2630 1.309 . S
C2631 C2632 1.478 1_655 S
C2631 H2695 0.930 1_655 S
C2632 C2631 1.478 1_455 S
C2632 C2633 1.401 1_455 S
C2632 C2636 1.564 . S
C2633 C2632 1.401 1_655 S
C2633 C2634 1.373 . S
C2633 C2655 1.432 . S
C2634 C2633 1.373 . S
C2634 C2635 1.339 . S
C2634 C2637 1.530 . S
C2635 C2630 1.304 . S
C2635 C2634 1.339 . S
C2635 H2696 0.930 . S
C2636 C2632 1.564 . S
C2636 H2697 0.961 . S
C2636 H2698 0.960 . S
C2636 H2699 0.958 . S
C2637 C2634 1.530 . S
C2637 H2700 0.961 . S
C2637 H2701 0.960 . S
C2637 H2702 0.960 . S
C2638 C2639 1.505 1_455 S
C2638 H2704 0.961 . S
C2638 H2705 0.961 . S
C2638 H2706 0.959 . S
C2639 C2638 1.505 1_655 S
C2639 O2667 1.407 1_655 S
C2639 H2703 0.988 . S
C2640 C2641 1.288 . S
C2640 C2645 1.377 1_455 S
C2640 O2667 1.393 . S
C2641 C2640 1.288 . S
C2641 C2642 1.369 . S
C2641 H2707 0.932 . S
C2642 C2641 1.369 . S
C2642 C2643 1.398 1_455 S
C2642 C2646 1.527 . S
C2643 C2642 1.398 1_655 S
C2643 C2644 1.380 . S
C2643 C2657 1.497 . S
C2644 C2643 1.380 . S
C2644 C2645 1.383 . S
C2644 C2647 1.603 . S
C2645 C2640 1.377 1_655 S
C2645 C2644 1.383 . S
C2645 H2708 0.929 . S
C2646 C2642 1.527 . S
C2646 H2709 0.961 . S
C2646 H2710 0.959 . S
C2646 H2711 0.959 . S
C2647 C2644 1.603 . S
C2647 H2712 0.960 . S
C2647 H2713 0.962 . S
C2647 H2714 0.961 . S
C2648 C2615 1.587 1_655 S
C2648 C2649 1.360 . S
C2648 C2661 1.412 . S
C2649 C2648 1.360 . S
C2649 C2650 1.365 . S
C2649 H2715 0.929 . S
C2650 C2625 1.553 . S
C2650 C2649 1.365 . S
C2650 C2651 1.404 . S
C2651 C2650 1.404 . S
C2651 C2652 1.395 . S
C2651 C2662 1.451 . S
C2652 C2651 1.395 . S
C2652 C2653 1.322 . S
C2652 H2716 0.930 . S
C2653 C2652 1.322 . S
C2653 C2654 1.459 . S
C2653 H2717 0.929 . S
C2654 C2653 1.459 . S
C2654 C2655 1.445 . S
C2654 C2663 1.395 . S
C2655 C2633 1.432 . S
C2655 C2654 1.445 . S
C2655 C2656 1.370 . S
C2656 C2655 1.370 . S
C2656 C2657 1.438 . S
C2656 H2718 0.930 . S
C2657 C2643 1.497 . S
C2657 C2656 1.438 . S
C2657 C2658 1.360 . S
C2658 C2657 1.360 . S
C2658 C2659 1.401 . S
C2658 C2663 1.446 . S
C2659 C2658 1.401 . S
C2659 C2660 1.347 . S
C2659 H2719 0.929 . S
C2660 C2659 1.347 . S
C2660 C2661 1.455 . S
C2660 H2720 0.930 . S
C2661 C2648 1.412 . S
C2661 C2660 1.455 . S
C2661 C2662 1.331 . S
C2662 C2651 1.451 . S
C2662 C2661 1.331 . S
C2662 C2663 1.497 . S
C2663 C2654 1.395 . S
C2663 C2658 1.446 . S
C2663 C2662 1.497 . S
C2664 C2665 1.582 . S
C2664 H2721 0.962 . S
C2664 H2722 0.959 . S
C2664 H2723 0.958 . S
C2665 C2664 1.582 . S
C2665 O2668 1.458 . S
C2665 H2694 0.980 . S
O2666 C2611 1.426 . S
O2666 C2612 1.334 . S
O2667 C2639 1.407 1_455 S
O2667 C2640 1.393 . S
O2668 C2630 1.435 . S
O2668 C2665 1.458 . S
O2669 C2621 1.468 . S
O2669 C2622 1.408 . S
H2670 C2611 0.980 . S
H2671 C2610 0.959 . S
H2672 C2610 0.959 . S
H2673 C2610 0.960 . S
H2674 C2613 0.929 . S
H2675 C2617 0.929 . S
H2676 C2618 0.959 . S
H2677 C2618 0.961 . S
H2678 C2618 0.961 . S
H2679 C2619 0.960 . S
H2680 C2619 0.960 . S
H2681 C2619 0.961 . S
H2682 C2621 0.980 1_455 S
H2683 C2620 0.963 . S
H2684 C2620 0.960 . S
H2685 C2620 0.959 . S
H2686 C2623 0.930 1_455 S
H2687 C2627 0.931 . S
H2688 C2628 0.959 . S
H2689 C2628 0.961 . S
H2690 C2628 0.959 . S
H2691 C2629 0.960 . S
H2692 C2629 0.960 . S
H2693 C2629 0.960 . S
H2694 C2665 0.980 . S
H2695 C2631 0.930 1_455 S
H2696 C2635 0.930 . S
H2697 C2636 0.961 . S
H2698 C2636 0.960 . S
H2699 C2636 0.958 . S
H2700 C2637 0.961 . S
H2701 C2637 0.960 . S
H2702 C2637 0.960 . S
H2703 C2639 0.988 . S
H2704 C2638 0.961 . S
H2705 C2638 0.961 . S
H2706 C2638 0.959 . S
H2707 C2641 0.932 . S
H2708 C2645 0.929 . S
H2709 C2646 0.961 . S
H2710 C2646 0.959 . S
H2711 C2646 0.959 . S
H2712 C2647 0.960 . S
H2713 C2647 0.962 . S
H2714 C2647 0.961 . S
H2715 C2649 0.929 . S
H2716 C2652 0.930 . S
H2717 C2653 0.929 . S
H2718 C2656 0.930 . S
H2719 C2659 0.929 . S
H2720 C2660 0.930 . S
H2721 C2664 0.962 . S
H2722 C2664 0.959 . S
H2723 C2664 0.958 . S
C2724 C2725 1.560 . S
C2724 H2785 0.959 . S
C2724 H2786 0.959 . S
C2724 H2787 0.960 . S
C2725 C2724 1.560 . S
C2725 O2780 1.426 . S
C2725 H2784 0.980 . S
C2726 C2727 1.407 . S
C2726 C2731 1.418 . S
C2726 O2780 1.334 . S
C2727 C2726 1.407 . S
C2727 C2728 1.360 . S
C2727 H2788 0.929 . S
C2728 C2727 1.360 . S
C2728 C2729 1.401 . S
C2728 C2732 1.527 . S
C2729 C2728 1.401 . S
C2729 C2730 1.405 . S
C2729 C2762 1.587 . S
C2730 C2729 1.405 . S
C2730 C2731 1.332 . S
C2730 C2733 1.496 . S
C2731 C2726 1.418 . S
C2731 C2730 1.332 . S
C2731 H2789 0.929 . S
C2732 C2728 1.527 . S
C2732 H2790 0.959 . S
C2732 H2791 0.961 . S
C2732 H2792 0.961 . S
C2733 C2730 1.496 . S
C2733 H2793 0.960 . S
C2733 H2794 0.960 . S
C2733 H2795 0.961 . S
C2734 C2735 1.517 . S
C2734 H2797 0.961 . S
C2734 H2798 0.960 . S
C2734 H2799 0.959 . S
C2735 C2734 1.517 . S
C2735 O2783 1.468 . S
C2735 H2796 0.980 . S
C2736 C2737 1.349 . S
C2736 C2741 1.367 . S
C2736 O2783 1.408 . S
C2737 C2736 1.349 . S
C2737 C2738 1.407 . S
C2737 H2800 0.930 . S
C2738 C2737 1.407 . S
C2738 C2739 1.449 . S
C2738 C2742 1.535 . S
C2739 C2738 1.449 . S
C2739 C2740 1.384 . S
C2739 C2764 1.553 . S
C2740 C2739 1.384 . S
C2740 C2741 1.364 . S
C2740 C2743 1.450 . S
C2741 C2736 1.367 . S
C2741 C2740 1.364 . S
C2741 H2801 0.931 . S
C2742 C2738 1.535 . S
C2742 H2802 0.959 . S
C2742 H2803 0.961 . S
C2742 H2804 0.959 . S
C2743 C2740 1.450 . S
C2743 H2805 0.960 . S
C2743 H2806 0.960 . S
C2743 H2807 0.960 . S
C2744 C2745 1.309 . S
C2744 C2749 1.304 . S
C2744 O2782 1.435 . S
C2745 C2744 1.309 . S
C2745 C2746 1.476 . S
C2745 H2809 0.930 . S
C2746 C2745 1.476 . S
C2746 C2747 1.400 . S
C2746 C2750 1.567 . S
C2747 C2746 1.400 . S
C2747 C2748 1.373 . S
C2747 C2769 1.432 . S
C2748 C2747 1.373 . S
C2748 C2749 1.339 . S
C2748 C2751 1.530 . S
C2749 C2744 1.304 . S
C2749 C2748 1.339 . S
C2749 H2810 0.930 . S
C2750 C2746 1.567 . S
C2750 H2811 0.961 . S
C2750 H2812 0.960 . S
C2750 H2813 0.958 . S
C2751 C2748 1.530 . S
C2751 H2814 0.961 . S
C2751 H2815 0.960 . S
C2751 H2816 0.960 . S
C2752 C2753 1.530 . S
C2752 H2818 0.961 . S
C2752 H2819 0.961 . S
C2752 H2820 0.959 . S
C2753 C2752 1.530 . S
C2753 O2781 1.412 . S
C2753 H2817 0.980 . S
C2754 C2755 1.288 . S
C2754 C2759 1.377 . S
C2754 O2781 1.393 . S
C2755 C2754 1.288 . S
C2755 C2756 1.369 . S
C2755 H2821 0.932 . S
C2756 C2755 1.369 . S
C2756 C2757 1.398 . S
C2756 C2760 1.527 . S
C2757 C2756 1.398 . S
C2757 C2758 1.380 . S
C2757 C2771 1.497 . S
C2758 C2757 1.380 . S
C2758 C2759 1.383 . S
C2758 C2761 1.603 . S
C2759 C2754 1.377 . S
C2759 C2758 1.383 . S
C2759 H2822 0.929 . S
C2760 C2756 1.527 . S
C2760 H2823 0.961 . S
C2760 H2824 0.959 . S
C2760 H2825 0.959 . S
C2761 C2758 1.603 . S
C2761 H2826 0.960 . S
C2761 H2827 0.962 . S
C2761 H2828 0.961 . S
C2762 C2729 1.587 . S
C2762 C2763 1.360 . S
C2762 C2775 1.412 . S
C2763 C2762 1.360 . S
C2763 C2764 1.365 . S
C2763 H2829 0.929 . S
C2764 C2739 1.553 . S
C2764 C2763 1.365 . S
C2764 C2765 1.404 . S
C2765 C2764 1.404 . S
C2765 C2766 1.395 . S
C2765 C2776 1.451 . S
C2766 C2765 1.395 . S
C2766 C2767 1.322 . S
C2766 H2830 0.930 . S
C2767 C2766 1.322 . S
C2767 C2768 1.459 . S
C2767 H2831 0.929 . S
C2768 C2767 1.459 . S
C2768 C2769 1.445 . S
C2768 C2777 1.395 . S
C2769 C2747 1.432 . S
C2769 C2768 1.445 . S
C2769 C2770 1.370 . S
C2770 C2769 1.370 . S
C2770 C2771 1.438 . S
C2770 H2832 0.930 . S
C2771 C2757 1.497 . S
C2771 C2770 1.438 . S
C2771 C2772 1.360 . S
C2772 C2771 1.360 . S
C2772 C2773 1.401 . S
C2772 C2777 1.446 . S
C2773 C2772 1.401 . S
C2773 C2774 1.347 . S
C2773 H2833 0.929 . S
C2774 C2773 1.347 . S
C2774 C2775 1.455 . S
C2774 H2834 0.930 . S
C2775 C2762 1.412 . S
C2775 C2774 1.455 . S
C2775 C2776 1.331 . S
C2776 C2765 1.451 . S
C2776 C2775 1.331 . S
C2776 C2777 1.497 . S
C2777 C2768 1.395 . S
C2777 C2772 1.446 . S
C2777 C2776 1.497 . S
C2778 C2779 1.582 . S
C2778 H2835 0.962 . S
C2778 H2836 0.959 . S
C2778 H2837 0.958 . S
C2779 C2778 1.582 . S
C2779 O2782 1.458 . S
C2779 H2808 0.980 . S
O2780 C2725 1.426 . S
O2780 C2726 1.334 . S
O2781 C2753 1.412 . S
O2781 C2754 1.393 . S
O2782 C2744 1.435 . S
O2782 C2779 1.458 . S
O2783 C2735 1.468 . S
O2783 C2736 1.408 . S
H2784 C2725 0.980 . S
H2785 C2724 0.959 . S
H2786 C2724 0.959 . S
H2787 C2724 0.960 . S
H2788 C2727 0.929 . S
H2789 C2731 0.929 . S
H2790 C2732 0.959 . S
H2791 C2732 0.961 . S
H2792 C2732 0.961 . S
H2793 C2733 0.960 . S
H2794 C2733 0.960 . S
H2795 C2733 0.961 . S
H2796 C2735 0.980 . S
H2797 C2734 0.961 . S
H2798 C2734 0.960 . S
H2799 C2734 0.959 . S
H2800 C2737 0.930 . S
H2801 C2741 0.931 . S
H2802 C2742 0.959 . S
H2803 C2742 0.961 . S
H2804 C2742 0.959 . S
H2805 C2743 0.960 . S
H2806 C2743 0.960 . S
H2807 C2743 0.960 . S
H2808 C2779 0.980 . S
H2809 C2745 0.930 . S
H2810 C2749 0.930 . S
H2811 C2750 0.961 . S
H2812 C2750 0.960 . S
H2813 C2750 0.958 . S
H2814 C2751 0.961 . S
H2815 C2751 0.960 . S
H2816 C2751 0.960 . S
H2817 C2753 0.980 . S
H2818 C2752 0.961 . S
H2819 C2752 0.961 . S
H2820 C2752 0.959 . S
H2821 C2755 0.932 . S
H2822 C2759 0.929 . S
H2823 C2760 0.961 . S
H2824 C2760 0.959 . S
H2825 C2760 0.959 . S
H2826 C2761 0.960 . S
H2827 C2761 0.962 . S
H2828 C2761 0.961 . S
H2829 C2763 0.929 . S
H2830 C2766 0.930 . S
H2831 C2767 0.929 . S
H2832 C2770 0.930 . S
H2833 C2773 0.929 . S
H2834 C2774 0.930 . S
H2835 C2778 0.962 . S
H2836 C2778 0.959 . S
H2837 C2778 0.958 . S
C2838 C2839 1.560 . S
C2838 H2899 0.959 . S
C2838 H2900 0.959 . S
C2838 H2901 0.960 . S
C2839 C2838 1.560 . S
C2839 O2894 1.426 . S
C2839 H2898 0.980 . S
C2840 C2841 1.407 1_565 S
C2840 C2845 1.418 . S
C2840 O2894 1.334 . S
C2841 C2840 1.407 1_545 S
C2841 C2842 1.360 . S
C2841 H2902 0.929 . S
C2842 C2841 1.360 . S
C2842 C2843 1.401 1_545 S
C2842 C2846 1.527 . S
C2843 C2842 1.401 1_565 S
C2843 C2844 1.405 . S
C2843 C2876 1.587 1_565 S
C2844 C2843 1.405 . S
C2844 C2845 1.332 . S
C2844 C2847 1.496 . S
C2845 C2840 1.418 . S
C2845 C2844 1.332 . S
C2845 H2903 0.929 . S
C2846 C2842 1.527 . S
C2846 H2904 0.959 . S
C2846 H2905 0.961 . S
C2846 H2906 0.961 . S
C2847 C2844 1.496 . S
C2847 H2907 0.960 . S
C2847 H2908 0.960 . S
C2847 H2909 0.961 . S
C2848 C2849 1.517 . S
C2848 H2911 0.961 1_545 S
C2848 H2912 0.960 . S
C2848 H2913 0.959 . S
C2849 C2848 1.517 . S
C2849 O2897 1.468 . S
C2849 H2910 0.980 1_545 S
C2850 C2851 1.378 . S
C2850 C2855 1.367 . S
C2850 O2897 1.408 . S
C2851 C2850 1.378 . S
C2851 C2852 1.425 1_545 S
C2851 H2914 0.884 1_545 S
C2852 C2851 1.425 1_565 S
C2852 C2853 1.449 1_565 S
C2852 C2856 1.535 . S
C2853 C2852 1.449 1_545 S
C2853 C2854 1.384 . S
C2853 C2878 1.553 . S
C2854 C2853 1.384 . S
C2854 C2855 1.364 . S
C2854 C2857 1.450 . S
C2855 C2850 1.367 . S
C2855 C2854 1.364 . S
C2855 H2915 0.931 . S
C2856 C2852 1.535 . S
C2856 H2916 0.959 . S
C2856 H2917 0.961 . S
C2856 H2918 0.959 . S
C2857 C2854 1.450 . S
C2857 H2919 0.960 . S
C2857 H2920 0.960 . S
C2857 H2921 0.960 . S
C2858 C2859 1.309 . S
C2858 C2863 1.304 . S
C2858 O2896 1.435 . S
C2859 C2858 1.309 . S
C2859 C2860 1.489 1_545 S
C2859 H2923 0.930 1_545 S
C2860 C2859 1.489 1_565 S
C2860 C2861 1.356 1_565 S
C2860 C2864 1.597 . S
C2861 C2860 1.356 1_545 S
C2861 C2862 1.373 . S
C2861 C2883 1.432 . S
C2862 C2861 1.373 . S
C2862 C2863 1.339 . S
C2862 C2865 1.530 . S
C2863 C2858 1.304 . S
C2863 C2862 1.339 . S
C2863 H2924 0.930 . S
C2864 C2860 1.597 . S
C2864 H2925 0.961 . S
C2864 H2926 0.960 . S
C2864 H2927 0.958 . S
C2865 C2862 1.530 . S
C2865 H2928 0.961 . S
C2865 H2929 0.960 . S
C2865 H2930 0.960 . S
C2866 C2867 1.530 1_565 S
C2866 H2932 0.961 . S
C2866 H2933 0.961 . S
C2866 H2934 0.959 . S
C2867 C2866 1.530 1_545 S
C2867 O2895 1.412 1_545 S
C2867 H2931 0.980 . S
C2868 C2869 1.288 . S
C2868 C2873 1.377 1_565 S
C2868 O2895 1.393 . S
C2869 C2868 1.288 . S
C2869 C2870 1.369 . S
C2869 H2935 0.932 . S
C2870 C2869 1.369 . S
C2870 C2871 1.398 1_565 S
C2870 C2874 1.527 . S
C2871 C2870 1.398 1_545 S
C2871 C2872 1.380 . S
C2871 C2885 1.497 . S
C2872 C2871 1.380 . S
C2872 C2873 1.383 . S
C2872 C2875 1.603 . S
C2873 C2868 1.377 1_545 S
C2873 C2872 1.383 . S
C2873 H2936 0.929 . S
C2874 C2870 1.527 . S
C2874 H2937 0.961 . S
C2874 H2938 0.959 . S
C2874 H2939 0.959 . S
C2875 C2872 1.603 . S
C2875 H2940 0.960 . S
C2875 H2941 0.962 . S
C2875 H2942 0.961 . S
C2876 C2843 1.587 1_545 S
C2876 C2877 1.360 . S
C2876 C2889 1.412 . S
C2877 C2876 1.360 . S
C2877 C2878 1.365 . S
C2877 H2943 0.929 . S
C2878 C2853 1.553 . S
C2878 C2877 1.365 . S
C2878 C2879 1.404 . S
C2879 C2878 1.404 . S
C2879 C2880 1.395 . S
C2879 C2890 1.451 . S
C2880 C2879 1.395 . S
C2880 C2881 1.322 . S
C2880 H2944 0.930 . S
C2881 C2880 1.322 . S
C2881 C2882 1.459 . S
C2881 H2945 0.929 . S
C2882 C2881 1.459 . S
C2882 C2883 1.445 . S
C2882 C2891 1.395 . S
C2883 C2861 1.432 . S
C2883 C2882 1.445 . S
C2883 C2884 1.370 . S
C2884 C2883 1.370 . S
C2884 C2885 1.438 . S
C2884 H2946 0.930 . S
C2885 C2871 1.497 . S
C2885 C2884 1.438 . S
C2885 C2886 1.360 . S
C2886 C2885 1.360 . S
C2886 C2887 1.401 . S
C2886 C2891 1.446 . S
C2887 C2886 1.401 . S
C2887 C2888 1.347 . S
C2887 H2947 0.929 . S
C2888 C2887 1.347 . S
C2888 C2889 1.455 . S
C2888 H2948 0.930 . S
C2889 C2876 1.412 . S
C2889 C2888 1.455 . S
C2889 C2890 1.331 . S
C2890 C2879 1.451 . S
C2890 C2889 1.331 . S
C2890 C2891 1.497 . S
C2891 C2882 1.395 . S
C2891 C2886 1.446 . S
C2891 C2890 1.497 . S
C2892 C2893 1.582 . S
C2892 H2949 0.962 . S
C2892 H2950 0.959 . S
C2892 H2951 0.958 . S
C2893 C2892 1.582 . S
C2893 O2896 1.458 . S
C2893 H2922 0.980 . S
O2894 C2839 1.426 . S
O2894 C2840 1.334 . S
O2895 C2867 1.412 1_565 S
O2895 C2868 1.393 . S
O2896 C2858 1.435 . S
O2896 C2893 1.458 . S
O2897 C2849 1.468 . S
O2897 C2850 1.408 . S
H2898 C2839 0.980 . S
H2899 C2838 0.959 . S
H2900 C2838 0.959 . S
H2901 C2838 0.960 . S
H2902 C2841 0.929 . S
H2903 C2845 0.929 . S
H2904 C2846 0.959 . S
H2905 C2846 0.961 . S
H2906 C2846 0.961 . S
H2907 C2847 0.960 . S
H2908 C2847 0.960 . S
H2909 C2847 0.961 . S
H2910 C2849 0.980 1_565 S
H2911 C2848 0.961 1_565 S
H2912 C2848 0.960 . S
H2913 C2848 0.959 . S
H2914 C2851 0.884 1_565 S
H2915 C2855 0.931 . S
H2916 C2856 0.959 . S
H2917 C2856 0.961 . S
H2918 C2856 0.959 . S
H2919 C2857 0.960 . S
H2920 C2857 0.960 . S
H2921 C2857 0.960 . S
H2922 C2893 0.980 . S
H2923 C2859 0.930 1_565 S
H2924 C2863 0.930 . S
H2925 C2864 0.961 . S
H2926 C2864 0.960 . S
H2927 C2864 0.958 . S
H2928 C2865 0.961 . S
H2929 C2865 0.960 . S
H2930 C2865 0.960 . S
H2931 C2867 0.980 . S
H2932 C2866 0.961 . S
H2933 C2866 0.961 . S
H2934 C2866 0.959 . S
H2935 C2869 0.932 . S
H2936 C2873 0.929 . S
H2937 C2874 0.961 . S
H2938 C2874 0.959 . S
H2939 C2874 0.959 . S
H2940 C2875 0.960 . S
H2941 C2875 0.962 . S
H2942 C2875 0.961 . S
H2943 C2877 0.929 . S
H2944 C2880 0.930 . S
H2945 C2881 0.929 . S
H2946 C2884 0.930 . S
H2947 C2887 0.929 . S
H2948 C2888 0.930 . S
H2949 C2892 0.962 . S
H2950 C2892 0.959 . S
H2951 C2892 0.958 . S
C2952 C2953 1.560 . S
C2952 H3013 0.959 . S
C2952 H3014 0.959 . S
C2952 H3015 0.960 . S
C2953 C2952 1.560 . S
C2953 O3008 1.426 . S
C2953 H3012 0.980 1_565 S
C2954 C2955 1.407 1_565 S
C2954 C2959 1.418 . S
C2954 O3008 1.334 . S
C2955 C2954 1.407 1_545 S
C2955 C2956 1.360 . S
C2955 H3016 0.929 . S
C2956 C2955 1.360 . S
C2956 C2957 1.401 . S
C2956 C2960 1.527 . S
C2957 C2956 1.401 . S
C2957 C2958 1.405 1_545 S
C2957 C2990 1.587 . S
C2958 C2957 1.405 1_565 S
C2958 C2959 1.332 . S
C2958 C2961 1.496 . S
C2959 C2954 1.418 . S
C2959 C2958 1.332 . S
C2959 H3017 0.929 . S
C2960 C2956 1.527 . S
C2960 H3018 0.959 . S
C2960 H3019 0.961 . S
C2960 H3020 0.961 . S
C2961 C2958 1.496 . S
C2961 H3021 0.960 . S
C2961 H3022 0.960 . S
C2961 H3023 0.961 . S
C2962 C2963 1.517 . S
C2962 H3025 0.961 . S
C2962 H3026 0.960 . S
C2962 H3027 0.959 . S
C2963 C2962 1.517 . S
C2963 O3011 1.468 . S
C2963 H3024 0.980 . S
C2964 C2965 1.349 . S
C2964 C2969 1.367 . S
C2964 O3011 1.408 . S
C2965 C2964 1.349 . S
C2965 C2966 1.407 . S
C2965 H3028 0.935 . S
C2966 C2965 1.407 . S
C2966 C2967 1.449 . S
C2966 C2970 1.535 1_545 S
C2967 C2966 1.449 . S
C2967 C2968 1.384 . S
C2967 C2992 1.553 . S
C2968 C2967 1.384 . S
C2968 C2969 1.364 . S
C2968 C2971 1.450 . S
C2969 C2964 1.367 . S
C2969 C2968 1.364 . S
C2969 H3029 0.931 . S
C2970 C2966 1.535 1_565 S
C2970 H3030 0.959 . S
C2970 H3031 0.961 . S
C2970 H3032 0.959 . S
C2971 C2968 1.450 . S
C2971 H3033 0.960 . S
C2971 H3034 0.960 . S
C2971 H3035 0.960 . S
C2972 C2973 1.309 1_545 S
C2972 C2977 1.304 . S
C2972 O3010 1.435 . S
C2973 C2972 1.309 1_565 S
C2973 C2974 1.476 . S
C2973 H3037 0.930 . S
C2974 C2973 1.476 . S
C2974 C2975 1.400 1_565 S
C2974 C2978 1.567 . S
C2975 C2974 1.400 1_545 S
C2975 C2976 1.373 . S
C2975 C2997 1.432 . S
C2976 C2975 1.373 . S
C2976 C2977 1.339 . S
C2976 C2979 1.530 . S
C2977 C2972 1.304 . S
C2977 C2976 1.339 . S
C2977 H3038 0.930 . S
C2978 C2974 1.567 . S
C2978 H3039 0.961 . S
C2978 H3040 0.960 . S
C2978 H3041 0.958 . S
C2979 C2976 1.530 . S
C2979 H3042 0.961 . S
C2979 H3043 0.960 . S
C2979 H3044 0.960 . S
C2980 C2981 1.530 . S
C2980 H3046 0.961 . S
C2980 H3047 0.961 . S
C2980 H3048 0.959 . S
C2981 C2980 1.530 . S
C2981 O3009 1.412 . S
C2981 H3045 1.011 . S
C2982 C2983 1.288 . S
C2982 C2987 1.377 1_565 S
C2982 O3009 1.393 . S
C2983 C2982 1.288 . S
C2983 C2984 1.369 . S
C2983 H3049 0.932 . S
C2984 C2983 1.369 . S
C2984 C2985 1.398 . S
C2984 C2988 1.527 . S
C2985 C2984 1.398 . S
C2985 C2986 1.380 1_565 S
C2985 C2999 1.497 1_565 S
C2986 C2985 1.380 1_545 S
C2986 C2987 1.383 . S
C2986 C2989 1.603 . S
C2987 C2982 1.377 1_545 S
C2987 C2986 1.383 . S
C2987 H3050 0.929 . S
C2988 C2984 1.527 . S
C2988 H3051 0.961 . S
C2988 H3052 0.959 . S
C2988 H3053 0.959 . S
C2989 C2986 1.603 . S
C2989 H3054 0.960 . S
C2989 H3055 0.962 . S
C2989 H3056 0.961 . S
C2990 C2957 1.587 . S
C2990 C2991 1.360 . S
C2990 C3003 1.412 . S
C2991 C2990 1.360 . S
C2991 C2992 1.365 . S
C2991 H3057 0.929 . S
C2992 C2967 1.553 . S
C2992 C2991 1.365 . S
C2992 C2993 1.404 . S
C2993 C2992 1.404 . S
C2993 C2994 1.395 . S
C2993 C3004 1.451 . S
C2994 C2993 1.395 . S
C2994 C2995 1.322 . S
C2994 H3058 0.930 . S
C2995 C2994 1.322 . S
C2995 C2996 1.459 . S
C2995 H3059 0.929 . S
C2996 C2995 1.459 . S
C2996 C2997 1.445 . S
C2996 C3005 1.395 . S
C2997 C2975 1.432 . S
C2997 C2996 1.445 . S
C2997 C2998 1.370 . S
C2998 C2997 1.370 . S
C2998 C2999 1.438 . S
C2998 H3060 0.930 . S
C2999 C2985 1.497 1_545 S
C2999 C2998 1.438 . S
C2999 C3000 1.360 . S
C3000 C2999 1.360 . S
C3000 C3001 1.401 . S
C3000 C3005 1.446 . S
C3001 C3000 1.401 . S
C3001 C3002 1.347 . S
C3001 H3061 0.959 . S
C3002 C3001 1.347 . S
C3002 C3003 1.455 . S
C3002 H3062 0.930 . S
C3003 C2990 1.412 . S
C3003 C3002 1.455 . S
C3003 C3004 1.331 . S
C3004 C2993 1.451 . S
C3004 C3003 1.331 . S
C3004 C3005 1.497 . S
C3005 C2996 1.395 . S
C3005 C3000 1.446 . S
C3005 C3004 1.497 . S
C3006 C3007 1.630 . S
C3006 H3063 0.962 . S
C3006 H3064 0.959 . S
C3006 H3065 0.958 . S
C3007 C3006 1.630 . S
C3007 O3010 1.477 . S
C3007 H3036 0.981 1_545 S
O3008 C2953 1.426 . S
O3008 C2954 1.334 . S
O3009 C2981 1.412 . S
O3009 C2982 1.393 . S
O3010 C2972 1.435 . S
O3010 C3007 1.477 . S
O3011 C2963 1.468 . S
O3011 C2964 1.408 . S
H3012 C2953 0.980 1_545 S
H3013 C2952 0.959 . S
H3014 C2952 0.959 . S
H3015 C2952 0.960 . S
H3016 C2955 0.929 . S
H3017 C2959 0.929 . S
H3018 C2960 0.959 . S
H3019 C2960 0.961 . S
H3020 C2960 0.961 . S
H3021 C2961 0.960 . S
H3022 C2961 0.960 . S
H3023 C2961 0.961 . S
H3024 C2963 0.980 . S
H3025 C2962 0.961 . S
H3026 C2962 0.960 . S
H3027 C2962 0.959 . S
H3028 C2965 0.935 . S
H3029 C2969 0.931 . S
H3030 C2970 0.959 . S
H3031 C2970 0.961 . S
H3032 C2970 0.959 . S
H3033 C2971 0.960 . S
H3034 C2971 0.960 . S
H3035 C2971 0.960 . S
H3036 C3007 0.981 1_565 S
H3037 C2973 0.930 . S
H3038 C2977 0.930 . S
H3039 C2978 0.961 . S
H3040 C2978 0.960 . S
H3041 C2978 0.958 . S
H3042 C2979 0.961 . S
H3043 C2979 0.960 . S
H3044 C2979 0.960 . S
H3045 C2981 1.011 . S
H3046 C2980 0.961 . S
H3047 C2980 0.961 . S
H3048 C2980 0.959 . S
H3049 C2983 0.932 . S
H3050 C2987 0.929 . S
H3051 C2988 0.961 . S
H3052 C2988 0.959 . S
H3053 C2988 0.959 . S
H3054 C2989 0.960 . S
H3055 C2989 0.962 . S
H3056 C2989 0.961 . S
H3057 C2991 0.929 . S
H3058 C2994 0.930 . S
H3059 C2995 0.929 . S
H3060 C2998 0.930 . S
H3061 C3001 0.959 . S
H3062 C3002 0.930 . S
H3063 C3006 0.962 . S
H3064 C3006 0.959 . S
H3065 C3006 0.958 . S
C3066 C3067 1.560 . S
C3066 H3127 0.959 . S
C3066 H3128 0.959 . S
C3066 H3129 0.960 . S
C3067 C3066 1.560 . S
C3067 O3122 1.426 . S
C3067 H3126 0.980 1_455 S
C3068 C3069 1.407 1_455 S
C3068 C3073 1.418 . S
C3068 O3122 1.334 . S
C3069 C3068 1.407 1_655 S
C3069 C3070 1.360 . S
C3069 H3130 0.929 . S
C3070 C3069 1.360 . S
C3070 C3071 1.401 . S
C3070 C3074 1.527 . S
C3071 C3070 1.401 . S
C3071 C3072 1.405 1_655 S
C3071 C3104 1.587 . S
C3072 C3071 1.405 1_455 S
C3072 C3073 1.332 . S
C3072 C3075 1.496 . S
C3073 C3068 1.418 . S
C3073 C3072 1.332 . S
C3073 H3131 0.929 . S
C3074 C3070 1.527 . S
C3074 H3132 0.959 . S
C3074 H3133 0.961 . S
C3074 H3134 0.961 . S
C3075 C3072 1.496 . S
C3075 H3135 0.960 . S
C3075 H3136 0.960 . S
C3075 H3137 0.961 . S
C3076 C3077 1.517 . S
C3076 H3139 0.961 . S
C3076 H3140 0.960 . S
C3076 H3141 0.959 . S
C3077 C3076 1.517 . S
C3077 O3125 1.468 . S
C3077 H3138 0.980 . S
C3078 C3079 1.349 . S
C3078 C3083 1.367 . S
C3078 O3125 1.408 . S
C3079 C3078 1.349 . S
C3079 C3080 1.407 . S
C3079 H3142 0.940 1_655 S
C3080 C3079 1.407 . S
C3080 C3081 1.449 . S
C3080 C3084 1.535 1_655 S
C3081 C3080 1.449 . S
C3081 C3082 1.384 . S
C3081 C3106 1.553 . S
C3082 C3081 1.384 . S
C3082 C3083 1.364 . S
C3082 C3085 1.450 . S
C3083 C3078 1.367 . S
C3083 C3082 1.364 . S
C3083 H3143 0.931 . S
C3084 C3080 1.535 1_455 S
C3084 H3144 0.959 . S
C3084 H3145 0.961 . S
C3084 H3146 0.959 . S
C3085 C3082 1.450 . S
C3085 H3147 0.960 . S
C3085 H3148 0.960 . S
C3085 H3149 0.960 . S
C3086 C3087 1.309 1_655 S
C3086 C3091 1.304 . S
C3086 O3124 1.435 . S
C3087 C3086 1.309 1_455 S
C3087 C3088 1.476 . S
C3087 H3151 0.930 . S
C3088 C3087 1.476 . S
C3088 C3089 1.400 1_455 S
C3088 C3092 1.567 . S
C3089 C3088 1.400 1_655 S
C3089 C3090 1.373 . S
C3089 C3111 1.432 . S
C3090 C3089 1.373 . S
C3090 C3091 1.339 . S
C3090 C3093 1.530 . S
C3091 C3086 1.304 . S
C3091 C3090 1.339 . S
C3091 H3152 0.930 . S
C3092 C3088 1.567 . S
C3092 H3153 0.961 . S
C3092 H3154 0.960 . S
C3092 H3155 0.958 . S
C3093 C3090 1.530 . S
C3093 H3156 0.961 . S
C3093 H3157 0.960 . S
C3093 H3158 0.960 . S
C3094 C3095 1.530 . S
C3094 H3160 0.961 . S
C3094 H3161 0.961 . S
C3094 H3162 0.959 . S
C3095 C3094 1.530 . S
C3095 O3123 1.412 . S
C3095 H3159 0.988 . S
C3096 C3097 1.288 . S
C3096 C3101 1.377 1_455 S
C3096 O3123 1.393 . S
C3097 C3096 1.288 . S
C3097 C3098 1.369 . S
C3097 H3163 0.932 . S
C3098 C3097 1.369 . S
C3098 C3099 1.398 . S
C3098 C3102 1.527 . S
C3099 C3098 1.398 . S
C3099 C3100 1.380 1_455 S
C3099 C3113 1.497 1_455 S
C3100 C3099 1.380 1_655 S
C3100 C3101 1.383 . S
C3100 C3103 1.603 . S
C3101 C3096 1.377 1_655 S
C3101 C3100 1.383 . S
C3101 H3164 0.929 . S
C3102 C3098 1.527 . S
C3102 H3165 0.961 . S
C3102 H3166 0.959 . S
C3102 H3167 0.959 . S
C3103 C3100 1.603 . S
C3103 H3168 0.960 . S
C3103 H3169 0.962 . S
C3103 H3170 0.961 . S
C3104 C3071 1.587 . S
C3104 C3105 1.360 . S
C3104 C3117 1.412 . S
C3105 C3104 1.360 . S
C3105 C3106 1.365 . S
C3105 H3171 0.929 . S
C3106 C3081 1.553 . S
C3106 C3105 1.365 . S
C3106 C3107 1.404 . S
C3107 C3106 1.404 . S
C3107 C3108 1.395 . S
C3107 C3118 1.451 . S
C3108 C3107 1.395 . S
C3108 C3109 1.322 . S
C3108 H3172 0.930 . S
C3109 C3108 1.322 . S
C3109 C3110 1.459 . S
C3109 H3173 0.929 . S
C3110 C3109 1.459 . S
C3110 C3111 1.445 . S
C3110 C3119 1.395 . S
C3111 C3089 1.432 . S
C3111 C3110 1.445 . S
C3111 C3112 1.370 . S
C3112 C3111 1.370 . S
C3112 C3113 1.438 . S
C3112 H3174 0.930 . S
C3113 C3099 1.497 1_655 S
C3113 C3112 1.438 . S
C3113 C3114 1.360 . S
C3114 C3113 1.360 . S
C3114 C3115 1.401 . S
C3114 C3119 1.446 . S
C3115 C3114 1.401 . S
C3115 C3116 1.347 . S
C3115 H3175 0.910 . S
C3116 C3115 1.347 . S
C3116 C3117 1.455 . S
C3116 H3176 0.930 . S
C3117 C3104 1.412 . S
C3117 C3116 1.455 . S
C3117 C3118 1.331 . S
C3118 C3107 1.451 . S
C3118 C3117 1.331 . S
C3118 C3119 1.497 . S
C3119 C3110 1.395 . S
C3119 C3114 1.446 . S
C3119 C3118 1.497 . S
C3120 C3121 1.582 1_655 S
C3120 H3177 0.951 1_655 S
C3120 H3178 0.959 . S
C3120 H3179 0.958 . S
C3121 C3120 1.582 1_455 S
C3121 O3124 1.376 1_455 S
C3121 H3150 1.015 . S
O3122 C3067 1.426 . S
O3122 C3068 1.334 . S
O3123 C3095 1.412 . S
O3123 C3096 1.393 . S
O3124 C3086 1.435 . S
O3124 C3121 1.376 1_655 S
O3125 C3077 1.468 . S
O3125 C3078 1.408 . S
H3126 C3067 0.980 1_655 S
H3127 C3066 0.959 . S
H3128 C3066 0.959 . S
H3129 C3066 0.960 . S
H3130 C3069 0.929 . S
H3131 C3073 0.929 . S
H3132 C3074 0.959 . S
H3133 C3074 0.961 . S
H3134 C3074 0.961 . S
H3135 C3075 0.960 . S
H3136 C3075 0.960 . S
H3137 C3075 0.961 . S
H3138 C3077 0.980 . S
H3139 C3076 0.961 . S
H3140 C3076 0.960 . S
H3141 C3076 0.959 . S
H3142 C3079 0.940 1_455 S
H3143 C3083 0.931 . S
H3144 C3084 0.959 . S
H3145 C3084 0.961 . S
H3146 C3084 0.959 . S
H3147 C3085 0.960 . S
H3148 C3085 0.960 . S
H3149 C3085 0.960 . S
H3150 C3121 1.015 . S
H3151 C3087 0.930 . S
H3152 C3091 0.930 . S
H3153 C3092 0.961 . S
H3154 C3092 0.960 . S
H3155 C3092 0.958 . S
H3156 C3093 0.961 . S
H3157 C3093 0.960 . S
H3158 C3093 0.960 . S
H3159 C3095 0.988 . S
H3160 C3094 0.961 . S
H3161 C3094 0.961 . S
H3162 C3094 0.959 . S
H3163 C3097 0.932 . S
H3164 C3101 0.929 . S
H3165 C3102 0.961 . S
H3166 C3102 0.959 . S
H3167 C3102 0.959 . S
H3168 C3103 0.960 . S
H3169 C3103 0.962 . S
H3170 C3103 0.961 . S
H3171 C3105 0.929 . S
H3172 C3108 0.930 . S
H3173 C3109 0.929 . S
H3174 C3112 0.930 . S
H3175 C3115 0.910 . S
H3176 C3116 0.930 . S
H3177 C3120 0.951 1_455 S
H3178 C3120 0.959 . S
H3179 C3120 0.958 . S
C3180 C3181 1.560 . S
C3180 H3241 0.959 . S
C3180 H3242 0.959 . S
C3180 H3243 0.960 . S
C3181 C3180 1.560 . S
C3181 O3236 1.426 . S
C3181 H3240 0.980 . S
C3182 C3183 1.407 . S
C3182 C3187 1.418 . S
C3182 O3236 1.334 . S
C3183 C3182 1.407 . S
C3183 C3184 1.360 . S
C3183 H3244 0.929 . S
C3184 C3183 1.360 . S
C3184 C3185 1.401 . S
C3184 C3188 1.527 . S
C3185 C3184 1.401 . S
C3185 C3186 1.405 . S
C3185 C3218 1.587 . S
C3186 C3185 1.405 . S
C3186 C3187 1.332 . S
C3186 C3189 1.496 . S
C3187 C3182 1.418 . S
C3187 C3186 1.332 . S
C3187 H3245 0.929 . S
C3188 C3184 1.527 . S
C3188 H3246 0.959 . S
C3188 H3247 0.961 . S
C3188 H3248 0.961 . S
C3189 C3186 1.496 . S
C3189 H3249 0.960 . S
C3189 H3250 0.960 . S
C3189 H3251 0.961 . S
C3190 C3191 1.517 . S
C3190 H3253 0.961 . S
C3190 H3254 0.960 . S
C3190 H3255 0.959 . S
C3191 C3190 1.517 . S
C3191 O3239 1.468 . S
C3191 H3252 0.980 . S
C3192 C3193 1.349 . S
C3192 C3197 1.367 . S
C3192 O3239 1.408 . S
C3193 C3192 1.349 . S
C3193 C3194 1.407 . S
C3193 H3256 0.930 . S
C3194 C3193 1.407 . S
C3194 C3195 1.449 . S
C3194 C3198 1.535 . S
C3195 C3194 1.449 . S
C3195 C3196 1.384 . S
C3195 C3220 1.553 . S
C3196 C3195 1.384 . S
C3196 C3197 1.364 . S
C3196 C3199 1.450 . S
C3197 C3192 1.367 . S
C3197 C3196 1.364 . S
C3197 H3257 0.931 . S
C3198 C3194 1.535 . S
C3198 H3258 0.959 . S
C3198 H3259 0.961 . S
C3198 H3260 0.959 . S
C3199 C3196 1.450 . S
C3199 H3261 0.960 . S
C3199 H3262 0.960 . S
C3199 H3263 0.960 . S
C3200 C3201 1.309 . S
C3200 C3205 1.304 . S
C3200 O3238 1.435 . S
C3201 C3200 1.309 . S
C3201 C3202 1.476 . S
C3201 H3265 0.930 . S
C3202 C3201 1.476 . S
C3202 C3203 1.400 . S
C3202 C3206 1.567 . S
C3203 C3202 1.400 . S
C3203 C3204 1.373 . S
C3203 C3225 1.432 . S
C3204 C3203 1.373 . S
C3204 C3205 1.339 . S
C3204 C3207 1.530 . S
C3205 C3200 1.304 . S
C3205 C3204 1.339 . S
C3205 H3266 0.930 . S
C3206 C3202 1.567 . S
C3206 H3267 0.961 . S
C3206 H3268 0.960 . S
C3206 H3269 0.958 . S
C3207 C3204 1.530 . S
C3207 H3270 0.961 . S
C3207 H3271 0.960 . S
C3207 H3272 0.960 . S
C3208 C3209 1.530 . S
C3208 H3274 0.961 . S
C3208 H3275 0.961 . S
C3208 H3276 0.959 . S
C3209 C3208 1.530 . S
C3209 O3237 1.412 . S
C3209 H3273 0.980 . S
C3210 C3211 1.288 . S
C3210 C3215 1.377 . S
C3210 O3237 1.393 . S
C3211 C3210 1.288 . S
C3211 C3212 1.369 . S
C3211 H3277 0.932 . S
C3212 C3211 1.369 . S
C3212 C3213 1.398 . S
C3212 C3216 1.527 . S
C3213 C3212 1.398 . S
C3213 C3214 1.380 . S
C3213 C3227 1.497 . S
C3214 C3213 1.380 . S
C3214 C3215 1.383 . S
C3214 C3217 1.603 . S
C3215 C3210 1.377 . S
C3215 C3214 1.383 . S
C3215 H3278 0.929 . S
C3216 C3212 1.527 . S
C3216 H3279 0.961 . S
C3216 H3280 0.959 . S
C3216 H3281 0.959 . S
C3217 C3214 1.603 . S
C3217 H3282 0.960 . S
C3217 H3283 0.962 . S
C3217 H3284 0.961 . S
C3218 C3185 1.587 . S
C3218 C3219 1.360 . S
C3218 C3231 1.412 . S
C3219 C3218 1.360 . S
C3219 C3220 1.365 . S
C3219 H3285 0.929 . S
C3220 C3195 1.553 . S
C3220 C3219 1.365 . S
C3220 C3221 1.404 . S
C3221 C3220 1.404 . S
C3221 C3222 1.395 . S
C3221 C3232 1.451 . S
C3222 C3221 1.395 . S
C3222 C3223 1.322 . S
C3222 H3286 0.930 . S
C3223 C3222 1.322 . S
C3223 C3224 1.459 . S
C3223 H3287 0.929 . S
C3224 C3223 1.459 . S
C3224 C3225 1.445 . S
C3224 C3233 1.395 . S
C3225 C3203 1.432 . S
C3225 C3224 1.445 . S
C3225 C3226 1.370 . S
C3226 C3225 1.370 . S
C3226 C3227 1.438 . S
C3226 H3288 0.930 . S
C3227 C3213 1.497 . S
C3227 C3226 1.438 . S
C3227 C3228 1.360 . S
C3228 C3227 1.360 . S
C3228 C3229 1.401 . S
C3228 C3233 1.446 . S
C3229 C3228 1.401 . S
C3229 C3230 1.347 . S
C3229 H3289 0.929 . S
C3230 C3229 1.347 . S
C3230 C3231 1.455 . S
C3230 H3290 0.930 . S
C3231 C3218 1.412 . S
C3231 C3230 1.455 . S
C3231 C3232 1.331 . S
C3232 C3221 1.451 . S
C3232 C3231 1.331 . S
C3232 C3233 1.497 . S
C3233 C3224 1.395 . S
C3233 C3228 1.446 . S
C3233 C3232 1.497 . S
C3234 C3235 1.582 . S
C3234 H3291 0.962 . S
C3234 H3292 0.959 . S
C3234 H3293 0.958 . S
C3235 C3234 1.582 . S
C3235 O3238 1.458 . S
C3235 H3264 0.980 . S
O3236 C3181 1.426 . S
O3236 C3182 1.334 . S
O3237 C3209 1.412 . S
O3237 C3210 1.393 . S
O3238 C3200 1.435 . S
O3238 C3235 1.458 . S
O3239 C3191 1.468 . S
O3239 C3192 1.408 . S
H3240 C3181 0.980 . S
H3241 C3180 0.959 . S
H3242 C3180 0.959 . S
H3243 C3180 0.960 . S
H3244 C3183 0.929 . S
H3245 C3187 0.929 . S
H3246 C3188 0.959 . S
H3247 C3188 0.961 . S
H3248 C3188 0.961 . S
H3249 C3189 0.960 . S
H3250 C3189 0.960 . S
H3251 C3189 0.961 . S
H3252 C3191 0.980 . S
H3253 C3190 0.961 . S
H3254 C3190 0.960 . S
H3255 C3190 0.959 . S
H3256 C3193 0.930 . S
H3257 C3197 0.931 . S
H3258 C3198 0.959 . S
H3259 C3198 0.961 . S
H3260 C3198 0.959 . S
H3261 C3199 0.960 . S
H3262 C3199 0.960 . S
H3263 C3199 0.960 . S
H3264 C3235 0.980 . S
H3265 C3201 0.930 . S
H3266 C3205 0.930 . S
H3267 C3206 0.961 . S
H3268 C3206 0.960 . S
H3269 C3206 0.958 . S
H3270 C3207 0.961 . S
H3271 C3207 0.960 . S
H3272 C3207 0.960 . S
H3273 C3209 0.980 . S
H3274 C3208 0.961 . S
H3275 C3208 0.961 . S
H3276 C3208 0.959 . S
H3277 C3211 0.932 . S
H3278 C3215 0.929 . S
H3279 C3216 0.961 . S
H3280 C3216 0.959 . S
H3281 C3216 0.959 . S
H3282 C3217 0.960 . S
H3283 C3217 0.962 . S
H3284 C3217 0.961 . S
H3285 C3219 0.929 . S
H3286 C3222 0.930 . S
H3287 C3223 0.929 . S
H3288 C3226 0.930 . S
H3289 C3229 0.929 . S
H3290 C3230 0.930 . S
H3291 C3234 0.962 . S
H3292 C3234 0.959 . S
H3293 C3234 0.958 . S
C3294 C3295 1.560 . S
C3294 H3355 0.959 . S
C3294 H3356 0.959 . S
C3294 H3357 0.960 . S
C3295 C3294 1.560 . S
C3295 O3350 1.426 . S
C3295 H3354 0.980 . S
C3296 C3297 1.407 . S
C3296 C3301 1.418 . S
C3296 O3350 1.334 . S
C3297 C3296 1.407 . S
C3297 C3298 1.360 . S
C3297 H3358 0.929 . S
C3298 C3297 1.360 . S
C3298 C3299 1.401 . S
C3298 C3302 1.527 . S
C3299 C3298 1.401 . S
C3299 C3300 1.405 . S
C3299 C3332 1.587 . S
C3300 C3299 1.405 . S
C3300 C3301 1.332 . S
C3300 C3303 1.496 . S
C3301 C3296 1.418 . S
C3301 C3300 1.332 . S
C3301 H3359 0.929 . S
C3302 C3298 1.527 . S
C3302 H3360 0.959 . S
C3302 H3361 0.961 . S
C3302 H3362 0.961 . S
C3303 C3300 1.496 . S
C3303 H3363 0.960 . S
C3303 H3364 0.960 . S
C3303 H3365 0.961 . S
C3304 C3305 1.517 . S
C3304 H3367 0.961 . S
C3304 H3368 0.960 . S
C3304 H3369 0.959 . S
C3305 C3304 1.517 . S
C3305 O3353 1.468 . S
C3305 H3366 0.980 . S
C3306 C3307 1.349 . S
C3306 C3311 1.367 . S
C3306 O3353 1.408 . S
C3307 C3306 1.349 . S
C3307 C3308 1.407 . S
C3307 H3370 0.930 . S
C3308 C3307 1.407 . S
C3308 C3309 1.449 . S
C3308 C3312 1.535 . S
C3309 C3308 1.449 . S
C3309 C3310 1.384 . S
C3309 C3334 1.553 . S
C3310 C3309 1.384 . S
C3310 C3311 1.364 . S
C3310 C3313 1.450 . S
C3311 C3306 1.367 . S
C3311 C3310 1.364 . S
C3311 H3371 0.931 . S
C3312 C3308 1.535 . S
C3312 H3372 0.959 . S
C3312 H3373 0.961 . S
C3312 H3374 0.959 . S
C3313 C3310 1.450 . S
C3313 H3375 0.960 . S
C3313 H3376 0.960 . S
C3313 H3377 0.960 . S
C3314 C3315 1.309 . S
C3314 C3319 1.304 . S
C3314 O3352 1.435 . S
C3315 C3314 1.309 . S
C3315 C3316 1.476 . S
C3315 H3379 0.930 . S
C3316 C3315 1.476 . S
C3316 C3317 1.400 . S
C3316 C3320 1.567 . S
C3317 C3316 1.400 . S
C3317 C3318 1.373 . S
C3317 C3339 1.432 . S
C3318 C3317 1.373 . S
C3318 C3319 1.339 . S
C3318 C3321 1.530 . S
C3319 C3314 1.304 . S
C3319 C3318 1.339 . S
C3319 H3380 0.930 . S
C3320 C3316 1.567 . S
C3320 H3381 0.961 . S
C3320 H3382 0.960 . S
C3320 H3383 0.958 . S
C3321 C3318 1.530 . S
C3321 H3384 0.961 . S
C3321 H3385 0.960 . S
C3321 H3386 0.960 . S
C3322 C3323 1.530 . S
C3322 H3388 0.961 . S
C3322 H3389 0.961 . S
C3322 H3390 0.959 . S
C3323 C3322 1.530 . S
C3323 O3351 1.412 . S
C3323 H3387 0.980 . S
C3324 C3325 1.288 . S
C3324 C3329 1.377 . S
C3324 O3351 1.393 . S
C3325 C3324 1.288 . S
C3325 C3326 1.369 . S
C3325 H3391 0.932 . S
C3326 C3325 1.369 . S
C3326 C3327 1.398 . S
C3326 C3330 1.527 . S
C3327 C3326 1.398 . S
C3327 C3328 1.380 . S
C3327 C3341 1.497 . S
C3328 C3327 1.380 . S
C3328 C3329 1.383 . S
C3328 C3331 1.603 . S
C3329 C3324 1.377 . S
C3329 C3328 1.383 . S
C3329 H3392 0.929 . S
C3330 C3326 1.527 . S
C3330 H3393 0.961 . S
C3330 H3394 0.959 . S
C3330 H3395 0.959 . S
C3331 C3328 1.603 . S
C3331 H3396 0.960 . S
C3331 H3397 0.962 . S
C3331 H3398 0.961 . S
C3332 C3299 1.587 . S
C3332 C3333 1.360 . S
C3332 C3345 1.412 . S
C3333 C3332 1.360 . S
C3333 C3334 1.365 . S
C3333 H3399 0.929 . S
C3334 C3309 1.553 . S
C3334 C3333 1.365 . S
C3334 C3335 1.404 . S
C3335 C3334 1.404 . S
C3335 C3336 1.395 . S
C3335 C3346 1.451 . S
C3336 C3335 1.395 . S
C3336 C3337 1.322 . S
C3336 H3400 0.930 . S
C3337 C3336 1.322 . S
C3337 C3338 1.459 . S
C3337 H3401 0.929 . S
C3338 C3337 1.459 . S
C3338 C3339 1.445 . S
C3338 C3347 1.395 . S
C3339 C3317 1.432 . S
C3339 C3338 1.445 . S
C3339 C3340 1.370 . S
C3340 C3339 1.370 . S
C3340 C3341 1.438 . S
C3340 H3402 0.930 . S
C3341 C3327 1.497 . S
C3341 C3340 1.438 . S
C3341 C3342 1.360 . S
C3342 C3341 1.360 . S
C3342 C3343 1.401 . S
C3342 C3347 1.446 . S
C3343 C3342 1.401 . S
C3343 C3344 1.347 . S
C3343 H3403 0.929 . S
C3344 C3343 1.347 . S
C3344 C3345 1.455 . S
C3344 H3404 0.930 . S
C3345 C3332 1.412 . S
C3345 C3344 1.455 . S
C3345 C3346 1.331 . S
C3346 C3335 1.451 . S
C3346 C3345 1.331 . S
C3346 C3347 1.497 . S
C3347 C3338 1.395 . S
C3347 C3342 1.446 . S
C3347 C3346 1.497 . S
C3348 C3349 1.582 . S
C3348 H3405 0.962 . S
C3348 H3406 0.959 . S
C3348 H3407 0.958 . S
C3349 C3348 1.582 . S
C3349 O3352 1.458 . S
C3349 H3378 0.980 . S
O3350 C3295 1.426 . S
O3350 C3296 1.334 . S
O3351 C3323 1.412 . S
O3351 C3324 1.393 . S
O3352 C3314 1.435 . S
O3352 C3349 1.458 . S
O3353 C3305 1.468 . S
O3353 C3306 1.408 . S
H3354 C3295 0.980 . S
H3355 C3294 0.959 . S
H3356 C3294 0.959 . S
H3357 C3294 0.960 . S
H3358 C3297 0.929 . S
H3359 C3301 0.929 . S
H3360 C3302 0.959 . S
H3361 C3302 0.961 . S
H3362 C3302 0.961 . S
H3363 C3303 0.960 . S
H3364 C3303 0.960 . S
H3365 C3303 0.961 . S
H3366 C3305 0.980 . S
H3367 C3304 0.961 . S
H3368 C3304 0.960 . S
H3369 C3304 0.959 . S
H3370 C3307 0.930 . S
H3371 C3311 0.931 . S
H3372 C3312 0.959 . S
H3373 C3312 0.961 . S
H3374 C3312 0.959 . S
H3375 C3313 0.960 . S
H3376 C3313 0.960 . S
H3377 C3313 0.960 . S
H3378 C3349 0.980 . S
H3379 C3315 0.930 . S
H3380 C3319 0.930 . S
H3381 C3320 0.961 . S
H3382 C3320 0.960 . S
H3383 C3320 0.958 . S
H3384 C3321 0.961 . S
H3385 C3321 0.960 . S
H3386 C3321 0.960 . S
H3387 C3323 0.980 . S
H3388 C3322 0.961 . S
H3389 C3322 0.961 . S
H3390 C3322 0.959 . S
H3391 C3325 0.932 . S
H3392 C3329 0.929 . S
H3393 C3330 0.961 . S
H3394 C3330 0.959 . S
H3395 C3330 0.959 . S
H3396 C3331 0.960 . S
H3397 C3331 0.962 . S
H3398 C3331 0.961 . S
H3399 C3333 0.929 . S
H3400 C3336 0.930 . S
H3401 C3337 0.929 . S
H3402 C3340 0.930 . S
H3403 C3343 0.929 . S
H3404 C3344 0.930 . S
H3405 C3348 0.962 . S
H3406 C3348 0.959 . S
H3407 C3348 0.958 . S
C3408 C3409 1.560 . S
C3408 H3469 0.959 . S
C3408 H3470 0.959 . S
C3408 H3471 0.960 . S
C3409 C3408 1.560 . S
C3409 O3464 1.426 . S
C3409 H3468 0.980 . S
C3410 C3411 1.407 . S
C3410 C3415 1.418 . S
C3410 O3464 1.334 . S
C3411 C3410 1.407 . S
C3411 C3412 1.360 . S
C3411 H3472 0.929 . S
C3412 C3411 1.360 . S
C3412 C3413 1.401 . S
C3412 C3416 1.527 . S
C3413 C3412 1.401 . S
C3413 C3414 1.405 . S
C3413 C3446 1.587 . S
C3414 C3413 1.405 . S
C3414 C3415 1.332 . S
C3414 C3417 1.496 . S
C3415 C3410 1.418 . S
C3415 C3414 1.332 . S
C3415 H3473 0.929 . S
C3416 C3412 1.527 . S
C3416 H3474 0.959 . S
C3416 H3475 0.961 . S
C3416 H3476 0.961 . S
C3417 C3414 1.496 . S
C3417 H3477 0.960 . S
C3417 H3478 0.960 . S
C3417 H3479 0.961 . S
C3418 C3419 1.517 . S
C3418 H3481 0.961 . S
C3418 H3482 0.960 . S
C3418 H3483 0.959 . S
C3419 C3418 1.517 . S
C3419 O3467 1.468 . S
C3419 H3480 0.980 . S
C3420 C3421 1.349 . S
C3420 C3425 1.367 . S
C3420 O3467 1.408 . S
C3421 C3420 1.349 . S
C3421 C3422 1.407 . S
C3421 H3484 0.930 . S
C3422 C3421 1.407 . S
C3422 C3423 1.449 . S
C3422 C3426 1.535 . S
C3423 C3422 1.449 . S
C3423 C3424 1.384 . S
C3423 C3448 1.553 . S
C3424 C3423 1.384 . S
C3424 C3425 1.364 . S
C3424 C3427 1.450 . S
C3425 C3420 1.367 . S
C3425 C3424 1.364 . S
C3425 H3485 0.931 . S
C3426 C3422 1.535 . S
C3426 H3486 0.959 . S
C3426 H3487 0.961 . S
C3426 H3488 0.959 . S
C3427 C3424 1.450 . S
C3427 H3489 0.960 . S
C3427 H3490 0.960 . S
C3427 H3491 0.960 . S
C3428 C3429 1.309 . S
C3428 C3433 1.304 . S
C3428 O3466 1.435 . S
C3429 C3428 1.309 . S
C3429 C3430 1.476 . S
C3429 H3493 0.930 . S
C3430 C3429 1.476 . S
C3430 C3431 1.400 . S
C3430 C3434 1.567 . S
C3431 C3430 1.400 . S
C3431 C3432 1.373 . S
C3431 C3453 1.432 . S
C3432 C3431 1.373 . S
C3432 C3433 1.339 . S
C3432 C3435 1.530 . S
C3433 C3428 1.304 . S
C3433 C3432 1.339 . S
C3433 H3494 0.930 . S
C3434 C3430 1.567 . S
C3434 H3495 0.961 . S
C3434 H3496 0.960 . S
C3434 H3497 0.958 . S
C3435 C3432 1.530 . S
C3435 H3498 0.961 . S
C3435 H3499 0.960 . S
C3435 H3500 0.960 . S
C3436 C3437 1.530 . S
C3436 H3502 0.961 . S
C3436 H3503 0.961 . S
C3436 H3504 0.959 . S
C3437 C3436 1.530 . S
C3437 O3465 1.412 . S
C3437 H3501 0.980 . S
C3438 C3439 1.288 . S
C3438 C3443 1.377 . S
C3438 O3465 1.393 . S
C3439 C3438 1.288 . S
C3439 C3440 1.369 . S
C3439 H3505 0.932 . S
C3440 C3439 1.369 . S
C3440 C3441 1.398 . S
C3440 C3444 1.527 . S
C3441 C3440 1.398 . S
C3441 C3442 1.380 . S
C3441 C3455 1.497 . S
C3442 C3441 1.380 . S
C3442 C3443 1.383 . S
C3442 C3445 1.603 . S
C3443 C3438 1.377 . S
C3443 C3442 1.383 . S
C3443 H3506 0.929 . S
C3444 C3440 1.527 . S
C3444 H3507 0.961 . S
C3444 H3508 0.959 . S
C3444 H3509 0.959 . S
C3445 C3442 1.603 . S
C3445 H3510 0.960 . S
C3445 H3511 0.962 . S
C3445 H3512 0.961 . S
C3446 C3413 1.587 . S
C3446 C3447 1.360 . S
C3446 C3459 1.412 . S
C3447 C3446 1.360 . S
C3447 C3448 1.365 . S
C3447 H3513 0.929 . S
C3448 C3423 1.553 . S
C3448 C3447 1.365 . S
C3448 C3449 1.404 . S
C3449 C3448 1.404 . S
C3449 C3450 1.395 . S
C3449 C3460 1.451 . S
C3450 C3449 1.395 . S
C3450 C3451 1.322 . S
C3450 H3514 0.930 . S
C3451 C3450 1.322 . S
C3451 C3452 1.459 . S
C3451 H3515 0.929 . S
C3452 C3451 1.459 . S
C3452 C3453 1.445 . S
C3452 C3461 1.395 . S
C3453 C3431 1.432 . S
C3453 C3452 1.445 . S
C3453 C3454 1.370 . S
C3454 C3453 1.370 . S
C3454 C3455 1.438 . S
C3454 H3516 0.930 . S
C3455 C3441 1.497 . S
C3455 C3454 1.438 . S
C3455 C3456 1.360 . S
C3456 C3455 1.360 . S
C3456 C3457 1.401 . S
C3456 C3461 1.446 . S
C3457 C3456 1.401 . S
C3457 C3458 1.347 . S
C3457 H3517 0.929 . S
C3458 C3457 1.347 . S
C3458 C3459 1.455 . S
C3458 H3518 0.930 . S
C3459 C3446 1.412 . S
C3459 C3458 1.455 . S
C3459 C3460 1.331 . S
C3460 C3449 1.451 . S
C3460 C3459 1.331 . S
C3460 C3461 1.497 . S
C3461 C3452 1.395 . S
C3461 C3456 1.446 . S
C3461 C3460 1.497 . S
C3462 C3463 1.582 . S
C3462 H3519 0.962 . S
C3462 H3520 0.959 . S
C3462 H3521 0.958 . S
C3463 C3462 1.582 . S
C3463 O3466 1.458 . S
C3463 H3492 0.980 . S
O3464 C3409 1.426 . S
O3464 C3410 1.334 . S
O3465 C3437 1.412 . S
O3465 C3438 1.393 . S
O3466 C3428 1.435 . S
O3466 C3463 1.458 . S
O3467 C3419 1.468 . S
O3467 C3420 1.408 . S
H3468 C3409 0.980 . S
H3469 C3408 0.959 . S
H3470 C3408 0.959 . S
H3471 C3408 0.960 . S
H3472 C3411 0.929 . S
H3473 C3415 0.929 . S
H3474 C3416 0.959 . S
H3475 C3416 0.961 . S
H3476 C3416 0.961 . S
H3477 C3417 0.960 . S
H3478 C3417 0.960 . S
H3479 C3417 0.961 . S
H3480 C3419 0.980 . S
H3481 C3418 0.961 . S
H3482 C3418 0.960 . S
H3483 C3418 0.959 . S
H3484 C3421 0.930 . S
H3485 C3425 0.931 . S
H3486 C3426 0.959 . S
H3487 C3426 0.961 . S
H3488 C3426 0.959 . S
H3489 C3427 0.960 . S
H3490 C3427 0.960 . S
H3491 C3427 0.960 . S
H3492 C3463 0.980 . S
H3493 C3429 0.930 . S
H3494 C3433 0.930 . S
H3495 C3434 0.961 . S
H3496 C3434 0.960 . S
H3497 C3434 0.958 . S
H3498 C3435 0.961 . S
H3499 C3435 0.960 . S
H3500 C3435 0.960 . S
H3501 C3437 0.980 . S
H3502 C3436 0.961 . S
H3503 C3436 0.961 . S
H3504 C3436 0.959 . S
H3505 C3439 0.932 . S
H3506 C3443 0.929 . S
H3507 C3444 0.961 . S
H3508 C3444 0.959 . S
H3509 C3444 0.959 . S
H3510 C3445 0.960 . S
H3511 C3445 0.962 . S
H3512 C3445 0.961 . S
H3513 C3447 0.929 . S
H3514 C3450 0.930 . S
H3515 C3451 0.929 . S
H3516 C3454 0.930 . S
H3517 C3457 0.929 . S
H3518 C3458 0.930 . S
H3519 C3462 0.962 . S
H3520 C3462 0.959 . S
H3521 C3462 0.958 . S
C3522 C3523 1.560 . S
C3522 H3583 0.959 . S
C3522 H3584 0.959 . S
C3522 H3585 0.960 . S
C3523 C3522 1.560 . S
C3523 O3578 1.426 . S
C3523 H3582 0.980 . S
C3524 C3525 1.407 . S
C3524 C3529 1.418 . S
C3524 O3578 1.334 . S
C3525 C3524 1.407 . S
C3525 C3526 1.360 . S
C3525 H3586 0.929 . S
C3526 C3525 1.360 . S
C3526 C3527 1.401 . S
C3526 C3530 1.527 . S
C3527 C3526 1.401 . S
C3527 C3528 1.405 . S
C3527 C3560 1.587 . S
C3528 C3527 1.405 . S
C3528 C3529 1.332 . S
C3528 C3531 1.496 . S
C3529 C3524 1.418 . S
C3529 C3528 1.332 . S
C3529 H3587 0.929 . S
C3530 C3526 1.527 . S
C3530 H3588 0.959 . S
C3530 H3589 0.961 . S
C3530 H3590 0.961 . S
C3531 C3528 1.496 . S
C3531 H3591 0.960 . S
C3531 H3592 0.960 . S
C3531 H3593 0.961 . S
C3532 C3533 1.517 . S
C3532 H3595 0.961 . S
C3532 H3596 0.960 . S
C3532 H3597 0.959 . S
C3533 C3532 1.517 . S
C3533 O3581 1.468 . S
C3533 H3594 0.980 . S
C3534 C3535 1.349 . S
C3534 C3539 1.367 . S
C3534 O3581 1.408 . S
C3535 C3534 1.349 . S
C3535 C3536 1.407 . S
C3535 H3598 0.930 . S
C3536 C3535 1.407 . S
C3536 C3537 1.449 . S
C3536 C3540 1.535 . S
C3537 C3536 1.449 . S
C3537 C3538 1.384 . S
C3537 C3562 1.553 . S
C3538 C3537 1.384 . S
C3538 C3539 1.364 . S
C3538 C3541 1.450 . S
C3539 C3534 1.367 . S
C3539 C3538 1.364 . S
C3539 H3599 0.931 . S
C3540 C3536 1.535 . S
C3540 H3600 0.959 . S
C3540 H3601 0.961 . S
C3540 H3602 0.959 . S
C3541 C3538 1.450 . S
C3541 H3603 0.960 . S
C3541 H3604 0.960 . S
C3541 H3605 0.960 . S
C3542 C3543 1.309 . S
C3542 C3547 1.304 . S
C3542 O3580 1.435 . S
C3543 C3542 1.309 . S
C3543 C3544 1.476 . S
C3543 H3607 0.930 . S
C3544 C3543 1.476 . S
C3544 C3545 1.400 . S
C3544 C3548 1.567 . S
C3545 C3544 1.400 . S
C3545 C3546 1.373 . S
C3545 C3567 1.432 . S
C3546 C3545 1.373 . S
C3546 C3547 1.339 . S
C3546 C3549 1.530 . S
C3547 C3542 1.304 . S
C3547 C3546 1.339 . S
C3547 H3608 0.930 . S
C3548 C3544 1.567 . S
C3548 H3609 0.961 . S
C3548 H3610 0.960 . S
C3548 H3611 0.958 . S
C3549 C3546 1.530 . S
C3549 H3612 0.961 . S
C3549 H3613 0.960 . S
C3549 H3614 0.960 . S
C3550 C3551 1.530 . S
C3550 H3616 0.961 . S
C3550 H3617 0.961 . S
C3550 H3618 0.959 . S
C3551 C3550 1.530 . S
C3551 O3579 1.412 . S
C3551 H3615 0.980 . S
C3552 C3553 1.288 . S
C3552 C3557 1.377 . S
C3552 O3579 1.393 . S
C3553 C3552 1.288 . S
C3553 C3554 1.369 . S
C3553 H3619 0.932 . S
C3554 C3553 1.369 . S
C3554 C3555 1.398 . S
C3554 C3558 1.527 . S
C3555 C3554 1.398 . S
C3555 C3556 1.380 . S
C3555 C3569 1.497 . S
C3556 C3555 1.380 . S
C3556 C3557 1.383 . S
C3556 C3559 1.603 . S
C3557 C3552 1.377 . S
C3557 C3556 1.383 . S
C3557 H3620 0.929 . S
C3558 C3554 1.527 . S
C3558 H3621 0.961 . S
C3558 H3622 0.959 . S
C3558 H3623 0.959 . S
C3559 C3556 1.603 . S
C3559 H3624 0.960 . S
C3559 H3625 0.962 . S
C3559 H3626 0.961 . S
C3560 C3527 1.587 . S
C3560 C3561 1.360 . S
C3560 C3573 1.412 . S
C3561 C3560 1.360 . S
C3561 C3562 1.365 . S
C3561 H3627 0.929 . S
C3562 C3537 1.553 . S
C3562 C3561 1.365 . S
C3562 C3563 1.404 . S
C3563 C3562 1.404 . S
C3563 C3564 1.395 . S
C3563 C3574 1.451 . S
C3564 C3563 1.395 . S
C3564 C3565 1.322 . S
C3564 H3628 0.930 . S
C3565 C3564 1.322 . S
C3565 C3566 1.459 . S
C3565 H3629 0.929 . S
C3566 C3565 1.459 . S
C3566 C3567 1.445 . S
C3566 C3575 1.395 . S
C3567 C3545 1.432 . S
C3567 C3566 1.445 . S
C3567 C3568 1.370 . S
C3568 C3567 1.370 . S
C3568 C3569 1.438 . S
C3568 H3630 0.930 . S
C3569 C3555 1.497 . S
C3569 C3568 1.438 . S
C3569 C3570 1.360 . S
C3570 C3569 1.360 . S
C3570 C3571 1.401 . S
C3570 C3575 1.446 . S
C3571 C3570 1.401 . S
C3571 C3572 1.347 . S
C3571 H3631 0.929 . S
C3572 C3571 1.347 . S
C3572 C3573 1.455 . S
C3572 H3632 0.930 . S
C3573 C3560 1.412 . S
C3573 C3572 1.455 . S
C3573 C3574 1.331 . S
C3574 C3563 1.451 . S
C3574 C3573 1.331 . S
C3574 C3575 1.497 . S
C3575 C3566 1.395 . S
C3575 C3570 1.446 . S
C3575 C3574 1.497 . S
C3576 C3577 1.582 . S
C3576 H3633 0.962 . S
C3576 H3634 0.959 . S
C3576 H3635 0.958 . S
C3577 C3576 1.582 . S
C3577 O3580 1.458 . S
C3577 H3606 0.980 . S
O3578 C3523 1.426 . S
O3578 C3524 1.334 . S
O3579 C3551 1.412 . S
O3579 C3552 1.393 . S
O3580 C3542 1.435 . S
O3580 C3577 1.458 . S
O3581 C3533 1.468 . S
O3581 C3534 1.408 . S
H3582 C3523 0.980 . S
H3583 C3522 0.959 . S
H3584 C3522 0.959 . S
H3585 C3522 0.960 . S
H3586 C3525 0.929 . S
H3587 C3529 0.929 . S
H3588 C3530 0.959 . S
H3589 C3530 0.961 . S
H3590 C3530 0.961 . S
H3591 C3531 0.960 . S
H3592 C3531 0.960 . S
H3593 C3531 0.961 . S
H3594 C3533 0.980 . S
H3595 C3532 0.961 . S
H3596 C3532 0.960 . S
H3597 C3532 0.959 . S
H3598 C3535 0.930 . S
H3599 C3539 0.931 . S
H3600 C3540 0.959 . S
H3601 C3540 0.961 . S
H3602 C3540 0.959 . S
H3603 C3541 0.960 . S
H3604 C3541 0.960 . S
H3605 C3541 0.960 . S
H3606 C3577 0.980 . S
H3607 C3543 0.930 . S
H3608 C3547 0.930 . S
H3609 C3548 0.961 . S
H3610 C3548 0.960 . S
H3611 C3548 0.958 . S
H3612 C3549 0.961 . S
H3613 C3549 0.960 . S
H3614 C3549 0.960 . S
H3615 C3551 0.980 . S
H3616 C3550 0.961 . S
H3617 C3550 0.961 . S
H3618 C3550 0.959 . S
H3619 C3553 0.932 . S
H3620 C3557 0.929 . S
H3621 C3558 0.961 . S
H3622 C3558 0.959 . S
H3623 C3558 0.959 . S
H3624 C3559 0.960 . S
H3625 C3559 0.962 . S
H3626 C3559 0.961 . S
H3627 C3561 0.929 . S
H3628 C3564 0.930 . S
H3629 C3565 0.929 . S
H3630 C3568 0.930 . S
H3631 C3571 0.929 . S
H3632 C3572 0.930 . S
H3633 C3576 0.962 . S
H3634 C3576 0.959 . S
H3635 C3576 0.958 . S
H3636 C3642 0.930 . S
H3637 C3646 0.930 . S
H3638 C3651 0.929 . S
H3639 C3649 0.929 . S
H3640 C3644 0.929 . S
H3641 C3650 0.929 . S
C3642 H3636 0.930 . S
C3642 C3643 1.367 . S
C3642 C3650 1.378 . S
C3643 C3642 1.367 . S
C3643 C3651 1.433 . S
C3644 H3640 0.929 . S
C3644 C3646 1.378 . S
C3644 C3648 1.350 . S
C3645 C3648 1.463 . S
C3645 C3650 1.350 . S
C3645 N3653 1.427 . S
C3646 H3637 0.930 . S
C3646 C3644 1.378 . S
C3646 C3647 1.367 . S
C3647 C3646 1.367 . S
C3647 C3649 1.433 . S
C3648 C3644 1.350 . S
C3648 C3645 1.463 . S
C3648 N3652 1.427 . S
C3649 H3639 0.929 . S
C3649 C3647 1.433 . S
C3649 N3652 1.384 . S
C3650 H3641 0.929 . S
C3650 C3642 1.378 . S
C3650 C3645 1.350 . S
C3651 H3638 0.929 . S
C3651 C3643 1.433 . S
C3651 N3653 1.384 . S
N3652 C3648 1.427 . S
N3652 C3649 1.384 . S
N3653 C3645 1.427 . S
N3653 C3651 1.384 . S
H3654 C3660 0.930 . S
H3655 C3664 0.930 . S
H3656 C3669 0.929 . S
H3657 C3667 0.929 . S
H3658 C3662 0.929 . S
H3659 C3668 0.929 . S
C3660 H3654 0.930 . S
C3660 C3661 1.367 . S
C3660 C3668 1.378 . S
C3661 C3660 1.367 . S
C3661 C3669 1.433 . S
C3662 H3658 0.929 . S
C3662 C3664 1.378 . S
C3662 C3666 1.350 . S
C3663 C3666 1.463 . S
C3663 C3668 1.350 . S
C3663 N3671 1.427 . S
C3664 H3655 0.930 . S
C3664 C3662 1.378 . S
C3664 C3665 1.367 . S
C3665 C3664 1.367 . S
C3665 C3667 1.433 . S
C3666 C3662 1.350 . S
C3666 C3663 1.463 . S
C3666 N3670 1.427 . S
C3667 H3657 0.929 . S
C3667 C3665 1.433 . S
C3667 N3670 1.384 . S
C3668 H3659 0.929 . S
C3668 C3660 1.378 . S
C3668 C3663 1.350 . S
C3669 H3656 0.929 . S
C3669 C3661 1.433 . S
C3669 N3671 1.384 . S
N3670 C3666 1.427 . S
N3670 C3667 1.384 . S
N3671 C3663 1.427 . S
N3671 C3669 1.384 . S
H3672 C3678 0.930 . S
H3673 C3682 1.021 . S
H3674 C3687 0.929 . S
H3675 C3685 0.929 . S
H3676 C3680 0.929 1_565 S
H3677 C3686 0.929 . S
C3678 H3672 0.930 . S
C3678 C3679 1.367 . S
C3678 C3686 1.378 . S
C3679 C3678 1.367 . S
C3679 C3687 1.433 . S
C3680 H3676 0.929 1_545 S
C3680 C3682 1.327 1_545 S
C3680 C3684 1.350 . S
C3681 C3684 1.463 . S
C3681 C3686 1.350 . S
C3681 N3689 1.427 . S
C3682 H3673 1.021 . S
C3682 C3680 1.327 1_565 S
C3682 C3683 1.331 1_565 S
C3683 C3682 1.331 1_545 S
C3683 C3685 1.433 . S
C3684 C3680 1.350 . S
C3684 C3681 1.463 . S
C3684 N3688 1.427 . S
C3685 H3675 0.929 . S
C3685 C3683 1.433 . S
C3685 N3688 1.384 . S
C3686 H3677 0.929 . S
C3686 C3678 1.378 . S
C3686 C3681 1.350 . S
C3687 H3674 0.929 . S
C3687 C3679 1.433 . S
C3687 N3689 1.384 . S
N3688 C3684 1.427 . S
N3688 C3685 1.384 . S
N3689 C3681 1.427 . S
N3689 C3687 1.384 . S
H3690 C3696 0.930 . S
H3691 C3700 0.930 . S
H3692 C3705 0.929 . S
H3693 C3703 0.929 . S
H3694 C3698 0.929 . S
H3695 C3704 0.929 . S
C3696 H3690 0.930 . S
C3696 C3697 1.367 . S
C3696 C3704 1.378 . S
C3697 C3696 1.367 . S
C3697 C3705 1.433 . S
C3698 H3694 0.929 . S
C3698 C3700 1.378 . S
C3698 C3702 1.350 . S
C3699 C3702 1.463 . S
C3699 C3704 1.350 . S
C3699 N3707 1.427 . S
C3700 H3691 0.930 . S
C3700 C3698 1.378 . S
C3700 C3701 1.367 . S
C3701 C3700 1.367 . S
C3701 C3703 1.433 . S
C3702 C3698 1.350 . S
C3702 C3699 1.463 . S
C3702 N3706 1.427 . S
C3703 H3693 0.929 . S
C3703 C3701 1.433 . S
C3703 N3706 1.384 . S
C3704 H3695 0.929 . S
C3704 C3696 1.378 . S
C3704 C3699 1.350 . S
C3705 H3692 0.929 . S
C3705 C3697 1.433 . S
C3705 N3707 1.384 . S
N3706 C3702 1.427 . S
N3706 C3703 1.384 . S
N3707 C3699 1.427 . S
N3707 C3705 1.384 . S
H3708 C3714 0.930 . S
H3709 C3718 0.930 . S
H3710 C3723 0.929 . S
H3711 C3721 0.929 . S
H3712 C3716 0.929 1_655 S
H3713 C3722 0.929 . S
C3714 H3708 0.930 . S
C3714 C3715 1.367 . S
C3714 C3722 1.378 . S
C3715 C3714 1.367 . S
C3715 C3723 1.433 . S
C3716 H3712 0.929 1_455 S
C3716 C3718 1.378 1_455 S
C3716 C3720 1.350 . S
C3717 C3720 1.463 . S
C3717 C3722 1.350 . S
C3717 N3725 1.427 . S
C3718 H3709 0.930 . S
C3718 C3716 1.378 1_655 S
C3718 C3719 1.367 1_655 S
C3719 C3718 1.367 1_455 S
C3719 C3721 1.433 . S
C3720 C3716 1.350 . S
C3720 C3717 1.463 . S
C3720 N3724 1.427 . S
C3721 H3711 0.929 . S
C3721 C3719 1.433 . S
C3721 N3724 1.384 . S
C3722 H3713 0.929 . S
C3722 C3714 1.378 . S
C3722 C3717 1.350 . S
C3723 H3710 0.929 . S
C3723 C3715 1.433 . S
C3723 N3725 1.384 . S
N3724 C3720 1.427 . S
N3724 C3721 1.384 . S
N3725 C3717 1.427 . S
N3725 C3723 1.384 . S
H3726 C3732 0.930 . S
H3727 C3736 0.930 . S
H3728 C3741 0.929 . S
H3729 C3739 0.929 . S
H3730 C3734 0.929 . S
H3731 C3740 0.929 . S
C3732 H3726 0.930 . S
C3732 C3733 1.367 . S
C3732 C3740 1.378 . S
C3733 C3732 1.367 . S
C3733 C3741 1.433 . S
C3734 H3730 0.929 . S
C3734 C3736 1.378 . S
C3734 C3738 1.350 . S
C3735 C3738 1.463 . S
C3735 C3740 1.350 . S
C3735 N3743 1.427 . S
C3736 H3727 0.930 . S
C3736 C3734 1.378 . S
C3736 C3737 1.367 . S
C3737 C3736 1.367 . S
C3737 C3739 1.433 . S
C3738 C3734 1.350 . S
C3738 C3735 1.463 . S
C3738 N3742 1.427 . S
C3739 H3729 0.929 . S
C3739 C3737 1.433 . S
C3739 N3742 1.384 . S
C3740 H3731 0.929 . S
C3740 C3732 1.378 . S
C3740 C3735 1.350 . S
C3741 H3728 0.929 . S
C3741 C3733 1.433 . S
C3741 N3743 1.384 . S
N3742 C3738 1.427 . S
N3742 C3739 1.384 . S
N3743 C3735 1.427 . S
N3743 C3741 1.384 . S
H3744 C3750 0.930 . S
H3745 C3754 0.930 . S
H3746 C3759 0.929 . S
H3747 C3757 0.929 . S
H3748 C3752 0.929 . S
H3749 C3758 0.929 . S
C3750 H3744 0.930 . S
C3750 C3751 1.367 . S
C3750 C3758 1.378 . S
C3751 C3750 1.367 . S
C3751 C3759 1.433 . S
C3752 H3748 0.929 . S
C3752 C3754 1.378 . S
C3752 C3756 1.350 1_655 S
C3753 C3756 1.463 . S
C3753 C3758 1.350 . S
C3753 N3761 1.427 . S
C3754 H3745 0.930 . S
C3754 C3752 1.378 . S
C3754 C3755 1.367 1_655 S
C3755 C3754 1.367 1_455 S
C3755 C3757 1.433 . S
C3756 C3752 1.350 1_455 S
C3756 C3753 1.463 . S
C3756 N3760 1.427 . S
C3757 H3747 0.929 . S
C3757 C3755 1.433 . S
C3757 N3760 1.384 . S
C3758 H3749 0.929 . S
C3758 C3750 1.378 . S
C3758 C3753 1.350 . S
C3759 H3746 0.929 . S
C3759 C3751 1.433 . S
C3759 N3761 1.384 . S
N3760 C3756 1.427 . S
N3760 C3757 1.384 . S
N3761 C3753 1.427 . S
N3761 C3759 1.384 . S
H3762 C3768 0.930 . S
H3763 C3772 0.930 . S
H3764 C3777 0.929 . S
H3765 C3775 0.929 . S
H3766 C3770 0.929 . S
H3767 C3776 0.929 . S
C3768 H3762 0.930 . S
C3768 C3769 1.367 . S
C3768 C3776 1.378 . S
C3769 C3768 1.367 . S
C3769 C3777 1.433 . S
C3770 H3766 0.929 . S
C3770 C3772 1.378 . S
C3770 C3774 1.350 . S
C3771 C3774 1.463 . S
C3771 C3776 1.350 . S
C3771 N3779 1.427 . S
C3772 H3763 0.930 . S
C3772 C3770 1.378 . S
C3772 C3773 1.367 . S
C3773 C3772 1.367 . S
C3773 C3775 1.433 . S
C3774 C3770 1.350 . S
C3774 C3771 1.463 . S
C3774 N3778 1.427 . S
C3775 H3765 0.929 . S
C3775 C3773 1.433 . S
C3775 N3778 1.384 . S
C3776 H3767 0.929 . S
C3776 C3768 1.378 . S
C3776 C3771 1.350 . S
C3777 H3764 0.929 . S
C3777 C3769 1.433 . S
C3777 N3779 1.384 . S
N3778 C3774 1.427 . S
N3778 C3775 1.384 . S
N3779 C3771 1.427 . S
N3779 C3777 1.384 . S
H3780 C3786 0.930 . S
H3781 C3790 0.930 . S
H3782 C3795 0.929 . S
H3783 C3793 0.929 . S
H3784 C3788 0.929 . S
H3785 C3794 0.929 1_545 S
C3786 H3780 0.930 . S
C3786 C3787 1.367 . S
C3786 C3794 1.378 . S
C3787 C3786 1.367 . S
C3787 C3795 1.433 . S
C3788 H3784 0.929 . S
C3788 C3790 1.378 . S
C3788 C3792 1.350 . S
C3789 C3792 1.463 . S
C3789 C3794 1.350 . S
C3789 N3797 1.427 . S
C3790 H3781 0.930 . S
C3790 C3788 1.378 . S
C3790 C3791 1.367 . S
C3791 C3790 1.367 . S
C3791 C3793 1.433 1_565 S
C3792 C3788 1.350 . S
C3792 C3789 1.463 . S
C3792 N3796 1.427 1_565 S
C3793 H3783 0.929 . S
C3793 C3791 1.433 1_545 S
C3793 N3796 1.384 . S
C3794 H3785 0.929 1_565 S
C3794 C3786 1.378 . S
C3794 C3789 1.350 . S
C3795 H3782 0.929 . S
C3795 C3787 1.433 . S
C3795 N3797 1.384 . S
N3796 C3792 1.427 1_545 S
N3796 C3793 1.384 . S
N3797 C3789 1.427 . S
N3797 C3795 1.384 . S
H3798 C3804 0.930 . S
H3799 C3808 0.930 . S
H3800 C3813 0.929 . S
H3801 C3811 0.929 . S
H3802 C3806 0.929 . S
H3803 C3812 0.929 . S
C3804 H3798 0.930 . S
C3804 C3805 1.367 . S
C3804 C3812 1.378 . S
C3805 C3804 1.367 . S
C3805 C3813 1.433 . S
C3806 H3802 0.929 . S
C3806 C3808 1.378 . S
C3806 C3810 1.350 1_565 S
C3807 C3810 1.463 . S
C3807 C3812 1.350 . S
C3807 N3815 1.427 . S
C3808 H3799 0.930 . S
C3808 C3806 1.378 . S
C3808 C3809 1.367 1_565 S
C3809 C3808 1.367 1_545 S
C3809 C3811 1.433 . S
C3810 C3806 1.350 1_545 S
C3810 C3807 1.463 . S
C3810 N3814 1.427 . S
C3811 H3801 0.929 . S
C3811 C3809 1.433 . S
C3811 N3814 1.384 . S
C3812 H3803 0.929 . S
C3812 C3804 1.378 . S
C3812 C3807 1.350 . S
C3813 H3800 0.929 . S
C3813 C3805 1.433 . S
C3813 N3815 1.384 . S
N3814 C3810 1.427 . S
N3814 C3811 1.384 . S
N3815 C3807 1.427 . S
N3815 C3813 1.384 . S
H3816 C3822 0.930 . S
H3817 C3826 0.930 . S
H3818 C3831 0.929 . S
H3819 C3829 0.929 . S
H3820 C3824 0.929 . S
H3821 C3830 0.929 1_455 S
C3822 H3816 0.930 . S
C3822 C3823 1.367 . S
C3822 C3830 1.378 . S
C3823 C3822 1.367 . S
C3823 C3831 1.433 . S
C3824 H3820 0.929 . S
C3824 C3826 1.378 . S
C3824 C3828 1.350 . S
C3825 C3828 1.463 . S
C3825 C3830 1.350 . S
C3825 N3833 1.427 . S
C3826 H3817 0.930 . S
C3826 C3824 1.378 . S
C3826 C3827 1.367 . S
C3827 C3826 1.367 . S
C3827 C3829 1.433 1_655 S
C3828 C3824 1.350 . S
C3828 C3825 1.463 . S
C3828 N3832 1.427 1_655 S
C3829 H3819 0.929 . S
C3829 C3827 1.433 1_455 S
C3829 N3832 1.384 . S
C3830 H3821 0.929 1_655 S
C3830 C3822 1.378 . S
C3830 C3825 1.350 . S
C3831 H3818 0.929 . S
C3831 C3823 1.433 . S
C3831 N3833 1.384 . S
N3832 C3828 1.427 1_455 S
N3832 C3829 1.384 . S
N3833 C3825 1.427 . S
N3833 C3831 1.384 . S
H3834 C3840 0.930 . S
H3835 C3844 0.930 . S
H3836 C3849 0.929 . S
H3837 C3847 0.929 . S
H3838 C3842 0.929 . S
H3839 C3848 0.929 . S
C3840 H3834 0.930 . S
C3840 C3841 1.367 . S
C3840 C3848 1.378 . S
C3841 C3840 1.367 . S
C3841 C3849 1.433 . S
C3842 H3838 0.929 . S
C3842 C3844 1.378 . S
C3842 C3846 1.350 . S
C3843 C3846 1.463 . S
C3843 C3848 1.350 . S
C3843 N3851 1.427 . S
C3844 H3835 0.930 . S
C3844 C3842 1.378 . S
C3844 C3845 1.367 . S
C3845 C3844 1.367 . S
C3845 C3847 1.433 . S
C3846 C3842 1.350 . S
C3846 C3843 1.463 . S
C3846 N3850 1.427 . S
C3847 H3837 0.929 . S
C3847 C3845 1.433 . S
C3847 N3850 1.384 . S
C3848 H3839 0.929 . S
C3848 C3840 1.378 . S
C3848 C3843 1.350 . S
C3849 H3836 0.929 . S
C3849 C3841 1.433 . S
C3849 N3851 1.384 . S
N3850 C3846 1.427 . S
N3850 C3847 1.384 . S
N3851 C3843 1.427 . S
N3851 C3849 1.384 . S
H3852 C3858 0.930 . S
H3853 C3862 0.930 . S
H3854 C3867 0.929 . S
H3855 C3865 0.929 . S
H3856 C3860 0.929 . S
H3857 C3866 0.929 . S
C3858 H3852 0.930 . S
C3858 C3859 1.367 . S
C3858 C3866 1.378 . S
C3859 C3858 1.367 . S
C3859 C3867 1.433 . S
C3860 H3856 0.929 . S
C3860 C3862 1.378 . S
C3860 C3864 1.350 . S
C3861 C3864 1.463 . S
C3861 C3866 1.350 . S
C3861 N3869 1.427 . S
C3862 H3853 0.930 . S
C3862 C3860 1.378 . S
C3862 C3863 1.367 . S
C3863 C3862 1.367 . S
C3863 C3865 1.433 . S
C3864 C3860 1.350 . S
C3864 C3861 1.463 . S
C3864 N3868 1.427 . S
C3865 H3855 0.929 . S
C3865 C3863 1.433 . S
C3865 N3868 1.384 . S
C3866 H3857 0.929 . S
C3866 C3858 1.378 . S
C3866 C3861 1.350 . S
C3867 H3854 0.929 . S
C3867 C3859 1.433 . S
C3867 N3869 1.384 . S
N3868 C3864 1.427 . S
N3868 C3865 1.384 . S
N3869 C3861 1.427 . S
N3869 C3867 1.384 . S
H3870 C3876 0.930 . S
H3871 C3880 0.930 . S
H3872 C3885 0.929 . S
H3873 C3883 0.929 . S
H3874 C3878 0.929 . S
H3875 C3884 0.929 . S
C3876 H3870 0.930 . S
C3876 C3877 1.367 . S
C3876 C3884 1.378 . S
C3877 C3876 1.367 . S
C3877 C3885 1.433 . S
C3878 H3874 0.929 . S
C3878 C3880 1.378 . S
C3878 C3882 1.350 . S
C3879 C3882 1.463 . S
C3879 C3884 1.350 . S
C3879 N3887 1.427 . S
C3880 H3871 0.930 . S
C3880 C3878 1.378 . S
C3880 C3881 1.367 . S
C3881 C3880 1.367 . S
C3881 C3883 1.433 . S
C3882 C3878 1.350 . S
C3882 C3879 1.463 . S
C3882 N3886 1.427 . S
C3883 H3873 0.929 . S
C3883 C3881 1.433 . S
C3883 N3886 1.384 . S
C3884 H3875 0.929 . S
C3884 C3876 1.378 . S
C3884 C3879 1.350 . S
C3885 H3872 0.929 . S
C3885 C3877 1.433 . S
C3885 N3887 1.384 . S
N3886 C3882 1.427 . S
N3886 C3883 1.384 . S
N3887 C3879 1.427 . S
N3887 C3885 1.384 . S
H3888 C3894 0.930 . S
H3889 C3898 0.930 . S
H3890 C3903 0.929 . S
H3891 C3901 0.929 . S
H3892 C3896 0.929 . S
H3893 C3902 0.929 . S
C3894 H3888 0.930 . S
C3894 C3895 1.367 . S
C3894 C3902 1.378 . S
C3895 C3894 1.367 . S
C3895 C3903 1.433 . S
C3896 H3892 0.929 . S
C3896 C3898 1.378 . S
C3896 C3900 1.350 . S
C3897 C3900 1.463 . S
C3897 C3902 1.350 . S
C3897 N3905 1.427 . S
C3898 H3889 0.930 . S
C3898 C3896 1.378 . S
C3898 C3899 1.367 . S
C3899 C3898 1.367 . S
C3899 C3901 1.433 . S
C3900 C3896 1.350 . S
C3900 C3897 1.463 . S
C3900 N3904 1.427 . S
C3901 H3891 0.929 . S
C3901 C3899 1.433 . S
C3901 N3904 1.384 . S
C3902 H3893 0.929 . S
C3902 C3894 1.378 . S
C3902 C3897 1.350 . S
C3903 H3890 0.929 . S
C3903 C3895 1.433 . S
C3903 N3905 1.384 . S
N3904 C3900 1.427 . S
N3904 C3901 1.384 . S
N3905 C3897 1.427 . S
N3905 C3903 1.384 . S
H3906 C3912 0.930 . S
H3907 C3916 0.930 . S
H3908 C3921 0.929 . S
H3909 C3919 0.929 . S
H3910 C3914 0.929 . S
H3911 C3920 0.929 . S
C3912 H3906 0.930 . S
C3912 C3913 1.367 . S
C3912 C3920 1.378 . S
C3913 C3912 1.367 . S
C3913 C3921 1.433 . S
C3914 H3910 0.929 . S
C3914 C3916 1.378 . S
C3914 C3918 1.350 . S
C3915 C3918 1.463 . S
C3915 C3920 1.350 . S
C3915 N3923 1.427 . S
C3916 H3907 0.930 . S
C3916 C3914 1.378 . S
C3916 C3917 1.367 . S
C3917 C3916 1.367 . S
C3917 C3919 1.433 . S
C3918 C3914 1.350 . S
C3918 C3915 1.463 . S
C3918 N3922 1.427 . S
C3919 H3909 0.929 . S
C3919 C3917 1.433 . S
C3919 N3922 1.384 . S
C3920 H3911 0.929 . S
C3920 C3912 1.378 . S
C3920 C3915 1.350 . S
C3921 H3908 0.929 . S
C3921 C3913 1.433 . S
C3921 N3923 1.384 . S
N3922 C3918 1.427 . S
N3922 C3919 1.384 . S
N3923 C3915 1.427 . S
N3923 C3921 1.384 . S
H3924 C3930 0.930 . S
H3925 C3934 0.930 . S
H3926 C3939 0.929 . S
H3927 C3937 0.929 . S
H3928 C3932 0.929 . S
H3929 C3938 0.929 . S
C3930 H3924 0.930 . S
C3930 C3931 1.367 . S
C3930 C3938 1.378 . S
C3931 C3930 1.367 . S
C3931 C3939 1.433 . S
C3932 H3928 0.929 . S
C3932 C3934 1.378 . S
C3932 C3936 1.350 . S
C3933 C3936 1.463 . S
C3933 C3938 1.350 . S
C3933 N3941 1.427 . S
C3934 H3925 0.930 . S
C3934 C3932 1.378 . S
C3934 C3935 1.367 . S
C3935 C3934 1.367 . S
C3935 C3937 1.433 . S
C3936 C3932 1.350 . S
C3936 C3933 1.463 . S
C3936 N3940 1.427 . S
C3937 H3927 0.929 . S
C3937 C3935 1.433 . S
C3937 N3940 1.384 . S
C3938 H3929 0.929 . S
C3938 C3930 1.378 . S
C3938 C3933 1.350 . S
C3939 H3926 0.929 . S
C3939 C3931 1.433 . S
C3939 N3941 1.384 . S
N3940 C3936 1.427 . S
N3940 C3937 1.384 . S
N3941 C3933 1.427 . S
N3941 C3939 1.384 . S
H3942 C3948 0.930 . S
H3943 C3952 0.930 . S
H3944 C3957 0.929 . S
H3945 C3955 0.929 . S
H3946 C3950 0.929 . S
H3947 C3956 0.929 . S
C3948 H3942 0.930 . S
C3948 C3949 1.367 . S
C3948 C3956 1.378 . S
C3949 C3948 1.367 . S
C3949 C3957 1.433 . S
C3950 H3946 0.929 . S
C3950 C3952 1.378 . S
C3950 C3954 1.350 . S
C3951 C3954 1.463 . S
C3951 C3956 1.350 . S
C3951 N3959 1.427 . S
C3952 H3943 0.930 . S
C3952 C3950 1.378 . S
C3952 C3953 1.367 . S
C3953 C3952 1.367 . S
C3953 C3955 1.433 . S
C3954 C3950 1.350 . S
C3954 C3951 1.463 . S
C3954 N3958 1.427 . S
C3955 H3945 0.929 . S
C3955 C3953 1.433 . S
C3955 N3958 1.384 . S
C3956 H3947 0.929 . S
C3956 C3948 1.378 . S
C3956 C3951 1.350 . S
C3957 H3944 0.929 . S
C3957 C3949 1.433 . S
C3957 N3959 1.384 . S
N3958 C3954 1.427 . S
N3958 C3955 1.384 . S
N3959 C3951 1.427 . S
N3959 C3957 1.384 . S
H3960 C3966 0.930 . S
H3961 C3970 0.930 . S
H3962 C3975 0.929 . S
H3963 C3973 0.929 . S
H3964 C3968 0.929 . S
H3965 C3974 0.929 . S
C3966 H3960 0.930 . S
C3966 C3967 1.367 . S
C3966 C3974 1.378 . S
C3967 C3966 1.367 . S
C3967 C3975 1.433 . S
C3968 H3964 0.929 . S
C3968 C3970 1.378 . S
C3968 C3972 1.350 . S
C3969 C3972 1.463 . S
C3969 C3974 1.350 . S
C3969 N3977 1.427 . S
C3970 H3961 0.930 . S
C3970 C3968 1.378 . S
C3970 C3971 1.367 . S
C3971 C3970 1.367 . S
C3971 C3973 1.433 . S
C3972 C3968 1.350 . S
C3972 C3969 1.463 . S
C3972 N3976 1.427 . S
C3973 H3963 0.929 . S
C3973 C3971 1.433 . S
C3973 N3976 1.384 . S
C3974 H3965 0.929 . S
C3974 C3966 1.378 . S
C3974 C3969 1.350 . S
C3975 H3962 0.929 . S
C3975 C3967 1.433 . S
C3975 N3977 1.384 . S
N3976 C3972 1.427 . S
N3976 C3973 1.384 . S
N3977 C3969 1.427 . S
N3977 C3975 1.384 . S
H3978 C3984 0.930 . S
H3979 C3988 0.930 . S
H3980 C3993 0.929 . S
H3981 C3991 0.929 . S
H3982 C3986 0.929 . S
H3983 C3992 0.929 . S
C3984 H3978 0.930 . S
C3984 C3985 1.367 . S
C3984 C3992 1.378 . S
C3985 C3984 1.367 . S
C3985 C3993 1.433 . S
C3986 H3982 0.929 . S
C3986 C3988 1.378 . S
C3986 C3990 1.350 . S
C3987 C3990 1.463 . S
C3987 C3992 1.350 . S
C3987 N3995 1.427 . S
C3988 H3979 0.930 . S
C3988 C3986 1.378 . S
C3988 C3989 1.367 . S
C3989 C3988 1.367 . S
C3989 C3991 1.433 . S
C3990 C3986 1.350 . S
C3990 C3987 1.463 . S
C3990 N3994 1.427 . S
C3991 H3981 0.929 . S
C3991 C3989 1.433 . S
C3991 N3994 1.384 . S
C3992 H3983 0.929 . S
C3992 C3984 1.378 . S
C3992 C3987 1.350 . S
C3993 H3980 0.929 . S
C3993 C3985 1.433 . S
C3993 N3995 1.384 . S
N3994 C3990 1.427 . S
N3994 C3991 1.384 . S
N3995 C3987 1.427 . S
N3995 C3993 1.384 . S
H3996 C4002 0.930 . S
H3997 C4006 0.930 . S
H3998 C4011 0.929 . S
H3999 C4009 0.929 . S
H4000 C4004 0.929 . S
H4001 C4010 0.929 . S
C4002 H3996 0.930 . S
C4002 C4003 1.367 . S
C4002 C4010 1.378 . S
C4003 C4002 1.367 . S
C4003 C4011 1.433 . S
C4004 H4000 0.929 . S
C4004 C4006 1.378 . S
C4004 C4008 1.350 . S
C4005 C4008 1.463 . S
C4005 C4010 1.350 . S
C4005 N4013 1.427 . S
C4006 H3997 0.930 . S
C4006 C4004 1.378 . S
C4006 C4007 1.367 . S
C4007 C4006 1.367 . S
C4007 C4009 1.433 . S
C4008 C4004 1.350 . S
C4008 C4005 1.463 . S
C4008 N4012 1.427 . S
C4009 H3999 0.929 . S
C4009 C4007 1.433 . S
C4009 N4012 1.384 . S
C4010 H4001 0.929 . S
C4010 C4002 1.378 . S
C4010 C4005 1.350 . S
C4011 H3998 0.929 . S
C4011 C4003 1.433 . S
C4011 N4013 1.384 . S
N4012 C4008 1.427 . S
N4012 C4009 1.384 . S
N4013 C4005 1.427 . S
N4013 C4011 1.384 . S
H4014 C4020 0.930 . S
H4015 C4024 0.930 . S
H4016 C4029 0.929 . S
H4017 C4027 0.929 . S
H4018 C4022 0.929 . S
H4019 C4028 0.929 . S
C4020 H4014 0.930 . S
C4020 C4021 1.367 . S
C4020 C4028 1.378 . S
C4021 C4020 1.367 . S
C4021 C4029 1.433 . S
C4022 H4018 0.929 . S
C4022 C4024 1.378 . S
C4022 C4026 1.350 . S
C4023 C4026 1.463 . S
C4023 C4028 1.350 . S
C4023 N4031 1.427 . S
C4024 H4015 0.930 . S
C4024 C4022 1.378 . S
C4024 C4025 1.367 . S
C4025 C4024 1.367 . S
C4025 C4027 1.433 . S
C4026 C4022 1.350 . S
C4026 C4023 1.463 . S
C4026 N4030 1.427 . S
C4027 H4017 0.929 . S
C4027 C4025 1.433 . S
C4027 N4030 1.384 . S
C4028 H4019 0.929 . S
C4028 C4020 1.378 . S
C4028 C4023 1.350 . S
C4029 H4016 0.929 . S
C4029 C4021 1.433 . S
C4029 N4031 1.384 . S
N4030 C4026 1.427 . S
N4030 C4027 1.384 . S
N4031 C4023 1.427 . S
N4031 C4029 1.384 . S
H4032 C4038 0.930 . S
H4033 C4042 0.930 . S
H4034 C4047 0.929 . S
H4035 C4045 0.929 . S
H4036 C4040 0.929 . S
H4037 C4046 0.929 . S
C4038 H4032 0.930 . S
C4038 C4039 1.367 . S
C4038 C4046 1.378 . S
C4039 C4038 1.367 . S
C4039 C4047 1.433 . S
C4040 H4036 0.929 . S
C4040 C4042 1.378 . S
C4040 C4044 1.350 . S
C4041 C4044 1.463 . S
C4041 C4046 1.350 . S
C4041 N4049 1.427 . S
C4042 H4033 0.930 . S
C4042 C4040 1.378 . S
C4042 C4043 1.367 . S
C4043 C4042 1.367 . S
C4043 C4045 1.433 . S
C4044 C4040 1.350 . S
C4044 C4041 1.463 . S
C4044 N4048 1.427 . S
C4045 H4035 0.929 . S
C4045 C4043 1.433 . S
C4045 N4048 1.384 . S
C4046 H4037 0.929 . S
C4046 C4038 1.378 . S
C4046 C4041 1.350 . S
C4047 H4034 0.929 . S
C4047 C4039 1.433 . S
C4047 N4049 1.384 . S
N4048 C4044 1.427 . S
N4048 C4045 1.384 . S
N4049 C4041 1.427 . S
N4049 C4047 1.384 . S
H4050 C4056 0.930 . S
H4051 C4060 0.930 . S
H4052 C4065 0.929 . S
H4053 C4063 0.929 . S
H4054 C4058 0.929 . S
H4055 C4064 0.929 . S
C4056 H4050 0.930 . S
C4056 C4057 1.367 . S
C4056 C4064 1.378 . S
C4057 C4056 1.367 . S
C4057 C4065 1.433 . S
C4058 H4054 0.929 . S
C4058 C4060 1.378 . S
C4058 C4062 1.350 . S
C4059 C4062 1.463 . S
C4059 C4064 1.350 . S
C4059 N4067 1.427 . S
C4060 H4051 0.930 . S
C4060 C4058 1.378 . S
C4060 C4061 1.367 . S
C4061 C4060 1.367 . S
C4061 C4063 1.433 . S
C4062 C4058 1.350 . S
C4062 C4059 1.463 . S
C4062 N4066 1.427 . S
C4063 H4053 0.929 . S
C4063 C4061 1.433 . S
C4063 N4066 1.384 . S
C4064 H4055 0.929 . S
C4064 C4056 1.378 . S
C4064 C4059 1.350 . S
C4065 H4052 0.929 . S
C4065 C4057 1.433 . S
C4065 N4067 1.384 . S
N4066 C4062 1.427 . S
N4066 C4063 1.384 . S
N4067 C4059 1.427 . S
N4067 C4065 1.384 . S
H4068 C4074 0.930 . S
H4069 C4078 0.930 . S
H4070 C4083 0.929 . S
H4071 C4081 0.929 . S
H4072 C4076 0.929 . S
H4073 C4082 0.929 . S
C4074 H4068 0.930 . S
C4074 C4075 1.367 . S
C4074 C4082 1.378 . S
C4075 C4074 1.367 . S
C4075 C4083 1.433 . S
C4076 H4072 0.929 . S
C4076 C4078 1.378 . S
C4076 C4080 1.350 . S
C4077 C4080 1.463 . S
C4077 C4082 1.350 . S
C4077 N4085 1.427 . S
C4078 H4069 0.930 . S
C4078 C4076 1.378 . S
C4078 C4079 1.367 . S
C4079 C4078 1.367 . S
C4079 C4081 1.433 . S
C4080 C4076 1.350 . S
C4080 C4077 1.463 . S
C4080 N4084 1.427 . S
C4081 H4071 0.929 . S
C4081 C4079 1.433 . S
C4081 N4084 1.384 . S
C4082 H4073 0.929 . S
C4082 C4074 1.378 . S
C4082 C4077 1.350 . S
C4083 H4070 0.929 . S
C4083 C4075 1.433 . S
C4083 N4085 1.384 . S
N4084 C4080 1.427 . S
N4084 C4081 1.384 . S
N4085 C4077 1.427 . S
N4085 C4083 1.384 . S
H4086 C4092 0.930 . S
H4087 C4096 0.930 . S
H4088 C4101 0.929 . S
H4089 C4099 0.929 . S
H4090 C4094 0.929 . S
H4091 C4100 0.929 . S
C4092 H4086 0.930 . S
C4092 C4093 1.367 . S
C4092 C4100 1.378 . S
C4093 C4092 1.367 . S
C4093 C4101 1.433 . S
C4094 H4090 0.929 . S
C4094 C4096 1.378 . S
C4094 C4098 1.350 . S
C4095 C4098 1.463 . S
C4095 C4100 1.350 . S
C4095 N4103 1.427 . S
C4096 H4087 0.930 . S
C4096 C4094 1.378 . S
C4096 C4097 1.367 . S
C4097 C4096 1.367 . S
C4097 C4099 1.433 . S
C4098 C4094 1.350 . S
C4098 C4095 1.463 . S
C4098 N4102 1.427 . S
C4099 H4089 0.929 . S
C4099 C4097 1.433 . S
C4099 N4102 1.384 . S
C4100 H4091 0.929 . S
C4100 C4092 1.378 . S
C4100 C4095 1.350 . S
C4101 H4088 0.929 . S
C4101 C4093 1.433 . S
C4101 N4103 1.384 . S
N4102 C4098 1.427 . S
N4102 C4099 1.384 . S
N4103 C4095 1.427 . S
N4103 C4101 1.384 . S
H4104 C4110 0.930 . S
H4105 C4114 0.930 . S
H4106 C4119 0.929 . S
H4107 C4117 0.929 . S
H4108 C4112 0.929 . S
H4109 C4118 0.929 . S
C4110 H4104 0.930 . S
C4110 C4111 1.367 . S
C4110 C4118 1.378 . S
C4111 C4110 1.367 . S
C4111 C4119 1.433 . S
C4112 H4108 0.929 . S
C4112 C4114 1.378 . S
C4112 C4116 1.350 . S
C4113 C4116 1.463 . S
C4113 C4118 1.350 . S
C4113 N4121 1.427 . S
C4114 H4105 0.930 . S
C4114 C4112 1.378 . S
C4114 C4115 1.367 . S
C4115 C4114 1.367 . S
C4115 C4117 1.433 . S
C4116 C4112 1.350 . S
C4116 C4113 1.463 . S
C4116 N4120 1.427 . S
C4117 H4107 0.929 . S
C4117 C4115 1.433 . S
C4117 N4120 1.384 . S
C4118 H4109 0.929 . S
C4118 C4110 1.378 . S
C4118 C4113 1.350 . S
C4119 H4106 0.929 . S
C4119 C4111 1.433 . S
C4119 N4121 1.384 . S
N4120 C4116 1.427 . S
N4120 C4117 1.384 . S
N4121 C4113 1.427 . S
N4121 C4119 1.384 . S
H4122 C4128 0.930 . S
H4123 C4132 0.930 . S
H4124 C4137 0.929 . S
H4125 C4135 0.929 . S
H4126 C4130 0.929 . S
H4127 C4136 0.929 . S
C4128 H4122 0.930 . S
C4128 C4129 1.367 . S
C4128 C4136 1.378 . S
C4129 C4128 1.367 . S
C4129 C4137 1.433 . S
C4130 H4126 0.929 . S
C4130 C4132 1.378 . S
C4130 C4134 1.350 . S
C4131 C4134 1.463 . S
C4131 C4136 1.350 . S
C4131 N4139 1.427 . S
C4132 H4123 0.930 . S
C4132 C4130 1.378 . S
C4132 C4133 1.367 . S
C4133 C4132 1.367 . S
C4133 C4135 1.433 . S
C4134 C4130 1.350 . S
C4134 C4131 1.463 . S
C4134 N4138 1.427 . S
C4135 H4125 0.929 . S
C4135 C4133 1.433 . S
C4135 N4138 1.384 . S
C4136 H4127 0.929 . S
C4136 C4128 1.378 . S
C4136 C4131 1.350 . S
C4137 H4124 0.929 . S
C4137 C4129 1.433 . S
C4137 N4139 1.384 . S
N4138 C4134 1.427 . S
N4138 C4135 1.384 . S
N4139 C4131 1.427 . S
N4139 C4137 1.384 . S
H4140 C4146 0.930 . S
H4141 C4150 0.930 . S
H4142 C4155 0.929 . S
H4143 C4153 0.929 . S
H4144 C4148 0.929 . S
H4145 C4154 0.929 . S
C4146 H4140 0.930 . S
C4146 C4147 1.367 . S
C4146 C4154 1.378 . S
C4147 C4146 1.367 . S
C4147 C4155 1.433 . S
C4148 H4144 0.929 . S
C4148 C4150 1.378 . S
C4148 C4152 1.350 . S
C4149 C4152 1.463 . S
C4149 C4154 1.350 . S
C4149 N4157 1.427 . S
C4150 H4141 0.930 . S
C4150 C4148 1.378 . S
C4150 C4151 1.367 . S
C4151 C4150 1.367 . S
C4151 C4153 1.433 . S
C4152 C4148 1.350 . S
C4152 C4149 1.463 . S
C4152 N4156 1.427 . S
C4153 H4143 0.929 . S
C4153 C4151 1.433 . S
C4153 N4156 1.384 . S
C4154 H4145 0.929 . S
C4154 C4146 1.378 . S
C4154 C4149 1.350 . S
C4155 H4142 0.929 . S
C4155 C4147 1.433 . S
C4155 N4157 1.384 . S
N4156 C4152 1.427 . S
N4156 C4153 1.384 . S
N4157 C4149 1.427 . S
N4157 C4155 1.384 . S
H4158 C4164 0.930 . S
H4159 C4168 0.930 . S
H4160 C4173 0.929 . S
H4161 C4171 0.929 . S
H4162 C4166 0.929 . S
H4163 C4172 0.929 . S
C4164 H4158 0.930 . S
C4164 C4165 1.367 . S
C4164 C4172 1.378 . S
C4165 C4164 1.367 . S
C4165 C4173 1.433 . S
C4166 H4162 0.929 . S
C4166 C4168 1.378 . S
C4166 C4170 1.350 . S
C4167 C4170 1.463 . S
C4167 C4172 1.350 . S
C4167 N4175 1.427 . S
C4168 H4159 0.930 . S
C4168 C4166 1.378 . S
C4168 C4169 1.367 . S
C4169 C4168 1.367 . S
C4169 C4171 1.433 . S
C4170 C4166 1.350 . S
C4170 C4167 1.463 . S
C4170 N4174 1.427 . S
C4171 H4161 0.929 . S
C4171 C4169 1.433 . S
C4171 N4174 1.384 . S
C4172 H4163 0.929 . S
C4172 C4164 1.378 . S
C4172 C4167 1.350 . S
C4173 H4160 0.929 . S
C4173 C4165 1.433 . S
C4173 N4175 1.384 . S
N4174 C4170 1.427 . S
N4174 C4171 1.384 . S
N4175 C4167 1.427 . S
N4175 C4173 1.384 . S
H4176 C4182 0.930 . S
H4177 C4186 0.930 . S
H4178 C4191 0.929 . S
H4179 C4189 0.929 . S
H4180 C4184 0.929 . S
H4181 C4190 0.929 . S
C4182 H4176 0.930 . S
C4182 C4183 1.367 . S
C4182 C4190 1.378 . S
C4183 C4182 1.367 . S
C4183 C4191 1.433 . S
C4184 H4180 0.929 . S
C4184 C4186 1.378 . S
C4184 C4188 1.350 . S
C4185 C4188 1.463 . S
C4185 C4190 1.350 . S
C4185 N4193 1.427 . S
C4186 H4177 0.930 . S
C4186 C4184 1.378 . S
C4186 C4187 1.367 . S
C4187 C4186 1.367 . S
C4187 C4189 1.433 . S
C4188 C4184 1.350 . S
C4188 C4185 1.463 . S
C4188 N4192 1.427 . S
C4189 H4179 0.929 . S
C4189 C4187 1.433 . S
C4189 N4192 1.384 . S
C4190 H4181 0.929 . S
C4190 C4182 1.378 . S
C4190 C4185 1.350 . S
C4191 H4178 0.929 . S
C4191 C4183 1.433 . S
C4191 N4193 1.384 . S
N4192 C4188 1.427 . S
N4192 C4189 1.384 . S
N4193 C4185 1.427 . S
N4193 C4191 1.384 . S
H4194 C4200 0.930 . S
H4195 C4204 0.930 . S
H4196 C4209 0.929 . S
H4197 C4207 0.929 . S
H4198 C4202 0.929 . S
H4199 C4208 0.929 . S
C4200 H4194 0.930 . S
C4200 C4201 1.367 . S
C4200 C4208 1.378 . S
C4201 C4200 1.367 . S
C4201 C4209 1.433 . S
C4202 H4198 0.929 . S
C4202 C4204 1.378 . S
C4202 C4206 1.350 . S
C4203 C4206 1.463 . S
C4203 C4208 1.350 . S
C4203 N4211 1.427 . S
C4204 H4195 0.930 . S
C4204 C4202 1.378 . S
C4204 C4205 1.367 . S
C4205 C4204 1.367 . S
C4205 C4207 1.433 . S
C4206 C4202 1.350 . S
C4206 C4203 1.463 . S
C4206 N4210 1.427 . S
C4207 H4197 0.929 . S
C4207 C4205 1.433 . S
C4207 N4210 1.384 . S
C4208 H4199 0.929 . S
C4208 C4200 1.378 . S
C4208 C4203 1.350 . S
C4209 H4196 0.929 . S
C4209 C4201 1.433 . S
C4209 N4211 1.384 . S
N4210 C4206 1.427 . S
N4210 C4207 1.384 . S
N4211 C4203 1.427 . S
N4211 C4209 1.384 . S
H4212 C4218 0.930 . S
H4213 C4222 0.930 . S
H4214 C4227 0.929 . S
H4215 C4225 0.929 . S
H4216 C4220 0.929 . S
H4217 C4226 0.929 . S
C4218 H4212 0.930 . S
C4218 C4219 1.367 . S
C4218 C4226 1.378 . S
C4219 C4218 1.367 . S
C4219 C4227 1.433 . S
C4220 H4216 0.929 . S
C4220 C4222 1.378 . S
C4220 C4224 1.350 . S
C4221 C4224 1.463 . S
C4221 C4226 1.350 . S
C4221 N4229 1.427 . S
C4222 H4213 0.930 . S
C4222 C4220 1.378 . S
C4222 C4223 1.367 . S
C4223 C4222 1.367 . S
C4223 C4225 1.433 . S
C4224 C4220 1.350 . S
C4224 C4221 1.463 . S
C4224 N4228 1.427 . S
C4225 H4215 0.929 . S
C4225 C4223 1.433 . S
C4225 N4228 1.384 . S
C4226 H4217 0.929 . S
C4226 C4218 1.378 . S
C4226 C4221 1.350 . S
C4227 H4214 0.929 . S
C4227 C4219 1.433 . S
C4227 N4229 1.384 . S
N4228 C4224 1.427 . S
N4228 C4225 1.384 . S
N4229 C4221 1.427 . S
N4229 C4227 1.384 . S
H4230 C4236 0.930 . S
H4231 C4240 0.930 . S
H4232 C4245 0.929 . S
H4233 C4243 0.929 . S
H4234 C4238 0.929 . S
H4235 C4244 0.929 . S
C4236 H4230 0.930 . S
C4236 C4237 1.367 . S
C4236 C4244 1.378 . S
C4237 C4236 1.367 . S
C4237 C4245 1.433 . S
C4238 H4234 0.929 . S
C4238 C4240 1.378 . S
C4238 C4242 1.350 . S
C4239 C4242 1.463 . S
C4239 C4244 1.350 . S
C4239 N4247 1.427 . S
C4240 H4231 0.930 . S
C4240 C4238 1.378 . S
C4240 C4241 1.367 . S
C4241 C4240 1.367 . S
C4241 C4243 1.433 . S
C4242 C4238 1.350 . S
C4242 C4239 1.463 . S
C4242 N4246 1.427 . S
C4243 H4233 0.929 . S
C4243 C4241 1.433 . S
C4243 N4246 1.384 . S
C4244 H4235 0.929 . S
C4244 C4236 1.378 . S
C4244 C4239 1.350 . S
C4245 H4232 0.929 . S
C4245 C4237 1.433 . S
C4245 N4247 1.384 . S
N4246 C4242 1.427 . S
N4246 C4243 1.384 . S
N4247 C4239 1.427 . S
N4247 C4245 1.384 . S
H4248 C4254 0.930 . S
H4249 C4258 0.930 . S
H4250 C4263 0.929 . S
H4251 C4261 0.929 . S
H4252 C4256 0.929 . S
H4253 C4262 0.929 . S
C4254 H4248 0.930 . S
C4254 C4255 1.367 . S
C4254 C4262 1.378 . S
C4255 C4254 1.367 . S
C4255 C4263 1.433 . S
C4256 H4252 0.929 . S
C4256 C4258 1.378 . S
C4256 C4260 1.350 . S
C4257 C4260 1.463 . S
C4257 C4262 1.350 . S
C4257 N4265 1.427 . S
C4258 H4249 0.930 . S
C4258 C4256 1.378 . S
C4258 C4259 1.367 . S
C4259 C4258 1.367 . S
C4259 C4261 1.433 . S
C4260 C4256 1.350 . S
C4260 C4257 1.463 . S
C4260 N4264 1.427 . S
C4261 H4251 0.929 . S
C4261 C4259 1.433 . S
C4261 N4264 1.384 . S
C4262 H4253 0.929 . S
C4262 C4254 1.378 . S
C4262 C4257 1.350 . S
C4263 H4250 0.929 . S
C4263 C4255 1.433 . S
C4263 N4265 1.384 . S
N4264 C4260 1.427 . S
N4264 C4261 1.384 . S
N4265 C4257 1.427 . S
N4265 C4263 1.384 . S
H4266 C4272 0.930 . S
H4267 C4276 0.930 . S
H4268 C4281 0.929 . S
H4269 C4279 0.929 . S
H4270 C4274 0.929 . S
H4271 C4280 0.929 . S
C4272 H4266 0.930 . S
C4272 C4273 1.367 . S
C4272 C4280 1.378 . S
C4273 C4272 1.367 . S
C4273 C4281 1.433 . S
C4274 H4270 0.929 . S
C4274 C4276 1.378 . S
C4274 C4278 1.350 . S
C4275 C4278 1.463 . S
C4275 C4280 1.350 . S
C4275 N4283 1.427 . S
C4276 H4267 0.930 . S
C4276 C4274 1.378 . S
C4276 C4277 1.367 . S
C4277 C4276 1.367 . S
C4277 C4279 1.433 . S
C4278 C4274 1.350 . S
C4278 C4275 1.463 . S
C4278 N4282 1.427 . S
C4279 H4269 0.929 . S
C4279 C4277 1.433 . S
C4279 N4282 1.384 . S
C4280 H4271 0.929 . S
C4280 C4272 1.378 . S
C4280 C4275 1.350 . S
C4281 H4268 0.929 . S
C4281 C4273 1.433 . S
C4281 N4283 1.384 . S
N4282 C4278 1.427 . S
N4282 C4279 1.384 . S
N4283 C4275 1.427 . S
N4283 C4281 1.384 . S
H4284 C4290 0.930 . S
H4285 C4294 0.930 . S
H4286 C4299 0.929 . S
H4287 C4297 0.929 . S
H4288 C4292 0.929 . S
H4289 C4298 0.929 . S
C4290 H4284 0.930 . S
C4290 C4291 1.367 . S
C4290 C4298 1.378 . S
C4291 C4290 1.367 . S
C4291 C4299 1.433 . S
C4292 H4288 0.929 . S
C4292 C4294 1.378 . S
C4292 C4296 1.350 . S
C4293 C4296 1.463 . S
C4293 C4298 1.350 . S
C4293 N4301 1.427 . S
C4294 H4285 0.930 . S
C4294 C4292 1.378 . S
C4294 C4295 1.367 . S
C4295 C4294 1.367 . S
C4295 C4297 1.433 . S
C4296 C4292 1.350 . S
C4296 C4293 1.463 . S
C4296 N4300 1.427 . S
C4297 H4287 0.929 . S
C4297 C4295 1.433 . S
C4297 N4300 1.384 . S
C4298 H4289 0.929 . S
C4298 C4290 1.378 . S
C4298 C4293 1.350 . S
C4299 H4286 0.929 . S
C4299 C4291 1.433 . S
C4299 N4301 1.384 . S
N4300 C4296 1.427 . S
N4300 C4297 1.384 . S
N4301 C4293 1.427 . S
N4301 C4299 1.384 . S
H4302 C4308 0.930 . S
H4303 C4312 0.930 . S
H4304 C4317 0.929 . S
H4305 C4315 0.929 . S
H4306 C4310 0.929 . S
H4307 C4316 0.929 . S
C4308 H4302 0.930 . S
C4308 C4309 1.367 . S
C4308 C4316 1.378 . S
C4309 C4308 1.367 . S
C4309 C4317 1.433 . S
C4310 H4306 0.929 . S
C4310 C4312 1.378 . S
C4310 C4314 1.350 . S
C4311 C4314 1.463 . S
C4311 C4316 1.350 . S
C4311 N4319 1.427 . S
C4312 H4303 0.930 . S
C4312 C4310 1.378 . S
C4312 C4313 1.367 . S
C4313 C4312 1.367 . S
C4313 C4315 1.433 . S
C4314 C4310 1.350 . S
C4314 C4311 1.463 . S
C4314 N4318 1.427 . S
C4315 H4305 0.929 . S
C4315 C4313 1.433 . S
C4315 N4318 1.384 . S
C4316 H4307 0.929 . S
C4316 C4308 1.378 . S
C4316 C4311 1.350 . S
C4317 H4304 0.929 . S
C4317 C4309 1.433 . S
C4317 N4319 1.384 . S
N4318 C4314 1.427 . S
N4318 C4315 1.384 . S
N4319 C4311 1.427 . S
N4319 C4317 1.384 . S
H4320 C4326 0.930 . S
H4321 C4330 0.930 . S
H4322 C4335 0.929 . S
H4323 C4333 0.929 . S
H4324 C4328 0.929 . S
H4325 C4334 0.929 . S
C4326 H4320 0.930 . S
C4326 C4327 1.367 . S
C4326 C4334 1.378 . S
C4327 C4326 1.367 . S
C4327 C4335 1.433 . S
C4328 H4324 0.929 . S
C4328 C4330 1.378 . S
C4328 C4332 1.350 . S
C4329 C4332 1.463 . S
C4329 C4334 1.350 . S
C4329 N4337 1.427 . S
C4330 H4321 0.930 . S
C4330 C4328 1.378 . S
C4330 C4331 1.367 . S
C4331 C4330 1.367 . S
C4331 C4333 1.433 . S
C4332 C4328 1.350 . S
C4332 C4329 1.463 . S
C4332 N4336 1.427 . S
C4333 H4323 0.929 . S
C4333 C4331 1.433 . S
C4333 N4336 1.384 . S
C4334 H4325 0.929 . S
C4334 C4326 1.378 . S
C4334 C4329 1.350 . S
C4335 H4322 0.929 . S
C4335 C4327 1.433 . S
C4335 N4337 1.384 . S
N4336 C4332 1.427 . S
N4336 C4333 1.384 . S
N4337 C4329 1.427 . S
N4337 C4335 1.384 . S
H4338 C4344 0.930 . S
H4339 C4348 0.930 . S
H4340 C4353 0.929 . S
H4341 C4351 0.929 . S
H4342 C4346 0.929 . S
H4343 C4352 0.929 . S
C4344 H4338 0.930 . S
C4344 C4345 1.367 . S
C4344 C4352 1.378 . S
C4345 C4344 1.367 . S
C4345 C4353 1.433 . S
C4346 H4342 0.929 . S
C4346 C4348 1.378 . S
C4346 C4350 1.350 . S
C4347 C4350 1.463 . S
C4347 C4352 1.350 . S
C4347 N4355 1.427 . S
C4348 H4339 0.930 . S
C4348 C4346 1.378 . S
C4348 C4349 1.367 . S
C4349 C4348 1.367 . S
C4349 C4351 1.433 . S
C4350 C4346 1.350 . S
C4350 C4347 1.463 . S
C4350 N4354 1.427 . S
C4351 H4341 0.929 . S
C4351 C4349 1.433 . S
C4351 N4354 1.384 . S
C4352 H4343 0.929 . S
C4352 C4344 1.378 . S
C4352 C4347 1.350 . S
C4353 H4340 0.929 . S
C4353 C4345 1.433 . S
C4353 N4355 1.384 . S
N4354 C4350 1.427 . S
N4354 C4351 1.384 . S
N4355 C4347 1.427 . S
N4355 C4353 1.384 . S
H4356 C4362 0.930 . S
H4357 C4366 0.930 . S
H4358 C4371 0.929 . S
H4359 C4369 0.929 . S
H4360 C4364 0.929 . S
H4361 C4370 0.929 . S
C4362 H4356 0.930 . S
C4362 C4363 1.367 . S
C4362 C4370 1.378 . S
C4363 C4362 1.367 . S
C4363 C4371 1.433 . S
C4364 H4360 0.929 . S
C4364 C4366 1.378 . S
C4364 C4368 1.350 . S
C4365 C4368 1.463 . S
C4365 C4370 1.350 . S
C4365 N4373 1.427 . S
C4366 H4357 0.930 . S
C4366 C4364 1.378 . S
C4366 C4367 1.367 . S
C4367 C4366 1.367 . S
C4367 C4369 1.433 . S
C4368 C4364 1.350 . S
C4368 C4365 1.463 . S
C4368 N4372 1.427 . S
C4369 H4359 0.929 . S
C4369 C4367 1.433 . S
C4369 N4372 1.384 . S
C4370 H4361 0.929 . S
C4370 C4362 1.378 . S
C4370 C4365 1.350 . S
C4371 H4358 0.929 . S
C4371 C4363 1.433 . S
C4371 N4373 1.384 . S
N4372 C4368 1.427 . S
N4372 C4369 1.384 . S
N4373 C4365 1.427 . S
N4373 C4371 1.384 . S
H4374 C4380 0.930 . S
H4375 C4384 0.930 . S
H4376 C4389 0.929 . S
H4377 C4387 0.929 . S
H4378 C4382 0.929 . S
H4379 C4388 0.929 . S
C4380 H4374 0.930 . S
C4380 C4381 1.367 . S
C4380 C4388 1.378 . S
C4381 C4380 1.367 . S
C4381 C4389 1.433 . S
C4382 H4378 0.929 . S
C4382 C4384 1.378 . S
C4382 C4386 1.350 . S
C4383 C4386 1.463 . S
C4383 C4388 1.350 . S
C4383 N4391 1.427 . S
C4384 H4375 0.930 . S
C4384 C4382 1.378 . S
C4384 C4385 1.367 . S
C4385 C4384 1.367 . S
C4385 C4387 1.433 . S
C4386 C4382 1.350 . S
C4386 C4383 1.463 . S
C4386 N4390 1.427 . S
C4387 H4377 0.929 . S
C4387 C4385 1.433 . S
C4387 N4390 1.384 . S
C4388 H4379 0.929 . S
C4388 C4380 1.378 . S
C4388 C4383 1.350 . S
C4389 H4376 0.929 . S
C4389 C4381 1.433 . S
C4389 N4391 1.384 . S
N4390 C4386 1.427 . S
N4390 C4387 1.384 . S
N4391 C4383 1.427 . S
N4391 C4389 1.384 . S
H4392 C4398 0.930 . S
H4393 C4402 0.930 . S
H4394 C4407 0.929 . S
H4395 C4405 0.929 . S
H4396 C4400 0.929 . S
H4397 C4406 0.929 . S
C4398 H4392 0.930 . S
C4398 C4399 1.367 . S
C4398 C4406 1.378 . S
C4399 C4398 1.367 . S
C4399 C4407 1.433 . S
C4400 H4396 0.929 . S
C4400 C4402 1.378 . S
C4400 C4404 1.350 . S
C4401 C4404 1.463 . S
C4401 C4406 1.350 . S
C4401 N4409 1.427 . S
C4402 H4393 0.930 . S
C4402 C4400 1.378 . S
C4402 C4403 1.367 . S
C4403 C4402 1.367 . S
C4403 C4405 1.433 . S
C4404 C4400 1.350 . S
C4404 C4401 1.463 . S
C4404 N4408 1.427 . S
C4405 H4395 0.929 . S
C4405 C4403 1.433 . S
C4405 N4408 1.384 . S
C4406 H4397 0.929 . S
C4406 C4398 1.378 . S
C4406 C4401 1.350 . S
C4407 H4394 0.929 . S
C4407 C4399 1.433 . S
C4407 N4409 1.384 . S
N4408 C4404 1.427 . S
N4408 C4405 1.384 . S
N4409 C4401 1.427 . S
N4409 C4407 1.384 . S
H4410 C4416 0.930 . S
H4411 C4420 0.930 . S
H4412 C4425 0.929 . S
H4413 C4423 0.929 . S
H4414 C4418 0.929 . S
H4415 C4424 0.929 . S
C4416 H4410 0.930 . S
C4416 C4417 1.367 . S
C4416 C4424 1.378 . S
C4417 C4416 1.367 . S
C4417 C4425 1.433 . S
C4418 H4414 0.929 . S
C4418 C4420 1.378 . S
C4418 C4422 1.350 . S
C4419 C4422 1.463 . S
C4419 C4424 1.350 . S
C4419 N4427 1.427 . S
C4420 H4411 0.930 . S
C4420 C4418 1.378 . S
C4420 C4421 1.367 . S
C4421 C4420 1.367 . S
C4421 C4423 1.433 . S
C4422 C4418 1.350 . S
C4422 C4419 1.463 . S
C4422 N4426 1.427 . S
C4423 H4413 0.929 . S
C4423 C4421 1.433 . S
C4423 N4426 1.384 . S
C4424 H4415 0.929 . S
C4424 C4416 1.378 . S
C4424 C4419 1.350 . S
C4425 H4412 0.929 . S
C4425 C4417 1.433 . S
C4425 N4427 1.384 . S
N4426 C4422 1.427 . S
N4426 C4423 1.384 . S
N4427 C4419 1.427 . S
N4427 C4425 1.384 . S
H4428 C4434 0.930 . S
H4429 C4438 0.930 . S
H4430 C4443 0.929 . S
H4431 C4441 0.929 . S
H4432 C4436 0.929 . S
H4433 C4442 0.929 . S
C4434 H4428 0.930 . S
C4434 C4435 1.367 . S
C4434 C4442 1.378 . S
C4435 C4434 1.367 . S
C4435 C4443 1.433 . S
C4436 H4432 0.929 . S
C4436 C4438 1.378 . S
C4436 C4440 1.350 . S
C4437 C4440 1.463 . S
C4437 C4442 1.350 . S
C4437 N4445 1.427 . S
C4438 H4429 0.930 . S
C4438 C4436 1.378 . S
C4438 C4439 1.367 . S
C4439 C4438 1.367 . S
C4439 C4441 1.433 . S
C4440 C4436 1.350 . S
C4440 C4437 1.463 . S
C4440 N4444 1.427 . S
C4441 H4431 0.929 . S
C4441 C4439 1.433 . S
C4441 N4444 1.384 . S
C4442 H4433 0.929 . S
C4442 C4434 1.378 . S
C4442 C4437 1.350 . S
C4443 H4430 0.929 . S
C4443 C4435 1.433 . S
C4443 N4445 1.384 . S
N4444 C4440 1.427 . S
N4444 C4441 1.384 . S
N4445 C4437 1.427 . S
N4445 C4443 1.384 . S
H4446 C4452 0.930 . S
H4447 C4456 0.930 . S
H4448 C4461 0.929 . S
H4449 C4459 0.929 . S
H4450 C4454 0.929 . S
H4451 C4460 0.929 . S
C4452 H4446 0.930 . S
C4452 C4453 1.367 . S
C4452 C4460 1.378 . S
C4453 C4452 1.367 . S
C4453 C4461 1.433 . S
C4454 H4450 0.929 . S
C4454 C4456 1.378 . S
C4454 C4458 1.350 . S
C4455 C4458 1.463 . S
C4455 C4460 1.350 . S
C4455 N4463 1.427 . S
C4456 H4447 0.930 . S
C4456 C4454 1.378 . S
C4456 C4457 1.367 . S
C4457 C4456 1.367 . S
C4457 C4459 1.433 . S
C4458 C4454 1.350 . S
C4458 C4455 1.463 . S
C4458 N4462 1.427 . S
C4459 H4449 0.929 . S
C4459 C4457 1.433 . S
C4459 N4462 1.384 . S
C4460 H4451 0.929 . S
C4460 C4452 1.378 . S
C4460 C4455 1.350 . S
C4461 H4448 0.929 . S
C4461 C4453 1.433 . S
C4461 N4463 1.384 . S
N4462 C4458 1.427 . S
N4462 C4459 1.384 . S
N4463 C4455 1.427 . S
N4463 C4461 1.384 . S
H4464 C4470 0.930 . S
H4465 C4474 0.930 . S
H4466 C4479 0.929 . S
H4467 C4477 0.929 . S
H4468 C4472 0.929 . S
H4469 C4478 0.929 . S
C4470 H4464 0.930 . S
C4470 C4471 1.367 . S
C4470 C4478 1.378 . S
C4471 C4470 1.367 . S
C4471 C4479 1.433 . S
C4472 H4468 0.929 . S
C4472 C4474 1.378 . S
C4472 C4476 1.350 . S
C4473 C4476 1.463 . S
C4473 C4478 1.350 . S
C4473 N4481 1.427 . S
C4474 H4465 0.930 . S
C4474 C4472 1.378 . S
C4474 C4475 1.367 . S
C4475 C4474 1.367 . S
C4475 C4477 1.433 . S
C4476 C4472 1.350 . S
C4476 C4473 1.463 . S
C4476 N4480 1.427 . S
C4477 H4467 0.929 . S
C4477 C4475 1.433 . S
C4477 N4480 1.384 . S
C4478 H4469 0.929 . S
C4478 C4470 1.378 . S
C4478 C4473 1.350 . S
C4479 H4466 0.929 . S
C4479 C4471 1.433 . S
C4479 N4481 1.384 . S
N4480 C4476 1.427 . S
N4480 C4477 1.384 . S
N4481 C4473 1.427 . S
N4481 C4479 1.384 . S
H4482 C4488 0.930 . S
H4483 C4492 0.930 . S
H4484 C4497 0.929 . S
H4485 C4495 0.929 . S
H4486 C4490 0.929 . S
H4487 C4496 0.929 . S
C4488 H4482 0.930 . S
C4488 C4489 1.367 . S
C4488 C4496 1.378 . S
C4489 C4488 1.367 . S
C4489 C4497 1.433 . S
C4490 H4486 0.929 . S
C4490 C4492 1.378 . S
C4490 C4494 1.350 . S
C4491 C4494 1.463 . S
C4491 C4496 1.350 . S
C4491 N4499 1.427 . S
C4492 H4483 0.930 . S
C4492 C4490 1.378 . S
C4492 C4493 1.367 . S
C4493 C4492 1.367 . S
C4493 C4495 1.433 . S
C4494 C4490 1.350 . S
C4494 C4491 1.463 . S
C4494 N4498 1.427 . S
C4495 H4485 0.929 . S
C4495 C4493 1.433 . S
C4495 N4498 1.384 . S
C4496 H4487 0.929 . S
C4496 C4488 1.378 . S
C4496 C4491 1.350 . S
C4497 H4484 0.929 . S
C4497 C4489 1.433 . S
C4497 N4499 1.384 . S
N4498 C4494 1.427 . S
N4498 C4495 1.384 . S
N4499 C4491 1.427 . S
N4499 C4497 1.384 . S
H4500 C4506 0.930 . S
H4501 C4510 0.930 . S
H4502 C4515 0.929 . S
H4503 C4513 0.929 . S
H4504 C4508 0.929 . S
H4505 C4514 0.929 . S
C4506 H4500 0.930 . S
C4506 C4507 1.367 . S
C4506 C4514 1.378 . S
C4507 C4506 1.367 . S
C4507 C4515 1.433 . S
C4508 H4504 0.929 . S
C4508 C4510 1.378 . S
C4508 C4512 1.350 . S
C4509 C4512 1.463 . S
C4509 C4514 1.350 . S
C4509 N4517 1.427 . S
C4510 H4501 0.930 . S
C4510 C4508 1.378 . S
C4510 C4511 1.367 . S
C4511 C4510 1.367 . S
C4511 C4513 1.433 . S
C4512 C4508 1.350 . S
C4512 C4509 1.463 . S
C4512 N4516 1.427 . S
C4513 H4503 0.929 . S
C4513 C4511 1.433 . S
C4513 N4516 1.384 . S
C4514 H4505 0.929 . S
C4514 C4506 1.378 . S
C4514 C4509 1.350 . S
C4515 H4502 0.929 . S
C4515 C4507 1.433 . S
C4515 N4517 1.384 . S
N4516 C4512 1.427 . S
N4516 C4513 1.384 . S
N4517 C4509 1.427 . S
N4517 C4515 1.384 . S
H4518 C4524 0.930 . S
H4519 C4528 0.930 . S
H4520 C4533 0.929 . S
H4521 C4531 0.929 . S
H4522 C4526 0.929 . S
H4523 C4532 0.929 . S
C4524 H4518 0.930 . S
C4524 C4525 1.367 . S
C4524 C4532 1.378 . S
C4525 C4524 1.367 . S
C4525 C4533 1.433 . S
C4526 H4522 0.929 . S
C4526 C4528 1.378 . S
C4526 C4530 1.350 . S
C4527 C4530 1.463 . S
C4527 C4532 1.350 . S
C4527 N4535 1.427 . S
C4528 H4519 0.930 . S
C4528 C4526 1.378 . S
C4528 C4529 1.367 . S
C4529 C4528 1.367 . S
C4529 C4531 1.433 . S
C4530 C4526 1.350 . S
C4530 C4527 1.463 . S
C4530 N4534 1.427 . S
C4531 H4521 0.929 . S
C4531 C4529 1.433 . S
C4531 N4534 1.384 . S
C4532 H4523 0.929 . S
C4532 C4524 1.378 . S
C4532 C4527 1.350 . S
C4533 H4520 0.929 . S
C4533 C4525 1.433 . S
C4533 N4535 1.384 . S
N4534 C4530 1.427 . S
N4534 C4531 1.384 . S
N4535 C4527 1.427 . S
N4535 C4533 1.384 . S
H4536 C4542 0.930 . S
H4537 C4546 0.930 . S
H4538 C4551 0.929 . S
H4539 C4549 0.929 . S
H4540 C4544 0.929 . S
H4541 C4550 0.929 . S
C4542 H4536 0.930 . S
C4542 C4543 1.367 . S
C4542 C4550 1.378 . S
C4543 C4542 1.367 . S
C4543 C4551 1.433 . S
C4544 H4540 0.929 . S
C4544 C4546 1.378 . S
C4544 C4548 1.350 . S
C4545 C4548 1.463 . S
C4545 C4550 1.350 . S
C4545 N4553 1.427 . S
C4546 H4537 0.930 . S
C4546 C4544 1.378 . S
C4546 C4547 1.367 . S
C4547 C4546 1.367 . S
C4547 C4549 1.433 . S
C4548 C4544 1.350 . S
C4548 C4545 1.463 . S
C4548 N4552 1.427 . S
C4549 H4539 0.929 . S
C4549 C4547 1.433 . S
C4549 N4552 1.384 . S
C4550 H4541 0.929 . S
C4550 C4542 1.378 . S
C4550 C4545 1.350 . S
C4551 H4538 0.929 . S
C4551 C4543 1.433 . S
C4551 N4553 1.384 . S
N4552 C4548 1.427 . S
N4552 C4549 1.384 . S
N4553 C4545 1.427 . S
N4553 C4551 1.384 . S
H4554 C4560 0.930 . S
H4555 C4564 0.930 . S
H4556 C4569 0.929 . S
H4557 C4567 0.922 1_655 S
H4558 C4562 0.929 . S
H4559 C4568 0.929 . S
C4560 H4554 0.930 . S
C4560 C4561 1.367 . S
C4560 C4568 1.378 . S
C4561 C4560 1.367 . S
C4561 C4569 1.433 . S
C4562 H4558 0.929 . S
C4562 C4564 1.378 . S
C4562 C4566 1.350 . S
C4563 C4566 1.463 . S
C4563 C4568 1.350 . S
C4563 N4571 1.427 . S
C4564 H4555 0.930 . S
C4564 C4562 1.378 . S
C4564 C4565 1.367 . S
C4565 C4564 1.367 . S
C4565 C4567 1.433 . S
C4566 C4562 1.350 . S
C4566 C4563 1.463 . S
C4566 N4570 1.427 . S
C4567 H4557 0.922 1_455 S
C4567 C4565 1.433 . S
C4567 N4570 1.384 . S
C4568 H4559 0.929 . S
C4568 C4560 1.378 . S
C4568 C4563 1.350 . S
C4569 H4556 0.929 . S
C4569 C4561 1.433 . S
C4569 N4571 1.384 . S
N4570 C4566 1.427 . S
N4570 C4567 1.384 . S
N4571 C4563 1.427 . S
N4571 C4569 1.384 . S
H4572 C4578 0.930 . S
H4573 C4582 0.930 . S
H4574 C4587 0.929 . S
H4575 C4585 0.929 . S
H4576 C4580 0.929 . S
H4577 C4586 0.929 . S
C4578 H4572 0.930 . S
C4578 C4579 1.367 . S
C4578 C4586 1.378 . S
C4579 C4578 1.367 . S
C4579 C4587 1.433 . S
C4580 H4576 0.929 . S
C4580 C4582 1.378 . S
C4580 C4584 1.350 . S
C4581 C4584 1.463 . S
C4581 C4586 1.350 . S
C4581 N4589 1.427 . S
C4582 H4573 0.930 . S
C4582 C4580 1.378 . S
C4582 C4583 1.367 . S
C4583 C4582 1.367 . S
C4583 C4585 1.433 . S
C4584 C4580 1.350 . S
C4584 C4581 1.463 . S
C4584 N4588 1.427 . S
C4585 H4575 0.929 . S
C4585 C4583 1.433 . S
C4585 N4588 1.384 . S
C4586 H4577 0.929 . S
C4586 C4578 1.378 . S
C4586 C4581 1.350 . S
C4587 H4574 0.929 . S
C4587 C4579 1.433 . S
C4587 N4589 1.384 . S
N4588 C4584 1.427 . S
N4588 C4585 1.384 . S
N4589 C4581 1.427 . S
N4589 C4587 1.384 . S
H4590 C4596 0.930 . S
H4591 C4600 0.930 . S
H4592 C4605 0.981 . S
H4593 C4603 0.929 . S
H4594 C4598 0.929 . S
H4595 C4604 0.929 . S
C4596 H4590 0.930 . S
C4596 C4597 1.367 . S
C4596 C4604 1.378 . S
C4597 C4596 1.367 . S
C4597 C4605 1.398 1_565 S
C4598 H4594 0.929 . S
C4598 C4600 1.378 . S
C4598 C4602 1.350 1_545 S
C4599 C4602 1.463 . S
C4599 C4604 1.350 . S
C4599 N4607 1.427 1_565 S
C4600 H4591 0.930 . S
C4600 C4598 1.378 . S
C4600 C4601 1.367 1_545 S
C4601 C4600 1.367 1_565 S
C4601 C4603 1.433 . S
C4602 C4598 1.350 1_565 S
C4602 C4599 1.463 . S
C4602 N4606 1.427 . S
C4603 H4593 0.929 . S
C4603 C4601 1.433 . S
C4603 N4606 1.384 . S
C4604 H4595 0.929 . S
C4604 C4596 1.378 . S
C4604 C4599 1.350 . S
C4605 H4592 0.981 . S
C4605 C4597 1.398 1_545 S
C4605 N4607 1.367 . S
N4606 C4602 1.427 . S
N4606 C4603 1.384 . S
N4607 C4599 1.427 1_545 S
N4607 C4605 1.367 . S
H4608 C4614 0.930 . S
H4609 C4618 0.930 . S
H4610 C4623 0.921 1_545 S
H4611 C4621 0.929 . S
H4612 C4616 0.929 . S
H4613 C4622 0.929 . S
C4614 H4608 0.930 . S
C4614 C4615 1.367 . S
C4614 C4622 1.378 . S
C4615 C4614 1.367 . S
C4615 C4623 1.453 . S
C4616 H4612 0.929 . S
C4616 C4618 1.378 . S
C4616 C4620 1.350 1_545 S
C4617 C4620 1.463 . S
C4617 C4622 1.350 . S
C4617 N4625 1.427 1_565 S
C4618 H4609 0.930 . S
C4618 C4616 1.378 . S
C4618 C4619 1.367 1_545 S
C4619 C4618 1.367 1_565 S
C4619 C4621 1.433 . S
C4620 C4616 1.350 1_565 S
C4620 C4617 1.463 . S
C4620 N4624 1.427 . S
C4621 H4611 0.929 . S
C4621 C4619 1.433 . S
C4621 N4624 1.384 . S
C4622 H4613 0.929 . S
C4622 C4614 1.378 . S
C4622 C4617 1.350 . S
C4623 H4610 0.921 1_565 S
C4623 C4615 1.453 . S
C4623 N4625 1.372 1_565 S
N4624 C4620 1.427 . S
N4624 C4621 1.384 . S
N4625 C4617 1.427 1_545 S
N4625 C4623 1.372 1_545 S
H4626 C4632 0.930 . S
H4627 C4636 0.902 . S
H4628 C4641 0.929 . S
H4629 C4639 0.929 . S
H4630 C4634 0.929 . S
H4631 C4640 0.929 . S
C4632 H4626 0.930 . S
C4632 C4633 1.367 . S
C4632 C4640 1.378 . S
C4633 C4632 1.367 . S
C4633 C4641 1.433 . S
C4634 H4630 0.929 . S
C4634 C4636 1.378 . S
C4634 C4638 1.350 . S
C4635 C4638 1.463 . S
C4635 C4640 1.350 . S
C4635 N4643 1.427 . S
C4636 H4627 0.902 . S
C4636 C4634 1.378 . S
C4636 C4637 1.380 . S
C4637 C4636 1.380 . S
C4637 C4639 1.402 . S
C4638 C4634 1.350 . S
C4638 C4635 1.463 . S
C4638 N4642 1.427 . S
C4639 H4629 0.929 . S
C4639 C4637 1.402 . S
C4639 N4642 1.384 . S
C4640 H4631 0.929 . S
C4640 C4632 1.378 . S
C4640 C4635 1.350 . S
C4641 H4628 0.929 . S
C4641 C4633 1.433 . S
C4641 N4643 1.384 . S
N4642 C4638 1.427 . S
N4642 C4639 1.384 . S
N4643 C4635 1.427 . S
N4643 C4641 1.384 . S
H4644 C4650 0.930 . S
H4645 C4654 0.930 . S
H4646 C4659 0.929 . S
H4647 C4657 0.929 . S
H4648 C4652 0.929 . S
H4649 C4658 0.929 . S
C4650 H4644 0.930 . S
C4650 C4651 1.367 . S
C4650 C4658 1.378 . S
C4651 C4650 1.367 . S
C4651 C4659 1.433 . S
C4652 H4648 0.929 . S
C4652 C4654 1.378 . S
C4652 C4656 1.350 . S
C4653 C4656 1.463 . S
C4653 C4658 1.350 . S
C4653 N4661 1.427 . S
C4654 H4645 0.930 . S
C4654 C4652 1.378 . S
C4654 C4655 1.367 . S
C4655 C4654 1.367 . S
C4655 C4657 1.433 . S
C4656 C4652 1.350 . S
C4656 C4653 1.463 . S
C4656 N4660 1.427 . S
C4657 H4647 0.929 . S
C4657 C4655 1.433 . S
C4657 N4660 1.384 . S
C4658 H4649 0.929 . S
C4658 C4650 1.378 . S
C4658 C4653 1.350 . S
C4659 H4646 0.929 . S
C4659 C4651 1.433 . S
C4659 N4661 1.384 . S
N4660 C4656 1.427 . S
N4660 C4657 1.384 . S
N4661 C4653 1.427 . S
N4661 C4659 1.384 . S
H4662 C4668 0.930 . S
H4663 C4672 0.930 . S
H4664 C4677 0.929 . S
H4665 C4675 0.929 . S
H4666 C4670 0.929 . S
H4667 C4676 0.929 . S
C4668 H4662 0.930 . S
C4668 C4669 1.367 . S
C4668 C4676 1.378 . S
C4669 C4668 1.367 . S
C4669 C4677 1.433 . S
C4670 H4666 0.929 . S
C4670 C4672 1.378 . S
C4670 C4674 1.350 . S
C4671 C4674 1.463 . S
C4671 C4676 1.350 . S
C4671 N4679 1.427 . S
C4672 H4663 0.930 . S
C4672 C4670 1.378 . S
C4672 C4673 1.367 . S
C4673 C4672 1.367 . S
C4673 C4675 1.433 . S
C4674 C4670 1.350 . S
C4674 C4671 1.463 . S
C4674 N4678 1.427 . S
C4675 H4665 0.929 . S
C4675 C4673 1.433 . S
C4675 N4678 1.384 . S
C4676 H4667 0.929 . S
C4676 C4668 1.378 . S
C4676 C4671 1.350 . S
C4677 H4664 0.929 . S
C4677 C4669 1.433 . S
C4677 N4679 1.384 . S
N4678 C4674 1.427 . S
N4678 C4675 1.384 . S
N4679 C4671 1.427 . S
N4679 C4677 1.384 . S
H4680 C4686 0.930 . S
H4681 C4690 0.930 . S
H4682 C4695 0.929 . S
H4683 C4693 0.929 . S
H4684 C4688 0.929 . S
H4685 C4694 0.929 . S
C4686 H4680 0.930 . S
C4686 C4687 1.367 . S
C4686 C4694 1.378 . S
C4687 C4686 1.367 . S
C4687 C4695 1.433 . S
C4688 H4684 0.929 . S
C4688 C4690 1.378 . S
C4688 C4692 1.350 . S
C4689 C4692 1.463 . S
C4689 C4694 1.350 . S
C4689 N4697 1.427 . S
C4690 H4681 0.930 . S
C4690 C4688 1.378 . S
C4690 C4691 1.367 . S
C4691 C4690 1.367 . S
C4691 C4693 1.433 . S
C4692 C4688 1.350 . S
C4692 C4689 1.463 . S
C4692 N4696 1.427 . S
C4693 H4683 0.929 . S
C4693 C4691 1.433 . S
C4693 N4696 1.384 . S
C4694 H4685 0.929 . S
C4694 C4686 1.378 . S
C4694 C4689 1.350 . S
C4695 H4682 0.929 . S
C4695 C4687 1.433 . S
C4695 N4697 1.384 . S
N4696 C4692 1.427 . S
N4696 C4693 1.384 . S
N4697 C4689 1.427 . S
N4697 C4695 1.384 . S
H4698 C4704 0.930 . S
H4699 C4708 0.930 . S
H4700 C4713 0.929 . S
H4701 C4711 0.929 . S
H4702 C4706 0.929 . S
H4703 C4712 0.929 . S
C4704 H4698 0.930 . S
C4704 C4705 1.367 . S
C4704 C4712 1.378 . S
C4705 C4704 1.367 . S
C4705 C4713 1.433 . S
C4706 H4702 0.929 . S
C4706 C4708 1.378 . S
C4706 C4710 1.350 . S
C4707 C4710 1.463 . S
C4707 C4712 1.350 . S
C4707 N4715 1.427 . S
C4708 H4699 0.930 . S
C4708 C4706 1.378 . S
C4708 C4709 1.367 . S
C4709 C4708 1.367 . S
C4709 C4711 1.433 . S
C4710 C4706 1.350 . S
C4710 C4707 1.463 . S
C4710 N4714 1.427 . S
C4711 H4701 0.929 . S
C4711 C4709 1.433 . S
C4711 N4714 1.384 . S
C4712 H4703 0.929 . S
C4712 C4704 1.378 . S
C4712 C4707 1.350 . S
C4713 H4700 0.929 . S
C4713 C4705 1.433 . S
C4713 N4715 1.384 . S
N4714 C4710 1.427 . S
N4714 C4711 1.384 . S
N4715 C4707 1.427 . S
N4715 C4713 1.384 . S
H4716 C4722 0.930 1_565 S
H4717 C4726 0.930 . S
H4718 C4731 0.929 . S
H4719 C4729 0.929 . S
H4720 C4724 0.929 . S
H4721 C4730 0.931 1_565 S
C4722 H4716 0.930 1_545 S
C4722 C4723 1.367 . S
C4722 C4730 1.376 . S
C4723 C4722 1.367 . S
C4723 C4731 1.433 . S
C4724 H4720 0.929 . S
C4724 C4726 1.378 . S
C4724 C4728 1.350 . S
C4725 C4728 1.463 . S
C4725 C4730 1.349 . S
C4725 N4733 1.427 . S
C4726 H4717 0.930 . S
C4726 C4724 1.378 . S
C4726 C4727 1.367 . S
C4727 C4726 1.367 . S
C4727 C4729 1.433 1_545 S
C4728 C4724 1.350 . S
C4728 C4725 1.463 . S
C4728 N4732 1.427 1_545 S
C4729 H4719 0.929 . S
C4729 C4727 1.433 1_565 S
C4729 N4732 1.384 . S
C4730 H4721 0.931 1_545 S
C4730 C4722 1.376 . S
C4730 C4725 1.349 . S
C4731 H4718 0.929 . S
C4731 C4723 1.433 . S
C4731 N4733 1.384 . S
N4732 C4728 1.427 1_565 S
N4732 C4729 1.384 . S
N4733 C4725 1.427 . S
N4733 C4731 1.384 . S
H4734 C4740 0.872 1_455 S
H4735 C4744 0.930 . S
H4736 C4749 0.929 . S
H4737 C4747 0.974 . S
H4738 C4742 0.929 . S
H4739 C4748 0.929 1_455 S
C4740 H4734 0.872 1_655 S
C4740 C4741 1.367 . S
C4740 C4748 1.378 . S
C4741 C4740 1.367 . S
C4741 C4749 1.433 . S
C4742 H4738 0.929 . S
C4742 C4744 1.378 . S
C4742 C4746 1.350 . S
C4743 C4746 1.463 . S
C4743 C4748 1.350 . S
C4743 N4751 1.427 . S
C4744 H4735 0.930 . S
C4744 C4742 1.378 . S
C4744 C4745 1.367 . S
C4745 C4744 1.367 . S
C4745 C4747 1.361 1_655 S
C4746 C4742 1.350 . S
C4746 C4743 1.463 . S
C4746 N4750 1.440 . S
C4747 H4737 0.974 . S
C4747 C4745 1.361 1_455 S
C4747 N4750 1.425 1_455 S
C4748 H4739 0.929 1_655 S
C4748 C4740 1.378 . S
C4748 C4743 1.350 . S
C4749 H4736 0.929 . S
C4749 C4741 1.433 . S
C4749 N4751 1.384 . S
N4750 C4746 1.440 . S
N4750 C4747 1.425 1_655 S
N4751 C4743 1.427 . S
N4751 C4749 1.384 . S
H4752 C4758 0.930 . S
H4753 C4762 0.930 . S
H4754 C4767 0.929 . S
H4755 C4765 0.929 . S
H4756 C4760 0.929 . S
H4757 C4766 0.929 . S
C4758 H4752 0.930 . S
C4758 C4759 1.367 . S
C4758 C4766 1.378 . S
C4759 C4758 1.367 . S
C4759 C4767 1.433 . S
C4760 H4756 0.929 . S
C4760 C4762 1.378 . S
C4760 C4764 1.350 . S
C4761 C4764 1.463 . S
C4761 C4766 1.350 . S
C4761 N4769 1.427 . S
C4762 H4753 0.930 . S
C4762 C4760 1.378 . S
C4762 C4763 1.367 . S
C4763 C4762 1.367 . S
C4763 C4765 1.433 . S
C4764 C4760 1.350 . S
C4764 C4761 1.463 . S
C4764 N4768 1.427 . S
C4765 H4755 0.929 . S
C4765 C4763 1.433 . S
C4765 N4768 1.384 . S
C4766 H4757 0.929 . S
C4766 C4758 1.378 . S
C4766 C4761 1.350 . S
C4767 H4754 0.929 . S
C4767 C4759 1.433 . S
C4767 N4769 1.384 . S
N4768 C4764 1.427 . S
N4768 C4765 1.384 . S
N4769 C4761 1.427 . S
N4769 C4767 1.384 . S
H4770 C4776 0.930 . S
H4771 C4780 0.930 . S
H4772 C4785 0.929 . S
H4773 C4783 0.929 . S
H4774 C4778 0.929 . S
H4775 C4784 0.929 . S
C4776 H4770 0.930 . S
C4776 C4777 1.367 . S
C4776 C4784 1.378 . S
C4777 C4776 1.367 . S
C4777 C4785 1.433 . S
C4778 H4774 0.929 . S
C4778 C4780 1.378 . S
C4778 C4782 1.350 . S
C4779 C4782 1.463 . S
C4779 C4784 1.350 . S
C4779 N4787 1.427 . S
C4780 H4771 0.930 . S
C4780 C4778 1.378 . S
C4780 C4781 1.367 . S
C4781 C4780 1.367 . S
C4781 C4783 1.433 . S
C4782 C4778 1.350 . S
C4782 C4779 1.463 . S
C4782 N4786 1.427 . S
C4783 H4773 0.929 . S
C4783 C4781 1.433 . S
C4783 N4786 1.384 . S
C4784 H4775 0.929 . S
C4784 C4776 1.378 . S
C4784 C4779 1.350 . S
C4785 H4772 0.929 . S
C4785 C4777 1.433 . S
C4785 N4787 1.384 . S
N4786 C4782 1.427 . S
N4786 C4783 1.384 . S
N4787 C4779 1.427 . S
N4787 C4785 1.384 . S
H4788 C4794 0.930 . S
H4789 C4798 0.930 . S
H4790 C4803 0.929 . S
H4791 C4801 0.929 . S
H4792 C4796 0.929 . S
H4793 C4802 0.929 . S
C4794 H4788 0.930 . S
C4794 C4795 1.367 . S
C4794 C4802 1.378 . S
C4795 C4794 1.367 . S
C4795 C4803 1.433 . S
C4796 H4792 0.929 . S
C4796 C4798 1.378 . S
C4796 C4800 1.350 . S
C4797 C4800 1.463 . S
C4797 C4802 1.350 . S
C4797 N4805 1.427 . S
C4798 H4789 0.930 . S
C4798 C4796 1.378 . S
C4798 C4799 1.367 . S
C4799 C4798 1.367 . S
C4799 C4801 1.433 . S
C4800 C4796 1.350 . S
C4800 C4797 1.463 . S
C4800 N4804 1.427 . S
C4801 H4791 0.929 . S
C4801 C4799 1.433 . S
C4801 N4804 1.384 . S
C4802 H4793 0.929 . S
C4802 C4794 1.378 . S
C4802 C4797 1.350 . S
C4803 H4790 0.929 . S
C4803 C4795 1.433 . S
C4803 N4805 1.384 . S
N4804 C4800 1.427 . S
N4804 C4801 1.384 . S
N4805 C4797 1.427 . S
N4805 C4803 1.384 . S
H4806 C4812 0.930 . S
H4807 C4816 0.930 . S
H4808 C4821 0.929 . S
H4809 C4819 0.929 . S
H4810 C4814 0.929 . S
H4811 C4820 0.929 . S
C4812 H4806 0.930 . S
C4812 C4813 1.367 . S
C4812 C4820 1.378 . S
C4813 C4812 1.367 . S
C4813 C4821 1.433 . S
C4814 H4810 0.929 . S
C4814 C4816 1.378 . S
C4814 C4818 1.350 . S
C4815 C4818 1.463 . S
C4815 C4820 1.350 . S
C4815 N4823 1.427 . S
C4816 H4807 0.930 . S
C4816 C4814 1.378 . S
C4816 C4817 1.367 . S
C4817 C4816 1.367 . S
C4817 C4819 1.433 . S
C4818 C4814 1.350 . S
C4818 C4815 1.463 . S
C4818 N4822 1.427 . S
C4819 H4809 0.929 . S
C4819 C4817 1.433 . S
C4819 N4822 1.384 . S
C4820 H4811 0.929 . S
C4820 C4812 1.378 . S
C4820 C4815 1.350 . S
C4821 H4808 0.929 . S
C4821 C4813 1.433 . S
C4821 N4823 1.384 . S
N4822 C4818 1.427 . S
N4822 C4819 1.384 . S
N4823 C4815 1.427 . S
N4823 C4821 1.384 . S
H4824 C4830 0.930 . S
H4825 C4834 0.930 . S
H4826 C4839 0.929 . S
H4827 C4837 0.929 . S
H4828 C4832 0.929 . S
H4829 C4838 0.929 . S
C4830 H4824 0.930 . S
C4830 C4831 1.367 . S
C4830 C4838 1.378 . S
C4831 C4830 1.367 . S
C4831 C4839 1.433 . S
C4832 H4828 0.929 . S
C4832 C4834 1.378 . S
C4832 C4836 1.350 . S
C4833 C4836 1.463 . S
C4833 C4838 1.350 . S
C4833 N4841 1.427 . S
C4834 H4825 0.930 . S
C4834 C4832 1.378 . S
C4834 C4835 1.367 . S
C4835 C4834 1.367 . S
C4835 C4837 1.433 . S
C4836 C4832 1.350 . S
C4836 C4833 1.463 . S
C4836 N4840 1.427 . S
C4837 H4827 0.929 . S
C4837 C4835 1.433 . S
C4837 N4840 1.384 . S
C4838 H4829 0.929 . S
C4838 C4830 1.378 . S
C4838 C4833 1.350 . S
C4839 H4826 0.929 . S
C4839 C4831 1.433 . S
C4839 N4841 1.384 . S
N4840 C4836 1.427 . S
N4840 C4837 1.384 . S
N4841 C4833 1.427 . S
N4841 C4839 1.384 . S
H4842 C4848 0.930 . S
H4843 C4852 0.930 . S
H4844 C4857 0.929 . S
H4845 C4855 0.929 . S
H4846 C4850 0.929 . S
H4847 C4856 0.929 . S
C4848 H4842 0.930 . S
C4848 C4849 1.367 . S
C4848 C4856 1.378 . S
C4849 C4848 1.367 . S
C4849 C4857 1.433 . S
C4850 H4846 0.929 . S
C4850 C4852 1.378 . S
C4850 C4854 1.350 . S
C4851 C4854 1.463 . S
C4851 C4856 1.350 . S
C4851 N4859 1.427 . S
C4852 H4843 0.930 . S
C4852 C4850 1.378 . S
C4852 C4853 1.367 . S
C4853 C4852 1.367 . S
C4853 C4855 1.433 . S
C4854 C4850 1.350 . S
C4854 C4851 1.463 . S
C4854 N4858 1.427 . S
C4855 H4845 0.929 . S
C4855 C4853 1.433 . S
C4855 N4858 1.384 . S
C4856 H4847 0.929 . S
C4856 C4848 1.378 . S
C4856 C4851 1.350 . S
C4857 H4844 0.929 . S
C4857 C4849 1.433 . S
C4857 N4859 1.384 . S
N4858 C4854 1.427 . S
N4858 C4855 1.384 . S
N4859 C4851 1.427 . S
N4859 C4857 1.384 . S
H4860 C4866 0.930 . S
H4861 C4870 0.930 . S
H4862 C4875 0.929 . S
H4863 C4873 0.929 . S
H4864 C4868 0.929 . S
H4865 C4874 0.929 . S
C4866 H4860 0.930 . S
C4866 C4867 1.367 . S
C4866 C4874 1.378 . S
C4867 C4866 1.367 . S
C4867 C4875 1.433 . S
C4868 H4864 0.929 . S
C4868 C4870 1.378 . S
C4868 C4872 1.350 . S
C4869 C4872 1.463 . S
C4869 C4874 1.350 . S
C4869 N4877 1.427 . S
C4870 H4861 0.930 . S
C4870 C4868 1.378 . S
C4870 C4871 1.367 . S
C4871 C4870 1.367 . S
C4871 C4873 1.433 . S
C4872 C4868 1.350 . S
C4872 C4869 1.463 . S
C4872 N4876 1.427 . S
C4873 H4863 0.929 . S
C4873 C4871 1.433 . S
C4873 N4876 1.384 . S
C4874 H4865 0.929 . S
C4874 C4866 1.378 . S
C4874 C4869 1.350 . S
C4875 H4862 0.929 . S
C4875 C4867 1.433 . S
C4875 N4877 1.384 . S
N4876 C4872 1.427 . S
N4876 C4873 1.384 . S
N4877 C4869 1.427 . S
N4877 C4875 1.384 . S
H4878 C4884 0.930 . S
H4879 C4888 0.930 . S
H4880 C4893 0.929 1_455 S
H4881 C4891 0.929 . S
H4882 C4886 0.929 . S
H4883 C4892 0.929 . S
C4884 H4878 0.930 . S
C4884 C4885 1.367 . S
C4884 C4892 1.378 . S
C4885 C4884 1.367 . S
C4885 C4893 1.433 . S
C4886 H4882 0.929 . S
C4886 C4888 1.378 . S
C4886 C4890 1.350 1_455 S
C4887 C4890 1.463 . S
C4887 C4892 1.350 . S
C4887 N4895 1.439 . S
C4888 H4879 0.930 . S
C4888 C4886 1.378 . S
C4888 C4889 1.367 1_455 S
C4889 C4888 1.367 1_655 S
C4889 C4891 1.433 . S
C4890 C4886 1.350 1_655 S
C4890 C4887 1.463 . S
C4890 N4894 1.427 . S
C4891 H4881 0.929 . S
C4891 C4889 1.433 . S
C4891 N4894 1.384 . S
C4892 H4883 0.929 . S
C4892 C4884 1.378 . S
C4892 C4887 1.350 . S
C4893 H4880 0.929 1_655 S
C4893 C4885 1.433 . S
C4893 N4895 1.410 . S
N4894 C4890 1.427 . S
N4894 C4891 1.384 . S
N4895 C4887 1.439 . S
N4895 C4893 1.410 . S
H4896 C4902 0.930 . S
H4897 C4906 0.930 . S
H4898 C4911 0.929 . S
H4899 C4909 0.929 . S
H4900 C4904 0.929 . S
H4901 C4910 0.929 . S
C4902 H4896 0.930 . S
C4902 C4903 1.367 . S
C4902 C4910 1.378 . S
C4903 C4902 1.367 . S
C4903 C4911 1.433 . S
C4904 H4900 0.929 . S
C4904 C4906 1.378 . S
C4904 C4908 1.350 . S
C4905 C4908 1.463 . S
C4905 C4910 1.350 . S
C4905 N4913 1.427 . S
C4906 H4897 0.930 . S
C4906 C4904 1.378 . S
C4906 C4907 1.367 . S
C4907 C4906 1.367 . S
C4907 C4909 1.433 . S
C4908 C4904 1.350 . S
C4908 C4905 1.463 . S
C4908 N4912 1.427 . S
C4909 H4899 0.929 . S
C4909 C4907 1.433 . S
C4909 N4912 1.384 . S
C4910 H4901 0.929 . S
C4910 C4902 1.378 . S
C4910 C4905 1.350 . S
C4911 H4898 0.929 . S
C4911 C4903 1.433 . S
C4911 N4913 1.384 . S
N4912 C4908 1.427 . S
N4912 C4909 1.384 . S
N4913 C4905 1.427 . S
N4913 C4911 1.384 . S
H4914 C4920 0.930 1_565 S
H4915 C4924 0.930 . S
H4916 C4929 0.929 . S
H4917 C4927 0.929 . S
H4918 C4922 0.929 . S
H4919 C4928 0.996 . S
C4920 H4914 0.930 1_545 S
C4920 C4921 1.367 . S
C4920 C4928 1.404 1_545 S
C4921 C4920 1.367 . S
C4921 C4929 1.433 . S
C4922 H4918 0.929 . S
C4922 C4924 1.378 . S
C4922 C4926 1.350 . S
C4923 C4926 1.463 . S
C4923 C4928 1.261 1_545 S
C4923 N4931 1.427 . S
C4924 H4915 0.930 . S
C4924 C4922 1.378 . S
C4924 C4925 1.367 . S
C4925 C4924 1.367 . S
C4925 C4927 1.433 1_545 S
C4926 C4922 1.350 . S
C4926 C4923 1.463 . S
C4926 N4930 1.427 1_545 S
C4927 H4917 0.929 . S
C4927 C4925 1.433 1_565 S
C4927 N4930 1.384 . S
C4928 H4919 0.996 . S
C4928 C4920 1.404 1_565 S
C4928 C4923 1.261 1_565 S
C4929 H4916 0.929 . S
C4929 C4921 1.433 . S
C4929 N4931 1.384 . S
N4930 C4926 1.427 1_565 S
N4930 C4927 1.384 . S
N4931 C4923 1.427 . S
N4931 C4929 1.384 . S
C3643 C49 1.409 . S
C3647 C2639 1.227 . S
C3661 C137 1.678 . S
C3665 C2779 1.073 . S
C3683 C2867 1.285 . S
C3679 C205 1.484 . S
C3697 C196 1.513 . S
C3701 C3007 1.202 1_565 S
C3715 C57 1.515 . S
C3719 C3121 1.276 . S
C3733 C145 1.683 . S
C3737 C3209 1.268 . S
C3751 C313 1.460 . S
C3755 C3095 1.148 . S
C3773 C3235 1.314 . S
C3769 C401 1.602 . S
C3791 C2981 1.194 . S
C3787 C489 1.505 . S
C3805 C469 1.561 . S
C3809 C2893 1.103 . S
C3827 C2665 1.063 . S
C3823 C293 1.529 . S
C3841 C381 1.602 . S
C3845 C2753 1.407 . S
C3859 C577 1.753 . S
C3863 C3323 1.298 . S
C3877 C645 1.776 . S
C3881 C3463 1.158 . S
C3899 C3551 1.255 . S
C3895 C733 1.684 . S
C3913 C724 1.702 . S
C3917 C1639 1.133 . S
C3931 C585 1.792 . S
C3935 C1753 1.190 . S
C3949 C636 1.777 . S
C3953 C1841 1.319 . S
C3967 C841 1.486 . S
C3971 C1727 1.297 . S
C3985 C937 1.697 . S
C3989 C1867 1.420 . S
C4007 C1613 1.461 . S
C4003 C1025 1.672 . S
C4025 C3577 1.503 . S
C4021 C988 1.792 . S
C4043 C3349 1.343 . S
C4039 C821 1.625 . S
C4061 C3437 1.519 . S
C4057 C900 1.681 . S
C4075 C1105 1.583 . S
C4079 C1955 1.142 . S
C4093 C1193 1.791 . S
C4097 C2095 1.168 . S
C4111 C1281 1.758 . S
C4115 C2183 1.332 . S
C4129 C1289 1.869 . S
C4133 C2323 1.257 . S
C4151 C2437 1.120 . S
C4147 C1113 1.722 . S
C4169 C2525 1.297 . S
C4165 C1201 1.773 . S
C4187 C2411 1.485 . S
C4183 C1369 1.669 . S
C4205 C2551 1.420 . S
C4201 C1457 1.674 . S
C4219 C1553 1.581 . S
C4223 C2297 1.410 . S
C4241 C2209 1.354 . S
C4237 C1516 1.614 . S
C4255 C1349 1.714 . S
C4259 C1981 1.408 . S
C4277 C2069 1.501 . S
C4273 C1437 1.684 . S
C4295 C1595 1.040 . S
C4291 C29 1.947 . S
C4309 C117 1.665 . S
C4313 C1709 0.896 . S
C4331 C1813 1.305 . S
C4327 C225 1.888 . S
C4349 C1927 1.226 . S
C4345 C233 1.743 . S
C4367 C2051 1.007 . S
C4363 C20 1.908 . S
C4385 C2155 1.174 . S
C4381 C108 1.699 . S
C4399 C321 2.067 . S
C4403 C2165 1.677 . S
C4417 C409 1.794 . S
C4421 C1937 1.474 . S
C4435 C497 2.052 . S
C4439 C2041 1.876 . S
C4453 C460 1.875 . S
C4457 C1699 1.726 . S
C4475 C1823 1.678 . S
C4471 C284 2.058 . S
C4489 C372 1.842 . S
C4493 C1585 1.664 . S
C4511 C2279 0.918 . S
C4507 C557 1.735 . S
C4525 C665 1.789 . S
C4529 C2393 0.997 . S
C4543 C753 1.772 . S
C4547 C2497 1.270 . S
C4565 C2611 0.845 . S
C4561 C761 0.967 . S
C4579 C548 1.647 . S
C4583 C2735 0.881 . S
C4597 C673 1.107 . S
C4601 C2839 0.924 . S
C4615 C849 1.220 . S
C4619 C2849 0.798 1_565 S
C4633 C929 1.098 . S
C4637 C2621 0.758 1_455 S
C4655 C2725 1.580 . S
C4651 C1017 1.772 . S
C4669 C997 1.708 . S
C4673 C2383 1.548 . S
C4687 C812 1.908 . S
C4691 C2507 1.519 . S
C4709 C2269 1.740 . S
C4705 C909 1.938 . S
C4727 C2963 0.746 . S
C4723 C1085 1.195 . S
C4741 C1173 1.060 . S
C4745 C3077 0.729 . S
C4759 C1261 1.637 . S
C4763 C3181 1.159 . S
C4781 C3295 1.120 . S
C4777 C1252 1.561 . S
C4799 C3419 1.007 . S
C4795 C1076 1.795 . S
C4813 C1164 1.816 . S
C4817 C3523 1.312 . S
C4831 C1377 1.875 . S
C4835 C3533 1.508 . S
C4849 C1465 1.910 . S
C4853 C3305 1.535 . S
C4871 C3409 1.711 . S
C4867 C1545 1.905 . S
C4889 C3067 0.864 1_655 S
C4885 C1525 0.983 . S
C4907 C3191 1.407 . S
C4903 C1340 1.780 . S
C4921 C1428 1.133 . S
C4925 C2953 0.946 1_545 S
