# Generated by pormake.
# Topology ctn, (3,4)-cn, num edge types: 1
# Building blocks:
#     Node 0, Type 0, BuildingBlock: VETTIZ_charged_linker_0, # of connection points: 3
#     Node 1, Type 0, BuildingBlock: VETTIZ_charged_linker_0, # of connection points: 3
#     Node 2, Type 0, BuildingBlock: VETTIZ_charged_linker_0, # of connection points: 3
#     Node 3, Type 0, BuildingBlock: VETTIZ_charged_linker_0, # of connection points: 3
#     Node 4, Type 0, BuildingBlock: VETTIZ_charged_linker_0, # of connection points: 3
#     Node 5, Type 0, BuildingBlock: VETTIZ_charged_linker_0, # of connection points: 3
#     Node 6, Type 0, BuildingBlock: VETTIZ_charged_linker_0, # of connection points: 3
#     Node 7, Type 0, BuildingBlock: VETTIZ_charged_linker_0, # of connection points: 3
#     Node 8, Type 0, BuildingBlock: VETTIZ_charged_linker_0, # of connection points: 3
#     Node 9, Type 0, BuildingBlock: VETTIZ_charged_linker_0, # of connection points: 3
#     Node 10, Type 0, BuildingBlock: VETTIZ_charged_linker_0, # of connection points: 3
#     Node 11, Type 0, BuildingBlock: VETTIZ_charged_linker_0, # of connection points: 3
#     Node 12, Type 0, BuildingBlock: VETTIZ_charged_linker_0, # of connection points: 3
#     Node 13, Type 0, BuildingBlock: VETTIZ_charged_linker_0, # of connection points: 3
#     Node 14, Type 0, BuildingBlock: VETTIZ_charged_linker_0, # of connection points: 3
#     Node 15, Type 0, BuildingBlock: VETTIZ_charged_linker_0, # of connection points: 3
#     Node 16, Type 1, BuildingBlock: NAHDIM_clean_sbu_0, # of connection points: 4
#     Node 17, Type 1, BuildingBlock: NAHDIM_clean_sbu_0, # of connection points: 4
#     Node 18, Type 1, BuildingBlock: NAHDIM_clean_sbu_0, # of connection points: 4
#     Node 19, Type 1, BuildingBlock: NAHDIM_clean_sbu_0, # of connection points: 4
#     Node 20, Type 1, BuildingBlock: NAHDIM_clean_sbu_0, # of connection points: 4
#     Node 21, Type 1, BuildingBlock: NAHDIM_clean_sbu_0, # of connection points: 4
#     Node 22, Type 1, BuildingBlock: NAHDIM_clean_sbu_0, # of connection points: 4
#     Node 23, Type 1, BuildingBlock: NAHDIM_clean_sbu_0, # of connection points: 4
#     Node 24, Type 1, BuildingBlock: NAHDIM_clean_sbu_0, # of connection points: 4
#     Node 25, Type 1, BuildingBlock: NAHDIM_clean_sbu_0, # of connection points: 4
#     Node 26, Type 1, BuildingBlock: NAHDIM_clean_sbu_0, # of connection points: 4
#     Node 27, Type 1, BuildingBlock: NAHDIM_clean_sbu_0, # of connection points: 4
#     Edge 28, Type (0, 1), BuildingBlock: UVAHIK_clean_linker_0, # of connection points: 2
#     Edge 29, Type (0, 1), BuildingBlock: UVAHIK_clean_linker_0, # of connection points: 2
#     Edge 30, Type (0, 1), BuildingBlock: UVAHIK_clean_linker_0, # of connection points: 2
#     Edge 31, Type (0, 1), BuildingBlock: UVAHIK_clean_linker_0, # of connection points: 2
#     Edge 32, Type (0, 1), BuildingBlock: UVAHIK_clean_linker_0, # of connection points: 2
#     Edge 33, Type (0, 1), BuildingBlock: UVAHIK_clean_linker_0, # of connection points: 2
#     Edge 34, Type (0, 1), BuildingBlock: UVAHIK_clean_linker_0, # of connection points: 2
#     Edge 35, Type (0, 1), BuildingBlock: UVAHIK_clean_linker_0, # of connection points: 2
#     Edge 36, Type (0, 1), BuildingBlock: UVAHIK_clean_linker_0, # of connection points: 2
#     Edge 37, Type (0, 1), BuildingBlock: UVAHIK_clean_linker_0, # of connection points: 2
#     Edge 38, Type (0, 1), BuildingBlock: UVAHIK_clean_linker_0, # of connection points: 2
#     Edge 39, Type (0, 1), BuildingBlock: UVAHIK_clean_linker_0, # of connection points: 2
#     Edge 40, Type (0, 1), BuildingBlock: UVAHIK_clean_linker_0, # of connection points: 2
#     Edge 41, Type (0, 1), BuildingBlock: UVAHIK_clean_linker_0, # of connection points: 2
#     Edge 42, Type (0, 1), BuildingBlock: UVAHIK_clean_linker_0, # of connection points: 2
#     Edge 43, Type (0, 1), BuildingBlock: UVAHIK_clean_linker_0, # of connection points: 2
#     Edge 44, Type (0, 1), BuildingBlock: UVAHIK_clean_linker_0, # of connection points: 2
#     Edge 45, Type (0, 1), BuildingBlock: UVAHIK_clean_linker_0, # of connection points: 2
#     Edge 46, Type (0, 1), BuildingBlock: UVAHIK_clean_linker_0, # of connection points: 2
#     Edge 47, Type (0, 1), BuildingBlock: UVAHIK_clean_linker_0, # of connection points: 2
#     Edge 48, Type (0, 1), BuildingBlock: UVAHIK_clean_linker_0, # of connection points: 2
#     Edge 49, Type (0, 1), BuildingBlock: UVAHIK_clean_linker_0, # of connection points: 2
#     Edge 50, Type (0, 1), BuildingBlock: UVAHIK_clean_linker_0, # of connection points: 2
#     Edge 51, Type (0, 1), BuildingBlock: UVAHIK_clean_linker_0, # of connection points: 2
#     Edge 52, Type (0, 1), BuildingBlock: UVAHIK_clean_linker_0, # of connection points: 2
#     Edge 53, Type (0, 1), BuildingBlock: UVAHIK_clean_linker_0, # of connection points: 2
#     Edge 54, Type (0, 1), BuildingBlock: UVAHIK_clean_linker_0, # of connection points: 2
#     Edge 55, Type (0, 1), BuildingBlock: UVAHIK_clean_linker_0, # of connection points: 2
#     Edge 56, Type (0, 1), BuildingBlock: UVAHIK_clean_linker_0, # of connection points: 2
#     Edge 57, Type (0, 1), BuildingBlock: UVAHIK_clean_linker_0, # of connection points: 2
#     Edge 58, Type (0, 1), BuildingBlock: UVAHIK_clean_linker_0, # of connection points: 2
#     Edge 59, Type (0, 1), BuildingBlock: UVAHIK_clean_linker_0, # of connection points: 2
#     Edge 60, Type (0, 1), BuildingBlock: UVAHIK_clean_linker_0, # of connection points: 2
#     Edge 61, Type (0, 1), BuildingBlock: UVAHIK_clean_linker_0, # of connection points: 2
#     Edge 62, Type (0, 1), BuildingBlock: UVAHIK_clean_linker_0, # of connection points: 2
#     Edge 63, Type (0, 1), BuildingBlock: UVAHIK_clean_linker_0, # of connection points: 2
#     Edge 64, Type (0, 1), BuildingBlock: UVAHIK_clean_linker_0, # of connection points: 2
#     Edge 65, Type (0, 1), BuildingBlock: UVAHIK_clean_linker_0, # of connection points: 2
#     Edge 66, Type (0, 1), BuildingBlock: UVAHIK_clean_linker_0, # of connection points: 2
#     Edge 67, Type (0, 1), BuildingBlock: UVAHIK_clean_linker_0, # of connection points: 2
#     Edge 68, Type (0, 1), BuildingBlock: UVAHIK_clean_linker_0, # of connection points: 2
#     Edge 69, Type (0, 1), BuildingBlock: UVAHIK_clean_linker_0, # of connection points: 2
#     Edge 70, Type (0, 1), BuildingBlock: UVAHIK_clean_linker_0, # of connection points: 2
#     Edge 71, Type (0, 1), BuildingBlock: UVAHIK_clean_linker_0, # of connection points: 2
#     Edge 72, Type (0, 1), BuildingBlock: UVAHIK_clean_linker_0, # of connection points: 2
#     Edge 73, Type (0, 1), BuildingBlock: UVAHIK_clean_linker_0, # of connection points: 2
#     Edge 74, Type (0, 1), BuildingBlock: UVAHIK_clean_linker_0, # of connection points: 2
#     Edge 75, Type (0, 1), BuildingBlock: UVAHIK_clean_linker_0, # of connection points: 2
# Relax obj value: 0.002
# Max RMSD: 0.034
# Mean RMSD: 0.017
data_MOF--net-ctn--node1-NAHDIM_clean_sbu_0--node2-VETTIZ_charged_linker_0--edge1-UVAHIK_clean_linker_0
_symmetry_space_group_name_H-M    P1
_symmetry_Int_Tables_number       1
_symmetry_cell_setting            triclinic
loop_
_symmetry_equiv_pos_as_xyz
'x, y, z'
_cell_length_a     83.609503
_cell_length_b     83.98252
_cell_length_c     83.252032
_cell_angle_alpha  91.073455
_cell_angle_beta   89.999128
_cell_angle_gamma 91.950502
loop_
_atom_site_label
_atom_site_type_symbol
_atom_site_fract_x
_atom_site_fract_y
_atom_site_fract_z
_atom_type_partial_charge
C0 C 0.02487 0.08203 0.99496 0.0
C1 C 0.01241 0.09266 0.99727 0.0
C2 C 0.00229 0.09088 0.01071 0.0
C3 C 0.01744 0.06857 0.01955 0.0
C4 C 0.02721 0.07019 0.00625 0.0
C5 C 0.04037 0.05841 0.006 0.0
H6 H 0.07922 3e-05 0.04303 0.0
C7 C 0.02356 0.0556 0.02932 0.0
C8 C 0.03703 0.04964 0.02148 0.0
H9 H 0.08963 0.02064 0.99678 0.0
H10 H 0.06717 0.03768 -0.00026 0.0
H11 H 0.07147 0.03172 0.06133 0.0
H12 H 0.04059 0.99689 0.03721 0.0
H13 H 0.03139 0.00214 0.05544 0.0
H14 H 0.05061 0.99308 0.05574 0.0
H15 H 0.06631 0.01285 0.07004 0.0
H16 H 0.05399 0.02992 0.07292 0.0
C17 C 0.05662 0.06785 0.00656 0.0
C18 C 0.03798 0.04737 0.991 0.0
C19 C 0.99587 0.041 0.08158 0.0
C20 C -0.00059 0.03031 0.09383 0.0
C21 C 0.01312 0.02106 0.09221 0.0
C22 C 0.02298 0.02229 0.07865 0.0
C23 C 0.01923 0.03299 0.06655 0.0
C24 C 0.00595 0.04223 0.06822 0.0
C25 C 0.00427 0.05352 0.05456 0.0
C26 C 0.01852 0.04925 0.04424 0.0
C27 C 0.02717 0.03716 0.05128 0.0
C28 C 0.00583 0.07081 0.06143 0.0
C29 C 0.98821 0.04943 0.04591 0.0
C30 C 0.07658 0.00807 0.03344 0.0
C31 C 0.08631 0.009 0.01968 0.0
C32 C 0.08252 0.01984 0.00762 0.0
C33 C 0.06939 0.02967 0.00931 0.0
C34 C 0.05989 0.02868 0.0232 0.0
C35 C 0.06347 0.01791 0.0349 0.0
C36 C 0.05189 0.0183 0.04871 0.0
C37 C 0.0408 0.03112 0.04339 0.0
C38 C 0.04561 0.03723 0.0285 0.0
C39 C 0.0613 0.02334 0.06414 0.0
C40 C 0.04317 0.00175 0.0495 0.0
H41 H 0.99663 0.07816 0.03181 0.0
H42 H 0.03295 0.08321 0.98485 0.0
H43 H 0.02506 0.04549 0.98809 0.0
H44 H 0.04235 0.03526 0.99282 0.0
H45 H 0.04394 0.05257 0.98029 0.0
H46 H 0.05594 0.07846 0.0147 0.0
H47 H 0.06006 0.07212 0.99445 0.0
H48 H 0.06645 0.06093 0.0114 0.0
H49 H 0.98541 0.04824 0.08228 0.0
H50 H 0.01643 0.013 0.10155 0.0
H51 H 0.03321 0.01494 0.07818 0.0
H52 H 0.01345 0.07146 0.0724 0.0
H53 H 0.99395 0.0754 0.06477 0.0
H54 H 0.01183 0.07913 0.05306 0.0
H55 H 0.98615 0.03629 0.04484 0.0
H56 H 0.9879 0.05375 0.03348 0.0
H57 H 0.978 0.05436 0.05268 0.0
H58 H 0.9925 0.09882 0.01263 0.0
C59 C 0.0047 0.07887 0.02181 0.0
C60 C 0.25528 0.66076 0.22187 0.0
C61 C 0.24088 0.65813 0.21334 0.0
C62 C 0.23694 0.6687 0.20111 0.0
C63 C 0.26147 0.68419 0.20609 0.0
C64 C 0.26533 0.67382 0.21808 0.0
C65 C 0.2809 0.67853 0.22619 0.0
H66 H 0.34427 0.73043 0.2336 0.0
C67 C 0.27441 0.69655 0.20521 0.0
C68 C 0.28584 0.6933 0.21694 0.0
H69 H 0.3331 0.68895 0.26207 0.0
H70 H 0.3098 0.68288 0.24575 0.0
H71 H 0.30798 0.74249 0.23177 0.0
H72 H 0.33623 0.71411 0.1997 0.0
H73 H 0.32442 0.72595 0.1876 0.0
H74 H 0.33892 0.73537 0.20111 0.0
H75 H 0.32498 0.75038 0.22098 0.0
H76 H 0.30532 0.74934 0.21215 0.0
C77 C 0.27735 0.68244 0.24409 0.0
C78 C 0.29267 0.66489 0.22346 0.0
C79 C 0.27075 0.7407 0.16472 0.0
C80 C 0.28106 0.7536 0.16065 0.0
C81 C 0.29576 0.75572 0.16889 0.0
C82 C 0.3 0.74533 0.18103 0.0
C83 C 0.28949 0.7326 0.18501 0.0
C84 C 0.27524 0.73036 0.17676 0.0
C85 C 0.2658 0.7159 0.1822 0.0
C86 C 0.27666 0.70993 0.19521 0.0
C87 C 0.29044 0.71983 0.19691 0.0
C88 C 0.24966 0.72145 0.18912 0.0
C89 C 0.26419 0.70398 0.16779 0.0
C90 C 0.33675 0.72009 0.23638 0.0
C91 C 0.3405 0.71021 0.2492 0.0
C92 C 0.33057 0.69669 0.25218 0.0
C93 C 0.31695 0.69324 0.24277 0.0
C94 C 0.31318 0.70344 0.23023 0.0
C95 C 0.32308 0.71652 0.22712 0.0
C96 C 0.31719 0.72604 0.21332 0.0
C97 C 0.30195 0.71667 0.20886 0.0
C98 C 0.29966 0.70346 0.2188 0.0
C99 C 0.31374 0.74301 0.21974 0.0
C100 C 0.32981 0.72551 0.1997 0.0
H101 H 0.24347 0.68927 0.18799 0.0
H102 H 0.25854 0.65298 0.23148 0.0
H103 H 0.29118 0.65954 0.2112 0.0
H104 H 0.30534 0.66899 0.2241 0.0
H105 H 0.29055 0.65524 0.23223 0.0
H106 H 0.26544 0.68781 0.2455 0.0
H107 H 0.27732 0.67153 0.25143 0.0
H108 H 0.28587 0.69141 0.24939 0.0
H109 H 0.2593 0.73874 0.15881 0.0
H110 H 0.3041 0.76534 0.16583 0.0
H111 H 0.31132 0.74761 0.18684 0.0
H112 H 0.25129 0.73304 0.19571 0.0
H113 H 0.24081 0.72309 0.17939 0.0
H114 H 0.24442 0.71322 0.19802 0.0
H115 H 0.27496 0.70472 0.15995 0.0
H116 H 0.26339 0.69142 0.17151 0.0
H117 H 0.25364 0.7065 0.16026 0.0
H118 H 0.226 0.66683 0.19426 0.0
C119 C 0.24715 0.68168 0.19743 0.0
C120 C 0.98523 0.42294 0.99547 0.0
C121 C 0.97668 0.42014 0.9811 0.0
C122 C 0.96435 0.4304 0.97709 0.0
C123 C 0.96876 0.44542 0.00193 0.0
C124 C 0.98111 0.4356 0.00563 0.0
C125 C 0.98896 0.44013 0.02138 0.0
H126 H 0.98989 0.48537 0.08936 0.0
C127 C 0.96715 0.45704 0.01534 0.0
C128 C 0.97899 0.45403 0.02674 0.0
H129 H 0.02341 0.44972 0.07463 0.0
H130 H 0.00892 0.44522 0.04992 0.0
H131 H 0.95796 0.46719 0.07654 0.0
H132 H 0.98979 0.50227 0.05541 0.0
H133 H 0.9703 0.50705 0.0499 0.0
H134 H 0.97579 0.50729 0.07087 0.0
H135 H 0.95886 0.48767 0.08311 0.0
H136 H 0.94606 0.48088 0.06677 0.0
C137 C 0.98693 0.42581 0.03275 0.0
C138 C 0.00661 0.44538 0.01806 0.0
C139 C 0.92275 0.49686 0.01447 0.0
C140 C 0.9178 0.50856 0.02554 0.0
C141 C 0.92619 0.51069 0.04016 0.0
C142 C 0.93927 0.50137 0.04369 0.0
C143 C 0.94405 0.48972 0.03252 0.0
C144 C 0.93581 0.4876 0.01821 0.0
C145 C 0.94242 0.47448 0.0079 0.0
C146 C 0.95609 0.46921 0.01831 0.0
C147 C 0.95697 0.47818 0.03271 0.0
C148 C 0.92917 0.46124 0.00579 0.0
C149 C 0.9485 0.48179 0.99198 0.0
C150 C 0.99425 0.47668 0.0808 0.0
C151 C 0.0078 0.4678 0.08415 0.0
C152 C 0.01284 0.4565 0.07261 0.0
C153 C 0.00448 0.45399 0.05816 0.0
C154 C 0.99096 0.46291 0.05506 0.0
C155 C 0.98617 0.47416 0.0662 0.0
C156 C 0.97195 0.48303 0.06056 0.0
C157 C 0.96895 0.47516 0.04423 0.0
C158 C 0.98 0.46327 0.04117 0.0
C159 C 0.95793 0.47969 0.07234 0.0
C160 C 0.97705 0.50088 0.05918 0.0
H161 H 0.95074 0.45029 0.98379 0.0
H162 H 0.99495 0.41543 -0.00127 0.0
H163 H 0.00805 0.45026 0.00578 0.0
H164 H 0.01093 0.45517 0.02618 0.0
H165 H 0.01468 0.4352 0.019 0.0
H166 H 0.97464 0.42036 0.03173 0.0
H167 H 0.99553 0.41643 0.02968 0.0
H168 H 0.9884 0.42916 0.04555 0.0
H169 H 0.9167 0.495 0.00306 0.0
H170 H 0.9225 0.51942 0.04903 0.0
H171 H 0.94509 0.50354 0.05504 0.0
H172 H 0.92192 0.46002 0.01694 0.0
H173 H 0.92089 0.46401 0.99587 0.0
H174 H 0.93396 0.44932 0.00359 0.0
H175 H 0.95382 0.49397 0.99412 0.0
H176 H 0.95817 0.475 0.98635 0.0
H177 H 0.93857 0.48275 0.98322 0.0
H178 H 0.95755 0.42843 0.96611 0.0
C179 C 0.96034 0.44301 0.98743 0.0
C180 C 0.6599 0.80195 0.23365 0.0
C181 C 0.64925 0.78882 0.23119 0.0
C182 C 0.65205 0.77803 0.21841 0.0
C183 C 0.676 0.79328 0.21107 0.0
C184 C 0.67315 0.8039 0.22354 0.0
C185 C 0.68592 0.8169 0.22492 0.0
H186 H 0.75534 0.85013 0.19776 0.0
C187 C 0.69105 0.79849 0.20316 0.0
C188 C 0.69693 0.8123 0.21124 0.0
H189 H 0.72671 0.86559 0.23808 0.0
H190 H 0.70754 0.84406 0.23276 0.0
H191 H 0.72571 0.84127 0.17353 0.0
H192 H 0.75346 0.81413 0.20601 0.0
H193 H 0.74914 0.80146 0.18949 0.0
H194 H 0.76089 0.81963 0.18661 0.0
H195 H 0.74632 0.8369 0.17013 0.0
H196 H 0.73036 0.82334 0.1636 0.0
C197 C 0.67804 0.83302 0.22201 0.0
C198 C 0.69415 0.81568 0.24152 0.0
C199 C 0.71258 0.76638 0.15601 0.0
C200 C 0.72667 0.76783 0.14679 0.0
C201 C 0.7375 0.78074 0.15007 0.0
C202 C 0.73439 0.79194 0.16224 0.0
C203 C 0.72036 0.79022 0.1714 0.0
C204 C 0.70975 0.7776 0.16825 0.0
C205 C 0.69572 0.77741 0.17958 0.0
C206 C 0.69967 0.79205 0.19 0.0
C207 C 0.71407 0.79952 0.18509 0.0
C208 C 0.6803 0.77937 0.1696 0.0
C209 C 0.69598 0.76183 0.18929 0.0
C210 C 0.74502 0.84884 0.20555 0.0
C211 C 0.74259 0.85965 0.21837 0.0
C212 C 0.7288 0.8576 0.22799 0.0
C213 C 0.71772 0.845 0.22495 0.0
C214 C 0.72044 0.83424 0.21219 0.0
C215 C 0.73391 0.83627 0.20275 0.0
C216 C 0.73506 0.82351 0.18995 0.0
C217 C 0.72 0.81352 0.1932 0.0
C218 C 0.71147 0.81987 0.2062 0.0
C219 C 0.73445 0.83156 0.17337 0.0
C220 C 0.75045 0.8142 0.19299 0.0
H221 H 0.66682 0.77159 0.19881 0.0
H222 H 0.6582 0.81032 0.24352 0.0
H223 H 0.69454 0.80305 0.24531 0.0
H224 H 0.7068 0.81992 0.24145 0.0
H225 H 0.68761 0.82236 0.25095 0.0
H226 H 0.66873 0.83174 0.21247 0.0
H227 H 0.67216 0.83749 0.23309 0.0
H228 H 0.68656 0.84229 0.21765 0.0
H229 H 0.70389 0.75674 0.15377 0.0
H230 H 0.74859 0.78205 0.14344 0.0
H231 H 0.74315 0.80142 0.16414 0.0
H232 H 0.68246 0.78803 0.15981 0.0
H233 H 0.67622 0.76785 0.16396 0.0
H234 H 0.6704 0.78423 0.17673 0.0
H235 H 0.70846 0.75817 0.19138 0.0
H236 H 0.69084 0.76314 0.20144 0.0
H237 H 0.68956 0.75187 0.18279 0.0
H238 H 0.64393 0.7679 0.21619 0.0
C239 C 0.66533 0.78022 0.20831 0.0
C240 C 0.03073 0.92487 0.49755 0.0
C241 C 0.01774 0.91405 0.49486 0.0
C242 C 0.0072 0.91668 0.48202 0.0
C243 C 0.02245 0.94061 0.47504 0.0
C244 C 0.03287 0.93795 0.48751 0.0
C245 C 0.04616 0.95044 0.48864 0.0
H246 H 0.08148 0.01801 0.46058 0.0
C247 C 0.02802 0.9553 0.46698 0.0
C248 C 0.04195 0.96108 0.47484 0.0
H249 H 0.09671 0.98914 0.49989 0.0
H250 H 0.07406 0.97111 0.49557 0.0
H251 H 0.04384 0.01616 0.46915 0.0
H252 H 0.07256 0.98872 0.43662 0.0
H253 H 0.05437 0.992 0.42688 0.0
H254 H 0.06731 0.0088 0.43256 0.0
H255 H 0.05187 0.02413 0.45087 0.0
H256 H 0.03293 0.01321 0.45125 0.0
C257 C 0.04485 0.95917 0.50513 0.0
C258 C 0.06224 0.94216 0.48578 0.0
C259 C 0.99623 0.97609 0.42036 0.0
C260 C -0.00163 0.98934 0.41043 0.0
C261 C 0.0118 -0.0003 0.41286 0.0
C262 C 0.02285 0.99698 0.4251 0.0
C263 C 0.02049 0.98372 0.43498 0.0
C264 C 0.00739 0.97351 0.43247 0.0
C265 C 0.00691 0.95988 0.44392 0.0
C266 C 0.02181 0.96367 0.45385 0.0
C267 C 0.0297 0.97766 0.4486 0.0
C268 C 0.99145 0.96095 0.45409 0.0
C269 C 0.00827 0.94415 0.43403 0.0
C270 C 0.08 0.00774 0.46818 0.0
C271 C 0.09091 0.00504 0.48063 0.0
C272 C 0.08838 0.99163 0.49037 0.0
C273 C 0.07526 0.9811 0.48777 0.0
C274 C 0.0645 0.98394 0.47527 0.0
C275 C 0.06695 0.99708 0.46572 0.0
C276 C 0.05426 -0.00184 0.45301 0.0
C277 C 0.04385 0.98347 0.45648 0.0
C278 C 0.04991 0.97521 0.46953 0.0
C279 C 0.04525 0.01375 0.45605 0.0
C280 C 0.06244 0.99698 0.43634 0.0
H281 H 0.00103 0.93119 0.46258 0.0
H282 H 0.03897 0.92336 0.50739 0.0
H283 H 0.06073 0.93198 0.47709 0.0
H284 H 0.07147 0.95007 0.48032 0.0
H285 H 0.06698 0.93741 0.49713 0.0
H286 H 0.0321 0.96053 0.50858 0.0
H287 H 0.05067 0.95243 0.51475 0.0
H288 H 0.05002 0.97144 0.5051 0.0
H289 H 0.98618 0.96775 0.41862 0.0
H290 H 0.01365 0.01004 0.40541 0.0
H291 H 0.03279 0.00534 0.42639 0.0
H292 H 0.98897 0.97357 0.45719 0.0
H293 H 0.98093 0.95584 0.44739 0.0
H294 H 0.99226 0.95499 0.46575 0.0
H295 H 0.01566 0.946 0.42307 0.0
H296 H 0.0144 0.93483 0.44065 0.0
H297 H 0.9963 0.93942 0.4301 0.0
H298 H 0.99725 0.90842 0.47949 0.0
C299 C 0.00947 0.92988 0.47213 0.0
C300 C 0.23813 0.68012 0.79023 0.0
C301 C 0.235 0.66926 0.77748 0.0
C302 C 0.22114 0.67085 0.76809 0.0
C303 C 0.21381 0.69381 0.78419 0.0
C304 C 0.22737 0.69218 0.79341 0.0
C305 C 0.22864 0.70433 0.80688 0.0
H306 H 0.19703 0.76621 0.84752 0.0
C307 C 0.20504 0.70741 0.79084 0.0
C308 C 0.21362 0.71357 0.80418 0.0
H309 H 0.24123 0.74275 0.85709 0.0
H310 H 0.23651 0.72511 0.83435 0.0
H311 H 0.17584 0.73469 0.83877 0.0
H312 H 0.20248 0.76788 0.80941 0.0
H313 H 0.18464 0.76281 0.79913 0.0
H314 H 0.18377 0.7727 0.81852 0.0
H315 H 0.16955 0.7546 0.8355 0.0
H316 H 0.16408 0.73842 0.82183 0.0
C317 C 0.22809 0.69537 0.82299 0.0
C318 C 0.24404 0.71477 0.80428 0.0
C319 C 0.15397 0.72411 0.76388 0.0
C320 C 0.14322 0.73626 0.76719 0.0
C321 C 0.14597 0.74636 0.78071 0.0
C322 C 0.15925 0.74445 0.79068 0.0
C323 C 0.16994 0.73231 0.78713 0.0
C324 C 0.16716 0.72235 0.77396 0.0
C325 C 0.17971 0.71007 0.77205 0.0
C326 C 0.19062 0.71444 0.78612 0.0
C327 C 0.18484 0.72746 0.79491 0.0
C328 C 0.17151 0.69335 0.77386 0.0
C329 C 0.18819 0.71267 0.75571 0.0
C330 C 0.20577 0.75737 0.84465 0.0
C331 C 0.21948 0.75585 0.85423 0.0
C332 C 0.23043 0.74403 0.85012 0.0
C333 C 0.22772 0.73384 0.83682 0.0
C334 C 0.21392 0.73545 0.82745 0.0
C335 C 0.20327 0.74713 0.83136 0.0
C336 C 0.18941 0.74726 0.81985 0.0
C337 C 0.19342 0.7336 0.80851 0.0
C338 C 0.20776 0.72673 0.81306 0.0
C339 C 0.17382 0.74367 0.82939 0.0
C340 C 0.18992 0.7635 0.81129 0.0
H341 H 0.20025 0.68369 0.76374 0.0
H342 H 0.24855 0.67904 0.79781 0.0
H343 H 0.24632 0.71654 0.79125 0.0
H344 H 0.24322 0.72693 0.80942 0.0
H345 H 0.25467 0.70909 0.80937 0.0
H346 H 0.21995 0.68463 0.82212 0.0
H347 H 0.24014 0.69136 0.82636 0.0
H348 H 0.22324 0.70253 0.83301 0.0
H349 H 0.15234 0.71625 0.7535 0.0
H350 H 0.13776 0.75568 0.78366 0.0
H351 H 0.16066 0.7525 0.80078 0.0
H352 H 0.16116 0.69381 0.78224 0.0
H353 H 0.16696 0.68858 0.76214 0.0
H354 H 0.17948 0.68464 0.77919 0.0
H355 H 0.18992 0.72561 0.75334 0.0
H356 H 0.20032 0.7079 0.75528 0.0
H357 H 0.181 0.70726 0.74567 0.0
H358 H 0.21855 0.66267 0.75814 0.0
C359 C 0.21056 0.68309 0.77134 0.0
C360 C 0.91948 0.50354 0.48096 0.0
C361 C 0.91623 0.49015 0.47095 0.0
C362 C 0.9265 0.48712 0.4579 0.0
C363 C 0.94263 0.51081 0.46476 0.0
C364 C 0.93266 0.51364 0.47766 0.0
C365 C 0.93772 0.52839 0.48712 0.0
H366 H 0.98821 0.59252 0.49653 0.0
C367 C 0.95503 0.52376 0.46453 0.0
C368 C 0.95221 0.53409 0.47761 0.0
H369 H 0.94856 0.57807 0.52689 0.0
H370 H 0.94303 0.55511 0.50966 0.0
H371 H 0.97049 0.58511 0.46301 0.0
H372 H 0.00183 0.55768 0.49173 0.0
H373 H 0.00748 0.55483 0.4716 0.0
H374 H 0.00881 0.57457 0.4805 0.0
H375 H 0.99164 0.58938 0.46411 0.0
H376 H 0.98317 0.5752 0.44965 0.0
C377 C 0.92397 0.54027 0.48642 0.0
C378 C 0.94227 0.52338 0.50432 0.0
C379 C 0.99737 0.52456 0.42074 0.0
C380 C 0.01012 0.53529 0.41715 0.0
C381 C 0.01256 0.54904 0.42695 0.0
C382 C 0.00263 0.55198 0.44014 0.0
C383 C 0.99005 0.54108 0.44362 0.0
C384 C 0.98751 0.52771 0.43392 0.0
C385 C 0.97335 0.51763 0.43927 0.0
C386 C 0.96794 0.52707 0.4539 0.0
C387 C 0.9778 0.54075 0.4564 0.0
C388 C 0.96069 0.51726 0.42565 0.0
C389 C 0.97934 0.50105 0.44382 0.0
C390 C 0.97825 0.58448 0.49937 0.0
C391 C 0.96878 0.58711 0.51305 0.0
C392 C 0.9561 0.57621 0.51649 0.0
C393 C 0.95288 0.56293 0.50643 0.0
C394 C 0.96245 0.56046 0.49279 0.0
C395 C 0.97493 0.57112 0.4895 0.0
C396 C 0.98406 0.56641 0.4747 0.0
C397 C 0.975 0.55117 0.46964 0.0
C398 C 0.96233 0.5478 0.48023 0.0
C399 C 0.98243 0.57969 0.46217 0.0
C400 C 0.00151 0.56329 0.47973 0.0
H401 H 0.94697 0.49447 0.44458 0.0
H402 H 0.91198 0.50606 0.49125 0.0
H403 H 0.94726 0.51126 0.50424 0.0
H404 H 0.9518 0.53116 0.50976 0.0
H405 H 0.93167 0.52315 0.51237 0.0
H406 H 0.91839 0.54005 0.47428 0.0
H407 H 0.91444 0.53719 0.49524 0.0
H408 H 0.92805 0.55277 0.48852 0.0
H409 H 0.99521 0.5138 0.41358 0.0
H410 H 0.02208 0.55767 0.42432 0.0
H411 H 0.00514 0.56265 0.44711 0.0
H412 H 0.96074 0.52882 0.41933 0.0
H413 H 0.96313 0.5078 0.41656 0.0
H414 H 0.94832 0.51557 0.43009 0.0
H415 H 0.99126 0.50219 0.44977 0.0
H416 H 0.97152 0.4949 0.45259 0.0
H417 H 0.98058 0.49325 0.433 0.0
H418 H 0.92419 0.47695 0.44993 0.0
C419 C 0.93967 0.49737 0.45475 0.0
C420 C 0.78735 0.75275 0.83214 0.0
C421 C 0.77545 0.75522 0.8438 0.0
C422 C 0.76521 0.7681 0.84206 0.0
C423 C 0.77884 0.77577 0.81759 0.0
C424 C 0.78877 0.76307 0.81916 0.0
C425 C 0.80052 0.76193 0.80554 0.0
H426 H 0.8309 0.79226 0.73673 0.0
C427 C 0.78339 0.78417 0.80278 0.0
C428 C 0.79601 0.77606 0.79558 0.0
H429 H 0.84536 0.7503 0.76147 0.0
H430 H 0.82496 0.75433 0.78156 0.0
H431 H 0.82581 0.81444 0.76893 0.0
H432 H 0.79418 0.78501 0.73931 0.0
H433 H 0.7831 0.80133 0.74567 0.0
H434 H 0.8007 0.80462 0.73343 0.0
H435 H 0.82071 0.81913 0.74866 0.0
H436 H 0.80846 0.82511 0.76535 0.0
C437 C 0.81762 0.76407 0.81259 0.0
C438 C 0.79724 0.74586 0.79645 0.0
C439 C 0.75463 0.834 0.78756 0.0
C440 C 0.75581 0.84402 0.77426 0.0
C441 C 0.76701 0.84077 0.76209 0.0
C442 C 0.77702 0.8278 0.76324 0.0
C443 C 0.77574 0.81789 0.77664 0.0
C444 C 0.76459 0.82099 0.78843 0.0
C445 C 0.76442 0.8088 0.80143 0.0
C446 C 0.77748 0.79799 0.7956 0.0
C447 C 0.78415 0.80346 0.78117 0.0
C448 C 0.76899 0.81745 0.81747 0.0
C449 C 0.74774 0.80011 0.80146 0.0
C450 C 0.82975 0.78403 0.74657 0.0
C451 C 0.83979 0.77101 0.74761 0.0
C452 C 0.83769 0.76036 0.76039 0.0
C453 C 0.8259 0.76277 0.77207 0.0
C454 C 0.81602 0.77592 0.77092 0.0
C455 C 0.81797 0.78621 0.75825 0.0
C456 C 0.80617 0.7993 0.75871 0.0
C457 C 0.79692 0.7953 0.77387 0.0
C458 C 0.80279 0.78165 0.78101 0.0
C459 C 0.81566 0.81541 0.7604 0.0
C460 C 0.7955 0.79766 0.74349 0.0
H461 H 0.75871 0.78792 0.82848 0.0
H462 H 0.79551 0.74308 0.83312 0.0
H463 H 0.78429 0.74236 0.79673 0.0
H464 H 0.80022 0.74643 0.78354 0.0
H465 H 0.8039 0.73613 0.80196 0.0
H466 H 0.81799 0.77339 0.82228 0.0
H467 H 0.82161 0.75282 0.81786 0.0
H468 H 0.82655 0.76817 0.80369 0.0
H469 H 0.74592 0.83607 0.79694 0.0
H470 H 0.76812 0.84839 0.75177 0.0
H471 H 0.78536 0.82599 0.75364 0.0
H472 H 0.77881 0.8265 0.81557 0.0
H473 H 0.75862 0.82373 0.82259 0.0
H474 H 0.77359 0.8094 0.82657 0.0
H475 H 0.74222 0.79991 0.7893 0.0
H476 H 0.74834 0.78741 0.80461 0.0
H477 H 0.73939 0.8061 0.8098 0.0
H478 H 0.75572 0.77013 0.85063 0.0
C479 C 0.76688 0.77838 0.82908 0.0
C480 C 0.2863 0.25046 0.32719 0.0
C481 C 0.27468 0.25284 0.33915 0.0
C482 C 0.26551 0.26661 0.33871 0.0
C483 C 0.27936 0.27516 0.31465 0.0
C484 C 0.28844 0.26173 0.31513 0.0
C485 C 0.30027 0.26103 0.30155 0.0
H486 H 0.3327 0.29463 0.23527 0.0
C487 C 0.28444 0.28439 0.30051 0.0
C488 C 0.2967 0.2762 0.29278 0.0
H489 H 0.34554 0.25086 0.25778 0.0
H490 H 0.32498 0.25435 0.27773 0.0
H491 H 0.32841 0.31506 0.26832 0.0
H492 H 0.29521 0.28853 0.23773 0.0
H493 H 0.28536 0.3055 0.24453 0.0
H494 H 0.3032 0.30782 0.23245 0.0
H495 H 0.32309 0.32138 0.2486 0.0
H496 H 0.31139 0.32654 0.266 0.0
C497 C 0.31734 0.26162 0.30885 0.0
C498 C 0.29619 0.24593 0.29117 0.0
C499 C 0.25679 0.3355 0.2877 0.0
C500 C 0.25838 0.34631 0.27507 0.0
C501 C 0.27004 0.34379 0.26316 0.0
C502 C 0.27994 0.33068 0.26379 0.0
C503 C 0.27812 0.3199 0.27643 0.0
C504 C 0.26668 0.32242 0.28811 0.0
C505 C 0.26613 0.30955 0.30041 0.0
C506 C 0.27911 0.29886 0.29419 0.0
C507 C 0.28613 0.30502 0.2802 0.0
C508 C 0.27054 0.31726 0.31696 0.0
C509 C 0.24934 0.30112 0.29968 0.0
C510 C 0.33115 0.28586 0.24458 0.0
C511 C 0.34079 0.27248 0.24498 0.0
C512 C 0.33818 0.26119 0.25712 0.0
C513 C 0.3263 0.2633 0.26876 0.0
C514 C 0.31688 0.27683 0.26829 0.0
C515 C 0.31933 0.28778 0.25628 0.0
C516 C 0.30807 0.30133 0.25754 0.0
C517 C 0.29862 0.29682 0.27243 0.0
C518 C 0.30385 0.28248 0.27868 0.0
C519 C 0.31815 0.31698 0.26015 0.0
C520 C 0.29742 0.30096 0.24227 0.0
H521 H 0.26042 0.28797 0.32692 0.0
H522 H 0.29345 0.23995 0.32707 0.0
H523 H 0.28302 0.24358 0.29056 0.0
H524 H 0.3 0.24708 0.27853 0.0
H525 H 0.30162 0.23524 0.29628 0.0
H526 H 0.31793 0.26948 0.31976 0.0
H527 H 0.32094 0.24958 0.31241 0.0
H528 H 0.32646 0.26675 0.30068 0.0
H529 H 0.24776 0.33697 0.2969 0.0
H530 H 0.27156 0.35203 0.25337 0.0
H531 H 0.28859 0.32941 0.25438 0.0
H532 H 0.2797 0.32707 0.31563 0.0
H533 H 0.25989 0.32238 0.32283 0.0
H534 H 0.27601 0.30887 0.32522 0.0
H535 H 0.24469 0.30057 0.28715 0.0
H536 H 0.24941 0.28857 0.3034 0.0
H537 H 0.24059 0.30759 0.30717 0.0
H538 H 0.25667 0.26888 0.34791 0.0
C539 C 0.26778 0.27776 0.32656 0.0
C540 C 0.48587 0.92219 0.49341 0.0
C541 C 0.47656 0.91878 0.47962 0.0
C542 C 0.46352 0.92843 0.4763 0.0
C543 C 0.46888 0.94409 0.50057 0.0
C544 C 0.48184 0.93483 0.50365 0.0
C545 C 0.49035 0.93983 0.51893 0.0
H546 H 0.49388 0.98669 0.58582 0.0
C547 C 0.46762 0.95586 0.51389 0.0
C548 C 0.48019 0.95344 0.52466 0.0
H549 H 0.5269 0.95081 0.57059 0.0
H550 H 0.51132 0.94552 0.54664 0.0
H551 H 0.46182 0.96758 0.57555 0.0
H552 H 0.49129 0.00249 0.55118 0.0
H553 H 0.47131 0.00679 0.54711 0.0
H554 H 0.47843 0.00768 0.56758 0.0
H555 H 0.46234 0.98832 0.58121 0.0
H556 H 0.44889 0.98038 0.56588 0.0
C557 C 0.48942 0.92562 0.53055 0.0
C558 C 0.5076 0.9456 0.5146 0.0
C559 C 0.42203 0.99435 0.51476 0.0
C560 C 0.41739 0.00619 0.52582 0.0
C561 C 0.42658 0.00893 0.53987 0.0
C562 C 0.44012 7e-05 0.54284 0.0
C563 C 0.44457 0.98828 0.53168 0.0
C564 C 0.43556 0.98556 0.51793 0.0
C565 C 0.44196 0.9724 0.50753 0.0
C566 C 0.45638 0.96776 0.51725 0.0
C567 C 0.45784 0.9771 0.53137 0.0
C568 C 0.429 0.95877 0.50646 0.0
C569 C 0.44689 0.97949 0.49114 0.0
C570 C 0.49787 0.9778 0.57727 0.0
C571 C 0.51164 0.96911 0.58022 0.0
C572 C 0.51622 0.95749 0.56881 0.0
C573 C 0.50721 0.95451 0.55482 0.0
C574 C 0.49346 0.96325 0.55212 0.0
C575 C 0.48908 0.97475 0.56319 0.0
C576 C 0.47433 0.98311 0.55815 0.0
C577 C 0.47056 0.9747 0.54225 0.0
C578 C 0.48173 0.96301 0.53884 0.0
C579 C 0.4611 0.97985 0.57084 0.0
C580 C 0.47891 0.00098 0.55596 0.0
H581 H 0.44955 0.94789 0.48351 0.0
H582 H 0.49586 0.91494 0.49643 0.0
H583 H 0.50804 0.95097 0.50248 0.0
H584 H 0.5123 0.95517 0.52278 0.0
H585 H 0.51594 0.93558 0.51452 0.0
H586 H 0.47747 0.9194 0.52982 0.0
H587 H 0.49857 0.91677 0.5275 0.0
H588 H 0.49083 0.92927 0.54328 0.0
H589 H 0.41537 0.99203 0.50375 0.0
H590 H 0.42316 0.0178 0.54872 0.0
H591 H 0.44655 0.00271 0.55378 0.0
H592 H 0.42239 0.95766 0.51801 0.0
H593 H 0.42012 0.96102 0.49692 0.0
H594 H 0.43404 0.94694 0.50432 0.0
H595 H 0.452 0.99183 0.49272 0.0
H596 H 0.45641 0.97284 0.48507 0.0
H597 H 0.43643 0.98 0.48296 0.0
H598 H 0.4563 0.92623 0.46563 0.0
C599 C 0.45965 0.94105 0.48667 0.0
C600 C 0.16343 0.29612 0.73381 0.0
C601 C 0.15359 0.28231 0.73205 0.0
C602 C 0.15694 0.2711 0.71982 0.0
C603 C 0.1796 0.28758 0.71123 0.0
C604 C 0.17642 0.29843 0.72341 0.0
C605 C 0.18857 0.31204 0.72416 0.0
H606 H 0.25543 0.34803 0.69416 0.0
C607 C 0.19402 0.29346 0.70263 0.0
C608 C 0.19941 0.30772 0.71024 0.0
H609 H 0.22806 0.36217 0.73586 0.0
H610 H 0.20946 0.34 0.73121 0.0
H611 H 0.22519 0.33855 0.67144 0.0
H612 H 0.25509 0.31155 0.70207 0.0
H613 H 0.25116 0.29963 0.68489 0.0
H614 H 0.26177 0.31857 0.6829 0.0
H615 H 0.24547 0.33418 0.66642 0.0
H616 H 0.22901 0.32063 0.66115 0.0
C617 C 0.1798 0.32766 0.72117 0.0
C618 C 0.19735 0.31159 0.74056 0.0
C619 C 0.21422 0.26287 0.65387 0.0
C620 C 0.22733 0.26538 0.64351 0.0
C621 C 0.2376 0.27885 0.64615 0.0
C622 C 0.23487 0.28961 0.65881 0.0
C623 C 0.22175 0.28691 0.66906 0.0
C624 C 0.21169 0.27371 0.66652 0.0
C625 C 0.1985 0.27265 0.67878 0.0
C626 C 0.20226 0.28746 0.68902 0.0
C627 C 0.21587 0.29575 0.68325 0.0
C628 C 0.18232 0.27369 0.66987 0.0
C629 C 0.20036 0.25715 0.68834 0.0
C630 C 0.24552 0.34631 0.70239 0.0
C631 C 0.24328 0.3569 0.71542 0.0
C632 C 0.23 0.35432 0.72562 0.0
C633 C 0.21926 0.34135 0.72297 0.0
C634 C 0.22183 0.33076 0.71004 0.0
C635 C 0.23477 0.33336 0.7 0.0
C636 C 0.23581 0.32075 0.68703 0.0
C637 C 0.22144 0.31005 0.69103 0.0
C638 C 0.21326 0.316 0.70446 0.0
C639 C 0.23389 0.32884 0.67059 0.0
C640 C 0.2518 0.31218 0.68915 0.0
H641 H 0.17174 0.26479 0.7002 0.0
H642 H 0.16126 0.30477 0.74331 0.0
H643 H 0.19792 0.29919 0.74494 0.0
H644 H 0.20998 0.31582 0.73986 0.0
H645 H 0.19112 0.3187 0.74988 0.0
H646 H 0.17071 0.32584 0.71149 0.0
H647 H 0.1735 0.33172 0.73218 0.0
H648 H 0.18786 0.33742 0.71703 0.0
H649 H 0.20599 0.25274 0.65213 0.0
H650 H 0.24795 0.28096 0.63856 0.0
H651 H 0.24316 0.29958 0.66018 0.0
H652 H 0.18315 0.28281 0.66036 0.0
H653 H 0.17882 0.2621 0.66401 0.0
H654 H 0.17248 0.27742 0.67777 0.0
H655 H 0.21312 0.25386 0.68904 0.0
H656 H 0.19656 0.25839 0.70101 0.0
H657 H 0.19358 0.24697 0.68258 0.0
H658 H 0.14945 0.2604 0.71829 0.0
C659 C 0.16984 0.27371 0.70934 0.0
C660 C 0.75544 0.16292 0.72436 0.0
C661 C 0.74168 0.16006 0.7149 0.0
C662 C 0.73823 0.17069 0.70258 0.0
C663 C 0.76193 0.18682 0.70941 0.0
C664 C 0.76529 0.17637 0.72148 0.0
C665 C 0.77998 0.18153 0.73089 0.0
H666 H 0.84029 0.23589 0.74441 0.0
C667 C 0.7743 0.19979 0.70986 0.0
C668 C 0.78486 0.19682 0.72248 0.0
H669 H 0.8299 0.19241 0.76997 0.0
H670 H 0.80744 0.18631 0.75243 0.0
H671 H 0.80405 0.24653 0.74129 0.0
H672 H 0.83459 0.22059 0.7093 0.0
H673 H 0.82373 0.23352 0.69747 0.0
H674 H 0.83709 0.24168 0.71277 0.0
H675 H 0.82036 0.25596 0.73067 0.0
H676 H 0.80072 0.25344 0.72183 0.0
C677 C 0.77494 0.18465 0.74856 0.0
C678 C 0.7926 0.16858 0.72867 0.0
C679 C 0.77302 0.24384 0.66897 0.0
C680 C 0.78272 0.25758 0.66653 0.0
C681 C 0.79561 0.26106 0.67708 0.0
C682 C 0.7989 0.25091 0.68973 0.0
C683 C 0.78918 0.23714 0.69193 0.0
C684 C 0.77643 0.23386 0.6817 0.0
C685 C 0.76721 0.21887 0.68603 0.0
C686 C 0.77672 0.21352 0.70037 0.0
C687 C 0.78957 0.22425 0.70374 0.0
C688 C 0.74997 0.22337 0.69076 0.0
C689 C 0.76814 0.20694 0.67167 0.0
C690 C 0.83308 0.22513 0.74631 0.0
C691 C 0.8368 0.21466 0.75863 0.0
C692 C 0.82732 0.20061 0.76049 0.0
C693 C 0.81424 0.19714 0.75035 0.0
C694 C 0.8106 0.20781 0.73817 0.0
C695 C 0.82002 0.22147 0.73625 0.0
C696 C 0.81457 0.23127 0.72248 0.0
C697 C 0.80018 0.22134 0.71659 0.0
C698 C 0.79788 0.20765 0.72584 0.0
C699 C 0.80975 0.24773 0.72927 0.0
C700 C 0.82816 0.23197 0.70982 0.0
H701 H 0.74503 0.19166 0.69019 0.0
H702 H 0.75827 0.15507 0.73407 0.0
H703 H 0.79201 0.16326 0.71633 0.0
H704 H 0.80502 0.17334 0.72993 0.0
H705 H 0.79058 0.15877 0.73728 0.0
H706 H 0.76289 0.18987 0.74915 0.0
H707 H 0.77439 0.17342 0.75541 0.0
H708 H 0.7829 0.19342 0.75491 0.0
H709 H 0.76287 0.24099 0.66122 0.0
H710 H 0.80333 0.27151 0.67536 0.0
H711 H 0.80894 0.25415 0.69727 0.0
H712 H 0.74978 0.23563 0.69606 0.0
H713 H 0.74191 0.22298 0.68014 0.0
H714 H 0.74476 0.21567 0.70017 0.0
H715 H 0.78033 0.20733 0.6663 0.0
H716 H 0.76596 0.19443 0.67512 0.0
H717 H 0.75952 0.20985 0.66209 0.0
H718 H 0.72775 0.16864 0.69507 0.0
C719 C 0.7483 0.18402 0.69975 0.0
C720 C 0.5294 0.58513 0.50016 0.0
C721 C 0.51708 0.59596 0.50232 0.0
C722 C 0.50662 0.5941 0.5155 0.0
C723 C 0.52071 0.57093 0.52392 0.0
C724 C 0.531 0.57279 0.51106 0.0
C725 C 0.54355 0.56038 0.51056 0.0
H726 H 0.57566 0.49555 0.54321 0.0
C727 C 0.52561 0.55691 0.53292 0.0
C728 C 0.53899 0.55068 0.52516 0.0
H729 H 0.59231 0.52187 0.5019 0.0
H730 H 0.57039 0.53958 0.50479 0.0
H731 H 0.56857 0.52638 0.56486 0.0
H732 H 0.53838 0.49584 0.53484 0.0
H733 H 0.52724 0.50049 0.55207 0.0
H734 H 0.54546 0.48976 0.55405 0.0
H735 H 0.56264 0.50647 0.57033 0.0
H736 H 0.55047 0.52321 0.57518 0.0
C737 C 0.56018 0.56896 0.51255 0.0
C738 C 0.54144 0.55053 0.49474 0.0
C739 C 0.49496 0.54034 0.58293 0.0
C740 C 0.49664 0.52783 0.59375 0.0
C741 C 0.50874 0.51681 0.591 0.0
C742 C 0.5191 0.51832 0.57786 0.0
C743 C 0.5174 0.531 0.5673 0.0
C744 C 0.50539 0.54166 0.56984 0.0
C745 C 0.50528 0.5543 0.55729 0.0
C746 C 0.51929 0.54955 0.54687 0.0
C747 C 0.52637 0.53593 0.55283 0.0
C748 C 0.5084 0.57072 0.56574 0.0
C749 C 0.48916 0.55263 0.5481 0.0
C750 C 0.57468 0.5052 0.53485 0.0
C751 C 0.58578 0.50727 0.5223 0.0
C752 C 0.58384 0.51985 0.51154 0.0
C753 C 0.57115 0.53022 0.51332 0.0
C754 C 0.56027 0.52807 0.52602 0.0
C755 C 0.56214 0.51572 0.53651 0.0
C756 C 0.54959 0.51539 0.54945 0.0
C757 C 0.53994 0.52965 0.54504 0.0
C758 C 0.54622 0.537 0.5313 0.0
C759 C 0.55814 0.51787 0.56588 0.0
C760 C 0.53965 0.49954 0.54769 0.0
H761 H 0.50004 0.58093 0.53607 0.0
H762 H 0.53755 0.58608 0.49008 0.0
H763 H 0.52852 0.5485 0.49185 0.0
H764 H 0.54629 0.53851 0.49542 0.0
H765 H 0.54711 0.55684 0.48449 0.0
H766 H 0.55941 0.57979 0.52038 0.0
H767 H 0.56505 0.57278 0.50077 0.0
H768 H 0.56899 0.56159 0.51856 0.0
H769 H 0.4859 0.54911 0.58475 0.0
H770 H 0.51014 0.50691 0.59898 0.0
H771 H 0.52807 0.50956 0.57647 0.0
H772 H 0.51696 0.56974 0.57588 0.0
H773 H 0.49715 0.57547 0.57071 0.0
H774 H 0.51403 0.57966 0.55779 0.0
H775 H 0.48515 0.53989 0.54685 0.0
H776 H 0.48997 0.5569 0.53566 0.0
H777 H 0.47961 0.55903 0.55455 0.0
H778 H 0.49718 0.6024 0.51762 0.0
C779 C 0.50836 0.58166 0.52628 0.0
C780 C 0.53183 0.42658 0.99473 0.0
C781 C 0.51836 0.41614 0.99324 0.0
C782 C 0.50663 0.41926 0.98163 0.0
C783 C 0.5219 0.44268 0.97323 0.0
C784 C 0.53331 0.43973 0.9847 0.0
C785 C 0.54676 0.45209 0.9849 0.0
H786 H 0.58016 0.51975 0.95489 0.0
C787 C 0.52707 0.45726 0.96475 0.0
C788 C 0.54159 0.46287 0.97157 0.0
H789 H 0.59754 0.49128 0.99354 0.0
H790 H 0.57506 0.4728 0.99013 0.0
H791 H 0.54279 0.51774 0.96533 0.0
H792 H 0.57043 0.49047 0.93169 0.0
H793 H 0.55163 0.49292 0.92288 0.0
H794 H 0.5643 0.51023 0.92747 0.0
H795 H 0.5503 0.52573 0.94684 0.0
H796 H 0.53136 0.51487 0.94771 0.0
C797 C 0.54683 0.4607 0.00154 0.0
C798 C 0.56248 0.44368 0.98068 0.0
C799 C 0.49375 0.47672 0.91859 0.0
C800 C 0.49568 0.48951 0.90802 0.0
C801 C 0.50896 0.50017 0.91004 0.0
C802 C 0.5202 0.49801 0.92224 0.0
C803 C 0.5182 0.48503 0.93255 0.0
C804 C 0.50511 0.47468 0.93064 0.0
C805 C 0.50497 0.46145 0.94254 0.0
C806 C 0.52022 0.46548 0.95184 0.0
C807 C 0.52789 0.47931 0.94597 0.0
C808 C 0.48987 0.46289 0.95321 0.0
C809 C 0.50594 0.44544 0.93308 0.0
C810 C 0.57903 0.50961 0.9627 0.0
C811 C 0.59062 0.50699 0.97452 0.0
C812 C 0.58887 0.49348 0.98424 0.0
C813 C 0.57574 0.48281 0.98231 0.0
C814 C 0.56421 0.48563 0.97051 0.0
C815 C 0.566 0.49881 0.9609 0.0
C816 C 0.55269 0.49975 0.94884 0.0
C817 C 0.54249 0.48511 0.95298 0.0
C818 C 0.5493 0.4769 0.96568 0.0
C819 C 0.5438 0.51536 0.95218 0.0
C820 C 0.56003 0.4984 0.93178 0.0
H821 H 0.499 0.43414 0.96307 0.0
H822 H 0.54115 0.42449 0.0034 0.0
H823 H 0.56026 0.43398 0.97158 0.0
H824 H 0.57156 0.45171 0.97517 0.0
H825 H 0.56771 0.43826 0.99147 0.0
H826 H 0.53444 0.46174 0.00624 0.0
H827 H 0.55373 0.45407 0.01047 0.0
H828 H 0.55163 0.4731 0.00111 0.0
H829 H 0.48357 0.46843 0.91756 0.0
H830 H 0.51085 0.51003 0.90197 0.0
H831 H 0.5301 0.50646 0.92307 0.0
H832 H 0.48673 0.47557 0.955 0.0
H833 H 0.47936 0.4565 0.94764 0.0
H834 H 0.4916 0.45846 0.96548 0.0
H835 H 0.51397 0.44674 0.92249 0.0
H836 H 0.51111 0.43589 0.94015 0.0
H837 H 0.49396 0.44131 0.9286 0.0
H838 H 0.496 0.41161 0.9804 0.0
C839 C 0.50834 0.43244 0.97164 0.0
C840 C 0.73424 0.17119 0.30007 0.0
C841 C 0.73214 0.16016 0.28728 0.0
C842 C 0.71973 0.16226 0.27612 0.0
C843 C 0.71222 0.18638 0.29022 0.0
C844 C 0.72426 0.1842 0.30125 0.0
C845 C 0.72541 0.1974 0.31368 0.0
H846 H 0.70074 0.26874 0.34125 0.0
C847 C 0.70454 0.20149 0.29442 0.0
C848 C 0.71228 0.20804 0.3081 0.0
H849 H 0.73652 0.23917 0.36172 0.0
H850 H 0.7317 0.21931 0.34077 0.0
H851 H 0.6752 0.23984 0.33438 0.0
H852 H 0.71033 0.26345 0.30454 0.0
H853 H 0.69329 0.25965 0.29257 0.0
H854 H 0.69196 0.2725 0.31011 0.0
H855 H 0.67301 0.25972 0.32737 0.0
H856 H 0.66629 0.24256 0.31557 0.0
C857 C 0.72165 0.19019 0.33033 0.0
C858 C 0.7422 0.20567 0.31236 0.0
C859 C 0.65841 0.22026 0.26074 0.0
C860 C 0.64964 0.23423 0.26112 0.0
C861 C 0.65348 0.24625 0.27264 0.0
C862 C 0.66571 0.24425 0.28384 0.0
C863 C 0.6743 0.23015 0.28344 0.0
C864 C 0.67073 0.21853 0.27189 0.0
C865 C 0.68165 0.2047 0.27277 0.0
C866 C 0.69199 0.2097 0.28709 0.0
C867 C 0.68757 0.22456 0.29334 0.0
C868 C 0.67131 0.18949 0.27615 0.0
C869 C 0.69144 0.20393 0.25696 0.0
C870 C 0.70762 0.25804 0.3411 0.0
C871 C 0.71909 0.25552 0.35304 0.0
C872 C 0.72758 0.24131 0.35266 0.0
C873 C 0.72479 0.22983 0.34047 0.0
C874 C 0.71334 0.23254 0.32856 0.0
C875 C 0.70487 0.24638 0.3291 0.0
C876 C 0.69273 0.24695 0.31581 0.0
C877 C 0.69543 0.23123 0.30712 0.0
C878 C 0.70759 0.22292 0.31456 0.0
C879 C 0.67588 0.2474 0.32355 0.0
C880 C 0.69713 0.26142 0.30519 0.0
H881 H 0.70055 0.17623 0.26867 0.0
H882 H 0.7438 0.17003 0.30871 0.0
H883 H 0.74587 0.20671 0.29956 0.0
H884 H 0.74266 0.218 0.3172 0.0
H885 H 0.75138 0.19877 0.31858 0.0
H886 H 0.71305 0.17982 0.32923 0.0
H887 H 0.73266 0.18599 0.33613 0.0
H888 H 0.71574 0.19863 0.33856 0.0
H889 H 0.65589 0.21097 0.2518 0.0
H890 H 0.64682 0.25709 0.27313 0.0
H891 H 0.66799 0.25377 0.2924 0.0
H892 H 0.66197 0.19203 0.28528 0.0
H893 H 0.66515 0.18498 0.26507 0.0
H894 H 0.67826 0.17981 0.28117 0.0
H895 H 0.69306 0.21591 0.25159 0.0
H896 H 0.70376 0.19994 0.25883 0.0
H897 H 0.68537 0.196 0.24785 0.0
H898 H 0.71779 0.15382 0.26626 0.0
C899 C 0.70973 0.17527 0.27756 0.0
C900 C 0.41941 0.00656 0.98115 0.0
C901 C 0.41599 0.99268 0.97191 0.0
C902 C 0.42597 0.98899 0.9588 0.0
C903 C 0.44223 0.01296 0.96415 0.0
C904 C 0.43252 0.01645 0.97709 0.0
C905 C 0.43786 0.03154 0.98581 0.0
H906 H 0.48927 0.09531 0.9919 0.0
C907 C 0.45472 0.02578 0.96314 0.0
C908 C 0.45222 0.03668 0.97581 0.0
H909 H 0.45014 0.08241 0.02355 0.0
H910 H 0.44384 0.05905 0.00713 0.0
H911 H 0.4707 0.08654 0.9586 0.0
H912 H 0.50236 0.06055 0.98837 0.0
H913 H 0.50748 0.05622 0.96836 0.0
H914 H 0.50939 0.07648 0.97585 0.0
H915 H 0.49182 0.09103 0.95964 0.0
H916 H 0.48355 0.07625 0.94568 0.0
C917 C 0.4242 0.0435 0.98479 0.0
C918 C 0.44267 0.02727 0.00316 0.0
C919 C 0.49643 0.02415 0.91879 0.0
C920 C 0.50938 0.03444 0.91474 0.0
C921 C 0.51218 0.04853 0.92394 0.0
C922 C 0.50238 0.05222 0.93704 0.0
C923 C 0.48961 0.04174 0.94103 0.0
C924 C 0.48674 0.02803 0.9319 0.0
C925 C 0.47255 0.01837 0.93788 0.0
C926 C 0.46749 0.02848 0.95218 0.0
C927 C 0.47754 0.04212 0.95396 0.0
C928 C 0.45969 0.01759 0.92446 0.0
C929 C 0.47841 0.00192 0.94304 0.0
C930 C 0.47924 0.08752 0.99516 0.0
C931 C 0.47015 0.09069 0.00899 0.0
C932 C 0.45738 0.08013 0.01302 0.0
C933 C 0.45372 0.06661 0.00344 0.0
C934 C 0.46298 0.06353 0.98971 0.0
C935 C 0.47552 0.07389 0.9858 0.0
C936 C 0.48437 0.06845 0.97108 0.0
C937 C 0.47506 0.05313 0.96679 0.0
C938 C 0.46251 0.05038 0.97768 0.0
C939 C 0.4827 0.08121 0.95802 0.0
C940 C 0.50186 0.06533 0.976 0.0
H941 H 0.44613 0.99565 0.94471 0.0
H942 H 0.41213 0.00958 0.99146 0.0
H943 H 0.44735 0.01504 0.00359 0.0
H944 H 0.45252 0.03505 0.00801 0.0
H945 H 0.43227 0.02772 0.01143 0.0
H946 H 0.41849 0.04286 0.97271 0.0
H947 H 0.41475 0.04083 0.99383 0.0
H948 H 0.4284 0.05603 0.98638 0.0
H949 H 0.49403 0.01316 0.91207 0.0
H950 H 0.52189 0.05679 0.92094 0.0
H951 H 0.50516 0.06311 0.94355 0.0
H952 H 0.45958 0.029 0.91787 0.0
H953 H 0.46206 0.00794 0.91556 0.0
H954 H 0.4474 0.01592 0.92912 0.0
H955 H 0.49054 0.00309 0.94854 0.0
H956 H 0.47081 0.99636 0.95237 0.0
H957 H 0.47914 0.99358 0.93257 0.0
H958 H 0.42351 0.97842 0.95144 0.0
C959 C 0.43904 -0.00094 0.95486 0.0
C960 C 0.22509 0.91231 0.00846 0.0
O961 O 0.23736 0.9168 -0.00044 0.0
O962 O 0.24174 0.87108 0.99438 0.0
Zn963 Zn 0.24471 0.88556 0.01382 0.0
O964 O 0.26458 0.89934 0.01085 0.0
C965 C 0.23744 0.86096 0.03652 0.0
O966 O 0.22568 0.85755 0.02641 0.0
O967 O 0.22555 0.89925 0.01589 0.0
C968 C 0.27827 0.89324 0.01054 0.0
O969 O 0.27935 0.87784 0.01252 0.0
C970 C 0.24768 0.85736 0.99343 0.0
O971 O 0.25613 0.85227 0.00548 0.0
O972 O 0.24699 0.87267 0.03372 0.0
C973 C 0.14583 0.47188 0.26794 0.0
O974 O 0.14475 0.48226 0.27984 0.0
O975 O 0.11011 0.49641 0.27163 0.0
Zn976 Zn 0.12383 0.49251 0.25214 0.0
O977 O 0.1382 0.51167 0.24781 0.0
C978 C 0.09716 0.49558 0.23047 0.0
O979 O 0.09315 0.50678 0.24078 0.0
O980 O 0.13775 0.47374 0.25522 0.0
C981 C 0.13318 0.52578 0.24773 0.0
O982 O 0.11801 0.52818 0.25067 0.0
C983 C 0.1148 0.50531 0.28334 0.0
O984 O 0.12919 0.51209 0.28297 0.0
O985 O 0.1097 0.48786 0.23295 0.0
C986 C 0.77915 0.60117 0.99669 0.0
O987 O 0.76723 0.59522 0.98795 0.0
O988 O 0.75983 0.64055 0.98106 0.0
Zn989 Zn 0.75792 0.62714 0.00087 0.0
O990 O 0.7389 0.61198 -0.00141 0.0
C991 C 0.76447 0.65323 0.02288 0.0
O992 O 0.7761 0.65622 0.01264 0.0
O993 O 0.77789 0.61479 0.00338 0.0
C994 C 0.72476 0.61704 -0.00156 0.0
O995 O 0.72261 0.63241 -0.0 0.0
C996 C 0.75315 0.65389 0.98021 0.0
O997 O 0.74467 0.65899 0.99243 0.0
O998 O 0.75515 0.64116 0.02044 0.0
C999 C 0.84957 0.03971 0.26951 0.0
O1000 O 0.85122 0.02913 0.28077 0.0
O1001 O 0.88457 0.01714 0.27373 0.0
Zn1002 Zn 0.87122 0.01936 0.25376 0.0
O1003 O 0.85619 0.00028 0.25032 0.0
C1004 C 0.89859 0.01485 0.2334 0.0
O1005 O 0.90231 0.0049 0.24469 0.0
O1006 O 0.85744 0.03829 0.25654 0.0
C1007 C 0.85951 0.98774 0.24239 0.0
O1008 O 0.87375 0.98656 0.23594 0.0
C1009 C 0.88729 0.00374 0.27983 0.0
O1010 O 0.88108 0.99069 0.27309 0.0
O1011 O 0.88575 0.02248 0.23467 0.0
C1012 C 0.27869 0.09819 0.49509 0.0
O1013 O 0.2666 0.092 0.48674 0.0
O1014 O 0.26237 0.13787 0.47584 0.0
Zn1015 Zn 0.25894 0.12557 0.49605 0.0
O1016 O 0.23926 0.1114 0.4934 0.0
C1017 C 0.26101 0.1552 0.5142 0.0
O1018 O 0.26911 0.16006 0.50158 0.0
O1019 O 0.27809 0.11246 0.50033 0.0
C1020 C 0.23189 0.10579 0.5055 0.0
O1021 O 0.23737 0.10923 0.51998 0.0
C1022 C 0.25054 0.14452 0.46955 0.0
O1023 O 0.23638 0.14286 0.47629 0.0
O1024 O 0.25566 0.14086 0.51456 0.0
C1025 C 0.33886 0.53718 0.75906 0.0
O1026 O 0.3329 0.52287 0.76205 0.0
O1027 O 0.37995 0.51743 0.77303 0.0
Zn1028 Zn 0.36705 0.51957 0.75272 0.0
O1029 O 0.35256 0.50023 0.74882 0.0
C1030 C 0.39627 0.51827 0.73411 0.0
O1031 O 0.40201 0.5125 0.7474 0.0
O1032 O 0.35345 0.53883 0.75493 0.0
C1033 C 0.35664 0.48796 0.74088 0.0
O1034 O 0.3712 0.48739 0.73501 0.0
C1035 C 0.38279 0.50396 0.77891 0.0
O1036 O 0.37687 0.49096 0.77182 0.0
O1037 O 0.38175 0.52225 0.73368 0.0
C1038 C 0.71963 0.40477 0.50457 0.0
O1039 O 0.72593 0.40265 0.49028 0.0
O1040 O 0.74034 0.36927 0.49385 0.0
Zn1041 Zn 0.74442 0.38383 0.51306 0.0
O1042 O 0.76415 0.39747 0.50915 0.0
C1043 C 0.7504 0.3558 0.53124 0.0
O1044 O 0.75041 0.34912 0.51685 0.0
O1045 O 0.72558 0.39784 0.5165 0.0
C1046 C 0.77741 0.39096 0.50652 0.0
O1047 O 0.77796 0.37534 0.50657 0.0
C1048 C 0.74512 0.37239 0.47973 0.0
O1049 O 0.75279 0.38599 0.47705 0.0
O1050 O 0.74797 0.37062 0.53268 0.0
C1051 C 0.65109 0.97571 0.76265 0.0
O1052 O 0.65466 0.98918 0.77029 0.0
O1053 O 0.61046 0.99655 0.76949 0.0
Zn1054 Zn 0.625 0.99356 0.75043 0.0
O1055 O 0.6393 0.01304 0.74719 0.0
C1056 C 0.60201 -0.00059 0.72554 0.0
O1057 O 0.60062 0.01294 0.73349 0.0
O1058 O 0.63884 0.97476 0.7536 0.0
C1059 C 0.63501 0.02718 0.7501 0.0
O1060 O 0.62059 0.02955 0.7557 0.0
C1061 C 0.61547 0.00291 0.7826 0.0
O1062 O 0.63054 0.00771 0.78383 0.0
O1063 O 0.61165 0.98926 0.73061 0.0
C1064 C 0.99689 0.22453 0.89122 0.0
O1065 O 0.9826 0.22971 0.88806 0.0
O1066 O 0.98553 0.24572 0.85808 0.0
Zn1067 Zn 0.00585 0.25012 0.87069 0.0
O1068 O 0.00426 0.27001 0.88457 0.0
C1069 C 0.0223 0.25848 0.84161 0.0
O1070 O 0.00812 0.26351 0.83779 0.0
O1071 O 0.00909 0.23153 0.88509 0.0
C1072 C 0.00678 0.28398 0.87927 0.0
O1073 O 0.01069 0.28579 0.86413 0.0
C1074 C 0.9742 0.25536 0.85705 0.0
O1075 O 0.97547 0.26928 0.86446 0.0
O1076 O 0.02432 0.25222 0.85522 0.0
C1077 C 0.49614 0.72407 0.39233 0.0
O1078 O 0.48176 0.72947 0.39003 0.0
O1079 O 0.48414 0.74202 0.35638 0.0
Zn1080 Zn 0.50355 0.74804 0.3697 0.0
O1081 O 0.4995 0.76795 0.38261 0.0
C1082 C 0.52336 0.7646 0.34704 0.0
O1083 O 0.5126 0.77546 0.34932 0.0
O1084 O 0.50789 0.73029 0.38475 0.0
C1085 C 0.51087 0.77623 0.38905 0.0
O1086 O 0.52563 0.77157 0.38737 0.0
C1087 C 0.47462 0.75247 0.35173 0.0
O1088 O 0.47747 0.76748 0.35583 0.0
O1089 O 0.52214 0.75169 0.35475 0.0
C1090 C 0.99267 0.78232 0.60137 0.0
O1091 O 0.97831 0.77573 0.60304 0.0
O1092 O 0.97914 0.76091 0.63499 0.0
Zn1093 Zn 0.00014 0.75813 0.62342 0.0
O1094 O -0.0007 0.73822 0.60964 0.0
C1095 C 0.01479 0.75366 0.65425 0.0
O1096 O -0.00016 0.75107 0.65858 0.0
O1097 O 0.00428 0.77681 0.60913 0.0
C1098 C 0.00053 0.72446 0.61551 0.0
O1099 O 0.00255 0.72312 0.63107 0.0
C1100 C 0.96743 0.75087 0.6342 0.0
O1101 O 0.96851 0.73806 0.62503 0.0
O1102 O 0.01791 0.75692 0.6397 0.0
C1103 C 0.49972 0.27952 0.09448 0.0
O1104 O 0.49077 0.26717 0.08969 0.0
O1105 O 0.4824 0.2625 0.13411 0.0
Zn1106 Zn 0.50305 0.26011 0.12195 0.0
O1107 O 0.50208 0.24044 0.1076 0.0
C1108 C 0.51913 0.25222 0.1511 0.0
O1109 O 0.50497 0.24593 0.15455 0.0
O1110 O 0.50644 0.27929 0.10816 0.0
C1111 C 0.50497 0.22654 0.11238 0.0
O1112 O 0.50897 0.22453 0.12743 0.0
C1113 C 0.47161 0.25153 0.13515 0.0
O1114 O 0.47359 0.2378 0.12775 0.0
O1115 O 0.52123 0.25905 0.13773 0.0
C1116 C 0.2287 0.76046 0.88269 0.0
C1117 C 0.22237 0.76648 0.86847 0.0
C1118 C 0.23154 0.77046 0.89605 0.0
C1119 C 0.21954 0.80811 0.91475 0.0
H1120 H 0.25947 0.80567 0.93814 0.0
C1121 C 0.2374 0.85311 0.96536 0.0
C1122 C 0.24495 0.84715 0.97897 0.0
C1123 C 0.23477 0.84342 0.95173 0.0
C1124 C 0.24818 0.80637 0.93187 0.0
H1125 H 0.21421 0.7878 0.85713 0.0
H1126 H 0.21895 0.80519 0.88057 0.0
H1127 H 0.25453 0.78839 0.91468 0.0
H1128 H 0.25556 0.82631 0.98899 0.0
H1129 H 0.2507 0.80933 0.96535 0.0
H1130 H 0.21306 0.82592 0.93202 0.0
C1131 C 0.2216 0.7927 0.88137 0.0
C1132 C 0.24537 0.79649 0.91842 0.0
C1133 C 0.21886 0.78272 0.86797 0.0
C1134 C 0.24979 0.83129 0.97867 0.0
C1135 C 0.24709 0.82158 0.96507 0.0
C1136 C 0.2223 0.81793 0.92826 0.0
C1137 C 0.22801 0.78667 0.89553 0.0
C1138 C 0.23102 0.79725 0.90973 0.0
C1139 C 0.23955 0.82753 0.95144 0.0
C1140 C 0.23665 0.81717 0.93699 0.0
H1141 H 0.23127 0.74796 0.88359 0.0
H1142 H 0.23627 0.76543 0.90688 0.0
H1143 H 0.20829 0.80881 0.9084 0.0
H1144 H 0.23359 0.86531 0.96519 0.0
H1145 H 0.22915 0.84846 0.94136 0.0
C1146 C 0.0147 0.52561 0.38882 0.0
C1147 C 0.02086 0.53215 0.40331 0.0
C1148 C 0.02483 0.5226 0.37586 0.0
C1149 C 0.06376 0.53452 0.35879 0.0
H1150 H 0.05989 0.49416 0.33548 0.0
C1151 C 0.10987 0.51622 0.31101 0.0
C1152 C 0.10409 0.50816 0.29714 0.0
C1153 C 0.09972 0.51902 0.32401 0.0
C1154 C 0.061 0.50558 0.34172 0.0
H1155 H 0.0426 0.54041 0.41557 0.0
H1156 H 0.06021 0.53541 0.39283 0.0
H1157 H 0.042 0.49943 0.35796 0.0
H1158 H 0.0831 0.4968 0.28598 0.0
H1159 H 0.06532 0.50198 0.3085 0.0
H1160 H 0.08257 0.54081 0.34247 0.0
C1161 C 0.0475 0.53275 0.3915 0.0
C1162 C 0.05077 0.50857 0.35461 0.0
C1163 C 0.0374 0.53565 0.4045 0.0
C1164 C 0.08795 0.50296 0.29654 0.0
C1165 C 0.07777 0.50586 0.30949 0.0
C1166 C 0.07391 0.53159 0.34582 0.0
C1167 C 0.04133 0.52617 0.37706 0.0
C1168 C 0.05208 0.52305 0.36329 0.0
C1169 C 0.08353 0.51392 0.32339 0.0
C1170 C 0.07268 0.51706 0.33715 0.0
H1171 H 0.00199 0.52302 0.3874 0.0
H1172 H 0.01972 0.51771 0.36479 0.0
H1173 H 0.06489 0.54588 0.36514 0.0
H1174 H 0.12228 0.5203 0.31188 0.0
H1175 H 0.10463 0.52503 0.33462 0.0
C1176 C 0.76945 0.75049 0.87293 0.0
C1177 C 0.77357 0.74441 0.85767 0.0
C1178 C 0.76722 0.74032 0.88586 0.0
C1179 C 0.77776 0.70159 0.9012 0.0
H1180 H 0.73977 0.70575 0.92748 0.0
C1181 C 0.76186 0.65748 0.95167 0.0
C1182 C 0.75524 0.66379 0.96583 0.0
C1183 C 0.7639 0.66694 0.93814 0.0
C1184 C 0.75056 0.70455 0.92041 0.0
H1185 H 0.7786 0.72279 0.84415 0.0
H1186 H 0.77508 0.70511 0.86692 0.0
H1187 H 0.74405 0.72313 0.90466 0.0
H1188 H 0.74574 0.68501 0.97698 0.0
H1189 H 0.7497 0.70161 0.95362 0.0
H1190 H 0.78451 0.6833 0.91713 0.0
C1191 C 0.7736 0.71778 0.86877 0.0
C1192 C 0.75296 0.71448 0.90731 0.0
C1193 C 0.77567 0.72793 0.85577 0.0
C1194 C 0.75075 0.67975 0.96621 0.0
C1195 C 0.75294 0.68925 0.95275 0.0
C1196 C 0.77545 0.69176 0.91442 0.0
C1197 C 0.76922 0.72387 0.8839 0.0
C1198 C 0.7666 0.71313 0.89762 0.0
C1199 C 0.75951 0.68297 0.93853 0.0
C1200 C 0.76184 0.69316 0.92423 0.0
H1201 H 0.76807 0.76314 0.87494 0.0
H1202 H 0.76408 0.74535 0.89747 0.0
H1203 H 0.78845 0.70041 0.89399 0.0
H1204 H 0.76536 0.64518 0.95098 0.0
H1205 H 0.76877 0.66163 0.92732 0.0
C1206 C 0.97016 0.9904 0.40049 0.0
C1207 C 0.98665 0.9922 0.39752 0.0
C1208 C 0.9591 0.99244 0.3882 0.0
C1209 C 0.95462 0.00964 0.34786 0.0
H1210 H 0.91814 0.97994 0.34495 0.0
C1211 C 0.90397 0.01677 0.30169 0.0
C1212 C 0.89795 0.00281 0.29393 0.0
C1213 C 0.91441 0.01588 0.31473 0.0
C1214 C 0.92832 0.98827 0.34552 0.0
H1215 H 0.00451 0.99762 0.37939 0.0
H1216 H 0.98521 0.00104 0.35784 0.0
H1217 H 0.93735 0.97769 0.36668 0.0
H1218 H 0.8981 0.97698 0.29381 0.0
H1219 H 0.91649 0.97545 0.31637 0.0
H1220 H 0.94585 0.01989 0.32638 0.0
C1221 C 0.9808 -0.00169 0.36974 0.0
C1222 C 0.93922 0.98711 0.35811 0.0
C1223 C 0.99186 0.99634 0.38207 0.0
C1224 C 0.90247 0.98796 0.29957 0.0
C1225 C 0.91295 0.98708 0.31256 0.0
C1226 C 0.94373 0.01077 0.33523 0.0
C1227 C 0.96429 0.99626 0.37264 0.0
C1228 C 0.95253 0.99775 0.35941 0.0
C1229 C 0.91909 0.00102 0.32026 0.0
C1230 C 0.93048 6e-05 0.33388 0.0
H1231 H 0.96579 0.98746 0.41236 0.0
H1232 H 0.94646 0.99108 0.39093 0.0
H1233 H 0.96465 0.01813 0.3486 0.0
H1234 H 0.90066 0.0284 0.29769 0.0
H1235 H 0.91872 0.02685 0.32054 0.0
C1236 C 0.22808 0.23746 0.63219 0.0
C1237 C 0.23043 0.25396 0.63011 0.0
C1238 C 0.23124 0.22673 0.61967 0.0
C1239 C 0.25477 0.22272 0.58274 0.0
H1240 H 0.22471 0.18782 0.57253 0.0
C1241 C 0.26168 0.1827 0.52631 0.0
C1242 C 0.25782 0.16637 0.52765 0.0
C1243 C 0.25835 0.19333 0.53888 0.0
C1244 C 0.23334 0.19737 0.57536 0.0
H1245 H 0.23759 0.27209 0.61306 0.0
H1246 H 0.24335 0.25331 0.5913 0.0
H1247 H 0.21879 0.20644 0.59439 0.0
H1248 H 0.24763 0.14834 0.54332 0.0
H1249 H 0.24217 0.16682 0.56538 0.0
H1250 H 0.26944 0.21359 0.56391 0.0
C1251 C 0.23921 0.24872 0.6027 0.0
C1252 C 0.22991 0.20805 0.58785 0.0
C1253 C 0.23594 0.25946 0.61518 0.0
C1254 C 0.25068 0.16087 0.54188 0.0
C1255 C 0.24745 0.17148 0.55449 0.0
C1256 C 0.25825 0.21198 0.57033 0.0
C1257 C 0.23692 0.23225 0.60483 0.0
C1258 C 0.24057 0.22086 0.59163 0.0
C1259 C 0.25119 0.18786 0.55312 0.0
C1260 C 0.24756 0.19919 0.56645 0.0
H1261 H 0.2241 0.2328 0.64361 0.0
H1262 H 0.22955 0.21408 0.6217 0.0
H1263 H 0.26331 0.23236 0.58555 0.0
H1264 H 0.26709 0.18734 0.51547 0.0
H1265 H 0.26116 0.20589 0.53731 0.0
C1266 C 0.49221 0.52225 0.62295 0.0
C1267 C 0.486 0.52643 0.60797 0.0
C1268 C 0.48228 0.52119 0.6364 0.0
C1269 C 0.44429 0.53523 0.65269 0.0
H1270 H 0.44817 0.50021 0.68198 0.0
C1271 C 0.40004 0.5244 0.70498 0.0
C1272 C 0.40647 0.51959 0.71965 0.0
C1273 C 0.40961 0.52524 0.69124 0.0
C1274 C 0.44707 0.51017 0.67403 0.0
H1275 H 0.4644 0.5325 0.59534 0.0
H1276 H 0.4471 0.53077 0.61889 0.0
H1277 H 0.46508 0.50151 0.65816 0.0
H1278 H 0.42802 0.51209 0.73144 0.0
H1279 H 0.44474 0.5138 0.70754 0.0
H1280 H 0.42637 0.54397 0.66861 0.0
C1281 C 0.4597 0.52848 0.62023 0.0
C1282 C 0.45673 0.5109 0.66037 0.0
C1283 C 0.46961 0.52949 0.60676 0.0
C1284 C 0.42268 0.51577 0.72031 0.0
C1285 C 0.43225 0.51665 0.70658 0.0
C1286 C 0.43465 0.53454 0.66638 0.0
C1287 C 0.46594 0.52435 0.6352 0.0
C1288 C 0.45548 0.52345 0.64957 0.0
C1289 C 0.42581 0.52132 0.69187 0.0
C1290 C 0.43595 0.52202 0.67723 0.0
H1291 H 0.50482 0.52009 0.62436 0.0
H1292 H 0.48749 0.51821 0.64783 0.0
H1293 H 0.4432 0.54517 0.6447 0.0
H1294 H 0.38758 0.52736 0.70405 0.0
H1295 H 0.40423 0.52869 0.68005 0.0
C1296 C 0.77996 0.28478 0.65507 0.0
C1297 C 0.77954 0.26813 0.65291 0.0
C1298 C 0.77694 0.29467 0.64218 0.0
C1299 C 0.77751 0.29548 0.59809 0.0
H1300 H 0.74887 0.33057 0.6033 0.0
C1301 C 0.75472 0.32956 0.54393 0.0
C1302 C 0.75353 0.34616 0.54552 0.0
C1303 C 0.75797 0.32039 0.55727 0.0
C1304 C 0.75707 0.32096 0.6017 0.0
H1305 H 0.77581 0.2488 0.63554 0.0
H1306 H 0.77047 0.26606 0.61305 0.0
H1307 H 0.75462 0.31398 0.62622 0.0
H1308 H 0.75479 0.36617 0.56237 0.0
H1309 H 0.76075 0.35018 0.58566 0.0
H1310 H 0.7801 0.30245 0.57365 0.0
C1311 C 0.77318 0.27146 0.6247 0.0
C1312 C 0.76033 0.31145 0.61482 0.0
C1313 C 0.77608 0.26158 0.6376 0.0
C1314 C 0.75557 0.3534 0.56077 0.0
C1315 C 0.75892 0.34422 0.57413 0.0
C1316 C 0.77433 0.30503 0.58501 0.0
C1317 C 0.77357 0.2881 0.62685 0.0
C1318 C 0.77048 0.29853 0.61311 0.0
C1319 C 0.76022 0.32761 0.57251 0.0
C1320 C 0.76396 0.3178 0.58661 0.0
H1321 H 0.78247 0.29014 0.66678 0.0
H1322 H 0.77742 0.30746 0.64416 0.0
H1323 H 0.78559 0.28576 0.59649 0.0
H1324 H 0.7531 0.32359 0.53237 0.0
H1325 H 0.75859 0.3076 0.55565 0.0
C1326 C 0.52789 0.95947 0.60327 0.0
C1327 C 0.52116 0.97214 0.59511 0.0
C1328 C 0.53672 0.96231 0.61733 0.0
C1329 C 0.54211 0.99093 0.65077 0.0
H1330 H 0.58299 0.97129 0.65639 0.0
C1331 C 0.58404 0.00824 0.70365 0.0
C1332 C 0.59261 0.99611 0.71075 0.0
C1333 C 0.57531 0.00522 0.68956 0.0
C1334 C 0.57149 0.97669 0.65513 0.0
H1335 H 0.51873 0.9978 0.59524 0.0
H1336 H 0.53386 0.00268 0.61998 0.0
H1337 H 0.56773 0.96608 0.63177 0.0
H1338 H 0.5986 0.97122 0.70874 0.0
H1339 H 0.58305 0.96583 0.68439 0.0
H1340 H 0.54566 0.00134 0.67417 0.0
C1341 C 0.53218 0.99054 0.6155 0.0
C1342 C 0.56279 0.97373 0.641 0.0
C1343 C 0.52348 0.98772 0.60136 0.0
C1344 C 0.59219 0.98085 0.70351 0.0
C1345 C 0.58335 0.97779 0.68949 0.0
C1346 C 0.55073 0.99377 0.66495 0.0
C1347 C 0.53888 0.97787 0.62363 0.0
C1348 C 0.54805 0.98087 0.63866 0.0
C1349 C 0.57485 0.98995 0.6823 0.0
C1350 C 0.56557 0.98674 0.66729 0.0
H1351 H 0.52612 0.94729 0.59895 0.0
H1352 H 0.5416 0.9523 0.62346 0.0
H1353 H 0.53066 0.99641 0.64936 0.0
H1354 H 0.5842 0.02016 0.70888 0.0
H1355 H 0.56913 0.01493 0.68422 0.0
C1356 C 0.86124 0.20657 0.77347 0.0
C1357 C 0.85051 0.2184 0.76949 0.0
C1358 C 0.87438 0.21023 0.78339 0.0
C1359 C 0.88957 0.2393 0.81382 0.0
H1360 H 0.93118 0.22426 0.8013 0.0
C1361 C 0.94794 0.26202 0.84485 0.0
C1362 C 0.95978 0.2509 0.84749 0.0
C1363 C 0.93441 0.25782 0.83566 0.0
C1364 C 0.91962 0.22837 0.8051 0.0
H1365 H 0.84491 0.24324 0.77306 0.0
H1366 H 0.86792 0.24966 0.79031 0.0
H1367 H 0.90782 0.21714 0.78485 0.0
H1368 H 0.96662 0.22656 0.84276 0.0
H1369 H 0.94293 0.21916 0.82699 0.0
H1370 H 0.90133 0.25048 0.8341 0.0
C1371 C 0.86614 0.23755 0.7858 0.0
C1372 C 0.90624 0.2243 0.79565 0.0
C1373 C 0.85307 0.23391 0.7758 0.0
C1374 C 0.95776 0.23545 0.84086 0.0
C1375 C 0.94421 0.23122 0.83174 0.0
C1376 C 0.90294 0.24331 0.82331 0.0
C1377 C 0.87698 0.22578 0.78962 0.0
C1378 C 0.89109 0.22978 0.79988 0.0
C1379 C 0.9324 0.24237 0.82897 0.0
C1380 C 0.91813 0.23794 0.81903 0.0
H1381 H 0.85963 0.19454 0.76868 0.0
H1382 H 0.88246 0.20089 0.78625 0.0
H1383 H 0.878 0.24352 0.81748 0.0
H1384 H 0.94916 0.27404 0.84974 0.0
H1385 H 0.92565 0.26676 0.83357 0.0
C1386 C 0.46766 0.89496 0.46285 0.0
C1387 C 0.48013 0.90489 0.46906 0.0
C1388 C 0.47101 0.88142 0.45363 0.0
C1389 C 0.50293 0.86252 0.42991 0.0
H1390 H 0.4779 0.82375 0.43791 0.0
C1391 C 0.52001 0.80089 0.40431 0.0
C1392 C 0.50747 0.79108 0.39805 0.0
C1393 C 0.51674 0.81498 0.4127 0.0
C1394 C 0.48489 0.83452 0.43542 0.0
H1395 H 0.50592 0.90863 0.47003 0.0
H1396 H 0.51178 0.88479 0.45426 0.0
H1397 H 0.47203 0.84811 0.45278 0.0
H1398 H 0.48165 0.78838 0.39566 0.0
H1399 H 0.47599 0.81295 0.41026 0.0
H1400 H 0.51588 0.84882 0.41263 0.0
C1401 C 0.49939 0.88756 0.45639 0.0
C1402 C 0.48151 0.84849 0.44391 0.0
C1403 C 0.49604 0.90112 0.46559 0.0
C1404 C 0.4916 0.79564 0.40037 0.0
C1405 C 0.48834 0.80969 0.4088 0.0
C1406 C 0.50634 0.84852 0.42144 0.0
C1407 C 0.48692 0.87747 0.45043 0.0
C1408 C 0.49047 0.86267 0.44125 0.0
C1409 C 0.50087 0.81951 0.41506 0.0
C1410 C 0.49734 0.83438 0.42409 0.0
H1411 H 0.45528 0.89743 0.46543 0.0
H1412 H 0.46112 0.87402 0.44904 0.0
H1413 H 0.50992 0.87328 0.42741 0.0
H1414 H 0.53236 0.79771 0.40274 0.0
H1415 H 0.52663 0.82223 0.41753 0.0
C1416 C 0.12869 0.29129 0.74551 0.0
C1417 C 0.13999 0.27952 0.74308 0.0
C1418 C 0.11591 0.28875 0.75605 0.0
C1419 C 0.09379 0.25667 0.77822 0.0
H1420 H 0.07795 0.2926 0.80268 0.0
C1421 C 0.04947 0.25134 0.83173 0.0
C1422 C 0.03584 0.26058 0.83039 0.0
C1423 C 0.06222 0.25335 0.82102 0.0
C1424 C 0.08225 0.28249 0.79587 0.0
H1425 H 0.14706 0.25602 0.74982 0.0
H1426 H 0.12516 0.25176 0.76878 0.0
H1427 H 0.10036 0.29667 0.78433 0.0
H1428 H 0.02495 0.27928 0.81698 0.0
H1429 H 0.04747 0.28307 0.79856 0.0
H1430 H 0.07589 0.24247 0.79034 0.0
C1431 C 0.12576 0.26275 0.76218 0.0
C1432 C 0.09501 0.28481 0.78526 0.0
C1433 C 0.13837 0.26519 0.7514 0.0
C1434 C 0.03527 0.27195 0.81826 0.0
C1435 C 0.04815 0.27418 0.80777 0.0
C1436 C 0.08121 0.25433 0.78907 0.0
C1437 C 0.11433 0.2745 0.76465 0.0
C1438 C 0.10089 0.27195 0.77618 0.0
C1439 C 0.0617 0.26486 0.80904 0.0
C1440 C 0.07527 0.26724 0.79788 0.0
H1441 H 0.12964 0.30238 0.73908 0.0
H1442 H 0.1072 0.29793 0.75732 0.0
H1443 H 0.09774 0.24652 0.77127 0.0
H1444 H 0.0502 0.24246 0.84094 0.0
H1445 H 0.0726 0.24609 0.82224 0.0
C1446 C 0.49978 0.61349 0.48608 0.0
C1447 C 0.51512 0.60914 0.4909 0.0
C1448 C 0.49792 0.62587 0.47534 0.0
C1449 C 0.51917 0.66124 0.4587 0.0
H1450 H 0.48641 0.65715 0.42576 0.0
C1451 C 0.51402 0.70599 0.40714 0.0
C1452 C 0.49854 0.7109 0.40353 0.0
C1453 C 0.51623 0.69355 0.41775 0.0
C1454 C 0.49552 0.65852 0.43499 0.0
H1455 H 0.54054 0.61455 0.48831 0.0
H1456 H 0.53731 0.63584 0.46923 0.0
H1457 H 0.48998 0.63542 0.44429 0.0
H1458 H 0.47324 0.70658 0.40822 0.0
H1459 H 0.47712 0.68488 0.4267 0.0
H1460 H 0.52476 0.68431 0.44926 0.0
C1461 C 0.5267 0.62982 0.47392 0.0
C1462 C 0.49755 0.64609 0.44562 0.0
C1463 C 0.52855 0.61747 0.48471 0.0
C1464 C 0.48533 0.70309 0.41073 0.0
C1465 C 0.48753 0.69059 0.42125 0.0
C1466 C 0.51719 0.67364 0.448 0.0
C1467 C 0.51136 0.63417 0.46911 0.0
C1468 C 0.50935 0.64732 0.45766 0.0
C1469 C 0.503 0.68569 0.42488 0.0
C1470 C 0.5053 0.67244 0.43608 0.0
H1471 H 0.48918 0.60721 0.49047 0.0
H1472 H 0.48592 0.62903 0.47204 0.0
H1473 H 0.52821 0.66269 0.46798 0.0
H1474 H 0.52445 0.71177 0.4018 0.0
H1475 H 0.52828 0.68993 0.42021 0.0
C1476 C 0.85463 0.75354 0.72842 0.0
C1477 C 0.85244 0.76864 0.73544 0.0
C1478 C 0.86639 0.75144 0.71672 0.0
C1479 C 0.89223 0.77402 0.68819 0.0
H1480 H 0.91696 0.73579 0.68801 0.0
C1481 C 0.95108 0.76757 0.65272 0.0
C1482 C 0.95315 0.7531 0.64434 0.0
C1483 C 0.93802 0.76939 0.66296 0.0
C1484 C 0.91002 0.74644 0.68781 0.0
H1485 H 0.86101 0.79328 0.73605 0.0
H1486 H 0.88176 0.78958 0.71592 0.0
H1487 H 0.89585 0.73905 0.70788 0.0
H1488 H 0.94301 0.72929 0.63994 0.0
H1489 H 0.92024 0.73248 0.65795 0.0
H1490 H 0.90676 0.78155 0.66835 0.0
C1491 C 0.87415 0.77943 0.71908 0.0
C1492 C 0.89791 0.74831 0.69916 0.0
C1493 C 0.86231 0.78156 0.73066 0.0
C1494 C 0.94175 0.74058 0.64622 0.0
C1495 C 0.92877 0.74236 0.65659 0.0
C1496 C 0.90445 0.77221 0.67693 0.0
C1497 C 0.8763 0.76436 0.7119 0.0
C1498 C 0.88891 0.76216 0.69955 0.0
C1499 C 0.92684 0.75675 0.66514 0.0
C1500 C 0.9135 0.75843 0.67667 0.0
H1501 H 0.84705 0.74342 0.73176 0.0
H1502 H 0.86755 0.73972 0.71128 0.0
H1503 H 0.88534 0.7847 0.68792 0.0
H1504 H 0.95964 0.77744 0.65151 0.0
H1505 H 0.93688 0.78057 0.6695 0.0
C1506 C -0.0004 0.89534 0.51019 0.0
C1507 C 0.01514 0.90017 0.50547 0.0
C1508 C 0.99718 0.88246 0.52037 0.0
C1509 C 0.01693 0.84699 0.53585 0.0
H1510 H 0.98456 0.84949 0.5691 0.0
C1511 C 0.01088 0.80161 0.587 0.0
C1512 C 0.9953 0.79587 0.59048 0.0
C1513 C 0.01334 0.81428 0.57654 0.0
C1514 C 0.99355 0.84858 0.55979 0.0
H1515 H 0.0403 0.89502 0.50759 0.0
H1516 H 0.03611 0.87291 0.52576 0.0
H1517 H 0.98883 0.8717 0.55098 0.0
H1518 H 0.97008 0.79897 0.5858 0.0
H1519 H 0.97439 0.82115 0.56761 0.0
H1520 H 0.02177 0.82393 0.54488 0.0
C1521 C 0.02577 0.87893 0.52139 0.0
C1522 C 0.99597 0.86127 0.54937 0.0
C1523 C 0.02819 0.89175 0.51114 0.0
C1524 C 0.98223 0.80312 0.58337 0.0
C1525 C 0.98469 0.81587 0.57302 0.0
C1526 C 0.01457 0.83435 0.54635 0.0
C1527 C 0.01023 0.87414 0.52617 0.0
C1528 C 0.00767 0.86062 0.53725 0.0
C1529 C 0.00026 0.82154 0.56947 0.0
C1530 C 0.00284 0.835 0.5584 0.0
H1531 H 0.98929 0.90166 0.5062 0.0
H1532 H 0.98503 0.87897 0.52363 0.0
H1533 H 0.02585 0.84598 0.5265 0.0
H1534 H 0.02121 0.79627 0.59229 0.0
H1535 H 0.02547 0.81851 0.57414 0.0
C1536 C 0.12491 0.75386 0.7522 0.0
C1537 C 0.12933 0.73849 0.75644 0.0
C1538 C 0.1122 0.75591 0.74162 0.0
C1539 C 0.07638 0.73509 0.72411 0.0
H1540 H 0.08094 0.76713 0.69133 0.0
C1541 C 0.0242 0.75005 0.68242 0.0
C1542 C 0.0278 0.75256 0.66616 0.0
C1543 C 0.03643 0.7488 0.6937 0.0
C1544 C 0.07952 0.75805 0.70034 0.0
H1545 H 0.1236 0.71325 0.7532 0.0
H1546 H 0.10171 0.71681 0.73447 0.0
H1547 H 0.10253 0.76384 0.71051 0.0
H1548 H 0.0471 0.75575 0.64897 0.0
H1549 H 0.06846 0.7533 0.66862 0.0
H1550 H 0.05359 0.72897 0.71366 0.0
C1551 C 0.10795 0.72729 0.73944 0.0
C1552 C 0.09181 0.7563 0.71147 0.0
C1553 C 0.12063 0.72524 0.75003 0.0
C1554 C 0.04392 0.75387 0.66142 0.0
C1555 C 0.05616 0.75256 0.6727 0.0
C1556 C 0.06411 0.73681 0.71297 0.0
C1557 C 0.10363 0.74264 0.73505 0.0
C1558 C 0.09041 0.74477 0.72345 0.0
C1559 C 0.05256 0.74996 0.68896 0.0
C1560 C 0.06555 0.74829 0.70092 0.0
H1561 H 0.13147 0.76431 0.7568 0.0
H1562 H 0.10906 0.7679 0.73863 0.0
H1563 H 0.07484 0.7262 0.7333 0.0
H1564 H 0.0119 0.74908 0.68649 0.0
H1565 H 0.03323 0.74705 0.70616 0.0
C1566 C 0.97222 0.59957 0.54049 0.0
C1567 C 0.97215 0.60114 0.52371 0.0
C1568 C 0.97563 0.61278 0.55051 0.0
C1569 C 0.97542 0.65649 0.55159 0.0
H1570 H 0.00473 0.65301 0.58737 0.0
C1571 C 0.99747 0.7116 0.5883 0.0
C1572 C -0.00151 0.71012 0.60505 0.0
C1573 C 0.99476 0.69817 0.57842 0.0
C1574 C 0.99638 0.65413 0.57754 0.0
H1575 H 0.97538 0.61778 0.50428 0.0
H1576 H 0.98139 0.64085 0.5218 0.0
H1577 H -0.00132 0.62976 0.57012 0.0
H1578 H 0.99769 0.69336 0.62456 0.0
H1579 H 0.99268 0.66992 0.60734 0.0
H1580 H 0.97292 0.68076 0.55906 0.0
C1581 C 0.97877 0.62941 0.52719 0.0
C1582 C 0.99293 0.64082 0.56767 0.0
C1583 C 0.97547 0.61619 0.51717 0.0
C1584 C 0.99701 0.69489 0.61169 0.0
C1585 C 0.99421 0.68144 0.60181 0.0
C1586 C 0.97879 0.66976 0.56151 0.0
C1587 C 0.97892 0.62784 0.54396 0.0
C1588 C 0.98246 0.64188 0.55456 0.0
C1589 C 0.99292 0.68295 0.58506 0.0
C1590 C 0.98935 0.66877 0.57457 0.0
H1591 H 0.96984 0.58808 0.54586 0.0
H1592 H 0.97553 0.61124 0.5634 0.0
H1593 H 0.96712 0.65759 0.54172 0.0
H1594 H -0.00133 0.72316 0.58279 0.0
H1595 H 0.99414 0.69972 0.56555 0.0
C1596 C 0.77093 0.87042 0.22 0.0
C1597 C 0.75446 0.87286 0.22174 0.0
C1598 C 0.78211 0.88287 0.22283 0.0
C1599 C 0.78584 0.9269 0.22558 0.0
H1600 H 0.82665 0.91847 0.2453 0.0
C1601 C 0.83145 0.97678 0.24514 0.0
C1602 C 0.84742 0.97458 0.24055 0.0
C1603 C 0.81997 0.9644 0.24324 0.0
C1604 C 0.81534 0.92097 0.23968 0.0
H1605 H 0.73687 0.89037 0.22791 0.0
H1606 H 0.75641 0.91195 0.23341 0.0
H1607 H 0.80671 0.89683 0.24167 0.0
H1608 H 0.86391 0.95765 0.23054 0.0
H1609 H 0.84385 0.93599 0.22737 0.0
H1610 H 0.79446 0.95111 0.22383 0.0
C1611 C 0.76067 0.90046 0.22954 0.0
C1612 C 0.80393 0.90857 0.23756 0.0
C1613 C 0.74947 0.88802 0.2266 0.0
C1614 C 0.8517 0.95972 0.23417 0.0
C1615 C 0.84025 0.9473 0.23243 0.0
C1616 C 0.7972 0.93932 0.22785 0.0
C1617 C 0.77713 0.89806 0.22762 0.0
C1618 C 0.78907 0.91136 0.23037 0.0
C1619 C 0.82427 0.94954 0.2369 0.0
C1620 C 0.81209 0.93645 0.23482 0.0
H1621 H 0.77524 0.85884 0.21652 0.0
H1622 H 0.79467 0.88062 0.22102 0.0
H1623 H 0.77465 0.92944 0.21976 0.0
H1624 H 0.82776 0.98809 0.25009 0.0
H1625 H 0.80776 0.96641 0.24691 0.0
C1626 C 0.74795 0.13811 0.29852 0.0
C1627 C 0.74328 0.14693 0.28524 0.0
C1628 C 0.75915 0.12624 0.29673 0.0
C1629 C 0.79236 0.11429 0.27097 0.0
H1630 H 0.78631 0.07331 0.2912 0.0
C1631 C 0.83431 0.0623 0.25864 0.0
C1632 C 0.83801 0.05253 0.27155 0.0
C1633 C 0.82281 0.07388 0.26036 0.0
C1634 C 0.7883 0.08477 0.28565 0.0
H1635 H 0.7466 0.15021 0.25967 0.0
H1636 H 0.76612 0.12939 0.25652 0.0
H1637 H 0.7658 0.09314 0.29402 0.0
H1638 H 0.83281 0.04752 0.29651 0.0
H1639 H 0.81301 0.06796 0.29962 0.0
H1640 H 0.81493 0.10608 0.26277 0.0
C1641 C 0.76116 0.13171 0.26832 0.0
C1642 C 0.77652 0.0961 0.28723 0.0
C1643 C 0.74987 0.1435 0.27009 0.0
C1644 C 0.83017 0.05479 0.2863 0.0
C1645 C 0.81873 0.06644 0.28805 0.0
C1646 C 0.80419 0.10301 0.26947 0.0
C1647 C 0.766 0.12305 0.28165 0.0
C1648 C 0.77842 0.11096 0.27988 0.0
C1649 C 0.81481 0.07604 0.27506 0.0
C1650 C 0.8023 0.08811 0.27678 0.0
H1651 H 0.74298 0.14044 0.31032 0.0
H1652 H 0.76273 0.11982 0.30723 0.0
H1653 H 0.79426 0.12574 0.26538 0.0
H1654 H 0.84009 0.06081 0.24708 0.0
H1655 H 0.81994 0.08092 0.25004 0.0
C1656 C 0.40339 0.96554 0.97606 0.0
C1657 C 0.40203 0.98216 0.97593 0.0
C1658 C 0.39027 0.95569 0.98018 0.0
C1659 C 0.35117 0.95646 0.00103 0.0
H1660 H 0.3428 0.91667 0.97766 0.0
C1661 C 0.29178 0.91991 0.00634 0.0
C1662 C 0.29277 0.90329 0.00745 0.0
C1663 C 0.3054 0.92936 0.00301 0.0
C1664 C 0.34509 0.92766 0.98441 0.0
H1665 H 0.38582 0.00149 0.97961 0.0
H1666 H 0.36288 0.98433 0.98659 0.0
H1667 H 0.36599 0.9335 0.97062 0.0
H1668 H 0.30885 0.88357 0.00604 0.0
H1669 H 0.33263 0.9001 0.00021 0.0
H1670 H 0.33011 0.95069 0.01465 0.0
C1671 C 0.37415 0.9789 0.98388 0.0
C1672 C 0.35838 0.9373 0.98039 0.0
C1673 C 0.38728 0.98873 0.97985 0.0
C1674 C 0.30768 0.89633 0.00526 0.0
C1675 C 0.32129 0.90578 0.00183 0.0
C1676 C 0.33784 0.94686 0.00498 0.0
C1677 C 0.37551 0.96226 0.98417 0.0
C1678 C 0.36155 0.95185 0.98862 0.0
C1679 C 0.32028 0.92238 0.00063 0.0
C1680 C 0.33463 0.93239 0.99668 0.0
H1681 H 0.41468 0.96016 0.97328 0.0
H1682 H 0.39179 0.94295 0.98049 0.0
H1683 H 0.35342 0.96744 0.00781 0.0
H1684 H 0.28046 0.92564 0.00795 0.0
H1685 H 0.30423 0.9421 0.002 0.0
C1686 C 0.24024 0.3635 0.25955 0.0
C1687 C 0.24758 0.35989 0.27415 0.0
C1688 C 0.2294 0.37576 0.25885 0.0
C1689 C 0.21694 0.41221 0.27984 0.0
H1690 H 0.17683 0.40397 0.2573 0.0
C1691 C 0.16537 0.45604 0.28323 0.0
C1692 C 0.15695 0.45862 0.26896 0.0
C1693 C 0.17633 0.44388 0.284 0.0
C1694 C 0.18805 0.40654 0.26347 0.0
H1695 H 0.24971 0.36654 0.29936 0.0
H1696 H 0.23074 0.38797 0.29816 0.0
H1697 H 0.19658 0.3833 0.25806 0.0
H1698 H 0.15336 0.45039 0.24432 0.0
H1699 H 0.17264 0.42939 0.24557 0.0
H1700 H 0.20852 0.43549 0.28513 0.0
C1701 C 0.23338 0.38132 0.28726 0.0
C1702 C 0.19935 0.39469 0.26391 0.0
C1703 C 0.24412 0.36898 0.28797 0.0
C1704 C 0.1596 0.44868 0.25552 0.0
C1705 C 0.1706 0.43658 0.25626 0.0
C1706 C 0.20568 0.42409 0.27932 0.0
C1707 C 0.22579 0.38473 0.27272 0.0
C1708 C 0.21391 0.3974 0.27211 0.0
C1709 C 0.17915 0.43407 0.27048 0.0
C1710 C 0.19109 0.42139 0.27115 0.0
H1711 H 0.24258 0.3566 0.24873 0.0
H1712 H 0.22385 0.37824 0.24745 0.0
H1713 H 0.22814 0.41469 0.28609 0.0
H1714 H 0.16355 0.46344 0.29382 0.0
H1715 H 0.18252 0.44211 0.29521 0.0
C1716 C 0.11376 0.02212 0.47036 0.0
C1717 C 0.10495 0.01604 0.48339 0.0
C1718 C 0.12718 0.03219 0.47297 0.0
C1719 C 0.15759 0.04331 0.50352 0.0
H1720 H 0.16512 0.08028 0.477 0.0
C1721 C 0.20866 0.08983 0.51652 0.0
C1722 C 0.21724 0.09563 0.50322 0.0
C1723 C 0.19475 0.08034 0.51432 0.0
C1724 C 0.16327 0.06991 0.4844 0.0
H1725 H 0.1031 0.0161 0.50938 0.0
H1726 H 0.12657 0.03364 0.51394 0.0
H1727 H 0.14114 0.0634 0.47272 0.0
H1728 H 0.21801 0.09593 0.47717 0.0
H1729 H 0.19388 0.07923 0.47335 0.0
H1730 H 0.17977 0.04975 0.51513 0.0
C1731 C 0.12322 0.03042 0.50171 0.0
C1732 C 0.14953 0.06025 0.48195 0.0
C1733 C 0.10979 0.02036 0.49909 0.0
C1734 C 0.21164 0.0917 0.48768 0.0
C1735 C 0.19775 0.08221 0.48548 0.0
C1736 C 0.17134 0.05296 0.50596 0.0
C1737 C 0.1321 0.03639 0.48868 0.0
C1738 C 0.14656 0.04682 0.49145 0.0
C1739 C 0.18913 0.07644 0.49877 0.0
C1740 C 0.17437 0.06634 0.49639 0.0
H1741 H 0.11049 0.01883 0.45812 0.0
H1742 H 0.13391 0.03643 0.46269 0.0
H1743 H 0.15575 0.03292 0.51089 0.0
H1744 H 0.21263 0.09268 0.52866 0.0
H1745 H 0.18828 0.07623 0.52481 0.0
C1746 C 0.73687 0.13111 0.7206 0.0
C1747 C 0.73076 0.14625 0.71814 0.0
C1748 C 0.72656 0.11816 0.72395 0.0
C1749 C 0.68713 0.10816 0.74068 0.0
H1750 H 0.69141 0.06781 0.71795 0.0
C1751 C 0.64054 0.05641 0.74692 0.0
C1752 C 0.6461 0.04082 0.74692 0.0
C1753 C 0.65094 0.06927 0.7435 0.0
C1754 C 0.69019 0.07891 0.72459 0.0
H1755 H 0.70916 0.15978 0.71738 0.0
H1756 H 0.69114 0.13712 0.72332 0.0
H1757 H 0.70955 0.09021 0.7118 0.0
H1758 H 0.667 0.0265 0.74366 0.0
H1759 H 0.68524 0.04894 0.73813 0.0
H1760 H 0.66799 0.09687 0.7537 0.0
C1761 C 0.70388 0.13529 0.72262 0.0
C1762 C 0.70055 0.09175 0.72101 0.0
C1763 C 0.71417 0.1482 0.71909 0.0
C1764 C 0.66232 0.03837 0.74363 0.0
C1765 C 0.67276 0.05123 0.74036 0.0
C1766 C 0.67686 0.09528 0.74438 0.0
C1767 C 0.70999 0.12015 0.7251 0.0
C1768 C 0.69908 0.1065 0.72897 0.0
C1769 C 0.66718 0.06684 0.74015 0.0
C1770 C 0.67823 0.08051 0.73635 0.0
H1771 H 0.74961 0.12927 0.71984 0.0
H1772 H 0.73158 0.10663 0.72591 0.0
H1773 H 0.68588 0.11936 0.74715 0.0
H1774 H 0.62808 0.05868 0.74932 0.0
H1775 H 0.64617 0.08109 0.7432 0.0
C1776 C 0.40308 0.03201 0.52648 0.0
C1777 C 0.40302 0.01561 0.52277 0.0
C1778 C 0.38956 0.04086 0.52362 0.0
C1779 C 0.35287 0.04084 0.4993 0.0
H1780 H 0.33876 0.07126 0.53148 0.0
C1781 C 0.293 0.07248 0.49377 0.0
C1782 C 0.29284 0.08866 0.49836 0.0
C1783 C 0.30637 0.06349 0.49686 0.0
C1784 C 0.34265 0.06295 0.52229 0.0
H1785 H 0.38856 0.9956 0.51337 0.0
H1786 H 0.36502 0.01109 0.50822 0.0
H1787 H 0.36231 0.05577 0.53661 0.0
H1788 H 0.30663 0.10811 0.50974 0.0
H1789 H 0.33004 0.09249 0.51488 0.0
H1790 H 0.33333 0.04811 0.4849 0.0
C1791 C 0.37562 0.01712 0.51318 0.0
C1792 C 0.35613 0.05407 0.52525 0.0
C1793 C 0.38911 0.00826 0.51611 0.0
C1794 C 0.30634 0.09565 0.50611 0.0
C1795 C 0.31973 0.08667 0.50914 0.0
C1796 C 0.33943 0.04977 0.49631 0.0
C1797 C 0.3757 0.03351 0.51691 0.0
C1798 C 0.36137 0.04292 0.51379 0.0
C1799 C 0.3199 0.07048 0.50456 0.0
C1800 C 0.33416 0.06094 0.50777 0.0
H1801 H 0.41368 0.03809 0.53137 0.0
H1802 H 0.39005 0.05351 0.52641 0.0
H1803 H 0.35676 0.03249 0.49016 0.0
H1804 H 0.28276 0.06672 0.48785 0.0
H1805 H 0.30601 0.05099 0.49338 0.0
C1806 C 0.60457 0.49142 0.50529 0.0
C1807 C 0.59946 0.49652 0.52058 0.0
C1808 C 0.61754 0.48146 0.5037 0.0
C1809 C 0.6409 0.4526 0.52562 0.0
H1810 H 0.67336 0.46195 0.49357 0.0
C1811 C 0.69996 0.41888 0.52204 0.0
C1812 C 0.7058 0.41513 0.50665 0.0
C1813 C 0.68698 0.42882 0.5239 0.0
C1814 C 0.66431 0.45904 0.50244 0.0
H1815 H 0.60413 0.49525 0.54616 0.0
H1816 H 0.6266 0.47768 0.54335 0.0
H1817 H 0.65058 0.47914 0.49637 0.0
H1818 H 0.70246 0.41869 0.48113 0.0
H1819 H 0.67968 0.43571 0.48436 0.0
H1820 H 0.6545 0.43241 0.53158 0.0
C1821 C 0.62047 0.48129 0.53263 0.0
C1822 C 0.65127 0.46891 0.50405 0.0
C1823 C 0.60757 0.49134 0.53423 0.0
C1824 C 0.69832 0.42143 0.49317 0.0
C1825 C 0.68531 0.43127 0.49502 0.0
C1826 C 0.6539 0.44267 0.52394 0.0
C1827 C 0.62562 0.47629 0.51735 0.0
C1828 C 0.63944 0.46579 0.51565 0.0
C1829 C 0.67951 0.43514 0.51041 0.0
C1830 C 0.66575 0.44576 0.51232 0.0
H1831 H 0.59844 0.49497 0.49455 0.0
H1832 H 0.62111 0.47761 0.49178 0.0
H1833 H 0.63186 0.44979 0.53453 0.0
H1834 H 0.7055 0.41427 0.53267 0.0
H1835 H 0.68295 0.43172 0.53593 0.0
C1836 C 0.72423 0.28378 0.36216 0.0
C1837 C 0.7221 0.26762 0.36592 0.0
C1838 C 0.727 0.29523 0.37432 0.0
C1839 C 0.73951 0.2996 0.41704 0.0
H1840 H 0.72058 0.34094 0.41374 0.0
C1841 C 0.73748 0.34486 0.46991 0.0
C1842 C 0.74234 0.36063 0.46653 0.0
C1843 C 0.73519 0.33362 0.45749 0.0
C1844 C 0.72604 0.32949 0.41474 0.0
H1845 H 0.72093 0.25074 0.38526 0.0
H1846 H 0.72534 0.27072 0.40656 0.0
H1847 H 0.7161 0.321 0.3924 0.0
H1848 H 0.74844 0.37703 0.44748 0.0
H1849 H 0.74421 0.35737 0.42574 0.0
H1850 H 0.7491 0.30805 0.43961 0.0
C1851 C 0.72532 0.27457 0.39422 0.0
C1852 C 0.72353 0.31807 0.4025 0.0
C1853 C 0.72274 0.26311 0.38204 0.0
C1854 C 0.74471 0.36497 0.45046 0.0
C1855 C 0.74222 0.35375 0.43802 0.0
C1856 C 0.74185 0.31095 0.42935 0.0
C1857 C 0.72751 0.29078 0.39052 0.0
C1858 C 0.73025 0.30298 0.40349 0.0
C1859 C 0.73754 0.33796 0.44144 0.0
C1860 C 0.73514 0.32599 0.42831 0.0
H1861 H 0.72397 0.28754 0.34979 0.0
H1862 H 0.72892 0.30755 0.37098 0.0
H1863 H 0.74513 0.28824 0.41808 0.0
H1864 H 0.73559 0.34114 0.48217 0.0
H1865 H 0.73144 0.32155 0.46043 0.0
C1866 C 0.53668 0.03316 0.9024 0.0
C1867 C 0.52005 0.03046 0.90109 0.0
C1868 C 0.54675 0.02949 0.88958 0.0
C1869 C 0.54677 0.02281 0.84566 0.0
H1870 H 0.58762 0.00396 0.85382 0.0
C1871 C 0.58798 0.00119 0.7946 0.0
C1872 C 0.60436 0.00525 0.7962 0.0
C1873 C 0.57748 0.00366 0.80739 0.0
C1874 C 0.57631 0.00934 0.85137 0.0
H1875 H 0.50093 0.02186 0.88524 0.0
H1876 H 0.51855 0.01514 0.86294 0.0
H1877 H 0.56961 0.0093 0.87617 0.0
H1878 H 0.62258 0.015 0.81253 0.0
H1879 H 0.60423 0.01935 0.8348 0.0
H1880 H 0.55351 0.02286 0.82086 0.0
C1881 C 0.52378 0.02026 0.87384 0.0
C1882 C 0.566 0.01242 0.86417 0.0
C1883 C 0.51371 0.02394 0.88668 0.0
C1884 C 0.61003 0.01172 0.8109 0.0
C1885 C 0.59954 0.01413 0.8237 0.0
C1886 C 0.55707 0.0197 0.83286 0.0
C1887 C 0.54042 0.02301 0.87514 0.0
C1888 C 0.55116 0.01929 0.86147 0.0
C1889 C 0.58315 0.01017 0.82207 0.0
C1890 C 0.572 0.01302 0.83559 0.0
H1891 H 0.54197 0.03798 0.91341 0.0
H1892 H 0.55948 0.03193 0.89091 0.0
H1893 H 0.53553 0.02832 0.84321 0.0
H1894 H 0.58324 0.99616 0.78344 0.0
H1895 H 0.56494 0.00034 0.80583 0.0
C1896 C 0.28515 0.23387 0.35927 0.0
C1897 C 0.27209 0.24104 0.35202 0.0
C1898 C 0.28269 0.22291 0.37152 0.0
C1899 C 0.25341 0.21073 0.40226 0.0
H1900 H 0.2774 0.17204 0.40317 0.0
C1901 C 0.23965 0.16164 0.44813 0.0
C1902 C 0.25281 0.15463 0.45533 0.0
C1903 C 0.24185 0.17167 0.43507 0.0
C1904 C 0.27073 0.18287 0.40317 0.0
H1905 H 0.2462 0.24202 0.3517 0.0
H1906 H 0.24193 0.22299 0.37315 0.0
H1907 H 0.28162 0.19063 0.38126 0.0
H1908 H 0.27859 0.15252 0.45438 0.0
H1909 H 0.28245 0.1702 0.43173 0.0
H1910 H 0.24263 0.20311 0.42423 0.0
C1911 C 0.25407 0.22601 0.3695 0.0
C1912 C 0.27314 0.1935 0.39063 0.0
C1913 C 0.25653 0.23693 0.35723 0.0
C1914 C 0.26819 0.1577 0.44907 0.0
C1915 C 0.2704 0.16777 0.43603 0.0
C1916 C 0.25103 0.20013 0.41483 0.0
C1917 C 0.26713 0.21892 0.37681 0.0
C1918 C 0.26451 0.20755 0.39005 0.0
C1919 C 0.25726 0.17495 0.42894 0.0
C1920 C 0.25966 0.18608 0.41544 0.0
H1921 H 0.2973 0.23694 0.35569 0.0
H1922 H 0.293 0.21779 0.37707 0.0
H1923 H 0.24676 0.22158 0.40228 0.0
H1924 H 0.22763 0.15945 0.45261 0.0
H1925 H 0.23146 0.17682 0.42972 0.0
C1926 C 0.47789 0.4781 0.88615 0.0
C1927 C 0.48406 0.49148 0.89478 0.0
C1928 C 0.46688 0.47984 0.87377 0.0
C1929 C 0.43774 0.50766 0.85787 0.0
H1930 H 0.441 0.48135 0.8193 0.0
C1931 C 0.39989 0.5167 0.80065 0.0
C1932 C 0.39358 0.50285 0.7929 0.0
C1933 C 0.41069 0.5156 0.81337 0.0
C1934 C 0.43984 0.48867 0.83006 0.0
H1935 H 0.48342 0.51722 0.89718 0.0
H1936 H 0.46446 0.5203 0.87525 0.0
H1937 H 0.46061 0.4791 0.84069 0.0
H1938 H 0.39341 0.477 0.79263 0.0
H1939 H 0.4122 0.47512 0.81483 0.0
H1940 H 0.417 0.51731 0.84709 0.0
C1941 C 0.468 0.50843 0.87823 0.0
C1942 C 0.45107 0.48737 0.84233 0.0
C1943 C 0.47901 0.50668 0.89067 0.0
C1944 C 0.39809 0.4879 0.7983 0.0
C1945 C 0.40893 0.48682 0.81095 0.0
C1946 C 0.42654 0.50901 0.84554 0.0
C1947 C 0.46181 0.49502 0.86964 0.0
C1948 C 0.4501 0.49677 0.85643 0.0
C1949 C 0.41545 0.50065 0.81853 0.0
C1950 C 0.42742 0.49944 0.83156 0.0
H1951 H 0.48168 0.46624 0.88885 0.0
H1952 H 0.46221 0.46924 0.86753 0.0
H1953 H 0.43652 0.51493 0.86865 0.0
H1954 H 0.39666 0.5284 0.79677 0.0
H1955 H 0.41561 0.52647 0.8189 0.0
C1956 C 0.72624 0.73958 0.13615 0.0
C1957 C 0.73026 0.75582 0.13405 0.0
C1958 C 0.72994 0.72827 0.12432 0.0
C1959 C 0.75772 0.72083 0.09151 0.0
H1960 H 0.72542 0.69 0.07616 0.0
C1961 C 0.76841 0.67988 0.03646 0.0
C1962 C 0.76145 0.66443 0.03635 0.0
C1963 C 0.76485 0.69079 0.04871 0.0
C1964 C 0.73468 0.69833 0.08048 0.0
H1965 H 0.74103 0.77286 0.1176 0.0
H1966 H 0.74789 0.75301 0.09723 0.0
H1967 H 0.71861 0.70943 0.09696 0.0
H1968 H 0.74567 0.6481 0.04921 0.0
H1969 H 0.73989 0.6669 0.0709 0.0
H1970 H 0.77393 0.70961 0.07539 0.0
C1971 C 0.74192 0.7491 0.10809 0.0
C1972 C 0.73072 0.7095 0.09235 0.0
C1973 C 0.73803 0.76044 0.1198 0.0
C1974 C 0.75113 0.65998 0.04892 0.0
C1975 C 0.74773 0.67081 0.06129 0.0
C1976 C 0.76175 0.70953 0.07981 0.0
C1977 C 0.73792 0.73292 0.11025 0.0
C1978 C 0.74218 0.72091 0.09788 0.0
C1979 C 0.7544 0.68642 0.06125 0.0
C1980 C 0.75025 0.69818 0.07406 0.0
H1981 H 0.72051 0.73552 0.14707 0.0
H1982 H 0.72686 0.71583 0.12633 0.0
H1983 H 0.76682 0.72939 0.09574 0.0
H1984 H 0.77632 0.68371 0.02686 0.0
H1985 H 0.77001 0.70276 0.04811 0.0
C1986 C 0.9815 0.04236 0.11478 0.0
C1987 C 0.98896 0.02891 0.10826 0.0
C1988 C 0.97162 0.04101 0.12825 0.0
C1989 C 0.96463 0.01768 0.16392 0.0
H1990 H 0.92153 0.03327 0.16286 0.0
C1991 C 0.92001 0.0051 0.21518 0.0
C1992 C 0.90897 0.01676 0.21918 0.0
C1993 C 0.92971 0.00672 0.20162 0.0
C1994 C 0.93362 0.0291 0.16351 0.0
H1995 H 0.99163 0.00344 0.11085 0.0
H1996 H 0.9749 0.00131 0.13476 0.0
H1997 H 0.93874 0.03612 0.13937 0.0
H1998 H 0.89958 0.03938 0.21232 0.0
H1999 H 0.91696 0.04259 0.18903 0.0
H2000 H 0.95987 0.01109 0.18815 0.0
C2001 C 0.97672 0.01285 0.12932 0.0
C2002 C 0.94342 0.03066 0.15 0.0
C2003 C 0.98637 0.01412 0.11568 0.0
C2004 C 0.90791 0.03015 0.20945 0.0
C2005 C 0.91782 0.03192 0.19603 0.0
C2006 C 0.95495 0.01635 0.17754 0.0
C2007 C 0.96923 0.02626 0.13568 0.0
C2008 C 0.95896 0.02487 0.15006 0.0
C2009 C 0.92881 0.02019 0.19189 0.0
C2010 C 0.93926 0.02194 0.17748 0.0
H2011 H 0.98344 0.05401 0.10964 0.0
H2012 H 0.96608 0.05155 0.13306 0.0
H2013 H 0.97666 0.01328 0.1643 0.0
H2014 H 0.92098 0.99456 0.22237 0.0
H2015 H 0.93775 0.99727 0.19867 0.0
C2016 C 0.28025 0.78117 0.14944 0.0
C2017 C 0.27645 0.76477 0.14792 0.0
C2018 C 0.27569 0.79167 0.1376 0.0
C2019 C 0.26206 0.79265 0.09513 0.0
H2020 H 0.24881 0.83496 0.10748 0.0
C2021 C 0.23333 0.8351 0.0506 0.0
C2022 C 0.24045 0.85048 0.05015 0.0
C2023 C 0.23712 0.82475 0.06288 0.0
C2024 C 0.25255 0.8232 0.10388 0.0
H2025 H 0.26506 0.74658 0.13251 0.0
H2026 H 0.25648 0.76493 0.11231 0.0
H2027 H 0.25668 0.81655 0.12815 0.0
H2028 H 0.25673 0.86727 0.06247 0.0
H2029 H 0.26311 0.84925 0.08408 0.0
H2030 H 0.25757 0.79927 0.07086 0.0
C2031 C 0.26328 0.76967 0.12249 0.0
C2032 C 0.25715 0.81267 0.11569 0.0
C2033 C 0.268 0.75915 0.13423 0.0
C2034 C 0.25107 0.85548 0.06248 0.0
C2035 C 0.25468 0.84521 0.07488 0.0
C2036 C 0.25726 0.8031 0.08336 0.0
C2037 C 0.26707 0.78608 0.12401 0.0
C2038 C 0.26203 0.79727 0.11146 0.0
C2039 C 0.24792 0.82968 0.07505 0.0
C2040 C 0.25253 0.81849 0.08762 0.0
H2041 H 0.28657 0.78597 0.1599 0.0
H2042 H 0.27904 0.80418 0.13907 0.0
H2043 H 0.26604 0.78102 0.09136 0.0
H2044 H 0.22513 0.83089 0.04125 0.0
H2045 H 0.23166 0.81287 0.06283 0.0
C2046 C 0.01837 0.48571 0.10659 0.0
C2047 C 0.01671 0.47038 0.09951 0.0
C2048 C 0.02665 0.4881 0.12105 0.0
C2049 C 0.05817 0.47219 0.14532 0.0
H2050 H 0.0387 0.4949 0.18085 0.0
C2051 C 0.08895 0.47794 0.20717 0.0
C2052 C 0.08743 0.49226 0.21592 0.0
C2053 C 0.07991 0.47491 0.19327 0.0
C2054 C 0.04444 0.48875 0.17099 0.0
H2055 H 0.02239 0.44553 0.10236 0.0
H2056 H 0.03736 0.44991 0.12728 0.0
H2057 H 0.02389 0.49059 0.15582 0.0
H2058 H 0.07537 0.5147 0.21696 0.0
H2059 H 0.06008 0.50973 0.1924 0.0
H2060 H 0.07892 0.47078 0.16011 0.0
C2061 C 0.03217 0.46 0.12157 0.0
C2062 C 0.0359 0.48622 0.1567 0.0
C2063 C 0.02366 0.45754 0.10724 0.0
C2064 C 0.0767 0.50349 0.21052 0.0
C2065 C 0.06785 0.50058 0.19647 0.0
C2066 C 0.06682 0.47494 0.15951 0.0
C2067 C 0.03368 0.47529 0.12861 0.0
C2068 C 0.04268 0.4779 0.14376 0.0
C2069 C 0.06934 0.48625 0.18765 0.0
C2070 C 0.06007 0.48323 0.17256 0.0
H2071 H 0.01349 0.49594 0.10086 0.0
H2072 H 0.02783 0.50004 0.12617 0.0
H2073 H 0.06372 0.46589 0.13543 0.0
H2074 H 0.09703 0.469 0.21113 0.0
H2075 H 0.08116 0.4636 0.18701 0.0
C2076 C 0.35771 0.73011 0.26468 0.0
C2077 C 0.35445 0.71425 0.25971 0.0
C2078 C 0.37064 0.73395 0.2748 0.0
C2079 C 0.40916 0.71916 0.28868 0.0
H2080 H 0.40373 0.74974 0.32358 0.0
C2081 C 0.45764 0.73178 0.33708 0.0
C2082 C 0.46064 0.74782 0.3416 0.0
C2083 C 0.44456 0.72743 0.32732 0.0
C2084 C 0.40548 0.7413 0.31379 0.0
H2085 H 0.36233 0.68999 0.26129 0.0
H2086 H 0.3848 0.69667 0.27918 0.0
H2087 H 0.38117 0.74258 0.30603 0.0
H2088 H 0.45223 0.77185 0.33947 0.0
H2089 H 0.4295 0.76425 0.32234 0.0
H2090 H 0.43349 0.71792 0.29643 0.0
C2091 C 0.37741 0.70615 0.27514 0.0
C2092 C 0.39256 0.7372 0.30373 0.0
C2093 C 0.36445 0.7023 0.26503 0.0
C2094 C 0.45024 0.75939 0.33623 0.0
C2095 C 0.43715 0.75503 0.32649 0.0
C2096 C 0.42208 0.72326 0.29874 0.0
C2097 C 0.38061 0.72201 0.28018 0.0
C2098 C 0.39428 0.72613 0.29102 0.0
C2099 C 0.43419 0.73901 0.32189 0.0
C2100 C 0.4204 0.73443 0.31137 0.0
H2101 H 0.35012 0.73956 0.26095 0.0
H2102 H 0.37289 0.7463 0.27831 0.0
H2103 H 0.41092 0.71076 0.27886 0.0
H2104 H 0.46539 0.72257 0.34106 0.0
H2105 H 0.44248 0.71496 0.32415 0.0
C2106 C 0.98256 0.39131 0.97721 0.0
C2107 C 0.98034 0.40633 0.97056 0.0
C2108 C 0.98573 0.37818 0.96733 0.0
C2109 C 0.00141 0.36693 0.92773 0.0
H2110 H 0.97802 0.32699 0.93473 0.0
C2111 C 0.00465 0.31342 0.88343 0.0
C2112 C 0.00455 0.29806 0.88985 0.0
C2113 C 0.00202 0.3267 0.89332 0.0
C2114 C 0.98483 0.33798 0.93275 0.0
H2115 H 0.97991 0.41945 0.9484 0.0
H2116 H 0.98548 0.39644 0.93108 0.0
H2117 H 0.97288 0.35006 0.95191 0.0
H2118 H 0.00195 0.28462 0.91175 0.0
H2119 H 0.99776 0.3078 0.92906 0.0
H2120 H 0.01353 0.35484 0.90871 0.0
C2121 C 0.98478 0.39486 0.94395 0.0
C2122 C 0.98184 0.3512 0.94257 0.0
C2123 C 0.98147 0.40798 0.95383 0.0
C2124 C 0.002 0.29628 0.90641 0.0
C2125 C -0.00051 0.30957 0.91632 0.0
C2126 C 0.0045 0.35367 0.91798 0.0
C2127 C 0.98686 0.37982 0.95061 0.0
C2128 C 0.99008 0.36581 0.94015 0.0
C2129 C -0.00065 0.32494 0.90988 0.0
C2130 C 0.99623 0.33903 0.92035 0.0
H2131 H 0.98161 0.38965 0.99005 0.0
H2132 H 0.98741 0.36675 0.9728 0.0
H2133 H 0.00807 0.378 0.92573 0.0
H2134 H 0.0065 0.31519 0.8707 0.0
H2135 H 0.00177 0.33831 0.88791 0.0
C2136 C 0.6321 0.77097 0.24834 0.0
C2137 C 0.63555 0.78617 0.24223 0.0
C2138 C 0.6197 0.76862 0.25939 0.0
C2139 C 0.59514 0.79063 0.28873 0.0
H2140 H 0.56835 0.75201 0.2873 0.0
C2141 C 0.53858 0.78199 0.32788 0.0
C2142 C 0.53641 0.76719 0.33531 0.0
C2143 C 0.55068 0.78436 0.31651 0.0
C2144 C 0.57584 0.76279 0.28793 0.0
H2145 H 0.62842 0.81075 0.24246 0.0
H2146 H 0.6066 0.80664 0.26154 0.0
H2147 H 0.5891 0.75607 0.26705 0.0
H2148 H 0.54529 0.74327 0.3367 0.0
H2149 H 0.5664 0.74742 0.31681 0.0
H2150 H 0.58174 0.79738 0.30954 0.0
C2151 C 0.6137 0.79658 0.25811 0.0
C2152 C 0.58774 0.76511 0.27634 0.0
C2153 C 0.62616 0.79894 0.24715 0.0
C2154 C 0.54664 0.75482 0.33119 0.0
C2155 C 0.55866 0.75715 0.31973 0.0
C2156 C 0.58318 0.78834 0.30025 0.0
C2157 C 0.61041 0.78143 0.26448 0.0
C2158 C 0.59756 0.77905 0.27663 0.0
C2159 C 0.56078 0.77194 0.31225 0.0
C2160 C 0.57344 0.77438 0.29999 0.0
H2161 H 0.63928 0.76095 0.24493 0.0
H2162 H 0.61766 0.75685 0.26423 0.0
H2163 H 0.60268 0.80136 0.28949 0.0
H2164 H 0.5309 0.79177 0.33078 0.0
H2165 H 0.55194 0.79584 0.31084 0.0
C2166 C 0.01118 0.10326 0.96935 0.0
C2167 C 0.01033 0.10591 0.98604 0.0
C2168 C 0.00968 0.11589 0.95881 0.0
C2169 C 0.01474 0.15934 0.95675 0.0
H2170 H 0.98747 0.15482 0.91913 0.0
C2171 C 0.01389 0.20638 0.90697 0.0
C2172 C -0.00131 0.21071 0.90174 0.0
C2173 C 0.01549 0.19339 0.91703 0.0
C2174 C 0.9951 0.15626 0.92962 0.0
H2175 H 0.00737 0.12382 0.00479 0.0
H2176 H 0.00471 0.14587 0.98638 0.0
H2177 H 0.98969 0.13248 0.93731 0.0
H2178 H 0.97326 0.20473 0.90286 0.0
H2179 H 0.97609 0.18204 0.92036 0.0
H2180 H 0.02007 0.18314 0.94912 0.0
C2181 C 0.00656 0.13404 0.98146 0.0
C2182 C 0.99647 0.14344 0.93993 0.0
C2183 C 0.00791 0.12141 0.99198 0.0
C2184 C 0.98514 0.20172 0.90668 0.0
C2185 C 0.98676 0.18866 0.91662 0.0
C2186 C 0.01349 0.1721 0.94636 0.0
C2187 C 0.00747 0.13142 0.96477 0.0
C2188 C 0.00623 0.14489 0.95365 0.0
C2189 C 0.00194 0.1844 0.92195 0.0
C2190 C 0.00359 0.17072 0.93274 0.0
H2191 H 0.01295 0.09141 0.96444 0.0
H2192 H 0.01052 0.11354 0.946 0.0
H2193 H 0.02247 0.16074 0.96716 0.0
H2194 H 0.02456 0.21306 0.90336 0.0
H2195 H 0.02736 0.19029 0.92085 0.0
C2196 C 0.35618 0.25545 0.22578 0.0
C2197 C 0.35368 0.27043 0.23298 0.0
C2198 C 0.36849 0.25353 0.21463 0.0
C2199 C 0.4071 0.27151 0.20222 0.0
H2200 H 0.40005 0.24658 0.16303 0.0
C2201 C 0.45486 0.2689 0.15262 0.0
C2202 C 0.45736 0.25398 0.1453 0.0
C2203 C 0.44179 0.27106 0.16276 0.0
C2204 C 0.40225 0.25343 0.174 0.0
H2205 H 0.36215 0.29512 0.23419 0.0
H2206 H 0.38354 0.2918 0.21462 0.0
H2207 H 0.37803 0.24995 0.18192 0.0
H2208 H 0.44795 0.22967 0.14272 0.0
H2209 H 0.42526 0.23338 0.16062 0.0
H2210 H 0.43132 0.27487 0.19447 0.0
C2211 C 0.37604 0.28153 0.21766 0.0
C2212 C 0.38964 0.25537 0.1848 0.0
C2213 C 0.3637 0.28346 0.22874 0.0
C2214 C 0.44635 0.24133 0.14814 0.0
C2215 C 0.43329 0.24348 0.15834 0.0
C2216 C 0.41971 0.26953 0.19147 0.0
C2217 C 0.3786 0.26653 0.21052 0.0
C2218 C 0.39193 0.26445 0.19901 0.0
C2219 C 0.43094 0.25834 0.16587 0.0
C2220 C 0.41744 0.26049 0.17722 0.0
H2221 H 0.34856 0.24522 0.2287 0.0
H2222 H 0.37026 0.24181 0.20942 0.0
H2223 H 0.40929 0.27836 0.21321 0.0
H2224 H 0.46307 0.27893 0.1506 0.0
H2225 H 0.44017 0.28274 0.16815 0.0
C2226 C 0.51028 0.38746 0.99754 0.0
C2227 C 0.51651 0.40208 0.00373 0.0
C2228 C 0.50849 0.37425 0.00741 0.0
C2229 C 0.52345 0.35731 0.04459 0.0
H2230 H 0.48399 0.33169 0.04304 0.0
C2231 C 0.50965 0.30756 0.08994 0.0
C2232 C 0.50185 0.29353 0.08411 0.0
C2233 C 0.51148 0.32084 0.08017 0.0
C2234 C 0.49517 0.33859 0.04347 0.0
H2235 H 0.52558 0.41429 0.02525 0.0
H2236 H 0.52268 0.39113 0.04239 0.0
H2237 H 0.48718 0.35474 0.02582 0.0
H2238 H 0.49003 0.28238 0.06339 0.0
H2239 H 0.49352 0.3054 0.04625 0.0
H2240 H 0.53156 0.34108 0.06207 0.0
C2241 C 0.5193 0.3899 0.02985 0.0
C2242 C 0.49697 0.35181 0.03363 0.0
C2243 C 0.52099 0.40315 0.02002 0.0
C2244 C 0.49601 0.29304 0.06828 0.0
C2245 C 0.49793 0.30628 0.05848 0.0
C2246 C 0.5217 0.34402 0.05436 0.0
C2247 C 0.513 0.37534 0.02365 0.0
C2248 C 0.51112 0.36131 0.0341 0.0
C2249 C 0.50564 0.32036 0.06432 0.0
C2250 C 0.50753 0.3345 0.05393 0.0
H2251 H 0.50698 0.38613 0.985 0.0
H2252 H 0.50381 0.36311 0.00226 0.0
H2253 H 0.53457 0.36431 0.04505 0.0
H2254 H 0.51422 0.30835 0.10211 0.0
H2255 H 0.51727 0.33156 0.08513 0.0
C2256 C 0.63569 0.25019 0.24064 0.0
C2257 C 0.63646 0.23625 0.24959 0.0
C2258 C 0.62325 0.25204 0.2297 0.0
C2259 C 0.5912 0.22891 0.20747 0.0
H2260 H 0.57393 0.27071 0.20171 0.0
C2261 C 0.53182 0.23935 0.17448 0.0
C2262 C 0.5326 0.25079 0.16238 0.0
C2263 C 0.5447 0.23768 0.18492 0.0
C2264 C 0.57873 0.259 0.20315 0.0
H2265 H 0.62479 0.21344 0.25445 0.0
H2266 H 0.60272 0.21685 0.23586 0.0
H2267 H 0.59588 0.26755 0.22057 0.0
H2268 H 0.54733 0.26965 0.1519 0.0
H2269 H 0.56973 0.26695 0.17047 0.0
H2270 H 0.57358 0.22036 0.19041 0.0
C2271 C 0.61195 0.22617 0.2368 0.0
C2272 C 0.59136 0.25717 0.21388 0.0
C2273 C 0.62454 0.22423 0.24753 0.0
C2274 C 0.54642 0.2607 0.16108 0.0
C2275 C 0.55918 0.25921 0.17172 0.0
C2276 C 0.57841 0.23071 0.19695 0.0
C2277 C 0.61116 0.24008 0.22768 0.0
C2278 C 0.59777 0.24209 0.21618 0.0
C2279 C 0.55847 0.24761 0.18365 0.0
C2280 C 0.57208 0.24577 0.1947 0.0
H2281 H 0.64486 0.25956 0.24192 0.0
H2282 H 0.62324 0.26277 0.2227 0.0
H2283 H 0.59602 0.21718 0.20862 0.0
H2284 H 0.52135 0.23151 0.17574 0.0
H2285 H 0.54384 0.22871 0.1941 0.0
C2286 C 0.47722 0.11976 0.01249 0.0
C2287 C 0.47414 0.1048 0.01932 0.0
C2288 C 0.48108 0.13305 0.02225 0.0
C2289 C 0.49762 0.14463 0.06167 0.0
H2290 H 0.4759 0.1841 0.05538 0.0
C2291 C 0.50261 0.19711 0.10724 0.0
C2292 C 0.50279 0.21267 0.10132 0.0
C2293 C 0.49977 0.18402 0.09691 0.0
C2294 C 0.48228 0.17326 0.05714 0.0
H2295 H 0.47288 0.09192 0.04162 0.0
H2296 H 0.47967 0.11516 0.0587 0.0
H2297 H 0.46971 0.16114 0.03785 0.0
H2298 H 0.5006 0.2267 0.07987 0.0
H2299 H 0.49608 0.20386 0.06179 0.0
H2300 H 0.51035 0.15672 0.08081 0.0
C2301 C 0.47909 0.11659 0.04581 0.0
C2302 C 0.47867 0.1601 0.04713 0.0
C2303 C 0.47506 0.10335 0.03607 0.0
C2304 C 0.50041 0.21486 0.08482 0.0
C2305 C 0.49772 0.20176 0.07447 0.0
C2306 C 0.50134 0.15782 0.07159 0.0
C2307 C 0.4821 0.13158 0.039 0.0
C2308 C 0.48623 0.14564 0.04936 0.0
C2309 C 0.4972 0.18619 0.08041 0.0
C2310 C 0.49364 0.17228 0.06953 0.0
H2311 H 0.4765 0.12122 -0.00039 0.0
H2312 H 0.48344 0.14445 0.01669 0.0
H2313 H 0.50377 0.13366 0.06351 0.0
H2314 H 0.50431 0.19503 0.11991 0.0
H2315 H 0.49921 0.17223 0.10196 0.0
C2316 C 0.24965 0.38537 0.72367 0.0
C2317 C 0.2549 0.37041 0.71847 0.0
C2318 C 0.26062 0.39806 0.72639 0.0
C2319 C 0.30382 0.40713 0.73347 0.0
H2320 H 0.29292 0.4496 0.72074 0.0
C2321 C 0.34997 0.45993 0.73171 0.0
C2322 C 0.34506 0.47444 0.73842 0.0
C2323 C 0.33897 0.44717 0.72946 0.0
C2324 C 0.29607 0.43782 0.72447 0.0
H2325 H 0.27586 0.357 0.71236 0.0
H2326 H 0.29488 0.37922 0.71654 0.0
H2327 H 0.27368 0.42746 0.7165 0.0
H2328 H 0.32476 0.48698 0.74798 0.0
H2329 H 0.30559 0.46474 0.74396 0.0
H2330 H 0.32634 0.41754 0.7412 0.0
C2331 C 0.28232 0.38112 0.71876 0.0
C2332 C 0.28504 0.42514 0.7221 0.0
C2333 C 0.27137 0.36842 0.71613 0.0
C2334 C 0.32893 0.47595 0.74278 0.0
C2335 C 0.31792 0.46325 0.7404 0.0
C2336 C 0.3149 0.4198 0.73573 0.0
C2337 C 0.27709 0.3961 0.72392 0.0
C2338 C 0.28877 0.40963 0.72658 0.0
C2339 C 0.32283 0.44873 0.73374 0.0
C2340 C 0.31113 0.43527 0.73127 0.0
H2341 H 0.23704 0.38736 0.72544 0.0
H2342 H 0.25619 0.40938 0.73055 0.0
H2343 H 0.307 0.39541 0.73732 0.0
H2344 H 0.36231 0.45839 0.72824 0.0
H2345 H 0.34305 0.43615 0.72418 0.0
C2346 C 0.2399 0.64049 0.77172 0.0
C2347 C 0.24598 0.65613 0.77423 0.0
C2348 C 0.25027 0.62798 0.7693 0.0
C2349 C 0.29233 0.61719 0.77583 0.0
H2350 H 0.28087 0.58216 0.74659 0.0
C2351 C 0.33526 0.5667 0.75957 0.0
C2352 C 0.32859 0.55114 0.76027 0.0
C2353 C 0.32548 0.57984 0.76075 0.0
C2354 C 0.28417 0.59183 0.75485 0.0
H2355 H 0.26759 0.67106 0.77573 0.0
H2356 H 0.28574 0.64929 0.77114 0.0
H2357 H 0.26331 0.60465 0.74922 0.0
H2358 H 0.30644 0.53715 0.76264 0.0
H2359 H 0.2894 0.56009 0.76457 0.0
H2360 H 0.3133 0.60436 0.7813 0.0
C2361 C 0.27298 0.64659 0.77144 0.0
C2362 C 0.2741 0.6047 0.75641 0.0
C2363 C 0.26261 0.65907 0.77401 0.0
C2364 C 0.31196 0.54898 0.76208 0.0
C2365 C 0.30217 0.5621 0.76308 0.0
C2366 C 0.30248 0.60439 0.77415 0.0
C2367 C 0.26695 0.63086 0.76918 0.0
C2368 C 0.27798 0.61747 0.76703 0.0
C2369 C 0.30884 0.57765 0.76246 0.0
C2370 C 0.29842 0.59153 0.76376 0.0
H2371 H 0.22713 0.63786 0.77205 0.0
H2372 H 0.2452 0.616 0.76789 0.0
H2373 H 0.29558 0.62668 0.78432 0.0
H2374 H 0.34805 0.56875 0.75819 0.0
H2375 H 0.3309 0.59171 0.76014 0.0
C2376 C 0.88732 0.48604 0.47815 0.0
C2377 C 0.90207 0.47954 0.47403 0.0
C2378 C 0.87399 0.47611 0.48122 0.0
C2379 C 0.86241 0.43542 0.49319 0.0
H2380 H 0.82085 0.44613 0.47664 0.0
C2381 C 0.80639 0.39363 0.49906 0.0
C2382 C 0.7919 0.40081 0.50288 0.0
C2383 C 0.81999 0.40296 0.4953 0.0
C2384 C 0.83234 0.44307 0.4815 0.0
H2385 H 0.91442 0.45755 0.46993 0.0
H2386 H 0.89103 0.44017 0.47514 0.0
H2387 H 0.8443 0.46287 0.47032 0.0
H2388 H 0.78037 0.42343 0.50593 0.0
H2389 H 0.80412 0.43968 0.49958 0.0
H2390 H 0.85042 0.41568 0.50448 0.0
C2391 C 0.88984 0.45295 0.4761 0.0
C2392 C 0.84577 0.45265 0.47786 0.0
C2393 C 0.90318 0.46289 0.47297 0.0
C2394 C 0.79133 0.41752 0.50297 0.0
C2395 C 0.80492 0.42683 0.49923 0.0
C2396 C 0.84896 0.42585 0.49686 0.0
C2397 C 0.87511 0.45947 0.48026 0.0
C2398 C 0.86094 0.44898 0.48374 0.0
C2399 C 0.81939 0.41967 0.49528 0.0
C2400 C 0.83376 0.42962 0.49113 0.0
H2401 H 0.88605 0.49882 0.4789 0.0
H2402 H 0.86285 0.48149 0.48456 0.0
H2403 H 0.87391 0.43241 0.49806 0.0
H2404 H 0.80722 0.38079 0.49884 0.0
H2405 H 0.83091 0.39707 0.49214 0.0
C2406 C 0.73664 0.8601 0.75885 0.0
C2407 C 0.74527 0.85771 0.77301 0.0
C2408 C 0.72637 0.87281 0.75782 0.0
C2409 C 0.70491 0.90206 0.78326 0.0
H2410 H 0.70042 0.92373 0.74286 0.0
C2411 C 0.67274 0.96155 0.77668 0.0
C2412 C 0.66149 0.96196 0.76417 0.0
C2413 C 0.68278 0.94867 0.77796 0.0
C2414 C 0.7015 0.9177 0.75418 0.0
H2415 H 0.75028 0.86683 0.79705 0.0
H2416 H 0.73281 0.88938 0.79511 0.0
H2417 H 0.71872 0.90185 0.74468 0.0
H2418 H 0.65194 0.94924 0.74317 0.0
H2419 H 0.66972 0.92687 0.74526 0.0
H2420 H 0.68797 0.91832 0.79281 0.0
C2421 C 0.73353 0.8812 0.78495 0.0
C2422 C 0.71192 0.90512 0.75523 0.0
C2423 C 0.74361 0.86835 0.78605 0.0
C2424 C 0.66047 0.94924 0.75296 0.0
C2425 C 0.67068 0.93649 0.75409 0.0
C2426 C 0.69467 0.91479 0.78226 0.0
C2427 C 0.72469 0.88355 0.77085 0.0
C2428 C 0.71372 0.89708 0.76977 0.0
C2429 C 0.68192 0.9361 0.7666 0.0
C2430 C 0.69283 0.92267 0.7677 0.0
H2431 H 0.73759 0.85193 0.7487 0.0
H2432 H 0.71956 0.87404 0.74688 0.0
H2433 H 0.70573 0.89598 0.79457 0.0
H2434 H 0.67378 0.97116 0.78552 0.0
H2435 H 0.69142 0.94867 0.78765 0.0
C2436 C 0.60226 0.53486 0.97672 0.0
C2437 C 0.60444 0.51834 0.97681 0.0
C2438 C 0.61524 0.54556 0.97909 0.0
C2439 C 0.65632 0.54825 0.99559 0.0
H2440 H 0.65977 0.58673 0.9706 0.0
C2441 C 0.71315 0.58926 0.99546 0.0
C2442 C 0.71092 0.60577 0.99628 0.0
C2443 C 0.7001 0.57862 0.99323 0.0
C2444 C 0.65888 0.57611 0.97778 0.0
H2445 H 0.62198 0.50009 0.97911 0.0
H2446 H 0.64467 0.51876 0.98311 0.0
H2447 H 0.63716 0.56804 0.96622 0.0
H2448 H 0.69323 0.62405 0.99545 0.0
H2449 H 0.67045 0.60545 0.9916 0.0
H2450 H 0.67813 0.55629 0.00704 0.0
C2451 C 0.63288 0.52345 0.98153 0.0
C2452 C 0.64593 0.56541 0.97529 0.0
C2453 C 0.61989 0.51275 0.97922 0.0
C2454 C 0.69536 0.61141 0.99486 0.0
C2455 C 0.68232 0.60077 0.99255 0.0
C2456 C 0.66931 0.55892 -0.00197 0.0
C2457 C 0.6307 0.53998 0.98155 0.0
C2458 C 0.64449 0.55135 0.98417 0.0
C2459 C 0.68455 0.58426 0.99171 0.0
C2460 C 0.67072 0.57296 0.98916 0.0
H2461 H 0.59045 0.53951 0.97511 0.0
H2462 H 0.6131 0.5582 0.97928 0.0
H2463 H 0.65544 0.53767 0.00282 0.0
H2464 H 0.72499 0.58452 0.99649 0.0
H2465 H 0.70221 0.56597 0.99246 0.0
C2466 C 0.236 0.62936 0.21987 0.0
C2467 C 0.22995 0.64449 0.21722 0.0
C2468 C 0.22566 0.61648 0.2234 0.0
C2469 C 0.18549 0.60663 0.2391 0.0
H2470 H 0.19116 0.56588 0.21754 0.0
C2471 C 0.13867 0.55483 0.24313 0.0
C2472 C 0.14435 0.53936 0.2445 0.0
C2473 C 0.14922 0.56764 0.23999 0.0
C2474 C 0.18954 0.57712 0.22382 0.0
H2475 H 0.20837 0.65807 0.21645 0.0
H2476 H 0.1903 0.63555 0.22249 0.0
H2477 H 0.20949 0.58826 0.21185 0.0
H2478 H 0.16561 0.52524 0.24382 0.0
H2479 H 0.18403 0.54762 0.2386 0.0
H2480 H 0.1656 0.5955 0.25115 0.0
C2481 C 0.20304 0.63366 0.22189 0.0
C2482 C 0.20003 0.58994 0.22054 0.0
C2483 C 0.21336 0.64651 0.21828 0.0
C2484 C 0.16082 0.53699 0.24274 0.0
C2485 C 0.17138 0.54982 0.23966 0.0
C2486 C 0.17503 0.59379 0.24243 0.0
C2487 C 0.20908 0.6185 0.22445 0.0
C2488 C 0.19808 0.60484 0.22811 0.0
C2489 C 0.1657 0.56528 0.23821 0.0
C2490 C 0.17691 0.5789 0.2348 0.0
H2491 H 0.24872 0.62742 0.21901 0.0
H2492 H 0.23067 0.60496 0.22544 0.0
H2493 H 0.18383 0.61792 0.24528 0.0
H2494 H 0.12603 0.55704 0.24436 0.0
H2495 H 0.14442 0.57937 0.23872 0.0
C2496 C 0.89018 0.51156 0.01436 0.0
C2497 C 0.90384 0.5184 0.02196 0.0
C2498 C 0.87699 0.52077 0.01117 0.0
C2499 C 0.85741 0.55721 0.02438 0.0
H2500 H 0.83568 0.55332 0.98327 0.0
C2501 C 0.80703 0.59887 0.00719 0.0
C2502 C 0.79375 0.592 -0.00101 0.0
C2503 C 0.82072 0.59013 0.0096 0.0
C2504 C 0.84149 0.55442 0.99488 0.0
H2505 H 0.91445 0.5404 0.03185 0.0
H2506 H 0.89133 0.55641 0.02645 0.0
H2507 H 0.85907 0.53754 0.98824 0.0
H2508 H 0.78441 0.57057 0.98685 0.0
H2509 H 0.80816 0.55523 0.9913 0.0
H2510 H 0.83975 0.57389 0.03114 0.0
C2511 C 0.8908 0.54387 0.02312 0.0
C2512 C 0.85491 0.54539 0.99771 0.0
C2513 C 0.90402 0.53469 0.02624 0.0
C2514 C 0.79447 0.57624 0.99316 0.0
C2515 C 0.80813 0.56747 0.99564 0.0
C2516 C 0.84395 0.56617 0.02159 0.0
C2517 C 0.87713 0.537 0.01558 0.0
C2518 C 0.863 0.54669 0.01249 0.0
C2519 C 0.8214 0.57429 0.00392 0.0
C2520 C 0.83582 0.56487 0.00681 0.0
H2521 H 0.88953 0.499 0.01114 0.0
H2522 H 0.86654 0.5151 0.00553 0.0
H2523 H 0.86327 0.55829 0.03597 0.0
H2524 H 0.80689 0.61103 0.01175 0.0
H2525 H 0.83081 0.59584 0.0158 0.0
C2526 C 0.11481 0.00493 0.01141 0.0
C2527 C 0.10042 -0.00119 0.01798 0.0
C2528 C 0.12817 0.99544 0.01011 0.0
C2529 C 0.14615 0.96043 0.02744 0.0
H2530 H 0.17141 0.96003 0.98838 0.0
C2531 C 0.19692 0.91652 0.0174 0.0
C2532 C 0.21084 0.92222 0.00962 0.0
C2533 C 0.18339 0.9258 0.01831 0.0
C2534 C 0.16462 0.96016 -0.00054 0.0
H2535 H 0.08874 0.97776 0.028 0.0
H2536 H 0.11215 0.96131 0.02594 0.0
H2537 H 0.1479 0.97638 0.99009 0.0
H2538 H 0.22152 0.94219 0.99686 0.0
H2539 H 0.19805 0.95851 -0.00125 0.0
H2540 H 0.16294 0.94442 0.03693 0.0
C2541 C 0.1131 0.9735 0.02194 0.0
C2542 C 0.15113 0.9695 0.00041 0.0
C2543 C 0.0997 0.98295 0.02314 0.0
C2544 C 0.21096 0.93742 0.00286 0.0
C2545 C 0.19746 0.94674 0.00386 0.0
C2546 C 0.1597 0.95117 0.02654 0.0
C2547 C 0.12747 0.97966 0.01545 0.0
C2548 C 0.14175 0.96971 0.0144 0.0
C2549 C 0.18349 0.94103 0.01156 0.0
C2550 C 0.16909 0.95091 0.01253 0.0
H2551 H 0.11587 0.01716 0.00756 0.0
H2552 H 0.13916 0.00056 0.00524 0.0
H2553 H 0.13927 0.96054 0.03847 0.0
H2554 H 0.19641 0.90482 0.02266 0.0
H2555 H 0.17277 0.92093 0.02412 0.0
loop_
_geom_bond_atom_site_label_1
_geom_bond_atom_site_label_2
_geom_bond_distance
_geom_bond_site_symmetry_2
_ccdc_geom_bond_type
C0 C1 1.390 1_556 S
C0 C4 1.391 1_556 S
C0 H42 0.948 . S
C1 C0 1.390 1_554 S
C1 C2 1.400 . S
C2 C1 1.400 . S
C2 H58 0.947 . S
C2 C59 1.392 . S
C3 C4 1.391 . S
C3 C7 1.397 . S
C3 C59 1.419 . S
C4 C0 1.391 1_554 S
C4 C3 1.391 . S
C4 C5 1.399 . S
C5 C4 1.399 . S
C5 C8 1.396 . S
C5 C17 1.453 . S
C5 C18 1.684 1_554 S
H6 C30 0.948 1_565 S
C7 C3 1.397 . S
C7 C8 1.394 . S
C7 C26 1.723 . S
C8 C5 1.396 . S
C8 C7 1.394 . S
C8 C38 1.723 . S
H9 C32 0.947 . S
H10 C33 0.948 . S
H11 C39 0.982 . S
H12 C40 0.984 . S
H13 C40 0.977 1_545 S
H14 C40 0.992 . S
H15 C39 0.979 . S
H16 C39 0.977 . S
C17 C5 1.453 . S
C17 H46 0.982 . S
C17 H47 0.979 . S
C17 H48 0.977 . S
C18 C5 1.684 1_556 S
C18 H43 0.979 . S
C18 H44 0.980 . S
C18 H45 0.983 . S
C19 C20 1.391 . S
C19 C24 1.391 1_655 S
C19 H49 0.948 . S
C20 C19 1.391 . S
C20 C21 1.391 1_655 S
C21 C20 1.391 1_455 S
C21 C22 1.392 . S
C21 H50 0.947 . S
C22 C21 1.392 . S
C22 C23 1.419 . S
C22 H51 0.948 . S
C23 C22 1.419 . S
C23 C24 1.391 . S
C23 C27 1.397 . S
C24 C19 1.391 1_455 S
C24 C23 1.391 . S
C24 C25 1.399 . S
C25 C24 1.399 . S
C25 C26 1.396 . S
C25 C28 1.453 . S
C25 C29 1.684 1_455 S
C26 C7 1.723 . S
C26 C25 1.396 . S
C26 C27 1.394 . S
C27 C23 1.397 . S
C27 C26 1.394 . S
C27 C37 1.723 . S
C28 C25 1.453 . S
C28 H52 0.982 . S
C28 H53 0.979 1_455 S
C28 H54 0.977 . S
C29 C25 1.684 1_655 S
C29 H55 0.979 . S
C29 H56 0.980 . S
C29 H57 0.983 . S
C30 H6 0.948 1_545 S
C30 C31 1.391 . S
C30 C35 1.391 . S
C31 C30 1.391 . S
C31 C32 1.391 . S
C32 H9 0.947 . S
C32 C31 1.391 . S
C32 C33 1.392 . S
C33 H10 0.948 . S
C33 C32 1.392 . S
C33 C34 1.419 . S
C34 C33 1.419 . S
C34 C35 1.391 . S
C34 C38 1.397 . S
C35 C30 1.391 . S
C35 C34 1.391 . S
C35 C36 1.399 . S
C36 C35 1.399 . S
C36 C37 1.396 . S
C36 C39 1.453 . S
C36 C40 1.672 1_545 S
C37 C27 1.723 . S
C37 C36 1.396 . S
C37 C38 1.394 . S
C38 C8 1.723 . S
C38 C34 1.397 . S
C38 C37 1.394 . S
C39 H11 0.982 . S
C39 H15 0.979 . S
C39 H16 0.977 . S
C39 C36 1.453 . S
C40 H12 0.984 . S
C40 H13 0.977 1_565 S
C40 H14 0.992 . S
C40 C36 1.672 1_565 S
H41 C59 0.948 . S
H42 C0 0.948 . S
H43 C18 0.979 . S
H44 C18 0.980 . S
H45 C18 0.983 . S
H46 C17 0.982 . S
H47 C17 0.979 . S
H48 C17 0.977 . S
H49 C19 0.948 . S
H50 C21 0.947 . S
H51 C22 0.948 . S
H52 C28 0.982 . S
H53 C28 0.979 1_655 S
H54 C28 0.977 . S
H55 C29 0.979 . S
H56 C29 0.980 . S
H57 C29 0.983 . S
H58 C2 0.947 . S
C59 C2 1.392 . S
C59 C3 1.419 . S
C59 H41 0.948 . S
C60 C61 1.391 . S
C60 C64 1.391 . S
C60 H102 0.948 . S
C61 C60 1.391 . S
C61 C62 1.391 . S
C62 C61 1.391 . S
C62 H118 0.947 . S
C62 C119 1.392 . S
C63 C64 1.391 . S
C63 C67 1.397 . S
C63 C119 1.419 . S
C64 C60 1.391 . S
C64 C63 1.391 . S
C64 C65 1.399 . S
C65 C64 1.399 . S
C65 C68 1.396 . S
C65 C77 1.453 . S
C65 C78 1.684 . S
H66 C90 0.948 . S
C67 C63 1.397 . S
C67 C68 1.394 . S
C67 C86 1.723 . S
C68 C65 1.396 . S
C68 C67 1.394 . S
C68 C98 1.723 . S
H69 C92 0.947 . S
H70 C93 0.948 . S
H71 C99 0.982 . S
H72 C100 0.979 . S
H73 C100 0.980 . S
H74 C100 0.983 . S
H75 C99 0.979 . S
H76 C99 0.977 . S
C77 C65 1.453 . S
C77 H106 0.982 . S
C77 H107 0.979 . S
C77 H108 0.977 . S
C78 C65 1.684 . S
C78 H103 0.979 . S
C78 H104 0.980 . S
C78 H105 0.983 . S
C79 C80 1.391 . S
C79 C84 1.391 . S
C79 H109 0.948 . S
C80 C79 1.391 . S
C80 C81 1.391 . S
C81 C80 1.391 . S
C81 C82 1.392 . S
C81 H110 0.947 . S
C82 C81 1.392 . S
C82 C83 1.419 . S
C82 H111 0.948 . S
C83 C82 1.419 . S
C83 C84 1.391 . S
C83 C87 1.397 . S
C84 C79 1.391 . S
C84 C83 1.391 . S
C84 C85 1.399 . S
C85 C84 1.399 . S
C85 C86 1.396 . S
C85 C88 1.453 . S
C85 C89 1.684 . S
C86 C67 1.723 . S
C86 C85 1.396 . S
C86 C87 1.394 . S
C87 C83 1.397 . S
C87 C86 1.394 . S
C87 C97 1.723 . S
C88 C85 1.453 . S
C88 H112 0.982 . S
C88 H113 0.979 . S
C88 H114 0.977 . S
C89 C85 1.684 . S
C89 H115 0.979 . S
C89 H116 0.980 . S
C89 H117 0.983 . S
C90 H66 0.948 . S
C90 C91 1.391 . S
C90 C95 1.391 . S
C91 C90 1.391 . S
C91 C92 1.391 . S
C92 H69 0.947 . S
C92 C91 1.391 . S
C92 C93 1.392 . S
C93 H70 0.948 . S
C93 C92 1.392 . S
C93 C94 1.419 . S
C94 C93 1.419 . S
C94 C95 1.391 . S
C94 C98 1.397 . S
C95 C90 1.391 . S
C95 C94 1.391 . S
C95 C96 1.399 . S
C96 C95 1.399 . S
C96 C97 1.396 . S
C96 C99 1.453 . S
C96 C100 1.684 . S
C97 C87 1.723 . S
C97 C96 1.396 . S
C97 C98 1.394 . S
C98 C68 1.723 . S
C98 C94 1.397 . S
C98 C97 1.394 . S
C99 H71 0.982 . S
C99 H75 0.979 . S
C99 H76 0.977 . S
C99 C96 1.453 . S
C100 H72 0.979 . S
C100 H73 0.980 . S
C100 H74 0.983 . S
C100 C96 1.684 . S
H101 C119 0.948 . S
H102 C60 0.948 . S
H103 C78 0.979 . S
H104 C78 0.980 . S
H105 C78 0.983 . S
H106 C77 0.982 . S
H107 C77 0.979 . S
H108 C77 0.977 . S
H109 C79 0.948 . S
H110 C81 0.947 . S
H111 C82 0.948 . S
H112 C88 0.982 . S
H113 C88 0.979 . S
H114 C88 0.977 . S
H115 C89 0.979 . S
H116 C89 0.980 . S
H117 C89 0.983 . S
H118 C62 0.947 . S
C119 C62 1.392 . S
C119 C63 1.419 . S
C119 H101 0.948 . S
C120 C121 1.391 1_554 S
C120 C124 1.391 . S
C120 H162 0.948 . S
C121 C120 1.391 1_556 S
C121 C122 1.391 . S
C122 C121 1.391 . S
C122 H178 0.947 . S
C122 C179 1.392 . S
C123 C124 1.391 . S
C123 C127 1.397 . S
C123 C179 1.419 1_554 S
C124 C120 1.391 . S
C124 C123 1.391 . S
C124 C125 1.399 . S
C125 C124 1.399 . S
C125 C128 1.396 . S
C125 C137 1.453 . S
C125 C138 1.684 1_655 S
H126 C150 0.948 . S
C127 C123 1.397 . S
C127 C128 1.394 . S
C127 C146 1.723 . S
C128 C125 1.396 . S
C128 C127 1.394 . S
C128 C158 1.723 . S
H129 C152 0.947 . S
H130 C153 0.948 . S
H131 C159 0.982 . S
H132 C160 0.979 . S
H133 C160 0.980 . S
H134 C160 0.983 . S
H135 C159 0.979 . S
H136 C159 0.977 . S
C137 C125 1.453 . S
C137 H166 0.982 . S
C137 H167 0.979 . S
C137 H168 0.977 . S
C138 C125 1.684 1_455 S
C138 H163 0.979 . S
C138 H164 0.980 . S
C138 H165 0.983 . S
C139 C140 1.391 . S
C139 C144 1.391 . S
C139 H169 0.948 . S
C140 C139 1.391 . S
C140 C141 1.391 . S
C141 C140 1.391 . S
C141 C142 1.392 . S
C141 H170 0.947 . S
C142 C141 1.392 . S
C142 C143 1.419 . S
C142 H171 0.948 . S
C143 C142 1.419 . S
C143 C144 1.391 . S
C143 C147 1.397 . S
C144 C139 1.391 . S
C144 C143 1.391 . S
C144 C145 1.399 . S
C145 C144 1.399 . S
C145 C146 1.396 . S
C145 C148 1.453 . S
C145 C149 1.684 1_554 S
C146 C127 1.723 . S
C146 C145 1.396 . S
C146 C147 1.394 . S
C147 C143 1.397 . S
C147 C146 1.394 . S
C147 C157 1.723 . S
C148 C145 1.453 . S
C148 H172 0.982 . S
C148 H173 0.979 . S
C148 H174 0.977 . S
C149 C145 1.684 1_556 S
C149 H175 0.979 . S
C149 H176 0.980 . S
C149 H177 0.983 . S
C150 H126 0.948 . S
C150 C151 1.391 1_655 S
C150 C155 1.391 . S
C151 C150 1.391 1_455 S
C151 C152 1.391 . S
C152 H129 0.947 . S
C152 C151 1.391 . S
C152 C153 1.392 . S
C153 H130 0.948 . S
C153 C152 1.392 . S
C153 C154 1.419 1_455 S
C154 C153 1.419 1_655 S
C154 C155 1.391 . S
C154 C158 1.397 . S
C155 C150 1.391 . S
C155 C154 1.391 . S
C155 C156 1.399 . S
C156 C155 1.399 . S
C156 C157 1.396 . S
C156 C159 1.453 . S
C156 C160 1.684 . S
C157 C147 1.723 . S
C157 C156 1.396 . S
C157 C158 1.394 . S
C158 C128 1.723 . S
C158 C154 1.397 . S
C158 C157 1.394 . S
C159 H131 0.982 . S
C159 H135 0.979 . S
C159 H136 0.977 . S
C159 C156 1.453 . S
C160 H132 0.979 . S
C160 H133 0.980 . S
C160 H134 0.983 . S
C160 C156 1.684 . S
H161 C179 0.948 . S
H162 C120 0.948 . S
H163 C138 0.979 . S
H164 C138 0.980 . S
H165 C138 0.983 . S
H166 C137 0.982 . S
H167 C137 0.979 . S
H168 C137 0.977 . S
H169 C139 0.948 . S
H170 C141 0.947 . S
H171 C142 0.948 . S
H172 C148 0.982 . S
H173 C148 0.979 . S
H174 C148 0.977 . S
H175 C149 0.979 . S
H176 C149 0.980 . S
H177 C149 0.983 . S
H178 C122 0.947 . S
C179 C122 1.392 . S
C179 C123 1.419 1_556 S
C179 H161 0.948 . S
C180 C181 1.391 . S
C180 C184 1.391 . S
C180 H222 0.948 . S
C181 C180 1.391 . S
C181 C182 1.391 . S
C182 C181 1.391 . S
C182 H238 0.947 . S
C182 C239 1.392 . S
C183 C184 1.391 . S
C183 C187 1.397 . S
C183 C239 1.419 . S
C184 C180 1.391 . S
C184 C183 1.391 . S
C184 C185 1.399 . S
C185 C184 1.399 . S
C185 C188 1.396 . S
C185 C197 1.453 . S
C185 C198 1.684 . S
H186 C210 0.948 . S
C187 C183 1.397 . S
C187 C188 1.394 . S
C187 C206 1.723 . S
C188 C185 1.396 . S
C188 C187 1.394 . S
C188 C218 1.723 . S
H189 C212 0.947 . S
H190 C213 0.948 . S
H191 C219 0.982 . S
H192 C220 0.979 . S
H193 C220 0.980 . S
H194 C220 0.983 . S
H195 C219 0.979 . S
H196 C219 0.977 . S
C197 C185 1.453 . S
C197 H226 0.982 . S
C197 H227 0.979 . S
C197 H228 0.977 . S
C198 C185 1.684 . S
C198 H223 0.979 . S
C198 H224 0.980 . S
C198 H225 0.983 . S
C199 C200 1.391 . S
C199 C204 1.391 . S
C199 H229 0.948 . S
C200 C199 1.391 . S
C200 C201 1.391 . S
C201 C200 1.391 . S
C201 C202 1.392 . S
C201 H230 0.947 . S
C202 C201 1.392 . S
C202 C203 1.419 . S
C202 H231 0.948 . S
C203 C202 1.419 . S
C203 C204 1.391 . S
C203 C207 1.397 . S
C204 C199 1.391 . S
C204 C203 1.391 . S
C204 C205 1.399 . S
C205 C204 1.399 . S
C205 C206 1.396 . S
C205 C208 1.453 . S
C205 C209 1.684 . S
C206 C187 1.723 . S
C206 C205 1.396 . S
C206 C207 1.394 . S
C207 C203 1.397 . S
C207 C206 1.394 . S
C207 C217 1.723 . S
C208 C205 1.453 . S
C208 H232 0.982 . S
C208 H233 0.979 . S
C208 H234 0.977 . S
C209 C205 1.684 . S
C209 H235 0.979 . S
C209 H236 0.980 . S
C209 H237 0.983 . S
C210 H186 0.948 . S
C210 C211 1.391 . S
C210 C215 1.391 . S
C211 C210 1.391 . S
C211 C212 1.391 . S
C212 H189 0.947 . S
C212 C211 1.391 . S
C212 C213 1.392 . S
C213 H190 0.948 . S
C213 C212 1.392 . S
C213 C214 1.419 . S
C214 C213 1.419 . S
C214 C215 1.391 . S
C214 C218 1.397 . S
C215 C210 1.391 . S
C215 C214 1.391 . S
C215 C216 1.399 . S
C216 C215 1.399 . S
C216 C217 1.396 . S
C216 C219 1.453 . S
C216 C220 1.684 . S
C217 C207 1.723 . S
C217 C216 1.396 . S
C217 C218 1.394 . S
C218 C188 1.723 . S
C218 C214 1.397 . S
C218 C217 1.394 . S
C219 H191 0.982 . S
C219 H195 0.979 . S
C219 H196 0.977 . S
C219 C216 1.453 . S
C220 H192 0.979 . S
C220 H193 0.980 . S
C220 H194 0.983 . S
C220 C216 1.684 . S
H221 C239 0.948 . S
H222 C180 0.948 . S
H223 C198 0.979 . S
H224 C198 0.980 . S
H225 C198 0.983 . S
H226 C197 0.982 . S
H227 C197 0.979 . S
H228 C197 0.977 . S
H229 C199 0.948 . S
H230 C201 0.947 . S
H231 C202 0.948 . S
H232 C208 0.982 . S
H233 C208 0.979 . S
H234 C208 0.977 . S
H235 C209 0.979 . S
H236 C209 0.980 . S
H237 C209 0.983 . S
H238 C182 0.947 . S
C239 C182 1.392 . S
C239 C183 1.419 . S
C239 H221 0.948 . S
C240 C241 1.391 . S
C240 C244 1.391 . S
C240 H282 0.948 . S
C241 C240 1.391 . S
C241 C242 1.391 . S
C242 C241 1.391 . S
C242 H298 0.947 . S
C242 C299 1.392 . S
C243 C244 1.391 . S
C243 C247 1.397 . S
C243 C299 1.419 . S
C244 C240 1.391 . S
C244 C243 1.391 . S
C244 C245 1.399 . S
C245 C244 1.399 . S
C245 C248 1.396 . S
C245 C257 1.453 . S
C245 C258 1.684 . S
H246 C270 0.948 . S
C247 C243 1.397 . S
C247 C248 1.394 . S
C247 C266 1.723 . S
C248 C245 1.396 . S
C248 C247 1.394 . S
C248 C278 1.723 . S
H249 C272 0.947 . S
H250 C273 0.948 . S
H251 C279 0.982 . S
H252 C280 0.979 1_565 S
H253 C280 0.980 . S
H254 C280 0.983 . S
H255 C279 0.979 . S
H256 C279 0.977 . S
C257 C245 1.453 . S
C257 H286 0.982 . S
C257 H287 0.979 . S
C257 H288 0.977 . S
C258 C245 1.684 . S
C258 H283 0.979 . S
C258 H284 0.980 . S
C258 H285 0.983 . S
C259 C260 1.391 . S
C259 C264 1.391 1_655 S
C259 H289 0.948 . S
C260 C259 1.391 . S
C260 C261 1.391 1_655 S
C261 C260 1.391 1_455 S
C261 C262 1.392 . S
C261 H290 0.947 1_565 S
C262 C261 1.392 . S
C262 C263 1.419 . S
C262 H291 0.943 1_565 S
C263 C262 1.419 . S
C263 C264 1.391 . S
C263 C267 1.397 . S
C264 C259 1.391 1_455 S
C264 C263 1.391 . S
C264 C265 1.399 . S
C265 C264 1.399 . S
C265 C266 1.396 . S
C265 C268 1.453 1_455 S
C265 C269 1.684 . S
C266 C247 1.723 . S
C266 C265 1.396 . S
C266 C267 1.394 . S
C267 C263 1.397 . S
C267 C266 1.394 . S
C267 C277 1.723 . S
C268 C265 1.453 1_655 S
C268 H292 0.982 . S
C268 H293 0.979 . S
C268 H294 0.977 . S
C269 C265 1.684 . S
C269 H295 0.979 . S
C269 H296 0.980 . S
C269 H297 0.983 1_455 S
C270 H246 0.948 . S
C270 C271 1.391 . S
C270 C275 1.391 . S
C271 C270 1.391 . S
C271 C272 1.391 1_545 S
C272 H249 0.947 . S
C272 C271 1.391 1_565 S
C272 C273 1.392 . S
C273 H250 0.948 . S
C273 C272 1.392 . S
C273 C274 1.419 . S
C274 C273 1.419 . S
C274 C275 1.391 1_565 S
C274 C278 1.397 . S
C275 C270 1.391 . S
C275 C274 1.391 1_545 S
C275 C276 1.401 . S
C276 C275 1.401 . S
C276 C277 1.370 1_545 S
C276 C279 1.486 . S
C276 C280 1.691 . S
C277 C267 1.723 . S
C277 C276 1.370 1_565 S
C277 C278 1.394 . S
C278 C248 1.723 . S
C278 C274 1.397 . S
C278 C277 1.394 . S
C279 H251 0.982 . S
C279 H255 0.979 . S
C279 H256 0.977 . S
C279 C276 1.486 . S
C280 H252 0.979 1_545 S
C280 H253 0.980 . S
C280 H254 0.983 . S
C280 C276 1.691 . S
H281 C299 0.948 . S
H282 C240 0.948 . S
H283 C258 0.979 . S
H284 C258 0.980 . S
H285 C258 0.983 . S
H286 C257 0.982 . S
H287 C257 0.979 . S
H288 C257 0.977 . S
H289 C259 0.948 . S
H290 C261 0.947 1_545 S
H291 C262 0.943 1_545 S
H292 C268 0.982 . S
H293 C268 0.979 . S
H294 C268 0.977 . S
H295 C269 0.979 . S
H296 C269 0.980 . S
H297 C269 0.983 1_655 S
H298 C242 0.947 . S
C299 C242 1.392 . S
C299 C243 1.419 . S
C299 H281 0.948 . S
C300 C301 1.391 . S
C300 C304 1.391 . S
C300 H342 0.948 . S
C301 C300 1.391 . S
C301 C302 1.391 . S
C302 C301 1.391 . S
C302 H358 0.947 . S
C302 C359 1.392 . S
C303 C304 1.391 . S
C303 C307 1.397 . S
C303 C359 1.419 . S
C304 C300 1.391 . S
C304 C303 1.391 . S
C304 C305 1.399 . S
C305 C304 1.399 . S
C305 C308 1.396 . S
C305 C317 1.453 . S
C305 C318 1.684 . S
H306 C330 0.948 . S
C307 C303 1.397 . S
C307 C308 1.394 . S
C307 C326 1.723 . S
C308 C305 1.396 . S
C308 C307 1.394 . S
C308 C338 1.723 . S
H309 C332 0.947 . S
H310 C333 0.948 . S
H311 C339 0.982 . S
H312 C340 0.979 . S
H313 C340 0.980 . S
H314 C340 0.983 . S
H315 C339 0.979 . S
H316 C339 0.977 . S
C317 C305 1.453 . S
C317 H346 0.982 . S
C317 H347 0.979 . S
C317 H348 0.977 . S
C318 C305 1.684 . S
C318 H343 0.979 . S
C318 H344 0.980 . S
C318 H345 0.983 . S
C319 C320 1.391 . S
C319 C324 1.391 . S
C319 H349 0.948 . S
C320 C319 1.391 . S
C320 C321 1.391 . S
C321 C320 1.391 . S
C321 C322 1.392 . S
C321 H350 0.947 . S
C322 C321 1.392 . S
C322 C323 1.419 . S
C322 H351 0.948 . S
C323 C322 1.419 . S
C323 C324 1.391 . S
C323 C327 1.397 . S
C324 C319 1.391 . S
C324 C323 1.391 . S
C324 C325 1.399 . S
C325 C324 1.399 . S
C325 C326 1.396 . S
C325 C328 1.453 . S
C325 C329 1.684 . S
C326 C307 1.723 . S
C326 C325 1.396 . S
C326 C327 1.394 . S
C327 C323 1.397 . S
C327 C326 1.394 . S
C327 C337 1.723 . S
C328 C325 1.453 . S
C328 H352 0.982 . S
C328 H353 0.979 . S
C328 H354 0.977 . S
C329 C325 1.684 . S
C329 H355 0.979 . S
C329 H356 0.980 . S
C329 H357 0.983 . S
C330 H306 0.948 . S
C330 C331 1.391 . S
C330 C335 1.391 . S
C331 C330 1.391 . S
C331 C332 1.391 . S
C332 H309 0.947 . S
C332 C331 1.391 . S
C332 C333 1.392 . S
C333 H310 0.948 . S
C333 C332 1.392 . S
C333 C334 1.419 . S
C334 C333 1.419 . S
C334 C335 1.391 . S
C334 C338 1.397 . S
C335 C330 1.391 . S
C335 C334 1.391 . S
C335 C336 1.399 . S
C336 C335 1.399 . S
C336 C337 1.396 . S
C336 C339 1.453 . S
C336 C340 1.684 . S
C337 C327 1.723 . S
C337 C336 1.396 . S
C337 C338 1.394 . S
C338 C308 1.723 . S
C338 C334 1.397 . S
C338 C337 1.394 . S
C339 H311 0.982 . S
C339 H315 0.979 . S
C339 H316 0.977 . S
C339 C336 1.453 . S
C340 H312 0.979 . S
C340 H313 0.980 . S
C340 H314 0.983 . S
C340 C336 1.684 . S
H341 C359 0.948 . S
H342 C300 0.948 . S
H343 C318 0.979 . S
H344 C318 0.980 . S
H345 C318 0.983 . S
H346 C317 0.982 . S
H347 C317 0.979 . S
H348 C317 0.977 . S
H349 C319 0.948 . S
H350 C321 0.947 . S
H351 C322 0.948 . S
H352 C328 0.982 . S
H353 C328 0.979 . S
H354 C328 0.977 . S
H355 C329 0.979 . S
H356 C329 0.980 . S
H357 C329 0.983 . S
H358 C302 0.947 . S
C359 C302 1.392 . S
C359 C303 1.419 . S
C359 H341 0.948 . S
C360 C361 1.391 . S
C360 C364 1.391 . S
C360 H402 0.948 . S
C361 C360 1.391 . S
C361 C362 1.391 . S
C362 C361 1.391 . S
C362 H418 0.947 . S
C362 C419 1.392 . S
C363 C364 1.391 . S
C363 C367 1.397 . S
C363 C419 1.419 . S
C364 C360 1.391 . S
C364 C363 1.391 . S
C364 C365 1.399 . S
C365 C364 1.399 . S
C365 C368 1.396 . S
C365 C377 1.453 . S
C365 C378 1.684 . S
H366 C390 0.948 . S
C367 C363 1.397 . S
C367 C368 1.394 . S
C367 C386 1.723 . S
C368 C365 1.396 . S
C368 C367 1.394 . S
C368 C398 1.723 . S
H369 C392 0.947 . S
H370 C393 0.948 . S
H371 C399 0.982 . S
H372 C400 0.979 . S
H373 C400 0.980 . S
H374 C400 0.983 . S
H375 C399 0.979 . S
H376 C399 0.977 . S
C377 C365 1.453 . S
C377 H406 0.982 . S
C377 H407 0.979 . S
C377 H408 0.977 . S
C378 C365 1.684 . S
C378 H403 0.979 . S
C378 H404 0.980 . S
C378 H405 0.983 . S
C379 C380 1.391 1_655 S
C379 C384 1.391 . S
C379 H409 0.948 . S
C380 C379 1.391 1_455 S
C380 C381 1.391 . S
C381 C380 1.391 . S
C381 C382 1.392 . S
C381 H410 0.947 . S
C382 C381 1.392 . S
C382 C383 1.419 1_455 S
C382 H411 0.948 . S
C383 C382 1.419 1_655 S
C383 C384 1.391 . S
C383 C387 1.397 . S
C384 C379 1.391 . S
C384 C383 1.391 . S
C384 C385 1.399 . S
C385 C384 1.399 . S
C385 C386 1.396 . S
C385 C388 1.453 . S
C385 C389 1.684 . S
C386 C367 1.723 . S
C386 C385 1.396 . S
C386 C387 1.394 . S
C387 C383 1.397 . S
C387 C386 1.394 . S
C387 C397 1.723 . S
C388 C385 1.453 . S
C388 H412 0.982 . S
C388 H413 0.979 . S
C388 H414 0.977 . S
C389 C385 1.684 . S
C389 H415 0.979 . S
C389 H416 0.980 . S
C389 H417 0.983 . S
C390 H366 0.948 . S
C390 C391 1.391 . S
C390 C395 1.391 . S
C391 C390 1.391 . S
C391 C392 1.391 . S
C392 H369 0.947 . S
C392 C391 1.391 . S
C392 C393 1.392 . S
C393 H370 0.948 . S
C393 C392 1.392 . S
C393 C394 1.419 . S
C394 C393 1.419 . S
C394 C395 1.391 . S
C394 C398 1.397 . S
C395 C390 1.391 . S
C395 C394 1.391 . S
C395 C396 1.399 . S
C396 C395 1.399 . S
C396 C397 1.396 . S
C396 C399 1.453 . S
C396 C400 1.684 1_655 S
C397 C387 1.723 . S
C397 C396 1.396 . S
C397 C398 1.394 . S
C398 C368 1.723 . S
C398 C394 1.397 . S
C398 C397 1.394 . S
C399 H371 0.982 . S
C399 H375 0.979 . S
C399 H376 0.977 . S
C399 C396 1.453 . S
C400 H372 0.979 . S
C400 H373 0.980 . S
C400 H374 0.983 . S
C400 C396 1.684 1_455 S
H401 C419 0.948 . S
H402 C360 0.948 . S
H403 C378 0.979 . S
H404 C378 0.980 . S
H405 C378 0.983 . S
H406 C377 0.982 . S
H407 C377 0.979 . S
H408 C377 0.977 . S
H409 C379 0.948 . S
H410 C381 0.947 . S
H411 C382 0.948 . S
H412 C388 0.982 . S
H413 C388 0.979 . S
H414 C388 0.977 . S
H415 C389 0.979 . S
H416 C389 0.980 . S
H417 C389 0.983 . S
H418 C362 0.947 . S
C419 C362 1.392 . S
C419 C363 1.419 . S
C419 H401 0.948 . S
C420 C421 1.391 . S
C420 C424 1.391 . S
C420 H462 0.948 . S
C421 C420 1.391 . S
C421 C422 1.391 . S
C422 C421 1.391 . S
C422 H478 0.947 . S
C422 C479 1.392 . S
C423 C424 1.391 . S
C423 C427 1.397 . S
C423 C479 1.419 . S
C424 C420 1.391 . S
C424 C423 1.391 . S
C424 C425 1.399 . S
C425 C424 1.399 . S
C425 C428 1.396 . S
C425 C437 1.453 . S
C425 C438 1.684 . S
H426 C450 0.948 . S
C427 C423 1.397 . S
C427 C428 1.394 . S
C427 C446 1.723 . S
C428 C425 1.396 . S
C428 C427 1.394 . S
C428 C458 1.723 . S
H429 C452 0.947 . S
H430 C453 0.948 . S
H431 C459 0.982 . S
H432 C460 0.979 . S
H433 C460 0.980 . S
H434 C460 0.983 . S
H435 C459 0.979 . S
H436 C459 0.977 . S
C437 C425 1.453 . S
C437 H466 0.982 . S
C437 H467 0.979 . S
C437 H468 0.977 . S
C438 C425 1.684 . S
C438 H463 0.979 . S
C438 H464 0.980 . S
C438 H465 0.983 . S
C439 C440 1.391 . S
C439 C444 1.391 . S
C439 H469 0.948 . S
C440 C439 1.391 . S
C440 C441 1.391 . S
C441 C440 1.391 . S
C441 C442 1.392 . S
C441 H470 0.947 . S
C442 C441 1.392 . S
C442 C443 1.419 . S
C442 H471 0.948 . S
C443 C442 1.419 . S
C443 C444 1.391 . S
C443 C447 1.397 . S
C444 C439 1.391 . S
C444 C443 1.391 . S
C444 C445 1.399 . S
C445 C444 1.399 . S
C445 C446 1.396 . S
C445 C448 1.453 . S
C445 C449 1.684 . S
C446 C427 1.723 . S
C446 C445 1.396 . S
C446 C447 1.394 . S
C447 C443 1.397 . S
C447 C446 1.394 . S
C447 C457 1.723 . S
C448 C445 1.453 . S
C448 H472 0.982 . S
C448 H473 0.979 . S
C448 H474 0.977 . S
C449 C445 1.684 . S
C449 H475 0.979 . S
C449 H476 0.980 . S
C449 H477 0.983 . S
C450 H426 0.948 . S
C450 C451 1.391 . S
C450 C455 1.391 . S
C451 C450 1.391 . S
C451 C452 1.391 . S
C452 H429 0.947 . S
C452 C451 1.391 . S
C452 C453 1.392 . S
C453 H430 0.948 . S
C453 C452 1.392 . S
C453 C454 1.419 . S
C454 C453 1.419 . S
C454 C455 1.391 . S
C454 C458 1.397 . S
C455 C450 1.391 . S
C455 C454 1.391 . S
C455 C456 1.399 . S
C456 C455 1.399 . S
C456 C457 1.396 . S
C456 C459 1.453 . S
C456 C460 1.684 . S
C457 C447 1.723 . S
C457 C456 1.396 . S
C457 C458 1.394 . S
C458 C428 1.723 . S
C458 C454 1.397 . S
C458 C457 1.394 . S
C459 H431 0.982 . S
C459 H435 0.979 . S
C459 H436 0.977 . S
C459 C456 1.453 . S
C460 H432 0.979 . S
C460 H433 0.980 . S
C460 H434 0.983 . S
C460 C456 1.684 . S
H461 C479 0.948 . S
H462 C420 0.948 . S
H463 C438 0.979 . S
H464 C438 0.980 . S
H465 C438 0.983 . S
H466 C437 0.982 . S
H467 C437 0.979 . S
H468 C437 0.977 . S
H469 C439 0.948 . S
H470 C441 0.947 . S
H471 C442 0.948 . S
H472 C448 0.982 . S
H473 C448 0.979 . S
H474 C448 0.977 . S
H475 C449 0.979 . S
H476 C449 0.980 . S
H477 C449 0.983 . S
H478 C422 0.947 . S
C479 C422 1.392 . S
C479 C423 1.419 . S
C479 H461 0.948 . S
C480 C481 1.391 . S
C480 C484 1.391 . S
C480 H522 0.948 . S
C481 C480 1.391 . S
C481 C482 1.391 . S
C482 C481 1.391 . S
C482 H538 0.947 . S
C482 C539 1.392 . S
C483 C484 1.391 . S
C483 C487 1.397 . S
C483 C539 1.419 . S
C484 C480 1.391 . S
C484 C483 1.391 . S
C484 C485 1.399 . S
C485 C484 1.399 . S
C485 C488 1.396 . S
C485 C497 1.453 . S
C485 C498 1.684 . S
H486 C510 0.948 . S
C487 C483 1.397 . S
C487 C488 1.394 . S
C487 C506 1.723 . S
C488 C485 1.396 . S
C488 C487 1.394 . S
C488 C518 1.723 . S
H489 C512 0.947 . S
H490 C513 0.948 . S
H491 C519 0.982 . S
H492 C520 0.979 . S
H493 C520 0.980 . S
H494 C520 0.983 . S
H495 C519 0.979 . S
H496 C519 0.977 . S
C497 C485 1.453 . S
C497 H526 0.982 . S
C497 H527 0.979 . S
C497 H528 0.977 . S
C498 C485 1.684 . S
C498 H523 0.979 . S
C498 H524 0.980 . S
C498 H525 0.983 . S
C499 C500 1.391 . S
C499 C504 1.391 . S
C499 H529 0.948 . S
C500 C499 1.391 . S
C500 C501 1.391 . S
C501 C500 1.391 . S
C501 C502 1.392 . S
C501 H530 0.947 . S
C502 C501 1.392 . S
C502 C503 1.419 . S
C502 H531 0.948 . S
C503 C502 1.419 . S
C503 C504 1.391 . S
C503 C507 1.397 . S
C504 C499 1.391 . S
C504 C503 1.391 . S
C504 C505 1.399 . S
C505 C504 1.399 . S
C505 C506 1.396 . S
C505 C508 1.453 . S
C505 C509 1.684 . S
C506 C487 1.723 . S
C506 C505 1.396 . S
C506 C507 1.394 . S
C507 C503 1.397 . S
C507 C506 1.394 . S
C507 C517 1.723 . S
C508 C505 1.453 . S
C508 H532 0.982 . S
C508 H533 0.979 . S
C508 H534 0.977 . S
C509 C505 1.684 . S
C509 H535 0.979 . S
C509 H536 0.980 . S
C509 H537 0.983 . S
C510 H486 0.948 . S
C510 C511 1.391 . S
C510 C515 1.391 . S
C511 C510 1.391 . S
C511 C512 1.391 . S
C512 H489 0.947 . S
C512 C511 1.391 . S
C512 C513 1.392 . S
C513 H490 0.948 . S
C513 C512 1.392 . S
C513 C514 1.419 . S
C514 C513 1.419 . S
C514 C515 1.391 . S
C514 C518 1.397 . S
C515 C510 1.391 . S
C515 C514 1.391 . S
C515 C516 1.399 . S
C516 C515 1.399 . S
C516 C517 1.396 . S
C516 C519 1.453 . S
C516 C520 1.684 . S
C517 C507 1.723 . S
C517 C516 1.396 . S
C517 C518 1.394 . S
C518 C488 1.723 . S
C518 C514 1.397 . S
C518 C517 1.394 . S
C519 H491 0.982 . S
C519 H495 0.979 . S
C519 H496 0.977 . S
C519 C516 1.453 . S
C520 H492 0.979 . S
C520 H493 0.980 . S
C520 H494 0.983 . S
C520 C516 1.684 . S
H521 C539 0.948 . S
H522 C480 0.948 . S
H523 C498 0.979 . S
H524 C498 0.980 . S
H525 C498 0.983 . S
H526 C497 0.982 . S
H527 C497 0.979 . S
H528 C497 0.977 . S
H529 C499 0.948 . S
H530 C501 0.947 . S
H531 C502 0.948 . S
H532 C508 0.982 . S
H533 C508 0.979 . S
H534 C508 0.977 . S
H535 C509 0.979 . S
H536 C509 0.980 . S
H537 C509 0.983 . S
H538 C482 0.947 . S
C539 C482 1.392 . S
C539 C483 1.419 . S
C539 H521 0.948 . S
C540 C541 1.391 . S
C540 C544 1.391 . S
C540 H582 0.948 . S
C541 C540 1.391 . S
C541 C542 1.391 . S
C542 C541 1.391 . S
C542 H598 0.947 . S
C542 C599 1.392 . S
C543 C544 1.391 . S
C543 C547 1.397 . S
C543 C599 1.419 . S
C544 C540 1.391 . S
C544 C543 1.391 . S
C544 C545 1.399 . S
C545 C544 1.399 . S
C545 C548 1.396 . S
C545 C557 1.453 . S
C545 C558 1.684 . S
H546 C570 0.948 . S
C547 C543 1.397 . S
C547 C548 1.394 . S
C547 C566 1.723 . S
C548 C545 1.396 . S
C548 C547 1.394 . S
C548 C578 1.723 . S
H549 C572 0.947 . S
H550 C573 0.948 . S
H551 C579 0.982 . S
H552 C580 0.979 . S
H553 C580 0.980 . S
H554 C580 0.983 . S
H555 C579 0.979 . S
H556 C579 0.977 . S
C557 C545 1.453 . S
C557 H586 0.982 . S
C557 H587 0.979 . S
C557 H588 0.977 . S
C558 C545 1.684 . S
C558 H583 0.979 . S
C558 H584 0.980 . S
C558 H585 0.983 . S
C559 C560 1.391 1_565 S
C559 C564 1.391 . S
C559 H589 0.948 . S
C560 C559 1.391 1_545 S
C560 C561 1.391 . S
C561 C560 1.391 . S
C561 C562 1.392 . S
C561 H590 0.947 . S
C562 C561 1.392 . S
C562 C563 1.419 1_545 S
C562 H591 0.948 . S
C563 C562 1.419 1_565 S
C563 C564 1.391 . S
C563 C567 1.397 . S
C564 C559 1.391 . S
C564 C563 1.391 . S
C564 C565 1.399 . S
C565 C564 1.399 . S
C565 C566 1.396 . S
C565 C568 1.453 . S
C565 C569 1.684 . S
C566 C547 1.723 . S
C566 C565 1.396 . S
C566 C567 1.394 . S
C567 C563 1.397 . S
C567 C566 1.394 . S
C567 C577 1.723 . S
C568 C565 1.453 . S
C568 H592 0.982 . S
C568 H593 0.979 . S
C568 H594 0.977 . S
C569 C565 1.684 . S
C569 H595 0.979 . S
C569 H596 0.980 . S
C569 H597 0.983 . S
C570 H546 0.948 . S
C570 C571 1.391 . S
C570 C575 1.391 . S
C571 C570 1.391 . S
C571 C572 1.391 . S
C572 H549 0.947 . S
C572 C571 1.391 . S
C572 C573 1.392 . S
C573 H550 0.948 . S
C573 C572 1.392 . S
C573 C574 1.419 . S
C574 C573 1.419 . S
C574 C575 1.391 . S
C574 C578 1.397 . S
C575 C570 1.391 . S
C575 C574 1.391 . S
C575 C576 1.399 . S
C576 C575 1.399 . S
C576 C577 1.396 . S
C576 C579 1.453 . S
C576 C580 1.684 1_565 S
C577 C567 1.723 . S
C577 C576 1.396 . S
C577 C578 1.394 . S
C578 C548 1.723 . S
C578 C574 1.397 . S
C578 C577 1.394 . S
C579 H551 0.982 . S
C579 H555 0.979 . S
C579 H556 0.977 . S
C579 C576 1.453 . S
C580 H552 0.979 . S
C580 H553 0.980 . S
C580 H554 0.983 . S
C580 C576 1.684 1_545 S
H581 C599 0.948 . S
H582 C540 0.948 . S
H583 C558 0.979 . S
H584 C558 0.980 . S
H585 C558 0.983 . S
H586 C557 0.982 . S
H587 C557 0.979 . S
H588 C557 0.977 . S
H589 C559 0.948 . S
H590 C561 0.947 . S
H591 C562 0.948 . S
H592 C568 0.982 . S
H593 C568 0.979 . S
H594 C568 0.977 . S
H595 C569 0.979 . S
H596 C569 0.980 . S
H597 C569 0.983 . S
H598 C542 0.947 . S
C599 C542 1.392 . S
C599 C543 1.419 . S
C599 H581 0.948 . S
C600 C601 1.391 . S
C600 C604 1.391 . S
C600 H642 0.948 . S
C601 C600 1.391 . S
C601 C602 1.391 . S
C602 C601 1.391 . S
C602 H658 0.947 . S
C602 C659 1.392 . S
C603 C604 1.391 . S
C603 C607 1.397 . S
C603 C659 1.419 . S
C604 C600 1.391 . S
C604 C603 1.391 . S
C604 C605 1.399 . S
C605 C604 1.399 . S
C605 C608 1.396 . S
C605 C617 1.453 . S
C605 C618 1.684 . S
H606 C630 0.948 . S
C607 C603 1.397 . S
C607 C608 1.394 . S
C607 C626 1.723 . S
C608 C605 1.396 . S
C608 C607 1.394 . S
C608 C638 1.723 . S
H609 C632 0.947 . S
H610 C633 0.948 . S
H611 C639 0.982 . S
H612 C640 0.979 . S
H613 C640 0.980 . S
H614 C640 0.983 . S
H615 C639 0.979 . S
H616 C639 0.977 . S
C617 C605 1.453 . S
C617 H646 0.982 . S
C617 H647 0.979 . S
C617 H648 0.977 . S
C618 C605 1.684 . S
C618 H643 0.979 . S
C618 H644 0.980 . S
C618 H645 0.983 . S
C619 C620 1.391 . S
C619 C624 1.391 . S
C619 H649 0.948 . S
C620 C619 1.391 . S
C620 C621 1.391 . S
C621 C620 1.391 . S
C621 C622 1.392 . S
C621 H650 0.947 . S
C622 C621 1.392 . S
C622 C623 1.419 . S
C622 H651 0.948 . S
C623 C622 1.419 . S
C623 C624 1.391 . S
C623 C627 1.397 . S
C624 C619 1.391 . S
C624 C623 1.391 . S
C624 C625 1.399 . S
C625 C624 1.399 . S
C625 C626 1.396 . S
C625 C628 1.453 . S
C625 C629 1.684 . S
C626 C607 1.723 . S
C626 C625 1.396 . S
C626 C627 1.394 . S
C627 C623 1.397 . S
C627 C626 1.394 . S
C627 C637 1.723 . S
C628 C625 1.453 . S
C628 H652 0.982 . S
C628 H653 0.979 . S
C628 H654 0.977 . S
C629 C625 1.684 . S
C629 H655 0.979 . S
C629 H656 0.980 . S
C629 H657 0.983 . S
C630 H606 0.948 . S
C630 C631 1.391 . S
C630 C635 1.391 . S
C631 C630 1.391 . S
C631 C632 1.391 . S
C632 H609 0.947 . S
C632 C631 1.391 . S
C632 C633 1.392 . S
C633 H610 0.948 . S
C633 C632 1.392 . S
C633 C634 1.419 . S
C634 C633 1.419 . S
C634 C635 1.391 . S
C634 C638 1.397 . S
C635 C630 1.391 . S
C635 C634 1.391 . S
C635 C636 1.399 . S
C636 C635 1.399 . S
C636 C637 1.396 . S
C636 C639 1.453 . S
C636 C640 1.684 . S
C637 C627 1.723 . S
C637 C636 1.396 . S
C637 C638 1.394 . S
C638 C608 1.723 . S
C638 C634 1.397 . S
C638 C637 1.394 . S
C639 H611 0.982 . S
C639 H615 0.979 . S
C639 H616 0.977 . S
C639 C636 1.453 . S
C640 H612 0.979 . S
C640 H613 0.980 . S
C640 H614 0.983 . S
C640 C636 1.684 . S
H641 C659 0.948 . S
H642 C600 0.948 . S
H643 C618 0.979 . S
H644 C618 0.980 . S
H645 C618 0.983 . S
H646 C617 0.982 . S
H647 C617 0.979 . S
H648 C617 0.977 . S
H649 C619 0.948 . S
H650 C621 0.947 . S
H651 C622 0.948 . S
H652 C628 0.982 . S
H653 C628 0.979 . S
H654 C628 0.977 . S
H655 C629 0.979 . S
H656 C629 0.980 . S
H657 C629 0.983 . S
H658 C602 0.947 . S
C659 C602 1.392 . S
C659 C603 1.419 . S
C659 H641 0.948 . S
C660 C661 1.391 . S
C660 C664 1.391 . S
C660 H702 0.948 . S
C661 C660 1.391 . S
C661 C662 1.391 . S
C662 C661 1.391 . S
C662 H718 0.947 . S
C662 C719 1.392 . S
C663 C664 1.391 . S
C663 C667 1.397 . S
C663 C719 1.419 . S
C664 C660 1.391 . S
C664 C663 1.391 . S
C664 C665 1.399 . S
C665 C664 1.399 . S
C665 C668 1.396 . S
C665 C677 1.453 . S
C665 C678 1.684 . S
H666 C690 0.948 . S
C667 C663 1.397 . S
C667 C668 1.394 . S
C667 C686 1.723 . S
C668 C665 1.396 . S
C668 C667 1.394 . S
C668 C698 1.723 . S
H669 C692 0.947 . S
H670 C693 0.948 . S
H671 C699 0.982 . S
H672 C700 0.979 . S
H673 C700 0.980 . S
H674 C700 0.983 . S
H675 C699 0.979 . S
H676 C699 0.977 . S
C677 C665 1.453 . S
C677 H706 0.982 . S
C677 H707 0.979 . S
C677 H708 0.977 . S
C678 C665 1.684 . S
C678 H703 0.979 . S
C678 H704 0.980 . S
C678 H705 0.983 . S
C679 C680 1.391 . S
C679 C684 1.391 . S
C679 H709 0.948 . S
C680 C679 1.391 . S
C680 C681 1.391 . S
C681 C680 1.391 . S
C681 C682 1.392 . S
C681 H710 0.947 . S
C682 C681 1.392 . S
C682 C683 1.419 . S
C682 H711 0.948 . S
C683 C682 1.419 . S
C683 C684 1.391 . S
C683 C687 1.397 . S
C684 C679 1.391 . S
C684 C683 1.391 . S
C684 C685 1.399 . S
C685 C684 1.399 . S
C685 C686 1.396 . S
C685 C688 1.453 . S
C685 C689 1.684 . S
C686 C667 1.723 . S
C686 C685 1.396 . S
C686 C687 1.394 . S
C687 C683 1.397 . S
C687 C686 1.394 . S
C687 C697 1.723 . S
C688 C685 1.453 . S
C688 H712 0.982 . S
C688 H713 0.979 . S
C688 H714 0.977 . S
C689 C685 1.684 . S
C689 H715 0.979 . S
C689 H716 0.980 . S
C689 H717 0.983 . S
C690 H666 0.948 . S
C690 C691 1.391 . S
C690 C695 1.391 . S
C691 C690 1.391 . S
C691 C692 1.391 . S
C692 H669 0.947 . S
C692 C691 1.391 . S
C692 C693 1.392 . S
C693 H670 0.948 . S
C693 C692 1.392 . S
C693 C694 1.419 . S
C694 C693 1.419 . S
C694 C695 1.391 . S
C694 C698 1.397 . S
C695 C690 1.391 . S
C695 C694 1.391 . S
C695 C696 1.399 . S
C696 C695 1.399 . S
C696 C697 1.396 . S
C696 C699 1.453 . S
C696 C700 1.684 . S
C697 C687 1.723 . S
C697 C696 1.396 . S
C697 C698 1.394 . S
C698 C668 1.723 . S
C698 C694 1.397 . S
C698 C697 1.394 . S
C699 H671 0.982 . S
C699 H675 0.979 . S
C699 H676 0.977 . S
C699 C696 1.453 . S
C700 H672 0.979 . S
C700 H673 0.980 . S
C700 H674 0.983 . S
C700 C696 1.684 . S
H701 C719 0.948 . S
H702 C660 0.948 . S
H703 C678 0.979 . S
H704 C678 0.980 . S
H705 C678 0.983 . S
H706 C677 0.982 . S
H707 C677 0.979 . S
H708 C677 0.977 . S
H709 C679 0.948 . S
H710 C681 0.947 . S
H711 C682 0.948 . S
H712 C688 0.982 . S
H713 C688 0.979 . S
H714 C688 0.977 . S
H715 C689 0.979 . S
H716 C689 0.980 . S
H717 C689 0.983 . S
H718 C662 0.947 . S
C719 C662 1.392 . S
C719 C663 1.419 . S
C719 H701 0.948 . S
C720 C721 1.391 . S
C720 C724 1.391 . S
C720 H762 0.948 . S
C721 C720 1.391 . S
C721 C722 1.391 . S
C722 C721 1.391 . S
C722 H778 0.947 . S
C722 C779 1.392 . S
C723 C724 1.391 . S
C723 C727 1.397 . S
C723 C779 1.419 . S
C724 C720 1.391 . S
C724 C723 1.391 . S
C724 C725 1.399 . S
C725 C724 1.399 . S
C725 C728 1.396 . S
C725 C737 1.453 . S
C725 C738 1.684 . S
H726 C750 0.948 . S
C727 C723 1.397 . S
C727 C728 1.394 . S
C727 C746 1.723 . S
C728 C725 1.396 . S
C728 C727 1.394 . S
C728 C758 1.723 . S
H729 C752 0.947 . S
H730 C753 0.948 . S
H731 C759 0.982 . S
H732 C760 0.979 . S
H733 C760 0.980 . S
H734 C760 0.983 . S
H735 C759 0.979 . S
H736 C759 0.977 . S
C737 C725 1.453 . S
C737 H766 0.982 . S
C737 H767 0.979 . S
C737 H768 0.977 . S
C738 C725 1.684 . S
C738 H763 0.979 . S
C738 H764 0.980 . S
C738 H765 0.983 . S
C739 C740 1.391 . S
C739 C744 1.391 . S
C739 H769 0.948 . S
C740 C739 1.391 . S
C740 C741 1.391 . S
C741 C740 1.391 . S
C741 C742 1.392 . S
C741 H770 0.947 . S
C742 C741 1.392 . S
C742 C743 1.419 . S
C742 H771 0.948 . S
C743 C742 1.419 . S
C743 C744 1.391 . S
C743 C747 1.397 . S
C744 C739 1.391 . S
C744 C743 1.391 . S
C744 C745 1.399 . S
C745 C744 1.399 . S
C745 C746 1.396 . S
C745 C748 1.453 . S
C745 C749 1.684 . S
C746 C727 1.723 . S
C746 C745 1.396 . S
C746 C747 1.394 . S
C747 C743 1.397 . S
C747 C746 1.394 . S
C747 C757 1.723 . S
C748 C745 1.453 . S
C748 H772 0.982 . S
C748 H773 0.979 . S
C748 H774 0.977 . S
C749 C745 1.684 . S
C749 H775 0.979 . S
C749 H776 0.980 . S
C749 H777 0.983 . S
C750 H726 0.948 . S
C750 C751 1.391 . S
C750 C755 1.391 . S
C751 C750 1.391 . S
C751 C752 1.391 . S
C752 H729 0.947 . S
C752 C751 1.391 . S
C752 C753 1.392 . S
C753 H730 0.948 . S
C753 C752 1.392 . S
C753 C754 1.419 . S
C754 C753 1.419 . S
C754 C755 1.391 . S
C754 C758 1.397 . S
C755 C750 1.391 . S
C755 C754 1.391 . S
C755 C756 1.399 . S
C756 C755 1.399 . S
C756 C757 1.396 . S
C756 C759 1.453 . S
C756 C760 1.684 . S
C757 C747 1.723 . S
C757 C756 1.396 . S
C757 C758 1.394 . S
C758 C728 1.723 . S
C758 C754 1.397 . S
C758 C757 1.394 . S
C759 H731 0.982 . S
C759 H735 0.979 . S
C759 H736 0.977 . S
C759 C756 1.453 . S
C760 H732 0.979 . S
C760 H733 0.980 . S
C760 H734 0.983 . S
C760 C756 1.684 . S
H761 C779 0.948 . S
H762 C720 0.948 . S
H763 C738 0.979 . S
H764 C738 0.980 . S
H765 C738 0.983 . S
H766 C737 0.982 . S
H767 C737 0.979 . S
H768 C737 0.977 . S
H769 C739 0.948 . S
H770 C741 0.947 . S
H771 C742 0.948 . S
H772 C748 0.982 . S
H773 C748 0.979 . S
H774 C748 0.977 . S
H775 C749 0.979 . S
H776 C749 0.980 . S
H777 C749 0.983 . S
H778 C722 0.947 . S
C779 C722 1.392 . S
C779 C723 1.419 . S
C779 H761 0.948 . S
C780 C781 1.396 . S
C780 C784 1.431 . S
C780 H822 0.907 1_556 S
C781 C780 1.396 . S
C781 C782 1.391 . S
C782 C781 1.391 . S
C782 H838 0.947 . S
C782 C839 1.392 . S
C783 C784 1.391 . S
C783 C787 1.397 . S
C783 C839 1.419 . S
C784 C780 1.431 . S
C784 C783 1.391 . S
C784 C785 1.399 . S
C785 C784 1.399 . S
C785 C788 1.396 . S
C785 C797 1.453 1_556 S
C785 C798 1.684 . S
H786 C810 0.948 . S
C787 C783 1.397 . S
C787 C788 1.394 . S
C787 C806 1.723 . S
C788 C785 1.396 . S
C788 C787 1.394 . S
C788 C818 1.723 . S
H789 C812 0.947 . S
H790 C813 0.948 . S
H791 C819 0.982 . S
H792 C820 0.979 . S
H793 C820 0.980 . S
H794 C820 0.983 . S
H795 C819 0.979 . S
H796 C819 0.977 . S
C797 C785 1.453 1_554 S
C797 H826 0.982 . S
C797 H827 0.979 . S
C797 H828 0.967 1_554 S
C798 C785 1.684 . S
C798 H823 0.979 . S
C798 H824 0.980 . S
C798 H825 0.998 . S
C799 C800 1.391 . S
C799 C804 1.391 . S
C799 H829 0.948 . S
C800 C799 1.391 . S
C800 C801 1.391 . S
C801 C800 1.391 . S
C801 C802 1.392 . S
C801 H830 0.947 . S
C802 C801 1.392 . S
C802 C803 1.419 . S
C802 H831 0.948 . S
C803 C802 1.419 . S
C803 C804 1.391 . S
C803 C807 1.397 . S
C804 C799 1.391 . S
C804 C803 1.391 . S
C804 C805 1.399 . S
C805 C804 1.399 . S
C805 C806 1.396 . S
C805 C808 1.453 . S
C805 C809 1.684 . S
C806 C787 1.723 . S
C806 C805 1.396 . S
C806 C807 1.394 . S
C807 C803 1.397 . S
C807 C806 1.394 . S
C807 C817 1.723 . S
C808 C805 1.453 . S
C808 H832 0.982 . S
C808 H833 0.979 . S
C808 H834 0.977 . S
C809 C805 1.684 . S
C809 H835 0.979 . S
C809 H836 0.980 . S
C809 H837 0.983 . S
C810 H786 0.948 . S
C810 C811 1.391 . S
C810 C815 1.391 . S
C811 C810 1.391 . S
C811 C812 1.391 . S
C812 H789 0.947 . S
C812 C811 1.391 . S
C812 C813 1.392 . S
C813 H790 0.948 . S
C813 C812 1.392 . S
C813 C814 1.419 . S
C814 C813 1.419 . S
C814 C815 1.391 . S
C814 C818 1.397 . S
C815 C810 1.391 . S
C815 C814 1.391 . S
C815 C816 1.399 . S
C816 C815 1.399 . S
C816 C817 1.396 . S
C816 C819 1.453 . S
C816 C820 1.684 . S
C817 C807 1.723 . S
C817 C816 1.396 . S
C817 C818 1.394 . S
C818 C788 1.723 . S
C818 C814 1.397 . S
C818 C817 1.394 . S
C819 H791 0.982 . S
C819 H795 0.979 . S
C819 H796 0.977 . S
C819 C816 1.453 . S
C820 H792 0.979 . S
C820 H793 0.980 . S
C820 H794 0.983 . S
C820 C816 1.684 . S
H821 C839 0.948 . S
H822 C780 0.907 1_554 S
H823 C798 0.979 . S
H824 C798 0.980 . S
H825 C798 0.998 . S
H826 C797 0.982 . S
H827 C797 0.979 . S
H828 C797 0.967 1_556 S
H829 C799 0.948 . S
H830 C801 0.947 . S
H831 C802 0.948 . S
H832 C808 0.982 . S
H833 C808 0.979 . S
H834 C808 0.977 . S
H835 C809 0.979 . S
H836 C809 0.980 . S
H837 C809 0.983 . S
H838 C782 0.947 . S
C839 C782 1.392 . S
C839 C783 1.419 . S
C839 H821 0.948 . S
C840 C841 1.391 . S
C840 C844 1.391 . S
C840 H882 0.948 . S
C841 C840 1.391 . S
C841 C842 1.391 . S
C842 C841 1.391 . S
C842 H898 0.947 . S
C842 C899 1.392 . S
C843 C844 1.391 . S
C843 C847 1.397 . S
C843 C899 1.419 . S
C844 C840 1.391 . S
C844 C843 1.391 . S
C844 C845 1.399 . S
C845 C844 1.399 . S
C845 C848 1.396 . S
C845 C857 1.453 . S
C845 C858 1.684 . S
H846 C870 0.948 . S
C847 C843 1.397 . S
C847 C848 1.394 . S
C847 C866 1.723 . S
C848 C845 1.396 . S
C848 C847 1.394 . S
C848 C878 1.723 . S
H849 C872 0.947 . S
H850 C873 0.948 . S
H851 C879 0.982 . S
H852 C880 0.979 . S
H853 C880 0.980 . S
H854 C880 0.983 . S
H855 C879 0.979 . S
H856 C879 0.977 . S
C857 C845 1.453 . S
C857 H886 0.982 . S
C857 H887 0.979 . S
C857 H888 0.977 . S
C858 C845 1.684 . S
C858 H883 0.979 . S
C858 H884 0.980 . S
C858 H885 0.983 . S
C859 C860 1.391 . S
C859 C864 1.391 . S
C859 H889 0.948 . S
C860 C859 1.391 . S
C860 C861 1.391 . S
C861 C860 1.391 . S
C861 C862 1.392 . S
C861 H890 0.947 . S
C862 C861 1.392 . S
C862 C863 1.419 . S
C862 H891 0.948 . S
C863 C862 1.419 . S
C863 C864 1.391 . S
C863 C867 1.397 . S
C864 C859 1.391 . S
C864 C863 1.391 . S
C864 C865 1.399 . S
C865 C864 1.399 . S
C865 C866 1.396 . S
C865 C868 1.453 . S
C865 C869 1.684 . S
C866 C847 1.723 . S
C866 C865 1.396 . S
C866 C867 1.394 . S
C867 C863 1.397 . S
C867 C866 1.394 . S
C867 C877 1.723 . S
C868 C865 1.453 . S
C868 H892 0.982 . S
C868 H893 0.979 . S
C868 H894 0.977 . S
C869 C865 1.684 . S
C869 H895 0.979 . S
C869 H896 0.980 . S
C869 H897 0.983 . S
C870 H846 0.948 . S
C870 C871 1.391 . S
C870 C875 1.391 . S
C871 C870 1.391 . S
C871 C872 1.391 . S
C872 H849 0.947 . S
C872 C871 1.391 . S
C872 C873 1.392 . S
C873 H850 0.948 . S
C873 C872 1.392 . S
C873 C874 1.419 . S
C874 C873 1.419 . S
C874 C875 1.391 . S
C874 C878 1.397 . S
C875 C870 1.391 . S
C875 C874 1.391 . S
C875 C876 1.399 . S
C876 C875 1.399 . S
C876 C877 1.396 . S
C876 C879 1.453 . S
C876 C880 1.684 . S
C877 C867 1.723 . S
C877 C876 1.396 . S
C877 C878 1.394 . S
C878 C848 1.723 . S
C878 C874 1.397 . S
C878 C877 1.394 . S
C879 H851 0.982 . S
C879 H855 0.979 . S
C879 H856 0.977 . S
C879 C876 1.453 . S
C880 H852 0.979 . S
C880 H853 0.980 . S
C880 H854 0.983 . S
C880 C876 1.684 . S
H881 C899 0.948 . S
H882 C840 0.948 . S
H883 C858 0.979 . S
H884 C858 0.980 . S
H885 C858 0.983 . S
H886 C857 0.982 . S
H887 C857 0.979 . S
H888 C857 0.977 . S
H889 C859 0.948 . S
H890 C861 0.947 . S
H891 C862 0.948 . S
H892 C868 0.982 . S
H893 C868 0.979 . S
H894 C868 0.977 . S
H895 C869 0.979 . S
H896 C869 0.980 . S
H897 C869 0.983 . S
H898 C842 0.947 . S
C899 C842 1.392 . S
C899 C843 1.419 . S
C899 H881 0.948 . S
C900 C901 1.391 1_545 S
C900 C904 1.391 . S
C900 H942 0.948 . S
C901 C900 1.391 1_565 S
C901 C902 1.391 . S
C902 C901 1.391 . S
C902 H958 0.947 . S
C902 C959 1.392 1_565 S
C903 C904 1.391 . S
C903 C907 1.397 . S
C903 C959 1.419 . S
C904 C900 1.391 . S
C904 C903 1.391 . S
C904 C905 1.399 . S
C905 C904 1.399 . S
C905 C908 1.396 . S
C905 C917 1.453 . S
C905 C918 1.684 1_556 S
H906 C930 0.948 . S
C907 C903 1.397 . S
C907 C908 1.394 . S
C907 C926 1.723 . S
C908 C905 1.396 . S
C908 C907 1.394 . S
C908 C938 1.723 . S
H909 C932 0.947 . S
H910 C933 0.948 . S
H911 C939 0.982 . S
H912 C940 0.979 . S
H913 C940 0.980 . S
H914 C940 0.983 . S
H915 C939 0.979 . S
H916 C939 0.977 . S
C917 C905 1.453 . S
C917 H946 0.982 . S
C917 H947 0.979 . S
C917 H948 0.977 . S
C918 C905 1.684 1_554 S
C918 H943 0.979 . S
C918 H944 0.980 . S
C918 H945 0.983 . S
C919 C920 1.391 . S
C919 C924 1.391 . S
C919 H949 0.948 . S
C920 C919 1.391 . S
C920 C921 1.391 . S
C921 C920 1.391 . S
C921 C922 1.392 . S
C921 H950 0.947 . S
C922 C921 1.392 . S
C922 C923 1.419 . S
C922 H951 0.948 . S
C923 C922 1.419 . S
C923 C924 1.391 . S
C923 C927 1.397 . S
C924 C919 1.391 . S
C924 C923 1.391 . S
C924 C925 1.399 . S
C925 C924 1.399 . S
C925 C926 1.396 . S
C925 C928 1.453 . S
C925 C929 1.684 1_545 S
C926 C907 1.723 . S
C926 C925 1.396 . S
C926 C927 1.394 . S
C927 C923 1.397 . S
C927 C926 1.394 . S
C927 C937 1.723 . S
C928 C925 1.453 . S
C928 H952 0.982 . S
C928 H953 0.979 . S
C928 H954 0.977 . S
C929 C925 1.684 1_565 S
C929 H955 0.979 . S
C929 H956 0.980 . S
C929 H957 0.983 . S
C930 H906 0.948 . S
C930 C931 1.391 1_556 S
C930 C935 1.391 . S
C931 C930 1.391 1_554 S
C931 C932 1.391 . S
C932 H909 0.947 . S
C932 C931 1.391 . S
C932 C933 1.392 . S
C933 H910 0.948 . S
C933 C932 1.392 . S
C933 C934 1.419 1_554 S
C934 C933 1.419 1_556 S
C934 C935 1.391 . S
C934 C938 1.397 . S
C935 C930 1.391 . S
C935 C934 1.391 . S
C935 C936 1.399 . S
C936 C935 1.399 . S
C936 C937 1.396 . S
C936 C939 1.453 . S
C936 C940 1.684 . S
C937 C927 1.723 . S
C937 C936 1.396 . S
C937 C938 1.394 . S
C938 C908 1.723 . S
C938 C934 1.397 . S
C938 C937 1.394 . S
C939 H911 0.982 . S
C939 H915 0.979 . S
C939 H916 0.977 . S
C939 C936 1.453 . S
C940 H912 0.979 . S
C940 H913 0.980 . S
C940 H914 0.983 . S
C940 C936 1.684 . S
H941 C959 0.939 1_565 S
H942 C900 0.948 . S
H943 C918 0.979 . S
H944 C918 0.980 . S
H945 C918 0.983 . S
H946 C917 0.982 . S
H947 C917 0.979 . S
H948 C917 0.977 . S
H949 C919 0.948 . S
H950 C921 0.947 . S
H951 C922 0.948 . S
H952 C928 0.982 . S
H953 C928 0.979 . S
H954 C928 0.977 . S
H955 C929 0.979 . S
H956 C929 0.980 . S
H957 C929 0.983 . S
H958 C902 0.947 . S
C959 C902 1.392 1_545 S
C959 C903 1.419 . S
C959 H941 0.939 1_545 S
C960 O961 1.160 1_554 S
C960 O967 1.185 . S
O961 C960 1.160 1_556 S
O962 Zn963 1.899 1_556 S
O962 C970 1.284 . S
Zn963 O962 1.899 1_554 S
Zn963 O964 2.032 . S
Zn963 O967 2.086 . S
Zn963 O972 1.977 . S
O964 Zn963 2.032 . S
O964 C968 1.278 . S
C965 O966 1.203 . S
C965 O972 1.267 . S
O966 C965 1.203 . S
O967 C960 1.185 . S
O967 Zn963 2.086 . S
C968 O964 1.278 . S
C968 O969 1.211 . S
O969 C968 1.211 . S
C970 O962 1.284 . S
C970 O971 1.273 . S
O971 C970 1.273 . S
O972 Zn963 1.977 . S
O972 C965 1.267 . S
C973 O974 1.160 . S
C973 O980 1.185 . S
O974 C973 1.160 . S
O975 Zn976 1.899 . S
O975 C983 1.284 . S
Zn976 O975 1.899 . S
Zn976 O977 2.032 . S
Zn976 O980 2.086 . S
Zn976 O985 1.977 . S
O977 Zn976 2.032 . S
O977 C981 1.278 . S
C978 O979 1.203 . S
C978 O985 1.267 . S
O979 C978 1.203 . S
O980 C973 1.185 . S
O980 Zn976 2.086 . S
C981 O977 1.278 . S
C981 O982 1.211 . S
O982 C981 1.211 . S
C983 O975 1.284 . S
C983 O984 1.273 . S
O984 C983 1.273 . S
O985 Zn976 1.977 . S
O985 C978 1.267 . S
C986 O987 1.160 1_554 S
C986 O993 1.185 . S
O987 C986 1.160 1_556 S
O988 Zn989 1.899 1_556 S
O988 C996 1.284 . S
Zn989 O988 1.899 1_554 S
Zn989 O990 2.032 1_554 S
Zn989 O993 2.086 . S
Zn989 O998 1.977 . S
O990 Zn989 2.032 1_556 S
O990 C994 1.278 . S
C991 O992 1.203 . S
C991 O998 1.267 . S
O992 C991 1.203 . S
O993 C986 1.185 . S
O993 Zn989 2.086 . S
C994 O990 1.278 . S
C994 O995 1.211 1_556 S
O995 C994 1.211 1_554 S
C996 O988 1.284 . S
C996 O997 1.273 . S
O997 C996 1.273 . S
O998 Zn989 1.977 . S
O998 C991 1.267 . S
C999 O1000 1.160 . S
C999 O1006 1.185 . S
O1000 C999 1.160 . S
O1001 Zn1002 1.899 . S
O1001 C1009 1.284 . S
Zn1002 O1001 1.899 . S
Zn1002 O1003 2.032 . S
Zn1002 O1006 2.086 . S
Zn1002 O1011 1.977 . S
O1003 Zn1002 2.032 . S
O1003 C1007 1.278 1_545 S
C1004 O1005 1.203 . S
C1004 O1011 1.267 . S
O1005 C1004 1.203 . S
O1006 C999 1.185 . S
O1006 Zn1002 2.086 . S
C1007 O1003 1.278 1_565 S
C1007 O1008 1.211 . S
O1008 C1007 1.211 . S
C1009 O1001 1.284 . S
C1009 O1010 1.273 1_545 S
O1010 C1009 1.273 1_565 S
O1011 Zn1002 1.977 . S
O1011 C1004 1.267 . S
C1012 O1013 1.160 . S
C1012 O1019 1.185 . S
O1013 C1012 1.160 . S
O1014 Zn1015 1.899 . S
O1014 C1022 1.284 . S
Zn1015 O1014 1.899 . S
Zn1015 O1016 2.032 . S
Zn1015 O1019 2.086 . S
Zn1015 O1024 1.977 . S
O1016 Zn1015 2.032 . S
O1016 C1020 1.278 . S
C1017 O1018 1.203 . S
C1017 O1024 1.267 . S
O1018 C1017 1.203 . S
O1019 C1012 1.185 . S
O1019 Zn1015 2.086 . S
C1020 O1016 1.278 . S
C1020 O1021 1.211 . S
O1021 C1020 1.211 . S
C1022 O1014 1.284 . S
C1022 O1023 1.273 . S
O1023 C1022 1.273 . S
O1024 Zn1015 1.977 . S
O1024 C1017 1.267 . S
C1025 O1026 1.160 . S
C1025 O1032 1.185 . S
O1026 C1025 1.160 . S
O1027 Zn1028 1.899 . S
O1027 C1035 1.284 . S
Zn1028 O1027 1.899 . S
Zn1028 O1029 2.032 . S
Zn1028 O1032 2.086 . S
Zn1028 O1037 1.977 . S
O1029 Zn1028 2.032 . S
O1029 C1033 1.278 . S
C1030 O1031 1.203 . S
C1030 O1037 1.267 . S
O1031 C1030 1.203 . S
O1032 C1025 1.185 . S
O1032 Zn1028 2.086 . S
C1033 O1029 1.278 . S
C1033 O1034 1.211 . S
O1034 C1033 1.211 . S
C1035 O1027 1.284 . S
C1035 O1036 1.273 . S
O1036 C1035 1.273 . S
O1037 Zn1028 1.977 . S
O1037 C1030 1.267 . S
C1038 O1039 1.160 . S
C1038 O1045 1.185 . S
O1039 C1038 1.160 . S
O1040 Zn1041 1.899 . S
O1040 C1048 1.284 . S
Zn1041 O1040 1.899 . S
Zn1041 O1042 2.032 . S
Zn1041 O1045 2.086 . S
Zn1041 O1050 1.977 . S
O1042 Zn1041 2.032 . S
O1042 C1046 1.278 . S
C1043 O1044 1.203 . S
C1043 O1050 1.267 . S
O1044 C1043 1.203 . S
O1045 C1038 1.185 . S
O1045 Zn1041 2.086 . S
C1046 O1042 1.278 . S
C1046 O1047 1.211 . S
O1047 C1046 1.211 . S
C1048 O1040 1.284 . S
C1048 O1049 1.273 . S
O1049 C1048 1.273 . S
O1050 Zn1041 1.977 . S
O1050 C1043 1.267 . S
C1051 O1052 1.160 . S
C1051 O1058 1.185 . S
O1052 C1051 1.160 . S
O1053 Zn1054 1.899 . S
O1053 C1061 1.284 1_565 S
Zn1054 O1053 1.899 . S
Zn1054 O1055 2.032 1_565 S
Zn1054 O1058 2.086 . S
Zn1054 O1063 1.977 . S
O1055 Zn1054 2.032 1_545 S
O1055 C1059 1.278 . S
C1056 O1057 1.203 1_565 S
C1056 O1063 1.267 . S
O1057 C1056 1.203 1_545 S
O1058 C1051 1.185 . S
O1058 Zn1054 2.086 . S
C1059 O1055 1.278 . S
C1059 O1060 1.211 . S
O1060 C1059 1.211 . S
C1061 O1053 1.284 1_545 S
C1061 O1062 1.273 . S
O1062 C1061 1.273 . S
O1063 Zn1054 1.977 . S
O1063 C1056 1.267 . S
C1064 O1065 1.160 1_455 S
C1064 O1071 1.185 . S
O1065 C1064 1.160 1_655 S
O1066 Zn1067 1.899 1_655 S
O1066 C1074 1.284 . S
Zn1067 O1066 1.899 1_455 S
Zn1067 O1068 2.015 1_455 S
Zn1067 O1071 2.086 . S
Zn1067 O1076 1.977 . S
O1068 Zn1067 2.015 1_655 S
O1068 C1072 1.274 1_655 S
C1069 O1070 1.203 . S
C1069 O1076 1.267 . S
O1070 C1069 1.203 . S
O1071 C1064 1.185 . S
O1071 Zn1067 2.086 . S
C1072 O1068 1.274 1_455 S
C1072 O1073 1.229 . S
O1073 C1072 1.229 . S
C1074 O1066 1.284 . S
C1074 O1075 1.273 . S
O1075 C1074 1.273 . S
O1076 Zn1067 1.977 . S
O1076 C1069 1.267 . S
C1077 O1078 1.160 . S
C1077 O1084 1.185 . S
O1078 C1077 1.160 . S
O1079 Zn1080 1.899 . S
O1079 C1087 1.284 . S
Zn1080 O1079 1.899 . S
Zn1080 O1081 2.032 . S
Zn1080 O1084 2.086 . S
Zn1080 O1089 1.977 . S
O1081 Zn1080 2.032 . S
O1081 C1085 1.278 . S
C1082 O1083 1.203 . S
C1082 O1089 1.267 . S
O1083 C1082 1.203 . S
O1084 C1077 1.185 . S
O1084 Zn1080 2.086 . S
C1085 O1081 1.278 . S
C1085 O1086 1.211 . S
O1086 C1085 1.211 . S
C1087 O1079 1.284 . S
C1087 O1088 1.273 . S
O1088 C1087 1.273 . S
O1089 Zn1080 1.977 . S
O1089 C1082 1.267 . S
C1090 O1091 1.160 1_455 S
C1090 O1097 1.185 . S
O1091 C1090 1.160 1_655 S
O1092 Zn1093 1.899 1_655 S
O1092 C1100 1.284 . S
Zn1093 O1092 1.899 1_455 S
Zn1093 O1094 2.032 1_455 S
Zn1093 O1097 2.086 . S
Zn1093 O1102 1.977 . S
O1094 Zn1093 2.032 1_655 S
O1094 C1098 1.277 1_655 S
C1095 O1096 1.203 . S
C1095 O1102 1.267 . S
O1096 C1095 1.203 . S
O1097 C1090 1.185 . S
O1097 Zn1093 2.086 . S
C1098 O1094 1.277 1_455 S
C1098 O1099 1.214 . S
O1099 C1098 1.214 . S
C1100 O1092 1.284 . S
C1100 O1101 1.273 . S
O1101 C1100 1.273 . S
O1102 Zn1093 1.977 . S
O1102 C1095 1.267 . S
C1103 O1104 1.160 . S
C1103 O1110 1.185 . S
O1104 C1103 1.160 . S
O1105 Zn1106 1.899 . S
O1105 C1113 1.284 . S
Zn1106 O1105 1.899 . S
Zn1106 O1107 2.032 . S
Zn1106 O1110 2.086 . S
Zn1106 O1115 1.977 . S
O1107 Zn1106 2.032 . S
O1107 C1111 1.278 . S
C1108 O1109 1.203 . S
C1108 O1115 1.267 . S
O1109 C1108 1.203 . S
O1110 C1103 1.185 . S
O1110 Zn1106 2.086 . S
C1111 O1107 1.278 . S
C1111 O1112 1.211 . S
O1112 C1111 1.211 . S
C1113 O1105 1.284 . S
C1113 O1114 1.273 . S
O1114 C1113 1.273 . S
O1115 Zn1106 1.977 . S
O1115 C1108 1.267 . S
C1116 C1117 1.349 . S
C1116 C1118 1.327 . S
C1116 H1141 0.950 . S
C1117 C1116 1.349 . S
C1117 C1133 1.349 . S
C1118 C1116 1.327 . S
C1118 C1137 1.429 . S
C1118 H1142 0.950 . S
C1119 C1136 1.574 . S
C1119 C1138 1.368 . S
C1119 H1143 0.949 . S
H1120 C1124 0.949 . S
C1121 C1122 1.349 . S
C1121 C1123 1.327 . S
C1121 H1144 0.950 . S
C1122 C1121 1.349 . S
C1122 C1134 1.349 . S
C1123 C1121 1.327 . S
C1123 C1139 1.429 . S
C1123 H1145 0.950 . S
C1124 H1120 0.949 . S
C1124 C1132 1.574 . S
C1124 C1140 1.368 . S
H1125 C1133 0.950 . S
H1126 C1131 0.950 . S
H1127 C1132 0.949 . S
H1128 C1134 0.950 . S
H1129 C1135 0.950 . S
H1130 C1136 0.949 . S
C1131 H1126 0.950 . S
C1131 C1133 1.327 . S
C1131 C1137 1.429 . S
C1132 C1124 1.574 . S
C1132 H1127 0.949 . S
C1132 C1138 1.368 . S
C1133 C1117 1.349 . S
C1133 H1125 0.950 . S
C1133 C1131 1.327 . S
C1134 C1122 1.349 . S
C1134 H1128 0.950 . S
C1134 C1135 1.327 . S
C1135 H1129 0.950 . S
C1135 C1134 1.327 . S
C1135 C1139 1.429 . S
C1136 C1119 1.574 . S
C1136 H1130 0.949 . S
C1136 C1140 1.368 . S
C1137 C1118 1.429 . S
C1137 C1131 1.429 . S
C1137 C1138 1.523 . S
C1138 C1119 1.368 . S
C1138 C1132 1.368 . S
C1138 C1137 1.523 . S
C1139 C1123 1.429 . S
C1139 C1135 1.429 . S
C1139 C1140 1.523 . S
C1140 C1124 1.368 . S
C1140 C1136 1.368 . S
C1140 C1139 1.523 . S
H1141 C1116 0.950 . S
H1142 C1118 0.950 . S
H1143 C1119 0.949 . S
H1144 C1121 0.950 . S
H1145 C1123 0.950 . S
C1146 C1147 1.349 . S
C1146 C1148 1.327 . S
C1146 H1171 0.950 . S
C1147 C1146 1.349 . S
C1147 C1163 1.349 . S
C1148 C1146 1.327 . S
C1148 C1167 1.429 . S
C1148 H1172 0.950 . S
C1149 C1166 1.574 . S
C1149 C1168 1.368 . S
C1149 H1173 0.949 . S
H1150 C1154 0.949 . S
C1151 C1152 1.349 . S
C1151 C1153 1.327 . S
C1151 H1174 0.950 . S
C1152 C1151 1.349 . S
C1152 C1164 1.349 . S
C1153 C1151 1.327 . S
C1153 C1169 1.429 . S
C1153 H1175 0.950 . S
C1154 H1150 0.949 . S
C1154 C1162 1.574 . S
C1154 C1170 1.368 . S
H1155 C1163 0.950 . S
H1156 C1161 0.950 . S
H1157 C1162 0.949 . S
H1158 C1164 0.950 . S
H1159 C1165 0.950 . S
H1160 C1166 0.949 . S
C1161 H1156 0.950 . S
C1161 C1163 1.327 . S
C1161 C1167 1.429 . S
C1162 C1154 1.574 . S
C1162 H1157 0.949 . S
C1162 C1168 1.368 . S
C1163 C1147 1.349 . S
C1163 H1155 0.950 . S
C1163 C1161 1.327 . S
C1164 C1152 1.349 . S
C1164 H1158 0.950 . S
C1164 C1165 1.327 . S
C1165 H1159 0.950 . S
C1165 C1164 1.327 . S
C1165 C1169 1.429 . S
C1166 C1149 1.574 . S
C1166 H1160 0.949 . S
C1166 C1170 1.368 . S
C1167 C1148 1.429 . S
C1167 C1161 1.429 . S
C1167 C1168 1.523 . S
C1168 C1149 1.368 . S
C1168 C1162 1.368 . S
C1168 C1167 1.523 . S
C1169 C1153 1.429 . S
C1169 C1165 1.429 . S
C1169 C1170 1.523 . S
C1170 C1154 1.368 . S
C1170 C1166 1.368 . S
C1170 C1169 1.523 . S
H1171 C1146 0.950 . S
H1172 C1148 0.950 . S
H1173 C1149 0.949 . S
H1174 C1151 0.950 . S
H1175 C1153 0.950 . S
C1176 C1177 1.349 . S
C1176 C1178 1.327 . S
C1176 H1201 0.950 . S
C1177 C1176 1.349 . S
C1177 C1193 1.349 . S
C1178 C1176 1.327 . S
C1178 C1197 1.429 . S
C1178 H1202 0.950 . S
C1179 C1196 1.574 . S
C1179 C1198 1.368 . S
C1179 H1203 0.949 . S
H1180 C1184 0.949 . S
C1181 C1182 1.349 . S
C1181 C1183 1.327 . S
C1181 H1204 0.950 . S
C1182 C1181 1.349 . S
C1182 C1194 1.349 . S
C1183 C1181 1.327 . S
C1183 C1199 1.429 . S
C1183 H1205 0.950 . S
C1184 H1180 0.949 . S
C1184 C1192 1.574 . S
C1184 C1200 1.368 . S
H1185 C1193 0.950 . S
H1186 C1191 0.950 . S
H1187 C1192 0.949 . S
H1188 C1194 0.950 . S
H1189 C1195 0.950 . S
H1190 C1196 0.949 . S
C1191 H1186 0.950 . S
C1191 C1193 1.327 . S
C1191 C1197 1.429 . S
C1192 C1184 1.574 . S
C1192 H1187 0.949 . S
C1192 C1198 1.368 . S
C1193 C1177 1.349 . S
C1193 H1185 0.950 . S
C1193 C1191 1.327 . S
C1194 C1182 1.349 . S
C1194 H1188 0.950 . S
C1194 C1195 1.327 . S
C1195 H1189 0.950 . S
C1195 C1194 1.327 . S
C1195 C1199 1.429 . S
C1196 C1179 1.574 . S
C1196 H1190 0.949 . S
C1196 C1200 1.368 . S
C1197 C1178 1.429 . S
C1197 C1191 1.429 . S
C1197 C1198 1.523 . S
C1198 C1179 1.368 . S
C1198 C1192 1.368 . S
C1198 C1197 1.523 . S
C1199 C1183 1.429 . S
C1199 C1195 1.429 . S
C1199 C1200 1.523 . S
C1200 C1184 1.368 . S
C1200 C1196 1.368 . S
C1200 C1199 1.523 . S
H1201 C1176 0.950 . S
H1202 C1178 0.950 . S
H1203 C1179 0.949 . S
H1204 C1181 0.950 . S
H1205 C1183 0.950 . S
C1206 C1207 1.349 . S
C1206 C1208 1.327 . S
C1206 H1231 0.950 . S
C1207 C1206 1.349 . S
C1207 C1223 1.349 . S
C1208 C1206 1.327 . S
C1208 C1227 1.429 . S
C1208 H1232 0.950 . S
C1209 C1226 1.574 1_565 S
C1209 C1228 1.368 . S
C1209 H1233 0.949 1_565 S
H1210 C1214 0.949 . S
C1211 C1212 1.349 . S
C1211 C1213 1.327 . S
C1211 H1234 0.950 . S
C1212 C1211 1.349 . S
C1212 C1224 1.363 . S
C1213 C1211 1.327 . S
C1213 C1229 1.429 . S
C1213 H1235 0.950 . S
C1214 H1210 0.949 . S
C1214 C1222 1.574 . S
C1214 C1230 1.368 . S
H1215 C1223 0.950 1_455 S
H1216 C1221 0.950 . S
H1217 C1222 0.949 . S
H1218 C1224 0.944 1_565 S
H1219 C1225 0.950 . S
H1220 C1226 0.949 . S
C1221 H1216 0.950 . S
C1221 C1223 1.327 . S
C1221 C1227 1.429 . S
C1222 C1214 1.574 . S
C1222 H1217 0.949 . S
C1222 C1228 1.368 . S
C1223 C1207 1.349 . S
C1223 H1215 0.950 1_655 S
C1223 C1221 1.327 . S
C1224 C1212 1.363 . S
C1224 H1218 0.944 1_545 S
C1224 C1225 1.320 1_545 S
C1225 H1219 0.950 . S
C1225 C1224 1.320 1_565 S
C1225 C1229 1.429 1_565 S
C1226 C1209 1.574 1_545 S
C1226 H1220 0.949 . S
C1226 C1230 1.368 1_545 S
C1227 C1208 1.429 . S
C1227 C1221 1.429 . S
C1227 C1228 1.523 . S
C1228 C1209 1.368 . S
C1228 C1222 1.368 . S
C1228 C1227 1.523 . S
C1229 C1213 1.429 . S
C1229 C1225 1.429 1_545 S
C1229 C1230 1.523 1_545 S
C1230 C1214 1.368 . S
C1230 C1226 1.368 1_565 S
C1230 C1229 1.523 1_565 S
H1231 C1206 0.950 . S
H1232 C1208 0.950 . S
H1233 C1209 0.949 1_545 S
H1234 C1211 0.950 . S
H1235 C1213 0.950 . S
C1236 C1237 1.349 . S
C1236 C1238 1.327 . S
C1236 H1261 0.950 . S
C1237 C1236 1.349 . S
C1237 C1253 1.349 . S
C1238 C1236 1.327 . S
C1238 C1257 1.429 . S
C1238 H1262 0.950 . S
C1239 C1256 1.574 . S
C1239 C1258 1.368 . S
C1239 H1263 0.949 . S
H1240 C1244 0.949 . S
C1241 C1242 1.349 . S
C1241 C1243 1.327 . S
C1241 H1264 0.950 . S
C1242 C1241 1.349 . S
C1242 C1254 1.349 . S
C1243 C1241 1.327 . S
C1243 C1259 1.429 . S
C1243 H1265 0.950 . S
C1244 H1240 0.949 . S
C1244 C1252 1.574 . S
C1244 C1260 1.368 . S
H1245 C1253 0.950 . S
H1246 C1251 0.950 . S
H1247 C1252 0.949 . S
H1248 C1254 0.950 . S
H1249 C1255 0.950 . S
H1250 C1256 0.949 . S
C1251 H1246 0.950 . S
C1251 C1253 1.327 . S
C1251 C1257 1.429 . S
C1252 C1244 1.574 . S
C1252 H1247 0.949 . S
C1252 C1258 1.368 . S
C1253 C1237 1.349 . S
C1253 H1245 0.950 . S
C1253 C1251 1.327 . S
C1254 C1242 1.349 . S
C1254 H1248 0.950 . S
C1254 C1255 1.327 . S
C1255 H1249 0.950 . S
C1255 C1254 1.327 . S
C1255 C1259 1.429 . S
C1256 C1239 1.574 . S
C1256 H1250 0.949 . S
C1256 C1260 1.368 . S
C1257 C1238 1.429 . S
C1257 C1251 1.429 . S
C1257 C1258 1.523 . S
C1258 C1239 1.368 . S
C1258 C1252 1.368 . S
C1258 C1257 1.523 . S
C1259 C1243 1.429 . S
C1259 C1255 1.429 . S
C1259 C1260 1.523 . S
C1260 C1244 1.368 . S
C1260 C1256 1.368 . S
C1260 C1259 1.523 . S
H1261 C1236 0.950 . S
H1262 C1238 0.950 . S
H1263 C1239 0.949 . S
H1264 C1241 0.950 . S
H1265 C1243 0.950 . S
C1266 C1267 1.349 . S
C1266 C1268 1.327 . S
C1266 H1291 0.950 . S
C1267 C1266 1.349 . S
C1267 C1283 1.349 . S
C1268 C1266 1.327 . S
C1268 C1287 1.429 . S
C1268 H1292 0.950 . S
C1269 C1286 1.574 . S
C1269 C1288 1.368 . S
C1269 H1293 0.949 . S
H1270 C1274 0.949 . S
C1271 C1272 1.349 . S
C1271 C1273 1.327 . S
C1271 H1294 0.950 . S
C1272 C1271 1.349 . S
C1272 C1284 1.349 . S
C1273 C1271 1.327 . S
C1273 C1289 1.429 . S
C1273 H1295 0.950 . S
C1274 H1270 0.949 . S
C1274 C1282 1.574 . S
C1274 C1290 1.368 . S
H1275 C1283 0.950 . S
H1276 C1281 0.950 . S
H1277 C1282 0.949 . S
H1278 C1284 0.950 . S
H1279 C1285 0.950 . S
H1280 C1286 0.949 . S
C1281 H1276 0.950 . S
C1281 C1283 1.327 . S
C1281 C1287 1.429 . S
C1282 C1274 1.574 . S
C1282 H1277 0.949 . S
C1282 C1288 1.368 . S
C1283 C1267 1.349 . S
C1283 H1275 0.950 . S
C1283 C1281 1.327 . S
C1284 C1272 1.349 . S
C1284 H1278 0.950 . S
C1284 C1285 1.327 . S
C1285 H1279 0.950 . S
C1285 C1284 1.327 . S
C1285 C1289 1.429 . S
C1286 C1269 1.574 . S
C1286 H1280 0.949 . S
C1286 C1290 1.368 . S
C1287 C1268 1.429 . S
C1287 C1281 1.429 . S
C1287 C1288 1.523 . S
C1288 C1269 1.368 . S
C1288 C1282 1.368 . S
C1288 C1287 1.523 . S
C1289 C1273 1.429 . S
C1289 C1285 1.429 . S
C1289 C1290 1.523 . S
C1290 C1274 1.368 . S
C1290 C1286 1.368 . S
C1290 C1289 1.523 . S
H1291 C1266 0.950 . S
H1292 C1268 0.950 . S
H1293 C1269 0.949 . S
H1294 C1271 0.950 . S
H1295 C1273 0.950 . S
C1296 C1297 1.349 . S
C1296 C1298 1.327 . S
C1296 H1321 0.950 . S
C1297 C1296 1.349 . S
C1297 C1313 1.349 . S
C1298 C1296 1.327 . S
C1298 C1317 1.429 . S
C1298 H1322 0.950 . S
C1299 C1316 1.574 . S
C1299 C1318 1.368 . S
C1299 H1323 0.949 . S
H1300 C1304 0.949 . S
C1301 C1302 1.349 . S
C1301 C1303 1.327 . S
C1301 H1324 0.950 . S
C1302 C1301 1.349 . S
C1302 C1314 1.349 . S
C1303 C1301 1.327 . S
C1303 C1319 1.429 . S
C1303 H1325 0.950 . S
C1304 H1300 0.949 . S
C1304 C1312 1.574 . S
C1304 C1320 1.368 . S
H1305 C1313 0.950 . S
H1306 C1311 0.950 . S
H1307 C1312 0.949 . S
H1308 C1314 0.950 . S
H1309 C1315 0.950 . S
H1310 C1316 0.949 . S
C1311 H1306 0.950 . S
C1311 C1313 1.327 . S
C1311 C1317 1.429 . S
C1312 C1304 1.574 . S
C1312 H1307 0.949 . S
C1312 C1318 1.368 . S
C1313 C1297 1.349 . S
C1313 H1305 0.950 . S
C1313 C1311 1.327 . S
C1314 C1302 1.349 . S
C1314 H1308 0.950 . S
C1314 C1315 1.327 . S
C1315 H1309 0.950 . S
C1315 C1314 1.327 . S
C1315 C1319 1.429 . S
C1316 C1299 1.574 . S
C1316 H1310 0.949 . S
C1316 C1320 1.368 . S
C1317 C1298 1.429 . S
C1317 C1311 1.429 . S
C1317 C1318 1.523 . S
C1318 C1299 1.368 . S
C1318 C1312 1.368 . S
C1318 C1317 1.523 . S
C1319 C1303 1.429 . S
C1319 C1315 1.429 . S
C1319 C1320 1.523 . S
C1320 C1304 1.368 . S
C1320 C1316 1.368 . S
C1320 C1319 1.523 . S
H1321 C1296 0.950 . S
H1322 C1298 0.950 . S
H1323 C1299 0.949 . S
H1324 C1301 0.950 . S
H1325 C1303 0.950 . S
C1326 C1327 1.349 . S
C1326 C1328 1.327 . S
C1326 H1351 0.950 . S
C1327 C1326 1.349 . S
C1327 C1343 1.349 . S
C1328 C1326 1.327 . S
C1328 C1347 1.429 . S
C1328 H1352 0.950 . S
C1329 C1346 1.578 . S
C1329 C1348 1.329 1_545 S
C1329 H1353 0.982 . S
H1330 C1334 0.949 . S
C1331 C1332 1.349 1_545 S
C1331 C1333 1.327 . S
C1331 H1354 0.950 . S
C1332 C1331 1.349 1_565 S
C1332 C1344 1.349 . S
C1333 C1331 1.327 . S
C1333 C1349 1.429 1_545 S
C1333 H1355 0.950 . S
C1334 H1330 0.949 . S
C1334 C1342 1.574 . S
C1334 C1350 1.368 . S
H1335 C1343 0.950 1_545 S
H1336 C1341 0.950 1_545 S
H1337 C1342 0.949 . S
H1338 C1344 0.950 . S
H1339 C1345 0.950 . S
H1340 C1346 0.949 . S
C1341 H1336 0.950 1_565 S
C1341 C1343 1.327 . S
C1341 C1347 1.429 . S
C1342 C1334 1.574 . S
C1342 H1337 0.949 . S
C1342 C1348 1.368 . S
C1343 C1327 1.349 . S
C1343 H1335 0.950 1_565 S
C1343 C1341 1.327 . S
C1344 C1332 1.349 . S
C1344 H1338 0.950 . S
C1344 C1345 1.327 . S
C1345 H1339 0.950 . S
C1345 C1344 1.327 . S
C1345 C1349 1.429 . S
C1346 C1329 1.578 . S
C1346 H1340 0.949 . S
C1346 C1350 1.368 1_545 S
C1347 C1328 1.429 . S
C1347 C1341 1.429 . S
C1347 C1348 1.523 . S
C1348 C1329 1.329 1_565 S
C1348 C1342 1.368 . S
C1348 C1347 1.523 . S
C1349 C1333 1.429 1_565 S
C1349 C1345 1.429 . S
C1349 C1350 1.523 . S
C1350 C1334 1.368 . S
C1350 C1346 1.368 1_565 S
C1350 C1349 1.523 . S
H1351 C1326 0.950 . S
H1352 C1328 0.950 . S
H1353 C1329 0.982 . S
H1354 C1331 0.950 . S
H1355 C1333 0.950 . S
C1356 C1357 1.349 . S
C1356 C1358 1.327 . S
C1356 H1381 0.950 . S
C1357 C1356 1.349 . S
C1357 C1373 1.349 . S
C1358 C1356 1.327 . S
C1358 C1377 1.429 . S
C1358 H1382 0.950 . S
C1359 C1376 1.574 . S
C1359 C1378 1.368 . S
C1359 H1383 0.949 . S
H1360 C1364 0.949 . S
C1361 C1362 1.349 . S
C1361 C1363 1.327 . S
C1361 H1384 0.950 . S
C1362 C1361 1.349 . S
C1362 C1374 1.349 . S
C1363 C1361 1.327 . S
C1363 C1379 1.429 . S
C1363 H1385 0.950 . S
C1364 H1360 0.949 . S
C1364 C1372 1.574 . S
C1364 C1380 1.368 . S
H1365 C1373 0.950 . S
H1366 C1371 0.950 . S
H1367 C1372 0.949 . S
H1368 C1374 0.950 . S
H1369 C1375 0.950 . S
H1370 C1376 0.949 . S
C1371 H1366 0.950 . S
C1371 C1373 1.327 . S
C1371 C1377 1.429 . S
C1372 C1364 1.574 . S
C1372 H1367 0.949 . S
C1372 C1378 1.368 . S
C1373 C1357 1.349 . S
C1373 H1365 0.950 . S
C1373 C1371 1.327 . S
C1374 C1362 1.349 . S
C1374 H1368 0.950 . S
C1374 C1375 1.327 . S
C1375 H1369 0.950 . S
C1375 C1374 1.327 . S
C1375 C1379 1.429 . S
C1376 C1359 1.574 . S
C1376 H1370 0.949 . S
C1376 C1380 1.368 . S
C1377 C1358 1.429 . S
C1377 C1371 1.429 . S
C1377 C1378 1.523 . S
C1378 C1359 1.368 . S
C1378 C1372 1.368 . S
C1378 C1377 1.523 . S
C1379 C1363 1.429 . S
C1379 C1375 1.429 . S
C1379 C1380 1.523 . S
C1380 C1364 1.368 . S
C1380 C1376 1.368 . S
C1380 C1379 1.523 . S
H1381 C1356 0.950 . S
H1382 C1358 0.950 . S
H1383 C1359 0.949 . S
H1384 C1361 0.950 . S
H1385 C1363 0.950 . S
C1386 C1387 1.349 . S
C1386 C1388 1.327 . S
C1386 H1411 0.950 . S
C1387 C1386 1.349 . S
C1387 C1403 1.349 . S
C1388 C1386 1.327 . S
C1388 C1407 1.429 . S
C1388 H1412 0.950 . S
C1389 C1406 1.574 . S
C1389 C1408 1.368 . S
C1389 H1413 0.949 . S
H1390 C1394 0.949 . S
C1391 C1392 1.349 . S
C1391 C1393 1.327 . S
C1391 H1414 0.950 . S
C1392 C1391 1.349 . S
C1392 C1404 1.349 . S
C1393 C1391 1.327 . S
C1393 C1409 1.429 . S
C1393 H1415 0.950 . S
C1394 H1390 0.949 . S
C1394 C1402 1.574 . S
C1394 C1410 1.368 . S
H1395 C1403 0.950 . S
H1396 C1401 0.950 . S
H1397 C1402 0.949 . S
H1398 C1404 0.950 . S
H1399 C1405 0.950 . S
H1400 C1406 0.949 . S
C1401 H1396 0.950 . S
C1401 C1403 1.327 . S
C1401 C1407 1.429 . S
C1402 C1394 1.574 . S
C1402 H1397 0.949 . S
C1402 C1408 1.368 . S
C1403 C1387 1.349 . S
C1403 H1395 0.950 . S
C1403 C1401 1.327 . S
C1404 C1392 1.349 . S
C1404 H1398 0.950 . S
C1404 C1405 1.327 . S
C1405 H1399 0.950 . S
C1405 C1404 1.327 . S
C1405 C1409 1.429 . S
C1406 C1389 1.574 . S
C1406 H1400 0.949 . S
C1406 C1410 1.368 . S
C1407 C1388 1.429 . S
C1407 C1401 1.429 . S
C1407 C1408 1.523 . S
C1408 C1389 1.368 . S
C1408 C1402 1.368 . S
C1408 C1407 1.523 . S
C1409 C1393 1.429 . S
C1409 C1405 1.429 . S
C1409 C1410 1.523 . S
C1410 C1394 1.368 . S
C1410 C1406 1.368 . S
C1410 C1409 1.523 . S
H1411 C1386 0.950 . S
H1412 C1388 0.950 . S
H1413 C1389 0.949 . S
H1414 C1391 0.950 . S
H1415 C1393 0.950 . S
C1416 C1417 1.349 . S
C1416 C1418 1.327 . S
C1416 H1441 0.950 . S
C1417 C1416 1.349 . S
C1417 C1433 1.349 . S
C1418 C1416 1.327 . S
C1418 C1437 1.429 . S
C1418 H1442 0.950 . S
C1419 C1436 1.574 . S
C1419 C1438 1.368 . S
C1419 H1443 0.949 . S
H1420 C1424 0.949 . S
C1421 C1422 1.349 . S
C1421 C1423 1.327 . S
C1421 H1444 0.950 . S
C1422 C1421 1.349 . S
C1422 C1434 1.349 . S
C1423 C1421 1.327 . S
C1423 C1439 1.429 . S
C1423 H1445 0.950 . S
C1424 H1420 0.949 . S
C1424 C1432 1.574 . S
C1424 C1440 1.368 . S
H1425 C1433 0.950 . S
H1426 C1431 0.950 . S
H1427 C1432 0.949 . S
H1428 C1434 0.950 . S
H1429 C1435 0.950 . S
H1430 C1436 0.949 . S
C1431 H1426 0.950 . S
C1431 C1433 1.327 . S
C1431 C1437 1.429 . S
C1432 C1424 1.574 . S
C1432 H1427 0.949 . S
C1432 C1438 1.368 . S
C1433 C1417 1.349 . S
C1433 H1425 0.950 . S
C1433 C1431 1.327 . S
C1434 C1422 1.349 . S
C1434 H1428 0.950 . S
C1434 C1435 1.327 . S
C1435 H1429 0.950 . S
C1435 C1434 1.327 . S
C1435 C1439 1.429 . S
C1436 C1419 1.574 . S
C1436 H1430 0.949 . S
C1436 C1440 1.368 . S
C1437 C1418 1.429 . S
C1437 C1431 1.429 . S
C1437 C1438 1.523 . S
C1438 C1419 1.368 . S
C1438 C1432 1.368 . S
C1438 C1437 1.523 . S
C1439 C1423 1.429 . S
C1439 C1435 1.429 . S
C1439 C1440 1.523 . S
C1440 C1424 1.368 . S
C1440 C1436 1.368 . S
C1440 C1439 1.523 . S
H1441 C1416 0.950 . S
H1442 C1418 0.950 . S
H1443 C1419 0.949 . S
H1444 C1421 0.950 . S
H1445 C1423 0.950 . S
C1446 C1447 1.349 . S
C1446 C1448 1.327 . S
C1446 H1471 0.950 . S
C1447 C1446 1.349 . S
C1447 C1463 1.349 . S
C1448 C1446 1.327 . S
C1448 C1467 1.429 . S
C1448 H1472 0.950 . S
C1449 C1466 1.574 . S
C1449 C1468 1.368 . S
C1449 H1473 0.949 . S
H1450 C1454 0.949 . S
C1451 C1452 1.349 . S
C1451 C1453 1.327 . S
C1451 H1474 0.950 . S
C1452 C1451 1.349 . S
C1452 C1464 1.349 . S
C1453 C1451 1.327 . S
C1453 C1469 1.429 . S
C1453 H1475 0.950 . S
C1454 H1450 0.949 . S
C1454 C1462 1.574 . S
C1454 C1470 1.368 . S
H1455 C1463 0.950 . S
H1456 C1461 0.950 . S
H1457 C1462 0.949 . S
H1458 C1464 0.950 . S
H1459 C1465 0.950 . S
H1460 C1466 0.949 . S
C1461 H1456 0.950 . S
C1461 C1463 1.327 . S
C1461 C1467 1.429 . S
C1462 C1454 1.574 . S
C1462 H1457 0.949 . S
C1462 C1468 1.368 . S
C1463 C1447 1.349 . S
C1463 H1455 0.950 . S
C1463 C1461 1.327 . S
C1464 C1452 1.349 . S
C1464 H1458 0.950 . S
C1464 C1465 1.327 . S
C1465 H1459 0.950 . S
C1465 C1464 1.327 . S
C1465 C1469 1.429 . S
C1466 C1449 1.574 . S
C1466 H1460 0.949 . S
C1466 C1470 1.368 . S
C1467 C1448 1.429 . S
C1467 C1461 1.429 . S
C1467 C1468 1.523 . S
C1468 C1449 1.368 . S
C1468 C1462 1.368 . S
C1468 C1467 1.523 . S
C1469 C1453 1.429 . S
C1469 C1465 1.429 . S
C1469 C1470 1.523 . S
C1470 C1454 1.368 . S
C1470 C1466 1.368 . S
C1470 C1469 1.523 . S
H1471 C1446 0.950 . S
H1472 C1448 0.950 . S
H1473 C1449 0.949 . S
H1474 C1451 0.950 . S
H1475 C1453 0.950 . S
C1476 C1477 1.349 . S
C1476 C1478 1.327 . S
C1476 H1501 0.950 . S
C1477 C1476 1.349 . S
C1477 C1493 1.349 . S
C1478 C1476 1.327 . S
C1478 C1497 1.429 . S
C1478 H1502 0.950 . S
C1479 C1496 1.574 . S
C1479 C1498 1.368 . S
C1479 H1503 0.949 . S
H1480 C1484 0.949 . S
C1481 C1482 1.349 . S
C1481 C1483 1.327 . S
C1481 H1504 0.950 . S
C1482 C1481 1.349 . S
C1482 C1494 1.349 . S
C1483 C1481 1.327 . S
C1483 C1499 1.429 . S
C1483 H1505 0.950 . S
C1484 H1480 0.949 . S
C1484 C1492 1.574 . S
C1484 C1500 1.368 . S
H1485 C1493 0.950 . S
H1486 C1491 0.950 . S
H1487 C1492 0.949 . S
H1488 C1494 0.950 . S
H1489 C1495 0.950 . S
H1490 C1496 0.949 . S
C1491 H1486 0.950 . S
C1491 C1493 1.327 . S
C1491 C1497 1.429 . S
C1492 C1484 1.574 . S
C1492 H1487 0.949 . S
C1492 C1498 1.368 . S
C1493 C1477 1.349 . S
C1493 H1485 0.950 . S
C1493 C1491 1.327 . S
C1494 C1482 1.349 . S
C1494 H1488 0.950 . S
C1494 C1495 1.327 . S
C1495 H1489 0.950 . S
C1495 C1494 1.327 . S
C1495 C1499 1.429 . S
C1496 C1479 1.574 . S
C1496 H1490 0.949 . S
C1496 C1500 1.368 . S
C1497 C1478 1.429 . S
C1497 C1491 1.429 . S
C1497 C1498 1.523 . S
C1498 C1479 1.368 . S
C1498 C1492 1.368 . S
C1498 C1497 1.523 . S
C1499 C1483 1.429 . S
C1499 C1495 1.429 . S
C1499 C1500 1.523 . S
C1500 C1484 1.368 . S
C1500 C1496 1.368 . S
C1500 C1499 1.523 . S
H1501 C1476 0.950 . S
H1502 C1478 0.950 . S
H1503 C1479 0.949 . S
H1504 C1481 0.950 . S
H1505 C1483 0.950 . S
C1506 C1507 1.349 . S
C1506 C1508 1.327 . S
C1506 H1531 0.950 . S
C1507 C1506 1.349 . S
C1507 C1523 1.349 . S
C1508 C1506 1.327 . S
C1508 C1527 1.429 . S
C1508 H1532 0.950 . S
C1509 C1526 1.574 . S
C1509 C1528 1.368 . S
C1509 H1533 0.949 . S
H1510 C1514 0.924 1_655 S
C1511 C1512 1.349 . S
C1511 C1513 1.327 . S
C1511 H1534 0.950 . S
C1512 C1511 1.349 . S
C1512 C1524 1.387 . S
C1513 C1511 1.327 . S
C1513 C1529 1.429 . S
C1513 H1535 0.950 . S
C1514 H1510 0.924 1_455 S
C1514 C1522 1.574 . S
C1514 C1530 1.368 . S
H1515 C1523 0.950 . S
H1516 C1521 0.950 . S
H1517 C1522 0.949 . S
H1518 C1524 0.908 1_655 S
H1519 C1525 0.950 1_655 S
H1520 C1526 0.949 . S
C1521 H1516 0.950 . S
C1521 C1523 1.327 . S
C1521 C1527 1.429 . S
C1522 C1514 1.574 . S
C1522 H1517 0.949 . S
C1522 C1528 1.368 . S
C1523 C1507 1.349 . S
C1523 H1515 0.950 . S
C1523 C1521 1.327 . S
C1524 C1512 1.387 . S
C1524 H1518 0.908 1_455 S
C1524 C1525 1.335 . S
C1525 H1519 0.950 1_455 S
C1525 C1524 1.335 . S
C1525 C1529 1.429 . S
C1526 C1509 1.574 . S
C1526 H1520 0.949 . S
C1526 C1530 1.368 . S
C1527 C1508 1.429 . S
C1527 C1521 1.429 . S
C1527 C1528 1.523 . S
C1528 C1509 1.368 . S
C1528 C1522 1.368 . S
C1528 C1527 1.523 . S
C1529 C1513 1.429 . S
C1529 C1525 1.429 . S
C1529 C1530 1.523 . S
C1530 C1514 1.368 . S
C1530 C1526 1.368 . S
C1530 C1529 1.523 . S
H1531 C1506 0.950 . S
H1532 C1508 0.950 . S
H1533 C1509 0.949 . S
H1534 C1511 0.950 . S
H1535 C1513 0.950 . S
C1536 C1537 1.349 . S
C1536 C1538 1.327 . S
C1536 H1561 0.950 . S
C1537 C1536 1.349 . S
C1537 C1553 1.349 . S
C1538 C1536 1.327 . S
C1538 C1557 1.429 . S
C1538 H1562 0.950 . S
C1539 C1556 1.574 . S
C1539 C1558 1.368 . S
C1539 H1563 0.949 . S
H1540 C1544 0.949 . S
C1541 C1542 1.349 . S
C1541 C1543 1.327 . S
C1541 H1564 0.950 . S
C1542 C1541 1.349 . S
C1542 C1554 1.349 . S
C1543 C1541 1.327 . S
C1543 C1559 1.429 . S
C1543 H1565 0.950 . S
C1544 H1540 0.949 . S
C1544 C1552 1.574 . S
C1544 C1560 1.368 . S
H1545 C1553 0.950 . S
H1546 C1551 0.950 . S
H1547 C1552 0.949 . S
H1548 C1554 0.950 . S
H1549 C1555 0.950 . S
H1550 C1556 0.949 . S
C1551 H1546 0.950 . S
C1551 C1553 1.327 . S
C1551 C1557 1.429 . S
C1552 C1544 1.574 . S
C1552 H1547 0.949 . S
C1552 C1558 1.368 . S
C1553 C1537 1.349 . S
C1553 H1545 0.950 . S
C1553 C1551 1.327 . S
C1554 C1542 1.349 . S
C1554 H1548 0.950 . S
C1554 C1555 1.327 . S
C1555 H1549 0.950 . S
C1555 C1554 1.327 . S
C1555 C1559 1.429 . S
C1556 C1539 1.574 . S
C1556 H1550 0.949 . S
C1556 C1560 1.368 . S
C1557 C1538 1.429 . S
C1557 C1551 1.429 . S
C1557 C1558 1.523 . S
C1558 C1539 1.368 . S
C1558 C1552 1.368 . S
C1558 C1557 1.523 . S
C1559 C1543 1.429 . S
C1559 C1555 1.429 . S
C1559 C1560 1.523 . S
C1560 C1544 1.368 . S
C1560 C1556 1.368 . S
C1560 C1559 1.523 . S
H1561 C1536 0.950 . S
H1562 C1538 0.950 . S
H1563 C1539 0.949 . S
H1564 C1541 0.950 . S
H1565 C1543 0.950 . S
C1566 C1567 1.349 . S
C1566 C1568 1.327 . S
C1566 H1591 0.950 . S
C1567 C1566 1.349 . S
C1567 C1583 1.349 . S
C1568 C1566 1.327 . S
C1568 C1587 1.429 . S
C1568 H1592 0.950 . S
C1569 C1586 1.574 . S
C1569 C1588 1.368 . S
C1569 H1593 0.949 . S
H1570 C1574 0.949 . S
C1571 C1572 1.349 . S
C1571 C1573 1.327 . S
C1571 H1594 0.950 . S
C1572 C1571 1.349 . S
C1572 C1584 1.356 . S
C1573 C1571 1.327 . S
C1573 C1589 1.429 . S
C1573 H1595 0.950 . S
C1574 H1570 0.949 . S
C1574 C1582 1.574 . S
C1574 C1590 1.368 . S
H1575 C1583 0.950 . S
H1576 C1581 0.950 . S
H1577 C1582 0.949 . S
H1578 C1584 0.941 1_455 S
H1579 C1585 0.939 1_455 S
H1580 C1586 0.949 . S
C1581 H1576 0.950 . S
C1581 C1583 1.327 . S
C1581 C1587 1.429 . S
C1582 C1574 1.574 . S
C1582 H1577 0.949 . S
C1582 C1588 1.368 . S
C1583 C1567 1.349 . S
C1583 H1575 0.950 . S
C1583 C1581 1.327 . S
C1584 C1572 1.356 . S
C1584 H1578 0.941 1_655 S
C1584 C1585 1.330 . S
C1585 H1579 0.939 1_655 S
C1585 C1584 1.330 . S
C1585 C1589 1.429 . S
C1586 C1569 1.574 . S
C1586 H1580 0.949 . S
C1586 C1590 1.368 . S
C1587 C1568 1.429 . S
C1587 C1581 1.429 . S
C1587 C1588 1.523 . S
C1588 C1569 1.368 . S
C1588 C1582 1.368 . S
C1588 C1587 1.523 . S
C1589 C1573 1.429 . S
C1589 C1585 1.429 . S
C1589 C1590 1.523 . S
C1590 C1574 1.368 . S
C1590 C1586 1.368 . S
C1590 C1589 1.523 . S
H1591 C1566 0.950 . S
H1592 C1568 0.950 . S
H1593 C1569 0.949 . S
H1594 C1571 0.950 . S
H1595 C1573 0.950 . S
C1596 C1597 1.349 . S
C1596 C1598 1.327 . S
C1596 H1621 0.950 . S
C1597 C1596 1.349 . S
C1597 C1613 1.349 . S
C1598 C1596 1.327 . S
C1598 C1617 1.429 . S
C1598 H1622 0.950 . S
C1599 C1616 1.574 . S
C1599 C1618 1.368 . S
C1599 H1623 0.949 . S
H1600 C1604 0.949 . S
C1601 C1602 1.349 . S
C1601 C1603 1.327 . S
C1601 H1624 0.950 . S
C1602 C1601 1.349 . S
C1602 C1614 1.349 . S
C1603 C1601 1.327 . S
C1603 C1619 1.429 . S
C1603 H1625 0.950 . S
C1604 H1600 0.949 . S
C1604 C1612 1.574 . S
C1604 C1620 1.368 . S
H1605 C1613 0.950 . S
H1606 C1611 0.950 . S
H1607 C1612 0.949 . S
H1608 C1614 0.950 . S
H1609 C1615 0.950 . S
H1610 C1616 0.949 . S
C1611 H1606 0.950 . S
C1611 C1613 1.327 . S
C1611 C1617 1.429 . S
C1612 C1604 1.574 . S
C1612 H1607 0.949 . S
C1612 C1618 1.368 . S
C1613 C1597 1.349 . S
C1613 H1605 0.950 . S
C1613 C1611 1.327 . S
C1614 C1602 1.349 . S
C1614 H1608 0.950 . S
C1614 C1615 1.327 . S
C1615 H1609 0.950 . S
C1615 C1614 1.327 . S
C1615 C1619 1.429 . S
C1616 C1599 1.574 . S
C1616 H1610 0.949 . S
C1616 C1620 1.368 . S
C1617 C1598 1.429 . S
C1617 C1611 1.429 . S
C1617 C1618 1.523 . S
C1618 C1599 1.368 . S
C1618 C1612 1.368 . S
C1618 C1617 1.523 . S
C1619 C1603 1.429 . S
C1619 C1615 1.429 . S
C1619 C1620 1.523 . S
C1620 C1604 1.368 . S
C1620 C1616 1.368 . S
C1620 C1619 1.523 . S
H1621 C1596 0.950 . S
H1622 C1598 0.950 . S
H1623 C1599 0.949 . S
H1624 C1601 0.950 . S
H1625 C1603 0.950 . S
C1626 C1627 1.349 . S
C1626 C1628 1.327 . S
C1626 H1651 0.950 . S
C1627 C1626 1.349 . S
C1627 C1643 1.349 . S
C1628 C1626 1.327 . S
C1628 C1647 1.429 . S
C1628 H1652 0.950 . S
C1629 C1646 1.574 . S
C1629 C1648 1.368 . S
C1629 H1653 0.949 . S
H1630 C1634 0.949 . S
C1631 C1632 1.349 . S
C1631 C1633 1.327 . S
C1631 H1654 0.950 . S
C1632 C1631 1.349 . S
C1632 C1644 1.349 . S
C1633 C1631 1.327 . S
C1633 C1649 1.429 . S
C1633 H1655 0.950 . S
C1634 H1630 0.949 . S
C1634 C1642 1.574 . S
C1634 C1650 1.368 . S
H1635 C1643 0.950 . S
H1636 C1641 0.950 . S
H1637 C1642 0.949 . S
H1638 C1644 0.950 . S
H1639 C1645 0.950 . S
H1640 C1646 0.949 . S
C1641 H1636 0.950 . S
C1641 C1643 1.327 . S
C1641 C1647 1.429 . S
C1642 C1634 1.574 . S
C1642 H1637 0.949 . S
C1642 C1648 1.368 . S
C1643 C1627 1.349 . S
C1643 H1635 0.950 . S
C1643 C1641 1.327 . S
C1644 C1632 1.349 . S
C1644 H1638 0.950 . S
C1644 C1645 1.327 . S
C1645 H1639 0.950 . S
C1645 C1644 1.327 . S
C1645 C1649 1.429 . S
C1646 C1629 1.574 . S
C1646 H1640 0.949 . S
C1646 C1650 1.368 . S
C1647 C1628 1.429 . S
C1647 C1641 1.429 . S
C1647 C1648 1.523 . S
C1648 C1629 1.368 . S
C1648 C1642 1.368 . S
C1648 C1647 1.523 . S
C1649 C1633 1.429 . S
C1649 C1645 1.429 . S
C1649 C1650 1.523 . S
C1650 C1634 1.368 . S
C1650 C1646 1.368 . S
C1650 C1649 1.523 . S
H1651 C1626 0.950 . S
H1652 C1628 0.950 . S
H1653 C1629 0.949 . S
H1654 C1631 0.950 . S
H1655 C1633 0.950 . S
C1656 C1657 1.349 . S
C1656 C1658 1.327 . S
C1656 H1681 0.950 . S
C1657 C1656 1.349 . S
C1657 C1673 1.349 . S
C1658 C1656 1.327 . S
C1658 C1677 1.429 . S
C1658 H1682 0.950 . S
C1659 C1676 1.566 1_556 S
C1659 C1678 1.401 . S
C1659 H1683 0.929 1_556 S
H1660 C1664 0.949 . S
C1661 C1662 1.349 . S
C1661 C1663 1.327 . S
C1661 H1684 0.950 . S
C1662 C1661 1.349 . S
C1662 C1674 1.349 1_554 S
C1663 C1661 1.327 . S
C1663 C1679 1.429 1_554 S
C1663 H1685 0.950 . S
C1664 H1660 0.949 . S
C1664 C1672 1.574 . S
C1664 C1680 1.368 . S
H1665 C1673 0.950 1_545 S
H1666 C1671 0.927 1_554 S
H1667 C1672 0.949 . S
H1668 C1674 0.950 . S
H1669 C1675 0.950 . S
H1670 C1676 0.949 . S
C1671 H1666 0.927 1_556 S
C1671 C1673 1.327 . S
C1671 C1677 1.429 . S
C1672 C1664 1.574 . S
C1672 H1667 0.949 . S
C1672 C1678 1.368 . S
C1673 C1657 1.349 . S
C1673 H1665 0.950 1_565 S
C1673 C1671 1.327 . S
C1674 C1662 1.349 1_556 S
C1674 H1668 0.950 . S
C1674 C1675 1.327 . S
C1675 H1669 0.950 . S
C1675 C1674 1.327 . S
C1675 C1679 1.429 . S
C1676 C1659 1.566 1_554 S
C1676 H1670 0.949 . S
C1676 C1680 1.368 1_554 S
C1677 C1658 1.429 . S
C1677 C1671 1.429 . S
C1677 C1678 1.523 . S
C1678 C1659 1.401 . S
C1678 C1672 1.368 . S
C1678 C1677 1.523 . S
C1679 C1663 1.429 1_556 S
C1679 C1675 1.429 . S
C1679 C1680 1.523 . S
C1680 C1664 1.368 . S
C1680 C1676 1.368 1_556 S
C1680 C1679 1.523 . S
H1681 C1656 0.950 . S
H1682 C1658 0.950 . S
H1683 C1659 0.929 1_554 S
H1684 C1661 0.950 . S
H1685 C1663 0.950 . S
C1686 C1687 1.349 . S
C1686 C1688 1.327 . S
C1686 H1711 0.950 . S
C1687 C1686 1.349 . S
C1687 C1703 1.349 . S
C1688 C1686 1.327 . S
C1688 C1707 1.429 . S
C1688 H1712 0.950 . S
C1689 C1706 1.574 . S
C1689 C1708 1.368 . S
C1689 H1713 0.949 . S
H1690 C1694 0.949 . S
C1691 C1692 1.349 . S
C1691 C1693 1.327 . S
C1691 H1714 0.950 . S
C1692 C1691 1.349 . S
C1692 C1704 1.349 . S
C1693 C1691 1.327 . S
C1693 C1709 1.429 . S
C1693 H1715 0.950 . S
C1694 H1690 0.949 . S
C1694 C1702 1.574 . S
C1694 C1710 1.368 . S
H1695 C1703 0.950 . S
H1696 C1701 0.950 . S
H1697 C1702 0.949 . S
H1698 C1704 0.950 . S
H1699 C1705 0.950 . S
H1700 C1706 0.949 . S
C1701 H1696 0.950 . S
C1701 C1703 1.327 . S
C1701 C1707 1.429 . S
C1702 C1694 1.574 . S
C1702 H1697 0.949 . S
C1702 C1708 1.368 . S
C1703 C1687 1.349 . S
C1703 H1695 0.950 . S
C1703 C1701 1.327 . S
C1704 C1692 1.349 . S
C1704 H1698 0.950 . S
C1704 C1705 1.327 . S
C1705 H1699 0.950 . S
C1705 C1704 1.327 . S
C1705 C1709 1.429 . S
C1706 C1689 1.574 . S
C1706 H1700 0.949 . S
C1706 C1710 1.368 . S
C1707 C1688 1.429 . S
C1707 C1701 1.429 . S
C1707 C1708 1.523 . S
C1708 C1689 1.368 . S
C1708 C1702 1.368 . S
C1708 C1707 1.523 . S
C1709 C1693 1.429 . S
C1709 C1705 1.429 . S
C1709 C1710 1.523 . S
C1710 C1694 1.368 . S
C1710 C1706 1.368 . S
C1710 C1709 1.523 . S
H1711 C1686 0.950 . S
H1712 C1688 0.950 . S
H1713 C1689 0.949 . S
H1714 C1691 0.950 . S
H1715 C1693 0.950 . S
C1716 C1717 1.349 . S
C1716 C1718 1.327 . S
C1716 H1741 0.950 . S
C1717 C1716 1.349 . S
C1717 C1733 1.349 . S
C1718 C1716 1.327 . S
C1718 C1737 1.429 . S
C1718 H1742 0.950 . S
C1719 C1736 1.574 . S
C1719 C1738 1.368 . S
C1719 H1743 0.949 . S
H1720 C1724 0.949 . S
C1721 C1722 1.349 . S
C1721 C1723 1.327 . S
C1721 H1744 0.950 . S
C1722 C1721 1.349 . S
C1722 C1734 1.349 . S
C1723 C1721 1.327 . S
C1723 C1739 1.429 . S
C1723 H1745 0.950 . S
C1724 H1720 0.949 . S
C1724 C1732 1.574 . S
C1724 C1740 1.368 . S
H1725 C1733 0.950 . S
H1726 C1731 0.950 . S
H1727 C1732 0.949 . S
H1728 C1734 0.950 . S
H1729 C1735 0.950 . S
H1730 C1736 0.949 . S
C1731 H1726 0.950 . S
C1731 C1733 1.327 . S
C1731 C1737 1.429 . S
C1732 C1724 1.574 . S
C1732 H1727 0.949 . S
C1732 C1738 1.368 . S
C1733 C1717 1.349 . S
C1733 H1725 0.950 . S
C1733 C1731 1.327 . S
C1734 C1722 1.349 . S
C1734 H1728 0.950 . S
C1734 C1735 1.327 . S
C1735 H1729 0.950 . S
C1735 C1734 1.327 . S
C1735 C1739 1.429 . S
C1736 C1719 1.574 . S
C1736 H1730 0.949 . S
C1736 C1740 1.368 . S
C1737 C1718 1.429 . S
C1737 C1731 1.429 . S
C1737 C1738 1.523 . S
C1738 C1719 1.368 . S
C1738 C1732 1.368 . S
C1738 C1737 1.523 . S
C1739 C1723 1.429 . S
C1739 C1735 1.429 . S
C1739 C1740 1.523 . S
C1740 C1724 1.368 . S
C1740 C1736 1.368 . S
C1740 C1739 1.523 . S
H1741 C1716 0.950 . S
H1742 C1718 0.950 . S
H1743 C1719 0.949 . S
H1744 C1721 0.950 . S
H1745 C1723 0.950 . S
C1746 C1747 1.349 . S
C1746 C1748 1.327 . S
C1746 H1771 0.950 . S
C1747 C1746 1.349 . S
C1747 C1763 1.349 . S
C1748 C1746 1.327 . S
C1748 C1767 1.429 . S
C1748 H1772 0.950 . S
C1749 C1766 1.574 . S
C1749 C1768 1.368 . S
C1749 H1773 0.949 . S
H1750 C1754 0.949 . S
C1751 C1752 1.349 . S
C1751 C1753 1.327 . S
C1751 H1774 0.950 . S
C1752 C1751 1.349 . S
C1752 C1764 1.349 . S
C1753 C1751 1.327 . S
C1753 C1769 1.429 . S
C1753 H1775 0.950 . S
C1754 H1750 0.949 . S
C1754 C1762 1.574 . S
C1754 C1770 1.368 . S
H1755 C1763 0.950 . S
H1756 C1761 0.950 . S
H1757 C1762 0.949 . S
H1758 C1764 0.950 . S
H1759 C1765 0.950 . S
H1760 C1766 0.949 . S
C1761 H1756 0.950 . S
C1761 C1763 1.327 . S
C1761 C1767 1.429 . S
C1762 C1754 1.574 . S
C1762 H1757 0.949 . S
C1762 C1768 1.368 . S
C1763 C1747 1.349 . S
C1763 H1755 0.950 . S
C1763 C1761 1.327 . S
C1764 C1752 1.349 . S
C1764 H1758 0.950 . S
C1764 C1765 1.327 . S
C1765 H1759 0.950 . S
C1765 C1764 1.327 . S
C1765 C1769 1.429 . S
C1766 C1749 1.574 . S
C1766 H1760 0.949 . S
C1766 C1770 1.368 . S
C1767 C1748 1.429 . S
C1767 C1761 1.429 . S
C1767 C1768 1.523 . S
C1768 C1749 1.368 . S
C1768 C1762 1.368 . S
C1768 C1767 1.523 . S
C1769 C1753 1.429 . S
C1769 C1765 1.429 . S
C1769 C1770 1.523 . S
C1770 C1754 1.368 . S
C1770 C1766 1.368 . S
C1770 C1769 1.523 . S
H1771 C1746 0.950 . S
H1772 C1748 0.950 . S
H1773 C1749 0.949 . S
H1774 C1751 0.950 . S
H1775 C1753 0.950 . S
C1776 C1777 1.349 . S
C1776 C1778 1.327 . S
C1776 H1801 0.950 . S
C1777 C1776 1.349 . S
C1777 C1793 1.349 . S
C1778 C1776 1.327 . S
C1778 C1797 1.429 . S
C1778 H1802 0.950 . S
C1779 C1796 1.574 . S
C1779 C1798 1.368 . S
C1779 H1803 0.949 . S
H1780 C1784 0.949 . S
C1781 C1782 1.349 . S
C1781 C1783 1.327 . S
C1781 H1804 0.950 . S
C1782 C1781 1.349 . S
C1782 C1794 1.349 . S
C1783 C1781 1.327 . S
C1783 C1799 1.429 . S
C1783 H1805 0.950 . S
C1784 H1780 0.949 . S
C1784 C1792 1.574 . S
C1784 C1800 1.368 . S
H1785 C1793 0.950 . S
H1786 C1791 0.950 . S
H1787 C1792 0.949 . S
H1788 C1794 0.950 . S
H1789 C1795 0.950 . S
H1790 C1796 0.949 . S
C1791 H1786 0.950 . S
C1791 C1793 1.327 . S
C1791 C1797 1.429 . S
C1792 C1784 1.574 . S
C1792 H1787 0.949 . S
C1792 C1798 1.368 . S
C1793 C1777 1.349 . S
C1793 H1785 0.950 . S
C1793 C1791 1.327 . S
C1794 C1782 1.349 . S
C1794 H1788 0.950 . S
C1794 C1795 1.327 . S
C1795 H1789 0.950 . S
C1795 C1794 1.327 . S
C1795 C1799 1.429 . S
C1796 C1779 1.574 . S
C1796 H1790 0.949 . S
C1796 C1800 1.368 . S
C1797 C1778 1.429 . S
C1797 C1791 1.429 . S
C1797 C1798 1.523 . S
C1798 C1779 1.368 . S
C1798 C1792 1.368 . S
C1798 C1797 1.523 . S
C1799 C1783 1.429 . S
C1799 C1795 1.429 . S
C1799 C1800 1.523 . S
C1800 C1784 1.368 . S
C1800 C1796 1.368 . S
C1800 C1799 1.523 . S
H1801 C1776 0.950 . S
H1802 C1778 0.950 . S
H1803 C1779 0.949 . S
H1804 C1781 0.950 . S
H1805 C1783 0.950 . S
C1806 C1807 1.349 . S
C1806 C1808 1.327 . S
C1806 H1831 0.950 . S
C1807 C1806 1.349 . S
C1807 C1823 1.349 . S
C1808 C1806 1.327 . S
C1808 C1827 1.429 . S
C1808 H1832 0.950 . S
C1809 C1826 1.574 . S
C1809 C1828 1.368 . S
C1809 H1833 0.949 . S
H1810 C1814 0.949 . S
C1811 C1812 1.349 . S
C1811 C1813 1.327 . S
C1811 H1834 0.950 . S
C1812 C1811 1.349 . S
C1812 C1824 1.349 . S
C1813 C1811 1.327 . S
C1813 C1829 1.429 . S
C1813 H1835 0.950 . S
C1814 H1810 0.949 . S
C1814 C1822 1.574 . S
C1814 C1830 1.368 . S
H1815 C1823 0.950 . S
H1816 C1821 0.950 . S
H1817 C1822 0.949 . S
H1818 C1824 0.950 . S
H1819 C1825 0.950 . S
H1820 C1826 0.949 . S
C1821 H1816 0.950 . S
C1821 C1823 1.327 . S
C1821 C1827 1.429 . S
C1822 C1814 1.574 . S
C1822 H1817 0.949 . S
C1822 C1828 1.368 . S
C1823 C1807 1.349 . S
C1823 H1815 0.950 . S
C1823 C1821 1.327 . S
C1824 C1812 1.349 . S
C1824 H1818 0.950 . S
C1824 C1825 1.327 . S
C1825 H1819 0.950 . S
C1825 C1824 1.327 . S
C1825 C1829 1.429 . S
C1826 C1809 1.574 . S
C1826 H1820 0.949 . S
C1826 C1830 1.368 . S
C1827 C1808 1.429 . S
C1827 C1821 1.429 . S
C1827 C1828 1.523 . S
C1828 C1809 1.368 . S
C1828 C1822 1.368 . S
C1828 C1827 1.523 . S
C1829 C1813 1.429 . S
C1829 C1825 1.429 . S
C1829 C1830 1.523 . S
C1830 C1814 1.368 . S
C1830 C1826 1.368 . S
C1830 C1829 1.523 . S
H1831 C1806 0.950 . S
H1832 C1808 0.950 . S
H1833 C1809 0.949 . S
H1834 C1811 0.950 . S
H1835 C1813 0.950 . S
C1836 C1837 1.349 . S
C1836 C1838 1.327 . S
C1836 H1861 0.950 . S
C1837 C1836 1.349 . S
C1837 C1853 1.349 . S
C1838 C1836 1.327 . S
C1838 C1857 1.429 . S
C1838 H1862 0.950 . S
C1839 C1856 1.574 . S
C1839 C1858 1.368 . S
C1839 H1863 0.949 . S
H1840 C1844 0.949 . S
C1841 C1842 1.349 . S
C1841 C1843 1.327 . S
C1841 H1864 0.950 . S
C1842 C1841 1.349 . S
C1842 C1854 1.349 . S
C1843 C1841 1.327 . S
C1843 C1859 1.429 . S
C1843 H1865 0.950 . S
C1844 H1840 0.949 . S
C1844 C1852 1.574 . S
C1844 C1860 1.368 . S
H1845 C1853 0.950 . S
H1846 C1851 0.950 . S
H1847 C1852 0.949 . S
H1848 C1854 0.950 . S
H1849 C1855 0.950 . S
H1850 C1856 0.949 . S
C1851 H1846 0.950 . S
C1851 C1853 1.327 . S
C1851 C1857 1.429 . S
C1852 C1844 1.574 . S
C1852 H1847 0.949 . S
C1852 C1858 1.368 . S
C1853 C1837 1.349 . S
C1853 H1845 0.950 . S
C1853 C1851 1.327 . S
C1854 C1842 1.349 . S
C1854 H1848 0.950 . S
C1854 C1855 1.327 . S
C1855 H1849 0.950 . S
C1855 C1854 1.327 . S
C1855 C1859 1.429 . S
C1856 C1839 1.574 . S
C1856 H1850 0.949 . S
C1856 C1860 1.368 . S
C1857 C1838 1.429 . S
C1857 C1851 1.429 . S
C1857 C1858 1.523 . S
C1858 C1839 1.368 . S
C1858 C1852 1.368 . S
C1858 C1857 1.523 . S
C1859 C1843 1.429 . S
C1859 C1855 1.429 . S
C1859 C1860 1.523 . S
C1860 C1844 1.368 . S
C1860 C1856 1.368 . S
C1860 C1859 1.523 . S
H1861 C1836 0.950 . S
H1862 C1838 0.950 . S
H1863 C1839 0.949 . S
H1864 C1841 0.950 . S
H1865 C1843 0.950 . S
C1866 C1867 1.349 . S
C1866 C1868 1.327 . S
C1866 H1891 0.950 . S
C1867 C1866 1.349 . S
C1867 C1883 1.349 . S
C1868 C1866 1.327 . S
C1868 C1887 1.429 . S
C1868 H1892 0.950 . S
C1869 C1886 1.574 . S
C1869 C1888 1.368 . S
C1869 H1893 0.949 . S
H1870 C1874 0.949 . S
C1871 C1872 1.349 . S
C1871 C1873 1.327 . S
C1871 H1894 0.950 . S
C1872 C1871 1.349 . S
C1872 C1884 1.349 . S
C1873 C1871 1.327 . S
C1873 C1889 1.429 . S
C1873 H1895 0.950 . S
C1874 H1870 0.949 . S
C1874 C1882 1.574 . S
C1874 C1890 1.368 . S
H1875 C1883 0.950 . S
H1876 C1881 0.950 . S
H1877 C1882 0.949 . S
H1878 C1884 0.950 . S
H1879 C1885 0.950 . S
H1880 C1886 0.949 . S
C1881 H1876 0.950 . S
C1881 C1883 1.327 . S
C1881 C1887 1.429 . S
C1882 C1874 1.574 . S
C1882 H1877 0.949 . S
C1882 C1888 1.368 . S
C1883 C1867 1.349 . S
C1883 H1875 0.950 . S
C1883 C1881 1.327 . S
C1884 C1872 1.349 . S
C1884 H1878 0.950 . S
C1884 C1885 1.327 . S
C1885 H1879 0.950 . S
C1885 C1884 1.327 . S
C1885 C1889 1.429 . S
C1886 C1869 1.574 . S
C1886 H1880 0.949 . S
C1886 C1890 1.368 . S
C1887 C1868 1.429 . S
C1887 C1881 1.429 . S
C1887 C1888 1.523 . S
C1888 C1869 1.368 . S
C1888 C1882 1.368 . S
C1888 C1887 1.523 . S
C1889 C1873 1.429 . S
C1889 C1885 1.429 . S
C1889 C1890 1.523 . S
C1890 C1874 1.368 . S
C1890 C1886 1.368 . S
C1890 C1889 1.523 . S
H1891 C1866 0.950 . S
H1892 C1868 0.950 . S
H1893 C1869 0.949 . S
H1894 C1871 0.950 . S
H1895 C1873 0.950 . S
C1896 C1897 1.349 . S
C1896 C1898 1.327 . S
C1896 H1921 0.950 . S
C1897 C1896 1.349 . S
C1897 C1913 1.349 . S
C1898 C1896 1.327 . S
C1898 C1917 1.429 . S
C1898 H1922 0.950 . S
C1899 C1916 1.574 . S
C1899 C1918 1.368 . S
C1899 H1923 0.949 . S
H1900 C1904 0.949 . S
C1901 C1902 1.349 . S
C1901 C1903 1.327 . S
C1901 H1924 0.950 . S
C1902 C1901 1.349 . S
C1902 C1914 1.349 . S
C1903 C1901 1.327 . S
C1903 C1919 1.429 . S
C1903 H1925 0.950 . S
C1904 H1900 0.949 . S
C1904 C1912 1.574 . S
C1904 C1920 1.368 . S
H1905 C1913 0.950 . S
H1906 C1911 0.950 . S
H1907 C1912 0.949 . S
H1908 C1914 0.950 . S
H1909 C1915 0.950 . S
H1910 C1916 0.949 . S
C1911 H1906 0.950 . S
C1911 C1913 1.327 . S
C1911 C1917 1.429 . S
C1912 C1904 1.574 . S
C1912 H1907 0.949 . S
C1912 C1918 1.368 . S
C1913 C1897 1.349 . S
C1913 H1905 0.950 . S
C1913 C1911 1.327 . S
C1914 C1902 1.349 . S
C1914 H1908 0.950 . S
C1914 C1915 1.327 . S
C1915 H1909 0.950 . S
C1915 C1914 1.327 . S
C1915 C1919 1.429 . S
C1916 C1899 1.574 . S
C1916 H1910 0.949 . S
C1916 C1920 1.368 . S
C1917 C1898 1.429 . S
C1917 C1911 1.429 . S
C1917 C1918 1.523 . S
C1918 C1899 1.368 . S
C1918 C1912 1.368 . S
C1918 C1917 1.523 . S
C1919 C1903 1.429 . S
C1919 C1915 1.429 . S
C1919 C1920 1.523 . S
C1920 C1904 1.368 . S
C1920 C1916 1.368 . S
C1920 C1919 1.523 . S
H1921 C1896 0.950 . S
H1922 C1898 0.950 . S
H1923 C1899 0.949 . S
H1924 C1901 0.950 . S
H1925 C1903 0.950 . S
C1926 C1927 1.349 . S
C1926 C1928 1.327 . S
C1926 H1951 0.950 . S
C1927 C1926 1.349 . S
C1927 C1943 1.349 . S
C1928 C1926 1.327 . S
C1928 C1947 1.429 . S
C1928 H1952 0.950 . S
C1929 C1946 1.574 . S
C1929 C1948 1.368 . S
C1929 H1953 0.949 . S
H1930 C1934 0.949 . S
C1931 C1932 1.349 . S
C1931 C1933 1.327 . S
C1931 H1954 0.950 . S
C1932 C1931 1.349 . S
C1932 C1944 1.349 . S
C1933 C1931 1.327 . S
C1933 C1949 1.429 . S
C1933 H1955 0.950 . S
C1934 H1930 0.949 . S
C1934 C1942 1.574 . S
C1934 C1950 1.368 . S
H1935 C1943 0.950 . S
H1936 C1941 0.950 . S
H1937 C1942 0.949 . S
H1938 C1944 0.950 . S
H1939 C1945 0.950 . S
H1940 C1946 0.949 . S
C1941 H1936 0.950 . S
C1941 C1943 1.327 . S
C1941 C1947 1.429 . S
C1942 C1934 1.574 . S
C1942 H1937 0.949 . S
C1942 C1948 1.368 . S
C1943 C1927 1.349 . S
C1943 H1935 0.950 . S
C1943 C1941 1.327 . S
C1944 C1932 1.349 . S
C1944 H1938 0.950 . S
C1944 C1945 1.327 . S
C1945 H1939 0.950 . S
C1945 C1944 1.327 . S
C1945 C1949 1.429 . S
C1946 C1929 1.574 . S
C1946 H1940 0.949 . S
C1946 C1950 1.368 . S
C1947 C1928 1.429 . S
C1947 C1941 1.429 . S
C1947 C1948 1.523 . S
C1948 C1929 1.368 . S
C1948 C1942 1.368 . S
C1948 C1947 1.523 . S
C1949 C1933 1.429 . S
C1949 C1945 1.429 . S
C1949 C1950 1.523 . S
C1950 C1934 1.368 . S
C1950 C1946 1.368 . S
C1950 C1949 1.523 . S
H1951 C1926 0.950 . S
H1952 C1928 0.950 . S
H1953 C1929 0.949 . S
H1954 C1931 0.950 . S
H1955 C1933 0.950 . S
C1956 C1957 1.349 . S
C1956 C1958 1.327 . S
C1956 H1981 0.950 . S
C1957 C1956 1.349 . S
C1957 C1973 1.349 . S
C1958 C1956 1.327 . S
C1958 C1977 1.429 . S
C1958 H1982 0.950 . S
C1959 C1976 1.574 . S
C1959 C1978 1.368 . S
C1959 H1983 0.949 . S
H1960 C1964 0.949 . S
C1961 C1962 1.349 . S
C1961 C1963 1.327 . S
C1961 H1984 0.950 . S
C1962 C1961 1.349 . S
C1962 C1974 1.349 . S
C1963 C1961 1.327 . S
C1963 C1979 1.429 . S
C1963 H1985 0.950 . S
C1964 H1960 0.949 . S
C1964 C1972 1.574 . S
C1964 C1980 1.368 . S
H1965 C1973 0.950 . S
H1966 C1971 0.950 . S
H1967 C1972 0.949 . S
H1968 C1974 0.950 . S
H1969 C1975 0.950 . S
H1970 C1976 0.949 . S
C1971 H1966 0.950 . S
C1971 C1973 1.327 . S
C1971 C1977 1.429 . S
C1972 C1964 1.574 . S
C1972 H1967 0.949 . S
C1972 C1978 1.368 . S
C1973 C1957 1.349 . S
C1973 H1965 0.950 . S
C1973 C1971 1.327 . S
C1974 C1962 1.349 . S
C1974 H1968 0.950 . S
C1974 C1975 1.327 . S
C1975 H1969 0.950 . S
C1975 C1974 1.327 . S
C1975 C1979 1.429 . S
C1976 C1959 1.574 . S
C1976 H1970 0.949 . S
C1976 C1980 1.368 . S
C1977 C1958 1.429 . S
C1977 C1971 1.429 . S
C1977 C1978 1.523 . S
C1978 C1959 1.368 . S
C1978 C1972 1.368 . S
C1978 C1977 1.523 . S
C1979 C1963 1.429 . S
C1979 C1975 1.429 . S
C1979 C1980 1.523 . S
C1980 C1964 1.368 . S
C1980 C1976 1.368 . S
C1980 C1979 1.523 . S
H1981 C1956 0.950 . S
H1982 C1958 0.950 . S
H1983 C1959 0.949 . S
H1984 C1961 0.950 . S
H1985 C1963 0.950 . S
C1986 C1987 1.349 . S
C1986 C1988 1.327 . S
C1986 H2011 0.950 . S
C1987 C1986 1.349 . S
C1987 C2003 1.349 . S
C1988 C1986 1.327 . S
C1988 C2007 1.429 . S
C1988 H2012 0.950 . S
C1989 C2006 1.574 . S
C1989 C2008 1.368 . S
C1989 H2013 0.949 . S
H1990 C1994 0.949 . S
C1991 C1992 1.349 . S
C1991 C1993 1.327 . S
C1991 H2014 0.966 . S
C1992 C1991 1.349 . S
C1992 C2004 1.349 . S
C1993 C1991 1.327 . S
C1993 C2009 1.429 . S
C1993 H2015 0.950 . S
C1994 H1990 0.949 . S
C1994 C2002 1.574 . S
C1994 C2010 1.368 . S
H1995 C2003 0.950 . S
H1996 C2001 0.950 . S
H1997 C2002 0.949 . S
H1998 C2004 0.950 . S
H1999 C2005 0.950 . S
H2000 C2006 0.949 . S
C2001 H1996 0.950 . S
C2001 C2003 1.327 . S
C2001 C2007 1.429 . S
C2002 C1994 1.574 . S
C2002 H1997 0.949 . S
C2002 C2008 1.368 . S
C2003 C1987 1.349 . S
C2003 H1995 0.950 . S
C2003 C2001 1.327 . S
C2004 C1992 1.349 . S
C2004 H1998 0.950 . S
C2004 C2005 1.327 . S
C2005 H1999 0.950 . S
C2005 C2004 1.327 . S
C2005 C2009 1.429 . S
C2006 C1989 1.574 . S
C2006 H2000 0.949 . S
C2006 C2010 1.368 . S
C2007 C1988 1.429 . S
C2007 C2001 1.429 . S
C2007 C2008 1.523 . S
C2008 C1989 1.368 . S
C2008 C2002 1.368 . S
C2008 C2007 1.523 . S
C2009 C1993 1.429 . S
C2009 C2005 1.429 . S
C2009 C2010 1.523 . S
C2010 C1994 1.368 . S
C2010 C2006 1.368 . S
C2010 C2009 1.523 . S
H2011 C1986 0.950 . S
H2012 C1988 0.950 . S
H2013 C1989 0.949 . S
H2014 C1991 0.966 . S
H2015 C1993 0.950 . S
C2016 C2017 1.349 . S
C2016 C2018 1.327 . S
C2016 H2041 0.950 . S
C2017 C2016 1.349 . S
C2017 C2033 1.349 . S
C2018 C2016 1.327 . S
C2018 C2037 1.429 . S
C2018 H2042 0.950 . S
C2019 C2036 1.574 . S
C2019 C2038 1.368 . S
C2019 H2043 0.949 . S
H2020 C2024 0.949 . S
C2021 C2022 1.349 . S
C2021 C2023 1.327 . S
C2021 H2044 0.950 . S
C2022 C2021 1.349 . S
C2022 C2034 1.349 . S
C2023 C2021 1.327 . S
C2023 C2039 1.429 . S
C2023 H2045 0.950 . S
C2024 H2020 0.949 . S
C2024 C2032 1.574 . S
C2024 C2040 1.368 . S
H2025 C2033 0.950 . S
H2026 C2031 0.950 . S
H2027 C2032 0.949 . S
H2028 C2034 0.950 . S
H2029 C2035 0.950 . S
H2030 C2036 0.949 . S
C2031 H2026 0.950 . S
C2031 C2033 1.327 . S
C2031 C2037 1.429 . S
C2032 C2024 1.574 . S
C2032 H2027 0.949 . S
C2032 C2038 1.368 . S
C2033 C2017 1.349 . S
C2033 H2025 0.950 . S
C2033 C2031 1.327 . S
C2034 C2022 1.349 . S
C2034 H2028 0.950 . S
C2034 C2035 1.327 . S
C2035 H2029 0.950 . S
C2035 C2034 1.327 . S
C2035 C2039 1.429 . S
C2036 C2019 1.574 . S
C2036 H2030 0.949 . S
C2036 C2040 1.368 . S
C2037 C2018 1.429 . S
C2037 C2031 1.429 . S
C2037 C2038 1.523 . S
C2038 C2019 1.368 . S
C2038 C2032 1.368 . S
C2038 C2037 1.523 . S
C2039 C2023 1.429 . S
C2039 C2035 1.429 . S
C2039 C2040 1.523 . S
C2040 C2024 1.368 . S
C2040 C2036 1.368 . S
C2040 C2039 1.523 . S
H2041 C2016 0.950 . S
H2042 C2018 0.950 . S
H2043 C2019 0.949 . S
H2044 C2021 0.950 . S
H2045 C2023 0.950 . S
C2046 C2047 1.349 . S
C2046 C2048 1.327 . S
C2046 H2071 0.950 . S
C2047 C2046 1.349 . S
C2047 C2063 1.349 . S
C2048 C2046 1.327 . S
C2048 C2067 1.429 . S
C2048 H2072 0.950 . S
C2049 C2066 1.574 . S
C2049 C2068 1.368 . S
C2049 H2073 0.949 . S
H2050 C2054 0.949 . S
C2051 C2052 1.349 . S
C2051 C2053 1.327 . S
C2051 H2074 0.950 . S
C2052 C2051 1.349 . S
C2052 C2064 1.349 . S
C2053 C2051 1.327 . S
C2053 C2069 1.429 . S
C2053 H2075 0.950 . S
C2054 H2050 0.949 . S
C2054 C2062 1.574 . S
C2054 C2070 1.368 . S
H2055 C2063 0.950 . S
H2056 C2061 0.950 . S
H2057 C2062 0.949 . S
H2058 C2064 0.950 . S
H2059 C2065 0.950 . S
H2060 C2066 0.949 . S
C2061 H2056 0.950 . S
C2061 C2063 1.327 . S
C2061 C2067 1.429 . S
C2062 C2054 1.574 . S
C2062 H2057 0.949 . S
C2062 C2068 1.368 . S
C2063 C2047 1.349 . S
C2063 H2055 0.950 . S
C2063 C2061 1.327 . S
C2064 C2052 1.349 . S
C2064 H2058 0.950 . S
C2064 C2065 1.327 . S
C2065 H2059 0.950 . S
C2065 C2064 1.327 . S
C2065 C2069 1.429 . S
C2066 C2049 1.574 . S
C2066 H2060 0.949 . S
C2066 C2070 1.368 . S
C2067 C2048 1.429 . S
C2067 C2061 1.429 . S
C2067 C2068 1.523 . S
C2068 C2049 1.368 . S
C2068 C2062 1.368 . S
C2068 C2067 1.523 . S
C2069 C2053 1.429 . S
C2069 C2065 1.429 . S
C2069 C2070 1.523 . S
C2070 C2054 1.368 . S
C2070 C2066 1.368 . S
C2070 C2069 1.523 . S
H2071 C2046 0.950 . S
H2072 C2048 0.950 . S
H2073 C2049 0.949 . S
H2074 C2051 0.950 . S
H2075 C2053 0.950 . S
C2076 C2077 1.349 . S
C2076 C2078 1.327 . S
C2076 H2101 0.950 . S
C2077 C2076 1.349 . S
C2077 C2093 1.349 . S
C2078 C2076 1.327 . S
C2078 C2097 1.429 . S
C2078 H2102 0.950 . S
C2079 C2096 1.574 . S
C2079 C2098 1.368 . S
C2079 H2103 0.949 . S
H2080 C2084 0.949 . S
C2081 C2082 1.349 . S
C2081 C2083 1.327 . S
C2081 H2104 0.950 . S
C2082 C2081 1.349 . S
C2082 C2094 1.349 . S
C2083 C2081 1.327 . S
C2083 C2099 1.429 . S
C2083 H2105 0.950 . S
C2084 H2080 0.949 . S
C2084 C2092 1.574 . S
C2084 C2100 1.368 . S
H2085 C2093 0.950 . S
H2086 C2091 0.950 . S
H2087 C2092 0.949 . S
H2088 C2094 0.950 . S
H2089 C2095 0.950 . S
H2090 C2096 0.949 . S
C2091 H2086 0.950 . S
C2091 C2093 1.327 . S
C2091 C2097 1.429 . S
C2092 C2084 1.574 . S
C2092 H2087 0.949 . S
C2092 C2098 1.368 . S
C2093 C2077 1.349 . S
C2093 H2085 0.950 . S
C2093 C2091 1.327 . S
C2094 C2082 1.349 . S
C2094 H2088 0.950 . S
C2094 C2095 1.327 . S
C2095 H2089 0.950 . S
C2095 C2094 1.327 . S
C2095 C2099 1.429 . S
C2096 C2079 1.574 . S
C2096 H2090 0.949 . S
C2096 C2100 1.368 . S
C2097 C2078 1.429 . S
C2097 C2091 1.429 . S
C2097 C2098 1.523 . S
C2098 C2079 1.368 . S
C2098 C2092 1.368 . S
C2098 C2097 1.523 . S
C2099 C2083 1.429 . S
C2099 C2095 1.429 . S
C2099 C2100 1.523 . S
C2100 C2084 1.368 . S
C2100 C2096 1.368 . S
C2100 C2099 1.523 . S
H2101 C2076 0.950 . S
H2102 C2078 0.950 . S
H2103 C2079 0.949 . S
H2104 C2081 0.950 . S
H2105 C2083 0.950 . S
C2106 C2107 1.349 . S
C2106 C2108 1.327 . S
C2106 H2131 0.953 . S
C2107 C2106 1.349 . S
C2107 C2123 1.349 . S
C2108 C2106 1.327 . S
C2108 C2127 1.429 . S
C2108 H2132 0.950 . S
C2109 C2126 1.574 . S
C2109 C2128 1.368 . S
C2109 H2133 0.949 . S
H2110 C2114 0.949 . S
C2111 C2112 1.349 . S
C2111 C2113 1.327 . S
C2111 H2134 0.950 . S
C2112 C2111 1.349 . S
C2112 C2124 1.349 . S
C2113 C2111 1.327 . S
C2113 C2129 1.429 . S
C2113 H2135 0.950 . S
C2114 H2110 0.949 . S
C2114 C2122 1.574 . S
C2114 C2130 1.368 . S
H2115 C2123 0.950 . S
H2116 C2121 0.950 . S
H2117 C2122 0.949 . S
H2118 C2124 0.950 . S
H2119 C2125 0.950 . S
H2120 C2126 0.949 . S
C2121 H2116 0.950 . S
C2121 C2123 1.327 . S
C2121 C2127 1.429 . S
C2122 C2114 1.574 . S
C2122 H2117 0.949 . S
C2122 C2128 1.368 . S
C2123 C2107 1.349 . S
C2123 H2115 0.950 . S
C2123 C2121 1.327 . S
C2124 C2112 1.349 . S
C2124 H2118 0.950 . S
C2124 C2125 1.327 . S
C2125 H2119 0.950 . S
C2125 C2124 1.327 . S
C2125 C2129 1.429 . S
C2126 C2109 1.574 . S
C2126 H2120 0.949 . S
C2126 C2130 1.368 . S
C2127 C2108 1.429 . S
C2127 C2121 1.429 . S
C2127 C2128 1.523 . S
C2128 C2109 1.368 . S
C2128 C2122 1.368 . S
C2128 C2127 1.523 . S
C2129 C2113 1.429 . S
C2129 C2125 1.429 . S
C2129 C2130 1.523 . S
C2130 C2114 1.368 . S
C2130 C2126 1.368 . S
C2130 C2129 1.523 . S
H2131 C2106 0.953 . S
H2132 C2108 0.950 . S
H2133 C2109 0.949 . S
H2134 C2111 0.950 . S
H2135 C2113 0.950 . S
C2136 C2137 1.349 . S
C2136 C2138 1.327 . S
C2136 H2161 0.950 . S
C2137 C2136 1.349 . S
C2137 C2153 1.349 . S
C2138 C2136 1.327 . S
C2138 C2157 1.429 . S
C2138 H2162 0.950 . S
C2139 C2156 1.574 . S
C2139 C2158 1.368 . S
C2139 H2163 0.949 . S
H2140 C2144 0.949 . S
C2141 C2142 1.349 . S
C2141 C2143 1.327 . S
C2141 H2164 0.950 . S
C2142 C2141 1.349 . S
C2142 C2154 1.349 . S
C2143 C2141 1.327 . S
C2143 C2159 1.429 . S
C2143 H2165 0.950 . S
C2144 H2140 0.949 . S
C2144 C2152 1.574 . S
C2144 C2160 1.368 . S
H2145 C2153 0.950 . S
H2146 C2151 0.950 . S
H2147 C2152 0.949 . S
H2148 C2154 0.950 . S
H2149 C2155 0.950 . S
H2150 C2156 0.949 . S
C2151 H2146 0.950 . S
C2151 C2153 1.327 . S
C2151 C2157 1.429 . S
C2152 C2144 1.574 . S
C2152 H2147 0.949 . S
C2152 C2158 1.368 . S
C2153 C2137 1.349 . S
C2153 H2145 0.950 . S
C2153 C2151 1.327 . S
C2154 C2142 1.349 . S
C2154 H2148 0.950 . S
C2154 C2155 1.327 . S
C2155 H2149 0.950 . S
C2155 C2154 1.327 . S
C2155 C2159 1.429 . S
C2156 C2139 1.574 . S
C2156 H2150 0.949 . S
C2156 C2160 1.368 . S
C2157 C2138 1.429 . S
C2157 C2151 1.429 . S
C2157 C2158 1.523 . S
C2158 C2139 1.368 . S
C2158 C2152 1.368 . S
C2158 C2157 1.523 . S
C2159 C2143 1.429 . S
C2159 C2155 1.429 . S
C2159 C2160 1.523 . S
C2160 C2144 1.368 . S
C2160 C2156 1.368 . S
C2160 C2159 1.523 . S
H2161 C2136 0.950 . S
H2162 C2138 0.950 . S
H2163 C2139 0.949 . S
H2164 C2141 0.950 . S
H2165 C2143 0.950 . S
C2166 C2167 1.349 . S
C2166 C2168 1.327 . S
C2166 H2191 0.950 . S
C2167 C2166 1.349 . S
C2167 C2183 1.349 . S
C2168 C2166 1.327 . S
C2168 C2187 1.429 . S
C2168 H2192 0.950 . S
C2169 C2186 1.574 . S
C2169 C2188 1.368 . S
C2169 H2193 0.949 . S
H2170 C2174 0.969 . S
C2171 C2172 1.349 . S
C2171 C2173 1.327 . S
C2171 H2194 0.950 . S
C2172 C2171 1.349 . S
C2172 C2184 1.349 . S
C2173 C2171 1.327 . S
C2173 C2189 1.429 . S
C2173 H2195 0.950 . S
C2174 H2170 0.969 . S
C2174 C2182 1.574 . S
C2174 C2190 1.368 . S
H2175 C2183 0.950 1_554 S
H2176 C2181 0.950 . S
H2177 C2182 0.949 . S
H2178 C2184 0.950 1_655 S
H2179 C2185 0.950 1_655 S
H2180 C2186 0.949 . S
C2181 H2176 0.950 . S
C2181 C2183 1.327 . S
C2181 C2187 1.429 . S
C2182 C2174 1.574 . S
C2182 H2177 0.949 . S
C2182 C2188 1.368 . S
C2183 C2167 1.349 . S
C2183 H2175 0.950 1_556 S
C2183 C2181 1.327 . S
C2184 C2172 1.349 . S
C2184 H2178 0.950 1_455 S
C2184 C2185 1.327 . S
C2185 H2179 0.950 1_455 S
C2185 C2184 1.327 . S
C2185 C2189 1.429 . S
C2186 C2169 1.574 . S
C2186 H2180 0.949 . S
C2186 C2190 1.368 . S
C2187 C2168 1.429 . S
C2187 C2181 1.429 . S
C2187 C2188 1.523 . S
C2188 C2169 1.368 . S
C2188 C2182 1.368 . S
C2188 C2187 1.523 . S
C2189 C2173 1.429 . S
C2189 C2185 1.429 . S
C2189 C2190 1.523 . S
C2190 C2174 1.368 . S
C2190 C2186 1.368 . S
C2190 C2189 1.523 . S
H2191 C2166 0.950 . S
H2192 C2168 0.950 . S
H2193 C2169 0.949 . S
H2194 C2171 0.950 . S
H2195 C2173 0.950 . S
C2196 C2197 1.349 . S
C2196 C2198 1.327 . S
C2196 H2221 0.950 . S
C2197 C2196 1.349 . S
C2197 C2213 1.349 . S
C2198 C2196 1.327 . S
C2198 C2217 1.429 . S
C2198 H2222 0.950 . S
C2199 C2216 1.574 . S
C2199 C2218 1.368 . S
C2199 H2223 0.949 . S
H2200 C2204 0.949 . S
C2201 C2202 1.349 . S
C2201 C2203 1.327 . S
C2201 H2224 0.950 . S
C2202 C2201 1.349 . S
C2202 C2214 1.349 . S
C2203 C2201 1.327 . S
C2203 C2219 1.429 . S
C2203 H2225 0.950 . S
C2204 H2200 0.949 . S
C2204 C2212 1.574 . S
C2204 C2220 1.368 . S
H2205 C2213 0.950 . S
H2206 C2211 0.950 . S
H2207 C2212 0.949 . S
H2208 C2214 0.950 . S
H2209 C2215 0.950 . S
H2210 C2216 0.949 . S
C2211 H2206 0.950 . S
C2211 C2213 1.327 . S
C2211 C2217 1.429 . S
C2212 C2204 1.574 . S
C2212 H2207 0.949 . S
C2212 C2218 1.368 . S
C2213 C2197 1.349 . S
C2213 H2205 0.950 . S
C2213 C2211 1.327 . S
C2214 C2202 1.349 . S
C2214 H2208 0.950 . S
C2214 C2215 1.327 . S
C2215 H2209 0.950 . S
C2215 C2214 1.327 . S
C2215 C2219 1.429 . S
C2216 C2199 1.574 . S
C2216 H2210 0.949 . S
C2216 C2220 1.368 . S
C2217 C2198 1.429 . S
C2217 C2211 1.429 . S
C2217 C2218 1.523 . S
C2218 C2199 1.368 . S
C2218 C2212 1.368 . S
C2218 C2217 1.523 . S
C2219 C2203 1.429 . S
C2219 C2215 1.429 . S
C2219 C2220 1.523 . S
C2220 C2204 1.368 . S
C2220 C2216 1.368 . S
C2220 C2219 1.523 . S
H2221 C2196 0.950 . S
H2222 C2198 0.950 . S
H2223 C2199 0.949 . S
H2224 C2201 0.950 . S
H2225 C2203 0.950 . S
C2226 C2227 1.349 . S
C2226 C2228 1.327 . S
C2226 H2251 0.950 1_554 S
C2227 C2226 1.349 . S
C2227 C2243 1.349 . S
C2228 C2226 1.327 . S
C2228 C2247 1.429 . S
C2228 H2252 0.950 . S
C2229 C2246 1.574 . S
C2229 C2248 1.368 . S
C2229 H2253 0.949 . S
H2230 C2234 0.949 . S
C2231 C2232 1.349 . S
C2231 C2233 1.327 . S
C2231 H2254 0.950 . S
C2232 C2231 1.349 . S
C2232 C2244 1.349 . S
C2233 C2231 1.327 . S
C2233 C2249 1.429 . S
C2233 H2255 0.950 . S
C2234 H2230 0.949 . S
C2234 C2242 1.574 . S
C2234 C2250 1.368 . S
H2235 C2243 0.950 . S
H2236 C2241 0.950 . S
H2237 C2242 0.949 . S
H2238 C2244 0.950 . S
H2239 C2245 0.950 . S
H2240 C2246 0.949 . S
C2241 H2236 0.950 . S
C2241 C2243 1.327 . S
C2241 C2247 1.429 . S
C2242 C2234 1.574 . S
C2242 H2237 0.949 . S
C2242 C2248 1.368 . S
C2243 C2227 1.349 . S
C2243 H2235 0.950 . S
C2243 C2241 1.327 . S
C2244 C2232 1.349 . S
C2244 H2238 0.950 . S
C2244 C2245 1.327 . S
C2245 H2239 0.950 . S
C2245 C2244 1.327 . S
C2245 C2249 1.429 . S
C2246 C2229 1.574 . S
C2246 H2240 0.949 . S
C2246 C2250 1.368 . S
C2247 C2228 1.429 . S
C2247 C2241 1.429 . S
C2247 C2248 1.523 . S
C2248 C2229 1.368 . S
C2248 C2242 1.368 . S
C2248 C2247 1.523 . S
C2249 C2233 1.429 . S
C2249 C2245 1.429 . S
C2249 C2250 1.523 . S
C2250 C2234 1.368 . S
C2250 C2246 1.368 . S
C2250 C2249 1.523 . S
H2251 C2226 0.950 1_556 S
H2252 C2228 0.950 . S
H2253 C2229 0.949 . S
H2254 C2231 0.950 . S
H2255 C2233 0.950 . S
C2256 C2257 1.349 . S
C2256 C2258 1.327 . S
C2256 H2281 0.950 . S
C2257 C2256 1.349 . S
C2257 C2273 1.349 . S
C2258 C2256 1.327 . S
C2258 C2277 1.429 . S
C2258 H2282 0.950 . S
C2259 C2276 1.574 . S
C2259 C2278 1.368 . S
C2259 H2283 0.949 . S
H2260 C2264 0.949 . S
C2261 C2262 1.349 . S
C2261 C2263 1.327 . S
C2261 H2284 0.950 . S
C2262 C2261 1.349 . S
C2262 C2274 1.349 . S
C2263 C2261 1.327 . S
C2263 C2279 1.429 . S
C2263 H2285 0.950 . S
C2264 H2260 0.949 . S
C2264 C2272 1.574 . S
C2264 C2280 1.368 . S
H2265 C2273 0.950 . S
H2266 C2271 0.950 . S
H2267 C2272 0.949 . S
H2268 C2274 0.950 . S
H2269 C2275 0.950 . S
H2270 C2276 0.949 . S
C2271 H2266 0.950 . S
C2271 C2273 1.327 . S
C2271 C2277 1.429 . S
C2272 C2264 1.574 . S
C2272 H2267 0.949 . S
C2272 C2278 1.368 . S
C2273 C2257 1.349 . S
C2273 H2265 0.950 . S
C2273 C2271 1.327 . S
C2274 C2262 1.349 . S
C2274 H2268 0.950 . S
C2274 C2275 1.327 . S
C2275 H2269 0.950 . S
C2275 C2274 1.327 . S
C2275 C2279 1.429 . S
C2276 C2259 1.574 . S
C2276 H2270 0.949 . S
C2276 C2280 1.368 . S
C2277 C2258 1.429 . S
C2277 C2271 1.429 . S
C2277 C2278 1.523 . S
C2278 C2259 1.368 . S
C2278 C2272 1.368 . S
C2278 C2277 1.523 . S
C2279 C2263 1.429 . S
C2279 C2275 1.429 . S
C2279 C2280 1.523 . S
C2280 C2264 1.368 . S
C2280 C2276 1.368 . S
C2280 C2279 1.523 . S
H2281 C2256 0.950 . S
H2282 C2258 0.950 . S
H2283 C2259 0.949 . S
H2284 C2261 0.950 . S
H2285 C2263 0.950 . S
C2286 C2287 1.349 . S
C2286 C2288 1.327 . S
C2286 H2311 0.950 . S
C2287 C2286 1.349 . S
C2287 C2303 1.349 . S
C2288 C2286 1.327 . S
C2288 C2307 1.429 . S
C2288 H2312 0.950 . S
C2289 C2306 1.574 . S
C2289 C2308 1.368 . S
C2289 H2313 0.949 . S
H2290 C2294 0.949 . S
C2291 C2292 1.349 . S
C2291 C2293 1.327 . S
C2291 H2314 0.950 . S
C2292 C2291 1.349 . S
C2292 C2304 1.349 . S
C2293 C2291 1.327 . S
C2293 C2309 1.429 . S
C2293 H2315 0.950 . S
C2294 H2290 0.949 . S
C2294 C2302 1.574 . S
C2294 C2310 1.368 . S
H2295 C2303 0.950 . S
H2296 C2301 0.950 . S
H2297 C2302 0.949 . S
H2298 C2304 0.950 . S
H2299 C2305 0.950 . S
H2300 C2306 0.949 . S
C2301 H2296 0.950 . S
C2301 C2303 1.327 . S
C2301 C2307 1.429 . S
C2302 C2294 1.574 . S
C2302 H2297 0.949 . S
C2302 C2308 1.368 . S
C2303 C2287 1.349 . S
C2303 H2295 0.950 . S
C2303 C2301 1.327 . S
C2304 C2292 1.349 . S
C2304 H2298 0.950 . S
C2304 C2305 1.327 . S
C2305 H2299 0.950 . S
C2305 C2304 1.327 . S
C2305 C2309 1.429 . S
C2306 C2289 1.574 . S
C2306 H2300 0.949 . S
C2306 C2310 1.368 . S
C2307 C2288 1.429 . S
C2307 C2301 1.429 . S
C2307 C2308 1.523 . S
C2308 C2289 1.368 . S
C2308 C2302 1.368 . S
C2308 C2307 1.523 . S
C2309 C2293 1.429 . S
C2309 C2305 1.429 . S
C2309 C2310 1.523 . S
C2310 C2294 1.368 . S
C2310 C2306 1.368 . S
C2310 C2309 1.523 . S
H2311 C2286 0.950 . S
H2312 C2288 0.950 . S
H2313 C2289 0.949 . S
H2314 C2291 0.950 . S
H2315 C2293 0.950 . S
C2316 C2317 1.349 . S
C2316 C2318 1.327 . S
C2316 H2341 0.950 . S
C2317 C2316 1.349 . S
C2317 C2333 1.349 . S
C2318 C2316 1.327 . S
C2318 C2337 1.429 . S
C2318 H2342 0.950 . S
C2319 C2336 1.574 . S
C2319 C2338 1.368 . S
C2319 H2343 0.949 . S
H2320 C2324 0.949 . S
C2321 C2322 1.349 . S
C2321 C2323 1.327 . S
C2321 H2344 0.950 . S
C2322 C2321 1.349 . S
C2322 C2334 1.349 . S
C2323 C2321 1.327 . S
C2323 C2339 1.429 . S
C2323 H2345 0.950 . S
C2324 H2320 0.949 . S
C2324 C2332 1.574 . S
C2324 C2340 1.368 . S
H2325 C2333 0.950 . S
H2326 C2331 0.950 . S
H2327 C2332 0.949 . S
H2328 C2334 0.950 . S
H2329 C2335 0.950 . S
H2330 C2336 0.949 . S
C2331 H2326 0.950 . S
C2331 C2333 1.327 . S
C2331 C2337 1.429 . S
C2332 C2324 1.574 . S
C2332 H2327 0.949 . S
C2332 C2338 1.368 . S
C2333 C2317 1.349 . S
C2333 H2325 0.950 . S
C2333 C2331 1.327 . S
C2334 C2322 1.349 . S
C2334 H2328 0.950 . S
C2334 C2335 1.327 . S
C2335 H2329 0.950 . S
C2335 C2334 1.327 . S
C2335 C2339 1.429 . S
C2336 C2319 1.574 . S
C2336 H2330 0.949 . S
C2336 C2340 1.368 . S
C2337 C2318 1.429 . S
C2337 C2331 1.429 . S
C2337 C2338 1.523 . S
C2338 C2319 1.368 . S
C2338 C2332 1.368 . S
C2338 C2337 1.523 . S
C2339 C2323 1.429 . S
C2339 C2335 1.429 . S
C2339 C2340 1.523 . S
C2340 C2324 1.368 . S
C2340 C2336 1.368 . S
C2340 C2339 1.523 . S
H2341 C2316 0.950 . S
H2342 C2318 0.950 . S
H2343 C2319 0.949 . S
H2344 C2321 0.950 . S
H2345 C2323 0.950 . S
C2346 C2347 1.349 . S
C2346 C2348 1.327 . S
C2346 H2371 0.950 . S
C2347 C2346 1.349 . S
C2347 C2363 1.349 . S
C2348 C2346 1.327 . S
C2348 C2367 1.429 . S
C2348 H2372 0.950 . S
C2349 C2366 1.574 . S
C2349 C2368 1.368 . S
C2349 H2373 0.949 . S
H2350 C2354 0.949 . S
C2351 C2352 1.349 . S
C2351 C2353 1.327 . S
C2351 H2374 0.950 . S
C2352 C2351 1.349 . S
C2352 C2364 1.349 . S
C2353 C2351 1.327 . S
C2353 C2369 1.429 . S
C2353 H2375 0.950 . S
C2354 H2350 0.949 . S
C2354 C2362 1.574 . S
C2354 C2370 1.368 . S
H2355 C2363 0.950 . S
H2356 C2361 0.950 . S
H2357 C2362 0.949 . S
H2358 C2364 0.950 . S
H2359 C2365 0.950 . S
H2360 C2366 0.949 . S
C2361 H2356 0.950 . S
C2361 C2363 1.327 . S
C2361 C2367 1.429 . S
C2362 C2354 1.574 . S
C2362 H2357 0.949 . S
C2362 C2368 1.368 . S
C2363 C2347 1.349 . S
C2363 H2355 0.950 . S
C2363 C2361 1.327 . S
C2364 C2352 1.349 . S
C2364 H2358 0.950 . S
C2364 C2365 1.327 . S
C2365 H2359 0.950 . S
C2365 C2364 1.327 . S
C2365 C2369 1.429 . S
C2366 C2349 1.574 . S
C2366 H2360 0.949 . S
C2366 C2370 1.368 . S
C2367 C2348 1.429 . S
C2367 C2361 1.429 . S
C2367 C2368 1.523 . S
C2368 C2349 1.368 . S
C2368 C2362 1.368 . S
C2368 C2367 1.523 . S
C2369 C2353 1.429 . S
C2369 C2365 1.429 . S
C2369 C2370 1.523 . S
C2370 C2354 1.368 . S
C2370 C2366 1.368 . S
C2370 C2369 1.523 . S
H2371 C2346 0.950 . S
H2372 C2348 0.950 . S
H2373 C2349 0.949 . S
H2374 C2351 0.950 . S
H2375 C2353 0.950 . S
C2376 C2377 1.349 . S
C2376 C2378 1.327 . S
C2376 H2401 0.950 . S
C2377 C2376 1.349 . S
C2377 C2393 1.349 . S
C2378 C2376 1.327 . S
C2378 C2397 1.429 . S
C2378 H2402 0.950 . S
C2379 C2396 1.574 . S
C2379 C2398 1.368 . S
C2379 H2403 0.949 . S
H2380 C2384 0.949 . S
C2381 C2382 1.349 . S
C2381 C2383 1.327 . S
C2381 H2404 0.950 . S
C2382 C2381 1.349 . S
C2382 C2394 1.349 . S
C2383 C2381 1.327 . S
C2383 C2399 1.429 . S
C2383 H2405 0.950 . S
C2384 H2380 0.949 . S
C2384 C2392 1.574 . S
C2384 C2400 1.368 . S
H2385 C2393 0.950 . S
H2386 C2391 0.950 . S
H2387 C2392 0.949 . S
H2388 C2394 0.950 . S
H2389 C2395 0.950 . S
H2390 C2396 0.949 . S
C2391 H2386 0.950 . S
C2391 C2393 1.327 . S
C2391 C2397 1.429 . S
C2392 C2384 1.574 . S
C2392 H2387 0.949 . S
C2392 C2398 1.368 . S
C2393 C2377 1.349 . S
C2393 H2385 0.950 . S
C2393 C2391 1.327 . S
C2394 C2382 1.349 . S
C2394 H2388 0.950 . S
C2394 C2395 1.327 . S
C2395 H2389 0.950 . S
C2395 C2394 1.327 . S
C2395 C2399 1.429 . S
C2396 C2379 1.574 . S
C2396 H2390 0.949 . S
C2396 C2400 1.368 . S
C2397 C2378 1.429 . S
C2397 C2391 1.429 . S
C2397 C2398 1.523 . S
C2398 C2379 1.368 . S
C2398 C2392 1.368 . S
C2398 C2397 1.523 . S
C2399 C2383 1.429 . S
C2399 C2395 1.429 . S
C2399 C2400 1.523 . S
C2400 C2384 1.368 . S
C2400 C2396 1.368 . S
C2400 C2399 1.523 . S
H2401 C2376 0.950 . S
H2402 C2378 0.950 . S
H2403 C2379 0.949 . S
H2404 C2381 0.950 . S
H2405 C2383 0.950 . S
C2406 C2407 1.349 . S
C2406 C2408 1.327 . S
C2406 H2431 0.950 . S
C2407 C2406 1.349 . S
C2407 C2423 1.349 . S
C2408 C2406 1.327 . S
C2408 C2427 1.429 . S
C2408 H2432 0.950 . S
C2409 C2426 1.574 . S
C2409 C2428 1.368 . S
C2409 H2433 0.949 . S
H2410 C2414 0.949 . S
C2411 C2412 1.349 . S
C2411 C2413 1.327 . S
C2411 H2434 0.950 . S
C2412 C2411 1.349 . S
C2412 C2424 1.349 . S
C2413 C2411 1.327 . S
C2413 C2429 1.429 . S
C2413 H2435 0.950 . S
C2414 H2410 0.949 . S
C2414 C2422 1.574 . S
C2414 C2430 1.368 . S
H2415 C2423 0.950 . S
H2416 C2421 0.950 . S
H2417 C2422 0.949 . S
H2418 C2424 0.950 . S
H2419 C2425 0.950 . S
H2420 C2426 0.949 . S
C2421 H2416 0.950 . S
C2421 C2423 1.327 . S
C2421 C2427 1.429 . S
C2422 C2414 1.574 . S
C2422 H2417 0.949 . S
C2422 C2428 1.368 . S
C2423 C2407 1.349 . S
C2423 H2415 0.950 . S
C2423 C2421 1.327 . S
C2424 C2412 1.349 . S
C2424 H2418 0.950 . S
C2424 C2425 1.327 . S
C2425 H2419 0.950 . S
C2425 C2424 1.327 . S
C2425 C2429 1.429 . S
C2426 C2409 1.574 . S
C2426 H2420 0.949 . S
C2426 C2430 1.368 . S
C2427 C2408 1.429 . S
C2427 C2421 1.429 . S
C2427 C2428 1.523 . S
C2428 C2409 1.368 . S
C2428 C2422 1.368 . S
C2428 C2427 1.523 . S
C2429 C2413 1.429 . S
C2429 C2425 1.429 . S
C2429 C2430 1.523 . S
C2430 C2414 1.368 . S
C2430 C2426 1.368 . S
C2430 C2429 1.523 . S
H2431 C2406 0.950 . S
H2432 C2408 0.950 . S
H2433 C2409 0.949 . S
H2434 C2411 0.950 . S
H2435 C2413 0.950 . S
C2436 C2437 1.349 . S
C2436 C2438 1.327 . S
C2436 H2461 0.950 . S
C2437 C2436 1.349 . S
C2437 C2453 1.349 . S
C2438 C2436 1.327 . S
C2438 C2457 1.429 . S
C2438 H2462 0.950 . S
C2439 C2456 1.574 . S
C2439 C2458 1.368 . S
C2439 H2463 0.949 . S
H2440 C2444 0.949 . S
C2441 C2442 1.349 1_554 S
C2441 C2443 1.322 1_554 S
C2441 H2464 0.950 . S
C2442 C2441 1.349 1_556 S
C2442 C2454 1.349 . S
C2443 C2441 1.322 1_556 S
C2443 C2459 1.465 . S
C2443 H2465 0.921 1_556 S
C2444 H2440 0.949 . S
C2444 C2452 1.574 . S
C2444 C2460 1.368 . S
H2445 C2453 0.950 . S
H2446 C2451 0.950 . S
H2447 C2452 0.949 . S
H2448 C2454 0.950 . S
H2449 C2455 0.950 . S
H2450 C2456 0.949 1_554 S
C2451 H2446 0.950 . S
C2451 C2453 1.327 . S
C2451 C2457 1.429 . S
C2452 C2444 1.574 . S
C2452 H2447 0.949 . S
C2452 C2458 1.368 . S
C2453 C2437 1.349 . S
C2453 H2445 0.950 . S
C2453 C2451 1.327 . S
C2454 C2442 1.349 . S
C2454 H2448 0.950 . S
C2454 C2455 1.327 . S
C2455 H2449 0.950 . S
C2455 C2454 1.327 . S
C2455 C2459 1.429 . S
C2456 C2439 1.574 . S
C2456 H2450 0.949 1_556 S
C2456 C2460 1.368 . S
C2457 C2438 1.429 . S
C2457 C2451 1.429 . S
C2457 C2458 1.523 . S
C2458 C2439 1.368 . S
C2458 C2452 1.368 . S
C2458 C2457 1.523 . S
C2459 C2443 1.465 . S
C2459 C2455 1.429 . S
C2459 C2460 1.523 . S
C2460 C2444 1.368 . S
C2460 C2456 1.368 . S
C2460 C2459 1.523 . S
H2461 C2436 0.950 . S
H2462 C2438 0.950 . S
H2463 C2439 0.949 . S
H2464 C2441 0.950 . S
H2465 C2443 0.921 1_554 S
C2466 C2467 1.349 . S
C2466 C2468 1.327 . S
C2466 H2491 0.950 . S
C2467 C2466 1.349 . S
C2467 C2483 1.349 . S
C2468 C2466 1.327 . S
C2468 C2487 1.429 . S
C2468 H2492 0.950 . S
C2469 C2486 1.574 . S
C2469 C2488 1.368 . S
C2469 H2493 0.949 . S
H2470 C2474 0.949 . S
C2471 C2472 1.349 . S
C2471 C2473 1.327 . S
C2471 H2494 0.950 . S
C2472 C2471 1.349 . S
C2472 C2484 1.349 . S
C2473 C2471 1.327 . S
C2473 C2489 1.429 . S
C2473 H2495 0.950 . S
C2474 H2470 0.949 . S
C2474 C2482 1.574 . S
C2474 C2490 1.368 . S
H2475 C2483 0.950 . S
H2476 C2481 0.950 . S
H2477 C2482 0.949 . S
H2478 C2484 0.950 . S
H2479 C2485 0.950 . S
H2480 C2486 0.949 . S
C2481 H2476 0.950 . S
C2481 C2483 1.327 . S
C2481 C2487 1.429 . S
C2482 C2474 1.574 . S
C2482 H2477 0.949 . S
C2482 C2488 1.368 . S
C2483 C2467 1.349 . S
C2483 H2475 0.950 . S
C2483 C2481 1.327 . S
C2484 C2472 1.349 . S
C2484 H2478 0.950 . S
C2484 C2485 1.327 . S
C2485 H2479 0.950 . S
C2485 C2484 1.327 . S
C2485 C2489 1.429 . S
C2486 C2469 1.574 . S
C2486 H2480 0.949 . S
C2486 C2490 1.368 . S
C2487 C2468 1.429 . S
C2487 C2481 1.429 . S
C2487 C2488 1.523 . S
C2488 C2469 1.368 . S
C2488 C2482 1.368 . S
C2488 C2487 1.523 . S
C2489 C2473 1.429 . S
C2489 C2485 1.429 . S
C2489 C2490 1.523 . S
C2490 C2474 1.368 . S
C2490 C2486 1.368 . S
C2490 C2489 1.523 . S
H2491 C2466 0.950 . S
H2492 C2468 0.950 . S
H2493 C2469 0.949 . S
H2494 C2471 0.950 . S
H2495 C2473 0.950 . S
C2496 C2497 1.349 . S
C2496 C2498 1.327 . S
C2496 H2521 0.950 . S
C2497 C2496 1.349 . S
C2497 C2513 1.349 . S
C2498 C2496 1.327 . S
C2498 C2517 1.429 . S
C2498 H2522 0.950 . S
C2499 C2516 1.574 . S
C2499 C2518 1.368 . S
C2499 H2523 0.949 . S
H2500 C2504 0.949 1_556 S
C2501 C2502 1.349 . S
C2501 C2503 1.327 . S
C2501 H2524 0.950 . S
C2502 C2501 1.349 . S
C2502 C2514 1.349 1_554 S
C2503 C2501 1.327 . S
C2503 C2519 1.429 . S
C2503 H2525 0.950 . S
C2504 H2500 0.949 1_554 S
C2504 C2512 1.574 . S
C2504 C2520 1.368 . S
H2505 C2513 0.950 . S
H2506 C2511 0.950 . S
H2507 C2512 0.956 . S
H2508 C2514 0.950 . S
H2509 C2515 0.956 . S
H2510 C2516 0.949 . S
C2511 H2506 0.950 . S
C2511 C2513 1.327 . S
C2511 C2517 1.429 . S
C2512 C2504 1.574 . S
C2512 H2507 0.956 . S
C2512 C2518 1.368 . S
C2513 C2497 1.349 . S
C2513 H2505 0.950 . S
C2513 C2511 1.327 . S
C2514 C2502 1.349 1_556 S
C2514 H2508 0.950 . S
C2514 C2515 1.329 . S
C2515 H2509 0.956 . S
C2515 C2514 1.329 . S
C2515 C2519 1.421 1_556 S
C2516 C2499 1.574 . S
C2516 H2510 0.949 . S
C2516 C2520 1.368 . S
C2517 C2498 1.429 . S
C2517 C2511 1.429 . S
C2517 C2518 1.523 . S
C2518 C2499 1.368 . S
C2518 C2512 1.368 . S
C2518 C2517 1.523 . S
C2519 C2503 1.429 . S
C2519 C2515 1.421 1_554 S
C2519 C2520 1.523 . S
C2520 C2504 1.368 . S
C2520 C2516 1.368 . S
C2520 C2519 1.523 . S
H2521 C2496 0.950 . S
H2522 C2498 0.950 . S
H2523 C2499 0.949 . S
H2524 C2501 0.950 . S
H2525 C2503 0.950 . S
C2526 C2527 1.347 . S
C2526 C2528 1.324 . S
C2526 H2551 0.955 1_565 S
C2527 C2526 1.347 . S
C2527 C2543 1.349 . S
C2528 C2526 1.324 . S
C2528 C2547 1.429 . S
C2528 H2552 0.950 . S
C2529 C2546 1.574 . S
C2529 C2548 1.368 . S
C2529 H2553 0.949 . S
H2530 C2534 0.949 . S
C2531 C2532 1.349 . S
C2531 C2533 1.327 . S
C2531 H2554 0.950 . S
C2532 C2531 1.349 . S
C2532 C2544 1.349 . S
C2533 C2531 1.327 . S
C2533 C2549 1.429 . S
C2533 H2555 0.950 . S
C2534 H2530 0.949 . S
C2534 C2542 1.574 . S
C2534 C2550 1.368 . S
H2535 C2543 0.950 . S
H2536 C2541 0.950 . S
H2537 C2542 0.949 . S
H2538 C2544 0.950 . S
H2539 C2545 0.950 . S
H2540 C2546 0.949 . S
C2541 H2536 0.950 . S
C2541 C2543 1.327 . S
C2541 C2547 1.429 . S
C2542 C2534 1.574 . S
C2542 H2537 0.949 . S
C2542 C2548 1.368 . S
C2543 C2527 1.349 . S
C2543 H2535 0.950 . S
C2543 C2541 1.327 . S
C2544 C2532 1.349 . S
C2544 H2538 0.950 . S
C2544 C2545 1.327 . S
C2545 H2539 0.950 . S
C2545 C2544 1.327 . S
C2545 C2549 1.429 . S
C2546 C2529 1.574 . S
C2546 H2540 0.949 . S
C2546 C2550 1.368 . S
C2547 C2528 1.429 . S
C2547 C2541 1.429 . S
C2547 C2548 1.523 . S
C2548 C2529 1.368 . S
C2548 C2542 1.368 . S
C2548 C2547 1.523 . S
C2549 C2533 1.429 . S
C2549 C2545 1.429 . S
C2549 C2550 1.523 . S
C2550 C2534 1.368 . S
C2550 C2546 1.368 . S
C2550 C2549 1.523 . S
H2551 C2526 0.955 1_545 S
H2552 C2528 0.950 . S
H2553 C2529 0.949 . S
H2554 C2531 0.950 . S
H2555 C2533 0.950 . S
C1122 C970 1.404 . S
C1117 C331 1.386 . S
C1152 C983 1.620 . S
C1147 C380 1.609 . S
C1177 C421 1.423 . S
C1182 C996 1.436 . S
C1212 C1009 1.532 . S
C1207 C260 1.516 . S
C1242 C1017 1.463 . S
C1237 C620 1.464 . S
C1272 C1030 1.407 . S
C1267 C740 1.406 . S
C1297 C680 1.498 . S
C1302 C1043 1.497 . S
C1332 C1056 1.499 . S
C1327 C571 1.497 . S
C1357 C691 1.406 . S
C1362 C1074 1.417 . S
C1392 C1085 1.522 . S
C1387 C541 1.534 . S
C1417 C601 1.425 . S
C1422 C1069 1.426 . S
C1452 C1077 1.461 . S
C1447 C721 1.464 . S
C1477 C451 1.471 . S
C1482 C1100 1.483 . S
C1507 C241 1.501 . S
C1512 C1090 1.494 . S
C1537 C320 1.485 . S
C1542 C1095 1.483 . S
C1567 C391 1.562 . S
C1572 C1098 1.552 1_655 S
C1597 C211 1.412 . S
C1602 C1007 1.416 . S
C1627 C841 1.387 . S
C1632 C999 1.391 . S
C1662 C968 1.561 . S
C1657 C901 1.570 . S
C1692 C973 1.491 . S
C1687 C500 1.491 . S
C1717 C271 1.524 . S
C1722 C1020 1.523 . S
C1752 C1059 1.510 . S
C1747 C661 1.512 . S
C1782 C1012 1.489 . S
C1777 C560 1.495 . S
C1812 C1038 1.449 . S
C1807 C751 1.459 . S
C1842 C1048 1.404 . S
C1837 C871 1.386 . S
C1867 C920 1.609 . S
C1872 C1061 1.619 . S
C1897 C481 1.423 . S
C1902 C1022 1.433 . S
C1932 C1035 1.532 . S
C1927 C800 1.516 . S
C1957 C200 1.464 . S
C1962 C991 1.460 . S
C1992 C1004 1.408 . S
C1987 C20 1.406 . S
C2022 C965 1.497 . S
C2017 C80 1.498 . S
C2052 C978 1.499 . S
C2047 C151 1.496 . S
C2077 C91 1.406 . S
C2082 C1087 1.417 . S
C2107 C121 1.534 . S
C2112 C1072 1.508 1_655 S
C2137 C181 1.424 . S
C2142 C1082 1.425 . S
C2167 C1 1.456 1_556 S
C2172 C1064 1.461 . S
C2202 C1113 1.483 . S
C2197 C511 1.471 . S
C2232 C1103 1.494 . S
C2227 C781 1.501 1_554 S
C2262 C1108 1.483 . S
C2257 C860 1.485 . S
C2287 C931 1.562 . S
C2292 C1111 1.554 . S
C2317 C631 1.412 . S
C2322 C1033 1.416 . S
C2352 C1025 1.391 . S
C2347 C301 1.387 . S
C2382 C1046 1.561 . S
C2377 C361 1.570 . S
C2412 C1051 1.491 . S
C2407 C440 1.495 . S
C2437 C811 1.524 . S
C2442 C994 1.524 . S
C2472 C981 1.510 . S
C2467 C61 1.516 . S
C2497 C140 1.495 . S
C2502 C986 1.487 . S
C2532 C960 1.449 . S
C2527 C31 1.459 1_565 S
