# Generated by pormake.
# Topology pyr, (3,6)-cn, num edge types: 1
# Building blocks:
#     Node 0, Type 0, BuildingBlock: CUQRIR_clean_linker_1, # of connection points: 3
#     Node 1, Type 0, BuildingBlock: CUQRIR_clean_linker_1, # of connection points: 3
#     Node 2, Type 0, BuildingBlock: CUQRIR_clean_linker_1, # of connection points: 3
#     Node 3, Type 0, BuildingBlock: CUQRIR_clean_linker_1, # of connection points: 3
#     Node 4, Type 0, BuildingBlock: CUQRIR_clean_linker_1, # of connection points: 3
#     Node 5, Type 0, BuildingBlock: CUQRIR_clean_linker_1, # of connection points: 3
#     Node 6, Type 0, BuildingBlock: CUQRIR_clean_linker_1, # of connection points: 3
#     Node 7, Type 0, BuildingBlock: CUQRIR_clean_linker_1, # of connection points: 3
#     Node 8, Type 1, BuildingBlock: BETGAK_clean_sbu_0, # of connection points: 6
#     Node 9, Type 1, BuildingBlock: BETGAK_clean_sbu_0, # of connection points: 6
#     Node 10, Type 1, BuildingBlock: BETGAK_clean_sbu_0, # of connection points: 6
#     Node 11, Type 1, BuildingBlock: BETGAK_clean_sbu_0, # of connection points: 6
#     Edge 12, Type (0, 1), BuildingBlock: KIFKEQ_clean_linker_1, # of connection points: 2
#     Edge 13, Type (0, 1), BuildingBlock: KIFKEQ_clean_linker_1, # of connection points: 2
#     Edge 14, Type (0, 1), BuildingBlock: KIFKEQ_clean_linker_1, # of connection points: 2
#     Edge 15, Type (0, 1), BuildingBlock: KIFKEQ_clean_linker_1, # of connection points: 2
#     Edge 16, Type (0, 1), BuildingBlock: KIFKEQ_clean_linker_1, # of connection points: 2
#     Edge 17, Type (0, 1), BuildingBlock: KIFKEQ_clean_linker_1, # of connection points: 2
#     Edge 18, Type (0, 1), BuildingBlock: KIFKEQ_clean_linker_1, # of connection points: 2
#     Edge 19, Type (0, 1), BuildingBlock: KIFKEQ_clean_linker_1, # of connection points: 2
#     Edge 20, Type (0, 1), BuildingBlock: KIFKEQ_clean_linker_1, # of connection points: 2
#     Edge 21, Type (0, 1), BuildingBlock: KIFKEQ_clean_linker_1, # of connection points: 2
#     Edge 22, Type (0, 1), BuildingBlock: KIFKEQ_clean_linker_1, # of connection points: 2
#     Edge 23, Type (0, 1), BuildingBlock: KIFKEQ_clean_linker_1, # of connection points: 2
#     Edge 24, Type (0, 1), BuildingBlock: KIFKEQ_clean_linker_1, # of connection points: 2
#     Edge 25, Type (0, 1), BuildingBlock: KIFKEQ_clean_linker_1, # of connection points: 2
#     Edge 26, Type (0, 1), BuildingBlock: KIFKEQ_clean_linker_1, # of connection points: 2
#     Edge 27, Type (0, 1), BuildingBlock: KIFKEQ_clean_linker_1, # of connection points: 2
#     Edge 28, Type (0, 1), BuildingBlock: KIFKEQ_clean_linker_1, # of connection points: 2
#     Edge 29, Type (0, 1), BuildingBlock: KIFKEQ_clean_linker_1, # of connection points: 2
#     Edge 30, Type (0, 1), BuildingBlock: KIFKEQ_clean_linker_1, # of connection points: 2
#     Edge 31, Type (0, 1), BuildingBlock: KIFKEQ_clean_linker_1, # of connection points: 2
#     Edge 32, Type (0, 1), BuildingBlock: KIFKEQ_clean_linker_1, # of connection points: 2
#     Edge 33, Type (0, 1), BuildingBlock: KIFKEQ_clean_linker_1, # of connection points: 2
#     Edge 34, Type (0, 1), BuildingBlock: KIFKEQ_clean_linker_1, # of connection points: 2
#     Edge 35, Type (0, 1), BuildingBlock: KIFKEQ_clean_linker_1, # of connection points: 2
# Relax obj value: 0.203
# Max RMSD: 0.259
# Mean RMSD: 0.169
data_MOF--net-pyr--node1-BETGAK_clean_sbu_0--node2-CUQRIR_clean_linker_1--edge1-KIFKEQ_clean_linker_1
_symmetry_space_group_name_H-M    P1
_symmetry_Int_Tables_number       1
_symmetry_cell_setting            triclinic
loop_
_symmetry_equiv_pos_as_xyz
'x, y, z'
_cell_length_a     35.731232
_cell_length_b     37.573358
_cell_length_c     33.667906
_cell_angle_alpha  90.081589
_cell_angle_beta   89.561635
_cell_angle_gamma 106.08753
loop_
_atom_site_label
_atom_site_type_symbol
_atom_site_fract_x
_atom_site_fract_y
_atom_site_fract_z
_atom_type_partial_charge
C0 C 0.35921 0.39607 0.23453 0.0
N1 N 0.37338 0.36727 0.24396 0.0
N2 N 0.37071 0.40889 0.19751 0.0
C3 C 0.32741 0.40651 0.25758 0.0
C4 C 0.39273 0.38695 0.1849 0.0
N5 N 0.3944 0.36175 0.21307 0.0
C6 C 0.41049 0.38889 0.1441 0.0
H7 H 0.33297 0.43702 0.25814 0.0
H8 H 0.32508 0.39642 0.28862 0.0
H9 H 0.29913 0.39458 0.24261 0.0
H10 H 0.41692 0.41749 0.13218 0.0
H11 H 0.38954 0.37022 0.12389 0.0
H12 H 0.43758 0.37992 0.14477 0.0
C13 C 0.3879 1.03205 0.57556 0.0
N14 N 0.37135 1.04817 0.60416 0.0
N15 N 0.41675 1.01934 0.59081 0.0
C16 C 0.37249 1.02433 0.53404 0.0
C17 C 0.41704 1.0284 0.62978 0.0
N18 N 0.38935 1.04566 0.63795 0.0
C19 C 0.44039 1.01534 0.66081 0.0
H20 H 0.39172 1.01248 0.5153 0.0
H21 H 0.36998 1.05028 0.52012 0.0
H22 H 0.34289 1.00469 0.53528 0.0
H23 H 0.44089 1.03033 0.6893 0.0
H24 H 0.47075 1.0194 0.65028 0.0
H25 H 0.42734 0.98528 0.66602 0.0
C26 C 0.63592 0.41166 0.8804 0.0
N27 N 0.65856 0.40791 0.91177 0.0
N28 N 0.64803 0.44621 0.8642 0.0
C29 C 0.6004 0.38222 0.86721 0.0
C30 C 0.67904 0.46331 0.88706 0.0
N31 N 0.68529 0.44047 0.91614 0.0
C32 C 0.70542 0.50148 0.87884 0.0
H33 H 0.57879 0.39473 0.85369 0.0
H34 H 0.58655 0.36442 0.89253 0.0
H35 H 0.60923 0.36449 0.84467 0.0
H36 H 0.69569 0.52192 0.89707 0.0
H37 H 0.70459 0.50894 0.84706 0.0
H38 H 0.73594 0.50324 0.88686 0.0
C39 C 0.84982 0.73142 0.37408 0.0
N40 N 0.88496 0.7559 0.36494 0.0
N41 N 0.83403 0.74127 0.40778 0.0
C42 C 0.83173 0.6966 0.3511 0.0
C43 C 0.86082 0.77274 0.41911 0.0
N44 N 0.8919 0.78192 0.39364 0.0
C45 C 0.85613 0.79524 0.45499 0.0
H46 H 0.8182 0.70392 0.32387 0.0
H47 H 0.80901 0.67673 0.36882 0.0
H48 H 0.85429 0.68301 0.34182 0.0
H49 H 0.87375 0.78892 0.47961 0.0
H50 H 0.82529 0.78877 0.46486 0.0
H51 H 0.86676 0.82533 0.44871 0.0
C52 C 0.68201 0.86766 0.92092 0.0
N53 N 0.71015 0.85504 0.90357 0.0
N54 N 0.67324 0.89379 0.89796 0.0
C55 C 0.66643 0.85789 0.96233 0.0
C56 C 0.69693 0.89624 0.8659 0.0
N57 N 0.71928 0.8727 0.86918 0.0
C58 C 0.70129 0.92444 0.83331 0.0
H59 H 0.63455 0.85408 0.96319 0.0
H60 H 0.68018 0.881 0.98268 0.0
H61 H 0.67243 0.83211 0.97301 0.0
H62 H 0.72621 0.94875 0.84007 0.0
H63 H 0.67454 0.93377 0.83064 0.0
H64 H 0.7076 0.91258 0.80464 0.0
C65 C 0.77215 0.25649 0.58788 0.0
N66 N 0.77717 0.22857 0.56468 0.0
N67 N 0.73831 0.26418 0.57894 0.0
C68 C 0.79934 0.27562 0.61998 0.0
C69 C 0.72314 0.24029 0.54931 0.0
N70 N 0.74645 0.21838 0.54105 0.0
C71 C 0.68802 0.24151 0.52533 0.0
H72 H 0.78332 0.28672 0.64311 0.0
H73 H 0.82192 0.29919 0.60684 0.0
H74 H 0.81397 0.25633 0.63384 0.0
H75 H 0.68638 0.27041 0.52199 0.0
H76 H 0.66136 0.22549 0.5412 0.0
H77 H 0.68838 0.22942 0.49533 0.0
C78 C 0.36115 0.74696 0.27474 0.0
N79 N 0.3942 0.77316 0.28554 0.0
N80 N 0.34145 0.75991 0.24647 0.0
C81 C 0.34743 0.70884 0.29274 0.0
C82 C 0.36364 0.79505 0.24026 0.0
N83 N 0.39567 0.80348 0.26384 0.0
C84 C 0.35428 0.8211 0.21034 0.0
H85 H 0.36262 0.69049 0.27763 0.0
H86 H 0.31558 0.69694 0.28914 0.0
H87 H 0.3545 0.70947 0.3248 0.0
H88 H 0.33872 0.839 0.2257 0.0
H89 H 0.33544 0.8057 0.18638 0.0
H90 H 0.3811 0.8393 0.19668 0.0
C91 C 0.14452 0.41851 0.78435 0.0
N92 N 0.16761 0.4132 0.75336 0.0
N93 N 0.15707 0.45345 0.79968 0.0
C94 C 0.10756 0.39069 0.79752 0.0
C95 C 0.18873 0.4693 0.7765 0.0
N96 N 0.19517 0.44535 0.74845 0.0
C97 C 0.21442 0.50811 0.7821 0.0
H98 H 0.08663 0.40471 0.81018 0.0
H99 H 0.11451 0.37277 0.82088 0.0
H100 H 0.0936 0.37295 0.77237 0.0
H101 H 0.21336 0.51733 0.8133 0.0
H102 H 0.20411 0.52707 0.76246 0.0
H103 H 0.24506 0.5101 0.7739 0.0
La104 La 0.05415 0.11706 0.5232 0.0
La105 La 0.04963 0.07904 0.6 0.0
C106 C 0.05452 0.15923 0.46519 0.0
C107 C 0.08759 0.18621 0.44622 0.0
C108 C 0.09138 0.18606 0.40477 0.0
C109 C 0.12647 0.20493 0.38655 0.0
C110 C 0.15825 0.22446 0.40951 0.0
C111 C 0.1537 0.22639 0.45084 0.0
C112 C 0.11873 0.20713 0.46913 0.0
C113 C 0.11656 0.09508 0.54084 0.0
C114 C 0.08328 0.16563 0.60165 0.0
C115 C 0.05312 1.03605 0.65637 0.0
C116 C 1.02364 1.00386 0.67235 0.0
C117 C 0.98539 0.99566 0.65829 0.0
C118 C 0.95553 0.96941 0.67763 0.0
C119 C 0.9634 0.95051 0.71127 0.0
C120 C 1.00238 0.95706 0.72349 0.0
C121 C 0.03225 0.98376 0.70431 0.0
C122 C 0.98934 0.10422 0.5856 0.0
C123 C 1.01804 1.03097 0.52085 0.0
O124 O 0.05572 0.125 0.46158 0.0
O125 O 0.04519 0.16654 0.50136 0.0
O126 O 0.1047 0.09781 0.50527 0.0
O127 O 0.09655 0.10826 0.56405 0.0
O128 O 0.06736 0.16435 0.5659 0.0
O129 O 0.08615 0.13435 0.61821 0.0
O130 O 0.04447 0.06739 0.66087 0.0
O131 O 0.06589 1.03254 0.62046 0.0
O132 O 1.00273 0.10126 0.62052 0.0
O133 O 1.0067 0.08957 0.56052 0.0
O134 O 0.03188 1.0315 0.55753 0.0
O135 O 1.0177 1.0626 0.50365 0.0
H136 H 0.06789 0.16971 0.38666 0.0
H137 H 0.12914 0.20347 0.35455 0.0
H138 H 0.17782 0.24117 0.46917 0.0
H139 H 0.1168 0.20711 0.50126 0.0
H140 H 0.97827 1.01106 0.63362 0.0
H141 H 0.92601 0.96574 0.66756 0.0
H142 H 1.00967 0.94254 0.74875 0.0
H143 H 0.06172 0.98972 0.71541 0.0
La144 La 0.56819 0.1178 0.12456 0.0
La145 La 0.49872 0.10139 0.08056 0.0
C146 C 0.63621 0.13325 0.15278 0.0
C147 C 0.6518 0.13076 0.19253 0.0
C148 C 0.63035 0.10535 0.22047 0.0
C149 C 0.64411 0.10486 0.25905 0.0
C150 C 0.67952 0.12982 0.27038 0.0
C151 C 0.70156 0.1544 0.24192 0.0
C152 C 0.68772 0.15488 0.20327 0.0
C153 C 0.51438 1.0599 0.15599 0.0
C154 C 0.50451 0.15087 0.15582 0.0
C155 C 0.43152 0.08414 0.05054 0.0
C156 C 0.4182 0.07709 1.00932 0.0
C157 C 0.38425 0.08555 0.99698 0.0
C158 C 0.37304 0.08136 0.95709 0.0
C159 C 0.39558 0.06846 0.92905 0.0
C160 C 0.42947 1.05984 0.9417 0.0
C161 C 0.44077 0.06429 0.98138 0.0
C162 C 0.55365 0.15886 1.04932 0.0
C163 C 0.5627 0.07197 1.04554 0.0
O164 O 0.61884 0.10179 0.13598 0.0
O165 O 0.61638 0.15738 0.14866 0.0
O166 O 0.53745 0.08651 0.17561 0.0
O167 O 0.52156 0.06657 0.11938 0.0
O168 O 0.54254 0.15757 0.15255 0.0
O169 O 0.4816 0.12331 0.13581 0.0
O170 O 0.45156 0.11811 0.05798 0.0
O171 O 0.44755 1.06018 0.0662 0.0
O172 O 0.52975 0.13296 1.02944 0.0
O173 O 0.54594 0.15232 0.08574 0.0
O174 O 0.52474 0.06457 1.04875 0.0
O175 O 0.5855 0.09776 0.06794 0.0
H176 H 0.60265 0.08629 0.2127 0.0
H177 H 0.62672 0.08537 0.28023 0.0
H178 H 0.7287 0.17428 0.24993 0.0
H179 H 0.70459 0.17468 0.18204 0.0
H180 H 0.36673 0.09586 1.01809 0.0
H181 H 0.34673 0.08809 0.9482 0.0
H182 H 0.44782 1.05049 0.9207 0.0
H183 H 0.46749 1.05827 0.99009 0.0
La184 La 0.50767 0.57035 0.54703 0.0
La185 La 0.51218 0.63019 0.59924 0.0
C186 C 0.52495 0.51872 0.51003 0.0
C187 C 0.5506 0.49543 0.52117 0.0
C188 C 0.53496 0.46085 0.53947 0.0
C189 C 0.55939 0.44017 0.55291 0.0
C190 C 0.6 0.4535 0.54809 0.0
C191 C 0.61561 0.48779 0.52919 0.0
C192 C 0.59121 0.50849 0.51582 0.0
C193 C 0.44041 0.5635 0.58558 0.0
C194 C 0.53926 0.56684 0.63568 0.0
C195 C 0.49684 0.68214 0.63711 0.0
C196 C 0.49438 0.71915 0.6247 0.0
C197 C 0.52816 0.74882 0.61969 0.0
C198 C 0.52556 0.78307 0.60579 0.0
C199 C 0.48918 0.7883 0.59657 0.0
C200 C 0.45543 0.75877 0.60196 0.0
C201 C 0.45799 0.72464 0.61604 0.0
C202 C 0.5795 0.636 0.56122 0.0
C203 C 0.48382 0.63696 0.50915 0.0
O204 O 0.49299 0.51409 0.53091 0.0
O205 O 0.54209 0.55379 0.50389 0.0
O206 O 0.44387 0.55655 0.54818 0.0
O207 O 0.47439 0.57449 0.60002 0.0
O208 O 0.54197 0.55786 0.59784 0.0
O209 O 0.52199 0.5926 0.6446 0.0
O210 O 0.5314 0.67658 0.63623 0.0
O211 O 0.47016 0.65392 0.62268 0.0
O212 O 0.57616 0.64521 0.59788 0.0
O213 O 0.54564 0.62542 0.54684 0.0
O214 O 0.48804 0.65027 0.54584 0.0
O215 O 0.4915 0.60513 0.50125 0.0
H216 H 0.50381 0.4499 0.54384 0.0
H217 H 0.54642 0.41352 0.56666 0.0
H218 H 0.64678 0.4989 0.52521 0.0
H219 H 0.60431 0.53502 0.50185 0.0
H220 H 0.55668 0.74558 0.62613 0.0
H221 H 0.55204 0.80536 0.60191 0.0
H222 H 0.4269 0.76222 0.59594 0.0
H223 H 0.43142 0.70242 0.61989 0.0
La224 La 1.01232 0.56284 0.10765 0.0
La225 La 1.01273 0.63497 0.05924 0.0
C226 C 1.02774 0.50375 0.12578 0.0
C227 C 0.06435 0.49324 0.12305 0.0
C228 C 0.07286 0.46998 0.152 0.0
C229 C 0.10975 0.46406 0.15324 0.0
C230 C 0.13864 0.48116 0.12537 0.0
C231 C 0.12961 0.50342 0.0955 0.0
C232 C 0.09286 0.50974 0.09461 0.0
C233 C 0.98226 0.60933 0.15188 0.0
C234 C 0.08653 0.6337 0.11042 0.0
C235 C 1.00331 0.69621 1.03855 0.0
C236 C 0.9712 0.7128 1.03301 0.0
C237 C 0.97755 0.74432 1.00902 0.0
C238 C 0.94651 0.75796 0.99847 0.0
C239 C 0.90859 0.7403 1.01185 0.0
C240 C 0.90248 0.70953 1.0373 0.0
C241 C 0.93363 0.69565 1.0476 0.0
C242 C 0.04803 0.59155 1.01705 0.0
C243 C 0.93808 0.56287 0.05618 0.0
O244 O 1.02836 0.53026 0.15125 0.0
O245 O 1.01155 0.50851 0.09207 0.0
O246 O 0.98552 0.57728 0.16314 0.0
O247 O 0.99403 0.61198 0.11602 0.0
O248 O 0.07243 0.59727 0.11424 0.0
O249 O 0.06699 0.65437 0.09249 0.0
O250 O 1.00357 0.66939 1.01384 0.0
O251 O 1.0113 0.68873 0.07501 0.0
O252 O 0.04517 0.62378 1.00641 0.0
O253 O 0.03237 0.5865 0.05134 0.0
O254 O 0.95288 0.59911 1.04943 0.0
O255 O 0.9569 0.54313 0.07671 0.0
H256 H 0.05141 0.45741 0.17447 0.0
H257 H 0.11593 0.44655 0.17639 0.0
H258 H 0.15147 0.51717 0.07392 0.0
H259 H 0.08721 0.52855 0.0726 0.0
H260 H 1.00638 0.75768 0.99736 0.0
H261 H 0.95203 0.78197 0.97922 0.0
H262 H 0.87345 0.69537 1.04783 0.0
H263 H 0.92824 0.67096 0.0658 0.0
H264 H 0.32113 0.30411 0.22512 0.0
H265 H 0.38046 0.36772 0.32372 0.0
H266 H 0.27454 0.2643 0.27032 0.0
H267 H 0.33417 0.3274 0.37003 0.0
H268 H 0.19668 0.19178 0.35719 0.0
H269 H 0.25778 0.21998 0.32233 0.0
H270 H 0.26673 0.32311 0.38378 0.0
H271 H 0.20622 0.29434 0.41947 0.0
C272 C 0.32503 0.30833 0.25682 0.0
C273 C 0.35401 0.33865 0.27125 0.0
C274 C 0.29837 0.28566 0.28282 0.0
C275 C 0.30027 0.29294 0.32387 0.0
C276 C 0.33153 0.32148 0.33853 0.0
C277 C 0.35826 0.34422 0.3123 0.0
C278 C 0.21194 0.22042 0.36333 0.0
C279 C 0.1965 0.24115 0.39043 0.0
C280 C 0.24695 0.23654 0.34349 0.0
C281 C 0.26705 0.2739 0.34997 0.0
C282 C 0.25238 0.29413 0.37845 0.0
C283 C 0.21753 0.27782 0.39865 0.0
H284 H 0.34483 0.99418 0.68583 0.0
H285 H 0.40721 0.10966 0.67851 0.0
H286 H 0.33614 1.0 0.75742 0.0
H287 H 0.40008 0.1158 0.75057 0.0
H288 H 0.37144 0.11738 0.88216 0.0
H289 H 0.35929 0.11298 0.81056 0.0
H290 H 0.38442 1.00691 0.80863 0.0
H291 H 0.39538 1.01089 0.87982 0.0
C292 C 0.35544 1.02111 0.69965 0.0
C293 C 0.37617 1.05162 0.67711 0.0
C294 C 0.35103 1.02442 0.74057 0.0
C295 C 0.36797 1.05823 0.75982 0.0
C296 C 0.3864 0.08945 0.73666 0.0
C297 C 0.3905 0.08609 0.69553 0.0
C298 C 0.37355 0.09283 0.86645 0.0
C299 C 0.3846 0.06457 0.88651 0.0
C300 C 0.3669 0.09045 0.82545 0.0
C301 C 0.37083 1.05961 0.80386 0.0
C302 C 0.38054 1.03083 0.82434 0.0
C303 C 0.38731 1.03328 0.86511 0.0
H304 H 0.62834 0.41694 0.79038 0.0
H305 H 0.62992 0.5117 0.86295 0.0
H306 H 0.60126 0.44417 0.73527 0.0
H307 H 0.60542 0.54022 0.80772 0.0
H308 H 0.52903 0.57211 0.71606 0.0
H309 H 0.55318 0.54179 0.76974 0.0
H310 H 0.6103 0.48809 0.68438 0.0
H311 H 0.5844 0.51754 0.63032 0.0
C312 C 0.62287 0.44362 0.79459 0.0
C313 C 0.63134 0.46201 0.83132 0.0
C314 C 0.60776 0.45965 0.76268 0.0
C315 C 0.60074 0.49478 0.7663 0.0
C316 C 0.60941 0.51298 0.80327 0.0
C317 C 0.62411 0.49681 0.83512 0.0
C318 C 0.54676 0.55387 0.70854 0.0
C319 C 0.55478 0.54769 0.66848 0.0
C320 C 0.56106 0.53649 0.73967 0.0
C321 C 0.58446 0.51243 0.73222 0.0
C322 C 0.59222 0.50596 0.69195 0.0
C323 C 0.57752 0.52317 0.66067 0.0
H324 H 0.94918 0.73077 0.3701 0.0
H325 H 0.87394 0.76114 0.28577 0.0
H326 H 0.97602 0.69982 0.31735 0.0
H327 H 0.89992 0.72981 0.23273 0.0
H328 H 0.96472 0.67747 0.13741 0.0
H329 H 0.94779 0.71938 0.18653 0.0
H330 H 0.95839 0.64496 0.28052 0.0
H331 H 0.97557 0.60421 0.23213 0.0
C332 C 0.93954 0.73231 0.3399 0.0
C333 C 0.91014 0.7498 0.33243 0.0
C334 C 0.95424 0.71358 0.30942 0.0
C335 C 0.94003 0.7112 0.26995 0.0
C336 C 0.91227 0.73075 0.26209 0.0
C337 C 0.89754 0.74933 0.29266 0.0
C338 C 0.96392 0.6703 0.16855 0.0
C339 C 0.97208 0.63715 0.18023 0.0
C340 C 0.95382 0.69436 0.19707 0.0
C341 C 0.95188 0.68644 0.23846 0.0
C342 C 0.9602 0.65325 0.24964 0.0
C343 C 0.96985 0.62934 0.22138 0.0
H344 H 0.44494 0.34292 0.26175 0.0
H345 H 0.37698 0.3092 0.15624 0.0
H346 H 0.47069 0.28883 0.25578 0.0
H347 H 0.40279 0.25566 0.14955 0.0
H348 H 0.42742 0.14673 0.16484 0.0
H349 H 0.39965 0.19664 0.18381 0.0
H350 H 0.51474 0.26696 0.2091 0.0
H351 H 0.54269 0.2169 0.19039 0.0
C352 C 0.43587 0.32394 0.23717 0.0
C353 C 0.40994 0.33045 0.20886 0.0
C354 C 0.45049 0.29314 0.23371 0.0
C355 C 0.43876 0.26799 0.20221 0.0
C356 C 0.41214 0.27432 0.17435 0.0
C357 C 0.39786 0.30522 0.17769 0.0
C358 C 0.44681 0.17253 0.17525 0.0
C359 C 0.48736 0.17796 0.17562 0.0
C360 C 0.43087 0.20122 0.18583 0.0
C361 C 0.45508 0.23594 0.19718 0.0
C362 C 0.49534 0.24051 0.20047 0.0
C363 C 0.51135 0.2118 0.18974 0.0
H364 H 0.30167 1.0136 0.6365 0.0
H365 H 0.36084 0.10442 0.56093 0.0
H366 H 0.23943 1.02647 0.62312 0.0
H367 H 0.29843 0.11689 0.54626 0.0
H368 H 0.17436 0.088 0.49082 0.0
H369 H 0.23738 0.07917 0.50913 0.0
H370 H 0.20544 0.07809 0.63318 0.0
H371 H 0.14265 0.08732 0.6149 0.0
C372 C 0.30134 1.03696 0.61794 0.0
C373 C 0.33579 1.05852 0.60023 0.0
C374 C 0.26582 1.04413 0.60996 0.0
C375 C 0.2642 0.07255 0.58352 0.0
C376 C 0.29889 0.09461 0.56646 0.0
C377 C 0.33444 0.08772 0.57495 0.0
C378 C 0.18087 0.08581 0.52195 0.0
C379 C 0.15382 0.08832 0.55148 0.0
C380 C 0.21693 0.08104 0.53242 0.0
C381 C 0.22625 0.07818 0.57256 0.0
C382 C 0.19889 0.08012 0.60204 0.0
C383 C 0.16308 0.08542 0.59159 0.0
H384 H 0.74625 0.41116 0.92498 0.0
H385 H 0.69629 0.49487 0.97048 0.0
H386 H 0.80668 0.43936 0.96138 0.0
H387 H 0.75614 0.52324 1.00689 0.0
H388 H 0.88436 0.59237 1.01957 0.0
H389 H 0.82183 0.55955 0.99053 0.0
H390 H 0.83991 0.45505 1.02509 0.0
H391 H 0.90248 0.48778 0.05391 0.0
C392 C 0.74775 0.43483 0.94391 0.0
C393 C 0.71638 0.45058 0.94515 0.0
C394 C 0.78251 0.45132 0.96456 0.0
C395 C 0.7869 0.4842 0.98675 0.0
C396 C 0.75449 0.49855 0.98959 0.0
C397 C 0.71986 0.48196 0.96922 0.0
C398 C 0.87504 0.56241 1.02119 0.0
C399 C 0.89887 0.54299 1.03936 0.0
C400 C 0.83887 0.54346 1.00466 0.0
C401 C 0.82534 0.50439 1.00537 0.0
C402 C 0.8492 0.48501 1.02353 0.0
C403 C 0.88517 0.50395 1.04039 0.0
H404 H 0.82496 0.71379 0.48255 0.0
H405 H 0.76053 0.72687 0.37888 0.0
H406 H 0.76416 0.68582 0.51833 0.0
H407 H 0.6991 0.70013 0.41471 0.0
H408 H 0.59215 0.62716 0.48104 0.0
H409 H 0.65301 0.64951 0.44319 0.0
H410 H 0.71174 0.69782 0.55024 0.0
H411 H 0.65157 0.67417 0.58777 0.0
C412 C 0.79758 0.71063 0.46746 0.0
C413 C 0.79761 0.72257 0.42791 0.0
C414 C 0.76246 0.69486 0.48807 0.0
C415 C 0.7259 0.69078 0.47001 0.0
C416 C 0.72617 0.70216 0.42994 0.0
C417 C 0.76145 0.71769 0.40924 0.0
C418 C 0.6182 0.6423 0.49646 0.0
C419 C 0.61674 0.64868 0.53761 0.0
C420 C 0.65327 0.65551 0.47465 0.0
C421 C 0.6881 0.67574 0.4932 0.0
C422 C 0.6863 0.68188 0.53449 0.0
C423 C 0.65143 0.66847 0.55622 0.0
H424 H 0.36954 0.47997 0.20366 0.0
H425 H 0.32179 0.37899 0.13874 0.0
H426 H 0.31782 0.505 0.1783 0.0
H427 H 0.27043 0.40374 0.1129 0.0
H428 H 0.18399 0.46273 0.06724 0.0
H429 H 0.24866 0.4528 0.07489 0.0
H430 H 0.24745 0.48122 0.19916 0.0
H431 H 0.1833 0.49106 0.19148 0.0
C432 C 0.3489 0.4639 0.18258 0.0
C433 C 0.34941 0.42771 0.17307 0.0
C434 C 0.3192 0.47796 0.16834 0.0
C435 C 0.28979 0.45607 0.1441 0.0
C436 C 0.29279 0.42136 0.13129 0.0
C437 C 0.32229 0.40724 0.14584 0.0
C438 C 0.19791 0.46726 0.09599 0.0
C439 C 0.17858 0.47721 0.1289 0.0
C440 C 0.23479 0.46158 0.10036 0.0
C441 C 0.25319 0.46648 0.13754 0.0
C442 C 0.23433 0.47779 0.16999 0.0
C443 C 0.19738 0.48293 0.16576 0.0
H444 H 0.63551 0.39757 0.98913 0.0
H445 H 0.66685 0.3421 0.88777 0.0
H446 H 0.61311 0.33804 1.02435 0.0
H447 H 0.6461 0.28286 0.92271 0.0
H448 H 0.59247 0.22435 0.08709 0.0
H449 H 0.62296 0.28505 0.05682 0.0
H450 H 0.58966 0.23826 0.9408 0.0
H451 H 0.56062 0.17811 0.97092 0.0
C452 C 0.63876 0.37272 0.9749 0.0
C453 C 0.6533 0.37461 0.93578 0.0
C454 C 0.62577 0.33838 0.99499 0.0
C455 C 0.62693 0.30482 0.97651 0.0
C456 C 0.64348 0.30743 0.93799 0.0
C457 C 0.6561 0.34158 0.91798 0.0
C458 C 0.59205 0.22706 0.05508 0.0
C459 C 0.57408 0.19604 1.03156 0.0
C460 C 0.60934 0.26208 1.03759 0.0
C461 C 0.60932 0.26726 0.99596 0.0
C462 C 0.59141 0.23592 0.97272 0.0
C463 C 0.5743 0.20112 0.99013 0.0
H464 H 0.95476 0.79562 0.44142 0.0
H465 H 0.89451 0.84807 0.36051 0.0
H466 H 0.98808 0.85578 0.46998 0.0
H467 H 0.92616 0.90834 0.38961 0.0
H468 H 0.99635 1.01913 0.44196 0.0
H469 H 0.97381 0.96096 0.4057 0.0
H470 H 0.981 0.90061 0.51313 0.0
H471 H 1.00501 0.95898 0.54872 0.0
C472 C 0.95005 0.82031 0.42831 0.0
C473 C 0.92282 0.81662 0.39741 0.0
C474 C 0.96827 0.85512 0.44569 0.0
C475 C 0.95969 0.88801 0.43334 0.0
C476 C 0.93442 0.88453 0.40043 0.0
C477 C 0.9165 0.84967 0.3829 0.0
C478 C 0.99315 0.99348 0.45799 0.0
C479 C 1.00269 0.99443 0.4987 0.0
C480 C 0.97989 0.95962 0.43699 0.0
C481 C 0.97521 0.9249 0.45572 0.0
C482 C 0.98466 0.92604 0.49663 0.0
C483 C 0.99824 0.95993 0.51751 0.0
H484 H 0.37334 0.95145 0.57175 0.0
H485 H 0.49149 1.02044 0.57758 0.0
H486 H 0.39662 0.89706 0.56124 0.0
H487 H 0.51553 0.96592 0.56681 0.0
H488 H 0.5264 0.85606 0.62689 0.0
H489 H 0.51362 0.91497 0.61242 0.0
H490 H 0.43168 0.86227 0.52194 0.0
H491 H 0.44438 0.80306 0.53672 0.0
C492 C 0.40439 0.95497 0.56913 0.0
C493 C 0.43077 0.98978 0.57535 0.0
C494 C 0.41782 0.92392 0.56313 0.0
C495 C 0.45797 0.92713 0.5635 0.0
C496 C 0.48442 0.96254 0.56685 0.0
C497 C 0.47085 0.99367 0.57275 0.0
C498 C 0.50644 0.85724 0.60319 0.0
C499 C 0.48592 0.82489 0.58338 0.0
C500 C 0.49922 0.89106 0.59474 0.0
C501 C 0.47138 0.89323 0.56623 0.0
C502 C 0.45284 0.86133 0.5445 0.0
C503 C 0.45999 0.82746 0.55304 0.0
H504 H 0.78477 0.92593 0.88222 0.0
H505 H 0.73506 0.82977 0.81069 0.0
H506 H 0.84612 0.93719 0.8457 0.0
H507 H 0.79719 0.83952 0.77459 0.0
H508 H 0.8928 0.90553 0.68636 0.0
H509 H 0.83473 0.88114 0.72677 0.0
H510 H 0.9019 0.91742 0.83285 0.0
H511 H 0.95908 0.94448 0.79244 0.0
C512 C 0.78755 0.90696 0.85885 0.0
C513 C 0.75573 0.87726 0.8488 0.0
C514 C 0.82268 0.91299 0.83821 0.0
C515 C 0.82683 0.88911 0.80723 0.0
C516 C 0.79494 0.85865 0.79796 0.0
C517 C 0.75956 0.85288 0.81857 0.0
C518 C 0.89525 0.90825 0.71832 0.0
C519 C 0.93056 0.92788 0.73592 0.0
C520 C 0.86197 0.89374 0.7416 0.0
C521 C 0.86335 0.89802 0.78311 0.0
C522 C 0.89949 0.91455 0.80089 0.0
C523 C 0.93259 0.92956 0.77762 0.0
H524 H 0.79365 0.2317 0.47748 0.0
H525 H 0.69182 0.15459 0.5271 0.0
H526 H 0.78039 0.20108 0.41299 0.0
H527 H 0.67877 0.12252 0.46311 0.0
H528 H 0.63394 0.1293 0.33545 0.0
H529 H 0.65428 0.14162 0.40373 0.0
H530 H 0.77309 0.14916 0.36935 0.0
H531 H 0.75251 0.13732 0.30031 0.0
C532 C 0.76923 0.20721 0.47463 0.0
C533 C 0.74349 0.19538 0.50655 0.0
C534 C 0.7616 0.18955 0.4379 0.0
C535 C 0.72814 0.15962 0.43271 0.0
C536 C 0.70431 0.14596 0.4659 0.0
C537 C 0.71179 0.16393 0.50248 0.0
C538 C 0.66424 0.13265 0.34255 0.0
C539 C 0.69167 0.13253 0.3125 0.0
C540 C 0.67595 0.13958 0.38183 0.0
C541 C 0.71538 0.14641 0.39211 0.0
C542 C 0.74258 0.1445 0.36233 0.0
C543 C 0.73084 0.13774 0.32285 0.0
H544 H 0.39132 0.78949 0.36343 0.0
H545 H 0.45035 0.73808 0.27899 0.0
H546 H 0.4143 0.7581 0.4178 0.0
H547 H 0.47484 0.70737 0.33292 0.0
H548 H 0.47061 0.61993 0.42936 0.0
H549 H 0.45512 0.65784 0.37653 0.0
H550 H 0.45956 0.74561 0.46086 0.0
H551 H 0.47368 0.70713 0.5137 0.0
C552 C 0.41115 0.7731 0.35668 0.0
C553 C 0.41999 0.76746 0.31673 0.0
C554 C 0.42402 0.75442 0.38796 0.0
C555 C 0.44622 0.72917 0.38049 0.0
C556 C 0.45716 0.7256 0.34053 0.0
C557 C 0.44407 0.74415 0.30936 0.0
C558 C 0.46814 0.64724 0.43676 0.0
C559 C 0.47333 0.65998 0.47628 0.0
C560 C 0.4596 0.66945 0.40611 0.0
C561 C 0.45613 0.70551 0.41357 0.0
C562 C 0.46134 0.71813 0.45326 0.0
C563 C 0.46967 0.69586 0.4839 0.0
H564 H 0.13713 0.5183 0.79777 0.0
H565 H 0.13777 0.42782 0.87556 0.0
H566 H 0.11142 0.54859 0.85135 0.0
H567 H 0.11236 0.45833 0.93015 0.0
H568 H 0.03626 0.51381 1.01341 0.0
H569 H 0.06142 0.47897 0.96236 0.0
H570 H 0.1266 0.58216 0.90909 0.0
H571 H 0.10108 0.61604 0.95874 0.0
C572 C 0.13208 0.50494 0.82654 0.0
C573 C 0.1401 0.47062 0.832 0.0
C574 C 0.11735 0.52248 0.85777 0.0
C575 C 0.11001 0.50671 0.89626 0.0
C576 C 0.11719 0.47178 0.90143 0.0
C577 C 0.13193 0.45412 0.86995 0.0
C578 C 0.05647 0.52897 0.99118 0.0
C579 C 0.06655 0.56806 0.99074 0.0
C580 C 0.07093 0.50892 0.9615 0.0
C581 C 0.09583 0.52725 0.93023 0.0
C582 C 0.10675 0.56633 0.93121 0.0
C583 C 0.09232 0.58607 0.96042 0.0
H584 H 0.59834 0.8847 0.91928 0.0
H585 H 0.71 0.96564 0.90913 0.0
H586 H 0.57136 0.93084 0.95119 0.0
H587 H 0.683 1.01261 0.93847 0.0
H588 H 0.6375 0.06743 1.04305 0.0
H589 H 0.66346 1.02605 1.00258 0.0
H590 H 0.55236 0.98644 0.944 0.0
H591 H 0.526 1.02691 0.98567 0.0
C592 C 0.61675 0.91266 0.92326 0.0
C593 C 0.65602 0.92184 0.91188 0.0
C594 C 0.60138 0.9392 0.94113 0.0
C595 C 0.62508 0.97549 0.94761 0.0
C596 C 0.66407 0.98485 0.93458 0.0
C597 C 0.67943 0.9582 0.91723 0.0
C598 C 0.61877 1.05023 1.02119 0.0
C599 C 0.57968 1.05024 1.01773 0.0
C600 C 0.63369 1.02657 0.99779 0.0
C601 C 0.60995 1.00272 0.97007 0.0
C602 C 0.57123 1.0039 0.96555 0.0
C603 C 0.55621 1.02728 0.98926 0.0
H604 H 0.77215 0.15584 0.56468 0.0
H605 H 0.85434 0.26427 0.56303 0.0
H606 H 0.82601 0.12728 0.56294 0.0
H607 H 0.90835 0.23572 0.56366 0.0
H608 H 0.97559 0.15893 0.62997 0.0
H609 H 0.9259 0.19136 0.62013 0.0
H610 H 0.88819 0.1279 0.51363 0.0
H611 H 0.93917 0.09597 0.52286 0.0
C612 C 0.80178 0.17348 0.56381 0.0
C613 C 0.80919 0.21219 0.56449 0.0
C614 C 0.83247 0.15721 0.56271 0.0
C615 C 0.87115 0.17939 0.56303 0.0
C616 C 0.87867 0.21812 0.56348 0.0
C617 C 0.84791 0.2344 0.56369 0.0
C618 C 0.95694 0.15216 0.60423 0.0
C619 C 0.96082 0.12483 0.57729 0.0
C620 C 0.92876 0.17087 0.59851 0.0
C621 C 0.90336 0.16202 0.56621 0.0
C622 C 0.90754 0.13507 0.53879 0.0
C623 C 0.93656 0.11693 0.54399 0.0
H624 H 0.27582 0.78214 0.24365 0.0
H625 H 0.32505 0.69517 0.20603 0.0
H626 H 0.215 0.75167 0.20974 0.0
H627 H 0.26445 0.66445 0.17158 0.0
H628 H 0.13626 0.60103 0.14861 0.0
H629 H 0.19743 0.63093 0.18142 0.0
H630 H 0.18687 0.73793 0.14524 0.0
H631 H 0.12517 0.70807 0.11315 0.0
C632 C 0.27353 0.75648 0.22791 0.0
C633 C 0.3051 0.74102 0.22742 0.0
C634 C 0.23878 0.73904 0.20826 0.0
C635 C 0.23456 0.70553 0.18754 0.0
C636 C 0.26622 0.68992 0.18749 0.0
C637 C 0.30101 0.70746 0.20716 0.0
C638 C 0.14696 0.63096 0.14743 0.0
C639 C 0.12542 0.65202 0.12816 0.0
C640 C 0.18233 0.64816 0.16618 0.0
C641 C 0.19734 0.68702 0.16634 0.0
C642 C 0.1761 0.70803 0.14646 0.0
C643 C 0.14073 0.69082 0.12767 0.0
H644 H 0.19952 0.48291 0.6795 0.0
H645 H 0.2656 0.43205 0.75584 0.0
H646 H 0.2582 0.51107 0.64003 0.0
H647 H 0.32481 0.46003 0.71663 0.0
H648 H 0.43101 0.55152 0.6668 0.0
H649 H 0.37166 0.51964 0.70361 0.0
H650 H 0.30705 0.50271 0.59418 0.0
H651 H 0.36621 0.53462 0.55771 0.0
C652 C 0.22646 0.47668 0.68693 0.0
C653 C 0.22748 0.45416 0.72004 0.0
C654 C 0.2604 0.49311 0.6645 0.0
C655 C 0.29695 0.48827 0.67484 0.0
C656 C 0.29766 0.46497 0.70763 0.0
C657 C 0.26352 0.44823 0.72979 0.0
C658 C 0.4041 0.5412 0.65061 0.0
C659 C 0.40371 0.54595 0.60909 0.0
C660 C 0.36991 0.52247 0.67174 0.0
C661 C 0.33394 0.50811 0.65221 0.0
C662 C 0.33367 0.51342 0.61071 0.0
C663 C 0.36786 0.53178 0.58961 0.0
H664 H 0.75075 0.87238 0.97129 0.0
H665 H 0.723 0.79213 0.87688 0.0
H666 H 0.7952 0.84023 0.99988 0.0
H667 H 0.76803 0.76006 0.90478 0.0
H668 H 0.89321 0.75444 0.93561 0.0
H669 H 0.84101 0.7787 0.91135 0.0
H670 H 0.79687 0.77897 1.03111 0.0
H671 H 0.84956 0.75477 0.05552 0.0
C672 C 0.75364 0.84731 0.95729 0.0
C673 C 0.73337 0.83425 0.9223 0.0
C674 C 0.77901 0.82899 0.97349 0.0
C675 C 0.78496 0.79764 0.95456 0.0
C676 C 0.76411 0.78428 0.91985 0.0
C677 C 0.73844 0.80244 0.90392 0.0
C678 C 0.8723 0.75963 0.95673 0.0
C679 C 0.87552 0.75308 0.99745 0.0
C680 C 0.84223 0.77314 0.94281 0.0
C681 C 0.81492 0.78065 0.96936 0.0
C682 C 0.81771 0.77355 1.01007 0.0
C683 C 0.84763 0.75957 1.02398 0.0
H684 H 0.39448 0.86632 0.30163 0.0
H685 H 0.45916 0.82185 0.21622 0.0
H686 H 0.42467 0.92891 0.27661 0.0
H687 H 0.4897 0.88437 0.19066 0.0
H688 H 0.4909 0.99114 0.11919 0.0
H689 H 0.46911 0.92981 0.15057 0.0
H690 H 0.4808 0.98142 0.2661 0.0
H691 H 0.50234 1.04236 0.23472 0.0
C692 C 0.41696 0.87019 0.27901 0.0
C693 C 0.42524 0.83894 0.26197 0.0
C694 C 0.43386 0.90617 0.26396 0.0
C695 C 0.45936 0.91221 0.23084 0.0
C696 C 0.46979 0.88118 0.21565 0.0
C697 C 0.45315 0.84527 0.23109 0.0
C698 C 0.48856 0.98941 0.15126 0.0
C699 C 0.49827 1.02201 0.17424 0.0
C700 C 0.47645 0.95408 0.16944 0.0
C701 C 0.47325 0.95009 0.21123 0.0
C702 C 0.48249 0.98288 0.234 0.0
C703 C 0.49494 1.01805 0.21588 0.0
H704 H 0.16332 0.40436 0.67244 0.0
H705 H 0.1581 0.34347 0.78132 0.0
H706 H 0.14618 0.34606 0.63501 0.0
H707 H 0.13893 0.28529 0.74495 0.0
H708 H 0.1263 0.18145 0.67086 0.0
H709 H 0.15065 0.24054 0.70495 0.0
H710 H 0.09863 0.29361 0.61553 0.0
H711 H 0.07575 0.23462 0.58076 0.0
C712 C 0.15898 0.37855 0.68843 0.0
C713 C 0.16223 0.37899 0.73014 0.0
C714 C 0.14836 0.3447 0.66696 0.0
C715 C 0.14045 0.30983 0.68635 0.0
C716 C 0.14495 0.31074 0.72808 0.0
C717 C 0.15575 0.34446 0.74934 0.0
C718 C 0.1201 0.2057 0.65828 0.0
C719 C 0.09879 0.20261 0.62274 0.0
C720 C 0.13395 0.24002 0.6782 0.0
C721 C 0.12683 0.27295 0.66377 0.0
C722 C 0.10565 0.26973 0.62794 0.0
C723 C 0.09209 0.23543 0.60786 0.0
H724 H 0.66886 0.2624 0.61095 0.0
H725 H 0.77749 0.33604 0.57085 0.0
H726 H 0.63941 0.3138 0.61213 0.0
H727 H 0.74878 0.38811 0.57297 0.0
H728 H 0.6625 0.44157 0.50881 0.0
H729 H 0.70144 0.40071 0.5277 0.0
H730 H 0.63506 0.37352 0.63671 0.0
H731 H 0.59586 0.41466 0.61765 0.0
C732 C 0.68675 0.29004 0.60399 0.0
C733 C 0.72519 0.2955 0.59069 0.0
C734 C 0.67004 0.31951 0.60467 0.0
C735 C 0.69159 0.35499 0.59201 0.0
C736 C 0.73123 0.36098 0.58224 0.0
C737 C 0.74787 0.33141 0.58154 0.0
C738 C 0.65671 0.42753 0.53721 0.0
C739 C 0.62585 0.43109 0.56154 0.0
C740 C 0.67919 0.40418 0.54817 0.0
C741 C 0.6714 0.38382 0.58376 0.0
C742 C 0.64151 0.3885 0.6089 0.0
C743 C 0.61898 0.41191 0.5979 0.0
loop_
_geom_bond_atom_site_label_1
_geom_bond_atom_site_label_2
_geom_bond_distance
_geom_bond_site_symmetry_2
_ccdc_geom_bond_type
C0 N1 1.317 . S
C0 N2 1.348 . S
C0 C3 1.485 . S
N1 C0 1.317 . S
N1 N5 1.370 . S
N2 C0 1.348 . S
N2 C4 1.346 . S
C3 C0 1.485 . S
C3 H7 0.960 . S
C3 H8 0.961 . S
C3 H9 0.960 . S
C4 N2 1.346 . S
C4 N5 1.307 . S
C4 C6 1.486 . S
N5 N1 1.370 . S
N5 C4 1.307 . S
C6 C4 1.486 . S
C6 H10 0.960 . S
C6 H11 0.960 . S
C6 H12 0.959 . S
H7 C3 0.960 . S
H8 C3 0.961 . S
H9 C3 0.960 . S
H10 C6 0.960 . S
H11 C6 0.960 . S
H12 C6 0.959 . S
C13 N14 1.317 . S
C13 N15 1.348 . S
C13 C16 1.485 . S
N14 C13 1.317 . S
N14 N18 1.370 . S
N15 C13 1.348 . S
N15 C17 1.346 . S
C16 C13 1.485 . S
C16 H20 0.960 . S
C16 H21 0.961 . S
C16 H22 0.960 . S
C17 N15 1.346 . S
C17 N18 1.307 . S
C17 C19 1.486 . S
N18 N14 1.370 . S
N18 C17 1.307 . S
C19 C17 1.486 . S
C19 H23 0.960 . S
C19 H24 0.960 . S
C19 H25 0.959 . S
H20 C16 0.960 . S
H21 C16 0.961 . S
H22 C16 0.960 . S
H23 C19 0.960 . S
H24 C19 0.960 . S
H25 C19 0.959 . S
C26 N27 1.317 . S
C26 N28 1.348 . S
C26 C29 1.485 . S
N27 C26 1.317 . S
N27 N31 1.370 . S
N28 C26 1.348 . S
N28 C30 1.346 . S
C29 C26 1.485 . S
C29 H33 0.960 . S
C29 H34 0.961 . S
C29 H35 0.960 . S
C30 N28 1.346 . S
C30 N31 1.307 . S
C30 C32 1.486 . S
N31 N27 1.370 . S
N31 C30 1.307 . S
C32 C30 1.486 . S
C32 H36 0.960 . S
C32 H37 0.960 . S
C32 H38 0.959 . S
H33 C29 0.960 . S
H34 C29 0.961 . S
H35 C29 0.960 . S
H36 C32 0.960 . S
H37 C32 0.960 . S
H38 C32 0.959 . S
C39 N40 1.317 . S
C39 N41 1.348 . S
C39 C42 1.485 . S
N40 C39 1.317 . S
N40 N44 1.370 . S
N41 C39 1.348 . S
N41 C43 1.346 . S
C42 C39 1.485 . S
C42 H46 0.960 . S
C42 H47 0.961 . S
C42 H48 0.960 . S
C43 N41 1.346 . S
C43 N44 1.307 . S
C43 C45 1.486 . S
N44 N40 1.370 . S
N44 C43 1.307 . S
C45 C43 1.486 . S
C45 H49 0.960 . S
C45 H50 0.960 . S
C45 H51 0.959 . S
H46 C42 0.960 . S
H47 C42 0.961 . S
H48 C42 0.960 . S
H49 C45 0.960 . S
H50 C45 0.960 . S
H51 C45 0.959 . S
C52 N53 1.317 . S
C52 N54 1.348 . S
C52 C55 1.485 . S
N53 C52 1.317 . S
N53 N57 1.370 . S
N54 C52 1.348 . S
N54 C56 1.346 . S
C55 C52 1.485 . S
C55 H59 0.960 . S
C55 H60 0.961 . S
C55 H61 0.960 . S
C56 N54 1.346 . S
C56 N57 1.307 . S
C56 C58 1.486 . S
N57 N53 1.370 . S
N57 C56 1.307 . S
C58 C56 1.486 . S
C58 H62 0.960 . S
C58 H63 0.960 . S
C58 H64 0.959 . S
H59 C55 0.960 . S
H60 C55 0.961 . S
H61 C55 0.960 . S
H62 C58 0.960 . S
H63 C58 0.960 . S
H64 C58 0.959 . S
C65 N66 1.317 . S
C65 N67 1.348 . S
C65 C68 1.485 . S
N66 C65 1.317 . S
N66 N70 1.370 . S
N67 C65 1.348 . S
N67 C69 1.346 . S
C68 C65 1.485 . S
C68 H72 0.960 . S
C68 H73 0.961 . S
C68 H74 0.960 . S
C69 N67 1.346 . S
C69 N70 1.307 . S
C69 C71 1.486 . S
N70 N66 1.370 . S
N70 C69 1.307 . S
C71 C69 1.486 . S
C71 H75 0.960 . S
C71 H76 0.960 . S
C71 H77 0.959 . S
H72 C68 0.960 . S
H73 C68 0.961 . S
H74 C68 0.960 . S
H75 C71 0.960 . S
H76 C71 0.960 . S
H77 C71 0.959 . S
C78 N79 1.317 . S
C78 N80 1.348 . S
C78 C81 1.485 . S
N79 C78 1.317 . S
N79 N83 1.370 . S
N80 C78 1.348 . S
N80 C82 1.346 . S
C81 C78 1.485 . S
C81 H85 0.960 . S
C81 H86 0.961 . S
C81 H87 0.960 . S
C82 N80 1.346 . S
C82 N83 1.307 . S
C82 C84 1.486 . S
N83 N79 1.370 . S
N83 C82 1.307 . S
C84 C82 1.486 . S
C84 H88 0.960 . S
C84 H89 0.960 . S
C84 H90 0.959 . S
H85 C81 0.960 . S
H86 C81 0.961 . S
H87 C81 0.960 . S
H88 C84 0.960 . S
H89 C84 0.960 . S
H90 C84 0.959 . S
C91 N92 1.317 . S
C91 N93 1.348 . S
C91 C94 1.485 . S
N92 C91 1.317 . S
N92 N96 1.370 . S
N93 C91 1.348 . S
N93 C95 1.346 . S
C94 C91 1.485 . S
C94 H98 0.960 . S
C94 H99 0.961 . S
C94 H100 0.960 . S
C95 N93 1.346 . S
C95 N96 1.307 . S
C95 C97 1.486 . S
N96 N92 1.370 . S
N96 C95 1.307 . S
C97 C95 1.486 . S
C97 H101 0.960 . S
C97 H102 0.960 . S
C97 H103 0.959 . S
H98 C94 0.960 . S
H99 C94 0.961 . S
H100 C94 0.960 . S
H101 C97 0.960 . S
H102 C97 0.960 . S
H103 C97 0.959 . S
La104 C106 2.928 . S
La104 O124 2.521 . S
La104 O125 2.628 . S
La104 O126 2.554 . S
La104 O127 2.757 . S
La104 O128 2.470 . S
La104 O133 2.482 . S
La104 O135 2.503 1_545 S
La105 C115 2.928 1_445 S
La105 O127 2.482 . S
La105 O129 2.503 . S
La105 O130 2.521 1_445 S
La105 O131 2.628 1_445 S
La105 O132 2.554 1_455 S
La105 O133 2.757 . S
La105 O134 2.470 1_445 S
C106 La104 2.928 . S
C106 C107 1.503 . S
C106 O124 1.261 . S
C106 O125 1.243 . S
C107 C106 1.503 . S
C107 C108 1.394 . S
C107 C112 1.373 . S
C108 C107 1.394 . S
C108 C109 1.380 . S
C108 H136 0.930 . S
C109 C108 1.380 . S
C109 C110 1.376 . S
C109 H137 0.930 . S
C110 C109 1.376 . S
C110 C111 1.370 . S
C111 C110 1.370 . S
C111 C112 1.396 . S
C111 H138 0.929 . S
C112 C107 1.373 . S
C112 C111 1.396 . S
C112 H139 0.929 . S
C113 O126 1.240 1_565 S
C113 O127 1.289 1_565 S
C114 O128 1.258 . S
C114 O129 1.256 . S
C115 La105 2.928 1_665 S
C115 C116 1.503 . S
C115 O130 1.261 . S
C115 O131 1.243 . S
C116 C115 1.503 . S
C116 C117 1.394 . S
C116 C121 1.373 . S
C117 C116 1.394 . S
C117 C118 1.380 . S
C117 H140 0.930 . S
C118 C117 1.380 . S
C118 C119 1.376 . S
C118 H141 0.930 . S
C119 C118 1.376 . S
C119 C120 1.370 . S
C120 C119 1.370 . S
C120 C121 1.396 . S
C120 H142 0.929 . S
C121 C116 1.373 . S
C121 C120 1.396 . S
C121 H143 0.929 . S
C122 O132 1.240 . S
C122 O133 1.289 1_655 S
C123 O134 1.258 . S
C123 O135 1.256 1_655 S
O124 La104 2.521 . S
O124 C106 1.261 . S
O125 La104 2.628 . S
O125 C106 1.243 . S
O126 La104 2.554 . S
O126 C113 1.240 1_545 S
O127 La104 2.757 . S
O127 La105 2.482 . S
O127 C113 1.289 1_545 S
O128 La104 2.470 . S
O128 C114 1.258 . S
O129 La105 2.503 . S
O129 C114 1.256 . S
O130 La105 2.521 1_665 S
O130 C115 1.261 . S
O131 La105 2.628 1_665 S
O131 C115 1.243 . S
O132 La105 2.554 1_655 S
O132 C122 1.240 . S
O133 La104 2.482 . S
O133 La105 2.757 . S
O133 C122 1.289 1_455 S
O134 La105 2.470 1_665 S
O134 C123 1.258 . S
O135 La104 2.503 1_565 S
O135 C123 1.256 1_455 S
H136 C108 0.930 . S
H137 C109 0.930 . S
H138 C111 0.929 . S
H139 C112 0.929 . S
H140 C117 0.930 . S
H141 C118 0.930 . S
H142 C120 0.929 . S
H143 C121 0.929 . S
La144 C146 2.928 . S
La144 O164 2.521 . S
La144 O165 2.628 . S
La144 O166 2.554 1_545 S
La144 O167 2.757 . S
La144 O168 2.470 . S
La144 O173 2.482 . S
La144 O175 2.503 . S
La145 C155 2.928 1_554 S
La145 O167 2.482 . S
La145 O169 2.503 . S
La145 O170 2.521 1_554 S
La145 O171 2.628 1_544 S
La145 O172 2.554 1_554 S
La145 O173 2.757 . S
La145 O174 2.470 1_554 S
C146 La144 2.928 . S
C146 C147 1.503 . S
C146 O164 1.261 . S
C146 O165 1.243 . S
C147 C146 1.503 . S
C147 C148 1.394 . S
C147 C152 1.373 . S
C148 C147 1.394 . S
C148 C149 1.380 . S
C148 H176 0.930 . S
C149 C148 1.380 . S
C149 C150 1.376 . S
C149 H177 0.930 . S
C150 C149 1.376 . S
C150 C151 1.370 . S
C151 C150 1.370 . S
C151 C152 1.396 . S
C151 H178 0.929 . S
C152 C147 1.373 . S
C152 C151 1.396 . S
C152 H179 0.929 . S
C153 O166 1.240 . S
C153 O167 1.289 1_565 S
C154 O168 1.258 . S
C154 O169 1.256 . S
C155 La145 2.928 1_556 S
C155 C156 1.503 1_545 S
C155 O170 1.261 . S
C155 O171 1.243 1_545 S
C156 C155 1.503 1_565 S
C156 C157 1.394 1_565 S
C156 C161 1.373 . S
C157 C156 1.394 1_545 S
C157 C158 1.380 1_545 S
C157 H180 0.930 . S
C158 C157 1.380 1_565 S
C158 C159 1.376 . S
C158 H181 0.930 . S
C159 C158 1.376 . S
C159 C160 1.370 . S
C160 C159 1.370 . S
C160 C161 1.396 . S
C160 H182 0.929 . S
C161 C156 1.373 . S
C161 C160 1.396 . S
C161 H183 0.929 . S
C162 O172 1.240 1_554 S
C162 O173 1.289 . S
C163 O174 1.258 1_554 S
C163 O175 1.256 . S
O164 La144 2.521 . S
O164 C146 1.261 . S
O165 La144 2.628 . S
O165 C146 1.243 . S
O166 La144 2.554 1_565 S
O166 C153 1.240 . S
O167 La144 2.757 . S
O167 La145 2.482 . S
O167 C153 1.289 1_545 S
O168 La144 2.470 . S
O168 C154 1.258 . S
O169 La145 2.503 . S
O169 C154 1.256 . S
O170 La145 2.521 1_556 S
O170 C155 1.261 . S
O171 La145 2.628 1_566 S
O171 C155 1.243 1_565 S
O172 La145 2.554 1_556 S
O172 C162 1.240 1_556 S
O173 La144 2.482 . S
O173 La145 2.757 . S
O173 C162 1.289 . S
O174 La145 2.470 1_556 S
O174 C163 1.258 1_556 S
O175 La144 2.503 . S
O175 C163 1.256 . S
H176 C148 0.930 . S
H177 C149 0.930 . S
H178 C151 0.929 . S
H179 C152 0.929 . S
H180 C157 0.930 . S
H181 C158 0.930 . S
H182 C160 0.929 . S
H183 C161 0.929 . S
La184 C186 2.928 . S
La184 O204 2.521 . S
La184 O205 2.628 . S
La184 O206 2.554 . S
La184 O207 2.757 . S
La184 O208 2.470 . S
La184 O213 2.482 . S
La184 O215 2.503 . S
La185 C195 2.928 . S
La185 O207 2.482 . S
La185 O209 2.503 . S
La185 O210 2.521 . S
La185 O211 2.628 . S
La185 O212 2.554 . S
La185 O213 2.757 . S
La185 O214 2.470 . S
C186 La184 2.928 . S
C186 C187 1.503 . S
C186 O204 1.261 . S
C186 O205 1.243 . S
C187 C186 1.503 . S
C187 C188 1.394 . S
C187 C192 1.373 . S
C188 C187 1.394 . S
C188 C189 1.380 . S
C188 H216 0.930 . S
C189 C188 1.380 . S
C189 C190 1.376 . S
C189 H217 0.930 . S
C190 C189 1.376 . S
C190 C191 1.370 . S
C191 C190 1.370 . S
C191 C192 1.396 . S
C191 H218 0.929 . S
C192 C187 1.373 . S
C192 C191 1.396 . S
C192 H219 0.929 . S
C193 O206 1.240 . S
C193 O207 1.289 . S
C194 O208 1.258 . S
C194 O209 1.256 . S
C195 La185 2.928 . S
C195 C196 1.503 . S
C195 O210 1.261 . S
C195 O211 1.243 . S
C196 C195 1.503 . S
C196 C197 1.394 . S
C196 C201 1.373 . S
C197 C196 1.394 . S
C197 C198 1.380 . S
C197 H220 0.930 . S
C198 C197 1.380 . S
C198 C199 1.376 . S
C198 H221 0.930 . S
C199 C198 1.376 . S
C199 C200 1.370 . S
C200 C199 1.370 . S
C200 C201 1.396 . S
C200 H222 0.929 . S
C201 C196 1.373 . S
C201 C200 1.396 . S
C201 H223 0.929 . S
C202 O212 1.240 . S
C202 O213 1.289 . S
C203 O214 1.258 . S
C203 O215 1.256 . S
O204 La184 2.521 . S
O204 C186 1.261 . S
O205 La184 2.628 . S
O205 C186 1.243 . S
O206 La184 2.554 . S
O206 C193 1.240 . S
O207 La184 2.757 . S
O207 La185 2.482 . S
O207 C193 1.289 . S
O208 La184 2.470 . S
O208 C194 1.258 . S
O209 La185 2.503 . S
O209 C194 1.256 . S
O210 La185 2.521 . S
O210 C195 1.261 . S
O211 La185 2.628 . S
O211 C195 1.243 . S
O212 La185 2.554 . S
O212 C202 1.240 . S
O213 La184 2.482 . S
O213 La185 2.757 . S
O213 C202 1.289 . S
O214 La185 2.470 . S
O214 C203 1.258 . S
O215 La184 2.503 . S
O215 C203 1.256 . S
H216 C188 0.930 . S
H217 C189 0.930 . S
H218 C191 0.929 . S
H219 C192 0.929 . S
H220 C197 0.930 . S
H221 C198 0.930 . S
H222 C200 0.929 . S
H223 C201 0.929 . S
La224 C226 2.928 . S
La224 O244 2.521 . S
La224 O245 2.628 . S
La224 O246 2.554 1_455 S
La224 O247 2.757 1_455 S
La224 O248 2.470 . S
La224 O253 2.482 1_554 S
La224 O255 2.503 1_455 S
La225 C235 2.929 1_455 S
La225 O247 2.482 1_456 S
La225 O249 2.502 1_556 S
La225 O250 2.522 1_455 S
La225 O251 2.629 1_455 S
La225 O252 2.553 . S
La225 O253 2.756 . S
La225 O254 2.471 1_455 S
C226 La224 2.928 . S
C226 C227 1.503 . S
C226 O244 1.261 . S
C226 O245 1.243 . S
C227 C226 1.503 . S
C227 C228 1.394 . S
C227 C232 1.373 . S
C228 C227 1.394 . S
C228 C229 1.380 . S
C228 H256 0.930 . S
C229 C228 1.380 . S
C229 C230 1.376 . S
C229 H257 0.930 . S
C230 C229 1.376 . S
C230 C231 1.370 . S
C231 C230 1.370 . S
C231 C232 1.396 . S
C231 H258 0.929 . S
C232 C227 1.373 . S
C232 C231 1.396 . S
C232 H259 0.929 . S
C233 O246 1.240 . S
C233 O247 1.289 . S
C234 O248 1.258 . S
C234 O249 1.256 . S
C235 La225 2.929 1_655 S
C235 C236 1.503 . S
C235 O250 1.261 . S
C235 O251 1.243 . S
C236 C235 1.503 . S
C236 C237 1.394 . S
C236 C241 1.373 . S
C237 C236 1.394 . S
C237 C238 1.380 . S
C237 H260 0.930 . S
C238 C237 1.380 . S
C238 C239 1.376 . S
C238 H261 0.930 . S
C239 C238 1.376 . S
C239 C240 1.370 . S
C240 C239 1.370 . S
C240 C241 1.396 . S
C240 H262 0.929 . S
C241 C236 1.373 . S
C241 C240 1.396 . S
C241 H263 0.929 . S
C242 O252 1.240 . S
C242 O253 1.289 . S
C243 O254 1.258 . S
C243 O255 1.256 1_556 S
O244 La224 2.521 . S
O244 C226 1.261 . S
O245 La224 2.628 . S
O245 C226 1.243 . S
O246 La224 2.554 1_655 S
O246 C233 1.240 . S
O247 La224 2.757 1_655 S
O247 La225 2.482 1_654 S
O247 C233 1.289 . S
O248 La224 2.470 . S
O248 C234 1.258 . S
O249 La225 2.502 1_554 S
O249 C234 1.256 . S
O250 La225 2.522 1_655 S
O250 C235 1.261 . S
O251 La225 2.629 1_655 S
O251 C235 1.243 . S
O252 La225 2.553 . S
O252 C242 1.240 . S
O253 La224 2.482 1_556 S
O253 La225 2.756 . S
O253 C242 1.289 . S
O254 La225 2.471 1_655 S
O254 C243 1.258 . S
O255 La224 2.503 1_655 S
O255 C243 1.256 1_554 S
H256 C228 0.930 . S
H257 C229 0.930 . S
H258 C231 0.929 . S
H259 C232 0.929 . S
H260 C237 0.930 . S
H261 C238 0.930 . S
H262 C240 0.929 . S
H263 C241 0.929 . S
H264 C272 0.950 . S
H265 C277 0.950 . S
H266 C274 0.950 . S
H267 C276 0.950 . S
H268 C278 0.950 . S
H269 C280 0.950 . S
H270 C282 0.950 . S
H271 C283 0.950 . S
C272 H264 0.950 . S
C272 C273 1.386 . S
C272 C274 1.391 . S
C273 C272 1.386 . S
C273 C277 1.393 . S
C274 H266 0.950 . S
C274 C272 1.391 . S
C274 C275 1.400 . S
C275 C274 1.400 . S
C275 C276 1.398 . S
C275 C281 1.491 . S
C276 H267 0.950 . S
C276 C275 1.398 . S
C276 C277 1.391 . S
C277 H265 0.950 . S
C277 C273 1.393 . S
C277 C276 1.391 . S
C278 H268 0.950 . S
C278 C279 1.386 . S
C278 C280 1.391 . S
C279 C278 1.386 . S
C279 C283 1.393 . S
C280 H269 0.950 . S
C280 C278 1.391 . S
C280 C281 1.400 . S
C281 C275 1.491 . S
C281 C280 1.400 . S
C281 C282 1.398 . S
C282 H270 0.950 . S
C282 C281 1.398 . S
C282 C283 1.391 . S
C283 H271 0.950 . S
C283 C279 1.393 . S
C283 C282 1.391 . S
H284 C292 0.950 . S
H285 C297 0.950 . S
H286 C294 0.950 . S
H287 C296 0.950 . S
H288 C298 0.950 . S
H289 C300 0.950 . S
H290 C302 0.950 . S
H291 C303 0.950 . S
C292 H284 0.950 . S
C292 C293 1.386 . S
C292 C294 1.391 . S
C293 C292 1.386 . S
C293 C297 1.393 . S
C294 H286 0.950 . S
C294 C292 1.391 . S
C294 C295 1.400 . S
C295 C294 1.400 . S
C295 C296 1.398 . S
C295 C301 1.491 . S
C296 H287 0.950 . S
C296 C295 1.398 . S
C296 C297 1.391 . S
C297 H285 0.950 . S
C297 C293 1.393 . S
C297 C296 1.391 . S
C298 H288 0.950 . S
C298 C299 1.386 . S
C298 C300 1.391 . S
C299 C298 1.386 . S
C299 C303 1.393 . S
C300 H289 0.950 . S
C300 C298 1.391 . S
C300 C301 1.400 . S
C301 C295 1.491 . S
C301 C300 1.400 . S
C301 C302 1.398 . S
C302 H290 0.950 . S
C302 C301 1.398 . S
C302 C303 1.391 . S
C303 H291 0.950 . S
C303 C299 1.393 . S
C303 C302 1.391 . S
H304 C312 0.950 . S
H305 C317 0.950 . S
H306 C314 0.950 . S
H307 C316 0.950 . S
H308 C318 0.950 . S
H309 C320 0.950 . S
H310 C322 0.950 . S
H311 C323 0.950 . S
C312 H304 0.950 . S
C312 C313 1.386 . S
C312 C314 1.391 . S
C313 C312 1.386 . S
C313 C317 1.393 . S
C314 H306 0.950 . S
C314 C312 1.391 . S
C314 C315 1.400 . S
C315 C314 1.400 . S
C315 C316 1.398 . S
C315 C321 1.491 . S
C316 H307 0.950 . S
C316 C315 1.398 . S
C316 C317 1.391 . S
C317 H305 0.950 . S
C317 C313 1.393 . S
C317 C316 1.391 . S
C318 H308 0.950 . S
C318 C319 1.386 . S
C318 C320 1.391 . S
C319 C318 1.386 . S
C319 C323 1.393 . S
C320 H309 0.950 . S
C320 C318 1.391 . S
C320 C321 1.400 . S
C321 C315 1.491 . S
C321 C320 1.400 . S
C321 C322 1.398 . S
C322 H310 0.950 . S
C322 C321 1.398 . S
C322 C323 1.391 . S
C323 H311 0.950 . S
C323 C319 1.393 . S
C323 C322 1.391 . S
H324 C332 0.950 . S
H325 C337 0.950 . S
H326 C334 0.950 . S
H327 C336 0.950 . S
H328 C338 0.950 . S
H329 C340 0.950 . S
H330 C342 0.950 . S
H331 C343 0.950 . S
C332 H324 0.950 . S
C332 C333 1.386 . S
C332 C334 1.391 . S
C333 C332 1.386 . S
C333 C337 1.393 . S
C334 H326 0.950 . S
C334 C332 1.391 . S
C334 C335 1.400 . S
C335 C334 1.400 . S
C335 C336 1.398 . S
C335 C341 1.491 . S
C336 H327 0.950 . S
C336 C335 1.398 . S
C336 C337 1.391 . S
C337 H325 0.950 . S
C337 C333 1.393 . S
C337 C336 1.391 . S
C338 H328 0.950 . S
C338 C339 1.386 . S
C338 C340 1.391 . S
C339 C338 1.386 . S
C339 C343 1.393 . S
C340 H329 0.950 . S
C340 C338 1.391 . S
C340 C341 1.400 . S
C341 C335 1.491 . S
C341 C340 1.400 . S
C341 C342 1.398 . S
C342 H330 0.950 . S
C342 C341 1.398 . S
C342 C343 1.391 . S
C343 H331 0.950 . S
C343 C339 1.393 . S
C343 C342 1.391 . S
H344 C352 0.950 . S
H345 C357 0.950 . S
H346 C354 0.950 . S
H347 C356 0.950 . S
H348 C358 0.950 . S
H349 C360 0.950 . S
H350 C362 0.950 . S
H351 C363 0.950 . S
C352 H344 0.950 . S
C352 C353 1.386 . S
C352 C354 1.391 . S
C353 C352 1.386 . S
C353 C357 1.393 . S
C354 H346 0.950 . S
C354 C352 1.391 . S
C354 C355 1.400 . S
C355 C354 1.400 . S
C355 C356 1.398 . S
C355 C361 1.491 . S
C356 H347 0.950 . S
C356 C355 1.398 . S
C356 C357 1.391 . S
C357 H345 0.950 . S
C357 C353 1.393 . S
C357 C356 1.391 . S
C358 H348 0.950 . S
C358 C359 1.386 . S
C358 C360 1.391 . S
C359 C358 1.386 . S
C359 C363 1.393 . S
C360 H349 0.950 . S
C360 C358 1.391 . S
C360 C361 1.400 . S
C361 C355 1.491 . S
C361 C360 1.400 . S
C361 C362 1.398 . S
C362 H350 0.950 . S
C362 C361 1.398 . S
C362 C363 1.391 . S
C363 H351 0.950 . S
C363 C359 1.393 . S
C363 C362 1.391 . S
H364 C372 0.950 . S
H365 C377 0.950 . S
H366 C374 0.950 . S
H367 C376 0.950 . S
H368 C378 0.950 1_545 S
H369 C380 0.950 . S
H370 C382 0.950 . S
H371 C383 0.950 . S
C372 H364 0.950 . S
C372 C373 1.386 . S
C372 C374 1.391 . S
C373 C372 1.386 . S
C373 C377 1.393 . S
C374 H366 0.950 . S
C374 C372 1.391 . S
C374 C375 1.400 . S
C375 C374 1.400 . S
C375 C376 1.398 . S
C375 C381 1.491 . S
C376 H367 0.950 . S
C376 C375 1.398 . S
C376 C377 1.391 . S
C377 H365 0.950 . S
C377 C373 1.393 . S
C377 C376 1.391 . S
C378 H368 0.950 1_565 S
C378 C379 1.386 . S
C378 C380 1.391 . S
C379 C378 1.386 . S
C379 C383 1.393 . S
C380 H369 0.950 . S
C380 C378 1.391 . S
C380 C381 1.400 . S
C381 C375 1.491 . S
C381 C380 1.400 . S
C381 C382 1.398 . S
C382 H370 0.950 . S
C382 C381 1.398 . S
C382 C383 1.391 . S
C383 H371 0.950 . S
C383 C379 1.393 . S
C383 C382 1.391 . S
H384 C392 0.950 . S
H385 C397 0.950 . S
H386 C394 0.950 . S
H387 C396 0.950 . S
H388 C398 0.950 . S
H389 C400 0.950 . S
H390 C402 0.950 . S
H391 C403 0.950 . S
C392 H384 0.950 . S
C392 C393 1.386 . S
C392 C394 1.391 . S
C393 C392 1.386 . S
C393 C397 1.393 . S
C394 H386 0.950 . S
C394 C392 1.391 . S
C394 C395 1.400 . S
C395 C394 1.400 . S
C395 C396 1.398 . S
C395 C401 1.491 . S
C396 H387 0.950 . S
C396 C395 1.398 . S
C396 C397 1.391 . S
C397 H385 0.950 . S
C397 C393 1.393 . S
C397 C396 1.391 . S
C398 H388 0.950 . S
C398 C399 1.386 . S
C398 C400 1.391 . S
C399 C398 1.386 . S
C399 C403 1.393 . S
C400 H389 0.950 . S
C400 C398 1.391 . S
C400 C401 1.400 . S
C401 C395 1.491 . S
C401 C400 1.400 . S
C401 C402 1.398 . S
C402 H390 0.950 . S
C402 C401 1.398 . S
C402 C403 1.391 . S
C403 H391 0.950 . S
C403 C399 1.393 . S
C403 C402 1.391 . S
H404 C412 0.950 . S
H405 C417 0.950 . S
H406 C414 0.950 . S
H407 C416 0.950 . S
H408 C418 0.950 . S
H409 C420 0.950 . S
H410 C422 0.950 . S
H411 C423 0.950 . S
C412 H404 0.950 . S
C412 C413 1.386 . S
C412 C414 1.391 . S
C413 C412 1.386 . S
C413 C417 1.393 . S
C414 H406 0.950 . S
C414 C412 1.391 . S
C414 C415 1.400 . S
C415 C414 1.400 . S
C415 C416 1.398 . S
C415 C421 1.491 . S
C416 H407 0.950 . S
C416 C415 1.398 . S
C416 C417 1.391 . S
C417 H405 0.950 . S
C417 C413 1.393 . S
C417 C416 1.391 . S
C418 H408 0.950 . S
C418 C419 1.386 . S
C418 C420 1.391 . S
C419 C418 1.386 . S
C419 C423 1.393 . S
C420 H409 0.950 . S
C420 C418 1.391 . S
C420 C421 1.400 . S
C421 C415 1.491 . S
C421 C420 1.400 . S
C421 C422 1.398 . S
C422 H410 0.950 . S
C422 C421 1.398 . S
C422 C423 1.391 . S
C423 H411 0.950 . S
C423 C419 1.393 . S
C423 C422 1.391 . S
H424 C432 0.950 . S
H425 C437 0.950 . S
H426 C434 0.950 . S
H427 C436 0.950 . S
H428 C438 0.950 . S
H429 C440 0.950 . S
H430 C442 0.950 . S
H431 C443 0.950 . S
C432 H424 0.950 . S
C432 C433 1.386 . S
C432 C434 1.391 . S
C433 C432 1.386 . S
C433 C437 1.393 . S
C434 H426 0.950 . S
C434 C432 1.391 . S
C434 C435 1.400 . S
C435 C434 1.400 . S
C435 C436 1.398 . S
C435 C441 1.491 . S
C436 H427 0.950 . S
C436 C435 1.398 . S
C436 C437 1.391 . S
C437 H425 0.950 . S
C437 C433 1.393 . S
C437 C436 1.391 . S
C438 H428 0.950 . S
C438 C439 1.386 . S
C438 C440 1.391 . S
C439 C438 1.386 . S
C439 C443 1.393 . S
C440 H429 0.950 . S
C440 C438 1.391 . S
C440 C441 1.400 . S
C441 C435 1.491 . S
C441 C440 1.400 . S
C441 C442 1.398 . S
C442 H430 0.950 . S
C442 C441 1.398 . S
C442 C443 1.391 . S
C443 H431 0.950 . S
C443 C439 1.393 . S
C443 C442 1.391 . S
H444 C452 0.950 . S
H445 C457 0.950 . S
H446 C454 0.950 . S
H447 C456 0.950 . S
H448 C458 0.950 . S
H449 C460 0.950 . S
H450 C462 0.950 . S
H451 C463 0.950 . S
C452 H444 0.950 . S
C452 C453 1.386 . S
C452 C454 1.391 . S
C453 C452 1.386 . S
C453 C457 1.393 . S
C454 H446 0.950 . S
C454 C452 1.391 . S
C454 C455 1.400 . S
C455 C454 1.400 . S
C455 C456 1.398 . S
C455 C461 1.491 . S
C456 H447 0.950 . S
C456 C455 1.398 . S
C456 C457 1.391 . S
C457 H445 0.950 . S
C457 C453 1.393 . S
C457 C456 1.391 . S
C458 H448 0.950 . S
C458 C459 1.386 . S
C458 C460 1.391 . S
C459 C458 1.386 . S
C459 C463 1.393 . S
C460 H449 0.950 . S
C460 C458 1.391 . S
C460 C461 1.400 . S
C461 C455 1.491 . S
C461 C460 1.400 . S
C461 C462 1.398 . S
C462 H450 0.950 . S
C462 C461 1.398 . S
C462 C463 1.391 . S
C463 H451 0.950 . S
C463 C459 1.393 . S
C463 C462 1.391 . S
H464 C472 0.950 . S
H465 C477 0.950 . S
H466 C474 0.950 . S
H467 C476 0.950 . S
H468 C478 0.950 . S
H469 C480 0.950 . S
H470 C482 0.950 . S
H471 C483 0.950 . S
C472 H464 0.950 . S
C472 C473 1.386 . S
C472 C474 1.391 . S
C473 C472 1.386 . S
C473 C477 1.393 . S
C474 H466 0.950 . S
C474 C472 1.391 . S
C474 C475 1.400 . S
C475 C474 1.400 . S
C475 C476 1.398 . S
C475 C481 1.491 . S
C476 H467 0.950 . S
C476 C475 1.398 . S
C476 C477 1.391 . S
C477 H465 0.950 . S
C477 C473 1.393 . S
C477 C476 1.391 . S
C478 H468 0.950 . S
C478 C479 1.386 . S
C478 C480 1.391 . S
C479 C478 1.386 . S
C479 C483 1.393 . S
C480 H469 0.950 . S
C480 C478 1.391 . S
C480 C481 1.400 . S
C481 C475 1.491 . S
C481 C480 1.400 . S
C481 C482 1.398 . S
C482 H470 0.950 . S
C482 C481 1.398 . S
C482 C483 1.391 . S
C483 H471 0.950 . S
C483 C479 1.393 . S
C483 C482 1.391 . S
H484 C492 0.950 . S
H485 C497 0.950 . S
H486 C494 0.950 . S
H487 C496 0.950 . S
H488 C498 0.950 . S
H489 C500 0.950 . S
H490 C502 0.950 . S
H491 C503 0.950 . S
C492 H484 0.950 . S
C492 C493 1.386 . S
C492 C494 1.391 . S
C493 C492 1.386 . S
C493 C497 1.393 . S
C494 H486 0.950 . S
C494 C492 1.391 . S
C494 C495 1.400 . S
C495 C494 1.400 . S
C495 C496 1.398 . S
C495 C501 1.491 . S
C496 H487 0.950 . S
C496 C495 1.398 . S
C496 C497 1.391 . S
C497 H485 0.950 . S
C497 C493 1.393 . S
C497 C496 1.391 . S
C498 H488 0.950 . S
C498 C499 1.386 . S
C498 C500 1.391 . S
C499 C498 1.386 . S
C499 C503 1.393 . S
C500 H489 0.950 . S
C500 C498 1.391 . S
C500 C501 1.400 . S
C501 C495 1.491 . S
C501 C500 1.400 . S
C501 C502 1.398 . S
C502 H490 0.950 . S
C502 C501 1.398 . S
C502 C503 1.391 . S
C503 H491 0.950 . S
C503 C499 1.393 . S
C503 C502 1.391 . S
H504 C512 0.950 . S
H505 C517 0.950 . S
H506 C514 0.950 . S
H507 C516 0.950 . S
H508 C518 0.950 . S
H509 C520 0.950 . S
H510 C522 0.950 . S
H511 C523 0.950 . S
C512 H504 0.950 . S
C512 C513 1.386 . S
C512 C514 1.391 . S
C513 C512 1.386 . S
C513 C517 1.393 . S
C514 H506 0.950 . S
C514 C512 1.391 . S
C514 C515 1.400 . S
C515 C514 1.400 . S
C515 C516 1.398 . S
C515 C521 1.491 . S
C516 H507 0.950 . S
C516 C515 1.398 . S
C516 C517 1.391 . S
C517 H505 0.950 . S
C517 C513 1.393 . S
C517 C516 1.391 . S
C518 H508 0.950 . S
C518 C519 1.386 . S
C518 C520 1.391 . S
C519 C518 1.386 . S
C519 C523 1.393 . S
C520 H509 0.950 . S
C520 C518 1.391 . S
C520 C521 1.400 . S
C521 C515 1.491 . S
C521 C520 1.400 . S
C521 C522 1.398 . S
C522 H510 0.950 . S
C522 C521 1.398 . S
C522 C523 1.391 . S
C523 H511 0.950 . S
C523 C519 1.393 . S
C523 C522 1.391 . S
H524 C532 0.950 . S
H525 C537 0.950 . S
H526 C534 0.950 . S
H527 C536 0.950 . S
H528 C538 0.950 . S
H529 C540 0.950 . S
H530 C542 0.950 . S
H531 C543 0.950 . S
C532 H524 0.950 . S
C532 C533 1.386 . S
C532 C534 1.391 . S
C533 C532 1.386 . S
C533 C537 1.393 . S
C534 H526 0.950 . S
C534 C532 1.391 . S
C534 C535 1.400 . S
C535 C534 1.400 . S
C535 C536 1.398 . S
C535 C541 1.491 . S
C536 H527 0.950 . S
C536 C535 1.398 . S
C536 C537 1.391 . S
C537 H525 0.950 . S
C537 C533 1.393 . S
C537 C536 1.391 . S
C538 H528 0.950 . S
C538 C539 1.386 . S
C538 C540 1.391 . S
C539 C538 1.386 . S
C539 C543 1.393 . S
C540 H529 0.950 . S
C540 C538 1.391 . S
C540 C541 1.400 . S
C541 C535 1.491 . S
C541 C540 1.400 . S
C541 C542 1.398 . S
C542 H530 0.950 . S
C542 C541 1.398 . S
C542 C543 1.391 . S
C543 H531 0.950 . S
C543 C539 1.393 . S
C543 C542 1.391 . S
H544 C552 0.950 . S
H545 C557 0.950 . S
H546 C554 0.950 . S
H547 C556 0.950 . S
H548 C558 0.950 . S
H549 C560 0.950 . S
H550 C562 0.950 . S
H551 C563 0.950 . S
C552 H544 0.950 . S
C552 C553 1.386 . S
C552 C554 1.391 . S
C553 C552 1.386 . S
C553 C557 1.393 . S
C554 H546 0.950 . S
C554 C552 1.391 . S
C554 C555 1.400 . S
C555 C554 1.400 . S
C555 C556 1.398 . S
C555 C561 1.491 . S
C556 H547 0.950 . S
C556 C555 1.398 . S
C556 C557 1.391 . S
C557 H545 0.950 . S
C557 C553 1.393 . S
C557 C556 1.391 . S
C558 H548 0.950 . S
C558 C559 1.386 . S
C558 C560 1.391 . S
C559 C558 1.386 . S
C559 C563 1.393 . S
C560 H549 0.950 . S
C560 C558 1.391 . S
C560 C561 1.400 . S
C561 C555 1.491 . S
C561 C560 1.400 . S
C561 C562 1.398 . S
C562 H550 0.950 . S
C562 C561 1.398 . S
C562 C563 1.391 . S
C563 H551 0.950 . S
C563 C559 1.393 . S
C563 C562 1.391 . S
H564 C572 0.950 . S
H565 C577 0.950 . S
H566 C574 0.950 . S
H567 C576 0.950 . S
H568 C578 0.950 . S
H569 C580 0.950 . S
H570 C582 0.950 . S
H571 C583 0.950 . S
C572 H564 0.950 . S
C572 C573 1.386 . S
C572 C574 1.391 . S
C573 C572 1.386 . S
C573 C577 1.393 . S
C574 H566 0.950 . S
C574 C572 1.391 . S
C574 C575 1.400 . S
C575 C574 1.400 . S
C575 C576 1.398 . S
C575 C581 1.491 . S
C576 H567 0.950 . S
C576 C575 1.398 . S
C576 C577 1.391 . S
C577 H565 0.950 . S
C577 C573 1.393 . S
C577 C576 1.391 . S
C578 H568 0.950 . S
C578 C579 1.386 . S
C578 C580 1.391 . S
C579 C578 1.386 . S
C579 C583 1.393 . S
C580 H569 0.950 . S
C580 C578 1.391 . S
C580 C581 1.400 . S
C581 C575 1.491 . S
C581 C580 1.400 . S
C581 C582 1.398 . S
C582 H570 0.950 . S
C582 C581 1.398 . S
C582 C583 1.391 . S
C583 H571 0.950 . S
C583 C579 1.393 . S
C583 C582 1.391 . S
H584 C592 0.950 . S
H585 C597 0.950 . S
H586 C594 0.950 . S
H587 C596 0.950 . S
H588 C598 0.950 1_554 S
H589 C600 0.950 . S
H590 C602 0.950 . S
H591 C603 0.950 . S
C592 H584 0.950 . S
C592 C593 1.386 . S
C592 C594 1.391 . S
C593 C592 1.386 . S
C593 C597 1.393 . S
C594 H586 0.950 . S
C594 C592 1.391 . S
C594 C595 1.400 . S
C595 C594 1.400 . S
C595 C596 1.398 . S
C595 C601 1.491 . S
C596 H587 0.950 . S
C596 C595 1.398 . S
C596 C597 1.391 . S
C597 H585 0.950 . S
C597 C593 1.393 . S
C597 C596 1.391 . S
C598 H588 0.950 1_556 S
C598 C599 1.386 . S
C598 C600 1.391 . S
C599 C598 1.386 . S
C599 C603 1.393 . S
C600 H589 0.950 . S
C600 C598 1.391 . S
C600 C601 1.400 . S
C601 C595 1.491 . S
C601 C600 1.400 . S
C601 C602 1.398 . S
C602 H590 0.950 . S
C602 C601 1.398 . S
C602 C603 1.391 . S
C603 H591 0.950 . S
C603 C599 1.393 . S
C603 C602 1.391 . S
H604 C612 0.950 . S
H605 C617 0.950 . S
H606 C614 0.950 . S
H607 C616 0.950 . S
H608 C618 0.950 . S
H609 C620 0.950 . S
H610 C622 0.950 . S
H611 C623 0.950 . S
C612 H604 0.950 . S
C612 C613 1.386 . S
C612 C614 1.391 . S
C613 C612 1.386 . S
C613 C617 1.393 . S
C614 H606 0.950 . S
C614 C612 1.391 . S
C614 C615 1.400 . S
C615 C614 1.400 . S
C615 C616 1.398 . S
C615 C621 1.491 . S
C616 H607 0.950 . S
C616 C615 1.398 . S
C616 C617 1.391 . S
C617 H605 0.950 . S
C617 C613 1.393 . S
C617 C616 1.391 . S
C618 H608 0.950 . S
C618 C619 1.386 . S
C618 C620 1.391 . S
C619 C618 1.386 . S
C619 C623 1.393 . S
C620 H609 0.950 . S
C620 C618 1.391 . S
C620 C621 1.400 . S
C621 C615 1.491 . S
C621 C620 1.400 . S
C621 C622 1.398 . S
C622 H610 0.950 . S
C622 C621 1.398 . S
C622 C623 1.391 . S
C623 H611 0.950 . S
C623 C619 1.393 . S
C623 C622 1.391 . S
H624 C632 0.950 . S
H625 C637 0.950 . S
H626 C634 0.950 . S
H627 C636 0.950 . S
H628 C638 0.950 . S
H629 C640 0.950 . S
H630 C642 0.950 . S
H631 C643 0.950 . S
C632 H624 0.950 . S
C632 C633 1.386 . S
C632 C634 1.391 . S
C633 C632 1.386 . S
C633 C637 1.393 . S
C634 H626 0.950 . S
C634 C632 1.391 . S
C634 C635 1.400 . S
C635 C634 1.400 . S
C635 C636 1.398 . S
C635 C641 1.491 . S
C636 H627 0.950 . S
C636 C635 1.398 . S
C636 C637 1.391 . S
C637 H625 0.950 . S
C637 C633 1.393 . S
C637 C636 1.391 . S
C638 H628 0.950 . S
C638 C639 1.386 . S
C638 C640 1.391 . S
C639 C638 1.386 . S
C639 C643 1.393 . S
C640 H629 0.950 . S
C640 C638 1.391 . S
C640 C641 1.400 . S
C641 C635 1.491 . S
C641 C640 1.400 . S
C641 C642 1.398 . S
C642 H630 0.950 . S
C642 C641 1.398 . S
C642 C643 1.391 . S
C643 H631 0.950 . S
C643 C639 1.393 . S
C643 C642 1.391 . S
H644 C652 0.950 . S
H645 C657 0.950 . S
H646 C654 0.950 . S
H647 C656 0.950 . S
H648 C658 0.950 . S
H649 C660 0.950 . S
H650 C662 0.950 . S
H651 C663 0.950 . S
C652 H644 0.950 . S
C652 C653 1.386 . S
C652 C654 1.391 . S
C653 C652 1.386 . S
C653 C657 1.393 . S
C654 H646 0.950 . S
C654 C652 1.391 . S
C654 C655 1.400 . S
C655 C654 1.400 . S
C655 C656 1.398 . S
C655 C661 1.491 . S
C656 H647 0.950 . S
C656 C655 1.398 . S
C656 C657 1.391 . S
C657 H645 0.950 . S
C657 C653 1.393 . S
C657 C656 1.391 . S
C658 H648 0.950 . S
C658 C659 1.386 . S
C658 C660 1.391 . S
C659 C658 1.386 . S
C659 C663 1.393 . S
C660 H649 0.950 . S
C660 C658 1.391 . S
C660 C661 1.400 . S
C661 C655 1.491 . S
C661 C660 1.400 . S
C661 C662 1.398 . S
C662 H650 0.950 . S
C662 C661 1.398 . S
C662 C663 1.391 . S
C663 H651 0.950 . S
C663 C659 1.393 . S
C663 C662 1.391 . S
H664 C672 0.950 . S
H665 C677 0.950 . S
H666 C674 0.950 . S
H667 C676 0.950 . S
H668 C678 0.950 . S
H669 C680 0.950 . S
H670 C682 0.950 . S
H671 C683 0.950 . S
C672 H664 0.950 . S
C672 C673 1.386 . S
C672 C674 1.391 . S
C673 C672 1.386 . S
C673 C677 1.393 . S
C674 H666 0.950 . S
C674 C672 1.391 . S
C674 C675 1.400 . S
C675 C674 1.400 . S
C675 C676 1.398 . S
C675 C681 1.491 . S
C676 H667 0.950 . S
C676 C675 1.398 . S
C676 C677 1.391 . S
C677 H665 0.950 . S
C677 C673 1.393 . S
C677 C676 1.391 . S
C678 H668 0.950 . S
C678 C679 1.386 . S
C678 C680 1.391 . S
C679 C678 1.386 . S
C679 C683 1.393 . S
C680 H669 0.950 . S
C680 C678 1.391 . S
C680 C681 1.400 . S
C681 C675 1.491 . S
C681 C680 1.400 . S
C681 C682 1.398 . S
C682 H670 0.950 . S
C682 C681 1.398 . S
C682 C683 1.391 . S
C683 H671 0.950 . S
C683 C679 1.393 . S
C683 C682 1.391 . S
H684 C692 0.950 . S
H685 C697 0.950 . S
H686 C694 0.950 . S
H687 C696 0.950 . S
H688 C698 0.950 . S
H689 C700 0.950 . S
H690 C702 0.950 . S
H691 C703 0.950 . S
C692 H684 0.950 . S
C692 C693 1.386 . S
C692 C694 1.391 . S
C693 C692 1.386 . S
C693 C697 1.393 . S
C694 H686 0.950 . S
C694 C692 1.391 . S
C694 C695 1.400 . S
C695 C694 1.400 . S
C695 C696 1.398 . S
C695 C701 1.491 . S
C696 H687 0.950 . S
C696 C695 1.398 . S
C696 C697 1.391 . S
C697 H685 0.950 . S
C697 C693 1.393 . S
C697 C696 1.391 . S
C698 H688 0.950 . S
C698 C699 1.386 . S
C698 C700 1.391 . S
C699 C698 1.386 . S
C699 C703 1.393 . S
C700 H689 0.950 . S
C700 C698 1.391 . S
C700 C701 1.400 . S
C701 C695 1.491 . S
C701 C700 1.400 . S
C701 C702 1.398 . S
C702 H690 0.950 . S
C702 C701 1.398 . S
C702 C703 1.391 . S
C703 H691 0.950 . S
C703 C699 1.393 . S
C703 C702 1.391 . S
H704 C712 0.950 . S
H705 C717 0.950 . S
H706 C714 0.950 . S
H707 C716 0.950 . S
H708 C718 0.950 . S
H709 C720 0.950 . S
H710 C722 0.950 . S
H711 C723 0.950 . S
C712 H704 0.950 . S
C712 C713 1.386 . S
C712 C714 1.391 . S
C713 C712 1.386 . S
C713 C717 1.393 . S
C714 H706 0.950 . S
C714 C712 1.391 . S
C714 C715 1.400 . S
C715 C714 1.400 . S
C715 C716 1.398 . S
C715 C721 1.491 . S
C716 H707 0.950 . S
C716 C715 1.398 . S
C716 C717 1.391 . S
C717 H705 0.950 . S
C717 C713 1.393 . S
C717 C716 1.391 . S
C718 H708 0.950 . S
C718 C719 1.386 . S
C718 C720 1.391 . S
C719 C718 1.386 . S
C719 C723 1.393 . S
C720 H709 0.950 . S
C720 C718 1.391 . S
C720 C721 1.400 . S
C721 C715 1.491 . S
C721 C720 1.400 . S
C721 C722 1.398 . S
C722 H710 0.950 . S
C722 C721 1.398 . S
C722 C723 1.391 . S
C723 H711 0.950 . S
C723 C719 1.393 . S
C723 C722 1.391 . S
H724 C732 0.950 . S
H725 C737 0.950 . S
H726 C734 0.950 . S
H727 C736 0.950 . S
H728 C738 0.950 . S
H729 C740 0.950 . S
H730 C742 0.950 . S
H731 C743 0.950 . S
C732 H724 0.950 . S
C732 C733 1.386 . S
C732 C734 1.391 . S
C733 C732 1.386 . S
C733 C737 1.393 . S
C734 H726 0.950 . S
C734 C732 1.391 . S
C734 C735 1.400 . S
C735 C734 1.400 . S
C735 C736 1.398 . S
C735 C741 1.491 . S
C736 H727 0.950 . S
C736 C735 1.398 . S
C736 C737 1.391 . S
C737 H725 0.950 . S
C737 C733 1.393 . S
C737 C736 1.391 . S
C738 H728 0.950 . S
C738 C739 1.386 . S
C738 C740 1.391 . S
C739 C738 1.386 . S
C739 C743 1.393 . S
C740 H729 0.950 . S
C740 C738 1.391 . S
C740 C741 1.400 . S
C741 C735 1.491 . S
C741 C740 1.400 . S
C741 C742 1.398 . S
C742 H730 0.950 . S
C742 C741 1.398 . S
C742 C743 1.391 . S
C743 H731 0.950 . S
C743 C739 1.393 . S
C743 C742 1.391 . S
C273 N1 0.932 . S
C279 C110 0.953 . S
C293 N18 1.046 . S
C299 C159 1.096 . S
C319 C194 2.094 . S
C313 N28 2.144 . S
C333 N40 2.626 . S
C339 C233 2.625 . S
C359 C154 2.398 . S
C353 N5 2.355 . S
C379 C113 0.685 . S
C373 N14 0.682 . S
C399 C243 2.014 . S
C393 N31 2.022 . S
C419 C202 1.405 . S
C413 N41 1.435 . S
C433 N2 1.324 . S
C439 C230 1.341 . S
C459 C162 2.462 1_556 S
C453 N27 2.537 . S
C473 N44 2.428 . S
C479 C123 2.456 . S
C493 N15 0.659 . S
C499 C199 0.653 . S
C519 C119 1.446 . S
C513 N57 1.486 . S
C533 N70 0.892 . S
C539 C150 0.915 . S
C553 N79 2.323 . S
C559 C203 2.340 . S
C573 N93 2.423 . S
C579 C242 2.399 . S
C593 N54 1.907 . S
C599 C163 1.995 1_566 S
C619 C122 1.430 . S
C613 N66 1.535 . S
C639 C234 1.404 . S
C633 N80 1.462 . S
C659 C193 1.713 . S
C653 N96 1.722 . S
C673 N53 1.466 . S
C679 C239 1.480 . S
C699 C153 2.149 . S
C693 N83 2.162 . S
C719 C114 2.648 . S
C713 N92 2.642 . S
C733 N67 0.892 . S
C739 C190 0.892 . S
