# Generated by pormake.
# Topology zzz, (3,6)-cn, num edge types: 1
# Building blocks:
#     Node 0, Type 0, BuildingBlock: MIDCAF_clean_linker_0, # of connection points: 3
#     Node 1, Type 0, BuildingBlock: MIDCAF_clean_linker_0, # of connection points: 3
#     Node 2, Type 0, BuildingBlock: MIDCAF_clean_linker_0, # of connection points: 3
#     Node 3, Type 0, BuildingBlock: MIDCAF_clean_linker_0, # of connection points: 3
#     Node 4, Type 0, BuildingBlock: MIDCAF_clean_linker_0, # of connection points: 3
#     Node 5, Type 0, BuildingBlock: MIDCAF_clean_linker_0, # of connection points: 3
#     Node 6, Type 0, BuildingBlock: MIDCAF_clean_linker_0, # of connection points: 3
#     Node 7, Type 0, BuildingBlock: MIDCAF_clean_linker_0, # of connection points: 3
#     Node 8, Type 1, BuildingBlock: BETFAJ_clean_sbu_0, # of connection points: 6
#     Node 9, Type 1, BuildingBlock: BETFAJ_clean_sbu_0, # of connection points: 6
#     Node 10, Type 1, BuildingBlock: BETFAJ_clean_sbu_0, # of connection points: 6
#     Node 11, Type 1, BuildingBlock: BETFAJ_clean_sbu_0, # of connection points: 6
#     Edge 12, Type (0, 1), BuildingBlock: XIVTED_clean_linker_0, # of connection points: 2
#     Edge 13, Type (0, 1), BuildingBlock: XIVTED_clean_linker_0, # of connection points: 2
#     Edge 14, Type (0, 1), BuildingBlock: XIVTED_clean_linker_0, # of connection points: 2
#     Edge 15, Type (0, 1), BuildingBlock: XIVTED_clean_linker_0, # of connection points: 2
#     Edge 16, Type (0, 1), BuildingBlock: XIVTED_clean_linker_0, # of connection points: 2
#     Edge 17, Type (0, 1), BuildingBlock: XIVTED_clean_linker_0, # of connection points: 2
#     Edge 18, Type (0, 1), BuildingBlock: XIVTED_clean_linker_0, # of connection points: 2
#     Edge 19, Type (0, 1), BuildingBlock: XIVTED_clean_linker_0, # of connection points: 2
#     Edge 20, Type (0, 1), BuildingBlock: XIVTED_clean_linker_0, # of connection points: 2
#     Edge 21, Type (0, 1), BuildingBlock: XIVTED_clean_linker_0, # of connection points: 2
#     Edge 22, Type (0, 1), BuildingBlock: XIVTED_clean_linker_0, # of connection points: 2
#     Edge 23, Type (0, 1), BuildingBlock: XIVTED_clean_linker_0, # of connection points: 2
#     Edge 24, Type (0, 1), BuildingBlock: XIVTED_clean_linker_0, # of connection points: 2
#     Edge 25, Type (0, 1), BuildingBlock: XIVTED_clean_linker_0, # of connection points: 2
#     Edge 26, Type (0, 1), BuildingBlock: XIVTED_clean_linker_0, # of connection points: 2
#     Edge 27, Type (0, 1), BuildingBlock: XIVTED_clean_linker_0, # of connection points: 2
#     Edge 28, Type (0, 1), BuildingBlock: XIVTED_clean_linker_0, # of connection points: 2
#     Edge 29, Type (0, 1), BuildingBlock: XIVTED_clean_linker_0, # of connection points: 2
#     Edge 30, Type (0, 1), BuildingBlock: XIVTED_clean_linker_0, # of connection points: 2
#     Edge 31, Type (0, 1), BuildingBlock: XIVTED_clean_linker_0, # of connection points: 2
#     Edge 32, Type (0, 1), BuildingBlock: XIVTED_clean_linker_0, # of connection points: 2
#     Edge 33, Type (0, 1), BuildingBlock: XIVTED_clean_linker_0, # of connection points: 2
#     Edge 34, Type (0, 1), BuildingBlock: XIVTED_clean_linker_0, # of connection points: 2
#     Edge 35, Type (0, 1), BuildingBlock: XIVTED_clean_linker_0, # of connection points: 2
# Relax obj value: 0.452
# Max RMSD: 0.273
# Mean RMSD: 0.255
data_MOF--net-zzz--node1-BETFAJ_clean_sbu_0--node2-MIDCAF_clean_linker_0--edge1-XIVTED_clean_linker_0
_symmetry_space_group_name_H-M    P1
_symmetry_Int_Tables_number       1
_symmetry_cell_setting            triclinic
loop_
_symmetry_equiv_pos_as_xyz
'x, y, z'
_cell_length_a     59.431243
_cell_length_b     59.373061
_cell_length_c     18.200176
_cell_angle_alpha  89.776175
_cell_angle_beta   89.934077
_cell_angle_gamma 89.978441
loop_
_atom_site_label
_atom_site_type_symbol
_atom_site_fract_x
_atom_site_fract_y
_atom_site_fract_z
_atom_type_partial_charge
C0 C 0.78234 0.52376 0.43935 0.0
C1 C 0.79824 0.50616 0.43954 0.0
C2 C 0.79286 0.48587 0.40459 0.0
C3 C 0.77296 0.48382 0.36475 0.0
H4 H 0.68323 0.54343 0.25765 0.0
H5 H 0.64525 0.55038 0.21064 0.0
H6 H 0.63503 0.47859 0.19035 0.0
H7 H 0.67258 0.47196 0.23835 0.0
H8 H 0.71881 0.46507 0.0698 0.0
H9 H 0.73715 0.45339 0.95459 0.0
H10 H 0.79135 0.49996 0.99667 0.0
H11 H 0.77363 0.51091 0.11191 0.0
H12 H 0.75113 0.53609 0.39409 0.0
H13 H 0.78621 0.53962 0.46568 0.0
H14 H 0.80474 0.47202 0.40433 0.0
H15 H 0.77007 0.46848 0.33411 0.0
N16 N 0.71913 0.50567 0.30672 0.0
N17 N 0.71342 0.49738 0.18131 0.0
N18 N 0.74964 0.49614 0.2303 0.0
C19 C 0.70503 0.50331 0.24789 0.0
C20 C 0.73571 0.49409 0.1721 0.0
C21 C 0.74161 0.50166 0.29765 0.0
C22 C 0.68063 0.50717 0.25231 0.0
C23 C 0.67229 0.52921 0.24705 0.0
C24 C 0.65069 0.53315 0.21883 0.0
C25 C 0.63718 0.51507 0.19506 0.0
C26 C 0.64476 0.49297 0.2083 0.0
C27 C 0.6663 0.48909 0.23626 0.0
C28 C 0.74501 0.48869 0.09951 0.0
C29 C 0.73447 0.47297 0.05346 0.0
C30 C 0.74485 0.46635 0.98787 0.0
C31 C 0.76543 0.47602 0.96675 0.0
C32 C 0.77528 0.49255 0.01125 0.0
C33 C 0.7653 0.49864 0.07742 0.0
C34 C 0.75795 0.50201 0.35874 0.0
C35 C 0.76226 0.52171 0.39889 0.0
C36 C 0.02567 0.78068 0.50087 0.0
C37 C 1.00497 0.79024 0.48015 0.0
C38 C 0.9927 0.77997 0.42306 0.0
C39 C 1.00168 0.76156 0.38449 0.0
H40 H 0.06469 0.6747 0.21165 0.0
H41 H 0.05224 0.64329 0.1373 0.0
H42 H 0.98326 0.66488 0.16234 0.0
H43 H 0.99589 0.69678 0.23736 0.0
H44 H 0.09187 0.72552 0.1506 0.0
H45 H 0.11604 0.75105 0.08139 0.0
H46 H 0.11431 0.79808 0.26219 0.0
H47 H 0.09126 0.77233 0.33186 0.0
H48 H 0.05138 0.75666 0.47621 0.0
H49 H 0.03577 0.78817 0.5438 0.0
H50 H 0.97658 0.78674 0.40619 0.0
H51 H 0.99263 0.75497 0.33768 0.0
N52 N 0.02723 0.72052 0.31716 0.0
N53 N 0.06032 0.71707 0.24651 0.0
N54 N 0.05656 0.74679 0.32891 0.0
C55 C 0.03979 0.70898 0.26668 0.0
C56 C 0.0688 0.73601 0.27714 0.0
C57 C 0.03596 0.7393 0.34946 0.0
C58 C 0.0313 0.68837 0.23003 0.0
C59 C 0.04681 0.67267 0.20217 0.0
C60 C 0.03964 0.65449 0.15991 0.0
C61 C 0.01674 0.65153 0.14361 0.0
C62 C 1.00105 0.66679 0.17345 0.0
C63 C 1.00825 0.68494 0.21684 0.0
C64 C 0.08887 0.7473 0.24559 0.0
C65 C 0.09736 0.74093 0.17658 0.0
C66 C 0.11114 0.75568 0.13665 0.0
C67 C 0.11646 0.77708 0.16479 0.0
C68 C 0.11054 0.78191 0.23796 0.0
C69 C 0.09699 0.76713 0.27794 0.0
C70 C 0.02318 0.75332 0.40195 0.0
C71 C 0.03468 0.76256 0.46206 0.0
C72 C 0.69841 0.99604 0.41923 0.0
C73 C 0.69771 0.9992 0.49583 0.0
C74 C 0.71732 1.00686 0.53139 0.0
C75 C 0.73654 0.01271 0.4907 0.0
H76 H 0.7989 0.98102 0.28438 0.0
H77 H 0.8328 0.96662 0.22321 0.0
H78 H 0.85779 0.03463 0.20126 0.0
H79 H 0.82432 0.04881 0.26193 0.0
H80 H 0.74008 0.09141 0.35302 0.0
H81 H 0.71585 0.11802 0.28837 0.0
H82 H 0.73351 0.08631 0.08226 0.0
H83 H 0.7591 0.06141 0.14686 0.0
H84 H 0.71701 1.00084 0.31942 0.0
H85 H 0.68363 0.99053 0.38955 0.0
H86 H 0.71752 1.00924 0.59034 0.0
H87 H 0.75083 0.02005 0.51868 0.0
N88 N 0.77329 0.01401 0.34959 0.0
N89 N 0.78027 0.04559 0.27411 0.0
N90 N 0.74678 0.04331 0.34107 0.0
C91 C 0.78714 0.02552 0.30265 0.0
C92 C 0.76025 0.05463 0.29373 0.0
C93 C 0.75313 0.02317 0.36939 0.0
C94 C 0.80887 0.01605 0.2774 0.0
C95 C 0.81192 0.99277 0.26792 0.0
C96 C 0.83123 0.98456 0.23246 0.0
C97 C 0.84798 0.99948 0.20708 0.0
C98 C 0.84541 0.02262 0.22069 0.0
C99 C 0.82609 0.03078 0.25502 0.0
C100 C 0.75113 0.07431 0.25476 0.0
C101 C 0.73938 0.09091 0.29356 0.0
C102 C 0.72529 0.10593 0.25636 0.0
C103 C 0.72184 0.10384 0.18007 0.0
C104 C 0.73553 0.08865 0.14079 0.0
C105 C 0.75023 0.07419 0.17785 0.0
C106 C 0.73653 0.0108 0.41395 0.0
C107 C 0.71756 1.00188 0.37884 0.0
C108 C 0.5805 0.7202 0.17345 0.0
C109 C 0.57408 0.72607 0.10147 0.0
C110 C 0.56851 0.74867 0.08645 0.0
C111 C 0.56607 0.76409 0.14385 0.0
H112 H 0.56356 0.83588 0.2721 0.0
H113 H 0.5507 0.87064 0.21498 0.0
H114 H 0.482 0.85329 0.26839 0.0
H115 H 0.49515 0.81817 0.32608 0.0
H116 H 0.56708 0.74624 0.48383 0.0
H117 H 0.55832 0.71184 0.55151 0.0
H118 H 0.48793 0.72043 0.50096 0.0
H119 H 0.49683 0.75516 0.43268 0.0
H120 H 0.58134 0.72984 0.28615 0.0
H121 H 0.58501 0.70307 0.18769 0.0
H122 H 0.56415 0.75396 0.03126 0.0
H123 H 0.55958 0.78071 0.13133 0.0
N124 N 0.55151 0.79112 0.26839 0.0
N125 N 0.53138 0.78932 0.38017 0.0
N126 N 0.55292 0.75852 0.33983 0.0
C127 C 0.53812 0.80116 0.31926 0.0
C128 C 0.53937 0.76797 0.39102 0.0
C129 C 0.55889 0.76976 0.27812 0.0
C130 C 0.53035 0.82435 0.30346 0.0
C131 C 0.54577 0.83984 0.27374 0.0
C132 C 0.53837 0.85983 0.24116 0.0
C133 C 0.51529 0.86473 0.23643 0.0
C134 C 0.4999 0.84991 0.27056 0.0
C135 C 0.5074 0.82994 0.30429 0.0
C136 C 0.53263 0.75344 0.45343 0.0
C137 C 0.5496 0.74136 0.49001 0.0
C138 C 0.54462 0.72151 0.52803 0.0
C139 C 0.52251 0.7132 0.53032 0.0
C140 C 0.50512 0.72646 0.5002 0.0
C141 C 0.51017 0.74645 0.46172 0.0
C142 C 0.56926 0.7571 0.217 0.0
C143 C 0.57819 0.73559 0.23052 0.0
C144 C 0.21655 0.54678 0.88324 0.0
C145 C 0.20912 0.52436 0.88803 0.0
C146 C 0.22086 0.50935 0.93445 0.0
C147 C 0.2388 0.51698 0.97803 0.0
H148 H 0.30036 0.504 0.13609 0.0
H149 H 0.33251 0.48837 0.20442 0.0
H150 H 0.35994 0.55533 0.22714 0.0
H151 H 0.32814 0.57071 0.15996 0.0
H152 H 0.27795 0.59577 0.25405 0.0
H153 H 0.25525 0.61886 0.33606 0.0
H154 H 0.20529 0.62647 0.1653 0.0
H155 H 0.22812 0.60418 0.08323 0.0
H156 H 0.23859 0.57209 0.92503 0.0
H157 H 0.20784 0.5589 0.84894 0.0
H158 H 0.21569 0.49191 0.93892 0.0
H159 H 0.24675 0.50542 0.01621 0.0
N160 N 0.27854 0.5391 0.05933 0.0
N161 N 0.28363 0.56845 0.14455 0.0
N162 N 0.25281 0.56913 0.06545 0.0
C163 C 0.29092 0.54893 0.11374 0.0
C164 C 0.26453 0.5786 0.12104 0.0
C165 C 0.2596 0.54959 0.03408 0.0
C166 C 0.31173 0.53856 0.14303 0.0
C167 C 0.31357 0.51521 0.15432 0.0
C168 C 0.33186 0.50632 0.19388 0.0
C169 C 0.34877 0.52062 0.22134 0.0
C170 C 0.34741 0.54379 0.20618 0.0
C171 C 0.32908 0.55264 0.168 0.0
C172 C 0.25448 0.59748 0.16282 0.0
C173 C 0.26248 0.60301 0.2332 0.0
C174 C 0.24941 0.61619 0.28042 0.0
C175 C 0.22814 0.62404 0.25814 0.0
C176 C 0.22154 0.62077 0.18475 0.0
C177 C 0.23459 0.60769 0.13761 0.0
C178 C 0.24503 0.53979 0.97659 0.0
C179 C 0.23417 0.55439 0.92716 0.0
C180 C 1.00875 0.21555 0.92465 0.0
C181 C 0.02692 0.20033 0.92032 0.0
C182 C 0.04787 0.20708 0.94867 0.0
C183 C 0.05003 0.22732 0.98693 0.0
H184 H 0.05497 0.32736 0.06932 0.0
H185 H 0.05273 0.36618 0.11368 0.0
H186 H 0.98563 0.35329 0.19498 0.0
H187 H 0.98802 0.31471 0.15019 0.0
H188 H 0.02219 0.28108 0.31634 0.0
H189 H 0.01877 0.26106 0.4332 0.0
H190 H 0.05203 0.20337 0.33807 0.0
H191 H 0.05557 0.22327 0.22209 0.0
H192 H 0.99629 0.24651 0.97065 0.0
H193 H 0.99235 0.21092 0.90369 0.0
H194 H 0.06239 0.19611 0.94485 0.0
H195 H 0.06591 0.23111 0.0133 0.0
N196 N 0.02665 0.28025 0.0489 0.0
N197 N 0.03083 0.2853 0.17663 0.0
N198 N 0.03679 0.24985 0.1255 0.0
C199 C 0.02637 0.29395 0.10915 0.0
C200 C 0.03615 0.26332 0.18528 0.0
C201 C 0.03202 0.258 0.05753 0.0
C202 C 0.02151 0.31823 0.10519 0.0
C203 C 0.03932 0.33329 0.09296 0.0
C204 C 0.03815 0.35539 0.11958 0.0
C205 C 0.01914 0.36278 0.15905 0.0
C206 C 1.00046 0.34831 0.16445 0.0
C207 C 1.00172 0.3262 0.13829 0.0
C208 C 0.03867 0.25351 0.2595 0.0
C209 C 0.02938 0.26437 0.32105 0.0
C210 C 0.02739 0.25293 0.38801 0.0
C211 C 0.03489 0.23059 0.39463 0.0
C212 C 0.04621 0.22064 0.33511 0.0
C213 C 0.048 0.23196 0.26817 0.0
C214 C 0.03145 0.2416 0.99664 0.0
C215 C 0.01101 0.23603 0.96254 0.0
C216 C 0.27189 1.00735 0.93587 0.0
C217 C 0.28677 0.02487 0.95474 0.0
C218 C 0.27983 0.04051 1.00817 0.0
C219 C 0.25973 0.03736 0.04699 0.0
H220 H 0.16392 0.971 0.11275 0.0
H221 H 0.12671 0.96936 0.16952 0.0
H222 H 0.13452 0.03801 0.24302 0.0
H223 H 0.17139 0.03968 0.18388 0.0
H224 H 0.21587 0.9513 0.26846 0.0
H225 H 0.23711 0.93121 0.36474 0.0
H226 H 0.28414 0.98648 0.37479 0.0
H227 H 0.26365 1.00598 0.27737 0.0
H228 H 0.24159 0.98952 0.96354 0.0
H229 H 0.27665 0.99486 0.89555 0.0
H230 H 0.29056 0.05449 0.02312 0.0
H231 H 0.25586 0.04845 0.09245 0.0
N232 N 0.20782 0.01225 0.086 0.0
N233 N 0.20486 0.99232 0.19802 0.0
N234 N 0.2403 1.00025 0.1489 0.0
C235 C 0.19492 1.00306 0.14064 0.0
C236 C 0.22751 0.99102 0.20258 0.0
C237 C 0.2307 0.01058 0.09029 0.0
C238 C 0.17033 1.00552 0.1434 0.0
C239 C 0.15704 0.98612 0.13728 0.0
C240 C 0.1359 0.98511 0.17086 0.0
C241 C 0.12788 1.00335 0.21259 0.0
C242 C 0.14009 0.02366 0.21126 0.0
C243 C 0.1612 0.02471 0.17696 0.0
C244 C 0.23835 0.98002 0.2656 0.0
C245 C 0.23057 0.95919 0.29232 0.0
C246 C 0.24259 0.94777 0.34712 0.0
C247 C 0.26199 0.95751 0.37728 0.0
C248 C 0.26901 0.97884 0.35295 0.0
C249 C 0.25745 0.98987 0.29697 0.0
C250 C 0.24589 0.0188 0.03221 0.0
C251 C 0.25166 1.00434 0.9744 0.0
C252 C 0.60394 0.28909 0.20423 0.0
C253 C 0.60882 0.28332 0.27757 0.0
C254 C 0.60273 0.26174 0.30301 0.0
C255 C 0.58951 0.24757 0.25951 0.0
H256 H 0.55956 0.181 0.20652 0.0
H257 H 0.5467 0.14813 0.27401 0.0
H258 H 0.47771 0.16848 0.23983 0.0
H259 H 0.49077 0.20184 0.17171 0.0
H260 H 0.48792 0.26134 0.07453 0.0
H261 H 0.47265 0.29337 1.00455 0.0
H262 H 0.53519 0.29824 0.88416 0.0
H263 H 0.55002 0.26648 0.95302 0.0
H264 H 0.5861 0.28075 0.10652 0.0
H265 H 0.60825 0.30548 0.18214 0.0
H266 H 0.60677 0.25645 0.35846 0.0
H267 H 0.58353 0.23189 0.28304 0.0
N268 N 0.55452 0.22394 0.17873 0.0
N269 N 0.52305 0.22755 0.10074 0.0
N270 N 0.55174 0.25479 0.09963 0.0
C271 C 0.53477 0.21561 0.15262 0.0
C272 C 0.53191 0.24706 0.07316 0.0
C273 C 0.56308 0.24356 0.15273 0.0
C274 C 0.52619 0.19416 0.1842 0.0
C275 C 0.54161 0.17838 0.21244 0.0
C276 C 0.53422 0.15937 0.25075 0.0
C277 C 0.51116 0.15563 0.26264 0.0
C278 C 0.49561 0.17096 0.2321 0.0
C279 C 0.50306 0.18996 0.19265 0.0
C280 C 0.52009 0.26139 0.01887 0.0
C281 C 0.49795 0.26877 0.03104 0.0
C282 C 0.48939 0.28732 0.99169 0.0
C283 C 0.50275 0.29861 0.93906 0.0
C284 C 0.52425 0.28996 0.92345 0.0
C285 C 0.53281 0.2717 0.96304 0.0
C286 C 0.58226 0.25471 0.18967 0.0
C287 C 0.5909 0.27491 0.16077 0.0
Sm288 Sm 0.01045 0.98502 0.79587 0.0
Sm289 Sm 0.97594 0.99936 0.67125 0.0
C290 C 0.02921 0.96931 0.91687 0.0
C291 C 0.047 0.9527 0.93061 0.0
C292 C 0.05179 0.94571 1.00239 0.0
C293 C 0.06785 0.92893 0.015 0.0
C294 C 0.07936 0.91888 0.95586 0.0
C295 C 0.07494 0.92654 0.88408 0.0
C296 C 0.05885 0.94325 0.87158 0.0
C297 C 0.03306 0.9909 0.66372 0.0
C298 C 0.99 0.94689 0.67998 0.0
C299 C 0.95496 0.02179 0.56744 0.0
C300 C 0.95863 0.04568 0.54751 0.0
C301 C 0.97832 0.05214 0.51011 0.0
C302 C 0.98524 0.07455 0.51003 0.0
C303 C 0.97256 0.09101 0.54673 0.0
C304 C 0.95182 0.08498 0.57811 0.0
C305 C 0.94489 0.06249 0.57838 0.0
C306 C 0.9575 0.98404 0.80078 0.0
C307 C 1.00072 0.03848 0.7732 0.0
O308 O 0.01041 0.96119 0.89001 0.0
O309 O 0.03577 0.98794 0.88445 0.0
O310 O 0.01255 0.99353 0.67686 0.0
O311 O 0.04296 0.98455 0.72375 0.0
O312 O 0.9982 0.95117 0.74639 0.0
O313 O 0.98264 0.96303 0.6357 0.0
O314 O 0.97155 1.00786 0.5532 0.0
O315 O 0.94616 0.01847 0.63262 0.0
O316 O 0.97433 0.99694 0.79533 0.0
O317 O 0.94943 0.97931 0.73626 0.0
O318 O 0.99071 0.03337 0.71054 0.0
O319 O 1.00747 0.02281 0.81999 0.0
H320 H 0.04275 0.95285 0.0485 0.0
H321 H 0.07054 0.92319 0.07086 0.0
H322 H 0.08365 0.91935 0.83741 0.0
H323 H 0.05534 0.94852 0.81569 0.0
H324 H 0.98916 0.03974 0.48469 0.0
H325 H 1.00095 0.07888 0.48324 0.0
H326 H 0.94162 0.09737 0.60623 0.0
H327 H 0.92955 0.05807 0.6072 0.0
Sm328 Sm 0.5009 0.02647 0.80487 0.0
Sm329 Sm 0.4874 0.99271 0.68333 0.0
C330 C 0.51823 0.0498 0.91463 0.0
C331 C 0.53821 0.06386 0.92761 0.0
C332 C 0.55966 0.05696 0.90453 0.0
C333 C 0.57852 0.07013 0.92007 0.0
C334 C 0.57627 0.09053 0.95861 0.0
C335 C 0.55461 0.09777 0.97903 0.0
C336 C 0.53578 0.08451 0.96381 0.0
C337 C 0.48933 0.04563 0.6719 0.0
C338 C 0.54101 1.00344 0.7021 0.0
C339 C 0.47062 0.97458 0.56359 0.0
C340 C 0.45114 0.9597 0.55524 0.0
C341 C 0.44122 0.95661 0.48636 0.0
C342 C 0.42057 0.94546 0.48081 0.0
C343 C 0.40956 0.93739 0.54427 0.0
C344 C 0.4203 0.93939 0.6126 0.0
C345 C 0.44086 0.95054 0.61805 0.0
C346 C 0.48888 0.96929 0.81548 0.0
C347 C 0.44871 0.0134 0.79262 0.0
O348 O 0.52151 0.02814 0.90614 0.0
O349 O 0.50328 0.05806 0.86938 0.0
O350 O 0.50126 0.02819 0.68015 0.0
O351 O 0.48332 0.05363 0.73512 0.0
O352 O 0.53586 0.01638 0.75884 0.0
O353 O 0.52545 0.99329 0.66238 0.0
O354 O 0.46563 0.99506 0.58491 0.0
O355 O 0.48784 0.96593 0.59877 0.0
O356 O 0.49294 0.9899 0.80608 0.0
O357 O 0.48404 0.9602 0.75306 0.0
O358 O 0.45345 1.00698 0.72487 0.0
O359 O 0.46482 0.01811 0.83998 0.0
H360 H 0.56195 0.04117 0.8759 0.0
H361 H 0.59493 0.06383 0.90444 0.0
H362 H 0.55224 0.11351 1.00788 0.0
H363 H 0.51931 0.09024 0.98128 0.0
H364 H 0.44886 0.96376 0.43748 0.0
H365 H 0.41257 0.94449 0.42748 0.0
H366 H 0.41233 0.93321 0.6623 0.0
H367 H 0.44818 0.95295 0.67186 0.0
Sm368 Sm 0.47762 0.50963 0.76241 0.0
Sm369 Sm 0.50968 0.49802 0.64553 0.0
C370 C 0.46032 0.53108 0.87492 0.0
C371 C 0.47168 0.55007 0.91142 0.0
C372 C 0.49472 0.54836 0.92785 0.0
C373 C 0.50734 0.56745 0.94366 0.0
C374 C 0.4972 0.58882 0.94431 0.0
C375 C 0.47383 0.59041 0.93219 0.0
C376 C 0.4612 0.5712 0.9155 0.0
C377 C 0.45641 0.49826 0.63344 0.0
C378 C 0.4998 0.54976 0.66256 0.0
C379 C 0.53306 0.48103 0.53497 0.0
C380 C 0.54759 0.46122 0.5237 0.0
C381 C 0.5405 0.43959 0.54467 0.0
C382 C 0.55455 0.42103 0.53417 0.0
C383 C 0.57607 0.42371 0.50295 0.0
C384 C 0.58324 0.44548 0.48305 0.0
C385 C 0.5691 0.46404 0.49325 0.0
C386 C 0.5302 0.50983 0.77578 0.0
C387 C 0.48834 0.45691 0.74972 0.0
O388 O 0.47006 0.51142 0.88187 0.0
O389 O 0.45398 0.53519 0.80745 0.0
O390 O 0.47385 0.51034 0.63816 0.0
O391 O 0.44903 0.49265 0.69818 0.0
O392 O 0.49471 0.54351 0.7302 0.0
O393 O 0.50254 0.5344 0.61146 0.0
O394 O 0.51151 0.47735 0.5444 0.0
O395 O 0.54098 0.49644 0.57893 0.0
O396 O 0.51332 0.4972 0.7696 0.0
O397 O 0.53736 0.51619 0.71178 0.0
O398 O 0.49921 0.46259 0.68887 0.0
O399 O 0.47933 0.47231 0.7926 0.0
H400 H 0.5034 0.53241 0.92414 0.0
H401 H 0.52529 0.56548 0.95158 0.0
H402 H 0.46539 0.60656 0.9337 0.0
H403 H 0.44353 0.573 0.90209 0.0
H404 H 0.52403 0.43694 0.56859 0.0
H405 H 0.54823 0.40451 0.5488 0.0
H406 H 0.59977 0.44819 0.45955 0.0
H407 H 0.57497 0.48063 0.47731 0.0
Sm408 Sm 1.00114 0.49397 0.6919 0.0
Sm409 Sm 0.01128 0.52905 0.58764 0.0
C410 C 0.98094 0.46689 0.78645 0.0
C411 C 0.95666 0.46254 0.79522 0.0
C412 C 0.9415 0.48061 0.80024 0.0
C413 C 0.91843 0.4769 0.79553 0.0
C414 C 0.90994 0.45506 0.78528 0.0
C415 C 0.92501 0.43683 0.78322 0.0
C416 C 0.94823 0.44056 0.78789 0.0
C417 C 0.01539 0.47744 0.55839 0.0
C418 C 0.96032 0.51484 0.59332 0.0
C419 C 0.02804 0.55613 0.48537 0.0
C420 C 0.04675 0.57216 0.48196 0.0
C421 C 0.05333 0.58118 0.4142 0.0
C422 C 0.07222 0.59511 0.40958 0.0
C423 C 0.08483 0.60024 0.47284 0.0
C424 C 0.07761 0.59173 0.54119 0.0
C425 C 0.05875 0.57773 0.54566 0.0
C426 C 0.9983 0.54606 0.72228 0.0
C427 C 0.05259 0.50824 0.69101 0.0
O428 O 0.98802 0.48702 0.80411 0.0
O429 O 0.98953 0.45981 0.72473 0.0
O430 O 1.00118 0.49306 0.56653 0.0
O431 O 0.02305 0.47061 0.62134 0.0
O432 O 0.96605 0.50807 0.65968 0.0
O433 O 0.97608 0.52034 0.54587 0.0
O434 O 0.03373 0.53495 0.49193 0.0
O435 O 0.0113 0.56172 0.52813 0.0
O436 O 0.01173 0.52987 0.71279 0.0
O437 O 0.99131 0.5538 0.65974 0.0
O438 O 0.04698 0.51909 0.63001 0.0
O439 O 0.03713 0.49847 0.73198 0.0
H440 H 0.94741 0.49779 0.80536 0.0
H441 H 0.9072 0.49122 0.79945 0.0
H442 H 0.9189 0.4198 0.77583 0.0
H443 H 0.95963 0.4264 0.7831 0.0
H444 H 0.04425 0.57695 0.36454 0.0
H445 H 0.07748 0.60098 0.35586 0.0
H446 H 0.08678 0.5955 0.59101 0.0
H447 H 0.05381 0.57087 0.59853 0.0
H448 H 0.12167 0.96673 0.3009 0.0
H449 H 0.01966 0.01426 0.54008 0.0
H450 H 0.09333 0.03217 0.25364 0.0
H451 H 0.07183 0.97069 0.62342 0.0
H452 H 0.04004 0.01663 0.42177 0.0
H453 H 0.09602 0.96287 0.40425 0.0
C454 C 0.10967 0.98011 0.31097 0.0
C455 C 0.1097 0.99982 0.26804 0.0
C456 C 0.04687 1.00651 0.46607 0.0
C457 C 0.08045 0.9956 0.38824 0.0
C458 C 0.03526 1.00508 0.53315 0.0
C459 C 0.04416 0.9923 0.59128 0.0
C460 C 0.06712 0.99457 0.45713 0.0
C461 C 0.06446 0.98082 0.58008 0.0
C462 C 0.0952 0.97798 0.37077 0.0
C463 C 0.09401 0.01676 0.28551 0.0
N464 N 0.07516 0.98212 0.51433 0.0
N465 N 0.08003 0.01431 0.34456 0.0
H466 H 0.52714 0.11215 0.26755 0.0
H467 H 0.46547 0.0841 0.6476 0.0
H468 H 0.47885 0.15619 0.37063 0.0
H469 H 0.51124 0.03828 0.54097 0.0
H470 H 0.46737 0.10895 0.54044 0.0
H471 H 0.51889 0.08336 0.36024 0.0
C472 C 0.51464 0.11571 0.30929 0.0
C473 C 0.50384 0.13677 0.31156 0.0
C474 C 0.47685 0.09338 0.53997 0.0
C475 C 0.49432 0.10378 0.41826 0.0
C476 C 0.47575 0.07916 0.6012 0.0
C477 C 0.48837 0.05919 0.60346 0.0
C478 C 0.49082 0.08773 0.48048 0.0
C479 C 0.50131 0.05357 0.54162 0.0
C480 C 0.5099 0.09921 0.36215 0.0
C481 C 0.48753 0.14022 0.36632 0.0
N482 N 0.5024 0.06788 0.48298 0.0
N483 N 0.48348 0.12403 0.41785 0.0
H484 H 0.39369 0.53133 0.22037 0.0
H485 H 0.41577 0.47736 0.61692 0.0
H486 H 0.34481 0.49108 0.33696 0.0
H487 H 0.46509 0.51628 0.49759 0.0
H488 H 0.39107 0.47863 0.50945 0.0
H489 H 0.42151 0.52235 0.31485 0.0
C490 C 0.38889 0.52037 0.26546 0.0
C491 C 0.3668 0.51213 0.27106 0.0
C492 C 0.40737 0.48673 0.50644 0.0
C493 C 0.39859 0.50187 0.38001 0.0
C494 C 0.42148 0.48601 0.56782 0.0
C495 C 0.44239 0.49695 0.56642 0.0
C496 C 0.41418 0.49857 0.44319 0.0
C497 C 0.44901 0.50777 0.50121 0.0
C498 C 0.40479 0.51524 0.31942 0.0
C499 C 0.36163 0.49775 0.33018 0.0
N500 N 0.43487 0.50849 0.44249 0.0
N501 N 0.37731 0.49332 0.38279 0.0
H502 H 0.98594 0.39464 0.18147 0.0
H503 H 0.04814 0.44693 0.52791 0.0
H504 H 0.05413 0.37812 0.2424 0.0
H505 H 0.98862 0.47723 0.43511 0.0
H506 H 0.05059 0.42196 0.42182 0.0
H507 H 0.98635 0.42538 0.27129 0.0
C508 C 1.00109 0.39765 0.21292 0.0
C509 C 0.02002 0.38371 0.20417 0.0
C510 C 0.0371 0.4342 0.42406 0.0
C511 C 0.02051 0.41869 0.30773 0.0
C512 C 0.03569 0.44845 0.48473 0.0
C513 C 0.01811 0.46409 0.49041 0.0
C514 C 0.02058 0.43529 0.36894 0.0
C515 C 1.00246 0.4654 0.43277 0.0
C516 C 1.00133 0.41523 0.26409 0.0
C517 C 0.03922 0.38852 0.24634 0.0
N518 N 1.00388 0.45096 0.37483 0.0
N519 N 0.03886 0.40536 0.29671 0.0
H520 H 0.89234 0.0125 0.21173 0.0
H521 H 0.91942 0.95911 0.81971 0.0
H522 H 0.84683 0.96899 0.09441 0.0
H523 H 0.9656 1.00187 0.93705 0.0
H524 H 0.89495 0.9582 0.92767 0.0
H525 H 0.92148 1.00456 0.12041 0.0
C526 C 0.88856 1.00105 0.16725 0.0
C527 C 0.86699 0.99162 0.16032 0.0
C528 C 0.91054 0.96759 0.93028 0.0
C529 C 0.90029 0.98252 0.0552 0.0
C530 C 0.92454 0.9681 0.86862 0.0
C531 C 0.94441 0.98083 0.86917 0.0
C532 C 0.91636 0.98005 0.99293 0.0
C533 C 0.95032 0.99199 0.93415 0.0
C534 C 0.90522 0.99649 0.11515 0.0
C535 C 0.86319 0.9766 0.1022 0.0
N536 N 0.93621 0.99158 0.99314 0.0
N537 N 0.87955 0.97277 0.05142 0.0
H538 H 0.53275 0.90763 0.22246 0.0
H539 H 0.47006 0.92873 0.84285 0.0
H540 H 0.48063 0.86442 0.1375 0.0
H541 H 0.50934 0.98063 0.94675 0.0
H542 H 0.4732 0.90574 0.95341 0.0
H543 H 0.52384 0.93541 0.12667 0.0
C544 C 0.51922 0.90411 0.18437 0.0
C545 C 0.50753 0.88353 0.18794 0.0
C546 C 0.481 0.92221 0.95269 0.0
C547 C 0.4974 0.91521 0.07772 0.0
C548 C 0.47927 0.93535 0.88935 0.0
C549 C 0.48957 0.95656 0.88552 0.0
C550 C 0.49349 0.93009 0.01277 0.0
C551 C 0.50117 0.96434 0.94757 0.0
C552 C 0.51413 0.92001 0.12979 0.0
C553 C 0.49002 0.88004 0.1375 0.0
N554 N 0.50308 0.95097 0.00848 0.0
N555 N 0.48572 0.89553 0.0841 0.0
H556 H 0.63274 0.54673 0.086 0.0
H557 H 0.52457 0.48827 0.90798 0.0
H558 H 0.59697 0.49174 0.18905 0.0
H559 H 0.56447 0.53932 0.80038 0.0
H560 H 0.54742 0.49285 0.01912 0.0
H561 H 0.604 0.54837 0.99101 0.0
C562 C 0.61857 0.53532 0.0899 0.0
C563 C 0.61747 0.51894 0.14577 0.0
C564 C 0.55108 0.50316 0.97138 0.0
C565 C 0.58466 0.52033 0.03499 0.0
C566 C 0.53807 0.50053 0.90796 0.0
C567 C 0.54283 0.51328 0.84475 0.0
C568 C 0.56898 0.51864 0.9715 0.0
C569 C 0.5604 0.52899 0.84772 0.0
C570 C 0.60225 0.5361 0.03484 0.0
C571 C 0.59878 0.5044 0.1465 0.0
N572 N 0.57289 0.53115 0.90983 0.0
N573 N 0.58327 0.50527 0.09155 0.0
H574 H 0.03174 0.60779 0.13689 0.0
H575 H 0.97399 0.58431 0.74752 0.0
H576 H 0.98631 0.65421 0.03033 0.0
H577 H 0.01971 0.53804 0.85325 0.0
H578 H 0.97506 0.60822 0.85664 0.0
H579 H 0.02435 0.5803 0.04025 0.0
C580 C 0.02006 0.61215 0.09346 0.0
C581 C 0.00982 0.63349 0.09147 0.0
C582 C 0.98472 0.59275 0.85637 0.0
C583 C 1.00127 0.60199 0.98021 0.0
C584 C 0.9841 0.57908 0.79405 0.0
C585 C 0.99695 0.55927 0.79105 0.0
C586 C 0.99837 0.58665 0.91623 0.0
C587 C 1.00964 0.55325 0.85308 0.0
C588 C 0.01581 0.5964 0.03831 0.0
C589 C 0.99453 0.63798 0.03444 0.0
N590 N 0.01019 0.56697 0.91283 0.0
N591 N 0.99092 0.62249 0.98076 0.0
H592 H 0.99308 0.22902 0.45635 0.0
H593 H 0.01537 0.10344 0.58241 0.0
H594 H 0.05887 0.19857 0.4709 0.0
H595 H 0.95011 0.13112 0.53082 0.0
H596 H 0.03116 0.1414 0.58021 0.0
H597 H 0.97749 0.19747 0.52547 0.0
C598 C 1.00443 0.21611 0.47639 0.0
C599 C 0.02724 0.2161 0.45618 0.0
C600 C 0.01333 0.13921 0.57032 0.0
C601 C 1.00933 0.17965 0.53333 0.0
C602 C 1.00436 0.11755 0.57077 0.0
C603 C 0.98155 0.11412 0.55434 0.0
C604 C 0.99944 0.15755 0.55261 0.0
C605 C 0.96785 0.13301 0.54272 0.0
C606 C 0.99543 0.19795 0.51522 0.0
C607 C 0.04108 0.19889 0.48363 0.0
N608 N 0.9771 0.15392 0.54076 0.0
N609 N 0.03181 0.18105 0.51939 0.0
H610 H 0.27506 0.96884 0.51549 0.0
H611 H 0.38939 0.91012 0.44181 0.0
H612 H 0.28363 0.91826 0.34879 0.0
H613 H 0.37532 0.94866 0.63713 0.0
H614 H 0.34894 0.90604 0.42155 0.0
H615 H 0.30866 0.95479 0.57769 0.0
C616 C 0.28366 0.95424 0.49358 0.0
C617 C 0.27688 0.94479 0.42685 0.0
C618 C 0.35469 0.91489 0.46993 0.0
C619 C 0.31576 0.92923 0.49537 0.0
C620 C 0.37779 0.91732 0.48121 0.0
C621 C 0.38573 0.93014 0.54031 0.0
C622 C 0.3395 0.92573 0.51733 0.0
C623 C 0.36999 0.93871 0.59058 0.0
C624 C 0.3029 0.94625 0.52873 0.0
C625 C 0.28848 0.92597 0.4002 0.0
N626 N 0.34764 0.93678 0.57704 0.0
N627 N 0.30778 0.91916 0.43348 0.0
H628 H 0.6376 0.31926 0.25395 0.0
H629 H 0.58147 0.38539 0.58652 0.0
H630 H 0.59528 0.28905 0.42044 0.0
H631 H 0.6029 0.41605 0.38258 0.0
H632 H 0.59884 0.35004 0.54785 0.0
H633 H 0.6377 0.35426 0.32438 0.0
C634 C 0.62877 0.31974 0.306 0.0
C635 C 0.61573 0.30133 0.32971 0.0
C636 C 0.6001 0.36467 0.51232 0.0
C637 C 0.61611 0.3412 0.41084 0.0
C638 C 0.59004 0.3848 0.53402 0.0
C639 C 0.59016 0.4036 0.48688 0.0
C640 C 0.61043 0.36331 0.44313 0.0
C641 C 0.60223 0.40203 0.42066 0.0
C642 C 0.6289 0.33973 0.34618 0.0
C643 C 0.60539 0.30274 0.39909 0.0
N644 N 0.61157 0.38212 0.40024 0.0
N645 N 0.60542 0.32248 0.4364 0.0
H646 H 0.19502 0.65646 0.24465 0.0
H647 H 0.12424 0.5917 0.54586 0.0
H648 H 0.22169 0.60731 0.39688 0.0
H649 H 0.09536 0.63621 0.38314 0.0
H650 H 0.16134 0.60644 0.51636 0.0
H651 H 0.16065 0.65834 0.31836 0.0
C652 C 0.19392 0.64648 0.29446 0.0
C653 C 0.21105 0.63119 0.31315 0.0
C654 C 0.14687 0.61331 0.48795 0.0
C655 C 0.17179 0.63324 0.3976 0.0
C656 C 0.12557 0.60498 0.50516 0.0
C657 C 0.10663 0.61234 0.46575 0.0
C658 C 0.14934 0.62889 0.43025 0.0
C659 C 0.10957 0.62953 0.41333 0.0
C660 C 0.17428 0.64758 0.33656 0.0
C661 C 0.20895 0.61921 0.37956 0.0
N662 N 0.13057 0.63691 0.39609 0.0
N663 N 0.18948 0.62012 0.41839 0.0
H664 H 0.14363 0.81387 0.19425 0.0
H665 H 0.08263 0.88057 0.87325 0.0
H666 H 0.10416 0.78381 0.02124 0.0
H667 H 0.10969 0.91179 0.06792 0.0
H668 H 0.10181 0.84575 0.90606 0.0
H669 H 0.14271 0.84965 0.12737 0.0
C670 C 0.13524 0.81456 0.14151 0.0
C671 C 0.12324 0.79588 0.11495 0.0
C672 C 0.1039 0.86032 0.94096 0.0
C673 C 0.12236 0.83672 0.03797 0.0
C674 C 0.09304 0.88032 0.92205 0.0
C675 C 0.09416 0.89907 0.96869 0.0
C676 C 0.11583 0.85893 1.00735 0.0
C677 C 0.10783 0.89756 0.03145 0.0
C678 C 0.13476 0.83502 0.10336 0.0
C679 C 0.11345 0.79765 0.04486 0.0
N680 N 0.11783 0.87771 0.04962 0.0
N681 N 0.11281 0.81783 0.00969 0.0
H682 H 0.71547 0.11713 0.03488 0.0
H683 H 0.58299 0.11126 0.09089 0.0
H684 H 0.68082 0.11283 0.24361 0.0
H685 H 0.61613 0.09771 0.88441 0.0
H686 H 0.61841 0.12502 0.14009 0.0
H687 H 0.67912 0.1225 0.97435 0.0
C688 C 0.70042 0.11769 0.06836 0.0
C689 C 0.70142 0.11375 0.14464 0.0
C690 C 0.61787 0.11939 0.08358 0.0
C691 C 0.65986 0.12047 0.07554 0.0
C692 C 0.59756 0.11166 0.05513 0.0
C693 C 0.59662 0.10283 0.98374 0.0
C694 C 0.63748 0.11811 0.04078 0.0
C695 C 0.61622 0.10372 0.94047 0.0
C696 C 0.67969 0.1209 0.03362 0.0
C697 C 0.68128 0.11565 0.18494 0.0
N698 N 0.63596 0.11083 0.97008 0.0
N699 N 0.6614 0.11851 0.1498 0.0
H700 H 0.53872 0.72465 1.00486 0.0
H701 H 0.5341 0.59403 0.03346 0.0
H702 H 0.59572 0.68548 0.07877 0.0
H703 H 0.49276 0.63025 0.87752 0.0
H704 H 0.55732 0.62745 0.04782 0.0
H705 H 0.52293 0.69105 0.94958 0.0
C706 C 0.54838 0.70921 1.00756 0.0
C707 C 0.5684 0.7079 0.04853 0.0
C708 C 0.54331 0.62801 0.00983 0.0
C709 C 0.54975 0.66908 0.98751 0.0
C710 C 0.52997 0.60891 1.00164 0.0
C711 C 0.51125 0.60928 0.95456 0.0
C712 C 0.53773 0.64783 0.97183 0.0
C713 C 0.50664 0.62929 0.91587 0.0
C714 C 0.53914 0.6899 0.97647 0.0
C715 C 0.57987 0.68719 0.05008 0.0
N716 N 0.51963 0.64785 0.92601 0.0
N717 N 0.57009 0.66846 0.02182 0.0
H718 H 0.77923 0.43291 0.94532 0.0
H719 H 0.87988 0.47975 0.70469 0.0
H720 H 0.7824 0.49938 0.84999 0.0
H721 H 0.88397 0.4227 0.85164 0.0
H722 H 0.83895 0.47932 0.71707 0.0
H723 H 0.81135 0.42163 0.86938 0.0
C724 C 0.78611 0.44482 0.90605 0.0
C725 C 0.77856 0.46718 0.90448 0.0
C726 C 0.84877 0.46658 0.74532 0.0
C727 C 0.81532 0.45463 0.81909 0.0
C728 C 0.87211 0.4669 0.73867 0.0
C729 C 0.88533 0.4517 0.7792 0.0
C730 C 0.83861 0.45103 0.79317 0.0
C731 C 0.87442 0.43493 0.82033 0.0
C732 C 0.80453 0.43846 0.86328 0.0
C733 C 0.78805 0.48206 0.85325 0.0
N734 N 0.85167 0.43534 0.82755 0.0
N735 N 0.80627 0.47565 0.81351 0.0
H736 H 0.04425 0.16181 0.98047 0.0
H737 H 0.98607 0.07627 0.6987 0.0
H738 H 1.00162 0.18446 0.80313 0.0
H739 H 0.024 0.05597 0.88987 0.0
H740 H 0.99242 0.11582 0.73133 0.0
H741 H 0.0383 0.1231 0.94245 0.0
C742 C 0.03385 0.15871 0.93276 0.0
C743 C 0.02365 0.17663 0.89457 0.0
C744 C 0.99939 0.10269 0.76593 0.0
C745 C 0.01631 0.13177 0.85127 0.0
C746 C 0.99577 0.08008 0.74738 0.0
C747 C 1.00447 0.06264 0.7916 0.0
C748 C 0.01197 0.10798 0.82888 0.0
C749 C 0.01688 0.06871 0.85408 0.0
C750 C 0.03027 0.13646 0.91145 0.0
C751 C 0.0098 0.17126 0.83444 0.0
N752 N 0.02026 0.09077 0.87063 0.0
N753 N 1.00657 0.14934 0.81456 0.0
H754 H 0.30218 0.01447 0.81526 0.0
H755 H 0.43226 0.02753 0.92551 0.0
H756 H 0.32548 0.03524 0.02915 0.0
H757 H 0.41049 1.00466 0.71223 0.0
H758 H 0.393 0.03156 0.9622 0.0
H759 H 0.34141 0.01203 0.77421 0.0
C760 C 0.31547 0.01863 0.85353 0.0
C761 C 0.31034 0.02518 0.92583 0.0
C762 C 0.39676 0.02568 0.9073 0.0
C763 C 0.35539 0.02242 0.87902 0.0
C764 C 0.41925 0.02333 0.88628 0.0
C765 C 0.4248 0.01573 0.81559 0.0
C766 C 0.37952 0.02039 0.85745 0.0
C767 C 0.40707 0.0106 0.76729 0.0
C768 C 0.33788 0.01727 0.82996 0.0
C769 C 0.32839 0.03054 0.97255 0.0
N770 N 0.38526 0.01301 0.7891 0.0
N771 N 0.34999 0.02896 0.94846 0.0
H772 H 0.48051 0.33372 1.00546 0.0
H773 H 0.5037 0.41988 0.6745 0.0
H774 H 0.50938 0.31409 0.79765 0.0
H775 H 0.4707 0.43873 0.87648 0.0
H776 H 0.50389 0.38069 0.71583 0.0
H777 H 0.47411 0.3715 0.95593 0.0
C778 C 0.48512 0.33717 0.94895 0.0
C779 C 0.49566 0.3206 0.90598 0.0
C780 C 0.49647 0.39336 0.75096 0.0
C781 C 0.48882 0.3642 0.84926 0.0
C782 C 0.49638 0.41582 0.72737 0.0
C783 C 0.48728 0.43278 0.77211 0.0
C784 C 0.48749 0.3877 0.82011 0.0
C785 C 0.47795 0.42632 0.84005 0.0
C786 C 0.48165 0.35888 0.92088 0.0
C787 C 0.50156 0.32635 0.8334 0.0
N788 N 0.47843 0.40438 0.86209 0.0
N789 N 0.49825 0.34765 0.80767 0.0
H790 H 0.19474 0.53576 0.74906 0.0
H791 H 0.07039 0.48728 0.81228 0.0
H792 H 0.17465 0.49822 0.94172 0.0
H793 H 0.08933 0.5281 0.62537 0.0
H794 H 0.10936 0.48803 0.85446 0.0
H795 H 0.15738 0.52971 0.69666 0.0
C796 C 0.18255 0.52605 0.78011 0.0
C797 C 0.18787 0.51766 0.85032 0.0
C798 C 0.10504 0.49673 0.80401 0.0
C799 C 0.1449 0.51069 0.79046 0.0
C800 C 0.08274 0.49633 0.77981 0.0
C801 C 0.07646 0.50774 0.71523 0.0
C802 C 0.12132 0.50864 0.76353 0.0
C803 C 0.09332 0.5191 0.67553 0.0
C804 C 0.1612 0.5226 0.75008 0.0
C805 C 0.17144 0.5049 0.8873 0.0
N806 N 0.11491 0.51934 0.70048 0.0
N807 N 0.15068 0.502 0.85728 0.0
H808 H 0.98606 0.8268 0.41055 0.0
H809 H 1.00217 0.90858 0.75535 0.0
H810 H 1.0081 0.80406 0.62417 0.0
H811 H 0.97644 0.93084 0.54551 0.0
H812 H 1.00245 0.86991 0.71015 0.0
H813 H 0.97971 0.86433 0.46124 0.0
C814 C 0.98916 0.82953 0.46845 0.0
C815 C 0.99778 0.81215 0.51291 0.0
C816 C 0.99662 0.88322 0.67408 0.0
C817 C 0.99101 0.85543 0.57111 0.0
C818 C 0.99647 0.90538 0.69986 0.0
C819 C 0.98935 0.92314 0.65419 0.0
C820 C 0.98968 0.87865 0.60185 0.0
C821 C 0.98213 0.91779 0.5828 0.0
C822 C 0.98573 0.85108 0.49724 0.0
C823 C 1.0018 0.81696 0.58738 0.0
N824 N 0.98259 0.8961 0.55879 0.0
N825 N 0.99857 0.83812 0.61386 0.0
H826 H 0.66441 0.96745 0.47632 0.0
H827 H 0.57789 0.02633 0.75448 0.0
H828 H 0.68098 0.02565 0.607 0.0
H829 H 0.55893 0.97516 0.59845 0.0
H830 H 0.61687 0.02328 0.71224 0.0
H831 H 0.62697 0.96697 0.53193 0.0
C832 C 0.66027 0.98006 0.51699 0.0
C833 C 0.67596 0.99673 0.53637 0.0
C834 C 0.60419 0.01265 0.68751 0.0
C835 C 0.63296 0.99617 0.60079 0.0
C836 C 0.5819 0.01434 0.71173 0.0
C837 C 0.56498 1.00107 0.67982 0.0
C838 C 0.60971 0.99749 0.63114 0.0
C839 C 0.5713 0.98586 0.62446 0.0
C840 C 0.63886 0.97974 0.54886 0.0
C841 C 0.66965 0.01233 0.59062 0.0
N842 N 0.59308 0.98454 0.60185 0.0
N843 N 0.64864 0.01176 0.62045 0.0
H844 H 0.49049 0.69649 0.62689 0.0
H845 H 0.51922 0.56796 0.53975 0.0
H846 H 0.54508 0.67584 0.4862 0.0
H847 H 0.48735 0.58687 0.74361 0.0
H848 H 0.52424 0.60778 0.5099 0.0
H849 H 0.4846 0.65669 0.66187 0.0
C850 C 0.50121 0.68362 0.60353 0.0
C851 C 0.51844 0.6895 0.55417 0.0
C852 C 0.51616 0.60324 0.56122 0.0
C853 C 0.51158 0.64414 0.5926 0.0
C854 C 0.51321 0.58047 0.57822 0.0
C855 C 0.50286 0.574 0.64433 0.0
C856 C 0.5084 0.61981 0.60998 0.0
C857 C 0.49548 0.59108 0.69208 0.0
C858 C 0.49791 0.66098 0.62363 0.0
C859 C 0.53182 0.67214 0.52528 0.0
N860 N 0.49826 0.61322 0.67379 0.0
N861 N 0.52802 0.65034 0.54447 0.0
H862 H 0.81319 0.51734 0.57852 0.0
H863 H 0.94287 0.51817 0.45481 0.0
H864 H 0.83635 0.50274 0.35936 0.0
H865 H 0.92292 0.51325 0.68227 0.0
H866 H 0.90328 0.51779 0.41926 0.0
H867 H 0.85275 0.52078 0.61845 0.0
C868 C 0.8266 0.51507 0.53889 0.0
C869 C 0.82161 0.50965 0.46573 0.0
C870 C 0.90752 0.5168 0.47703 0.0
C871 C 0.86656 0.51378 0.51026 0.0
C872 C 0.93016 0.51711 0.49739 0.0
C873 C 0.93626 0.51555 0.57163 0.0
C874 C 0.89072 0.51514 0.53124 0.0
C875 C 0.91898 0.51419 0.62434 0.0
C876 C 0.8491 0.51693 0.5616 0.0
C877 C 0.83953 0.50676 0.4164 0.0
N878 N 0.89699 0.51404 0.60319 0.0
N879 N 0.86112 0.50891 0.43945 0.0
loop_
_geom_bond_atom_site_label_1
_geom_bond_atom_site_label_2
_geom_bond_distance
_geom_bond_site_symmetry_2
_ccdc_geom_bond_type
C0 C1 1.384 . S
C0 H13 0.947 . S
C0 C35 1.382 . S
C1 C0 1.384 . S
C1 C2 1.378 . S
C2 C1 1.378 . S
C2 C3 1.378 . S
C2 H14 0.952 . S
C3 C2 1.378 . S
C3 H15 0.950 . S
C3 C34 1.383 . S
H4 C23 0.947 . S
H5 C24 0.946 . S
H6 C26 0.953 . S
H7 C27 0.945 . S
H8 C29 0.952 . S
H9 C30 0.949 . S
H10 C32 0.950 . S
H11 C33 0.948 . S
H12 C35 0.951 . S
H13 C0 0.947 . S
H14 C2 0.952 . S
H15 C3 0.950 . S
N16 C19 1.382 . S
N16 C21 1.363 . S
N17 C19 1.371 . S
N17 C20 1.372 . S
N18 C20 1.361 . S
N18 C21 1.377 . S
C19 N16 1.382 . S
C19 N17 1.371 . S
C19 C22 1.480 . S
C20 N17 1.372 . S
C20 N18 1.361 . S
C20 C28 1.457 . S
C21 N16 1.363 . S
C21 N18 1.377 . S
C21 C34 1.479 . S
C22 C19 1.480 . S
C22 C23 1.383 . S
C22 C27 1.385 . S
C23 H4 0.947 . S
C23 C22 1.383 . S
C23 C24 1.388 . S
C24 H5 0.946 . S
C24 C23 1.388 . S
C24 C25 1.384 . S
C25 C24 1.384 . S
C25 C26 1.377 . S
C26 H6 0.953 . S
C26 C25 1.377 . S
C26 C27 1.369 . S
C27 H7 0.945 . S
C27 C22 1.385 . S
C27 C26 1.369 . S
C28 C20 1.457 . S
C28 C29 1.372 . S
C28 C33 1.364 . S
C29 H8 0.952 . S
C29 C28 1.372 . S
C29 C30 1.389 . S
C30 H9 0.949 . S
C30 C29 1.389 . S
C30 C31 1.387 . S
C31 C30 1.387 . S
C31 C32 1.372 . S
C32 H10 0.950 . S
C32 C31 1.372 . S
C32 C33 1.379 . S
C33 H11 0.948 . S
C33 C28 1.364 . S
C33 C32 1.379 . S
C34 C3 1.383 . S
C34 C21 1.479 . S
C34 C35 1.398 . S
C35 C0 1.382 . S
C35 H12 0.951 . S
C35 C34 1.398 . S
C36 C37 1.384 1_655 S
C36 H49 0.948 . S
C36 C71 1.382 1_655 S
C37 C36 1.384 1_455 S
C37 C38 1.378 . S
C38 C37 1.378 . S
C38 C39 1.378 . S
C38 H50 0.952 . S
C39 C38 1.378 . S
C39 H51 0.950 . S
C39 C70 1.383 . S
H40 C59 0.947 . S
H41 C60 0.952 . S
H42 C62 0.953 . S
H43 C63 0.945 . S
H44 C65 0.949 1_655 S
H45 C66 0.956 . S
H46 C68 0.950 . S
H47 C69 0.948 . S
H48 C71 0.951 1_655 S
H49 C36 0.948 . S
H50 C38 0.952 . S
H51 C39 0.950 . S
N52 C55 1.382 . S
N52 C57 1.363 . S
N53 C55 1.371 . S
N53 C56 1.372 . S
N54 C56 1.361 . S
N54 C57 1.377 . S
C55 N52 1.382 . S
C55 N53 1.371 . S
C55 C58 1.480 . S
C56 N53 1.372 . S
C56 N54 1.361 . S
C56 C64 1.457 . S
C57 N52 1.363 . S
C57 N54 1.377 . S
C57 C70 1.479 . S
C58 C55 1.480 . S
C58 C59 1.383 . S
C58 C63 1.385 . S
C59 H40 0.947 . S
C59 C58 1.383 . S
C59 C60 1.386 1_455 S
C60 H41 0.952 . S
C60 C59 1.386 1_655 S
C60 C61 1.381 1_655 S
C61 C60 1.381 1_455 S
C61 C62 1.377 . S
C62 H42 0.953 . S
C62 C61 1.377 . S
C62 C63 1.369 . S
C63 H43 0.945 . S
C63 C58 1.385 . S
C63 C62 1.369 . S
C64 C56 1.457 . S
C64 C65 1.376 . S
C64 C69 1.364 . S
C65 H44 0.949 1_455 S
C65 C64 1.376 . S
C65 C66 1.387 1_455 S
C66 H45 0.956 . S
C66 C65 1.387 1_655 S
C66 C67 1.383 1_655 S
C67 C66 1.383 1_455 S
C67 C68 1.372 . S
C68 H46 0.950 . S
C68 C67 1.372 . S
C68 C69 1.379 . S
C69 H47 0.948 . S
C69 C64 1.364 . S
C69 C68 1.379 . S
C70 C39 1.383 . S
C70 C57 1.479 . S
C70 C71 1.398 . S
C71 C36 1.382 1_455 S
C71 H48 0.951 1_455 S
C71 C70 1.398 . S
C72 C73 1.384 1_565 S
C72 H85 0.948 . S
C72 C107 1.382 1_565 S
C73 C72 1.384 1_545 S
C73 C74 1.378 . S
C74 C73 1.378 . S
C74 C75 1.378 . S
C74 H86 0.952 . S
C75 C74 1.378 . S
C75 H87 0.950 . S
C75 C106 1.383 . S
H76 C95 0.947 . S
H77 C96 0.952 . S
H78 C98 0.953 . S
H79 C99 0.945 . S
H80 C101 0.949 1_565 S
H81 C102 0.957 . S
H82 C104 0.950 . S
H83 C105 0.948 . S
H84 C107 0.951 1_565 S
H85 C72 0.948 . S
H86 C74 0.952 . S
H87 C75 0.950 . S
N88 C91 1.382 . S
N88 C93 1.363 . S
N89 C91 1.371 . S
N89 C92 1.372 . S
N90 C92 1.361 . S
N90 C93 1.377 . S
C91 N88 1.382 . S
C91 N89 1.371 . S
C91 C94 1.480 . S
C92 N89 1.372 . S
C92 N90 1.361 . S
C92 C100 1.457 . S
C93 N88 1.363 . S
C93 N90 1.377 . S
C93 C106 1.479 . S
C94 C91 1.480 . S
C94 C95 1.383 . S
C94 C99 1.385 . S
C95 H76 0.947 . S
C95 C94 1.383 . S
C95 C96 1.386 1_545 S
C96 H77 0.952 . S
C96 C95 1.386 1_565 S
C96 C97 1.382 1_565 S
C97 C96 1.382 1_545 S
C97 C98 1.377 . S
C98 H78 0.953 . S
C98 C97 1.377 . S
C98 C99 1.369 . S
C99 H79 0.945 . S
C99 C94 1.385 . S
C99 C98 1.369 . S
C100 C92 1.457 . S
C100 C101 1.376 . S
C100 C105 1.364 . S
C101 H80 0.949 1_545 S
C101 C100 1.376 . S
C101 C102 1.386 1_545 S
C102 H81 0.957 . S
C102 C101 1.386 1_565 S
C102 C103 1.383 1_565 S
C103 C102 1.383 1_545 S
C103 C104 1.372 . S
C104 H82 0.950 . S
C104 C103 1.372 . S
C104 C105 1.379 . S
C105 H83 0.948 . S
C105 C100 1.364 . S
C105 C104 1.379 . S
C106 C75 1.383 . S
C106 C93 1.479 . S
C106 C107 1.398 . S
C107 C72 1.382 1_545 S
C107 H84 0.951 1_545 S
C107 C106 1.398 . S
C108 C109 1.384 . S
C108 H121 0.947 . S
C108 C143 1.382 . S
C109 C108 1.384 . S
C109 C110 1.378 . S
C110 C109 1.378 . S
C110 C111 1.378 . S
C110 H122 0.952 . S
C111 C110 1.378 . S
C111 H123 0.950 . S
C111 C142 1.383 . S
H112 C131 0.947 . S
H113 C132 0.946 . S
H114 C134 0.953 . S
H115 C135 0.945 . S
H116 C137 0.952 . S
H117 C138 0.949 . S
H118 C140 0.950 . S
H119 C141 0.948 . S
H120 C143 0.951 . S
H121 C108 0.947 . S
H122 C110 0.952 . S
H123 C111 0.950 . S
N124 C127 1.382 . S
N124 C129 1.363 . S
N125 C127 1.371 . S
N125 C128 1.372 . S
N126 C128 1.361 . S
N126 C129 1.377 . S
C127 N124 1.382 . S
C127 N125 1.371 . S
C127 C130 1.480 . S
C128 N125 1.372 . S
C128 N126 1.361 . S
C128 C136 1.457 . S
C129 N124 1.363 . S
C129 N126 1.377 . S
C129 C142 1.479 . S
C130 C127 1.480 . S
C130 C131 1.383 . S
C130 C135 1.385 . S
C131 H112 0.947 . S
C131 C130 1.383 . S
C131 C132 1.388 . S
C132 H113 0.946 . S
C132 C131 1.388 . S
C132 C133 1.384 . S
C133 C132 1.384 . S
C133 C134 1.377 . S
C134 H114 0.953 . S
C134 C133 1.377 . S
C134 C135 1.369 . S
C135 H115 0.945 . S
C135 C130 1.385 . S
C135 C134 1.369 . S
C136 C128 1.457 . S
C136 C137 1.372 . S
C136 C141 1.364 . S
C137 H116 0.952 . S
C137 C136 1.372 . S
C137 C138 1.389 . S
C138 H117 0.949 . S
C138 C137 1.389 . S
C138 C139 1.387 . S
C139 C138 1.387 . S
C139 C140 1.372 . S
C140 H118 0.950 . S
C140 C139 1.372 . S
C140 C141 1.379 . S
C141 H119 0.948 . S
C141 C136 1.364 . S
C141 C140 1.379 . S
C142 C111 1.383 . S
C142 C129 1.479 . S
C142 C143 1.398 . S
C143 C108 1.382 . S
C143 H120 0.951 . S
C143 C142 1.398 . S
C144 C145 1.384 . S
C144 H157 0.947 . S
C144 C179 1.382 . S
C145 C144 1.384 . S
C145 C146 1.378 . S
C146 C145 1.378 . S
C146 C147 1.378 . S
C146 H158 0.952 . S
C147 C146 1.378 . S
C147 H159 0.950 . S
C147 C178 1.383 . S
H148 C167 0.947 1_556 S
H149 C168 0.946 . S
H150 C170 0.953 . S
H151 C171 0.945 . S
H152 C173 0.952 . S
H153 C174 0.949 . S
H154 C176 0.950 . S
H155 C177 0.948 . S
H156 C179 0.951 . S
H157 C144 0.947 . S
H158 C146 0.952 . S
H159 C147 0.950 . S
N160 C163 1.382 1_556 S
N160 C165 1.363 . S
N161 C163 1.371 . S
N161 C164 1.372 . S
N162 C164 1.361 . S
N162 C165 1.377 1_554 S
C163 N160 1.382 1_554 S
C163 N161 1.371 . S
C163 C166 1.480 . S
C164 N161 1.372 . S
C164 N162 1.361 . S
C164 C172 1.457 . S
C165 N160 1.363 . S
C165 N162 1.377 1_556 S
C165 C178 1.479 . S
C166 C163 1.480 . S
C166 C167 1.383 . S
C166 C171 1.385 . S
C167 H148 0.947 1_554 S
C167 C166 1.383 . S
C167 C168 1.388 . S
C168 H149 0.946 . S
C168 C167 1.388 . S
C168 C169 1.384 . S
C169 C168 1.384 . S
C169 C170 1.377 . S
C170 H150 0.953 . S
C170 C169 1.377 . S
C170 C171 1.369 . S
C171 H151 0.945 . S
C171 C166 1.385 . S
C171 C170 1.369 . S
C172 C164 1.457 . S
C172 C173 1.372 . S
C172 C177 1.364 . S
C173 H152 0.952 . S
C173 C172 1.372 . S
C173 C174 1.389 . S
C174 H153 0.949 . S
C174 C173 1.389 . S
C174 C175 1.387 . S
C175 C174 1.387 . S
C175 C176 1.372 . S
C176 H154 0.950 . S
C176 C175 1.372 . S
C176 C177 1.379 . S
C177 H155 0.948 . S
C177 C172 1.364 . S
C177 C176 1.379 . S
C178 C147 1.383 . S
C178 C165 1.479 . S
C178 C179 1.398 . S
C179 C144 1.382 . S
C179 H156 0.951 . S
C179 C178 1.398 . S
C180 C181 1.384 . S
C180 H193 0.948 1_455 S
C180 C215 1.382 . S
C181 C180 1.384 . S
C181 C182 1.378 . S
C182 C181 1.378 . S
C182 C183 1.378 . S
C182 H194 0.952 . S
C183 C182 1.378 . S
C183 H195 0.950 . S
C183 C214 1.383 . S
H184 C203 0.947 1_556 S
H185 C204 0.949 . S
H186 C206 0.953 . S
H187 C207 0.945 . S
H188 C209 0.947 1_655 S
H189 C210 0.954 . S
H190 C212 0.950 . S
H191 C213 0.948 . S
H192 C215 0.950 1_655 S
H193 C180 0.948 1_655 S
H194 C182 0.952 . S
H195 C183 0.950 . S
N196 C199 1.382 1_556 S
N196 C201 1.363 . S
N197 C199 1.371 . S
N197 C200 1.372 . S
N198 C200 1.361 . S
N198 C201 1.377 1_554 S
C199 N196 1.382 1_554 S
C199 N197 1.371 . S
C199 C202 1.480 . S
C200 N197 1.372 . S
C200 N198 1.361 . S
C200 C208 1.457 . S
C201 N196 1.363 . S
C201 N198 1.377 1_556 S
C201 C214 1.479 . S
C202 C199 1.480 . S
C202 C203 1.383 . S
C202 C207 1.385 . S
C203 H184 0.947 1_554 S
C203 C202 1.383 . S
C203 C204 1.387 1_455 S
C204 H185 0.949 . S
C204 C203 1.387 1_655 S
C204 C205 1.382 1_655 S
C205 C204 1.382 1_455 S
C205 C206 1.377 . S
C206 H186 0.953 . S
C206 C205 1.377 . S
C206 C207 1.369 . S
C207 H187 0.945 . S
C207 C202 1.385 . S
C207 C206 1.369 . S
C208 C200 1.457 . S
C208 C209 1.379 . S
C208 C213 1.364 . S
C209 H188 0.947 1_455 S
C209 C208 1.379 . S
C209 C210 1.387 1_455 S
C210 H189 0.954 . S
C210 C209 1.387 1_655 S
C210 C211 1.384 1_655 S
C211 C210 1.384 1_455 S
C211 C212 1.372 . S
C212 H190 0.950 . S
C212 C211 1.372 . S
C212 C213 1.379 . S
C213 H191 0.948 . S
C213 C208 1.364 . S
C213 C212 1.379 . S
C214 C183 1.383 . S
C214 C201 1.479 . S
C214 C215 1.399 . S
C215 C180 1.382 . S
C215 H192 0.950 1_455 S
C215 C214 1.399 . S
C216 C217 1.384 . S
C216 H229 0.948 1_545 S
C216 C251 1.382 . S
C217 C216 1.384 . S
C217 C218 1.378 . S
C218 C217 1.378 . S
C218 C219 1.378 . S
C218 H230 0.952 . S
C219 C218 1.378 . S
C219 H231 0.950 . S
C219 C250 1.383 . S
H220 C239 0.947 1_556 S
H221 C240 0.949 . S
H222 C242 0.953 . S
H223 C243 0.945 . S
H224 C245 0.947 1_565 S
H225 C246 0.954 . S
H226 C248 0.950 . S
H227 C249 0.948 . S
H228 C251 0.950 1_565 S
H229 C216 0.948 1_565 S
H230 C218 0.952 . S
H231 C219 0.950 . S
N232 C235 1.382 1_556 S
N232 C237 1.363 . S
N233 C235 1.371 . S
N233 C236 1.372 . S
N234 C236 1.361 . S
N234 C237 1.377 1_554 S
C235 N232 1.382 1_554 S
C235 N233 1.371 . S
C235 C238 1.480 . S
C236 N233 1.372 . S
C236 N234 1.361 . S
C236 C244 1.457 . S
C237 N232 1.363 . S
C237 N234 1.377 1_556 S
C237 C250 1.479 . S
C238 C235 1.480 . S
C238 C239 1.383 . S
C238 C243 1.385 . S
C239 H220 0.947 1_554 S
C239 C238 1.383 . S
C239 C240 1.387 1_545 S
C240 H221 0.949 . S
C240 C239 1.387 1_565 S
C240 C241 1.382 1_565 S
C241 C240 1.382 1_545 S
C241 C242 1.377 . S
C242 H222 0.953 . S
C242 C241 1.377 . S
C242 C243 1.369 . S
C243 H223 0.945 . S
C243 C238 1.385 . S
C243 C242 1.369 . S
C244 C236 1.457 . S
C244 C245 1.379 . S
C244 C249 1.364 . S
C245 H224 0.947 1_545 S
C245 C244 1.379 . S
C245 C246 1.387 1_545 S
C246 H225 0.954 . S
C246 C245 1.387 1_565 S
C246 C247 1.384 1_565 S
C247 C246 1.384 1_545 S
C247 C248 1.372 . S
C248 H226 0.950 . S
C248 C247 1.372 . S
C248 C249 1.379 . S
C249 H227 0.948 . S
C249 C244 1.364 . S
C249 C248 1.379 . S
C250 C219 1.383 . S
C250 C237 1.479 . S
C250 C251 1.399 . S
C251 C216 1.382 . S
C251 H228 0.950 1_545 S
C251 C250 1.399 . S
C252 C253 1.384 . S
C252 H265 0.947 . S
C252 C287 1.382 . S
C253 C252 1.384 . S
C253 C254 1.378 . S
C254 C253 1.378 . S
C254 C255 1.378 . S
C254 H266 0.952 . S
C255 C254 1.378 . S
C255 H267 0.950 . S
C255 C286 1.383 . S
H256 C275 0.947 . S
H257 C276 0.946 . S
H258 C278 0.953 1_556 S
H259 C279 0.945 1_556 S
H260 C281 0.952 . S
H261 C282 0.949 . S
H262 C284 0.950 . S
H263 C285 0.948 . S
H264 C287 0.951 . S
H265 C252 0.947 . S
H266 C254 0.952 . S
H267 C255 0.950 . S
N268 C271 1.382 . S
N268 C273 1.363 . S
N269 C271 1.371 1_556 S
N269 C272 1.372 . S
N270 C272 1.361 1_554 S
N270 C273 1.377 . S
C271 N268 1.382 . S
C271 N269 1.371 1_554 S
C271 C274 1.480 . S
C272 N269 1.372 . S
C272 N270 1.361 1_556 S
C272 C280 1.457 . S
C273 N268 1.363 . S
C273 N270 1.377 . S
C273 C286 1.479 . S
C274 C271 1.480 . S
C274 C275 1.383 . S
C274 C279 1.385 . S
C275 H256 0.947 . S
C275 C274 1.383 . S
C275 C276 1.388 . S
C276 H257 0.946 . S
C276 C275 1.388 . S
C276 C277 1.384 . S
C277 C276 1.384 . S
C277 C278 1.377 . S
C278 H258 0.953 1_554 S
C278 C277 1.377 . S
C278 C279 1.369 . S
C279 H259 0.945 1_554 S
C279 C274 1.385 . S
C279 C278 1.369 . S
C280 C272 1.457 . S
C280 C281 1.372 . S
C280 C285 1.364 . S
C281 H260 0.952 . S
C281 C280 1.372 . S
C281 C282 1.389 . S
C282 H261 0.949 . S
C282 C281 1.389 . S
C282 C283 1.387 . S
C283 C282 1.387 . S
C283 C284 1.372 . S
C284 H262 0.950 . S
C284 C283 1.372 . S
C284 C285 1.379 . S
C285 H263 0.948 . S
C285 C280 1.364 . S
C285 C284 1.379 . S
C286 C255 1.383 . S
C286 C273 1.479 . S
C286 C287 1.398 . S
C287 C252 1.382 . S
C287 H264 0.951 . S
C287 C286 1.398 . S
Sm288 C290 2.846 . S
Sm288 O308 2.543 . S
Sm288 O309 2.450 . S
Sm288 O310 2.681 1_565 S
Sm288 O311 2.464 . S
Sm288 O312 2.396 . S
Sm288 O316 2.386 1_455 S
Sm288 O319 2.408 1_565 S
Sm289 C299 2.846 . S
Sm289 O310 2.386 1_655 S
Sm289 O313 2.408 1_545 S
Sm289 O314 2.543 . S
Sm289 O315 2.450 . S
Sm289 O316 2.681 1_545 S
Sm289 O317 2.464 . S
Sm289 O318 2.396 . S
C290 Sm288 2.846 . S
C290 C291 1.506 . S
C290 O308 1.261 . S
C290 O309 1.242 . S
C291 C290 1.506 . S
C291 C292 1.358 . S
C291 C296 1.382 . S
C292 C291 1.358 . S
C292 C293 1.385 . S
C292 H320 0.930 1_455 S
C293 C292 1.385 . S
C293 C294 1.395 . S
C293 H321 0.895 1_455 S
C294 C293 1.395 . S
C294 C295 1.335 . S
C295 C294 1.335 . S
C295 C296 1.398 . S
C295 H322 0.930 . S
C296 C291 1.382 . S
C296 C295 1.398 . S
C296 H323 0.929 . S
C297 O310 1.271 1_565 S
C297 O311 1.251 . S
C298 O312 1.252 1_655 S
C298 O313 1.272 . S
C299 Sm289 2.846 . S
C299 C300 1.506 . S
C299 O314 1.261 . S
C299 O315 1.242 . S
C300 C299 1.506 . S
C300 C301 1.358 . S
C300 C305 1.382 . S
C301 C300 1.358 . S
C301 C302 1.385 . S
C301 H324 0.930 1_655 S
C302 C301 1.385 . S
C302 C303 1.395 . S
C302 H325 0.929 1_655 S
C303 C302 1.395 . S
C303 C304 1.335 . S
C304 C303 1.335 . S
C304 C305 1.398 . S
C304 H326 0.930 . S
C305 C300 1.382 . S
C305 C304 1.398 . S
C305 H327 0.929 . S
C306 O316 1.271 1_545 S
C306 O317 1.251 . S
C307 O318 1.252 1_455 S
C307 O319 1.272 . S
O308 Sm288 2.543 . S
O308 C290 1.261 . S
O309 Sm288 2.450 . S
O309 C290 1.242 . S
O310 Sm288 2.681 1_545 S
O310 Sm289 2.386 1_455 S
O310 C297 1.271 1_545 S
O311 Sm288 2.464 . S
O311 C297 1.251 . S
O312 Sm288 2.396 . S
O312 C298 1.252 1_455 S
O313 Sm289 2.408 1_565 S
O313 C298 1.272 . S
O314 Sm289 2.543 . S
O314 C299 1.261 . S
O315 Sm289 2.450 . S
O315 C299 1.242 . S
O316 Sm288 2.386 1_655 S
O316 Sm289 2.681 1_565 S
O316 C306 1.271 1_565 S
O317 Sm289 2.464 . S
O317 C306 1.251 . S
O318 Sm289 2.396 . S
O318 C307 1.252 1_655 S
O319 Sm288 2.408 1_545 S
O319 C307 1.272 . S
H320 C292 0.930 1_655 S
H321 C293 0.895 1_655 S
H322 C295 0.930 . S
H323 C296 0.929 . S
H324 C301 0.930 1_455 S
H325 C302 0.929 1_455 S
H326 C304 0.930 . S
H327 C305 0.929 . S
Sm328 C330 2.846 . S
Sm328 O348 2.543 . S
Sm328 O349 2.450 . S
Sm328 O350 2.681 . S
Sm328 O351 2.464 . S
Sm328 O352 2.396 . S
Sm328 O356 2.386 1_545 S
Sm328 O359 2.408 . S
Sm329 C339 2.846 . S
Sm329 O350 2.386 1_565 S
Sm329 O353 2.408 . S
Sm329 O354 2.543 . S
Sm329 O355 2.450 . S
Sm329 O356 2.681 . S
Sm329 O357 2.464 . S
Sm329 O358 2.396 . S
C330 Sm328 2.846 . S
C330 C331 1.506 . S
C330 O348 1.261 . S
C330 O349 1.242 . S
C331 C330 1.506 . S
C331 C332 1.358 . S
C331 C336 1.382 . S
C332 C331 1.358 . S
C332 C333 1.385 . S
C332 H360 0.930 1_545 S
C333 C332 1.385 . S
C333 C334 1.395 . S
C333 H361 0.929 1_545 S
C334 C333 1.395 . S
C334 C335 1.335 . S
C335 C334 1.335 . S
C335 C336 1.398 . S
C335 H362 0.930 . S
C336 C331 1.382 . S
C336 C335 1.398 . S
C336 H363 0.929 . S
C337 O350 1.271 . S
C337 O351 1.251 . S
C338 O352 1.252 1_565 S
C338 O353 1.272 . S
C339 Sm329 2.846 . S
C339 C340 1.506 . S
C339 O354 1.261 . S
C339 O355 1.242 . S
C340 C339 1.506 . S
C340 C341 1.358 . S
C340 C345 1.382 . S
C341 C340 1.358 . S
C341 C342 1.385 . S
C341 H364 0.930 1_565 S
C342 C341 1.385 . S
C342 C343 1.395 . S
C342 H365 0.929 1_565 S
C343 C342 1.395 . S
C343 C344 1.335 . S
C344 C343 1.335 . S
C344 C345 1.398 . S
C344 H366 0.930 . S
C345 C340 1.382 . S
C345 C344 1.398 . S
C345 H367 0.929 . S
C346 O356 1.271 . S
C346 O357 1.251 . S
C347 O358 1.252 1_545 S
C347 O359 1.272 . S
O348 Sm328 2.543 . S
O348 C330 1.261 . S
O349 Sm328 2.450 . S
O349 C330 1.242 . S
O350 Sm328 2.681 . S
O350 Sm329 2.386 1_545 S
O350 C337 1.271 . S
O351 Sm328 2.464 . S
O351 C337 1.251 . S
O352 Sm328 2.396 . S
O352 C338 1.252 1_545 S
O353 Sm329 2.408 . S
O353 C338 1.272 . S
O354 Sm329 2.543 . S
O354 C339 1.261 . S
O355 Sm329 2.450 . S
O355 C339 1.242 . S
O356 Sm328 2.386 1_565 S
O356 Sm329 2.681 . S
O356 C346 1.271 . S
O357 Sm329 2.464 . S
O357 C346 1.251 . S
O358 Sm329 2.396 . S
O358 C347 1.252 1_565 S
O359 Sm328 2.408 . S
O359 C347 1.272 . S
H360 C332 0.930 1_565 S
H361 C333 0.929 1_565 S
H362 C335 0.930 . S
H363 C336 0.929 . S
H364 C341 0.930 1_545 S
H365 C342 0.929 1_545 S
H366 C344 0.930 . S
H367 C345 0.929 . S
Sm368 C370 2.846 . S
Sm368 O388 2.543 . S
Sm368 O389 2.450 . S
Sm368 O390 2.681 . S
Sm368 O391 2.464 . S
Sm368 O392 2.396 . S
Sm368 O396 2.386 . S
Sm368 O399 2.408 . S
Sm369 C379 2.846 . S
Sm369 O390 2.386 . S
Sm369 O393 2.408 . S
Sm369 O394 2.543 . S
Sm369 O395 2.450 . S
Sm369 O396 2.681 . S
Sm369 O397 2.464 . S
Sm369 O398 2.396 . S
C370 Sm368 2.846 . S
C370 C371 1.506 . S
C370 O388 1.261 . S
C370 O389 1.242 . S
C371 C370 1.506 . S
C371 C372 1.358 . S
C371 C376 1.382 . S
C372 C371 1.358 . S
C372 C373 1.385 . S
C372 H400 0.930 . S
C373 C372 1.385 . S
C373 C374 1.395 . S
C373 H401 0.929 . S
C374 C373 1.395 . S
C374 C375 1.335 . S
C375 C374 1.335 . S
C375 C376 1.398 . S
C375 H402 0.930 . S
C376 C371 1.382 . S
C376 C375 1.398 . S
C376 H403 0.929 . S
C377 O390 1.271 . S
C377 O391 1.251 . S
C378 O392 1.252 . S
C378 O393 1.272 . S
C379 Sm369 2.846 . S
C379 C380 1.506 . S
C379 O394 1.261 . S
C379 O395 1.242 . S
C380 C379 1.506 . S
C380 C381 1.358 . S
C380 C385 1.382 . S
C381 C380 1.358 . S
C381 C382 1.385 . S
C381 H404 0.930 . S
C382 C381 1.385 . S
C382 C383 1.395 . S
C382 H405 0.929 . S
C383 C382 1.395 . S
C383 C384 1.335 . S
C384 C383 1.335 . S
C384 C385 1.398 . S
C384 H406 0.930 . S
C385 C380 1.382 . S
C385 C384 1.398 . S
C385 H407 0.929 . S
C386 O396 1.271 . S
C386 O397 1.251 . S
C387 O398 1.252 . S
C387 O399 1.272 . S
O388 Sm368 2.543 . S
O388 C370 1.261 . S
O389 Sm368 2.450 . S
O389 C370 1.242 . S
O390 Sm368 2.681 . S
O390 Sm369 2.386 . S
O390 C377 1.271 . S
O391 Sm368 2.464 . S
O391 C377 1.251 . S
O392 Sm368 2.396 . S
O392 C378 1.252 . S
O393 Sm369 2.408 . S
O393 C378 1.272 . S
O394 Sm369 2.543 . S
O394 C379 1.261 . S
O395 Sm369 2.450 . S
O395 C379 1.242 . S
O396 Sm368 2.386 . S
O396 Sm369 2.681 . S
O396 C386 1.271 . S
O397 Sm369 2.464 . S
O397 C386 1.251 . S
O398 Sm369 2.396 . S
O398 C387 1.252 . S
O399 Sm368 2.408 . S
O399 C387 1.272 . S
H400 C372 0.930 . S
H401 C373 0.929 . S
H402 C375 0.930 . S
H403 C376 0.929 . S
H404 C381 0.930 . S
H405 C382 0.929 . S
H406 C384 0.930 . S
H407 C385 0.929 . S
Sm408 C410 2.846 . S
Sm408 O428 2.543 . S
Sm408 O429 2.450 . S
Sm408 O430 2.681 1_655 S
Sm408 O431 2.464 . S
Sm408 O432 2.396 . S
Sm408 O436 2.386 . S
Sm408 O439 2.408 1_655 S
Sm409 C419 2.846 . S
Sm409 O430 2.386 . S
Sm409 O433 2.408 1_455 S
Sm409 O434 2.543 . S
Sm409 O435 2.450 . S
Sm409 O436 2.681 1_455 S
Sm409 O437 2.464 . S
Sm409 O438 2.396 . S
C410 Sm408 2.846 . S
C410 C411 1.506 . S
C410 O428 1.261 . S
C410 O429 1.242 . S
C411 C410 1.506 . S
C411 C412 1.358 . S
C411 C416 1.382 . S
C412 C411 1.358 . S
C412 C413 1.385 . S
C412 H440 0.930 . S
C413 C412 1.385 . S
C413 C414 1.395 . S
C413 H441 0.929 . S
C414 C413 1.395 . S
C414 C415 1.335 . S
C415 C414 1.335 . S
C415 C416 1.398 . S
C415 H442 0.930 . S
C416 C411 1.382 . S
C416 C415 1.398 . S
C416 H443 0.929 . S
C417 O430 1.261 1_655 S
C417 O431 1.269 . S
C418 O432 1.252 . S
C418 O433 1.272 . S
C419 Sm409 2.846 . S
C419 C420 1.506 . S
C419 O434 1.261 . S
C419 O435 1.242 . S
C420 C419 1.506 . S
C420 C421 1.358 . S
C420 C425 1.382 . S
C421 C420 1.358 . S
C421 C422 1.385 . S
C421 H444 0.930 . S
C422 C421 1.385 . S
C422 C423 1.395 . S
C422 H445 0.929 . S
C423 C422 1.395 . S
C423 C424 1.335 . S
C424 C423 1.335 . S
C424 C425 1.398 . S
C424 H446 0.930 . S
C425 C420 1.382 . S
C425 C424 1.398 . S
C425 H447 0.929 . S
C426 O436 1.258 1_455 S
C426 O437 1.275 . S
C427 O438 1.252 . S
C427 O439 1.272 . S
O428 Sm408 2.543 . S
O428 C410 1.261 . S
O429 Sm408 2.450 . S
O429 C410 1.242 . S
O430 Sm408 2.681 1_455 S
O430 Sm409 2.386 . S
O430 C417 1.261 1_455 S
O431 Sm408 2.464 . S
O431 C417 1.269 . S
O432 Sm408 2.396 . S
O432 C418 1.252 . S
O433 Sm409 2.408 1_655 S
O433 C418 1.272 . S
O434 Sm409 2.543 . S
O434 C419 1.261 . S
O435 Sm409 2.450 . S
O435 C419 1.242 . S
O436 Sm408 2.386 . S
O436 Sm409 2.681 1_655 S
O436 C426 1.258 1_655 S
O437 Sm409 2.464 . S
O437 C426 1.275 . S
O438 Sm409 2.396 . S
O438 C427 1.252 . S
O439 Sm408 2.408 1_455 S
O439 C427 1.272 . S
H440 C412 0.930 . S
H441 C413 0.929 . S
H442 C415 0.930 . S
H443 C416 0.929 . S
H444 C421 0.930 . S
H445 C422 0.929 . S
H446 C424 0.930 . S
H447 C425 0.929 . S
H448 C454 0.930 . S
H449 C458 0.930 . S
H450 C463 0.929 . S
H451 C461 0.929 . S
H452 C456 0.929 . S
H453 C462 0.929 . S
C454 H448 0.930 . S
C454 C455 1.370 . S
C454 C462 1.378 . S
C455 C454 1.370 . S
C455 C463 1.430 1_565 S
C456 H452 0.929 . S
C456 C458 1.378 . S
C456 C460 1.350 . S
C457 C460 1.463 1_565 S
C457 C462 1.346 . S
C457 N465 1.431 1_565 S
C458 H449 0.930 . S
C458 C456 1.378 . S
C458 C459 1.367 . S
C459 C458 1.367 . S
C459 C461 1.433 1_545 S
C460 C456 1.350 . S
C460 C457 1.463 1_545 S
C460 N464 1.427 1_545 S
C461 H451 0.929 . S
C461 C459 1.433 1_565 S
C461 N464 1.384 . S
C462 H453 0.929 . S
C462 C454 1.378 . S
C462 C457 1.346 . S
C463 H450 0.929 . S
C463 C455 1.430 1_545 S
C463 N465 1.384 . S
N464 C460 1.427 1_565 S
N464 C461 1.384 . S
N465 C457 1.431 1_545 S
N465 C463 1.384 . S
H466 C472 0.930 . S
H467 C476 0.930 . S
H468 C481 0.929 . S
H469 C479 0.929 . S
H470 C474 0.929 . S
H471 C480 0.929 . S
C472 H466 0.930 . S
C472 C473 1.367 . S
C472 C480 1.378 . S
C473 C472 1.367 . S
C473 C481 1.433 . S
C474 H470 0.929 . S
C474 C476 1.378 . S
C474 C478 1.350 . S
C475 C478 1.463 . S
C475 C480 1.350 . S
C475 N483 1.427 . S
C476 H467 0.930 . S
C476 C474 1.378 . S
C476 C477 1.367 . S
C477 C476 1.367 . S
C477 C479 1.433 . S
C478 C474 1.350 . S
C478 C475 1.463 . S
C478 N482 1.427 . S
C479 H469 0.929 . S
C479 C477 1.433 . S
C479 N482 1.384 . S
C480 H471 0.929 . S
C480 C472 1.378 . S
C480 C475 1.350 . S
C481 H468 0.929 . S
C481 C473 1.433 . S
C481 N483 1.384 . S
N482 C478 1.427 . S
N482 C479 1.384 . S
N483 C475 1.427 . S
N483 C481 1.384 . S
H484 C490 0.930 . S
H485 C494 0.930 . S
H486 C499 0.929 . S
H487 C497 0.929 . S
H488 C492 0.929 . S
H489 C498 0.929 . S
C490 H484 0.930 . S
C490 C491 1.367 . S
C490 C498 1.378 . S
C491 C490 1.367 . S
C491 C499 1.433 . S
C492 H488 0.929 . S
C492 C494 1.378 . S
C492 C496 1.350 . S
C493 C496 1.463 . S
C493 C498 1.350 . S
C493 N501 1.427 . S
C494 H485 0.930 . S
C494 C492 1.378 . S
C494 C495 1.367 . S
C495 C494 1.367 . S
C495 C497 1.433 . S
C496 C492 1.350 . S
C496 C493 1.463 . S
C496 N500 1.427 . S
C497 H487 0.929 . S
C497 C495 1.433 . S
C497 N500 1.384 . S
C498 H489 0.929 . S
C498 C490 1.378 . S
C498 C493 1.350 . S
C499 H486 0.929 . S
C499 C491 1.433 . S
C499 N501 1.384 . S
N500 C496 1.427 . S
N500 C497 1.384 . S
N501 C493 1.427 . S
N501 C499 1.384 . S
H502 C508 0.930 . S
H503 C512 0.930 . S
H504 C517 0.929 . S
H505 C515 0.929 . S
H506 C510 0.929 . S
H507 C516 0.929 . S
C508 H502 0.930 . S
C508 C509 1.366 1_655 S
C508 C516 1.378 . S
C509 C508 1.366 1_455 S
C509 C517 1.434 . S
C510 H506 0.929 . S
C510 C512 1.378 . S
C510 C514 1.350 . S
C511 C514 1.464 . S
C511 C516 1.340 1_455 S
C511 N519 1.437 . S
C512 H503 0.930 . S
C512 C510 1.378 . S
C512 C513 1.367 . S
C513 C512 1.367 . S
C513 C515 1.433 1_455 S
C514 C510 1.350 . S
C514 C511 1.464 . S
C514 N518 1.427 1_455 S
C515 H505 0.929 . S
C515 C513 1.433 1_655 S
C515 N518 1.384 . S
C516 H507 0.929 . S
C516 C508 1.378 . S
C516 C511 1.340 1_655 S
C517 H504 0.929 . S
C517 C509 1.434 . S
C517 N519 1.384 . S
N518 C514 1.427 1_655 S
N518 C515 1.384 . S
N519 C511 1.437 . S
N519 C517 1.384 . S
H520 C526 0.930 . S
H521 C530 0.930 . S
H522 C535 0.929 . S
H523 C533 0.929 . S
H524 C528 0.929 . S
H525 C534 0.929 . S
C526 H520 0.930 . S
C526 C527 1.366 . S
C526 C534 1.378 . S
C527 C526 1.366 . S
C527 C535 1.434 1_545 S
C528 H524 0.929 . S
C528 C530 1.378 . S
C528 C532 1.364 1_556 S
C529 C532 1.462 . S
C529 C534 1.348 1_565 S
C529 N537 1.429 . S
C530 H521 0.930 . S
C530 C528 1.378 . S
C530 C531 1.367 . S
C531 C530 1.367 . S
C531 C533 1.433 1_565 S
C532 C528 1.364 1_554 S
C532 C529 1.462 . S
C532 N536 1.415 1_564 S
C533 H523 0.929 . S
C533 C531 1.433 1_545 S
C533 N536 1.384 . S
C534 H525 0.929 . S
C534 C526 1.378 . S
C534 C529 1.348 1_545 S
C535 H522 0.929 . S
C535 C527 1.434 1_565 S
C535 N537 1.384 . S
N536 C532 1.415 1_546 S
N536 C533 1.384 . S
N537 C529 1.429 . S
N537 C535 1.384 . S
H538 C544 0.930 . S
H539 C548 0.930 . S
H540 C553 0.929 . S
H541 C551 0.929 . S
H542 C546 0.929 . S
H543 C552 0.929 . S
C544 H538 0.930 . S
C544 C545 1.367 . S
C544 C552 1.378 . S
C545 C544 1.367 . S
C545 C553 1.433 . S
C546 H542 0.929 . S
C546 C548 1.378 . S
C546 C550 1.350 1_556 S
C547 C550 1.463 . S
C547 C552 1.350 . S
C547 N555 1.427 . S
C548 H539 0.930 . S
C548 C546 1.378 . S
C548 C549 1.367 . S
C549 C548 1.367 . S
C549 C551 1.433 . S
C550 C546 1.350 1_554 S
C550 C547 1.463 . S
C550 N554 1.427 1_554 S
C551 H541 0.929 . S
C551 C549 1.433 . S
C551 N554 1.384 . S
C552 H543 0.929 . S
C552 C544 1.378 . S
C552 C547 1.350 . S
C553 H540 0.929 . S
C553 C545 1.433 . S
C553 N555 1.384 . S
N554 C550 1.427 1_556 S
N554 C551 1.384 . S
N555 C547 1.427 . S
N555 C553 1.384 . S
H556 C562 0.930 . S
H557 C566 0.930 . S
H558 C571 0.929 . S
H559 C569 0.929 . S
H560 C564 0.929 1_554 S
H561 C570 0.929 . S
C562 H556 0.930 . S
C562 C563 1.367 . S
C562 C570 1.378 . S
C563 C562 1.367 . S
C563 C571 1.433 . S
C564 H560 0.929 1_556 S
C564 C566 1.378 . S
C564 C568 1.350 1_556 S
C565 C568 1.463 . S
C565 C570 1.350 . S
C565 N573 1.427 . S
C566 H557 0.930 . S
C566 C564 1.378 . S
C566 C567 1.367 . S
C567 C566 1.367 . S
C567 C569 1.433 . S
C568 C564 1.350 1_554 S
C568 C565 1.463 . S
C568 N572 1.427 1_554 S
C569 H559 0.929 . S
C569 C567 1.433 . S
C569 N572 1.384 . S
C570 H561 0.929 . S
C570 C562 1.378 . S
C570 C565 1.350 . S
C571 H558 0.929 . S
C571 C563 1.433 . S
C571 N573 1.384 . S
N572 C568 1.427 1_556 S
N572 C569 1.384 . S
N573 C565 1.427 . S
N573 C571 1.384 . S
H574 C580 0.930 . S
H575 C584 0.930 . S
H576 C589 0.929 . S
H577 C587 0.929 . S
H578 C582 0.929 . S
H579 C588 0.929 . S
C580 H574 0.930 . S
C580 C581 1.371 . S
C580 C588 1.378 . S
C581 C580 1.371 . S
C581 C589 1.430 1_655 S
C582 H578 0.929 . S
C582 C584 1.378 . S
C582 C586 1.342 1_456 S
C583 C586 1.463 . S
C583 C588 1.360 . S
C583 N591 1.418 1_655 S
C584 H575 0.930 . S
C584 C582 1.378 . S
C584 C585 1.367 1_455 S
C585 C584 1.367 1_655 S
C585 C587 1.433 . S
C586 C582 1.342 1_654 S
C586 C583 1.463 . S
C586 N590 1.437 1_554 S
C587 H577 0.929 . S
C587 C585 1.433 . S
C587 N590 1.384 . S
C588 H579 0.929 . S
C588 C580 1.378 . S
C588 C583 1.360 . S
C589 H576 0.929 . S
C589 C581 1.430 1_455 S
C589 N591 1.384 . S
N590 C586 1.437 1_556 S
N590 C587 1.384 . S
N591 C583 1.418 1_455 S
N591 C589 1.384 . S
H592 C598 0.930 . S
H593 C602 0.930 . S
H594 C607 0.929 . S
H595 C605 0.929 . S
H596 C600 0.929 1_455 S
H597 C606 0.929 . S
C598 H592 0.930 . S
C598 C599 1.367 1_655 S
C598 C606 1.378 . S
C599 C598 1.367 1_455 S
C599 C607 1.433 . S
C600 H596 0.929 1_655 S
C600 C602 1.378 . S
C600 C604 1.350 . S
C601 C604 1.463 . S
C601 C606 1.350 . S
C601 N609 1.427 1_655 S
C602 H593 0.930 . S
C602 C600 1.378 . S
C602 C603 1.367 . S
C603 C602 1.367 . S
C603 C605 1.433 . S
C604 C600 1.350 . S
C604 C601 1.463 . S
C604 N608 1.427 . S
C605 H595 0.929 . S
C605 C603 1.433 . S
C605 N608 1.384 . S
C606 H597 0.929 . S
C606 C598 1.378 . S
C606 C601 1.350 . S
C607 H594 0.929 . S
C607 C599 1.433 . S
C607 N609 1.384 . S
N608 C604 1.427 . S
N608 C605 1.384 . S
N609 C601 1.427 1_455 S
N609 C607 1.384 . S
H610 C616 0.930 . S
H611 C620 0.930 . S
H612 C625 0.929 . S
H613 C623 0.929 . S
H614 C618 0.929 . S
H615 C624 0.929 . S
C616 H610 0.930 . S
C616 C617 1.367 . S
C616 C624 1.378 . S
C617 C616 1.367 . S
C617 C625 1.433 1_545 S
C618 H614 0.929 . S
C618 C620 1.378 . S
C618 C622 1.350 . S
C619 C622 1.463 . S
C619 C624 1.350 1_565 S
C619 N627 1.427 . S
C620 H611 0.930 . S
C620 C618 1.378 . S
C620 C621 1.367 . S
C621 C620 1.367 . S
C621 C623 1.433 . S
C622 C618 1.350 . S
C622 C619 1.463 . S
C622 N626 1.427 . S
C623 H613 0.929 . S
C623 C621 1.433 . S
C623 N626 1.384 . S
C624 H615 0.929 . S
C624 C616 1.378 . S
C624 C619 1.350 1_545 S
C625 H612 0.929 . S
C625 C617 1.433 1_565 S
C625 N627 1.384 . S
N626 C622 1.427 . S
N626 C623 1.384 . S
N627 C619 1.427 . S
N627 C625 1.384 . S
H628 C634 0.930 . S
H629 C638 0.930 . S
H630 C643 0.929 . S
H631 C641 0.929 . S
H632 C636 0.929 . S
H633 C642 0.929 . S
C634 H628 0.930 . S
C634 C635 1.367 . S
C634 C642 1.378 . S
C635 C634 1.367 . S
C635 C643 1.433 . S
C636 H632 0.929 . S
C636 C638 1.378 . S
C636 C640 1.350 . S
C637 C640 1.463 . S
C637 C642 1.350 . S
C637 N645 1.427 . S
C638 H629 0.930 . S
C638 C636 1.378 . S
C638 C639 1.367 . S
C639 C638 1.367 . S
C639 C641 1.433 . S
C640 C636 1.350 . S
C640 C637 1.463 . S
C640 N644 1.427 . S
C641 H631 0.929 . S
C641 C639 1.433 . S
C641 N644 1.384 . S
C642 H633 0.929 . S
C642 C634 1.378 . S
C642 C637 1.350 . S
C643 H630 0.929 . S
C643 C635 1.433 . S
C643 N645 1.384 . S
N644 C640 1.427 . S
N644 C641 1.384 . S
N645 C637 1.427 . S
N645 C643 1.384 . S
H646 C652 0.930 . S
H647 C656 0.930 . S
H648 C661 0.929 . S
H649 C659 0.929 . S
H650 C654 0.929 . S
H651 C660 0.929 . S
C652 H646 0.930 . S
C652 C653 1.367 . S
C652 C660 1.378 . S
C653 C652 1.367 . S
C653 C661 1.433 . S
C654 H650 0.929 . S
C654 C656 1.378 . S
C654 C658 1.350 . S
C655 C658 1.463 . S
C655 C660 1.350 . S
C655 N663 1.427 . S
C656 H647 0.930 . S
C656 C654 1.378 . S
C656 C657 1.367 . S
C657 C656 1.367 . S
C657 C659 1.433 . S
C658 C654 1.350 . S
C658 C655 1.463 . S
C658 N662 1.427 . S
C659 H649 0.929 . S
C659 C657 1.433 . S
C659 N662 1.384 . S
C660 H651 0.929 . S
C660 C652 1.378 . S
C660 C655 1.350 . S
C661 H648 0.929 . S
C661 C653 1.433 . S
C661 N663 1.384 . S
N662 C658 1.427 . S
N662 C659 1.384 . S
N663 C655 1.427 . S
N663 C661 1.384 . S
H664 C670 0.930 . S
H665 C674 0.930 . S
H666 C679 0.929 . S
H667 C677 0.929 . S
H668 C672 0.929 1_654 S
H669 C678 0.929 . S
C670 H664 0.930 . S
C670 C671 1.367 1_455 S
C670 C678 1.378 . S
C671 C670 1.367 1_655 S
C671 C679 1.433 . S
C672 H668 0.929 1_456 S
C672 C674 1.378 . S
C672 C676 1.350 1_556 S
C673 C676 1.463 . S
C673 C678 1.350 . S
C673 N681 1.427 1_455 S
C674 H665 0.930 . S
C674 C672 1.378 . S
C674 C675 1.367 . S
C675 C674 1.367 . S
C675 C677 1.433 . S
C676 C672 1.350 1_554 S
C676 C673 1.463 . S
C676 N680 1.427 . S
C677 H667 0.929 . S
C677 C675 1.433 . S
C677 N680 1.384 1_556 S
C678 H669 0.929 . S
C678 C670 1.378 . S
C678 C673 1.350 . S
C679 H666 0.929 . S
C679 C671 1.433 . S
C679 N681 1.384 . S
N680 C676 1.427 . S
N680 C677 1.384 1_554 S
N681 C673 1.427 1_655 S
N681 C679 1.384 . S
H682 C688 0.930 . S
H683 C692 0.930 1_554 S
H684 C697 0.929 . S
H685 C695 0.929 . S
H686 C690 0.929 . S
H687 C696 0.929 . S
C688 H682 0.930 . S
C688 C689 1.367 . S
C688 C696 1.378 . S
C689 C688 1.367 . S
C689 C697 1.433 1_565 S
C690 H686 0.929 . S
C690 C692 1.378 1_554 S
C690 C694 1.350 . S
C691 C694 1.463 . S
C691 C696 1.350 1_545 S
C691 N699 1.427 . S
C692 H683 0.930 1_556 S
C692 C690 1.378 1_556 S
C692 C693 1.367 . S
C693 C692 1.367 . S
C693 C695 1.433 . S
C694 C690 1.350 . S
C694 C691 1.463 . S
C694 N698 1.427 1_554 S
C695 H685 0.929 . S
C695 C693 1.433 . S
C695 N698 1.384 . S
C696 H687 0.929 . S
C696 C688 1.378 . S
C696 C691 1.350 1_565 S
C697 H684 0.929 . S
C697 C689 1.433 1_545 S
C697 N699 1.384 . S
N698 C694 1.427 1_556 S
N698 C695 1.384 . S
N699 C691 1.427 . S
N699 C697 1.384 . S
H700 C706 0.930 . S
H701 C710 0.930 . S
H702 C715 0.929 . S
H703 C713 0.929 . S
H704 C708 0.929 . S
H705 C714 0.929 1_556 S
C706 H700 0.930 . S
C706 C707 1.367 . S
C706 C714 1.378 . S
C707 C706 1.367 . S
C707 C715 1.433 . S
C708 H704 0.929 . S
C708 C710 1.378 . S
C708 C712 1.350 . S
C709 C712 1.463 . S
C709 C714 1.350 . S
C709 N717 1.427 . S
C710 H701 0.930 . S
C710 C708 1.378 . S
C710 C711 1.367 1_554 S
C711 C710 1.367 1_556 S
C711 C713 1.433 . S
C712 C708 1.350 . S
C712 C709 1.463 . S
C712 N716 1.427 1_554 S
C713 H703 0.929 . S
C713 C711 1.433 . S
C713 N716 1.384 . S
C714 H705 0.929 1_554 S
C714 C706 1.378 . S
C714 C709 1.350 . S
C715 H702 0.929 . S
C715 C707 1.433 . S
C715 N717 1.384 . S
N716 C712 1.427 1_556 S
N716 C713 1.384 . S
N717 C709 1.427 . S
N717 C715 1.384 . S
H718 C724 0.930 . S
H719 C728 0.930 . S
H720 C733 0.929 . S
H721 C731 0.929 . S
H722 C726 0.929 . S
H723 C732 0.929 . S
C724 H718 0.930 . S
C724 C725 1.367 . S
C724 C732 1.378 . S
C725 C724 1.367 . S
C725 C733 1.433 . S
C726 H722 0.929 . S
C726 C728 1.378 . S
C726 C730 1.350 1_556 S
C727 C730 1.463 . S
C727 C732 1.350 . S
C727 N735 1.427 . S
C728 H719 0.930 . S
C728 C726 1.378 . S
C728 C729 1.367 . S
C729 C728 1.367 . S
C729 C731 1.433 1_556 S
C730 C726 1.350 1_554 S
C730 C727 1.463 . S
C730 N734 1.427 . S
C731 H721 0.929 . S
C731 C729 1.433 1_554 S
C731 N734 1.384 . S
C732 H723 0.929 . S
C732 C724 1.378 . S
C732 C727 1.350 . S
C733 H720 0.929 . S
C733 C725 1.433 . S
C733 N735 1.384 . S
N734 C730 1.427 . S
N734 C731 1.384 . S
N735 C727 1.427 . S
N735 C733 1.384 . S
H736 C742 0.930 . S
H737 C746 0.930 . S
H738 C751 0.929 . S
H739 C749 0.929 . S
H740 C744 0.929 . S
H741 C750 0.929 . S
C742 H736 0.930 . S
C742 C743 1.367 . S
C742 C750 1.378 . S
C743 C742 1.367 . S
C743 C751 1.433 1_455 S
C744 H740 0.929 . S
C744 C746 1.378 . S
C744 C748 1.350 1_655 S
C745 C748 1.463 . S
C745 C750 1.350 . S
C745 N753 1.427 1_455 S
C746 H737 0.930 . S
C746 C744 1.378 . S
C746 C747 1.367 1_655 S
C747 C746 1.367 1_455 S
C747 C749 1.433 . S
C748 C744 1.350 1_455 S
C748 C745 1.463 . S
C748 N752 1.427 . S
C749 H739 0.929 . S
C749 C747 1.433 . S
C749 N752 1.384 . S
C750 H741 0.929 . S
C750 C742 1.378 . S
C750 C745 1.350 . S
C751 H738 0.929 . S
C751 C743 1.433 1_655 S
C751 N753 1.384 . S
N752 C748 1.427 . S
N752 C749 1.384 . S
N753 C745 1.427 1_655 S
N753 C751 1.384 . S
H754 C760 0.930 . S
H755 C764 0.930 . S
H756 C769 0.929 . S
H757 C767 0.929 . S
H758 C762 0.929 . S
H759 C768 0.929 . S
C760 H754 0.930 . S
C760 C761 1.367 1_565 S
C760 C768 1.378 . S
C761 C760 1.367 1_545 S
C761 C769 1.433 . S
C762 H758 0.929 . S
C762 C764 1.378 . S
C762 C766 1.350 . S
C763 C766 1.463 . S
C763 C768 1.350 1_545 S
C763 N771 1.427 . S
C764 H755 0.930 . S
C764 C762 1.378 . S
C764 C765 1.367 . S
C765 C764 1.367 . S
C765 C767 1.433 1_545 S
C766 C762 1.350 . S
C766 C763 1.463 . S
C766 N770 1.427 1_545 S
C767 H757 0.929 . S
C767 C765 1.433 1_565 S
C767 N770 1.384 . S
C768 H759 0.929 . S
C768 C760 1.378 . S
C768 C763 1.350 1_565 S
C769 H756 0.929 . S
C769 C761 1.433 . S
C769 N771 1.384 . S
N770 C766 1.427 1_565 S
N770 C767 1.384 . S
N771 C763 1.427 . S
N771 C769 1.384 . S
H772 C778 0.930 . S
H773 C782 0.930 . S
H774 C787 0.929 . S
H775 C785 0.929 . S
H776 C780 0.929 . S
H777 C786 0.929 . S
C778 H772 0.930 . S
C778 C779 1.367 . S
C778 C786 1.378 . S
C779 C778 1.367 . S
C779 C787 1.433 . S
C780 H776 0.929 . S
C780 C782 1.378 . S
C780 C784 1.350 . S
C781 C784 1.463 . S
C781 C786 1.350 . S
C781 N789 1.427 . S
C782 H773 0.930 . S
C782 C780 1.378 . S
C782 C783 1.367 . S
C783 C782 1.367 . S
C783 C785 1.433 . S
C784 C780 1.350 . S
C784 C781 1.463 . S
C784 N788 1.427 . S
C785 H775 0.929 . S
C785 C783 1.433 . S
C785 N788 1.384 . S
C786 H777 0.929 . S
C786 C778 1.378 . S
C786 C781 1.350 . S
C787 H774 0.929 . S
C787 C779 1.433 . S
C787 N789 1.384 . S
N788 C784 1.427 . S
N788 C785 1.384 . S
N789 C781 1.427 . S
N789 C787 1.384 . S
H790 C796 0.930 . S
H791 C800 0.930 . S
H792 C805 0.929 . S
H793 C803 0.929 . S
H794 C798 0.929 . S
H795 C804 0.929 . S
C796 H790 0.930 . S
C796 C797 1.367 . S
C796 C804 1.378 . S
C797 C796 1.367 . S
C797 C805 1.433 . S
C798 H794 0.929 . S
C798 C800 1.378 . S
C798 C802 1.350 . S
C799 C802 1.463 . S
C799 C804 1.350 . S
C799 N807 1.427 . S
C800 H791 0.930 . S
C800 C798 1.378 . S
C800 C801 1.367 . S
C801 C800 1.367 . S
C801 C803 1.433 . S
C802 C798 1.350 . S
C802 C799 1.463 . S
C802 N806 1.427 . S
C803 H793 0.929 . S
C803 C801 1.433 . S
C803 N806 1.384 . S
C804 H795 0.929 . S
C804 C796 1.378 . S
C804 C799 1.350 . S
C805 H792 0.929 . S
C805 C797 1.433 . S
C805 N807 1.384 . S
N806 C802 1.427 . S
N806 C803 1.384 . S
N807 C799 1.427 . S
N807 C805 1.384 . S
H808 C814 0.930 . S
H809 C818 0.930 . S
H810 C823 0.926 1_455 S
H811 C821 0.929 . S
H812 C816 0.929 . S
H813 C822 0.929 . S
C814 H808 0.930 . S
C814 C815 1.367 . S
C814 C822 1.378 . S
C815 C814 1.367 . S
C815 C823 1.436 . S
C816 H812 0.929 . S
C816 C818 1.378 . S
C816 C820 1.350 . S
C817 C820 1.463 . S
C817 C822 1.350 . S
C817 N825 1.427 . S
C818 H809 0.930 . S
C818 C816 1.378 . S
C818 C819 1.367 . S
C819 C818 1.367 . S
C819 C821 1.433 . S
C820 C816 1.350 . S
C820 C817 1.463 . S
C820 N824 1.427 . S
C821 H811 0.929 . S
C821 C819 1.433 . S
C821 N824 1.384 . S
C822 H813 0.929 . S
C822 C814 1.378 . S
C822 C817 1.350 . S
C823 H810 0.926 1_655 S
C823 C815 1.436 . S
C823 N825 1.385 . S
N824 C820 1.427 . S
N824 C821 1.384 . S
N825 C817 1.427 . S
N825 C823 1.385 . S
H826 C832 0.930 . S
H827 C836 0.930 . S
H828 C841 0.929 . S
H829 C839 0.929 . S
H830 C834 0.929 . S
H831 C840 0.929 . S
C832 H826 0.930 . S
C832 C833 1.367 . S
C832 C840 1.378 . S
C833 C832 1.367 . S
C833 C841 1.433 1_565 S
C834 H830 0.929 . S
C834 C836 1.378 . S
C834 C838 1.350 1_545 S
C835 C838 1.463 . S
C835 C840 1.350 . S
C835 N843 1.427 1_565 S
C836 H827 0.930 . S
C836 C834 1.378 . S
C836 C837 1.367 1_545 S
C837 C836 1.367 1_565 S
C837 C839 1.433 . S
C838 C834 1.350 1_565 S
C838 C835 1.463 . S
C838 N842 1.427 . S
C839 H829 0.929 . S
C839 C837 1.433 . S
C839 N842 1.384 . S
C840 H831 0.929 . S
C840 C832 1.378 . S
C840 C835 1.350 . S
C841 H828 0.929 . S
C841 C833 1.433 1_545 S
C841 N843 1.384 . S
N842 C838 1.427 . S
N842 C839 1.384 . S
N843 C835 1.427 1_545 S
N843 C841 1.384 . S
H844 C850 0.930 . S
H845 C854 0.930 . S
H846 C859 0.929 . S
H847 C857 0.929 . S
H848 C852 0.929 . S
H849 C858 0.929 . S
C850 H844 0.930 . S
C850 C851 1.367 . S
C850 C858 1.378 . S
C851 C850 1.367 . S
C851 C859 1.433 . S
C852 H848 0.929 . S
C852 C854 1.378 . S
C852 C856 1.350 . S
C853 C856 1.463 . S
C853 C858 1.350 . S
C853 N861 1.427 . S
C854 H845 0.930 . S
C854 C852 1.378 . S
C854 C855 1.367 . S
C855 C854 1.367 . S
C855 C857 1.433 . S
C856 C852 1.350 . S
C856 C853 1.463 . S
C856 N860 1.427 . S
C857 H847 0.929 . S
C857 C855 1.433 . S
C857 N860 1.384 . S
C858 H849 0.929 . S
C858 C850 1.378 . S
C858 C853 1.350 . S
C859 H846 0.929 . S
C859 C851 1.433 . S
C859 N861 1.384 . S
N860 C856 1.427 . S
N860 C857 1.384 . S
N861 C853 1.427 . S
N861 C859 1.384 . S
H862 C868 0.930 . S
H863 C872 0.930 . S
H864 C877 0.929 . S
H865 C875 0.929 . S
H866 C870 0.929 . S
H867 C876 0.929 . S
C868 H862 0.930 . S
C868 C869 1.367 . S
C868 C876 1.378 . S
C869 C868 1.367 . S
C869 C877 1.433 . S
C870 H866 0.929 . S
C870 C872 1.378 . S
C870 C874 1.350 . S
C871 C874 1.463 . S
C871 C876 1.350 . S
C871 N879 1.427 . S
C872 H863 0.930 . S
C872 C870 1.378 . S
C872 C873 1.367 . S
C873 C872 1.367 . S
C873 C875 1.433 . S
C874 C870 1.350 . S
C874 C871 1.463 . S
C874 N878 1.427 . S
C875 H865 0.929 . S
C875 C873 1.433 . S
C875 N878 1.384 . S
C876 H867 0.929 . S
C876 C868 1.378 . S
C876 C871 1.350 . S
C877 H864 0.929 . S
C877 C869 1.433 . S
C877 N879 1.384 . S
N878 C874 1.427 . S
N878 C875 1.384 . S
N879 C871 1.427 . S
N879 C877 1.384 . S
C455 C241 2.100 1_565 S
C459 C297 2.332 1_545 S
C477 C337 2.358 . S
C473 C277 2.186 . S
C495 C377 2.345 . S
C491 C169 2.113 . S
C513 C417 2.345 1_455 S
C509 C205 2.121 . S
C531 C306 2.335 1_565 S
C527 C97 2.112 . S
C545 C133 2.187 . S
C549 C346 2.360 . S
C563 C25 2.108 . S
C567 C386 2.339 . S
C581 C61 2.121 1_655 S
C585 C426 2.343 1_655 S
C603 C303 0.425 . S
C599 C211 0.410 . S
C621 C343 0.473 . S
C617 C247 0.445 . S
C639 C383 0.434 . S
C635 C253 0.426 . S
C653 C175 0.404 . S
C657 C423 0.419 . S
C671 C67 0.467 1_655 S
C675 C294 0.423 . S
C693 C334 0.473 . S
C689 C103 0.505 1_565 S
C711 C374 0.425 . S
C707 C109 0.397 . S
C725 C31 0.454 . S
C729 C414 0.427 . S
C743 C181 2.848 . S
C747 C307 3.205 . S
C761 C217 2.824 . S
C765 C347 3.190 . S
C783 C387 3.188 . S
C779 C283 2.758 . S
C801 C427 3.200 . S
C797 C145 2.829 . S
C815 C37 2.853 1_655 S
C819 C298 3.219 . S
C837 C338 3.185 . S
C833 C73 2.832 1_565 S
C855 C378 3.193 . S
C851 C139 2.755 . S
C869 C1 2.850 . S
C873 C418 3.202 . S
