# Generated by pormake.
# Topology anh, (6,3)-cn, num edge types: 1
# Building blocks:
#     Node 0, Type 0, BuildingBlock: CUKXOW_clean_sbu_0, # of connection points: 6
#     Node 1, Type 0, BuildingBlock: CUKXOW_clean_sbu_0, # of connection points: 6
#     Node 2, Type 0, BuildingBlock: CUKXOW_clean_sbu_0, # of connection points: 6
#     Node 3, Type 1, BuildingBlock: VETTIZ_charged_linker_0, # of connection points: 3
#     Node 4, Type 1, BuildingBlock: VETTIZ_charged_linker_0, # of connection points: 3
#     Node 5, Type 1, BuildingBlock: VETTIZ_charged_linker_0, # of connection points: 3
#     Node 6, Type 1, BuildingBlock: VETTIZ_charged_linker_0, # of connection points: 3
#     Node 7, Type 1, BuildingBlock: VETTIZ_charged_linker_0, # of connection points: 3
#     Node 8, Type 1, BuildingBlock: VETTIZ_charged_linker_0, # of connection points: 3
#     Edge 9, Type (0, 1), BuildingBlock: OJICUG_clean_linker_0, # of connection points: 2
#     Edge 10, Type (0, 1), BuildingBlock: OJICUG_clean_linker_0, # of connection points: 2
#     Edge 11, Type (0, 1), BuildingBlock: OJICUG_clean_linker_0, # of connection points: 2
#     Edge 12, Type (0, 1), BuildingBlock: OJICUG_clean_linker_0, # of connection points: 2
#     Edge 13, Type (0, 1), BuildingBlock: OJICUG_clean_linker_0, # of connection points: 2
#     Edge 14, Type (0, 1), BuildingBlock: OJICUG_clean_linker_0, # of connection points: 2
#     Edge 15, Type (0, 1), BuildingBlock: OJICUG_clean_linker_0, # of connection points: 2
#     Edge 16, Type (0, 1), BuildingBlock: OJICUG_clean_linker_0, # of connection points: 2
#     Edge 17, Type (0, 1), BuildingBlock: OJICUG_clean_linker_0, # of connection points: 2
#     Edge 18, Type (0, 1), BuildingBlock: OJICUG_clean_linker_0, # of connection points: 2
#     Edge 19, Type (0, 1), BuildingBlock: OJICUG_clean_linker_0, # of connection points: 2
#     Edge 20, Type (0, 1), BuildingBlock: OJICUG_clean_linker_0, # of connection points: 2
#     Edge 21, Type (0, 1), BuildingBlock: OJICUG_clean_linker_0, # of connection points: 2
#     Edge 22, Type (0, 1), BuildingBlock: OJICUG_clean_linker_0, # of connection points: 2
#     Edge 23, Type (0, 1), BuildingBlock: OJICUG_clean_linker_0, # of connection points: 2
#     Edge 24, Type (0, 1), BuildingBlock: OJICUG_clean_linker_0, # of connection points: 2
#     Edge 25, Type (0, 1), BuildingBlock: OJICUG_clean_linker_0, # of connection points: 2
#     Edge 26, Type (0, 1), BuildingBlock: OJICUG_clean_linker_0, # of connection points: 2
# Relax obj value: 0.140
# Max RMSD: 0.196
# Mean RMSD: 0.143
data_MOF--net-anh--node1-CUKXOW_clean_sbu_0--node2-VETTIZ_charged_linker_0--edge1-OJICUG_clean_linker_0
_symmetry_space_group_name_H-M    P1
_symmetry_Int_Tables_number       1
_symmetry_cell_setting            triclinic
loop_
_symmetry_equiv_pos_as_xyz
'x, y, z'
_cell_length_a     26.273753
_cell_length_b     25.39375
_cell_length_c     51.378198
_cell_angle_alpha  95.528692
_cell_angle_beta   90.715193
_cell_angle_gamma 112.5054
loop_
_atom_site_label
_atom_site_type_symbol
_atom_site_fract_x
_atom_site_fract_y
_atom_site_fract_z
_atom_type_partial_charge
Tb0 Tb 0.08996 0.5023 0.13559 0.0
C1 C 0.07627 0.46113 0.19155 0.0
Tb2 Tb 1.02325 0.37349 0.14132 0.0
O3 O 1.01963 0.52289 0.14865 0.0
O4 O 1.00568 0.44326 0.12904 0.0
O5 O 0.10789 0.49927 0.17665 0.0
C6 C 0.93014 0.28554 0.14792 0.0
O7 O 1.03646 0.41206 0.1819 0.0
C8 C 0.13184 0.39747 0.14495 0.0
C9 C 0.04911 0.41191 0.08458 0.0
O10 O 0.9418 0.33868 0.15672 0.0
O11 O 0.97194 0.28112 0.13591 0.0
O12 O 0.09383 0.34639 0.14607 0.0
O13 O 0.10605 0.42981 0.14212 0.0
O14 O 1.02168 0.37018 0.09894 0.0
O15 O 0.0782 0.46581 0.09462 0.0
C16 C 0.16869 0.60316 0.12741 0.0
O17 O 0.12291 0.59624 0.13859 0.0
O18 O 0.16948 0.55312 0.12033 0.0
C19 C 0.98195 0.47258 0.14124 0.0
Tb20 Tb 0.491 0.02108 0.49428 0.0
C21 C 0.53808 0.04045 0.43886 0.0
Tb22 Tb 0.61326 0.09329 0.49104 0.0
O23 O 0.46801 0.09127 0.48364 0.0
O24 O 0.54316 0.10867 0.50291 0.0
O25 O 0.49948 1.00559 0.45255 0.0
C26 C 0.71137 0.1752 0.48445 0.0
O27 O 0.58361 0.08159 0.45006 0.0
C28 C 0.58955 0.98466 0.49563 0.0
C29 C 0.56639 0.07425 0.54686 0.0
O30 O 0.70111 0.12093 0.48381 0.0
O31 O 0.66617 0.18338 0.48839 0.0
O32 O 0.6354 0.02585 0.50461 0.0
O33 O 0.56125 1.00484 0.4828 0.0
O34 O 0.60705 0.10617 0.5331 0.0
O35 O 0.51909 0.03582 0.53571 0.0
C36 C 0.39484 0.93566 0.50077 0.0
O37 O 0.40099 0.98035 0.4889 0.0
O38 O 0.44288 0.93957 0.50939 0.0
C39 C 0.51547 0.13121 0.49142 0.0
Tb40 Tb 0.57983 0.67444 0.83769 0.0
C41 C 0.62883 0.68306 0.89438 0.0
Tb42 Tb 0.69984 0.69182 0.84359 0.0
O43 O 0.55617 0.58647 0.84844 0.0
O44 O 0.6268 0.62429 0.82861 0.0
O45 O 0.58691 0.68415 0.88009 0.0
C46 C 0.77714 0.65117 0.8514 0.0
O47 O 0.67583 0.68509 0.88426 0.0
C48 C 0.68563 0.78809 0.84285 0.0
C49 C 0.64831 0.68821 0.7882 0.0
O50 O 0.78315 0.69378 0.83785 0.0
O51 O 0.72956 0.63486 0.86161 0.0
O52 O 0.73196 0.78274 0.83746 0.0
O53 O 0.65387 0.74337 0.85201 0.0
O54 O 0.68301 0.6726 0.80135 0.0
O55 O 0.61127 0.70357 0.80041 0.0
C56 C 0.479 0.66854 0.82514 0.0
O57 O 0.51096 0.70146 0.84465 0.0
O58 O 0.50445 0.63996 0.81273 0.0
C59 C 0.59998 0.58081 0.83969 0.0
C60 C 0.68776 0.06745 0.16348 0.0
C61 C 0.73356 0.11123 0.17718 0.0
C62 C 0.73538 0.11952 0.20464 0.0
C63 C 0.64525 0.04385 0.20481 0.0
C64 C 0.64379 0.03415 0.17781 0.0
C65 C 0.59035 0.98663 0.16707 0.0
H66 H 0.33483 0.79793 0.19201 0.0
C67 C 0.59285 1.00479 0.21397 0.0
C68 C 0.56017 0.9706 0.1921 0.0
H69 H 0.40792 0.81911 0.11696 0.0
H70 H 0.49204 0.89302 0.13765 0.0
H71 H 0.43517 0.79532 0.22132 0.0
H72 H 0.38298 0.93522 0.21538 0.0
H73 H 0.39995 0.93374 0.24854 0.0
H74 H 0.3454 0.87291 0.23136 0.0
H75 H 0.3831 0.80437 0.24137 0.0
H76 H 0.45556 0.83863 0.25134 0.0
C77 C 0.60399 0.93696 0.15346 0.0
C78 C 0.56035 1.01179 0.14883 0.0
C79 C 0.56 0.02106 0.31078 0.0
C80 C 0.51756 0.98924 0.32618 0.0
C81 C 0.47121 0.94371 0.31357 0.0
C82 C 0.46738 0.93046 0.28627 0.0
C83 C 0.5106 0.96249 0.27133 0.0
C84 C 0.55613 1.00634 0.28374 0.0
C85 C 0.59977 0.03355 0.2652 0.0
C86 C 0.57261 0.9993 0.23942 0.0
C87 C 0.52017 0.95845 0.24302 0.0
C88 C 0.65233 0.02344 0.27314 0.0
C89 C 0.60777 0.09747 0.26586 0.0
C90 C 0.36856 0.81926 0.17994 0.0
C91 C 0.36451 0.80377 0.15281 0.0
C92 C 0.41008 0.83088 0.1379 0.0
C93 C 0.45874 0.87361 0.14994 0.0
C94 C 0.46198 0.88866 0.17721 0.0
C95 C 0.41731 0.86106 0.19167 0.0
C96 C 0.42838 0.87951 0.22049 0.0
C97 C 0.48672 0.92381 0.22108 0.0
C98 C 0.50644 0.92954 0.19571 0.0
C99 C 0.42511 0.82695 0.23454 0.0
C100 C 0.38699 0.90657 0.22966 0.0
H101 H 0.69555 0.09552 0.23936 0.0
H102 H 0.6856 0.06062 0.14229 0.0
H103 H 0.56203 0.05407 0.15787 0.0
H104 H 0.51617 0.98475 0.14511 0.0
H105 H 0.58002 0.0183 0.12974 0.0
H106 H 0.63824 0.9318 0.16445 0.0
H107 H 0.61699 0.94521 0.13325 0.0
H108 H 0.56917 0.89503 0.15273 0.0
H109 H 0.59595 0.05685 0.31946 0.0
H110 H 0.43822 0.91744 0.32477 0.0
H111 H 0.43112 0.89544 0.2779 0.0
H112 H 0.64208 0.98483 0.2838 0.0
H113 H 0.68145 0.06053 0.28615 0.0
H114 H 0.67413 0.01462 0.25601 0.0
H115 H 0.56761 0.10238 0.26771 0.0
H116 H 0.62405 0.11636 0.24775 0.0
H117 H 0.6355 0.12377 0.2828 0.0
H118 H 0.77047 0.15303 0.2154 0.0
C119 C 0.6917 0.08611 0.2185 0.0
C120 C 0.54118 0.70493 0.50805 0.0
C121 C 0.53806 0.75608 0.51991 0.0
C122 C 0.52846 0.76105 0.54668 0.0
C123 C 0.53596 0.67049 0.55081 0.0
C124 C 0.53876 0.66178 0.52399 0.0
C125 C 0.53997 0.60327 0.5158 0.0
H126 H 0.56685 0.36491 0.55507 0.0
C127 C 0.54339 0.62331 0.56263 0.0
C128 C 0.54431 0.58244 0.54237 0.0
H129 H 0.52877 0.3903 0.47634 0.0
H130 H 0.53295 0.48555 0.49188 0.0
H131 H 0.65943 0.49123 0.56932 0.0
H132 H 0.48678 0.41433 0.58357 0.0
H133 H 0.52145 0.45568 0.61266 0.0
H134 H 0.53845 0.39652 0.59944 0.0
H135 H 0.6347 0.44531 0.59469 0.0
H136 H 0.65165 0.52158 0.60038 0.0
C137 C 0.59136 0.61068 0.49997 0.0
C138 C 0.48487 0.56587 0.50046 0.0
C139 C 0.59443 0.65255 0.65991 0.0
C140 C 0.61004 0.62056 0.67687 0.0
C141 C 0.61171 0.5676 0.66675 0.0
C142 C 0.59796 0.54702 0.64019 0.0
C143 C 0.5824 0.57971 0.62351 0.0
C144 C 0.58081 0.63144 0.63354 0.0
C145 C 0.56371 0.66083 0.61318 0.0
C146 C 0.55625 0.61861 0.58897 0.0
C147 C 0.56713 0.57127 0.59512 0.0
C148 C 0.6121 0.71909 0.61134 0.0
C149 C 0.50854 0.66573 0.62086 0.0
C150 C 0.55998 0.39099 0.54101 0.0
C151 C 0.54765 0.36991 0.51442 0.0
C152 C 0.53789 0.40524 0.49698 0.0
C153 C 0.5401 0.46035 0.50603 0.0
C154 C 0.55145 0.48012 0.53285 0.0
C155 C 0.56139 0.44544 0.54974 0.0
C156 C 0.57207 0.47228 0.57762 0.0
C157 C 0.56435 0.52766 0.57504 0.0
C158 C 0.55293 0.53284 0.54875 0.0
C159 C 0.63236 0.48298 0.5862 0.0
C160 C 0.52778 0.43276 0.59441 0.0
H161 H 0.52186 0.72602 0.58256 0.0
H162 H 0.54741 0.6998 0.48733 0.0
H163 H 0.45028 0.57667 0.5082 0.0
H164 H 0.47246 0.51975 0.50238 0.0
H165 H 0.48708 0.57254 0.47938 0.0
H166 H 0.62882 0.64385 0.51054 0.0
H167 H 0.58688 0.62441 0.48048 0.0
H168 H 0.59924 0.57092 0.49692 0.0
H169 H 0.59318 0.69362 0.66693 0.0
H170 H 0.62274 0.54156 0.67946 0.0
H171 H 0.59969 0.5063 0.63373 0.0
H172 H 0.65192 0.71324 0.61027 0.0
H173 H 0.6153 0.74975 0.62883 0.0
H174 H 0.60886 0.73972 0.59388 0.0
H175 H 0.48731 0.63599 0.63543 0.0
H176 H 0.47823 0.65352 0.60391 0.0
H177 H 0.51535 0.70981 0.62959 0.0
H178 H 0.52531 0.79979 0.55599 0.0
C179 C 0.52715 0.71851 0.56213 0.0
C180 C 0.20616 0.53006 0.82492 0.0
C181 C 0.25715 0.53793 0.83677 0.0
C182 C 0.25954 0.50522 0.85698 0.0
C183 C 0.16016 0.46431 0.85641 0.0
C184 C 0.15799 0.49344 0.83531 0.0
C185 C 0.09986 0.48392 0.82697 0.0
H186 H 0.86162 0.46165 0.8735 0.0
C187 C 0.10378 0.4361 0.86488 0.0
C188 C 0.06792 0.44684 0.84763 0.0
H189 H 0.93048 0.52496 0.80131 0.0
H190 H 0.99552 0.47909 0.80461 0.0
H191 H 0.8642 0.33862 0.86238 0.0
H192 H 0.9725 0.49283 0.90717 0.0
H193 H 0.95281 0.43338 0.92575 0.0
H194 H 0.90093 0.4523 0.91214 0.0
H195 H 0.86079 0.34827 0.89715 0.0
H196 H 0.90503 0.31549 0.88237 0.0
C197 C 0.08662 0.44982 0.79943 0.0
C198 C 0.09422 0.54308 0.82817 0.0
C199 C 0.07828 0.3787 0.95699 0.0
C200 C 1.03167 0.3618 0.97213 0.0
C201 C 0.97876 0.34278 0.95954 0.0
C202 C 0.9729 0.34694 0.93276 0.0
C203 C 1.0203 0.37212 0.91892 0.0
C204 C 0.07162 0.38351 0.9304 0.0
C205 C 0.11698 0.40736 0.91208 0.0
C206 C 0.08415 0.41056 0.88806 0.0
C207 C 1.02787 0.39227 0.8928 0.0
C208 C 0.14524 0.36412 0.90662 0.0
C209 C 0.15605 0.46759 0.92484 0.0
C210 C 0.89008 0.46508 0.85812 0.0
C211 C 0.89258 0.49924 0.83779 0.0
C212 C 0.92948 0.50131 0.81788 0.0
C213 C 0.96751 0.47536 0.81992 0.0
C214 C 0.96941 0.44861 0.84234 0.0
C215 C 0.92888 0.44027 0.86007 0.0
C216 C 0.93713 0.40997 0.88253 0.0
C217 C 0.99217 0.40602 0.87627 0.0
C218 C 1.0115 0.43063 0.85314 0.0
C219 C 0.88937 0.3501 0.88119 0.0
C220 C 0.94111 0.4489 0.90832 0.0
H221 H 0.2154 0.44459 0.88231 0.0
H222 H 0.20383 0.5543 0.80902 0.0
H223 H 0.13371 0.57996 0.83385 0.0
H224 H 0.06544 0.5473 0.84307 0.0
H225 H 0.08028 0.55064 0.8089 0.0
H226 H 0.10311 0.41534 0.79812 0.0
H227 H 0.10552 0.4784 0.78414 0.0
H228 H 0.04179 0.42776 0.79471 0.0
H229 H 0.11929 0.39147 0.96604 0.0
H230 H 0.9421 0.32858 0.97068 0.0
H231 H 0.93202 0.33424 0.92418 0.0
H232 H 0.11788 0.32007 0.9105 0.0
H233 H 0.1837 0.37672 0.91914 0.0
H234 H 0.15487 0.35962 0.88579 0.0
H235 H 0.1318 0.4924 0.93291 0.0
H236 H 0.18353 0.49444 0.91117 0.0
H237 H 0.1822 0.46402 0.94119 0.0
H238 H 0.29898 0.51014 0.86584 0.0
C239 C 0.21119 0.46752 0.86653 0.0
C240 C 0.94664 0.39633 0.46596 0.0
C241 C 0.91085 0.3435 0.45281 0.0
C242 C 0.91782 0.32961 0.4263 0.0
C243 C 0.99345 0.42114 0.42575 0.0
C244 C 0.9883 0.43425 0.45207 0.0
C245 C 1.03196 0.49153 0.46269 0.0
H246 H 0.23945 0.73788 0.43681 0.0
C247 C 1.03869 0.46978 0.41657 0.0
C248 C 0.06224 0.51117 0.43808 0.0
H249 H 0.17975 0.69162 0.51257 0.0
H250 H 0.11451 0.59912 0.49236 0.0
H251 H 0.2485 0.62277 0.41851 0.0
H252 H 0.11979 0.68334 0.4038 0.0
H253 H 0.13322 0.65219 0.37393 0.0
H254 H 0.18735 0.71309 0.39135 0.0
H255 H 0.2538 0.67038 0.39414 0.0
H256 H 0.22117 0.59343 0.38664 0.0
C257 C 0.06941 0.48117 0.48341 0.0
C258 C 1.00285 0.53111 0.47337 0.0
C259 C 0.06872 0.46924 0.31933 0.0
C260 C 0.10657 0.50798 0.3042 0.0
C261 C 0.14738 0.55834 0.31713 0.0
C262 C 0.14944 0.57038 0.34443 0.0
C263 C 0.11056 0.53155 0.35911 0.0
C264 C 0.07189 0.4815 0.34653 0.0
C265 C 1.03528 0.44394 0.36519 0.0
C266 C 0.05751 0.48042 0.39112 0.0
C267 C 0.10105 0.53186 0.38742 0.0
C268 C 0.04495 0.38707 0.36345 0.0
C269 C 0.97512 0.43655 0.35829 0.0
C270 C 0.21182 0.70799 0.44898 0.0
C271 C 0.2136 0.72195 0.47611 0.0
C272 C 0.17843 0.68157 0.49154 0.0
C273 C 0.14082 0.62812 0.47978 0.0
C274 C 0.13926 0.61494 0.45243 0.0
C275 C 0.17509 0.6545 0.43765 0.0
C276 C 0.17039 0.63281 0.40917 0.0
C277 C 0.12535 0.57376 0.40905 0.0
C278 C 0.10653 0.56349 0.43433 0.0
C279 C 0.22628 0.62992 0.40148 0.0
C280 C 0.15204 0.67233 0.39353 0.0
H281 H 0.96106 0.3551 0.39248 0.0
H282 H 0.94242 0.40753 0.48647 0.0
H283 H 0.96961 0.52882 0.45914 0.0
H284 H 1.03086 0.57665 0.47662 0.0
H285 H 0.98374 0.51803 0.4921 0.0
H286 H 0.07374 0.43958 0.4782 0.0
H287 H 0.05204 0.48003 0.50305 0.0
H288 H 0.11203 0.51368 0.48471 0.0
H289 H 1.03635 0.43042 0.31028 0.0
H290 H 0.17795 0.58851 0.30618 0.0
H291 H 0.18109 0.60961 0.35303 0.0
H292 H 0.08584 0.39237 0.35576 0.0
H293 H 1.01305 0.35271 0.35028 0.0
H294 H 0.04578 0.37185 0.38289 0.0
H295 H 0.97362 0.47787 0.35367 0.0
H296 H 0.94744 0.42362 0.3745 0.0
H297 H 0.95741 0.40461 0.3409 0.0
H298 H 0.89047 0.28928 0.41583 0.0
C299 C 0.95873 0.36805 0.41273 0.0
C300 C 0.6389 0.0306 0.82825 0.0
C301 C 0.63337 0.97586 0.81655 0.0
C302 C 0.61457 0.95919 0.79021 0.0
C303 C 0.61176 0.05215 0.78644 0.0
C304 C 0.62714 0.06808 0.81276 0.0
C305 C 0.62892 0.1278 0.82116 0.0
H306 H 0.61981 0.37466 0.78151 0.0
C307 C 0.60717 0.10117 0.77496 0.0
C308 C 0.61673 0.14614 0.79507 0.0
H309 H 0.63235 0.34026 0.86144 0.0
H310 H 0.63023 0.24522 0.84609 0.0
H311 H 0.7014 0.31934 0.75816 0.0
H312 H 0.5257 0.25835 0.76341 0.0
H313 H 0.53675 0.23079 0.73234 0.0
H314 H 0.56205 0.30738 0.74072 0.0
H315 H 0.6585 0.33915 0.73699 0.0
H316 H 0.67345 0.27602 0.7287 0.0
C317 C 0.6871 0.16606 0.83305 0.0
C318 C 0.58275 0.12223 0.84031 0.0
C319 C 0.58154 0.08798 0.67608 0.0
C320 C 0.5826 0.1283 0.65902 0.0
C321 C 0.58862 0.18383 0.66947 0.0
C322 C 0.59407 0.19919 0.69656 0.0
C323 C 0.59388 0.15871 0.71344 0.0
C324 C 0.58766 0.10424 0.7031 0.0
C325 C 0.59084 0.06773 0.72387 0.0
C326 C 0.59959 0.10923 0.74847 0.0
C327 C 0.60112 0.16214 0.74221 0.0
C328 C 0.64158 0.05172 0.71889 0.0
C329 C 0.53473 0.01585 0.72307 0.0
C330 C 0.62285 0.34711 0.7958 0.0
C331 C 0.62703 0.36521 0.82263 0.0
C332 C 0.62924 0.32722 0.84058 0.0
C333 C 0.62777 0.27214 0.83165 0.0
C334 C 0.62286 0.25457 0.80453 0.0
C335 C 0.62019 0.29222 0.78729 0.0
C336 C 0.61215 0.26694 0.75932 0.0
C337 C 0.60946 0.20736 0.76228 0.0
C338 C 0.61662 0.19979 0.78871 0.0
C339 C 0.66363 0.3021 0.74481 0.0
C340 C 0.55658 0.26597 0.74811 0.0
H341 H 0.59047 0.98147 0.75509 0.0
H342 H 0.65258 0.04389 0.84866 0.0
H343 H 0.54453 0.08445 0.83358 0.0
H344 H 0.57064 0.15941 0.84163 0.0
H345 H 0.59545 0.11653 0.86021 0.0
H346 H 0.71906 0.16263 0.81977 0.0
H347 H 0.69466 0.1528 0.85223 0.0
H348 H 0.69353 0.21181 0.836 0.0
H349 H 0.57772 0.04521 0.66854 0.0
H350 H 0.58903 0.21541 0.65663 0.0
H351 H 0.59863 0.24217 0.70323 0.0
H352 H 0.67588 0.08773 0.71146 0.0
H353 H 0.63098 0.01379 0.70406 0.0
H354 H 0.6597 0.0434 0.73674 0.0
H355 H 0.50035 0.02652 0.71552 0.0
H356 H 0.52265 1.00279 0.74276 0.0
H357 H 0.53533 0.97842 0.71017 0.0
H358 H 0.60979 0.91719 0.78101 0.0
C359 C 0.60365 0.99679 0.77516 0.0
C360 C 0.70864 0.44826 0.13386 0.0
C361 C 0.75885 0.4584 0.12084 0.0
C362 C 0.76353 0.47948 0.09635 0.0
C363 C 0.67311 0.48429 0.09842 0.0
C364 C 0.66552 0.46071 0.12191 0.0
C365 C 0.6071 0.45053 0.13081 0.0
H366 H 0.37005 0.5053 0.1077 0.0
C367 C 0.62453 0.49729 0.09159 0.0
C368 C 0.5845 0.47791 0.11035 0.0
H369 H 0.38499 0.39536 0.16368 0.0
H370 H 0.48079 0.41572 0.15181 0.0
H371 H 0.48953 0.6037 0.1186 0.0
H372 H 0.4163 0.45373 0.06366 0.0
H373 H 0.4605 0.50589 0.04555 0.0
H374 H 0.40468 0.5183 0.06131 0.0
H375 H 0.44714 0.60184 0.09064 0.0
H376 H 0.52098 0.62323 0.08918 0.0
C377 C 0.6102 0.48053 0.15858 0.0
C378 C 0.57409 0.38538 0.12919 0.0
C379 C 0.63181 0.60157 0.01113 0.0
C380 C 0.59705 0.6258 0.00066 0.0
C381 C 0.55158 0.62632 0.01485 0.0
C382 C 0.53929 0.60053 0.0381 0.0
C383 C 0.57291 0.57402 0.04758 0.0
C384 C 0.61924 0.57664 0.03461 0.0
C385 C 0.65212 0.54958 0.04842 0.0
C386 C 0.6165 0.52806 0.07133 0.0
C387 C 0.56976 0.54143 0.07035 0.0
C388 C 0.70917 0.59749 0.05744 0.0
C389 C 0.65449 0.49915 0.02951 0.0
C390 C 0.39361 0.48596 0.11791 0.0
C391 C 0.36929 0.44925 0.13688 0.0
C392 C 0.40212 0.42388 0.14886 0.0
C393 C 0.45759 0.43537 0.14189 0.0
C394 C 0.48042 0.47139 0.12218 0.0
C395 C 0.44754 0.4955 0.11073 0.0
C396 C 0.47424 0.52912 0.08895 0.0
C397 C 0.52825 0.52093 0.0884 0.0
C398 C 0.53389 0.48814 0.10821 0.0
C399 C 0.48324 0.59275 0.09698 0.0
C400 C 0.43725 0.50098 0.0635 0.0
H401 H 0.72929 0.50896 0.0667 0.0
H402 H 0.70319 0.43101 0.15255 0.0
H403 H 0.57667 0.36432 0.10952 0.0
H404 H 0.52998 0.37473 0.13229 0.0
H405 H 0.59072 0.36629 0.14407 0.0
H406 H 0.63652 0.52696 0.15934 0.0
H407 H 0.62814 0.4615 0.17294 0.0
H408 H 0.56881 0.47659 0.16474 0.0
H409 H 0.66716 0.60017 0.00095 0.0
H410 H 0.52488 0.64608 0.00782 0.0
H411 H 0.50327 0.60123 0.04744 0.0
H412 H 0.72361 0.59365 0.07722 0.0
H413 H 0.70761 0.64087 0.05918 0.0
H414 H 0.74105 0.5979 0.04338 0.0
H415 H 0.61527 0.47739 0.01735 0.0
H416 H 0.65914 0.46488 0.03983 0.0
H417 H 0.68844 0.51445 0.01596 0.0
H418 H 0.80089 0.48746 0.08588 0.0
C419 C 0.72165 0.49244 0.08526 0.0
C420 C 0.214 0.36814 0.14506 0.0
C421 C 0.19317 0.41186 0.14508 0.0
H422 H 0.2849 0.34513 0.14285 0.0
C423 C 0.23158 0.46844 0.14494 0.0
H424 H 0.1859 0.32399 0.1454 0.0
C425 C 0.28852 0.4806 0.1435 0.0
C426 C 0.30935 0.43665 0.14242 0.0
H427 H 0.21769 0.50344 0.14577 0.0
H428 H 0.31637 0.52475 0.14287 0.0
C429 C 0.27107 0.3803 0.14383 0.0
C430 C 0.80856 0.20392 0.47171 0.0
C431 C 0.76513 0.21974 0.47984 0.0
H432 H 0.88956 0.23151 0.45705 0.0
C433 C 0.7728 0.27791 0.48224 0.0
H434 H 0.8038 0.1594 0.46986 0.0
C435 C 0.8223 0.31931 0.47532 0.0
C436 C 0.86436 0.30286 0.46565 0.0
H437 H 0.73994 0.29113 0.48865 0.0
H438 H 0.82644 0.36356 0.47607 0.0
C439 C 0.85763 0.24509 0.46452 0.0
C440 C 0.71538 0.88928 0.83221 0.0
C441 C 0.6744 0.84044 0.84059 0.0
H442 H 0.73454 0.972 0.81892 0.0
C443 C 0.62207 0.8412 0.84524 0.0
H444 H 0.75616 0.89006 0.82855 0.0
C445 C 0.60981 0.88826 0.83977 0.0
C446 C 0.65005 0.93576 0.8301 0.0
H447 H 0.58989 0.80441 0.85191 0.0
H448 H 0.56805 0.88613 0.8416 0.0
C449 C 0.70331 0.9365 0.82704 0.0
C450 C 0.88339 0.41607 0.12244 0.0
C451 C 0.92107 0.4609 0.1397 0.0
H452 H 0.80204 0.37932 0.10336 0.0
C453 C 0.90081 0.49835 0.15408 0.0
H454 H 0.89716 0.38642 0.11097 0.0
C455 C 0.84579 0.49343 0.15018 0.0
C456 C 0.80908 0.45099 0.13167 0.0
H457 H 0.92836 0.53338 0.1676 0.0
H458 H 0.83317 0.52555 0.16025 0.0
C459 C 0.82849 0.4116 0.1183 0.0
C460 C 0.34325 0.83424 0.50986 0.0
C461 C 0.34379 0.88362 0.49941 0.0
H462 H 0.30013 0.74355 0.51098 0.0
C463 C 0.2973 0.88071 0.48466 0.0
H464 H 0.37873 0.83539 0.52124 0.0
C465 C 0.25286 0.82839 0.47868 0.0
C466 C 0.25383 0.77829 0.48766 0.0
H467 H 0.29663 0.91812 0.47639 0.0
H468 H 0.21895 0.82643 0.46588 0.0
C469 C 0.29835 0.78186 0.50411 0.0
C470 C 0.57901 0.48081 0.85127 0.0
C471 C 0.61112 0.52762 0.83816 0.0
H472 H 0.5597 0.39258 0.8571 0.0
C473 C 0.65268 0.52236 0.8225 0.0
H474 H 0.54686 0.48381 0.86359 0.0
C475 C 0.66011 0.47054 0.8189 0.0
C476 C 0.62633 0.42273 0.83095 0.0
H477 H 0.67838 0.55774 0.81229 0.0
H478 H 0.69118 0.4672 0.80591 0.0
C479 C 0.58671 0.42884 0.84779 0.0
C480 C 0.52587 0.88002 0.4891 0.0
C481 C 0.57761 0.92319 0.49719 0.0
H482 H 0.47208 0.79146 0.49001 0.0
C483 C 0.61833 0.90767 0.50821 0.0
H484 H 0.49424 0.89053 0.47989 0.0
C485 C 0.60655 0.85107 0.51278 0.0
C486 C 0.5536 0.80879 0.50677 0.0
H487 H 0.65885 0.93974 0.51432 0.0
H488 H 0.6377 0.84108 0.52284 0.0
C489 C 0.51354 0.82322 0.49433 0.0
C490 C 0.7842 0.55815 0.85531 0.0
C491 C 0.80871 0.61447 0.84869 0.0
H492 H 0.78899 0.4763 0.85508 0.0
C493 C 0.8596 0.63206 0.83704 0.0
H494 H 0.74433 0.54305 0.86386 0.0
C495 C 0.88626 0.59399 0.83269 0.0
C496 C 0.86165 0.53741 0.83936 0.0
H497 H 0.87883 0.67511 0.83148 0.0
H498 H 0.92668 0.60941 0.82473 0.0
C499 C 0.8098 0.51975 0.85024 0.0
C500 C 0.26809 0.65919 0.12028 0.0
C501 C 0.21689 0.65794 0.12858 0.0
H502 H 0.35554 0.70729 0.12123 0.0
C503 C 0.21384 0.70799 0.14131 0.0
H504 H 0.27152 0.62108 0.11045 0.0
C505 C 0.26174 0.75701 0.14753 0.0
C506 C 0.31353 0.757 0.14099 0.0
H507 H 0.17489 0.70827 0.14784 0.0
H508 H 0.25865 0.79407 0.15864 0.0
C509 C 0.3161 0.70851 0.12636 0.0
C510 C 0.49069 0.21478 0.48344 0.0
C511 C 0.52684 0.19338 0.49474 0.0
H512 H 0.46898 0.28749 0.48066 0.0
C513 C 0.57238 0.2315 0.51062 0.0
H514 H 0.45525 0.18636 0.47109 0.0
C515 C 0.5805 0.28928 0.51592 0.0
C516 C 0.54309 0.31044 0.5056 0.0
H517 H 0.60082 0.21635 0.51975 0.0
H518 H 0.61549 0.31719 0.52867 0.0
C519 C 0.49879 0.27278 0.48877 0.0
C520 C 0.38808 0.60704 0.80344 0.0
C521 C 0.41883 0.64963 0.82347 0.0
H522 H 0.31088 0.53746 0.79206 0.0
C523 C 0.39207 0.66305 0.845 0.0
H524 H 0.40798 0.5962 0.7866 0.0
C525 C 0.33702 0.62912 0.84818 0.0
C526 C 0.30824 0.58234 0.82964 0.0
H527 H 0.41492 0.69574 0.86065 0.0
H528 H 0.3182 0.63656 0.86607 0.0
C529 C 0.3328 0.57341 0.80653 0.0
C530 C 0.83308 0.25271 0.16039 0.0
C531 C 0.87696 0.23875 0.15127 0.0
H532 H 0.75216 0.22209 0.17499 0.0
C533 C 0.86989 0.18083 0.1468 0.0
H534 H 0.83715 0.29698 0.16366 0.0
C535 C 0.82075 0.13775 0.1532 0.0
C536 C 0.77835 0.15243 0.16382 0.0
H537 H 0.90316 0.16914 0.13964 0.0
H538 H 0.81718 0.09361 0.15135 0.0
C539 C 0.78425 0.20995 0.16658 0.0
C540 C 0.08065 0.43729 0.04014 0.0
C541 C 0.04586 0.39779 0.05589 0.0
H542 H 0.10344 0.45654 0.00138 0.0
C543 C 1.00799 0.34471 0.04394 0.0
H544 H 0.11044 0.47841 0.04869 0.0
C545 C 1.00417 0.33203 0.01674 0.0
C546 C 1.03855 0.37191 0.00103 0.0
H547 H 0.98062 0.31323 0.05553 0.0
H548 H 0.97412 0.29126 0.00798 0.0
C549 C 0.0771 0.42444 0.01303 0.0
C550 C 0.57972 0.03827 0.39579 0.0
C551 C 0.5327 0.02926 0.41015 0.0
H552 H 0.61179 0.0298 0.35848 0.0
C553 C 0.48051 1.00712 0.39697 0.0
H554 H 0.62037 0.05434 0.40558 0.0
C555 C 0.47548 0.99478 0.36973 0.0
C556 C 0.52249 1.00292 0.3552 0.0
H557 H 0.44364 0.99998 0.4077 0.0
H558 H 0.43474 0.97936 0.36013 0.0
C559 C 0.57465 0.02445 0.3687 0.0
C560 C 0.67663 0.65324 0.7457 0.0
C561 C 0.64357 0.67784 0.75929 0.0
H562 H 0.69224 0.61617 0.70897 0.0
C563 C 0.60152 0.68623 0.74529 0.0
H564 H 0.70936 0.64613 0.7559 0.0
C565 C 0.59123 0.66828 0.71854 0.0
C566 C 0.62298 0.64186 0.70508 0.0
H567 H 0.57505 0.70474 0.75512 0.0
H568 H 0.55707 0.67339 0.70862 0.0
C569 C 0.66641 0.63542 0.71887 0.0
C570 C 0.53466 0.04868 0.59141 0.0
C571 C 0.57188 0.08623 0.57565 0.0
H572 H 0.50901 0.03264 0.63032 0.0
C573 C 0.61329 0.13689 0.5876 0.0
H574 H 0.5024 1.00925 0.58276 0.0
C575 C 0.61668 0.15037 0.61468 0.0
C576 C 0.57914 0.11323 0.63038 0.0
H577 H 0.64255 0.16684 0.57604 0.0
H578 H 0.64886 0.18984 0.62337 0.0
C579 C 0.5385 0.06191 0.61858 0.0
C580 C 0.56832 0.65295 0.93171 0.0
C581 C 0.6216 0.67558 0.92243 0.0
H582 H 0.51871 0.61799 0.96315 0.0
C583 C 0.66718 0.68601 0.93966 0.0
H584 H 0.53226 0.64385 0.91887 0.0
C585 C 0.65948 0.67228 0.96541 0.0
C586 C 0.60598 0.6469 0.97436 0.0
H587 H 0.70881 0.70383 0.93312 0.0
H588 H 0.69551 0.68071 0.97814 0.0
C589 C 0.56057 0.63835 0.95727 0.0
C590 C 0.10706 0.53004 0.23208 0.0
C591 C 0.08649 0.47331 0.22014 0.0
H592 H 0.12784 0.58554 0.26791 0.0
C593 C 0.07513 0.42825 0.23577 0.0
H594 H 0.11592 0.56556 0.22041 0.0
C595 C 0.08362 0.43964 0.26293 0.0
C596 C 0.10226 0.49632 0.27513 0.0
H597 H 0.06006 0.38414 0.22698 0.0
H598 H 0.07536 0.4038 0.27431 0.0
C599 C 0.11431 0.54144 0.25931 0.0
loop_
_geom_bond_atom_site_label_1
_geom_bond_atom_site_label_2
_geom_bond_distance
_geom_bond_site_symmetry_2
_ccdc_geom_bond_type
Tb0 O3 2.453 1_455 S
Tb0 O4 2.596 1_455 S
Tb0 O5 2.374 . S
Tb0 O13 2.343 . S
Tb0 O15 2.353 . S
Tb0 O17 2.427 . S
Tb0 O18 2.513 . S
C1 O5 1.251 . S
C1 O7 1.263 . S
Tb2 O4 2.343 1_455 S
Tb2 O7 2.353 . S
Tb2 O10 2.427 1_455 S
Tb2 O11 2.513 1_455 S
Tb2 O12 2.453 . S
Tb2 O13 2.596 . S
Tb2 O14 2.374 . S
O3 Tb0 2.453 1_655 S
O3 C19 1.245 . S
O4 Tb0 2.596 1_655 S
O4 Tb2 2.343 1_655 S
O4 C19 1.259 . S
O5 Tb0 2.374 . S
O5 C1 1.251 . S
C6 O10 1.275 . S
C6 O11 1.246 . S
O7 C1 1.263 . S
O7 Tb2 2.353 . S
C8 O12 1.245 . S
C8 O13 1.259 . S
C9 O14 1.250 . S
C9 O15 1.263 . S
O10 Tb2 2.427 1_655 S
O10 C6 1.275 . S
O11 Tb2 2.513 1_655 S
O11 C6 1.246 . S
O12 Tb2 2.453 . S
O12 C8 1.245 . S
O13 Tb0 2.343 . S
O13 Tb2 2.596 . S
O13 C8 1.259 . S
O14 Tb2 2.374 . S
O14 C9 1.250 . S
O15 Tb0 2.353 . S
O15 C9 1.263 . S
C16 O17 1.275 . S
C16 O18 1.246 . S
O17 Tb0 2.427 . S
O17 C16 1.275 . S
O18 Tb0 2.513 . S
O18 C16 1.246 . S
C19 O3 1.245 . S
C19 O4 1.259 . S
Tb20 O23 2.453 . S
Tb20 O24 2.596 . S
Tb20 O25 2.374 . S
Tb20 O33 2.343 1_545 S
Tb20 O35 2.353 . S
Tb20 O37 2.427 1_545 S
Tb20 O38 2.513 1_545 S
C21 O25 1.251 . S
C21 O27 1.263 . S
Tb22 O24 2.343 . S
Tb22 O27 2.353 . S
Tb22 O30 2.427 . S
Tb22 O31 2.513 . S
Tb22 O32 2.453 1_545 S
Tb22 O33 2.596 1_545 S
Tb22 O34 2.374 . S
O23 Tb20 2.453 . S
O23 C39 1.245 . S
O24 Tb20 2.596 . S
O24 Tb22 2.343 . S
O24 C39 1.259 . S
O25 Tb20 2.374 . S
O25 C21 1.251 . S
C26 O30 1.275 . S
C26 O31 1.246 . S
O27 C21 1.263 . S
O27 Tb22 2.353 . S
C28 O32 1.245 . S
C28 O33 1.259 . S
C29 O34 1.250 . S
C29 O35 1.263 . S
O30 Tb22 2.427 . S
O30 C26 1.275 . S
O31 Tb22 2.513 . S
O31 C26 1.246 . S
O32 Tb22 2.453 1_565 S
O32 C28 1.245 . S
O33 Tb20 2.343 1_565 S
O33 Tb22 2.596 1_565 S
O33 C28 1.259 . S
O34 Tb22 2.374 . S
O34 C29 1.250 . S
O35 Tb20 2.353 . S
O35 C29 1.263 . S
C36 O37 1.275 . S
C36 O38 1.246 . S
O37 Tb20 2.427 1_565 S
O37 C36 1.275 . S
O38 Tb20 2.513 1_565 S
O38 C36 1.246 . S
C39 O23 1.245 . S
C39 O24 1.259 . S
Tb40 O43 2.453 . S
Tb40 O44 2.596 . S
Tb40 O45 2.374 . S
Tb40 O53 2.343 . S
Tb40 O55 2.353 . S
Tb40 O57 2.427 . S
Tb40 O58 2.513 . S
C41 O45 1.251 . S
C41 O47 1.263 . S
Tb42 O44 2.343 . S
Tb42 O47 2.353 . S
Tb42 O50 2.427 . S
Tb42 O51 2.513 . S
Tb42 O52 2.453 . S
Tb42 O53 2.596 . S
Tb42 O54 2.374 . S
O43 Tb40 2.453 . S
O43 C59 1.245 . S
O44 Tb40 2.596 . S
O44 Tb42 2.343 . S
O44 C59 1.259 . S
O45 Tb40 2.374 . S
O45 C41 1.251 . S
C46 O50 1.275 . S
C46 O51 1.246 . S
O47 C41 1.263 . S
O47 Tb42 2.353 . S
C48 O52 1.245 . S
C48 O53 1.259 . S
C49 O54 1.250 . S
C49 O55 1.263 . S
O50 Tb42 2.427 . S
O50 C46 1.275 . S
O51 Tb42 2.513 . S
O51 C46 1.246 . S
O52 Tb42 2.453 . S
O52 C48 1.245 . S
O53 Tb40 2.343 . S
O53 Tb42 2.596 . S
O53 C48 1.259 . S
O54 Tb42 2.374 . S
O54 C49 1.250 . S
O55 Tb40 2.353 . S
O55 C49 1.263 . S
C56 O57 1.275 . S
C56 O58 1.246 . S
O57 Tb40 2.427 . S
O57 C56 1.275 . S
O58 Tb40 2.513 . S
O58 C56 1.246 . S
C59 O43 1.245 . S
C59 O44 1.259 . S
C60 C61 1.391 . S
C60 C64 1.391 . S
C60 H102 0.948 . S
C61 C60 1.391 . S
C61 C62 1.391 . S
C62 C61 1.391 . S
C62 H118 0.947 . S
C62 C119 1.392 . S
C63 C64 1.391 . S
C63 C67 1.397 . S
C63 C119 1.419 . S
C64 C60 1.391 . S
C64 C63 1.391 . S
C64 C65 1.399 . S
C65 C64 1.399 . S
C65 C68 1.396 . S
C65 C77 1.453 . S
C65 C78 1.684 . S
H66 C90 0.948 . S
C67 C63 1.397 . S
C67 C68 1.394 . S
C67 C86 1.723 . S
C68 C65 1.396 . S
C68 C67 1.394 . S
C68 C98 1.723 1_545 S
H69 C92 0.947 . S
H70 C93 0.948 . S
H71 C99 0.982 . S
H72 C100 0.979 . S
H73 C100 0.980 . S
H74 C100 0.983 . S
H75 C99 0.979 . S
H76 C99 0.977 . S
C77 C65 1.453 . S
C77 H106 0.982 . S
C77 H107 0.979 . S
C77 H108 0.977 1_545 S
C78 C65 1.684 . S
C78 H103 0.979 . S
C78 H104 0.980 . S
C78 H105 0.983 . S
C79 C80 1.391 . S
C79 C84 1.391 . S
C79 H109 0.948 . S
C80 C79 1.391 . S
C80 C81 1.391 . S
C81 C80 1.391 . S
C81 C82 1.392 . S
C81 H110 0.947 1_545 S
C82 C81 1.392 . S
C82 C83 1.419 . S
C82 H111 0.948 1_545 S
C83 C82 1.419 . S
C83 C84 1.391 . S
C83 C87 1.397 . S
C84 C79 1.391 . S
C84 C83 1.391 . S
C84 C85 1.399 . S
C85 C84 1.399 . S
C85 C86 1.396 . S
C85 C88 1.453 . S
C85 C89 1.684 . S
C86 C67 1.723 . S
C86 C85 1.396 . S
C86 C87 1.394 . S
C87 C83 1.397 . S
C87 C86 1.394 . S
C87 C97 1.723 1_545 S
C88 C85 1.453 . S
C88 H112 0.982 . S
C88 H113 0.979 . S
C88 H114 0.977 . S
C89 C85 1.684 . S
C89 H115 0.979 . S
C89 H116 0.980 . S
C89 H117 0.983 . S
C90 H66 0.948 . S
C90 C91 1.391 . S
C90 C95 1.391 . S
C91 C90 1.391 . S
C91 C92 1.391 . S
C92 H69 0.947 . S
C92 C91 1.391 . S
C92 C93 1.392 . S
C93 H70 0.948 . S
C93 C92 1.392 . S
C93 C94 1.419 . S
C94 C93 1.419 . S
C94 C95 1.391 . S
C94 C98 1.397 . S
C95 C90 1.391 . S
C95 C94 1.391 . S
C95 C96 1.399 . S
C96 C95 1.399 . S
C96 C97 1.396 . S
C96 C99 1.453 . S
C96 C100 1.684 . S
C97 C87 1.723 1_565 S
C97 C96 1.396 . S
C97 C98 1.394 . S
C98 C68 1.723 1_565 S
C98 C94 1.397 . S
C98 C97 1.394 . S
C99 H71 0.982 . S
C99 H75 0.979 . S
C99 H76 0.977 . S
C99 C96 1.453 . S
C100 H72 0.979 . S
C100 H73 0.980 . S
C100 H74 0.983 . S
C100 C96 1.684 . S
H101 C119 0.948 . S
H102 C60 0.948 . S
H103 C78 0.979 . S
H104 C78 0.980 . S
H105 C78 0.983 . S
H106 C77 0.982 . S
H107 C77 0.979 . S
H108 C77 0.977 1_565 S
H109 C79 0.948 . S
H110 C81 0.947 1_565 S
H111 C82 0.948 1_565 S
H112 C88 0.982 . S
H113 C88 0.979 . S
H114 C88 0.977 . S
H115 C89 0.979 . S
H116 C89 0.980 . S
H117 C89 0.983 . S
H118 C62 0.947 . S
C119 C62 1.392 . S
C119 C63 1.419 . S
C119 H101 0.948 . S
C120 C121 1.391 . S
C120 C124 1.391 . S
C120 H162 0.948 . S
C121 C120 1.391 . S
C121 C122 1.391 . S
C122 C121 1.391 . S
C122 H178 0.947 . S
C122 C179 1.392 . S
C123 C124 1.391 . S
C123 C127 1.397 . S
C123 C179 1.419 . S
C124 C120 1.391 . S
C124 C123 1.391 . S
C124 C125 1.399 . S
C125 C124 1.399 . S
C125 C128 1.396 . S
C125 C137 1.453 . S
C125 C138 1.684 . S
H126 C150 0.948 . S
C127 C123 1.397 . S
C127 C128 1.394 . S
C127 C146 1.723 . S
C128 C125 1.396 . S
C128 C127 1.394 . S
C128 C158 1.723 . S
H129 C152 0.947 . S
H130 C153 0.948 . S
H131 C159 0.982 . S
H132 C160 0.979 . S
H133 C160 0.980 . S
H134 C160 0.983 . S
H135 C159 0.979 . S
H136 C159 0.977 . S
C137 C125 1.453 . S
C137 H166 0.982 . S
C137 H167 0.979 . S
C137 H168 0.977 . S
C138 C125 1.684 . S
C138 H163 0.979 . S
C138 H164 0.980 . S
C138 H165 0.983 . S
C139 C140 1.391 . S
C139 C144 1.391 . S
C139 H169 0.948 . S
C140 C139 1.391 . S
C140 C141 1.391 . S
C141 C140 1.391 . S
C141 C142 1.392 . S
C141 H170 0.947 . S
C142 C141 1.392 . S
C142 C143 1.419 . S
C142 H171 0.948 . S
C143 C142 1.419 . S
C143 C144 1.391 . S
C143 C147 1.397 . S
C144 C139 1.391 . S
C144 C143 1.391 . S
C144 C145 1.399 . S
C145 C144 1.399 . S
C145 C146 1.396 . S
C145 C148 1.453 . S
C145 C149 1.684 . S
C146 C127 1.723 . S
C146 C145 1.396 . S
C146 C147 1.394 . S
C147 C143 1.397 . S
C147 C146 1.394 . S
C147 C157 1.723 . S
C148 C145 1.453 . S
C148 H172 0.982 . S
C148 H173 0.979 . S
C148 H174 0.977 . S
C149 C145 1.684 . S
C149 H175 0.979 . S
C149 H176 0.980 . S
C149 H177 0.983 . S
C150 H126 0.948 . S
C150 C151 1.391 . S
C150 C155 1.391 . S
C151 C150 1.391 . S
C151 C152 1.391 . S
C152 H129 0.947 . S
C152 C151 1.391 . S
C152 C153 1.392 . S
C153 H130 0.948 . S
C153 C152 1.392 . S
C153 C154 1.419 . S
C154 C153 1.419 . S
C154 C155 1.391 . S
C154 C158 1.397 . S
C155 C150 1.391 . S
C155 C154 1.391 . S
C155 C156 1.399 . S
C156 C155 1.399 . S
C156 C157 1.396 . S
C156 C159 1.453 . S
C156 C160 1.684 . S
C157 C147 1.723 . S
C157 C156 1.396 . S
C157 C158 1.394 . S
C158 C128 1.723 . S
C158 C154 1.397 . S
C158 C157 1.394 . S
C159 H131 0.982 . S
C159 H135 0.979 . S
C159 H136 0.977 . S
C159 C156 1.453 . S
C160 H132 0.979 . S
C160 H133 0.980 . S
C160 H134 0.983 . S
C160 C156 1.684 . S
H161 C179 0.948 . S
H162 C120 0.948 . S
H163 C138 0.979 . S
H164 C138 0.980 . S
H165 C138 0.983 . S
H166 C137 0.982 . S
H167 C137 0.979 . S
H168 C137 0.977 . S
H169 C139 0.948 . S
H170 C141 0.947 . S
H171 C142 0.948 . S
H172 C148 0.982 . S
H173 C148 0.979 . S
H174 C148 0.977 . S
H175 C149 0.979 . S
H176 C149 0.980 . S
H177 C149 0.983 . S
H178 C122 0.947 . S
C179 C122 1.392 . S
C179 C123 1.419 . S
C179 H161 0.948 . S
C180 C181 1.391 . S
C180 C184 1.391 . S
C180 H222 0.948 . S
C181 C180 1.391 . S
C181 C182 1.391 . S
C182 C181 1.391 . S
C182 H238 0.947 . S
C182 C239 1.392 . S
C183 C184 1.391 . S
C183 C187 1.397 . S
C183 C239 1.419 . S
C184 C180 1.391 . S
C184 C183 1.391 . S
C184 C185 1.399 . S
C185 C184 1.399 . S
C185 C188 1.396 . S
C185 C197 1.453 . S
C185 C198 1.684 . S
H186 C210 0.948 . S
C187 C183 1.397 . S
C187 C188 1.394 . S
C187 C206 1.723 . S
C188 C185 1.396 . S
C188 C187 1.394 . S
C188 C218 1.723 . S
H189 C212 0.947 . S
H190 C213 0.948 1_455 S
H191 C219 0.982 . S
H192 C220 0.979 . S
H193 C220 0.980 . S
H194 C220 0.983 . S
H195 C219 0.979 . S
H196 C219 0.977 . S
C197 C185 1.453 . S
C197 H226 0.982 . S
C197 H227 0.979 . S
C197 H228 0.977 . S
C198 C185 1.684 . S
C198 H223 0.979 . S
C198 H224 0.980 . S
C198 H225 0.983 . S
C199 C200 1.391 1_556 S
C199 C204 1.391 . S
C199 H229 0.948 . S
C200 C199 1.391 1_554 S
C200 C201 1.391 1_554 S
C201 C200 1.391 1_556 S
C201 C202 1.392 . S
C201 H230 0.942 1_456 S
C202 C201 1.392 . S
C202 C203 1.419 . S
C202 H231 0.948 1_455 S
C203 C202 1.419 . S
C203 C204 1.391 . S
C203 C207 1.397 . S
C204 C199 1.391 . S
C204 C203 1.391 . S
C204 C205 1.399 . S
C205 C204 1.399 . S
C205 C206 1.396 . S
C205 C208 1.453 . S
C205 C209 1.684 . S
C206 C187 1.723 . S
C206 C205 1.396 . S
C206 C207 1.394 . S
C207 C203 1.397 . S
C207 C206 1.394 . S
C207 C217 1.723 . S
C208 C205 1.453 . S
C208 H232 0.982 . S
C208 H233 0.979 . S
C208 H234 0.977 . S
C209 C205 1.684 . S
C209 H235 0.979 . S
C209 H236 0.980 . S
C209 H237 0.983 . S
C210 H186 0.948 . S
C210 C211 1.391 . S
C210 C215 1.391 . S
C211 C210 1.391 . S
C211 C212 1.391 . S
C212 H189 0.947 . S
C212 C211 1.391 . S
C212 C213 1.392 . S
C213 H190 0.948 1_655 S
C213 C212 1.392 . S
C213 C214 1.419 . S
C214 C213 1.419 . S
C214 C215 1.391 . S
C214 C218 1.397 1_655 S
C215 C210 1.391 . S
C215 C214 1.391 . S
C215 C216 1.399 . S
C216 C215 1.399 . S
C216 C217 1.396 1_655 S
C216 C219 1.453 . S
C216 C220 1.684 . S
C217 C207 1.723 . S
C217 C216 1.396 1_455 S
C217 C218 1.394 . S
C218 C188 1.723 . S
C218 C214 1.397 1_455 S
C218 C217 1.394 . S
C219 H191 0.982 . S
C219 H195 0.979 . S
C219 H196 0.977 . S
C219 C216 1.453 . S
C220 H192 0.979 . S
C220 H193 0.980 . S
C220 H194 0.983 . S
C220 C216 1.684 . S
H221 C239 0.948 . S
H222 C180 0.948 . S
H223 C198 0.979 . S
H224 C198 0.980 . S
H225 C198 0.983 . S
H226 C197 0.982 . S
H227 C197 0.979 . S
H228 C197 0.977 . S
H229 C199 0.948 . S
H230 C201 0.942 1_654 S
H231 C202 0.948 1_655 S
H232 C208 0.982 . S
H233 C208 0.979 . S
H234 C208 0.977 . S
H235 C209 0.979 . S
H236 C209 0.980 . S
H237 C209 0.983 . S
H238 C182 0.947 . S
C239 C182 1.392 . S
C239 C183 1.419 . S
C239 H221 0.948 . S
C240 C241 1.391 . S
C240 C244 1.391 . S
C240 H282 0.948 . S
C241 C240 1.391 . S
C241 C242 1.391 . S
C242 C241 1.391 . S
C242 H298 0.947 . S
C242 C299 1.392 . S
C243 C244 1.391 . S
C243 C247 1.397 . S
C243 C299 1.419 . S
C244 C240 1.391 . S
C244 C243 1.391 . S
C244 C245 1.399 . S
C245 C244 1.399 . S
C245 C248 1.396 . S
C245 C257 1.453 . S
C245 C258 1.684 . S
H246 C270 0.948 . S
C247 C243 1.397 . S
C247 C248 1.394 . S
C247 C266 1.723 . S
C248 C245 1.396 . S
C248 C247 1.394 . S
C248 C278 1.723 1_655 S
H249 C272 0.947 . S
H250 C273 0.948 . S
H251 C279 0.982 . S
H252 C280 0.979 . S
H253 C280 0.980 . S
H254 C280 0.983 . S
H255 C279 0.979 . S
H256 C279 0.977 . S
C257 C245 1.453 . S
C257 H286 0.982 1_655 S
C257 H287 0.979 . S
C257 H288 0.977 1_655 S
C258 C245 1.684 . S
C258 H283 0.979 . S
C258 H284 0.980 . S
C258 H285 0.983 . S
C259 C260 1.391 1_655 S
C259 C264 1.391 . S
C259 H289 0.948 . S
C260 C259 1.391 1_455 S
C260 C261 1.391 . S
C261 C260 1.391 . S
C261 C262 1.392 . S
C261 H290 0.947 . S
C262 C261 1.392 . S
C262 C263 1.419 . S
C262 H291 0.948 . S
C263 C262 1.419 . S
C263 C264 1.391 1_455 S
C263 C267 1.397 . S
C264 C259 1.391 . S
C264 C263 1.391 1_655 S
C264 C265 1.399 . S
C265 C264 1.399 . S
C265 C266 1.396 . S
C265 C268 1.453 . S
C265 C269 1.684 . S
C266 C247 1.723 . S
C266 C265 1.396 . S
C266 C267 1.394 1_655 S
C267 C263 1.397 . S
C267 C266 1.394 1_455 S
C267 C277 1.723 . S
C268 C265 1.453 . S
C268 H292 0.982 . S
C268 H293 0.979 . S
C268 H294 0.977 . S
C269 C265 1.684 . S
C269 H295 0.979 . S
C269 H296 0.980 . S
C269 H297 0.983 . S
C270 H246 0.948 . S
C270 C271 1.391 . S
C270 C275 1.391 . S
C271 C270 1.391 . S
C271 C272 1.391 . S
C272 H249 0.947 . S
C272 C271 1.391 . S
C272 C273 1.392 . S
C273 H250 0.948 . S
C273 C272 1.392 . S
C273 C274 1.419 . S
C274 C273 1.419 . S
C274 C275 1.391 . S
C274 C278 1.397 . S
C275 C270 1.391 . S
C275 C274 1.391 . S
C275 C276 1.399 . S
C276 C275 1.399 . S
C276 C277 1.396 . S
C276 C279 1.453 . S
C276 C280 1.684 . S
C277 C267 1.723 . S
C277 C276 1.396 . S
C277 C278 1.394 . S
C278 C248 1.723 1_455 S
C278 C274 1.397 . S
C278 C277 1.394 . S
C279 H251 0.982 . S
C279 H255 0.979 . S
C279 H256 0.977 . S
C279 C276 1.453 . S
C280 H252 0.979 . S
C280 H253 0.980 . S
C280 H254 0.983 . S
C280 C276 1.684 . S
H281 C299 0.948 . S
H282 C240 0.948 . S
H283 C258 0.979 . S
H284 C258 0.980 . S
H285 C258 0.983 . S
H286 C257 0.982 1_455 S
H287 C257 0.979 . S
H288 C257 0.977 1_455 S
H289 C259 0.948 . S
H290 C261 0.947 . S
H291 C262 0.948 . S
H292 C268 0.982 . S
H293 C268 0.979 . S
H294 C268 0.977 . S
H295 C269 0.979 . S
H296 C269 0.980 . S
H297 C269 0.983 . S
H298 C242 0.947 . S
C299 C242 1.392 . S
C299 C243 1.419 . S
C299 H281 0.948 . S
C300 C301 1.391 . S
C300 C304 1.391 . S
C300 H342 0.948 . S
C301 C300 1.391 . S
C301 C302 1.391 . S
C302 C301 1.391 . S
C302 H358 0.947 . S
C302 C359 1.392 . S
C303 C304 1.391 . S
C303 C307 1.397 . S
C303 C359 1.419 . S
C304 C300 1.391 . S
C304 C303 1.391 . S
C304 C305 1.399 . S
C305 C304 1.399 . S
C305 C308 1.396 1_565 S
C305 C317 1.453 1_565 S
C305 C318 1.684 . S
H306 C330 0.948 . S
C307 C303 1.397 . S
C307 C308 1.394 1_565 S
C307 C326 1.723 . S
C308 C305 1.396 1_545 S
C308 C307 1.394 1_545 S
C308 C338 1.723 . S
H309 C332 0.947 . S
H310 C333 0.948 . S
H311 C339 0.982 . S
H312 C340 0.979 . S
H313 C340 0.980 . S
H314 C340 0.983 . S
H315 C339 0.979 . S
H316 C339 0.977 . S
C317 C305 1.453 1_545 S
C317 H346 0.982 . S
C317 H347 0.979 . S
C317 H348 0.977 . S
C318 C305 1.684 . S
C318 H343 0.979 . S
C318 H344 0.980 1_565 S
C318 H345 0.983 . S
C319 C320 1.391 1_565 S
C319 C324 1.391 . S
C319 H349 0.948 . S
C320 C319 1.391 1_545 S
C320 C321 1.391 . S
C321 C320 1.391 . S
C321 C322 1.392 . S
C321 H350 0.947 . S
C322 C321 1.392 . S
C322 C323 1.419 . S
C322 H351 0.948 . S
C323 C322 1.419 . S
C323 C324 1.391 1_545 S
C323 C327 1.397 . S
C324 C319 1.391 . S
C324 C323 1.391 1_565 S
C324 C325 1.399 . S
C325 C324 1.399 . S
C325 C326 1.396 . S
C325 C328 1.453 . S
C325 C329 1.684 . S
C326 C307 1.723 . S
C326 C325 1.396 . S
C326 C327 1.394 1_565 S
C327 C323 1.397 . S
C327 C326 1.394 1_545 S
C327 C337 1.723 . S
C328 C325 1.453 . S
C328 H352 0.982 . S
C328 H353 0.979 . S
C328 H354 0.977 . S
C329 C325 1.684 . S
C329 H355 0.979 . S
C329 H356 0.980 . S
C329 H357 0.983 . S
C330 H306 0.948 . S
C330 C331 1.391 . S
C330 C335 1.391 . S
C331 C330 1.391 . S
C331 C332 1.391 . S
C332 H309 0.947 . S
C332 C331 1.391 . S
C332 C333 1.392 . S
C333 H310 0.948 . S
C333 C332 1.392 . S
C333 C334 1.419 . S
C334 C333 1.419 . S
C334 C335 1.391 . S
C334 C338 1.397 . S
C335 C330 1.391 . S
C335 C334 1.391 . S
C335 C336 1.399 . S
C336 C335 1.399 . S
C336 C337 1.396 . S
C336 C339 1.453 . S
C336 C340 1.684 . S
C337 C327 1.723 . S
C337 C336 1.396 . S
C337 C338 1.394 . S
C338 C308 1.723 . S
C338 C334 1.397 . S
C338 C337 1.394 . S
C339 H311 0.982 . S
C339 H315 0.979 . S
C339 H316 0.977 . S
C339 C336 1.453 . S
C340 H312 0.979 . S
C340 H313 0.980 . S
C340 H314 0.983 . S
C340 C336 1.684 . S
H341 C359 0.948 . S
H342 C300 0.948 . S
H343 C318 0.979 . S
H344 C318 0.980 1_545 S
H345 C318 0.983 . S
H346 C317 0.982 . S
H347 C317 0.979 . S
H348 C317 0.977 . S
H349 C319 0.948 . S
H350 C321 0.947 . S
H351 C322 0.948 . S
H352 C328 0.982 . S
H353 C328 0.979 . S
H354 C328 0.977 . S
H355 C329 0.979 . S
H356 C329 0.980 . S
H357 C329 0.983 . S
H358 C302 0.947 . S
C359 C302 1.392 . S
C359 C303 1.419 . S
C359 H341 0.948 . S
C360 C361 1.391 . S
C360 C364 1.391 . S
C360 H402 0.948 . S
C361 C360 1.391 . S
C361 C362 1.391 . S
C362 C361 1.391 . S
C362 H418 0.947 . S
C362 C419 1.392 . S
C363 C364 1.391 . S
C363 C367 1.397 . S
C363 C419 1.419 . S
C364 C360 1.391 . S
C364 C363 1.391 . S
C364 C365 1.399 . S
C365 C364 1.399 . S
C365 C368 1.396 . S
C365 C377 1.453 . S
C365 C378 1.684 . S
H366 C390 0.948 . S
C367 C363 1.397 . S
C367 C368 1.394 . S
C367 C386 1.723 . S
C368 C365 1.396 . S
C368 C367 1.394 . S
C368 C398 1.723 . S
H369 C392 0.947 . S
H370 C393 0.948 . S
H371 C399 0.982 . S
H372 C400 0.979 . S
H373 C400 0.980 . S
H374 C400 0.983 . S
H375 C399 0.979 . S
H376 C399 0.977 . S
C377 C365 1.453 . S
C377 H406 0.982 . S
C377 H407 0.979 . S
C377 H408 0.977 . S
C378 C365 1.684 . S
C378 H403 0.979 . S
C378 H404 0.980 . S
C378 H405 0.983 . S
C379 C380 1.391 1_554 S
C379 C384 1.391 . S
C379 H409 0.948 . S
C380 C379 1.391 1_556 S
C380 C381 1.391 1_556 S
C381 C380 1.391 1_554 S
C381 C382 1.392 . S
C381 H410 0.947 1_554 S
C382 C381 1.392 . S
C382 C383 1.419 . S
C382 H411 0.948 . S
C383 C382 1.419 . S
C383 C384 1.391 . S
C383 C387 1.397 . S
C384 C379 1.391 . S
C384 C383 1.391 . S
C384 C385 1.399 . S
C385 C384 1.399 . S
C385 C386 1.396 . S
C385 C388 1.453 . S
C385 C389 1.684 . S
C386 C367 1.723 . S
C386 C385 1.396 . S
C386 C387 1.394 . S
C387 C383 1.397 . S
C387 C386 1.394 . S
C387 C397 1.723 . S
C388 C385 1.453 . S
C388 H412 0.982 . S
C388 H413 0.979 . S
C388 H414 0.977 . S
C389 C385 1.684 . S
C389 H415 0.979 . S
C389 H416 0.980 . S
C389 H417 0.983 . S
C390 H366 0.948 . S
C390 C391 1.391 . S
C390 C395 1.391 . S
C391 C390 1.391 . S
C391 C392 1.391 . S
C392 H369 0.947 . S
C392 C391 1.391 . S
C392 C393 1.392 . S
C393 H370 0.948 . S
C393 C392 1.392 . S
C393 C394 1.419 . S
C394 C393 1.419 . S
C394 C395 1.391 . S
C394 C398 1.397 . S
C395 C390 1.391 . S
C395 C394 1.391 . S
C395 C396 1.399 . S
C396 C395 1.399 . S
C396 C397 1.396 . S
C396 C399 1.453 . S
C396 C400 1.684 . S
C397 C387 1.723 . S
C397 C396 1.396 . S
C397 C398 1.394 . S
C398 C368 1.723 . S
C398 C394 1.397 . S
C398 C397 1.394 . S
C399 H371 0.982 . S
C399 H375 0.979 . S
C399 H376 0.977 . S
C399 C396 1.453 . S
C400 H372 0.979 . S
C400 H373 0.980 . S
C400 H374 0.983 . S
C400 C396 1.684 . S
H401 C419 0.948 . S
H402 C360 0.948 . S
H403 C378 0.979 . S
H404 C378 0.980 . S
H405 C378 0.983 . S
H406 C377 0.982 . S
H407 C377 0.979 . S
H408 C377 0.977 . S
H409 C379 0.948 . S
H410 C381 0.947 1_556 S
H411 C382 0.948 . S
H412 C388 0.982 . S
H413 C388 0.979 . S
H414 C388 0.977 . S
H415 C389 0.979 . S
H416 C389 0.980 . S
H417 C389 0.983 . S
H418 C362 0.947 . S
C419 C362 1.392 . S
C419 C363 1.419 . S
C419 H401 0.948 . S
C420 C421 1.387 . S
C420 H424 0.950 . S
C420 C429 1.390 . S
C421 C420 1.387 . S
C421 C423 1.387 . S
H422 C429 0.950 . S
C423 C421 1.387 . S
C423 C425 1.390 . S
C423 H427 0.950 . S
H424 C420 0.950 . S
C425 C423 1.390 . S
C425 C426 1.387 . S
C425 H428 0.950 . S
C426 C425 1.387 . S
C426 C429 1.387 . S
H427 C423 0.950 . S
H428 C425 0.950 . S
C429 C420 1.390 . S
C429 H422 0.950 . S
C429 C426 1.387 . S
C430 C431 1.387 . S
C430 H434 0.950 . S
C430 C439 1.390 . S
C431 C430 1.387 . S
C431 C433 1.387 . S
H432 C439 0.950 . S
C433 C431 1.387 . S
C433 C435 1.390 . S
C433 H437 0.950 . S
H434 C430 0.950 . S
C435 C433 1.390 . S
C435 C436 1.387 . S
C435 H438 0.950 . S
C436 C435 1.387 . S
C436 C439 1.387 . S
H437 C433 0.950 . S
H438 C435 0.950 . S
C439 C430 1.390 . S
C439 H432 0.950 . S
C439 C436 1.387 . S
C440 C441 1.387 . S
C440 H444 0.950 . S
C440 C449 1.390 . S
C441 C440 1.387 . S
C441 C443 1.387 . S
H442 C449 0.950 . S
C443 C441 1.387 . S
C443 C445 1.390 . S
C443 H447 0.950 . S
H444 C440 0.950 . S
C445 C443 1.390 . S
C445 C446 1.387 . S
C445 H448 0.950 . S
C446 C445 1.387 . S
C446 C449 1.387 . S
H447 C443 0.950 . S
H448 C445 0.950 . S
C449 C440 1.390 . S
C449 H442 0.950 . S
C449 C446 1.387 . S
C450 C451 1.387 . S
C450 H454 0.950 . S
C450 C459 1.390 . S
C451 C450 1.387 . S
C451 C453 1.387 . S
H452 C459 0.950 . S
C453 C451 1.387 . S
C453 C455 1.390 . S
C453 H457 0.950 . S
H454 C450 0.950 . S
C455 C453 1.390 . S
C455 C456 1.387 . S
C455 H458 0.950 . S
C456 C455 1.387 . S
C456 C459 1.387 . S
H457 C453 0.950 . S
H458 C455 0.950 . S
C459 C450 1.390 . S
C459 H452 0.950 . S
C459 C456 1.387 . S
C460 C461 1.387 . S
C460 H464 0.950 . S
C460 C469 1.390 . S
C461 C460 1.387 . S
C461 C463 1.387 . S
H462 C469 0.950 . S
C463 C461 1.387 . S
C463 C465 1.390 . S
C463 H467 0.950 . S
H464 C460 0.950 . S
C465 C463 1.390 . S
C465 C466 1.387 . S
C465 H468 0.950 . S
C466 C465 1.387 . S
C466 C469 1.387 . S
H467 C463 0.950 . S
H468 C465 0.950 . S
C469 C460 1.390 . S
C469 H462 0.950 . S
C469 C466 1.387 . S
C470 C471 1.387 . S
C470 H474 0.950 . S
C470 C479 1.390 . S
C471 C470 1.387 . S
C471 C473 1.387 . S
H472 C479 0.950 . S
C473 C471 1.387 . S
C473 C475 1.390 . S
C473 H477 0.950 . S
H474 C470 0.950 . S
C475 C473 1.390 . S
C475 C476 1.387 . S
C475 H478 0.950 . S
C476 C475 1.387 . S
C476 C479 1.387 . S
H477 C473 0.950 . S
H478 C475 0.950 . S
C479 C470 1.390 . S
C479 H472 0.950 . S
C479 C476 1.387 . S
C480 C481 1.387 . S
C480 H484 0.950 . S
C480 C489 1.390 . S
C481 C480 1.387 . S
C481 C483 1.387 . S
H482 C489 0.950 . S
C483 C481 1.387 . S
C483 C485 1.390 . S
C483 H487 0.950 . S
H484 C480 0.950 . S
C485 C483 1.390 . S
C485 C486 1.387 . S
C485 H488 0.950 . S
C486 C485 1.387 . S
C486 C489 1.387 . S
H487 C483 0.950 . S
H488 C485 0.950 . S
C489 C480 1.390 . S
C489 H482 0.950 . S
C489 C486 1.387 . S
C490 C491 1.387 . S
C490 H494 0.950 . S
C490 C499 1.390 . S
C491 C490 1.387 . S
C491 C493 1.387 . S
H492 C499 0.950 . S
C493 C491 1.387 . S
C493 C495 1.390 . S
C493 H497 0.950 . S
H494 C490 0.950 . S
C495 C493 1.390 . S
C495 C496 1.387 . S
C495 H498 0.950 . S
C496 C495 1.387 . S
C496 C499 1.387 . S
H497 C493 0.950 . S
H498 C495 0.950 . S
C499 C490 1.390 . S
C499 H492 0.950 . S
C499 C496 1.387 . S
C500 C501 1.387 . S
C500 H504 0.950 . S
C500 C509 1.390 . S
C501 C500 1.387 . S
C501 C503 1.387 . S
H502 C509 0.950 . S
C503 C501 1.387 . S
C503 C505 1.390 . S
C503 H507 0.950 . S
H504 C500 0.950 . S
C505 C503 1.390 . S
C505 C506 1.387 . S
C505 H508 0.950 . S
C506 C505 1.387 . S
C506 C509 1.387 . S
H507 C503 0.950 . S
H508 C505 0.950 . S
C509 C500 1.390 . S
C509 H502 0.950 . S
C509 C506 1.387 . S
C510 C511 1.387 . S
C510 H514 0.950 . S
C510 C519 1.390 . S
C511 C510 1.387 . S
C511 C513 1.387 . S
H512 C519 0.950 . S
C513 C511 1.387 . S
C513 C515 1.390 . S
C513 H517 0.950 . S
H514 C510 0.950 . S
C515 C513 1.390 . S
C515 C516 1.387 . S
C515 H518 0.950 . S
C516 C515 1.387 . S
C516 C519 1.387 . S
H517 C513 0.950 . S
H518 C515 0.950 . S
C519 C510 1.390 . S
C519 H512 0.950 . S
C519 C516 1.387 . S
C520 C521 1.387 . S
C520 H524 0.950 . S
C520 C529 1.390 . S
C521 C520 1.387 . S
C521 C523 1.387 . S
H522 C529 0.950 . S
C523 C521 1.387 . S
C523 C525 1.390 . S
C523 H527 0.950 . S
H524 C520 0.950 . S
C525 C523 1.390 . S
C525 C526 1.387 . S
C525 H528 0.950 . S
C526 C525 1.387 . S
C526 C529 1.387 . S
H527 C523 0.950 . S
H528 C525 0.950 . S
C529 C520 1.390 . S
C529 H522 0.950 . S
C529 C526 1.387 . S
C530 C531 1.387 . S
C530 H534 0.950 . S
C530 C539 1.390 . S
C531 C530 1.387 . S
C531 C533 1.387 . S
H532 C539 0.950 . S
C533 C531 1.387 . S
C533 C535 1.390 . S
C533 H537 0.950 . S
H534 C530 0.950 . S
C535 C533 1.390 . S
C535 C536 1.387 . S
C535 H538 0.950 . S
C536 C535 1.387 . S
C536 C539 1.387 . S
H537 C533 0.950 . S
H538 C535 0.950 . S
C539 C530 1.390 . S
C539 H532 0.950 . S
C539 C536 1.387 . S
C540 C541 1.387 . S
C540 H544 0.950 . S
C540 C549 1.390 . S
C541 C540 1.387 . S
C541 C543 1.387 . S
H542 C549 0.950 . S
C543 C541 1.387 . S
C543 C545 1.390 . S
C543 H547 0.950 1_455 S
H544 C540 0.950 . S
C545 C543 1.390 . S
C545 C546 1.387 . S
C545 H548 0.950 1_455 S
C546 C545 1.387 . S
C546 C549 1.387 . S
H547 C543 0.950 1_655 S
H548 C545 0.950 1_655 S
C549 C540 1.390 . S
C549 H542 0.950 . S
C549 C546 1.387 . S
C550 C551 1.387 . S
C550 H554 0.950 . S
C550 C559 1.390 . S
C551 C550 1.387 . S
C551 C553 1.387 . S
H552 C559 0.950 . S
C553 C551 1.387 . S
C553 C555 1.390 . S
C553 H557 0.950 . S
H554 C550 0.950 . S
C555 C553 1.390 . S
C555 C556 1.387 . S
C555 H558 0.950 . S
C556 C555 1.387 . S
C556 C559 1.387 . S
H557 C553 0.950 . S
H558 C555 0.950 . S
C559 C550 1.390 . S
C559 H552 0.950 . S
C559 C556 1.387 . S
C560 C561 1.387 . S
C560 H564 0.950 . S
C560 C569 1.390 . S
C561 C560 1.387 . S
C561 C563 1.387 . S
H562 C569 0.950 . S
C563 C561 1.387 . S
C563 C565 1.390 . S
C563 H567 0.950 . S
H564 C560 0.950 . S
C565 C563 1.390 . S
C565 C566 1.387 . S
C565 H568 0.950 . S
C566 C565 1.387 . S
C566 C569 1.387 . S
H567 C563 0.950 . S
H568 C565 0.950 . S
C569 C560 1.390 . S
C569 H562 0.950 . S
C569 C566 1.387 . S
C570 C571 1.387 1_565 S
C570 H574 0.950 . S
C570 C579 1.390 . S
C571 C570 1.387 1_545 S
C571 C573 1.387 . S
H572 C579 0.950 . S
C573 C571 1.387 . S
C573 C575 1.390 . S
C573 H577 0.950 . S
H574 C570 0.950 . S
C575 C573 1.390 . S
C575 C576 1.387 . S
C575 H578 0.950 . S
C576 C575 1.387 . S
C576 C579 1.387 1_545 S
H577 C573 0.950 . S
H578 C575 0.950 . S
C579 C570 1.390 . S
C579 H572 0.950 . S
C579 C576 1.387 1_565 S
C580 C581 1.387 . S
C580 H584 0.950 . S
C580 C589 1.390 . S
C581 C580 1.387 . S
C581 C583 1.387 . S
H582 C589 0.950 . S
C583 C581 1.387 . S
C583 C585 1.390 . S
C583 H587 0.950 . S
H584 C580 0.950 . S
C585 C583 1.390 . S
C585 C586 1.387 . S
C585 H588 0.950 . S
C586 C585 1.387 . S
C586 C589 1.387 . S
H587 C583 0.950 . S
H588 C585 0.950 . S
C589 C580 1.390 . S
C589 H582 0.950 . S
C589 C586 1.387 . S
C590 C591 1.387 . S
C590 H594 0.950 . S
C590 C599 1.390 . S
C591 C590 1.387 . S
C591 C593 1.387 1_455 S
H592 C599 0.950 . S
C593 C591 1.387 1_655 S
C593 C595 1.390 . S
C593 H597 0.950 . S
H594 C590 0.950 . S
C595 C593 1.390 . S
C595 C596 1.391 1_655 S
C595 H598 0.950 . S
C596 C595 1.391 1_455 S
C596 C599 1.387 . S
H597 C593 0.950 . S
H598 C595 0.950 . S
C599 C590 1.390 . S
C599 H592 0.950 . S
C599 C596 1.387 . S
C421 C8 2.061 . S
C426 C391 2.183 . S
C431 C26 1.414 . S
C436 C241 1.330 . S
C441 C48 1.577 . S
C446 C301 1.508 . S
C451 C19 1.961 . S
C456 C361 1.842 . S
C466 C271 1.627 . S
C461 C36 1.577 . S
C476 C331 1.895 . S
C471 C59 1.823 . S
C481 C28 1.603 . S
C486 C121 1.526 . S
C491 C46 1.293 . S
C496 C211 1.335 . S
C501 C16 1.646 . S
C506 C91 1.708 . S
C516 C151 1.851 . S
C511 C39 1.803 . S
C526 C181 1.048 . S
C521 C56 1.111 . S
C531 C6 1.484 . S
C536 C61 1.403 . S
C546 C200 1.438 . S
C541 C9 1.408 . S
C551 C21 1.519 . S
C556 C80 1.489 . S
C561 C49 1.485 . S
C566 C140 1.457 . S
C576 C320 1.441 . S
C571 C29 1.481 . S
C586 C380 1.583 . S
C581 C41 1.575 . S
C591 C1 1.506 . S
C596 C260 1.487 . S
