# Generated by pormake.
# Topology nom, (4,4)-cn, num edge types: 1
# Building blocks:
#     Node 0, Type 0, BuildingBlock: GIZVER_clean_linker_0, # of connection points: 4
#     Node 1, Type 0, BuildingBlock: GIZVER_clean_linker_0, # of connection points: 4
#     Node 2, Type 0, BuildingBlock: GIZVER_clean_linker_0, # of connection points: 4
#     Node 3, Type 0, BuildingBlock: GIZVER_clean_linker_0, # of connection points: 4
#     Node 4, Type 0, BuildingBlock: GIZVER_clean_linker_0, # of connection points: 4
#     Node 5, Type 0, BuildingBlock: GIZVER_clean_linker_0, # of connection points: 4
#     Node 6, Type 1, BuildingBlock: QUQFOY_clean_sbu_1, # of connection points: 4
#     Node 7, Type 1, BuildingBlock: QUQFOY_clean_sbu_1, # of connection points: 4
#     Node 8, Type 1, BuildingBlock: QUQFOY_clean_sbu_1, # of connection points: 4
#     Node 9, Type 1, BuildingBlock: QUQFOY_clean_sbu_1, # of connection points: 4
#     Node 10, Type 1, BuildingBlock: QUQFOY_clean_sbu_1, # of connection points: 4
#     Node 11, Type 1, BuildingBlock: QUQFOY_clean_sbu_1, # of connection points: 4
#     Edge 12, Type (0, 1), BuildingBlock: OJICUG_clean_linker_0, # of connection points: 2
#     Edge 13, Type (0, 1), BuildingBlock: OJICUG_clean_linker_0, # of connection points: 2
#     Edge 14, Type (0, 1), BuildingBlock: OJICUG_clean_linker_0, # of connection points: 2
#     Edge 15, Type (0, 1), BuildingBlock: OJICUG_clean_linker_0, # of connection points: 2
#     Edge 16, Type (0, 1), BuildingBlock: OJICUG_clean_linker_0, # of connection points: 2
#     Edge 17, Type (0, 1), BuildingBlock: OJICUG_clean_linker_0, # of connection points: 2
#     Edge 18, Type (0, 1), BuildingBlock: OJICUG_clean_linker_0, # of connection points: 2
#     Edge 19, Type (0, 1), BuildingBlock: OJICUG_clean_linker_0, # of connection points: 2
#     Edge 20, Type (0, 1), BuildingBlock: OJICUG_clean_linker_0, # of connection points: 2
#     Edge 21, Type (0, 1), BuildingBlock: OJICUG_clean_linker_0, # of connection points: 2
#     Edge 22, Type (0, 1), BuildingBlock: OJICUG_clean_linker_0, # of connection points: 2
#     Edge 23, Type (0, 1), BuildingBlock: OJICUG_clean_linker_0, # of connection points: 2
#     Edge 24, Type (0, 1), BuildingBlock: OJICUG_clean_linker_0, # of connection points: 2
#     Edge 25, Type (0, 1), BuildingBlock: OJICUG_clean_linker_0, # of connection points: 2
#     Edge 26, Type (0, 1), BuildingBlock: OJICUG_clean_linker_0, # of connection points: 2
#     Edge 27, Type (0, 1), BuildingBlock: OJICUG_clean_linker_0, # of connection points: 2
#     Edge 28, Type (0, 1), BuildingBlock: OJICUG_clean_linker_0, # of connection points: 2
#     Edge 29, Type (0, 1), BuildingBlock: OJICUG_clean_linker_0, # of connection points: 2
#     Edge 30, Type (0, 1), BuildingBlock: OJICUG_clean_linker_0, # of connection points: 2
#     Edge 31, Type (0, 1), BuildingBlock: OJICUG_clean_linker_0, # of connection points: 2
#     Edge 32, Type (0, 1), BuildingBlock: OJICUG_clean_linker_0, # of connection points: 2
#     Edge 33, Type (0, 1), BuildingBlock: OJICUG_clean_linker_0, # of connection points: 2
#     Edge 34, Type (0, 1), BuildingBlock: OJICUG_clean_linker_0, # of connection points: 2
#     Edge 35, Type (0, 1), BuildingBlock: OJICUG_clean_linker_0, # of connection points: 2
# Relax obj value: 0.004
# Max RMSD: 0.080
# Mean RMSD: 0.078
data_MOF--net-nom--node1-QUQFOY_clean_sbu_1--node2-GIZVER_clean_linker_0--edge1-OJICUG_clean_linker_0
_symmetry_space_group_name_H-M    P1
_symmetry_Int_Tables_number       1
_symmetry_cell_setting            triclinic
loop_
_symmetry_equiv_pos_as_xyz
'x, y, z'
_cell_length_a     33.731573
_cell_length_b     34.120839
_cell_length_c     36.640463
_cell_angle_alpha  90.027391
_cell_angle_beta   89.988613
_cell_angle_gamma 119.31707
loop_
_atom_site_label
_atom_site_type_symbol
_atom_site_fract_x
_atom_site_fract_y
_atom_site_fract_z
_atom_type_partial_charge
H0 H 0.997 0.62035 0.29807 0.0
H1 H 1.0494 0.62074 0.19099 0.0
H2 H 0.91666 0.51565 0.22138 0.0
H3 H 0.06483 0.68524 0.27821 0.0
H4 H 0.07408 0.69268 0.23011 0.0
H5 H 0.09269 0.63615 0.31104 0.0
H6 H 0.22523 0.66526 0.27442 0.0
H7 H 0.14006 0.6945 0.2051 0.0
C8 C 0.99324 0.6044 0.27175 0.0
C9 C 0.95282 0.56462 0.2634 0.0
C10 C 1.02821 0.62466 0.2457 0.0
C11 C 1.02289 0.60463 0.21133 0.0
C12 C 0.98303 0.56486 0.20269 0.0
C13 C 0.94849 0.54489 0.22892 0.0
C14 C 0.06948 0.66955 0.25311 0.0
C15 C 0.11149 0.66495 0.25732 0.0
C16 C 0.11844 0.64763 0.28988 0.0
C17 C 0.15921 0.64708 0.29596 0.0
C18 C 0.19266 0.66303 0.26868 0.0
C19 C 0.18645 0.6805 0.2358 0.0
C20 C 0.14525 0.68067 0.2301 0.0
H21 H 0.43117 0.96933 0.47126 0.0
H22 H 0.48516 1.01932 0.36458 0.0
H23 H 0.45609 0.88678 0.39621 0.0
H24 H 0.43304 1.03607 0.45011 0.0
H25 H 0.43533 0.04418 0.4019 0.0
H26 H 0.50883 0.06568 0.48457 0.0
H27 H 0.60868 0.19616 0.44653 0.0
H28 H 0.49873 0.108 0.37618 0.0
C29 C 0.44397 0.96495 0.44533 0.0
C30 C 0.44302 0.92412 0.43751 0.0
C31 C 0.45913 0.99934 0.41907 0.0
C32 C 0.47458 0.99326 0.38515 0.0
C33 C 0.47433 0.95299 0.37703 0.0
C34 C 0.45908 0.91892 0.40346 0.0
C35 C 0.45395 0.04022 0.42541 0.0
C36 C 0.49949 0.08199 0.42963 0.0
C37 C 0.52281 0.09038 0.46287 0.0
C38 C 0.56265 0.1313 0.46888 0.0
C39 C 0.57965 0.1635 0.44092 0.0
C40 C 0.55679 0.1558 0.40738 0.0
C41 C 0.51708 0.11437 0.40172 0.0
H42 H 0.43 0.48641 0.54677 0.0
H43 H 0.50166 0.49472 0.64537 0.0
H44 H 0.48783 0.60757 0.6115 0.0
H45 H 0.43442 0.42268 0.56592 0.0
H46 H 0.44127 0.41991 0.61404 0.0
H47 H 0.5077 0.46147 0.5269 0.0
H48 H 0.60811 0.42633 0.56068 0.0
H49 H 0.50391 0.41253 0.63573 0.0
C50 C 0.45043 0.50653 0.56939 0.0
C51 C 0.45666 0.55008 0.57542 0.0
C52 C 0.46792 0.48713 0.59396 0.0
C53 C 0.4906 0.51078 0.62539 0.0
C54 C 0.49643 0.55364 0.63237 0.0
C55 C 0.4821 0.57405 0.60618 0.0
C56 C 0.45825 0.43937 0.58901 0.0
C57 C 0.50161 0.43792 0.58225 0.0
C58 C 0.5225 0.45026 0.54793 0.0
C59 C 0.56134 0.44675 0.54024 0.0
C60 C 0.57974 0.43153 0.56745 0.0
C61 C 0.55925 0.41873 0.60197 0.0
C62 C 0.52035 0.42259 0.60933 0.0
H63 H 1.00844 0.40123 0.70496 0.0
H64 H 1.0561 0.45972 0.81083 0.0
H65 H 0.92351 0.43068 0.77445 0.0
H66 H 0.07457 0.40247 0.73014 0.0
H67 H 0.08385 0.41098 0.77821 0.0
H68 H 0.09938 0.4747 0.69072 0.0
H69 H 0.23217 0.5796 0.72124 0.0
H70 H 0.15155 0.47509 0.7979 0.0
C71 C 1.00335 0.41519 0.72994 0.0
C72 C 0.96216 0.41536 0.73573 0.0
C73 C 1.03727 0.43114 0.75702 0.0
C74 C 1.03034 0.44832 0.78969 0.0
C75 C 0.98957 0.44885 0.79587 0.0
C76 C 0.95605 0.43291 0.76864 0.0
C77 C 0.07894 0.42596 0.75281 0.0
C78 C 0.12054 0.47063 0.7454 0.0
C79 C 0.12589 0.49074 0.71107 0.0
C80 C 0.1658 0.53047 0.70249 0.0
C81 C 0.20031 0.5504 0.72875 0.0
C82 C 0.19587 0.5307 0.76323 0.0
C83 C 0.1554 0.49096 0.77154 0.0
H84 H 0.71768 0.12606 -0.02881 0.0
H85 H 0.66339 0.07602 0.86456 0.0
H86 H 0.69261 0.2086 0.89633 0.0
H87 H 0.71564 0.05925 -0.05002 0.0
H88 H 0.71331 0.05117 0.90176 0.0
H89 H 0.63978 1.02977 -0.01558 0.0
H90 H 0.53996 0.89921 -0.05359 0.0
H91 H 0.65001 0.98722 0.87611 0.0
C92 C 0.70481 0.13043 -0.05469 0.0
C93 C 0.70576 0.17127 -0.06246 0.0
C94 C 0.68956 0.09602 0.91903 0.0
C95 C 0.67403 0.10209 0.88515 0.0
C96 C 0.67429 0.14238 0.8771 0.0
C97 C 0.68962 0.17646 0.90354 0.0
C98 C 0.69472 0.05512 0.9253 0.0
C99 C 0.64917 1.01336 -0.07049 0.0
C100 C 0.62582 1.00503 -0.03727 0.0
C101 C 0.58597 0.96413 -0.03126 0.0
C102 C 0.56901 0.93187 -0.0592 0.0
C103 C 0.59191 0.93949 0.90728 0.0
C104 C 0.63163 0.98091 0.90162 0.0
H105 H 0.71839 0.60869 0.04694 0.0
H106 H 0.64657 0.60024 0.1455 0.0
H107 H 0.66063 0.48751 0.11157 0.0
H108 H 0.71387 0.67236 0.06614 0.0
H109 H 0.70691 0.67509 0.11425 0.0
H110 H 0.6406 0.6334 0.02705 0.0
H111 H 0.54018 0.66866 0.06064 0.0
H112 H 0.64428 0.68256 0.13582 0.0
C113 C 0.69795 0.58854 0.06953 0.0
C114 C 0.69178 0.54502 0.07554 0.0
C115 C 0.68038 0.60789 0.0941 0.0
C116 C 0.65768 0.58422 0.12552 0.0
C117 C 0.65192 0.54138 0.13246 0.0
C118 C 0.66632 0.52102 0.10627 0.0
C119 C 0.69 0.65563 0.08919 0.0
C120 C 0.64663 0.65704 0.08238 0.0
C121 C 0.62578 0.64464 0.04804 0.0
C122 C 0.58695 0.64816 0.0403 0.0
C123 C 0.56854 0.66345 0.06746 0.0
C124 C 0.58899 0.67631 0.10199 0.0
C125 C 0.62787 0.67245 0.10941 0.0
O126 O 0.60525 0.41997 0.37425 0.0
Cd127 Cd 0.62258 0.39627 0.32871 0.0
Cd128 Cd 0.70155 0.47457 0.33952 0.0
O129 O 0.67444 0.47122 0.39042 0.0
O130 O 0.5758 0.33165 0.32695 0.0
O131 O 0.64874 0.35523 0.33697 0.0
C132 C 0.60752 0.32231 0.33476 0.0
C133 C 0.77855 0.49692 0.33219 0.0
C134 C 0.63219 0.44843 0.39725 0.0
C135 C 0.64436 0.46561 0.27316 0.0
O136 O 0.67439 0.49141 0.2958 0.0
O137 O 0.62184 0.42361 0.279 0.0
O138 O 0.7653 0.52509 0.34151 0.0
O139 O 0.74796 0.45514 0.32887 0.0
O140 O 0.22575 0.57818 0.53404 0.0
Cd141 Cd 0.26999 0.60092 0.49041 0.0
Cd142 Cd 0.27078 0.67757 0.50549 0.0
O143 O 0.24573 0.64608 0.55458 0.0
O144 O 0.30054 0.56363 0.48711 0.0
O145 O 0.33501 0.63485 0.50534 0.0
C146 C 0.33613 0.59789 0.50033 0.0
C147 C 0.32847 0.7522 0.50216 0.0
C148 C 0.22515 0.60373 0.55906 0.0
C149 C 0.22681 0.63049 0.43575 0.0
O150 O 0.22857 0.65718 0.46068 0.0
O151 O 0.24642 0.60715 0.44015 0.0
O152 O 0.28769 0.7419 0.51163 0.0
O153 O 0.33715 0.71977 0.49654 0.0
O154 O 0.69158 0.20626 0.71006 0.0
Cd155 Cd 0.71407 0.24639 0.66422 0.0
Cd156 Cd 0.63538 0.24817 0.67747 0.0
O157 O 0.63965 0.22368 0.72767 0.0
O158 O 0.77894 0.26175 0.66026 0.0
O159 O 0.7574 0.31216 0.672 0.0
C160 C 0.78984 0.30259 0.66833 0.0
C161 C 0.61773 0.30594 0.67188 0.0
C162 C 0.6633 0.20469 0.73373 0.0
C163 C 0.64142 0.20207 0.60931 0.0
O164 O 0.61585 0.20581 0.63291 0.0
O165 O 0.68396 0.22013 0.61476 0.0
O166 O 0.58738 0.26587 0.68114 0.0
O167 O 0.65908 0.31388 0.66772 0.0
O168 O 0.54331 0.67504 0.87431 0.0
Cd169 Cd 0.52608 0.69881 0.82878 0.0
Cd170 Cd 0.447 0.62057 0.83952 0.0
O171 O 0.47408 0.62384 0.8904 0.0
O172 O 0.57291 0.76342 0.82706 0.0
O173 O 0.49997 0.7399 0.83703 0.0
C174 C 0.5412 0.7728 0.83484 0.0
C175 C 0.37001 0.5983 0.83219 0.0
C176 C 0.51632 0.64659 0.89727 0.0
C177 C 0.50417 0.62945 0.77315 0.0
O178 O 0.4741 0.60368 0.79577 0.0
O179 O 0.52678 0.67144 0.77904 0.0
O180 O 0.38321 0.57009 0.84148 0.0
O181 O 0.40063 0.64006 0.8289 0.0
O182 O 0.92032 0.43835 -0.03931 0.0
Cd183 Cd 0.87817 0.41788 0.00553 0.0
Cd184 Cd 0.87879 0.49449 -0.00939 0.0
O185 O 0.90241 0.48838 -0.05968 0.0
O186 O 0.86131 0.35355 0.01157 0.0
O187 O 0.8118 0.37566 -0.00336 0.0
C188 C 0.8205 0.34324 0.00217 0.0
C189 C 0.81262 0.49746 0.00054 0.0
C190 C 0.92205 0.46508 -0.06417 0.0
C191 C 0.92375 0.49168 0.0592 0.0
O192 O 0.92303 0.51723 0.03425 0.0
O193 O 0.90328 0.44934 0.05465 0.0
O194 O 0.84822 0.53175 -0.01262 0.0
O195 O 0.81376 0.46051 0.00551 0.0
O196 O 0.53256 0.88957 0.13266 0.0
Cd197 Cd 0.51298 0.84721 0.17719 0.0
Cd198 Cd 0.43436 0.84918 0.16399 0.0
O199 O 0.4645 0.87544 0.11454 0.0
O200 O 0.56095 0.82949 0.18087 0.0
O201 O 0.48925 0.78149 0.16744 0.0
C202 C 0.53059 0.78941 0.17161 0.0
C203 C 0.35859 0.79302 0.1681 0.0
C204 C 0.50704 0.89341 0.10909 0.0
C205 C 0.48515 0.89078 0.23352 0.0
O206 O 0.4569 0.88928 0.20986 0.0
O207 O 0.50875 0.87173 0.22741 0.0
O208 O 0.3695 0.83386 0.16006 0.0
O209 O 0.39101 0.78342 0.17173 0.0
C210 C 0.23606 0.74657 0.19619 0.0
C211 C 0.2258 0.70446 0.21059 0.0
H212 H 0.28585 0.80728 0.17091 0.0
C213 C 0.25705 0.68885 0.20518 0.0
H214 H 0.21311 0.75994 0.2 0.0
C215 C 0.29931 0.71645 0.18896 0.0
C216 C 0.31097 0.76006 0.17748 0.0
H217 H 0.24982 0.65617 0.21526 0.0
H218 H 0.32368 0.70452 0.18725 0.0
C219 C 0.27809 0.77396 0.17969 0.0
C220 C 0.53747 0.20183 0.36517 0.0
C221 C 0.57063 0.19376 0.38125 0.0
H222 H 0.52324 0.24849 0.33728 0.0
C223 C 0.61679 0.22573 0.37634 0.0
H224 H 0.5016 0.17832 0.36855 0.0
C225 C 0.62925 0.26655 0.35877 0.0
C226 C 0.59578 0.27605 0.34554 0.0
H227 H 0.64326 0.22018 0.38775 0.0
H228 H 0.66492 0.29158 0.35743 0.0
C229 C 0.54992 0.24242 0.3474 0.0
C230 C 0.4168 0.55252 0.51714 0.0
C231 C 0.43165 0.56794 0.55299 0.0
H232 H 0.37411 0.54929 0.47233 0.0
C233 C 0.41866 0.59784 0.56861 0.0
H234 H 0.42674 0.53062 0.50338 0.0
C235 C 0.3909 0.61055 0.54975 0.0
C236 C 0.37354 0.59234 0.51541 0.0
H237 H 0.42732 0.60977 0.59633 0.0
H238 H 0.38014 0.63198 0.56339 0.0
C239 C 0.38718 0.56375 0.49892 0.0
C240 C 0.91244 0.34916 0.69623 0.0
C241 C 0.92272 0.3913 0.71062 0.0
H242 H 0.86261 0.28838 0.67104 0.0
C243 C 0.89143 0.40687 0.70528 0.0
H244 H 0.93542 0.33583 0.7 0.0
C245 C 0.84912 0.37921 0.68913 0.0
C246 C 0.83746 0.33559 0.67766 0.0
H247 H 0.89867 0.43957 0.71535 0.0
H248 H 0.82473 0.39111 0.68747 0.0
C249 C 0.87037 0.32171 0.67981 0.0
C250 C 0.61128 0.89333 0.86521 0.0
C251 C 0.5781 0.90147 0.8812 0.0
H252 H 0.62552 0.84657 0.83745 0.0
C253 C 0.53194 0.86951 0.87625 0.0
H254 H 0.64714 0.91684 0.86863 0.0
C255 C 0.51949 0.82864 0.85873 0.0
C256 C 0.55297 0.81908 0.84559 0.0
H257 H 0.50547 0.87511 0.88759 0.0
H258 H 0.48382 0.80363 0.85736 0.0
C259 C 0.59883 0.8527 0.8475 0.0
C260 C 0.72993 0.49738 0.06875 0.0
C261 C 0.71689 0.52723 0.05313 0.0
H262 H 0.76854 0.46334 0.06356 0.0
C263 C 0.73179 0.54267 0.0173 0.0
H264 H 0.72123 0.48544 0.09646 0.0
C265 C 0.76149 0.53151 -0.00089 0.0
C266 C 0.77516 0.50296 0.0156 0.0
H267 H 0.72183 0.56454 0.00354 0.0
H268 H 0.77458 0.54598 -0.02746 0.0
C269 C 0.75776 0.48473 0.04992 0.0
C270 C 0.43379 0.85244 0.46494 0.0
C271 C 0.4189 0.88431 0.46182 0.0
H272 H 0.41695 0.78552 0.48042 0.0
C273 C 0.37712 0.87458 0.47773 0.0
H274 H 0.46621 0.85922 0.45363 0.0
C275 C 0.34923 0.83262 0.4935 0.0
C276 C 0.36228 0.79931 0.49347 0.0
H277 H 0.36428 0.89801 0.47567 0.0
H278 H 0.3161 0.82538 0.5035 0.0
C279 C 0.40567 0.81028 0.48045 0.0
C280 C 0.54355 0.35545 0.64477 0.0
C281 C 0.57516 0.39558 0.62768 0.0
H282 H 0.53234 0.29588 0.67263 0.0
C283 C 0.62179 0.40945 0.6309 0.0
H284 H 0.5074 0.34356 0.64269 0.0
C285 C 0.63614 0.38173 0.64771 0.0
C286 C 0.60413 0.33973 0.66184 0.0
H287 H 0.64708 0.44063 0.61863 0.0
H288 H 0.67205 0.39209 0.64772 0.0
C289 C 0.5579 0.32788 0.66174 0.0
C290 C 0.24837 0.51921 0.80485 0.0
C291 C 0.23606 0.54867 0.78795 0.0
H292 H 0.30014 0.51187 0.83249 0.0
C293 C 0.2658 0.59528 0.79076 0.0
H294 H 0.22659 0.48316 0.80303 0.0
C295 C 0.30841 0.61182 0.80732 0.0
C296 C 0.32206 0.58208 0.82159 0.0
H297 H 0.25699 0.61894 0.7786 0.0
H298 H 0.33148 0.64773 0.80723 0.0
C299 C 0.29084 0.53574 0.82154 0.0
C300 C 0.71508 0.24296 -0.03493 0.0
C301 C 0.72997 0.21109 -0.03814 0.0
H302 H 0.73196 0.30989 -0.01938 0.0
C303 C 0.7718 0.22084 -0.02235 0.0
H304 H 0.68262 0.23617 -0.04616 0.0
C305 C 0.79975 0.26281 -0.00659 0.0
C306 C 0.78669 0.29612 -0.00652 0.0
H307 H 0.78464 0.19741 -0.02449 0.0
H308 H 0.83291 0.27007 0.00332 0.0
C309 C 0.74325 0.28514 -0.01943 0.0
C310 C 0.52647 0.68575 0.13081 0.0
C311 C 0.57309 0.69956 0.12763 0.0
H312 H 0.47623 0.70321 0.14751 0.0
C313 C 0.60471 0.73973 0.14469 0.0
H314 H 0.50117 0.65454 0.11855 0.0
C315 C 0.59038 0.76738 0.16158 0.0
C316 C 0.54415 0.75557 0.16164 0.0
H317 H 0.64086 0.75159 0.14265 0.0
H318 H 0.61594 0.7994 0.17246 0.0
C319 C 0.51214 0.71354 0.14753 0.0
C320 C 0.90019 0.57608 0.30491 0.0
C321 C 0.91257 0.54664 0.28805 0.0
H322 H 0.84834 0.58338 0.33248 0.0
C323 C 0.88287 0.50002 0.29085 0.0
H324 H 0.92194 0.61214 0.3031 0.0
C325 C 0.84023 0.48346 0.30737 0.0
C326 C 0.82651 0.51317 0.32161 0.0
H327 H 0.89173 0.47638 0.27873 0.0
H328 H 0.81719 0.44754 0.30728 0.0
C329 C 0.85769 0.55952 0.32156 0.0
C330 C 0.16223 0.6554 0.36372 0.0
C331 C 0.17007 0.63631 0.33249 0.0
H332 H 0.17391 0.6684 0.4208 0.0
C333 C 0.19298 0.61146 0.33612 0.0
H334 H 0.14517 0.6752 0.36174 0.0
C335 C 0.20975 0.60771 0.37006 0.0
C336 C 0.20415 0.62906 0.40088 0.0
H337 H 0.19919 0.59615 0.31248 0.0
H338 H 0.22865 0.58968 0.37181 0.0
C339 C 0.17913 0.65186 0.39753 0.0
C340 C 0.63039 0.16601 0.51043 0.0
C341 C 0.58298 0.14347 0.50579 0.0
H342 H 0.68621 0.20185 0.54702 0.0
C343 C 0.55502 0.1369 0.53618 0.0
H344 H 0.65266 0.17131 0.48744 0.0
C345 C 0.5741 0.15453 0.57013 0.0
C346 C 0.62155 0.17891 0.57447 0.0
H347 H 0.51838 0.12014 0.53334 0.0
H348 H 0.55158 0.15023 0.59271 0.0
C349 C 0.64953 0.18338 0.54453 0.0
C350 C 0.48623 0.54504 0.69974 0.0
C351 C 0.50795 0.57296 0.66967 0.0
H352 H 0.46824 0.541 0.75593 0.0
C353 C 0.53387 0.61963 0.6752 0.0
H354 H 0.4655 0.50901 0.69647 0.0
C355 C 0.53495 0.63817 0.7095 0.0
C356 C 0.51004 0.61029 0.73874 0.0
H357 H 0.55139 0.64195 0.65262 0.0
H358 H 0.55327 0.67438 0.71255 0.0
C359 C 0.48729 0.56349 0.73385 0.0
C360 C 0.98662 0.44039 0.86361 0.0
C361 C 0.97876 0.45955 0.83246 0.0
H362 H 0.97496 0.42723 0.92066 0.0
C363 C 0.95585 0.48439 0.83621 0.0
H364 H 1.00368 0.42059 0.86153 0.0
C365 C 0.9391 0.48805 0.87019 0.0
C366 C 0.9447 0.46661 0.90093 0.0
H367 H 0.94963 0.49976 0.81263 0.0
H368 H 0.9202 0.50607 0.87203 0.0
C369 C 0.96973 0.44383 0.89746 0.0
C370 C 0.59352 0.95858 0.03604 0.0
C371 C 0.5656 0.95201 0.00563 0.0
H372 H 0.59689 0.94525 0.09257 0.0
C373 C 0.51818 0.92949 0.01024 0.0
H374 H 0.63017 0.97533 0.03323 0.0
C375 C 0.499 0.91212 0.04431 0.0
C376 C 0.52695 0.91658 0.07427 0.0
H377 H 0.49594 0.92419 -0.01277 0.0
H378 H 0.46232 0.89367 0.04678 0.0
C379 C 0.5744 0.94095 0.06997 0.0
C380 C 0.61457 0.47538 0.17525 0.0
C381 C 0.64041 0.52206 0.16975 0.0
H382 H 0.59527 0.42064 0.21254 0.0
C383 C 0.66211 0.54999 0.19984 0.0
H384 H 0.59706 0.45306 0.15265 0.0
C385 C 0.66111 0.53155 0.23393 0.0
C386 C 0.63843 0.48475 0.23878 0.0
H387 H 0.68278 0.58603 0.1966 0.0
H388 H 0.68013 0.55405 0.25603 0.0
C389 C 0.61353 0.45685 0.20952 0.0
C390 C 0.50868 0.92127 0.33348 0.0
C391 C 0.48347 0.94344 0.33948 0.0
H392 H 0.5295 0.8876 0.29509 0.0
C393 C 0.46259 0.95194 0.30969 0.0
H394 H 0.52533 0.91456 0.35599 0.0
C395 C 0.46475 0.93638 0.27494 0.0
C396 C 0.48799 0.91217 0.26923 0.0
H397 H 0.44249 0.96848 0.31354 0.0
H398 H 0.44682 0.94202 0.25282 0.0
C399 C 0.51111 0.90594 0.29863 0.0
C400 C 0.54991 0.43206 0.47333 0.0
C401 C 0.57955 0.45321 0.50268 0.0
H402 H 0.54335 0.41393 0.41696 0.0
C403 C 0.62667 0.47619 0.49643 0.0
H404 H 0.51345 0.41368 0.47746 0.0
C405 C 0.6439 0.4763 0.46174 0.0
C406 C 0.61427 0.45304 0.43281 0.0
H407 H 0.65019 0.49296 0.51863 0.0
H408 H 0.68041 0.49313 0.45797 0.0
C409 C 0.5671 0.43186 0.43876 0.0
C410 C 0.16671 0.52 0.63504 0.0
C411 C 0.17424 0.54863 0.66491 0.0
H412 H 0.17684 0.51496 0.578 0.0
C413 C 0.19433 0.59512 0.65899 0.0
H414 H 0.15164 0.48403 0.63889 0.0
C415 C 0.20885 0.61289 0.62415 0.0
C416 C 0.20384 0.58449 0.59461 0.0
H417 H 0.20012 0.61784 0.68155 0.0
H418 H 0.22568 0.64903 0.62073 0.0
C419 C 0.18145 0.53776 0.60021 0.0
C420 C 0.63987 0.17411 0.83367 0.0
C421 C 0.66508 0.15193 0.83958 0.0
H422 H 0.61903 0.20783 0.79538 0.0
C423 C 0.68591 0.14344 0.80973 0.0
H424 H 0.62326 0.18082 0.85622 0.0
C425 C 0.68372 0.15903 0.77502 0.0
C426 C 0.66049 0.18326 0.7694 0.0
H427 H 0.70601 0.12688 0.81352 0.0
H428 H 0.70162 0.1534 0.75286 0.0
C429 C 0.63741 0.18948 0.79885 0.0
C430 C 0.59849 0.66282 -0.02661 0.0
C431 C 0.56881 0.64168 0.00272 0.0
H432 H 0.60514 0.68099 0.91705 0.0
C433 C 0.52169 0.61872 -0.00358 0.0
H434 H 0.63494 0.68118 -0.02244 0.0
C435 C 0.50451 0.61864 -0.03828 0.0
C436 C 0.53419 0.64192 -0.06718 0.0
H437 H 0.49813 0.60196 0.01859 0.0
H438 H 0.46801 0.60185 -0.04208 0.0
C439 C 0.58136 0.66305 -0.06119 0.0
C440 C 0.98212 0.57538 0.13527 0.0
C441 C 0.97464 0.54674 0.1651 0.0
H442 H 0.97195 0.58044 0.07825 0.0
C443 C 0.95462 0.50026 0.15911 0.0
H444 H 0.99713 0.61134 0.13917 0.0
C445 C 0.94011 0.48251 0.12426 0.0
C446 C 0.94506 0.51091 0.09477 0.0
H447 H 0.94886 0.47753 0.18164 0.0
H448 H 0.92333 0.44636 0.12079 0.0
C449 C 0.96739 0.55764 0.10042 0.0
loop_
_geom_bond_atom_site_label_1
_geom_bond_atom_site_label_2
_geom_bond_distance
_geom_bond_site_symmetry_2
_ccdc_geom_bond_type
H0 C8 0.930 . S
H1 C11 0.930 . S
H2 C13 0.930 . S
H3 C14 0.970 . S
H4 C14 0.970 . S
H5 C16 0.930 . S
H6 C18 0.930 . S
H7 C20 0.930 . S
C8 H0 0.930 . S
C8 C9 1.382 . S
C8 C10 1.426 . S
C9 C8 1.382 . S
C9 C13 1.389 . S
C10 C8 1.426 . S
C10 C11 1.375 . S
C10 C14 1.532 1_655 S
C11 H1 0.930 . S
C11 C10 1.375 . S
C11 C12 1.416 . S
C12 C11 1.416 . S
C12 C13 1.371 . S
C13 H2 0.930 . S
C13 C9 1.389 . S
C13 C12 1.371 . S
C14 H3 0.970 . S
C14 H4 0.970 . S
C14 C10 1.532 1_455 S
C14 C15 1.499 . S
C15 C14 1.499 . S
C15 C16 1.370 . S
C15 C20 1.415 . S
C16 H5 0.930 . S
C16 C15 1.370 . S
C16 C17 1.407 . S
C17 C16 1.407 . S
C17 C18 1.365 . S
C18 H6 0.930 . S
C18 C17 1.365 . S
C18 C19 1.393 . S
C19 C18 1.393 . S
C19 C20 1.387 . S
C20 H7 0.930 . S
C20 C15 1.415 . S
C20 C19 1.387 . S
H21 C29 0.930 . S
H22 C32 0.930 . S
H23 C34 0.930 . S
H24 C35 0.970 . S
H25 C35 0.970 . S
H26 C37 0.930 . S
H27 C39 0.930 . S
H28 C41 0.930 . S
C29 H21 0.930 . S
C29 C30 1.382 . S
C29 C31 1.426 . S
C30 C29 1.382 . S
C30 C34 1.389 . S
C31 C29 1.426 . S
C31 C32 1.375 . S
C31 C35 1.532 1_565 S
C32 H22 0.930 . S
C32 C31 1.375 . S
C32 C33 1.416 . S
C33 C32 1.416 . S
C33 C34 1.371 . S
C34 H23 0.930 . S
C34 C30 1.389 . S
C34 C33 1.371 . S
C35 H24 0.970 . S
C35 H25 0.970 . S
C35 C31 1.532 1_545 S
C35 C36 1.499 . S
C36 C35 1.499 . S
C36 C37 1.370 . S
C36 C41 1.415 . S
C37 H26 0.930 . S
C37 C36 1.370 . S
C37 C38 1.407 . S
C38 C37 1.407 . S
C38 C39 1.365 . S
C39 H27 0.930 . S
C39 C38 1.365 . S
C39 C40 1.393 . S
C40 C39 1.393 . S
C40 C41 1.387 . S
C41 H28 0.930 . S
C41 C36 1.415 . S
C41 C40 1.387 . S
H42 C50 0.930 . S
H43 C53 0.930 . S
H44 C55 0.930 . S
H45 C56 0.970 . S
H46 C56 0.970 . S
H47 C58 0.930 . S
H48 C60 0.930 . S
H49 C62 0.930 . S
C50 H42 0.930 . S
C50 C51 1.382 . S
C50 C52 1.426 . S
C51 C50 1.382 . S
C51 C55 1.389 . S
C52 C50 1.426 . S
C52 C53 1.375 . S
C52 C56 1.532 . S
C53 H43 0.930 . S
C53 C52 1.375 . S
C53 C54 1.416 . S
C54 C53 1.416 . S
C54 C55 1.371 . S
C55 H44 0.930 . S
C55 C51 1.389 . S
C55 C54 1.371 . S
C56 H45 0.970 . S
C56 H46 0.970 . S
C56 C52 1.532 . S
C56 C57 1.499 . S
C57 C56 1.499 . S
C57 C58 1.370 . S
C57 C62 1.415 . S
C58 H47 0.930 . S
C58 C57 1.370 . S
C58 C59 1.407 . S
C59 C58 1.407 . S
C59 C60 1.365 . S
C60 H48 0.930 . S
C60 C59 1.365 . S
C60 C61 1.393 . S
C61 C60 1.393 . S
C61 C62 1.387 . S
C62 H49 0.930 . S
C62 C57 1.415 . S
C62 C61 1.387 . S
H63 C71 0.930 . S
H64 C74 0.930 . S
H65 C76 0.930 . S
H66 C77 0.970 . S
H67 C77 0.970 . S
H68 C79 0.930 . S
H69 C81 0.930 . S
H70 C83 0.930 . S
C71 H63 0.930 . S
C71 C72 1.382 . S
C71 C73 1.426 . S
C72 C71 1.382 . S
C72 C76 1.389 . S
C73 C71 1.426 . S
C73 C74 1.375 . S
C73 C77 1.532 1_655 S
C74 H64 0.930 . S
C74 C73 1.375 . S
C74 C75 1.416 . S
C75 C74 1.416 . S
C75 C76 1.371 . S
C76 H65 0.930 . S
C76 C72 1.389 . S
C76 C75 1.371 . S
C77 H66 0.970 . S
C77 H67 0.970 . S
C77 C73 1.532 1_455 S
C77 C78 1.499 . S
C78 C77 1.499 . S
C78 C79 1.370 . S
C78 C83 1.415 . S
C79 H68 0.930 . S
C79 C78 1.370 . S
C79 C80 1.407 . S
C80 C79 1.407 . S
C80 C81 1.365 . S
C81 H69 0.930 . S
C81 C80 1.365 . S
C81 C82 1.393 . S
C82 C81 1.393 . S
C82 C83 1.387 . S
C83 H70 0.930 . S
C83 C78 1.415 . S
C83 C82 1.387 . S
H84 C92 0.930 . S
H85 C95 0.930 . S
H86 C97 0.930 . S
H87 C98 0.970 1_554 S
H88 C98 0.970 . S
H89 C100 0.930 . S
H90 C102 0.930 . S
H91 C104 0.930 . S
C92 H84 0.930 . S
C92 C93 1.382 . S
C92 C94 1.426 1_554 S
C93 C92 1.382 . S
C93 C97 1.389 1_554 S
C94 C92 1.426 1_556 S
C94 C95 1.375 . S
C94 C98 1.532 . S
C95 H85 0.930 . S
C95 C94 1.375 . S
C95 C96 1.416 . S
C96 C95 1.416 . S
C96 C97 1.371 . S
C97 H86 0.930 . S
C97 C93 1.389 1_556 S
C97 C96 1.371 . S
C98 H87 0.970 1_556 S
C98 H88 0.970 . S
C98 C94 1.532 . S
C98 C99 1.499 1_546 S
C99 C98 1.499 1_564 S
C99 C100 1.370 . S
C99 C104 1.415 1_554 S
C100 H89 0.930 . S
C100 C99 1.370 . S
C100 C101 1.407 . S
C101 C100 1.407 . S
C101 C102 1.365 . S
C102 H90 0.930 . S
C102 C101 1.365 . S
C102 C103 1.393 1_554 S
C103 C102 1.393 1_556 S
C103 C104 1.387 . S
C104 H91 0.930 . S
C104 C99 1.415 1_556 S
C104 C103 1.387 . S
H105 C113 0.930 . S
H106 C116 0.930 . S
H107 C118 0.930 . S
H108 C119 0.970 . S
H109 C119 0.970 . S
H110 C121 0.930 . S
H111 C123 0.930 . S
H112 C125 0.930 . S
C113 H105 0.930 . S
C113 C114 1.382 . S
C113 C115 1.426 . S
C114 C113 1.382 . S
C114 C118 1.389 . S
C115 C113 1.426 . S
C115 C116 1.375 . S
C115 C119 1.532 . S
C116 H106 0.930 . S
C116 C115 1.375 . S
C116 C117 1.416 . S
C117 C116 1.416 . S
C117 C118 1.371 . S
C118 H107 0.930 . S
C118 C114 1.389 . S
C118 C117 1.371 . S
C119 H108 0.970 . S
C119 H109 0.970 . S
C119 C115 1.532 . S
C119 C120 1.499 . S
C120 C119 1.499 . S
C120 C121 1.370 . S
C120 C125 1.415 . S
C121 H110 0.930 . S
C121 C120 1.370 . S
C121 C122 1.407 . S
C122 C121 1.407 . S
C122 C123 1.365 . S
C123 H111 0.930 . S
C123 C122 1.365 . S
C123 C124 1.393 . S
C124 C123 1.393 . S
C124 C125 1.387 . S
C125 H112 0.930 . S
C125 C120 1.415 . S
C125 C124 1.387 . S
O126 Cd127 2.223 . S
O126 C134 1.315 . S
Cd127 O126 2.223 . S
Cd127 O130 2.297 . S
Cd127 O131 2.439 . S
Cd127 O137 2.240 . S
Cd128 O129 2.240 . S
Cd128 O136 2.223 . S
Cd128 O138 2.297 . S
Cd128 O139 2.439 . S
O129 Cd128 2.240 . S
O129 C134 1.279 . S
O130 Cd127 2.297 . S
O130 C132 1.247 . S
O131 Cd127 2.439 . S
O131 C132 1.208 . S
C132 O130 1.247 . S
C132 O131 1.208 . S
C133 O138 1.247 . S
C133 O139 1.208 . S
C134 O126 1.315 . S
C134 O129 1.279 . S
C135 O136 1.315 . S
C135 O137 1.279 . S
O136 Cd128 2.223 . S
O136 C135 1.315 . S
O137 Cd127 2.240 . S
O137 C135 1.279 . S
O138 Cd128 2.297 . S
O138 C133 1.247 . S
O139 Cd128 2.439 . S
O139 C133 1.208 . S
O140 Cd141 2.223 . S
O140 C148 1.315 . S
Cd141 O140 2.223 . S
Cd141 O144 2.297 . S
Cd141 O145 2.439 . S
Cd141 O151 2.240 . S
Cd142 O143 2.240 . S
Cd142 O150 2.223 . S
Cd142 O152 2.297 . S
Cd142 O153 2.439 . S
O143 Cd142 2.240 . S
O143 C148 1.279 . S
O144 Cd141 2.297 . S
O144 C146 1.247 . S
O145 Cd141 2.439 . S
O145 C146 1.208 . S
C146 O144 1.247 . S
C146 O145 1.208 . S
C147 O152 1.247 . S
C147 O153 1.208 . S
C148 O140 1.315 . S
C148 O143 1.279 . S
C149 O150 1.315 . S
C149 O151 1.279 . S
O150 Cd142 2.223 . S
O150 C149 1.315 . S
O151 Cd141 2.240 . S
O151 C149 1.279 . S
O152 Cd142 2.297 . S
O152 C147 1.247 . S
O153 Cd142 2.439 . S
O153 C147 1.208 . S
O154 Cd155 2.223 . S
O154 C162 1.315 . S
Cd155 O154 2.223 . S
Cd155 O158 2.297 . S
Cd155 O159 2.439 . S
Cd155 O165 2.240 . S
Cd156 O157 2.240 . S
Cd156 O164 2.223 . S
Cd156 O166 2.297 . S
Cd156 O167 2.439 . S
O157 Cd156 2.240 . S
O157 C162 1.279 . S
O158 Cd155 2.297 . S
O158 C160 1.247 . S
O159 Cd155 2.439 . S
O159 C160 1.208 . S
C160 O158 1.247 . S
C160 O159 1.208 . S
C161 O166 1.247 . S
C161 O167 1.208 . S
C162 O154 1.315 . S
C162 O157 1.279 . S
C163 O164 1.315 . S
C163 O165 1.279 . S
O164 Cd156 2.223 . S
O164 C163 1.315 . S
O165 Cd155 2.240 . S
O165 C163 1.279 . S
O166 Cd156 2.297 . S
O166 C161 1.247 . S
O167 Cd156 2.439 . S
O167 C161 1.208 . S
O168 Cd169 2.223 . S
O168 C176 1.315 . S
Cd169 O168 2.223 . S
Cd169 O172 2.297 . S
Cd169 O173 2.439 . S
Cd169 O179 2.240 . S
Cd170 O171 2.240 . S
Cd170 O178 2.223 . S
Cd170 O180 2.297 . S
Cd170 O181 2.439 . S
O171 Cd170 2.240 . S
O171 C176 1.279 . S
O172 Cd169 2.297 . S
O172 C174 1.247 . S
O173 Cd169 2.439 . S
O173 C174 1.208 . S
C174 O172 1.247 . S
C174 O173 1.208 . S
C175 O180 1.247 . S
C175 O181 1.208 . S
C176 O168 1.315 . S
C176 O171 1.279 . S
C177 O178 1.315 . S
C177 O179 1.279 . S
O178 Cd170 2.223 . S
O178 C177 1.315 . S
O179 Cd169 2.240 . S
O179 C177 1.279 . S
O180 Cd170 2.297 . S
O180 C175 1.247 . S
O181 Cd170 2.439 . S
O181 C175 1.208 . S
O182 Cd183 2.223 . S
O182 C190 1.315 . S
Cd183 O182 2.223 . S
Cd183 O186 2.297 . S
Cd183 O187 2.439 . S
Cd183 O193 2.240 . S
Cd184 O185 2.240 . S
Cd184 O192 2.223 . S
Cd184 O194 2.297 . S
Cd184 O195 2.439 . S
O185 Cd184 2.240 . S
O185 C190 1.279 . S
O186 Cd183 2.297 . S
O186 C188 1.247 . S
O187 Cd183 2.439 . S
O187 C188 1.208 . S
C188 O186 1.247 . S
C188 O187 1.208 . S
C189 O194 1.247 . S
C189 O195 1.208 . S
C190 O182 1.315 . S
C190 O185 1.279 . S
C191 O192 1.315 . S
C191 O193 1.279 . S
O192 Cd184 2.223 . S
O192 C191 1.315 . S
O193 Cd183 2.240 . S
O193 C191 1.279 . S
O194 Cd184 2.297 . S
O194 C189 1.247 . S
O195 Cd184 2.439 . S
O195 C189 1.208 . S
O196 Cd197 2.223 . S
O196 C204 1.315 . S
Cd197 O196 2.223 . S
Cd197 O200 2.297 . S
Cd197 O201 2.439 . S
Cd197 O207 2.240 . S
Cd198 O199 2.240 . S
Cd198 O206 2.223 . S
Cd198 O208 2.297 . S
Cd198 O209 2.439 . S
O199 Cd198 2.240 . S
O199 C204 1.279 . S
O200 Cd197 2.297 . S
O200 C202 1.247 . S
O201 Cd197 2.439 . S
O201 C202 1.208 . S
C202 O200 1.247 . S
C202 O201 1.208 . S
C203 O208 1.247 . S
C203 O209 1.208 . S
C204 O196 1.315 . S
C204 O199 1.279 . S
C205 O206 1.315 . S
C205 O207 1.279 . S
O206 Cd198 2.223 . S
O206 C205 1.315 . S
O207 Cd197 2.240 . S
O207 C205 1.279 . S
O208 Cd198 2.297 . S
O208 C203 1.247 . S
O209 Cd198 2.439 . S
O209 C203 1.208 . S
C210 C211 1.387 . S
C210 H214 0.950 . S
C210 C219 1.390 . S
C211 C210 1.387 . S
C211 C213 1.387 . S
H212 C219 0.950 . S
C213 C211 1.387 . S
C213 C215 1.390 . S
C213 H217 0.950 . S
H214 C210 0.950 . S
C215 C213 1.390 . S
C215 C216 1.387 . S
C215 H218 0.950 . S
C216 C215 1.387 . S
C216 C219 1.387 . S
H217 C213 0.950 . S
H218 C215 0.950 . S
C219 C210 1.390 . S
C219 H212 0.950 . S
C219 C216 1.387 . S
C220 C221 1.387 . S
C220 H224 0.950 . S
C220 C229 1.390 . S
C221 C220 1.387 . S
C221 C223 1.387 . S
H222 C229 0.950 . S
C223 C221 1.387 . S
C223 C225 1.390 . S
C223 H227 0.950 . S
H224 C220 0.950 . S
C225 C223 1.390 . S
C225 C226 1.387 . S
C225 H228 0.950 . S
C226 C225 1.387 . S
C226 C229 1.387 . S
H227 C223 0.950 . S
H228 C225 0.950 . S
C229 C220 1.390 . S
C229 H222 0.950 . S
C229 C226 1.387 . S
C230 C231 1.387 . S
C230 H234 0.950 . S
C230 C239 1.390 . S
C231 C230 1.387 . S
C231 C233 1.387 . S
H232 C239 0.950 . S
C233 C231 1.387 . S
C233 C235 1.390 . S
C233 H237 0.950 . S
H234 C230 0.950 . S
C235 C233 1.390 . S
C235 C236 1.387 . S
C235 H238 0.950 . S
C236 C235 1.387 . S
C236 C239 1.387 . S
H237 C233 0.950 . S
H238 C235 0.950 . S
C239 C230 1.390 . S
C239 H232 0.950 . S
C239 C236 1.387 . S
C240 C241 1.387 . S
C240 H244 0.950 . S
C240 C249 1.390 . S
C241 C240 1.387 . S
C241 C243 1.387 . S
H242 C249 0.950 . S
C243 C241 1.387 . S
C243 C245 1.390 . S
C243 H247 0.950 . S
H244 C240 0.950 . S
C245 C243 1.390 . S
C245 C246 1.387 . S
C245 H248 0.950 . S
C246 C245 1.387 . S
C246 C249 1.387 . S
H247 C243 0.950 . S
H248 C245 0.950 . S
C249 C240 1.390 . S
C249 H242 0.950 . S
C249 C246 1.387 . S
C250 C251 1.387 . S
C250 H254 0.950 . S
C250 C259 1.390 . S
C251 C250 1.387 . S
C251 C253 1.387 . S
H252 C259 0.950 . S
C253 C251 1.387 . S
C253 C255 1.390 . S
C253 H257 0.950 . S
H254 C250 0.950 . S
C255 C253 1.390 . S
C255 C256 1.387 . S
C255 H258 0.950 . S
C256 C255 1.387 . S
C256 C259 1.387 . S
H257 C253 0.950 . S
H258 C255 0.950 . S
C259 C250 1.390 . S
C259 H252 0.950 . S
C259 C256 1.387 . S
C260 C261 1.387 . S
C260 H264 0.950 . S
C260 C269 1.390 . S
C261 C260 1.387 . S
C261 C263 1.387 . S
H262 C269 0.950 . S
C263 C261 1.387 . S
C263 C265 1.390 . S
C263 H267 0.950 . S
H264 C260 0.950 . S
C265 C263 1.390 . S
C265 C266 1.387 . S
C265 H268 0.950 . S
C266 C265 1.387 . S
C266 C269 1.387 . S
H267 C263 0.950 . S
H268 C265 0.950 . S
C269 C260 1.390 . S
C269 H262 0.950 . S
C269 C266 1.387 . S
C270 C271 1.387 . S
C270 H274 0.950 . S
C270 C279 1.390 . S
C271 C270 1.387 . S
C271 C273 1.387 . S
H272 C279 0.950 . S
C273 C271 1.387 . S
C273 C275 1.390 . S
C273 H277 0.950 . S
H274 C270 0.950 . S
C275 C273 1.390 . S
C275 C276 1.387 . S
C275 H278 0.950 . S
C276 C275 1.387 . S
C276 C279 1.387 . S
H277 C273 0.950 . S
H278 C275 0.950 . S
C279 C270 1.390 . S
C279 H272 0.950 . S
C279 C276 1.387 . S
C280 C281 1.387 . S
C280 H284 0.950 . S
C280 C289 1.390 . S
C281 C280 1.387 . S
C281 C283 1.387 . S
H282 C289 0.950 . S
C283 C281 1.387 . S
C283 C285 1.390 . S
C283 H287 0.950 . S
H284 C280 0.950 . S
C285 C283 1.390 . S
C285 C286 1.387 . S
C285 H288 0.950 . S
C286 C285 1.387 . S
C286 C289 1.387 . S
H287 C283 0.950 . S
H288 C285 0.950 . S
C289 C280 1.390 . S
C289 H282 0.950 . S
C289 C286 1.387 . S
C290 C291 1.387 . S
C290 H294 0.950 . S
C290 C299 1.390 . S
C291 C290 1.387 . S
C291 C293 1.387 . S
H292 C299 0.950 . S
C293 C291 1.387 . S
C293 C295 1.390 . S
C293 H297 0.950 . S
H294 C290 0.950 . S
C295 C293 1.390 . S
C295 C296 1.387 . S
C295 H298 0.950 . S
C296 C295 1.387 . S
C296 C299 1.387 . S
H297 C293 0.950 . S
H298 C295 0.950 . S
C299 C290 1.390 . S
C299 H292 0.950 . S
C299 C296 1.387 . S
C300 C301 1.387 . S
C300 H304 0.950 . S
C300 C309 1.390 . S
C301 C300 1.387 . S
C301 C303 1.387 . S
H302 C309 0.950 . S
C303 C301 1.387 . S
C303 C305 1.390 . S
C303 H307 0.950 1_554 S
H304 C300 0.950 . S
C305 C303 1.390 . S
C305 C306 1.387 . S
C305 H308 0.950 . S
C306 C305 1.387 . S
C306 C309 1.387 . S
H307 C303 0.950 1_556 S
H308 C305 0.950 . S
C309 C300 1.390 . S
C309 H302 0.950 . S
C309 C306 1.387 . S
C310 C311 1.387 . S
C310 H314 0.950 . S
C310 C319 1.390 . S
C311 C310 1.387 . S
C311 C313 1.387 . S
H312 C319 0.950 . S
C313 C311 1.387 . S
C313 C315 1.390 . S
C313 H317 0.950 . S
H314 C310 0.950 . S
C315 C313 1.390 . S
C315 C316 1.387 . S
C315 H318 0.950 . S
C316 C315 1.387 . S
C316 C319 1.387 . S
H317 C313 0.950 . S
H318 C315 0.950 . S
C319 C310 1.390 . S
C319 H312 0.950 . S
C319 C316 1.387 . S
C320 C321 1.387 . S
C320 H324 0.950 . S
C320 C329 1.390 . S
C321 C320 1.387 . S
C321 C323 1.387 . S
H322 C329 0.950 . S
C323 C321 1.387 . S
C323 C325 1.390 . S
C323 H327 0.950 . S
H324 C320 0.950 . S
C325 C323 1.390 . S
C325 C326 1.387 . S
C325 H328 0.950 . S
C326 C325 1.387 . S
C326 C329 1.387 . S
H327 C323 0.950 . S
H328 C325 0.950 . S
C329 C320 1.390 . S
C329 H322 0.950 . S
C329 C326 1.387 . S
C330 C331 1.387 . S
C330 H334 0.950 . S
C330 C339 1.390 . S
C331 C330 1.387 . S
C331 C333 1.387 . S
H332 C339 0.950 . S
C333 C331 1.387 . S
C333 C335 1.390 . S
C333 H337 0.950 . S
H334 C330 0.950 . S
C335 C333 1.390 . S
C335 C336 1.387 . S
C335 H338 0.950 . S
C336 C335 1.387 . S
C336 C339 1.387 . S
H337 C333 0.950 . S
H338 C335 0.950 . S
C339 C330 1.390 . S
C339 H332 0.950 . S
C339 C336 1.387 . S
C340 C341 1.387 . S
C340 H344 0.950 . S
C340 C349 1.390 . S
C341 C340 1.387 . S
C341 C343 1.387 . S
H342 C349 0.950 . S
C343 C341 1.387 . S
C343 C345 1.390 . S
C343 H347 0.950 . S
H344 C340 0.950 . S
C345 C343 1.390 . S
C345 C346 1.387 . S
C345 H348 0.950 . S
C346 C345 1.387 . S
C346 C349 1.387 . S
H347 C343 0.950 . S
H348 C345 0.950 . S
C349 C340 1.390 . S
C349 H342 0.950 . S
C349 C346 1.387 . S
C350 C351 1.387 . S
C350 H354 0.950 . S
C350 C359 1.390 . S
C351 C350 1.387 . S
C351 C353 1.387 . S
H352 C359 0.950 . S
C353 C351 1.387 . S
C353 C355 1.390 . S
C353 H357 0.950 . S
H354 C350 0.950 . S
C355 C353 1.390 . S
C355 C356 1.387 . S
C355 H358 0.950 . S
C356 C355 1.387 . S
C356 C359 1.387 . S
H357 C353 0.950 . S
H358 C355 0.950 . S
C359 C350 1.390 . S
C359 H352 0.950 . S
C359 C356 1.387 . S
C360 C361 1.387 . S
C360 H364 0.950 . S
C360 C369 1.390 . S
C361 C360 1.387 . S
C361 C363 1.387 . S
H362 C369 0.950 . S
C363 C361 1.387 . S
C363 C365 1.390 . S
C363 H367 0.950 . S
H364 C360 0.950 . S
C365 C363 1.390 . S
C365 C366 1.387 . S
C365 H368 0.950 . S
C366 C365 1.387 . S
C366 C369 1.387 . S
H367 C363 0.950 . S
H368 C365 0.950 . S
C369 C360 1.390 . S
C369 H362 0.950 . S
C369 C366 1.387 . S
C370 C371 1.387 . S
C370 H374 0.950 . S
C370 C379 1.390 . S
C371 C370 1.387 . S
C371 C373 1.387 . S
H372 C379 0.950 . S
C373 C371 1.387 . S
C373 C375 1.390 . S
C373 H377 0.950 . S
H374 C370 0.950 . S
C375 C373 1.390 . S
C375 C376 1.387 . S
C375 H378 0.950 . S
C376 C375 1.387 . S
C376 C379 1.387 . S
H377 C373 0.950 . S
H378 C375 0.950 . S
C379 C370 1.390 . S
C379 H372 0.950 . S
C379 C376 1.387 . S
C380 C381 1.387 . S
C380 H384 0.950 . S
C380 C389 1.390 . S
C381 C380 1.387 . S
C381 C383 1.387 . S
H382 C389 0.950 . S
C383 C381 1.387 . S
C383 C385 1.390 . S
C383 H387 0.950 . S
H384 C380 0.950 . S
C385 C383 1.390 . S
C385 C386 1.387 . S
C385 H388 0.950 . S
C386 C385 1.387 . S
C386 C389 1.387 . S
H387 C383 0.950 . S
H388 C385 0.950 . S
C389 C380 1.390 . S
C389 H382 0.950 . S
C389 C386 1.387 . S
C390 C391 1.387 . S
C390 H394 0.950 . S
C390 C399 1.390 . S
C391 C390 1.387 . S
C391 C393 1.387 . S
H392 C399 0.950 . S
C393 C391 1.387 . S
C393 C395 1.390 . S
C393 H397 0.950 . S
H394 C390 0.950 . S
C395 C393 1.390 . S
C395 C396 1.387 . S
C395 H398 0.950 . S
C396 C395 1.387 . S
C396 C399 1.387 . S
H397 C393 0.950 . S
H398 C395 0.950 . S
C399 C390 1.390 . S
C399 H392 0.950 . S
C399 C396 1.387 . S
C400 C401 1.387 . S
C400 H404 0.950 . S
C400 C409 1.390 . S
C401 C400 1.387 . S
C401 C403 1.387 . S
H402 C409 0.950 . S
C403 C401 1.387 . S
C403 C405 1.390 . S
C403 H407 0.950 . S
H404 C400 0.950 . S
C405 C403 1.390 . S
C405 C406 1.387 . S
C405 H408 0.950 . S
C406 C405 1.387 . S
C406 C409 1.387 . S
H407 C403 0.950 . S
H408 C405 0.950 . S
C409 C400 1.390 . S
C409 H402 0.950 . S
C409 C406 1.387 . S
C410 C411 1.387 . S
C410 H414 0.950 . S
C410 C419 1.390 . S
C411 C410 1.387 . S
C411 C413 1.387 . S
H412 C419 0.950 . S
C413 C411 1.387 . S
C413 C415 1.390 . S
C413 H417 0.950 . S
H414 C410 0.950 . S
C415 C413 1.390 . S
C415 C416 1.387 . S
C415 H418 0.950 . S
C416 C415 1.387 . S
C416 C419 1.387 . S
H417 C413 0.950 . S
H418 C415 0.950 . S
C419 C410 1.390 . S
C419 H412 0.950 . S
C419 C416 1.387 . S
C420 C421 1.387 . S
C420 H424 0.950 . S
C420 C429 1.390 . S
C421 C420 1.387 . S
C421 C423 1.387 . S
H422 C429 0.950 . S
C423 C421 1.387 . S
C423 C425 1.390 . S
C423 H427 0.950 . S
H424 C420 0.950 . S
C425 C423 1.390 . S
C425 C426 1.387 . S
C425 H428 0.950 . S
C426 C425 1.387 . S
C426 C429 1.387 . S
H427 C423 0.950 . S
H428 C425 0.950 . S
C429 C420 1.390 . S
C429 H422 0.950 . S
C429 C426 1.387 . S
C430 C431 1.387 . S
C430 H434 0.950 . S
C430 C439 1.390 . S
C431 C430 1.387 . S
C431 C433 1.387 . S
H432 C439 0.950 . S
C433 C431 1.387 . S
C433 C435 1.390 . S
C433 H437 0.950 . S
H434 C430 0.950 . S
C435 C433 1.390 . S
C435 C436 1.387 1_554 S
C435 H438 0.950 1_554 S
C436 C435 1.387 1_556 S
C436 C439 1.387 1_556 S
H437 C433 0.950 . S
H438 C435 0.950 1_556 S
C439 C430 1.390 . S
C439 H432 0.950 . S
C439 C436 1.387 1_554 S
C440 C441 1.387 . S
C440 H444 0.950 . S
C440 C449 1.390 . S
C441 C440 1.387 . S
C441 C443 1.387 . S
H442 C449 0.950 . S
C443 C441 1.387 . S
C443 C445 1.390 . S
C443 H447 0.950 . S
H444 C440 0.950 . S
C445 C443 1.390 . S
C445 C446 1.387 . S
C445 H448 0.950 . S
C446 C445 1.387 . S
C446 C449 1.387 . S
H447 C443 0.950 . S
H448 C445 0.950 . S
C449 C440 1.390 . S
C449 H442 0.950 . S
C449 C446 1.387 . S
C216 C203 1.478 . S
C211 C19 1.421 . S
C221 C40 1.425 . S
C226 C132 1.481 . S
C231 C51 1.420 . S
C236 C146 1.488 . S
C241 C72 1.412 . S
C246 C160 1.483 . S
C256 C174 1.479 . S
C251 C103 1.426 . S
C261 C114 1.412 . S
C266 C189 1.483 . S
C271 C30 1.416 . S
C276 C147 1.488 . S
C281 C61 1.425 . S
C286 C161 1.481 . S
C291 C82 1.423 . S
C296 C175 1.479 . S
C306 C188 1.481 . S
C301 C93 1.412 . S
C316 C202 1.477 . S
C311 C124 1.424 . S
C326 C133 1.481 . S
C321 C9 1.414 . S
C331 C17 1.480 . S
C336 C149 1.532 . S
C341 C38 1.478 . S
C346 C163 1.528 . S
C356 C177 1.525 . S
C351 C54 1.474 . S
C361 C75 1.478 . S
C366 C190 1.529 1_556 S
C376 C204 1.525 . S
C371 C101 1.476 . S
C386 C135 1.524 . S
C381 C117 1.477 . S
C396 C205 1.524 . S
C391 C33 1.477 . S
C401 C59 1.478 . S
C406 C134 1.526 . S
C416 C148 1.531 . S
C411 C80 1.479 . S
C421 C96 1.477 . S
C426 C162 1.524 . S
C431 C122 1.475 . S
C436 C176 1.526 . S
C441 C12 1.480 . S
C446 C191 1.528 . S
