# Generated by pormake.
# Topology zzz, (3,6)-cn, num edge types: 1
# Building blocks:
#     Node 0, Type 0, BuildingBlock: VETTIZ_charged_linker_0, # of connection points: 3
#     Node 1, Type 0, BuildingBlock: VETTIZ_charged_linker_0, # of connection points: 3
#     Node 2, Type 0, BuildingBlock: VETTIZ_charged_linker_0, # of connection points: 3
#     Node 3, Type 0, BuildingBlock: VETTIZ_charged_linker_0, # of connection points: 3
#     Node 4, Type 0, BuildingBlock: VETTIZ_charged_linker_0, # of connection points: 3
#     Node 5, Type 0, BuildingBlock: VETTIZ_charged_linker_0, # of connection points: 3
#     Node 6, Type 0, BuildingBlock: VETTIZ_charged_linker_0, # of connection points: 3
#     Node 7, Type 0, BuildingBlock: VETTIZ_charged_linker_0, # of connection points: 3
#     Node 8, Type 1, BuildingBlock: BETDEL_clean_sbu_0, # of connection points: 6
#     Node 9, Type 1, BuildingBlock: BETDEL_clean_sbu_0, # of connection points: 6
#     Node 10, Type 1, BuildingBlock: BETDEL_clean_sbu_0, # of connection points: 6
#     Node 11, Type 1, BuildingBlock: BETDEL_clean_sbu_0, # of connection points: 6
#     Edge 12, Type (0, 1), BuildingBlock: XUDNAN_clean_linker_2, # of connection points: 2
#     Edge 13, Type (0, 1), BuildingBlock: XUDNAN_clean_linker_2, # of connection points: 2
#     Edge 14, Type (0, 1), BuildingBlock: XUDNAN_clean_linker_2, # of connection points: 2
#     Edge 15, Type (0, 1), BuildingBlock: XUDNAN_clean_linker_2, # of connection points: 2
#     Edge 16, Type (0, 1), BuildingBlock: XUDNAN_clean_linker_2, # of connection points: 2
#     Edge 17, Type (0, 1), BuildingBlock: XUDNAN_clean_linker_2, # of connection points: 2
#     Edge 18, Type (0, 1), BuildingBlock: XUDNAN_clean_linker_2, # of connection points: 2
#     Edge 19, Type (0, 1), BuildingBlock: XUDNAN_clean_linker_2, # of connection points: 2
#     Edge 20, Type (0, 1), BuildingBlock: XUDNAN_clean_linker_2, # of connection points: 2
#     Edge 21, Type (0, 1), BuildingBlock: XUDNAN_clean_linker_2, # of connection points: 2
#     Edge 22, Type (0, 1), BuildingBlock: XUDNAN_clean_linker_2, # of connection points: 2
#     Edge 23, Type (0, 1), BuildingBlock: XUDNAN_clean_linker_2, # of connection points: 2
#     Edge 24, Type (0, 1), BuildingBlock: XUDNAN_clean_linker_2, # of connection points: 2
#     Edge 25, Type (0, 1), BuildingBlock: XUDNAN_clean_linker_2, # of connection points: 2
#     Edge 26, Type (0, 1), BuildingBlock: XUDNAN_clean_linker_2, # of connection points: 2
#     Edge 27, Type (0, 1), BuildingBlock: XUDNAN_clean_linker_2, # of connection points: 2
#     Edge 28, Type (0, 1), BuildingBlock: XUDNAN_clean_linker_2, # of connection points: 2
#     Edge 29, Type (0, 1), BuildingBlock: XUDNAN_clean_linker_2, # of connection points: 2
#     Edge 30, Type (0, 1), BuildingBlock: XUDNAN_clean_linker_2, # of connection points: 2
#     Edge 31, Type (0, 1), BuildingBlock: XUDNAN_clean_linker_2, # of connection points: 2
#     Edge 32, Type (0, 1), BuildingBlock: XUDNAN_clean_linker_2, # of connection points: 2
#     Edge 33, Type (0, 1), BuildingBlock: XUDNAN_clean_linker_2, # of connection points: 2
#     Edge 34, Type (0, 1), BuildingBlock: XUDNAN_clean_linker_2, # of connection points: 2
#     Edge 35, Type (0, 1), BuildingBlock: XUDNAN_clean_linker_2, # of connection points: 2
# Relax obj value: 0.342
# Max RMSD: 0.231
# Mean RMSD: 0.212
data_MOF--net-zzz--node1-BETDEL_clean_sbu_0--node2-VETTIZ_charged_linker_0--edge1-XUDNAN_clean_linker_2
_symmetry_space_group_name_H-M    P1
_symmetry_Int_Tables_number       1
_symmetry_cell_setting            triclinic
loop_
_symmetry_equiv_pos_as_xyz
'x, y, z'
_cell_length_a     55.667696
_cell_length_b     55.414051
_cell_length_c     19.760211
_cell_angle_alpha  90.735236
_cell_angle_beta   89.463567
_cell_angle_gamma 95.724206
loop_
_atom_site_label
_atom_site_type_symbol
_atom_site_fract_x
_atom_site_fract_y
_atom_site_fract_z
_atom_type_partial_charge
C0 C 0.80378 0.49868 0.22027 0.0
C1 C 0.82134 0.4879 0.25834 0.0
C2 C 0.8221 0.46256 0.25339 0.0
C3 C 0.79391 0.46046 0.16152 0.0
C4 C 0.78954 0.48415 0.1733 0.0
C5 C 0.76842 0.49038 0.13064 0.0
H6 H 0.70379 0.46252 0.84138 0.0
C7 C 0.7811 0.45147 0.10051 0.0
C8 C 0.76504 0.4683 0.08272 0.0
H9 H 0.68679 0.51409 0.99667 0.0
H10 H 0.7215 0.50459 0.061 0.0
H11 H 0.75751 0.47493 0.84051 0.0
H12 H 0.71282 0.41905 0.94142 0.0
H13 H 0.73758 0.40602 0.90434 0.0
H14 H 0.71769 0.42105 0.85154 0.0
H15 H 0.75079 0.44572 0.80181 0.0
H16 H 0.77704 0.45255 0.85433 0.0
C17 C 0.77533 0.51413 0.09228 0.0
C18 C 0.74643 0.4917 0.17841 0.0
C19 C 0.82547 0.39515 0.95405 0.0
C20 C 0.82572 0.39237 0.88341 0.0
C21 C 0.80512 0.39711 0.84689 0.0
C22 C 0.7861 0.40757 0.87936 0.0
C23 C 0.78817 0.4141 0.94827 0.0
C24 C 0.80728 0.40717 0.98496 0.0
C25 C 0.80863 0.41828 0.05478 0.0
C26 C 0.78728 0.43353 0.05337 0.0
C27 C 0.77552 0.43105 0.99091 0.0
C28 C 0.83319 0.43414 0.06041 0.0
C29 C 0.80532 0.39769 0.1076 0.0
C30 C 0.70678 0.4714 0.89007 0.0
C31 C 0.69183 0.4888 0.91366 0.0
C32 C 0.69775 0.50061 0.97632 0.0
C33 C 0.71767 0.4948 0.01456 0.0
C34 C 0.73167 0.47664 0.99096 0.0
C35 C 0.72597 0.46531 0.92959 0.0
C36 C 0.7424 0.44632 0.91168 0.0
C37 C 0.75743 0.44636 0.97523 0.0
C38 C 0.75183 0.46473 0.02102 0.0
C39 C 0.75768 0.45512 0.84877 0.0
C40 C 0.72693 0.42175 0.90122 0.0
H41 H 0.80971 0.4297 0.20298 0.0
H42 H 0.80168 0.51781 0.22596 0.0
H43 H 0.74625 0.47791 0.2189 0.0
H44 H 0.72909 0.48762 0.15217 0.0
H45 H 0.74685 0.50982 0.20337 0.0
H46 H 0.79208 0.51277 0.06195 0.0
H47 H 0.77859 0.52968 0.12815 0.0
H48 H 0.76101 0.51826 0.05719 0.0
H49 H 0.8408 0.39091 0.98338 0.0
H50 H 0.80462 0.39488 0.79238 0.0
H51 H 0.77138 0.41175 0.84849 0.0
H52 H 0.83534 0.44743 0.01853 0.0
H53 H 0.84853 0.42281 0.05772 0.0
H54 H 0.83546 0.44453 0.10795 0.0
H55 H 0.80154 0.37943 0.08372 0.0
H56 H 0.78978 0.39987 0.14204 0.0
H57 H 0.82181 0.39706 0.13853 0.0
H58 H 0.83476 0.4535 0.28283 0.0
C59 C 0.8081 0.44878 0.20608 0.0
C60 C 0.92501 0.7822 0.84734 0.0
C61 C 0.91843 0.80608 0.85532 0.0
C62 C 0.90364 0.81111 0.91144 0.0
C63 C 0.91146 0.77329 0.96114 0.0
C64 C 0.92076 0.76587 0.9006 0.0
C65 C 0.92819 0.74057 0.90476 0.0
H66 H 0.9867 0.66268 0.04982 0.0
C67 C 0.91741 0.75653 0.01384 0.0
C68 C 0.92436 0.73584 0.98059 0.0
H69 H 0.93186 0.64507 0.89806 0.0
H70 H 0.91359 0.68238 0.92788 0.0
H71 H 0.99606 0.72374 0.02919 0.0
H72 H 0.94351 0.68385 0.1603 0.0
H73 H 0.96062 0.70796 0.20318 0.0
H74 H 0.97541 0.68268 0.17141 0.0
H75 H 1.00537 0.70577 0.09756 0.0
H76 H 0.99645 0.73567 0.11266 0.0
C77 C 0.95497 0.74027 0.88359 0.0
C78 C 0.91155 0.72373 0.85868 0.0
C79 C 0.94877 0.80042 0.226 0.0
C80 C 0.96889 0.79797 0.26616 0.0
C81 C 0.98055 0.77657 0.26049 0.0
C82 C 0.9724 0.75808 0.21387 0.0
C83 C 0.95323 0.76168 0.17024 0.0
C84 C 0.94202 0.78283 0.17649 0.0
C85 C 0.92498 0.78606 0.11966 0.0
C86 C 0.92687 0.76273 0.07928 0.0
C87 C 0.94316 0.74817 0.10972 0.0
C88 C 0.93426 0.80939 0.08013 0.0
C89 C 0.89937 0.78703 0.14941 0.0
C90 C 0.97126 0.66722 0.02146 0.0
C91 C 0.96133 0.65165 0.96917 0.0
C92 C 0.94034 0.65731 0.936 0.0
C93 C 0.93046 0.67899 0.95037 0.0
C94 C 0.94224 0.69536 0.99609 0.0
C95 C 0.96066 0.68887 0.03565 0.0
C96 C 0.96616 0.70751 0.09215 0.0
C97 C 0.94786 0.72579 0.07778 0.0
C98 C 0.93574 0.71888 0.01798 0.0
C99 C 0.99245 0.7188 0.083 0.0
C100 C 0.9613 0.69493 0.16074 0.0
H101 H 0.88964 0.79922 0.00812 0.0
H102 H 0.9352 0.77686 0.8039 0.0
H103 H 0.90795 0.73282 0.81049 0.0
H104 H 0.89391 0.71844 0.88388 0.0
H105 H 0.92014 0.70729 0.84344 0.0
H106 H 0.96674 0.75323 0.91517 0.0
H107 H 0.95777 0.7452 0.82961 0.0
H108 H 0.96102 0.72194 0.88938 0.0
H109 H 0.94009 0.81708 0.228 0.0
H110 H 0.99647 0.77459 0.29023 0.0
H111 H 0.98204 0.74228 0.21109 0.0
H112 H 0.9468 0.82217 0.10981 0.0
H113 H 0.91935 0.82022 0.06669 0.0
H114 H 0.94445 0.80502 0.03371 0.0
H115 H 0.89494 0.77205 0.18576 0.0
H116 H 0.88543 0.78493 0.10973 0.0
H117 H 0.89793 0.80451 0.17663 0.0
H118 H 0.89629 0.82839 0.91672 0.0
C119 C 0.90004 0.79459 0.96459 0.0
C120 C 0.82481 0.01629 0.96395 0.0
C121 C 0.83654 0.0254 0.90368 0.0
C122 C 0.82519 0.04233 0.86585 0.0
C123 C 0.79331 0.04328 0.94923 0.0
C124 C 0.80297 0.02554 0.98574 0.0
C125 C 0.78696 0.01847 0.04709 0.0
H126 H 0.68322 0.04042 0.22381 0.0
C127 C 0.77168 0.05046 0.98466 0.0
C128 C 0.76742 0.03616 0.04287 0.0
H129 H 0.72868 0.98392 0.26831 0.0
H130 H 0.75628 0.99824 0.17707 0.0
H131 H 0.72674 0.08231 0.20377 0.0
H132 H 0.68204 0.0337 0.07746 0.0
H133 H 0.68661 0.06022 0.03035 0.0
H134 H 0.67195 0.06105 0.11191 0.0
H135 H 0.69616 0.08691 0.18417 0.0
H136 H 0.72121 0.09934 0.13232 0.0
C137 C 0.80191 0.02253 0.11211 0.0
C138 C 0.77628 0.99193 0.03739 0.0
C139 C 0.72364 0.112 0.87383 0.0
C140 C 0.701 0.11983 0.89035 0.0
C141 C 0.69226 0.11688 0.95728 0.0
C142 C 0.70409 0.10345 1.00365 0.0
C143 C 0.72468 0.09254 0.98275 0.0
C144 C 0.73487 0.098 0.92027 0.0
C145 C 0.75638 0.08432 0.90613 0.0
C146 C 0.7566 0.06879 0.96907 0.0
C147 C 0.73779 0.07342 0.01292 0.0
C148 C 0.77891 0.10318 0.90167 0.0
C149 C 0.75113 0.06856 0.84119 0.0
C150 C 0.69931 0.03122 0.21613 0.0
C151 C 0.70347 0.01102 0.25467 0.0
C152 C 0.72456 0.99941 0.23936 0.0
C153 C 0.7406 1.00767 0.18621 0.0
C154 C 0.73554 0.02767 0.14729 0.0
C155 C 0.71524 0.0391 0.16404 0.0
C156 C 0.71152 0.05959 0.11843 0.0
C157 C 0.73258 0.05865 0.07013 0.0
C158 C 0.74707 0.03999 0.08608 0.0
C159 C 0.71381 0.08334 0.16151 0.0
C160 C 0.68677 0.05363 0.08278 0.0
H161 H 0.79717 0.06452 0.85676 0.0
H162 H 0.83257 1.00277 0.99358 0.0
H163 H 0.76815 0.98918 0.98632 0.0
H164 H 0.76182 0.98661 0.07432 0.0
H165 H 0.79055 0.9794 0.0421 0.0
H166 H 0.81125 0.04123 0.11359 0.0
H167 H 0.81582 0.00952 0.11444 0.0
H168 H 0.7905 0.02038 0.15806 0.0
H169 H 0.73112 0.1144 0.82328 0.0
H170 H 0.67495 0.12269 0.97211 0.0
H171 H 0.69554 0.10047 0.05205 0.0
H172 H 0.77658 0.11961 0.93311 0.0
H173 H 0.78239 0.10926 0.84883 0.0
H174 H 0.79537 0.09631 0.92183 0.0
H175 H 0.7315 0.06272 0.83635 0.0
H176 H 0.75963 0.05137 0.84148 0.0
H177 H 0.75696 0.07876 0.79487 0.0
H178 H 0.8326 0.04878 0.81775 0.0
C179 C 0.80417 0.05143 0.88845 0.0
C180 C 0.56749 0.72275 0.2793 0.0
C181 C 0.5779 0.70102 0.29385 0.0
C182 C 0.59957 0.69644 0.2606 0.0
C183 C 0.59463 0.7286 0.18384 0.0
C184 C 0.57687 0.73683 0.22405 0.0
C185 C 0.5701 0.76091 0.19751 0.0
H186 H 0.57073 0.83317 0.91682 0.0
C187 C 0.59601 0.74172 0.12055 0.0
C188 C 0.58305 0.76205 0.12841 0.0
H189 H 0.54696 0.85204 0.11739 0.0
H190 H 0.55729 0.8131 0.15918 0.0
H191 H 0.61885 0.80692 0.94939 0.0
H192 H 0.54432 0.78555 0.91763 0.0
H193 H 0.55671 0.75773 0.90937 0.0
H194 H 0.56559 0.78203 0.85128 0.0
H195 H 0.60225 0.80835 0.87213 0.0
H196 H 0.61585 0.78141 0.89385 0.0
C197 C 0.58079 0.78109 0.24625 0.0
C198 C 0.54248 0.76007 0.19066 0.0
C199 C 0.59736 0.68754 0.91581 0.0
C200 C 0.58789 0.69071 0.85151 0.0
C201 C 0.58717 0.71431 0.82689 0.0
C202 C 0.59328 0.73444 0.86925 0.0
C203 C 0.59841 0.73069 0.93768 0.0
C204 C 0.60146 0.70759 0.95929 0.0
C205 C 0.60386 0.70626 0.03483 0.0
C206 C 0.60085 0.73253 0.05518 0.0
C207 C 0.59698 0.7464 0.99825 0.0
C208 C 0.62907 0.69838 0.05147 0.0
C209 C 0.58291 0.68828 0.06222 0.0
C210 C 0.56854 0.8294 0.97033 0.0
C211 C 0.55888 0.84606 0.01421 0.0
C212 C 0.55487 0.83969 0.08276 0.0
C213 C 0.5611 0.81728 0.10712 0.0
C214 C 0.5712 0.80105 0.06232 0.0
C215 C 0.57437 0.80723 0.99497 0.0
C216 C 0.58262 0.78706 0.95237 0.0
C217 C 0.5874 0.76905 0.00647 0.0
C218 C 0.58017 0.77689 0.07101 0.0
C219 C 0.60612 0.79635 0.91446 0.0
C220 C 0.56141 0.77757 0.90503 0.0
H221 H 0.62479 0.70692 0.1814 0.0
H222 H 0.55188 0.72773 0.30724 0.0
H223 H 0.53547 0.74411 0.15947 0.0
H224 H 0.53705 0.77643 0.16596 0.0
H225 H 0.53353 0.75866 0.24112 0.0
H226 H 0.59939 0.77787 0.26138 0.0
H227 H 0.56961 0.78164 0.29303 0.0
H228 H 0.58251 0.79915 0.22309 0.0
H229 H 0.59813 0.66945 0.93519 0.0
H230 H 0.58024 0.71707 0.77684 0.0
H231 H 0.59213 0.75204 0.84858 0.0
H232 H 0.63778 0.69034 0.00681 0.0
H233 H 0.62788 0.68407 0.09048 0.0
H234 H 0.64159 0.71402 0.06918 0.0
H235 H 0.56515 0.69387 0.04666 0.0
H236 H 0.58269 0.68691 0.11772 0.0
H237 H 0.58439 0.66957 0.04309 0.0
H238 H 0.60901 0.68106 0.27438 0.0
C239 C 0.6083 0.71061 0.20624 0.0
C240 C 0.32568 0.51528 0.18144 0.0
C241 C 0.34277 0.52916 0.22318 0.0
C242 C 0.34269 0.55469 0.22405 0.0
C243 C 0.30605 0.55145 0.16002 0.0
C244 C 0.30767 0.52714 0.14871 0.0
C245 C 0.2894 0.5174 0.09549 0.0
H246 H 0.19042 0.54155 0.91017 0.0
C247 C 0.28565 0.55899 0.12343 0.0
C248 C 0.27628 0.53992 0.0811 0.0
H249 H 0.22391 0.4747 0.90589 0.0
H250 H 0.25505 0.49236 0.98365 0.0
H251 H 0.2028 0.56748 0.09634 0.0
H252 H 0.24065 0.57725 0.90298 0.0
H253 H 0.23584 0.6017 0.95794 0.0
H254 H 0.21054 0.58582 0.91434 0.0
H255 H 0.18515 0.55386 0.02956 0.0
H256 H 0.19205 0.58547 0.02918 0.0
C257 C 0.27239 0.4968 0.12678 0.0
C258 C 0.30334 0.50925 0.03281 0.0
C259 C 0.23234 0.61524 0.2365 0.0
C260 C 0.21063 0.62331 0.21345 0.0
C261 C 0.20756 0.62595 0.14324 0.0
C262 C 0.22329 0.6161 0.09734 0.0
C263 C 0.24143 0.60302 0.12242 0.0
C264 C 0.24767 0.60514 0.18959 0.0
C265 C 0.26955 0.59215 0.2041 0.0
C266 C 0.27289 0.57939 0.13564 0.0
C267 C 0.25462 0.58409 0.091 0.0
C268 C 0.2639 0.57371 0.26152 0.0
C269 C 0.29053 0.61131 0.22322 0.0
C270 C 0.2043 0.53055 0.92647 0.0
C271 C 0.20441 0.50663 0.90324 0.0
C272 C 0.22329 0.49317 0.92383 0.0
C273 C 0.2413 0.50343 0.96883 0.0
C274 C 0.2405 0.52743 0.99279 0.0
C275 C 0.22212 0.54043 0.97092 0.0
C276 C 0.22347 0.5656 0.99978 0.0
C277 C 0.24581 0.56587 0.04355 0.0
C278 C 0.25594 0.54345 0.0397 0.0
C279 C 0.19983 0.56839 0.04096 0.0
C280 C 0.22771 0.58368 0.94081 0.0
H281 H 0.32617 0.58526 0.18837 0.0
H282 H 0.3261 0.49591 0.17513 0.0
H283 H 0.31843 0.52315 0.01979 0.0
H284 H 0.29194 0.50692 0.98743 0.0
H285 H 0.31113 0.49194 0.04255 0.0
H286 H 0.26464 0.50297 0.17534 0.0
H287 H 0.28233 0.48085 0.13729 0.0
H288 H 0.25707 0.4908 0.0936 0.0
H289 H 0.23574 0.61425 0.29019 0.0
H290 H 0.19155 0.63291 0.12363 0.0
H291 H 0.2198 0.61729 0.04426 0.0
H292 H 0.248 0.56076 0.24859 0.0
H293 H 0.26007 0.58305 0.3099 0.0
H294 H 0.27946 0.56317 0.27057 0.0
H295 H 0.28391 0.62662 0.25256 0.0
H296 H 0.3 0.61895 0.17735 0.0
H297 H 0.30358 0.60373 0.25702 0.0
H298 H 0.35683 0.56622 0.24912 0.0
C299 C 0.32466 0.56582 0.19162 0.0
C300 C 0.10447 0.23169 0.29174 0.0
C301 C 0.10723 0.20674 0.29112 0.0
C302 C 0.12179 0.19727 0.24043 0.0
C303 C 0.12011 0.23383 0.17784 0.0
C304 C 0.11158 0.24521 0.23417 0.0
C305 C 0.10673 0.27076 0.21875 0.0
H306 H 0.04679 0.34 0.06667 0.0
C307 C 0.11499 0.24776 0.11814 0.0
C308 C 0.11032 0.27076 0.14148 0.0
H309 H 0.10604 0.36247 0.20179 0.0
H310 H 0.12524 0.32586 0.17024 0.0
H311 H 0.09155 0.31681 0.94994 0.0
H312 H 0.03915 0.27982 0.0878 0.0
H313 H 0.03738 0.26875 1.00268 0.0
H314 H 0.02976 0.29877 0.02163 0.0
H315 H 0.05968 0.31789 0.93799 0.0
H316 H 0.0743 0.29165 0.9126 0.0
C317 C 0.12532 0.28826 0.25708 0.0
C318 C 0.08058 0.27496 0.23961 0.0
C319 C 0.07843 0.19482 0.92741 0.0
C320 C 0.06207 0.19805 0.87579 0.0
C321 C 0.05348 0.22109 0.86922 0.0
C322 C 0.06096 0.24036 0.91428 0.0
C323 C 0.07729 0.23662 0.96614 0.0
C324 C 0.08563 0.21402 0.97174 0.0
C325 C 0.10266 0.21262 0.02937 0.0
C326 C 0.10386 0.23846 0.05723 0.0
C327 C 0.08887 0.25263 0.02016 0.0
C328 C 0.12742 0.20694 1.00058 0.0
C329 C 0.09133 0.19308 0.07944 0.0
C330 C 0.06371 0.33696 0.09007 0.0
C331 C 0.07423 0.35328 0.14013 0.0
C332 C 0.09704 0.34955 0.16639 0.0
C333 C 0.10763 0.32844 0.1509 0.0
C334 C 0.09492 0.31089 0.11078 0.0
C335 C 0.07509 0.31577 0.07472 0.0
C336 C 0.06871 0.29545 0.02307 0.0
C337 C 0.08662 0.27713 0.04151 0.0
C338 C 0.10032 0.28643 0.09659 0.0
C339 C 0.07367 0.30589 0.95181 0.0
C340 C 0.04227 0.28508 0.03406 0.0
H341 H 0.13798 0.20294 0.14269 0.0
H342 H 0.09434 0.23949 0.33205 0.0
H343 H 0.06735 0.26166 0.21366 0.0
H344 H 0.07635 0.29347 0.22678 0.0
H345 H 0.07787 0.27322 0.29513 0.0
H346 H 0.12864 0.28138 0.30845 0.0
H347 H 0.11866 0.30622 0.26575 0.0
H348 H 0.14288 0.29049 0.22949 0.0
H349 H 0.08583 0.17759 0.9329 0.0
H350 H 0.0409 0.22415 0.82949 0.0
H351 H 0.05372 0.25738 0.90749 0.0
H352 H 0.13238 0.21804 0.95509 0.0
H353 H 0.12705 0.1875 0.98573 0.0
H354 H 0.14213 0.21131 0.03722 0.0
H355 H 0.07722 0.18016 0.05577 0.0
H356 H 0.08238 0.20144 0.1231 0.0
H357 H 0.10485 0.18142 0.09797 0.0
H358 H 0.12503 0.17831 0.24007 0.0
C359 C 0.12853 0.21106 0.18335 0.0
C360 C 0.3043 0.02516 0.86494 0.0
C361 C 0.32835 0.03584 0.85136 0.0
C362 C 0.33862 0.05402 0.89626 0.0
C363 C 0.3057 0.04525 0.97348 0.0
C364 C 0.29275 0.03125 0.92651 0.0
C365 C 0.26721 0.02429 0.95483 0.0
H366 H 0.19868 0.02159 0.25254 0.0
C367 C 0.29358 0.04329 0.03819 0.0
C368 C 0.26977 0.03317 0.02921 0.0
H369 H 0.17057 1.00303 0.0542 0.0
H370 H 0.21133 0.01168 1.00492 0.0
H371 H 0.23406 0.99292 0.25217 0.0
H372 H 0.239 0.06732 0.22088 0.0
H373 H 0.26336 0.05998 0.27177 0.0
H374 H 0.23288 0.04953 0.29582 0.0
H375 H 0.2527 0.01142 0.30758 0.0
H376 H 0.26538 0.99685 0.23493 0.0
C377 C 0.26085 0.99669 0.94983 0.0
C378 C 0.24953 0.03839 0.91548 0.0
C379 C 0.34361 0.01277 0.21981 0.0
C380 C 0.33886 1.00655 0.28792 0.0
C381 C 0.31875 0.0156 0.32029 0.0
C382 C 0.30245 0.02792 0.28329 0.0
C383 C 0.30622 0.031 0.21362 0.0
C384 C 0.32753 0.02551 0.1845 0.0
C385 C 0.32984 0.03291 0.11185 0.0
C386 C 0.30486 0.04149 0.10103 0.0
C387 C 0.29063 0.03833 0.15948 0.0
C388 C 0.33417 0.01055 0.06708 0.0
C389 C 0.35084 0.05325 0.1054 0.0
C390 C 0.20106 0.02009 0.19818 0.0
C391 C 0.18137 0.01258 0.15707 0.0
C392 C 0.18546 0.00945 0.08678 0.0
C393 C 0.2089 0.01462 0.05824 0.0
C394 C 0.2284 0.02247 0.10072 0.0
C395 C 0.22416 0.02432 0.16979 0.0
C396 C 0.24681 0.02932 0.20976 0.0
C397 C 0.26528 0.0332 0.15315 0.0
C398 C 0.25471 0.02928 0.08849 0.0
C399 C 0.25007 1.00662 0.25331 0.0
C400 C 0.24548 0.05278 0.25221 0.0
H401 H 0.33513 0.07283 0.99101 0.0
H402 H 0.29527 0.01217 0.8299 0.0
H403 H 0.25553 0.05815 0.9166 0.0
H404 H 0.23112 0.0361 0.937 0.0
H405 H 0.24863 0.03225 0.86172 0.0
H406 H 0.27472 0.9871 0.9757 0.0
H407 H 0.25998 0.99058 0.89606 0.0
H408 H 0.24317 0.99117 0.974 0.0
H409 H 0.35886 1.00694 0.19241 0.0
H410 H 0.31527 0.0129 0.37373 0.0
H411 H 0.28745 0.03459 0.30952 0.0
H412 H 0.31899 0.99605 0.07267 0.0
H413 H 0.35119 1.00301 0.08069 0.0
H414 H 0.33605 0.01518 0.01289 0.0
H415 H 0.3658 0.05044 0.14044 0.0
H416 H 0.34469 0.07132 0.11731 0.0
H417 H 0.35919 0.05346 0.05431 0.0
H418 H 0.3564 0.06325 0.8871 0.0
C419 C 0.32713 0.05898 0.95696 0.0
C420 C 0.47834 0.27376 0.85301 0.0
C421 C 0.46476 0.29154 0.82518 0.0
C422 C 0.44003 0.29122 0.84206 0.0
C423 C 0.44531 0.26282 0.92954 0.0
C424 C 0.46764 0.25875 0.9046 0.0
C425 C 0.47807 0.23937 0.94601 0.0
H426 H 0.47355 0.17719 0.24092 0.0
C427 C 0.44206 0.25207 0.99592 0.0
C428 C 0.45847 0.23461 1.00127 0.0
H429 H 0.48274 0.14329 0.04536 0.0
H430 H 0.47209 0.18015 0.99019 0.0
H431 H 0.49761 0.23278 0.20475 0.0
H432 H 0.42559 0.19656 0.20152 0.0
H433 H 0.42444 0.22553 0.23876 0.0
H434 H 0.44203 0.20412 0.27799 0.0
H435 H 0.47957 0.22893 0.28017 0.0
H436 H 0.47827 0.25482 0.22622 0.0
C437 C 0.50232 0.24957 0.9771 0.0
C438 C 0.48122 0.21716 0.90055 0.0
C439 C 0.42422 0.31481 0.17097 0.0
C440 C 0.43117 0.3176 0.23882 0.0
C441 C 0.43663 0.29702 0.27463 0.0
C442 C 0.43756 0.27464 0.2411 0.0
C443 C 0.43369 0.27309 0.17085 0.0
C444 C 0.42642 0.29282 0.1373 0.0
C445 C 0.42686 0.28964 0.06167 0.0
C446 C 0.43446 0.26394 0.05536 0.0
C447 C 0.43946 0.25493 0.11934 0.0
C448 C 0.44637 0.30892 0.03291 0.0
C449 C 0.40142 0.29215 0.03311 0.0
C450 C 0.47486 0.17803 0.18626 0.0
C451 C 0.48002 0.15758 0.14781 0.0
C452 C 0.47969 0.15898 0.07631 0.0
C453 C 0.47451 0.18041 0.04413 0.0
C454 C 0.47045 0.2008 0.08361 0.0
C455 C 0.4695 0.19907 0.15335 0.0
C456 C 0.45913 0.22052 0.18599 0.0
C457 C 0.45215 0.23405 0.12395 0.0
C458 C 0.46069 0.22345 0.06483 0.0
C459 C 0.4795 0.23505 0.22687 0.0
C460 C 0.43667 0.21137 0.22881 0.0
H461 H 0.41132 0.27659 0.90764 0.0
H462 H 0.49704 0.27282 0.83856 0.0
H463 H 0.48967 0.22287 0.85134 0.0
H464 H 0.46352 0.20672 0.89011 0.0
H465 H 0.49355 0.2052 0.92394 0.0
H466 H 0.50013 0.26623 0.00761 0.0
H467 H 0.51605 0.25415 0.9369 0.0
H468 H 0.50929 0.23599 0.01077 0.0
H469 H 0.42018 0.33035 0.14207 0.0
H470 H 0.44174 0.29865 0.32737 0.0
H471 H 0.44278 0.25983 0.27022 0.0
H472 H 0.46436 0.3067 0.05473 0.0
H473 H 0.44192 0.32761 0.04454 0.0
H474 H 0.44818 0.30809 0.97751 0.0
H475 H 0.39007 0.30182 0.06893 0.0
H476 H 0.39152 0.27412 0.02227 0.0
H477 H 0.40242 0.30303 0.98627 0.0
H478 H 0.42893 0.30368 0.81845 0.0
C479 C 0.43005 0.27639 0.8938 0.0
Dy480 Dy 0.02214 0.98601 0.60559 0.0
C481 C 0.01813 0.05343 0.39844 0.0
C482 C 0.0192 0.94843 0.69367 0.0
Dy483 Dy 1.00349 0.01745 0.48515 0.0
O484 O 0.03465 0.95166 0.64415 0.0
O485 O 1.0068 0.96708 0.6985 0.0
O486 O 0.06048 0.99528 0.56817 0.0
O487 O 0.03175 0.99365 0.50097 0.0
C488 C 0.05421 0.99913 0.50594 0.0
C489 C 0.97076 0.01133 0.58737 0.0
O490 O 0.99626 0.98101 0.43612 0.0
O491 O 1.00093 0.95897 0.53505 0.0
O492 O 0.99556 0.04454 0.40573 0.0
O493 O 0.03202 0.04137 0.43444 0.0
O494 O 0.96681 0.02324 0.53259 0.0
O495 O 0.99128 1.00394 0.58114 0.0
O496 O 0.02906 0.02295 0.65564 0.0
O497 O 0.02251 0.04408 0.55733 0.0
C498 C 0.99523 0.96024 0.46976 0.0
C499 C 0.02938 0.0435 0.62121 0.0
Dy500 Dy 0.50504 0.97679 0.54534 0.0
C501 C 0.5656 0.05486 0.65496 0.0
C502 C 0.46998 0.94451 0.49051 0.0
Dy503 Dy 0.53113 0.0204 0.60908 0.0
O504 O 0.47062 0.95221 0.55264 0.0
O505 O 0.48912 0.95402 0.4589 0.0
O506 O 0.53933 0.95955 0.53056 0.0
O507 O 0.54006 0.9974 0.52287 0.0
C508 C 0.55299 0.97977 0.52227 0.0
C509 C 0.48277 0.01654 0.63074 0.0
O510 O 0.52539 0.03598 0.50802 0.0
O511 O 0.49442 1.00703 0.47926 0.0
O512 O 0.56978 0.03497 0.62375 0.0
O513 O 0.54254 0.05562 0.6633 0.0
O514 O 0.49594 0.03713 0.62477 0.0
O515 O 0.49638 0.99965 0.63029 0.0
O516 O 0.51107 0.96066 0.64577 0.0
O517 O 0.53813 0.99201 0.68619 0.0
C518 C 0.50717 0.0282 0.46861 0.0
C519 C 0.52658 0.96996 0.69168 0.0
Dy520 Dy 0.50767 0.5083 0.6343 0.0
C521 C 0.51873 0.46998 0.36918 0.0
C522 C 0.50937 0.53071 0.75799 0.0
Dy523 Dy 0.52288 0.48858 0.49739 0.0
O524 O 0.49062 0.52802 0.71891 0.0
O525 O 0.52591 0.51828 0.7324 0.0
O526 O 0.47343 0.51922 0.59022 0.0
O527 O 0.48853 0.48883 0.55042 0.0
C528 C 0.47227 0.50289 0.54233 0.0
C529 C 0.55833 0.49491 0.58901 0.0
O530 O 0.5256 0.52844 0.47263 0.0
O531 O 0.52134 0.54285 0.58242 0.0
O532 O 0.53451 0.46472 0.41338 0.0
O533 O 0.50711 0.48737 0.39353 0.0
O534 O 0.55795 0.47863 0.54089 0.0
O535 O 0.54167 0.50833 0.58002 0.0
O536 O 0.50686 0.46864 0.66026 0.0
O537 O 0.50857 0.45438 0.54944 0.0
C538 C 0.52523 0.54665 0.51695 0.0
C539 C 0.50643 0.4505 0.6154 0.0
Dy540 Dy 1.00453 0.48417 0.59107 0.0
C541 C 0.06364 0.55048 0.42397 0.0
C542 C 0.97232 0.4515 0.65422 0.0
Dy543 Dy 0.03237 0.5253 0.51008 0.0
O544 O 0.97822 0.45094 0.59078 0.0
O545 O 0.98406 0.47012 0.68409 0.0
O546 O 0.0271 0.45843 0.53943 0.0
O547 O 0.01729 0.48815 0.48505 0.0
C548 C 0.02886 0.4696 0.48201 0.0
C549 C 0.01832 0.54369 0.62994 0.0
O550 O 0.99634 0.52425 0.45936 0.0
O551 O 0.97446 0.50164 0.5416 0.0
O552 O 0.04264 0.55694 0.44173 0.0
O553 O 0.06698 0.52985 0.45103 0.0
O554 O 0.03046 0.55646 0.58432 0.0
O555 O 0.01465 0.52223 0.60811 0.0
O556 O 0.03883 0.48826 0.65065 0.0
O557 O 0.06147 0.50779 0.56446 0.0
C558 C 0.97549 0.51505 0.48621 0.0
C559 C 0.05989 0.49639 0.62325 0.0
H560 H 0.15507 0.04315 0.2301 0.0
H561 H 0.15507 0.96824 0.16533 0.0
H562 H 0.12094 0.95666 0.24395 0.0
H563 H 0.14437 0.03575 0.39837 0.0
H564 H 0.12325 0.05811 0.4099 0.0
H565 H 0.14517 0.06126 0.34233 0.0
H566 H 0.11135 0.06386 0.25733 0.0
H567 H 0.08761 0.05867 0.31991 0.0
H568 H 0.08812 0.039 0.24748 0.0
H569 H 0.08955 0.95295 0.34003 0.0
H570 H 0.06233 0.95777 0.43834 0.0
H571 H 0.08288 0.03521 0.44046 0.0
C572 C 0.14733 0.02443 0.23101 0.0
C573 C 0.15746 1.00661 0.19085 0.0
C574 C 0.14722 0.98223 0.19437 0.0
C575 C 0.12797 0.9755 0.23941 0.0
C576 C 0.11891 0.99342 0.27998 0.0
C577 C 0.12795 0.01749 0.27498 0.0
C578 C 0.11515 0.03323 0.32424 0.0
C579 C 0.13306 0.04795 0.37148 0.0
C580 C 0.0997 0.04972 0.28494 0.0
C581 C 0.09919 0.01414 0.36251 0.0
C582 C 0.10105 0.99132 0.33485 0.0
C583 C 0.08795 0.97077 0.36161 0.0
C584 C 0.07264 0.97364 0.41767 0.0
C585 C 0.07077 0.99678 0.44734 0.0
C586 C 0.08416 0.01728 0.41911 0.0
H587 H 0.50635 0.15145 0.26245 0.0
H588 H 0.46081 0.11139 0.11392 0.0
H589 H 0.46345 0.0737 0.17791 0.0
H590 H 0.54536 0.10382 0.29478 0.0
H591 H 0.54774 0.11103 0.38382 0.0
H592 H 0.54317 0.13446 0.32426 0.0
H593 H 0.50513 0.14454 0.3913 0.0
H594 H 0.5095 0.12107 0.45081 0.0
H595 H 0.48121 0.12084 0.40708 0.0
H596 H 0.46899 0.04061 0.26329 0.0
H597 H 0.47922 0.01487 0.3584 0.0
H598 H 0.52129 0.07662 0.44986 0.0
C599 C 0.49706 0.13472 0.24306 0.0
C600 C 0.48344 0.13444 0.18284 0.0
C601 C 0.47166 0.11208 0.15921 0.0
C602 C 0.47291 0.09058 0.19555 0.0
C603 C 0.48615 0.09162 0.25531 0.0
C604 C 0.49822 0.1131 0.27848 0.0
C605 C 0.51095 0.10948 0.34455 0.0
C606 C 0.53844 0.11502 0.33633 0.0
C607 C 0.5011 0.1249 0.4018 0.0
C608 C 0.50397 0.08266 0.35543 0.0
C609 C 0.48959 0.07265 0.30358 0.0
C610 C 0.48038 0.04828 0.30383 0.0
C611 C 0.48614 0.03381 0.3582 0.0
C612 C 0.50101 0.04364 0.41153 0.0
C613 C 0.51003 0.06843 0.40967 0.0
H614 H 0.35953 0.54465 0.34786 0.0
H615 H 0.36762 0.48875 0.19587 0.0
H616 H 0.40015 0.47377 0.26415 0.0
H617 H 0.42177 0.55944 0.37412 0.0
H618 H 0.41842 0.56581 0.4632 0.0
H619 H 0.39417 0.56991 0.40624 0.0
H620 H 0.36501 0.54108 0.47845 0.0
H621 H 0.38919 0.53691 0.53577 0.0
H622 H 0.37272 0.51096 0.49596 0.0
H623 H 0.43365 0.46618 0.35078 0.0
H624 H 0.46476 0.46817 0.44061 0.0
H625 H 0.43598 0.5317 0.52671 0.0
C626 C 0.36808 0.52929 0.32823 0.0
C627 C 0.36097 0.51811 0.26565 0.0
C628 C 0.37245 0.49761 0.24365 0.0
C629 C 0.39108 0.48904 0.28207 0.0
C630 C 0.39809 0.50115 0.3424 0.0
C631 C 0.38683 0.52088 0.36497 0.0
C632 C 0.39833 0.5319 0.42881 0.0
C633 C 0.40879 0.55832 0.41737 0.0
C634 C 0.38023 0.53009 0.48826 0.0
C635 C 0.41812 0.51552 0.43876 0.0
C636 C 0.41762 0.49761 0.38923 0.0
C637 C 0.43427 0.48032 0.38915 0.0
C638 C 0.45196 0.48164 0.44019 0.0
C639 C 0.45312 0.50037 0.48995 0.0
C640 C 0.43574 0.51727 0.48916 0.0
H641 H 0.06115 0.35444 0.27085 0.0
H642 H 0.06002 0.39561 0.08654 0.0
H643 H 0.04673 0.43057 0.15282 0.0
H644 H 1.00997 0.37895 0.35849 0.0
H645 H 0.02476 0.37862 0.43918 0.0
H646 H 0.0305 0.35655 0.37483 0.0
H647 H 0.07637 0.36984 0.38353 0.0
H648 H 0.07078 0.3923 0.44672 0.0
H649 H 0.08729 0.40119 0.37067 0.0
H650 H 0.03661 0.46242 0.24532 0.0
H651 H 0.02951 0.48615 0.35021 0.0
H652 H 0.04042 0.42334 0.4704 0.0
C653 C 0.05737 0.37058 0.24413 0.0
C654 C 0.06119 0.3723 0.17363 0.0
C655 C 0.05666 0.39383 0.1404 0.0
C656 C 0.04933 0.41378 0.17783 0.0
C657 C 0.04671 0.41178 0.24818 0.0
C658 C 0.05041 0.39049 0.28054 0.0
C659 C 0.04825 0.393 0.35649 0.0
C660 C 0.02711 0.37576 0.38384 0.0
C661 C 0.07209 0.38884 0.39135 0.0
C662 C 0.04305 0.41916 0.36264 0.0
C663 C 0.04195 0.42982 0.3 0.0
C664 C 0.03737 0.45409 0.29439 0.0
C665 C 0.03348 0.46749 0.35414 0.0
C666 C 0.0345 0.45665 0.41847 0.0
C667 C 0.0396 0.43226 0.42214 0.0
H668 H 0.87305 0.05472 0.84439 0.0
H669 H 0.85378 0.97975 0.89939 0.0
H670 H 0.88933 0.96803 0.83406 0.0
H671 H 0.88428 0.04186 0.6762 0.0
H672 H 0.90814 0.06604 0.66581 0.0
H673 H 0.88488 0.06886 0.72829 0.0
H674 H 0.91721 0.07637 0.82177 0.0
H675 H 0.94067 0.07373 0.7594 0.0
H676 H 0.93894 0.05473 0.83296 0.0
H677 H 0.92653 0.9648 0.75213 0.0
H678 H 0.95734 0.9699 0.6599 0.0
H679 H 0.94658 0.04598 0.64807 0.0
C680 C 0.87628 0.03577 0.84361 0.0
C681 C 0.86028 0.01816 0.87701 0.0
C682 C 0.86575 0.9937 0.87512 0.0
C683 C 0.88588 0.98688 0.83759 0.0
C684 C 0.90033 1.00468 0.80188 0.0
C685 C 0.89557 0.02866 0.80483 0.0
C686 C 0.9115 0.04414 0.75629 0.0
C687 C 0.89629 0.0559 0.70354 0.0
C688 C 0.92806 0.06338 0.79493 0.0
C689 C 0.92584 0.02519 0.72405 0.0
C690 C 0.9198 1.0026 0.7521 0.0
C691 C 0.93119 0.98245 0.73008 0.0
C692 C 0.94872 0.98548 0.6778 0.0
C693 C 0.95416 0.0083 0.64672 0.0
C694 C 0.94262 0.0283 0.67065 0.0
H695 H 0.58522 0.87736 0.92896 0.0
H696 H 0.51605 0.86593 0.03227 0.0
H697 H 0.50166 0.89981 0.96861 0.0
H698 H 0.587 0.94489 0.91643 0.0
H699 H 0.60099 0.94488 0.8338 0.0
H700 H 0.60684 0.92217 0.89436 0.0
H701 H 0.59289 0.88843 0.80734 0.0
H702 H 0.5868 0.91096 0.7468 0.0
H703 H 0.56329 0.88783 0.77073 0.0
H704 H 0.49275 0.93007 0.88054 0.0
H705 H 0.49109 0.95694 0.7819 0.0
H706 H 0.56655 0.95027 0.73858 0.0
C707 C 0.56724 0.88241 0.93939 0.0
C708 C 0.55175 0.86907 0.98585 0.0
C709 C 0.52832 0.87611 0.9978 0.0
C710 C 0.51997 0.89524 0.96154 0.0
C711 C 0.53542 0.90743 0.91432 0.0
C712 C 0.55873 0.90157 0.90408 0.0
C713 C 0.57121 0.91642 0.84748 0.0
C714 C 0.59279 0.93308 0.87466 0.0
C715 C 0.57899 0.89992 0.78969 0.0
C716 C 0.55101 0.93096 0.82564 0.0
C717 C 0.53053 0.92554 0.86504 0.0
C718 C 0.50885 0.93492 0.85061 0.0
C719 C 0.50805 0.95009 0.79451 0.0
C720 C 0.52882 0.956 0.75399 0.0
C721 C 0.55065 0.94656 0.7702 0.0
H722 H 0.66356 0.45797 0.82768 0.0
H723 H 0.671 0.53213 0.90501 0.0
H724 H 0.63661 0.54106 0.83502 0.0
H725 H 0.65233 0.47382 0.65694 0.0
H726 H 0.63147 0.44738 0.64109 0.0
H727 H 0.65518 0.44617 0.70196 0.0
H728 H 0.62347 0.43222 0.79378 0.0
H729 H 0.59963 0.43341 0.73321 0.0
H730 H 0.59894 0.45032 0.81161 0.0
H731 H 0.60137 0.54189 0.755 0.0
H732 H 0.57009 0.53574 0.66592 0.0
H733 H 0.5884 0.46222 0.63363 0.0
C734 C 0.65835 0.47625 0.82983 0.0
C735 C 0.67038 0.49429 0.8727 0.0
C736 C 0.66209 0.51772 0.87416 0.0
C737 C 0.64258 0.52306 0.83399 0.0
C738 C 0.63156 0.50492 0.79177 0.0
C739 C 0.63929 0.48204 0.7891 0.0
C740 C 0.62522 0.46608 0.73705 0.0
C741 C 0.64206 0.45789 0.68094 0.0
C742 C 0.61097 0.44422 0.77096 0.0
C743 C 0.60844 0.48361 0.71033 0.0
C744 C 0.61213 0.50581 0.74328 0.0
C745 C 0.59842 0.52474 0.72827 0.0
C746 C 0.58069 0.52102 0.67789 0.0
C747 C 0.57692 0.49857 0.64262 0.0
C748 C 0.59103 0.47967 0.65929 0.0
H749 H 1.00027 0.65165 0.88627 0.0
H750 H 0.94596 0.60394 0.98916 0.0
H751 H 0.95809 0.56902 0.92182 0.0
H752 H 0.9889 0.6281 0.72947 0.0
H753 H 0.01957 0.63114 0.6983 0.0
H754 H 0.01071 0.65102 0.7645 0.0
H755 H 0.04441 0.63816 0.84184 0.0
H756 H 0.05373 0.61849 0.77528 0.0
H757 H 0.04618 0.60643 0.85794 0.0
H758 H 0.97228 0.54051 0.83047 0.0
H759 H 0.98739 0.52157 0.72576 0.0
H760 H 0.03104 0.58872 0.68088 0.0
C761 C 0.99188 0.6336 0.89696 0.0
C762 C 0.97284 0.63021 0.94449 0.0
C763 C 0.96117 0.60664 0.95454 0.0
C764 C 0.96785 0.58678 0.91618 0.0
C765 C 0.98614 0.59084 0.86762 0.0
C766 C 0.99815 0.6137 0.85846 0.0
C767 C 0.01496 0.61403 0.7977 0.0
C768 C 1.00811 0.63213 0.74438 0.0
C769 C 0.04139 0.6196 0.81951 0.0
C770 C 1.00999 0.58809 0.77269 0.0
C771 C 0.99363 0.57479 0.81407 0.0
C772 C 0.98538 0.5507 0.7984 0.0
C773 C 0.99399 0.54007 0.73884 0.0
C774 C 1.01038 0.55366 0.69543 0.0
C775 C 0.0186 0.57783 0.71331 0.0
H776 H 0.11543 0.16684 0.36418 0.0
H777 H 0.05865 0.20735 0.28988 0.0
H778 H 0.0286 0.17259 0.31208 0.0
H779 H 0.09709 0.11189 0.29164 0.0
H780 H 0.10554 0.0949 0.36357 0.0
H781 H 0.12018 0.12456 0.34897 0.0
H782 H 0.10771 0.13478 0.47319 0.0
H783 H 0.09108 0.10538 0.48282 0.0
H784 H 0.07619 0.1325 0.49608 0.0
H785 H 1.00596 0.13094 0.32373 0.0
H786 H 0.99165 0.0876 0.34255 0.0
H787 H 0.0636 0.07498 0.4069 0.0
C788 C 0.09652 0.16867 0.35558 0.0
C789 C 0.08932 0.18974 0.32612 0.0
C790 C 0.06448 0.19151 0.31405 0.0
C791 C 0.04729 0.17175 0.32568 0.0
C792 C 0.05521 0.15056 0.35041 0.0
C793 C 0.07912 0.14917 0.36731 0.0
C794 C 0.08326 0.12399 0.38954 0.0
C795 C 0.10261 0.11323 0.3456 0.0
C796 C 0.08995 0.12416 0.4649 0.0
C797 C 0.05839 0.11106 0.37782 0.0
C798 C 0.0423 0.12667 0.35631 0.0
C799 C 0.01833 0.11856 0.34136 0.0
C800 C 0.01042 0.09393 0.35117 0.0
C801 C 0.02659 0.07791 0.37486 0.0
C802 C 0.0509 0.08664 0.38721 0.0
H803 H 0.38621 0.9985 0.25902 0.0
H804 H 0.32705 0.97643 0.39755 0.0
H805 H 0.35277 0.94901 0.45251 0.0
H806 H 0.4052 0.93481 0.24176 0.0
H807 H 0.43622 0.94699 0.23084 0.0
H808 H 0.41225 0.96329 0.19939 0.0
H809 H 0.4284 1.0016 0.26885 0.0
H810 H 0.45249 0.98543 0.29754 0.0
H811 H 0.4332 0.9988 0.35843 0.0
H812 H 0.38756 0.93054 0.50416 0.0
H813 H 0.42791 0.92466 0.54784 0.0
H814 H 0.46037 0.95085 0.35941 0.0
C815 C 0.3778 0.98728 0.29855 0.0
C816 C 0.35421 0.98994 0.32283 0.0
C817 C 0.34515 0.97548 0.37809 0.0
C818 C 0.35944 0.9593 0.40886 0.0
C819 C 0.3823 0.95684 0.38188 0.0
C820 C 0.39114 0.97015 0.32698 0.0
C821 C 0.41668 0.96545 0.30934 0.0
C822 C 0.41763 0.95181 0.2413 0.0
C823 C 0.43365 0.98923 0.30868 0.0
C824 C 0.42185 0.94933 0.36734 0.0
C825 C 0.40163 0.94406 0.40805 0.0
C826 C 0.40326 0.93365 0.47152 0.0
C827 C 0.42624 0.93022 0.49586 0.0
C828 C 0.44707 0.93715 0.45649 0.0
C829 C 0.44463 0.9448 0.38958 0.0
H830 H 0.47268 0.33345 0.30449 0.0
H831 H 0.40683 0.35816 0.22667 0.0
H832 H 0.42466 0.40068 0.23857 0.0
H833 H 0.48509 0.38364 0.42864 0.0
H834 H 0.5172 0.3839 0.41566 0.0
H835 H 0.49792 0.35605 0.40549 0.0
H836 H 0.51572 0.35145 0.28459 0.0
H837 H 0.53411 0.37994 0.29326 0.0
H838 H 0.51335 0.37507 0.22381 0.0
H839 H 0.45097 0.44023 0.25097 0.0
H840 H 0.48013 0.47431 0.28771 0.0
H841 H 0.52868 0.42313 0.35521 0.0
C842 C 0.46159 0.34776 0.29239 0.0
C843 C 0.43835 0.34248 0.2646 0.0
C844 C 0.42471 0.36183 0.24788 0.0
C845 C 0.43476 0.38599 0.25387 0.0
C846 C 0.45834 0.39043 0.27719 0.0
C847 C 0.47129 0.3719 0.29815 0.0
C848 C 0.49621 0.38148 0.32195 0.0
C849 C 0.49927 0.37595 0.39739 0.0
C850 C 0.51601 0.37137 0.27827 0.0
C851 C 0.49537 0.4083 0.31049 0.0
C852 C 0.47347 0.4131 0.28407 0.0
C853 C 0.46816 0.43669 0.27183 0.0
C854 C 0.48499 0.45593 0.29187 0.0
C855 C 0.50666 0.45133 0.32404 0.0
C856 C 0.51245 0.42723 0.32977 0.0
H857 H 0.1975 0.58788 0.30306 0.0
H858 H 0.17385 0.65344 0.21941 0.0
H859 H 0.13324 0.64301 0.26964 0.0
H860 H 0.14769 0.55127 0.26302 0.0
H861 H 0.14684 0.53267 0.33734 0.0
H862 H 0.17511 0.54751 0.30785 0.0
H863 H 0.18267 0.56881 0.42429 0.0
H864 H 0.15478 0.55337 0.45525 0.0
H865 H 0.15984 0.58597 0.46103 0.0
H866 H 0.09377 0.62222 0.31738 0.0
H867 H 0.06014 0.59451 0.36458 0.0
H868 H 0.11058 0.54228 0.4099 0.0
C869 C 0.18426 0.60079 0.29807 0.0
C870 C 0.18901 0.62172 0.25821 0.0
C871 C 0.17067 0.63744 0.25036 0.0
C872 C 0.14756 0.63161 0.27853 0.0
C873 C 0.14318 0.61004 0.31431 0.0
C874 C 0.16121 0.5951 0.32492 0.0
C875 C 0.15161 0.57177 0.35878 0.0
C876 C 0.15555 0.54951 0.31405 0.0
C877 C 0.16289 0.56988 0.42902 0.0
C878 C 0.1252 0.57556 0.3642 0.0
C879 C 0.12061 0.5978 0.3391 0.0
C880 C 0.09725 0.60488 0.3377 0.0
C881 C 0.07827 0.58899 0.364 0.0
C882 C 0.08283 0.56626 0.39024 0.0
C883 C 0.10655 0.55948 0.38965 0.0
H884 H 0.929 0.85423 0.89238 0.0
H885 H 0.93621 0.80419 0.72333 0.0
H886 H 0.96556 0.83431 0.66997 0.0
H887 H 0.93169 0.90868 0.78273 0.0
H888 H 0.94682 0.92751 0.84751 0.0
H889 H 0.9258 0.90207 0.87078 0.0
H890 H 0.95916 0.88573 0.94298 0.0
H891 H 0.98057 0.91057 0.91783 0.0
H892 H 0.9873 0.87977 0.90329 0.0
H893 H 0.9985 0.86732 0.64389 0.0
H894 H 0.02372 0.90596 0.62742 0.0
H895 H 0.99073 0.93651 0.8045 0.0
C896 C 0.93587 0.84959 0.84304 0.0
C897 C 0.93058 0.82618 0.81367 0.0
C898 C 0.94054 0.82141 0.74897 0.0
C899 C 0.95722 0.83849 0.71783 0.0
C900 C 0.96312 0.86062 0.75069 0.0
C901 C 0.95191 0.86666 0.81018 0.0
C902 C 0.96074 0.89213 0.83365 0.0
C903 C 0.94003 0.90857 0.83363 0.0
C904 C 0.97264 0.89202 0.90358 0.0
C905 C 0.97918 0.8992 0.77892 0.0
C906 C 0.98061 0.88054 0.73237 0.0
C907 C 0.99717 0.88226 0.67909 0.0
C908 C 0.01171 0.90416 0.67087 0.0
C909 C 1.00919 0.92414 0.71496 0.0
C910 C 0.9931 0.92143 0.77047 0.0
H911 H 0.69586 0.09616 0.76971 0.0
H912 H 0.66598 0.15186 0.89094 0.0
H913 H 0.62886 0.1466 0.82301 0.0
H914 H 0.6615 0.10741 0.60284 0.0
H915 H 0.65851 0.07517 0.58656 0.0
H916 H 0.68528 0.08947 0.62683 0.0
H917 H 0.67828 0.05914 0.72517 0.0
H918 H 0.65118 0.04536 0.68708 0.0
H919 H 0.65021 0.0575 0.77204 0.0
H920 H 0.59182 0.12681 0.76846 0.0
H921 H 0.5596 0.09717 0.72304 0.0
H922 H 0.61384 0.05463 0.63717 0.0
C923 C 0.68228 0.10848 0.77924 0.0
C924 C 0.68383 0.12434 0.83594 0.0
C925 C 0.66514 0.13947 0.84801 0.0
C926 C 0.64401 0.13666 0.80943 0.0
C927 C 0.64213 0.11909 0.75805 0.0
C928 C 0.66114 0.10576 0.74143 0.0
C929 C 0.6534 0.08516 0.69283 0.0
C930 C 0.66538 0.08958 0.62311 0.0
C931 C 0.65856 0.06036 0.72106 0.0
C932 C 0.62665 0.08752 0.68991 0.0
C933 C 0.62053 0.10758 0.72613 0.0
C934 C 0.59648 0.11155 0.73803 0.0
C935 C 0.57831 0.09454 0.7127 0.0
C936 C 0.5844 0.07375 0.6768 0.0
C937 C 0.60879 0.07056 0.66395 0.0
H938 H 0.60156 0.64626 0.81517 0.0
H939 H 0.53996 0.68817 0.8283 0.0
H940 H 0.51239 0.65059 0.81661 0.0
H941 H 0.5724 0.6023 0.68897 0.0
H942 H 0.58671 0.5774 0.72207 0.0
H943 H 0.60187 0.60759 0.72661 0.0
H944 H 0.6063 0.60428 0.85598 0.0
H945 H 0.59117 0.57402 0.8541 0.0
H946 H 0.57982 0.59693 0.90787 0.0
H947 H 0.49169 0.60801 0.81592 0.0
H948 H 0.47931 0.56425 0.79893 0.0
H949 H 0.55465 0.55051 0.78869 0.0
C950 C 0.58229 0.64751 0.813 0.0
C951 C 0.57281 0.66999 0.82178 0.0
C952 C 0.54751 0.67109 0.81998 0.0
C953 C 0.53173 0.64983 0.81463 0.0
C954 C 0.54163 0.62776 0.81025 0.0
C955 C 0.5663 0.62653 0.807 0.0
C956 C 0.57228 0.60062 0.79997 0.0
C957 C 0.58401 0.59674 0.73035 0.0
C958 C 0.58834 0.59357 0.85796 0.0
C959 C 0.54722 0.58738 0.80433 0.0
C960 C 0.52974 0.60334 0.80968 0.0
C961 C 0.5052 0.59532 0.81151 0.0
C962 C 0.49834 0.57041 0.80301 0.0
C963 C 0.51599 0.55398 0.79304 0.0
C964 C 0.54071 0.56252 0.79734 0.0
H965 H 0.86853 0.41695 0.91706 0.0
H966 H 0.83539 0.36681 0.76668 0.0
H967 H 0.87299 0.37209 0.69805 0.0
H968 H 0.89372 0.45779 0.80833 0.0
H969 H 0.92098 0.46629 0.85504 0.0
H970 H 0.89405 0.45452 0.89898 0.0
H971 H 0.91664 0.42058 0.95073 0.0
H972 H 0.94391 0.43247 0.90777 0.0
H973 H 0.93245 0.40113 0.89591 0.0
H974 H 0.91139 0.3879 0.63881 0.0
H975 H 0.9469 0.41292 0.59319 0.0
H976 H 0.95419 0.453 0.78296 0.0
C977 C 0.86947 0.40604 0.87144 0.0
C978 C 0.84916 0.39101 0.84795 0.0
C979 C 0.85082 0.37819 0.78597 0.0
C980 C 0.87213 0.38101 0.74692 0.0
C981 C 0.89153 0.39664 0.77083 0.0
C982 C 0.8904 0.40878 0.83206 0.0
C983 C 0.91219 0.42699 0.84269 0.0
C984 C 0.90477 0.45291 0.85174 0.0
C985 C 0.92719 0.41985 0.90284 0.0
C986 C 0.92538 0.42404 0.7765 0.0
C987 C 0.91345 0.40612 0.73623 0.0
C988 C 0.92113 0.40158 0.67045 0.0
C989 C 0.94125 0.41593 0.64492 0.0
C990 C 0.95326 0.43474 0.68489 0.0
C991 C 0.94551 0.43848 0.75185 0.0
H992 H 0.04894 0.14983 0.905 0.0
H993 H 0.06085 0.19974 0.73775 0.0
H994 H 0.05499 0.16528 0.65707 0.0
H995 H 0.07948 0.10189 0.83401 0.0
H996 H 0.05837 0.07765 0.86486 0.0
H997 H 0.06239 0.10612 0.91046 0.0
H998 H 0.0166 0.11037 0.90279 0.0
H999 H 0.01238 0.08174 0.85805 0.0
H1000 H 1.00225 0.10849 0.82122 0.0
H1001 H 0.05094 0.12607 0.59562 0.0
H1002 H 0.04393 0.08448 0.55268 0.0
H1003 H 0.03232 0.05824 0.75811 0.0
C1004 C 0.05007 0.1535 0.85131 0.0
C1005 C 0.05536 0.17757 0.8276 0.0
C1006 C 0.05655 0.1816 0.75707 0.0
C1007 C 0.05346 0.16209 0.71093 0.0
C1008 C 0.04892 0.13863 0.73601 0.0
C1009 C 0.04675 0.1342 0.80439 0.0
C1010 C 0.04147 0.1071 0.81734 0.0
C1011 C 0.06163 0.09764 0.85915 0.0
C1012 C 0.0167 0.1016 0.85189 0.0
C1013 C 0.04133 0.09697 0.7454 0.0
C1014 C 0.04589 0.11565 0.69978 0.0
C1015 C 0.04717 0.11132 0.63065 0.0
C1016 C 0.04306 0.08744 0.60693 0.0
C1017 C 0.0372 0.06779 0.65179 0.0
C1018 C 0.03679 0.07268 0.7224 0.0
H1019 H 0.35962 0.06307 0.76653 0.0
H1020 H 0.33559 0.98878 0.81845 0.0
H1021 H 0.37074 0.97501 0.75663 0.0
H1022 H 0.38799 0.05024 0.59762 0.0
H1023 H 0.41237 0.07363 0.61189 0.0
H1024 H 0.38288 0.07677 0.64739 0.0
H1025 H 0.40178 0.08265 0.7664 0.0
H1026 H 0.43121 0.0791 0.73171 0.0
H1027 H 0.4192 0.05972 0.79907 0.0
H1028 H 0.41253 0.97026 0.70551 0.0
H1029 H 0.45482 0.97471 0.66424 0.0
H1030 H 0.45215 0.05232 0.64837 0.0
C1031 C 0.36124 0.04379 0.76292 0.0
C1032 C 0.34457 0.027 0.7972 0.0
C1033 C 0.34766 1.00198 0.79162 0.0
C1034 C 0.36781 0.99402 0.75713 0.0
C1035 C 0.38471 0.01126 0.72775 0.0
C1036 C 0.38134 0.03563 0.72933 0.0
C1037 C 0.4031 0.05081 0.69978 0.0
C1038 C 0.39617 0.06362 0.63533 0.0
C1039 C 0.41448 0.06914 0.75238 0.0
C1040 C 0.41968 0.03134 0.68338 0.0
C1041 C 0.40866 0.00859 0.69909 0.0
C1042 C 0.42105 0.98797 0.69196 0.0
C1043 C 0.44514 0.99067 0.66841 0.0
C1044 C 0.45683 0.01382 0.65228 0.0
C1045 C 0.44371 0.03433 0.65952 0.0
H1046 H 0.46521 0.33914 0.85864 0.0
H1047 H 0.48936 0.29097 0.70346 0.0
H1048 H 0.50392 0.3267 0.63402 0.0
H1049 H 0.44341 0.38188 0.75128 0.0
H1050 H 0.45339 0.40796 0.80285 0.0
H1051 H 0.44643 0.37882 0.84145 0.0
H1052 H 0.48912 0.38174 0.89382 0.0
H1053 H 0.49617 0.41102 0.85586 0.0
H1054 H 0.5153 0.38715 0.83968 0.0
H1055 H 0.51212 0.36777 0.57791 0.0
H1056 H 0.51695 0.41051 0.54316 0.0
H1057 H 0.48893 0.43215 0.73809 0.0
C1058 C 0.47387 0.33617 0.81032 0.0
C1059 C 0.47617 0.31237 0.786 0.0
C1060 C 0.4876 0.30907 0.72289 0.0
C1061 C 0.49579 0.32925 0.68322 0.0
C1062 C 0.49272 0.35251 0.70811 0.0
C1063 C 0.48237 0.35603 0.77077 0.0
C1064 C 0.48084 0.38277 0.7858 0.0
C1065 C 0.45445 0.38816 0.79592 0.0
C1066 C 0.49628 0.39116 0.84744 0.0
C1067 C 0.49149 0.39387 0.72115 0.0
C1068 C 0.49815 0.37609 0.6769 0.0
C1069 C 0.50729 0.3818 0.61262 0.0
C1070 C 0.50984 0.40621 0.59325 0.0
C1071 C 0.50344 0.42483 0.638 0.0
C1072 C 0.49425 0.41845 0.70299 0.0
H1073 H 0.15567 0.50623 0.92282 0.0
H1074 H 0.20911 0.48646 0.77697 0.0
H1075 H 0.177 0.47826 0.69115 0.0
H1076 H 0.10529 0.46129 0.86321 0.0
H1077 H 0.08304 0.48222 0.87921 0.0
H1078 H 0.1097 0.48344 0.93072 0.0
H1079 H 0.1195 0.52882 0.90182 0.0
H1080 H 0.09309 0.5277 0.84964 0.0
H1081 H 0.12233 0.53767 0.81441 0.0
H1082 H 0.14021 0.47891 0.61696 0.0
H1083 H 0.10101 0.48365 0.56336 0.0
H1084 H 0.07067 0.50054 0.75901 0.0
C1085 C 0.16046 0.49946 0.87335 0.0
C1086 C 0.18486 0.49677 0.85655 0.0
C1087 C 0.19052 0.48823 0.79115 0.0
C1088 C 0.1724 0.48371 0.74205 0.0
C1089 C 0.14863 0.48739 0.75957 0.0
C1090 C 0.14256 0.49457 0.82418 0.0
C1091 C 0.11594 0.49838 0.8293 0.0
C1092 C 0.10271 0.48024 0.87853 0.0
C1093 C 0.11253 0.5247 0.85 0.0
C1094 C 0.10807 0.493 0.75692 0.0
C1095 C 0.12724 0.48676 0.71747 0.0
C1096 C 0.12498 0.48318 0.64774 0.0
C1097 C 0.10268 0.48602 0.61769 0.0
C1098 C 0.08272 0.49205 0.6572 0.0
C1099 C 0.08543 0.49529 0.72789 0.0
H1100 H 0.95408 0.82025 0.38288 0.0
H1101 H 1.00743 0.82658 0.22147 0.0
H1102 H 0.01973 0.86893 0.2565 0.0
H1103 H 0.93529 0.87751 0.37418 0.0
H1104 H 0.93266 0.8833 0.46379 0.0
H1105 H 0.92944 0.85259 0.43179 0.0
H1106 H 0.96361 0.84137 0.51006 0.0
H1107 H 0.96637 0.87188 0.54375 0.0
H1108 H 0.99244 0.85934 0.50833 0.0
H1109 H 0.02123 0.91199 0.29569 0.0
H1110 H 0.01885 0.9514 0.35374 0.0
H1111 H 0.96806 0.91705 0.49932 0.0
C1112 C 0.96904 0.83031 0.35703 0.0
C1113 C 0.98021 0.82011 0.30032 0.0
C1114 C 0.99916 0.83395 0.26602 0.0
C1115 C 1.00605 0.85807 0.28511 0.0
C1116 C 0.99415 0.86795 0.33961 0.0
C1117 C 0.97668 0.85431 0.37684 0.0
C1118 C 0.96673 0.8696 0.43301 0.0
C1119 C 0.93941 0.87081 0.42518 0.0
C1120 C 0.97265 0.85997 0.50293 0.0
C1121 C 0.98071 0.89409 0.41982 0.0
C1122 C 0.99613 0.89271 0.36498 0.0
C1123 C 1.0096 0.9132 0.33954 0.0
C1124 C 1.00787 0.93556 0.37223 0.0
C1125 C 0.99316 0.93725 0.43054 0.0
C1126 C 0.9794 0.91622 0.45467 0.0
H1127 H 0.67345 0.03733 0.33438 0.0
H1128 H 0.69003 0.9636 0.29244 0.0
H1129 H 0.65572 0.94825 0.36511 0.0
H1130 H 0.65043 0.02831 0.50866 0.0
H1131 H 0.62679 0.04782 0.49732 0.0
H1132 H 0.65477 0.05329 0.45082 0.0
H1133 H 0.63112 0.05126 0.33827 0.0
H1134 H 0.60312 0.04572 0.3844 0.0
H1135 H 0.61072 0.02478 0.31891 0.0
H1136 H 0.61734 0.9406 0.43501 0.0
H1137 H 0.57802 0.94109 0.49316 0.0
H1138 H 0.58409 0.0196 0.48214 0.0
C1139 C 0.67009 0.01791 0.34027 0.0
C1140 C 0.6848 1.00176 0.30667 0.0
C1141 C 0.67961 0.97653 0.31787 0.0
C1142 C 0.65993 0.96759 0.35889 0.0
C1143 C 0.64539 0.98399 0.38873 0.0
C1144 C 0.65028 0.00866 0.38003 0.0
C1145 C 0.63079 0.02237 0.41318 0.0
C1146 C 0.64133 0.03892 0.47091 0.0
C1147 C 0.61819 0.03688 0.36055 0.0
C1148 C 0.6138 1.00153 0.44057 0.0
C1149 C 0.62283 0.97958 0.4269 0.0
C1150 C 0.61023 0.9577 0.44608 0.0
C1151 C 0.58781 0.95819 0.47915 0.0
C1152 C 0.57779 0.98036 0.49223 0.0
C1153 C 0.59121 1.00235 0.47315 0.0
H1154 H 0.56941 0.65317 0.26223 0.0
H1155 H 0.55943 0.70495 0.42379 0.0
H1156 H 0.54327 0.67107 0.49796 0.0
H1157 H 0.5157 0.61177 0.29817 0.0
H1158 H 0.5306 0.58529 0.27623 0.0
H1159 H 0.53967 0.61376 0.2359 0.0
H1160 H 0.58373 0.61114 0.27404 0.0
H1161 H 0.57479 0.58276 0.31486 0.0
H1162 H 0.58993 0.60764 0.36258 0.0
H1163 H 0.53136 0.6306 0.55647 0.0
H1164 H 0.52239 0.5882 0.59242 0.0
H1165 H 0.53993 0.56323 0.39041 0.0
C1166 C 0.56367 0.65743 0.31316 0.0
C1167 C 0.56584 0.68168 0.33762 0.0
C1168 C 0.55784 0.68654 0.4041 0.0
C1169 C 0.54876 0.66739 0.44648 0.0
C1170 C 0.54752 0.6436 0.42112 0.0
C1171 C 0.55452 0.63867 0.3556 0.0
C1172 C 0.55199 0.61165 0.34044 0.0
C1173 C 0.53338 0.60525 0.28437 0.0
C1174 C 0.57657 0.60279 0.32191 0.0
C1175 C 0.54284 0.6019 0.40811 0.0
C1176 C 0.54035 0.62058 0.45403 0.0
C1177 C 0.533 0.61593 0.52058 0.0
C1178 C 0.528 0.59168 0.54054 0.0
C1179 C 0.53031 0.57221 0.4942 0.0
C1180 C 0.53777 0.57758 0.42702 0.0
H1181 H 0.83869 0.47847 0.38404 0.0
H1182 H 0.84956 0.52846 0.21718 0.0
H1183 H 0.88899 0.54454 0.26483 0.0
H1184 H 0.8717 0.51833 0.51672 0.0
H1185 H 0.88387 0.4926 0.55354 0.0
H1186 H 0.85464 0.48892 0.51408 0.0
H1187 H 0.86909 0.45509 0.43659 0.0
H1188 H 0.89841 0.45893 0.4748 0.0
H1189 H 0.89564 0.46162 0.38446 0.0
H1190 H 0.93051 0.54962 0.31953 0.0
H1191 H 0.96839 0.54576 0.38113 0.0
H1192 H 0.93029 0.49204 0.51152 0.0
C1193 C 0.84896 0.49343 0.35883 0.0
C1194 C 0.8409 0.50231 0.29699 0.0
C1195 C 0.85505 0.52169 0.26522 0.0
C1196 C 0.87763 0.53077 0.29168 0.0
C1197 C 0.88569 0.52052 0.35049 0.0
C1198 C 0.87151 0.50258 0.38443 0.0
C1199 C 0.88508 0.4929 0.4428 0.0
C1200 C 0.87311 0.49853 0.51082 0.0
C1201 C 0.88718 0.46553 0.43408 0.0
C1202 C 0.90944 0.50749 0.435 0.0
C1203 C 0.90944 0.52349 0.38191 0.0
C1204 C 0.93051 0.53751 0.36205 0.0
C1205 C 0.95202 0.5351 0.39721 0.0
C1206 C 0.95243 0.51875 0.45171 0.0
C1207 C 0.93066 0.50502 0.47093 0.0
loop_
_geom_bond_atom_site_label_1
_geom_bond_atom_site_label_2
_geom_bond_distance
_geom_bond_site_symmetry_2
_ccdc_geom_bond_type
C0 C1 1.391 . S
C0 C4 1.391 . S
C0 H42 0.948 . S
C1 C0 1.391 . S
C1 C2 1.391 . S
C2 C1 1.391 . S
C2 H58 0.947 . S
C2 C59 1.392 . S
C3 C4 1.391 . S
C3 C7 1.397 . S
C3 C59 1.419 . S
C4 C0 1.391 . S
C4 C3 1.391 . S
C4 C5 1.399 . S
C5 C4 1.399 . S
C5 C8 1.396 . S
C5 C17 1.453 . S
C5 C18 1.684 . S
H6 C30 0.948 . S
C7 C3 1.397 . S
C7 C8 1.394 . S
C7 C26 1.723 . S
C8 C5 1.396 . S
C8 C7 1.394 . S
C8 C38 1.723 . S
H9 C32 0.947 . S
H10 C33 0.948 . S
H11 C39 0.982 . S
H12 C40 0.979 . S
H13 C40 0.980 . S
H14 C40 0.983 . S
H15 C39 0.979 . S
H16 C39 0.977 . S
C17 C5 1.453 . S
C17 H46 0.982 . S
C17 H47 0.979 . S
C17 H48 0.977 . S
C18 C5 1.684 . S
C18 H43 0.979 . S
C18 H44 0.980 . S
C18 H45 0.983 . S
C19 C20 1.391 . S
C19 C24 1.391 . S
C19 H49 0.948 . S
C20 C19 1.391 . S
C20 C21 1.391 . S
C21 C20 1.391 . S
C21 C22 1.392 . S
C21 H50 0.947 . S
C22 C21 1.392 . S
C22 C23 1.419 . S
C22 H51 0.948 . S
C23 C22 1.419 . S
C23 C24 1.391 . S
C23 C27 1.397 . S
C24 C19 1.391 . S
C24 C23 1.391 . S
C24 C25 1.399 . S
C25 C24 1.399 . S
C25 C26 1.396 1_556 S
C25 C28 1.453 1_556 S
C25 C29 1.684 1_556 S
C26 C7 1.723 . S
C26 C25 1.396 1_554 S
C26 C27 1.394 1_554 S
C27 C23 1.397 . S
C27 C26 1.394 1_556 S
C27 C37 1.723 . S
C28 C25 1.453 1_554 S
C28 H52 0.982 . S
C28 H53 0.979 . S
C28 H54 0.977 . S
C29 C25 1.684 1_554 S
C29 H55 0.979 . S
C29 H56 0.980 . S
C29 H57 0.983 . S
C30 H6 0.948 . S
C30 C31 1.391 . S
C30 C35 1.391 . S
C31 C30 1.391 . S
C31 C32 1.391 1_556 S
C32 H9 0.947 . S
C32 C31 1.391 1_554 S
C32 C33 1.392 . S
C33 H10 0.948 . S
C33 C32 1.392 . S
C33 C34 1.419 . S
C34 C33 1.419 . S
C34 C35 1.391 1_554 S
C34 C38 1.397 . S
C35 C30 1.391 . S
C35 C34 1.391 1_556 S
C35 C36 1.399 . S
C36 C35 1.399 . S
C36 C37 1.396 . S
C36 C39 1.453 . S
C36 C40 1.684 . S
C37 C27 1.723 . S
C37 C36 1.396 . S
C37 C38 1.394 1_556 S
C38 C8 1.723 . S
C38 C34 1.397 . S
C38 C37 1.394 1_554 S
C39 H11 0.982 . S
C39 H15 0.979 . S
C39 H16 0.977 . S
C39 C36 1.453 . S
C40 H12 0.979 . S
C40 H13 0.980 . S
C40 H14 0.983 . S
C40 C36 1.684 . S
H41 C59 0.948 . S
H42 C0 0.948 . S
H43 C18 0.979 . S
H44 C18 0.980 . S
H45 C18 0.983 . S
H46 C17 0.982 . S
H47 C17 0.979 . S
H48 C17 0.977 . S
H49 C19 0.948 . S
H50 C21 0.947 . S
H51 C22 0.948 . S
H52 C28 0.982 . S
H53 C28 0.979 . S
H54 C28 0.977 . S
H55 C29 0.979 . S
H56 C29 0.980 . S
H57 C29 0.983 . S
H58 C2 0.947 . S
C59 C2 1.392 . S
C59 C3 1.419 . S
C59 H41 0.948 . S
C60 C61 1.391 . S
C60 C64 1.391 . S
C60 H102 0.948 . S
C61 C60 1.391 . S
C61 C62 1.391 . S
C62 C61 1.391 . S
C62 H118 0.947 . S
C62 C119 1.392 . S
C63 C64 1.391 . S
C63 C67 1.397 . S
C63 C119 1.419 . S
C64 C60 1.391 . S
C64 C63 1.391 . S
C64 C65 1.399 . S
C65 C64 1.399 . S
C65 C68 1.396 . S
C65 C77 1.453 . S
C65 C78 1.684 . S
H66 C90 0.948 1_554 S
C67 C63 1.397 . S
C67 C68 1.394 . S
C67 C86 1.723 1_556 S
C68 C65 1.396 . S
C68 C67 1.394 . S
C68 C98 1.723 . S
H69 C92 0.947 . S
H70 C93 0.948 . S
H71 C99 0.982 . S
H72 C100 0.979 . S
H73 C100 0.980 . S
H74 C100 0.983 . S
H75 C99 0.979 . S
H76 C99 0.977 . S
C77 C65 1.453 . S
C77 H106 0.982 . S
C77 H107 0.979 . S
C77 H108 0.977 . S
C78 C65 1.684 . S
C78 H103 0.979 . S
C78 H104 0.980 . S
C78 H105 0.983 . S
C79 C80 1.391 . S
C79 C84 1.391 . S
C79 H109 0.948 . S
C80 C79 1.391 . S
C80 C81 1.391 . S
C81 C80 1.391 . S
C81 C82 1.392 . S
C81 H110 0.947 . S
C82 C81 1.392 . S
C82 C83 1.419 . S
C82 H111 0.948 . S
C83 C82 1.419 . S
C83 C84 1.391 . S
C83 C87 1.397 . S
C84 C79 1.391 . S
C84 C83 1.391 . S
C84 C85 1.399 . S
C85 C84 1.399 . S
C85 C86 1.396 . S
C85 C88 1.453 . S
C85 C89 1.684 . S
C86 C67 1.723 1_554 S
C86 C85 1.396 . S
C86 C87 1.394 . S
C87 C83 1.397 . S
C87 C86 1.394 . S
C87 C97 1.723 . S
C88 C85 1.453 . S
C88 H112 0.982 . S
C88 H113 0.979 . S
C88 H114 0.977 . S
C89 C85 1.684 . S
C89 H115 0.979 . S
C89 H116 0.980 . S
C89 H117 0.983 . S
C90 H66 0.948 1_556 S
C90 C91 1.391 . S
C90 C95 1.391 1_556 S
C91 C90 1.391 . S
C91 C92 1.391 . S
C92 H69 0.947 . S
C92 C91 1.391 . S
C92 C93 1.392 . S
C93 H70 0.948 . S
C93 C92 1.392 . S
C93 C94 1.419 . S
C94 C93 1.419 . S
C94 C95 1.391 1_556 S
C94 C98 1.397 . S
C95 C90 1.391 1_554 S
C95 C94 1.391 1_554 S
C95 C96 1.399 . S
C96 C95 1.399 . S
C96 C97 1.396 . S
C96 C99 1.453 . S
C96 C100 1.684 . S
C97 C87 1.723 . S
C97 C96 1.396 . S
C97 C98 1.394 1_554 S
C98 C68 1.723 . S
C98 C94 1.397 . S
C98 C97 1.394 1_556 S
C99 H71 0.982 . S
C99 H75 0.979 . S
C99 H76 0.977 . S
C99 C96 1.453 . S
C100 H72 0.979 . S
C100 H73 0.980 . S
C100 H74 0.983 . S
C100 C96 1.684 . S
H101 C119 0.948 . S
H102 C60 0.948 . S
H103 C78 0.979 . S
H104 C78 0.980 . S
H105 C78 0.983 . S
H106 C77 0.982 . S
H107 C77 0.979 . S
H108 C77 0.977 . S
H109 C79 0.948 . S
H110 C81 0.947 . S
H111 C82 0.948 . S
H112 C88 0.982 . S
H113 C88 0.979 . S
H114 C88 0.977 . S
H115 C89 0.979 . S
H116 C89 0.980 . S
H117 C89 0.983 . S
H118 C62 0.947 . S
C119 C62 1.392 . S
C119 C63 1.419 . S
C119 H101 0.948 . S
C120 C121 1.391 1_554 S
C120 C124 1.391 . S
C120 H162 0.948 . S
C121 C120 1.391 1_556 S
C121 C122 1.391 . S
C122 C121 1.391 . S
C122 H178 0.947 . S
C122 C179 1.392 . S
C123 C124 1.391 1_556 S
C123 C127 1.397 1_566 S
C123 C179 1.419 . S
C124 C120 1.391 . S
C124 C123 1.391 1_554 S
C124 C125 1.399 . S
C125 C124 1.399 . S
C125 C128 1.396 1_565 S
C125 C137 1.453 1_565 S
C125 C138 1.684 . S
H126 C150 0.948 . S
C127 C123 1.397 1_544 S
C127 C128 1.394 . S
C127 C146 1.722 1_554 S
C128 C125 1.396 1_545 S
C128 C127 1.394 . S
C128 C158 1.723 . S
H129 C152 0.947 . S
H130 C153 0.948 . S
H131 C159 0.982 . S
H132 C160 0.979 . S
H133 C160 0.980 . S
H134 C160 0.983 . S
H135 C159 0.979 . S
H136 C159 0.977 . S
C137 C125 1.453 1_545 S
C137 H166 0.982 . S
C137 H167 0.979 . S
C137 H168 0.977 . S
C138 C125 1.684 . S
C138 H163 0.979 . S
C138 H164 0.980 . S
C138 H165 0.983 . S
C139 C140 1.391 . S
C139 C144 1.391 . S
C139 H169 0.948 . S
C140 C139 1.391 . S
C140 C141 1.391 . S
C141 C140 1.391 . S
C141 C142 1.392 . S
C141 H170 0.947 . S
C142 C141 1.392 . S
C142 C143 1.419 . S
C142 H171 0.948 1_556 S
C143 C142 1.419 . S
C143 C144 1.391 . S
C143 C147 1.397 1_565 S
C144 C139 1.391 . S
C144 C143 1.391 . S
C144 C145 1.399 . S
C145 C144 1.399 . S
C145 C146 1.396 1_565 S
C145 C148 1.453 1_565 S
C145 C149 1.684 . S
C146 C127 1.722 1_556 S
C146 C145 1.396 1_545 S
C146 C147 1.394 . S
C147 C143 1.397 1_545 S
C147 C146 1.394 . S
C147 C157 1.723 1_556 S
C148 C145 1.453 1_545 S
C148 H172 0.982 . S
C148 H173 0.979 . S
C148 H174 0.977 . S
C149 C145 1.684 . S
C149 H175 0.979 . S
C149 H176 0.980 . S
C149 H177 0.983 . S
C150 H126 0.948 . S
C150 C151 1.391 . S
C150 C155 1.391 . S
C151 C150 1.391 . S
C151 C152 1.391 . S
C152 H129 0.947 . S
C152 C151 1.391 . S
C152 C153 1.392 . S
C153 H130 0.948 . S
C153 C152 1.392 . S
C153 C154 1.419 . S
C154 C153 1.419 . S
C154 C155 1.391 . S
C154 C158 1.397 1_565 S
C155 C150 1.391 . S
C155 C154 1.391 . S
C155 C156 1.399 . S
C156 C155 1.399 . S
C156 C157 1.396 1_565 S
C156 C159 1.453 1_565 S
C156 C160 1.684 . S
C157 C147 1.723 1_554 S
C157 C156 1.396 1_545 S
C157 C158 1.394 . S
C158 C128 1.723 . S
C158 C154 1.397 1_545 S
C158 C157 1.394 . S
C159 H131 0.982 . S
C159 H135 0.979 . S
C159 H136 0.977 . S
C159 C156 1.453 1_545 S
C160 H132 0.979 . S
C160 H133 0.980 . S
C160 H134 0.983 . S
C160 C156 1.684 . S
H161 C179 0.948 . S
H162 C120 0.948 . S
H163 C138 0.979 . S
H164 C138 0.980 . S
H165 C138 0.983 . S
H166 C137 0.982 . S
H167 C137 0.979 . S
H168 C137 0.977 . S
H169 C139 0.948 . S
H170 C141 0.947 . S
H171 C142 0.948 1_554 S
H172 C148 0.982 . S
H173 C148 0.979 . S
H174 C148 0.977 . S
H175 C149 0.979 . S
H176 C149 0.980 . S
H177 C149 0.983 . S
H178 C122 0.947 . S
C179 C122 1.392 . S
C179 C123 1.419 . S
C179 H161 0.948 . S
C180 C181 1.391 . S
C180 C184 1.391 . S
C180 H222 0.948 . S
C181 C180 1.391 . S
C181 C182 1.391 . S
C182 C181 1.391 . S
C182 H238 0.947 . S
C182 C239 1.392 . S
C183 C184 1.391 . S
C183 C187 1.397 . S
C183 C239 1.419 . S
C184 C180 1.391 . S
C184 C183 1.391 . S
C184 C185 1.399 . S
C185 C184 1.399 . S
C185 C188 1.396 . S
C185 C197 1.453 . S
C185 C198 1.684 . S
H186 C210 0.948 . S
C187 C183 1.397 . S
C187 C188 1.394 . S
C187 C206 1.723 . S
C188 C185 1.396 . S
C188 C187 1.394 . S
C188 C218 1.723 . S
H189 C212 0.947 . S
H190 C213 0.948 . S
H191 C219 0.982 . S
H192 C220 0.979 . S
H193 C220 0.980 . S
H194 C220 0.983 . S
H195 C219 0.979 . S
H196 C219 0.977 . S
C197 C185 1.453 . S
C197 H226 0.982 . S
C197 H227 0.979 . S
C197 H228 0.977 . S
C198 C185 1.684 . S
C198 H223 0.979 . S
C198 H224 0.980 . S
C198 H225 0.983 . S
C199 C200 1.391 . S
C199 C204 1.391 . S
C199 H229 0.948 . S
C200 C199 1.391 . S
C200 C201 1.391 . S
C201 C200 1.391 . S
C201 C202 1.392 . S
C201 H230 0.947 . S
C202 C201 1.392 . S
C202 C203 1.419 . S
C202 H231 0.948 . S
C203 C202 1.419 . S
C203 C204 1.391 . S
C203 C207 1.397 1_556 S
C204 C199 1.391 . S
C204 C203 1.391 . S
C204 C205 1.399 1_556 S
C205 C204 1.399 1_554 S
C205 C206 1.396 . S
C205 C208 1.453 . S
C205 C209 1.684 . S
C206 C187 1.723 . S
C206 C205 1.396 . S
C206 C207 1.394 . S
C207 C203 1.397 1_554 S
C207 C206 1.394 . S
C207 C217 1.723 1_554 S
C208 C205 1.453 . S
C208 H232 0.982 . S
C208 H233 0.979 . S
C208 H234 0.977 . S
C209 C205 1.684 . S
C209 H235 0.979 . S
C209 H236 0.980 . S
C209 H237 0.983 . S
C210 H186 0.948 . S
C210 C211 1.391 1_556 S
C210 C215 1.391 . S
C211 C210 1.391 1_554 S
C211 C212 1.391 . S
C212 H189 0.947 . S
C212 C211 1.391 . S
C212 C213 1.392 . S
C213 H190 0.948 . S
C213 C212 1.392 . S
C213 C214 1.419 . S
C214 C213 1.419 . S
C214 C215 1.391 1_554 S
C214 C218 1.397 . S
C215 C210 1.391 . S
C215 C214 1.391 1_556 S
C215 C216 1.399 . S
C216 C215 1.399 . S
C216 C217 1.396 . S
C216 C219 1.453 . S
C216 C220 1.684 . S
C217 C207 1.723 1_556 S
C217 C216 1.396 . S
C217 C218 1.394 1_556 S
C218 C188 1.723 . S
C218 C214 1.397 . S
C218 C217 1.394 1_554 S
C219 H191 0.982 . S
C219 H195 0.979 . S
C219 H196 0.977 . S
C219 C216 1.453 . S
C220 H192 0.979 . S
C220 H193 0.980 . S
C220 H194 0.983 . S
C220 C216 1.684 . S
H221 C239 0.948 . S
H222 C180 0.948 . S
H223 C198 0.979 . S
H224 C198 0.980 . S
H225 C198 0.983 . S
H226 C197 0.982 . S
H227 C197 0.979 . S
H228 C197 0.977 . S
H229 C199 0.948 . S
H230 C201 0.947 . S
H231 C202 0.948 . S
H232 C208 0.982 . S
H233 C208 0.979 . S
H234 C208 0.977 . S
H235 C209 0.979 . S
H236 C209 0.980 . S
H237 C209 0.983 . S
H238 C182 0.947 . S
C239 C182 1.392 . S
C239 C183 1.419 . S
C239 H221 0.948 . S
C240 C241 1.391 . S
C240 C244 1.391 . S
C240 H282 0.948 . S
C241 C240 1.391 . S
C241 C242 1.391 . S
C242 C241 1.391 . S
C242 H298 0.947 . S
C242 C299 1.392 . S
C243 C244 1.391 . S
C243 C247 1.397 . S
C243 C299 1.419 . S
C244 C240 1.391 . S
C244 C243 1.391 . S
C244 C245 1.399 . S
C245 C244 1.399 . S
C245 C248 1.396 . S
C245 C257 1.453 1_554 S
C245 C258 1.684 1_554 S
H246 C270 0.948 . S
C247 C243 1.397 . S
C247 C248 1.394 . S
C247 C266 1.723 . S
C248 C245 1.396 . S
C248 C247 1.394 . S
C248 C278 1.723 . S
H249 C272 0.947 . S
H250 C273 0.948 . S
H251 C279 0.982 . S
H252 C280 0.979 . S
H253 C280 0.980 . S
H254 C280 0.983 1_556 S
H255 C279 0.979 1_556 S
H256 C279 0.977 . S
C257 C245 1.453 1_556 S
C257 H286 0.982 1_556 S
C257 H287 0.979 . S
C257 H288 0.977 . S
C258 C245 1.684 1_556 S
C258 H283 0.979 . S
C258 H284 0.980 . S
C258 H285 0.983 . S
C259 C260 1.391 . S
C259 C264 1.391 . S
C259 H289 0.948 . S
C260 C259 1.391 . S
C260 C261 1.391 . S
C261 C260 1.391 . S
C261 C262 1.392 . S
C261 H290 0.947 . S
C262 C261 1.392 . S
C262 C263 1.419 . S
C262 H291 0.948 . S
C263 C262 1.419 . S
C263 C264 1.391 . S
C263 C267 1.397 . S
C264 C259 1.391 . S
C264 C263 1.391 . S
C264 C265 1.399 . S
C265 C264 1.399 . S
C265 C266 1.396 . S
C265 C268 1.453 . S
C265 C269 1.684 . S
C266 C247 1.723 . S
C266 C265 1.396 . S
C266 C267 1.394 . S
C267 C263 1.397 . S
C267 C266 1.394 . S
C267 C277 1.723 . S
C268 C265 1.453 . S
C268 H292 0.982 . S
C268 H293 0.979 . S
C268 H294 0.977 . S
C269 C265 1.684 . S
C269 H295 0.979 . S
C269 H296 0.980 . S
C269 H297 0.983 . S
C270 H246 0.948 . S
C270 C271 1.391 . S
C270 C275 1.391 . S
C271 C270 1.391 . S
C271 C272 1.391 . S
C272 H249 0.947 . S
C272 C271 1.391 . S
C272 C273 1.392 . S
C273 H250 0.948 . S
C273 C272 1.392 . S
C273 C274 1.419 . S
C274 C273 1.419 . S
C274 C275 1.391 . S
C274 C278 1.397 1_556 S
C275 C270 1.391 . S
C275 C274 1.391 . S
C275 C276 1.399 1_556 S
C276 C275 1.399 1_554 S
C276 C277 1.396 . S
C276 C279 1.453 . S
C276 C280 1.684 . S
C277 C267 1.723 . S
C277 C276 1.396 . S
C277 C278 1.394 . S
C278 C248 1.723 . S
C278 C274 1.397 1_554 S
C278 C277 1.394 . S
C279 H251 0.982 . S
C279 H255 0.979 1_554 S
C279 H256 0.977 . S
C279 C276 1.453 . S
C280 H252 0.979 . S
C280 H253 0.980 . S
C280 H254 0.983 1_554 S
C280 C276 1.684 . S
H281 C299 0.948 . S
H282 C240 0.948 . S
H283 C258 0.979 . S
H284 C258 0.980 . S
H285 C258 0.983 . S
H286 C257 0.982 1_554 S
H287 C257 0.979 . S
H288 C257 0.977 . S
H289 C259 0.948 . S
H290 C261 0.947 . S
H291 C262 0.948 . S
H292 C268 0.982 . S
H293 C268 0.979 . S
H294 C268 0.977 . S
H295 C269 0.979 . S
H296 C269 0.980 . S
H297 C269 0.983 . S
H298 C242 0.947 . S
C299 C242 1.392 . S
C299 C243 1.419 . S
C299 H281 0.948 . S
C300 C301 1.391 . S
C300 C304 1.391 . S
C300 H342 0.948 . S
C301 C300 1.391 . S
C301 C302 1.391 . S
C302 C301 1.391 . S
C302 H358 0.947 . S
C302 C359 1.392 . S
C303 C304 1.391 . S
C303 C307 1.397 . S
C303 C359 1.419 . S
C304 C300 1.391 . S
C304 C303 1.391 . S
C304 C305 1.399 . S
C305 C304 1.399 . S
C305 C308 1.396 . S
C305 C317 1.453 . S
C305 C318 1.684 . S
H306 C330 0.948 . S
C307 C303 1.397 . S
C307 C308 1.394 . S
C307 C326 1.723 . S
C308 C305 1.396 . S
C308 C307 1.394 . S
C308 C338 1.723 . S
H309 C332 0.947 . S
H310 C333 0.948 . S
H311 C339 0.987 . S
H312 C340 0.979 . S
H313 C340 0.980 . S
H314 C340 0.983 . S
H315 C339 0.976 1_556 S
H316 C339 0.968 1_556 S
C317 C305 1.453 . S
C317 H346 0.982 . S
C317 H347 0.979 . S
C317 H348 0.977 . S
C318 C305 1.684 . S
C318 H343 0.979 . S
C318 H344 0.980 . S
C318 H345 0.983 . S
C319 C320 1.391 . S
C319 C324 1.391 . S
C319 H349 0.948 . S
C320 C319 1.391 . S
C320 C321 1.391 . S
C321 C320 1.391 . S
C321 C322 1.392 . S
C321 H350 0.947 . S
C322 C321 1.392 . S
C322 C323 1.419 . S
C322 H351 0.948 . S
C323 C322 1.419 . S
C323 C324 1.391 . S
C323 C327 1.397 1_556 S
C324 C319 1.391 . S
C324 C323 1.391 . S
C324 C325 1.399 1_556 S
C325 C324 1.399 1_554 S
C325 C326 1.396 . S
C325 C328 1.453 . S
C325 C329 1.684 . S
C326 C307 1.723 . S
C326 C325 1.396 . S
C326 C327 1.394 . S
C327 C323 1.397 1_554 S
C327 C326 1.394 . S
C327 C337 1.723 . S
C328 C325 1.453 . S
C328 H352 0.982 . S
C328 H353 0.979 1_554 S
C328 H354 0.977 . S
C329 C325 1.684 . S
C329 H355 0.979 . S
C329 H356 0.980 . S
C329 H357 0.983 1_554 S
C330 H306 0.948 . S
C330 C331 1.391 . S
C330 C335 1.391 . S
C331 C330 1.391 . S
C331 C332 1.391 . S
C332 H309 0.947 . S
C332 C331 1.391 . S
C332 C333 1.392 . S
C333 H310 0.948 . S
C333 C332 1.392 . S
C333 C334 1.419 . S
C334 C333 1.419 . S
C334 C335 1.391 . S
C334 C338 1.397 . S
C335 C330 1.391 . S
C335 C334 1.391 . S
C335 C336 1.399 . S
C336 C335 1.399 . S
C336 C337 1.396 . S
C336 C339 1.460 . S
C336 C340 1.684 1_554 S
C337 C327 1.723 . S
C337 C336 1.396 . S
C337 C338 1.394 . S
C338 C308 1.723 . S
C338 C334 1.397 . S
C338 C337 1.394 . S
C339 H311 0.987 . S
C339 H315 0.976 1_554 S
C339 H316 0.968 1_554 S
C339 C336 1.460 . S
C340 H312 0.979 . S
C340 H313 0.980 . S
C340 H314 0.983 . S
C340 C336 1.684 1_556 S
H341 C359 0.948 . S
H342 C300 0.948 . S
H343 C318 0.979 . S
H344 C318 0.980 . S
H345 C318 0.983 . S
H346 C317 0.982 . S
H347 C317 0.979 . S
H348 C317 0.977 . S
H349 C319 0.948 . S
H350 C321 0.947 . S
H351 C322 0.948 . S
H352 C328 0.982 . S
H353 C328 0.979 1_556 S
H354 C328 0.977 . S
H355 C329 0.979 . S
H356 C329 0.980 . S
H357 C329 0.983 1_556 S
H358 C302 0.947 . S
C359 C302 1.392 . S
C359 C303 1.419 . S
C359 H341 0.948 . S
C360 C361 1.391 . S
C360 C364 1.391 . S
C360 H402 0.948 . S
C361 C360 1.391 . S
C361 C362 1.391 . S
C362 C361 1.391 . S
C362 H418 0.947 . S
C362 C419 1.392 . S
C363 C364 1.391 . S
C363 C367 1.397 1_546 S
C363 C419 1.419 . S
C364 C360 1.391 . S
C364 C363 1.391 . S
C364 C365 1.399 . S
C365 C364 1.399 . S
C365 C368 1.396 1_546 S
C365 C377 1.453 1_545 S
C365 C378 1.684 . S
H366 C390 0.948 . S
C367 C363 1.397 1_564 S
C367 C368 1.394 . S
C367 C386 1.723 . S
C368 C365 1.396 1_564 S
C368 C367 1.394 . S
C368 C398 1.723 . S
H369 C392 0.947 . S
H370 C393 0.948 1_556 S
H371 C399 0.982 . S
H372 C400 0.979 . S
H373 C400 0.980 . S
H374 C400 0.983 . S
H375 C399 0.979 . S
H376 C399 0.977 . S
C377 C365 1.453 1_565 S
C377 H406 0.982 . S
C377 H407 0.979 . S
C377 H408 0.977 . S
C378 C365 1.684 . S
C378 H403 0.979 . S
C378 H404 0.980 . S
C378 H405 0.983 . S
C379 C380 1.391 . S
C379 C384 1.391 . S
C379 H409 0.948 . S
C380 C379 1.391 . S
C380 C381 1.391 . S
C381 C380 1.391 . S
C381 C382 1.392 . S
C381 H410 0.947 . S
C382 C381 1.392 . S
C382 C383 1.419 . S
C382 H411 0.948 . S
C383 C382 1.419 . S
C383 C384 1.391 . S
C383 C387 1.397 1_545 S
C384 C379 1.391 . S
C384 C383 1.391 . S
C384 C385 1.399 . S
C385 C384 1.399 . S
C385 C386 1.396 1_545 S
C385 C388 1.453 1_545 S
C385 C389 1.684 . S
C386 C367 1.723 . S
C386 C385 1.396 1_565 S
C386 C387 1.394 . S
C387 C383 1.397 1_565 S
C387 C386 1.394 . S
C387 C397 1.723 . S
C388 C385 1.453 1_565 S
C388 H412 0.982 . S
C388 H413 0.979 . S
C388 H414 0.977 . S
C389 C385 1.684 . S
C389 H415 0.979 . S
C389 H416 0.980 . S
C389 H417 0.983 . S
C390 H366 0.948 . S
C390 C391 1.391 . S
C390 C395 1.391 . S
C391 C390 1.391 . S
C391 C392 1.391 . S
C392 H369 0.947 . S
C392 C391 1.391 . S
C392 C393 1.392 . S
C393 H370 0.948 1_554 S
C393 C392 1.392 . S
C393 C394 1.419 . S
C394 C393 1.419 . S
C394 C395 1.391 . S
C394 C398 1.397 1_545 S
C395 C390 1.391 . S
C395 C394 1.391 . S
C395 C396 1.399 . S
C396 C395 1.399 . S
C396 C397 1.396 1_545 S
C396 C399 1.453 1_545 S
C396 C400 1.684 . S
C397 C387 1.723 . S
C397 C396 1.396 1_565 S
C397 C398 1.394 . S
C398 C368 1.723 . S
C398 C394 1.397 1_565 S
C398 C397 1.394 . S
C399 H371 0.982 . S
C399 H375 0.979 . S
C399 H376 0.977 . S
C399 C396 1.453 1_565 S
C400 H372 0.979 . S
C400 H373 0.980 . S
C400 H374 0.983 . S
C400 C396 1.684 . S
H401 C419 0.948 . S
H402 C360 0.948 . S
H403 C378 0.979 . S
H404 C378 0.980 . S
H405 C378 0.983 . S
H406 C377 0.982 . S
H407 C377 0.979 . S
H408 C377 0.977 . S
H409 C379 0.948 . S
H410 C381 0.947 . S
H411 C382 0.948 . S
H412 C388 0.982 . S
H413 C388 0.979 . S
H414 C388 0.977 . S
H415 C389 0.979 . S
H416 C389 0.980 . S
H417 C389 0.983 . S
H418 C362 0.947 . S
C419 C362 1.392 . S
C419 C363 1.419 . S
C419 H401 0.948 . S
C420 C421 1.391 . S
C420 C424 1.391 . S
C420 H462 0.948 . S
C421 C420 1.391 . S
C421 C422 1.391 . S
C422 C421 1.391 . S
C422 H478 0.947 . S
C422 C479 1.392 . S
C423 C424 1.391 . S
C423 C427 1.397 . S
C423 C479 1.419 . S
C424 C420 1.391 . S
C424 C423 1.391 . S
C424 C425 1.399 . S
C425 C424 1.399 . S
C425 C428 1.396 . S
C425 C437 1.453 . S
C425 C438 1.684 . S
H426 C450 0.948 . S
C427 C423 1.397 . S
C427 C428 1.394 . S
C427 C446 1.723 1_556 S
C428 C425 1.396 . S
C428 C427 1.394 . S
C428 C458 1.723 1_556 S
H429 C452 0.947 . S
H430 C453 0.948 1_556 S
H431 C459 0.982 . S
H432 C460 0.979 . S
H433 C460 0.980 . S
H434 C460 0.983 . S
H435 C459 0.979 . S
H436 C459 0.977 . S
C437 C425 1.453 . S
C437 H466 0.982 . S
C437 H467 0.979 . S
C437 H468 0.977 . S
C438 C425 1.684 . S
C438 H463 0.979 . S
C438 H464 0.980 . S
C438 H465 0.983 . S
C439 C440 1.391 . S
C439 C444 1.391 . S
C439 H469 0.948 . S
C440 C439 1.391 . S
C440 C441 1.391 . S
C441 C440 1.391 . S
C441 C442 1.392 . S
C441 H470 0.947 . S
C442 C441 1.392 . S
C442 C443 1.419 . S
C442 H471 0.948 . S
C443 C442 1.419 . S
C443 C444 1.391 . S
C443 C447 1.397 . S
C444 C439 1.391 . S
C444 C443 1.391 . S
C444 C445 1.399 . S
C445 C444 1.399 . S
C445 C446 1.396 . S
C445 C448 1.453 . S
C445 C449 1.684 . S
C446 C427 1.723 1_554 S
C446 C445 1.396 . S
C446 C447 1.394 . S
C447 C443 1.397 . S
C447 C446 1.394 . S
C447 C457 1.723 . S
C448 C445 1.453 . S
C448 H472 0.982 . S
C448 H473 0.979 . S
C448 H474 0.982 . S
C449 C445 1.684 . S
C449 H475 0.979 . S
C449 H476 0.980 1_554 S
C449 H477 0.983 . S
C450 H426 0.948 . S
C450 C451 1.391 . S
C450 C455 1.391 . S
C451 C450 1.391 . S
C451 C452 1.391 . S
C452 H429 0.947 . S
C452 C451 1.391 . S
C452 C453 1.392 . S
C453 H430 0.948 1_554 S
C453 C452 1.392 . S
C453 C454 1.419 . S
C454 C453 1.419 . S
C454 C455 1.391 . S
C454 C458 1.397 . S
C455 C450 1.391 . S
C455 C454 1.391 . S
C455 C456 1.399 . S
C456 C455 1.399 . S
C456 C457 1.396 . S
C456 C459 1.453 . S
C456 C460 1.684 . S
C457 C447 1.723 . S
C457 C456 1.396 . S
C457 C458 1.394 . S
C458 C428 1.723 1_554 S
C458 C454 1.397 . S
C458 C457 1.394 . S
C459 H431 0.982 . S
C459 H435 0.979 . S
C459 H436 0.977 . S
C459 C456 1.453 . S
C460 H432 0.979 . S
C460 H433 0.980 . S
C460 H434 0.983 . S
C460 C456 1.684 . S
H461 C479 0.948 . S
H462 C420 0.948 . S
H463 C438 0.979 . S
H464 C438 0.980 . S
H465 C438 0.983 . S
H466 C437 0.982 . S
H467 C437 0.979 . S
H468 C437 0.977 . S
H469 C439 0.948 . S
H470 C441 0.947 . S
H471 C442 0.948 . S
H472 C448 0.982 . S
H473 C448 0.979 . S
H474 C448 0.982 . S
H475 C449 0.979 . S
H476 C449 0.980 1_556 S
H477 C449 0.983 . S
H478 C422 0.947 . S
C479 C422 1.392 . S
C479 C423 1.419 . S
C479 H461 0.948 . S
Dy480 O484 2.398 . S
Dy480 O485 2.491 1_455 S
Dy480 O486 2.403 . S
Dy480 O487 2.664 1_565 S
Dy480 O491 2.326 . S
Dy480 O495 2.310 1_455 S
Dy480 O496 2.351 1_565 S
C481 O492 1.185 1_455 S
C481 O493 1.355 . S
C482 O484 1.185 . S
C482 O485 1.355 1_455 S
Dy483 O487 2.310 1_655 S
Dy483 O490 2.351 1_545 S
Dy483 O492 2.398 . S
Dy483 O493 2.491 1_655 S
Dy483 O494 2.403 . S
Dy483 O495 2.664 1_545 S
Dy483 O497 2.326 1_655 S
O484 Dy480 2.398 . S
O484 C482 1.185 . S
O485 Dy480 2.491 1_655 S
O485 C482 1.355 1_655 S
O486 Dy480 2.403 . S
O486 C488 1.254 . S
O487 Dy480 2.664 1_545 S
O487 Dy483 2.310 1_455 S
O487 C488 1.268 1_545 S
C488 O486 1.254 . S
C488 O487 1.268 1_565 S
C489 O494 1.254 . S
C489 O495 1.268 1_545 S
O490 Dy483 2.351 1_565 S
O490 C498 1.249 . S
O491 Dy480 2.326 . S
O491 C498 1.267 1_455 S
O492 C481 1.185 1_655 S
O492 Dy483 2.398 . S
O493 C481 1.355 . S
O493 Dy483 2.491 1_455 S
O494 Dy483 2.403 . S
O494 C489 1.254 . S
O495 Dy480 2.310 1_655 S
O495 Dy483 2.664 1_565 S
O495 C489 1.268 1_565 S
O496 Dy480 2.351 1_545 S
O496 C499 1.249 . S
O497 Dy483 2.326 1_455 S
O497 C499 1.267 . S
C498 O490 1.249 . S
C498 O491 1.267 1_655 S
C499 O496 1.249 . S
C499 O497 1.267 . S
Dy500 O504 2.398 . S
Dy500 O505 2.491 . S
Dy500 O506 2.403 . S
Dy500 O507 2.664 . S
Dy500 O511 2.326 1_565 S
Dy500 O515 2.310 1_565 S
Dy500 O516 2.351 . S
C501 O512 1.185 . S
C501 O513 1.355 . S
C502 O504 1.185 . S
C502 O505 1.355 . S
Dy503 O507 2.310 1_545 S
Dy503 O510 2.351 . S
Dy503 O512 2.398 . S
Dy503 O513 2.491 . S
Dy503 O514 2.403 . S
Dy503 O515 2.664 . S
Dy503 O517 2.326 1_545 S
O504 Dy500 2.398 . S
O504 C502 1.185 . S
O505 Dy500 2.491 . S
O505 C502 1.355 . S
O506 Dy500 2.403 . S
O506 C508 1.254 . S
O507 Dy500 2.664 . S
O507 Dy503 2.310 1_565 S
O507 C508 1.268 . S
C508 O506 1.254 . S
C508 O507 1.268 . S
C509 O514 1.254 . S
C509 O515 1.268 . S
O510 Dy503 2.351 . S
O510 C518 1.249 . S
O511 Dy500 2.326 1_545 S
O511 C518 1.267 . S
O512 C501 1.185 . S
O512 Dy503 2.398 . S
O513 C501 1.355 . S
O513 Dy503 2.491 . S
O514 Dy503 2.403 . S
O514 C509 1.254 . S
O515 Dy500 2.310 1_545 S
O515 Dy503 2.664 . S
O515 C509 1.268 . S
O516 Dy500 2.351 . S
O516 C519 1.249 . S
O517 Dy503 2.326 1_565 S
O517 C519 1.267 . S
C518 O510 1.249 . S
C518 O511 1.267 . S
C519 O516 1.249 . S
C519 O517 1.267 . S
Dy520 O524 2.398 . S
Dy520 O525 2.491 . S
Dy520 O526 2.403 . S
Dy520 O527 2.664 . S
Dy520 O531 2.326 . S
Dy520 O535 2.310 . S
Dy520 O536 2.351 . S
C521 O532 1.185 . S
C521 O533 1.355 . S
C522 O524 1.185 . S
C522 O525 1.355 . S
Dy523 O527 2.310 . S
Dy523 O530 2.351 . S
Dy523 O532 2.398 . S
Dy523 O533 2.491 . S
Dy523 O534 2.403 . S
Dy523 O535 2.664 . S
Dy523 O537 2.326 . S
O524 Dy520 2.398 . S
O524 C522 1.185 . S
O525 Dy520 2.491 . S
O525 C522 1.355 . S
O526 Dy520 2.403 . S
O526 C528 1.254 . S
O527 Dy520 2.664 . S
O527 Dy523 2.310 . S
O527 C528 1.268 . S
C528 O526 1.254 . S
C528 O527 1.268 . S
C529 O534 1.254 . S
C529 O535 1.268 . S
O530 Dy523 2.351 . S
O530 C538 1.249 . S
O531 Dy520 2.326 . S
O531 C538 1.267 . S
O532 C521 1.185 . S
O532 Dy523 2.398 . S
O533 C521 1.355 . S
O533 Dy523 2.491 . S
O534 Dy523 2.403 . S
O534 C529 1.254 . S
O535 Dy520 2.310 . S
O535 Dy523 2.664 . S
O535 C529 1.268 . S
O536 Dy520 2.351 . S
O536 C539 1.249 . S
O537 Dy523 2.326 . S
O537 C539 1.267 . S
C538 O530 1.249 . S
C538 O531 1.267 . S
C539 O536 1.249 . S
C539 O537 1.267 . S
Dy540 O544 2.398 . S
Dy540 O545 2.491 . S
Dy540 O546 2.403 1_655 S
Dy540 O547 2.664 1_655 S
Dy540 O551 2.326 . S
Dy540 O555 2.310 . S
Dy540 O556 2.351 1_655 S
C541 O552 1.185 . S
C541 O553 1.355 . S
C542 O544 1.185 . S
C542 O545 1.355 . S
Dy543 O547 2.310 . S
Dy543 O550 2.351 1_455 S
Dy543 O552 2.398 . S
Dy543 O553 2.491 . S
Dy543 O554 2.403 . S
Dy543 O555 2.664 1_455 S
Dy543 O557 2.326 . S
O544 Dy540 2.398 . S
O544 C542 1.185 . S
O545 Dy540 2.491 . S
O545 C542 1.355 . S
O546 Dy540 2.403 1_455 S
O546 C548 1.254 . S
O547 Dy540 2.664 1_455 S
O547 Dy543 2.310 . S
O547 C548 1.268 . S
C548 O546 1.254 . S
C548 O547 1.268 . S
C549 O554 1.254 1_655 S
C549 O555 1.268 . S
O550 Dy543 2.351 1_655 S
O550 C558 1.249 . S
O551 Dy540 2.326 . S
O551 C558 1.267 . S
O552 C541 1.185 . S
O552 Dy543 2.398 . S
O553 C541 1.355 . S
O553 Dy543 2.491 . S
O554 Dy543 2.403 . S
O554 C549 1.254 1_455 S
O555 Dy540 2.310 . S
O555 Dy543 2.664 1_655 S
O555 C549 1.268 . S
O556 Dy540 2.351 1_455 S
O556 C559 1.249 . S
O557 Dy543 2.326 . S
O557 C559 1.267 . S
C558 O550 1.249 . S
C558 O551 1.267 . S
C559 O556 1.249 . S
C559 O557 1.267 . S
H560 C572 0.930 . S
H561 C574 0.930 . S
H562 C575 0.930 . S
H563 C579 0.959 . S
H564 C579 0.959 . S
H565 C579 0.961 . S
H566 C580 0.960 . S
H567 C580 0.961 . S
H568 C580 0.959 . S
H569 C583 0.929 . S
H570 C584 0.931 . S
H571 C586 0.930 . S
C572 H560 0.930 . S
C572 C573 1.399 1_545 S
C572 C577 1.399 . S
C573 C572 1.399 1_565 S
C573 C574 1.376 . S
C574 H561 0.930 . S
C574 C573 1.376 . S
C574 C575 1.388 . S
C575 H562 0.930 . S
C575 C574 1.388 . S
C575 C576 1.390 . S
C576 C575 1.390 . S
C576 C577 1.394 1_565 S
C576 C582 1.465 . S
C577 C572 1.399 . S
C577 C576 1.394 1_545 S
C577 C578 1.516 . S
C578 C577 1.516 . S
C578 C579 1.502 . S
C578 C580 1.561 . S
C578 C581 1.526 . S
C579 H563 0.959 . S
C579 H564 0.959 . S
C579 H565 0.961 . S
C579 C578 1.502 . S
C580 H566 0.960 . S
C580 H567 0.961 . S
C580 H568 0.959 . S
C580 C578 1.561 . S
C581 C578 1.526 . S
C581 C582 1.396 1_545 S
C581 C586 1.390 . S
C582 C576 1.465 . S
C582 C581 1.396 1_565 S
C582 C583 1.399 . S
C583 H569 0.929 . S
C583 C582 1.399 . S
C583 C584 1.385 . S
C584 H570 0.931 . S
C584 C583 1.385 . S
C584 C585 1.389 . S
C585 C584 1.389 . S
C585 C586 1.387 1_565 S
C586 H571 0.930 . S
C586 C581 1.390 . S
C586 C585 1.387 1_545 S
H587 C599 0.930 . S
H588 C601 0.930 . S
H589 C602 0.930 . S
H590 C606 0.959 . S
H591 C606 0.959 . S
H592 C606 0.961 . S
H593 C607 0.960 . S
H594 C607 0.961 . S
H595 C607 0.959 . S
H596 C610 0.929 . S
H597 C611 0.931 . S
H598 C613 0.930 . S
C599 H587 0.930 . S
C599 C600 1.399 . S
C599 C604 1.399 . S
C600 C599 1.399 . S
C600 C601 1.376 . S
C601 H588 0.930 . S
C601 C600 1.376 . S
C601 C602 1.388 . S
C602 H589 0.930 . S
C602 C601 1.388 . S
C602 C603 1.390 . S
C603 C602 1.390 . S
C603 C604 1.394 . S
C603 C609 1.465 . S
C604 C599 1.399 . S
C604 C603 1.394 . S
C604 C605 1.516 . S
C605 C604 1.516 . S
C605 C606 1.502 . S
C605 C607 1.561 . S
C605 C608 1.526 . S
C606 H590 0.959 . S
C606 H591 0.959 . S
C606 H592 0.961 . S
C606 C605 1.502 . S
C607 H593 0.960 . S
C607 H594 0.961 . S
C607 H595 0.959 . S
C607 C605 1.561 . S
C608 C605 1.526 . S
C608 C609 1.396 . S
C608 C613 1.390 . S
C609 C603 1.465 . S
C609 C608 1.396 . S
C609 C610 1.399 . S
C610 H596 0.929 . S
C610 C609 1.399 . S
C610 C611 1.385 . S
C611 H597 0.931 . S
C611 C610 1.385 . S
C611 C612 1.389 . S
C612 C611 1.389 . S
C612 C613 1.387 . S
C613 H598 0.930 . S
C613 C608 1.390 . S
C613 C612 1.387 . S
H614 C626 0.930 . S
H615 C628 0.930 . S
H616 C629 0.930 . S
H617 C633 0.959 . S
H618 C633 0.959 . S
H619 C633 0.961 . S
H620 C634 0.960 . S
H621 C634 0.961 . S
H622 C634 0.959 . S
H623 C637 0.929 . S
H624 C638 0.931 . S
H625 C640 0.930 . S
C626 H614 0.930 . S
C626 C627 1.399 . S
C626 C631 1.399 . S
C627 C626 1.399 . S
C627 C628 1.376 . S
C628 H615 0.930 . S
C628 C627 1.376 . S
C628 C629 1.388 . S
C629 H616 0.930 . S
C629 C628 1.388 . S
C629 C630 1.390 . S
C630 C629 1.390 . S
C630 C631 1.394 . S
C630 C636 1.465 . S
C631 C626 1.399 . S
C631 C630 1.394 . S
C631 C632 1.516 . S
C632 C631 1.516 . S
C632 C633 1.502 . S
C632 C634 1.561 . S
C632 C635 1.526 . S
C633 H617 0.959 . S
C633 H618 0.959 . S
C633 H619 0.961 . S
C633 C632 1.502 . S
C634 H620 0.960 . S
C634 H621 0.961 . S
C634 H622 0.959 . S
C634 C632 1.561 . S
C635 C632 1.526 . S
C635 C636 1.396 . S
C635 C640 1.390 . S
C636 C630 1.465 . S
C636 C635 1.396 . S
C636 C637 1.399 . S
C637 H623 0.929 . S
C637 C636 1.399 . S
C637 C638 1.385 . S
C638 H624 0.931 . S
C638 C637 1.385 . S
C638 C639 1.389 . S
C639 C638 1.389 . S
C639 C640 1.387 . S
C640 H625 0.930 . S
C640 C635 1.390 . S
C640 C639 1.387 . S
H641 C653 0.930 . S
H642 C655 0.930 . S
H643 C656 0.930 . S
H644 C660 0.959 . S
H645 C660 0.959 . S
H646 C660 0.961 . S
H647 C661 0.960 . S
H648 C661 0.961 1_655 S
H649 C661 0.959 . S
H650 C664 0.929 . S
H651 C665 0.931 . S
H652 C667 0.930 . S
C653 H641 0.930 . S
C653 C654 1.399 . S
C653 C658 1.399 . S
C654 C653 1.399 . S
C654 C655 1.376 . S
C655 H642 0.930 . S
C655 C654 1.376 . S
C655 C656 1.388 . S
C656 H643 0.930 . S
C656 C655 1.388 . S
C656 C657 1.390 . S
C657 C656 1.390 . S
C657 C658 1.394 . S
C657 C663 1.465 . S
C658 C653 1.399 . S
C658 C657 1.394 . S
C658 C659 1.516 . S
C659 C658 1.516 . S
C659 C660 1.502 . S
C659 C661 1.561 . S
C659 C662 1.526 . S
C660 H644 0.959 . S
C660 H645 0.959 . S
C660 H646 0.961 . S
C660 C659 1.502 . S
C661 H647 0.960 . S
C661 H648 0.961 1_455 S
C661 H649 0.959 . S
C661 C659 1.561 . S
C662 C659 1.526 . S
C662 C663 1.396 . S
C662 C667 1.390 . S
C663 C657 1.465 . S
C663 C662 1.396 . S
C663 C664 1.399 . S
C664 H650 0.929 . S
C664 C663 1.399 . S
C664 C665 1.385 . S
C665 H651 0.931 . S
C665 C664 1.385 . S
C665 C666 1.389 . S
C666 C665 1.389 . S
C666 C667 1.387 . S
C667 H652 0.930 . S
C667 C662 1.390 . S
C667 C666 1.387 . S
H668 C680 0.930 . S
H669 C682 0.930 . S
H670 C683 0.930 . S
H671 C687 0.959 . S
H672 C687 0.959 . S
H673 C687 0.961 . S
H674 C688 0.960 . S
H675 C688 0.961 . S
H676 C688 0.959 . S
H677 C691 0.929 . S
H678 C692 0.931 . S
H679 C694 0.930 . S
C680 H668 0.930 . S
C680 C681 1.371 1_545 S
C680 C685 1.399 . S
C681 C680 1.371 1_565 S
C681 C682 1.412 . S
C682 H669 0.930 . S
C682 C681 1.412 . S
C682 C683 1.388 . S
C683 H670 0.930 . S
C683 C682 1.388 . S
C683 C684 1.390 . S
C684 C683 1.390 . S
C684 C685 1.394 1_565 S
C684 C690 1.465 . S
C685 C680 1.399 . S
C685 C684 1.394 1_545 S
C685 C686 1.516 . S
C686 C685 1.516 . S
C686 C687 1.502 . S
C686 C688 1.561 . S
C686 C689 1.526 . S
C687 H671 0.959 . S
C687 H672 0.959 . S
C687 H673 0.961 . S
C687 C686 1.502 . S
C688 H674 0.960 . S
C688 H675 0.961 . S
C688 H676 0.959 . S
C688 C686 1.561 . S
C689 C686 1.526 . S
C689 C690 1.396 1_545 S
C689 C694 1.390 . S
C690 C684 1.465 . S
C690 C689 1.396 1_565 S
C690 C691 1.399 . S
C691 H677 0.929 . S
C691 C690 1.399 . S
C691 C692 1.385 . S
C692 H678 0.931 . S
C692 C691 1.385 . S
C692 C693 1.389 1_565 S
C693 C692 1.389 1_545 S
C693 C694 1.387 . S
C694 H679 0.930 . S
C694 C689 1.390 . S
C694 C693 1.387 . S
H695 C707 0.930 . S
H696 C709 0.930 . S
H697 C710 0.930 . S
H698 C714 0.959 . S
H699 C714 0.959 . S
H700 C714 0.961 . S
H701 C715 0.960 . S
H702 C715 0.961 . S
H703 C715 0.959 . S
H704 C718 0.929 . S
H705 C719 0.931 . S
H706 C721 0.930 . S
C707 H695 0.930 . S
C707 C708 1.399 . S
C707 C712 1.399 . S
C708 C707 1.399 . S
C708 C709 1.376 . S
C709 H696 0.930 . S
C709 C708 1.376 . S
C709 C710 1.388 . S
C710 H697 0.930 . S
C710 C709 1.388 . S
C710 C711 1.390 . S
C711 C710 1.390 . S
C711 C712 1.394 . S
C711 C717 1.465 . S
C712 C707 1.399 . S
C712 C711 1.394 . S
C712 C713 1.516 . S
C713 C712 1.516 . S
C713 C714 1.502 . S
C713 C715 1.561 . S
C713 C716 1.526 . S
C714 H698 0.959 . S
C714 H699 0.959 . S
C714 H700 0.961 . S
C714 C713 1.502 . S
C715 H701 0.960 . S
C715 H702 0.961 . S
C715 H703 0.959 . S
C715 C713 1.561 . S
C716 C713 1.526 . S
C716 C717 1.396 . S
C716 C721 1.390 . S
C717 C711 1.465 . S
C717 C716 1.396 . S
C717 C718 1.399 . S
C718 H704 0.929 . S
C718 C717 1.399 . S
C718 C719 1.385 . S
C719 H705 0.931 . S
C719 C718 1.385 . S
C719 C720 1.389 . S
C720 C719 1.389 . S
C720 C721 1.387 . S
C721 H706 0.930 . S
C721 C716 1.390 . S
C721 C720 1.387 . S
H722 C734 0.930 . S
H723 C736 0.930 . S
H724 C737 0.930 . S
H725 C741 0.959 . S
H726 C741 0.959 . S
H727 C741 0.961 . S
H728 C742 0.960 . S
H729 C742 0.961 . S
H730 C742 0.959 . S
H731 C745 0.929 . S
H732 C746 0.931 . S
H733 C748 0.930 . S
C734 H722 0.930 . S
C734 C735 1.399 . S
C734 C739 1.399 . S
C735 C734 1.399 . S
C735 C736 1.376 . S
C736 H723 0.930 . S
C736 C735 1.376 . S
C736 C737 1.388 . S
C737 H724 0.930 . S
C737 C736 1.388 . S
C737 C738 1.390 . S
C738 C737 1.390 . S
C738 C739 1.394 . S
C738 C744 1.465 . S
C739 C734 1.399 . S
C739 C738 1.394 . S
C739 C740 1.516 . S
C740 C739 1.516 . S
C740 C741 1.502 . S
C740 C742 1.561 . S
C740 C743 1.526 . S
C741 H725 0.959 . S
C741 H726 0.959 . S
C741 H727 0.961 . S
C741 C740 1.502 . S
C742 H728 0.960 . S
C742 H729 0.961 . S
C742 H730 0.959 . S
C742 C740 1.561 . S
C743 C740 1.526 . S
C743 C744 1.396 . S
C743 C748 1.390 . S
C744 C738 1.465 . S
C744 C743 1.396 . S
C744 C745 1.399 . S
C745 H731 0.929 . S
C745 C744 1.399 . S
C745 C746 1.385 . S
C746 H732 0.931 . S
C746 C745 1.385 . S
C746 C747 1.389 . S
C747 C746 1.389 . S
C747 C748 1.387 . S
C748 H733 0.930 . S
C748 C743 1.390 . S
C748 C747 1.387 . S
H749 C761 0.930 . S
H750 C763 0.930 . S
H751 C764 0.930 . S
H752 C768 0.959 . S
H753 C768 0.959 . S
H754 C768 0.961 . S
H755 C769 0.960 . S
H756 C769 0.961 1_455 S
H757 C769 0.959 1_455 S
H758 C772 0.929 . S
H759 C773 0.931 . S
H760 C775 0.930 . S
C761 H749 0.930 . S
C761 C762 1.399 . S
C761 C766 1.399 . S
C762 C761 1.399 . S
C762 C763 1.376 . S
C763 H750 0.930 . S
C763 C762 1.376 . S
C763 C764 1.388 . S
C764 H751 0.930 . S
C764 C763 1.388 . S
C764 C765 1.390 . S
C765 C764 1.390 . S
C765 C766 1.394 . S
C765 C771 1.465 . S
C766 C761 1.399 . S
C766 C765 1.394 . S
C766 C767 1.516 . S
C767 C766 1.516 . S
C767 C768 1.502 . S
C767 C769 1.561 . S
C767 C770 1.526 . S
C768 H752 0.959 . S
C768 H753 0.959 . S
C768 H754 0.961 . S
C768 C767 1.502 . S
C769 H755 0.960 . S
C769 H756 0.961 1_655 S
C769 H757 0.959 1_655 S
C769 C767 1.561 . S
C770 C767 1.526 . S
C770 C771 1.396 . S
C770 C775 1.390 . S
C771 C765 1.465 . S
C771 C770 1.396 . S
C771 C772 1.399 . S
C772 H758 0.929 . S
C772 C771 1.399 . S
C772 C773 1.385 . S
C773 H759 0.931 . S
C773 C772 1.385 . S
C773 C774 1.389 . S
C774 C773 1.389 . S
C774 C775 1.387 . S
C775 H760 0.930 . S
C775 C770 1.390 . S
C775 C774 1.387 . S
H776 C788 0.930 . S
H777 C790 0.930 . S
H778 C791 0.930 . S
H779 C795 0.959 . S
H780 C795 0.959 . S
H781 C795 0.961 . S
H782 C796 0.960 . S
H783 C796 0.961 . S
H784 C796 0.959 . S
H785 C799 0.911 1_655 S
H786 C800 0.931 . S
H787 C802 0.930 . S
C788 H776 0.930 . S
C788 C789 1.399 . S
C788 C793 1.399 . S
C789 C788 1.399 . S
C789 C790 1.376 . S
C790 H777 0.930 . S
C790 C789 1.376 . S
C790 C791 1.388 . S
C791 H778 0.930 . S
C791 C790 1.388 . S
C791 C792 1.390 . S
C792 C791 1.390 . S
C792 C793 1.394 . S
C792 C798 1.465 . S
C793 C788 1.399 . S
C793 C792 1.394 . S
C793 C794 1.516 . S
C794 C793 1.516 . S
C794 C795 1.502 . S
C794 C796 1.561 . S
C794 C797 1.526 . S
C795 H779 0.959 . S
C795 H780 0.959 . S
C795 H781 0.961 . S
C795 C794 1.502 . S
C796 H782 0.960 . S
C796 H783 0.961 . S
C796 H784 0.959 . S
C796 C794 1.561 . S
C797 C794 1.526 . S
C797 C798 1.396 . S
C797 C802 1.390 . S
C798 C792 1.465 . S
C798 C797 1.396 . S
C798 C799 1.399 . S
C799 H785 0.911 1_455 S
C799 C798 1.399 . S
C799 C800 1.385 1_455 S
C800 H786 0.931 . S
C800 C799 1.385 1_655 S
C800 C801 1.389 1_655 S
C801 C800 1.389 1_455 S
C801 C802 1.387 . S
C802 H787 0.930 . S
C802 C797 1.390 . S
C802 C801 1.387 . S
H803 C815 0.930 . S
H804 C817 0.930 . S
H805 C818 0.930 . S
H806 C822 0.959 . S
H807 C822 0.959 . S
H808 C822 0.961 . S
H809 C823 0.960 . S
H810 C823 0.961 . S
H811 C823 0.959 . S
H812 C826 0.929 . S
H813 C827 0.931 . S
H814 C829 0.930 . S
C815 H803 0.930 . S
C815 C816 1.399 . S
C815 C820 1.399 . S
C816 C815 1.399 . S
C816 C817 1.376 1_545 S
C817 H804 0.930 . S
C817 C816 1.376 1_565 S
C817 C818 1.388 . S
C818 H805 0.930 . S
C818 C817 1.388 . S
C818 C819 1.390 . S
C819 C818 1.390 . S
C819 C820 1.394 1_565 S
C819 C825 1.465 . S
C820 C815 1.399 . S
C820 C819 1.394 1_545 S
C820 C821 1.516 . S
C821 C820 1.516 . S
C821 C822 1.502 1_545 S
C821 C823 1.561 . S
C821 C824 1.526 1_545 S
C822 H806 0.959 . S
C822 H807 0.959 . S
C822 H808 0.961 . S
C822 C821 1.502 1_565 S
C823 H809 0.960 . S
C823 H810 0.961 . S
C823 H811 0.959 . S
C823 C821 1.561 . S
C824 C821 1.526 1_565 S
C824 C825 1.396 . S
C824 C829 1.390 . S
C825 C819 1.465 . S
C825 C824 1.396 . S
C825 C826 1.399 . S
C826 H812 0.929 . S
C826 C825 1.399 . S
C826 C827 1.385 . S
C827 H813 0.931 . S
C827 C826 1.385 . S
C827 C828 1.389 . S
C828 C827 1.389 . S
C828 C829 1.387 . S
C829 H814 0.930 . S
C829 C824 1.390 . S
C829 C828 1.387 . S
H830 C842 0.930 . S
H831 C844 0.930 . S
H832 C845 0.930 . S
H833 C849 0.959 . S
H834 C849 0.959 . S
H835 C849 0.961 . S
H836 C850 0.960 . S
H837 C850 0.961 . S
H838 C850 0.959 . S
H839 C853 0.929 . S
H840 C854 0.931 . S
H841 C856 0.930 . S
C842 H830 0.930 . S
C842 C843 1.399 . S
C842 C847 1.399 . S
C843 C842 1.399 . S
C843 C844 1.376 . S
C844 H831 0.930 . S
C844 C843 1.376 . S
C844 C845 1.388 . S
C845 H832 0.930 . S
C845 C844 1.388 . S
C845 C846 1.390 . S
C846 C845 1.390 . S
C846 C847 1.394 . S
C846 C852 1.465 . S
C847 C842 1.399 . S
C847 C846 1.394 . S
C847 C848 1.516 . S
C848 C847 1.516 . S
C848 C849 1.502 . S
C848 C850 1.561 . S
C848 C851 1.526 . S
C849 H833 0.959 . S
C849 H834 0.959 . S
C849 H835 0.961 . S
C849 C848 1.502 . S
C850 H836 0.960 . S
C850 H837 0.961 . S
C850 H838 0.959 . S
C850 C848 1.561 . S
C851 C848 1.526 . S
C851 C852 1.396 . S
C851 C856 1.390 . S
C852 C846 1.465 . S
C852 C851 1.396 . S
C852 C853 1.399 . S
C853 H839 0.929 . S
C853 C852 1.399 . S
C853 C854 1.385 . S
C854 H840 0.931 . S
C854 C853 1.385 . S
C854 C855 1.389 . S
C855 C854 1.389 . S
C855 C856 1.387 . S
C856 H841 0.930 . S
C856 C851 1.390 . S
C856 C855 1.387 . S
H857 C869 0.930 . S
H858 C871 0.930 . S
H859 C872 0.930 . S
H860 C876 0.959 . S
H861 C876 0.959 . S
H862 C876 0.961 . S
H863 C877 0.960 . S
H864 C877 0.961 . S
H865 C877 0.959 . S
H866 C880 0.929 . S
H867 C881 0.931 . S
H868 C883 0.930 . S
C869 H857 0.930 . S
C869 C870 1.399 . S
C869 C874 1.399 . S
C870 C869 1.399 . S
C870 C871 1.376 . S
C871 H858 0.930 . S
C871 C870 1.376 . S
C871 C872 1.388 . S
C872 H859 0.930 . S
C872 C871 1.388 . S
C872 C873 1.390 . S
C873 C872 1.390 . S
C873 C874 1.394 . S
C873 C879 1.465 . S
C874 C869 1.399 . S
C874 C873 1.394 . S
C874 C875 1.516 . S
C875 C874 1.516 . S
C875 C876 1.502 . S
C875 C877 1.561 . S
C875 C878 1.526 . S
C876 H860 0.959 . S
C876 H861 0.959 . S
C876 H862 0.961 . S
C876 C875 1.502 . S
C877 H863 0.960 . S
C877 H864 0.961 . S
C877 H865 0.959 . S
C877 C875 1.561 . S
C878 C875 1.526 . S
C878 C879 1.396 . S
C878 C883 1.390 . S
C879 C873 1.465 . S
C879 C878 1.396 . S
C879 C880 1.399 . S
C880 H866 0.929 . S
C880 C879 1.399 . S
C880 C881 1.385 . S
C881 H867 0.931 . S
C881 C880 1.385 . S
C881 C882 1.389 . S
C882 C881 1.389 . S
C882 C883 1.387 . S
C883 H868 0.930 . S
C883 C878 1.390 . S
C883 C882 1.387 . S
H884 C896 0.930 . S
H885 C898 0.930 . S
H886 C899 0.930 . S
H887 C903 0.959 . S
H888 C903 0.959 . S
H889 C903 0.961 . S
H890 C904 0.960 . S
H891 C904 0.961 . S
H892 C904 0.959 . S
H893 C907 0.929 . S
H894 C908 0.931 1_455 S
H895 C910 0.930 . S
C896 H884 0.930 . S
C896 C897 1.399 . S
C896 C901 1.399 . S
C897 C896 1.399 . S
C897 C898 1.376 . S
C898 H885 0.930 . S
C898 C897 1.376 . S
C898 C899 1.388 . S
C899 H886 0.930 . S
C899 C898 1.388 . S
C899 C900 1.390 . S
C900 C899 1.390 . S
C900 C901 1.394 . S
C900 C906 1.465 . S
C901 C896 1.399 . S
C901 C900 1.394 . S
C901 C902 1.516 . S
C902 C901 1.516 . S
C902 C903 1.502 . S
C902 C904 1.561 . S
C902 C905 1.526 . S
C903 H887 0.959 . S
C903 H888 0.959 . S
C903 H889 0.961 . S
C903 C902 1.502 . S
C904 H890 0.960 . S
C904 H891 0.961 . S
C904 H892 0.959 . S
C904 C902 1.561 . S
C905 C902 1.526 . S
C905 C906 1.396 . S
C905 C910 1.390 . S
C906 C900 1.465 . S
C906 C905 1.396 . S
C906 C907 1.399 . S
C907 H893 0.929 . S
C907 C906 1.399 . S
C907 C908 1.385 . S
C908 H894 0.931 1_655 S
C908 C907 1.385 . S
C908 C909 1.389 . S
C909 C908 1.389 . S
C909 C910 1.390 . S
C910 H895 0.930 . S
C910 C905 1.390 . S
C910 C909 1.390 . S
H911 C923 0.930 . S
H912 C925 0.930 . S
H913 C926 0.930 . S
H914 C930 0.959 . S
H915 C930 0.959 . S
H916 C930 0.961 . S
H917 C931 0.960 . S
H918 C931 0.961 . S
H919 C931 0.959 . S
H920 C934 0.929 . S
H921 C935 0.931 . S
H922 C937 0.930 . S
C923 H911 0.930 . S
C923 C924 1.399 1_565 S
C923 C928 1.399 . S
C924 C923 1.399 1_545 S
C924 C925 1.376 . S
C925 H912 0.930 . S
C925 C924 1.376 . S
C925 C926 1.388 . S
C926 H913 0.930 . S
C926 C925 1.388 . S
C926 C927 1.390 . S
C927 C926 1.390 . S
C927 C928 1.394 1_545 S
C927 C933 1.465 . S
C928 C923 1.399 . S
C928 C927 1.394 1_565 S
C928 C929 1.516 . S
C929 C928 1.516 . S
C929 C930 1.502 . S
C929 C931 1.561 . S
C929 C932 1.526 . S
C930 H914 0.959 . S
C930 H915 0.959 . S
C930 H916 0.961 . S
C930 C929 1.502 . S
C931 H917 0.960 . S
C931 H918 0.961 . S
C931 H919 0.959 . S
C931 C929 1.561 . S
C932 C929 1.526 . S
C932 C933 1.396 1_565 S
C932 C937 1.390 . S
C933 C927 1.465 . S
C933 C932 1.396 1_545 S
C933 C934 1.399 . S
C934 H920 0.929 . S
C934 C933 1.399 . S
C934 C935 1.385 . S
C935 H921 0.931 . S
C935 C934 1.385 . S
C935 C936 1.389 . S
C936 C935 1.389 . S
C936 C937 1.387 1_545 S
C937 H922 0.930 . S
C937 C932 1.390 . S
C937 C936 1.387 1_565 S
H938 C950 0.930 . S
H939 C952 0.930 . S
H940 C953 0.930 . S
H941 C957 0.959 . S
H942 C957 0.959 . S
H943 C957 0.961 . S
H944 C958 0.960 . S
H945 C958 0.961 . S
H946 C958 0.959 . S
H947 C961 0.929 . S
H948 C962 0.931 . S
H949 C964 0.930 . S
C950 H938 0.930 . S
C950 C951 1.399 . S
C950 C955 1.399 . S
C951 C950 1.399 . S
C951 C952 1.376 . S
C952 H939 0.930 . S
C952 C951 1.376 . S
C952 C953 1.388 . S
C953 H940 0.930 . S
C953 C952 1.388 . S
C953 C954 1.390 . S
C954 C953 1.390 . S
C954 C955 1.394 . S
C954 C960 1.465 . S
C955 C950 1.399 . S
C955 C954 1.394 . S
C955 C956 1.516 . S
C956 C955 1.516 . S
C956 C957 1.502 . S
C956 C958 1.561 . S
C956 C959 1.526 . S
C957 H941 0.959 . S
C957 H942 0.959 . S
C957 H943 0.961 . S
C957 C956 1.502 . S
C958 H944 0.960 . S
C958 H945 0.961 . S
C958 H946 0.959 . S
C958 C956 1.561 . S
C959 C956 1.526 . S
C959 C960 1.396 . S
C959 C964 1.390 . S
C960 C954 1.465 . S
C960 C959 1.396 . S
C960 C961 1.399 . S
C961 H947 0.929 . S
C961 C960 1.399 . S
C961 C962 1.385 . S
C962 H948 0.931 . S
C962 C961 1.385 . S
C962 C963 1.389 . S
C963 C962 1.389 . S
C963 C964 1.387 . S
C964 H949 0.930 . S
C964 C959 1.390 . S
C964 C963 1.387 . S
H965 C977 0.930 . S
H966 C979 0.930 . S
H967 C980 0.930 . S
H968 C984 0.959 . S
H969 C984 0.959 . S
H970 C984 0.961 . S
H971 C985 0.960 . S
H972 C985 0.961 . S
H973 C985 0.959 . S
H974 C988 0.929 . S
H975 C989 0.931 . S
H976 C991 0.930 . S
C977 H965 0.930 . S
C977 C978 1.399 . S
C977 C982 1.399 . S
C978 C977 1.399 . S
C978 C979 1.376 . S
C979 H966 0.930 . S
C979 C978 1.376 . S
C979 C980 1.388 . S
C980 H967 0.930 . S
C980 C979 1.388 . S
C980 C981 1.390 . S
C981 C980 1.390 . S
C981 C982 1.394 . S
C981 C987 1.465 . S
C982 C977 1.399 . S
C982 C981 1.394 . S
C982 C983 1.516 . S
C983 C982 1.516 . S
C983 C984 1.502 . S
C983 C985 1.561 . S
C983 C986 1.526 . S
C984 H968 0.959 . S
C984 H969 0.959 . S
C984 H970 0.961 . S
C984 C983 1.502 . S
C985 H971 0.960 . S
C985 H972 0.961 . S
C985 H973 0.959 . S
C985 C983 1.561 . S
C986 C983 1.526 . S
C986 C987 1.396 . S
C986 C991 1.390 . S
C987 C981 1.465 . S
C987 C986 1.396 . S
C987 C988 1.399 . S
C988 H974 0.929 . S
C988 C987 1.399 . S
C988 C989 1.385 . S
C989 H975 0.931 . S
C989 C988 1.385 . S
C989 C990 1.389 . S
C990 C989 1.389 . S
C990 C991 1.387 . S
C991 H976 0.930 . S
C991 C986 1.390 . S
C991 C990 1.387 . S
H992 C1004 0.930 . S
H993 C1006 0.930 . S
H994 C1007 0.930 . S
H995 C1011 0.959 . S
H996 C1011 0.959 . S
H997 C1011 0.961 . S
H998 C1012 0.960 . S
H999 C1012 0.961 . S
H1000 C1012 0.959 . S
H1001 C1015 0.929 . S
H1002 C1016 0.931 . S
H1003 C1018 0.930 . S
C1004 H992 0.930 . S
C1004 C1005 1.399 . S
C1004 C1009 1.399 . S
C1005 C1004 1.399 . S
C1005 C1006 1.376 . S
C1006 H993 0.930 . S
C1006 C1005 1.376 . S
C1006 C1007 1.388 . S
C1007 H994 0.930 . S
C1007 C1006 1.388 . S
C1007 C1008 1.390 . S
C1008 C1007 1.390 . S
C1008 C1009 1.394 . S
C1008 C1014 1.465 . S
C1009 C1004 1.399 . S
C1009 C1008 1.394 . S
C1009 C1010 1.516 . S
C1010 C1009 1.516 . S
C1010 C1011 1.502 . S
C1010 C1012 1.561 . S
C1010 C1013 1.526 . S
C1011 H995 0.959 . S
C1011 H996 0.959 . S
C1011 H997 0.961 . S
C1011 C1010 1.502 . S
C1012 H998 0.960 . S
C1012 H999 0.961 . S
C1012 H1000 0.959 . S
C1012 C1010 1.561 . S
C1013 C1010 1.526 . S
C1013 C1014 1.396 . S
C1013 C1018 1.390 . S
C1014 C1008 1.465 . S
C1014 C1013 1.396 . S
C1014 C1015 1.399 . S
C1015 H1001 0.929 . S
C1015 C1014 1.399 . S
C1015 C1016 1.385 . S
C1016 H1002 0.931 . S
C1016 C1015 1.385 . S
C1016 C1017 1.389 . S
C1017 C1016 1.389 . S
C1017 C1018 1.387 . S
C1018 H1003 0.930 . S
C1018 C1013 1.390 . S
C1018 C1017 1.387 . S
H1019 C1031 0.930 . S
H1020 C1033 0.930 . S
H1021 C1034 0.930 . S
H1022 C1038 0.959 . S
H1023 C1038 0.959 . S
H1024 C1038 0.961 . S
H1025 C1039 0.960 . S
H1026 C1039 0.961 . S
H1027 C1039 1.008 . S
H1028 C1042 0.929 . S
H1029 C1043 0.931 . S
H1030 C1045 0.930 . S
C1031 H1019 0.930 . S
C1031 C1032 1.399 1_545 S
C1031 C1036 1.399 . S
C1032 C1031 1.399 1_565 S
C1032 C1033 1.376 . S
C1033 H1020 0.930 . S
C1033 C1032 1.376 . S
C1033 C1034 1.388 . S
C1034 H1021 0.930 . S
C1034 C1033 1.388 . S
C1034 C1035 1.390 . S
C1035 C1034 1.390 . S
C1035 C1036 1.394 1_565 S
C1035 C1041 1.465 . S
C1036 C1031 1.399 . S
C1036 C1035 1.394 1_545 S
C1036 C1037 1.516 . S
C1037 C1036 1.516 . S
C1037 C1038 1.502 . S
C1037 C1039 1.561 . S
C1037 C1040 1.526 . S
C1038 H1022 0.959 . S
C1038 H1023 0.959 . S
C1038 H1024 0.961 . S
C1038 C1037 1.502 . S
C1039 H1025 0.960 . S
C1039 H1026 0.961 . S
C1039 H1027 1.008 . S
C1039 C1037 1.561 . S
C1040 C1037 1.526 . S
C1040 C1041 1.396 1_545 S
C1040 C1045 1.390 . S
C1041 C1035 1.465 . S
C1041 C1040 1.396 1_565 S
C1041 C1042 1.399 . S
C1042 H1028 0.929 . S
C1042 C1041 1.399 . S
C1042 C1043 1.385 . S
C1043 H1029 0.931 . S
C1043 C1042 1.385 . S
C1043 C1044 1.389 1_565 S
C1044 C1043 1.389 1_545 S
C1044 C1045 1.387 . S
C1045 H1030 0.930 . S
C1045 C1040 1.390 . S
C1045 C1044 1.387 . S
H1046 C1058 0.930 . S
H1047 C1060 0.930 . S
H1048 C1061 0.930 . S
H1049 C1065 0.959 . S
H1050 C1065 0.959 . S
H1051 C1065 0.961 . S
H1052 C1066 0.960 . S
H1053 C1066 0.961 . S
H1054 C1066 0.959 . S
H1055 C1069 0.929 . S
H1056 C1070 0.931 . S
H1057 C1072 0.930 . S
C1058 H1046 0.930 . S
C1058 C1059 1.399 . S
C1058 C1063 1.399 . S
C1059 C1058 1.399 . S
C1059 C1060 1.376 . S
C1060 H1047 0.930 . S
C1060 C1059 1.376 . S
C1060 C1061 1.388 . S
C1061 H1048 0.930 . S
C1061 C1060 1.388 . S
C1061 C1062 1.390 . S
C1062 C1061 1.390 . S
C1062 C1063 1.394 . S
C1062 C1068 1.465 . S
C1063 C1058 1.399 . S
C1063 C1062 1.394 . S
C1063 C1064 1.516 . S
C1064 C1063 1.516 . S
C1064 C1065 1.502 . S
C1064 C1066 1.561 . S
C1064 C1067 1.526 . S
C1065 H1049 0.959 . S
C1065 H1050 0.959 . S
C1065 H1051 0.961 . S
C1065 C1064 1.502 . S
C1066 H1052 0.960 . S
C1066 H1053 0.961 . S
C1066 H1054 0.959 . S
C1066 C1064 1.561 . S
C1067 C1064 1.526 . S
C1067 C1068 1.396 . S
C1067 C1072 1.390 . S
C1068 C1062 1.465 . S
C1068 C1067 1.396 . S
C1068 C1069 1.399 . S
C1069 H1055 0.929 . S
C1069 C1068 1.399 . S
C1069 C1070 1.385 . S
C1070 H1056 0.931 . S
C1070 C1069 1.385 . S
C1070 C1071 1.389 . S
C1071 C1070 1.389 . S
C1071 C1072 1.387 . S
C1072 H1057 0.930 . S
C1072 C1067 1.390 . S
C1072 C1071 1.387 . S
H1073 C1085 0.930 . S
H1074 C1087 0.930 . S
H1075 C1088 0.930 . S
H1076 C1092 0.959 . S
H1077 C1092 0.959 . S
H1078 C1092 0.961 . S
H1079 C1093 0.960 . S
H1080 C1093 0.961 . S
H1081 C1093 0.959 . S
H1082 C1096 0.929 . S
H1083 C1097 0.931 . S
H1084 C1099 0.930 . S
C1085 H1073 0.930 . S
C1085 C1086 1.399 . S
C1085 C1090 1.399 . S
C1086 C1085 1.399 . S
C1086 C1087 1.376 . S
C1087 H1074 0.930 . S
C1087 C1086 1.376 . S
C1087 C1088 1.388 . S
C1088 H1075 0.930 . S
C1088 C1087 1.388 . S
C1088 C1089 1.390 . S
C1089 C1088 1.390 . S
C1089 C1090 1.394 . S
C1089 C1095 1.465 . S
C1090 C1085 1.399 . S
C1090 C1089 1.394 . S
C1090 C1091 1.516 . S
C1091 C1090 1.516 . S
C1091 C1092 1.502 . S
C1091 C1093 1.561 . S
C1091 C1094 1.526 . S
C1092 H1076 0.959 . S
C1092 H1077 0.959 . S
C1092 H1078 0.961 . S
C1092 C1091 1.502 . S
C1093 H1079 0.960 . S
C1093 H1080 0.961 . S
C1093 H1081 0.959 . S
C1093 C1091 1.561 . S
C1094 C1091 1.526 . S
C1094 C1095 1.396 . S
C1094 C1099 1.390 . S
C1095 C1089 1.465 . S
C1095 C1094 1.396 . S
C1095 C1096 1.399 . S
C1096 H1082 0.929 . S
C1096 C1095 1.399 . S
C1096 C1097 1.385 . S
C1097 H1083 0.931 . S
C1097 C1096 1.385 . S
C1097 C1098 1.389 . S
C1098 C1097 1.389 . S
C1098 C1099 1.387 . S
C1099 H1084 0.930 . S
C1099 C1094 1.390 . S
C1099 C1098 1.387 . S
H1100 C1112 0.930 . S
H1101 C1114 0.930 . S
H1102 C1115 0.930 . S
H1103 C1119 0.959 . S
H1104 C1119 0.959 . S
H1105 C1119 0.961 . S
H1106 C1120 0.960 . S
H1107 C1120 0.961 . S
H1108 C1120 0.959 . S
H1109 C1123 0.929 . S
H1110 C1124 0.931 . S
H1111 C1126 0.930 . S
C1112 H1100 0.930 . S
C1112 C1113 1.399 . S
C1112 C1117 1.399 . S
C1113 C1112 1.399 . S
C1113 C1114 1.376 . S
C1114 H1101 0.930 . S
C1114 C1113 1.376 . S
C1114 C1115 1.388 . S
C1115 H1102 0.930 . S
C1115 C1114 1.388 . S
C1115 C1116 1.390 . S
C1116 C1115 1.390 . S
C1116 C1117 1.394 . S
C1116 C1122 1.465 . S
C1117 C1112 1.399 . S
C1117 C1116 1.394 . S
C1117 C1118 1.516 . S
C1118 C1117 1.516 . S
C1118 C1119 1.502 . S
C1118 C1120 1.561 . S
C1118 C1121 1.526 . S
C1119 H1103 0.959 . S
C1119 H1104 0.959 . S
C1119 H1105 0.961 . S
C1119 C1118 1.502 . S
C1120 H1106 0.960 . S
C1120 H1107 0.961 . S
C1120 H1108 0.959 . S
C1120 C1118 1.561 . S
C1121 C1118 1.526 . S
C1121 C1122 1.396 . S
C1121 C1126 1.390 . S
C1122 C1116 1.465 . S
C1122 C1121 1.396 . S
C1122 C1123 1.399 . S
C1123 H1109 0.929 . S
C1123 C1122 1.399 . S
C1123 C1124 1.385 . S
C1124 H1110 0.931 . S
C1124 C1123 1.385 . S
C1124 C1125 1.389 . S
C1125 C1124 1.389 . S
C1125 C1126 1.387 . S
C1126 H1111 0.930 . S
C1126 C1121 1.390 . S
C1126 C1125 1.387 . S
H1127 C1139 0.930 . S
H1128 C1141 0.930 . S
H1129 C1142 0.930 . S
H1130 C1146 0.959 . S
H1131 C1146 0.959 . S
H1132 C1146 0.961 . S
H1133 C1147 0.960 . S
H1134 C1147 0.961 . S
H1135 C1147 0.959 . S
H1136 C1150 0.929 . S
H1137 C1151 0.931 . S
H1138 C1153 0.930 . S
C1139 H1127 0.930 . S
C1139 C1140 1.399 1_545 S
C1139 C1144 1.399 . S
C1140 C1139 1.399 1_565 S
C1140 C1141 1.376 . S
C1141 H1128 0.930 . S
C1141 C1140 1.376 . S
C1141 C1142 1.388 . S
C1142 H1129 0.930 . S
C1142 C1141 1.388 . S
C1142 C1143 1.390 . S
C1143 C1142 1.390 . S
C1143 C1144 1.394 1_565 S
C1143 C1149 1.465 . S
C1144 C1139 1.399 . S
C1144 C1143 1.394 1_545 S
C1144 C1145 1.516 . S
C1145 C1144 1.516 . S
C1145 C1146 1.502 . S
C1145 C1147 1.561 . S
C1145 C1148 1.526 . S
C1146 H1130 0.959 . S
C1146 H1131 0.959 . S
C1146 H1132 0.961 . S
C1146 C1145 1.502 . S
C1147 H1133 0.960 . S
C1147 H1134 0.961 . S
C1147 H1135 0.959 . S
C1147 C1145 1.561 . S
C1148 C1145 1.526 . S
C1148 C1149 1.396 1_545 S
C1148 C1153 1.390 . S
C1149 C1143 1.465 . S
C1149 C1148 1.396 1_565 S
C1149 C1150 1.399 . S
C1150 H1136 0.929 . S
C1150 C1149 1.399 . S
C1150 C1151 1.385 . S
C1151 H1137 0.931 . S
C1151 C1150 1.385 . S
C1151 C1152 1.389 . S
C1152 C1151 1.389 . S
C1152 C1153 1.387 1_565 S
C1153 H1138 0.930 . S
C1153 C1148 1.390 . S
C1153 C1152 1.387 1_545 S
H1154 C1166 0.930 . S
H1155 C1168 0.930 . S
H1156 C1169 0.930 . S
H1157 C1173 0.959 . S
H1158 C1173 0.959 . S
H1159 C1173 0.961 . S
H1160 C1174 0.960 . S
H1161 C1174 0.961 . S
H1162 C1174 0.959 . S
H1163 C1177 0.929 . S
H1164 C1178 0.931 . S
H1165 C1180 0.930 . S
C1166 H1154 0.930 . S
C1166 C1167 1.399 . S
C1166 C1171 1.399 . S
C1167 C1166 1.399 . S
C1167 C1168 1.376 . S
C1168 H1155 0.930 . S
C1168 C1167 1.376 . S
C1168 C1169 1.388 . S
C1169 H1156 0.930 . S
C1169 C1168 1.388 . S
C1169 C1170 1.390 . S
C1170 C1169 1.390 . S
C1170 C1171 1.394 . S
C1170 C1176 1.465 . S
C1171 C1166 1.399 . S
C1171 C1170 1.394 . S
C1171 C1172 1.516 . S
C1172 C1171 1.516 . S
C1172 C1173 1.502 . S
C1172 C1174 1.561 . S
C1172 C1175 1.526 . S
C1173 H1157 0.959 . S
C1173 H1158 0.959 . S
C1173 H1159 0.961 . S
C1173 C1172 1.502 . S
C1174 H1160 0.960 . S
C1174 H1161 0.961 . S
C1174 H1162 0.959 . S
C1174 C1172 1.561 . S
C1175 C1172 1.526 . S
C1175 C1176 1.396 . S
C1175 C1180 1.390 . S
C1176 C1170 1.465 . S
C1176 C1175 1.396 . S
C1176 C1177 1.399 . S
C1177 H1163 0.929 . S
C1177 C1176 1.399 . S
C1177 C1178 1.385 . S
C1178 H1164 0.931 . S
C1178 C1177 1.385 . S
C1178 C1179 1.389 . S
C1179 C1178 1.389 . S
C1179 C1180 1.387 . S
C1180 H1165 0.930 . S
C1180 C1175 1.390 . S
C1180 C1179 1.387 . S
H1181 C1193 0.930 . S
H1182 C1195 0.930 . S
H1183 C1196 0.930 . S
H1184 C1200 0.959 . S
H1185 C1200 0.959 . S
H1186 C1200 0.961 . S
H1187 C1201 0.960 . S
H1188 C1201 0.961 . S
H1189 C1201 0.959 . S
H1190 C1204 0.929 . S
H1191 C1205 0.931 . S
H1192 C1207 0.930 . S
C1193 H1181 0.930 . S
C1193 C1194 1.399 . S
C1193 C1198 1.399 . S
C1194 C1193 1.399 . S
C1194 C1195 1.376 . S
C1195 H1182 0.930 . S
C1195 C1194 1.376 . S
C1195 C1196 1.388 . S
C1196 H1183 0.930 . S
C1196 C1195 1.388 . S
C1196 C1197 1.390 . S
C1197 C1196 1.390 . S
C1197 C1198 1.394 . S
C1197 C1203 1.465 . S
C1198 C1193 1.399 . S
C1198 C1197 1.394 . S
C1198 C1199 1.516 . S
C1199 C1198 1.516 . S
C1199 C1200 1.502 . S
C1199 C1201 1.561 . S
C1199 C1202 1.526 . S
C1200 H1184 0.959 . S
C1200 H1185 0.959 . S
C1200 H1186 0.961 . S
C1200 C1199 1.502 . S
C1201 H1187 0.960 . S
C1201 H1188 0.961 . S
C1201 H1189 0.959 . S
C1201 C1199 1.561 . S
C1202 C1199 1.526 . S
C1202 C1203 1.396 . S
C1202 C1207 1.390 . S
C1203 C1197 1.465 . S
C1203 C1202 1.396 . S
C1203 C1204 1.399 . S
C1204 H1190 0.929 . S
C1204 C1203 1.399 . S
C1204 C1205 1.385 . S
C1205 H1191 0.931 . S
C1205 C1204 1.385 . S
C1205 C1206 1.389 . S
C1206 C1205 1.389 . S
C1206 C1207 1.387 . S
C1207 H1192 0.930 . S
C1207 C1202 1.390 . S
C1207 C1206 1.387 . S
C573 C391 1.782 1_565 S
C585 C488 1.777 . S
C612 C518 2.415 . S
C600 C451 2.373 . S
C639 C528 1.848 . S
C627 C241 1.729 . S
C666 C548 1.768 . S
C654 C331 1.451 . S
C693 C489 1.790 . S
C681 C121 1.634 . S
C708 C211 2.286 1_556 S
C720 C519 2.417 . S
C735 C31 1.898 . S
C747 C529 1.868 . S
C762 C91 1.629 . S
C774 C549 1.764 . S
C801 C481 0.855 . S
C789 C301 0.751 . S
C828 C502 0.172 . S
C816 C380 0.335 . S
C855 C521 1.092 . S
C843 C440 1.111 . S
C870 C260 0.599 . S
C882 C541 0.534 . S
C897 C61 0.843 . S
C909 C482 0.851 1_655 S
C936 C501 0.313 . S
C924 C140 0.581 1_545 S
C963 C522 1.118 . S
C951 C200 0.964 . S
C978 C20 0.580 . S
C990 C542 0.567 . S
C1005 C320 2.341 . S
C1017 C499 2.466 . S
C1032 C361 1.642 1_565 S
C1044 C509 2.021 . S
C1071 C539 2.690 . S
C1059 C421 2.257 . S
C1098 C559 2.532 . S
C1086 C271 2.490 . S
C1113 C80 2.383 . S
C1125 C498 2.479 . S
C1152 C508 2.010 . S
C1140 C151 1.861 . S
C1179 C538 2.678 . S
C1167 C181 2.236 . S
C1194 C1 2.167 . S
C1206 C558 2.563 . S
