# Generated by pormake.
# Topology pth, (4,4)-cn, num edge types: 1
# Building blocks:
#     Node 0, Type 0, BuildingBlock: KUFVIS_clean_sbu_0, # of connection points: 4
#     Node 1, Type 0, BuildingBlock: KUFVIS_clean_sbu_0, # of connection points: 4
#     Node 2, Type 0, BuildingBlock: KUFVIS_clean_sbu_0, # of connection points: 4
#     Node 3, Type 1, BuildingBlock: NAWXER_clean_linker_0, # of connection points: 4
#     Node 4, Type 1, BuildingBlock: NAWXER_clean_linker_0, # of connection points: 4
#     Node 5, Type 1, BuildingBlock: NAWXER_clean_linker_0, # of connection points: 4
#     Edge 6, Type (0, 1), BuildingBlock: XIVTED_clean_linker_0, # of connection points: 2
#     Edge 7, Type (0, 1), BuildingBlock: XIVTED_clean_linker_0, # of connection points: 2
#     Edge 8, Type (0, 1), BuildingBlock: XIVTED_clean_linker_0, # of connection points: 2
#     Edge 9, Type (0, 1), BuildingBlock: XIVTED_clean_linker_0, # of connection points: 2
#     Edge 10, Type (0, 1), BuildingBlock: XIVTED_clean_linker_0, # of connection points: 2
#     Edge 11, Type (0, 1), BuildingBlock: XIVTED_clean_linker_0, # of connection points: 2
#     Edge 12, Type (0, 1), BuildingBlock: XIVTED_clean_linker_0, # of connection points: 2
#     Edge 13, Type (0, 1), BuildingBlock: XIVTED_clean_linker_0, # of connection points: 2
#     Edge 14, Type (0, 1), BuildingBlock: XIVTED_clean_linker_0, # of connection points: 2
#     Edge 15, Type (0, 1), BuildingBlock: XIVTED_clean_linker_0, # of connection points: 2
#     Edge 16, Type (0, 1), BuildingBlock: XIVTED_clean_linker_0, # of connection points: 2
#     Edge 17, Type (0, 1), BuildingBlock: XIVTED_clean_linker_0, # of connection points: 2
# Relax obj value: 0.011
# Max RMSD: 0.077
# Mean RMSD: 0.050
data_MOF--net-pth--node1-KUFVIS_clean_sbu_0--node2-NAWXER_clean_linker_0--edge1-XIVTED_clean_linker_0
_symmetry_space_group_name_H-M    P1
_symmetry_Int_Tables_number       1
_symmetry_cell_setting            triclinic
loop_
_symmetry_equiv_pos_as_xyz
'x, y, z'
_cell_length_a     28.775295
_cell_length_b     28.863493
_cell_length_c     66.483338
_cell_angle_alpha  90.38553
_cell_angle_beta   91.849376
_cell_angle_gamma 120.26313
loop_
_atom_site_label
_atom_site_type_symbol
_atom_site_fract_x
_atom_site_fract_y
_atom_site_fract_z
_atom_type_partial_charge
Mn0 Mn 0.03611 0.07007 0.04831 0.0
Mn1 Mn 0.96124 0.10431 0.01872 0.0
C2 C 0.98432 0.01454 0.02166 0.0
C3 C 0.04318 0.02748 0.07693 0.0
C4 C 0.08183 0.15279 0.01516 0.0
O5 O 0.03502 0.12873 0.06495 0.0
O6 O 0.9816 0.14597 0.0447 0.0
C7 C 0.86514 0.05998 0.04354 0.0
N8 N 0.8876 0.06196 0.02561 0.0
C9 C 0.80179 0.99637 0.01051 0.0
C10 C 0.77767 0.99391 0.02877 0.0
C11 C 0.80952 0.02578 0.04537 0.0
C12 C 0.85737 0.03129 0.00958 0.0
H13 H 0.8895 0.0842 0.05636 0.0
C14 C 0.00985 0.15366 0.06101 0.0
O15 O 0.08596 0.06436 0.06853 0.0
O16 O 0.99703 0.01693 0.06905 0.0
N17 N 0.93809 0.06711 0.99315 0.0
C18 C 0.96773 0.07327 0.97675 0.0
C19 C 0.94195 0.04383 0.95892 0.0
C20 C 0.88598 0.0087 0.95807 0.0
C21 C 0.85621 0.00369 0.97503 0.0
C22 C 0.88402 0.03447 0.99232 0.0
H23 H 0.01076 0.10002 0.97732 0.0
O24 O 0.02422 0.01081 0.02937 0.0
O25 O 0.97536 0.05001 0.03 0.0
O26 O 0.08875 0.1263 0.02912 0.0
O27 O 0.03616 0.14801 0.01038 0.0
C28 C 0.80014 0.96877 0.97554 0.0
C29 C 0.77297 0.965 0.99329 0.0
H30 H 0.73482 0.96744 0.03027 0.0
H31 H 0.79124 0.0239 0.05954 0.0
H32 H 0.96522 0.04797 0.94589 0.0
H33 H 0.86633 0.98559 0.94436 0.0
H34 H 0.77762 0.94419 0.96244 0.0
H35 H 0.72995 0.93758 0.99357 0.0
Mn36 Mn 0.01683 0.06816 0.38038 0.0
Mn37 Mn 0.08607 0.18271 0.4082 0.0
C38 C 0.06566 0.07024 0.40892 0.0
C39 C 0.01478 0.01416 0.35379 0.0
C40 C 0.96464 0.10958 0.40913 0.0
O41 O 0.01928 0.12471 0.36167 0.0
O42 O 0.07257 0.1998 0.38039 0.0
C43 C 0.18872 0.23262 0.38716 0.0
N44 N 0.16151 0.21424 0.40439 0.0
C45 C 0.24345 0.23889 0.42355 0.0
C46 C 0.27241 0.25857 0.40604 0.0
C47 C 0.2449 0.25531 0.38777 0.0
C48 C 0.18758 0.2172 0.42207 0.0
H49 H 0.16768 0.22979 0.37305 0.0
C50 C 0.04567 0.17566 0.36413 0.0
O51 O 0.97045 0.00903 0.36044 0.0
O52 O 0.0596 0.05179 0.362 0.0
N53 N 0.1024 0.17187 0.4353 0.0
C54 C 0.06812 0.14743 0.45045 0.0
C55 C 0.08901 0.1451 0.46956 0.0
C56 C 0.14486 0.1681 0.47291 0.0
C57 C 0.17937 0.19338 0.45714 0.0
C58 C 0.15627 0.19487 0.43846 0.0
H59 H 0.02515 0.1295 0.44795 0.0
O60 O 0.02706 0.02492 0.40147 0.0
O61 O 0.0748 0.11292 0.39929 0.0
O62 O 0.96074 0.07284 0.39718 0.0
O63 O 0.00909 0.1526 0.41357 0.0
C64 C 0.23564 0.21597 0.45908 0.0
C65 C 0.26766 0.23871 0.4423 0.0
H66 H 0.31569 0.27567 0.40641 0.0
H67 H 0.26692 0.27004 0.37416 0.0
H68 H 0.06211 0.12541 0.48165 0.0
H69 H 0.16078 0.16571 0.48761 0.0
H70 H 0.25462 0.21525 0.47332 0.0
H71 H 0.31078 0.25515 0.4439 0.0
Mn72 Mn 0.03444 0.06282 0.71257 0.0
Mn73 Mn 0.99572 0.14018 0.73674 0.0
C74 C 0.08748 0.11894 0.73892 0.0
C75 C 0.07881 0.05166 0.6859 0.0
C76 C 0.9468 0.02057 0.74332 0.0
O77 O 0.97583 0.05985 0.69372 0.0
O78 O 0.95993 0.11964 0.70944 0.0
C79 C 0.04636 0.23549 0.71118 0.0
N80 N 0.0401 0.21339 0.72964 0.0
C81 C 0.10179 0.29929 0.7453 0.0
C82 C 0.10854 0.32305 0.72648 0.0
C83 C 0.0808 0.29097 0.70934 0.0
C84 C 0.06678 0.24383 0.74621 0.0
H85 H 0.02534 0.21093 0.69796 0.0
C86 C 0.95284 0.08775 0.69463 0.0
O87 O 0.04181 0.01053 0.69505 0.0
O88 O 0.08886 0.09869 0.69198 0.0
N89 N 0.02762 0.16353 0.76329 0.0
C90 C 0.01834 0.1341 0.78018 0.0
C91 C 0.04403 0.16002 0.79857 0.0
C92 C 0.07858 0.21592 0.79944 0.0
C93 C 0.08685 0.24545 0.78193 0.0
C94 C 0.05982 0.21749 0.76406 0.0
H95 H 0.99177 0.09114 0.77963 0.0
O96 O 0.09306 0.07903 0.7332 0.0
O97 O 0.05197 0.12548 0.72875 0.0
O98 O 0.9775 0.01311 0.73195 0.0
O99 O 0.94899 0.06573 0.74541 0.0
C100 C 0.12159 0.30143 0.78143 0.0
C101 C 0.12914 0.3283 0.76312 0.0
H102 H 0.13526 0.36579 0.72498 0.0
H103 H 0.08606 0.30896 0.69475 0.0
H104 H 0.03736 0.13695 0.81202 0.0
H105 H 0.09876 0.23569 0.81361 0.0
H106 H 0.14327 0.32408 0.79498 0.0
H107 H 0.15651 0.37123 0.76287 0.0
C108 C 0.00518 0.40747 0.24348 0.0
C109 C 0.04273 0.42352 0.25988 0.0
C110 C 0.00224 0.44567 0.23149 0.0
C111 C 0.03765 0.50075 0.23535 0.0
C112 C 0.07754 0.47875 0.26381 0.0
C113 C 0.07504 0.51677 0.25169 0.0
C114 C 0.03397 0.54238 0.2236 0.0
C115 C 0.06745 0.44771 0.17735 0.0
C116 C 0.02588 0.4219 0.16245 0.0
C117 C 0.0682 0.48601 0.1906 0.0
C118 C 0.0272 0.49886 0.18927 0.0
C119 C 0.98476 0.43474 0.16134 0.0
C120 C 0.98569 0.47309 0.17449 0.0
C121 C 0.02847 0.54114 0.20234 0.0
C122 C 0.07222 0.76348 0.18584 0.0
C123 C 0.03391 0.75323 0.17023 0.0
C124 C 0.06997 0.72133 0.19679 0.0
C125 C 0.0292 0.66812 0.19244 0.0
C126 C 0.99344 0.69985 0.16576 0.0
C127 C 0.99138 0.65767 0.17668 0.0
C128 C 0.02758 0.62331 0.2037 0.0
C129 C 0.97847 0.70694 0.24823 0.0
C130 C 0.021 0.74059 0.2619 0.0
C131 C 0.98207 0.66931 0.23606 0.0
C132 C 0.02782 0.66389 0.23751 0.0
C133 C 0.06704 0.73511 0.26307 0.0
C134 C 0.06999 0.69658 0.25123 0.0
C135 C 0.03121 0.62358 0.22488 0.0
H136 H 0.97785 0.36538 0.2399 0.0
H137 H 0.97161 0.43202 0.21946 0.0
H138 H 0.10604 0.4929 0.27657 0.0
H139 H 0.10222 0.55897 0.25522 0.0
H140 H 0.10016 0.43939 0.17844 0.0
H141 H 0.10131 0.5063 0.20161 0.0
H142 H 0.95163 0.41506 0.15031 0.0
H143 H 0.95375 0.48254 0.17317 0.0
H144 H 0.10376 0.80412 0.18968 0.0
H145 H 0.10058 0.73033 0.20851 0.0
H146 H 0.96386 0.6906 0.1536 0.0
H147 H 0.96005 0.61687 0.17289 0.0
H148 H 0.94189 0.70889 0.24711 0.0
H149 H 0.94876 0.64383 0.2257 0.0
H150 H 0.10127 0.76091 0.27298 0.0
H151 H 0.1057 0.69303 0.25247 0.0
N152 N 0.03495 0.58361 0.23403 0.0
N153 N 0.02557 0.58174 0.19323 0.0
C154 C 0.67052 0.08318 0.51115 0.0
C155 C 0.65816 0.04793 0.4945 0.0
C156 C 0.63049 0.07662 0.52411 0.0
C157 C 0.57741 0.034 0.52098 0.0
C158 C 0.60481 0.0056 0.49129 0.0
C159 C 0.56486 0.99888 0.50436 0.0
C160 C 0.53397 0.02829 0.53393 0.0
C161 C 0.65197 0.01013 0.57483 0.0
C162 C 0.67359 0.04759 0.59105 0.0
C163 C 0.60801 0.00438 0.56307 0.0
C164 C 0.58543 0.03659 0.56713 0.0
C165 C 0.65006 0.0789 0.59524 0.0
C166 C 0.60659 0.07344 0.58343 0.0
C167 C 0.5384 0.03114 0.55524 0.0
C168 C 0.31743 0.98702 0.5773 0.0
C169 C 0.33223 0.02595 0.59278 0.0
C170 C 0.35659 0.98665 0.5655 0.0
C171 C 0.41125 0.02533 0.56889 0.0
C172 C 0.3871 0.06385 0.59641 0.0
C173 C 0.42621 0.06332 0.58466 0.0
C174 C 0.45314 0.02612 0.55628 0.0
C175 C 0.36159 0.07771 0.51525 0.0
C176 C 0.32716 0.03718 0.50129 0.0
C177 C 0.40068 0.07287 0.52647 0.0
C178 C 0.40631 0.0277 0.52374 0.0
C179 C 0.33249 0.99173 0.4987 0.0
C180 C 0.37232 0.98737 0.50968 0.0
C181 C 0.44907 0.02389 0.53508 0.0
H182 H 0.7112 0.11595 0.51421 0.0
H183 H 0.64098 0.1054 0.53642 0.0
H184 H 0.59359 0.97826 0.47845 0.0
H185 H 0.52398 0.9663 0.50142 0.0
H186 H 0.66909 0.9854 0.57115 0.0
H187 H 0.5915 0.97451 0.55094 0.0
H188 H 0.6646 0.10715 0.6079 0.0
H189 H 0.58948 0.09827 0.58705 0.0
H190 H 0.27552 0.95736 0.57411 0.0
H191 H 0.34412 0.95605 0.55374 0.0
H192 H 0.39989 0.09377 0.60845 0.0
H193 H 0.46816 0.09318 0.58769 0.0
H194 H 0.35816 0.11307 0.5175 0.0
H195 H 0.42706 0.10475 0.53709 0.0
H196 H 0.30668 0.96025 0.48785 0.0
H197 H 0.37644 0.95246 0.5073 0.0
N198 N 0.4893 0.0246 0.5247 0.0
N199 N 0.49778 0.03004 0.56553 0.0
C200 C 0.39311 0.38275 0.84907 0.0
C201 C 0.36612 0.39681 0.83451 0.0
C202 C 0.4355 0.42231 0.8611 0.0
C203 C 0.4515 0.47661 0.85886 0.0
C204 C 0.38185 0.45122 0.83254 0.0
C205 C 0.42438 0.49071 0.84449 0.0
C206 C 0.49857 0.51918 0.87046 0.0
C207 C 0.37132 0.43419 0.91505 0.0
C208 C 0.38258 0.40398 0.92884 0.0
C209 C 0.41126 0.47111 0.90291 0.0
C210 C 0.46343 0.47878 0.90426 0.0
C211 C 0.43526 0.41249 0.9304 0.0
C212 C 0.47541 0.44989 0.91832 0.0
C213 C 0.50576 0.51844 0.89152 0.0
C214 C 0.69403 0.73809 0.91122 0.0
C215 C 0.71816 0.72498 0.92714 0.0
C216 C 0.6528 0.69766 0.89908 0.0
C217 C 0.63623 0.64345 0.90225 0.0
C218 C 0.70124 0.67087 0.93048 0.0
C219 C 0.66073 0.6305 0.91811 0.0
C220 C 0.59037 0.59979 0.8904 0.0
C221 C 0.71302 0.69809 0.84477 0.0
C222 C 0.69484 0.72304 0.83107 0.0
C223 C 0.67695 0.65823 0.8573 0.0
C224 C 0.62216 0.64283 0.85636 0.0
C225 C 0.63981 0.70672 0.82995 0.0
C226 C 0.60385 0.66684 0.84238 0.0
C227 C 0.58296 0.60054 0.86928 0.0
H228 H 0.38269 0.34136 0.85075 0.0
H229 H 0.45673 0.41056 0.87175 0.0
H230 H 0.36143 0.46339 0.82169 0.0
H231 H 0.43617 0.5324 0.84249 0.0
H232 H 0.33173 0.42994 0.91381 0.0
H233 H 0.4015 0.49417 0.8926 0.0
H234 H 0.44533 0.38975 0.94074 0.0
H235 H 0.51562 0.45565 0.91971 0.0
H236 H 0.70573 0.77952 0.90862 0.0
H237 H 0.63302 0.70886 0.88761 0.0
H238 H 0.7193 0.65984 0.94269 0.0
H239 H 0.64817 0.58901 0.92104 0.0
H240 H 0.75521 0.70991 0.84601 0.0
H241 H 0.6918 0.6394 0.86766 0.0
H242 H 0.62439 0.72447 0.81932 0.0
H243 H 0.56165 0.65511 0.84122 0.0
N244 N 0.53724 0.5603 0.8602 0.0
N245 N 0.5515 0.55854 0.90067 0.0
H246 H 0.97182 0.2231 0.0567 0.0
H247 H 0.05402 0.34492 0.16913 0.0
H248 H 0.0551 0.17553 0.09954 0.0
H249 H 0.99778 0.40959 0.12218 0.0
H250 H 0.05185 0.28015 0.14458 0.0
H251 H 0.97705 0.28844 0.08134 0.0
C252 C 0.99124 0.2263 0.07129 0.0
C253 C 0.01311 0.19363 0.07599 0.0
C254 C 0.04005 0.3086 0.13968 0.0
C255 C 0.01914 0.26875 0.10441 0.0
C256 C 0.04152 0.34576 0.15367 0.0
C257 C 0.02573 0.38266 0.14778 0.0
C258 C 0.02252 0.30819 0.11968 0.0
C259 C 0.00927 0.38132 0.12756 0.0
C260 C 0.99432 0.26383 0.08536 0.0
C261 C 0.03781 0.1999 0.0952 0.0
N262 N 0.00796 0.34468 0.1143 0.0
N263 N 0.04002 0.23663 0.10872 0.0
H264 H 0.95078 0.18453 0.42913 0.0
H265 H 0.67269 0.97134 0.47552 0.0
H266 H 0.86822 0.01573 0.41286 0.0
H267 H 0.74039 0.14286 0.48108 0.0
H268 H 0.7438 0.986 0.45281 0.0
H269 H 0.87415 0.16943 0.44849 0.0
C270 C 0.91638 0.14427 0.42951 0.0
C271 C 0.91613 0.10129 0.41938 0.0
C272 C 0.7429 0.02038 0.45895 0.0
C273 C 0.82812 0.08364 0.44177 0.0
C274 C 0.70219 0.01206 0.47187 0.0
C275 C 0.70059 0.05593 0.48038 0.0
C276 C 0.78257 0.07294 0.45456 0.0
C277 C 0.74048 0.10779 0.47527 0.0
C278 C 0.87253 0.1357 0.44058 0.0
C279 C 0.87018 0.05009 0.42038 0.0
N280 N 0.77987 0.11481 0.46279 0.0
N281 N 0.82821 0.04259 0.43154 0.0
H282 H 0.86849 0.0173 0.7666 0.0
H283 H 0.77725 0.72696 0.80996 0.0
H284 H 0.93647 0.92107 0.74794 0.0
H285 H 0.69899 0.81751 0.8225 0.0
H286 H 0.83821 0.79843 0.78807 0.0
H287 H 0.80764 0.94487 0.78772 0.0
C288 C 0.87057 0.98086 0.76686 0.0
C289 C 0.90784 0.97544 0.75542 0.0
C290 C 0.80762 0.80256 0.7956 0.0
C291 C 0.83806 0.89207 0.77981 0.0
C292 C 0.77308 0.76198 0.80819 0.0
C293 C 0.73287 0.76621 0.81803 0.0
C294 C 0.80213 0.84786 0.79294 0.0
C295 C 0.72891 0.8122 0.81501 0.0
C296 C 0.8357 0.93943 0.77896 0.0
C297 C 0.90839 0.92709 0.75643 0.0
N298 N 0.7631 0.85118 0.80279 0.0
N299 N 0.87417 0.88735 0.76848 0.0
H300 H 0.13167 0.02609 0.09318 0.0
H301 H 0.95055 0.76798 0.15822 0.0
H302 H 0.95998 0.95445 0.09844 0.0
H303 H 0.12295 0.84039 0.15556 0.0
H304 H 0.95476 0.83984 0.13782 0.0
H305 H 0.13131 0.96322 0.11793 0.0
C306 C 0.09409 0.99768 0.09973 0.0
C307 C 0.04573 0.9952 0.09363 0.0
C308 C 0.99179 0.84026 0.14176 0.0
C309 C 0.04489 0.92303 0.12172 0.0
C310 C 0.98931 0.79899 0.1533 0.0
C311 C 0.0364 0.79795 0.15848 0.0
C312 C 0.0417 0.88078 0.13518 0.0
C313 C 0.08568 0.8398 0.15201 0.0
C314 C 0.09384 0.96168 0.11379 0.0
C315 C 0.99817 0.95755 0.10257 0.0
N316 N 0.08702 0.87933 0.14058 0.0
N317 N -0.00109 0.92278 0.11602 0.0
H318 H 0.1738 0.11855 0.40629 0.0
H319 H 0.21934 0.96591 0.49596 0.0
H320 H 0.04399 0.01647 0.44405 0.0
H321 H 0.34427 0.12215 0.47857 0.0
H322 H 0.15416 0.97624 0.47449 0.0
H323 H 0.23766 0.11332 0.43011 0.0
C324 C 0.15908 0.09611 0.4199 0.0
C325 C 0.10423 0.07002 0.42384 0.0
C326 C 0.19579 0.00833 0.47552 0.0
C327 C 0.17609 0.06121 0.45041 0.0
C328 C 0.23288 0.00233 0.48762 0.0
C329 C 0.28703 0.04324 0.48894 0.0
C330 C 0.21341 0.055 0.46437 0.0
C331 C 0.30274 0.08985 0.47798 0.0
C332 C 0.19531 0.09271 0.43334 0.0
C333 C 0.08638 0.03843 0.44091 0.0
N334 N 0.26617 0.09426 0.46596 0.0
N335 N 0.1223 0.03482 0.45364 0.0
H336 H 0.15338 0.22416 0.73199 0.0
H337 H 0.28687 0.29485 0.84352 0.0
H338 H 0.11446 0.10508 0.77712 0.0
H339 H 0.34801 0.40374 0.79423 0.0
H340 H 0.2189 0.22636 0.82029 0.0
H341 H 0.22125 0.29233 0.75538 0.0
C342 C 0.15899 0.21272 0.74697 0.0
C343 C 0.12742 0.15979 0.75305 0.0
C344 C 0.24727 0.26528 0.8146 0.0
C345 C 0.20526 0.23671 0.77967 0.0
C346 C 0.28617 0.30435 0.82783 0.0
C347 C 0.32332 0.35521 0.82084 0.0
C348 C 0.24543 0.27716 0.79425 0.0
C349 C 0.3198 0.36547 0.80039 0.0
C350 C 0.19788 0.25137 0.76024 0.0
C351 C 0.13738 0.14602 0.77219 0.0
N352 N 0.2816 0.32682 0.78784 0.0
N353 N 0.17511 0.18448 0.78499 0.0
H354 H 0.92116 0.15955 0.68464 0.0
H355 H 0.69415 0.96876 0.60382 0.0
H356 H 0.90012 0.00612 0.66627 0.0
H357 H 0.75813 0.13994 0.6079 0.0
H358 H 0.76628 0.9793 0.62733 0.0
H359 H 0.85746 0.15068 0.65771 0.0
C360 C 0.90319 0.12397 0.67492 0.0
C361 C 0.91585 0.08338 0.67778 0.0
C362 C 0.76465 0.01452 0.62292 0.0
C363 C 0.8425 0.07289 0.64693 0.0
C364 C 0.72364 0.00862 0.60942 0.0
C365 C 0.71953 0.05346 0.604 0.0
C366 C 0.80145 0.06549 0.63122 0.0
C367 C 0.7587 0.104 0.612 0.0
C368 C 0.867 0.11908 0.65947 0.0
C369 C 0.89157 0.0384 0.66459 0.0
N370 N 0.79759 0.10854 0.62532 0.0
N371 N 0.85559 0.03408 0.64984 0.0
H372 H 0.87866 0.94648 0.02732 0.0
H373 H 0.80937 0.81688 0.91721 0.0
H374 H 0.00301 0.98498 0.98522 0.0
H375 H 0.71921 0.72974 0.96808 0.0
H376 H 0.87581 0.88767 0.94044 0.0
H377 H 0.81392 0.87415 0.0043 0.0
C378 C 0.89199 0.93982 0.0131 0.0
C379 C 0.94538 0.97238 0.00769 0.0
C380 C 0.8416 0.85282 0.94645 0.0
C381 C 0.87245 0.89008 0.9816 0.0
C382 C 0.80371 0.81276 0.93326 0.0
C383 C 0.75913 0.7675 0.94083 0.0
C384 C 0.83407 0.84789 0.96725 0.0
C385 C 0.75343 0.76382 0.96172 0.0
C386 C 0.85537 0.89846 0.00011 0.0
C387 C 0.96163 0.96125 0.98955 0.0
N388 N 0.79029 0.80376 0.97423 0.0
N389 N 0.92499 0.92143 0.97691 0.0
H390 H 0.09635 0.99517 0.34758 0.0
H391 H 0.96905 0.79752 0.25363 0.0
H392 H 0.93415 0.94608 0.32655 0.0
H393 H 0.06421 0.77594 0.3003 0.0
H394 H 0.9646 0.86358 0.27553 0.0
H395 H 0.09598 0.92825 0.32488 0.0
C396 C 0.0608 0.97068 0.33801 0.0
C397 C 0.01512 0.97608 0.33895 0.0
C398 C 0.98629 0.84409 0.28084 0.0
C399 C 0.0148 0.89975 0.31287 0.0
C400 C 0.98871 0.80611 0.26844 0.0
C401 C 0.01736 0.78085 0.27496 0.0
C402 C 0.01373 0.85788 0.29967 0.0
C403 C 0.04288 0.795 0.29424 0.0
C404 C 0.06058 0.93231 0.32519 0.0
C405 C 0.97008 0.94297 0.3263 0.0
N406 N 0.0409 0.83288 0.30578 0.0
N407 N 0.9711 0.90623 0.31361 0.0
H408 H 0.1551 0.1311 0.6638 0.0
H409 H 0.24308 0.94142 0.60871 0.0
H410 H 0.07583 0.96012 0.67206 0.0
H411 H 0.32678 0.11387 0.60473 0.0
H412 H 0.17678 0.9457 0.62967 0.0
H413 H 0.21323 0.12366 0.63979 0.0
C414 C 0.14965 0.09184 0.66046 0.0
C415 C 0.11073 0.04618 0.67006 0.0
C416 C 0.20959 0.98255 0.62416 0.0
C417 C 0.17766 0.0374 0.64256 0.0
C418 C 0.2473 0.98013 0.61212 0.0
C419 C 0.29076 0.02741 0.60506 0.0
C420 C 0.21526 0.0326 0.62908 0.0
C421 C 0.29448 0.07649 0.61011 0.0
C422 C 0.18301 0.08764 0.64675 0.0
C423 C 0.10542 0.99637 0.66504 0.0
N424 N 0.25733 0.07778 0.62181 0.0
N425 N 0.13877 0.99332 0.65171 0.0
H426 H 0.19 0.18993 0.02289 0.0
H427 H 0.27614 0.33696 0.91802 0.0
H428 H 0.07963 0.19972 0.97988 0.0
H429 H 0.39005 0.37912 0.96841 0.0
H430 H 0.20446 0.27567 0.93927 0.0
H431 H 0.26493 0.24958 0.00193 0.0
C432 C 0.18144 0.20449 0.00909 0.0
C433 C 0.1283 0.18966 0.00318 0.0
C434 C 0.24515 0.29835 0.94569 0.0
C435 C 0.21355 0.25711 0.97913 0.0
C436 C 0.28617 0.33363 0.93358 0.0
C437 C 0.3393 0.36403 0.94146 0.0
C438 C 0.25712 0.29271 0.96583 0.0
C439 C 0.34982 0.35641 0.96162 0.0
C440 C 0.2242 0.23855 0.99719 0.0
C441 C 0.11974 0.20992 0.98515 0.0
N442 N 0.30905 0.32155 0.97314 0.0
N443 N 0.16178 0.24225 0.97376 0.0
H444 H 0.97113 0.14724 0.33276 0.0
H445 H 0.13137 0.42798 0.27881 0.0
H446 H 0.12009 0.2802 0.35727 0.0
H447 H 0.95851 0.32695 0.27178 0.0
H448 H 0.13276 0.36581 0.30316 0.0
H449 H 0.97098 0.20484 0.3058 0.0
C450 C 0.00394 0.18837 0.3324 0.0
C451 C 0.04555 0.20904 0.34735 0.0
C452 C 0.0946 0.35726 0.2962 0.0
C453 C 0.04585 0.27461 0.3165 0.0
C454 C 0.09364 0.39287 0.28236 0.0
C455 C 0.04462 0.38335 0.27335 0.0
C456 C 0.04636 0.31122 0.30092 0.0
C457 C 0.99735 0.336 0.27815 0.0
C458 C 0.00368 0.22117 0.31708 0.0
C459 C 0.08697 0.26268 0.34617 0.0
N460 N -0.00062 0.30176 0.29164 0.0
N461 N 0.08617 0.29353 0.33099 0.0
loop_
_geom_bond_atom_site_label_1
_geom_bond_atom_site_label_2
_geom_bond_distance
_geom_bond_site_symmetry_2
_ccdc_geom_bond_type
Mn0 O5 2.095 . S
Mn0 O15 2.162 . S
Mn0 O16 2.297 1_545 S
Mn0 O24 2.385 1_545 S
Mn0 O25 2.209 1_455 S
Mn0 O26 2.094 . S
Mn1 O6 2.121 . S
Mn1 N8 2.257 . S
Mn1 N17 2.282 1_554 S
Mn1 O25 2.215 . S
Mn1 O27 2.117 1_655 S
C2 O24 1.234 1_645 S
C2 O25 1.283 . S
C3 O15 1.281 1_565 S
C3 O16 1.236 . S
C4 O26 1.240 . S
C4 O27 1.264 . S
O5 Mn0 2.095 . S
O5 C14 1.250 . S
O6 Mn1 2.121 . S
O6 C14 1.256 1_655 S
C7 N8 1.326 . S
C7 C11 1.460 . S
C7 H13 0.929 . S
N8 Mn1 2.257 . S
N8 C7 1.326 . S
N8 C12 1.362 . S
C9 C10 1.258 1_556 S
C9 C12 1.431 1_556 S
C9 C29 1.449 . S
C10 C9 1.258 1_554 S
C10 C11 1.477 . S
C10 H30 0.931 . S
C11 C7 1.460 . S
C11 C10 1.477 . S
C11 H31 0.930 . S
C12 N8 1.362 . S
C12 C9 1.431 1_554 S
C12 C22 1.476 1_554 S
H13 C7 0.929 . S
C14 O5 1.250 . S
C14 O6 1.256 1_455 S
O15 Mn0 2.162 . S
O15 C3 1.281 1_545 S
O16 Mn0 2.297 1_565 S
O16 C3 1.236 . S
N17 Mn1 2.282 1_556 S
N17 C18 1.328 . S
N17 C22 1.318 . S
C18 N17 1.328 . S
C18 C19 1.457 . S
C18 H23 0.929 1_655 S
C19 C18 1.457 . S
C19 C20 1.291 . S
C19 H32 0.931 . S
C20 C19 1.291 . S
C20 C21 1.373 . S
C20 H33 0.929 . S
C21 C20 1.373 . S
C21 C22 1.396 . S
C21 C28 1.403 . S
C22 C12 1.476 1_556 S
C22 N17 1.318 . S
C22 C21 1.396 . S
H23 C18 0.929 1_455 S
O24 Mn0 2.385 1_565 S
O24 C2 1.234 1_465 S
O25 Mn0 2.209 1_655 S
O25 Mn1 2.215 . S
O25 C2 1.283 . S
O26 Mn0 2.094 . S
O26 C4 1.240 . S
O27 Mn1 2.117 1_455 S
O27 C4 1.264 . S
C28 C21 1.403 . S
C28 C29 1.399 . S
C28 H34 0.929 . S
C29 C9 1.449 . S
C29 C28 1.399 . S
C29 H35 0.930 . S
H30 C10 0.931 . S
H31 C11 0.930 . S
H32 C19 0.931 . S
H33 C20 0.929 . S
H34 C28 0.929 . S
H35 C29 0.930 . S
Mn36 O41 2.095 . S
Mn36 O51 2.162 1_545 S
Mn36 O52 2.297 1_655 S
Mn36 O60 2.385 1_655 S
Mn36 O61 2.209 1_655 S
Mn36 O62 2.094 . S
Mn37 O42 2.121 . S
Mn37 N44 2.257 . S
Mn37 N53 2.282 . S
Mn37 O61 2.215 . S
Mn37 O63 2.117 1_455 S
C38 O60 1.234 . S
C38 O61 1.283 . S
C39 O51 1.281 1_455 S
C39 O52 1.236 1_565 S
C40 O62 1.240 . S
C40 O63 1.264 . S
O41 Mn36 2.095 . S
O41 C50 1.250 1_655 S
O42 Mn37 2.121 . S
O42 C50 1.258 . S
C43 N44 1.326 . S
C43 C47 1.460 . S
C43 H49 0.929 . S
N44 Mn37 2.257 . S
N44 C43 1.326 . S
N44 C48 1.362 . S
C45 C46 1.258 . S
C45 C48 1.431 . S
C45 C65 1.449 . S
C46 C45 1.258 . S
C46 C47 1.477 . S
C46 H66 0.931 . S
C47 C43 1.460 . S
C47 C46 1.477 . S
C47 H67 0.930 . S
C48 N44 1.362 . S
C48 C45 1.431 . S
C48 C58 1.476 . S
H49 C43 0.929 . S
C50 O41 1.250 1_455 S
C50 O42 1.258 . S
O51 Mn36 2.162 1_565 S
O51 C39 1.281 1_655 S
O52 Mn36 2.297 1_455 S
O52 C39 1.236 1_545 S
N53 Mn37 2.282 . S
N53 C54 1.328 . S
N53 C58 1.318 . S
C54 N53 1.328 . S
C54 C55 1.457 . S
C54 H59 0.929 . S
C55 C54 1.457 . S
C55 C56 1.291 . S
C55 H68 0.931 . S
C56 C55 1.291 . S
C56 C57 1.373 . S
C56 H69 0.929 . S
C57 C56 1.373 . S
C57 C58 1.396 . S
C57 C64 1.403 . S
C58 C48 1.476 . S
C58 N53 1.318 . S
C58 C57 1.396 . S
H59 C54 0.929 . S
O60 Mn36 2.385 1_455 S
O60 C38 1.234 . S
O61 Mn36 2.209 1_455 S
O61 Mn37 2.215 . S
O61 C38 1.283 . S
O62 Mn36 2.094 . S
O62 C40 1.240 . S
O63 Mn37 2.117 1_655 S
O63 C40 1.264 . S
C64 C57 1.403 . S
C64 C65 1.399 . S
C64 H70 0.929 . S
C65 C45 1.449 . S
C65 C64 1.399 . S
C65 H71 0.930 . S
H66 C46 0.931 . S
H67 C47 0.930 . S
H68 C55 0.931 . S
H69 C56 0.929 . S
H70 C64 0.929 . S
H71 C65 0.930 . S
Mn72 O77 2.095 1_455 S
Mn72 O87 2.162 . S
Mn72 O88 2.297 . S
Mn72 O96 2.385 . S
Mn72 O97 2.209 . S
Mn72 O98 2.094 1_445 S
Mn73 O78 2.121 . S
Mn73 N80 2.257 . S
Mn73 N89 2.282 1_655 S
Mn73 O97 2.215 1_655 S
Mn73 O99 2.117 . S
C74 O96 1.234 . S
C74 O97 1.283 . S
C75 O87 1.281 . S
C75 O88 1.236 . S
C76 O98 1.240 . S
C76 O99 1.264 1_565 S
O77 Mn72 2.095 1_655 S
O77 C86 1.250 . S
O78 Mn73 2.121 . S
O78 C86 1.258 . S
C79 N80 1.326 . S
C79 C83 1.460 1_655 S
C79 H85 0.929 . S
N80 Mn73 2.257 . S
N80 C79 1.326 . S
N80 C84 1.362 1_655 S
C81 C82 1.258 . S
C81 C84 1.431 . S
C81 C101 1.449 . S
C82 C81 1.258 . S
C82 C83 1.477 . S
C82 H102 0.931 . S
C83 C79 1.460 1_455 S
C83 C82 1.477 . S
C83 H103 0.930 1_455 S
C84 N80 1.362 1_455 S
C84 C81 1.431 . S
C84 C94 1.476 . S
H85 C79 0.929 . S
C86 O77 1.250 . S
C86 O78 1.258 . S
O87 Mn72 2.162 . S
O87 C75 1.281 . S
O88 Mn72 2.297 . S
O88 C75 1.236 . S
N89 Mn73 2.282 1_455 S
N89 C90 1.328 . S
N89 C94 1.318 . S
C90 N89 1.328 . S
C90 C91 1.457 . S
C90 H95 0.929 1_455 S
C91 C90 1.457 . S
C91 C92 1.291 . S
C91 H104 0.931 . S
C92 C91 1.291 . S
C92 C93 1.373 . S
C92 H105 0.929 . S
C93 C92 1.373 . S
C93 C94 1.396 . S
C93 C100 1.403 . S
C94 C84 1.476 . S
C94 N89 1.318 . S
C94 C93 1.396 . S
H95 C90 0.929 1_655 S
O96 Mn72 2.385 . S
O96 C74 1.234 . S
O97 Mn72 2.209 . S
O97 Mn73 2.215 1_455 S
O97 C74 1.283 . S
O98 Mn72 2.094 1_665 S
O98 C76 1.240 . S
O99 Mn73 2.117 . S
O99 C76 1.264 1_545 S
C100 C93 1.403 . S
C100 C101 1.399 . S
C100 H106 0.929 . S
C101 C81 1.449 . S
C101 C100 1.399 . S
C101 H107 0.930 . S
H102 C82 0.931 . S
H103 C83 0.930 1_655 S
H104 C91 0.931 . S
H105 C92 0.929 . S
H106 C100 0.929 . S
H107 C101 0.930 . S
C108 C109 1.384 1_655 S
C108 C110 1.384 . S
C108 H136 0.931 . S
C109 C108 1.384 1_455 S
C109 C112 1.382 . S
C110 C108 1.384 . S
C110 C111 1.381 1_655 S
C110 H137 0.930 . S
C111 C110 1.381 1_455 S
C111 C113 1.381 . S
C111 C114 1.487 . S
C112 C109 1.382 . S
C112 C113 1.387 . S
C112 H138 0.930 . S
C113 C111 1.381 . S
C113 C112 1.387 . S
C113 H139 0.931 . S
C114 C111 1.487 . S
C114 C121 1.399 . S
C114 N152 1.343 . S
C115 C116 1.384 . S
C115 C117 1.384 . S
C115 H140 0.931 . S
C116 C115 1.384 . S
C116 C119 1.382 1_455 S
C117 C115 1.384 . S
C117 C118 1.381 . S
C117 H141 0.930 . S
C118 C117 1.381 . S
C118 C120 1.381 1_455 S
C118 C121 1.487 . S
C119 C116 1.382 1_655 S
C119 C120 1.387 . S
C119 H142 0.930 . S
C120 C118 1.381 1_655 S
C120 C119 1.387 . S
C120 H143 0.931 . S
C121 C114 1.399 . S
C121 C118 1.487 . S
C121 N153 1.343 . S
C122 C123 1.384 . S
C122 C124 1.384 . S
C122 H144 0.931 . S
C123 C122 1.384 . S
C123 C126 1.382 1_455 S
C124 C122 1.384 . S
C124 C125 1.381 . S
C124 H145 0.930 . S
C125 C124 1.381 . S
C125 C127 1.381 1_455 S
C125 C128 1.487 . S
C126 C123 1.382 1_655 S
C126 C127 1.387 . S
C126 H146 0.930 . S
C127 C125 1.381 1_655 S
C127 C126 1.387 . S
C127 H147 0.931 . S
C128 C125 1.487 . S
C128 C135 1.399 . S
C128 N153 1.343 . S
C129 C130 1.384 1_655 S
C129 C131 1.384 . S
C129 H148 0.931 . S
C130 C129 1.384 1_455 S
C130 C133 1.382 . S
C131 C129 1.384 . S
C131 C132 1.381 1_655 S
C131 H149 0.930 . S
C132 C131 1.381 1_455 S
C132 C134 1.381 . S
C132 C135 1.487 . S
C133 C130 1.382 . S
C133 C134 1.387 . S
C133 H150 0.930 . S
C134 C132 1.381 . S
C134 C133 1.387 . S
C134 H151 0.931 . S
C135 C128 1.399 . S
C135 C132 1.487 . S
C135 N152 1.343 . S
H136 C108 0.931 . S
H137 C110 0.930 . S
H138 C112 0.930 . S
H139 C113 0.931 . S
H140 C115 0.931 . S
H141 C117 0.930 . S
H142 C119 0.930 . S
H143 C120 0.931 . S
H144 C122 0.931 . S
H145 C124 0.930 . S
H146 C126 0.930 . S
H147 C127 0.931 . S
H148 C129 0.931 . S
H149 C131 0.930 . S
H150 C133 0.930 . S
H151 C134 0.931 . S
N152 C114 1.343 . S
N152 C135 1.343 . S
N153 C121 1.343 . S
N153 C128 1.343 . S
C154 C155 1.384 . S
C154 C156 1.384 . S
C154 H182 0.931 . S
C155 C154 1.384 . S
C155 C158 1.382 . S
C156 C154 1.384 . S
C156 C157 1.381 . S
C156 H183 0.930 . S
C157 C156 1.381 . S
C157 C159 1.381 . S
C157 C160 1.487 . S
C158 C155 1.382 . S
C158 C159 1.387 . S
C158 H184 0.930 . S
C159 C157 1.381 . S
C159 C158 1.387 . S
C159 H185 0.931 . S
C160 C157 1.487 . S
C160 C167 1.399 . S
C160 N198 1.343 . S
C161 C162 1.384 . S
C161 C163 1.384 . S
C161 H186 0.931 . S
C162 C161 1.384 . S
C162 C165 1.382 . S
C163 C161 1.384 . S
C163 C164 1.381 . S
C163 H187 0.930 . S
C164 C163 1.381 . S
C164 C166 1.381 . S
C164 C167 1.487 . S
C165 C162 1.382 . S
C165 C166 1.387 . S
C165 H188 0.930 . S
C166 C164 1.381 . S
C166 C165 1.387 . S
C166 H189 0.931 . S
C167 C160 1.399 . S
C167 C164 1.487 . S
C167 N199 1.343 . S
C168 C169 1.384 . S
C168 C170 1.384 . S
C168 H190 0.931 . S
C169 C168 1.384 . S
C169 C172 1.382 . S
C170 C168 1.384 . S
C170 C171 1.381 . S
C170 H191 0.930 . S
C171 C170 1.381 . S
C171 C173 1.381 . S
C171 C174 1.487 . S
C172 C169 1.382 . S
C172 C173 1.387 . S
C172 H192 0.930 . S
C173 C171 1.381 . S
C173 C172 1.387 . S
C173 H193 0.931 . S
C174 C171 1.487 . S
C174 C181 1.399 . S
C174 N199 1.343 . S
C175 C176 1.384 . S
C175 C177 1.384 . S
C175 H194 0.931 . S
C176 C175 1.384 . S
C176 C179 1.382 . S
C177 C175 1.384 . S
C177 C178 1.381 . S
C177 H195 0.930 . S
C178 C177 1.381 . S
C178 C180 1.381 . S
C178 C181 1.487 . S
C179 C176 1.382 . S
C179 C180 1.387 . S
C179 H196 0.930 . S
C180 C178 1.381 . S
C180 C179 1.387 . S
C180 H197 0.931 . S
C181 C174 1.399 . S
C181 C178 1.487 . S
C181 N198 1.343 . S
H182 C154 0.931 . S
H183 C156 0.930 . S
H184 C158 0.930 . S
H185 C159 0.931 . S
H186 C161 0.931 . S
H187 C163 0.930 . S
H188 C165 0.930 . S
H189 C166 0.931 . S
H190 C168 0.931 . S
H191 C170 0.930 . S
H192 C172 0.930 . S
H193 C173 0.931 . S
H194 C175 0.931 . S
H195 C177 0.930 . S
H196 C179 0.930 . S
H197 C180 0.931 . S
N198 C160 1.343 . S
N198 C181 1.343 . S
N199 C167 1.343 . S
N199 C174 1.343 . S
C200 C201 1.384 . S
C200 C202 1.384 . S
C200 H228 0.931 . S
C201 C200 1.384 . S
C201 C204 1.382 . S
C202 C200 1.384 . S
C202 C203 1.381 . S
C202 H229 0.930 . S
C203 C202 1.381 . S
C203 C205 1.381 . S
C203 C206 1.487 . S
C204 C201 1.382 . S
C204 C205 1.387 . S
C204 H230 0.930 . S
C205 C203 1.381 . S
C205 C204 1.387 . S
C205 H231 0.931 . S
C206 C203 1.487 . S
C206 C213 1.399 . S
C206 N244 1.343 . S
C207 C208 1.384 . S
C207 C209 1.384 . S
C207 H232 0.931 . S
C208 C207 1.384 . S
C208 C211 1.382 . S
C209 C207 1.384 . S
C209 C210 1.381 . S
C209 H233 0.930 . S
C210 C209 1.381 . S
C210 C212 1.381 . S
C210 C213 1.487 . S
C211 C208 1.382 . S
C211 C212 1.387 . S
C211 H234 0.930 . S
C212 C210 1.381 . S
C212 C211 1.387 . S
C212 H235 0.931 . S
C213 C206 1.399 . S
C213 C210 1.487 . S
C213 N245 1.343 . S
C214 C215 1.384 . S
C214 C216 1.384 . S
C214 H236 0.931 . S
C215 C214 1.384 . S
C215 C218 1.382 . S
C216 C214 1.384 . S
C216 C217 1.381 . S
C216 H237 0.930 . S
C217 C216 1.381 . S
C217 C219 1.381 . S
C217 C220 1.487 . S
C218 C215 1.382 . S
C218 C219 1.387 . S
C218 H238 0.930 . S
C219 C217 1.381 . S
C219 C218 1.387 . S
C219 H239 0.931 . S
C220 C217 1.487 . S
C220 C227 1.399 . S
C220 N245 1.343 . S
C221 C222 1.384 . S
C221 C223 1.384 . S
C221 H240 0.931 . S
C222 C221 1.384 . S
C222 C225 1.382 . S
C223 C221 1.384 . S
C223 C224 1.381 . S
C223 H241 0.930 . S
C224 C223 1.381 . S
C224 C226 1.381 . S
C224 C227 1.487 . S
C225 C222 1.382 . S
C225 C226 1.387 . S
C225 H242 0.930 . S
C226 C224 1.381 . S
C226 C225 1.387 . S
C226 H243 0.931 . S
C227 C220 1.399 . S
C227 C224 1.487 . S
C227 N244 1.343 . S
H228 C200 0.931 . S
H229 C202 0.930 . S
H230 C204 0.930 . S
H231 C205 0.931 . S
H232 C207 0.931 . S
H233 C209 0.930 . S
H234 C211 0.930 . S
H235 C212 0.931 . S
H236 C214 0.931 . S
H237 C216 0.930 . S
H238 C218 0.930 . S
H239 C219 0.931 . S
H240 C221 0.931 . S
H241 C223 0.930 . S
H242 C225 0.930 . S
H243 C226 0.931 . S
N244 C206 1.343 . S
N244 C227 1.343 . S
N245 C213 1.343 . S
N245 C220 1.343 . S
H246 C252 0.930 . S
H247 C256 0.930 . S
H248 C261 0.929 . S
H249 C259 0.929 . S
H250 C254 0.929 . S
H251 C260 0.929 . S
C252 H246 0.930 . S
C252 C253 1.367 . S
C252 C260 1.378 . S
C253 C252 1.367 . S
C253 C261 1.433 . S
C254 H250 0.929 . S
C254 C256 1.378 . S
C254 C258 1.350 . S
C255 C258 1.463 . S
C255 C260 1.350 . S
C255 N263 1.427 . S
C256 H247 0.930 . S
C256 C254 1.378 . S
C256 C257 1.367 . S
C257 C256 1.367 . S
C257 C259 1.433 . S
C258 C254 1.350 . S
C258 C255 1.463 . S
C258 N262 1.427 . S
C259 H249 0.929 . S
C259 C257 1.433 . S
C259 N262 1.384 . S
C260 H251 0.929 . S
C260 C252 1.378 . S
C260 C255 1.350 . S
C261 H248 0.929 . S
C261 C253 1.433 . S
C261 N263 1.384 . S
N262 C258 1.427 . S
N262 C259 1.384 . S
N263 C255 1.427 . S
N263 C261 1.384 . S
H264 C270 0.930 . S
H265 C274 0.930 . S
H266 C279 0.929 . S
H267 C277 0.929 . S
H268 C272 0.929 . S
H269 C278 0.929 . S
C270 H264 0.930 . S
C270 C271 1.367 . S
C270 C278 1.378 . S
C271 C270 1.367 . S
C271 C279 1.433 . S
C272 H268 0.929 . S
C272 C274 1.378 . S
C272 C276 1.350 . S
C273 C276 1.463 . S
C273 C278 1.350 . S
C273 N281 1.427 . S
C274 H265 0.930 . S
C274 C272 1.378 . S
C274 C275 1.367 . S
C275 C274 1.367 . S
C275 C277 1.433 . S
C276 C272 1.350 . S
C276 C273 1.463 . S
C276 N280 1.427 . S
C277 H267 0.929 . S
C277 C275 1.433 . S
C277 N280 1.384 . S
C278 H269 0.929 . S
C278 C270 1.378 . S
C278 C273 1.350 . S
C279 H266 0.929 . S
C279 C271 1.433 . S
C279 N281 1.384 . S
N280 C276 1.427 . S
N280 C277 1.384 . S
N281 C273 1.427 . S
N281 C279 1.384 . S
H282 C288 0.930 . S
H283 C292 0.930 . S
H284 C297 0.929 . S
H285 C295 0.929 . S
H286 C290 0.929 . S
H287 C296 0.929 . S
C288 H282 0.930 . S
C288 C289 1.367 . S
C288 C296 1.378 . S
C289 C288 1.367 . S
C289 C297 1.433 . S
C290 H286 0.929 . S
C290 C292 1.378 . S
C290 C294 1.350 . S
C291 C294 1.463 . S
C291 C296 1.350 . S
C291 N299 1.427 . S
C292 H283 0.930 . S
C292 C290 1.378 . S
C292 C293 1.367 . S
C293 C292 1.367 . S
C293 C295 1.433 . S
C294 C290 1.350 . S
C294 C291 1.463 . S
C294 N298 1.427 . S
C295 H285 0.929 . S
C295 C293 1.433 . S
C295 N298 1.384 . S
C296 H287 0.929 . S
C296 C288 1.378 . S
C296 C291 1.350 . S
C297 H284 0.929 . S
C297 C289 1.433 . S
C297 N299 1.384 . S
N298 C294 1.427 . S
N298 C295 1.384 . S
N299 C291 1.427 . S
N299 C297 1.384 . S
H300 C306 0.930 . S
H301 C310 0.930 . S
H302 C315 0.929 . S
H303 C313 0.929 . S
H304 C308 0.929 . S
H305 C314 0.929 . S
C306 H300 0.930 . S
C306 C307 1.367 . S
C306 C314 1.378 . S
C307 C306 1.367 . S
C307 C315 1.433 1_455 S
C308 H304 0.929 . S
C308 C310 1.378 . S
C308 C312 1.350 1_655 S
C309 C312 1.463 . S
C309 C314 1.350 . S
C309 N317 1.427 1_455 S
C310 H301 0.930 . S
C310 C308 1.378 . S
C310 C311 1.367 1_655 S
C311 C310 1.367 1_455 S
C311 C313 1.433 . S
C312 C308 1.350 1_455 S
C312 C309 1.463 . S
C312 N316 1.427 . S
C313 H303 0.929 . S
C313 C311 1.433 . S
C313 N316 1.384 . S
C314 H305 0.929 . S
C314 C306 1.378 . S
C314 C309 1.350 . S
C315 H302 0.929 . S
C315 C307 1.433 1_655 S
C315 N317 1.384 . S
N316 C312 1.427 . S
N316 C313 1.384 . S
N317 C309 1.427 1_655 S
N317 C315 1.384 . S
H318 C324 0.930 . S
H319 C328 0.930 . S
H320 C333 0.929 1_565 S
H321 C331 0.929 . S
H322 C326 0.929 . S
H323 C332 0.929 . S
C324 H318 0.930 . S
C324 C325 1.367 . S
C324 C332 1.378 . S
C325 C324 1.367 . S
C325 C333 1.433 . S
C326 H322 0.929 . S
C326 C328 1.378 . S
C326 C330 1.350 . S
C327 C330 1.463 . S
C327 C332 1.350 . S
C327 N335 1.427 . S
C328 H319 0.930 . S
C328 C326 1.378 . S
C328 C329 1.367 . S
C329 C328 1.367 . S
C329 C331 1.433 . S
C330 C326 1.350 . S
C330 C327 1.463 . S
C330 N334 1.427 . S
C331 H321 0.929 . S
C331 C329 1.433 . S
C331 N334 1.384 . S
C332 H323 0.929 . S
C332 C324 1.378 . S
C332 C327 1.350 . S
C333 H320 0.929 1_545 S
C333 C325 1.433 . S
C333 N335 1.384 . S
N334 C330 1.427 . S
N334 C331 1.384 . S
N335 C327 1.427 . S
N335 C333 1.384 . S
H336 C342 0.930 . S
H337 C346 0.930 . S
H338 C351 0.929 . S
H339 C349 0.929 . S
H340 C344 0.929 . S
H341 C350 0.929 . S
C342 H336 0.930 . S
C342 C343 1.367 . S
C342 C350 1.378 . S
C343 C342 1.367 . S
C343 C351 1.433 . S
C344 H340 0.929 . S
C344 C346 1.378 . S
C344 C348 1.350 . S
C345 C348 1.463 . S
C345 C350 1.350 . S
C345 N353 1.427 . S
C346 H337 0.930 . S
C346 C344 1.378 . S
C346 C347 1.367 . S
C347 C346 1.367 . S
C347 C349 1.433 . S
C348 C344 1.350 . S
C348 C345 1.463 . S
C348 N352 1.427 . S
C349 H339 0.929 . S
C349 C347 1.433 . S
C349 N352 1.384 . S
C350 H341 0.929 . S
C350 C342 1.378 . S
C350 C345 1.350 . S
C351 H338 0.929 . S
C351 C343 1.433 . S
C351 N353 1.384 . S
N352 C348 1.427 . S
N352 C349 1.384 . S
N353 C345 1.427 . S
N353 C351 1.384 . S
H354 C360 0.930 . S
H355 C364 0.930 . S
H356 C369 0.929 . S
H357 C367 0.929 . S
H358 C362 0.929 . S
H359 C368 0.929 . S
C360 H354 0.930 . S
C360 C361 1.367 . S
C360 C368 1.378 . S
C361 C360 1.367 . S
C361 C369 1.433 . S
C362 H358 0.929 . S
C362 C364 1.378 . S
C362 C366 1.350 . S
C363 C366 1.463 . S
C363 C368 1.350 . S
C363 N371 1.427 . S
C364 H355 0.930 . S
C364 C362 1.378 . S
C364 C365 1.367 . S
C365 C364 1.367 . S
C365 C367 1.433 . S
C366 C362 1.350 . S
C366 C363 1.463 . S
C366 N370 1.427 . S
C367 H357 0.929 . S
C367 C365 1.433 . S
C367 N370 1.384 . S
C368 H359 0.929 . S
C368 C360 1.378 . S
C368 C363 1.350 . S
C369 H356 0.929 . S
C369 C361 1.433 . S
C369 N371 1.384 . S
N370 C366 1.427 . S
N370 C367 1.384 . S
N371 C363 1.427 . S
N371 C369 1.384 . S
H372 C378 0.930 . S
H373 C382 0.930 . S
H374 C387 0.929 1_545 S
H375 C385 0.929 . S
H376 C380 0.929 . S
H377 C386 0.929 . S
C378 H372 0.930 . S
C378 C379 1.367 . S
C378 C386 1.378 . S
C379 C378 1.367 . S
C379 C387 1.433 1_554 S
C380 H376 0.929 . S
C380 C382 1.378 . S
C380 C384 1.350 . S
C381 C384 1.463 . S
C381 C386 1.350 1_556 S
C381 N389 1.427 . S
C382 H373 0.930 . S
C382 C380 1.378 . S
C382 C383 1.367 . S
C383 C382 1.367 . S
C383 C385 1.433 . S
C384 C380 1.350 . S
C384 C381 1.463 . S
C384 N388 1.427 . S
C385 H375 0.929 . S
C385 C383 1.433 . S
C385 N388 1.384 . S
C386 H377 0.929 . S
C386 C378 1.378 . S
C386 C381 1.350 1_554 S
C387 H374 0.929 1_565 S
C387 C379 1.433 1_556 S
C387 N389 1.384 . S
N388 C384 1.427 . S
N388 C385 1.384 . S
N389 C381 1.427 . S
N389 C387 1.384 . S
H390 C396 0.930 . S
H391 C400 0.930 . S
H392 C405 0.929 . S
H393 C403 0.929 . S
H394 C398 0.929 . S
H395 C404 0.929 . S
C396 H390 0.930 . S
C396 C397 1.367 . S
C396 C404 1.378 . S
C397 C396 1.367 . S
C397 C405 1.433 1_455 S
C398 H394 0.929 . S
C398 C400 1.378 . S
C398 C402 1.350 1_655 S
C399 C402 1.463 . S
C399 C404 1.350 . S
C399 N407 1.427 1_455 S
C400 H391 0.930 . S
C400 C398 1.378 . S
C400 C401 1.367 1_655 S
C401 C400 1.367 1_455 S
C401 C403 1.433 . S
C402 C398 1.350 1_455 S
C402 C399 1.463 . S
C402 N406 1.427 . S
C403 H393 0.929 . S
C403 C401 1.433 . S
C403 N406 1.384 . S
C404 H395 0.929 . S
C404 C396 1.378 . S
C404 C399 1.350 . S
C405 H392 0.929 . S
C405 C397 1.433 1_655 S
C405 N407 1.384 . S
N406 C402 1.427 . S
N406 C403 1.384 . S
N407 C399 1.427 1_655 S
N407 C405 1.384 . S
H408 C414 0.930 . S
H409 C418 0.930 . S
H410 C423 0.929 1_565 S
H411 C421 0.929 . S
H412 C416 0.929 . S
H413 C422 0.929 . S
C414 H408 0.930 . S
C414 C415 1.367 . S
C414 C422 1.378 . S
C415 C414 1.367 . S
C415 C423 1.433 . S
C416 H412 0.929 . S
C416 C418 1.378 . S
C416 C420 1.350 . S
C417 C420 1.463 . S
C417 C422 1.350 . S
C417 N425 1.427 . S
C418 H409 0.930 . S
C418 C416 1.378 . S
C418 C419 1.367 . S
C419 C418 1.367 . S
C419 C421 1.433 . S
C420 C416 1.350 . S
C420 C417 1.463 . S
C420 N424 1.427 . S
C421 H411 0.929 . S
C421 C419 1.433 . S
C421 N424 1.384 . S
C422 H413 0.929 . S
C422 C414 1.378 . S
C422 C417 1.350 . S
C423 H410 0.929 1_545 S
C423 C415 1.433 . S
C423 N425 1.384 . S
N424 C420 1.427 . S
N424 C421 1.384 . S
N425 C417 1.427 . S
N425 C423 1.384 . S
H426 C432 0.930 . S
H427 C436 0.930 . S
H428 C441 0.929 . S
H429 C439 0.929 . S
H430 C434 0.929 . S
H431 C440 0.929 1_554 S
C432 H426 0.930 . S
C432 C433 1.367 . S
C432 C440 1.378 1_554 S
C433 C432 1.367 . S
C433 C441 1.433 1_554 S
C434 H430 0.929 . S
C434 C436 1.378 . S
C434 C438 1.350 . S
C435 C438 1.463 . S
C435 C440 1.350 . S
C435 N443 1.427 . S
C436 H427 0.930 . S
C436 C434 1.378 . S
C436 C437 1.367 . S
C437 C436 1.367 . S
C437 C439 1.433 . S
C438 C434 1.350 . S
C438 C435 1.463 . S
C438 N442 1.427 . S
C439 H429 0.929 . S
C439 C437 1.433 . S
C439 N442 1.384 . S
C440 H431 0.929 1_556 S
C440 C432 1.378 1_556 S
C440 C435 1.350 . S
C441 H428 0.929 . S
C441 C433 1.433 1_556 S
C441 N443 1.384 . S
N442 C438 1.427 . S
N442 C439 1.384 . S
N443 C435 1.427 . S
N443 C441 1.384 . S
H444 C450 0.930 . S
H445 C454 0.930 . S
H446 C459 0.929 . S
H447 C457 0.929 . S
H448 C452 0.929 . S
H449 C458 0.929 . S
C450 H444 0.930 . S
C450 C451 1.367 1_655 S
C450 C458 1.378 . S
C451 C450 1.367 1_455 S
C451 C459 1.433 . S
C452 H448 0.929 . S
C452 C454 1.378 . S
C452 C456 1.350 . S
C453 C456 1.463 . S
C453 C458 1.350 1_455 S
C453 N461 1.427 . S
C454 H445 0.930 . S
C454 C452 1.378 . S
C454 C455 1.367 . S
C455 C454 1.367 . S
C455 C457 1.433 1_455 S
C456 C452 1.350 . S
C456 C453 1.463 . S
C456 N460 1.427 1_455 S
C457 H447 0.929 . S
C457 C455 1.433 1_655 S
C457 N460 1.384 . S
C458 H449 0.929 . S
C458 C450 1.378 . S
C458 C453 1.350 1_655 S
C459 H446 0.929 . S
C459 C451 1.433 . S
C459 N461 1.384 . S
N460 C456 1.427 1_655 S
N460 C457 1.384 . S
N461 C453 1.427 . S
N461 C459 1.384 . S
C257 C116 1.479 . S
C253 C14 1.426 . S
C271 C40 1.488 . S
C275 C155 1.500 . S
C289 C76 1.466 . S
C293 C222 1.485 . S
C307 C3 1.465 . S
C311 C123 1.464 . S
C329 C176 1.498 . S
C325 C38 1.489 . S
C343 C74 1.465 . S
C347 C201 1.477 . S
C365 C162 1.456 . S
C361 C86 1.414 . S
C379 C2 1.463 1_565 S
C383 C215 1.478 . S
C401 C130 1.464 . S
C397 C39 1.465 . S
C419 C169 1.468 . S
C415 C75 1.468 . S
C437 C208 1.485 . S
C433 C4 1.474 . S
C451 C50 1.435 . S
C455 C109 1.479 . S
