# Generated by pormake.
# Topology cml, (3,6)-cn, num edge types: 1
# Building blocks:
#     Node 0, Type 0, BuildingBlock: MIDCAF_clean_linker_0, # of connection points: 3
#     Node 1, Type 0, BuildingBlock: MIDCAF_clean_linker_0, # of connection points: 3
#     Node 2, Type 0, BuildingBlock: MIDCAF_clean_linker_0, # of connection points: 3
#     Node 3, Type 0, BuildingBlock: MIDCAF_clean_linker_0, # of connection points: 3
#     Node 4, Type 0, BuildingBlock: MIDCAF_clean_linker_0, # of connection points: 3
#     Node 5, Type 0, BuildingBlock: MIDCAF_clean_linker_0, # of connection points: 3
#     Node 6, Type 0, BuildingBlock: MIDCAF_clean_linker_0, # of connection points: 3
#     Node 7, Type 0, BuildingBlock: MIDCAF_clean_linker_0, # of connection points: 3
#     Node 8, Type 1, BuildingBlock: OJICUG_clean_sbu_0, # of connection points: 6
#     Node 9, Type 1, BuildingBlock: OJICUG_clean_sbu_0, # of connection points: 6
#     Node 10, Type 1, BuildingBlock: OJICUG_clean_sbu_0, # of connection points: 6
#     Node 11, Type 1, BuildingBlock: OJICUG_clean_sbu_0, # of connection points: 6
#     Edge 12, Type (0, 1), BuildingBlock: XUDNAN_clean_linker_2, # of connection points: 2
#     Edge 13, Type (0, 1), BuildingBlock: XUDNAN_clean_linker_2, # of connection points: 2
#     Edge 14, Type (0, 1), BuildingBlock: XUDNAN_clean_linker_2, # of connection points: 2
#     Edge 15, Type (0, 1), BuildingBlock: XUDNAN_clean_linker_2, # of connection points: 2
#     Edge 16, Type (0, 1), BuildingBlock: XUDNAN_clean_linker_2, # of connection points: 2
#     Edge 17, Type (0, 1), BuildingBlock: XUDNAN_clean_linker_2, # of connection points: 2
#     Edge 18, Type (0, 1), BuildingBlock: XUDNAN_clean_linker_2, # of connection points: 2
#     Edge 19, Type (0, 1), BuildingBlock: XUDNAN_clean_linker_2, # of connection points: 2
#     Edge 20, Type (0, 1), BuildingBlock: XUDNAN_clean_linker_2, # of connection points: 2
#     Edge 21, Type (0, 1), BuildingBlock: XUDNAN_clean_linker_2, # of connection points: 2
#     Edge 22, Type (0, 1), BuildingBlock: XUDNAN_clean_linker_2, # of connection points: 2
#     Edge 23, Type (0, 1), BuildingBlock: XUDNAN_clean_linker_2, # of connection points: 2
#     Edge 24, Type (0, 1), BuildingBlock: XUDNAN_clean_linker_2, # of connection points: 2
#     Edge 25, Type (0, 1), BuildingBlock: XUDNAN_clean_linker_2, # of connection points: 2
#     Edge 26, Type (0, 1), BuildingBlock: XUDNAN_clean_linker_2, # of connection points: 2
#     Edge 27, Type (0, 1), BuildingBlock: XUDNAN_clean_linker_2, # of connection points: 2
#     Edge 28, Type (0, 1), BuildingBlock: XUDNAN_clean_linker_2, # of connection points: 2
#     Edge 29, Type (0, 1), BuildingBlock: XUDNAN_clean_linker_2, # of connection points: 2
#     Edge 30, Type (0, 1), BuildingBlock: XUDNAN_clean_linker_2, # of connection points: 2
#     Edge 31, Type (0, 1), BuildingBlock: XUDNAN_clean_linker_2, # of connection points: 2
#     Edge 32, Type (0, 1), BuildingBlock: XUDNAN_clean_linker_2, # of connection points: 2
#     Edge 33, Type (0, 1), BuildingBlock: XUDNAN_clean_linker_2, # of connection points: 2
#     Edge 34, Type (0, 1), BuildingBlock: XUDNAN_clean_linker_2, # of connection points: 2
#     Edge 35, Type (0, 1), BuildingBlock: XUDNAN_clean_linker_2, # of connection points: 2
# Relax obj value: 0.074
# Max RMSD: 0.086
# Mean RMSD: 0.082
data_MOF--net-cml--node1-OJICUG_clean_sbu_0--node2-MIDCAF_clean_linker_0--edge1-XUDNAN_clean_linker_2
_symmetry_space_group_name_H-M    P1
_symmetry_Int_Tables_number       1
_symmetry_cell_setting            triclinic
loop_
_symmetry_equiv_pos_as_xyz
'x, y, z'
_cell_length_a     47.10519
_cell_length_b     47.505394
_cell_length_c     45.053392
_cell_angle_alpha  89.97904
_cell_angle_beta   89.948487
_cell_angle_gamma 90.030424
loop_
_atom_site_label
_atom_site_type_symbol
_atom_site_fract_x
_atom_site_fract_y
_atom_site_fract_z
_atom_type_partial_charge
C0 C 0.33337 0.41654 0.10537 0.0
C1 C 0.33129 0.39003 0.11902 0.0
C2 C 0.31648 0.36841 0.10445 0.0
C3 C 0.30376 0.37333 0.07686 0.0
H4 H 0.23975 0.34439 0.02063 0.0
H5 H 0.20729 0.31048 0.99864 0.0
H6 H 0.20623 0.3587 0.91733 0.0
H7 H 0.23816 0.39304 0.93945 0.0
H8 H 0.26555 0.45458 0.93992 0.0
H9 H 0.28365 0.49224 0.90848 0.0
H10 H 0.35469 0.50329 0.96804 0.0
H11 H 0.3361 0.46646 -4e-05 0.0
H12 H 0.32312 0.44206 0.06786 0.0
H13 H 0.34495 0.43351 0.11593 0.0
H14 H 0.31447 0.34781 0.11456 0.0
H15 H 0.29245 0.35625 0.06619 0.0
N16 N 0.2738 0.38694 0.02202 0.0
N17 N 0.27032 0.41478 0.97918 0.0
N18 N 0.30098 0.4281 0.01759 0.0
C19 C 0.26223 0.39169 0.99482 0.0
C20 C 0.28967 0.43309 0.99038 0.0
C21 C 0.29312 0.40514 0.0336 0.0
C22 C 0.24174 0.37144 0.98183 0.0
C23 C 0.23256 0.34788 0.9981 0.0
C24 C 0.21406 0.32831 0.98542 0.0
C25 C 0.20435 0.33177 0.95613 0.0
C26 C 0.21312 0.35555 0.94002 0.0
C27 C 0.23158 0.37517 0.95271 0.0
C28 C 0.29946 0.45734 0.97239 0.0
C29 C 0.28489 0.46523 0.94647 0.0
C30 C 0.29534 0.48676 0.92834 0.0
C31 C 0.32073 0.50073 0.93557 0.0
C32 C 0.33484 0.49334 0.96196 0.0
C33 C 0.32426 0.47202 0.98022 0.0
C34 C 0.30597 0.39986 0.06312 0.0
C35 C 0.32098 0.42137 0.07771 0.0
C36 C 0.68536 0.59943 0.60668 0.0
C37 C 0.69484 0.62558 0.6174 0.0
C38 C 0.71942 0.63755 0.6049 0.0
C39 C 0.73364 0.62405 0.58161 0.0
H40 H 0.80612 0.62537 0.52061 0.0
H41 H 0.84013 0.65127 0.49036 0.0
H42 H 0.80572 0.61225 0.4114 0.0
H43 H 0.77305 0.58524 0.4419 0.0
H44 H 0.73792 0.52686 0.45197 0.0
H45 H 0.71285 0.48542 0.43334 0.0
H46 H 0.68071 0.46884 0.52143 0.0
H47 H 0.70574 0.50991 0.54012 0.0
H48 H 0.69115 0.56608 0.57574 0.0
H49 H 0.6662 0.58977 0.61523 0.0
H50 H 0.72751 0.6575 0.61287 0.0
H51 H 0.75215 0.6341 0.57203 0.0
N52 N 0.75661 0.59873 0.52775 0.0
N53 N 0.75581 0.56257 0.49217 0.0
N54 N 0.72663 0.55986 0.53412 0.0
C55 C 0.76633 0.58758 0.50187 0.0
C56 C 0.73616 0.54844 0.50842 0.0
C57 C 0.73659 0.58499 0.54395 0.0
C58 C 0.78705 0.60321 0.48362 0.0
C59 C 0.80599 0.6223 0.49679 0.0
C60 C 0.82534 0.6373 0.47937 0.0
C61 C 0.82576 0.63398 0.44831 0.0
C62 C 0.80656 0.61496 0.43524 0.0
C63 C 0.78766 0.59955 0.45272 0.0
C64 C 0.72363 0.52183 0.49749 0.0
C65 C 0.72586 0.51413 0.46744 0.0
C66 C 0.71142 0.49051 0.45673 0.0
C67 C 0.69479 0.47398 0.47593 0.0
C68 C 0.69359 0.481 0.50616 0.0
C69 C 0.70776 0.5047 0.51681 0.0
C70 C 0.72362 0.59823 0.57046 0.0
C71 C 0.69965 0.58587 0.58372 0.0
C72 C 0.66393 0.40074 0.10255 0.0
C73 C 0.66806 0.37493 0.11705 0.0
C74 C 0.68326 0.3535 0.10261 0.0
C75 C 0.69446 0.35802 0.07418 0.0
H76 H 0.76741 0.34136 0.02064 0.0
H77 H 0.81098 0.31928 0.00324 0.0
H78 H 0.80304 0.36257 0.91935 0.0
H79 H 0.75924 0.38438 0.93641 0.0
H80 H 0.71608 0.43386 0.92996 0.0
H81 H 0.69279 0.46886 0.89892 0.0
H82 H 0.62619 0.47743 0.96432 0.0
H83 H 0.64973 0.44308 0.99571 0.0
H84 H 0.67092 0.42523 0.06349 0.0
H85 H 0.65205 0.41749 0.11314 0.0
H86 H 0.6867 0.33342 0.11343 0.0
H87 H 0.70617 0.34122 0.0635 0.0
N88 N 0.72382 0.37429 0.01878 0.0
N89 N 0.72147 0.39949 0.97402 0.0
N90 N 0.68867 0.40861 0.01183 0.0
C91 C 0.73421 0.37962 0.99112 0.0
C92 C 0.69865 0.41401 0.98416 0.0
C93 C 0.70105 0.3888 0.02925 0.0
C94 C 0.75983 0.36484 0.98005 0.0
C95 C 0.77478 0.34608 0.99841 0.0
C96 C 0.79988 0.33353 0.98851 0.0
C97 C 0.81057 0.3394 0.96002 0.0
C98 C 0.79525 0.3575 0.94134 0.0
C99 C 0.77019 0.37012 0.95125 0.0
C100 C 0.68478 0.43556 0.96535 0.0
C101 C 0.69651 0.44325 0.9378 0.0
C102 C 0.68311 0.46324 0.91991 0.0
C103 C 0.65763 0.47593 0.92912 0.0
C104 C 0.64603 0.4684 0.95676 0.0
C105 C 0.65947 0.44851 0.97469 0.0
C106 C 0.69004 0.38382 0.05955 0.0
C107 C 0.6746 0.40507 0.07405 0.0
C108 C 0.33307 0.63227 0.58955 0.0
C109 C 0.32746 0.66079 0.59535 0.0
C110 C 0.30872 0.67542 0.57664 0.0
C111 C 0.29594 0.66176 0.55257 0.0
H112 H 0.24805 0.67553 0.4775 0.0
H113 H 0.21513 0.7002 0.44518 0.0
H114 H 0.19691 0.62249 0.39917 0.0
H115 H 0.23042 0.5978 0.43101 0.0
H116 H 0.27763 0.54849 0.43918 0.0
H117 H 0.29764 0.50278 0.42617 0.0
H118 H 0.33489 0.49638 0.51345 0.0
H119 H 0.31479 0.54182 0.52668 0.0
H120 H 0.3255 0.59673 0.56185 0.0
H121 H 0.34787 0.6205 0.60313 0.0
H122 H 0.30388 0.69738 0.58064 0.0
H123 H 0.28171 0.67364 0.53847 0.0
N124 N 0.27171 0.63256 0.50182 0.0
N125 N 0.26815 0.5922 0.47203 0.0
N126 N 0.29619 0.59152 0.5149 0.0
C127 C 0.26097 0.61941 0.47748 0.0
C128 C 0.28573 0.5781 0.49069 0.0
C129 C 0.28931 0.61872 0.52067 0.0
C130 C 0.24173 0.6346 0.45707 0.0
C131 C 0.23716 0.66365 0.46044 0.0
C132 C 0.21821 0.67781 0.44195 0.0
C133 C 0.20324 0.66325 0.41977 0.0
C134 C 0.20833 0.63436 0.41585 0.0
C135 C 0.22741 0.62018 0.43428 0.0
C136 C 0.29491 0.54902 0.48385 0.0
C137 C 0.28971 0.53717 0.45578 0.0
C138 C 0.30123 0.51104 0.44826 0.0
C139 C 0.31795 0.49614 0.46874 0.0
C140 C 0.32189 0.50727 0.4973 0.0
C141 C 0.31056 0.53346 0.50476 0.0
C142 C 0.30177 0.63322 0.54671 0.0
C143 C 0.32036 0.61866 0.56564 0.0
C144 C 0.81447 0.90272 0.10808 0.0
C145 C 0.81453 0.87488 0.11859 0.0
C146 C 0.80418 0.85332 0.10025 0.0
C147 C 0.794 0.8595 0.07185 0.0
H148 H 0.73713 0.8325 0.0092 0.0
H149 H 0.707 0.79891 0.98411 0.0
H150 H 0.71352 0.84716 0.90306 0.0
H151 H 0.74335 0.88161 0.92857 0.0
H152 H 0.78307 0.93931 0.93037 0.0
H153 H 0.801 0.9829 0.90815 0.0
H154 H 0.82292 0.01381 0.99532 0.0
H155 H 0.80493 0.97085 0.01745 0.0
H156 H 0.80518 0.93052 0.0721 0.0
H157 H 0.82266 0.9197 0.12164 0.0
H158 H 0.80394 0.8317 0.10789 0.0
H159 H 0.78632 0.8424 0.05814 0.0
N160 N 0.76911 0.87497 0.01514 0.0
N161 N 0.76815 0.90541 0.97409 0.0
N162 N 0.79197 0.91858 0.01765 0.0
C163 C 0.76056 0.88058 0.98696 0.0
C164 C 0.78384 0.92455 0.98943 0.0
C165 C 0.7848 0.89382 0.03062 0.0
C166 C 0.74276 0.85983 0.97094 0.0
C167 C 0.73236 0.83604 0.98599 0.0
C168 C 0.71517 0.81656 0.9715 0.0
C169 C 0.70805 0.82016 0.94147 0.0
C170 C 0.71847 0.84389 0.92627 0.0
C171 C 0.73565 0.86356 0.94087 0.0
C172 C 0.7927 0.95149 0.97568 0.0
C173 C 0.79141 0.95557 0.94479 0.0
C174 C 0.80178 0.98044 0.93204 0.0
C175 C 0.81328 0.00179 0.95 0.0
C176 C 0.81381 0.99797 0.98089 0.0
C177 C 0.80371 0.97315 0.99356 0.0
C178 C 0.79441 0.88732 0.06111 0.0
C179 C 0.80465 0.90886 0.0796 0.0
C180 C 0.18081 0.10217 0.61667 0.0
C181 C 0.17944 0.13087 0.62394 0.0
C182 C 0.18988 0.15081 0.60362 0.0
C183 C 0.20153 0.14208 0.57649 0.0
H184 H 0.28079 0.1475 0.51481 0.0
H185 H 0.3157 0.1719 0.4841 0.0
H186 H 0.27657 0.13731 0.40529 0.0
H187 H 0.24293 0.11186 0.43609 0.0
H188 H 0.23676 0.03673 0.4592 0.0
H189 H 0.21663 0.99556 0.43498 0.0
H190 H 0.14253 0.00137 0.49136 0.0
H191 H 0.16332 0.0418 0.51647 0.0
H192 H 0.19235 0.07121 0.58457 0.0
H193 H 0.1726 0.08635 0.63175 0.0
H194 H 0.18909 0.17306 0.60876 0.0
H195 H 0.20923 0.15785 0.56108 0.0
N196 N 0.23091 0.11972 0.52336 0.0
N197 N 0.23038 0.08554 0.48573 0.0
N198 N 0.20349 0.07867 0.52878 0.0
C199 C 0.23976 0.11063 0.49624 0.0
C200 C 0.21234 0.06941 0.50187 0.0
C201 C 0.2127 0.10372 0.53974 0.0
C202 C 0.25934 0.1276 0.47787 0.0
C203 C 0.27964 0.14532 0.49091 0.0
C204 C 0.29956 0.15939 0.47322 0.0
C205 C 0.29923 0.15645 0.44208 0.0
C206 C 0.2781 0.13952 0.42915 0.0
C207 C 0.25862 0.12507 0.44682 0.0
C208 C 0.20144 0.04274 0.48945 0.0
C209 C 0.21633 0.02899 0.46666 0.0
C210 C 0.20473 0.00544 0.45272 0.0
C211 C 0.17773 0.99538 0.46085 0.0
C212 C 0.16348 0.00832 0.48467 0.0
C213 C 0.17531 0.03165 0.49896 0.0
C214 C 0.20234 0.11333 0.56905 0.0
C215 C 0.19196 0.09352 0.58952 0.0
C216 C 0.17388 0.88937 0.10064 0.0
C217 C 0.17226 0.86275 0.11404 0.0
C218 C 0.182 0.83907 0.09823 0.0
C219 C 0.19238 0.84201 0.06919 0.0
H220 H 0.26566 0.82569 0.00598 0.0
H221 H 0.30736 0.8056 0.98159 0.0
H222 H 0.27706 0.8361 0.89705 0.0
H223 H 0.2358 0.85643 0.92122 0.0
H224 H 0.19107 0.90925 0.91972 0.0
H225 H 0.1719 0.9517 0.89581 0.0
H226 H 0.14985 0.98526 0.98178 0.0
H227 H 0.16843 0.94339 0.00557 0.0
H228 H 0.18406 0.91305 0.06193 0.0
H229 H 0.16619 0.90798 0.11196 0.0
H230 H 0.18107 0.8183 0.1081 0.0
H231 H 0.19899 0.82343 0.05709 0.0
N232 N 0.21859 0.85498 0.00972 0.0
N233 N 0.21238 0.88107 0.96575 0.0
N234 N 0.18758 0.89354 0.00863 0.0
C235 C 0.225 0.85946 0.98057 0.0
C236 C 0.19361 0.89817 0.97969 0.0
C237 C 0.19971 0.87207 0.02377 0.0
C238 C 0.24764 0.84311 0.96564 0.0
C239 C 0.26765 0.82767 0.98212 0.0
C240 C 0.29152 0.81612 0.96817 0.0
C241 C 0.29572 0.81979 0.93752 0.0
C242 C 0.27475 0.83356 0.92083 0.0
C243 C 0.25102 0.84512 0.93471 0.0
C244 C 0.18134 0.92295 0.96455 0.0
C245 C 0.18204 0.92569 0.93344 0.0
C246 C 0.17105 0.94984 0.91976 0.0
C247 C 0.15977 0.97171 0.93707 0.0
C248 C 0.1588 0.96879 0.96801 0.0
C249 C 0.16931 0.94467 0.98158 0.0
C250 C 0.19264 0.86857 0.05548 0.0
C251 C 0.18387 0.89223 0.07177 0.0
C252 C 0.82698 0.12217 0.61207 0.0
C253 C 0.82019 0.14977 0.62076 0.0
C254 C 0.80004 0.16484 0.60405 0.0
C255 C 0.78765 0.15282 0.57876 0.0
H256 H 0.71737 0.15443 0.51362 0.0
H257 H 0.68144 0.17633 0.48247 0.0
H258 H 0.71927 0.13793 0.40489 0.0
H259 H 0.75417 0.1149 0.43634 0.0
H260 H 0.80967 0.06627 0.45067 0.0
H261 H 0.83467 0.0239 0.43551 0.0
H262 H 0.81572 0.98595 0.52074 0.0
H263 H 0.7931 0.02952 0.53646 0.0
H264 H 0.82098 0.08908 0.58085 0.0
H265 H 0.84276 0.11004 0.62397 0.0
H266 H 0.79408 0.18604 0.61031 0.0
H267 H 0.77271 0.16522 0.56602 0.0
N268 N 0.76637 0.12797 0.52363 0.0
N269 N 0.76983 0.0927 0.48721 0.0
N270 N 0.79483 0.08824 0.53186 0.0
C271 C 0.75882 0.1176 0.49657 0.0
C272 C 0.78754 0.07783 0.50494 0.0
C273 C 0.78464 0.11343 0.54132 0.0
C274 C 0.73848 0.13284 0.47746 0.0
C275 C 0.71808 0.15085 0.48988 0.0
C276 C 0.69755 0.16352 0.47192 0.0
C277 C 0.69728 0.15889 0.44103 0.0
C278 C 0.71832 0.14151 0.4286 0.0
C279 C 0.7385 0.12845 0.44662 0.0
C280 C 0.79978 0.05108 0.49475 0.0
C281 C 0.81082 0.04871 0.46598 0.0
C282 C 0.82496 0.02422 0.45727 0.0
C283 C 0.82756 0.00122 0.47688 0.0
C284 C 0.81507 0.00334 0.50523 0.0
C285 C 0.80181 0.02819 0.51424 0.0
C286 C 0.79518 0.12549 0.56966 0.0
C287 C 0.81458 0.11018 0.58702 0.0
Sc288 Sc 0.99361 0.7952 0.30194 0.0
Sc289 Sc 0.99001 0.86678 0.32205 0.0
Sc290 Sc -0.00017 0.81568 0.37734 0.0
O291 O 0.99435 0.8258 0.3338 0.0
C292 C 0.95795 0.76739 0.35479 0.0
C293 C 0.94473 0.83698 0.2801 0.0
C294 C 0.95482 0.86555 0.38245 0.0
C295 C 0.03022 0.84303 0.27065 0.0
C296 C 0.0419 0.77253 0.34517 0.0
C297 C 0.03936 0.86963 0.37036 0.0
O298 O 0.96558 0.7691 0.32775 0.0
O299 O 0.95439 0.85806 0.29413 0.0
O300 O 0.96776 0.84428 0.39279 0.0
O301 O 0.02229 0.81759 0.27318 0.0
O302 O 0.03268 0.78601 0.3675 0.0
O303 O 0.02541 0.87935 0.34857 0.0
O304 O 0.03035 0.77393 0.31973 0.0
O305 O 0.02002 0.86283 0.28631 0.0
O306 O 0.03283 0.8469 0.38367 0.0
O307 O 0.95671 0.81296 0.28017 0.0
O308 O 0.96774 0.78329 0.37511 0.0
O309 O 0.96007 0.87575 0.35695 0.0
Sc310 Sc 0.00478 0.21531 0.81713 0.0
Sc311 Sc 0.99436 0.14124 0.81656 0.0
Sc312 Sc 0.00163 0.17696 0.88404 0.0
O313 O 9e-05 0.17792 0.83915 0.0
C314 C 0.05114 0.21979 0.86897 0.0
C315 C 0.04191 0.17287 0.77832 0.0
C316 C 0.03563 0.12101 0.86778 0.0
C317 C 0.95684 0.18437 0.77876 0.0
C318 C 0.96776 0.23419 0.87252 0.0
C319 C 0.95082 0.13468 0.87052 0.0
O320 O 0.04005 0.22872 0.84496 0.0
O321 O 0.02841 0.15109 0.78664 0.0
O322 O 0.02796 0.14034 0.8854 0.0
O323 O 0.97038 0.2063 0.78673 0.0
O324 O 0.97682 0.21433 0.88876 0.0
O325 O 0.96015 0.12756 0.84509 0.0
O326 O 0.97431 0.23686 0.84525 0.0
O327 O 0.96296 0.15986 0.78809 0.0
O328 O 0.96304 0.15283 0.88689 0.0
O329 O 0.03594 0.19767 0.78699 0.0
O330 O 0.04015 0.20056 0.88477 0.0
O331 O 0.02546 0.11826 0.8419 0.0
Sc332 Sc 0.49745 0.29489 0.30913 0.0
Sc333 Sc 0.50054 0.36537 0.33438 0.0
Sc334 Sc 0.49765 0.31045 0.38603 0.0
O335 O 0.4985 0.32351 0.34309 0.0
C336 C 0.45357 0.26843 0.35563 0.0
C337 C 0.45674 0.3437 0.28519 0.0
C338 C 0.45715 0.36394 0.38882 0.0
C339 C 0.54219 0.3402 0.28514 0.0
C340 C 0.53921 0.26581 0.35574 0.0
C341 C 0.54295 0.36016 0.3892 0.0
O342 O 0.46367 0.27059 0.32951 0.0
O343 O 0.46767 0.36255 0.30161 0.0
O344 O 0.46584 0.34052 0.39889 0.0
O345 O 0.53116 0.31573 0.28479 0.0
O346 O 0.52936 0.27922 0.37782 0.0
O347 O 0.53383 0.37269 0.36619 0.0
O348 O 0.52972 0.26866 0.32945 0.0
O349 O 0.53328 0.35982 0.30186 0.0
O350 O 0.53175 0.33776 0.39916 0.0
O351 O 0.4652 0.31823 0.28509 0.0
O352 O 0.4637 0.2816 0.37773 0.0
O353 O 0.46786 0.37552 0.36598 0.0
Sc354 Sc 0.50696 0.71792 0.79837 0.0
Sc355 Sc 0.49637 0.64514 0.78744 0.0
Sc356 Sc 0.49903 0.67203 0.85986 0.0
O357 O 0.50074 0.67842 0.81524 0.0
C358 C 0.54928 0.71675 0.8536 0.0
C359 C 0.54539 0.68068 0.7556 0.0
C360 C 0.53493 0.61875 0.83825 0.0
C361 C 0.46048 0.69263 0.75435 0.0
C362 C 0.46457 0.72953 0.8523 0.0
C363 C 0.45056 0.63035 0.83739 0.0
O364 O 0.54105 0.7269 0.82895 0.0
O365 O 0.53182 0.65806 0.76066 0.0
O366 O 0.52703 0.63604 0.85816 0.0
O367 O 0.47353 0.71346 0.7657 0.0
O368 O 0.47075 0.70723 0.86654 0.0
O369 O 0.46065 0.62812 0.81132 0.0
O370 O 0.47603 0.73603 0.82769 0.0
O371 O 0.46658 0.66721 0.76028 0.0
O372 O 0.46198 0.64558 0.85726 0.0
O373 O 0.53878 0.70413 0.76724 0.0
O374 O 0.53619 0.69721 0.86716 0.0
O375 O 0.52565 0.61956 0.81183 0.0
H376 H 0.15789 0.34053 0.92017 0.0
H377 H 0.20832 0.27451 0.96091 0.0
H378 H 0.1763 0.23875 0.93975 0.0
H379 H 0.09102 0.30946 0.93209 0.0
H380 H 0.076 0.32036 0.89715 0.0
H381 H 0.10382 0.34085 0.91396 0.0
H382 H 0.13395 0.33629 0.86606 0.0
H383 H 0.10619 0.31574 0.84908 0.0
H384 H 0.14172 0.30183 0.8514 0.0
H385 H 0.13743 0.21056 0.91773 0.0
H386 H 0.09377 0.19122 0.89555 0.0
H387 H 0.06921 0.27488 0.8667 0.0
C388 C 0.16249 0.31854 0.92421 0.0
C389 C 0.18556 0.31034 0.94235 0.0
C390 C 0.19053 0.28133 0.94751 0.0
C391 C 0.17263 0.26085 0.93535 0.0
C392 C 0.14998 0.26966 0.91783 0.0
C393 C 0.14488 0.29776 0.9121 0.0
C394 C 0.11832 0.30151 0.89351 0.0
C395 C 0.09597 0.31908 0.91018 0.0
C396 C 0.12548 0.31462 0.86321 0.0
C397 C 0.10898 0.27114 0.89025 0.0
C398 C 0.12769 0.25316 0.90439 0.0
C399 C 0.12282 0.22434 0.90623 0.0
C400 C 0.09795 0.21359 0.89367 0.0
C401 C 0.07834 0.23158 0.87928 0.0
C402 C 0.08418 0.26065 0.87707 0.0
H403 H 0.84511 0.68821 0.45706 0.0
H404 H 0.85273 0.61682 0.39721 0.0
H405 H 0.88513 0.64427 0.36557 0.0
H406 H 0.84871 0.74311 0.40264 0.0
H407 H 0.87023 0.76596 0.4253 0.0
H408 H 0.84619 0.74138 0.44253 0.0
H409 H 0.88777 0.72005 0.47272 0.0
H410 H 0.91189 0.74468 0.45573 0.0
H411 H 0.91883 0.70743 0.45347 0.0
H412 H 0.91638 0.67938 0.34018 0.0
H413 H 0.94774 0.71841 0.32501 0.0
H414 H 0.9229 0.76541 0.4035 0.0
C415 C 0.85373 0.67811 0.4375 0.0
C416 C 0.84596 0.65033 0.42958 0.0
C417 C 0.85765 0.63826 0.40349 0.0
C418 C 0.87626 0.65362 0.38541 0.0
C419 C 0.88332 0.68091 0.39388 0.0
C420 C 0.87271 0.69294 0.41947 0.0
C421 C 0.8847 0.72218 0.42423 0.0
C422 C 0.86104 0.74447 0.42363 0.0
C423 C 0.90182 0.72366 0.45326 0.0
C424 C 0.9038 0.72463 0.39733 0.0
C425 C 0.90237 0.70074 0.37991 0.0
C426 C 0.91778 0.69817 0.35368 0.0
C427 C 0.93543 0.7205 0.3452 0.0
C428 C 0.93782 0.74489 0.36313 0.0
C429 C 0.92165 0.74695 0.38945 0.0
H430 H 0.82399 0.31644 0.90565 0.0
H431 H 0.85932 0.33523 0.9924 0.0
H432 H 0.90485 0.31419 0.97715 0.0
H433 H 0.85649 0.25029 0.89692 0.0
H434 H 0.86318 0.25394 0.8577 0.0
H435 H 0.83395 0.27239 0.87452 0.0
H436 H 0.85361 0.31963 0.85433 0.0
H437 H 0.883 0.30128 0.83751 0.0
H438 H 0.88954 0.32984 0.86294 0.0
H439 H 0.94472 0.28824 0.95459 0.0
H440 H 0.97706 0.25781 0.92595 0.0
H441 H 0.91742 0.25684 0.85269 0.0
C442 C 0.84148 0.31654 0.92123 0.0
C443 C 0.8381 0.32739 0.95027 0.0
C444 C 0.86131 0.32669 0.97021 0.0
C445 C 0.88733 0.31505 0.96166 0.0
C446 C 0.88989 0.30436 0.93301 0.0
C447 C 0.86768 0.30499 0.91303 0.0
C448 C 0.87572 0.2906 0.88416 0.0
C449 C 0.85618 0.2653 0.87798 0.0
C450 C 0.87545 0.3116 0.8582 0.0
C451 C 0.90569 0.2812 0.89135 0.0
C452 C 0.91341 0.28963 0.91961 0.0
C453 C 0.93916 0.28188 0.93228 0.0
C454 C 0.95732 0.26459 0.91589 0.0
C455 C 0.94976 0.25537 0.8871 0.0
C456 C 0.9239 0.26424 0.87439 0.0
H457 H 0.16429 0.70124 0.43966 0.0
H458 H 0.19211 0.65792 0.36 0.0
H459 H 0.15404 0.6815 0.33141 0.0
H460 H 0.09064 0.69749 0.42576 0.0
H461 H 0.0832 0.7319 0.44071 0.0
H462 H 0.11299 0.71207 0.45436 0.0
H463 H 0.1467 0.75355 0.4416 0.0
H464 H 0.11697 0.77357 0.42803 0.0
H465 H 0.14721 0.76745 0.40436 0.0
H466 H 0.11189 0.70973 0.312 0.0
H467 H 0.06978 0.73987 0.30366 0.0
H468 H 0.0714 0.76438 0.39655 0.0
C469 C 0.16276 0.69702 0.4161 0.0
C470 C 0.18126 0.67788 0.40202 0.0
C471 C 0.17801 0.67241 0.37127 0.0
C472 C 0.15658 0.68579 0.35485 0.0
C473 C 0.13867 0.70454 0.36954 0.0
C474 C 0.14165 0.71015 0.39948 0.0
C475 C 0.11954 0.73069 0.41033 0.0
C476 C 0.10047 0.71722 0.43419 0.0
C477 C 0.13344 0.75793 0.42174 0.0
C478 C 0.10346 0.73571 0.38187 0.0
C479 C 0.11472 0.72056 0.35851 0.0
C480 C 0.10295 0.72175 0.33014 0.0
C481 C 0.07903 0.7389 0.32563 0.0
C482 C 0.06721 0.75453 0.34942 0.0
C483 C 0.0798 0.7528 0.3778 0.0
H484 H 0.66458 0.83062 0.90217 0.0
H485 H 0.7086 0.76282 0.94756 0.0
H486 H 0.67379 0.72885 0.92805 0.0
H487 H 0.5957 0.80702 0.9145 0.0
H488 H 0.58193 0.81667 0.8786 0.0
H489 H 0.61151 0.83564 0.89403 0.0
H490 H 0.64154 0.82475 0.84721 0.0
H491 H 0.61191 0.80599 0.83144 0.0
H492 H 0.64579 0.78877 0.83531 0.0
H493 H 0.63172 0.70329 0.90867 0.0
H494 H 0.58696 0.68663 0.88635 0.0
H495 H 0.57166 0.77008 0.85051 0.0
C496 C 0.66735 0.80854 0.90738 0.0
C497 C 0.68918 0.79944 0.92665 0.0
C498 C 0.69174 0.77038 0.93331 0.0
C499 C 0.67221 0.75088 0.92218 0.0
C500 C 0.65049 0.76067 0.904 0.0
C501 C 0.64818 0.7887 0.89618 0.0
C502 C 0.62225 0.79373 0.877 0.0
C503 C 0.60164 0.81449 0.89194 0.0
C504 C 0.6309 0.80391 0.84589 0.0
C505 C 0.60997 0.76427 0.87598 0.0
C506 C 0.62661 0.74557 0.89176 0.0
C507 C 0.61874 0.71759 0.89581 0.0
C508 C 0.59321 0.70839 0.88326 0.0
C509 C 0.57602 0.72706 0.86663 0.0
C510 C 0.58465 0.7553 0.86276 0.0
H511 H 0.32495 0.20804 0.45047 0.0
H512 H 0.32394 0.13602 0.39103 0.0
H513 H 0.36043 0.15865 0.35999 0.0
H514 H 0.33813 0.26201 0.39534 0.0
H515 H 0.36189 0.2815 0.41901 0.0
H516 H 0.33368 0.26088 0.43507 0.0
H517 H 0.37026 0.2338 0.4672 0.0
H518 H 0.39851 0.25443 0.45135 0.0
H519 H 0.3998 0.21655 0.44939 0.0
H520 H 0.39837 0.18868 0.33599 0.0
H521 H 0.43702 0.22206 0.3235 0.0
H522 H 0.41507 0.27232 0.40061 0.0
C523 C 0.33236 0.19688 0.43101 0.0
C524 C 0.32114 0.1703 0.42316 0.0
C525 C 0.3315 0.1567 0.39725 0.0
C526 C 0.35241 0.16931 0.37949 0.0
C527 C 0.363 0.19544 0.38799 0.0
C528 C 0.35348 0.20895 0.41327 0.0
C529 C 0.36956 0.23605 0.41859 0.0
C530 C 0.34962 0.26162 0.41689 0.0
C531 C 0.38548 0.23513 0.44839 0.0
C532 C 0.38988 0.23544 0.39259 0.0
C533 C 0.38552 0.21212 0.37489 0.0
C534 C 0.40198 0.20704 0.34968 0.0
C535 C 0.42379 0.22612 0.34271 0.0
C536 C 0.42914 0.24963 0.36118 0.0
C537 C 0.41165 0.2544 0.38618 0.0
H538 H 0.32548 0.77022 0.94463 0.0
H539 H 0.32707 0.85033 0.89821 0.0
H540 H 0.37151 0.83662 0.87331 0.0
H541 H 0.40211 0.76493 0.95584 0.0
H542 H 0.4029 0.72743 0.94986 0.0
H543 H 0.37155 0.74376 0.96499 0.0
H544 H 0.3413 0.72217 0.9227 0.0
H545 H 0.37253 0.70575 0.90752 0.0
H546 H 0.35121 0.72858 0.88463 0.0
H547 H 0.41435 0.81409 0.85211 0.0
H548 H 0.45333 0.78356 0.83519 0.0
H549 H 0.425 0.71803 0.89571 0.0
C550 C 0.33536 0.78494 0.92944 0.0
C551 C 0.3227 0.81124 0.92315 0.0
C552 C 0.33612 0.82986 0.90295 0.0
C553 C 0.36149 0.82238 0.88888 0.0
C554 C 0.37328 0.79626 0.89535 0.0
C555 C 0.36076 0.77779 0.91512 0.0
C556 C 0.37757 0.75066 0.91732 0.0
C557 C 0.38923 0.74646 0.94888 0.0
C558 C 0.35958 0.7253 0.90745 0.0
C559 C 0.40125 0.75674 0.89543 0.0
C560 C 0.39837 0.78323 0.88316 0.0
C561 C 0.41699 0.79335 0.86166 0.0
C562 C 0.43903 0.7758 0.85216 0.0
C563 C 0.44231 0.74841 0.86415 0.0
C564 C 0.42328 0.73896 0.88634 0.0
H565 H 0.67169 0.21066 0.44732 0.0
H566 H 0.67134 0.13587 0.39184 0.0
H567 H 0.63327 0.15655 0.36134 0.0
H568 H 0.59701 0.21803 0.44966 0.0
H569 H 0.59778 0.25597 0.44958 0.0
H570 H 0.62704 0.23653 0.46498 0.0
H571 H 0.66172 0.26254 0.42959 0.0
H572 H 0.63248 0.28202 0.41405 0.0
H573 H 0.65539 0.26179 0.39013 0.0
H574 H 0.59368 0.18513 0.33766 0.0
H575 H 0.55428 0.21778 0.32534 0.0
H576 H 0.57897 0.27139 0.39888 0.0
C577 C 0.66367 0.19848 0.42885 0.0
C578 C 0.67483 0.17165 0.42199 0.0
C579 C 0.66373 0.15673 0.39728 0.0
C580 C 0.64193 0.16823 0.37986 0.0
C581 C 0.63128 0.19458 0.3875 0.0
C582 C 0.6417 0.20941 0.41154 0.0
C583 C 0.62549 0.23648 0.41632 0.0
C584 C 0.61097 0.23675 0.44694 0.0
C585 C 0.64493 0.26222 0.41227 0.0
C586 C 0.60404 0.23436 0.39151 0.0
C587 C 0.60792 0.21033 0.37476 0.0
C588 C 0.59044 0.20402 0.35064 0.0
C589 C 0.5682 0.22265 0.34376 0.0
C590 C 0.56346 0.24689 0.36133 0.0
C591 C 0.58186 0.25282 0.38526 0.0
H592 H 0.34934 0.54952 0.94955 0.0
H593 H 0.32202 0.4987 0.87472 0.0
H594 H 0.34738 0.53053 0.84066 0.0
H595 H 0.34903 0.61874 0.91098 0.0
H596 H 0.38069 0.63021 0.92987 0.0
H597 H 0.35649 0.60631 0.94797 0.0
H598 H 0.39764 0.57097 0.95634 0.0
H599 H 0.42189 0.59468 0.93829 0.0
H600 H 0.41818 0.5591 0.92496 0.0
H601 H 0.38031 0.56411 0.81535 0.0
H602 H 0.41873 0.59658 0.80083 0.0
H603 H 0.42586 0.62462 0.89231 0.0
C604 C 0.34835 0.54525 0.92598 0.0
C605 C 0.33347 0.52164 0.91488 0.0
C606 C 0.33271 0.51693 0.88381 0.0
C607 C 0.34717 0.53486 0.86424 0.0
C608 C 0.36222 0.55748 0.87602 0.0
C609 C 0.3628 0.56282 0.90616 0.0
C610 C 0.38268 0.58691 0.91339 0.0
C611 C 0.36623 0.61203 0.92631 0.0
C612 C 0.4065 0.57733 0.93448 0.0
C613 C 0.39402 0.59354 0.88274 0.0
C614 C 0.3816 0.57667 0.86142 0.0
C615 C 0.38992 0.57772 0.83177 0.0
C616 C 0.41186 0.59619 0.82377 0.0
C617 C 0.4254 0.6132 0.8454 0.0
C618 C 0.41585 0.61214 0.87515 0.0
H619 H 0.66076 0.47501 0.42691 0.0
H620 H 0.68766 0.42126 0.49948 0.0
H621 H 0.65333 0.38493 0.48345 0.0
H622 H 0.58871 0.46035 0.43216 0.0
H623 H 0.58187 0.46074 0.3928 0.0
H624 H 0.61069 0.48113 0.40777 0.0
H625 H 0.64607 0.45606 0.3725 0.0
H626 H 0.61727 0.43578 0.35714 0.0
H627 H 0.64787 0.41815 0.37233 0.0
H628 H 0.61352 0.35636 0.46202 0.0
H629 H 0.57186 0.33692 0.43605 0.0
H630 H 0.57101 0.40967 0.37753 0.0
C631 C 0.66001 0.45526 0.4389 0.0
C632 C 0.67695 0.45081 0.46431 0.0
C633 C 0.67478 0.42505 0.47998 0.0
C634 C 0.65545 0.40429 0.47098 0.0
C635 C 0.63855 0.40965 0.44626 0.0
C636 C 0.64078 0.43441 0.4303 0.0
C637 C 0.61895 0.43573 0.40571 0.0
C638 C 0.59887 0.46098 0.40988 0.0
C639 C 0.63341 0.43647 0.37511 0.0
C640 C 0.60368 0.40813 0.41074 0.0
C641 C 0.61543 0.39329 0.43407 0.0
C642 C 0.60429 0.36766 0.44354 0.0
C643 C 0.5805 0.35688 0.42872 0.0
C644 C 0.56805 0.37177 0.40474 0.0
C645 C 0.58001 0.39768 0.39568 0.0
H646 H 0.6304 0.52464 0.94556 0.0
H647 H 0.65058 0.47308 0.86882 0.0
H648 H 0.62367 0.50567 0.83684 0.0
H649 H 0.55947 0.53905 0.92522 0.0
H650 H 0.55959 0.57467 0.939 0.0
H651 H 0.58249 0.54871 0.9555 0.0
H652 H 0.62616 0.5805 0.94522 0.0
H653 H 0.60336 0.60661 0.92872 0.0
H654 H 0.63291 0.59268 0.90797 0.0
H655 H 0.59236 0.54204 0.81377 0.0
H656 H 0.55886 0.57987 0.80094 0.0
H657 H 0.55809 0.6072 0.89301 0.0
C658 C 0.62923 0.52021 0.92202 0.0
C659 C 0.64271 0.49634 0.90969 0.0
C660 C 0.64086 0.49147 0.87871 0.0
C661 C 0.6255 0.50978 0.86038 0.0
C662 C 0.61218 0.53287 0.87335 0.0
C663 C 0.61395 0.53821 0.90343 0.0
C664 C 0.5967 0.56385 0.91197 0.0
C665 C 0.57317 0.55609 0.93423 0.0
C666 C 0.61594 0.5873 0.92418 0.0
C667 C 0.5845 0.57177 0.88206 0.0
C668 C 0.59388 0.55376 0.86006 0.0
C669 C 0.58498 0.55638 0.83076 0.0
C670 C 0.56585 0.57793 0.82374 0.0
C671 C 0.55572 0.59655 0.84597 0.0
C672 C 0.56542 0.59342 0.87546 0.0
H673 H 0.34811 0.48851 0.41779 0.0
H674 H 0.32402 0.44665 0.49961 0.0
H675 H 0.35493 0.40639 0.48651 0.0
H676 H 0.35376 0.42454 0.37131 0.0
H677 H 0.38401 0.43821 0.35145 0.0
H678 H 0.35751 0.46194 0.36579 0.0
H679 H 0.39661 0.48916 0.39434 0.0
H680 H 0.42316 0.46539 0.38039 0.0
H681 H 0.41923 0.47041 0.41984 0.0
H682 H 0.39136 0.37263 0.46619 0.0
H683 H 0.4302 0.34786 0.44027 0.0
H684 H 0.43035 0.41263 0.37214 0.0
C685 C 0.34865 0.4705 0.43252 0.0
C686 C 0.3335 0.47051 0.45956 0.0
C687 C 0.33549 0.44698 0.47876 0.0
C688 C 0.35287 0.42402 0.47146 0.0
C689 C 0.36803 0.42499 0.44489 0.0
C690 C 0.36594 0.44757 0.42565 0.0
C691 C 0.38591 0.44448 0.39956 0.0
C692 C 0.3693 0.44214 0.3703 0.0
C693 C 0.4075 0.4688 0.3985 0.0
C694 C 0.40005 0.41693 0.40744 0.0
C695 C 0.38928 0.40584 0.43348 0.0
C696 C 0.39979 0.38098 0.44564 0.0
C697 C 0.42192 0.36713 0.43079 0.0
C698 C 0.43344 0.37831 0.40418 0.0
C699 C 0.4221 0.40347 0.39241 0.0
H700 H 0.84919 0.00472 0.90221 0.0
H701 H 0.80783 0.05628 0.9689 0.0
H702 H 0.83548 0.09748 0.95216 0.0
H703 H 0.91598 0.03215 0.91036 0.0
H704 H 0.92572 0.03146 0.87166 0.0
H705 H 0.89979 0.00701 0.88562 0.0
H706 H 0.86337 0.0243 0.8466 0.0
H707 H 0.88935 0.04865 0.83224 0.0
H708 H 0.85511 0.06128 0.84418 0.0
H709 H 0.87216 0.13087 0.93342 0.0
H710 H 0.91361 0.15518 0.91174 0.0
H711 H 0.93011 0.08259 0.85585 0.0
C712 C 0.84523 0.0249 0.91258 0.0
C713 C 0.82636 0.02733 0.93684 0.0
C714 C 0.82234 0.05393 0.95041 0.0
C715 C 0.83782 0.07747 0.94095 0.0
C716 C 0.85698 0.07415 0.91766 0.0
C717 C 0.86046 0.04865 0.90334 0.0
C718 C 0.88403 0.0502 0.88048 0.0
C719 C 0.90777 0.02895 0.88747 0.0
C720 C 0.87225 0.04586 0.849 0.0
C721 C 0.89394 0.08022 0.88501 0.0
C722 C 0.87791 0.09372 0.9064 0.0
C723 C 0.88451 0.12075 0.9162 0.0
C724 C 0.90819 0.13431 0.90391 0.0
C725 C 0.92492 0.12085 0.88198 0.0
C726 C 0.91738 0.09361 0.87216 0.0
H727 H 0.14237 0.95243 0.4798 0.0
H728 H 0.17944 0.98959 0.40057 0.0
H729 H 0.15217 0.95688 0.36959 0.0
H730 H 0.13654 0.87907 0.45066 0.0
H731 H 0.10278 0.8734 0.46856 0.0
H732 H 0.12854 0.89665 0.48513 0.0
H733 H 0.09131 0.93676 0.48586 0.0
H734 H 0.06552 0.91373 0.46921 0.0
H735 H 0.07405 0.94683 0.45176 0.0
H736 H 0.1168 0.92572 0.34687 0.0
H737 H 0.07573 0.89631 0.33351 0.0
H738 H 0.06052 0.87841 0.42664 0.0
C739 C 0.14509 0.95339 0.45596 0.0
C740 C 0.1634 0.97344 0.44272 0.0
C741 C 0.16621 0.97402 0.41139 0.0
C742 C 0.15066 0.95559 0.39352 0.0
C743 C 0.13241 0.93657 0.40722 0.0
C744 C 0.12962 0.93512 0.43769 0.0
C745 C 0.10669 0.91426 0.4465 0.0
C746 C 0.1194 0.88936 0.46373 0.0
C747 C 0.08299 0.92878 0.46438 0.0
C748 C 0.09631 0.90514 0.41614 0.0
C749 C 0.11173 0.91812 0.39387 0.0
C750 C 0.10488 0.91501 0.36404 0.0
C751 C 0.08142 0.89844 0.3567 0.0
C752 C 0.06514 0.88508 0.37907 0.0
C753 C 0.07299 0.88802 0.40914 0.0
H754 H 0.11937 0.97725 0.89368 0.0
H755 H 0.17524 0.02494 0.95126 0.0
H756 H 0.15213 0.06902 0.93546 0.0
H757 H 0.11368 0.03234 0.83337 0.0
H758 H 0.07676 0.02439 0.82706 0.0
H759 H 0.10069 0.99703 0.839 0.0
H760 H 0.06767 0.98644 0.88363 0.0
H761 H 0.04388 0.01396 0.87214 0.0
H762 H 0.05868 0.01439 0.90902 0.0
H763 H 0.11902 0.10613 0.92032 0.0
H764 H 0.07947 0.13579 0.90324 0.0
H765 H 0.04488 0.06525 0.85382 0.0
C766 C 0.1273 0.99712 0.90205 0.0
C767 C 0.14909 0.99791 0.92353 0.0
C768 C 0.15854 0.02408 0.93476 0.0
C769 C 0.14563 0.04916 0.92586 0.0
C770 C 0.12344 0.04767 0.90555 0.0
C771 C 0.11453 0.02246 0.89339 0.0
C772 C 0.08858 0.02669 0.87396 0.0
C773 C 0.09534 0.0197 0.84141 0.0
C774 C 0.06321 0.00935 0.88539 0.0
C775 C 0.0837 0.05798 0.87815 0.0
C776 C 0.10424 0.06959 0.89631 0.0
C777 C 0.10312 0.09748 0.90559 0.0
C778 C 0.08043 0.11406 0.89601 0.0
C779 C 0.05921 0.10275 0.87722 0.0
C780 C 0.06107 0.07445 0.86786 0.0
H781 H 0.83571 0.97838 0.42089 0.0
H782 H 0.85921 0.9669 0.51349 0.0
H783 H 0.88936 0.92704 0.49944 0.0
H784 H 0.83919 0.90452 0.39746 0.0
H785 H 0.85537 0.91315 0.36235 0.0
H786 H 0.83161 0.93779 0.37992 0.0
H787 H 0.87063 0.97624 0.37784 0.0
H788 H 0.89444 0.95177 0.36027 0.0
H789 H 0.90489 0.96924 0.39405 0.0
H790 H 0.91972 0.89065 0.47549 0.0
H791 H 0.95112 0.86298 0.44287 0.0
H792 H 0.91195 0.90129 0.36554 0.0
C793 C 0.84704 0.96758 0.43837 0.0
C794 C 0.84449 0.97587 0.46846 0.0
C795 C 0.85979 0.96068 0.4904 0.0
C796 C 0.87724 0.938 0.48264 0.0
C797 C 0.87959 0.93085 0.45281 0.0
C798 C 0.86512 0.94532 0.43097 0.0
C799 C 0.87373 0.93539 0.40031 0.0
C800 C 0.84847 0.92191 0.38406 0.0
C801 C 0.8867 0.9596 0.38206 0.0
C802 C 0.89584 0.91358 0.40837 0.0
C803 C 0.89838 0.91083 0.43878 0.0
C804 C 0.91784 0.89248 0.45163 0.0
C805 C 0.93555 0.87682 0.4329 0.0
C806 C 0.93404 0.88004 0.40167 0.0
C807 C 0.91364 0.89843 0.38933 0.0
H808 H 0.36506 0.34571 0.13603 0.0
H809 H 0.32834 0.42382 0.16784 0.0
H810 H 0.35363 0.41813 0.21541 0.0
H811 H 0.36442 0.30827 0.20824 0.0
H812 H 0.398 0.29135 0.20123 0.0
H813 H 0.37486 0.30004 0.17073 0.0
H814 H 0.4155 0.32833 0.14592 0.0
H815 H 0.4387 0.31983 0.17634 0.0
H816 H 0.4327 0.3561 0.16642 0.0
H817 H 0.38548 0.40635 0.25739 0.0
H818 H 0.42219 0.38923 0.29175 0.0
H819 H 0.43857 0.31822 0.2335 0.0
C820 C 0.36189 0.36124 0.1533 0.0
C821 C 0.34472 0.3852 0.14834 0.0
C822 C 0.34154 0.40543 0.17116 0.0
C823 C 0.35567 0.40229 0.19829 0.0
C824 C 0.37284 0.37874 0.20229 0.0
C825 C 0.37597 0.35848 0.18053 0.0
C826 C 0.39717 0.33615 0.18991 0.0
C827 C 0.38274 0.30724 0.1927 0.0
C828 C 0.42252 0.33505 0.16837 0.0
C829 C 0.40592 0.3474 0.22004 0.0
C830 C 0.3914 0.37186 0.22677 0.0
C831 C 0.39678 0.38706 0.25254 0.0
C832 C 0.41779 0.3772 0.27185 0.0
C833 C 0.43325 0.35235 0.26535 0.0
C834 C 0.42687 0.33706 0.23927 0.0
H835 H 0.66657 0.60294 0.66503 0.0
H836 H 0.68389 0.68239 0.62089 0.0
H837 H 0.65061 0.70629 0.65489 0.0
H838 H 0.59389 0.61274 0.6698 0.0
H839 H 0.58974 0.59572 0.70531 0.0
H840 H 0.6185 0.58578 0.68122 0.0
H841 H 0.65475 0.59662 0.72296 0.0
H842 H 0.62603 0.60637 0.74732 0.0
H843 H 0.6546 0.63076 0.74042 0.0
H844 H 0.61178 0.72063 0.69068 0.0
H845 H 0.57061 0.72388 0.72471 0.0
H846 H 0.57686 0.63423 0.74215 0.0
C847 C 0.66366 0.62543 0.66263 0.0
C848 C 0.67794 0.64074 0.64025 0.0
C849 C 0.67365 0.67022 0.63817 0.0
C850 C 0.65463 0.68398 0.65728 0.0
C851 C 0.64011 0.66798 0.67833 0.0
C852 C 0.64452 0.63935 0.68114 0.0
C853 C 0.62451 0.62639 0.70356 0.0
C854 C 0.60554 0.60384 0.68909 0.0
C855 C 0.64096 0.61433 0.73014 0.0
C856 C 0.60756 0.65206 0.71234 0.0
C857 C 0.61715 0.67597 0.698 0.0
C858 C 0.60423 0.70207 0.70219 0.0
C859 C 0.58086 0.70371 0.72149 0.0
C860 C 0.57043 0.67928 0.73588 0.0
C861 C 0.58417 0.65325 0.73129 0.0
H862 H 0.63329 0.33225 0.13592 0.0
H863 H 0.6749 0.40879 0.16516 0.0
H864 H 0.65051 0.40524 0.21356 0.0
H865 H 0.56738 0.34752 0.16647 0.0
H866 H 0.55874 0.31205 0.17747 0.0
H867 H 0.58245 0.31805 0.14679 0.0
H868 H 0.62102 0.28768 0.17233 0.0
H869 H 0.59732 0.2814 0.20307 0.0
H870 H 0.63204 0.2961 0.2096 0.0
H871 H 0.61828 0.39657 0.25601 0.0
H872 H 0.58014 0.38324 0.2906 0.0
H873 H 0.55857 0.31216 0.23431 0.0
C874 C 0.63782 0.34774 0.1529 0.0
C875 C 0.65609 0.37068 0.14706 0.0
C876 C 0.66099 0.39106 0.16936 0.0
C877 C 0.64734 0.38915 0.1969 0.0
C878 C 0.62888 0.3667 0.20175 0.0
C879 C 0.62415 0.34625 0.1805 0.0
C880 C 0.60139 0.32573 0.19051 0.0
C881 C 0.57599 0.32587 0.16903 0.0
C882 C 0.61369 0.29596 0.19409 0.0
C883 C 0.59353 0.33833 0.22031 0.0
C884 C 0.60991 0.36176 0.22643 0.0
C885 C 0.60555 0.37804 0.25168 0.0
C886 C 0.5837 0.37036 0.27111 0.0
C887 C 0.56635 0.34662 0.26521 0.0
C888 C 0.57169 0.33018 0.23964 0.0
H889 H 0.33716 0.63987 0.65083 0.0
H890 H 0.35176 0.71344 0.59587 0.0
H891 H 0.38237 0.73366 0.63501 0.0
H892 H 0.34107 0.67559 0.72471 0.0
H893 H 0.35952 0.64605 0.74076 0.0
H894 H 0.33418 0.64047 0.71138 0.0
H895 H 0.37266 0.61443 0.6807 0.0
H896 H 0.39806 0.62005 0.70981 0.0
H897 H 0.40573 0.632 0.67268 0.0
H898 H 0.41701 0.7424 0.67716 0.0
H899 H 0.4527 0.73814 0.71734 0.0
H900 H 0.41631 0.65774 0.74266 0.0
C901 C 0.34633 0.6605 0.64724 0.0
C902 C 0.34209 0.67508 0.62032 0.0
C903 C 0.35439 0.70207 0.61651 0.0
C904 C 0.37186 0.71368 0.63861 0.0
C905 C 0.37657 0.69814 0.66441 0.0
C906 C 0.36392 0.67219 0.66885 0.0
C907 C 0.37479 0.65807 0.69664 0.0
C908 C 0.35097 0.65487 0.71974 0.0
C909 C 0.38864 0.62947 0.68951 0.0
C910 C 0.39652 0.67949 0.70647 0.0
C911 C 0.39687 0.7028 0.68811 0.0
C912 C 0.4166 0.72444 0.69194 0.0
C913 C 0.43678 0.72187 0.71477 0.0
C914 C 0.4373 0.69756 0.73295 0.0
C915 C 0.41647 0.67655 0.72905 0.0
H916 H 0.85302 0.83394 0.13276 0.0
H917 H 0.80375 0.90213 0.17072 0.0
H918 H 0.82788 0.8952 0.21881 0.0
H919 H 0.85707 0.78967 0.2017 0.0
H920 H 0.89306 0.77922 0.19374 0.0
H921 H 0.86881 0.78649 0.16376 0.0
H922 H 0.9042 0.82304 0.14236 0.0
H923 H 0.92843 0.81601 0.17226 0.0
H924 H 0.91637 0.85146 0.16562 0.0
H925 H 0.86129 0.88555 0.25991 0.0
H926 H 0.90193 0.87363 0.29193 0.0
H927 H 0.92952 0.81098 0.22806 0.0
C928 C 0.8467 0.84677 0.1515 0.0
C929 C 0.82645 0.86846 0.14819 0.0
C930 C 0.81928 0.88544 0.17288 0.0
C931 C 0.83271 0.88153 0.20028 0.0
C932 C 0.85313 0.86044 0.20263 0.0
C933 C 0.86 0.84319 0.17899 0.0
C934 C 0.88466 0.82401 0.18658 0.0
C935 C 0.87533 0.793 0.18644 0.0
C936 C 0.90989 0.82894 0.16545 0.0
C937 C 0.89127 0.83395 0.21776 0.0
C938 C 0.87255 0.85471 0.22668 0.0
C939 C 0.87575 0.86894 0.25346 0.0
C940 C 0.89898 0.86214 0.2714 0.0
C941 C 0.9187 0.84127 0.26251 0.0
C942 C 0.9144 0.82657 0.23566 0.0
H943 H 0.13807 0.17068 0.63294 0.0
H944 H 0.19044 0.10949 0.67877 0.0
H945 H 0.16371 0.11802 0.72498 0.0
H946 H 0.12792 0.21942 0.69819 0.0
H947 H 0.09168 0.22677 0.68797 0.0
H948 H 0.11765 0.21918 0.65965 0.0
H949 H 0.08572 0.17899 0.63984 0.0
H950 H 0.05984 0.1862 0.66821 0.0
H951 H 0.07461 0.15136 0.66474 0.0
H952 H 0.12748 0.12708 0.76319 0.0
H953 H 0.08505 0.13863 0.79292 0.0
H954 H 0.05636 0.1957 0.72412 0.0
C955 C 0.14447 0.15986 0.65301 0.0
C956 C 0.16634 0.13949 0.65241 0.0
C957 C 0.17368 0.1251 0.67882 0.0
C958 C 0.15872 0.12991 0.70517 0.0
C959 C 0.13663 0.14936 0.70482 0.0
C960 C 0.12967 0.16442 0.6796 0.0
C961 C 0.10341 0.18231 0.68474 0.0
C962 C 0.11061 0.21379 0.68251 0.0
C963 C 0.07949 0.17421 0.6631 0.0
C964 C 0.09611 0.17406 0.71637 0.0
C965 C 0.11575 0.15516 0.72749 0.0
C966 C 0.11233 0.14236 0.75506 0.0
C967 C 0.08815 0.1489 0.77167 0.0
C968 C 0.06784 0.16824 0.76083 0.0
C969 C 0.07203 0.18134 0.73306 0.0
H970 H 0.13248 0.82371 0.1309 0.0
H971 H 0.17919 0.89645 0.1627 0.0
H972 H 0.14871 0.89815 0.2072 0.0
H973 H 0.06587 0.84572 0.15169 0.0
H974 H 0.05268 0.81193 0.16362 0.0
H975 H 0.0802 0.81384 0.13598 0.0
H976 H 0.11281 0.78219 0.16805 0.0
H977 H 0.08513 0.77964 0.19557 0.0
H978 H 0.11995 0.79186 0.20601 0.0
H979 H 0.10939 0.89624 0.24405 0.0
H980 H 0.06739 0.88681 0.27518 0.0
H981 H 0.04736 0.8138 0.22112 0.0
C982 C 0.13696 0.83935 0.14774 0.0
C983 C 0.15812 0.86003 0.14331 0.0
C984 C 0.1629 0.88058 0.16555 0.0
C985 C 0.14575 0.88169 0.1909 0.0
C986 C 0.12421 0.86182 0.19391 0.0
C987 C 0.12014 0.84063 0.17334 0.0
C988 C 0.09462 0.8227 0.1813 0.0
C989 C 0.07202 0.82362 0.15668 0.0
C990 C 0.10368 0.79229 0.18815 0.0
C991 C 0.08452 0.83768 0.20903 0.0
C992 C 0.10188 0.86022 0.21584 0.0
C993 C 0.09591 0.87835 0.23929 0.0
C994 C 0.07184 0.87298 0.25665 0.0
C995 C 0.05415 0.84954 0.2506 0.0
C996 C 0.06064 0.83172 0.22643 0.0
H997 H 0.83625 0.12502 0.67321 0.0
H998 H 0.83994 0.20413 0.62511 0.0
H999 H 0.87114 0.22379 0.66393 0.0
H1000 H 0.84095 0.15436 0.74935 0.0
H1001 H 0.86331 0.1259 0.76169 0.0
H1002 H 0.83737 0.11991 0.733 0.0
H1003 H 0.87697 0.10105 0.69831 0.0
H1004 H 0.90299 0.10713 0.72676 0.0
H1005 H 0.90746 0.12283 0.69063 0.0
H1006 H 0.90667 0.23283 0.70497 0.0
H1007 H 0.94326 0.23025 0.74419 0.0
H1008 H 0.91761 0.14437 0.76356 0.0
C1009 C 0.84326 0.14662 0.67098 0.0
C1010 C 0.83553 0.163 0.64606 0.0
C1011 C 0.84509 0.19126 0.6442 0.0
C1012 C 0.86297 0.20259 0.6661 0.0
C1013 C 0.871 0.18546 0.68978 0.0
C1014 C 0.86127 0.15811 0.6924 0.0
C1015 C 0.87502 0.14313 0.7183 0.0
C1016 C 0.85284 0.13538 0.74199 0.0
C1017 C 0.89159 0.11701 0.70786 0.0
C1018 C 0.89475 0.16598 0.72925 0.0
C1019 C 0.89183 0.19042 0.7129 0.0
C1020 C 0.90888 0.2139 0.71815 0.0
C1021 C 0.92964 0.21223 0.74046 0.0
C1022 C 0.93341 0.18709 0.75696 0.0
C1023 C 0.91535 0.16391 0.75142 0.0
loop_
_geom_bond_atom_site_label_1
_geom_bond_atom_site_label_2
_geom_bond_distance
_geom_bond_site_symmetry_2
_ccdc_geom_bond_type
C0 C1 1.384 . S
C0 H13 0.947 . S
C0 C35 1.382 . S
C1 C0 1.384 . S
C1 C2 1.378 . S
C2 C1 1.378 . S
C2 C3 1.378 . S
C2 H14 0.952 . S
C3 C2 1.378 . S
C3 H15 0.950 . S
C3 C34 1.383 . S
H4 C23 0.947 . S
H5 C24 0.946 1_554 S
H6 C26 0.953 . S
H7 C27 0.945 . S
H8 C29 0.952 . S
H9 C30 0.949 . S
H10 C32 0.950 . S
H11 C33 0.948 1_554 S
H12 C35 0.951 . S
H13 C0 0.947 . S
H14 C2 0.952 . S
H15 C3 0.950 . S
N16 C19 1.382 1_554 S
N16 C21 1.363 . S
N17 C19 1.371 . S
N17 C20 1.372 . S
N18 C20 1.361 1_554 S
N18 C21 1.377 . S
C19 N16 1.382 1_556 S
C19 N17 1.371 . S
C19 C22 1.480 . S
C20 N17 1.372 . S
C20 N18 1.361 1_556 S
C20 C28 1.457 . S
C21 N16 1.363 . S
C21 N18 1.377 . S
C21 C34 1.479 . S
C22 C19 1.480 . S
C22 C23 1.383 1_556 S
C22 C27 1.385 . S
C23 H4 0.947 . S
C23 C22 1.383 1_554 S
C23 C24 1.388 1_554 S
C24 H5 0.946 1_556 S
C24 C23 1.388 1_556 S
C24 C25 1.384 . S
C25 C24 1.384 . S
C25 C26 1.377 . S
C26 H6 0.953 . S
C26 C25 1.377 . S
C26 C27 1.369 . S
C27 H7 0.945 . S
C27 C22 1.385 . S
C27 C26 1.369 . S
C28 C20 1.457 . S
C28 C29 1.372 . S
C28 C33 1.364 . S
C29 H8 0.952 . S
C29 C28 1.372 . S
C29 C30 1.389 . S
C30 H9 0.949 . S
C30 C29 1.389 . S
C30 C31 1.387 . S
C31 C30 1.387 . S
C31 C32 1.372 . S
C32 H10 0.950 . S
C32 C31 1.372 . S
C32 C33 1.379 . S
C33 H11 0.948 1_556 S
C33 C28 1.364 . S
C33 C32 1.379 . S
C34 C3 1.383 . S
C34 C21 1.479 . S
C34 C35 1.398 . S
C35 C0 1.382 . S
C35 H12 0.951 . S
C35 C34 1.398 . S
C36 C37 1.384 . S
C36 H49 0.947 . S
C36 C71 1.382 . S
C37 C36 1.384 . S
C37 C38 1.378 . S
C38 C37 1.378 . S
C38 C39 1.378 . S
C38 H50 0.952 . S
C39 C38 1.378 . S
C39 H51 0.950 . S
C39 C70 1.383 . S
H40 C59 0.947 . S
H41 C60 0.946 . S
H42 C62 0.953 . S
H43 C63 0.945 . S
H44 C65 0.952 . S
H45 C66 0.949 . S
H46 C68 0.950 . S
H47 C69 0.948 . S
H48 C71 0.951 . S
H49 C36 0.947 . S
H50 C38 0.952 . S
H51 C39 0.950 . S
N52 C55 1.382 . S
N52 C57 1.363 . S
N53 C55 1.371 . S
N53 C56 1.372 . S
N54 C56 1.361 . S
N54 C57 1.377 . S
C55 N52 1.382 . S
C55 N53 1.371 . S
C55 C58 1.480 . S
C56 N53 1.372 . S
C56 N54 1.361 . S
C56 C64 1.457 . S
C57 N52 1.363 . S
C57 N54 1.377 . S
C57 C70 1.479 . S
C58 C55 1.480 . S
C58 C59 1.383 . S
C58 C63 1.385 . S
C59 H40 0.947 . S
C59 C58 1.383 . S
C59 C60 1.388 . S
C60 H41 0.946 . S
C60 C59 1.388 . S
C60 C61 1.384 . S
C61 C60 1.384 . S
C61 C62 1.377 . S
C62 H42 0.953 . S
C62 C61 1.377 . S
C62 C63 1.369 . S
C63 H43 0.945 . S
C63 C58 1.385 . S
C63 C62 1.369 . S
C64 C56 1.457 . S
C64 C65 1.372 . S
C64 C69 1.364 . S
C65 H44 0.952 . S
C65 C64 1.372 . S
C65 C66 1.389 . S
C66 H45 0.949 . S
C66 C65 1.389 . S
C66 C67 1.387 . S
C67 C66 1.387 . S
C67 C68 1.372 . S
C68 H46 0.950 . S
C68 C67 1.372 . S
C68 C69 1.379 . S
C69 H47 0.948 . S
C69 C64 1.364 . S
C69 C68 1.379 . S
C70 C39 1.383 . S
C70 C57 1.479 . S
C70 C71 1.398 . S
C71 C36 1.382 . S
C71 H48 0.951 . S
C71 C70 1.398 . S
C72 C73 1.384 . S
C72 H85 0.947 . S
C72 C107 1.382 . S
C73 C72 1.384 . S
C73 C74 1.378 . S
C74 C73 1.378 . S
C74 C75 1.378 . S
C74 H86 0.952 . S
C75 C74 1.378 . S
C75 H87 0.950 . S
C75 C106 1.383 . S
H76 C95 0.947 . S
H77 C96 0.946 . S
H78 C98 0.953 . S
H79 C99 0.945 . S
H80 C101 0.952 . S
H81 C102 0.949 . S
H82 C104 0.950 . S
H83 C105 0.948 1_554 S
H84 C107 0.951 . S
H85 C72 0.947 . S
H86 C74 0.952 . S
H87 C75 0.950 . S
N88 C91 1.382 . S
N88 C93 1.363 . S
N89 C91 1.371 1_556 S
N89 C92 1.372 . S
N90 C92 1.361 1_554 S
N90 C93 1.377 . S
C91 N88 1.382 . S
C91 N89 1.371 1_554 S
C91 C94 1.480 1_554 S
C92 N89 1.372 . S
C92 N90 1.361 1_556 S
C92 C100 1.457 . S
C93 N88 1.363 . S
C93 N90 1.377 . S
C93 C106 1.479 . S
C94 C91 1.480 1_556 S
C94 C95 1.383 1_556 S
C94 C99 1.385 . S
C95 H76 0.947 . S
C95 C94 1.383 1_554 S
C95 C96 1.388 1_554 S
C96 H77 0.946 . S
C96 C95 1.388 1_556 S
C96 C97 1.384 . S
C97 C96 1.384 . S
C97 C98 1.377 . S
C98 H78 0.953 . S
C98 C97 1.377 . S
C98 C99 1.369 . S
C99 H79 0.945 . S
C99 C94 1.385 . S
C99 C98 1.369 . S
C100 C92 1.457 . S
C100 C101 1.372 . S
C100 C105 1.364 . S
C101 H80 0.952 . S
C101 C100 1.372 . S
C101 C102 1.389 . S
C102 H81 0.949 . S
C102 C101 1.389 . S
C102 C103 1.387 . S
C103 C102 1.387 . S
C103 C104 1.372 . S
C104 H82 0.950 . S
C104 C103 1.372 . S
C104 C105 1.379 . S
C105 H83 0.948 1_556 S
C105 C100 1.364 . S
C105 C104 1.379 . S
C106 C75 1.383 . S
C106 C93 1.479 . S
C106 C107 1.398 . S
C107 C72 1.382 . S
C107 H84 0.951 . S
C107 C106 1.398 . S
C108 C109 1.384 . S
C108 H121 0.947 . S
C108 C143 1.382 . S
C109 C108 1.384 . S
C109 C110 1.378 . S
C110 C109 1.378 . S
C110 C111 1.378 . S
C110 H122 0.952 . S
C111 C110 1.378 . S
C111 H123 0.950 . S
C111 C142 1.383 . S
H112 C131 0.947 . S
H113 C132 0.946 . S
H114 C134 0.953 . S
H115 C135 0.945 . S
H116 C137 0.952 . S
H117 C138 0.949 . S
H118 C140 0.950 . S
H119 C141 0.948 . S
H120 C143 0.951 . S
H121 C108 0.947 . S
H122 C110 0.952 . S
H123 C111 0.950 . S
N124 C127 1.382 . S
N124 C129 1.363 . S
N125 C127 1.371 . S
N125 C128 1.372 . S
N126 C128 1.361 . S
N126 C129 1.377 . S
C127 N124 1.382 . S
C127 N125 1.371 . S
C127 C130 1.480 . S
C128 N125 1.372 . S
C128 N126 1.361 . S
C128 C136 1.457 . S
C129 N124 1.363 . S
C129 N126 1.377 . S
C129 C142 1.479 . S
C130 C127 1.480 . S
C130 C131 1.383 . S
C130 C135 1.385 . S
C131 H112 0.947 . S
C131 C130 1.383 . S
C131 C132 1.388 . S
C132 H113 0.946 . S
C132 C131 1.388 . S
C132 C133 1.384 . S
C133 C132 1.384 . S
C133 C134 1.377 . S
C134 H114 0.953 . S
C134 C133 1.377 . S
C134 C135 1.369 . S
C135 H115 0.945 . S
C135 C130 1.385 . S
C135 C134 1.369 . S
C136 C128 1.457 . S
C136 C137 1.372 . S
C136 C141 1.364 . S
C137 H116 0.952 . S
C137 C136 1.372 . S
C137 C138 1.389 . S
C138 H117 0.949 . S
C138 C137 1.389 . S
C138 C139 1.387 . S
C139 C138 1.387 . S
C139 C140 1.372 . S
C140 H118 0.950 . S
C140 C139 1.372 . S
C140 C141 1.379 . S
C141 H119 0.948 . S
C141 C136 1.364 . S
C141 C140 1.379 . S
C142 C111 1.383 . S
C142 C129 1.479 . S
C142 C143 1.398 . S
C143 C108 1.382 . S
C143 H120 0.951 . S
C143 C142 1.398 . S
C144 C145 1.384 . S
C144 H157 0.947 . S
C144 C179 1.382 . S
C145 C144 1.384 . S
C145 C146 1.378 . S
C146 C145 1.378 . S
C146 C147 1.378 . S
C146 H158 0.952 . S
C147 C146 1.378 . S
C147 H159 0.950 . S
C147 C178 1.383 . S
H148 C167 0.947 . S
H149 C168 0.946 1_554 S
H150 C170 0.953 . S
H151 C171 0.945 . S
H152 C173 0.952 . S
H153 C174 0.949 . S
H154 C176 0.950 . S
H155 C177 0.948 1_554 S
H156 C179 0.951 . S
H157 C144 0.947 . S
H158 C146 0.952 . S
H159 C147 0.950 . S
N160 C163 1.382 1_554 S
N160 C165 1.363 . S
N161 C163 1.371 . S
N161 C164 1.372 . S
N162 C164 1.361 1_554 S
N162 C165 1.377 . S
C163 N160 1.382 1_556 S
C163 N161 1.371 . S
C163 C166 1.480 . S
C164 N161 1.372 . S
C164 N162 1.361 1_556 S
C164 C172 1.457 . S
C165 N160 1.363 . S
C165 N162 1.377 . S
C165 C178 1.479 . S
C166 C163 1.480 . S
C166 C167 1.383 1_556 S
C166 C171 1.385 . S
C167 H148 0.947 . S
C167 C166 1.383 1_554 S
C167 C168 1.388 1_554 S
C168 H149 0.946 1_556 S
C168 C167 1.388 1_556 S
C168 C169 1.384 . S
C169 C168 1.384 . S
C169 C170 1.377 . S
C170 H150 0.953 . S
C170 C169 1.377 . S
C170 C171 1.369 . S
C171 H151 0.945 . S
C171 C166 1.385 . S
C171 C170 1.369 . S
C172 C164 1.457 . S
C172 C173 1.372 . S
C172 C177 1.364 . S
C173 H152 0.952 . S
C173 C172 1.372 . S
C173 C174 1.389 . S
C174 H153 0.949 . S
C174 C173 1.389 . S
C174 C175 1.387 . S
C175 C174 1.387 . S
C175 C176 1.372 . S
C176 H154 0.950 . S
C176 C175 1.372 . S
C176 C177 1.379 . S
C177 H155 0.948 1_556 S
C177 C172 1.364 . S
C177 C176 1.379 . S
C178 C147 1.383 . S
C178 C165 1.479 . S
C178 C179 1.398 . S
C179 C144 1.382 . S
C179 H156 0.951 . S
C179 C178 1.398 . S
C180 C181 1.384 . S
C180 H193 0.947 . S
C180 C215 1.382 . S
C181 C180 1.384 . S
C181 C182 1.378 . S
C182 C181 1.378 . S
C182 C183 1.378 . S
C182 H194 0.952 . S
C183 C182 1.378 . S
C183 H195 0.950 . S
C183 C214 1.383 . S
H184 C203 0.947 . S
H185 C204 0.946 . S
H186 C206 0.953 . S
H187 C207 0.945 . S
H188 C209 0.952 . S
H189 C210 0.949 . S
H190 C212 0.950 . S
H191 C213 0.948 . S
H192 C215 0.951 . S
H193 C180 0.947 . S
H194 C182 0.952 . S
H195 C183 0.950 . S
N196 C199 1.382 . S
N196 C201 1.363 . S
N197 C199 1.371 . S
N197 C200 1.372 . S
N198 C200 1.361 . S
N198 C201 1.377 . S
C199 N196 1.382 . S
C199 N197 1.371 . S
C199 C202 1.480 . S
C200 N197 1.372 . S
C200 N198 1.361 . S
C200 C208 1.457 . S
C201 N196 1.363 . S
C201 N198 1.377 . S
C201 C214 1.479 . S
C202 C199 1.480 . S
C202 C203 1.383 . S
C202 C207 1.385 . S
C203 H184 0.947 . S
C203 C202 1.383 . S
C203 C204 1.388 . S
C204 H185 0.946 . S
C204 C203 1.388 . S
C204 C205 1.384 . S
C205 C204 1.384 . S
C205 C206 1.377 . S
C206 H186 0.953 . S
C206 C205 1.377 . S
C206 C207 1.369 . S
C207 H187 0.945 . S
C207 C202 1.385 . S
C207 C206 1.369 . S
C208 C200 1.457 . S
C208 C209 1.372 . S
C208 C213 1.364 . S
C209 H188 0.952 . S
C209 C208 1.372 . S
C209 C210 1.389 . S
C210 H189 0.949 . S
C210 C209 1.389 . S
C210 C211 1.387 . S
C211 C210 1.387 . S
C211 C212 1.372 . S
C212 H190 0.950 . S
C212 C211 1.372 . S
C212 C213 1.379 . S
C213 H191 0.948 . S
C213 C208 1.364 . S
C213 C212 1.379 . S
C214 C183 1.383 . S
C214 C201 1.479 . S
C214 C215 1.398 . S
C215 C180 1.382 . S
C215 H192 0.951 . S
C215 C214 1.398 . S
C216 C217 1.384 . S
C216 H229 0.947 . S
C216 C251 1.382 . S
C217 C216 1.384 . S
C217 C218 1.378 . S
C218 C217 1.378 . S
C218 C219 1.378 . S
C218 H230 0.952 . S
C219 C218 1.378 . S
C219 H231 0.950 . S
C219 C250 1.383 . S
H220 C239 0.947 . S
H221 C240 0.946 . S
H222 C242 0.953 . S
H223 C243 0.945 . S
H224 C245 0.952 . S
H225 C246 0.949 . S
H226 C248 0.950 1_545 S
H227 C249 0.948 1_554 S
H228 C251 0.951 . S
H229 C216 0.947 . S
H230 C218 0.952 . S
H231 C219 0.950 . S
N232 C235 1.382 . S
N232 C237 1.363 . S
N233 C235 1.371 1_556 S
N233 C236 1.372 . S
N234 C236 1.361 1_554 S
N234 C237 1.377 . S
C235 N232 1.382 . S
C235 N233 1.371 1_554 S
C235 C238 1.480 1_554 S
C236 N233 1.372 . S
C236 N234 1.361 1_556 S
C236 C244 1.457 . S
C237 N232 1.363 . S
C237 N234 1.377 . S
C237 C250 1.479 . S
C238 C235 1.480 1_556 S
C238 C239 1.383 1_556 S
C238 C243 1.385 . S
C239 H220 0.947 . S
C239 C238 1.383 1_554 S
C239 C240 1.388 1_554 S
C240 H221 0.946 . S
C240 C239 1.388 1_556 S
C240 C241 1.384 . S
C241 C240 1.384 . S
C241 C242 1.377 . S
C242 H222 0.953 . S
C242 C241 1.377 . S
C242 C243 1.369 . S
C243 H223 0.945 . S
C243 C238 1.385 . S
C243 C242 1.369 . S
C244 C236 1.457 . S
C244 C245 1.372 . S
C244 C249 1.364 . S
C245 H224 0.952 . S
C245 C244 1.372 . S
C245 C246 1.389 . S
C246 H225 0.949 . S
C246 C245 1.389 . S
C246 C247 1.387 . S
C247 C246 1.387 . S
C247 C248 1.372 . S
C248 H226 0.950 1_565 S
C248 C247 1.372 . S
C248 C249 1.379 . S
C249 H227 0.948 1_556 S
C249 C244 1.364 . S
C249 C248 1.379 . S
C250 C219 1.383 . S
C250 C237 1.479 . S
C250 C251 1.398 . S
C251 C216 1.382 . S
C251 H228 0.951 . S
C251 C250 1.398 . S
C252 C253 1.384 . S
C252 H265 0.947 . S
C252 C287 1.382 . S
C253 C252 1.384 . S
C253 C254 1.378 . S
C254 C253 1.378 . S
C254 C255 1.378 . S
C254 H266 0.952 . S
C255 C254 1.378 . S
C255 H267 0.950 . S
C255 C286 1.383 . S
H256 C275 0.947 . S
H257 C276 0.946 . S
H258 C278 0.953 . S
H259 C279 0.945 . S
H260 C281 0.952 . S
H261 C282 0.949 . S
H262 C284 0.950 1_565 S
H263 C285 0.948 . S
H264 C287 0.951 . S
H265 C252 0.947 . S
H266 C254 0.952 . S
H267 C255 0.950 . S
N268 C271 1.382 . S
N268 C273 1.363 . S
N269 C271 1.371 . S
N269 C272 1.372 . S
N270 C272 1.361 . S
N270 C273 1.377 . S
C271 N268 1.382 . S
C271 N269 1.371 . S
C271 C274 1.480 . S
C272 N269 1.372 . S
C272 N270 1.361 . S
C272 C280 1.457 . S
C273 N268 1.363 . S
C273 N270 1.377 . S
C273 C286 1.479 . S
C274 C271 1.480 . S
C274 C275 1.383 . S
C274 C279 1.385 . S
C275 H256 0.947 . S
C275 C274 1.383 . S
C275 C276 1.388 . S
C276 H257 0.946 . S
C276 C275 1.388 . S
C276 C277 1.384 . S
C277 C276 1.384 . S
C277 C278 1.377 . S
C278 H258 0.953 . S
C278 C277 1.377 . S
C278 C279 1.369 . S
C279 H259 0.945 . S
C279 C274 1.385 . S
C279 C278 1.369 . S
C280 C272 1.457 . S
C280 C281 1.372 . S
C280 C285 1.364 . S
C281 H260 0.952 . S
C281 C280 1.372 . S
C281 C282 1.389 . S
C282 H261 0.949 . S
C282 C281 1.389 . S
C282 C283 1.387 . S
C283 C282 1.387 . S
C283 C284 1.372 . S
C284 H262 0.950 1_545 S
C284 C283 1.372 . S
C284 C285 1.379 . S
C285 H263 0.948 . S
C285 C280 1.364 . S
C285 C284 1.379 . S
C286 C255 1.383 . S
C286 C273 1.479 . S
C286 C287 1.398 . S
C287 C252 1.382 . S
C287 H264 0.951 . S
C287 C286 1.398 . S
Sc288 O291 2.025 . S
Sc288 O298 2.105 1_455 S
Sc288 O301 2.105 . S
Sc288 O304 2.105 . S
Sc288 O307 2.105 1_455 S
Sc289 O291 2.025 . S
Sc289 O299 2.105 1_455 S
Sc289 O303 2.105 . S
Sc289 O305 2.105 . S
Sc289 O309 2.105 1_455 S
Sc290 O291 2.025 . S
Sc290 O300 2.105 1_455 S
Sc290 O302 2.105 . S
Sc290 O306 2.105 . S
Sc290 O308 2.105 1_455 S
O291 Sc288 2.025 . S
O291 Sc289 2.025 . S
O291 Sc290 2.025 . S
C292 O298 1.268 . S
C292 O308 1.268 . S
C293 O299 1.268 . S
C293 O307 1.268 . S
C294 O300 1.268 . S
C294 O309 1.268 . S
C295 O301 1.268 . S
C295 O305 1.268 . S
C296 O302 1.268 . S
C296 O304 1.268 . S
C297 O303 1.268 . S
C297 O306 1.268 . S
O298 Sc288 2.105 1_655 S
O298 C292 1.268 . S
O299 Sc289 2.105 1_655 S
O299 C293 1.268 . S
O300 Sc290 2.105 1_655 S
O300 C294 1.268 . S
O301 Sc288 2.105 . S
O301 C295 1.268 . S
O302 Sc290 2.105 . S
O302 C296 1.268 . S
O303 Sc289 2.105 . S
O303 C297 1.268 . S
O304 Sc288 2.105 . S
O304 C296 1.268 . S
O305 Sc289 2.105 . S
O305 C295 1.268 . S
O306 Sc290 2.105 . S
O306 C297 1.268 . S
O307 Sc288 2.105 1_655 S
O307 C293 1.268 . S
O308 Sc290 2.105 1_655 S
O308 C292 1.268 . S
O309 Sc289 2.105 1_655 S
O309 C294 1.268 . S
Sc310 O313 2.025 . S
Sc310 O320 2.105 . S
Sc310 O323 2.105 1_455 S
Sc310 O326 2.105 1_455 S
Sc310 O329 2.105 . S
Sc311 O313 2.025 . S
Sc311 O321 2.105 . S
Sc311 O325 2.105 1_455 S
Sc311 O327 2.105 1_455 S
Sc311 O331 2.105 . S
Sc312 O313 2.025 . S
Sc312 O322 2.105 . S
Sc312 O324 2.105 1_455 S
Sc312 O328 2.105 1_455 S
Sc312 O330 2.105 . S
O313 Sc310 2.025 . S
O313 Sc311 2.025 . S
O313 Sc312 2.025 . S
C314 O320 1.268 . S
C314 O330 1.268 . S
C315 O321 1.268 . S
C315 O329 1.268 . S
C316 O322 1.268 . S
C316 O331 1.268 . S
C317 O323 1.268 . S
C317 O327 1.268 . S
C318 O324 1.268 . S
C318 O326 1.268 . S
C319 O325 1.268 . S
C319 O328 1.268 . S
O320 Sc310 2.105 . S
O320 C314 1.268 . S
O321 Sc311 2.105 . S
O321 C315 1.268 . S
O322 Sc312 2.105 . S
O322 C316 1.268 . S
O323 Sc310 2.105 1_655 S
O323 C317 1.268 . S
O324 Sc312 2.105 1_655 S
O324 C318 1.268 . S
O325 Sc311 2.105 1_655 S
O325 C319 1.268 . S
O326 Sc310 2.105 1_655 S
O326 C318 1.268 . S
O327 Sc311 2.105 1_655 S
O327 C317 1.268 . S
O328 Sc312 2.105 1_655 S
O328 C319 1.268 . S
O329 Sc310 2.105 . S
O329 C315 1.268 . S
O330 Sc312 2.105 . S
O330 C314 1.268 . S
O331 Sc311 2.105 . S
O331 C316 1.268 . S
Sc332 O335 2.025 . S
Sc332 O342 2.105 . S
Sc332 O345 2.105 . S
Sc332 O348 2.105 . S
Sc332 O351 2.105 . S
Sc333 O335 2.025 . S
Sc333 O343 2.105 . S
Sc333 O347 2.105 . S
Sc333 O349 2.105 . S
Sc333 O353 2.105 . S
Sc334 O335 2.025 . S
Sc334 O344 2.105 . S
Sc334 O346 2.105 . S
Sc334 O350 2.105 . S
Sc334 O352 2.105 . S
O335 Sc332 2.025 . S
O335 Sc333 2.025 . S
O335 Sc334 2.025 . S
C336 O342 1.268 . S
C336 O352 1.268 . S
C337 O343 1.268 . S
C337 O351 1.268 . S
C338 O344 1.268 . S
C338 O353 1.268 . S
C339 O345 1.268 . S
C339 O349 1.268 . S
C340 O346 1.268 . S
C340 O348 1.268 . S
C341 O347 1.268 . S
C341 O350 1.268 . S
O342 Sc332 2.105 . S
O342 C336 1.268 . S
O343 Sc333 2.105 . S
O343 C337 1.268 . S
O344 Sc334 2.105 . S
O344 C338 1.268 . S
O345 Sc332 2.105 . S
O345 C339 1.268 . S
O346 Sc334 2.105 . S
O346 C340 1.268 . S
O347 Sc333 2.105 . S
O347 C341 1.268 . S
O348 Sc332 2.105 . S
O348 C340 1.268 . S
O349 Sc333 2.105 . S
O349 C339 1.268 . S
O350 Sc334 2.105 . S
O350 C341 1.268 . S
O351 Sc332 2.105 . S
O351 C337 1.268 . S
O352 Sc334 2.105 . S
O352 C336 1.268 . S
O353 Sc333 2.105 . S
O353 C338 1.268 . S
Sc354 O357 2.025 . S
Sc354 O364 2.105 . S
Sc354 O367 2.105 . S
Sc354 O370 2.105 . S
Sc354 O373 2.105 . S
Sc355 O357 2.025 . S
Sc355 O365 2.105 . S
Sc355 O369 2.105 . S
Sc355 O371 2.105 . S
Sc355 O375 2.105 . S
Sc356 O357 2.025 . S
Sc356 O366 2.105 . S
Sc356 O368 2.105 . S
Sc356 O372 2.105 . S
Sc356 O374 2.105 . S
O357 Sc354 2.025 . S
O357 Sc355 2.025 . S
O357 Sc356 2.025 . S
C358 O364 1.268 . S
C358 O374 1.268 . S
C359 O365 1.268 . S
C359 O373 1.268 . S
C360 O366 1.268 . S
C360 O375 1.268 . S
C361 O367 1.268 . S
C361 O371 1.268 . S
C362 O368 1.268 . S
C362 O370 1.268 . S
C363 O369 1.268 . S
C363 O372 1.268 . S
O364 Sc354 2.105 . S
O364 C358 1.268 . S
O365 Sc355 2.105 . S
O365 C359 1.268 . S
O366 Sc356 2.105 . S
O366 C360 1.268 . S
O367 Sc354 2.105 . S
O367 C361 1.268 . S
O368 Sc356 2.105 . S
O368 C362 1.268 . S
O369 Sc355 2.105 . S
O369 C363 1.268 . S
O370 Sc354 2.105 . S
O370 C362 1.268 . S
O371 Sc355 2.105 . S
O371 C361 1.268 . S
O372 Sc356 2.105 . S
O372 C363 1.268 . S
O373 Sc354 2.105 . S
O373 C359 1.268 . S
O374 Sc356 2.105 . S
O374 C358 1.268 . S
O375 Sc355 2.105 . S
O375 C360 1.268 . S
H376 C388 0.930 . S
H377 C390 0.930 . S
H378 C391 0.930 . S
H379 C395 0.959 . S
H380 C395 0.959 . S
H381 C395 0.961 . S
H382 C396 0.960 . S
H383 C396 0.961 . S
H384 C396 0.959 . S
H385 C399 0.929 . S
H386 C400 0.931 . S
H387 C402 0.930 . S
C388 H376 0.930 . S
C388 C389 1.399 . S
C388 C393 1.399 . S
C389 C388 1.399 . S
C389 C390 1.376 . S
C390 H377 0.930 . S
C390 C389 1.376 . S
C390 C391 1.388 . S
C391 H378 0.930 . S
C391 C390 1.388 . S
C391 C392 1.390 . S
C392 C391 1.390 . S
C392 C393 1.394 . S
C392 C398 1.465 . S
C393 C388 1.399 . S
C393 C392 1.394 . S
C393 C394 1.516 . S
C394 C393 1.516 . S
C394 C395 1.502 . S
C394 C396 1.561 . S
C394 C397 1.526 . S
C395 H379 0.959 . S
C395 H380 0.959 . S
C395 H381 0.961 . S
C395 C394 1.502 . S
C396 H382 0.960 . S
C396 H383 0.961 . S
C396 H384 0.959 . S
C396 C394 1.561 . S
C397 C394 1.526 . S
C397 C398 1.396 . S
C397 C402 1.390 . S
C398 C392 1.465 . S
C398 C397 1.396 . S
C398 C399 1.399 . S
C399 H385 0.929 . S
C399 C398 1.399 . S
C399 C400 1.385 . S
C400 H386 0.931 . S
C400 C399 1.385 . S
C400 C401 1.389 . S
C401 C400 1.389 . S
C401 C402 1.387 . S
C402 H387 0.930 . S
C402 C397 1.390 . S
C402 C401 1.387 . S
H403 C415 0.930 . S
H404 C417 0.930 . S
H405 C418 0.930 . S
H406 C422 0.959 . S
H407 C422 0.959 . S
H408 C422 0.961 . S
H409 C423 0.960 . S
H410 C423 0.961 . S
H411 C423 0.959 . S
H412 C426 0.929 . S
H413 C427 0.931 . S
H414 C429 0.930 . S
C415 H403 0.930 . S
C415 C416 1.399 . S
C415 C420 1.399 . S
C416 C415 1.399 . S
C416 C417 1.376 . S
C417 H404 0.930 . S
C417 C416 1.376 . S
C417 C418 1.388 . S
C418 H405 0.930 . S
C418 C417 1.388 . S
C418 C419 1.390 . S
C419 C418 1.390 . S
C419 C420 1.394 . S
C419 C425 1.465 . S
C420 C415 1.399 . S
C420 C419 1.394 . S
C420 C421 1.516 . S
C421 C420 1.516 . S
C421 C422 1.502 . S
C421 C423 1.561 . S
C421 C424 1.526 . S
C422 H406 0.959 . S
C422 H407 0.959 . S
C422 H408 0.961 . S
C422 C421 1.502 . S
C423 H409 0.960 . S
C423 H410 0.961 . S
C423 H411 0.959 . S
C423 C421 1.561 . S
C424 C421 1.526 . S
C424 C425 1.396 . S
C424 C429 1.390 . S
C425 C419 1.465 . S
C425 C424 1.396 . S
C425 C426 1.399 . S
C426 H412 0.929 . S
C426 C425 1.399 . S
C426 C427 1.385 . S
C427 H413 0.931 . S
C427 C426 1.385 . S
C427 C428 1.389 . S
C428 C427 1.389 . S
C428 C429 1.387 . S
C429 H414 0.930 . S
C429 C424 1.390 . S
C429 C428 1.387 . S
H430 C442 0.930 . S
H431 C444 0.930 . S
H432 C445 0.930 . S
H433 C449 0.959 . S
H434 C449 0.959 . S
H435 C449 0.961 . S
H436 C450 0.960 . S
H437 C450 0.961 . S
H438 C450 0.959 . S
H439 C453 0.929 . S
H440 C454 0.931 . S
H441 C456 0.930 . S
C442 H430 0.930 . S
C442 C443 1.399 . S
C442 C447 1.399 . S
C443 C442 1.399 . S
C443 C444 1.376 . S
C444 H431 0.930 . S
C444 C443 1.376 . S
C444 C445 1.388 . S
C445 H432 0.930 . S
C445 C444 1.388 . S
C445 C446 1.390 . S
C446 C445 1.390 . S
C446 C447 1.394 . S
C446 C452 1.465 . S
C447 C442 1.399 . S
C447 C446 1.394 . S
C447 C448 1.516 . S
C448 C447 1.516 . S
C448 C449 1.502 . S
C448 C450 1.561 . S
C448 C451 1.526 . S
C449 H433 0.959 . S
C449 H434 0.959 . S
C449 H435 0.961 . S
C449 C448 1.502 . S
C450 H436 0.960 . S
C450 H437 0.961 . S
C450 H438 0.959 . S
C450 C448 1.561 . S
C451 C448 1.526 . S
C451 C452 1.396 . S
C451 C456 1.390 . S
C452 C446 1.465 . S
C452 C451 1.396 . S
C452 C453 1.399 . S
C453 H439 0.929 . S
C453 C452 1.399 . S
C453 C454 1.385 . S
C454 H440 0.931 . S
C454 C453 1.385 . S
C454 C455 1.389 . S
C455 C454 1.389 . S
C455 C456 1.387 . S
C456 H441 0.930 . S
C456 C451 1.390 . S
C456 C455 1.387 . S
H457 C469 0.930 . S
H458 C471 0.930 . S
H459 C472 0.930 . S
H460 C476 0.959 . S
H461 C476 0.959 . S
H462 C476 0.961 . S
H463 C477 0.960 . S
H464 C477 0.961 . S
H465 C477 0.959 . S
H466 C480 0.929 . S
H467 C481 0.931 . S
H468 C483 0.930 . S
C469 H457 0.930 . S
C469 C470 1.399 . S
C469 C474 1.399 . S
C470 C469 1.399 . S
C470 C471 1.376 . S
C471 H458 0.930 . S
C471 C470 1.376 . S
C471 C472 1.388 . S
C472 H459 0.930 . S
C472 C471 1.388 . S
C472 C473 1.390 . S
C473 C472 1.390 . S
C473 C474 1.394 . S
C473 C479 1.465 . S
C474 C469 1.399 . S
C474 C473 1.394 . S
C474 C475 1.516 . S
C475 C474 1.516 . S
C475 C476 1.502 . S
C475 C477 1.561 . S
C475 C478 1.526 . S
C476 H460 0.959 . S
C476 H461 0.959 . S
C476 H462 0.961 . S
C476 C475 1.502 . S
C477 H463 0.960 . S
C477 H464 0.961 . S
C477 H465 0.959 . S
C477 C475 1.561 . S
C478 C475 1.526 . S
C478 C479 1.396 . S
C478 C483 1.390 . S
C479 C473 1.465 . S
C479 C478 1.396 . S
C479 C480 1.399 . S
C480 H466 0.929 . S
C480 C479 1.399 . S
C480 C481 1.385 . S
C481 H467 0.931 . S
C481 C480 1.385 . S
C481 C482 1.389 . S
C482 C481 1.389 . S
C482 C483 1.387 . S
C483 H468 0.930 . S
C483 C478 1.390 . S
C483 C482 1.387 . S
H484 C496 0.930 . S
H485 C498 0.930 . S
H486 C499 0.930 . S
H487 C503 0.959 . S
H488 C503 0.959 . S
H489 C503 0.961 . S
H490 C504 0.960 . S
H491 C504 0.961 . S
H492 C504 0.959 . S
H493 C507 0.929 . S
H494 C508 0.931 . S
H495 C510 0.930 . S
C496 H484 0.930 . S
C496 C497 1.399 . S
C496 C501 1.399 . S
C497 C496 1.399 . S
C497 C498 1.376 . S
C498 H485 0.930 . S
C498 C497 1.376 . S
C498 C499 1.388 . S
C499 H486 0.930 . S
C499 C498 1.388 . S
C499 C500 1.390 . S
C500 C499 1.390 . S
C500 C501 1.394 . S
C500 C506 1.465 . S
C501 C496 1.399 . S
C501 C500 1.394 . S
C501 C502 1.516 . S
C502 C501 1.516 . S
C502 C503 1.502 . S
C502 C504 1.561 . S
C502 C505 1.526 . S
C503 H487 0.959 . S
C503 H488 0.959 . S
C503 H489 0.961 . S
C503 C502 1.502 . S
C504 H490 0.960 . S
C504 H491 0.961 . S
C504 H492 0.959 . S
C504 C502 1.561 . S
C505 C502 1.526 . S
C505 C506 1.396 . S
C505 C510 1.390 . S
C506 C500 1.465 . S
C506 C505 1.396 . S
C506 C507 1.399 . S
C507 H493 0.929 . S
C507 C506 1.399 . S
C507 C508 1.385 . S
C508 H494 0.931 . S
C508 C507 1.385 . S
C508 C509 1.389 . S
C509 C508 1.389 . S
C509 C510 1.387 . S
C510 H495 0.930 . S
C510 C505 1.390 . S
C510 C509 1.387 . S
H511 C523 0.930 . S
H512 C525 0.930 . S
H513 C526 0.930 . S
H514 C530 0.959 . S
H515 C530 0.959 . S
H516 C530 0.961 . S
H517 C531 0.960 . S
H518 C531 0.961 . S
H519 C531 0.959 . S
H520 C534 0.929 . S
H521 C535 0.931 . S
H522 C537 0.930 . S
C523 H511 0.930 . S
C523 C524 1.399 . S
C523 C528 1.399 . S
C524 C523 1.399 . S
C524 C525 1.376 . S
C525 H512 0.930 . S
C525 C524 1.376 . S
C525 C526 1.388 . S
C526 H513 0.930 . S
C526 C525 1.388 . S
C526 C527 1.390 . S
C527 C526 1.390 . S
C527 C528 1.394 . S
C527 C533 1.465 . S
C528 C523 1.399 . S
C528 C527 1.394 . S
C528 C529 1.516 . S
C529 C528 1.516 . S
C529 C530 1.502 . S
C529 C531 1.561 . S
C529 C532 1.526 . S
C530 H514 0.959 . S
C530 H515 0.959 . S
C530 H516 0.961 . S
C530 C529 1.502 . S
C531 H517 0.960 . S
C531 H518 0.961 . S
C531 H519 0.959 . S
C531 C529 1.561 . S
C532 C529 1.526 . S
C532 C533 1.396 . S
C532 C537 1.390 . S
C533 C527 1.465 . S
C533 C532 1.396 . S
C533 C534 1.399 . S
C534 H520 0.929 . S
C534 C533 1.399 . S
C534 C535 1.385 . S
C535 H521 0.931 . S
C535 C534 1.385 . S
C535 C536 1.389 . S
C536 C535 1.389 . S
C536 C537 1.387 . S
C537 H522 0.930 . S
C537 C532 1.390 . S
C537 C536 1.387 . S
H538 C550 0.930 . S
H539 C552 0.930 . S
H540 C553 0.930 . S
H541 C557 0.959 . S
H542 C557 0.959 . S
H543 C557 0.961 . S
H544 C558 0.960 . S
H545 C558 0.961 . S
H546 C558 0.959 . S
H547 C561 0.929 . S
H548 C562 0.931 . S
H549 C564 0.930 . S
C550 H538 0.930 . S
C550 C551 1.399 . S
C550 C555 1.399 . S
C551 C550 1.399 . S
C551 C552 1.376 . S
C552 H539 0.930 . S
C552 C551 1.376 . S
C552 C553 1.388 . S
C553 H540 0.930 . S
C553 C552 1.388 . S
C553 C554 1.390 . S
C554 C553 1.390 . S
C554 C555 1.394 . S
C554 C560 1.465 . S
C555 C550 1.399 . S
C555 C554 1.394 . S
C555 C556 1.516 . S
C556 C555 1.516 . S
C556 C557 1.502 . S
C556 C558 1.561 . S
C556 C559 1.526 . S
C557 H541 0.959 . S
C557 H542 0.959 . S
C557 H543 0.961 . S
C557 C556 1.502 . S
C558 H544 0.960 . S
C558 H545 0.961 . S
C558 H546 0.959 . S
C558 C556 1.561 . S
C559 C556 1.526 . S
C559 C560 1.396 . S
C559 C564 1.390 . S
C560 C554 1.465 . S
C560 C559 1.396 . S
C560 C561 1.399 . S
C561 H547 0.929 . S
C561 C560 1.399 . S
C561 C562 1.385 . S
C562 H548 0.931 . S
C562 C561 1.385 . S
C562 C563 1.389 . S
C563 C562 1.389 . S
C563 C564 1.387 . S
C564 H549 0.930 . S
C564 C559 1.390 . S
C564 C563 1.387 . S
H565 C577 0.930 . S
H566 C579 0.930 . S
H567 C580 0.930 . S
H568 C584 0.959 . S
H569 C584 0.959 . S
H570 C584 0.961 . S
H571 C585 0.960 . S
H572 C585 0.961 . S
H573 C585 0.959 . S
H574 C588 0.929 . S
H575 C589 0.931 . S
H576 C591 0.930 . S
C577 H565 0.930 . S
C577 C578 1.399 . S
C577 C582 1.399 . S
C578 C577 1.399 . S
C578 C579 1.376 . S
C579 H566 0.930 . S
C579 C578 1.376 . S
C579 C580 1.388 . S
C580 H567 0.930 . S
C580 C579 1.388 . S
C580 C581 1.390 . S
C581 C580 1.390 . S
C581 C582 1.394 . S
C581 C587 1.465 . S
C582 C577 1.399 . S
C582 C581 1.394 . S
C582 C583 1.516 . S
C583 C582 1.516 . S
C583 C584 1.502 . S
C583 C585 1.561 . S
C583 C586 1.526 . S
C584 H568 0.959 . S
C584 H569 0.959 . S
C584 H570 0.961 . S
C584 C583 1.502 . S
C585 H571 0.960 . S
C585 H572 0.961 . S
C585 H573 0.959 . S
C585 C583 1.561 . S
C586 C583 1.526 . S
C586 C587 1.396 . S
C586 C591 1.390 . S
C587 C581 1.465 . S
C587 C586 1.396 . S
C587 C588 1.399 . S
C588 H574 0.929 . S
C588 C587 1.399 . S
C588 C589 1.385 . S
C589 H575 0.931 . S
C589 C588 1.385 . S
C589 C590 1.389 . S
C590 C589 1.389 . S
C590 C591 1.387 . S
C591 H576 0.930 . S
C591 C586 1.390 . S
C591 C590 1.387 . S
H592 C604 0.930 . S
H593 C606 0.930 . S
H594 C607 0.930 . S
H595 C611 0.959 . S
H596 C611 0.959 . S
H597 C611 0.961 . S
H598 C612 0.960 . S
H599 C612 0.961 . S
H600 C612 0.959 . S
H601 C615 0.929 . S
H602 C616 0.931 . S
H603 C618 0.930 . S
C604 H592 0.930 . S
C604 C605 1.399 . S
C604 C609 1.399 . S
C605 C604 1.399 . S
C605 C606 1.376 . S
C606 H593 0.930 . S
C606 C605 1.376 . S
C606 C607 1.388 . S
C607 H594 0.930 . S
C607 C606 1.388 . S
C607 C608 1.390 . S
C608 C607 1.390 . S
C608 C609 1.394 . S
C608 C614 1.465 . S
C609 C604 1.399 . S
C609 C608 1.394 . S
C609 C610 1.516 . S
C610 C609 1.516 . S
C610 C611 1.502 . S
C610 C612 1.561 . S
C610 C613 1.526 . S
C611 H595 0.959 . S
C611 H596 0.959 . S
C611 H597 0.961 . S
C611 C610 1.502 . S
C612 H598 0.960 . S
C612 H599 0.961 . S
C612 H600 0.959 . S
C612 C610 1.561 . S
C613 C610 1.526 . S
C613 C614 1.396 . S
C613 C618 1.390 . S
C614 C608 1.465 . S
C614 C613 1.396 . S
C614 C615 1.399 . S
C615 H601 0.929 . S
C615 C614 1.399 . S
C615 C616 1.385 . S
C616 H602 0.931 . S
C616 C615 1.385 . S
C616 C617 1.389 . S
C617 C616 1.389 . S
C617 C618 1.387 . S
C618 H603 0.930 . S
C618 C613 1.390 . S
C618 C617 1.387 . S
H619 C631 0.930 . S
H620 C633 0.930 . S
H621 C634 0.930 . S
H622 C638 0.959 . S
H623 C638 0.959 . S
H624 C638 0.961 . S
H625 C639 0.960 . S
H626 C639 0.961 . S
H627 C639 0.959 . S
H628 C642 0.929 . S
H629 C643 0.931 . S
H630 C645 0.930 . S
C631 H619 0.930 . S
C631 C632 1.399 . S
C631 C636 1.399 . S
C632 C631 1.399 . S
C632 C633 1.376 . S
C633 H620 0.930 . S
C633 C632 1.376 . S
C633 C634 1.388 . S
C634 H621 0.930 . S
C634 C633 1.388 . S
C634 C635 1.390 . S
C635 C634 1.390 . S
C635 C636 1.394 . S
C635 C641 1.465 . S
C636 C631 1.399 . S
C636 C635 1.394 . S
C636 C637 1.516 . S
C637 C636 1.516 . S
C637 C638 1.502 . S
C637 C639 1.561 . S
C637 C640 1.526 . S
C638 H622 0.959 . S
C638 H623 0.959 . S
C638 H624 0.961 . S
C638 C637 1.502 . S
C639 H625 0.960 . S
C639 H626 0.961 . S
C639 H627 0.959 . S
C639 C637 1.561 . S
C640 C637 1.526 . S
C640 C641 1.396 . S
C640 C645 1.390 . S
C641 C635 1.465 . S
C641 C640 1.396 . S
C641 C642 1.399 . S
C642 H628 0.929 . S
C642 C641 1.399 . S
C642 C643 1.385 . S
C643 H629 0.931 . S
C643 C642 1.385 . S
C643 C644 1.389 . S
C644 C643 1.389 . S
C644 C645 1.387 . S
C645 H630 0.930 . S
C645 C640 1.390 . S
C645 C644 1.387 . S
H646 C658 0.930 . S
H647 C660 0.930 . S
H648 C661 0.930 . S
H649 C665 0.959 . S
H650 C665 0.959 . S
H651 C665 0.961 . S
H652 C666 0.960 . S
H653 C666 0.961 . S
H654 C666 0.959 . S
H655 C669 0.929 . S
H656 C670 0.931 . S
H657 C672 0.930 . S
C658 H646 0.930 . S
C658 C659 1.399 . S
C658 C663 1.399 . S
C659 C658 1.399 . S
C659 C660 1.376 . S
C660 H647 0.930 . S
C660 C659 1.376 . S
C660 C661 1.388 . S
C661 H648 0.930 . S
C661 C660 1.388 . S
C661 C662 1.390 . S
C662 C661 1.390 . S
C662 C663 1.394 . S
C662 C668 1.465 . S
C663 C658 1.399 . S
C663 C662 1.394 . S
C663 C664 1.516 . S
C664 C663 1.516 . S
C664 C665 1.502 . S
C664 C666 1.561 . S
C664 C667 1.526 . S
C665 H649 0.959 . S
C665 H650 0.959 . S
C665 H651 0.961 . S
C665 C664 1.502 . S
C666 H652 0.960 . S
C666 H653 0.961 . S
C666 H654 0.959 . S
C666 C664 1.561 . S
C667 C664 1.526 . S
C667 C668 1.396 . S
C667 C672 1.390 . S
C668 C662 1.465 . S
C668 C667 1.396 . S
C668 C669 1.399 . S
C669 H655 0.929 . S
C669 C668 1.399 . S
C669 C670 1.385 . S
C670 H656 0.931 . S
C670 C669 1.385 . S
C670 C671 1.389 . S
C671 C670 1.389 . S
C671 C672 1.387 . S
C672 H657 0.930 . S
C672 C667 1.390 . S
C672 C671 1.387 . S
H673 C685 0.930 . S
H674 C687 0.930 . S
H675 C688 0.930 . S
H676 C692 0.959 . S
H677 C692 0.959 . S
H678 C692 0.961 . S
H679 C693 0.960 . S
H680 C693 0.961 . S
H681 C693 0.959 . S
H682 C696 0.929 . S
H683 C697 0.931 . S
H684 C699 0.930 . S
C685 H673 0.930 . S
C685 C686 1.399 . S
C685 C690 1.399 . S
C686 C685 1.399 . S
C686 C687 1.376 . S
C687 H674 0.930 . S
C687 C686 1.376 . S
C687 C688 1.388 . S
C688 H675 0.930 . S
C688 C687 1.388 . S
C688 C689 1.390 . S
C689 C688 1.390 . S
C689 C690 1.394 . S
C689 C695 1.465 . S
C690 C685 1.399 . S
C690 C689 1.394 . S
C690 C691 1.516 . S
C691 C690 1.516 . S
C691 C692 1.502 . S
C691 C693 1.561 . S
C691 C694 1.526 . S
C692 H676 0.959 . S
C692 H677 0.959 . S
C692 H678 0.961 . S
C692 C691 1.502 . S
C693 H679 0.960 . S
C693 H680 0.961 . S
C693 H681 0.959 . S
C693 C691 1.561 . S
C694 C691 1.526 . S
C694 C695 1.396 . S
C694 C699 1.390 . S
C695 C689 1.465 . S
C695 C694 1.396 . S
C695 C696 1.399 . S
C696 H682 0.929 . S
C696 C695 1.399 . S
C696 C697 1.385 . S
C697 H683 0.931 . S
C697 C696 1.385 . S
C697 C698 1.389 . S
C698 C697 1.389 . S
C698 C699 1.387 . S
C699 H684 0.930 . S
C699 C694 1.390 . S
C699 C698 1.387 . S
H700 C712 0.956 . S
H701 C714 0.930 . S
H702 C715 0.930 . S
H703 C719 0.959 . S
H704 C719 0.959 . S
H705 C719 0.940 1_565 S
H706 C720 0.960 . S
H707 C720 0.961 . S
H708 C720 0.959 . S
H709 C723 0.929 . S
H710 C724 0.931 . S
H711 C726 0.930 . S
C712 H700 0.956 . S
C712 C713 1.399 . S
C712 C717 1.399 . S
C713 C712 1.399 . S
C713 C714 1.376 . S
C714 H701 0.930 . S
C714 C713 1.376 . S
C714 C715 1.388 . S
C715 H702 0.930 . S
C715 C714 1.388 . S
C715 C716 1.390 . S
C716 C715 1.390 . S
C716 C717 1.394 . S
C716 C722 1.465 . S
C717 C712 1.399 . S
C717 C716 1.394 . S
C717 C718 1.516 . S
C718 C717 1.516 . S
C718 C719 1.502 . S
C718 C720 1.561 . S
C718 C721 1.526 . S
C719 H703 0.959 . S
C719 H704 0.959 . S
C719 H705 0.940 1_545 S
C719 C718 1.502 . S
C720 H706 0.960 . S
C720 H707 0.961 . S
C720 H708 0.959 . S
C720 C718 1.561 . S
C721 C718 1.526 . S
C721 C722 1.396 . S
C721 C726 1.390 . S
C722 C716 1.465 . S
C722 C721 1.396 . S
C722 C723 1.399 . S
C723 H709 0.929 . S
C723 C722 1.399 . S
C723 C724 1.385 . S
C724 H710 0.931 . S
C724 C723 1.385 . S
C724 C725 1.389 . S
C725 C724 1.389 . S
C725 C726 1.387 . S
C726 H711 0.930 . S
C726 C721 1.390 . S
C726 C725 1.387 . S
H727 C739 0.930 . S
H728 C741 0.930 1_545 S
H729 C742 0.930 . S
H730 C746 0.959 . S
H731 C746 0.959 . S
H732 C746 0.961 . S
H733 C747 0.960 . S
H734 C747 0.961 . S
H735 C747 0.959 . S
H736 C750 0.929 . S
H737 C751 0.931 . S
H738 C753 0.930 . S
C739 H727 0.930 . S
C739 C740 1.399 . S
C739 C744 1.399 . S
C740 C739 1.399 . S
C740 C741 1.376 . S
C741 H728 0.930 1_565 S
C741 C740 1.376 . S
C741 C742 1.388 . S
C742 H729 0.930 . S
C742 C741 1.388 . S
C742 C743 1.390 . S
C743 C742 1.390 . S
C743 C744 1.394 . S
C743 C749 1.465 . S
C744 C739 1.399 . S
C744 C743 1.394 . S
C744 C745 1.516 . S
C745 C744 1.516 . S
C745 C746 1.502 . S
C745 C747 1.561 . S
C745 C748 1.526 . S
C746 H730 0.959 . S
C746 H731 0.959 . S
C746 H732 0.961 . S
C746 C745 1.502 . S
C747 H733 0.960 . S
C747 H734 0.961 . S
C747 H735 0.959 . S
C747 C745 1.561 . S
C748 C745 1.526 . S
C748 C749 1.396 . S
C748 C753 1.390 . S
C749 C743 1.465 . S
C749 C748 1.396 . S
C749 C750 1.399 . S
C750 H736 0.929 . S
C750 C749 1.399 . S
C750 C751 1.385 . S
C751 H737 0.931 . S
C751 C750 1.385 . S
C751 C752 1.389 . S
C752 C751 1.389 . S
C752 C753 1.387 . S
C753 H738 0.930 . S
C753 C748 1.390 . S
C753 C752 1.387 . S
H754 C766 0.930 . S
H755 C768 0.930 . S
H756 C769 0.930 . S
H757 C773 0.959 . S
H758 C773 0.959 . S
H759 C773 0.961 . S
H760 C774 0.971 . S
H761 C774 0.961 . S
H762 C774 0.959 . S
H763 C777 0.929 . S
H764 C778 0.931 . S
H765 C780 0.930 . S
C766 H754 0.930 . S
C766 C767 1.399 . S
C766 C771 1.399 . S
C767 C766 1.399 . S
C767 C768 1.376 . S
C768 H755 0.930 . S
C768 C767 1.376 . S
C768 C769 1.388 . S
C769 H756 0.930 . S
C769 C768 1.388 . S
C769 C770 1.390 . S
C770 C769 1.390 . S
C770 C771 1.394 . S
C770 C776 1.465 . S
C771 C766 1.399 . S
C771 C770 1.394 . S
C771 C772 1.516 . S
C772 C771 1.516 . S
C772 C773 1.502 . S
C772 C774 1.561 . S
C772 C775 1.526 . S
C773 H757 0.959 . S
C773 H758 0.959 . S
C773 H759 0.961 . S
C773 C772 1.502 . S
C774 H760 0.971 . S
C774 H761 0.961 . S
C774 H762 0.959 . S
C774 C772 1.561 . S
C775 C772 1.526 . S
C775 C776 1.396 . S
C775 C780 1.390 . S
C776 C770 1.465 . S
C776 C775 1.396 . S
C776 C777 1.399 . S
C777 H763 0.929 . S
C777 C776 1.399 . S
C777 C778 1.385 . S
C778 H764 0.931 . S
C778 C777 1.385 . S
C778 C779 1.389 . S
C779 C778 1.389 . S
C779 C780 1.387 . S
C780 H765 0.930 . S
C780 C775 1.390 . S
C780 C779 1.387 . S
H781 C793 0.930 . S
H782 C795 0.930 . S
H783 C796 0.930 . S
H784 C800 0.959 . S
H785 C800 0.959 . S
H786 C800 0.961 . S
H787 C801 0.960 . S
H788 C801 0.961 . S
H789 C801 0.959 . S
H790 C804 0.929 . S
H791 C805 0.931 . S
H792 C807 0.930 . S
C793 H781 0.930 . S
C793 C794 1.399 . S
C793 C798 1.399 . S
C794 C793 1.399 . S
C794 C795 1.376 . S
C795 H782 0.930 . S
C795 C794 1.376 . S
C795 C796 1.388 . S
C796 H783 0.930 . S
C796 C795 1.388 . S
C796 C797 1.390 . S
C797 C796 1.390 . S
C797 C798 1.394 . S
C797 C803 1.465 . S
C798 C793 1.399 . S
C798 C797 1.394 . S
C798 C799 1.516 . S
C799 C798 1.516 . S
C799 C800 1.502 . S
C799 C801 1.561 . S
C799 C802 1.526 . S
C800 H784 0.959 . S
C800 H785 0.959 . S
C800 H786 0.961 . S
C800 C799 1.502 . S
C801 H787 0.960 . S
C801 H788 0.961 . S
C801 H789 0.959 . S
C801 C799 1.561 . S
C802 C799 1.526 . S
C802 C803 1.396 . S
C802 C807 1.390 . S
C803 C797 1.465 . S
C803 C802 1.396 . S
C803 C804 1.399 . S
C804 H790 0.929 . S
C804 C803 1.399 . S
C804 C805 1.385 . S
C805 H791 0.931 . S
C805 C804 1.385 . S
C805 C806 1.389 . S
C806 C805 1.389 . S
C806 C807 1.387 . S
C807 H792 0.930 . S
C807 C802 1.390 . S
C807 C806 1.387 . S
H808 C820 0.930 . S
H809 C822 0.930 . S
H810 C823 0.930 . S
H811 C827 0.959 . S
H812 C827 0.959 . S
H813 C827 0.961 . S
H814 C828 0.960 . S
H815 C828 0.961 . S
H816 C828 0.959 . S
H817 C831 0.929 . S
H818 C832 0.931 . S
H819 C834 0.930 . S
C820 H808 0.930 . S
C820 C821 1.399 . S
C820 C825 1.399 . S
C821 C820 1.399 . S
C821 C822 1.376 . S
C822 H809 0.930 . S
C822 C821 1.376 . S
C822 C823 1.388 . S
C823 H810 0.930 . S
C823 C822 1.388 . S
C823 C824 1.390 . S
C824 C823 1.390 . S
C824 C825 1.394 . S
C824 C830 1.465 . S
C825 C820 1.399 . S
C825 C824 1.394 . S
C825 C826 1.516 . S
C826 C825 1.516 . S
C826 C827 1.502 . S
C826 C828 1.561 . S
C826 C829 1.526 . S
C827 H811 0.959 . S
C827 H812 0.959 . S
C827 H813 0.961 . S
C827 C826 1.502 . S
C828 H814 0.960 . S
C828 H815 0.961 . S
C828 H816 0.959 . S
C828 C826 1.561 . S
C829 C826 1.526 . S
C829 C830 1.396 . S
C829 C834 1.390 . S
C830 C824 1.465 . S
C830 C829 1.396 . S
C830 C831 1.399 . S
C831 H817 0.929 . S
C831 C830 1.399 . S
C831 C832 1.385 . S
C832 H818 0.931 . S
C832 C831 1.385 . S
C832 C833 1.389 . S
C833 C832 1.389 . S
C833 C834 1.387 . S
C834 H819 0.930 . S
C834 C829 1.390 . S
C834 C833 1.387 . S
H835 C847 0.930 . S
H836 C849 0.930 . S
H837 C850 0.930 . S
H838 C854 0.959 . S
H839 C854 0.959 . S
H840 C854 0.961 . S
H841 C855 0.960 . S
H842 C855 0.961 . S
H843 C855 0.959 . S
H844 C858 0.929 . S
H845 C859 0.931 . S
H846 C861 0.930 . S
C847 H835 0.930 . S
C847 C848 1.399 . S
C847 C852 1.399 . S
C848 C847 1.399 . S
C848 C849 1.376 . S
C849 H836 0.930 . S
C849 C848 1.376 . S
C849 C850 1.388 . S
C850 H837 0.930 . S
C850 C849 1.388 . S
C850 C851 1.390 . S
C851 C850 1.390 . S
C851 C852 1.394 . S
C851 C857 1.465 . S
C852 C847 1.399 . S
C852 C851 1.394 . S
C852 C853 1.516 . S
C853 C852 1.516 . S
C853 C854 1.502 . S
C853 C855 1.561 . S
C853 C856 1.526 . S
C854 H838 0.959 . S
C854 H839 0.959 . S
C854 H840 0.961 . S
C854 C853 1.502 . S
C855 H841 0.960 . S
C855 H842 0.961 . S
C855 H843 0.959 . S
C855 C853 1.561 . S
C856 C853 1.526 . S
C856 C857 1.396 . S
C856 C861 1.390 . S
C857 C851 1.465 . S
C857 C856 1.396 . S
C857 C858 1.399 . S
C858 H844 0.929 . S
C858 C857 1.399 . S
C858 C859 1.385 . S
C859 H845 0.931 . S
C859 C858 1.385 . S
C859 C860 1.389 . S
C860 C859 1.389 . S
C860 C861 1.387 . S
C861 H846 0.930 . S
C861 C856 1.390 . S
C861 C860 1.387 . S
H862 C874 0.930 . S
H863 C876 0.930 . S
H864 C877 0.930 . S
H865 C881 0.959 . S
H866 C881 0.959 . S
H867 C881 0.961 . S
H868 C882 0.960 . S
H869 C882 0.961 . S
H870 C882 0.959 . S
H871 C885 0.929 . S
H872 C886 0.931 . S
H873 C888 0.930 . S
C874 H862 0.930 . S
C874 C875 1.399 . S
C874 C879 1.399 . S
C875 C874 1.399 . S
C875 C876 1.376 . S
C876 H863 0.930 . S
C876 C875 1.376 . S
C876 C877 1.388 . S
C877 H864 0.930 . S
C877 C876 1.388 . S
C877 C878 1.390 . S
C878 C877 1.390 . S
C878 C879 1.394 . S
C878 C884 1.465 . S
C879 C874 1.399 . S
C879 C878 1.394 . S
C879 C880 1.516 . S
C880 C879 1.516 . S
C880 C881 1.502 . S
C880 C882 1.561 . S
C880 C883 1.526 . S
C881 H865 0.959 . S
C881 H866 0.959 . S
C881 H867 0.961 . S
C881 C880 1.502 . S
C882 H868 0.960 . S
C882 H869 0.961 . S
C882 H870 0.959 . S
C882 C880 1.561 . S
C883 C880 1.526 . S
C883 C884 1.396 . S
C883 C888 1.390 . S
C884 C878 1.465 . S
C884 C883 1.396 . S
C884 C885 1.399 . S
C885 H871 0.929 . S
C885 C884 1.399 . S
C885 C886 1.385 . S
C886 H872 0.931 . S
C886 C885 1.385 . S
C886 C887 1.389 . S
C887 C886 1.389 . S
C887 C888 1.387 . S
C888 H873 0.930 . S
C888 C883 1.390 . S
C888 C887 1.387 . S
H889 C901 0.930 . S
H890 C903 0.930 . S
H891 C904 0.930 . S
H892 C908 0.959 . S
H893 C908 0.959 . S
H894 C908 0.961 . S
H895 C909 0.960 . S
H896 C909 0.961 . S
H897 C909 0.959 . S
H898 C912 0.929 . S
H899 C913 0.931 . S
H900 C915 0.930 . S
C901 H889 0.930 . S
C901 C902 1.399 . S
C901 C906 1.399 . S
C902 C901 1.399 . S
C902 C903 1.376 . S
C903 H890 0.930 . S
C903 C902 1.376 . S
C903 C904 1.388 . S
C904 H891 0.930 . S
C904 C903 1.388 . S
C904 C905 1.390 . S
C905 C904 1.390 . S
C905 C906 1.394 . S
C905 C911 1.465 . S
C906 C901 1.399 . S
C906 C905 1.394 . S
C906 C907 1.516 . S
C907 C906 1.516 . S
C907 C908 1.502 . S
C907 C909 1.561 . S
C907 C910 1.526 . S
C908 H892 0.959 . S
C908 H893 0.959 . S
C908 H894 0.961 . S
C908 C907 1.502 . S
C909 H895 0.960 . S
C909 H896 0.961 . S
C909 H897 0.959 . S
C909 C907 1.561 . S
C910 C907 1.526 . S
C910 C911 1.396 . S
C910 C915 1.390 . S
C911 C905 1.465 . S
C911 C910 1.396 . S
C911 C912 1.399 . S
C912 H898 0.929 . S
C912 C911 1.399 . S
C912 C913 1.385 . S
C913 H899 0.931 . S
C913 C912 1.385 . S
C913 C914 1.389 . S
C914 C913 1.389 . S
C914 C915 1.387 . S
C915 H900 0.930 . S
C915 C910 1.390 . S
C915 C914 1.387 . S
H916 C928 0.930 . S
H917 C930 0.930 . S
H918 C931 0.930 . S
H919 C935 0.959 . S
H920 C935 0.959 . S
H921 C935 0.961 . S
H922 C936 0.960 . S
H923 C936 0.961 . S
H924 C936 0.959 . S
H925 C939 0.929 . S
H926 C940 0.931 . S
H927 C942 0.930 . S
C928 H916 0.930 . S
C928 C929 1.399 . S
C928 C933 1.399 . S
C929 C928 1.399 . S
C929 C930 1.376 . S
C930 H917 0.930 . S
C930 C929 1.376 . S
C930 C931 1.388 . S
C931 H918 0.930 . S
C931 C930 1.388 . S
C931 C932 1.390 . S
C932 C931 1.390 . S
C932 C933 1.394 . S
C932 C938 1.465 . S
C933 C928 1.399 . S
C933 C932 1.394 . S
C933 C934 1.516 . S
C934 C933 1.516 . S
C934 C935 1.502 . S
C934 C936 1.561 . S
C934 C937 1.526 . S
C935 H919 0.959 . S
C935 H920 0.959 . S
C935 H921 0.961 . S
C935 C934 1.502 . S
C936 H922 0.960 . S
C936 H923 0.961 . S
C936 H924 0.959 . S
C936 C934 1.561 . S
C937 C934 1.526 . S
C937 C938 1.396 . S
C937 C942 1.390 . S
C938 C932 1.465 . S
C938 C937 1.396 . S
C938 C939 1.399 . S
C939 H925 0.929 . S
C939 C938 1.399 . S
C939 C940 1.385 . S
C940 H926 0.931 . S
C940 C939 1.385 . S
C940 C941 1.389 . S
C941 C940 1.389 . S
C941 C942 1.387 . S
C942 H927 0.930 . S
C942 C937 1.390 . S
C942 C941 1.387 . S
H943 C955 0.930 . S
H944 C957 0.930 . S
H945 C958 0.930 . S
H946 C962 0.959 . S
H947 C962 0.959 . S
H948 C962 0.961 . S
H949 C963 0.960 . S
H950 C963 0.961 . S
H951 C963 0.959 . S
H952 C966 0.929 . S
H953 C967 0.931 . S
H954 C969 0.930 . S
C955 H943 0.930 . S
C955 C956 1.399 . S
C955 C960 1.399 . S
C956 C955 1.399 . S
C956 C957 1.376 . S
C957 H944 0.930 . S
C957 C956 1.376 . S
C957 C958 1.388 . S
C958 H945 0.930 . S
C958 C957 1.388 . S
C958 C959 1.390 . S
C959 C958 1.390 . S
C959 C960 1.394 . S
C959 C965 1.465 . S
C960 C955 1.399 . S
C960 C959 1.394 . S
C960 C961 1.516 . S
C961 C960 1.516 . S
C961 C962 1.502 . S
C961 C963 1.561 . S
C961 C964 1.526 . S
C962 H946 0.959 . S
C962 H947 0.959 . S
C962 H948 0.961 . S
C962 C961 1.502 . S
C963 H949 0.960 . S
C963 H950 0.961 . S
C963 H951 0.959 . S
C963 C961 1.561 . S
C964 C961 1.526 . S
C964 C965 1.396 . S
C964 C969 1.390 . S
C965 C959 1.465 . S
C965 C964 1.396 . S
C965 C966 1.399 . S
C966 H952 0.929 . S
C966 C965 1.399 . S
C966 C967 1.385 . S
C967 H953 0.931 . S
C967 C966 1.385 . S
C967 C968 1.389 . S
C968 C967 1.389 . S
C968 C969 1.387 . S
C969 H954 0.930 . S
C969 C964 1.390 . S
C969 C968 1.387 . S
H970 C982 0.930 . S
H971 C984 0.930 . S
H972 C985 0.930 . S
H973 C989 0.959 . S
H974 C989 0.959 . S
H975 C989 0.961 . S
H976 C990 0.960 . S
H977 C990 0.961 . S
H978 C990 0.959 . S
H979 C993 0.929 . S
H980 C994 0.931 . S
H981 C996 0.930 . S
C982 H970 0.930 . S
C982 C983 1.399 . S
C982 C987 1.399 . S
C983 C982 1.399 . S
C983 C984 1.376 . S
C984 H971 0.930 . S
C984 C983 1.376 . S
C984 C985 1.388 . S
C985 H972 0.930 . S
C985 C984 1.388 . S
C985 C986 1.390 . S
C986 C985 1.390 . S
C986 C987 1.394 . S
C986 C992 1.465 . S
C987 C982 1.399 . S
C987 C986 1.394 . S
C987 C988 1.516 . S
C988 C987 1.516 . S
C988 C989 1.502 . S
C988 C990 1.561 . S
C988 C991 1.526 . S
C989 H973 0.959 . S
C989 H974 0.959 . S
C989 H975 0.961 . S
C989 C988 1.502 . S
C990 H976 0.960 . S
C990 H977 0.961 . S
C990 H978 0.959 . S
C990 C988 1.561 . S
C991 C988 1.526 . S
C991 C992 1.396 . S
C991 C996 1.390 . S
C992 C986 1.465 . S
C992 C991 1.396 . S
C992 C993 1.399 . S
C993 H979 0.929 . S
C993 C992 1.399 . S
C993 C994 1.385 . S
C994 H980 0.931 . S
C994 C993 1.385 . S
C994 C995 1.389 . S
C995 C994 1.389 . S
C995 C996 1.387 . S
C996 H981 0.930 . S
C996 C991 1.390 . S
C996 C995 1.387 . S
H997 C1009 0.930 . S
H998 C1011 0.930 . S
H999 C1012 0.930 . S
H1000 C1016 0.959 . S
H1001 C1016 0.959 . S
H1002 C1016 0.961 . S
H1003 C1017 0.960 . S
H1004 C1017 0.961 . S
H1005 C1017 0.959 . S
H1006 C1020 0.929 . S
H1007 C1021 0.931 . S
H1008 C1023 0.930 . S
C1009 H997 0.930 . S
C1009 C1010 1.399 . S
C1009 C1014 1.399 . S
C1010 C1009 1.399 . S
C1010 C1011 1.376 . S
C1011 H998 0.930 . S
C1011 C1010 1.376 . S
C1011 C1012 1.388 . S
C1012 H999 0.930 . S
C1012 C1011 1.388 . S
C1012 C1013 1.390 . S
C1013 C1012 1.390 . S
C1013 C1014 1.394 . S
C1013 C1019 1.465 . S
C1014 C1009 1.399 . S
C1014 C1013 1.394 . S
C1014 C1015 1.516 . S
C1015 C1014 1.516 . S
C1015 C1016 1.502 . S
C1015 C1017 1.561 . S
C1015 C1018 1.526 . S
C1016 H1000 0.959 . S
C1016 H1001 0.959 . S
C1016 H1002 0.961 . S
C1016 C1015 1.502 . S
C1017 H1003 0.960 . S
C1017 H1004 0.961 . S
C1017 H1005 0.959 . S
C1017 C1015 1.561 . S
C1018 C1015 1.526 . S
C1018 C1019 1.396 . S
C1018 C1023 1.390 . S
C1019 C1013 1.465 . S
C1019 C1018 1.396 . S
C1019 C1020 1.399 . S
C1020 H1006 0.929 . S
C1020 C1019 1.399 . S
C1020 C1021 1.385 . S
C1021 H1007 0.931 . S
C1021 C1020 1.385 . S
C1021 C1022 1.389 . S
C1022 C1021 1.389 . S
C1022 C1023 1.387 . S
C1023 H1008 0.930 . S
C1023 C1018 1.390 . S
C1023 C1022 1.387 . S
C389 C25 1.502 . S
C401 C314 1.515 . S
C428 C292 1.519 . S
C416 C61 1.523 . S
C455 C318 1.496 . S
C443 C97 1.562 . S
C482 C296 1.530 . S
C470 C133 1.532 . S
C509 C358 1.531 . S
C497 C169 1.492 . S
C536 C336 1.478 . S
C524 C205 1.546 . S
C551 C241 1.539 . S
C563 C362 1.506 . S
C590 C340 1.479 . S
C578 C277 1.559 . S
C605 C31 1.497 . S
C617 C363 1.551 . S
C644 C341 1.572 . S
C632 C67 1.553 . S
C659 C103 1.556 . S
C671 C360 1.550 . S
C686 C139 1.527 . S
C698 C338 1.555 . S
C725 C319 1.568 . S
C713 C175 1.549 1_545 S
C740 C211 1.490 1_565 S
C752 C297 1.539 . S
C779 C316 1.558 . S
C767 C247 1.527 1_545 S
C806 C294 1.547 . S
C794 C283 1.526 1_565 S
C833 C337 1.512 . S
C821 C1 1.501 . S
C860 C359 1.541 . S
C848 C37 1.515 . S
C875 C73 1.530 . S
C887 C339 1.510 . S
C914 C361 1.531 . S
C902 C109 1.520 . S
C941 C293 1.508 . S
C929 C145 1.495 . S
C956 C181 1.493 . S
C968 C315 1.506 . S
C983 C217 1.543 . S
C995 C295 1.521 . S
C1010 C253 1.528 . S
C1022 C317 1.542 . S
