# Generated by pormake.
# Topology ftw, (4,12)-cn, num edge types: 1
# Building blocks:
#     Node 0, Type 0, BuildingBlock: AZAVOO_clean_linker_0, # of connection points: 4
#     Node 1, Type 0, BuildingBlock: AZAVOO_clean_linker_0, # of connection points: 4
#     Node 2, Type 0, BuildingBlock: AZAVOO_clean_linker_0, # of connection points: 4
#     Node 3, Type 1, BuildingBlock: EZIPEK_clean_sbu_0, # of connection points: 12
#     Edge 4, Type (0, 1), BuildingBlock: UVAHIK_clean_linker_0, # of connection points: 2
#     Edge 5, Type (0, 1), BuildingBlock: UVAHIK_clean_linker_0, # of connection points: 2
#     Edge 6, Type (0, 1), BuildingBlock: UVAHIK_clean_linker_0, # of connection points: 2
#     Edge 7, Type (0, 1), BuildingBlock: UVAHIK_clean_linker_0, # of connection points: 2
#     Edge 8, Type (0, 1), BuildingBlock: UVAHIK_clean_linker_0, # of connection points: 2
#     Edge 9, Type (0, 1), BuildingBlock: UVAHIK_clean_linker_0, # of connection points: 2
#     Edge 10, Type (0, 1), BuildingBlock: UVAHIK_clean_linker_0, # of connection points: 2
#     Edge 11, Type (0, 1), BuildingBlock: UVAHIK_clean_linker_0, # of connection points: 2
#     Edge 12, Type (0, 1), BuildingBlock: UVAHIK_clean_linker_0, # of connection points: 2
#     Edge 13, Type (0, 1), BuildingBlock: UVAHIK_clean_linker_0, # of connection points: 2
#     Edge 14, Type (0, 1), BuildingBlock: UVAHIK_clean_linker_0, # of connection points: 2
#     Edge 15, Type (0, 1), BuildingBlock: UVAHIK_clean_linker_0, # of connection points: 2
# Relax obj value: 0.048
# Max RMSD: 0.221
# Mean RMSD: 0.169
data_MOF--net-ftw--node1-EZIPEK_clean_sbu_0--node2-AZAVOO_clean_linker_0--edge1-UVAHIK_clean_linker_0
_symmetry_space_group_name_H-M    P1
_symmetry_Int_Tables_number       1
_symmetry_cell_setting            triclinic
loop_
_symmetry_equiv_pos_as_xyz
'x, y, z'
_cell_length_a     34.523519
_cell_length_b     34.474003
_cell_length_c     34.504034
_cell_angle_alpha  91.399184
_cell_angle_beta   88.583811
_cell_angle_gamma 91.444806
loop_
_atom_site_label
_atom_site_type_symbol
_atom_site_fract_x
_atom_site_fract_y
_atom_site_fract_z
_atom_type_partial_charge
H0 H 0.0106 0.2439 0.42095 0.0
H1 H 0.96106 0.58872 0.73945 0.0
H2 H 0.05836 0.45808 0.41948 0.0
H3 H 0.05938 0.41521 0.36224 0.0
H4 H 0.93538 0.42573 0.35336 0.0
H5 H 0.93469 0.4679 0.41153 0.0
H6 H 0.05005 0.40103 0.47733 0.0
H7 H 0.04517 0.33333 0.45449 0.0
H8 H 0.92037 0.34123 0.45308 0.0
H9 H 0.92576 0.40888 0.47612 0.0
H10 H 0.04894 0.41992 0.55288 0.0
H11 H 0.04608 0.36976 0.602 0.0
H12 H 0.92431 0.3909 0.6223 0.0
H13 H 0.92745 0.44095 0.57281 0.0
H14 H 0.05425 0.51214 0.5851 0.0
H15 H 0.05578 0.53963 0.65119 0.0
H16 H 0.93122 0.55029 0.65119 0.0
H17 H 0.93022 0.5229 0.58506 0.0
H18 H 0.06203 0.5703 0.52185 0.0
H19 H 0.06986 0.62847 0.56338 0.0
H20 H 0.94559 0.64037 0.56887 0.0
H21 H 0.93804 0.58206 0.52763 0.0
H22 H 0.05574 0.53751 0.42089 0.0
H23 H 0.05714 0.58568 0.36982 0.0
H24 H 0.93983 0.61652 0.402 0.0
H25 H 0.93829 0.56724 0.45178 0.0
O26 O 0.01182 0.27046 0.43073 0.0
O27 O 0.94782 0.27616 0.43015 0.0
O28 O 0.02518 0.57065 0.71228 0.0
O29 O 0.96117 0.57666 0.71379 0.0
C30 C 0.99445 0.47951 0.46036 0.0
C31 C 0.99138 0.45144 0.48954 0.0
C32 C 0.99018 0.46317 0.52887 0.0
C33 C 0.99189 0.50289 0.5391 0.0
C34 C 0.99469 0.53096 0.50989 0.0
C35 C 0.99563 0.51938 0.47043 0.0
C36 C 0.99647 0.46596 0.41947 0.0
C37 C 0.03171 0.45245 0.40414 0.0
C38 C 0.03217 0.42783 0.37149 0.0
C39 C -0.00267 0.41653 0.3537 0.0
C40 C 0.96256 0.43335 0.36695 0.0
C41 C 0.96214 0.45787 0.39974 0.0
C42 C 0.98824 0.40963 0.47854 0.0
C43 C 0.02169 0.38789 0.47249 0.0
C44 C 0.01881 0.34931 0.45928 0.0
C45 C 0.98238 0.33188 0.45186 0.0
C46 C 0.94887 0.35375 0.4585 0.0
C47 C 0.95182 0.3923 0.47179 0.0
C48 C 0.98837 0.43375 0.55932 0.0
C49 C 0.02167 0.41358 0.5679 0.0
C50 C 0.01995 0.38495 0.59579 0.0
C51 C 0.98492 0.37637 0.61576 0.0
C52 C 0.9517 0.39714 0.60749 0.0
C53 C 0.9534 0.42557 0.57929 0.0
C54 C 0.99213 0.51546 0.58051 0.0
C55 C 0.02731 0.51994 0.59969 0.0
C56 C 0.02809 0.53582 0.63732 0.0
C57 C 0.99361 0.54733 0.65642 0.0
C58 C 0.95829 0.54183 0.63732 0.0
C59 C 0.95758 0.52601 0.59967 0.0
C60 C -0.0005 0.57218 0.5218 0.0
C61 C 0.03667 0.58656 0.53054 0.0
C62 C 0.04105 0.61942 0.55456 0.0
C63 C 0.00829 0.63842 0.56966 0.0
C64 C 0.9713 0.62633 0.55741 0.0
C65 C 0.96693 0.59322 0.53369 0.0
C66 C 0.99689 0.54888 0.43991 0.0
C67 C 0.03033 0.55456 0.41666 0.0
C68 C 0.03116 0.58231 0.38777 0.0
C69 C -0.00143 0.60498 0.38178 0.0
C70 C 0.96521 0.59921 0.4054 0.0
C71 C 0.96437 0.57134 0.4341 0.0
C72 C 0.97947 0.29118 0.43697 0.0
C73 C 0.99443 0.56549 0.69585 0.0
H74 H 0.55911 0.94608 0.25304 0.0
H75 H 0.25964 0.08662 0.56785 0.0
H76 H 0.56448 0.9359 0.46118 0.0
H77 H 0.62101 0.92791 0.4179 0.0
H78 H 0.65306 0.04866 0.43707 0.0
H79 H 0.59638 0.05635 0.48043 0.0
H80 H 0.4931 0.94448 0.41083 0.0
H81 H 0.51492 0.93467 0.34332 0.0
H82 H 0.56891 0.04926 0.34534 0.0
H83 H 0.54641 0.05886 0.41262 0.0
H84 H 0.4113 0.9595 0.45674 0.0
H85 H 0.36167 0.95966 0.40732 0.0
H86 H 0.40884 0.06873 0.36581 0.0
H87 H 0.45832 0.06841 0.4156 0.0
H88 H 0.40745 0.96667 0.54311 0.0
H89 H 0.34137 0.9786 0.5669 0.0
H90 H 0.35087 0.09561 0.52462 0.0
H91 H 0.41719 0.08345 0.50152 0.0
H92 H 0.47852 0.959 0.58981 0.0
H93 H 0.43581 0.96081 0.64742 0.0
H94 H 0.4227 0.08406 0.63431 0.0
H95 H 0.46539 0.08192 0.5767 0.0
H96 H 0.56895 0.9472 0.54393 0.0
H97 H 0.61849 0.94375 0.59329 0.0
H98 H 0.59915 0.06349 0.62637 0.0
H99 H 0.55014 0.06694 0.5765 0.0
O100 O 0.54996 0.95091 0.27941 0.0
O101 O 0.57756 0.00987 0.28214 0.0
O102 O 0.28231 0.02067 0.57982 0.0
O103 O 0.28546 0.08092 0.55814 0.0
C104 C 0.536 0.00454 0.48681 0.0
C105 C 0.50737 0.00709 0.45832 0.0
C106 C 0.4685 0.01337 0.46949 0.0
C107 C 0.45823 0.01787 0.50906 0.0
C108 C 0.48697 0.01639 0.53759 0.0
C109 C 0.52596 0.00946 0.52657 0.0
C110 C 0.57629 -0.00325 0.47367 0.0
C111 C 0.58469 0.96015 0.4574 0.0
C112 C 0.61666 0.95578 0.43233 0.0
C113 C 0.64086 0.98789 0.4235 0.0
C114 C 0.63488 0.02343 0.44338 0.0
C115 C 0.60269 0.02783 0.46835 0.0
C116 C 0.51826 0.00232 0.41655 0.0
C117 C 0.50926 0.96756 0.39645 0.0
C118 C 0.52192 0.96199 0.35798 0.0
C119 C 0.54381 0.99112 0.33898 0.0
C120 C 0.55218 0.0262 0.35911 0.0
C121 C 0.53936 0.03178 0.39751 0.0
C122 C 0.43826 0.01398 0.43975 0.0
C123 C 0.41069 0.98355 0.43714 0.0
C124 C 0.38237 0.98374 0.409 0.0
C125 C 0.38137 0.01425 0.38278 0.0
C126 C 0.40915 0.04468 0.38542 0.0
C127 C 0.43729 0.04461 0.41382 0.0
C128 C 0.41712 0.02428 0.52083 0.0
C129 C 0.39515 0.99482 0.53896 0.0
C130 C 0.35742 0.00171 0.55249 0.0
C131 C 0.34087 0.03813 0.54777 0.0
C132 C 0.36275 0.06729 0.52879 0.0
C133 C 0.40056 0.06039 0.51543 0.0
C134 C 0.47466 0.02024 0.57894 0.0
C135 C 0.46797 0.98669 0.60051 0.0
C136 C 0.44336 0.98777 0.63328 0.0
C137 C 0.42525 0.02244 0.64474 0.0
C138 C 0.43572 0.05683 0.62565 0.0
C139 C 0.46045 0.05576 0.59307 0.0
C140 C 0.556 0.00736 0.55649 0.0
C141 C 0.57567 0.97279 0.56159 0.0
C142 C 0.60392 0.97086 0.58977 0.0
C143 C 0.61266 0.00335 0.61369 0.0
C144 C 0.59274 0.03788 0.60864 0.0
C145 C 0.56482 0.03991 0.58016 0.0
C146 C 0.55814 0.98471 0.29847 0.0
C147 C 0.30111 0.04587 0.56287 0.0
H148 H 0.44316 0.2447 0.93999 0.0
H149 H 0.73538 0.56959 0.0776 0.0
H150 H 0.43245 0.453 0.92913 0.0
H151 H 0.37598 0.40936 0.9217 0.0
H152 H 0.34437 0.42952 0.0423 0.0
H153 H 0.40103 0.47294 0.04948 0.0
H154 H 0.50591 0.4039 0.93775 0.0
H155 H 0.48547 0.33588 0.92824 0.0
H156 H 0.43014 0.33777 0.04208 0.0
H157 H 0.45129 0.40556 0.05141 0.0
H158 H 0.58703 0.45032 0.95304 0.0
H159 H 0.63718 0.4015 0.95523 0.0
H160 H 0.58901 0.36238 0.06473 0.0
H161 H 0.53903 0.41146 0.06233 0.0
H162 H 0.58846 0.53737 0.95792 0.0
H163 H 0.65394 0.56323 0.96938 0.0
H164 H 0.64552 0.52354 0.0873 0.0
H165 H 0.5798 0.49828 0.07556 0.0
H166 H 0.51929 0.58436 0.9522 0.0
H167 H 0.5609 0.64264 0.95667 0.0
H168 H 0.56861 0.62807 0.08022 0.0
H169 H 0.5269 0.56981 0.07542 0.0
H170 H 0.44443 0.55446 0.93862 0.0
H171 H 0.39515 0.60416 0.93634 0.0
H172 H 0.37811 0.59796 0.06071 0.0
H173 H 0.42853 0.54945 0.06261 0.0
O174 O 0.45168 0.27132 0.94467 0.0
O175 O 0.42314 0.27407 0.00313 0.0
O176 O 0.71265 0.5788 0.0112 0.0
O177 O 0.70988 0.55891 0.07206 0.0
C178 C 0.46101 0.47954 -0.00254 0.0
C179 C 0.49017 0.45159 -0.0002 0.0
C180 C 0.52892 0.46356 0.0058 0.0
C181 C 0.53853 0.50338 0.00983 0.0
C182 C 0.50921 0.53127 0.00852 0.0
C183 C 0.47046 0.51938 0.00219 0.0
C184 C 0.42082 0.46595 0.98987 0.0
C185 C 0.41235 0.44933 0.95346 0.0
C186 C 0.38041 0.42407 0.9494 0.0
C187 C 0.3563 0.41552 0.98162 0.0
C188 C 0.36243 0.43566 0.01696 0.0
C189 C 0.39461 0.4607 0.02108 0.0
C190 C 0.47998 0.4096 0.9952 0.0
C191 C 0.48974 0.3894 0.96073 0.0
C192 C 0.47787 0.35063 0.95533 0.0
C193 C 0.45601 0.33143 0.98433 0.0
C194 C 0.44686 0.35169 0.01912 0.0
C195 C 0.45889 0.39039 0.02454 0.0
C196 C 0.55952 0.43435 0.00754 0.0
C197 C 0.58754 0.43136 0.9776 0.0
C198 C 0.61615 0.40358 0.97896 0.0
C199 C 0.61697 0.37818 0.01017 0.0
C200 C 0.58882 0.38132 0.04014 0.0
C201 C 0.56039 0.40931 0.03889 0.0
C202 C 0.57942 0.51613 0.01596 0.0
C203 C 0.6009 0.53417 0.98615 0.0
C204 C 0.63828 0.54891 0.99278 0.0
C205 C 0.65493 0.54556 0.02932 0.0
C206 C 0.63355 0.52666 0.05886 0.0
C207 C 0.5961 0.51205 0.05221 0.0
C208 C 0.52034 0.57283 0.01344 0.0
C209 C 0.52828 0.59492 0.98049 0.0
C210 C 0.55229 0.62808 0.98309 0.0
C211 C 0.56863 0.63933 0.01869 0.0
C212 C 0.5569 0.61962 0.05234 0.0
C213 C 0.53271 0.58667 0.04974 0.0
C214 C 0.43992 0.54855 0.00076 0.0
C215 C 0.42997 0.56396 0.96528 0.0
C216 C 0.40164 0.59214 0.96407 0.0
C217 C 0.38258 0.60515 -0.00164 0.0
C218 C 0.39258 0.58917 0.03383 0.0
C219 C 0.42113 0.56125 0.035 0.0
C220 C 0.44259 0.29056 0.97812 0.0
C221 C 0.69424 0.56207 0.0368 0.0
C222 C -0.00286 0.08372 0.90446 0.0
C223 C -0.00246 0.08611 0.09139 0.0
C224 C 0.99672 0.89634 0.90157 0.0
C225 C -0.00252 0.89764 0.0898 0.0
C226 C 0.09082 0.89798 0.99442 0.0
C227 C 0.09209 0.08658 0.99601 0.0
C228 C 0.90246 0.8959 0.99658 0.0
C229 C 0.90503 0.08345 0.00137 0.0
C230 C 0.90459 0.99097 0.09391 0.0
C231 C 0.09197 0.99436 0.08899 0.0
C232 C 0.90418 0.98956 0.90541 0.0
C233 C 0.09257 0.99006 0.90159 0.0
Eu234 Eu -0.00158 0.06363 -0.00228 0.0
O235 O 0.03272 0.02618 0.03122 0.0
O236 O 0.96363 0.02415 0.96369 0.0
Eu237 Eu 0.07129 0.99192 0.99559 0.0
Eu238 Eu 0.92459 0.98983 -0.00091 0.0
O239 O 0.03318 0.02552 0.96201 0.0
O240 O 0.9639 0.02495 0.03292 0.0
Eu241 Eu -0.00174 0.9902 0.92372 0.0
Eu242 Eu -0.00184 0.99163 0.0705 0.0
O243 O 0.03194 0.95646 0.96159 0.0
O244 O 0.03192 0.95701 0.03021 0.0
O245 O 0.96311 0.95603 0.0321 0.0
O246 O 0.96334 0.95568 0.96314 0.0
Eu247 Eu 0.99696 0.91709 0.99604 0.0
O248 O -0.00292 0.09578 0.94148 0.0
O249 O -0.00274 0.09679 0.05457 0.0
O250 O -0.00251 0.8842 0.93803 0.0
O251 O -0.00286 0.88543 0.05278 0.0
O252 O 0.10303 0.93507 0.9945 0.0
O253 O 0.10417 0.05001 0.99452 0.0
O254 O 0.89157 0.93271 -0.00302 0.0
O255 O 0.89269 0.04646 0.00179 0.0
O256 O 0.94154 0.99214 0.10432 0.0
O257 O 0.05511 0.99323 0.10159 0.0
O258 O 0.94104 0.98891 0.89271 0.0
O259 O 0.0559 0.99077 0.89003 0.0
O260 O 0.939 0.88395 -0.00306 0.0
O261 O 0.05384 0.8856 0.99496 0.0
O262 O 0.94202 0.09555 -0.00034 0.0
O263 O 0.05523 0.09723 -0.00252 0.0
O264 O -0.00139 0.04963 0.10351 0.0
O265 O -0.00234 0.93469 0.10212 0.0
O266 O -0.00185 0.04683 0.89193 0.0
O267 O 0.99667 0.93316 0.89074 0.0
O268 O 0.10382 0.99005 0.93825 0.0
O269 O 0.10382 0.99422 0.05186 0.0
O270 O 0.89234 0.99039 0.94259 0.0
O271 O 0.89223 0.98928 0.05746 0.0
C272 C 0.02665 0.37987 0.29692 0.0
C273 C 0.99676 0.38385 0.325 0.0
C274 C 0.02796 0.34695 0.27257 0.0
C275 C 0.99046 0.24538 0.26455 0.0
H276 H 0.02098 0.25571 0.15639 0.0
C277 C 0.00976 0.11333 0.15839 0.0
C278 C 0.99652 0.11806 0.12066 0.0
C279 C 0.01085 0.1449 0.18471 0.0
C280 C 0.01215 0.25234 0.18649 0.0
H281 H 0.94489 0.35624 0.34965 0.0
H282 H 0.94622 0.29979 0.30611 0.0
H283 H 0.01988 0.31301 0.19875 0.0
H284 H 0.9721 0.15897 0.08163 0.0
H285 H 0.97329 0.21325 0.12742 0.0
H286 H 0.98131 0.1848 0.25173 0.0
C287 C 0.96906 0.32173 0.30331 0.0
C288 C 0.01201 0.28515 0.2109 0.0
C289 C 0.96788 0.3545 0.32778 0.0
C290 C 0.98321 0.15446 0.11023 0.0
C291 C 0.98405 0.18573 0.13645 0.0
C292 C 0.99038 0.21253 0.24002 0.0
C293 C -0.00068 0.31736 0.27569 0.0
C294 C 0.00081 0.28215 0.25013 0.0
C295 C -0.0015 0.18157 0.17374 0.0
C296 C 0.00076 0.21576 0.2006 0.0
H297 H 0.04929 0.40202 0.29406 0.0
H298 H 0.05188 0.34435 0.25185 0.0
H299 H 0.98232 0.24197 0.29481 0.0
H300 H 0.02024 0.08562 0.16723 0.0
H301 H 0.02225 0.14084 0.21325 0.0
C302 C 0.65645 0.96917 0.35463 0.0
C303 C 0.66857 0.98573 0.39008 0.0
C304 C 0.68101 0.96971 0.32191 0.0
C305 C 0.76745 0.02143 0.28146 0.0
H306 H 0.77038 0.93354 0.20914 0.0
C307 C 0.88631 0.00467 0.16326 0.0
C308 C 0.87532 0.9919 0.126 0.0
C309 C 0.85953 0.00486 0.19414 0.0
C310 C 0.76947 0.95848 0.22883 0.0
H311 H 0.71603 0.01529 0.41928 0.0
H312 H 0.75954 0.01542 0.36229 0.0
H313 H 0.72789 0.93075 0.26666 0.0
H314 H 0.82734 0.96955 0.09196 0.0
H315 H 0.78034 0.96965 0.14638 0.0
H316 H 0.80961 0.04879 0.24396 0.0
C317 C 0.73072 0.00268 0.35958 0.0
C318 C 0.74518 0.95691 0.26181 0.0
C319 C 0.70597 0.00241 0.39229 0.0
C320 C 0.8367 0.97961 0.12028 0.0
C321 C 0.80988 0.97944 0.15143 0.0
C322 C 0.79189 0.02287 0.24866 0.0
C323 C 0.71838 0.98667 0.32388 0.0
C324 C 0.74405 0.98829 0.28866 0.0
C325 C 0.82111 0.99207 0.18866 0.0
C326 C 0.79335 0.99133 0.22214 0.0
H327 H 0.62743 0.95689 0.35182 0.0
H328 H 0.67025 0.95778 0.2948 0.0
H329 H 0.76669 0.04646 0.30102 0.0
H330 H 0.91573 0.01461 0.16875 0.0
H331 H 0.86914 0.01435 0.22256 0.0
C332 C 0.96645 0.63979 0.32861 0.0
C333 C -0.00074 0.63453 0.35107 0.0
C334 C 0.96678 0.66796 0.30018 0.0
C335 C 0.01804 0.75824 0.27009 0.0
H336 H 0.9671 0.73635 0.17279 0.0
C337 C 0.99296 0.87739 0.15925 0.0
C338 C -0.00207 0.86746 0.11969 0.0
C339 C 0.99348 0.84889 0.18734 0.0
C340 C 0.98176 0.74285 0.19965 0.0
H341 H 0.05819 0.65494 0.36119 0.0
H342 H 0.05914 0.70335 0.31085 0.0
H343 H 0.96843 0.68634 0.22131 0.0
H344 H 0.00782 0.81957 0.07883 0.0
H345 H 0.00925 0.77017 0.1278 0.0
H346 H 0.03219 0.81443 0.24801 0.0
C347 C 0.03291 0.68605 0.31564 0.0
C348 C 0.9821 0.71432 0.22769 0.0
C349 C 0.03254 0.65794 0.34417 0.0
C350 C 0.00356 0.82834 0.10896 0.0
C351 C 0.00422 0.79989 0.13707 0.0
C352 C 0.0178 0.78674 0.24199 0.0
C353 C -1e-05 0.69148 0.29337 0.0
C354 C 0.00015 0.72168 0.26331 0.0
C355 C -0.00087 0.80979 0.17659 0.0
C356 C -0.00041 0.77942 0.20645 0.0
H357 H 0.94048 0.62194 0.3328 0.0
H358 H 0.94077 0.67162 0.28389 0.0
H359 H 0.03183 0.76506 0.29735 0.0
H360 H 0.98836 0.90717 0.16863 0.0
H361 H 0.9889 0.85746 0.21748 0.0
C362 C 0.36186 0.02299 0.3141 0.0
C363 C 0.35161 0.014 0.35255 0.0
C364 C 0.334 0.02142 0.28537 0.0
C365 C 0.23759 0.97817 0.26387 0.0
H366 H 0.23788 0.0552 0.18379 0.0
C367 C 0.11218 0.99069 0.15806 0.0
C368 C 0.12217 0.99626 0.11878 0.0
C369 C 0.14051 0.99284 0.18625 0.0
C370 C 0.23769 0.03327 0.20576 0.0
H371 H 0.30403 -0.00249 0.39138 0.0
H372 H 0.25527 0.99522 0.34141 0.0
H373 H 0.28648 0.05976 0.23398 0.0
H374 H 0.16999 0.00858 0.07848 0.0
H375 H 0.21937 0.01224 0.12782 0.0
H376 H 0.18858 0.95192 0.23582 0.0
C377 C 0.28498 0.00261 0.3332 0.0
C378 C 0.26553 0.03585 0.23449 0.0
C379 C 0.31286 0.004 0.36185 0.0
C380 C 0.16121 0.00404 0.10841 0.0
C381 C 0.18951 0.00642 0.13669 0.0
C382 C 0.20968 0.97571 0.23527 0.0
C383 C 0.29526 0.011 0.29456 0.0
C384 C 0.26576 0.00836 0.26392 0.0
C385 C 0.17945 0.0008 0.17588 0.0
C386 C 0.2094 0.00325 0.20596 0.0
H387 H 0.39162 0.03035 0.30602 0.0
H388 H 0.343 0.02754 0.25582 0.0
H389 H 0.23738 0.95609 0.28567 0.0
H390 H 0.08245 0.98461 0.16718 0.0
H391 H 0.13184 0.98878 0.2163 0.0
C392 C 0.03318 0.65702 0.6348 0.0
C393 C 0.01206 0.66669 0.60225 0.0
C394 C 0.03355 0.68142 0.66763 0.0
C395 C 0.01728 0.78143 0.70115 0.0
H396 H 0.99492 0.73567 0.80115 0.0
C397 C 0.98034 0.87618 0.8342 0.0
C398 C 0.99636 0.86702 0.86976 0.0
C399 C 0.98278 0.85047 0.80258 0.0
C400 C 0.00174 0.74882 0.77354 0.0
H401 H 0.97533 0.70947 0.57806 0.0
H402 H 0.97637 0.75264 0.63546 0.0
H403 H 2e-05 0.69392 0.74309 0.0
H404 H 0.02644 0.82326 0.90057 0.0
H405 H 0.03139 0.77826 0.84475 0.0
H406 H 0.01935 0.83622 0.73131 0.0
C407 C 0.9927 0.72622 0.63546 0.0
C408 C 0.0046 0.72495 0.74033 0.0
C409 C 0.99198 0.70157 0.60275 0.0
C410 C 0.01373 0.83096 0.87349 0.0
C411 C 0.01653 0.80524 0.84156 0.0
C412 C 0.01472 0.80524 0.73431 0.0
C413 C 0.01306 0.71609 0.66838 0.0
C414 C 0.01195 0.74111 0.70379 0.0
C415 C 0.00167 0.8151 0.80556 0.0
C416 C 0.00634 0.78928 0.77081 0.0
H417 H 0.04832 0.62989 0.6354 0.0
H418 H 0.04963 0.67305 0.69253 0.0
H419 H 0.02358 0.79455 0.67342 0.0
H420 H 0.96612 0.90349 0.83064 0.0
H421 H 0.97002 0.85848 0.77564 0.0
C422 C 0.35718 0.03953 0.66272 0.0
C423 C 0.39165 0.02156 0.67232 0.0
C424 C 0.32395 0.03568 0.68629 0.0
C425 C 0.27963 0.97272 0.76146 0.0
H426 H 0.21033 0.05863 0.77851 0.0
C427 C 0.16026 0.97503 0.88063 0.0
C428 C 0.124 0.98975 0.87173 0.0
C429 C 0.19121 0.97707 0.854 0.0
C430 C 0.22914 0.03424 0.77354 0.0
H431 H 0.41863 0.98623 0.71457 0.0
H432 H 0.36079 0.98028 0.75652 0.0
H433 H 0.26889 0.06744 0.73835 0.0
H434 H 0.09153 0.01741 0.82755 0.0
H435 H 0.14611 0.02128 0.78082 0.0
H436 H 0.24021 0.93985 0.79743 0.0
C437 C 0.35921 -0.00333 0.73026 0.0
C438 C 0.26274 0.03926 0.75059 0.0
C439 C 0.39242 0.00028 0.70645 0.0
C440 C 0.1191 0.00574 0.83515 0.0
C441 C 0.15035 0.00821 0.80858 0.0
C442 C 0.2462 0.9678 0.7846 0.0
C443 C 0.32442 0.01393 0.7202 0.0
C444 C 0.28854 0.00862 0.74446 0.0
C445 C 0.18679 0.99416 0.81793 0.0
C446 C 0.22074 -0.00142 0.79109 0.0
H447 H 0.35543 0.05541 0.63614 0.0
H448 H 0.29757 0.04879 0.67725 0.0
H449 H 0.29836 0.94824 0.75667 0.0
H450 H 0.16492 0.96223 0.90845 0.0
H451 H 0.21899 0.9663 0.86217 0.0
C452 C 0.00038 0.30982 0.63703 0.0
C453 C 0.9832 0.34573 0.64505 0.0
C454 C -0.00026 0.2812 0.66495 0.0
C455 C 0.99368 0.26858 0.76956 0.0
H456 H 0.96823 0.16123 0.74262 0.0
C457 C 0.98107 0.15067 0.88495 0.0
C458 C 0.99513 0.11379 0.87488 0.0
C459 C 0.97826 0.17888 0.85689 0.0
C460 C 0.97591 0.19098 0.75052 0.0
H461 H 0.95175 0.3799 0.68836 0.0
H462 H 0.95072 0.32975 0.73738 0.0
H463 H 0.96531 0.21061 0.69341 0.0
H464 H 0.01782 0.07772 0.82761 0.0
H465 H 0.01396 0.12729 0.77887 0.0
H466 H 0.00522 0.24906 0.82633 0.0
C467 C 0.9647 0.32386 0.70947 0.0
C468 C 0.97406 0.21924 0.72237 0.0
C469 C 0.96502 0.35237 0.68139 0.0
C470 C 0.00658 0.10578 0.83622 0.0
C471 C 0.00415 0.13414 0.80823 0.0
C472 C 0.99588 0.24029 0.79762 0.0
C473 C 0.98219 0.28808 0.70154 0.0
C474 C 0.983 0.25827 0.73162 0.0
C475 C 0.98983 0.17099 0.81821 0.0
C476 C 0.9871 0.20113 0.78843 0.0
H477 H 0.01426 0.30384 0.6091 0.0
H478 H 0.01368 0.25398 0.6582 0.0
H479 H 0.00124 0.29841 0.7773 0.0
H480 H 0.97155 0.15762 0.9144 0.0
H481 H 0.96647 0.20669 0.86547 0.0
C482 C 0.6352 0.01634 0.68146 0.0
C483 C 0.64241 0.00124 0.64386 0.0
C484 C 0.66318 0.01437 0.7099 0.0
C485 C 0.75313 0.96353 0.73359 0.0
H486 H 0.76584 0.04943 0.80722 0.0
C487 C 0.88257 0.9791 0.83691 0.0
C488 C 0.87386 0.98976 0.87571 0.0
C489 C 0.85407 0.97971 0.80885 0.0
C490 C 0.76239 0.02508 0.78706 0.0
H491 H 0.68479 0.97274 0.60641 0.0
H492 H 0.734 0.97 0.6557 0.0
H493 H 0.71703 0.05238 0.7576 0.0
H494 H 0.82822 0.00948 0.91532 0.0
H495 H 0.77867 0.01078 0.86621 0.0
H496 H 0.79915 0.93668 0.76278 0.0
C497 C 0.70638 0.98253 0.66362 0.0
C498 C 0.73433 0.02667 0.75866 0.0
C499 C 0.67824 0.98419 0.63528 0.0
C500 C 0.83596 0.00098 0.88576 0.0
C501 C 0.8076 0.00199 0.85759 0.0
C502 C 0.78144 0.96212 0.76179 0.0
C503 C 0.69923 -0.00243 0.70134 0.0
C504 C 0.72924 0.99588 0.73157 0.0
C505 C 0.81635 0.99139 0.81884 0.0
C506 C 0.7863 0.99284 0.78887 0.0
H507 H 0.60763 0.02918 0.68905 0.0
H508 H 0.65629 0.02559 0.73877 0.0
H509 H 0.74965 0.93896 0.71371 0.0
H510 H 0.9114 0.97012 0.82816 0.0
H511 H 0.86174 0.97165 0.77915 0.0
C512 C 0.34038 0.3464 0.96389 0.0
C513 C 0.32846 0.38217 0.97989 0.0
C514 C 0.31581 0.31367 0.96534 0.0
C515 C 0.23056 0.27435 0.01958 0.0
H516 H 0.22555 0.19985 0.93365 0.0
C517 C 0.1111 0.15603 0.00841 0.0
C518 C 0.1216 0.11848 0.99602 0.0
C519 C 0.13802 0.18679 0.00737 0.0
C520 C 0.22706 0.22015 0.95805 0.0
H521 H 0.28126 0.41199 0.00919 0.0
H522 H 0.23777 0.35498 0.01097 0.0
H523 H 0.26803 0.2573 0.92852 0.0
H524 H 0.16888 0.0838 0.97313 0.0
H525 H 0.21613 0.13801 0.97114 0.0
H526 H 0.18908 0.23752 0.0488 0.0
C527 C 0.26645 0.35203 -0.00203 0.0
C528 C 0.25133 0.25309 0.95513 0.0
C529 C 0.29118 0.38474 -0.00324 0.0
C530 C 0.1599 0.11235 0.98295 0.0
C531 C 0.18686 0.14338 0.98157 0.0
C532 C 0.20618 0.24157 0.02239 0.0
C533 C 0.27866 0.31598 0.98272 0.0
C534 C 0.25314 0.28074 0.98577 0.0
C535 C 0.17609 0.18092 0.99372 0.0
C536 C 0.20393 0.21429 0.99156 0.0
H537 H 0.36932 0.34334 0.95148 0.0
H538 H 0.32642 0.28629 0.9539 0.0
H539 H 0.2319 0.29454 0.04407 0.0
H540 H 0.08193 0.16183 0.0189 0.0
H541 H 0.12875 0.21545 0.01653 0.0
C542 C 0.35003 0.66422 0.02665 0.0
C543 C 0.35263 0.6354 -0.0028 0.0
C544 C 0.32187 0.69256 0.02569 0.0
C545 C 0.2282 0.71395 0.9813 0.0
H546 H 0.2535 0.81911 0.01614 0.0
C547 C 0.11117 0.82956 0.00371 0.0
C548 C 0.12085 0.86798 0.99381 0.0
C549 C 0.13952 0.80133 0.00352 0.0
C550 C 0.24601 0.79001 0.00591 0.0
H551 H 0.32722 0.61382 0.94371 0.0
H552 H 0.27906 0.664 0.94131 0.0
H553 H 0.303 0.77014 0.01585 0.0
H554 H 0.16795 0.90665 0.97527 0.0
H555 H 0.21717 0.85728 0.97414 0.0
H556 H 0.17155 0.73411 0.97021 0.0
C557 C 0.29839 0.66431 0.96557 0.0
C558 C 0.27429 0.76173 0.00627 0.0
C559 C 0.32641 0.6358 0.96666 0.0
C560 C 0.15952 0.87743 0.98343 0.0
C561 C 0.18782 0.84912 0.98294 0.0
C562 C 0.19998 0.74229 0.9807 0.0
C563 C 0.29571 0.69303 0.99511 0.0
C564 C 0.26572 0.72329 0.99413 0.0
C565 C 0.17822 0.81072 0.99311 0.0
C566 C 0.20846 0.78066 0.99315 0.0
H567 H 0.37003 0.66518 0.05036 0.0
H568 H 0.32039 0.71388 0.04922 0.0
H569 H 0.22038 0.68458 0.97216 0.0
H570 H 0.08174 0.8213 0.01218 0.0
H571 H 0.13116 0.77226 0.01216 0.0
C572 C 0.63665 0.30996 0.0211 0.0
C573 C 0.64687 0.3482 0.01114 0.0
C574 C 0.66465 0.28142 0.02094 0.0
C575 C 0.7616 0.25907 0.98005 0.0
H576 H 0.76023 0.18153 0.05969 0.0
C577 C 0.88585 0.15273 0.99663 0.0
C578 C 0.87531 0.11368 0.00296 0.0
C579 C 0.85791 0.18131 -0.00196 0.0
C580 C 0.76073 0.2028 0.03708 0.0
H581 H 0.69448 0.38686 0.99426 0.0
H582 H 0.74351 0.33717 0.99437 0.0
H583 H 0.71179 0.23194 0.06204 0.0
H584 H 0.82698 0.07417 0.01597 0.0
H585 H 0.77826 0.12418 0.01834 0.0
H586 H 0.81071 0.23006 0.95527 0.0
C587 C 0.71374 0.329 0.0015 0.0
C588 C 0.73299 0.23164 0.03838 0.0
C589 C 0.6857 0.35747 0.0015 0.0
C590 C 0.83616 0.10392 0.01087 0.0
C591 C 0.80824 0.13258 0.0125 0.0
C592 C 0.78941 0.23036 0.97886 0.0
C593 C 0.70349 0.29059 0.01096 0.0
C594 C 0.73311 0.26009 0.00986 0.0
C595 C 0.81884 0.17153 0.006 0.0
C596 C 0.78924 0.20193 0.00733 0.0
H597 H 0.60683 0.30189 0.02818 0.0
H598 H 0.6557 0.25201 0.02782 0.0
H599 H 0.76208 0.28012 0.95725 0.0
H600 H 0.9157 0.16137 0.9904 0.0
H601 H 0.86697 0.21117 0.99331 0.0
C602 C 0.60183 0.70162 -0.00133 0.0
C603 C 0.60198 0.66722 0.01958 0.0
C604 C 0.63507 0.72556 0.9964 0.0
C605 C 0.73043 0.74532 0.04168 0.0
H606 H 0.75548 0.79301 0.94327 0.0
C607 C 0.87524 0.82945 0.01142 0.0
C608 C 0.87074 0.86632 0.9959 0.0
C609 C 0.84379 0.80302 0.01323 0.0
C610 C 0.74878 0.77992 0.97094 0.0
H611 H 0.63706 0.63075 0.05431 0.0
H612 H 0.69503 0.67203 0.04992 0.0
H613 H 0.69705 0.75231 0.94991 0.0
H614 H 0.83034 0.9038 0.96861 0.0
H615 H 0.77595 0.85774 0.97147 0.0
H616 H 0.7825 0.77288 0.06248 0.0
C617 C 0.66909 0.6812 0.03609 0.0
C618 C 0.71518 0.75683 0.97486 0.0
C619 C 0.6358 0.65752 0.03865 0.0
C620 C 0.83469 0.87573 0.98106 0.0
C621 C 0.80356 0.84925 0.9824 0.0
C622 C 0.76423 0.76819 0.03764 0.0
C623 C 0.6693 0.71533 0.0146 0.0
C624 C 0.70535 0.73956 0.0104 0.0
C625 C 0.8076 0.81283 -0.00106 0.0
C626 C 0.77351 0.78605 0.00235 0.0
H627 H 0.57611 0.70981 0.9838 0.0
H628 H 0.63399 0.752 0.9802 0.0
H629 H 0.72356 0.73284 0.06959 0.0
H630 H 0.90266 0.82146 0.02317 0.0
H631 H 0.8477 0.77499 0.0259 0.0
loop_
_geom_bond_atom_site_label_1
_geom_bond_atom_site_label_2
_geom_bond_distance
_geom_bond_site_symmetry_2
_ccdc_geom_bond_type
H0 O26 0.856 . S
H1 O29 0.854 . S
H2 C37 0.930 . S
H3 C38 0.930 . S
H4 C40 0.930 . S
H5 C41 0.930 . S
H6 C43 0.931 . S
H7 C44 0.930 . S
H8 C46 0.930 . S
H9 C47 0.929 . S
H10 C49 0.930 . S
H11 C50 0.931 . S
H12 C52 0.930 . S
H13 C53 0.929 . S
H14 C55 0.931 . S
H15 C56 0.930 . S
H16 C58 0.930 . S
H17 C59 0.932 . S
H18 C61 0.930 . S
H19 C62 0.929 . S
H20 C64 0.931 . S
H21 C65 0.930 . S
H22 C67 0.929 . S
H23 C68 0.931 . S
H24 C70 0.930 . S
H25 C71 0.929 . S
O26 H0 0.856 . S
O26 C72 1.300 1_455 S
O27 C72 1.209 . S
O28 C73 1.199 1_455 S
O29 H1 0.854 . S
O29 C73 1.297 . S
C30 C31 1.405 . S
C30 C35 1.397 1_655 S
C30 C36 1.490 1_655 S
C31 C30 1.405 . S
C31 C32 1.396 . S
C31 C42 1.492 . S
C32 C31 1.396 . S
C32 C33 1.397 . S
C32 C48 1.509 . S
C33 C32 1.397 . S
C33 C34 1.413 . S
C33 C54 1.485 . S
C34 C33 1.413 . S
C34 C35 1.389 1_655 S
C34 C60 1.490 1_655 S
C35 C30 1.397 1_455 S
C35 C34 1.389 1_455 S
C35 C66 1.519 1_455 S
C36 C30 1.490 1_455 S
C36 C37 1.363 . S
C36 C41 1.390 1_455 S
C37 H2 0.930 . S
C37 C36 1.363 . S
C37 C38 1.372 . S
C38 H3 0.930 . S
C38 C37 1.372 . S
C38 C39 1.383 . S
C39 C38 1.383 . S
C39 C40 1.395 1_455 S
C40 H4 0.930 . S
C40 C39 1.395 1_655 S
C40 C41 1.362 . S
C41 H5 0.930 . S
C41 C36 1.390 1_655 S
C41 C40 1.362 . S
C42 C31 1.492 . S
C42 C43 1.377 1_655 S
C42 C47 1.397 . S
C43 H6 0.931 . S
C43 C42 1.377 1_455 S
C43 C44 1.376 . S
C44 H7 0.930 . S
C44 C43 1.376 . S
C44 C45 1.376 1_455 S
C45 C44 1.376 1_655 S
C45 C46 1.378 . S
C45 C72 1.486 . S
C46 H8 0.930 . S
C46 C45 1.378 . S
C46 C47 1.376 . S
C47 H9 0.929 . S
C47 C42 1.397 . S
C47 C46 1.376 . S
C48 C32 1.509 . S
C48 C49 1.391 1_655 S
C48 C53 1.386 . S
C49 H10 0.930 . S
C49 C48 1.391 1_455 S
C49 C50 1.375 . S
C50 H11 0.931 . S
C50 C49 1.375 . S
C50 C51 1.375 1_455 S
C51 C50 1.375 1_655 S
C51 C52 1.361 . S
C52 H12 0.930 . S
C52 C51 1.361 . S
C52 C53 1.399 . S
C53 H13 0.929 . S
C53 C48 1.386 . S
C53 C52 1.399 . S
C54 C33 1.485 . S
C54 C55 1.394 1_655 S
C54 C59 1.360 . S
C55 H14 0.931 . S
C55 C54 1.394 1_455 S
C55 C56 1.372 . S
C56 H15 0.930 . S
C56 C55 1.372 . S
C56 C57 1.397 1_455 S
C57 C56 1.397 1_655 S
C57 C58 1.390 . S
C57 C73 1.476 . S
C58 H16 0.930 . S
C58 C57 1.390 . S
C58 C59 1.366 . S
C59 H17 0.932 . S
C59 C54 1.360 . S
C59 C58 1.366 . S
C60 C34 1.490 1_455 S
C60 C61 1.380 . S
C60 C65 1.386 1_455 S
C61 H18 0.930 . S
C61 C60 1.380 . S
C61 C62 1.381 . S
C62 H19 0.929 . S
C62 C61 1.381 . S
C62 C63 1.371 . S
C63 C62 1.371 . S
C63 C64 1.380 1_455 S
C64 H20 0.931 . S
C64 C63 1.380 1_655 S
C64 C65 1.387 . S
C65 H21 0.930 . S
C65 C60 1.386 1_655 S
C65 C64 1.387 . S
C66 C35 1.519 1_655 S
C66 C67 1.377 1_655 S
C66 C71 1.361 . S
C67 H22 0.929 . S
C67 C66 1.377 1_455 S
C67 C68 1.386 . S
C68 H23 0.931 . S
C68 C67 1.386 . S
C68 C69 1.363 1_455 S
C69 C68 1.363 1_655 S
C69 C70 1.385 . S
C70 H24 0.930 . S
C70 C69 1.385 . S
C70 C71 1.396 . S
C71 H25 0.929 . S
C71 C66 1.361 . S
C71 C70 1.396 . S
C72 O26 1.300 1_655 S
C72 O27 1.209 . S
C72 C45 1.486 . S
C73 O28 1.199 1_655 S
C73 O29 1.297 . S
C73 C57 1.476 . S
H74 O100 0.852 1_545 S
H75 O103 0.854 . S
H76 C111 0.930 . S
H77 C112 0.930 . S
H78 C114 0.930 . S
H79 C115 0.930 . S
H80 C117 0.931 . S
H81 C118 0.930 . S
H82 C120 0.930 . S
H83 C121 0.929 . S
H84 C123 0.930 . S
H85 C124 0.931 . S
H86 C126 0.930 . S
H87 C127 0.929 . S
H88 C129 0.931 . S
H89 C130 0.930 . S
H90 C132 0.930 . S
H91 C133 0.932 . S
H92 C135 0.930 . S
H93 C136 0.929 . S
H94 C138 0.931 . S
H95 C139 0.930 . S
H96 C141 0.929 . S
H97 C142 0.931 . S
H98 C144 0.930 . S
H99 C145 0.929 . S
O100 H74 0.852 1_565 S
O100 C146 1.300 1_565 S
O101 C146 1.209 . S
O102 C147 1.199 1_565 S
O103 H75 0.854 . S
O103 C147 1.297 . S
C104 C105 1.404 . S
C104 C109 1.397 . S
C104 C110 1.492 . S
C105 C104 1.404 . S
C105 C106 1.396 . S
C105 C116 1.492 . S
C106 C105 1.396 . S
C106 C107 1.397 . S
C106 C122 1.509 . S
C107 C106 1.397 . S
C107 C108 1.412 . S
C107 C128 1.485 . S
C108 C107 1.412 . S
C108 C109 1.388 . S
C108 C134 1.490 . S
C109 C104 1.397 . S
C109 C108 1.388 . S
C109 C140 1.519 . S
C110 C104 1.492 . S
C110 C111 1.363 1_545 S
C110 C115 1.390 . S
C111 H76 0.930 . S
C111 C110 1.363 1_565 S
C111 C112 1.372 . S
C112 H77 0.930 . S
C112 C111 1.372 . S
C112 C113 1.383 . S
C113 C112 1.383 . S
C113 C114 1.395 1_565 S
C114 H78 0.930 . S
C114 C113 1.395 1_545 S
C114 C115 1.362 . S
C115 H79 0.930 . S
C115 C110 1.390 . S
C115 C114 1.362 . S
C116 C105 1.492 . S
C116 C117 1.377 1_545 S
C116 C121 1.397 . S
C117 H80 0.931 . S
C117 C116 1.377 1_565 S
C117 C118 1.376 . S
C118 H81 0.930 . S
C118 C117 1.376 . S
C118 C119 1.376 1_565 S
C119 C118 1.376 1_545 S
C119 C120 1.378 . S
C119 C146 1.486 . S
C120 H82 0.930 . S
C120 C119 1.378 . S
C120 C121 1.376 . S
C121 H83 0.929 . S
C121 C116 1.397 . S
C121 C120 1.376 . S
C122 C106 1.509 . S
C122 C123 1.391 1_545 S
C122 C127 1.386 . S
C123 H84 0.930 . S
C123 C122 1.391 1_565 S
C123 C124 1.375 . S
C124 H85 0.931 . S
C124 C123 1.375 . S
C124 C125 1.375 1_565 S
C125 C124 1.375 1_545 S
C125 C126 1.361 . S
C126 H86 0.930 . S
C126 C125 1.361 . S
C126 C127 1.399 . S
C127 H87 0.929 . S
C127 C122 1.386 . S
C127 C126 1.399 . S
C128 C107 1.485 . S
C128 C129 1.394 1_545 S
C128 C133 1.360 . S
C129 H88 0.931 . S
C129 C128 1.394 1_565 S
C129 C130 1.372 . S
C130 H89 0.930 . S
C130 C129 1.372 . S
C130 C131 1.397 1_565 S
C131 C130 1.397 1_545 S
C131 C132 1.390 . S
C131 C147 1.476 . S
C132 H90 0.930 . S
C132 C131 1.390 . S
C132 C133 1.366 . S
C133 H91 0.932 . S
C133 C128 1.360 . S
C133 C132 1.366 . S
C134 C108 1.490 . S
C134 C135 1.380 1_545 S
C134 C139 1.386 . S
C135 H92 0.930 . S
C135 C134 1.380 1_565 S
C135 C136 1.381 . S
C136 H93 0.929 . S
C136 C135 1.381 . S
C136 C137 1.371 . S
C137 C136 1.371 . S
C137 C138 1.380 1_565 S
C138 H94 0.931 . S
C138 C137 1.380 1_545 S
C138 C139 1.387 . S
C139 H95 0.930 . S
C139 C134 1.386 . S
C139 C138 1.387 . S
C140 C109 1.519 . S
C140 C141 1.377 1_545 S
C140 C145 1.361 . S
C141 H96 0.929 . S
C141 C140 1.377 1_565 S
C141 C142 1.386 . S
C142 H97 0.931 . S
C142 C141 1.386 . S
C142 C143 1.363 1_565 S
C143 C142 1.363 1_545 S
C143 C144 1.385 . S
C144 H98 0.930 . S
C144 C143 1.385 . S
C144 C145 1.396 . S
C145 H99 0.929 . S
C145 C140 1.361 . S
C145 C144 1.396 . S
C146 O100 1.300 1_545 S
C146 O101 1.209 . S
C146 C119 1.486 . S
C147 O102 1.199 1_545 S
C147 O103 1.297 . S
C147 C131 1.476 . S
H148 O174 0.856 . S
H149 O177 0.854 . S
H150 C185 0.930 . S
H151 C186 0.930 . S
H152 C188 0.930 . S
H153 C189 0.930 . S
H154 C191 0.931 . S
H155 C192 0.930 . S
H156 C194 0.930 . S
H157 C195 0.929 . S
H158 C197 0.930 . S
H159 C198 0.931 . S
H160 C200 0.930 . S
H161 C201 0.929 . S
H162 C203 0.931 . S
H163 C204 0.930 . S
H164 C206 0.930 . S
H165 C207 0.932 . S
H166 C209 0.930 . S
H167 C210 0.929 . S
H168 C212 0.931 . S
H169 C213 0.930 . S
H170 C215 0.929 . S
H171 C216 0.931 . S
H172 C218 0.930 . S
H173 C219 0.929 . S
O174 H148 0.856 . S
O174 C220 1.300 1_556 S
O175 C220 1.209 . S
O176 C221 1.199 1_556 S
O177 H149 0.854 . S
O177 C221 1.297 . S
C178 C179 1.404 . S
C178 C183 1.397 . S
C178 C184 1.489 1_554 S
C179 C178 1.404 . S
C179 C180 1.396 . S
C179 C190 1.492 . S
C180 C179 1.396 . S
C180 C181 1.397 . S
C180 C196 1.509 . S
C181 C180 1.397 . S
C181 C182 1.412 . S
C181 C202 1.485 . S
C182 C181 1.412 . S
C182 C183 1.388 . S
C182 C208 1.490 1_554 S
C183 C178 1.397 . S
C183 C182 1.388 . S
C183 C214 1.519 . S
C184 C178 1.489 1_556 S
C184 C185 1.387 . S
C184 C189 1.370 1_556 S
C185 H150 0.930 . S
C185 C184 1.387 . S
C185 C186 1.372 . S
C186 H151 0.930 . S
C186 C185 1.372 . S
C186 C187 1.383 . S
C187 C186 1.383 . S
C187 C188 1.395 1_556 S
C188 H152 0.930 . S
C188 C187 1.395 1_554 S
C188 C189 1.362 . S
C189 H153 0.930 . S
C189 C184 1.370 1_554 S
C189 C188 1.362 . S
C190 C179 1.492 . S
C190 C191 1.377 1_554 S
C190 C195 1.397 . S
C191 H154 0.931 . S
C191 C190 1.377 1_556 S
C191 C192 1.376 . S
C192 H155 0.930 . S
C192 C191 1.376 . S
C192 C193 1.376 1_556 S
C193 C192 1.376 1_554 S
C193 C194 1.378 . S
C193 C220 1.486 . S
C194 H156 0.930 . S
C194 C193 1.378 . S
C194 C195 1.376 . S
C195 H157 0.929 . S
C195 C190 1.397 . S
C195 C194 1.376 . S
C196 C180 1.509 . S
C196 C197 1.391 1_554 S
C196 C201 1.386 . S
C197 H158 0.930 . S
C197 C196 1.391 1_556 S
C197 C198 1.375 . S
C198 H159 0.931 . S
C198 C197 1.375 . S
C198 C199 1.375 1_556 S
C199 C198 1.375 1_554 S
C199 C200 1.361 . S
C200 H160 0.930 . S
C200 C199 1.361 . S
C200 C201 1.399 . S
C201 H161 0.929 . S
C201 C196 1.386 . S
C201 C200 1.399 . S
C202 C181 1.485 . S
C202 C203 1.394 1_554 S
C202 C207 1.360 . S
C203 H162 0.931 . S
C203 C202 1.394 1_556 S
C203 C204 1.372 . S
C204 H163 0.930 . S
C204 C203 1.372 . S
C204 C205 1.397 1_556 S
C205 C204 1.397 1_554 S
C205 C206 1.390 . S
C205 C221 1.476 . S
C206 H164 0.930 . S
C206 C205 1.390 . S
C206 C207 1.366 . S
C207 H165 0.932 . S
C207 C202 1.360 . S
C207 C206 1.366 . S
C208 C182 1.490 1_556 S
C208 C209 1.380 . S
C208 C213 1.386 1_556 S
C209 H166 0.930 . S
C209 C208 1.380 . S
C209 C210 1.381 . S
C210 H167 0.929 . S
C210 C209 1.381 . S
C210 C211 1.371 . S
C211 C210 1.371 . S
C211 C212 1.380 1_556 S
C212 H168 0.931 . S
C212 C211 1.380 1_554 S
C212 C213 1.387 . S
C213 H169 0.930 . S
C213 C208 1.386 1_554 S
C213 C212 1.387 . S
C214 C183 1.519 . S
C214 C215 1.377 1_554 S
C214 C219 1.361 . S
C215 H170 0.929 . S
C215 C214 1.377 1_556 S
C215 C216 1.386 . S
C216 H171 0.931 . S
C216 C215 1.386 . S
C216 C217 1.363 1_556 S
C217 C216 1.363 1_554 S
C217 C218 1.385 . S
C218 H172 0.930 . S
C218 C217 1.385 . S
C218 C219 1.396 . S
C219 H173 0.929 . S
C219 C214 1.361 . S
C219 C218 1.396 . S
C220 O174 1.300 1_554 S
C220 O175 1.209 . S
C220 C193 1.486 . S
C221 O176 1.199 1_554 S
C221 O177 1.297 . S
C221 C205 1.476 . S
C222 O248 1.283 . S
C222 O266 1.283 . S
C223 O249 1.283 . S
C223 O264 1.283 . S
C224 O250 1.283 . S
C224 O267 1.283 . S
C225 O251 1.283 . S
C225 O265 1.283 . S
C226 O252 1.283 . S
C226 O261 1.283 . S
C227 O253 1.283 . S
C227 O263 1.283 . S
C228 O254 1.283 . S
C228 O260 1.283 . S
C229 O255 1.283 . S
C229 O262 1.283 . S
C230 O256 1.283 . S
C230 O271 1.283 . S
C231 O257 1.283 . S
C231 O269 1.283 . S
C232 O258 1.283 . S
C232 O270 1.283 . S
C233 O259 1.283 . S
C233 O268 1.283 . S
Eu234 O235 2.370 . S
Eu234 O236 2.370 1_454 S
Eu234 O239 2.370 1_554 S
Eu234 O240 2.370 1_455 S
Eu234 O248 2.363 1_554 S
Eu234 O249 2.363 . S
Eu234 O262 2.363 1_455 S
Eu234 O263 2.363 . S
O235 Eu234 2.370 . S
O235 Eu237 2.376 . S
O235 Eu242 2.370 . S
O236 Eu234 2.370 1_656 S
O236 Eu238 2.370 1_556 S
O236 Eu241 2.370 1_655 S
Eu237 O235 2.376 . S
Eu237 O239 2.364 1_554 S
Eu237 O243 2.364 1_544 S
Eu237 O244 2.376 1_545 S
Eu237 O252 2.364 1_544 S
Eu237 O253 2.363 . S
Eu237 O268 2.353 1_554 S
Eu237 O269 2.373 . S
Eu238 O236 2.370 1_554 S
Eu238 O240 2.370 . S
Eu238 O245 2.370 1_545 S
Eu238 O246 2.370 1_544 S
Eu238 O254 2.363 1_545 S
Eu238 O255 2.363 . S
Eu238 O270 2.363 1_554 S
Eu238 O271 2.363 . S
O239 Eu234 2.370 1_556 S
O239 Eu237 2.364 1_556 S
O239 Eu241 2.370 . S
O240 Eu234 2.370 1_655 S
O240 Eu238 2.370 . S
O240 Eu242 2.371 1_655 S
Eu241 O236 2.370 1_455 S
Eu241 O239 2.370 . S
Eu241 O243 2.370 1_545 S
Eu241 O246 2.370 1_445 S
Eu241 O258 2.363 1_455 S
Eu241 O259 2.363 . S
Eu241 O266 2.363 . S
Eu241 O267 2.363 1_545 S
Eu242 O235 2.370 . S
Eu242 O240 2.371 1_455 S
Eu242 O244 2.370 1_545 S
Eu242 O245 2.371 1_445 S
Eu242 O256 2.364 1_455 S
Eu242 O257 2.362 . S
Eu242 O264 2.363 . S
Eu242 O265 2.363 1_445 S
O243 Eu237 2.364 1_566 S
O243 Eu241 2.370 1_565 S
O243 Eu247 2.364 1_556 S
O244 Eu237 2.376 1_565 S
O244 Eu242 2.370 1_565 S
O244 Eu247 2.376 . S
O245 Eu238 2.370 1_565 S
O245 Eu242 2.371 1_665 S
O245 Eu247 2.377 1_655 S
O246 Eu238 2.370 1_566 S
O246 Eu241 2.370 1_665 S
O246 Eu247 2.364 1_656 S
Eu247 O243 2.364 1_554 S
Eu247 O244 2.376 . S
Eu247 O245 2.377 1_455 S
Eu247 O246 2.364 1_454 S
Eu247 O250 2.353 1_554 S
Eu247 O251 2.373 1_455 S
Eu247 O260 2.364 1_455 S
Eu247 O261 2.363 1_554 S
O248 C222 1.283 . S
O248 Eu234 2.363 1_556 S
O249 C223 1.283 . S
O249 Eu234 2.363 . S
O250 C224 1.283 . S
O250 Eu247 2.353 1_556 S
O251 C225 1.283 . S
O251 Eu247 2.373 1_655 S
O252 C226 1.283 . S
O252 Eu237 2.364 1_566 S
O253 C227 1.283 . S
O253 Eu237 2.363 . S
O254 C228 1.283 . S
O254 Eu238 2.363 1_565 S
O255 C229 1.283 . S
O255 Eu238 2.363 . S
O256 C230 1.283 . S
O256 Eu242 2.364 1_655 S
O257 C231 1.283 . S
O257 Eu242 2.362 . S
O258 C232 1.283 . S
O258 Eu241 2.363 1_655 S
O259 C233 1.283 . S
O259 Eu241 2.363 . S
O260 C228 1.283 . S
O260 Eu247 2.364 1_655 S
O261 C226 1.283 . S
O261 Eu247 2.363 1_556 S
O262 C229 1.283 . S
O262 Eu234 2.363 1_655 S
O263 C227 1.283 . S
O263 Eu234 2.363 . S
O264 C223 1.283 . S
O264 Eu242 2.363 . S
O265 C225 1.283 . S
O265 Eu242 2.363 1_665 S
O266 C222 1.283 . S
O266 Eu241 2.363 . S
O267 C224 1.283 . S
O267 Eu241 2.363 1_565 S
O268 C233 1.283 . S
O268 Eu237 2.353 1_556 S
O269 C231 1.283 . S
O269 Eu237 2.373 . S
O270 C232 1.283 . S
O270 Eu238 2.363 1_556 S
O271 C230 1.283 . S
O271 Eu238 2.363 . S
C272 C273 1.349 . S
C272 C274 1.327 . S
C272 H297 0.950 . S
C273 C272 1.349 . S
C273 C289 1.349 1_455 S
C274 C272 1.327 . S
C274 C293 1.429 . S
C274 H298 0.950 . S
C275 C292 1.574 . S
C275 C294 1.368 1_655 S
C275 H299 0.949 . S
H276 C280 0.949 . S
C277 C278 1.349 1_655 S
C277 C279 1.327 . S
C277 H300 0.950 . S
C278 C277 1.349 1_455 S
C278 C290 1.349 . S
C279 C277 1.327 . S
C279 C295 1.429 1_655 S
C279 H301 0.950 . S
C280 H276 0.949 . S
C280 C288 1.574 . S
C280 C296 1.368 . S
H281 C289 0.950 . S
H282 C287 0.950 . S
H283 C288 0.949 . S
H284 C290 0.950 . S
H285 C291 0.950 . S
H286 C292 0.949 . S
C287 H282 0.950 . S
C287 C289 1.327 . S
C287 C293 1.429 1_655 S
C288 C280 1.574 . S
C288 H283 0.949 . S
C288 C294 1.368 . S
C289 C273 1.349 1_655 S
C289 H281 0.950 . S
C289 C287 1.327 . S
C290 C278 1.349 . S
C290 H284 0.950 . S
C290 C291 1.327 . S
C291 H285 0.950 . S
C291 C290 1.327 . S
C291 C295 1.429 . S
C292 C275 1.574 . S
C292 H286 0.949 . S
C292 C296 1.368 1_655 S
C293 C274 1.429 . S
C293 C287 1.429 1_455 S
C293 C294 1.523 . S
C294 C275 1.368 1_455 S
C294 C288 1.368 . S
C294 C293 1.523 . S
C295 C279 1.429 1_455 S
C295 C291 1.429 . S
C295 C296 1.523 . S
C296 C280 1.368 . S
C296 C292 1.368 1_455 S
C296 C295 1.523 . S
H297 C272 0.950 . S
H298 C274 0.950 . S
H299 C275 0.949 . S
H300 C277 0.950 . S
H301 C279 0.950 . S
C302 C303 1.349 . S
C302 C304 1.327 . S
C302 H327 0.950 . S
C303 C302 1.349 . S
C303 C319 1.349 1_565 S
C304 C302 1.327 . S
C304 C323 1.429 . S
C304 H328 0.950 . S
C305 C322 1.574 . S
C305 C324 1.368 1_545 S
C305 H329 0.949 . S
H306 C310 0.949 . S
C307 C308 1.349 . S
C307 C309 1.327 . S
C307 H330 0.950 . S
C308 C307 1.349 . S
C308 C320 1.349 1_545 S
C309 C307 1.327 . S
C309 C325 1.429 . S
C309 H331 0.950 . S
C310 H306 0.949 . S
C310 C318 1.574 . S
C310 C326 1.366 . S
H311 C319 0.950 . S
H312 C317 0.950 . S
H313 C318 0.949 . S
H314 C320 0.950 . S
H315 C321 0.950 . S
H316 C322 0.949 . S
C317 H312 0.950 . S
C317 C319 1.327 . S
C317 C323 1.429 1_545 S
C318 C310 1.574 . S
C318 H313 0.949 . S
C318 C324 1.368 . S
C319 C303 1.349 1_545 S
C319 H311 0.950 . S
C319 C317 1.327 . S
C320 C308 1.349 1_565 S
C320 H314 0.950 . S
C320 C321 1.327 . S
C321 H315 0.950 . S
C321 C320 1.327 . S
C321 C325 1.429 1_565 S
C322 C305 1.574 . S
C322 H316 0.949 . S
C322 C326 1.370 1_545 S
C323 C304 1.429 . S
C323 C317 1.429 1_565 S
C323 C324 1.523 . S
C324 C305 1.368 1_565 S
C324 C318 1.368 . S
C324 C323 1.523 . S
C325 C309 1.429 . S
C325 C321 1.429 1_545 S
C325 C326 1.523 1_545 S
C326 C310 1.366 . S
C326 C322 1.370 1_565 S
C326 C325 1.523 1_565 S
H327 C302 0.950 . S
H328 C304 0.950 . S
H329 C305 0.949 . S
H330 C307 0.950 . S
H331 C309 0.950 . S
C332 C333 1.349 . S
C332 C334 1.327 . S
C332 H357 0.950 . S
C333 C332 1.349 . S
C333 C349 1.349 1_655 S
C334 C332 1.327 . S
C334 C353 1.429 . S
C334 H358 0.950 . S
C335 C352 1.574 . S
C335 C354 1.368 1_455 S
C335 H359 0.949 . S
H336 C340 0.949 . S
C337 C338 1.349 1_455 S
C337 C339 1.327 . S
C337 H360 0.950 . S
C338 C337 1.349 1_655 S
C338 C350 1.349 . S
C339 C337 1.327 . S
C339 C355 1.429 1_455 S
C339 H361 0.950 . S
C340 H336 0.949 . S
C340 C348 1.574 . S
C340 C356 1.368 . S
H341 C349 0.950 . S
H342 C347 0.950 . S
H343 C348 0.949 . S
H344 C350 0.950 . S
H345 C351 0.950 . S
H346 C352 0.949 . S
C347 H342 0.950 . S
C347 C349 1.327 . S
C347 C353 1.429 1_455 S
C348 C340 1.574 . S
C348 H343 0.949 . S
C348 C354 1.368 . S
C349 C333 1.349 1_455 S
C349 H341 0.950 . S
C349 C347 1.327 . S
C350 C338 1.349 . S
C350 H344 0.950 . S
C350 C351 1.327 . S
C351 H345 0.950 . S
C351 C350 1.327 . S
C351 C355 1.429 . S
C352 C335 1.574 . S
C352 H346 0.949 . S
C352 C356 1.368 1_455 S
C353 C334 1.429 . S
C353 C347 1.429 1_655 S
C353 C354 1.523 . S
C354 C335 1.368 1_655 S
C354 C348 1.368 . S
C354 C353 1.523 . S
C355 C339 1.429 1_655 S
C355 C351 1.429 . S
C355 C356 1.523 . S
C356 C340 1.368 . S
C356 C352 1.368 1_655 S
C356 C355 1.523 . S
H357 C332 0.950 . S
H358 C334 0.950 . S
H359 C335 0.949 . S
H360 C337 0.950 . S
H361 C339 0.950 . S
C362 C363 1.349 . S
C362 C364 1.327 . S
C362 H387 0.950 . S
C363 C362 1.349 . S
C363 C379 1.349 1_545 S
C364 C362 1.327 . S
C364 C383 1.429 . S
C364 H388 0.950 . S
C365 C382 1.574 . S
C365 C384 1.368 1_565 S
C365 H389 0.949 . S
H366 C370 0.949 . S
C367 C368 1.349 1_565 S
C367 C369 1.327 . S
C367 H390 0.950 . S
C368 C367 1.349 1_545 S
C368 C380 1.349 . S
C369 C367 1.327 . S
C369 C385 1.429 1_565 S
C369 H391 0.950 . S
C370 H366 0.949 . S
C370 C378 1.574 . S
C370 C386 1.368 . S
H371 C379 0.950 . S
H372 C377 0.950 . S
H373 C378 0.949 . S
H374 C380 0.950 . S
H375 C381 0.950 . S
H376 C382 0.949 . S
C377 H372 0.950 . S
C377 C379 1.327 . S
C377 C383 1.429 1_565 S
C378 C370 1.574 . S
C378 H373 0.949 . S
C378 C384 1.368 . S
C379 C363 1.349 1_565 S
C379 H371 0.950 . S
C379 C377 1.327 . S
C380 C368 1.349 . S
C380 H374 0.950 . S
C380 C381 1.327 . S
C381 H375 0.950 . S
C381 C380 1.327 . S
C381 C385 1.429 . S
C382 C365 1.574 . S
C382 H376 0.949 . S
C382 C386 1.368 1_565 S
C383 C364 1.429 . S
C383 C377 1.429 1_545 S
C383 C384 1.523 . S
C384 C365 1.368 1_545 S
C384 C378 1.368 . S
C384 C383 1.523 . S
C385 C369 1.429 1_545 S
C385 C381 1.429 . S
C385 C386 1.523 . S
C386 C370 1.368 . S
C386 C382 1.368 1_545 S
C386 C385 1.523 . S
H387 C362 0.950 . S
H388 C364 0.950 . S
H389 C365 0.949 . S
H390 C367 0.950 . S
H391 C369 0.950 . S
C392 C393 1.349 . S
C392 C394 1.327 . S
C392 H417 0.950 . S
C393 C392 1.349 . S
C393 C409 1.349 . S
C394 C392 1.327 . S
C394 C413 1.429 . S
C394 H418 0.950 . S
C395 C412 1.574 . S
C395 C414 1.368 . S
C395 H419 0.949 . S
H396 C400 0.949 1_655 S
C397 C398 1.349 . S
C397 C399 1.327 . S
C397 H420 0.950 . S
C398 C397 1.349 . S
C398 C410 1.349 1_455 S
C399 C397 1.327 . S
C399 C415 1.429 . S
C399 H421 0.950 . S
C400 H396 0.949 1_455 S
C400 C408 1.574 . S
C400 C416 1.368 . S
H401 C409 0.950 . S
H402 C407 0.950 . S
H403 C408 0.951 . S
H404 C410 0.950 . S
H405 C411 0.950 . S
H406 C412 0.949 . S
C407 H402 0.950 . S
C407 C409 1.327 . S
C407 C413 1.429 . S
C408 C400 1.574 . S
C408 H403 0.951 . S
C408 C414 1.368 . S
C409 C393 1.349 . S
C409 H401 0.950 . S
C409 C407 1.327 . S
C410 C398 1.349 1_655 S
C410 H404 0.950 . S
C410 C411 1.327 . S
C411 H405 0.950 . S
C411 C410 1.327 . S
C411 C415 1.429 1_655 S
C412 C395 1.574 . S
C412 H406 0.949 . S
C412 C416 1.368 . S
C413 C394 1.429 . S
C413 C407 1.429 . S
C413 C414 1.523 . S
C414 C395 1.368 . S
C414 C408 1.368 . S
C414 C413 1.523 . S
C415 C399 1.429 . S
C415 C411 1.429 1_455 S
C415 C416 1.523 . S
C416 C400 1.368 . S
C416 C412 1.368 . S
C416 C415 1.523 . S
H417 C392 0.950 . S
H418 C394 0.950 . S
H419 C395 0.949 . S
H420 C397 0.950 . S
H421 C399 0.950 . S
C422 C423 1.349 1_545 S
C422 C424 1.327 . S
C422 H447 0.950 . S
C423 C422 1.349 1_565 S
C423 C439 1.349 . S
C424 C422 1.327 . S
C424 C443 1.429 1_545 S
C424 H448 0.950 . S
C425 C442 1.574 . S
C425 C444 1.368 . S
C425 H449 0.949 . S
H426 C430 0.949 . S
C427 C428 1.349 1_565 S
C427 C429 1.327 . S
C427 H450 0.950 . S
C428 C427 1.349 1_545 S
C428 C440 1.349 . S
C429 C427 1.327 . S
C429 C445 1.429 1_565 S
C429 H451 0.950 . S
C430 H426 0.949 . S
C430 C438 1.574 . S
C430 C446 1.368 1_545 S
H431 C439 0.950 . S
H432 C437 0.950 . S
H433 C438 0.949 . S
H434 C440 0.950 . S
H435 C441 0.950 . S
H436 C442 0.949 . S
C437 H432 0.950 . S
C437 C439 1.327 . S
C437 C443 1.429 . S
C438 C430 1.574 . S
C438 H433 0.949 . S
C438 C444 1.368 1_545 S
C439 C423 1.349 . S
C439 H431 0.950 . S
C439 C437 1.327 . S
C440 C428 1.349 . S
C440 H434 0.950 . S
C440 C441 1.327 . S
C441 H435 0.950 . S
C441 C440 1.327 . S
C441 C445 1.429 . S
C442 C425 1.574 . S
C442 H436 0.949 . S
C442 C446 1.368 . S
C443 C424 1.429 1_565 S
C443 C437 1.429 . S
C443 C444 1.523 . S
C444 C425 1.368 . S
C444 C438 1.368 1_565 S
C444 C443 1.523 . S
C445 C429 1.429 1_545 S
C445 C441 1.429 . S
C445 C446 1.523 1_545 S
C446 C430 1.368 1_565 S
C446 C442 1.368 . S
C446 C445 1.523 1_565 S
H447 C422 0.950 . S
H448 C424 0.950 . S
H449 C425 0.949 . S
H450 C427 0.950 . S
H451 C429 0.950 . S
C452 C453 1.349 . S
C452 C454 1.327 . S
C452 H477 0.950 . S
C453 C452 1.349 . S
C453 C469 1.349 . S
C454 C452 1.327 . S
C454 C473 1.429 . S
C454 H478 0.944 1_655 S
C455 C472 1.574 . S
C455 C474 1.368 . S
C455 H479 0.949 . S
H456 C460 0.949 . S
C457 C458 1.349 1_655 S
C457 C459 1.327 . S
C457 H480 0.950 . S
C458 C457 1.349 1_455 S
C458 C470 1.349 . S
C459 C457 1.327 . S
C459 C475 1.429 . S
C459 H481 0.950 . S
C460 H456 0.949 . S
C460 C468 1.574 1_455 S
C460 C476 1.368 1_455 S
H461 C469 0.950 . S
H462 C467 0.950 . S
H463 C468 0.949 1_455 S
H464 C470 0.950 . S
H465 C471 0.950 . S
H466 C472 0.949 . S
C467 H462 0.950 . S
C467 C469 1.327 . S
C467 C473 1.429 . S
C468 C460 1.574 1_655 S
C468 H463 0.949 1_655 S
C468 C474 1.369 . S
C469 C453 1.349 . S
C469 H461 0.950 . S
C469 C467 1.327 . S
C470 C458 1.349 . S
C470 H464 0.950 . S
C470 C471 1.327 . S
C471 H465 0.950 . S
C471 C470 1.327 . S
C471 C475 1.429 1_455 S
C472 C455 1.574 . S
C472 H466 0.949 . S
C472 C476 1.368 . S
C473 C454 1.429 . S
C473 C467 1.429 . S
C473 C474 1.523 . S
C474 C455 1.368 . S
C474 C468 1.369 . S
C474 C473 1.523 . S
C475 C459 1.429 . S
C475 C471 1.429 1_655 S
C475 C476 1.523 . S
C476 C460 1.368 1_655 S
C476 C472 1.368 . S
C476 C475 1.523 . S
H477 C452 0.950 . S
H478 C454 0.944 1_455 S
H479 C455 0.949 . S
H480 C457 0.950 . S
H481 C459 0.950 . S
C482 C483 1.349 . S
C482 C484 1.327 . S
C482 H507 0.950 . S
C483 C482 1.349 . S
C483 C499 1.349 1_545 S
C484 C482 1.327 . S
C484 C503 1.429 . S
C484 H508 0.950 . S
C485 C502 1.574 . S
C485 C504 1.368 1_565 S
C485 H509 0.949 . S
H486 C490 0.949 . S
C487 C488 1.349 1_565 S
C487 C489 1.327 . S
C487 H510 0.950 . S
C488 C487 1.349 1_545 S
C488 C500 1.349 . S
C489 C487 1.327 . S
C489 C505 1.429 1_565 S
C489 H511 0.950 . S
C490 H486 0.949 . S
C490 C498 1.574 . S
C490 C506 1.368 . S
H491 C499 0.950 . S
H492 C497 0.950 . S
H493 C498 0.949 . S
H494 C500 0.950 . S
H495 C501 0.950 . S
H496 C502 0.949 . S
C497 H492 0.950 . S
C497 C499 1.327 . S
C497 C503 1.429 1_565 S
C498 C490 1.574 . S
C498 H493 0.949 . S
C498 C504 1.368 . S
C499 C483 1.349 1_565 S
C499 H491 0.950 . S
C499 C497 1.327 . S
C500 C488 1.349 . S
C500 H494 0.950 . S
C500 C501 1.327 . S
C501 H495 0.950 . S
C501 C500 1.327 . S
C501 C505 1.429 . S
C502 C485 1.574 . S
C502 H496 0.949 . S
C502 C506 1.368 1_565 S
C503 C484 1.429 . S
C503 C497 1.429 1_545 S
C503 C504 1.523 . S
C504 C485 1.368 1_545 S
C504 C498 1.368 . S
C504 C503 1.523 . S
C505 C489 1.429 1_545 S
C505 C501 1.429 . S
C505 C506 1.523 . S
C506 C490 1.368 . S
C506 C502 1.368 1_545 S
C506 C505 1.523 . S
H507 C482 0.950 . S
H508 C484 0.950 . S
H509 C485 0.949 . S
H510 C487 0.950 . S
H511 C489 0.950 . S
C512 C513 1.349 . S
C512 C514 1.327 . S
C512 H537 0.950 . S
C513 C512 1.349 . S
C513 C529 1.349 1_556 S
C514 C512 1.327 . S
C514 C533 1.429 . S
C514 H538 0.950 . S
C515 C532 1.574 . S
C515 C534 1.368 1_554 S
C515 H539 0.949 . S
H516 C520 0.949 . S
C517 C518 1.352 . S
C517 C519 1.327 . S
C517 H540 0.950 . S
C518 C517 1.352 . S
C518 C530 1.345 1_554 S
C519 C517 1.327 . S
C519 C535 1.429 1_554 S
C519 H541 0.950 . S
C520 H516 0.949 . S
C520 C528 1.574 . S
C520 C536 1.368 . S
H521 C529 0.950 . S
H522 C527 0.950 . S
H523 C528 0.949 . S
H524 C530 0.950 . S
H525 C531 0.950 . S
H526 C532 0.949 . S
C527 H522 0.950 . S
C527 C529 1.327 . S
C527 C533 1.429 1_554 S
C528 C520 1.574 . S
C528 H523 0.949 . S
C528 C534 1.368 . S
C529 C513 1.349 1_554 S
C529 H521 0.950 . S
C529 C527 1.327 . S
C530 C518 1.345 1_556 S
C530 H524 0.950 . S
C530 C531 1.327 . S
C531 H525 0.950 . S
C531 C530 1.327 . S
C531 C535 1.429 . S
C532 C515 1.574 . S
C532 H526 0.949 . S
C532 C536 1.368 1_554 S
C533 C514 1.429 . S
C533 C527 1.429 1_556 S
C533 C534 1.523 . S
C534 C515 1.368 1_556 S
C534 C528 1.368 . S
C534 C533 1.523 . S
C535 C519 1.429 1_556 S
C535 C531 1.429 . S
C535 C536 1.523 . S
C536 C520 1.368 . S
C536 C532 1.368 1_556 S
C536 C535 1.523 . S
H537 C512 0.950 . S
H538 C514 0.950 . S
H539 C515 0.949 . S
H540 C517 0.950 . S
H541 C519 0.950 . S
C542 C543 1.349 . S
C542 C544 1.327 . S
C542 H567 0.950 . S
C543 C542 1.349 . S
C543 C559 1.349 1_554 S
C544 C542 1.327 . S
C544 C563 1.429 . S
C544 H568 0.950 . S
C545 C562 1.574 . S
C545 C564 1.368 1_556 S
C545 H569 0.949 . S
H546 C550 0.949 . S
C547 C548 1.348 1_556 S
C547 C549 1.327 . S
C547 H570 0.950 . S
C548 C547 1.348 1_554 S
C548 C560 1.350 . S
C549 C547 1.327 . S
C549 C565 1.429 1_556 S
C549 H571 0.950 . S
C550 H546 0.949 . S
C550 C558 1.574 . S
C550 C566 1.368 . S
H551 C559 0.950 . S
H552 C557 0.950 . S
H553 C558 0.949 . S
H554 C560 0.950 . S
H555 C561 0.950 . S
H556 C562 0.949 . S
C557 H552 0.950 . S
C557 C559 1.327 . S
C557 C563 1.429 1_556 S
C558 C550 1.574 . S
C558 H553 0.949 . S
C558 C564 1.368 . S
C559 C543 1.349 1_556 S
C559 H551 0.950 . S
C559 C557 1.327 . S
C560 C548 1.350 . S
C560 H554 0.950 . S
C560 C561 1.327 . S
C561 H555 0.950 . S
C561 C560 1.327 . S
C561 C565 1.429 . S
C562 C545 1.574 . S
C562 H556 0.949 . S
C562 C566 1.368 1_556 S
C563 C544 1.429 . S
C563 C557 1.429 1_554 S
C563 C564 1.523 . S
C564 C545 1.368 1_554 S
C564 C558 1.368 . S
C564 C563 1.523 . S
C565 C549 1.429 1_554 S
C565 C561 1.429 . S
C565 C566 1.523 . S
C566 C550 1.368 . S
C566 C562 1.368 1_554 S
C566 C565 1.523 . S
H567 C542 0.950 . S
H568 C544 0.950 . S
H569 C545 0.949 . S
H570 C547 0.950 . S
H571 C549 0.950 . S
C572 C573 1.349 . S
C572 C574 1.327 . S
C572 H597 0.950 . S
C573 C572 1.349 . S
C573 C589 1.349 1_554 S
C574 C572 1.327 . S
C574 C593 1.429 . S
C574 H598 0.950 . S
C575 C592 1.574 . S
C575 C594 1.368 1_556 S
C575 H599 0.949 . S
H576 C580 0.949 . S
C577 C578 1.349 1_556 S
C577 C579 1.327 . S
C577 H600 0.950 . S
C578 C577 1.349 1_554 S
C578 C590 1.349 . S
C579 C577 1.327 . S
C579 C595 1.429 1_556 S
C579 H601 0.950 . S
C580 H576 0.949 . S
C580 C588 1.574 . S
C580 C596 1.368 . S
H581 C589 0.950 . S
H582 C587 0.950 . S
H583 C588 0.949 . S
H584 C590 0.950 . S
H585 C591 0.950 . S
H586 C592 0.949 . S
C587 H582 0.950 . S
C587 C589 1.327 . S
C587 C593 1.429 1_556 S
C588 C580 1.574 . S
C588 H583 0.949 . S
C588 C594 1.368 . S
C589 C573 1.349 1_556 S
C589 H581 0.950 . S
C589 C587 1.327 . S
C590 C578 1.349 . S
C590 H584 0.950 . S
C590 C591 1.327 . S
C591 H585 0.950 . S
C591 C590 1.327 . S
C591 C595 1.429 . S
C592 C575 1.574 . S
C592 H586 0.949 . S
C592 C596 1.368 1_556 S
C593 C574 1.429 . S
C593 C587 1.429 1_554 S
C593 C594 1.523 . S
C594 C575 1.368 1_554 S
C594 C588 1.368 . S
C594 C593 1.523 . S
C595 C579 1.429 1_554 S
C595 C591 1.429 . S
C595 C596 1.523 . S
C596 C580 1.368 . S
C596 C592 1.368 1_554 S
C596 C595 1.523 . S
H597 C572 0.950 . S
H598 C574 0.950 . S
H599 C575 0.949 . S
H600 C577 0.950 . S
H601 C579 0.950 . S
C602 C603 1.349 . S
C602 C604 1.327 . S
C602 H627 0.950 . S
C603 C602 1.349 . S
C603 C619 1.349 1_556 S
C604 C602 1.327 . S
C604 C623 1.429 . S
C604 H628 0.950 . S
C605 C622 1.574 . S
C605 C624 1.368 1_554 S
C605 H629 0.949 . S
H606 C610 0.949 . S
C607 C608 1.353 . S
C607 C609 1.327 . S
C607 H630 0.950 . S
C608 C607 1.353 . S
C608 C620 1.345 1_554 S
C609 C607 1.327 . S
C609 C625 1.429 1_554 S
C609 H631 0.950 . S
C610 H606 0.949 . S
C610 C618 1.574 . S
C610 C626 1.368 . S
H611 C619 0.950 . S
H612 C617 0.950 . S
H613 C618 0.949 . S
H614 C620 0.950 . S
H615 C621 0.950 . S
H616 C622 0.949 . S
C617 H612 0.950 . S
C617 C619 1.327 . S
C617 C623 1.429 1_554 S
C618 C610 1.574 . S
C618 H613 0.949 . S
C618 C624 1.368 . S
C619 C603 1.349 1_554 S
C619 H611 0.950 . S
C619 C617 1.327 . S
C620 C608 1.345 1_556 S
C620 H614 0.950 . S
C620 C621 1.327 . S
C621 H615 0.950 . S
C621 C620 1.327 . S
C621 C625 1.429 . S
C622 C605 1.574 . S
C622 H616 0.949 . S
C622 C626 1.368 1_554 S
C623 C604 1.429 . S
C623 C617 1.429 1_556 S
C623 C624 1.523 . S
C624 C605 1.368 1_556 S
C624 C618 1.368 . S
C624 C623 1.523 . S
C625 C609 1.429 1_556 S
C625 C621 1.429 . S
C625 C626 1.523 . S
C626 C610 1.368 . S
C626 C622 1.368 1_556 S
C626 C625 1.523 . S
H627 C602 0.950 . S
H628 C604 0.950 . S
H629 C605 0.949 . S
H630 C607 0.950 . S
H631 C609 0.950 . S
C278 C223 1.654 . S
C273 C39 1.562 . S
C308 C230 1.671 . S
C303 C113 1.578 . S
C338 C225 2.146 . S
C333 C69 2.140 . S
C368 C231 0.733 . S
C363 C125 0.733 . S
C393 C63 1.524 . S
C398 C224 1.604 . S
C428 C233 1.621 . S
C423 C137 1.540 . S
C453 C51 0.723 . S
C458 C222 0.723 . S
C483 C143 2.159 . S
C488 C232 2.165 . S
C513 C187 1.570 . S
C518 C227 1.662 . S
C543 C217 2.151 . S
C548 C226 2.156 1_554 S
C578 C229 0.725 . S
C573 C199 0.725 . S
C608 C228 1.613 . S
C603 C211 1.533 . S
