# Generated by pormake.
# Topology eea, (3,6)-cn, num edge types: 1
# Building blocks:
#     Node 0, Type 0, BuildingBlock: VETTIZ_charged_linker_0, # of connection points: 3
#     Node 1, Type 0, BuildingBlock: VETTIZ_charged_linker_0, # of connection points: 3
#     Node 2, Type 0, BuildingBlock: VETTIZ_charged_linker_0, # of connection points: 3
#     Node 3, Type 0, BuildingBlock: VETTIZ_charged_linker_0, # of connection points: 3
#     Node 4, Type 0, BuildingBlock: VETTIZ_charged_linker_0, # of connection points: 3
#     Node 5, Type 0, BuildingBlock: VETTIZ_charged_linker_0, # of connection points: 3
#     Node 6, Type 0, BuildingBlock: VETTIZ_charged_linker_0, # of connection points: 3
#     Node 7, Type 0, BuildingBlock: VETTIZ_charged_linker_0, # of connection points: 3
#     Node 8, Type 0, BuildingBlock: VETTIZ_charged_linker_0, # of connection points: 3
#     Node 9, Type 0, BuildingBlock: VETTIZ_charged_linker_0, # of connection points: 3
#     Node 10, Type 0, BuildingBlock: VETTIZ_charged_linker_0, # of connection points: 3
#     Node 11, Type 0, BuildingBlock: VETTIZ_charged_linker_0, # of connection points: 3
#     Node 12, Type 0, BuildingBlock: VETTIZ_charged_linker_0, # of connection points: 3
#     Node 13, Type 0, BuildingBlock: VETTIZ_charged_linker_0, # of connection points: 3
#     Node 14, Type 0, BuildingBlock: VETTIZ_charged_linker_0, # of connection points: 3
#     Node 15, Type 0, BuildingBlock: VETTIZ_charged_linker_0, # of connection points: 3
#     Node 16, Type 0, BuildingBlock: VETTIZ_charged_linker_0, # of connection points: 3
#     Node 17, Type 0, BuildingBlock: VETTIZ_charged_linker_0, # of connection points: 3
#     Node 18, Type 1, BuildingBlock: KUMBUR_clean_sbu_0, # of connection points: 6
#     Node 19, Type 1, BuildingBlock: KUMBUR_clean_sbu_0, # of connection points: 6
#     Node 20, Type 1, BuildingBlock: KUMBUR_clean_sbu_0, # of connection points: 6
#     Node 21, Type 1, BuildingBlock: KUMBUR_clean_sbu_0, # of connection points: 6
#     Node 22, Type 1, BuildingBlock: KUMBUR_clean_sbu_0, # of connection points: 6
#     Node 23, Type 1, BuildingBlock: KUMBUR_clean_sbu_0, # of connection points: 6
#     Node 24, Type 1, BuildingBlock: KUMBUR_clean_sbu_0, # of connection points: 6
#     Node 25, Type 1, BuildingBlock: KUMBUR_clean_sbu_0, # of connection points: 6
#     Node 26, Type 1, BuildingBlock: KUMBUR_clean_sbu_0, # of connection points: 6
#     Edge 27, Type (0, 1), BuildingBlock: TEMPAE_clean_linker_10, # of connection points: 2
#     Edge 28, Type (0, 1), BuildingBlock: TEMPAE_clean_linker_10, # of connection points: 2
#     Edge 29, Type (0, 1), BuildingBlock: TEMPAE_clean_linker_10, # of connection points: 2
#     Edge 30, Type (0, 1), BuildingBlock: TEMPAE_clean_linker_10, # of connection points: 2
#     Edge 31, Type (0, 1), BuildingBlock: TEMPAE_clean_linker_10, # of connection points: 2
#     Edge 32, Type (0, 1), BuildingBlock: TEMPAE_clean_linker_10, # of connection points: 2
#     Edge 33, Type (0, 1), BuildingBlock: TEMPAE_clean_linker_10, # of connection points: 2
#     Edge 34, Type (0, 1), BuildingBlock: TEMPAE_clean_linker_10, # of connection points: 2
#     Edge 35, Type (0, 1), BuildingBlock: TEMPAE_clean_linker_10, # of connection points: 2
#     Edge 36, Type (0, 1), BuildingBlock: TEMPAE_clean_linker_10, # of connection points: 2
#     Edge 37, Type (0, 1), BuildingBlock: TEMPAE_clean_linker_10, # of connection points: 2
#     Edge 38, Type (0, 1), BuildingBlock: TEMPAE_clean_linker_10, # of connection points: 2
#     Edge 39, Type (0, 1), BuildingBlock: TEMPAE_clean_linker_10, # of connection points: 2
#     Edge 40, Type (0, 1), BuildingBlock: TEMPAE_clean_linker_10, # of connection points: 2
#     Edge 41, Type (0, 1), BuildingBlock: TEMPAE_clean_linker_10, # of connection points: 2
#     Edge 42, Type (0, 1), BuildingBlock: TEMPAE_clean_linker_10, # of connection points: 2
#     Edge 43, Type (0, 1), BuildingBlock: TEMPAE_clean_linker_10, # of connection points: 2
#     Edge 44, Type (0, 1), BuildingBlock: TEMPAE_clean_linker_10, # of connection points: 2
#     Edge 45, Type (0, 1), BuildingBlock: TEMPAE_clean_linker_10, # of connection points: 2
#     Edge 46, Type (0, 1), BuildingBlock: TEMPAE_clean_linker_10, # of connection points: 2
#     Edge 47, Type (0, 1), BuildingBlock: TEMPAE_clean_linker_10, # of connection points: 2
#     Edge 48, Type (0, 1), BuildingBlock: TEMPAE_clean_linker_10, # of connection points: 2
#     Edge 49, Type (0, 1), BuildingBlock: TEMPAE_clean_linker_10, # of connection points: 2
#     Edge 50, Type (0, 1), BuildingBlock: TEMPAE_clean_linker_10, # of connection points: 2
#     Edge 51, Type (0, 1), BuildingBlock: TEMPAE_clean_linker_10, # of connection points: 2
#     Edge 52, Type (0, 1), BuildingBlock: TEMPAE_clean_linker_10, # of connection points: 2
#     Edge 53, Type (0, 1), BuildingBlock: TEMPAE_clean_linker_10, # of connection points: 2
#     Edge 54, Type (0, 1), BuildingBlock: TEMPAE_clean_linker_10, # of connection points: 2
#     Edge 55, Type (0, 1), BuildingBlock: TEMPAE_clean_linker_10, # of connection points: 2
#     Edge 56, Type (0, 1), BuildingBlock: TEMPAE_clean_linker_10, # of connection points: 2
#     Edge 57, Type (0, 1), BuildingBlock: TEMPAE_clean_linker_10, # of connection points: 2
#     Edge 58, Type (0, 1), BuildingBlock: TEMPAE_clean_linker_10, # of connection points: 2
#     Edge 59, Type (0, 1), BuildingBlock: TEMPAE_clean_linker_10, # of connection points: 2
#     Edge 60, Type (0, 1), BuildingBlock: TEMPAE_clean_linker_10, # of connection points: 2
#     Edge 61, Type (0, 1), BuildingBlock: TEMPAE_clean_linker_10, # of connection points: 2
#     Edge 62, Type (0, 1), BuildingBlock: TEMPAE_clean_linker_10, # of connection points: 2
#     Edge 63, Type (0, 1), BuildingBlock: TEMPAE_clean_linker_10, # of connection points: 2
#     Edge 64, Type (0, 1), BuildingBlock: TEMPAE_clean_linker_10, # of connection points: 2
#     Edge 65, Type (0, 1), BuildingBlock: TEMPAE_clean_linker_10, # of connection points: 2
#     Edge 66, Type (0, 1), BuildingBlock: TEMPAE_clean_linker_10, # of connection points: 2
#     Edge 67, Type (0, 1), BuildingBlock: TEMPAE_clean_linker_10, # of connection points: 2
#     Edge 68, Type (0, 1), BuildingBlock: TEMPAE_clean_linker_10, # of connection points: 2
#     Edge 69, Type (0, 1), BuildingBlock: TEMPAE_clean_linker_10, # of connection points: 2
#     Edge 70, Type (0, 1), BuildingBlock: TEMPAE_clean_linker_10, # of connection points: 2
#     Edge 71, Type (0, 1), BuildingBlock: TEMPAE_clean_linker_10, # of connection points: 2
#     Edge 72, Type (0, 1), BuildingBlock: TEMPAE_clean_linker_10, # of connection points: 2
#     Edge 73, Type (0, 1), BuildingBlock: TEMPAE_clean_linker_10, # of connection points: 2
#     Edge 74, Type (0, 1), BuildingBlock: TEMPAE_clean_linker_10, # of connection points: 2
#     Edge 75, Type (0, 1), BuildingBlock: TEMPAE_clean_linker_10, # of connection points: 2
#     Edge 76, Type (0, 1), BuildingBlock: TEMPAE_clean_linker_10, # of connection points: 2
#     Edge 77, Type (0, 1), BuildingBlock: TEMPAE_clean_linker_10, # of connection points: 2
#     Edge 78, Type (0, 1), BuildingBlock: TEMPAE_clean_linker_10, # of connection points: 2
#     Edge 79, Type (0, 1), BuildingBlock: TEMPAE_clean_linker_10, # of connection points: 2
#     Edge 80, Type (0, 1), BuildingBlock: TEMPAE_clean_linker_10, # of connection points: 2
# Relax obj value: 0.009
# Max RMSD: 0.096
# Mean RMSD: 0.061
data_MOF--net-eea--node1-KUMBUR_clean_sbu_0--node2-VETTIZ_charged_linker_0--edge1-TEMPAE_clean_linker_10
_symmetry_space_group_name_H-M    P1
_symmetry_Int_Tables_number       1
_symmetry_cell_setting            triclinic
loop_
_symmetry_equiv_pos_as_xyz
'x, y, z'
_cell_length_a     62.446463
_cell_length_b     63.72179
_cell_length_c     89.178381
_cell_angle_alpha  90.145664
_cell_angle_beta   90.224834
_cell_angle_gamma 119.93629
loop_
_atom_site_label
_atom_site_type_symbol
_atom_site_fract_x
_atom_site_fract_y
_atom_site_fract_z
_atom_type_partial_charge
C0 C 0.22221 0.1727 0.39529 0.0
C1 C 0.22699 0.19529 0.40083 0.0
C2 C 0.2364 0.20222 0.41553 0.0
C3 C 0.2363 0.16438 0.41879 0.0
C4 C 0.22688 0.15759 0.40443 0.0
C5 C 0.22218 0.13277 0.40031 0.0
H6 H 0.22926 0.03333 0.41808 0.0
C7 C 0.239 0.14446 0.42528 0.0
C8 C 0.23064 0.12587 0.41449 0.0
H9 H 0.19931 0.04658 0.37778 0.0
H10 H 0.20803 0.08548 0.38749 0.0
H11 H 0.27634 0.08803 0.42193 0.0
H12 H 0.20297 0.05134 0.44015 0.0
H13 H 0.22223 0.07065 0.45439 0.0
H14 H 0.2271 0.0467 0.44745 0.0
H15 H 0.26624 0.06421 0.43548 0.0
H16 H 0.27872 0.09536 0.44111 0.0
C17 C 0.23872 0.13531 0.38674 0.0
C18 C 0.19406 0.1162 0.39743 0.0
C19 C 0.27477 0.15238 0.4778 0.0
C20 C 0.27939 0.13674 0.48661 0.0
C21 C 0.27382 0.11405 0.48065 0.0
C22 C 0.26384 0.107 0.46622 0.0
C23 C 0.2593 0.12276 0.45756 0.0
C24 C 0.26467 0.145 0.46338 0.0
C25 C 0.25827 0.15919 0.45255 0.0
C26 C 0.24821 0.14177 0.43932 0.0
C27 C 0.24897 0.12052 0.44233 0.0
C28 C 0.2824 0.18273 0.44858 0.0
C29 C 0.23817 0.16334 0.45978 0.0
C30 C 0.22479 0.04477 0.41135 0.0
C31 C 0.21375 0.03708 0.39714 0.0
C32 C 0.20773 0.05217 0.38879 0.0
C33 C 0.21289 0.07476 0.39443 0.0
C34 C 0.22402 0.08229 0.40864 0.0
C35 C 0.22954 0.06727 0.41691 0.0
C36 C 0.2403 0.07782 0.43204 0.0
C37 C 0.24061 0.10178 0.4314 0.0
C38 C 0.2313 0.10438 0.41762 0.0
C39 C 0.26674 0.08147 0.43285 0.0
C40 C 0.22246 0.0608 0.44422 0.0
H41 H 0.24837 0.19324 0.43557 0.0
H42 H 0.21458 0.1667 0.38415 0.0
H43 H 0.18304 0.12225 0.40405 0.0
H44 H 0.1872 0.09731 0.40102 0.0
H45 H 0.18936 0.11627 0.38541 0.0
H46 H 0.25741 0.15152 0.3881 0.0
H47 H 0.23061 0.13744 0.37614 0.0
H48 H 0.24199 0.11991 0.38549 0.0
H49 H 0.27865 0.16985 0.48211 0.0
H50 H 0.27754 0.10182 0.4871 0.0
H51 H 0.26014 0.08955 0.46235 0.0
H52 H 0.29802 0.17915 0.44735 0.0
H53 H 0.28751 0.19665 0.45751 0.0
H54 H 0.28131 0.19049 0.43775 0.0
H55 H 0.22528 0.14746 0.46663 0.0
H56 H 0.22625 0.16538 0.45142 0.0
H57 H 0.24655 0.17947 0.46728 0.0
H58 H 0.24033 0.21961 0.42001 0.0
C59 C 0.24114 0.18693 0.42451 0.0
C60 C 0.96153 0.1717 0.3964 0.0
C61 C 0.98222 0.19159 0.40305 0.0
C62 C 0.98142 0.19576 0.41859 0.0
C63 C 0.93992 0.16128 0.4202 0.0
C64 C 0.941 0.15669 0.40516 0.0
C65 C 0.91853 0.13388 0.39993 0.0
H66 H 0.80673 0.03711 0.4147 0.0
C67 C 0.91581 0.14223 0.426 0.0
C68 C 0.90342 0.12595 0.41419 0.0
H69 H 0.84912 0.05348 0.3739 0.0
H70 H 0.88128 0.09056 0.3849 0.0
H71 H 0.85159 0.05096 0.4367 0.0
H72 H 0.81879 0.09261 0.42139 0.0
H73 H 0.82551 0.09901 0.44055 0.0
H74 H 0.80391 0.06845 0.43465 0.0
H75 H 0.82214 0.04558 0.44326 0.0
H76 H 0.85064 0.06761 0.45214 0.0
C77 C 0.92679 0.11564 0.3949 0.0
C78 C 0.90566 0.14063 0.3875 0.0
C79 C 0.88941 0.14746 0.47927 0.0
C80 C 0.86776 0.13273 0.48745 0.0
C81 C 0.84876 0.1116 0.48059 0.0
C82 C 0.85112 0.10534 0.46587 0.0
C83 C 0.87272 0.1203 0.45781 0.0
C84 C 0.8915 0.14089 0.46454 0.0
C85 C 0.91325 0.15438 0.45425 0.0
C86 C 0.90413 0.13878 0.44017 0.0
C87 C 0.88037 0.11883 0.44235 0.0
C88 C 0.93594 0.15429 0.4613 0.0
C89 C 0.91694 0.17997 0.45167 0.0
C90 C 0.82289 0.04888 0.40815 0.0
C91 C 0.82551 0.04249 0.39344 0.0
C92 C 0.84687 0.05802 0.38529 0.0
C93 C 0.86552 0.07951 0.39171 0.0
C94 C 0.86296 0.08545 0.40653 0.0
C95 C 0.84191 0.07029 0.41449 0.0
C96 C 0.84283 0.07926 0.43025 0.0
C97 C 0.86808 0.10207 0.43047 0.0
C98 C 0.87961 0.10565 0.4165 0.0
C99 C 0.84157 0.0599 0.44126 0.0
C100 C 0.82162 0.08503 0.43196 0.0
H101 H 0.96094 0.18512 0.43882 0.0
H102 H 0.96106 0.16775 0.38456 0.0
H103 H 0.90543 0.15745 0.39058 0.0
H104 H 0.88611 0.12672 0.38575 0.0
H105 H 0.91553 0.1439 0.37667 0.0
H106 H 0.94444 0.11952 0.40039 0.0
H107 H 0.92968 0.11631 0.38259 0.0
H108 H 0.91349 0.0968 0.39818 0.0
H109 H 0.90445 0.16366 0.48427 0.0
H110 H 0.83178 0.10011 0.48654 0.0
H111 H 0.83592 0.08912 0.46132 0.0
H112 H 0.9302 0.13783 0.46821 0.0
H113 H 0.94658 0.17032 0.46869 0.0
H114 H 0.94842 0.15367 0.45278 0.0
H115 H 0.8989 0.1789 0.44935 0.0
H116 H 0.92868 0.18922 0.44194 0.0
H117 H 0.9252 0.19161 0.46174 0.0
H118 H 0.99716 0.21036 0.42428 0.0
C119 C 0.96039 0.18088 0.42712 0.0
C120 C 0.96101 0.79624 0.39603 0.0
C121 C 0.97936 0.79171 0.40181 0.0
C122 C 0.97578 0.7813 0.41622 0.0
C123 C 0.93672 0.78062 0.41877 0.0
C124 C 0.93994 0.79044 0.4046 0.0
C125 C 0.91844 0.79335 0.39981 0.0
H126 H 0.809 0.78601 0.41581 0.0
C127 C 0.91287 0.77686 0.42471 0.0
C128 C 0.90206 0.78422 0.41357 0.0
H129 H 0.84916 0.80626 0.37395 0.0
H130 H 0.88074 0.80006 0.38481 0.0
H131 H 0.81621 0.73973 0.42096 0.0
H132 H 0.85618 0.81278 0.43808 0.0
H133 H 0.85228 0.79305 0.4529 0.0
H134 H 0.82546 0.79141 0.44406 0.0
H135 H 0.80356 0.7507 0.43494 0.0
H136 H 0.82293 0.73821 0.43992 0.0
C137 C 0.9061 0.77694 0.38589 0.0
C138 C 0.92813 0.82062 0.3971 0.0
C139 C 0.88491 0.74312 0.47737 0.0
C140 C 0.86389 0.73796 0.48593 0.0
C141 C 0.8463 0.74326 0.47971 0.0
C142 C 0.84929 0.75306 0.46528 0.0
C143 C 0.87012 0.7577 0.4568 0.0
C144 C 0.88762 0.75293 0.46292 0.0
C145 C 0.90864 0.75916 0.45226 0.0
C146 C 0.90075 0.76822 0.43872 0.0
C147 C 0.87811 0.76729 0.44144 0.0
C148 C 0.90928 0.7357 0.44865 0.0
C149 C 0.93263 0.77948 0.45956 0.0
C150 C 0.82445 0.78894 0.4089 0.0
C151 C 0.8265 0.79708 0.39397 0.0
C152 C 0.84719 0.8007 0.38556 0.0
C153 C 0.86553 0.79682 0.39185 0.0
C154 C 0.86327 0.7889 0.40674 0.0
C155 C 0.84285 0.78481 0.41496 0.0
C156 C 0.84313 0.77539 0.43042 0.0
C157 C 0.86714 0.77467 0.4301 0.0
C158 C 0.87895 0.78285 0.41623 0.0
C159 C 0.82024 0.74973 0.4318 0.0
C160 C 0.84415 0.79392 0.44207 0.0
H161 H 0.95323 0.76797 0.43554 0.0
H162 H 0.96295 0.8043 0.38509 0.0
H163 H 0.94144 0.83178 0.40607 0.0
H164 H 0.91343 0.82542 0.39737 0.0
H165 H 0.93785 0.82644 0.38619 0.0
H166 H 0.90916 0.76117 0.38573 0.0
H167 H 0.91366 0.78707 0.3753 0.0
H168 H 0.88576 0.76876 0.38582 0.0
H169 H 0.89873 0.73914 0.48167 0.0
H170 H 0.83019 0.73996 0.48607 0.0
H171 H 0.83518 0.75658 0.46126 0.0
H172 H 0.89025 0.7198 0.44811 0.0
H173 H 0.91966 0.73199 0.45739 0.0
H174 H 0.91733 0.73616 0.43757 0.0
H175 H 0.92903 0.79282 0.46545 0.0
H176 H 0.94714 0.79018 0.45133 0.0
H177 H 0.94014 0.77193 0.46795 0.0
H178 H 0.98908 0.77693 0.42093 0.0
C179 C 0.95474 0.77587 0.42471 0.0
C180 C 0.16769 0.20739 0.61545 0.0
C181 C 0.18692 0.20538 0.60845 0.0
C182 C 0.18837 0.20713 0.59258 0.0
C183 C 0.15366 0.21422 0.59142 0.0
C184 C 0.15106 0.2111 0.60674 0.0
C185 C 0.12819 0.21095 0.61226 0.0
H186 H 0.02312 0.21348 0.59659 0.0
C187 C 0.13348 0.21791 0.58567 0.0
C188 C 0.11806 0.21533 0.59778 0.0
H189 H 0.04857 0.20252 0.63955 0.0
H190 H 0.0857 0.20787 0.62815 0.0
H191 H 0.07617 0.25929 0.58865 0.0
H192 H 0.04186 0.18432 0.57531 0.0
H193 H 0.05448 0.20285 0.55938 0.0
H194 H 0.03052 0.20412 0.56978 0.0
H195 H 0.05307 0.24702 0.57416 0.0
H196 H 0.0854 0.25869 0.57019 0.0
C197 C 0.13621 0.23215 0.62351 0.0
C198 C 0.11063 0.18558 0.6189 0.0
C199 C 0.13603 0.24577 0.53186 0.0
C200 C 0.12087 0.25213 0.52354 0.0
C201 C 0.09897 0.24891 0.53025 0.0
C202 C 0.09266 0.24021 0.54498 0.0
C203 C 0.10838 0.23464 0.55325 0.0
C204 C 0.12952 0.23719 0.5466 0.0
C205 C 0.14387 0.23008 0.55701 0.0
C206 C 0.12859 0.22414 0.57124 0.0
C207 C 0.10767 0.22663 0.56895 0.0
C208 C 0.17004 0.25223 0.55919 0.0
C209 C 0.14372 0.20747 0.55037 0.0
C210 C 0.03666 0.21233 0.60362 0.0
C211 C 0.03221 0.20684 0.61904 0.0
C212 C 0.05075 0.20576 0.6276 0.0
C213 C 0.07253 0.20906 0.62097 0.0
C214 C 0.07627 0.21376 0.60554 0.0
C215 C 0.05878 0.21588 0.59718 0.0
C216 C 0.06681 0.22257 0.58112 0.0
C217 C 0.09123 0.22263 0.58106 0.0
C218 C 0.0966 0.21734 0.59542 0.0
C219 C 0.07044 0.24812 0.57823 0.0
C220 C 0.04741 0.20256 0.57075 0.0
H221 H 0.17466 0.21326 0.57224 0.0
H222 H 0.16532 0.20619 0.62746 0.0
H223 H 0.11264 0.17127 0.61297 0.0
H224 H 0.09091 0.17997 0.61754 0.0
H225 H 0.11468 0.18482 0.63096 0.0
H226 H 0.15324 0.2485 0.61959 0.0
H227 H 0.14023 0.22736 0.63473 0.0
H228 H 0.12231 0.23792 0.62472 0.0
H229 H 0.153 0.24801 0.52715 0.0
H230 H 0.08661 0.25311 0.52409 0.0
H231 H 0.0758 0.23823 0.54939 0.0
H232 H 0.16886 0.26867 0.5619 0.0
H233 H 0.18113 0.2559 0.54882 0.0
H234 H 0.18041 0.24998 0.56848 0.0
H235 H 0.12811 0.19745 0.54236 0.0
H236 H 0.14099 0.19401 0.55909 0.0
H237 H 0.16107 0.21256 0.54422 0.0
H238 H 0.20173 0.20453 0.58642 0.0
C239 C 0.17222 0.21186 0.58416 0.0
C240 C 0.78233 0.82903 0.61404 0.0
C241 C 0.77849 0.80763 0.60708 0.0
C242 C 0.76723 0.80141 0.5928 0.0
C243 C 0.76432 0.83798 0.59253 0.0
C244 C 0.77496 0.84374 0.60666 0.0
C245 C 0.77699 0.86667 0.61275 0.0
H246 H 0.75968 0.9625 0.60397 0.0
C247 C 0.75897 0.85722 0.58801 0.0
C248 C 0.76616 0.87394 0.59987 0.0
H249 H 0.79031 0.94466 0.64216 0.0
H250 H 0.78435 0.90864 0.62957 0.0
H251 H 0.78839 0.94993 0.57951 0.0
H252 H 0.71466 0.90663 0.5968 0.0
H253 H 0.71351 0.90347 0.57714 0.0
H254 H 0.72368 0.93284 0.58535 0.0
H255 H 0.7637 0.95517 0.57421 0.0
H256 H 0.76913 0.93344 0.56442 0.0
C257 C 0.80476 0.88518 0.61529 0.0
C258 C 0.76087 0.86026 0.62705 0.0
C259 C 0.7238 0.85486 0.53617 0.0
C260 C 0.71763 0.87043 0.52852 0.0
C261 C 0.72079 0.89136 0.53599 0.0
C262 C 0.72991 0.89666 0.55075 0.0
C263 C 0.73608 0.88095 0.55818 0.0
C264 C 0.73301 0.86048 0.55086 0.0
C265 C 0.74069 0.84591 0.5604 0.0
C266 C 0.74905 0.86109 0.57463 0.0
C267 C 0.74623 0.88157 0.57331 0.0
C268 C 0.76236 0.8452 0.55248 0.0
C269 C 0.7177 0.82069 0.56308 0.0
C270 C 0.76478 0.9506 0.60964 0.0
C271 C 0.77543 0.95633 0.62408 0.0
C272 C 0.78224 0.94067 0.63101 0.0
C273 C 0.77871 0.91973 0.62367 0.0
C274 C 0.76838 0.91438 0.60918 0.0
C275 C 0.76157 0.92965 0.60238 0.0
C276 C 0.75152 0.92127 0.58677 0.0
C277 C 0.75311 0.89829 0.58544 0.0
C278 C 0.76301 0.89443 0.59862 0.0
C279 C 0.76886 0.94093 0.57556 0.0
C280 C 0.72446 0.91586 0.58634 0.0
H281 H 0.75186 0.81088 0.57458 0.0
H282 H 0.79053 0.83402 0.62514 0.0
H283 H 0.74452 0.84172 0.62622 0.0
H284 H 0.75295 0.87218 0.6288 0.0
H285 H 0.77153 0.86085 0.63719 0.0
H286 H 0.81626 0.88345 0.60641 0.0
H287 H 0.8113 0.88224 0.62627 0.0
H288 H 0.80903 0.90419 0.61465 0.0
H289 H 0.72127 0.83843 0.5309 0.0
H290 H 0.71648 0.90385 0.53035 0.0
H291 H 0.73191 0.91286 0.55578 0.0
H292 H 0.77521 0.86307 0.54741 0.0
H293 H 0.75548 0.83146 0.54334 0.0
H294 H 0.77392 0.84151 0.5602 0.0
H295 H 0.70053 0.82189 0.56349 0.0
H296 H 0.71832 0.81281 0.57398 0.0
H297 H 0.71536 0.8078 0.55396 0.0
H298 H 0.76413 0.78498 0.58725 0.0
C299 C 0.76021 0.81651 0.58546 0.0
C300 C 0.04075 0.83218 0.61757 0.0
C301 C 0.01974 0.81226 0.61104 0.0
C302 C 0.01971 0.80918 0.59527 0.0
C303 C 0.06108 0.84364 0.59337 0.0
C304 C 0.0607 0.84784 0.60853 0.0
C305 C 0.08299 0.87118 0.61346 0.0
H306 H 0.19278 0.96963 0.59625 0.0
C307 C 0.08467 0.86297 0.58723 0.0
C308 C 0.09733 0.87952 0.59889 0.0
H309 H 0.1527 0.95428 0.63791 0.0
H310 H 0.12038 0.91636 0.6277 0.0
H311 H 0.18225 0.915 0.59065 0.0
H312 H 0.14686 0.95401 0.57501 0.0
H313 H 0.14766 0.93693 0.55976 0.0
H314 H 0.17626 0.95977 0.56812 0.0
H315 H 0.19554 0.93783 0.57647 0.0
H316 H 0.17413 0.90657 0.57185 0.0
C317 C 0.09714 0.8653 0.62547 0.0
C318 C 0.07415 0.88875 0.61892 0.0
C319 C 0.11067 0.85572 0.53419 0.0
C320 C 0.13212 0.87038 0.52583 0.0
C321 C 0.15072 0.8922 0.53224 0.0
C322 C 0.14825 0.89917 0.54673 0.0
C323 C 0.12692 0.88423 0.55502 0.0
C324 C 0.10843 0.86302 0.5487 0.0
C325 C 0.08682 0.84981 0.55913 0.0
C326 C 0.09592 0.86614 0.57294 0.0
C327 C 0.11939 0.88626 0.5704 0.0
C328 C 0.08354 0.82451 0.56228 0.0
C329 C 0.06382 0.8491 0.55193 0.0
C330 C 0.17711 0.95799 0.60319 0.0
C331 C 0.17522 0.96491 0.61788 0.0
C332 C 0.1544 0.94942 0.62651 0.0
C333 C 0.13567 0.92744 0.62056 0.0
C334 C 0.1376 0.92096 0.60575 0.0
C335 C 0.15808 0.93614 0.59735 0.0
C336 C 0.15674 0.92659 0.58173 0.0
C337 C 0.13179 0.9035 0.58202 0.0
C338 C 0.12079 0.90017 0.59617 0.0
C339 C 0.17831 0.92132 0.57992 0.0
C340 C 0.15706 0.94524 0.57047 0.0
H341 H 0.03908 0.82083 0.57471 0.0
H342 H 0.04203 0.83578 0.62947 0.0
H343 H 0.05587 0.88405 0.61402 0.0
H344 H 0.08661 0.90764 0.61535 0.0
H345 H 0.07227 0.88829 0.63131 0.0
H346 H 0.09892 0.84949 0.62189 0.0
H347 H 0.08724 0.86075 0.63634 0.0
H348 H 0.11617 0.88029 0.62735 0.0
H349 H 0.09591 0.83902 0.52949 0.0
H350 H 0.16753 0.90369 0.52613 0.0
H351 H 0.16319 0.91589 0.55095 0.0
H352 H 0.10152 0.82611 0.56552 0.0
H353 H 0.07655 0.81278 0.55214 0.0
H354 H 0.07072 0.81504 0.57155 0.0
H355 H 0.06912 0.86391 0.54365 0.0
H356 H 0.05247 0.85203 0.56029 0.0
H357 H 0.05207 0.83169 0.54597 0.0
H358 H 0.00374 0.79516 0.58945 0.0
C359 C 0.04027 0.82443 0.58653 0.0
C360 C 0.88646 0.50112 0.7336 0.0
C361 C 0.89082 0.52308 0.74 0.0
C362 C 0.90233 0.53002 0.75419 0.0
C363 C 0.90455 0.49317 0.75547 0.0
C364 C 0.89359 0.48658 0.74145 0.0
C365 C 0.89105 0.46308 0.73603 0.0
H366 H 0.90537 0.36621 0.7491 0.0
C367 C 0.90947 0.47396 0.76064 0.0
C368 C 0.9017 0.45633 0.74927 0.0
H369 H 0.87821 0.3828 0.70879 0.0
H370 H 0.8841 0.41982 0.72012 0.0
H371 H 0.95045 0.41987 0.75427 0.0
H372 H 0.87695 0.38159 0.77223 0.0
H373 H 0.89641 0.3991 0.78698 0.0
H374 H 0.90095 0.37591 0.77843 0.0
H375 H 0.94111 0.39618 0.76785 0.0
H376 H 0.95285 0.42727 0.77341 0.0
C377 C 0.90696 0.46821 0.72173 0.0
C378 C 0.86321 0.44478 0.73369 0.0
C379 C 0.94769 0.4801 0.81211 0.0
C380 C 0.95372 0.46466 0.82005 0.0
C381 C 0.94837 0.44239 0.81348 0.0
C382 C 0.93768 0.43581 0.79919 0.0
C383 C 0.93213 0.45157 0.79132 0.0
C384 C 0.93688 0.47317 0.79784 0.0
C385 C 0.92926 0.48737 0.78788 0.0
C386 C 0.91947 0.47084 0.77424 0.0
C387 C 0.92133 0.44998 0.77632 0.0
C388 C 0.95258 0.51184 0.78417 0.0
C389 C 0.90864 0.48973 0.79596 0.0
C390 C 0.90055 0.37777 0.74277 0.0
C391 C 0.89126 0.37162 0.72808 0.0
C392 C 0.88558 0.3873 0.7201 0.0
C393 C 0.88891 0.40871 0.72672 0.0
C394 C 0.89817 0.41459 0.74145 0.0
C395 C 0.90397 0.39929 0.74917 0.0
C396 C 0.91425 0.40874 0.76455 0.0
C397 C 0.91368 0.43226 0.76479 0.0
C398 C 0.90409 0.43551 0.7513 0.0
C399 C 0.941 0.41315 0.76522 0.0
C400 C 0.89644 0.39043 0.77624 0.0
H401 H 0.91773 0.52139 0.77275 0.0
H402 H 0.87804 0.49556 0.72259 0.0
H403 H 0.85216 0.44617 0.74301 0.0
H404 H 0.8589 0.42576 0.73368 0.0
H405 H 0.85634 0.44838 0.72304 0.0
H406 H 0.92306 0.48694 0.72186 0.0
H407 H 0.89601 0.46622 0.71144 0.0
H408 H 0.91522 0.45644 0.72079 0.0
H409 H 0.95165 0.49739 0.81677 0.0
H410 H 0.95232 0.42992 0.81946 0.0
H411 H 0.93419 0.41867 0.79484 0.0
H412 H 0.96908 0.50961 0.78308 0.0
H413 H 0.95658 0.52546 0.79314 0.0
H414 H 0.95115 0.51934 0.7733 0.0
H415 H 0.89618 0.47287 0.80216 0.0
H416 H 0.89637 0.4923 0.78817 0.0
H417 H 0.91659 0.50489 0.8042 0.0
H418 H 0.90579 0.54687 0.75932 0.0
C419 C 0.90914 0.51516 0.76197 0.0
C420 C 0.63006 0.50018 0.73152 0.0
C421 C 0.65192 0.51933 0.73784 0.0
C422 C 0.6533 0.52177 0.75367 0.0
C423 C 0.61161 0.48803 0.7562 0.0
C424 C 0.6106 0.48455 0.74087 0.0
C425 C 0.58738 0.46197 0.73606 0.0
H426 H 0.47916 0.36287 0.75475 0.0
C427 C 0.58825 0.46884 0.76268 0.0
C428 C 0.57423 0.45315 0.75097 0.0
H429 H 0.51444 0.38168 0.71137 0.0
H430 H 0.54742 0.419 0.72157 0.0
H431 H 0.52853 0.37905 0.77433 0.0
H432 H 0.48904 0.41595 0.76245 0.0
H433 H 0.50041 0.42542 0.7807 0.0
H434 H 0.47863 0.39385 0.77711 0.0
H435 H 0.4985 0.37072 0.7815 0.0
H436 H 0.52625 0.39374 0.79049 0.0
C437 C 0.59477 0.44408 0.7292 0.0
C438 C 0.57286 0.46933 0.72522 0.0
C439 C 0.56796 0.47388 0.81739 0.0
C440 C 0.54705 0.45952 0.82626 0.0
C441 C 0.52738 0.4383 0.81991 0.0
C442 C 0.52826 0.43175 0.805 0.0
C443 C 0.54904 0.44651 0.79623 0.0
C444 C 0.56853 0.4671 0.80247 0.0
C445 C 0.58919 0.4805 0.79145 0.0
C446 C 0.5784 0.46503 0.77742 0.0
C447 C 0.55496 0.44508 0.78033 0.0
C448 C 0.61245 0.48011 0.79724 0.0
C449 C 0.59297 0.50624 0.78944 0.0
C450 C 0.4941 0.37495 0.74748 0.0
C451 C 0.49421 0.36919 0.73224 0.0
C452 C 0.51376 0.38571 0.72311 0.0
C453 C 0.53306 0.40729 0.72909 0.0
C454 C 0.53296 0.41249 0.7444 0.0
C455 C 0.51356 0.39658 0.75329 0.0
C456 C 0.51642 0.40534 0.76926 0.0
C457 C 0.54126 0.42856 0.76861 0.0
C458 C 0.5508 0.43267 0.75401 0.0
C459 C 0.51733 0.38626 0.77955 0.0
C460 C 0.49501 0.4103 0.77271 0.0
H461 H 0.63549 0.50964 0.77466 0.0
H462 H 0.6278 0.4972 0.71954 0.0
H463 H 0.57281 0.48574 0.72947 0.0
H464 H 0.55323 0.45528 0.72406 0.0
H465 H 0.58137 0.47356 0.71392 0.0
H466 H 0.61291 0.44744 0.73363 0.0
H467 H 0.59633 0.44577 0.71681 0.0
H468 H 0.58172 0.42502 0.73213 0.0
H469 H 0.58337 0.49036 0.82184 0.0
H470 H 0.51125 0.42665 0.82651 0.0
H471 H 0.51265 0.41543 0.80087 0.0
H472 H 0.60751 0.46473 0.805 0.0
H473 H 0.62511 0.49705 0.8034 0.0
H474 H 0.62272 0.47736 0.78807 0.0
H475 H 0.57493 0.50533 0.78745 0.0
H476 H 0.60466 0.51588 0.77977 0.0
H477 H 0.6015 0.51746 0.79963 0.0
H478 H 0.66996 0.53528 0.75923 0.0
C479 C 0.63327 0.50655 0.76278 0.0
C480 C 0.62597 0.12892 0.73045 0.0
C481 C 0.64391 0.12368 0.73609 0.0
C482 C 0.63973 0.11223 0.75019 0.0
C483 C 0.60088 0.11192 0.75276 0.0
C484 C 0.6047 0.1228 0.73888 0.0
C485 C 0.58369 0.12669 0.73434 0.0
H486 H 0.47032 0.11162 0.74853 0.0
C487 C 0.57695 0.108 0.75862 0.0
C488 C 0.56673 0.11652 0.7478 0.0
H489 H 0.51675 0.14511 0.70994 0.0
H490 H 0.54834 0.13862 0.72065 0.0
H491 H 0.48247 0.06817 0.75295 0.0
H492 H 0.5142 0.13955 0.77234 0.0
H493 H 0.51405 0.12037 0.78646 0.0
H494 H 0.48512 0.11507 0.7785 0.0
H495 H 0.46613 0.07691 0.76574 0.0
H496 H 0.48602 0.06596 0.77238 0.0
C497 C 0.57173 0.11164 0.71992 0.0
C498 C 0.59394 0.15427 0.73259 0.0
C499 C 0.54731 0.07074 0.81032 0.0
C500 C 0.52619 0.06532 0.81883 0.0
C501 C 0.50835 0.07022 0.81257 0.0
C502 C 0.51141 0.08025 0.79821 0.0
C503 C 0.5326 0.08562 0.78988 0.0
C504 C 0.55016 0.08092 0.79598 0.0
C505 C 0.57161 0.08804 0.78555 0.0
C506 C 0.56414 0.09796 0.77226 0.0
C507 C 0.54116 0.09636 0.77483 0.0
C508 C 0.57254 0.0649 0.78134 0.0
C509 C 0.59528 0.10794 0.79339 0.0
C510 C 0.48734 0.11778 0.7424 0.0
C511 C 0.49063 0.12858 0.72817 0.0
C512 C 0.51322 0.13615 0.72069 0.0
C513 C 0.53173 0.13251 0.72699 0.0
C514 C 0.52791 0.12129 0.74104 0.0
C515 C 0.50617 0.11447 0.74861 0.0
C516 C 0.5058 0.10367 0.7637 0.0
C517 C 0.53059 0.10454 0.76373 0.0
C518 C 0.54341 0.11475 0.75037 0.0
C519 C 0.48391 0.07732 0.76385 0.0
C520 C 0.50455 0.1203 0.77597 0.0
H521 H 0.61653 0.09779 0.76914 0.0
H522 H 0.62849 0.13786 0.71976 0.0
H523 H 0.60903 0.16474 0.74083 0.0
H524 H 0.57997 0.15965 0.73489 0.0
H525 H 0.60159 0.16048 0.7212 0.0
H526 H 0.57124 0.09395 0.7204 0.0
H527 H 0.58238 0.12133 0.70981 0.0
H528 H 0.55229 0.10689 0.71836 0.0
H529 H 0.5615 0.06742 0.81479 0.0
H530 H 0.49175 0.06592 0.81872 0.0
H531 H 0.49706 0.08336 0.79411 0.0
H532 H 0.55363 0.04884 0.78073 0.0
H533 H 0.5832 0.06101 0.78978 0.0
H534 H 0.58043 0.06593 0.77011 0.0
H535 H 0.59137 0.12087 0.79953 0.0
H536 H 0.61013 0.11916 0.78545 0.0
H537 H 0.60249 0.09992 0.80164 0.0
H538 H 0.6528 0.10742 0.75476 0.0
C539 C 0.61848 0.10643 0.75852 0.0
C540 C 0.83457 0.53876 0.9514 0.0
C541 C 0.85457 0.53804 0.94438 0.0
C542 C 0.85658 0.54115 0.9286 0.0
C543 C 0.82151 0.5477 0.92766 0.0
C544 C 0.8181 0.54299 0.94282 0.0
C545 C 0.79465 0.54188 0.94822 0.0
H546 H 0.69602 0.55669 0.93369 0.0
C547 C 0.80171 0.55209 0.92203 0.0
C548 C 0.78553 0.54818 0.93398 0.0
H549 H 0.71132 0.52875 0.97407 0.0
H550 H 0.74878 0.53379 0.96313 0.0
H551 H 0.75169 0.59846 0.92753 0.0
H552 H 0.70915 0.52525 0.91107 0.0
H553 H 0.72562 0.54373 0.89588 0.0
H554 H 0.7032 0.54887 0.90538 0.0
H555 H 0.72763 0.58973 0.91378 0.0
H556 H 0.75893 0.59881 0.9085 0.0
C557 C 0.80148 0.56133 0.96055 0.0
C558 C 0.77662 0.51568 0.95348 0.0
C559 C 0.80692 0.58465 0.86908 0.0
C560 C 0.79233 0.59205 0.86104 0.0
C561 C 0.77107 0.5899 0.86802 0.0
C562 C 0.76457 0.58082 0.88263 0.0
C563 C 0.77943 0.57372 0.89054 0.0
C564 C 0.80018 0.57563 0.88373 0.0
C565 C 0.8137 0.5671 0.89383 0.0
C566 C 0.798 0.56035 0.90794 0.0
C567 C 0.77786 0.56417 0.90591 0.0
C568 C 0.84005 0.58867 0.89659 0.0
C569 C 0.81308 0.54474 0.88645 0.0
C570 C 0.70712 0.55128 0.94018 0.0
C571 C 0.70036 0.5424 0.95492 0.0
C572 C 0.716 0.5361 0.96287 0.0
C573 C 0.73772 0.53874 0.95642 0.0
C574 C 0.74399 0.54746 0.94171 0.0
C575 C 0.72869 0.55342 0.93382 0.0
C576 C 0.73793 0.5618 0.91816 0.0
C577 C 0.76096 0.55939 0.91785 0.0
C578 C 0.76465 0.55128 0.93176 0.0
C579 C 0.74427 0.58853 0.91676 0.0
C580 C 0.71799 0.54421 0.90694 0.0
H581 H 0.84353 0.54873 0.9085 0.0
H582 H 0.83152 0.53622 0.96333 0.0
H583 H 0.78051 0.50232 0.94788 0.0
H584 H 0.75718 0.50965 0.95049 0.0
H585 H 0.77808 0.51384 0.96577 0.0
H586 H 0.81731 0.57893 0.95692 0.0
H587 H 0.80693 0.55595 0.9711 0.0
H588 H 0.78626 0.56484 0.96308 0.0
H589 H 0.82317 0.5857 0.86405 0.0
H590 H 0.75963 0.59573 0.86228 0.0
H591 H 0.74826 0.57983 0.88725 0.0
H592 H 0.83927 0.60522 0.89964 0.0
H593 H 0.85147 0.59272 0.88633 0.0
H594 H 0.84984 0.58562 0.90587 0.0
H595 H 0.79708 0.53519 0.87865 0.0
H596 H 0.81062 0.53084 0.89477 0.0
H597 H 0.83012 0.55003 0.8799 0.0
H598 H 0.87032 0.53935 0.9223 0.0
C599 C 0.84057 0.54628 0.92035 0.0
C600 C 0.45926 0.16876 0.94749 0.0
C601 C 0.45556 0.14702 0.94106 0.0
C602 C 0.44535 0.14058 0.92652 0.0
C603 C 0.44246 0.17709 0.92513 0.0
C604 C 0.45277 0.18353 0.93932 0.0
C605 C 0.45624 0.20761 0.94431 0.0
H606 H 0.44247 0.30466 0.9303 0.0
C607 C 0.43781 0.19638 0.9197 0.0
C608 C 0.44602 0.2144 0.93086 0.0
H609 H 0.47567 0.29173 0.96922 0.0
H610 H 0.46811 0.25371 0.95858 0.0
H611 H 0.46828 0.28855 0.90659 0.0
H612 H 0.39663 0.24941 0.92697 0.0
H613 H 0.39283 0.24205 0.90778 0.0
H614 H 0.40454 0.27304 0.91352 0.0
H615 H 0.44307 0.29268 0.90084 0.0
H616 H 0.44802 0.26955 0.89259 0.0
C617 C 0.48428 0.22531 0.94661 0.0
C618 C 0.4404 0.20345 0.95849 0.0
C619 C 0.39621 0.18768 0.86904 0.0
C620 C 0.38943 0.2026 0.86112 0.0
C621 C 0.39468 0.22494 0.86755 0.0
C622 C 0.40616 0.23217 0.88161 0.0
C623 C 0.41262 0.217 0.88942 0.0
C624 C 0.40777 0.19524 0.88309 0.0
C625 C 0.41635 0.1817 0.89295 0.0
C626 C 0.42696 0.19886 0.90627 0.0
C627 C 0.42463 0.21945 0.90413 0.0
C628 C 0.43652 0.17911 0.88444 0.0
C629 C 0.39345 0.15734 0.89733 0.0
C630 C 0.44791 0.29351 0.93657 0.0
C631 C 0.4596 0.30113 0.95062 0.0
C632 C 0.4668 0.28632 0.95832 0.0
C633 C 0.4623 0.26421 0.95215 0.0
C634 C 0.45059 0.25683 0.93808 0.0
C635 C 0.44372 0.27148 0.93052 0.0
C636 C 0.43205 0.26106 0.91554 0.0
C637 C 0.43299 0.23772 0.91537 0.0
C638 C 0.44372 0.23525 0.92863 0.0
C639 C 0.44847 0.27882 0.90317 0.0
C640 C 0.40514 0.25621 0.9158 0.0
H641 H 0.43091 0.14946 0.90757 0.0
H642 H 0.46741 0.17434 0.95856 0.0
H643 H 0.42217 0.1866 0.95733 0.0
H644 H 0.43605 0.218 0.96051 0.0
H645 H 0.44972 0.20154 0.96861 0.0
H646 H 0.49546 0.22098 0.93885 0.0
H647 H 0.49016 0.22435 0.95824 0.0
H648 H 0.48971 0.24428 0.94404 0.0
H649 H 0.39234 0.17035 0.86451 0.0
H650 H 0.39015 0.23703 0.86161 0.0
H651 H 0.40959 0.24936 0.88584 0.0
H652 H 0.44738 0.1949 0.87701 0.0
H653 H 0.42821 0.16256 0.87731 0.0
H654 H 0.45041 0.17881 0.89202 0.0
H655 H 0.37743 0.15989 0.89976 0.0
H656 H 0.39629 0.14948 0.90764 0.0
H657 H 0.38794 0.14387 0.88809 0.0
H658 H 0.44219 0.12384 0.92139 0.0
C659 C 0.43872 0.15544 0.91855 0.0
C660 C 0.71234 0.16282 0.94814 0.0
C661 C 0.69428 0.13969 0.94301 0.0
C662 C 0.69769 0.13175 0.92885 0.0
C663 C 0.73594 0.16964 0.92521 0.0
C664 C 0.73292 0.1773 0.93916 0.0
C665 C 0.75405 0.20197 0.94319 0.0
H666 H 0.86307 0.30059 0.92492 0.0
C667 C 0.75919 0.18914 0.91868 0.0
C668 C 0.76992 0.2081 0.92923 0.0
H669 H 0.82272 0.28605 0.96647 0.0
H670 H 0.79091 0.24777 0.95665 0.0
H671 H 0.85424 0.24613 0.92048 0.0
H672 H 0.8159 0.28149 0.90322 0.0
H673 H 0.81629 0.26286 0.88882 0.0
H674 H 0.84511 0.28748 0.89585 0.0
H675 H 0.86757 0.27021 0.90704 0.0
H676 H 0.84841 0.23914 0.90127 0.0
C677 C 0.7673 0.19937 0.95722 0.0
C678 C 0.74361 0.21929 0.94533 0.0
C679 C 0.78557 0.17949 0.86617 0.0
C680 C 0.80542 0.19504 0.85692 0.0
C681 C 0.82258 0.21833 0.86235 0.0
C682 C 0.82024 0.22592 0.87673 0.0
C683 C 0.80041 0.21017 0.88587 0.0
C684 C 0.78332 0.18748 0.88049 0.0
C685 C 0.76297 0.17355 0.8916 0.0
C686 C 0.77084 0.19149 0.90458 0.0
C687 C 0.79293 0.21285 0.9012 0.0
C688 C 0.76363 0.15037 0.89596 0.0
C689 C 0.73827 0.16874 0.88445 0.0
C690 C 0.84729 0.2892 0.93185 0.0
C691 C 0.84553 0.29637 0.94654 0.0
C692 C 0.82476 0.28086 0.95522 0.0
C693 C 0.80621 0.25863 0.94946 0.0
C694 C 0.80834 0.2516 0.93485 0.0
C695 C 0.82862 0.26678 0.92629 0.0
C696 C 0.82786 0.25608 0.91107 0.0
C697 C 0.80396 0.23189 0.91199 0.0
C698 C 0.79256 0.22946 0.92593 0.0
C699 C 0.85073 0.25278 0.90973 0.0
C700 C 0.82639 0.2728 0.89902 0.0
H701 H 0.71967 0.13937 0.90935 0.0
H702 H 0.71048 0.16971 0.95887 0.0
H703 H 0.7293 0.21577 0.93667 0.0
H704 H 0.75771 0.23855 0.94402 0.0
H705 H 0.73486 0.21677 0.9565 0.0
H706 H 0.76561 0.18115 0.95765 0.0
H707 H 0.75928 0.20182 0.96773 0.0
H708 H 0.78744 0.21214 0.95722 0.0
H709 H 0.77191 0.16159 0.86229 0.0
H710 H 0.83816 0.23057 0.85553 0.0
H711 H 0.83404 0.24378 0.88019 0.0
H712 H 0.783 0.15403 0.89659 0.0
H713 H 0.75362 0.13572 0.88756 0.0
H714 H 0.7559 0.14358 0.90718 0.0
H715 H 0.74098 0.18462 0.87779 0.0
H716 H 0.72414 0.16595 0.89282 0.0
H717 H 0.73068 0.15283 0.87679 0.0
H718 H 0.6846 0.11386 0.92468 0.0
C719 C 0.71826 0.14656 0.91996 0.0
C720 C 0.55073 0.83224 0.07044 0.0
C721 C 0.55543 0.85491 0.07582 0.0
C722 C 0.56632 0.86275 0.09012 0.0
C723 C 0.56729 0.82547 0.09348 0.0
C724 C 0.55662 0.81783 0.07946 0.0
C725 C 0.55201 0.79293 0.07561 0.0
H726 H 0.56138 0.6948 0.09386 0.0
C727 C 0.57042 0.80588 0.1001 0.0
C728 C 0.56127 0.78668 0.08973 0.0
H729 H 0.53154 0.70755 0.05333 0.0
H730 H 0.53888 0.74588 0.06313 0.0
H731 H 0.60826 0.752 0.09922 0.0
H732 H 0.53369 0.71098 0.11553 0.0
H733 H 0.55082 0.73231 0.12954 0.0
H734 H 0.5586 0.70943 0.12452 0.0
H735 H 0.59663 0.72503 0.11035 0.0
H736 H 0.60769 0.75408 0.11902 0.0
C737 C 0.56796 0.79516 0.06178 0.0
C738 C 0.52381 0.77604 0.07327 0.0
C739 C 0.61071 0.81752 0.15145 0.0
C740 C 0.6134 0.80178 0.16145 0.0
C741 C 0.60423 0.77749 0.15676 0.0
C742 C 0.59357 0.76945 0.1425 0.0
C743 C 0.59128 0.78551 0.13279 0.0
C744 C 0.59911 0.80889 0.13751 0.0
C745 C 0.59249 0.82259 0.12645 0.0
C746 C 0.58026 0.80384 0.11407 0.0
C747 C 0.58011 0.78232 0.11769 0.0
C748 C 0.61665 0.84486 0.12105 0.0
C749 C 0.5741 0.82892 0.13406 0.0
C750 C 0.55666 0.70604 0.08712 0.0
C751 C 0.54606 0.69833 0.07278 0.0
C752 C 0.53964 0.71312 0.06442 0.0
C753 C 0.54403 0.73542 0.07011 0.0
C754 C 0.55484 0.74305 0.08439 0.0
C755 C 0.56068 0.72833 0.09274 0.0
C756 C 0.5709 0.73901 0.10799 0.0
C757 C 0.57118 0.76299 0.1071 0.0
C758 C 0.56181 0.76521 0.09322 0.0
C759 C 0.59726 0.74271 0.10934 0.0
C760 C 0.55276 0.7221 0.12009 0.0
H761 H 0.58078 0.85527 0.10966 0.0
H762 H 0.54215 0.82562 0.05957 0.0
H763 H 0.51307 0.78158 0.08058 0.0
H764 H 0.51746 0.75707 0.07642 0.0
H765 H 0.5183 0.77654 0.06148 0.0
H766 H 0.58619 0.81212 0.06237 0.0
H767 H 0.55871 0.7956 0.05122 0.0
H768 H 0.57247 0.78051 0.06102 0.0
H769 H 0.61742 0.83631 0.15422 0.0
H770 H 0.60483 0.76434 0.16411 0.0
H771 H 0.58723 0.75089 0.13964 0.0
H772 H 0.63085 0.83969 0.11851 0.0
H773 H 0.62437 0.85923 0.1298 0.0
H774 H 0.61419 0.85269 0.11061 0.0
H775 H 0.56361 0.81596 0.14317 0.0
H776 H 0.55968 0.82761 0.12624 0.0
H777 H 0.58388 0.84735 0.13912 0.0
H778 H 0.57034 0.88027 0.09443 0.0
C779 C 0.57239 0.84823 0.09893 0.0
C780 C 0.29672 0.8354 0.06255 0.0
C781 C 0.31786 0.85513 0.06919 0.0
C782 C 0.31767 0.85796 0.08498 0.0
C783 C 0.27606 0.82382 0.08666 0.0
C784 C 0.27654 0.81976 0.0715 0.0
C785 C 0.25409 0.79653 0.0665 0.0
H786 H 0.1453 0.69683 0.08441 0.0
C787 C 0.2524 0.8045 0.09276 0.0
C788 C 0.23969 0.78803 0.08105 0.0
H789 H 0.18307 0.71352 0.04185 0.0
H790 H 0.21523 0.75175 0.05183 0.0
H791 H 0.19306 0.71431 0.10519 0.0
H792 H 0.15326 0.74913 0.08996 0.0
H793 H 0.16353 0.7603 0.10811 0.0
H794 H 0.14261 0.72831 0.10532 0.0
H795 H 0.1629 0.70651 0.11184 0.0
H796 H 0.19053 0.73025 0.12056 0.0
C797 C 0.26277 0.77894 0.0609 0.0
C798 C 0.24006 0.80269 0.05457 0.0
C799 C 0.22577 0.81197 0.14565 0.0
C800 C 0.20406 0.79742 0.15387 0.0
C801 C 0.18603 0.77515 0.1476 0.0
C802 C 0.18899 0.7679 0.1333 0.0
C803 C 0.21029 0.78296 0.12504 0.0
C804 C 0.22846 0.80441 0.13128 0.0
C805 C 0.25014 0.81767 0.12088 0.0
C806 C 0.24124 0.80122 0.10709 0.0
C807 C 0.21794 0.78091 0.10968 0.0
C808 C 0.27318 0.81859 0.1282 0.0
C809 C 0.25333 0.84288 0.11758 0.0
C810 C 0.16061 0.70857 0.07727 0.0
C811 C 0.1617 0.70195 0.06235 0.0
C812 C 0.18168 0.71816 0.05335 0.0
C813 C 0.20048 0.74026 0.05921 0.0
C814 C 0.19938 0.7463 0.07426 0.0
C815 C 0.17951 0.73064 0.08294 0.0
C816 C 0.18103 0.74016 0.09858 0.0
C817 C 0.20559 0.76364 0.09807 0.0
C818 C 0.21629 0.76723 0.0838 0.0
C819 C 0.18176 0.7219 0.10973 0.0
C820 C 0.15896 0.74461 0.10076 0.0
H821 H 0.29801 0.84624 0.10543 0.0
H822 H 0.2955 0.83187 0.05064 0.0
H823 H 0.23893 0.81889 0.05807 0.0
H824 H 0.22077 0.78806 0.05294 0.0
H825 H 0.24964 0.80675 0.04359 0.0
H826 H 0.27991 0.78223 0.06682 0.0
H827 H 0.2668 0.78115 0.0487 0.0
H828 H 0.24926 0.75977 0.06322 0.0
H829 H 0.24007 0.82913 0.15012 0.0
H830 H 0.16946 0.76321 0.15378 0.0
H831 H 0.17444 0.75085 0.12921 0.0
H832 H 0.26797 0.80434 0.13686 0.0
H833 H 0.28519 0.83635 0.13374 0.0
H834 H 0.28426 0.81501 0.11998 0.0
H835 H 0.23538 0.84114 0.11412 0.0
H836 H 0.2664 0.85239 0.10842 0.0
H837 H 0.26001 0.85465 0.12771 0.0
H838 H 0.33363 0.87167 0.09096 0.0
C839 C 0.29692 0.8428 0.0936 0.0
C840 C 0.29638 0.46341 0.06646 0.0
C841 C 0.31451 0.45825 0.07195 0.0
C842 C 0.31047 0.44682 0.08606 0.0
C843 C 0.27157 0.44639 0.08892 0.0
C844 C 0.27515 0.45721 0.07503 0.0
C845 C 0.25381 0.46071 0.0706 0.0
H846 H 0.13973 0.44405 0.08533 0.0
C847 C 0.2476 0.44226 0.09494 0.0
C848 C 0.23703 0.45051 0.08417 0.0
H849 H 0.18508 0.47688 0.04626 0.0
H850 H 0.21738 0.47148 0.05695 0.0
H851 H 0.15327 0.40123 0.09027 0.0
H852 H 0.18405 0.47316 0.10875 0.0
H853 H 0.18497 0.45468 0.123 0.0
H854 H 0.1555 0.4485 0.11542 0.0
H855 H 0.13659 0.41023 0.10261 0.0
H856 H 0.15671 0.39998 0.10983 0.0
C857 C 0.24179 0.44549 0.05625 0.0
C858 C 0.26368 0.4882 0.06876 0.0
C859 C 0.21893 0.40488 0.14681 0.0
C860 C 0.19796 0.39934 0.15556 0.0
C861 C 0.18022 0.40466 0.14954 0.0
C862 C 0.18302 0.41477 0.1352 0.0
C863 C 0.20389 0.41994 0.1266 0.0
C864 C 0.22155 0.41521 0.13251 0.0
C865 C 0.2428 0.42238 0.12188 0.0
C866 C 0.23506 0.43229 0.10868 0.0
C867 C 0.21209 0.43061 0.11145 0.0
C868 C 0.24371 0.39928 0.11753 0.0
C869 C 0.26659 0.44229 0.12959 0.0
C870 C 0.15665 0.45027 0.07908 0.0
C871 C 0.15937 0.46053 0.0647 0.0
C872 C 0.18191 0.46827 0.05711 0.0
C873 C 0.20085 0.46527 0.0634 0.0
C874 C 0.19758 0.45449 0.07756 0.0
C875 C 0.17591 0.44754 0.08527 0.0
C876 C 0.17613 0.43724 0.10046 0.0
C877 C 0.20112 0.43845 0.10037 0.0
C878 C 0.21358 0.4485 0.08687 0.0
C879 C 0.15449 0.4108 0.10097 0.0
C880 C 0.17493 0.45404 0.11262 0.0
H881 H 0.28754 0.43235 0.10512 0.0
H882 H 0.29865 0.47224 0.05576 0.0
H883 H 0.27836 0.49881 0.07721 0.0
H884 H 0.24938 0.49325 0.0707 0.0
H885 H 0.27177 0.49449 0.05747 0.0
H886 H 0.24183 0.42805 0.05665 0.0
H887 H 0.25203 0.45531 0.04606 0.0
H888 H 0.22216 0.44022 0.05491 0.0
H889 H 0.2329 0.40093 0.15086 0.0
H890 H 0.16415 0.40123 0.15599 0.0
H891 H 0.16875 0.41819 0.13134 0.0
H892 H 0.22479 0.38323 0.11693 0.0
H893 H 0.25442 0.39532 0.12591 0.0
H894 H 0.25154 0.40041 0.10628 0.0
H895 H 0.26276 0.45517 0.13587 0.0
H896 H 0.28125 0.45358 0.12158 0.0
H897 H 0.27401 0.43429 0.13772 0.0
H898 H 0.3235 0.4419 0.09053 0.0
C899 C 0.28933 0.44101 0.09453 0.0
C900 C 0.49861 0.87459 0.28291 0.0
C901 C 0.52117 0.87846 0.27691 0.0
C902 C 0.52789 0.88868 0.26245 0.0
C903 C 0.48976 0.88985 0.26012 0.0
C904 C 0.48341 0.88054 0.27443 0.0
C905 C 0.45935 0.87834 0.2794 0.0
H906 H 0.35452 0.87901 0.26177 0.0
C907 C 0.46961 0.89342 0.25416 0.0
C908 C 0.45175 0.88673 0.26543 0.0
H909 H 0.37964 0.87026 0.30563 0.0
H910 H 0.41677 0.87574 0.29478 0.0
H911 H 0.4049 0.92659 0.25618 0.0
H912 H 0.37848 0.85373 0.2404 0.0
H913 H 0.39111 0.87407 0.22525 0.0
H914 H 0.36492 0.87175 0.23509 0.0
H915 H 0.3839 0.91427 0.2406 0.0
H916 H 0.41696 0.92886 0.23815 0.0
C917 C 0.46466 0.89572 0.29291 0.0
C918 C 0.4411 0.8514 0.28288 0.0
C919 C 0.47447 0.9243 0.20092 0.0
C920 C 0.45863 0.92922 0.19222 0.0
C921 C 0.43563 0.92396 0.19829 0.0
C922 C 0.42869 0.9143 0.21276 0.0
C923 C 0.44496 0.90999 0.22142 0.0
C924 C 0.46735 0.91484 0.21542 0.0
C925 C 0.48241 0.90935 0.22628 0.0
C926 C 0.46566 0.90094 0.2399 0.0
C927 C 0.44365 0.90122 0.23698 0.0
C928 C 0.50696 0.93311 0.22949 0.0
C929 C 0.48567 0.88875 0.21945 0.0
C930 C 0.36777 0.87838 0.26929 0.0
C931 C 0.36278 0.87317 0.28476 0.0
C932 C 0.38151 0.87284 0.29364 0.0
C933 C 0.40366 0.87654 0.28736 0.0
C934 C 0.40801 0.88149 0.27203 0.0
C935 C 0.39057 0.8831 0.26334 0.0
C936 C 0.3999 0.89175 0.24769 0.0
C937 C 0.42539 0.89413 0.24836 0.0
C938 C 0.42973 0.88751 0.26258 0.0
C939 C 0.4014 0.91656 0.24538 0.0
C940 C 0.38271 0.87193 0.23641 0.0
H941 H 0.51858 0.90185 0.24313 0.0
H942 H 0.49265 0.86681 0.29393 0.0
H943 H 0.44101 0.83961 0.27362 0.0
H944 H 0.42185 0.84738 0.28404 0.0
H945 H 0.44649 0.84583 0.29338 0.0
H946 H 0.48441 0.91018 0.29346 0.0
H947 H 0.4602 0.88583 0.30372 0.0
H948 H 0.45431 0.90563 0.29209 0.0
H949 H 0.49235 0.92832 0.1967 0.0
H950 H 0.42293 0.92726 0.19178 0.0
H951 H 0.41094 0.91065 0.21669 0.0
H952 H 0.50406 0.94898 0.22947 0.0
H953 H 0.52103 0.93631 0.22085 0.0
H954 H 0.5147 0.93342 0.2407 0.0
H955 H 0.46849 0.87522 0.21358 0.0
H956 H 0.48918 0.87827 0.22796 0.0
H957 H 0.50088 0.89596 0.21114 0.0
H958 H 0.54538 0.89267 0.2576 0.0
C959 C 0.51234 0.89423 0.25404 0.0
C960 C 0.11318 0.49885 0.28353 0.0
C961 C 0.10754 0.47601 0.27798 0.0
C962 C 0.09714 0.46892 0.26352 0.0
C963 C 0.09808 0.50716 0.26044 0.0
C964 C 0.10843 0.51409 0.27459 0.0
C965 C 0.114 0.5392 0.27869 0.0
H966 H 0.10912 0.63988 0.26129 0.0
C967 C 0.09564 0.52728 0.2541 0.0
C968 C 0.10505 0.54612 0.26473 0.0
H969 H 0.13991 0.62613 0.30105 0.0
H970 H 0.12983 0.58685 0.29136 0.0
H971 H 0.13323 0.61991 0.23852 0.0
H972 H 0.06098 0.586 0.25836 0.0
H973 H 0.05723 0.57792 0.23926 0.0
H974 H 0.07089 0.60937 0.2445 0.0
H975 H 0.10956 0.62587 0.23203 0.0
H976 H 0.11252 0.60102 0.22466 0.0
C977 C 0.14233 0.55527 0.28098 0.0
C978 C 0.09841 0.53734 0.29262 0.0
C979 C 0.0572 0.51891 0.20245 0.0
C980 C 0.05252 0.5346 0.19375 0.0
C981 C 0.05895 0.55762 0.19956 0.0
C982 C 0.06984 0.56491 0.21378 0.0
C983 C 0.07443 0.54907 0.22233 0.0
C984 C 0.06818 0.52652 0.21663 0.0
C985 C 0.0747 0.51224 0.22728 0.0
C986 C 0.08586 0.52995 0.24028 0.0
C987 C 0.08557 0.55144 0.23732 0.0
C988 C 0.09399 0.50732 0.21959 0.0
C989 C 0.05048 0.48913 0.23175 0.0
C990 C 0.11352 0.62828 0.26791 0.0
C991 C 0.1252 0.63595 0.28196 0.0
C992 C 0.13104 0.6206 0.29015 0.0
C993 C 0.12507 0.59777 0.28453 0.0
C994 C 0.11325 0.59024 0.27051 0.0
C995 C 0.10789 0.60551 0.26238 0.0
C996 C 0.09611 0.59479 0.24747 0.0
C997 C 0.09502 0.57047 0.24808 0.0
C998 C 0.10488 0.56786 0.26165 0.0
C999 C 0.11352 0.6112 0.23494 0.0
C1000 C 0.06997 0.59194 0.24722 0.0
H1001 H 0.08435 0.4779 0.24384 0.0
H1002 H 0.12157 0.50495 0.2945 0.0
H1003 H 0.07953 0.52129 0.2917 0.0
H1004 H 0.09551 0.55296 0.29393 0.0
H1005 H 0.10705 0.53536 0.30304 0.0
H1006 H 0.15262 0.54875 0.27402 0.0
H1007 H 0.14768 0.5552 0.29286 0.0
H1008 H 0.14943 0.57418 0.27736 0.0
H1009 H 0.0527 0.50121 0.19823 0.0
H1010 H 0.05526 0.56991 0.19317 0.0
H1011 H 0.07421 0.5826 0.21756 0.0
H1012 H 0.10661 0.52281 0.21239 0.0
H1013 H 0.08484 0.49091 0.21235 0.0
H1014 H 0.1063 0.50534 0.22768 0.0
H1015 H 0.03521 0.49317 0.23318 0.0
H1016 H 0.05188 0.48164 0.24261 0.0
H1017 H 0.04467 0.47486 0.22299 0.0
H1018 H 0.09254 0.45132 0.25905 0.0
C1019 C 0.09233 0.48433 0.25473 0.0
C1020 C 0.38005 0.49743 0.28487 0.0
C1021 C 0.36184 0.47494 0.27904 0.0
C1022 C 0.36585 0.46734 0.26496 0.0
C1023 C 0.40515 0.50447 0.26268 0.0
C1024 C 0.40148 0.51174 0.27658 0.0
C1025 C 0.42277 0.53588 0.2813 0.0
H1026 H 0.53518 0.63204 0.26615 0.0
C1027 C 0.42917 0.52364 0.25693 0.0
C1028 C 0.43965 0.54204 0.26784 0.0
H1029 H 0.49135 0.61906 0.30608 0.0
H1030 H 0.45924 0.58139 0.29558 0.0
H1031 H 0.52442 0.57695 0.26215 0.0
H1032 H 0.49143 0.61628 0.24334 0.0
H1033 H 0.49094 0.59706 0.22907 0.0
H1034 H 0.52021 0.62013 0.23664 0.0
H1035 H 0.53976 0.60086 0.24878 0.0
H1036 H 0.51969 0.56997 0.24291 0.0
C1037 C 0.43446 0.53208 0.29566 0.0
C1038 C 0.41305 0.55384 0.28319 0.0
C1039 C 0.45822 0.51544 0.20509 0.0
C1040 C 0.47933 0.53071 0.19667 0.0
C1041 C 0.49724 0.55303 0.20292 0.0
C1042 C 0.49426 0.56002 0.2173 0.0
C1043 C 0.47311 0.54459 0.22559 0.0
C1044 C 0.45545 0.52278 0.21945 0.0
C1045 C 0.43401 0.50893 0.22985 0.0
C1046 C 0.44174 0.52607 0.24322 0.0
C1047 C 0.4647 0.54685 0.24066 0.0
C1048 C 0.43284 0.48473 0.23384 0.0
C1049 C 0.41042 0.50602 0.22211 0.0
C1050 C 0.51878 0.62093 0.27269 0.0
C1051 C 0.51584 0.62844 0.287 0.0
C1052 C 0.49397 0.61372 0.29501 0.0
C1053 C 0.47541 0.5918 0.28891 0.0
C1054 C 0.47867 0.58449 0.27462 0.0
C1055 C 0.50004 0.59905 0.26674 0.0
C1056 C 0.50015 0.58867 0.25161 0.0
C1057 C 0.47551 0.56526 0.25179 0.0
C1058 C 0.46302 0.56289 0.26529 0.0
C1059 C 0.52219 0.58394 0.25118 0.0
C1060 C 0.50089 0.60639 0.23945 0.0
H1061 H 0.38919 0.47514 0.24614 0.0
H1062 H 0.37759 0.504 0.29557 0.0
H1063 H 0.39883 0.55054 0.27452 0.0
H1064 H 0.42754 0.57292 0.28167 0.0
H1065 H 0.40442 0.55185 0.29435 0.0
H1066 H 0.4335 0.51416 0.29542 0.0
H1067 H 0.42466 0.53271 0.30587 0.0
H1068 H 0.45435 0.54537 0.29685 0.0
H1069 H 0.44402 0.49828 0.20055 0.0
H1070 H 0.51381 0.56497 0.19675 0.0
H1071 H 0.50863 0.57716 0.22141 0.0
H1072 H 0.45168 0.48697 0.23433 0.0
H1073 H 0.42201 0.47051 0.22534 0.0
H1074 H 0.42501 0.47801 0.24506 0.0
H1075 H 0.41454 0.5228 0.21598 0.0
H1076 H 0.39573 0.50305 0.23009 0.0
H1077 H 0.40292 0.49088 0.21386 0.0
H1078 H 0.35247 0.44991 0.26031 0.0
C1079 C 0.38731 0.48197 0.25676 0.0
Tb1080 Tb 0.49458 0.98018 0.98894 0.0
C1081 C 0.54598 0.07383 0.02646 0.0
C1082 C 0.58942 0.08656 0.02516 0.0
C1083 C 0.57658 0.11667 0.02769 0.0
C1084 C 0.5644 0.06815 0.02497 0.0
C1085 C 0.55176 0.0981 0.02811 0.0
C1086 C 0.5954 0.1109 0.02621 0.0
C1087 C 0.50823 0.08362 0.0315 0.0
N1088 N 0.52233 0.05535 0.0268 0.0
C1089 C 0.50349 0.05983 0.02987 0.0
C1090 C 0.53245 0.10288 0.03044 0.0
Tb1091 Tb 0.51612 0.01711 0.0228 0.0
N1092 N 0.55776 0.04444 0.02392 0.0
C1093 C 0.57551 0.03783 0.02414 0.0
C1094 C 0.60761 0.0799 0.0246 0.0
C1095 C 0.60061 0.05541 0.02427 0.0
H1096 H 0.48468 0.04513 0.03057 0.0
H1097 H 0.61453 0.05003 0.02406 0.0
H1098 H 0.61451 0.12533 0.0262 0.0
H1099 H 0.4932 0.08709 0.03354 0.0
H1100 H 0.57058 0.01905 0.02376 0.0
H1101 H 0.39652 0.94865 0.98616 0.0
H1102 H 0.62705 0.09346 0.02476 0.0
H1103 H 0.52503 0.951 0.98168 0.0
H1104 H 0.44067 0.97911 0.98645 0.0
H1105 H 0.51583 0.90867 0.97984 0.0
H1106 H 0.58142 0.13547 0.02879 0.0
H1107 H 0.38326 0.90507 0.98735 0.0
H1108 H 0.39509 0.87262 0.98758 0.0
H1109 H 0.53607 0.12128 0.03172 0.0
H1110 H 0.42768 0.86167 0.98573 0.0
N1111 N 0.45283 0.95329 0.98793 0.0
C1112 C 0.4354 0.96025 0.98682 0.0
C1113 C 0.40278 0.9184 0.98743 0.0
C1114 C 0.42067 0.91133 0.98769 0.0
C1115 C 0.4102 0.94297 0.98667 0.0
C1116 C 0.4458 0.92945 0.98771 0.0
H1117 H 0.47283 0.87503 0.98256 0.0
N1118 N 0.48766 0.94153 0.98571 0.0
C1119 C 0.50104 0.91253 0.98177 0.0
C1120 C 0.46392 0.92331 0.98653 0.0
C1121 C 0.50616 0.93653 0.98275 0.0
C1122 C 0.47676 0.89359 0.98336 0.0
C1123 C 0.45775 0.89886 0.98551 0.0
O1124 O 0.51253 0.98419 0.96833 0.0
O1125 O 0.52375 0.01172 0.99999 0.0
O1126 O 0.51179 0.03895 0.00558 0.0
O1127 O 0.48371 0.00838 0.98958 0.0
O1128 O 0.53408 0.99295 0.98623 0.0
O1129 O 0.48092 0.98907 0.9698 0.0
O1130 O 0.49726 0.01108 0.04326 0.0
O1131 O 0.48716 0.9859 0.01155 0.0
O1132 O 0.49867 0.95857 0.00656 0.0
O1133 O 0.52765 0.98954 0.02187 0.0
O1134 O 0.47634 0.00381 0.02549 0.0
O1135 O 0.53049 0.00894 0.04192 0.0
C1136 C 0.54246 0.01191 0.99457 0.0
C1137 C 0.48833 0.97641 0.94641 0.0
C1138 C 0.48665 0.97867 0.91901 0.0
C1139 C 0.49475 0.99011 0.93313 0.0
C1140 C 0.47209 0.95322 0.91852 0.0
C1141 C 0.47368 0.95115 0.94561 0.0
C1142 C 0.46565 0.93966 0.93172 0.0
C1143 C 0.49525 0.03112 0.99458 0.0
C1144 C 0.49731 0.98878 0.96096 0.0
C1145 C 0.43283 0.8806 0.98632 0.0
C1146 C 0.41429 0.88683 0.98739 0.0
C1147 C 0.46819 0.98523 0.01682 0.0
C1148 C 0.52086 0.01946 0.06542 0.0
C1149 C 0.51242 0.00543 0.07854 0.0
C1150 C 0.5189 0.01645 0.09286 0.0
C1151 C 0.53399 0.04182 0.0937 0.0
C1152 C 0.53598 0.04462 0.06659 0.0
C1153 C 0.54249 0.0557 0.08067 0.0
C1154 C 0.5157 0.96663 0.01729 0.0
C1155 C 0.51316 0.00754 0.05066 0.0
H1156 H 0.50582 0.00967 0.93384 0.0
H1157 H 0.46589 0.9437 0.90792 0.0
H1158 H 0.46856 0.94035 0.95569 0.0
H1159 H 0.45447 0.92013 0.93115 0.0
H1160 H 0.50096 0.98593 0.07754 0.0
H1161 H 0.53896 0.05108 0.10443 0.0
H1162 H 0.54262 0.05568 0.05664 0.0
H1163 H 0.55403 0.07518 0.08151 0.0
Tb1164 Tb 0.0234 0.50521 0.99113 0.0
C1165 C 0.92509 0.46116 0.02348 0.0
C1166 C 0.91268 0.49149 0.02258 0.0
C1167 C 0.88146 0.44879 0.02279 0.0
C1168 C 0.93128 0.48511 0.02272 0.0
C1169 C 0.90013 0.44267 0.0238 0.0
C1170 C 0.88773 0.47319 0.02225 0.0
C1171 C 0.91406 0.41386 0.02759 0.0
N1172 N 0.9437 0.45613 0.02474 0.0
C1173 C 0.93854 0.4329 0.02741 0.0
C1174 C 0.89477 0.41872 0.02559 0.0
Tb1175 Tb 0.98323 0.48835 0.0233 0.0
N1176 N 0.95558 0.50216 0.02323 0.0
C1177 C 0.96246 0.52609 0.0247 0.0
C1178 C 0.91971 0.51602 0.02339 0.0
C1179 C 0.9447 0.53336 0.02467 0.0
H1180 H 0.95332 0.42893 0.02885 0.0
H1181 H 0.95033 0.55237 0.02555 0.0
H1182 H 0.87316 0.47772 0.02198 0.0
H1183 H 0.91011 0.39545 0.02926 0.0
H1184 H 0.98165 0.53983 0.02559 0.0
H1185 H 0.0561 0.44104 0.98946 0.0
H1186 H 0.90601 0.52169 0.0235 0.0
H1187 H 0.05293 0.56452 0.98522 0.0
H1188 H 0.02483 0.45356 0.99039 0.0
H1189 H 0.09606 0.59793 0.98367 0.0
H1190 H 0.86215 0.43486 0.02289 0.0
H1191 H 0.10046 0.47182 0.989 0.0
H1192 H 0.1334 0.51578 0.98962 0.0
H1193 H 0.87583 0.40396 0.02582 0.0
H1194 H 0.14436 0.55862 0.98841 0.0
N1195 N 0.05103 0.49141 0.99104 0.0
C1196 C 0.04405 0.46737 0.99037 0.0
C1197 C 0.08681 0.47751 0.98977 0.0
C1198 C 0.0939 0.50206 0.99019 0.0
C1199 C 0.06178 0.46009 0.98987 0.0
C1200 C 0.07533 0.50847 0.99061 0.0
H1201 H 0.13052 0.58946 0.98604 0.0
N1202 N 0.0628 0.53741 0.98901 0.0
C1203 C 0.09222 0.57957 0.98541 0.0
C1204 C 0.08146 0.53239 0.98972 0.0
C1205 C 0.06778 0.56056 0.98625 0.0
C1206 C 0.11162 0.57473 0.9868 0.0
C1207 C 0.10637 0.55083 0.98868 0.0
O1208 O 0.02106 0.51949 0.97036 0.0
O1209 O 0.99041 0.50193 1.00087 0.0
O1210 O 0.96248 0.46384 1.00487 0.0
O1211 O 0.99485 0.4663 0.99069 0.0
O1212 O 0.00971 0.53077 0.9875 0.0
O1213 O 0.01683 0.48383 0.97179 0.0
O1214 O 0.9841 0.47335 0.04411 0.0
O1215 O 0.01652 0.49185 0.01375 0.0
O1216 O 0.04422 0.53031 0.00916 0.0
O1217 O 0.01207 0.52733 0.02393 0.0
O1218 O 0.99678 0.46278 0.02696 0.0
O1219 O 0.98996 0.50965 0.04269 0.0
C1220 C 0.99005 0.51995 0.99544 0.0
C1221 C 0.0331 0.50552 0.94938 0.0
C1222 C 0.03529 0.5058 0.92209 0.0
C1223 C 0.02145 0.50079 0.93533 0.0
C1224 C 0.06103 0.51568 0.92313 0.0
C1225 C 0.05875 0.51521 0.95023 0.0
C1226 C 0.07264 0.52028 0.93714 0.0
C1227 C 0.97116 0.45523 0.99448 0.0
C1228 C 0.01809 0.50062 0.96292 0.0
C1229 C 0.12508 0.54471 0.98907 0.0
C1230 C 0.11885 0.52033 0.98975 0.0
C1231 C 0.01679 0.47385 0.01935 0.0
C1232 C 0.97219 0.48797 0.06488 0.0
C1233 C 0.98344 0.49334 0.07908 0.0
C1234 C 0.96926 0.48906 0.09213 0.0
C1235 C 0.94357 0.47935 0.0907 0.0
C1236 C 0.94659 0.47836 0.06368 0.0
C1237 C 0.93237 0.47408 0.07655 0.0
C1238 C 0.03561 0.53878 0.01966 0.0
C1239 C 0.98758 0.49242 0.05157 0.0
H1240 H 1.00163 0.49349 0.93471 0.0
H1241 H 0.07212 0.51952 0.91312 0.0
H1242 H 0.06804 0.5189 0.96092 0.0
H1243 H 0.09244 0.52776 0.93786 0.0
H1244 H 0.0033 0.50112 0.07992 0.0
H1245 H 0.93209 0.47556 0.10052 0.0
H1246 H 0.93759 0.47413 0.05286 0.0
H1247 H 0.91259 0.46657 0.07555 0.0
Tb1248 Tb 0.51544 0.49268 0.02658 0.0
C1249 C 0.46103 0.53215 0.99104 0.0
C1250 C 0.41874 0.49942 0.99271 0.0
C1251 C 0.42738 0.54099 0.99141 0.0
C1252 C 0.44435 0.50765 0.99232 0.0
C1253 C 0.45268 0.549 0.99006 0.0
C1254 C 0.41043 0.51623 0.99273 0.0
C1255 C 0.49452 0.57997 0.98453 0.0
N1256 N 0.48531 0.53927 0.98961 0.0
C1257 C 0.50185 0.56257 0.98547 0.0
C1258 C 0.4699 0.57326 0.98714 0.0
Tb1259 Tb 0.49576 0.50985 0.99302 0.0
N1260 N 0.45308 0.49187 0.99228 0.0
C1261 C 0.43666 0.46746 0.99109 0.0
C1262 C 0.40217 0.47453 0.99257 0.0
C1263 C 0.41117 0.45854 0.99149 0.0
H1264 H 0.52097 0.56793 0.98358 0.0
H1265 H 0.39844 0.43922 0.99095 0.0
H1266 H 0.39087 0.51022 0.99326 0.0
H1267 H 0.50786 0.59854 0.98183 0.0
H1268 H 0.44245 0.45423 0.99015 0.0
H1269 H 0.6114 0.5634 0.03019 0.0
H1270 H 0.3824 0.4675 0.99275 0.0
H1271 H 0.49 0.43448 0.03442 0.0
H1272 H 0.56661 0.54707 0.02911 0.0
H1273 H 0.50295 0.40367 0.03623 0.0
H1274 H 0.42065 0.5537 0.99092 0.0
H1275 H 0.62842 0.53577 0.02984 0.0
H1276 H 0.62073 0.49307 0.02894 0.0
H1277 H 0.46422 0.58675 0.98633 0.0
H1278 H 0.59106 0.4493 0.03013 0.0
N1279 N 0.55775 0.51013 0.02751 0.0
C1280 C 0.57349 0.53457 0.02882 0.0
C1281 C 0.60863 0.5284 0.02908 0.0
C1282 C 0.5925 0.5034 0.02834 0.0
C1283 C 0.59907 0.54404 0.02941 0.0
C1284 C 0.56686 0.49477 0.02776 0.0
H1285 H 0.54698 0.4157 0.03306 0.0
N1286 N 0.52599 0.46319 0.02917 0.0
C1287 C 0.51647 0.42233 0.03389 0.0
C1288 C 0.55033 0.47033 0.02841 0.0
C1289 C 0.50919 0.43979 0.03282 0.0
C1290 C 0.54131 0.42918 0.03204 0.0
C1291 C 0.55872 0.45358 0.0297 0.0
O1292 O 0.49686 0.47569 0.04646 0.0
O1293 O 0.48671 0.49708 0.01582 0.0
O1294 O 0.50595 0.53972 0.00888 0.0
O1295 O 0.52292 0.52996 0.02931 0.0
O1296 O 0.47587 0.4666 0.0282 0.0
O1297 O 0.52808 0.51192 0.0469 0.0
O1298 O 0.50837 0.49667 0.97541 0.0
O1299 O 0.52495 0.50735 1.00421 0.0
O1300 O 0.5096 0.46597 0.00932 0.0
O1301 O 0.48368 0.47105 0.99248 0.0
O1302 O 0.53475 0.53809 0.99243 0.0
O1303 O 0.49184 0.51812 0.97058 0.0
C1304 C 0.46783 0.47849 0.02068 0.0
C1305 C 0.52065 0.48842 0.06869 0.0
C1306 C 0.52141 0.48804 0.09607 0.0
C1307 C 0.51334 0.49322 0.08254 0.0
C1308 C 0.53689 0.47788 0.09548 0.0
C1309 C 0.53626 0.47852 0.06835 0.0
C1310 C 0.54426 0.47322 0.0817 0.0
C1311 C 0.51701 0.54452 0.02214 0.0
C1312 C 0.51172 0.494 0.05485 0.0
C1313 C 0.58421 0.46189 0.02934 0.0
C1314 C 0.6011 0.48681 0.0287 0.0
C1315 C 0.5435 0.52667 0.99981 0.0
C1316 C 0.52282 0.5212 0.95397 0.0
C1317 C 0.52281 0.5102 0.94025 0.0
C1318 C 0.54157 0.52284 0.92962 0.0
C1319 C 0.56074 0.54634 0.93316 0.0
C1320 C 0.54176 0.54494 0.95699 0.0
C1321 C 0.56075 0.55726 0.94673 0.0
C1322 C 0.49379 0.45865 0.99795 0.0
C1323 C 0.50316 0.50753 0.96501 0.0
H1324 H 0.50167 0.50133 0.08273 0.0
H1325 H 0.54314 0.47335 0.10567 0.0
H1326 H 0.54228 0.47491 0.05784 0.0
H1327 H 0.55621 0.46545 0.08136 0.0
H1328 H 0.50793 0.49205 0.93777 0.0
H1329 H 0.57575 0.55633 0.92542 0.0
H1330 H 0.54198 0.55413 0.9672 0.0
H1331 H 0.57546 0.57544 0.94926 0.0
Tb1332 Tb 0.1561 0.31975 0.31937 0.0
C1333 C 0.202 0.40522 0.3621 0.0
C1334 C 0.24602 0.42467 0.35816 0.0
C1335 C 0.2274 0.44886 0.3651 0.0
C1336 C 0.22242 0.40374 0.35817 0.0
C1337 C 0.20422 0.42769 0.36598 0.0
C1338 C 0.24831 0.44734 0.36122 0.0
C1339 C 0.16123 0.40627 0.37295 0.0
N1340 N 0.18009 0.38427 0.36296 0.0
C1341 C 0.16006 0.38442 0.36912 0.0
C1342 C 0.1833 0.42806 0.37113 0.0
Tb1343 Tb 0.17948 0.34934 0.35529 0.0
N1344 N 0.21934 0.38148 0.3554 0.0
C1345 C 0.23961 0.37878 0.35363 0.0
C1346 C 0.26663 0.42206 0.35564 0.0
C1347 C 0.26343 0.39896 0.35358 0.0
H1348 H 0.14286 0.36784 0.37074 0.0
H1349 H 0.27928 0.39662 0.35196 0.0
H1350 H 0.26624 0.46368 0.36106 0.0
H1351 H 0.14512 0.40628 0.37737 0.0
H1352 H 0.23769 0.36117 0.35202 0.0
H1353 H 0.12391 0.35974 0.278 0.0
H1354 H 0.28509 0.43764 0.35575 0.0
H1355 H 0.12824 0.26353 0.33294 0.0
H1356 H 0.15489 0.35643 0.29338 0.0
H1357 H 0.08639 0.22844 0.33398 0.0
H1358 H 0.22947 0.46634 0.36788 0.0
H1359 H 0.07965 0.32889 0.28006 0.0
H1360 H 0.04714 0.28909 0.29074 0.0
H1361 H 0.18421 0.44495 0.37421 0.0
H1362 H 0.03695 0.25307 0.30592 0.0
N1363 N 0.12845 0.32443 0.30464 0.0
C1364 C 0.13567 0.34284 0.29448 0.0
C1365 C 0.09319 0.32735 0.28689 0.0
C1366 C 0.08616 0.30757 0.29639 0.0
C1367 C 0.11814 0.34481 0.28571 0.0
C1368 C 0.10454 0.30646 0.30501 0.0
H1369 H 0.05158 0.23004 0.3218 0.0
N1370 N 0.11767 0.28563 0.32065 0.0
C1371 C 0.08962 0.24465 0.32816 0.0
C1372 C 0.09893 0.28633 0.31339 0.0
C1373 C 0.11348 0.26474 0.32753 0.0
C1374 C 0.07002 0.24564 0.32133 0.0
C1375 C 0.07459 0.26652 0.3136 0.0
O1376 O 0.1554 0.29116 0.30702 0.0
O1377 O 0.18804 0.34544 0.33248 0.0
O1378 O 0.16784 0.3709 0.34187 0.0
O1379 O 0.13984 0.34252 0.32451 0.0
O1380 O 0.1836 0.35557 0.31148 0.0
O1381 O 0.17805 0.32767 0.29992 0.0
O1382 O 0.16175 0.332 0.37545 0.0
O1383 O 0.15122 0.31772 0.34331 0.0
O1384 O 0.16798 0.29852 0.33312 0.0
O1385 O 0.19704 0.32829 0.34865 0.0
O1386 O 0.14006 0.33289 0.35944 0.0
O1387 O 0.20034 0.34622 0.37294 0.0
C1388 C 0.19744 0.36254 0.32317 0.0
C1389 C 0.15848 0.29835 0.28062 0.0
C1390 C 0.15937 0.30775 0.25378 0.0
C1391 C 0.16876 0.31482 0.26852 0.0
C1392 C 0.13942 0.28425 0.25136 0.0
C1393 C 0.13853 0.275 0.27772 0.0
C1394 C 0.12908 0.26812 0.26323 0.0
C1395 C 0.14978 0.3636 0.33174 0.0
C1396 C 0.16862 0.30514 0.29616 0.0
C1397 C 0.05583 0.26797 0.30575 0.0
C1398 C 0.06162 0.28848 0.29713 0.0
C1399 C 0.13231 0.31571 0.34977 0.0
C1400 C 0.18584 0.34632 0.39739 0.0
C1401 C 0.17711 0.33089 0.40995 0.0
C1402 C 0.18088 0.34058 0.42464 0.0
C1403 C 0.19318 0.36592 0.42643 0.0
C1404 C 0.19808 0.37148 0.39957 0.0
C1405 C 0.20166 0.38117 0.414 0.0
C1406 C 0.18655 0.30624 0.34283 0.0
C1407 C 0.18188 0.33607 0.38209 0.0
H1408 H 0.18422 0.33285 0.2705 0.0
H1409 H 0.13163 0.27839 0.24024 0.0
H1410 H 0.13018 0.26192 0.28665 0.0
H1411 H 0.11367 0.25011 0.26118 0.0
H1412 H 0.16774 0.31144 0.40829 0.0
H1413 H 0.19599 0.37403 0.43747 0.0
H1414 H 0.2049 0.38366 0.39012 0.0
H1415 H 0.21104 0.40061 0.41557 0.0
Tb1416 Tb 0.68777 0.84494 0.32059 0.0
C1417 C 0.59625 0.80386 0.35632 0.0
C1418 C 0.5864 0.83594 0.35448 0.0
C1419 C 0.55335 0.79416 0.35667 0.0
C1420 C 0.60382 0.82803 0.3548 0.0
C1421 C 0.57097 0.78664 0.35777 0.0
C1422 C 0.56106 0.81881 0.35506 0.0
C1423 C 0.58275 0.75676 0.36355 0.0
N1424 N 0.61389 0.79755 0.3577 0.0
C1425 C 0.60759 0.77469 0.36231 0.0
C1426 C 0.5643 0.76267 0.36099 0.0
Tb1427 Tb 0.65415 0.82797 0.35509 0.0
N1428 N 0.62841 0.8439 0.35423 0.0
C1429 C 0.63694 0.86826 0.35397 0.0
C1430 C 0.59501 0.86083 0.35389 0.0
C1431 C 0.62041 0.87706 0.35373 0.0
H1432 H 0.62184 0.77017 0.36453 0.0
H1433 H 0.62728 0.89636 0.35337 0.0
H1434 H 0.54735 0.82448 0.35463 0.0
H1435 H 0.57787 0.73848 0.3666 0.0
H1436 H 0.65647 0.88105 0.35375 0.0
H1437 H 0.66639 0.78812 0.27147 0.0
H1438 H 0.58228 0.8677 0.35384 0.0
H1439 H 0.73965 0.87435 0.34038 0.0
H1440 H 0.66096 0.81448 0.28957 0.0
H1441 H 0.77955 0.87566 0.3422 0.0
H1442 H 0.5338 0.78119 0.35757 0.0
H1443 H 0.7016 0.78083 0.27434 0.0
H1444 H 0.74121 0.79093 0.2878 0.0
H1445 H 0.54507 0.74885 0.36216 0.0
H1446 H 0.7725 0.81542 0.3069 0.0
N1447 N 0.69145 0.82032 0.30327 0.0
C1448 C 0.67602 0.81092 0.29112 0.0
C1449 C 0.699 0.79202 0.28246 0.0
C1450 C 0.716 0.8035 0.29414 0.0
C1451 C 0.67914 0.79612 0.28079 0.0
C1452 C 0.71171 0.81785 0.30439 0.0
H1453 H 0.78755 0.84818 0.32653 0.0
N1454 N 0.72466 0.84603 0.32405 0.0
C1455 C 0.76542 0.86291 0.33464 0.0
C1456 C 0.72909 0.83141 0.31511 0.0
C1457 C 0.7427 0.86216 0.33352 0.0
C1458 C 0.76981 0.84728 0.32587 0.0
C1459 C 0.75158 0.83131 0.3159 0.0
O1460 O 0.71738 0.87623 0.31103 0.0
O1461 O 0.65863 0.8454 0.33365 0.0
O1462 O 0.63573 0.79739 0.33933 0.0
O1463 O 0.66484 0.80519 0.32033 0.0
O1464 O 0.65123 0.83344 0.31165 0.0
O1465 O 0.68052 0.86171 0.3025 0.0
O1466 O 0.65744 0.81317 0.37553 0.0
O1467 O 0.68798 0.83546 0.34388 0.0
O1468 O 0.70309 0.8775 0.33468 0.0
O1469 O 0.68453 0.86495 0.35803 0.0
O1470 O 0.6701 0.80448 0.35639 0.0
O1471 O 0.65861 0.84731 0.37512 0.0
C1472 C 0.64209 0.83751 0.32344 0.0
C1473 C 0.71324 0.88371 0.28538 0.0
C1474 C 0.70792 0.87722 0.25809 0.0
C1475 C 0.69989 0.86939 0.27291 0.0
C1476 C 0.72989 0.89962 0.2562 0.0
C1477 C 0.73527 0.90549 0.28303 0.0
C1478 C 0.74355 0.9133 0.26854 0.0
C1479 C 0.64396 0.79084 0.32753 0.0
C1480 C 0.70352 0.87799 0.30081 0.0
C1481 C 0.75548 0.81602 0.30631 0.0
C1482 C 0.73765 0.80205 0.29546 0.0
C1483 C 0.68938 0.81729 0.3484 0.0
C1484 C 0.64398 0.82447 0.39725 0.0
C1485 C 0.65593 0.83058 0.41128 0.0
C1486 C 0.64215 0.82482 0.42462 0.0
C1487 C 0.61621 0.81278 0.42367 0.0
C1488 C 0.61812 0.81273 0.39657 0.0
C1489 C 0.60433 0.80683 0.40973 0.0
C1490 C 0.70055 0.88158 0.3489 0.0
C1491 C 0.65894 0.8309 0.38354 0.0
H1492 H 0.68313 0.85245 0.27484 0.0
H1493 H 0.73644 0.90715 0.24521 0.0
H1494 H 0.74572 0.91686 0.29243 0.0
H1495 H 0.76033 0.93042 0.26684 0.0
H1496 H 0.67594 0.83967 0.4118 0.0
H1497 H 0.6051 0.80835 0.43371 0.0
H1498 H 0.60856 0.80822 0.38594 0.0
H1499 H 0.58437 0.79777 0.40911 0.0
Tb1500 Tb 0.18022 0.82843 0.35772 0.0
C1501 C 0.1268 0.86742 0.31879 0.0
C1502 C 0.0841 0.83596 0.32078 0.0
C1503 C 0.09428 0.87771 0.31705 0.0
C1504 C 0.10951 0.84351 0.32092 0.0
C1505 C 0.11947 0.88477 0.31635 0.0
C1506 C 0.0766 0.8533 0.31929 0.0
C1507 C 0.16205 0.91387 0.31094 0.0
N1508 N 0.15081 0.87332 0.31803 0.0
C1509 C 0.1683 0.89588 0.31337 0.0
C1510 C 0.13758 0.9084 0.3127 0.0
Tb1511 Tb 0.15976 0.8433 0.32314 0.0
N1512 N 0.11762 0.82743 0.32218 0.0
C1513 C 0.10098 0.80311 0.32201 0.0
C1514 C 0.06705 0.81119 0.3216 0.0
C1515 C 0.07555 0.79467 0.32199 0.0
H1516 H 0.18727 0.90026 0.31205 0.0
H1517 H 0.06252 0.77543 0.3223 0.0
H1518 H 0.05717 0.84792 0.31937 0.0
H1519 H 0.17612 0.93191 0.30773 0.0
H1520 H 0.10705 0.78998 0.3224 0.0
H1521 H 0.27679 0.89765 0.36114 0.0
H1522 H 0.04736 0.8046 0.32146 0.0
H1523 H 0.15363 0.77098 0.36772 0.0
H1524 H 0.23212 0.8822 0.36001 0.0
H1525 H 0.16558 0.73972 0.37122 0.0
H1526 H 0.08825 0.89081 0.31541 0.0
H1527 H 0.29292 0.86925 0.36094 0.0
H1528 H 0.28407 0.82614 0.36162 0.0
H1529 H 0.13275 0.92231 0.31074 0.0
H1530 H 0.25359 0.78279 0.36428 0.0
N1531 N 0.22243 0.84501 0.35888 0.0
C1532 C 0.2386 0.86938 0.35997 0.0
C1533 C 0.27316 0.86225 0.36039 0.0
C1534 C 0.25654 0.83733 0.36018 0.0
C1535 C 0.26412 0.87833 0.36062 0.0
C1536 C 0.23102 0.82925 0.35961 0.0
H1537 H 0.20924 0.75036 0.3682 0.0
N1538 N 0.18991 0.79868 0.36203 0.0
C1539 C 0.17941 0.75803 0.36831 0.0
C1540 C 0.21406 0.8051 0.36122 0.0
C1541 C 0.17271 0.77578 0.36634 0.0
C1542 C 0.20405 0.76407 0.36653 0.0
C1543 C 0.22186 0.78802 0.36332 0.0
O1544 O 0.16067 0.81426 0.37778 0.0
O1545 O 0.15131 0.8311 0.34608 0.0
O1546 O 0.16519 0.87158 0.33903 0.0
O1547 O 0.18873 0.86647 0.35777 0.0
O1548 O 0.14096 0.80162 0.35935 0.0
O1549 O 0.19293 0.84972 0.37732 0.0
O1550 O 0.17958 0.8561 0.30302 0.0
O1551 O 0.18845 0.84086 0.33501 0.0
O1552 O 0.17578 0.80108 0.34132 0.0
O1553 O 0.15046 0.80511 0.32343 0.0
O1554 O 0.19939 0.86964 0.3213 0.0
O1555 O 0.14636 0.82143 0.30379 0.0
C1556 C 0.13262 0.81251 0.35111 0.0
C1557 C 0.18376 0.82831 0.40014 0.0
C1558 C 0.18185 0.82832 0.42753 0.0
C1559 C 0.175 0.83316 0.41344 0.0
C1560 C 0.1976 0.81844 0.42802 0.0
C1561 C 0.19963 0.81873 0.40089 0.0
C1562 C 0.20644 0.81377 0.41478 0.0
C1563 C 0.17938 0.87882 0.35118 0.0
C1564 C 0.17583 0.83313 0.38566 0.0
C1565 C 0.24719 0.79565 0.36286 0.0
C1566 C 0.26454 0.82033 0.36134 0.0
C1567 C 0.20747 0.85903 0.32999 0.0
C1568 C 0.15663 0.842 0.28062 0.0
C1569 C 0.16618 0.83739 0.26756 0.0
C1570 C 0.16006 0.84241 0.2533 0.0
C1571 C 0.14418 0.85209 0.25236 0.0
C1572 C 0.1407 0.85147 0.27943 0.0
C1573 C 0.13456 0.85651 0.26535 0.0
C1574 C 0.16083 0.79336 0.32952 0.0
C1575 C 0.16394 0.83722 0.29534 0.0
H1576 H 0.16309 0.84099 0.41277 0.0
H1577 H 0.20293 0.81409 0.43862 0.0
H1578 H 0.2067 0.81505 0.3908 0.0
H1579 H 0.21857 0.80621 0.4153 0.0
H1580 H 0.17861 0.83019 0.26852 0.0
H1581 H 0.13886 0.85587 0.24157 0.0
H1582 H 0.13304 0.85496 0.28933 0.0
H1583 H 0.12223 0.86381 0.26448 0.0
Tb1584 Tb 0.82673 0.64827 0.65611 0.0
C1585 C 0.873 0.73941 0.69525 0.0
C1586 C 0.91637 0.75187 0.69456 0.0
C1587 C 0.90373 0.78216 0.69684 0.0
C1588 C 0.89131 0.73361 0.69391 0.0
C1589 C 0.87887 0.76365 0.69721 0.0
C1590 C 0.92249 0.77626 0.6955 0.0
C1591 C 0.83551 0.74909 0.70144 0.0
N1592 N 0.84937 0.72095 0.69574 0.0
C1593 C 0.83072 0.72532 0.6995 0.0
C1594 C 0.85965 0.76839 0.70003 0.0
Tb1595 Tb 0.84281 0.68278 0.69114 0.0
N1596 N 0.88447 0.70983 0.69327 0.0
C1597 C 0.90195 0.703 0.69478 0.0
C1598 C 0.93439 0.74497 0.69498 0.0
C1599 C 0.9271 0.72042 0.6955 0.0
H1600 H 0.81198 0.71051 0.70045 0.0
H1601 H 0.94085 0.71485 0.69626 0.0
H1602 H 0.94164 0.7906 0.69577 0.0
H1603 H 0.82057 0.7525 0.70396 0.0
H1604 H 0.89682 0.68415 0.69498 0.0
H1605 H 0.72852 0.61572 0.65158 0.0
H1606 H 0.95386 0.75841 0.69549 0.0
H1607 H 0.85768 0.62083 0.6464 0.0
H1608 H 0.77253 0.64658 0.65259 0.0
H1609 H 0.84927 0.57893 0.64274 0.0
H1610 H 0.90866 0.80096 0.69812 0.0
H1611 H 0.71576 0.57221 0.65229 0.0
H1612 H 0.72822 0.54019 0.65176 0.0
H1613 H 0.86334 0.78677 0.70159 0.0
H1614 H 0.76132 0.53006 0.64911 0.0
N1615 N 0.78509 0.62105 0.65412 0.0
C1616 C 0.76749 0.62776 0.65276 0.0
C1617 C 0.73521 0.58572 0.65269 0.0
C1618 C 0.75334 0.57896 0.65293 0.0
C1619 C 0.74236 0.61025 0.6522 0.0
C1620 C 0.77837 0.59731 0.65346 0.0
H1621 H 0.80664 0.54449 0.64532 0.0
N1622 N 0.82033 0.61017 0.65139 0.0
C1623 C 0.83431 0.58223 0.64542 0.0
C1624 C 0.79675 0.59163 0.65197 0.0
C1625 C 0.83899 0.60595 0.64744 0.0
C1626 C 0.81024 0.56283 0.64694 0.0
C1627 C 0.79098 0.56743 0.64995 0.0
O1628 O 0.8476 0.65521 0.63632 0.0
O1629 O 0.85336 0.67921 0.66874 0.0
O1630 O 0.83772 0.70496 0.67443 0.0
O1631 O 0.81535 0.67589 0.65584 0.0
O1632 O 0.86673 0.66245 0.65558 0.0
O1633 O 0.81446 0.65749 0.63651 0.0
O1634 O 0.82218 0.67645 0.71098 0.0
O1635 O 0.8162 0.65186 0.67851 0.0
O1636 O 0.83202 0.6261 0.6727 0.0
O1637 O 0.85405 0.65503 0.69143 0.0
O1638 O 0.80282 0.66861 0.69166 0.0
O1639 O 0.85464 0.67298 0.71067 0.0
C1640 C 0.8732 0.68067 0.66439 0.0
C1641 C 0.8257 0.64765 0.61342 0.0
C1642 C 0.8276 0.65143 0.58602 0.0
C1643 C 0.83386 0.66211 0.60044 0.0
C1644 C 0.81289 0.62606 0.58491 0.0
C1645 C 0.81109 0.62246 0.61198 0.0
C1646 C 0.80475 0.61177 0.59778 0.0
C1647 C 0.82405 0.69761 0.66205 0.0
C1648 C 0.83246 0.65913 0.62836 0.0
C1649 C 0.76617 0.54884 0.65043 0.0
C1650 C 0.74734 0.5546 0.65194 0.0
C1651 C 0.79634 0.65034 0.68289 0.0
C1652 C 0.84416 0.68338 0.73382 0.0
C1653 C 0.83557 0.66899 0.74681 0.0
C1654 C 0.84237 0.67962 0.76122 0.0
C1655 C 0.85807 0.70487 0.76231 0.0
C1656 C 0.85974 0.70846 0.73525 0.0
C1657 C 0.86663 0.7191 0.74944 0.0
C1658 C 0.84556 0.6334 0.68512 0.0
C1659 C 0.83696 0.67194 0.71888 0.0
H1660 H 0.84526 0.68159 0.6016 0.0
H1661 H 0.80732 0.61722 0.57407 0.0
H1662 H 0.8045 0.61109 0.6218 0.0
H1663 H 0.79337 0.5923 0.59674 0.0
H1664 H 0.82341 0.64961 0.74566 0.0
H1665 H 0.86406 0.71366 0.77315 0.0
H1666 H 0.86665 0.71976 0.72542 0.0
H1667 H 0.87876 0.73847 0.75047 0.0
Tb1668 Tb 0.35491 0.17604 0.65723 0.0
C1669 C 0.25791 0.13286 0.69125 0.0
C1670 C 0.24573 0.16318 0.68882 0.0
C1671 C 0.21433 0.12068 0.69061 0.0
C1672 C 0.26421 0.15664 0.68945 0.0
C1673 C 0.23294 0.11458 0.69231 0.0
C1674 C 0.22073 0.14499 0.6889 0.0
C1675 C 0.24685 0.08651 0.69871 0.0
N1676 N 0.27648 0.12797 0.69325 0.0
C1677 C 0.27134 0.10542 0.69778 0.0
C1678 C 0.22755 0.09102 0.6957 0.0
Tb1679 Tb 0.31607 0.15948 0.69022 0.0
N1680 N 0.28855 0.17354 0.68974 0.0
C1681 C 0.29558 0.19757 0.69075 0.0
C1682 C 0.25294 0.18777 0.68892 0.0
C1683 C 0.27796 0.20502 0.6902 0.0
H1684 H 0.28615 0.10178 0.70011 0.0
H1685 H 0.28373 0.2241 0.69064 0.0
H1686 H 0.20624 0.14961 0.68823 0.0
H1687 H 0.24291 0.06851 0.70178 0.0
H1688 H 0.3148 0.21126 0.69159 0.0
H1689 H 0.38495 0.10988 0.65387 0.0
H1690 H 0.23935 0.19359 0.6886 0.0
H1691 H 0.38556 0.23532 0.65153 0.0
H1692 H 0.35461 0.12348 0.65561 0.0
H1693 H 0.42902 0.26798 0.64955 0.0
H1694 H 0.195 0.10689 0.69119 0.0
H1695 H 0.42955 0.13979 0.65301 0.0
H1696 H 0.46336 0.18341 0.6536 0.0
H1697 H 0.2086 0.07642 0.69657 0.0
H1698 H 0.47545 0.22657 0.65282 0.0
N1699 N 0.38159 0.16112 0.65633 0.0
C1700 C 0.37394 0.13694 0.65542 0.0
C1701 C 0.41632 0.14597 0.65412 0.0
C1702 C 0.42408 0.17066 0.65477 0.0
C1703 C 0.39114 0.12904 0.65445 0.0
C1704 C 0.40602 0.17772 0.65567 0.0
H1705 H 0.46274 0.25832 0.65114 0.0
N1706 N 0.3946 0.20753 0.65483 0.0
C1707 C 0.42472 0.24945 0.65114 0.0
C1708 C 0.4128 0.20184 0.65506 0.0
C1709 C 0.40012 0.23089 0.65223 0.0
C1710 C 0.44371 0.24394 0.6521 0.0
C1711 C 0.43785 0.21982 0.65377 0.0
O1712 O 0.35259 0.1914 0.63686 0.0
O1713 O 0.32197 0.1722 0.66747 0.0
O1714 O 0.295 0.13175 0.67345 0.0
O1715 O 0.32587 0.13747 0.65631 0.0
O1716 O 0.3415 0.20182 0.65454 0.0
O1717 O 0.34732 0.15528 0.63751 0.0
O1718 O 0.32022 0.14643 0.71106 0.0
O1719 O 0.34863 0.16268 0.67981 0.0
O1720 O 0.3765 0.20105 0.67517 0.0
O1721 O 0.34482 0.19831 0.69023 0.0
O1722 O 0.32975 0.13404 0.6936 0.0
O1723 O 0.32281 0.18129 0.70938 0.0
C1724 C 0.32165 0.19038 0.66226 0.0
C1725 C 0.36314 0.17745 0.61518 0.0
C1726 C 0.36415 0.17748 0.5878 0.0
C1727 C 0.35091 0.17277 0.60129 0.0
C1728 C 0.38989 0.18702 0.58847 0.0
C1729 C 0.38875 0.18681 0.6156 0.0
C1730 C 0.40205 0.1916 0.60229 0.0
C1731 C 0.30336 0.12469 0.66202 0.0
C1732 C 0.34876 0.17256 0.62902 0.0
C1733 C 0.45607 0.21303 0.65367 0.0
C1734 C 0.44919 0.18846 0.6541 0.0
C1735 C 0.34906 0.14471 0.68534 0.0
C1736 C 0.30791 0.16008 0.73206 0.0
C1737 C 0.31981 0.16483 0.74605 0.0
C1738 C 0.30618 0.15973 0.75939 0.0
C1739 C 0.2804 0.14971 0.75851 0.0
C1740 C 0.28224 0.15033 0.73138 0.0
C1741 C 0.26857 0.14512 0.74457 0.0
C1742 C 0.36825 0.20954 0.68587 0.0
C1743 C 0.32265 0.16517 0.71838 0.0
H1744 H 0.33103 0.16516 0.60103 0.0
H1745 H 0.40069 0.19118 0.57831 0.0
H1746 H 0.39848 0.19046 0.62614 0.0
H1747 H 0.42185 0.19894 0.6027 0.0
H1748 H 0.33966 0.17224 0.74654 0.0
H1749 H 0.26946 0.14581 0.76859 0.0
H1750 H 0.27278 0.14675 0.72072 0.0
H1751 H 0.24874 0.13758 0.74398 0.0
Tb1752 Tb 0.84614 0.16009 0.69327 0.0
C1753 C 0.79606 0.19799 0.65442 0.0
C1754 C 0.75297 0.1679 0.65733 0.0
C1755 C 0.76476 0.20995 0.65297 0.0
C1756 C 0.7781 0.17441 0.65705 0.0
C1757 C 0.78963 0.21597 0.65188 0.0
C1758 C 0.74643 0.18592 0.65568 0.0
C1759 C 0.83221 0.24343 0.6454 0.0
N1760 N 0.81973 0.20287 0.65321 0.0
C1761 C 0.83755 0.22483 0.64784 0.0
C1762 C 0.80822 0.23911 0.64769 0.0
Tb1763 Tb 0.82676 0.17142 0.6579 0.0
N1764 N 0.78521 0.15762 0.65859 0.0
C1765 C 0.76792 0.13362 0.65971 0.0
C1766 C 0.73521 0.14343 0.65887 0.0
C1767 C 0.74271 0.12619 0.65993 0.0
H1768 H 0.85612 0.22822 0.64605 0.0
H1769 H 0.72911 0.10719 0.661 0.0
H1770 H 0.72725 0.18136 0.65608 0.0
H1771 H 0.84657 0.26103 0.6417 0.0
H1772 H 0.77345 0.12012 0.66068 0.0
H1773 H 0.88841 0.22811 0.73669 0.0
H1774 H 0.7157 0.13762 0.6589 0.0
H1775 H 0.8663 0.12747 0.67543 0.0
H1776 H 0.85414 0.1984 0.72071 0.0
H1777 H 0.90475 0.12596 0.67375 0.0
H1778 H 0.75943 0.22356 0.65125 0.0
H1779 H 0.93043 0.23392 0.73373 0.0
H1780 H 0.95797 0.22039 0.72167 0.0
H1781 H 0.80408 0.25347 0.64567 0.0
H1782 H 0.96218 0.19194 0.70486 0.0
N1783 N 0.87693 0.1888 0.70813 0.0
C1784 C 0.87249 0.20103 0.71924 0.0
C1785 C 0.91552 0.22109 0.72659 0.0
C1786 C 0.91941 0.2069 0.71615 0.0
C1787 C 0.89183 0.21782 0.72832 0.0
C1788 C 0.89939 0.19053 0.70711 0.0
H1789 H 0.94196 0.15572 0.68773 0.0
N1790 N 0.88151 0.15831 0.68991 0.0
C1791 C 0.90419 0.13982 0.68049 0.0
C1792 C 0.90172 0.17459 0.69774 0.0
C1793 C 0.88232 0.14073 0.68152 0.0
C1794 C 0.92523 0.15678 0.68827 0.0
C1795 C 0.9242 0.17448 0.69702 0.0
O1796 O 0.84441 0.13064 0.705 0.0
O1797 O 0.81491 0.156 0.68001 0.0
O1798 O 0.83689 0.20244 0.67276 0.0
O1799 O 0.86327 0.19951 0.69027 0.0
O1800 O 0.81999 0.17043 0.70138 0.0
O1801 O 0.8268 0.1495 0.71373 0.0
O1802 O 0.84554 0.18152 0.63725 0.0
O1803 O 0.85421 0.16601 0.66958 0.0
O1804 O 0.82736 0.12508 0.68144 0.0
O1805 O 0.81758 0.13368 0.6578 0.0
O1806 O 0.86644 0.19533 0.65562 0.0
O1807 O 0.80913 0.15077 0.63858 0.0
C1808 C 0.80594 0.16401 0.68976 0.0
C1809 C 0.84525 0.13582 0.73155 0.0
C1810 C 0.84841 0.14544 0.75849 0.0
C1811 C 0.8376 0.14369 0.74425 0.0
C1812 C 0.8668 0.13889 0.7598 0.0
C1813 C 0.86381 0.12966 0.73328 0.0
C1814 C 0.87444 0.1312 0.7473 0.0
C1815 C 0.85393 0.2117 0.68347 0.0
C1816 C 0.83378 0.13387 0.7166 0.0
C1817 C 0.94465 0.19155 0.7054 0.0
C1818 C 0.94227 0.20778 0.71494 0.0
C1819 C 0.87357 0.18381 0.66421 0.0
C1820 C 0.82082 0.1715 0.61549 0.0
C1821 C 0.82906 0.16665 0.60196 0.0
C1822 C 0.82321 0.17321 0.5881 0.0
C1823 C 0.80923 0.18501 0.58807 0.0
C1824 C 0.80659 0.18291 0.61515 0.0
C1825 C 0.80096 0.18973 0.6015 0.0
C1826 C 0.81854 0.11873 0.66763 0.0
C1827 C 0.82727 0.16445 0.62977 0.0
H1828 H 0.82349 0.14872 0.74298 0.0
H1829 H 0.87512 0.13936 0.77056 0.0
H1830 H 0.87012 0.12354 0.72382 0.0
H1831 H 0.88861 0.12625 0.74852 0.0
H1832 H 0.83964 0.15738 0.60226 0.0
H1833 H 0.80476 0.19072 0.57766 0.0
H1834 H 0.79975 0.18647 0.62536 0.0
H1835 H 0.79012 0.1987 0.60133 0.0
C1836 C 0.34406 0.8664 0.04543 0.0
C1837 C 0.3399 0.87253 0.05994 0.0
C1838 C 0.36406 0.88297 0.03662 0.0
C1839 C 0.38131 0.90586 0.04265 0.0
C1840 C 0.37791 0.91193 0.05737 0.0
C1841 C 0.35697 0.89572 0.06554 0.0
C1842 C 0.36618 0.87628 0.02065 0.0
C1843 C 0.39638 0.93575 0.06456 0.0
C1844 C 0.4461 0.94305 0.02672 0.0
C1845 C 0.44517 0.96291 0.02077 0.0
C1846 C 0.42519 0.92376 0.03337 0.0
C1847 C 0.40258 0.92398 0.03358 0.0
C1848 C 0.40124 0.94325 0.0266 0.0
C1849 C 0.42279 0.96295 0.02086 0.0
C1850 C 0.4279 0.90425 0.04123 0.0
C1851 C 0.37726 0.94355 0.02568 0.0
H1852 H 0.3318 0.8487 0.04075 0.0
H1853 H 0.35413 0.90171 0.07631 0.0
H1854 H 0.3624 0.88766 0.0129 0.0
H1855 H 0.38516 0.87995 0.01829 0.0
H1856 H 0.35293 0.85695 0.0181 0.0
H1857 H 0.39297 0.9363 0.07673 0.0
H1858 H 0.41547 0.93906 0.0631 0.0
H1859 H 0.39538 0.95082 0.05905 0.0
H1860 H 0.46359 0.94338 0.02715 0.0
H1861 H 0.42218 0.97847 0.0164 0.0
H1862 H 0.41273 0.88602 0.03799 0.0
H1863 H 0.42671 0.90617 0.05353 0.0
H1864 H 0.44584 0.90532 0.03871 0.0
H1865 H 0.36184 0.92541 0.02245 0.0
H1866 H 0.37824 0.95704 0.01744 0.0
H1867 H 0.37288 0.94819 0.03681 0.0
C1868 C 0.12338 0.46842 0.06597 0.0
C1869 C 0.1389 0.46295 0.05746 0.0
C1870 C 0.10416 0.47066 0.0592 0.0
C1871 C 0.1003 0.46757 0.04347 0.0
C1872 C 0.1159 0.46212 0.03484 0.0
C1873 C 0.13483 0.45981 0.04189 0.0
C1874 C 0.08784 0.4762 0.06892 0.0
C1875 C 0.1131 0.45923 0.01805 0.0
C1876 C 0.03606 0.45005 0.02845 0.0
C1877 C 0.03901 0.4724 0.02392 0.0
C1878 C 0.05587 0.4482 0.03457 0.0
C1879 C 0.07943 0.46923 0.0362 0.0
C1880 C 0.08269 0.49179 0.03127 0.0
C1881 C 0.06237 0.49317 0.0255 0.0
C1882 C 0.05147 0.42375 0.03956 0.0
C1883 C 0.10754 0.51458 0.03232 0.0
H1884 H 0.12641 0.47126 0.07796 0.0
H1885 H 0.14629 0.45522 0.03513 0.0
H1886 H 0.08884 0.49326 0.06519 0.0
H1887 H 0.06831 0.46156 0.06773 0.0
H1888 H 0.09314 0.47804 0.08096 0.0
H1889 H 0.12331 0.45062 0.01333 0.0
H1890 H 0.09338 0.44826 0.01471 0.0
H1891 H 0.12064 0.47743 0.01299 0.0
H1892 H 0.01799 0.43397 0.02745 0.0
H1893 H 0.06477 0.51062 0.02249 0.0
H1894 H 0.05548 0.42427 0.05173 0.0
H1895 H 0.0642 0.41921 0.03359 0.0
H1896 H 0.03217 0.40911 0.03743 0.0
H1897 H 0.11319 0.51886 0.04426 0.0
H1898 H 0.10739 0.53037 0.02717 0.0
H1899 H 0.12173 0.51184 0.02663 0.0
C1900 C 0.51869 0.65845 0.06033 0.0
C1901 C 0.54185 0.67511 0.06633 0.0
C1902 C 0.5147 0.63691 0.05351 0.0
C1903 C 0.53452 0.63217 0.0524 0.0
C1904 C 0.55793 0.64889 0.05852 0.0
C1905 C 0.56125 0.67008 0.06556 0.0
C1906 C 0.48934 0.61931 0.04739 0.0
C1907 C 0.5796 0.64467 0.05734 0.0
C1908 C 0.51968 0.56739 0.04542 0.0
C1909 C 0.52228 0.56715 0.02983 0.0
C1910 C 0.52361 0.58843 0.05293 0.0
C1911 C 0.53076 0.60984 0.04465 0.0
C1912 C 0.53388 0.60979 0.02892 0.0
C1913 C 0.52945 0.58837 0.02169 0.0
C1914 C 0.51963 0.58759 0.06966 0.0
C1915 C 0.54188 0.63234 0.01973 0.0
H1916 H 0.50364 0.66229 0.06103 0.0
H1917 H 0.57923 0.68309 0.07008 0.0
H1918 H 0.4903 0.6173 0.03509 0.0
H1919 H 0.48257 0.60117 0.0524 0.0
H1920 H 0.47569 0.62523 0.04969 0.0
H1921 H 0.59655 0.65937 0.06275 0.0
H1922 H 0.57506 0.62723 0.06267 0.0
H1923 H 0.58359 0.64338 0.04537 0.0
H1924 H 0.51396 0.55092 0.05173 0.0
H1925 H 0.53202 0.58836 0.0097 0.0
H1926 H 0.50493 0.59199 0.0722 0.0
H1927 H 0.53674 0.6014 0.07536 0.0
H1928 H 0.51424 0.56955 0.07445 0.0
H1929 H 0.52809 0.63839 0.02072 0.0
H1930 H 0.54404 0.62941 0.00767 0.0
H1931 H 0.55972 0.64722 0.02407 0.0
C1932 C 0.87367 0.32094 0.96768 0.0
C1933 C 0.86517 0.31981 0.95294 0.0
C1934 C 0.89153 0.343 0.9741 0.0
C1935 C 0.9011 0.36457 0.96563 0.0
C1936 C 0.89284 0.36353 0.95068 0.0
C1937 C 0.87507 0.34116 0.94449 0.0
C1938 C 0.89999 0.34326 0.99003 0.0
C1939 C 0.90243 0.38614 0.94132 0.0
C1940 C 0.92796 0.42372 0.98758 0.0
C1941 C 0.95345 0.43234 0.98675 0.0
C1942 C 0.91079 0.4019 0.98063 0.0
C1943 C 0.91925 0.38826 0.9726 0.0
C1944 C 0.94498 0.39701 0.97154 0.0
C1945 C 0.96178 0.41899 0.97857 0.0
C1946 C 0.88356 0.39337 0.98199 0.0
C1947 C 0.95476 0.38296 0.96315 0.0
H1948 H 0.86639 0.30448 0.9742 0.0
H1949 H 0.86844 0.34048 0.93315 0.0
H1950 H 0.92035 0.35122 0.99039 0.0
H1951 H 0.89546 0.35482 0.99714 0.0
H1952 H 0.89125 0.32485 0.99496 0.0
H1953 H 0.89464 0.38221 0.92977 0.0
H1954 H 0.89768 0.39898 0.94673 0.0
H1955 H 0.92287 0.39537 0.94062 0.0
H1956 H 0.92132 0.4341 0.99364 0.0
H1957 H 0.98143 0.42551 0.97784 0.0
H1958 H 0.87413 0.37573 0.98787 0.0
H1959 H 0.87506 0.39051 0.97068 0.0
H1960 H 0.88007 0.40646 0.98825 0.0
H1961 H 0.94771 0.3649 0.96834 0.0
H1962 H 0.97528 0.39243 0.96313 0.0
H1963 H 0.94806 0.37991 0.95138 0.0
C1964 C 0.656 0.53348 0.9533 0.0
C1965 C 0.67726 0.5397 0.96197 0.0
C1966 C 0.63438 0.53114 0.9598 0.0
C1967 C 0.63361 0.53462 0.97545 0.0
C1968 C 0.65483 0.54066 0.98428 0.0
C1969 C 0.67633 0.5433 0.97747 0.0
C1970 C 0.61234 0.52508 0.94988 0.0
C1971 C 0.65477 0.54396 1.00103 0.0
C1972 C 0.58653 0.55112 0.99018 0.0
C1973 C 0.56717 0.52865 0.99486 0.0
C1974 C 0.60821 0.55331 0.98394 0.0
C1975 C 0.61085 0.53255 0.98249 0.0
C1976 C 0.59148 0.50985 0.98744 0.0
C1977 C 0.56968 0.50808 0.99321 0.0
C1978 C 0.62813 0.57781 0.97864 0.0
C1979 C 0.59362 0.48732 0.98646 0.0
H1980 H 0.65609 0.53016 0.94139 0.0
H1981 H 0.69256 0.5485 0.98435 0.0
H1982 H 0.5962 0.5078 0.95351 0.0
H1983 H 0.60717 0.53934 0.95095 0.0
H1984 H 0.61598 0.52338 0.93788 0.0
H1985 H 0.67346 0.55136 0.00608 0.0
H1986 H 0.64754 0.55622 1.00387 0.0
H1987 H 0.64238 0.52613 0.0062 0.0
H1988 H 0.58448 0.56699 0.99114 0.0
H1989 H 0.5545 0.49052 0.9963 0.0
H1990 H 0.63132 0.57699 0.96647 0.0
H1991 H 0.64577 0.58298 0.98453 0.0
H1992 H 0.6233 0.59217 0.98058 0.0
H1993 H 0.5945 0.48283 0.97454 0.0
H1994 H 0.57777 0.47149 0.99183 0.0
H1995 H 0.61094 0.4905 0.99199 0.0
C1996 C 0.47607 0.12192 0.94254 0.0
C1997 C 0.46227 0.13105 0.94946 0.0
C1998 C 0.48216 0.10642 0.95025 0.0
C1999 C 0.47392 0.0996 0.96516 0.0
C2000 C 0.46011 0.1089 0.97224 0.0
C2001 C 0.4546 0.12467 0.96433 0.0
C2002 C 0.49724 0.09717 0.94241 0.0
C2003 C 0.45071 0.10179 0.98804 0.0
C2004 C 0.46809 0.04048 0.97861 0.0
C2005 C 0.48943 0.04864 0.98745 0.0
C2006 C 0.46262 0.0569 0.97153 0.0
C2007 C 0.47906 0.08209 0.97314 0.0
C2008 C 0.5006 0.09046 0.98211 0.0
C2009 C 0.50547 0.07363 0.9892 0.0
C2010 C 0.43929 0.04726 0.96223 0.0
C2011 C 0.51873 0.11716 0.98398 0.0
H2012 H 0.48226 0.12707 0.93111 0.0
H2013 H 0.44375 0.13157 0.96965 0.0
H2014 H 0.51395 0.10156 0.94915 0.0
H2015 H 0.48629 0.07717 0.94132 0.0
H2016 H 0.50313 0.10503 0.93104 0.0
H2017 H 0.44076 0.11108 0.99206 0.0
H2018 H 0.43799 0.08193 0.98857 0.0
H2019 H 0.46631 0.10616 0.99582 0.0
H2020 H 0.45554 0.02122 0.97725 0.0
H2021 H 0.52215 0.0801 0.99588 0.0
H2022 H 0.44405 0.05288 0.95038 0.0
H2023 H 0.42791 0.05499 0.9663 0.0
H2024 H 0.42798 0.02719 0.96258 0.0
H2025 H 0.52647 0.12524 0.97291 0.0
H2026 H 0.53424 0.12068 0.99167 0.0
H2027 H 0.5092 0.12658 0.98844 0.0
C2028 C 0.64917 0.1085 0.94545 0.0
C2029 C 0.67213 0.12373 0.95232 0.0
C2030 C 0.62855 0.09228 0.95387 0.0
C2031 C 0.63063 0.09143 0.96965 0.0
C2032 C 0.65339 0.10742 0.97677 0.0
C2033 C 0.67388 0.12323 0.96804 0.0
C2034 C 0.60467 0.07547 0.94579 0.0
C2035 C 0.65615 0.10758 0.9936 0.0
C2036 C 0.56867 0.05653 0.98946 0.0
C2037 C 0.56634 0.03357 0.99085 0.0
C2038 C 0.59026 0.07611 0.98357 0.0
C2039 C 0.60955 0.07237 0.9784 0.0
C2040 C 0.60756 0.04939 0.98027 0.0
C2041 C 0.58604 0.03035 0.98651 0.0
C2042 C 0.59183 0.10043 0.98222 0.0
C2043 C 0.62756 0.04448 0.9749 0.0
H2044 H 0.64728 0.10911 0.9334 0.0
H2045 H 0.69144 0.13475 0.97354 0.0
H2046 H 0.59987 0.0564 0.94762 0.0
H2047 H 0.58936 0.07757 0.95038 0.0
H2048 H 0.60583 0.07887 0.93353 0.0
H2049 H 0.67524 0.1206 0.99742 0.0
H2050 H 0.64326 0.11256 0.99893 0.0
H2051 H 0.65113 0.08925 0.99764 0.0
H2052 H 0.55335 0.05906 0.99245 0.0
H2053 H 0.58417 0.01254 0.98744 0.0
H2054 H 0.58923 0.10372 0.97032 0.0
H2055 H 0.61029 0.11515 0.98585 0.0
H2056 H 0.57748 0.10144 0.98902 0.0
H2057 H 0.62896 0.0461 0.96251 0.0
H2058 H 0.6239 0.02613 0.97804 0.0
H2059 H 0.64573 0.05808 0.97965 0.0
C2060 C 0.89639 0.54036 0.94715 0.0
C2061 C 0.87308 0.534 0.95321 0.0
C2062 C 0.91356 0.53614 0.95489 0.0
C2063 C 0.90842 0.52685 0.96964 0.0
C2064 C 0.88541 0.52093 0.9761 0.0
C2065 C 0.86791 0.524 0.96775 0.0
C2066 C 0.93735 0.54177 0.9472 0.0
C2067 C 0.87951 0.51229 0.99208 0.0
C2068 C 0.94699 0.50013 0.98491 0.0
C2069 C 0.96754 0.5207 0.99092 0.0
C2070 C 0.92722 0.50161 0.97835 0.0
C2071 C 0.92759 0.52407 0.97825 0.0
C2072 C 0.94771 0.54454 0.98514 0.0
C2073 C 0.96784 0.54283 0.99083 0.0
C2074 C 0.90669 0.47947 0.97074 0.0
C2075 C 0.94823 0.56842 0.98627 0.0
H2076 H 0.90177 0.54899 0.93634 0.0
H2077 H 0.85022 0.51849 0.97283 0.0
H2078 H 0.95311 0.55775 0.95257 0.0
H2079 H 0.94074 0.52632 0.94832 0.0
H2080 H 0.93713 0.54569 0.93508 0.0
H2081 H 0.85948 0.50397 0.99452 0.0
H2082 H 0.88549 0.499 0.9947 0.0
H2083 H 0.88975 0.52805 0.9997 0.0
H2084 H 0.94699 0.48316 0.98451 0.0
H2085 H 0.98381 0.5588 0.99538 0.0
H2086 H 0.90682 0.4829 0.95854 0.0
H2087 H 0.88847 0.47558 0.97509 0.0
H2088 H 0.90855 0.46316 0.97237 0.0
H2089 H 0.95172 0.57698 0.97506 0.0
H2090 H 0.96287 0.58118 0.99409 0.0
H2091 H 0.93011 0.56554 0.99017 0.0
C2092 C 0.44565 0.33058 0.95729 0.0
C2093 C 0.46433 0.32446 0.95722 0.0
C2094 C 0.44978 0.3525 0.96361 0.0
C2095 C 0.47322 0.36877 0.96985 0.0
C2096 C 0.49224 0.3628 0.96966 0.0
C2097 C 0.48751 0.34064 0.96341 0.0
C2098 C 0.42897 0.35811 0.96377 0.0
C2099 C 0.51754 0.3798 0.97609 0.0
C2100 C 0.4911 0.43473 0.97523 0.0
C2101 C 0.4875 0.43556 0.99065 0.0
C2102 C 0.48647 0.41307 0.96826 0.0
C2103 C 0.47772 0.39177 0.97694 0.0
C2104 C 0.47349 0.39249 0.99247 0.0
C2105 C 0.47843 0.41443 0.99912 0.0
C2106 C 0.49137 0.41308 0.95169 0.0
C2107 C 0.46386 0.37014 1.00208 0.0
H2108 H 0.42764 0.318 0.95264 0.0
H2109 H 0.50207 0.33608 0.9632 0.0
H2110 H 0.42456 0.36031 0.97551 0.0
H2111 H 0.43469 0.37546 0.95795 0.0
H2112 H 0.41193 0.34367 0.95829 0.0
H2113 H 0.53048 0.37273 0.97472 0.0
H2114 H 0.52554 0.39768 0.97053 0.0
H2115 H 0.51606 0.3828 0.98821 0.0
H2116 H 0.49811 0.45115 0.96869 0.0
H2117 H 0.4748 0.41494 0.01092 0.0
H2118 H 0.47431 0.39959 0.94578 0.0
H2119 H 0.50554 0.40769 0.94987 0.0
H2120 H 0.49792 0.43111 0.94653 0.0
H2121 H 0.44592 0.35568 0.99756 0.0
H2122 H 0.46128 0.37373 0.01394 0.0
H2123 H 0.47692 0.36311 1.0018 0.0
C2124 C 0.13362 0.65713 0.06516 0.0
C2125 C 0.14233 0.67804 0.05636 0.0
C2126 C 0.11562 0.63437 0.05967 0.0
C2127 C 0.106 0.63237 0.045 0.0
C2128 C 0.11453 0.65341 0.03609 0.0
C2129 C 0.13262 0.67597 0.04186 0.0
C2130 C 0.1072 0.61236 0.06947 0.0
C2131 C 0.10468 0.65205 0.02042 0.0
C2132 C 0.07883 0.57157 0.02506 0.0
C2133 C 0.05332 0.56234 0.02668 0.0
C2134 C 0.09609 0.59427 0.03094 0.0
C2135 C 0.08773 0.60815 0.03878 0.0
C2136 C 0.06202 0.5988 0.04069 0.0
C2137 C 0.0451 0.57596 0.03464 0.0
C2138 C 0.1233 0.60344 0.02867 0.0
C2139 C 0.05238 0.61304 0.04899 0.0
H2140 H 0.14127 0.65849 0.07629 0.0
H2141 H 0.13901 0.69206 0.03506 0.0
H2142 H 0.08683 0.60286 0.07077 0.0
H2143 H 0.11186 0.59945 0.06408 0.0
H2144 H 0.11588 0.61707 0.08079 0.0
H2145 H 0.11276 0.67013 0.01507 0.0
H2146 H 0.10881 0.6402 0.01331 0.0
H2147 H 0.08429 0.64384 0.02067 0.0
H2148 H 0.08543 0.56102 0.01917 0.0
H2149 H 0.02545 0.56898 0.03596 0.0
H2150 H 0.13292 0.60739 0.03968 0.0
H2151 H 0.13168 0.62062 0.02228 0.0
H2152 H 0.12674 0.59024 0.02251 0.0
H2153 H 0.05999 0.61707 0.06056 0.0
H2154 H 0.03188 0.6032 0.04958 0.0
H2155 H 0.05863 0.63065 0.04335 0.0
C2156 C 0.33652 0.46259 0.04729 0.0
C2157 C 0.33729 0.46423 0.06304 0.0
C2158 C 0.35747 0.46685 0.03896 0.0
C2159 C 0.37977 0.47252 0.04649 0.0
C2160 C 0.38088 0.47485 0.06232 0.0
C2161 C 0.35984 0.47096 0.07034 0.0
C2162 C 0.35562 0.4648 0.0221 0.0
C2163 C 0.40415 0.48072 0.07089 0.0
C2164 C 0.42435 0.45474 0.02942 0.0
C2165 C 0.4443 0.47716 0.02522 0.0
C2166 C 0.40299 0.45295 0.03585 0.0
C2167 C 0.40131 0.47411 0.03808 0.0
C2168 C 0.42105 0.49676 0.03329 0.0
C2169 C 0.4425 0.49807 0.0272 0.0
C2170 C 0.38265 0.42845 0.04089 0.0
C2171 C 0.4199 0.51972 0.03502 0.0
H2172 H 0.31934 0.4573 0.04141 0.0
H2173 H 0.36109 0.47303 0.08242 0.0
H2174 H 0.37019 0.48183 0.01702 0.0
H2175 H 0.35879 0.45 0.01826 0.0
H2176 H 0.33733 0.46116 0.01784 0.0
H2177 H 0.4023 0.48257 0.08314 0.0
H2178 H 0.40875 0.46619 0.06903 0.0
H2179 H 0.41991 0.49783 0.06672 0.0
H2180 H 0.4258 0.43857 0.02807 0.0
H2181 H 0.45807 0.51554 0.0243 0.0
H2182 H 0.36474 0.4245 0.03587 0.0
H2183 H 0.38072 0.4285 0.05325 0.0
H2184 H 0.38629 0.41363 0.03777 0.0
H2185 H 0.40185 0.51695 0.03096 0.0
H2186 H 0.43491 0.53505 0.02878 0.0
H2187 H 0.42161 0.52478 0.04706 0.0
C2188 C 0.53584 0.8807 0.073 0.0
C2189 C 0.5488 0.87023 0.06662 0.0
C2190 C 0.52954 0.89533 0.06446 0.0
C2191 C 0.53669 0.89988 0.04922 0.0
C2192 C 0.54964 0.88921 0.04269 0.0
C2193 C 0.5554 0.87437 0.05145 0.0
C2194 C 0.51543 0.90611 0.07177 0.0
C2195 C 0.5579 0.89391 0.02656 0.0
C2196 C 0.50487 0.92436 0.02407 0.0
C2197 C 0.52152 0.94935 0.02475 0.0
C2198 C 0.50963 0.90796 0.03185 0.0
C2199 C 0.53169 0.91677 0.04038 0.0
C2200 C 0.54881 0.94193 0.0408 0.0
C2201 C 0.54344 0.95791 0.03307 0.0
C2202 C 0.49078 0.8813 0.03125 0.0
C2203 C 0.5727 0.95204 0.04957 0.0
H2204 H 0.53043 0.87726 0.08467 0.0
H2205 H 0.56556 0.86642 0.04652 0.0
H2206 H 0.52686 0.92616 0.07189 0.0
H2207 H 0.49844 0.90132 0.06522 0.0
H2208 H 0.51012 0.89979 0.08348 0.0
H2209 H 0.56706 0.8836 0.02302 0.0
H2210 H 0.54185 0.88897 0.01905 0.0
H2211 H 0.57103 0.91351 0.02499 0.0
H2212 H 0.48779 0.91763 0.01777 0.0
H2213 H 0.55648 0.97717 0.03359 0.0
H2214 H 0.48335 0.87488 0.04265 0.0
H2215 H 0.49957 0.87078 0.0275 0.0
H2216 H 0.47511 0.8773 0.02358 0.0
H2217 H 0.56867 0.94814 0.06167 0.0
H2218 H 0.58455 0.97193 0.04818 0.0
H2219 H 0.58325 0.94318 0.04593 0.0
C2220 C 0.01887 0.23257 0.39746 0.0
C2221 C 0.00437 0.20787 0.39385 0.0
C2222 C 0.03967 0.24808 0.38897 0.0
C2223 C 0.0457 0.23901 0.37613 0.0
C2224 C 0.03108 0.21429 0.37221 0.0
C2225 C 0.01093 0.19894 0.38126 0.0
C2226 C 0.05521 0.27426 0.39376 0.0
C2227 C 0.03648 0.20414 0.35833 0.0
C2228 C 0.08684 0.28972 0.34983 0.0
C2229 C 0.11007 0.29291 0.35343 0.0
C2230 C 0.06537 0.27067 0.3561 0.0
C2231 C 0.06749 0.2556 0.36696 0.0
C2232 C 0.09101 0.25843 0.37029 0.0
C2233 C 0.11204 0.27694 0.36332 0.0
C2234 C 0.04059 0.26754 0.35168 0.0
C2235 C 0.09426 0.24331 0.38211 0.0
H2236 H 0.01388 0.24002 0.40686 0.0
H2237 H 1.00041 0.17987 0.37843 0.0
H2238 H 0.07484 0.27906 0.39499 0.0
H2239 H 0.05441 0.28624 0.38505 0.0
H2240 H 0.04896 0.27808 0.40455 0.0
H2241 H 0.02379 0.18433 0.35706 0.0
H2242 H 0.03463 0.21333 0.34827 0.0
H2243 H 0.05577 0.20771 0.35861 0.0
H2244 H 0.08554 0.30249 0.34239 0.0
H2245 H 0.13021 0.27998 0.36636 0.0
H2246 H 0.03357 0.2742 0.36087 0.0
H2247 H 0.02694 0.24811 0.34982 0.0
H2248 H 0.04176 0.2777 0.34132 0.0
H2249 H 0.09046 0.24832 0.39331 0.0
H2250 H 0.11327 0.24603 0.38222 0.0
H2251 H 0.08094 0.2238 0.38032 0.0
C2252 C 0.81411 0.82046 0.37662 0.0
C2253 C 0.80732 0.80173 0.38707 0.0
C2254 C 0.79639 0.82456 0.36954 0.0
C2255 C 0.77105 0.8098 0.37304 0.0
C2256 C 0.76406 0.79127 0.38387 0.0
C2257 C 0.78217 0.78732 0.39063 0.0
C2258 C 0.805 0.8442 0.35791 0.0
C2259 C 0.73737 0.77553 0.38831 0.0
C2260 C 0.72591 0.83241 0.36525 0.0
C2261 C 0.71244 0.81797 0.353 0.0
C2262 C 0.74538 0.83035 0.37166 0.0
C2263 C 0.75178 0.81366 0.36555 0.0
C2264 C 0.7388 0.79977 0.35275 0.0
C2265 C 0.7188 0.80158 0.34691 0.0
C2266 C 0.75855 0.84543 0.3853 0.0
C2267 C 0.74584 0.78277 0.34537 0.0
H2268 H 0.83343 0.83212 0.37394 0.0
H2269 H 0.7765 0.7726 0.39851 0.0
H2270 H 0.8028 0.8358 0.34669 0.0
H2271 H 0.79402 0.85349 0.35814 0.0
H2272 H 0.82482 0.85798 0.35944 0.0
H2273 H 0.73507 0.76272 0.39742 0.0
H2274 H 0.72969 0.78702 0.39212 0.0
H2275 H 0.72629 0.76495 0.37847 0.0
H2276 H 0.72053 0.84467 0.37016 0.0
H2277 H 0.70804 0.7901 0.33761 0.0
H2278 H 0.77866 0.85645 0.38311 0.0
H2279 H 0.75614 0.83339 0.39489 0.0
H2280 H 0.75157 0.85777 0.38858 0.0
H2281 H 0.76585 0.7926 0.34271 0.0
H2282 H 0.73523 0.77472 0.33485 0.0
H2283 H 0.74248 0.76792 0.35317 0.0
C2284 C 0.22725 0.00736 0.39056 0.0
C2285 C 0.20856 0.01342 0.39098 0.0
C2286 C 0.22283 0.98532 0.3843 0.0
C2287 C 0.19902 0.96883 0.3786 0.0
C2288 C 0.17995 0.97468 0.37928 0.0
C2289 C 0.18502 0.99704 0.38535 0.0
C2290 C 0.24373 0.97988 0.38353 0.0
C2291 C 0.15422 0.95736 0.37355 0.0
C2292 C 0.19233 0.92251 0.34941 0.0
C2293 C 0.18473 0.90184 0.35817 0.0
C2294 C 0.19722 0.9445 0.35594 0.0
C2295 C 0.1942 0.94569 0.37159 0.0
C2296 C 0.18657 0.9248 0.3805 0.0
C2297 C 0.18215 0.90312 0.37368 0.0
C2298 C 0.20577 0.96648 0.3461 0.0
C2299 C 0.18278 0.92526 0.39718 0.0
H2300 H 0.24551 0.02015 0.39482 0.0
H2301 H 0.17053 0.00168 0.38582 0.0
H2302 H 0.23858 0.96275 0.38948 0.0
H2303 H 0.24727 0.97732 0.37167 0.0
H2304 H 0.2611 0.99457 0.38854 0.0
H2305 H 0.14125 0.96425 0.37544 0.0
H2306 H 0.15479 0.95419 0.36135 0.0
H2307 H 0.14686 0.93959 0.37918 0.0
H2308 H 0.19506 0.92164 0.33752 0.0
H2309 H 0.17619 0.88701 0.38041 0.0
H2310 H 0.22403 0.98119 0.35005 0.0
H2311 H 0.19264 0.97339 0.34686 0.0
H2312 H 0.20735 0.96251 0.33415 0.0
H2313 H 0.20021 0.93892 0.40267 0.0
H2314 H 0.17662 0.90739 0.40247 0.0
H2315 H 0.16874 0.9307 0.39938 0.0
C2316 C 0.52929 0.66778 0.30028 0.0
C2317 C 0.53544 0.65166 0.29345 0.0
C2318 C 0.5477 0.69015 0.306 0.0
C2319 C 0.57283 0.69644 0.30493 0.0
C2320 C 0.57913 0.68009 0.29825 0.0
C2321 C 0.56035 0.65792 0.29254 0.0
C2322 C 0.5403 0.70721 0.31295 0.0
C2323 C 0.60571 0.68611 0.29703 0.0
C2324 C 0.62021 0.76344 0.30644 0.0
C2325 C 0.6277 0.76644 0.32146 0.0
C2326 C 0.60278 0.74061 0.30081 0.0
C2327 C 0.59252 0.7204 0.31051 0.0
C2328 C 0.60043 0.72331 0.32566 0.0
C2329 C 0.61794 0.74637 0.33096 0.0
C2330 C 0.5947 0.73833 0.28462 0.0
C2331 C 0.58999 0.70219 0.33634 0.0
H2332 H 0.51008 0.66313 0.30085 0.0
H2333 H 0.56514 0.64536 0.28743 0.0
H2334 H 0.54753 0.71184 0.32459 0.0
H2335 H 0.54853 0.72437 0.30654 0.0
H2336 H 0.51993 0.69938 0.31319 0.0
H2337 H 0.60746 0.67116 0.29186 0.0
H2338 H 0.61625 0.70265 0.29018 0.0
H2339 H 0.61444 0.69005 0.30832 0.0
H2340 H 0.6271 0.77911 0.29926 0.0
H2341 H 0.62394 0.74876 0.34256 0.0
H2342 H 0.57487 0.73303 0.28405 0.0
H2343 H 0.59666 0.7239 0.27891 0.0
H2344 H 0.60555 0.75551 0.27836 0.0
H2345 H 0.56986 0.69497 0.3377 0.0
H2346 H 0.59892 0.70731 0.34758 0.0
H2347 H 0.59241 0.68733 0.33171 0.0
C2348 C 0.331 0.85729 0.30577 0.0
C2349 C 0.33883 0.86884 0.29174 0.0
C2350 C 0.30988 0.85486 0.31297 0.0
C2351 C 0.29493 0.86259 0.30564 0.0
C2352 C 0.30162 0.87284 0.29116 0.0
C2353 C 0.32374 0.87656 0.28466 0.0
C2354 C 0.30424 0.845 0.32872 0.0
C2355 C 0.28553 0.88017 0.28254 0.0
C2356 C 0.22887 0.83818 0.31931 0.0
C2357 C 0.23026 0.85894 0.32571 0.0
C2358 C 0.24971 0.83902 0.31273 0.0
C2359 C 0.2728 0.86084 0.31326 0.0
C2360 C 0.27443 0.8815 0.3204 0.0
C2361 C 0.25292 0.88059 0.32588 0.0
C2362 C 0.24666 0.81698 0.30445 0.0
C2363 C 0.29884 0.90467 0.32214 0.0
H2364 H 0.34132 0.85014 0.31139 0.0
H2365 H 0.32909 0.88591 0.27406 0.0
H2366 H 0.30701 0.85975 0.33653 0.0
H2367 H 0.28471 0.83046 0.32971 0.0
H2368 H 0.31631 0.83778 0.33241 0.0
H2369 H 0.29105 0.88405 0.27059 0.0
H2370 H 0.26586 0.86564 0.28301 0.0
H2371 H 0.28688 0.89666 0.28765 0.0
H2372 H 0.21114 0.82167 0.3186 0.0
H2373 H 0.25385 0.89677 0.33053 0.0
H2374 H 0.2596 0.81138 0.30895 0.0
H2375 H 0.25126 0.82149 0.29244 0.0
H2376 H 0.22754 0.80138 0.3052 0.0
H2377 H 0.31322 0.90074 0.32633 0.0
H2378 H 0.29757 0.91755 0.33001 0.0
H2379 H 0.30499 0.91363 0.31111 0.0
C2380 C 0.10622 0.45595 0.30233 0.0
C2381 C 0.11293 0.45984 0.28717 0.0
C2382 C 0.11138 0.44079 0.31117 0.0
C2383 C 0.12374 0.4295 0.30469 0.0
C2384 C 0.13074 0.43356 0.28942 0.0
C2385 C 0.12513 0.44859 0.28082 0.0
C2386 C 0.10338 0.43663 0.32735 0.0
C2387 C 0.14413 0.42197 0.28215 0.0
C2388 C 0.15771 0.40568 0.32815 0.0
C2389 C 0.14156 0.38065 0.32712 0.0
C2390 C 0.15167 0.42197 0.32147 0.0
C2391 C 0.12891 0.41293 0.31369 0.0
C2392 C 0.11189 0.38775 0.31347 0.0
C2393 C 0.11842 0.37191 0.32023 0.0
C2394 C 0.17029 0.44871 0.32197 0.0
C2395 C 0.08736 0.37737 0.3054 0.0
H2396 H 0.0966 0.4645 0.30722 0.0
H2397 H 0.13062 0.45185 0.26916 0.0
H2398 H 0.09024 0.4171 0.32919 0.0
H2399 H 0.11957 0.44177 0.33478 0.0
H2400 H 0.09436 0.44713 0.33076 0.0
H2401 H 0.14896 0.42758 0.27029 0.0
H2402 H 0.16135 0.42684 0.28847 0.0
H2403 H 0.13239 0.40199 0.28249 0.0
H2404 H 0.17564 0.41251 0.33346 0.0
H2405 H 0.1057 0.35256 0.31967 0.0
H2406 H 0.1613 0.45924 0.32531 0.0
H2407 H 0.17808 0.45485 0.31061 0.0
H2408 H 0.18574 0.45298 0.32988 0.0
H2409 H 0.07765 0.38727 0.30865 0.0
H2410 H 0.07513 0.35781 0.30779 0.0
H2411 H 0.0905 0.37955 0.29313 0.0
C2412 C 0.31604 0.44654 0.27991 0.0
C2413 C 0.33871 0.4595 0.28752 0.0
C2414 C 0.29413 0.43161 0.28765 0.0
C2415 C 0.29473 0.42978 0.30346 0.0
C2416 C 0.31745 0.44301 0.31126 0.0
C2417 C 0.33917 0.45765 0.3032 0.0
C2418 C 0.27031 0.41763 0.27887 0.0
C2419 C 0.31884 0.44197 0.3281 0.0
C2420 C 0.23111 0.40492 0.32043 0.0
C2421 C 0.22368 0.38036 0.32165 0.0
C2422 C 0.2551 0.42171 0.31575 0.0
C2423 C 0.27151 0.41343 0.31158 0.0
C2424 C 0.26428 0.38868 0.3134 0.0
C2425 C 0.24037 0.3724 0.31841 0.0
C2426 C 0.26231 0.44802 0.31443 0.0
C2427 C 0.28117 0.3791 0.30909 0.0
H2428 H 0.31536 0.4482 0.26785 0.0
H2429 H 0.35659 0.4674 0.30919 0.0
H2430 H 0.26214 0.39794 0.28095 0.0
H2431 H 0.25671 0.42286 0.28267 0.0
H2432 H 0.27304 0.42082 0.26661 0.0
H2433 H 0.33821 0.45078 0.33228 0.0
H2434 H 0.30974 0.4514 0.33316 0.0
H2435 H 0.30891 0.42295 0.33202 0.0
H2436 H 0.2179 0.41085 0.32272 0.0
H2437 H 0.23424 0.35322 0.31905 0.0
H2438 H 0.26291 0.45276 0.30242 0.0
H2439 H 0.28102 0.45979 0.31922 0.0
H2440 H 0.24904 0.45202 0.32024 0.0
H2441 H 0.28357 0.38011 0.29674 0.0
H2442 H 0.27376 0.36 0.3126 0.0
H2443 H 0.29972 0.39035 0.31423 0.0
C2444 C 0.5517 0.86352 0.2781 0.0
C2445 C 0.53762 0.87191 0.28557 0.0
C2446 C 0.5678 0.85799 0.28594 0.0
C2447 C 0.56951 0.86021 0.30176 0.0
C2448 C 0.55491 0.868 0.30946 0.0
C2449 C 0.53942 0.87405 0.30129 0.0
C2450 C 0.58322 0.85 0.27723 0.0
C2451 C 0.55576 0.8701 0.32633 0.0
C2452 C 0.59813 0.82546 0.31919 0.0
C2453 C 0.62262 0.84384 0.32137 0.0
C2454 C 0.58011 0.8308 0.314 0.0
C2455 C 0.58712 0.85493 0.31006 0.0
C2456 C 0.61184 0.87361 0.31253 0.0
C2457 C 0.62928 0.86781 0.31817 0.0
C2458 C 0.55385 0.81044 0.31206 0.0
C2459 C 0.62032 0.89947 0.30822 0.0
H2460 H 0.55011 0.86112 0.26604 0.0
H2461 H 0.52902 0.8808 0.30727 0.0
H2462 H 0.60313 0.86232 0.27966 0.0
H2463 H 0.57871 0.83156 0.28074 0.0
H2464 H 0.58023 0.84979 0.26493 0.0
H2465 H 0.54204 0.87479 0.33072 0.0
H2466 H 0.55214 0.85276 0.3314 0.0
H2467 H 0.57446 0.88427 0.33001 0.0
H2468 H 0.59321 0.80681 0.32125 0.0
H2469 H 0.64848 0.88186 0.31934 0.0
H2470 H 0.54971 0.8063 0.29995 0.0
H2471 H 0.54069 0.8158 0.3165 0.0
H2472 H 0.55065 0.79369 0.31784 0.0
H2473 H 0.61961 0.90074 0.29584 0.0
H2474 H 0.63949 0.91212 0.31209 0.0
H2475 H 0.60786 0.90544 0.313 0.0
C2476 C 0.11277 0.66643 0.28858 0.0
C2477 C 0.131 0.65975 0.28818 0.0
C2478 C 0.11768 0.68851 0.29501 0.0
C2479 C 0.14149 0.70436 0.30096 0.0
C2480 C 0.16012 0.69792 0.30029 0.0
C2481 C 0.15459 0.67556 0.294 0.0
C2482 C 0.09726 0.69464 0.29573 0.0
C2483 C 0.18581 0.71454 0.30634 0.0
C2484 C 0.15936 0.77012 0.30684 0.0
C2485 C 0.15593 0.77069 0.3223 0.0
C2486 C 0.15501 0.74868 0.29973 0.0
C2487 C 0.14666 0.72735 0.30831 0.0
C2488 C 0.14297 0.72789 0.32394 0.0
C2489 C 0.14772 0.74964 0.33075 0.0
C2490 C 0.15947 0.74888 0.28309 0.0
C2491 C 0.13373 0.70544 0.33342 0.0
H2492 H 0.09447 0.65409 0.2842 0.0
H2493 H 0.16874 0.67046 0.29354 0.0
H2494 H 0.09338 0.69677 0.30759 0.0
H2495 H 0.10309 0.71215 0.29008 0.0
H2496 H 0.07989 0.6805 0.29037 0.0
H2497 H 0.19847 0.70729 0.30436 0.0
H2498 H 0.19372 0.7326 0.30101 0.0
H2499 H 0.18501 0.71724 0.31857 0.0
H2500 H 0.1658 0.78656 0.30037 0.0
H2501 H 0.14435 0.75001 0.3426 0.0
H2502 H 0.14213 0.73578 0.27727 0.0
H2503 H 0.17325 0.74309 0.28094 0.0
H2504 H 0.16627 0.76707 0.2781 0.0
H2505 H 0.11537 0.69122 0.32926 0.0
H2506 H 0.13207 0.70903 0.34544 0.0
H2507 H 0.14646 0.69809 0.33253 0.0
C2508 C 0.78158 0.01301 0.38662 0.0
C2509 C 0.80651 0.0193 0.38674 0.0
C2510 C 0.76352 0.9911 0.38015 0.0
C2511 C 0.77059 0.97498 0.37397 0.0
C2512 C 0.79576 0.98122 0.37418 0.0
C2513 C 0.81345 0.00342 0.38045 0.0
C2514 C 0.73692 0.98523 0.3799 0.0
C2515 C 0.80396 0.96429 0.36798 0.0
C2516 C 0.7227 0.9083 0.37074 0.0
C2517 C 0.71762 0.90572 0.3553 0.0
C2518 C 0.73974 0.93078 0.37698 0.0
C2519 C 0.75166 0.95129 0.36758 0.0
C2520 C 0.74617 0.94893 0.35204 0.0
C2521 C 0.72939 0.92608 0.34604 0.0
C2522 C 0.74547 0.93245 0.39356 0.0
C2523 C 0.75821 0.97048 0.34172 0.0
H2524 H 0.77628 0.02541 0.3914 0.0
H2525 H 0.83273 0.00821 0.38068 0.0
H2526 H 0.72978 0.98173 0.36821 0.0
H2527 H 0.72536 0.96848 0.38638 0.0
H2528 H 0.73461 1.00008 0.3847 0.0
H2529 H 0.82423 0.97183 0.36908 0.0
H2530 H 0.7944 0.94673 0.37395 0.0
H2531 H 0.79879 0.9605 0.35596 0.0
H2532 H 0.71384 0.89256 0.37794 0.0
H2533 H 0.7254 0.92419 0.33411 0.0
H2534 H 0.74198 0.94616 0.39894 0.0
H2535 H 0.76533 0.93845 0.39526 0.0
H2536 H 0.73427 0.91487 0.39935 0.0
H2537 H 0.75523 0.9852 0.34597 0.0
H2538 H 0.7509 0.96586 0.33007 0.0
H2539 H 0.77845 0.97768 0.34146 0.0
C2540 C 1.00067 0.79465 0.37716 0.0
C2541 C 1.00192 0.7974 0.39285 0.0
C2542 C 0.02152 0.79895 0.36876 0.0
C2543 C 0.04416 0.80577 0.37619 0.0
C2544 C 0.04575 0.80915 0.39194 0.0
C2545 C 0.02477 0.80518 0.40003 0.0
C2546 C 0.01925 0.79585 0.35193 0.0
C2547 C 0.06946 0.81627 0.40036 0.0
C2548 C 0.08936 0.78842 0.35989 0.0
C2549 C 0.10882 0.81081 0.35523 0.0
C2550 C 0.06788 0.78644 0.3662 0.0
C2551 C 0.06562 0.80738 0.36778 0.0
C2552 C 0.08474 0.82989 0.3624 0.0
C2553 C 0.10635 0.83143 0.35647 0.0
C2554 C 0.04811 0.76209 0.37183 0.0
C2555 C 0.08289 0.85256 0.36345 0.0
H2556 H 0.98322 0.7885 0.3714 0.0
H2557 H 0.02631 0.80807 0.41205 0.0
H2558 H 0.03253 0.81314 0.3465 0.0
H2559 H 0.02404 0.78203 0.34833 0.0
H2560 H 1.00035 0.79034 0.34782 0.0
H2561 H 0.06791 0.81886 0.41255 0.0
H2562 H 0.0746 0.80204 0.39889 0.0
H2563 H 0.08475 0.83331 0.39575 0.0
H2564 H 0.09134 0.77248 0.35907 0.0
H2565 H 0.12152 0.84889 0.3532 0.0
H2566 H 0.02993 0.75737 0.36687 0.0
H2567 H 0.04647 0.7629 0.38418 0.0
H2568 H 0.05216 0.74739 0.36913 0.0
H2569 H 0.06433 0.8489 0.35979 0.0
H2570 H 0.09707 0.86742 0.3565 0.0
H2571 H 0.08551 0.85882 0.37528 0.0
C2572 C 0.20904 0.22235 0.39721 0.0
C2573 C 0.22188 0.21141 0.39134 0.0
C2574 C 0.20363 0.23723 0.38827 0.0
C2575 C 0.21151 0.24147 0.37315 0.0
C2576 C 0.22458 0.23055 0.36719 0.0
C2577 C 0.22951 0.21554 0.37634 0.0
C2578 C 0.18945 0.2484 0.39501 0.0
C2579 C 0.23356 0.2349 0.35119 0.0
C2580 C 0.17864 0.26431 0.34771 0.0
C2581 C 0.19446 0.28943 0.34862 0.0
C2582 C 0.18429 0.24836 0.35528 0.0
C2583 C 0.20646 0.25778 0.36375 0.0
C2584 C 0.22313 0.28304 0.364 0.0
C2585 C 0.21686 0.29856 0.3565 0.0
C2586 C 0.16597 0.22154 0.35483 0.0
C2587 C 0.24712 0.29379 0.37271 0.0
H2588 H 0.20285 0.21894 0.40875 0.0
H2589 H 0.23964 0.20726 0.37181 0.0
H2590 H 0.20078 0.26843 0.39464 0.0
H2591 H 0.17243 0.24307 0.38835 0.0
H2592 H 0.18415 0.24284 0.40683 0.0
H2593 H 0.24327 0.22487 0.34822 0.0
H2594 H 0.21775 0.22932 0.34337 0.0
H2595 H 0.24637 0.25452 0.34943 0.0
H2596 H 0.16127 0.25712 0.34169 0.0
H2597 H 0.22929 0.31795 0.35716 0.0
H2598 H 0.15815 0.21534 0.36617 0.0
H2599 H 0.1753 0.21129 0.35158 0.0
H2600 H 0.15052 0.21696 0.34685 0.0
H2601 H 0.24316 0.29101 0.38489 0.0
H2602 H 0.25902 0.3135 0.37067 0.0
H2603 H 0.25756 0.28453 0.36968 0.0
C2604 C 0.68982 0.56018 0.73327 0.0
C2605 C 0.67306 0.53664 0.72812 0.0
C2606 C 0.70988 0.57649 0.72455 0.0
C2607 C 0.71263 0.56991 0.70982 0.0
C2608 C 0.69564 0.54658 0.70428 0.0
C2609 C 0.67654 0.53004 0.7136 0.0
C2610 C 0.72808 0.60095 0.73113 0.0
C2611 C 0.69732 0.53931 0.68838 0.0
C2612 C 0.75109 0.62627 0.68688 0.0
C2613 C 0.77403 0.62739 0.68673 0.0
C2614 C 0.73027 0.60627 0.693 0.0
C2615 C 0.73296 0.58794 0.70023 0.0
C2616 C 0.75607 0.58878 0.69984 0.0
C2617 C 0.77623 0.6083 0.69281 0.0
C2618 C 0.70571 0.60544 0.69238 0.0
C2619 C 0.7602 0.57036 0.708 0.0
H2620 H 0.6873 0.56626 0.74411 0.0
H2621 H 0.66443 0.51194 0.70937 0.0
H2622 H 0.7473 0.60475 0.72949 0.0
H2623 H 0.72628 0.61535 0.72531 0.0
H2624 H 0.72511 0.60213 0.74331 0.0
H2625 H 0.68257 0.52054 0.68569 0.0
H2626 H 0.69582 0.55189 0.68042 0.0
H2627 H 0.71552 0.54073 0.68646 0.0
H2628 H 0.74953 0.64122 0.68233 0.0
H2629 H 0.79415 0.60953 0.69314 0.0
H2630 H 0.70167 0.61052 0.70348 0.0
H2631 H 0.6906 0.58686 0.68968 0.0
H2632 H 0.70562 0.61813 0.68389 0.0
H2633 H 0.75993 0.5732 0.72027 0.0
H2634 H 0.77821 0.57188 0.70511 0.0
H2635 H 0.74523 0.55169 0.70545 0.0
C2636 C 0.46667 0.12896 0.70543 0.0
C2637 C 0.47065 0.13172 0.72101 0.0
C2638 C 0.44798 0.13174 0.6985 0.0
C2639 C 0.43258 0.13723 0.70729 0.0
C2640 C 0.43642 0.14004 0.72302 0.0
C2641 C 0.45544 0.1374 0.72966 0.0
C2642 C 0.44508 0.12918 0.68169 0.0
C2643 C 0.42025 0.14559 0.73288 0.0
C2644 C 0.39476 0.16357 0.69047 0.0
C2645 C 0.37131 0.14292 0.68903 0.0
C2646 C 0.41515 0.16188 0.69569 0.0
C2647 C 0.41182 0.13913 0.70021 0.0
C2648 C 0.38819 0.11821 0.69865 0.0
C2649 C 0.3683 0.12037 0.69306 0.0
C2650 C 0.44011 0.18456 0.69671 0.0
C2651 C 0.38373 0.09359 0.70331 0.0
H2652 H 0.47796 0.12425 0.69859 0.0
H2653 H 0.45849 0.14 0.74165 0.0
H2654 H 0.42539 0.11761 0.67847 0.0
H2655 H 0.45175 0.14736 0.67679 0.0
H2656 H 0.45587 0.12137 0.67673 0.0
H2657 H 0.42558 0.14721 0.7449 0.0
H2658 H 0.42138 0.16278 0.7293 0.0
H2659 H 0.40068 0.13107 0.73167 0.0
H2660 H 0.39717 0.18115 0.68787 0.0
H2661 H 0.35011 0.10441 0.69218 0.0
H2662 H 0.45424 0.1817 0.69104 0.0
H2663 H 0.44574 0.18888 0.70864 0.0
H2664 H 0.44007 0.20039 0.69152 0.0
H2665 H 0.39648 0.08919 0.69723 0.0
H2666 H 0.36444 0.07903 0.70106 0.0
H2667 H 0.38765 0.09374 0.71547 0.0
C2668 C 0.89556 0.34867 0.70659 0.0
C2669 C 0.88729 0.34879 0.72117 0.0
C2670 C 0.89177 0.32709 0.69994 0.0
C2671 C 0.87918 0.30515 0.70801 0.0
C2672 C 0.8709 0.3052 0.72276 0.0
C2673 C 0.87517 0.32707 0.72919 0.0
C2674 C 0.90107 0.32771 0.68425 0.0
C2675 C 0.85712 0.2821 0.73164 0.0
C2676 C 0.84559 0.24573 0.68677 0.0
C2677 C 0.86143 0.23632 0.68887 0.0
C2678 C 0.85142 0.26835 0.69266 0.0
C2679 C 0.87368 0.28192 0.70086 0.0
C2680 C 0.89007 0.27279 0.70271 0.0
C2681 C 0.88373 0.25004 0.69667 0.0
C2682 C 0.83337 0.27736 0.69052 0.0
C2683 C 0.91403 0.28681 0.71131 0.0
H2684 H 0.9052 0.36552 0.70046 0.0
H2685 H 0.86857 0.32711 0.74041 0.0
H2686 H 0.91339 0.31982 0.68414 0.0
H2687 H 0.88529 0.31651 0.67664 0.0
H2688 H 0.91135 0.3464 0.67972 0.0
H2689 H 0.8525 0.28536 0.74311 0.0
H2690 H 0.83971 0.26936 0.72572 0.0
H2691 H 0.86833 0.27306 0.73257 0.0
H2692 H 0.82818 0.23509 0.68089 0.0
H2693 H 0.89619 0.24296 0.69813 0.0
H2694 H 0.84278 0.29564 0.68542 0.0
H2695 H 0.82621 0.27899 0.70157 0.0
H2696 H 0.81744 0.26509 0.68326 0.0
H2697 H 0.92518 0.3052 0.70651 0.0
H2698 H 0.92521 0.27765 0.71116 0.0
H2699 H 0.91013 0.28908 0.72315 0.0
C2700 C 0.18824 0.00415 0.63115 0.0
C2701 C 0.19468 0.98841 0.6241 0.0
C2702 C 0.20644 0.02661 0.63689 0.0
C2703 C 0.23168 0.03331 0.63575 0.0
C2704 C 0.23829 0.01743 0.62869 0.0
C2705 C 0.2197 0.99524 0.62284 0.0
C2706 C 0.19869 0.04319 0.64417 0.0
C2707 C 0.26496 0.02376 0.62748 0.0
C2708 C 0.28 0.09998 0.63988 0.0
C2709 C 0.28631 0.10125 0.65505 0.0
C2710 C 0.2623 0.07791 0.63338 0.0
C2711 C 0.25109 0.0567 0.64227 0.0
C2712 C 0.25805 0.05792 0.65752 0.0
C2713 C 0.27556 0.08025 0.66373 0.0
C2714 C 0.25515 0.07742 0.61715 0.0
C2715 C 0.24682 0.0357 0.66732 0.0
H2716 H 0.16892 0.99903 0.63196 0.0
H2717 H 0.2247 0.983 0.61749 0.0
H2718 H 0.20482 0.04648 0.65607 0.0
H2719 H 0.20771 0.06101 0.63848 0.0
H2720 H 0.17835 0.03559 0.64378 0.0
H2721 H 0.26701 0.00948 0.6216 0.0
H2722 H 0.27569 0.04105 0.62135 0.0
H2723 H 0.27324 0.02645 0.63885 0.0
H2724 H 0.28837 0.11638 0.63324 0.0
H2725 H 0.28104 0.08125 0.67535 0.0
H2726 H 0.23523 0.07167 0.61632 0.0
H2727 H 0.25795 0.06399 0.61081 0.0
H2728 H 0.26599 0.09537 0.61171 0.0
H2729 H 0.2266 0.02831 0.6682 0.0
H2730 H 0.25487 0.03962 0.67882 0.0
H2731 H 0.24967 0.02139 0.66221 0.0
C2732 C 0.99613 0.21434 0.62159 0.0
C2733 C 0.00851 0.20213 0.62627 0.0
C2734 C 0.97402 0.21008 0.62844 0.0
C2735 C 0.9641 0.19354 0.6405 0.0
C2736 C 0.97641 0.18111 0.64524 0.0
C2737 C 0.99822 0.18539 0.63804 0.0
C2738 C 0.96125 0.22334 0.62274 0.0
C2739 C 0.96713 0.16381 0.65826 0.0
C2740 C 0.91938 0.20212 0.66541 0.0
C2741 C 0.89644 0.18372 0.6602 0.0
C2742 C 0.94155 0.20462 0.65974 0.0
C2743 C 0.94076 0.1892 0.64798 0.0
C2744 C 0.9175 0.17041 0.64281 0.0
C2745 C 0.89564 0.16784 0.64903 0.0
C2746 C 0.96583 0.22414 0.6661 0.0
C2747 C 0.91567 0.15361 0.63029 0.0
H2748 H 0.00387 0.22755 0.61268 0.0
H2749 H 0.00712 0.17538 0.64165 0.0
H2750 H 0.9419 0.21015 0.61951 0.0
H2751 H 0.96052 0.23497 0.63178 0.0
H2752 H 0.97074 0.23489 0.61291 0.0
H2753 H 0.97543 0.15193 0.65853 0.0
H2754 H 0.97226 0.1745 0.66881 0.0
H2755 H 0.94673 0.15224 0.65792 0.0
H2756 H 0.91994 0.2147 0.67383 0.0
H2757 H 0.87784 0.15401 0.64474 0.0
H2758 H 0.976 0.23802 0.65743 0.0
H2759 H 0.97752 0.21629 0.66938 0.0
H2760 H 0.96328 0.23315 0.67606 0.0
H2761 H 0.92394 0.16421 0.61995 0.0
H2762 H 0.89625 0.13954 0.62782 0.0
H2763 H 0.92629 0.1445 0.63326 0.0
C2764 C 0.80971 0.80152 0.62103 0.0
C2765 C 0.78596 0.79175 0.61482 0.0
C2766 C 0.8169 0.78678 0.62866 0.0
C2767 C 0.79976 0.76179 0.63032 0.0
C2768 C 0.77573 0.75186 0.62408 0.0
C2769 C 0.76918 0.76695 0.61628 0.0
C2770 C 0.84282 0.79791 0.63495 0.0
C2771 C 0.75685 0.72537 0.6258 0.0
C2772 C 0.82222 0.71762 0.63868 0.0
C2773 C 0.81869 0.71471 0.6542 0.0
C2774 C 0.81664 0.73331 0.6308 0.0
C2775 C 0.8069 0.74601 0.63863 0.0
C2776 C 0.80342 0.74317 0.65434 0.0
C2777 C 0.8095 0.72759 0.66196 0.0
C2778 C 0.82105 0.73618 0.6141 0.0
C2779 C 0.79273 0.75612 0.66305 0.0
H2780 H 0.82274 0.82068 0.61979 0.0
H2781 H 0.75073 0.75947 0.6116 0.0
H2782 H 0.84217 0.79562 0.64729 0.0
H2783 H 0.85223 0.78849 0.63028 0.0
H2784 H 0.85408 0.81753 0.63238 0.0
H2785 H 0.73889 0.72055 0.62041 0.0
H2786 H 0.76387 0.71404 0.62076 0.0
H2787 H 0.75364 0.72071 0.63787 0.0
H2788 H 0.82955 0.70773 0.63273 0.0
H2789 H 0.80622 0.72484 0.67387 0.0
H2790 H 0.83336 0.75555 0.61135 0.0
H2791 H 0.80331 0.7301 0.60808 0.0
H2792 H 0.82953 0.72562 0.60981 0.0
H2793 H 0.80399 0.77594 0.66128 0.0
H2794 H 0.79189 0.75249 0.67527 0.0
H2795 H 0.77378 0.75029 0.65891 0.0
C2796 C 0.9819 0.77114 0.61527 0.0
C2797 C 0.99812 0.79482 0.62045 0.0
C2798 C 0.96142 0.75473 0.62367 0.0
C2799 C 0.95775 0.7613 0.63819 0.0
C2800 C 0.97419 0.78475 0.6438 0.0
C2801 C 0.99364 0.80142 0.63472 0.0
C2802 C 0.94379 0.73018 0.61698 0.0
C2803 C 0.97161 0.79201 0.65954 0.0
C2804 C 0.89348 0.72257 0.65428 0.0
C2805 C 0.89558 0.70361 0.66064 0.0
C2806 C 0.91383 0.74212 0.6474 0.0
C2807 C 0.93705 0.74316 0.64752 0.0
C2808 C 0.93959 0.72495 0.65503 0.0
C2809 C 0.91858 0.70486 0.66091 0.0
C2810 C 0.90984 0.76032 0.63886 0.0
C2811 C 0.96423 0.72604 0.65624 0.0
H2812 H 0.98512 0.76497 0.60466 0.0
H2813 H 0.00524 0.81958 0.63899 0.0
H2814 H 0.9457 0.71595 0.62295 0.0
H2815 H 0.92439 0.72601 0.6183 0.0
H2816 H 0.94728 0.7291 0.60488 0.0
H2817 H 0.98606 0.81086 0.66233 0.0
H2818 H 0.95321 0.79035 0.66102 0.0
H2819 H 0.9729 0.77956 0.66771 0.0
H2820 H 0.87551 0.72121 0.6536 0.0
H2821 H 0.92007 0.68998 0.66565 0.0
H2822 H 0.91072 0.75741 0.62665 0.0
H2823 H 0.92455 0.77907 0.64148 0.0
H2824 H 0.89161 0.75861 0.64133 0.0
H2825 H 0.96882 0.72085 0.64536 0.0
H2826 H 0.96407 0.71355 0.66497 0.0
H2827 H 0.97911 0.74471 0.65898 0.0
C2828 C 0.22844 0.20736 0.61149 0.0
C2829 C 0.20519 0.20139 0.61745 0.0
C2830 C 0.2455 0.20342 0.61955 0.0
C2831 C 0.24022 0.19477 0.63444 0.0
C2832 C 0.21717 0.18906 0.64073 0.0
C2833 C 0.1998 0.19183 0.63209 0.0
C2834 C 0.26937 0.20874 0.61208 0.0
C2835 C 0.21117 0.18104 0.65683 0.0
C2836 C 0.27889 0.1695 0.6514 0.0
C2837 C 0.29912 0.19054 0.65723 0.0
C2838 C 0.25924 0.17041 0.64424 0.0
C2839 C 0.25936 0.19271 0.64346 0.0
C2840 C 0.27911 0.21365 0.65019 0.0
C2841 C 0.2992 0.21251 0.65643 0.0
C2842 C 0.23915 0.14783 0.63675 0.0
C2843 C 0.27931 0.23743 0.65053 0.0
H2844 H 0.2338 0.2155 0.60054 0.0
H2845 H 0.18203 0.18646 0.63701 0.0
H2846 H 0.28506 0.22502 0.61726 0.0
H2847 H 0.27283 0.19341 0.61368 0.0
H2848 H 0.2692 0.21203 0.59986 0.0
H2849 H 0.19116 0.17306 0.65923 0.0
H2850 H 0.21687 0.16765 0.65976 0.0
H2851 H 0.22159 0.19702 0.66425 0.0
H2852 H 0.2791 0.15261 0.65166 0.0
H2853 H 0.31496 0.2288 0.66084 0.0
H2854 H 0.23927 0.15089 0.62449 0.0
H2855 H 0.22076 0.14363 0.64097 0.0
H2856 H 0.24148 0.13185 0.63865 0.0
H2857 H 0.29375 0.25073 0.65825 0.0
H2858 H 0.26105 0.23456 0.65413 0.0
H2859 H 0.28288 0.24533 0.63913 0.0
C2860 C 0.8037 0.99437 0.63802 0.0
C2861 C 0.78034 0.97898 0.63175 0.0
C2862 C 0.80907 0.01632 0.64486 0.0
C2863 C 0.79052 0.02288 0.64562 0.0
C2864 C 0.76667 0.00706 0.63969 0.0
C2865 C 0.76192 0.98537 0.63268 0.0
C2866 C 0.83488 0.0329 0.65076 0.0
C2867 C 0.74633 0.01329 0.64047 0.0
C2868 C 0.80229 0.07446 0.67224 0.0
C2869 C 0.81064 0.09393 0.66228 0.0
C2870 C 0.79502 0.051 0.66695 0.0
C2871 C 0.79678 0.04719 0.65144 0.0
C2872 C 0.80534 0.06687 0.64141 0.0
C2873 C 0.81193 0.0899 0.64692 0.0
C2874 C 0.78553 0.03033 0.67793 0.0
C2875 C 0.80803 0.06372 0.62484 0.0
H2876 H 0.81803 0.98955 0.63718 0.0
H2877 H 0.74378 0.97334 0.62798 0.0
H2878 H 0.84358 0.05002 0.6443 0.0
H2879 H 0.83422 0.0377 0.66265 0.0
H2880 H 0.84682 0.0246 0.64997 0.0
H2881 H 0.72828 0.99814 0.63655 0.0
H2882 H 0.74428 0.01805 0.65215 0.0
H2883 H 0.75118 0.02936 0.63343 0.0
H2884 H 0.80118 0.07751 0.6841 0.0
H2885 H 0.81869 0.10495 0.63918 0.0
H2886 H 0.79799 0.02259 0.67812 0.0
H2887 H 0.76701 0.01564 0.67433 0.0
H2888 H 0.78418 0.03607 0.68949 0.0
H2889 H 0.82101 0.05681 0.62314 0.0
H2890 H 0.81498 0.08092 0.61855 0.0
H2891 H 0.78996 0.05015 0.61997 0.0
C2892 C 0.46435 0.3449 0.7117 0.0
C2893 C 0.47447 0.34581 0.72593 0.0
C2894 C 0.44647 0.3228 0.70535 0.0
C2895 C 0.43852 0.30105 0.71341 0.0
C2896 C 0.44839 0.30186 0.72786 0.0
C2897 C 0.46622 0.32422 0.73395 0.0
C2898 C 0.4363 0.32267 0.68994 0.0
C2899 C 0.44047 0.27905 0.73678 0.0
C2900 C 0.37785 0.24548 0.70206 0.0
C2901 C 0.38608 0.23274 0.69316 0.0
C2902 C 0.39471 0.26771 0.70876 0.0
C2903 C 0.42038 0.27738 0.70655 0.0
C2904 C 0.42879 0.26447 0.69771 0.0
C2905 C 0.41156 0.2423 0.69119 0.0
C2906 C 0.38504 0.28094 0.71811 0.0
C2907 C 0.456 0.27409 0.6951 0.0
H2908 H 0.47039 0.36153 0.70552 0.0
H2909 H 0.47418 0.32473 0.74486 0.0
H2910 H 0.44063 0.31174 0.68213 0.0
H2911 H 0.41588 0.31409 0.69038 0.0
H2912 H 0.44398 0.3412 0.68529 0.0
H2913 H 0.4493 0.28285 0.74805 0.0
H2914 H 0.42011 0.26912 0.73819 0.0
H2915 H 0.44534 0.26688 0.73061 0.0
H2916 H 0.35822 0.23822 0.70368 0.0
H2917 H 0.41815 0.2324 0.68458 0.0
H2918 H 0.39107 0.29904 0.71325 0.0
H2919 H 0.39281 0.28387 0.72963 0.0
H2920 H 0.36455 0.2709 0.71883 0.0
H2921 H 0.46423 0.29197 0.68952 0.0
H2922 H 0.45946 0.26172 0.68802 0.0
H2923 H 0.46573 0.27682 0.70598 0.0
C2924 C 0.68949 0.13804 0.73488 0.0
C2925 C 0.66685 0.13005 0.72741 0.0
C2926 C 0.71108 0.14343 0.727 0.0
C2927 C 0.71029 0.14116 0.71117 0.0
C2928 C 0.68767 0.13357 0.7035 0.0
C2929 C 0.66624 0.12798 0.71169 0.0
C2930 C 0.73477 0.1514 0.73567 0.0
C2931 C 0.68609 0.13124 0.68664 0.0
C2932 C 0.77388 0.17564 0.69336 0.0
C2933 C 0.7799 0.15737 0.69162 0.0
C2934 C 0.7505 0.17033 0.69859 0.0
C2935 C 0.73315 0.14631 0.70284 0.0
C2936 C 0.73898 0.12767 0.70065 0.0
C2937 C 0.76235 0.13347 0.69513 0.0
C2938 C 0.74497 0.19069 0.70039 0.0
C2939 C 0.72121 0.10187 0.70509 0.0
H2940 H 0.69044 0.14026 0.74696 0.0
H2941 H 0.64889 0.12159 0.70576 0.0
H2942 H 0.7418 0.13879 0.73343 0.0
H2943 H 0.74913 0.16964 0.73193 0.0
H2944 H 0.73228 0.15206 0.74796 0.0
H2945 H 0.66719 0.12526 0.68232 0.0
H2946 H 0.6991 0.14892 0.68151 0.0
H2947 H 0.69165 0.11802 0.68294 0.0
H2948 H 0.78777 0.19424 0.69104 0.0
H2949 H 0.7674 0.11951 0.69426 0.0
H2950 H 0.74534 0.19507 0.71247 0.0
H2951 H 0.72623 0.18522 0.69602 0.0
H2952 H 0.75865 0.20733 0.69446 0.0
H2953 H 0.7195 0.10074 0.71748 0.0
H2954 H 0.7274 0.08917 0.70123 0.0
H2955 H 0.70256 0.09588 0.70038 0.0
C2956 C 0.90057 0.56351 0.73011 0.0
C2957 C 0.88359 0.53881 0.73186 0.0
C2958 C 0.89408 0.5786 0.72228 0.0
C2959 C 0.86991 0.56878 0.71628 0.0
C2960 C 0.85262 0.54387 0.71811 0.0
C2961 C 0.85975 0.52912 0.72579 0.0
C2962 C 0.91311 0.60501 0.72035 0.0
C2963 C 0.82658 0.53287 0.71206 0.0
C2964 C 0.84789 0.61344 0.7084 0.0
C2965 C 0.85106 0.6163 0.69286 0.0
C2966 C 0.85343 0.5976 0.71614 0.0
C2967 C 0.86274 0.58467 0.70813 0.0
C2968 C 0.86586 0.58746 0.69239 0.0
C2969 C 0.85987 0.60323 0.68494 0.0
C2970 C 0.84945 0.59481 0.73287 0.0
C2971 C 0.87607 0.57427 0.68349 0.0
H2972 H 0.91908 0.57093 0.73467 0.0
H2973 H 0.84657 0.51004 0.72726 0.0
H2974 H 0.91587 0.60955 0.70825 0.0
H2975 H 0.90648 0.61653 0.72558 0.0
H2976 H 0.93122 0.60968 0.72546 0.0
H2977 H 0.81532 0.51325 0.71459 0.0
H2978 H 0.81735 0.54232 0.71695 0.0
H2979 H 0.82694 0.53527 0.69973 0.0
H2980 H 0.84084 0.62345 0.71449 0.0
H2981 H 0.8629 0.60596 0.67301 0.0
H2982 H 0.86732 0.60077 0.7387 0.0
H2983 H 0.83708 0.57548 0.73568 0.0
H2984 H 0.84124 0.60552 0.73732 0.0
H2985 H 0.89511 0.57998 0.68739 0.0
H2986 H 0.87655 0.5778 0.67127 0.0
H2987 H 0.86473 0.55447 0.68534 0.0
C2988 C 0.46273 0.95968 0.1729 0.0
C2989 C 0.46632 0.94043 0.17707 0.0
C2990 C 0.47071 0.97108 0.15891 0.0
C2991 C 0.48241 0.96295 0.14873 0.0
C2992 C 0.48568 0.94322 0.15275 0.0
C2993 C 0.47774 0.9323 0.16689 0.0
C2994 C 0.46709 0.99221 0.15518 0.0
C2995 C 0.49777 0.93377 0.14218 0.0
C2996 C 0.48571 0.98191 0.1078 0.0
C2997 C 0.50982 0.00179 0.10692 0.0
C2998 C 0.47672 0.96877 0.1212 0.0
C2999 C 0.49206 0.97574 0.13413 0.0
C3000 C 0.51652 0.9955 0.13325 0.0
C3001 C 0.52511 0.00812 0.11969 0.0
C3002 C 0.45061 0.94769 0.1216 0.0
C3003 C 0.53352 0.00361 0.14674 0.0
H3004 H 0.45422 0.96628 0.18075 0.0
H3005 H 0.48034 0.91727 0.16995 0.0
H3006 H 0.48532 0.00871 0.1535 0.0
H3007 H 0.45656 0.98863 0.14453 0.0
H3008 H 0.45709 0.99593 0.16413 0.0
H3009 H 0.49799 0.91765 0.14671 0.0
H3010 H 0.48789 0.92885 0.13124 0.0
H3011 H 0.51708 0.94812 0.14 0.0
H3012 H 0.47358 0.97693 0.09812 0.0
H3013 H 0.54393 0.02307 0.11911 0.0
H3014 H 0.43945 0.9517 0.12952 0.0
H3015 H 0.45053 0.93125 0.12573 0.0
H3016 H 0.44152 0.94365 0.1104 0.0
H3017 H 0.52535 0.00906 0.15593 0.0
H3018 H 0.55212 0.0191 0.14418 0.0
H3019 H 0.53569 0.98841 0.15096 0.0
C3020 C 0.04987 0.54324 0.16664 0.0
C3021 C 0.04083 0.52707 0.1787 0.0
C3022 C 0.03853 0.5367 0.15247 0.0
C3023 C 0.0176 0.51345 0.15033 0.0
C3024 C 0.00857 0.49692 0.1624 0.0
C3025 C 0.02033 0.50392 0.17645 0.0
C3026 C 0.04883 0.55474 0.13983 0.0
C3027 C 0.98622 0.47202 0.16055 0.0
C3028 C 0.97422 0.50589 0.11818 0.0
C3029 C 0.98131 0.49484 0.10716 0.0
C3030 C 0.98571 0.5118 0.13233 0.0
C3031 C 0.00484 0.50666 0.13552 0.0
C3032 C 0.01202 0.49541 0.12449 0.0
C3033 C 1.00012 0.48958 0.11046 0.0
C3034 C 0.97755 0.52381 0.1438 0.0
C3035 C 0.03235 0.48966 0.12748 0.0
H3036 H 0.06593 0.56102 0.16828 0.0
H3037 H 0.01314 0.49145 0.18578 0.0
H3038 H 0.0536 0.54681 0.13021 0.0
H3039 H 0.03465 0.55909 0.13583 0.0
H3040 H 0.06559 0.57186 0.14326 0.0
H3041 H 0.98197 0.46107 0.17093 0.0
H3042 H 0.96988 0.47363 0.15747 0.0
H3043 H 0.98925 0.46213 0.1513 0.0
H3044 H 0.95994 0.51031 0.11565 0.0
H3045 H 0.00546 0.48071 0.10209 0.0
H3046 H 0.99324 0.54193 0.14678 0.0
H3047 H 0.97176 0.51296 0.15424 0.0
H3048 H 0.96197 0.526 0.1397 0.0
H3049 H 0.0498 0.50654 0.13023 0.0
H3050 H 0.03567 0.48078 0.11773 0.0
H3051 H 0.0276 0.47755 0.13732 0.0
C3052 C 0.47885 0.49995 0.17888 0.0
C3053 C 0.48303 0.52342 0.1815 0.0
C3054 C 0.4838 0.49333 0.16484 0.0
C3055 C 0.49303 0.51055 0.15314 0.0
C3056 C 0.49661 0.53405 0.15559 0.0
C3057 C 0.49162 0.54021 0.16975 0.0
C3058 C 0.47984 0.46812 0.16267 0.0
C3059 C 0.50619 0.55285 0.14335 0.0
C3060 C 0.53113 0.50353 0.12254 0.0
C3061 C 0.51394 0.49349 0.11075 0.0
C3062 C 0.52448 0.50896 0.13641 0.0
C3063 C 0.50007 0.5044 0.13855 0.0
C3064 C 0.48261 0.49428 0.12672 0.0
C3065 C 0.48973 0.48888 0.11298 0.0
C3066 C 0.54365 0.51978 0.14875 0.0
C3067 C 0.45642 0.48921 0.12857 0.0
H3068 H 0.47242 0.48698 0.18796 0.0
H3069 H 0.49451 0.55826 0.17166 0.0
H3070 H 0.46776 0.45933 0.15278 0.0
H3071 H 0.4978 0.46915 0.16042 0.0
H3072 H 0.47136 0.4565 0.17263 0.0
H3073 H 0.5068 0.56988 0.14685 0.0
H3074 H 0.5251 0.55716 0.14016 0.0
H3075 H 0.49436 0.54567 0.1332 0.0
H3076 H 0.54997 0.50751 0.12085 0.0
H3077 H 0.47624 0.48083 0.104 0.0
H3078 H 0.53704 0.50824 0.15888 0.0
H3079 H 0.54662 0.53789 0.15192 0.0
H3080 H 0.56167 0.52173 0.14539 0.0
H3081 H 0.44743 0.47642 0.13795 0.0
H3082 H 0.44511 0.4814 0.11826 0.0
H3083 H 0.4565 0.50619 0.13147 0.0
C3084 C 0.9847 0.46692 0.83885 0.0
C3085 C 0.96572 0.47169 0.83506 0.0
C3086 C 0.99589 0.47288 0.85306 0.0
C3087 C 0.98809 0.48413 0.86372 0.0
C3088 C 0.96919 0.48932 0.85993 0.0
C3089 C 0.95816 0.48296 0.84565 0.0
C3090 C 0.01597 0.46702 0.8567 0.0
C3091 C 0.96048 0.50139 0.871 0.0
C3092 C 1.0012 0.47842 0.90463 0.0
C3093 C 0.02284 0.50057 0.90726 0.0
C3094 C 0.98948 0.47297 0.89056 0.0
C3095 C 0.9996 0.49016 0.87888 0.0
C3096 C 0.02122 0.51272 0.88154 0.0
C3097 C 0.03265 0.51762 0.89569 0.0
C3098 C 0.96656 0.44864 0.88812 0.0
C3099 C 0.03239 0.53158 0.86939 0.0
H3100 H 0.99097 0.45863 0.83064 0.0
H3101 H 0.94332 0.48646 0.84288 0.0
H3102 H 0.03328 0.48383 0.85975 0.0
H3103 H 0.01053 0.45481 0.86653 0.0
H3104 H 0.01984 0.45818 0.84716 0.0
H3105 H 0.94612 0.50485 0.86615 0.0
H3106 H 0.95275 0.48981 0.88105 0.0
H3107 H 0.9763 0.51887 0.87484 0.0
H3108 H 0.99371 0.46511 0.91351 0.0
H3109 H 0.04919 0.53489 0.89776 0.0
H3110 H 0.97009 0.43836 0.87935 0.0
H3111 H 0.95115 0.4511 0.88405 0.0
H3112 H 0.9606 0.43762 0.8985 0.0
H3113 H 0.03816 0.52434 0.85986 0.0
H3114 H 0.04872 0.54855 0.87344 0.0
H3115 H 0.01843 0.53596 0.86503 0.0
C3116 C 0.52322 0.46446 0.84731 0.0
C3117 C 0.54546 0.46688 0.84193 0.0
C3118 C 0.5216 0.47205 0.86186 0.0
C3119 C 0.54273 0.48245 0.87129 0.0
C3120 C 0.56512 0.48458 0.86604 0.0
C3121 C 0.5662 0.47677 0.85145 0.0
C3122 C 0.4974 0.46949 0.86699 0.0
C3123 C 0.58808 0.49558 0.87574 0.0
C3124 C 0.5471 0.52628 0.90174 0.0
C3125 C 0.54112 0.51202 0.9147 0.0
C3126 C 0.5476 0.51684 0.8876 0.0
C3127 C 0.54185 0.49243 0.88629 0.0
C3128 C 0.53542 0.47777 0.89927 0.0
C3129 C 0.53513 0.48773 0.91333 0.0
C3130 C 0.5544 0.53307 0.87405 0.0
C3131 C 0.52911 0.45164 0.89834 0.0
H3132 H 0.50717 0.45717 0.83999 0.0
H3133 H 0.58335 0.47839 0.8475 0.0
H3134 H 0.4918 0.45967 0.87781 0.0
H3135 H 0.49963 0.48769 0.86892 0.0
H3136 H 0.48229 0.45967 0.85868 0.0
H3137 H 0.60371 0.49497 0.87027 0.0
H3138 H 0.59387 0.51475 0.8783 0.0
H3139 H 0.58417 0.4859 0.88659 0.0
H3140 H 0.55129 0.54492 0.90264 0.0
H3141 H 0.53068 0.47664 0.92329 0.0
H3142 H 0.53917 0.52518 0.86567 0.0
H3143 H 0.571 0.53444 0.86861 0.0
H3144 H 0.55828 0.55161 0.87696 0.0
H3145 H 0.51356 0.44157 0.89036 0.0
H3146 H 0.5239 0.4425 0.9094 0.0
H3147 H 0.54516 0.45058 0.89398 0.0
C3148 C 0.52745 0.03549 0.8368 0.0
C3149 C 0.52246 0.05432 0.83407 0.0
C3150 C 0.52275 0.02412 0.85088 0.0
C3151 C 0.51293 0.03181 0.8626 0.0
C3152 C 0.50847 0.05123 0.86003 0.0
C3153 C 0.51322 0.06218 0.84582 0.0
C3154 C 0.52767 0.00342 0.85309 0.0
C3155 C 0.49826 0.06019 0.87222 0.0
C3156 C 0.47599 0.9862 0.89304 0.0
C3157 C 0.49329 0.99299 0.90479 0.0
C3158 C 0.48213 0.99871 0.87935 0.0
C3159 C 0.50616 0.01873 0.87728 0.0
C3160 C 0.52361 0.02602 0.88916 0.0
C3161 C 0.51701 0.01306 0.90273 0.0
C3162 C 0.4629 0.99034 0.86703 0.0
C3163 C 0.54938 0.04733 0.88746 0.0
H3164 H 0.53437 0.02912 0.82778 0.0
H3165 H 0.50968 0.07697 0.84391 0.0
H3166 H 0.53992 0.007 0.86296 0.0
H3167 H 0.51004 0.98654 0.85539 0.0
H3168 H 0.5364 0.00035 0.84313 0.0
H3169 H 0.497 0.07625 0.86868 0.0
H3170 H 0.47954 0.04558 0.87539 0.0
H3171 H 0.51008 0.06502 0.8824 0.0
H3172 H 0.45748 0.97106 0.89456 0.0
H3173 H 0.53064 0.01835 0.91162 0.0
H3174 H 0.46969 0.98537 0.85691 0.0
H3175 H 0.45954 0.00527 0.86383 0.0
H3176 H 0.44505 0.97447 0.87041 0.0
H3177 H 0.55907 0.04369 0.87829 0.0
H3178 H 0.56051 0.05125 0.89791 0.0
H3179 H 0.54851 0.06372 0.88431 0.0
C3180 C 0.12465 0.28201 0.50378 0.0
C3181 C 0.12821 0.2628 0.50817 0.0
C3182 C 0.13234 0.29296 0.48965 0.0
C3183 C 0.14402 0.28467 0.47956 0.0
C3184 C 0.14729 0.26502 0.48379 0.0
C3185 C 0.13937 0.25434 0.498 0.0
C3186 C 0.12852 0.31389 0.48567 0.0
C3187 C 0.15958 0.25554 0.47339 0.0
C3188 C 0.1483 0.30421 0.43862 0.0
C3189 C 0.17203 0.32471 0.43819 0.0
C3190 C 0.13913 0.29059 0.45186 0.0
C3191 C 0.15404 0.29754 0.465 0.0
C3192 C 0.17831 0.31768 0.46444 0.0
C3193 C 0.18697 0.33094 0.4511 0.0
C3194 C 0.11318 0.26924 0.45193 0.0
C3195 C 0.19497 0.32568 0.47809 0.0
H3196 H 0.11642 0.28899 0.51157 0.0
H3197 H 0.14192 0.23931 0.50114 0.0
H3198 H 0.1467 0.33057 0.48427 0.0
H3199 H 0.11847 0.31028 0.47483 0.0
H3200 H 0.11798 0.31735 0.49438 0.0
H3201 H 0.15968 0.23941 0.47801 0.0
H3202 H 0.14998 0.25066 0.46237 0.0
H3203 H 0.17896 0.26989 0.47137 0.0
H3204 H 0.13654 0.29931 0.42876 0.0
H3205 H 0.20549 0.34646 0.45082 0.0
H3206 H 0.10152 0.27309 0.45954 0.0
H3207 H 0.11317 0.25294 0.45629 0.0
H3208 H 0.1046 0.26507 0.44058 0.0
H3209 H 0.18673 0.3314 0.48709 0.0
H3210 H 0.21373 0.34099 0.47564 0.0
H3211 H 0.19677 0.31037 0.48251 0.0
C3212 C 0.68841 0.86848 0.50838 0.0
C3213 C 0.70781 0.86474 0.51288 0.0
C3214 C 0.67853 0.86258 0.4938 0.0
C3215 C 0.68816 0.85254 0.48345 0.0
C3216 C 0.70789 0.84895 0.48785 0.0
C3217 C 0.71753 0.85516 0.50248 0.0
C3218 C 0.65752 0.86673 0.48952 0.0
C3219 C 0.71866 0.83829 0.47716 0.0
C3220 C 0.64587 0.81513 0.4514 0.0
C3221 C 0.6547 0.83163 0.4395 0.0
C3222 C 0.65683 0.82159 0.46569 0.0
C3223 C 0.67707 0.84518 0.46818 0.0
C3224 C 0.68631 0.86181 0.45615 0.0
C3225 C 0.67505 0.85482 0.44195 0.0
C3226 C 0.6466 0.80324 0.47817 0.0
C3227 C 0.70777 0.88716 0.45837 0.0
H3228 H 0.68054 0.87556 0.51637 0.0
H3229 H 0.73279 0.85259 0.50576 0.0
H3230 H 0.66242 0.87825 0.47939 0.0
H3231 H 0.64085 0.84919 0.48671 0.0
H3232 H 0.65279 0.87557 0.49867 0.0
H3233 H 0.73424 0.83701 0.48224 0.0
H3234 H 0.70414 0.81989 0.47362 0.0
H3235 H 0.72534 0.84949 0.4669 0.0
H3236 H 0.63036 0.79708 0.44952 0.0
H3237 H 0.6818 0.86773 0.43283 0.0
H3238 H 0.63974 0.81008 0.48734 0.0
H3239 H 0.66142 0.80047 0.48296 0.0
H3240 H 0.63122 0.78546 0.47429 0.0
H3241 H 0.7028 0.89698 0.46668 0.0
H3242 H 0.71326 0.89765 0.44777 0.0
H3243 H 0.72397 0.88649 0.46293 0.0
C3244 C 0.13114 0.83924 0.50812 0.0
C3245 C 0.13575 0.86287 0.51069 0.0
C3246 C 0.1369 0.83264 0.49431 0.0
C3247 C 0.14737 0.85005 0.48275 0.0
C3248 C 0.15111 0.87364 0.48507 0.0
C3249 C 0.14533 0.87977 0.49902 0.0
C3250 C 0.13274 0.80734 0.4923 0.0
C3251 C 0.16195 0.89264 0.47299 0.0
C3252 C 0.18865 0.84349 0.45413 0.0
C3253 C 0.17282 0.83373 0.44168 0.0
C3254 C 0.18049 0.84862 0.46756 0.0
C3255 C 0.15593 0.84413 0.4686 0.0
C3256 C 0.13984 0.83437 0.45609 0.0
C3257 C 0.14844 0.82921 0.44281 0.0
C3258 C 0.19825 0.85903 0.48064 0.0
C3259 C 0.11357 0.82941 0.45672 0.0
H3260 H 0.12393 0.82616 0.51714 0.0
H3261 H 0.14861 0.89797 0.50087 0.0
H3262 H 0.1219 0.79898 0.48193 0.0
H3263 H 0.1508 0.80811 0.49104 0.0
H3264 H 0.12287 0.79547 0.50195 0.0
H3265 H 0.16204 0.90955 0.47619 0.0
H3266 H 0.18123 0.89714 0.47071 0.0
H3267 H 0.15132 0.8856 0.46239 0.0
H3268 H 0.20761 0.84745 0.45332 0.0
H3269 H 0.13594 0.82137 0.43334 0.0
H3270 H 0.19044 0.84725 0.4906 0.0
H3271 H 0.20102 0.87712 0.48367 0.0
H3272 H 0.21655 0.86091 0.47815 0.0
H3273 H 0.10343 0.8163 0.46578 0.0
H3274 H 0.10347 0.82202 0.44598 0.0
H3275 H 0.11343 0.84635 0.45944 0.0
C3276 C 0.63672 0.79906 0.18411 0.0
C3277 C 0.62555 0.81059 0.17658 0.0
C3278 C 0.64832 0.80731 0.19815 0.0
C3279 C 0.65037 0.8286 0.2045 0.0
C3280 C 0.63936 0.84046 0.19706 0.0
C3281 C 0.62645 0.8309 0.18354 0.0
C3282 C 0.65862 0.79332 0.20609 0.0
C3283 C 0.64178 0.86369 0.20316 0.0
C3284 C 0.66738 0.84745 0.24537 0.0
C3285 C 0.69316 0.86293 0.24463 0.0
C3286 C 0.65343 0.83508 0.23259 0.0
C3287 C 0.66515 0.83929 0.21848 0.0
C3288 C 0.69104 0.85463 0.2176 0.0
C3289 C 0.70474 0.86549 0.23069 0.0
C3290 C 0.62604 0.81785 0.23421 0.0
C3291 C 0.70427 0.86031 0.20273 0.0
H3292 H 0.63688 0.78371 0.17904 0.0
H3293 H 0.61723 0.83967 0.17847 0.0
H3294 H 0.67907 0.80338 0.20544 0.0
H3295 H 0.65359 0.79116 0.21814 0.0
H3296 H 0.65177 0.77509 0.20105 0.0
H3297 H 0.63362 0.8716 0.19551 0.0
H3298 H 0.63245 0.86035 0.21416 0.0
H3299 H 0.66157 0.87726 0.205 0.0
H3300 H 0.65775 0.84525 0.25581 0.0
H3301 H 0.72463 0.87633 0.22982 0.0
H3302 H 0.6202 0.80111 0.22753 0.0
H3303 H 0.61563 0.82651 0.22996 0.0
H3304 H 0.62078 0.81274 0.2461 0.0
H3305 H 0.7024 0.84359 0.19765 0.0
H3306 H 0.72426 0.87379 0.20385 0.0
H3307 H 0.69577 0.86753 0.19483 0.0
C3308 C 0.17595 0.80115 0.17237 0.0
C3309 C 0.19965 0.80539 0.16873 0.0
C3310 C 0.17101 0.80772 0.18641 0.0
C3311 C 0.19027 0.81914 0.19713 0.0
C3312 C 0.21435 0.82388 0.19349 0.0
C3313 C 0.21875 0.81691 0.17935 0.0
C3314 C 0.14507 0.80236 0.18979 0.0
C3315 C 0.23541 0.83615 0.20458 0.0
C3316 C 0.17857 0.85402 0.22761 0.0
C3317 C 0.1698 0.83726 0.23939 0.0
C3318 C 0.18625 0.84876 0.21402 0.0
C3319 C 0.18499 0.8261 0.21208 0.0
C3320 C 0.17687 0.8094 0.22409 0.0
C3321 C 0.16946 0.81522 0.23761 0.0
C3322 C 0.19504 0.86719 0.20157 0.0
C3323 C 0.17508 0.78499 0.22246 0.0
H3324 H 0.16117 0.79277 0.16416 0.0
H3325 H 0.23706 0.82011 0.17672 0.0
H3326 H 0.13801 0.79072 0.19986 0.0
H3327 H 0.14513 0.81944 0.19233 0.0
H3328 H 0.13209 0.79309 0.18032 0.0
H3329 H 0.25316 0.83905 0.19993 0.0
H3330 H 0.23774 0.85394 0.20799 0.0
H3331 H 0.23117 0.82503 0.21486 0.0
H3332 H 0.17925 0.87126 0.22899 0.0
H3333 H 0.16255 0.8021 0.24661 0.0
H3334 H 0.18184 0.86001 0.19202 0.0
H3335 H 0.21322 0.87067 0.19738 0.0
H3336 H 0.19677 0.88465 0.20525 0.0
H3337 H 0.16079 0.77403 0.21394 0.0
H3338 H 0.17017 0.7748 0.23318 0.0
H3339 H 0.19287 0.78716 0.21846 0.0
C3340 C 0.21439 0.39377 0.18044 0.0
C3341 C 0.19428 0.38783 0.17076 0.0
C3342 C 0.21104 0.38273 0.1946 0.0
C3343 C 0.18697 0.36541 0.19937 0.0
C3344 C 0.16659 0.3596 0.18978 0.0
C3345 C 0.17048 0.37067 0.17564 0.0
C3346 C 0.23333 0.38937 0.20438 0.0
C3347 C 0.14058 0.34129 0.19434 0.0
C3348 C 0.17578 0.31606 0.22754 0.0
C3349 C 0.16991 0.32431 0.24066 0.0
C3350 C 0.18245 0.32976 0.21429 0.0
C3351 C 0.18303 0.35227 0.21398 0.0
C3352 C 0.17809 0.36118 0.22737 0.0
C3353 C 0.17174 0.34716 0.24057 0.0
C3354 C 0.18792 0.31963 0.20043 0.0
C3355 C 0.17832 0.38496 0.22758 0.0
H3356 H 0.23283 0.40721 0.177 0.0
H3357 H 0.15477 0.36546 0.16827 0.0
H3358 H 0.23102 0.39586 0.21548 0.0
H3359 H 0.23508 0.37311 0.20636 0.0
H3360 H 0.25073 0.40364 0.19928 0.0
H3361 H 0.12658 0.33978 0.18603 0.0
H3362 H 0.13892 0.32322 0.19561 0.0
H3363 H 0.13627 0.34635 0.20538 0.0
H3364 H 0.17459 0.29849 0.22756 0.0
H3365 H 0.16704 0.35355 0.25063 0.0
H3366 H 0.20576 0.33329 0.19549 0.0
H3367 H 0.17334 0.31525 0.19186 0.0
H3368 H 0.18876 0.30296 0.20282 0.0
H3369 H 0.19579 0.39951 0.22276 0.0
H3370 H 0.17623 0.39039 0.23909 0.0
H3371 H 0.16296 0.38346 0.22049 0.0
C3372 C 0.82418 0.61894 0.84216 0.0
C3373 C 0.79941 0.60254 0.84563 0.0
C3374 C 0.8309 0.6301 0.82801 0.0
C3375 C 0.81245 0.6248 0.81698 0.0
C3376 C 0.78751 0.60777 0.82027 0.0
C3377 C 0.78131 0.59688 0.8345 0.0
C3378 C 0.8577 0.64816 0.82503 0.0
C3379 C 0.76725 0.60145 0.80885 0.0
C3380 C 0.82622 0.67326 0.78761 0.0
C3381 C 0.83339 0.66471 0.77517 0.0
C3382 C 0.81912 0.66032 0.80115 0.0
C3383 C 0.81908 0.63814 0.80238 0.0
C3384 C 0.82576 0.62909 0.78977 0.0
C3385 C 0.83281 0.64244 0.77633 0.0
C3386 C 0.81195 0.6706 0.81422 0.0
C3387 C 0.82595 0.60553 0.79057 0.0
H3388 H 0.83831 0.62367 0.85068 0.0
H3389 H 0.76218 0.58394 0.83694 0.0
H3390 H 0.86383 0.64323 0.81461 0.0
H3391 H 0.85994 0.66639 0.82332 0.0
H3392 H 0.86999 0.64923 0.83441 0.0
H3393 H 0.74899 0.5869 0.81281 0.0
H3394 H 0.76579 0.61773 0.80632 0.0
H3395 H 0.77172 0.59549 0.7982 0.0
H3396 H 0.82615 0.69019 0.78678 0.0
H3397 H 0.8385 0.63574 0.76686 0.0
H3398 H 0.82465 0.67398 0.82382 0.0
H3399 H 0.79303 0.65736 0.81799 0.0
H3400 H 0.81251 0.68783 0.81138 0.0
H3401 H 0.83969 0.60704 0.79906 0.0
H3402 H 0.83056 0.60043 0.77963 0.0
H3403 H 0.80763 0.59073 0.7942 0.0
C3404 C 0.38441 0.18374 0.83561 0.0
C3405 C 0.37695 0.19507 0.84623 0.0
C3406 C 0.37312 0.17711 0.82141 0.0
C3407 C 0.35403 0.18208 0.81769 0.0
C3408 C 0.34628 0.19331 0.82839 0.0
C3409 C 0.35773 0.19955 0.84254 0.0
C3410 C 0.38179 0.16505 0.81031 0.0
C3411 C 0.326 0.19894 0.82486 0.0
C3412 C 0.34043 0.18735 0.77675 0.0
C3413 C 0.31886 0.1651 0.77419 0.0
C3414 C 0.35225 0.19298 0.7908 0.0
C3415 C 0.34233 0.17588 0.80255 0.0
C3416 C 0.3208 0.15322 0.79996 0.0
C3417 C 0.30925 0.14814 0.78582 0.0
C3418 C 0.37506 0.21742 0.79316 0.0
C3419 C 0.30983 0.13444 0.81216 0.0
H3420 H 0.39942 0.18046 0.83829 0.0
H3421 H 0.35152 0.20788 0.85075 0.0
H3422 H 0.36598 0.14753 0.80652 0.0
H3423 H 0.38941 0.1766 0.80025 0.0
H3424 H 0.39623 0.16167 0.81512 0.0
H3425 H 0.32212 0.20772 0.83442 0.0
H3426 H 0.33124 0.21112 0.81502 0.0
H3427 H 0.30874 0.18204 0.82185 0.0
H3428 H 0.34778 0.2006 0.76784 0.0
H3429 H 0.29276 0.1308 0.78383 0.0
H3430 H 0.39061 0.21513 0.79717 0.0
H3431 H 0.37151 0.22766 0.80195 0.0
H3432 H 0.38083 0.22839 0.78275 0.0
H3433 H 0.32391 0.1302 0.8165 0.0
H3434 H 0.29354 0.11738 0.80817 0.0
H3435 H 0.30407 0.14166 0.8217 0.0
C3436 C 0.80711 0.16446 0.83983 0.0
C3437 C 0.8087 0.18705 0.84178 0.0
C3438 C 0.81207 0.1575 0.82586 0.0
C3439 C 0.81846 0.17335 0.81346 0.0
C3440 C 0.81917 0.19579 0.81524 0.0
C3441 C 0.81449 0.20244 0.82938 0.0
C3442 C 0.81139 0.13355 0.82454 0.0
C3443 C 0.82546 0.21305 0.80228 0.0
C3444 C 0.8582 0.16808 0.78305 0.0
C3445 C 0.84066 0.15381 0.77208 0.0
C3446 C 0.85122 0.17461 0.79645 0.0
C3447 C 0.82604 0.16717 0.79895 0.0
C3448 C 0.80829 0.15353 0.78773 0.0
C3449 C 0.81577 0.14689 0.7745 0.0
C3450 C 0.87079 0.18912 0.80808 0.0
C3451 C 0.78133 0.14557 0.78983 0.0
H3452 H 0.80284 0.15256 0.84939 0.0
H3453 H 0.81543 0.21979 0.83076 0.0
H3454 H 0.79903 0.12271 0.81518 0.0
H3455 H 0.83015 0.13676 0.82193 0.0
H3456 H 0.80493 0.12277 0.835 0.0
H3457 H 0.82329 0.22886 0.80517 0.0
H3458 H 0.84485 0.2198 0.79881 0.0
H3459 H 0.81348 0.20355 0.79247 0.0
H3460 H 0.87756 0.17411 0.78121 0.0
H3461 H 0.80196 0.13574 0.76622 0.0
H3462 H 0.86647 0.17883 0.81872 0.0
H3463 H 0.871 0.2063 0.81051 0.0
H3464 H 0.88956 0.1935 0.80443 0.0
H3465 H 0.77383 0.13276 0.79934 0.0
H3466 H 0.77012 0.13657 0.77965 0.0
H3467 H 0.77917 0.16137 0.79266 0.0
C3468 C 0.28114 0.12734 0.51369 0.0
C3469 C 0.29033 0.14399 0.50188 0.0
C3470 C 0.29231 0.13328 0.52793 0.0
C3471 C 0.31323 0.15643 0.53041 0.0
C3472 C 0.32218 0.17356 0.51865 0.0
C3473 C 0.31059 0.16715 0.50452 0.0
C3474 C 0.28206 0.11458 0.54022 0.0
C3475 C 0.34449 0.1984 0.52085 0.0
C3476 C 0.33227 0.17781 0.57065 0.0
C3477 C 0.35116 0.17231 0.57306 0.0
C3478 C 0.31981 0.17285 0.55681 0.0
C3479 C 0.32645 0.16222 0.54508 0.0
C3480 C 0.34555 0.15672 0.54743 0.0
C3481 C 0.35761 0.16177 0.56138 0.0
C3482 C 0.29952 0.17894 0.55474 0.0
C3483 C 0.35313 0.14532 0.53521 0.0
H3484 H 0.26524 0.10954 0.51177 0.0
H3485 H 0.31789 0.18001 0.49539 0.0
H3486 H 0.29604 0.10955 0.54356 0.0
H3487 H 0.27797 0.12219 0.55029 0.0
H3488 H 0.26493 0.0979 0.53669 0.0
H3489 H 0.34826 0.21009 0.51086 0.0
H3490 H 0.34181 0.20752 0.53068 0.0
H3491 H 0.36101 0.19667 0.52319 0.0
H3492 H 0.32739 0.18625 0.57954 0.0
H3493 H 0.37191 0.15712 0.56322 0.0
H3494 H 0.28193 0.16234 0.55181 0.0
H3495 H 0.30407 0.19177 0.5453 0.0
H3496 H 0.29658 0.18715 0.56497 0.0
H3497 H 0.33721 0.12748 0.53199 0.0
H3498 H 0.36869 0.14264 0.53873 0.0
H3499 H 0.35874 0.15686 0.52507 0.0
C3500 C 0.87047 0.16336 0.50627 0.0
C3501 C 0.86444 0.1395 0.5029 0.0
C3502 C 0.86543 0.16951 0.52045 0.0
C3503 C 0.85419 0.15141 0.53155 0.0
C3504 C 0.84891 0.1275 0.52839 0.0
C3505 C 0.85404 0.12183 0.5141 0.0
C3506 C 0.87126 0.19519 0.52335 0.0
C3507 C 0.83715 0.10772 0.53995 0.0
C3508 C 0.85498 0.17035 0.57223 0.0
C3509 C 0.8313 0.16753 0.57367 0.0
C3510 C 0.86273 0.16517 0.55861 0.0
C3511 C 0.84646 0.15707 0.54611 0.0
C3512 C 0.82254 0.15415 0.54751 0.0
C3513 C 0.81525 0.15932 0.56125 0.0
C3514 C 0.88834 0.16843 0.55758 0.0
C3515 C 0.80459 0.14551 0.53447 0.0
H3516 H 0.87831 0.17706 0.49763 0.0
H3517 H 0.84969 0.10345 0.51164 0.0
H3518 H 0.85383 0.19551 0.52504 0.0
H3519 H 0.88241 0.20233 0.53376 0.0
H3520 H 0.88151 0.20747 0.51394 0.0
H3521 H 0.83575 0.09049 0.53608 0.0
H3522 H 0.84798 0.11344 0.55055 0.0
H3523 H 0.81831 0.10428 0.54254 0.0
H3524 H 0.86763 0.17694 0.58169 0.0
H3525 H 0.79677 0.15665 0.56231 0.0
H3526 H 0.89903 0.1819 0.5488 0.0
H3527 H 0.88717 0.15111 0.55422 0.0
H3528 H 0.89865 0.17459 0.56836 0.0
H3529 H 0.81284 0.15788 0.52481 0.0
H3530 H 0.78681 0.14453 0.53733 0.0
H3531 H 0.8007 0.12728 0.5308 0.0
C3532 C 0.87965 0.73392 0.51131 0.0
C3533 C 0.85994 0.72668 0.50112 0.0
C3534 C 0.87601 0.72327 0.52559 0.0
C3535 C 0.85208 0.70485 0.52985 0.0
C3536 C 0.83212 0.69756 0.51965 0.0
C3537 C 0.83628 0.7085 0.50547 0.0
C3538 C 0.89779 0.73164 0.53611 0.0
C3539 C 0.80634 0.67792 0.52364 0.0
C3540 C 0.84371 0.65854 0.5596 0.0
C3541 C 0.83591 0.66642 0.57209 0.0
C3542 C 0.84968 0.67124 0.54597 0.0
C3543 C 0.84793 0.69248 0.5447 0.0
C3544 C 0.84091 0.70104 0.5574 0.0
C3545 C 0.83501 0.68794 0.57092 0.0
C3546 C 0.85724 0.66151 0.5328 0.0
C3547 C 0.83883 0.72361 0.55658 0.0
H3548 H 0.89794 0.74813 0.50817 0.0
H3549 H 0.82097 0.70244 0.49765 0.0
H3550 H 0.89399 0.73801 0.54683 0.0
H3551 H 0.90075 0.71628 0.53879 0.0
H3552 H 0.91508 0.74653 0.53129 0.0
H3553 H 0.79267 0.67481 0.51466 0.0
H3554 H 0.80623 0.66069 0.52568 0.0
H3555 H 0.80033 0.68275 0.53415 0.0
H3556 H 0.84495 0.64221 0.56044 0.0
H3557 H 0.82886 0.69413 0.58044 0.0
H3558 H 0.8752 0.67574 0.52832 0.0
H3559 H 0.84337 0.65624 0.52365 0.0
H3560 H 0.85892 0.64548 0.53581 0.0
H3561 H 0.85617 0.73892 0.55215 0.0
H3562 H 0.83494 0.72889 0.56768 0.0
H3563 H 0.82374 0.72058 0.5487 0.0
loop_
_geom_bond_atom_site_label_1
_geom_bond_atom_site_label_2
_geom_bond_distance
_geom_bond_site_symmetry_2
_ccdc_geom_bond_type
C0 C1 1.391 . S
C0 C4 1.391 . S
C0 H42 0.948 . S
C1 C0 1.391 . S
C1 C2 1.391 . S
C2 C1 1.391 . S
C2 H58 0.947 . S
C2 C59 1.392 . S
C3 C4 1.391 . S
C3 C7 1.397 . S
C3 C59 1.419 . S
C4 C0 1.391 . S
C4 C3 1.391 . S
C4 C5 1.399 . S
C5 C4 1.399 . S
C5 C8 1.396 . S
C5 C17 1.453 . S
C5 C18 1.684 . S
H6 C30 0.948 . S
C7 C3 1.397 . S
C7 C8 1.394 . S
C7 C26 1.723 . S
C8 C5 1.396 . S
C8 C7 1.394 . S
C8 C38 1.723 . S
H9 C32 0.947 . S
H10 C33 0.948 . S
H11 C39 0.982 . S
H12 C40 0.979 . S
H13 C40 0.980 . S
H14 C40 0.983 . S
H15 C39 0.979 . S
H16 C39 0.977 . S
C17 C5 1.453 . S
C17 H46 0.982 . S
C17 H47 0.979 . S
C17 H48 0.977 . S
C18 C5 1.684 . S
C18 H43 0.979 . S
C18 H44 0.980 . S
C18 H45 0.983 . S
C19 C20 1.391 . S
C19 C24 1.391 . S
C19 H49 0.948 . S
C20 C19 1.391 . S
C20 C21 1.391 . S
C21 C20 1.391 . S
C21 C22 1.392 . S
C21 H50 0.947 . S
C22 C21 1.392 . S
C22 C23 1.419 . S
C22 H51 0.948 . S
C23 C22 1.419 . S
C23 C24 1.391 . S
C23 C27 1.397 . S
C24 C19 1.391 . S
C24 C23 1.391 . S
C24 C25 1.399 . S
C25 C24 1.399 . S
C25 C26 1.396 . S
C25 C28 1.453 . S
C25 C29 1.684 . S
C26 C7 1.723 . S
C26 C25 1.396 . S
C26 C27 1.394 . S
C27 C23 1.397 . S
C27 C26 1.394 . S
C27 C37 1.723 . S
C28 C25 1.453 . S
C28 H52 0.982 . S
C28 H53 0.979 . S
C28 H54 0.977 . S
C29 C25 1.684 . S
C29 H55 0.979 . S
C29 H56 0.980 . S
C29 H57 0.983 . S
C30 H6 0.948 . S
C30 C31 1.391 . S
C30 C35 1.391 . S
C31 C30 1.391 . S
C31 C32 1.391 . S
C32 H9 0.947 . S
C32 C31 1.391 . S
C32 C33 1.392 . S
C33 H10 0.948 . S
C33 C32 1.392 . S
C33 C34 1.419 . S
C34 C33 1.419 . S
C34 C35 1.391 . S
C34 C38 1.397 . S
C35 C30 1.391 . S
C35 C34 1.391 . S
C35 C36 1.399 . S
C36 C35 1.399 . S
C36 C37 1.396 . S
C36 C39 1.453 . S
C36 C40 1.684 . S
C37 C27 1.723 . S
C37 C36 1.396 . S
C37 C38 1.394 . S
C38 C8 1.723 . S
C38 C34 1.397 . S
C38 C37 1.394 . S
C39 H11 0.982 . S
C39 H15 0.979 . S
C39 H16 0.977 . S
C39 C36 1.453 . S
C40 H12 0.979 . S
C40 H13 0.980 . S
C40 H14 0.983 . S
C40 C36 1.684 . S
H41 C59 0.948 . S
H42 C0 0.948 . S
H43 C18 0.979 . S
H44 C18 0.980 . S
H45 C18 0.983 . S
H46 C17 0.982 . S
H47 C17 0.979 . S
H48 C17 0.977 . S
H49 C19 0.948 . S
H50 C21 0.947 . S
H51 C22 0.948 . S
H52 C28 0.982 . S
H53 C28 0.979 . S
H54 C28 0.977 . S
H55 C29 0.979 . S
H56 C29 0.980 . S
H57 C29 0.983 . S
H58 C2 0.947 . S
C59 C2 1.392 . S
C59 C3 1.419 . S
C59 H41 0.948 . S
C60 C61 1.391 . S
C60 C64 1.391 . S
C60 H102 0.948 . S
C61 C60 1.391 . S
C61 C62 1.391 . S
C62 C61 1.391 . S
C62 H118 0.947 . S
C62 C119 1.392 . S
C63 C64 1.391 . S
C63 C67 1.397 . S
C63 C119 1.419 . S
C64 C60 1.391 . S
C64 C63 1.391 . S
C64 C65 1.399 . S
C65 C64 1.399 . S
C65 C68 1.396 . S
C65 C77 1.453 . S
C65 C78 1.684 . S
H66 C90 0.948 . S
C67 C63 1.397 . S
C67 C68 1.394 . S
C67 C86 1.723 . S
C68 C65 1.396 . S
C68 C67 1.394 . S
C68 C98 1.723 . S
H69 C92 0.947 . S
H70 C93 0.948 . S
H71 C99 0.982 . S
H72 C100 0.979 . S
H73 C100 0.980 . S
H74 C100 0.983 . S
H75 C99 0.979 . S
H76 C99 0.977 . S
C77 C65 1.453 . S
C77 H106 0.982 . S
C77 H107 0.979 . S
C77 H108 0.977 . S
C78 C65 1.684 . S
C78 H103 0.979 . S
C78 H104 0.980 . S
C78 H105 0.983 . S
C79 C80 1.391 . S
C79 C84 1.391 . S
C79 H109 0.948 . S
C80 C79 1.391 . S
C80 C81 1.391 . S
C81 C80 1.391 . S
C81 C82 1.392 . S
C81 H110 0.947 . S
C82 C81 1.392 . S
C82 C83 1.419 . S
C82 H111 0.948 . S
C83 C82 1.419 . S
C83 C84 1.391 . S
C83 C87 1.397 . S
C84 C79 1.391 . S
C84 C83 1.391 . S
C84 C85 1.399 . S
C85 C84 1.399 . S
C85 C86 1.396 . S
C85 C88 1.453 . S
C85 C89 1.684 . S
C86 C67 1.723 . S
C86 C85 1.396 . S
C86 C87 1.394 . S
C87 C83 1.397 . S
C87 C86 1.394 . S
C87 C97 1.723 . S
C88 C85 1.453 . S
C88 H112 0.982 . S
C88 H113 0.979 . S
C88 H114 0.977 . S
C89 C85 1.684 . S
C89 H115 0.979 . S
C89 H116 0.980 . S
C89 H117 0.983 . S
C90 H66 0.948 . S
C90 C91 1.391 . S
C90 C95 1.391 . S
C91 C90 1.391 . S
C91 C92 1.391 . S
C92 H69 0.947 . S
C92 C91 1.391 . S
C92 C93 1.392 . S
C93 H70 0.948 . S
C93 C92 1.392 . S
C93 C94 1.419 . S
C94 C93 1.419 . S
C94 C95 1.391 . S
C94 C98 1.397 . S
C95 C90 1.391 . S
C95 C94 1.391 . S
C95 C96 1.399 . S
C96 C95 1.399 . S
C96 C97 1.396 . S
C96 C99 1.453 . S
C96 C100 1.684 . S
C97 C87 1.723 . S
C97 C96 1.396 . S
C97 C98 1.394 . S
C98 C68 1.723 . S
C98 C94 1.397 . S
C98 C97 1.394 . S
C99 H71 0.982 . S
C99 H75 0.979 . S
C99 H76 0.977 . S
C99 C96 1.453 . S
C100 H72 0.979 . S
C100 H73 0.980 . S
C100 H74 0.983 . S
C100 C96 1.684 . S
H101 C119 0.948 . S
H102 C60 0.948 . S
H103 C78 0.979 . S
H104 C78 0.980 . S
H105 C78 0.983 . S
H106 C77 0.982 . S
H107 C77 0.979 . S
H108 C77 0.977 . S
H109 C79 0.948 . S
H110 C81 0.947 . S
H111 C82 0.948 . S
H112 C88 0.982 . S
H113 C88 0.979 . S
H114 C88 0.977 . S
H115 C89 0.979 . S
H116 C89 0.980 . S
H117 C89 0.983 . S
H118 C62 0.947 . S
C119 C62 1.392 . S
C119 C63 1.419 . S
C119 H101 0.948 . S
C120 C121 1.391 . S
C120 C124 1.391 . S
C120 H162 0.948 . S
C121 C120 1.391 . S
C121 C122 1.391 . S
C122 C121 1.391 . S
C122 H178 0.947 . S
C122 C179 1.392 . S
C123 C124 1.391 . S
C123 C127 1.397 . S
C123 C179 1.419 . S
C124 C120 1.391 . S
C124 C123 1.391 . S
C124 C125 1.399 . S
C125 C124 1.399 . S
C125 C128 1.396 . S
C125 C137 1.453 . S
C125 C138 1.684 . S
H126 C150 0.948 . S
C127 C123 1.397 . S
C127 C128 1.394 . S
C127 C146 1.723 . S
C128 C125 1.396 . S
C128 C127 1.394 . S
C128 C158 1.723 . S
H129 C152 0.947 . S
H130 C153 0.948 . S
H131 C159 0.982 . S
H132 C160 0.979 . S
H133 C160 0.980 . S
H134 C160 0.983 . S
H135 C159 0.979 . S
H136 C159 0.977 . S
C137 C125 1.453 . S
C137 H166 0.982 . S
C137 H167 0.979 . S
C137 H168 0.977 . S
C138 C125 1.684 . S
C138 H163 0.979 . S
C138 H164 0.980 . S
C138 H165 0.983 . S
C139 C140 1.391 . S
C139 C144 1.391 . S
C139 H169 0.948 . S
C140 C139 1.391 . S
C140 C141 1.391 . S
C141 C140 1.391 . S
C141 C142 1.392 . S
C141 H170 0.947 . S
C142 C141 1.392 . S
C142 C143 1.419 . S
C142 H171 0.948 . S
C143 C142 1.419 . S
C143 C144 1.391 . S
C143 C147 1.397 . S
C144 C139 1.391 . S
C144 C143 1.391 . S
C144 C145 1.399 . S
C145 C144 1.399 . S
C145 C146 1.396 . S
C145 C148 1.453 . S
C145 C149 1.684 . S
C146 C127 1.723 . S
C146 C145 1.396 . S
C146 C147 1.394 . S
C147 C143 1.397 . S
C147 C146 1.394 . S
C147 C157 1.723 . S
C148 C145 1.453 . S
C148 H172 0.982 . S
C148 H173 0.979 . S
C148 H174 0.977 . S
C149 C145 1.684 . S
C149 H175 0.979 . S
C149 H176 0.980 . S
C149 H177 0.983 . S
C150 H126 0.948 . S
C150 C151 1.391 . S
C150 C155 1.391 . S
C151 C150 1.391 . S
C151 C152 1.391 . S
C152 H129 0.947 . S
C152 C151 1.391 . S
C152 C153 1.392 . S
C153 H130 0.948 . S
C153 C152 1.392 . S
C153 C154 1.419 . S
C154 C153 1.419 . S
C154 C155 1.391 . S
C154 C158 1.397 . S
C155 C150 1.391 . S
C155 C154 1.391 . S
C155 C156 1.399 . S
C156 C155 1.399 . S
C156 C157 1.396 . S
C156 C159 1.453 . S
C156 C160 1.684 . S
C157 C147 1.723 . S
C157 C156 1.396 . S
C157 C158 1.394 . S
C158 C128 1.723 . S
C158 C154 1.397 . S
C158 C157 1.394 . S
C159 H131 0.982 . S
C159 H135 0.979 . S
C159 H136 0.977 . S
C159 C156 1.453 . S
C160 H132 0.979 . S
C160 H133 0.980 . S
C160 H134 0.983 . S
C160 C156 1.684 . S
H161 C179 0.948 . S
H162 C120 0.948 . S
H163 C138 0.979 . S
H164 C138 0.980 . S
H165 C138 0.983 . S
H166 C137 0.982 . S
H167 C137 0.979 . S
H168 C137 0.977 . S
H169 C139 0.948 . S
H170 C141 0.947 . S
H171 C142 0.948 . S
H172 C148 0.982 . S
H173 C148 0.979 . S
H174 C148 0.977 . S
H175 C149 0.979 . S
H176 C149 0.980 . S
H177 C149 0.983 . S
H178 C122 0.947 . S
C179 C122 1.392 . S
C179 C123 1.419 . S
C179 H161 0.948 . S
C180 C181 1.391 . S
C180 C184 1.391 . S
C180 H222 0.948 . S
C181 C180 1.391 . S
C181 C182 1.391 . S
C182 C181 1.391 . S
C182 H238 0.947 . S
C182 C239 1.392 . S
C183 C184 1.391 . S
C183 C187 1.397 . S
C183 C239 1.419 . S
C184 C180 1.391 . S
C184 C183 1.391 . S
C184 C185 1.399 . S
C185 C184 1.399 . S
C185 C188 1.396 . S
C185 C197 1.453 . S
C185 C198 1.684 . S
H186 C210 0.948 . S
C187 C183 1.397 . S
C187 C188 1.394 . S
C187 C206 1.723 . S
C188 C185 1.396 . S
C188 C187 1.394 . S
C188 C218 1.723 . S
H189 C212 0.947 . S
H190 C213 0.948 . S
H191 C219 0.982 . S
H192 C220 0.979 . S
H193 C220 0.980 . S
H194 C220 0.983 . S
H195 C219 0.979 . S
H196 C219 0.977 . S
C197 C185 1.453 . S
C197 H226 0.982 . S
C197 H227 0.979 . S
C197 H228 0.977 . S
C198 C185 1.684 . S
C198 H223 0.979 . S
C198 H224 0.980 . S
C198 H225 0.983 . S
C199 C200 1.391 . S
C199 C204 1.391 . S
C199 H229 0.948 . S
C200 C199 1.391 . S
C200 C201 1.391 . S
C201 C200 1.391 . S
C201 C202 1.392 . S
C201 H230 0.947 . S
C202 C201 1.392 . S
C202 C203 1.419 . S
C202 H231 0.948 . S
C203 C202 1.419 . S
C203 C204 1.391 . S
C203 C207 1.397 . S
C204 C199 1.391 . S
C204 C203 1.391 . S
C204 C205 1.399 . S
C205 C204 1.399 . S
C205 C206 1.396 . S
C205 C208 1.453 . S
C205 C209 1.684 . S
C206 C187 1.723 . S
C206 C205 1.396 . S
C206 C207 1.394 . S
C207 C203 1.397 . S
C207 C206 1.394 . S
C207 C217 1.723 . S
C208 C205 1.453 . S
C208 H232 0.982 . S
C208 H233 0.979 . S
C208 H234 0.977 . S
C209 C205 1.684 . S
C209 H235 0.979 . S
C209 H236 0.980 . S
C209 H237 0.983 . S
C210 H186 0.948 . S
C210 C211 1.391 . S
C210 C215 1.391 . S
C211 C210 1.391 . S
C211 C212 1.391 . S
C212 H189 0.947 . S
C212 C211 1.391 . S
C212 C213 1.392 . S
C213 H190 0.948 . S
C213 C212 1.392 . S
C213 C214 1.419 . S
C214 C213 1.419 . S
C214 C215 1.391 . S
C214 C218 1.397 . S
C215 C210 1.391 . S
C215 C214 1.391 . S
C215 C216 1.399 . S
C216 C215 1.399 . S
C216 C217 1.396 . S
C216 C219 1.453 . S
C216 C220 1.684 . S
C217 C207 1.723 . S
C217 C216 1.396 . S
C217 C218 1.394 . S
C218 C188 1.723 . S
C218 C214 1.397 . S
C218 C217 1.394 . S
C219 H191 0.982 . S
C219 H195 0.979 . S
C219 H196 0.977 . S
C219 C216 1.453 . S
C220 H192 0.979 . S
C220 H193 0.980 . S
C220 H194 0.983 . S
C220 C216 1.684 . S
H221 C239 0.948 . S
H222 C180 0.948 . S
H223 C198 0.979 . S
H224 C198 0.980 . S
H225 C198 0.983 . S
H226 C197 0.982 . S
H227 C197 0.979 . S
H228 C197 0.977 . S
H229 C199 0.948 . S
H230 C201 0.947 . S
H231 C202 0.948 . S
H232 C208 0.982 . S
H233 C208 0.979 . S
H234 C208 0.977 . S
H235 C209 0.979 . S
H236 C209 0.980 . S
H237 C209 0.983 . S
H238 C182 0.947 . S
C239 C182 1.392 . S
C239 C183 1.419 . S
C239 H221 0.948 . S
C240 C241 1.391 . S
C240 C244 1.391 . S
C240 H282 0.948 . S
C241 C240 1.391 . S
C241 C242 1.391 . S
C242 C241 1.391 . S
C242 H298 0.947 . S
C242 C299 1.392 . S
C243 C244 1.391 . S
C243 C247 1.397 . S
C243 C299 1.419 . S
C244 C240 1.391 . S
C244 C243 1.391 . S
C244 C245 1.399 . S
C245 C244 1.399 . S
C245 C248 1.396 . S
C245 C257 1.453 . S
C245 C258 1.684 . S
H246 C270 0.948 . S
C247 C243 1.397 . S
C247 C248 1.394 . S
C247 C266 1.723 . S
C248 C245 1.396 . S
C248 C247 1.394 . S
C248 C278 1.723 . S
H249 C272 0.947 . S
H250 C273 0.948 . S
H251 C279 0.982 . S
H252 C280 0.979 . S
H253 C280 0.980 . S
H254 C280 0.983 . S
H255 C279 0.979 . S
H256 C279 0.977 . S
C257 C245 1.453 . S
C257 H286 0.982 . S
C257 H287 0.979 . S
C257 H288 0.977 . S
C258 C245 1.684 . S
C258 H283 0.979 . S
C258 H284 0.980 . S
C258 H285 0.983 . S
C259 C260 1.391 . S
C259 C264 1.391 . S
C259 H289 0.948 . S
C260 C259 1.391 . S
C260 C261 1.391 . S
C261 C260 1.391 . S
C261 C262 1.392 . S
C261 H290 0.947 . S
C262 C261 1.392 . S
C262 C263 1.419 . S
C262 H291 0.948 . S
C263 C262 1.419 . S
C263 C264 1.391 . S
C263 C267 1.397 . S
C264 C259 1.391 . S
C264 C263 1.391 . S
C264 C265 1.399 . S
C265 C264 1.399 . S
C265 C266 1.396 . S
C265 C268 1.453 . S
C265 C269 1.684 . S
C266 C247 1.723 . S
C266 C265 1.396 . S
C266 C267 1.394 . S
C267 C263 1.397 . S
C267 C266 1.394 . S
C267 C277 1.723 . S
C268 C265 1.453 . S
C268 H292 0.982 . S
C268 H293 0.979 . S
C268 H294 0.977 . S
C269 C265 1.684 . S
C269 H295 0.979 . S
C269 H296 0.980 . S
C269 H297 0.983 . S
C270 H246 0.948 . S
C270 C271 1.391 . S
C270 C275 1.391 . S
C271 C270 1.391 . S
C271 C272 1.391 . S
C272 H249 0.947 . S
C272 C271 1.391 . S
C272 C273 1.392 . S
C273 H250 0.948 . S
C273 C272 1.392 . S
C273 C274 1.419 . S
C274 C273 1.419 . S
C274 C275 1.391 . S
C274 C278 1.397 . S
C275 C270 1.391 . S
C275 C274 1.391 . S
C275 C276 1.399 . S
C276 C275 1.399 . S
C276 C277 1.396 . S
C276 C279 1.453 . S
C276 C280 1.684 . S
C277 C267 1.723 . S
C277 C276 1.396 . S
C277 C278 1.394 . S
C278 C248 1.723 . S
C278 C274 1.397 . S
C278 C277 1.394 . S
C279 H251 0.982 . S
C279 H255 0.979 . S
C279 H256 0.977 . S
C279 C276 1.453 . S
C280 H252 0.979 . S
C280 H253 0.980 . S
C280 H254 0.983 . S
C280 C276 1.684 . S
H281 C299 0.948 . S
H282 C240 0.948 . S
H283 C258 0.979 . S
H284 C258 0.980 . S
H285 C258 0.983 . S
H286 C257 0.982 . S
H287 C257 0.979 . S
H288 C257 0.977 . S
H289 C259 0.948 . S
H290 C261 0.947 . S
H291 C262 0.948 . S
H292 C268 0.982 . S
H293 C268 0.979 . S
H294 C268 0.977 . S
H295 C269 0.979 . S
H296 C269 0.980 . S
H297 C269 0.983 . S
H298 C242 0.947 . S
C299 C242 1.392 . S
C299 C243 1.419 . S
C299 H281 0.948 . S
C300 C301 1.391 . S
C300 C304 1.391 . S
C300 H342 0.948 . S
C301 C300 1.391 . S
C301 C302 1.391 . S
C302 C301 1.391 . S
C302 H358 0.947 . S
C302 C359 1.392 . S
C303 C304 1.391 . S
C303 C307 1.397 . S
C303 C359 1.419 . S
C304 C300 1.391 . S
C304 C303 1.391 . S
C304 C305 1.399 . S
C305 C304 1.399 . S
C305 C308 1.396 . S
C305 C317 1.453 . S
C305 C318 1.684 . S
H306 C330 0.948 . S
C307 C303 1.397 . S
C307 C308 1.394 . S
C307 C326 1.723 . S
C308 C305 1.396 . S
C308 C307 1.394 . S
C308 C338 1.723 . S
H309 C332 0.947 . S
H310 C333 0.948 . S
H311 C339 0.982 . S
H312 C340 0.979 . S
H313 C340 0.980 . S
H314 C340 0.983 . S
H315 C339 0.979 . S
H316 C339 0.977 . S
C317 C305 1.453 . S
C317 H346 0.982 . S
C317 H347 0.979 . S
C317 H348 0.977 . S
C318 C305 1.684 . S
C318 H343 0.979 . S
C318 H344 0.980 . S
C318 H345 0.983 . S
C319 C320 1.391 . S
C319 C324 1.391 . S
C319 H349 0.948 . S
C320 C319 1.391 . S
C320 C321 1.391 . S
C321 C320 1.391 . S
C321 C322 1.392 . S
C321 H350 0.947 . S
C322 C321 1.392 . S
C322 C323 1.419 . S
C322 H351 0.948 . S
C323 C322 1.419 . S
C323 C324 1.391 . S
C323 C327 1.397 . S
C324 C319 1.391 . S
C324 C323 1.391 . S
C324 C325 1.399 . S
C325 C324 1.399 . S
C325 C326 1.396 . S
C325 C328 1.453 . S
C325 C329 1.684 . S
C326 C307 1.723 . S
C326 C325 1.396 . S
C326 C327 1.394 . S
C327 C323 1.397 . S
C327 C326 1.394 . S
C327 C337 1.723 . S
C328 C325 1.453 . S
C328 H352 0.982 . S
C328 H353 0.979 . S
C328 H354 0.977 . S
C329 C325 1.684 . S
C329 H355 0.979 . S
C329 H356 0.980 . S
C329 H357 0.983 . S
C330 H306 0.948 . S
C330 C331 1.391 . S
C330 C335 1.391 . S
C331 C330 1.391 . S
C331 C332 1.391 . S
C332 H309 0.947 . S
C332 C331 1.391 . S
C332 C333 1.392 . S
C333 H310 0.948 . S
C333 C332 1.392 . S
C333 C334 1.419 . S
C334 C333 1.419 . S
C334 C335 1.391 . S
C334 C338 1.397 . S
C335 C330 1.391 . S
C335 C334 1.391 . S
C335 C336 1.399 . S
C336 C335 1.399 . S
C336 C337 1.396 . S
C336 C339 1.453 . S
C336 C340 1.684 . S
C337 C327 1.723 . S
C337 C336 1.396 . S
C337 C338 1.394 . S
C338 C308 1.723 . S
C338 C334 1.397 . S
C338 C337 1.394 . S
C339 H311 0.982 . S
C339 H315 0.979 . S
C339 H316 0.977 . S
C339 C336 1.453 . S
C340 H312 0.979 . S
C340 H313 0.980 . S
C340 H314 0.983 . S
C340 C336 1.684 . S
H341 C359 0.948 . S
H342 C300 0.948 . S
H343 C318 0.979 . S
H344 C318 0.980 . S
H345 C318 0.983 . S
H346 C317 0.982 . S
H347 C317 0.979 . S
H348 C317 0.977 . S
H349 C319 0.948 . S
H350 C321 0.947 . S
H351 C322 0.948 . S
H352 C328 0.982 . S
H353 C328 0.979 . S
H354 C328 0.977 . S
H355 C329 0.979 . S
H356 C329 0.980 . S
H357 C329 0.983 . S
H358 C302 0.947 . S
C359 C302 1.392 . S
C359 C303 1.419 . S
C359 H341 0.948 . S
C360 C361 1.391 . S
C360 C364 1.391 . S
C360 H402 0.948 . S
C361 C360 1.391 . S
C361 C362 1.391 . S
C362 C361 1.391 . S
C362 H418 0.947 . S
C362 C419 1.392 . S
C363 C364 1.391 . S
C363 C367 1.397 . S
C363 C419 1.419 . S
C364 C360 1.391 . S
C364 C363 1.391 . S
C364 C365 1.399 . S
C365 C364 1.399 . S
C365 C368 1.396 . S
C365 C377 1.453 . S
C365 C378 1.684 . S
H366 C390 0.948 . S
C367 C363 1.397 . S
C367 C368 1.394 . S
C367 C386 1.723 . S
C368 C365 1.396 . S
C368 C367 1.394 . S
C368 C398 1.723 . S
H369 C392 0.947 . S
H370 C393 0.948 . S
H371 C399 0.982 . S
H372 C400 0.979 . S
H373 C400 0.980 . S
H374 C400 0.983 . S
H375 C399 0.979 . S
H376 C399 0.977 . S
C377 C365 1.453 . S
C377 H406 0.982 . S
C377 H407 0.979 . S
C377 H408 0.977 . S
C378 C365 1.684 . S
C378 H403 0.979 . S
C378 H404 0.980 . S
C378 H405 0.983 . S
C379 C380 1.391 . S
C379 C384 1.391 . S
C379 H409 0.948 . S
C380 C379 1.391 . S
C380 C381 1.391 . S
C381 C380 1.391 . S
C381 C382 1.392 . S
C381 H410 0.947 . S
C382 C381 1.392 . S
C382 C383 1.419 . S
C382 H411 0.948 . S
C383 C382 1.419 . S
C383 C384 1.391 . S
C383 C387 1.397 . S
C384 C379 1.391 . S
C384 C383 1.391 . S
C384 C385 1.399 . S
C385 C384 1.399 . S
C385 C386 1.396 . S
C385 C388 1.453 . S
C385 C389 1.684 . S
C386 C367 1.723 . S
C386 C385 1.396 . S
C386 C387 1.394 . S
C387 C383 1.397 . S
C387 C386 1.394 . S
C387 C397 1.723 . S
C388 C385 1.453 . S
C388 H412 0.982 . S
C388 H413 0.979 . S
C388 H414 0.977 . S
C389 C385 1.684 . S
C389 H415 0.979 . S
C389 H416 0.980 . S
C389 H417 0.983 . S
C390 H366 0.948 . S
C390 C391 1.391 . S
C390 C395 1.391 . S
C391 C390 1.391 . S
C391 C392 1.391 . S
C392 H369 0.947 . S
C392 C391 1.391 . S
C392 C393 1.392 . S
C393 H370 0.948 . S
C393 C392 1.392 . S
C393 C394 1.419 . S
C394 C393 1.419 . S
C394 C395 1.391 . S
C394 C398 1.397 . S
C395 C390 1.391 . S
C395 C394 1.391 . S
C395 C396 1.399 . S
C396 C395 1.399 . S
C396 C397 1.396 . S
C396 C399 1.453 . S
C396 C400 1.684 . S
C397 C387 1.723 . S
C397 C396 1.396 . S
C397 C398 1.394 . S
C398 C368 1.723 . S
C398 C394 1.397 . S
C398 C397 1.394 . S
C399 H371 0.982 . S
C399 H375 0.979 . S
C399 H376 0.977 . S
C399 C396 1.453 . S
C400 H372 0.979 . S
C400 H373 0.980 . S
C400 H374 0.983 . S
C400 C396 1.684 . S
H401 C419 0.948 . S
H402 C360 0.948 . S
H403 C378 0.979 . S
H404 C378 0.980 . S
H405 C378 0.983 . S
H406 C377 0.982 . S
H407 C377 0.979 . S
H408 C377 0.977 . S
H409 C379 0.948 . S
H410 C381 0.947 . S
H411 C382 0.948 . S
H412 C388 0.982 . S
H413 C388 0.979 . S
H414 C388 0.977 . S
H415 C389 0.979 . S
H416 C389 0.980 . S
H417 C389 0.983 . S
H418 C362 0.947 . S
C419 C362 1.392 . S
C419 C363 1.419 . S
C419 H401 0.948 . S
C420 C421 1.391 . S
C420 C424 1.391 . S
C420 H462 0.948 . S
C421 C420 1.391 . S
C421 C422 1.391 . S
C422 C421 1.391 . S
C422 H478 0.947 . S
C422 C479 1.392 . S
C423 C424 1.391 . S
C423 C427 1.397 . S
C423 C479 1.419 . S
C424 C420 1.391 . S
C424 C423 1.391 . S
C424 C425 1.399 . S
C425 C424 1.399 . S
C425 C428 1.396 . S
C425 C437 1.453 . S
C425 C438 1.684 . S
H426 C450 0.948 . S
C427 C423 1.397 . S
C427 C428 1.394 . S
C427 C446 1.723 . S
C428 C425 1.396 . S
C428 C427 1.394 . S
C428 C458 1.723 . S
H429 C452 0.947 . S
H430 C453 0.948 . S
H431 C459 0.982 . S
H432 C460 0.979 . S
H433 C460 0.980 . S
H434 C460 0.983 . S
H435 C459 0.979 . S
H436 C459 0.977 . S
C437 C425 1.453 . S
C437 H466 0.982 . S
C437 H467 0.979 . S
C437 H468 0.977 . S
C438 C425 1.684 . S
C438 H463 0.979 . S
C438 H464 0.980 . S
C438 H465 0.983 . S
C439 C440 1.391 . S
C439 C444 1.391 . S
C439 H469 0.948 . S
C440 C439 1.391 . S
C440 C441 1.391 . S
C441 C440 1.391 . S
C441 C442 1.392 . S
C441 H470 0.947 . S
C442 C441 1.392 . S
C442 C443 1.419 . S
C442 H471 0.948 . S
C443 C442 1.419 . S
C443 C444 1.391 . S
C443 C447 1.397 . S
C444 C439 1.391 . S
C444 C443 1.391 . S
C444 C445 1.399 . S
C445 C444 1.399 . S
C445 C446 1.396 . S
C445 C448 1.453 . S
C445 C449 1.684 . S
C446 C427 1.723 . S
C446 C445 1.396 . S
C446 C447 1.394 . S
C447 C443 1.397 . S
C447 C446 1.394 . S
C447 C457 1.723 . S
C448 C445 1.453 . S
C448 H472 0.982 . S
C448 H473 0.979 . S
C448 H474 0.977 . S
C449 C445 1.684 . S
C449 H475 0.979 . S
C449 H476 0.980 . S
C449 H477 0.983 . S
C450 H426 0.948 . S
C450 C451 1.391 . S
C450 C455 1.391 . S
C451 C450 1.391 . S
C451 C452 1.391 . S
C452 H429 0.947 . S
C452 C451 1.391 . S
C452 C453 1.392 . S
C453 H430 0.948 . S
C453 C452 1.392 . S
C453 C454 1.419 . S
C454 C453 1.419 . S
C454 C455 1.391 . S
C454 C458 1.397 . S
C455 C450 1.391 . S
C455 C454 1.391 . S
C455 C456 1.399 . S
C456 C455 1.399 . S
C456 C457 1.396 . S
C456 C459 1.453 . S
C456 C460 1.684 . S
C457 C447 1.723 . S
C457 C456 1.396 . S
C457 C458 1.394 . S
C458 C428 1.723 . S
C458 C454 1.397 . S
C458 C457 1.394 . S
C459 H431 0.982 . S
C459 H435 0.979 . S
C459 H436 0.977 . S
C459 C456 1.453 . S
C460 H432 0.979 . S
C460 H433 0.980 . S
C460 H434 0.983 . S
C460 C456 1.684 . S
H461 C479 0.948 . S
H462 C420 0.948 . S
H463 C438 0.979 . S
H464 C438 0.980 . S
H465 C438 0.983 . S
H466 C437 0.982 . S
H467 C437 0.979 . S
H468 C437 0.977 . S
H469 C439 0.948 . S
H470 C441 0.947 . S
H471 C442 0.948 . S
H472 C448 0.982 . S
H473 C448 0.979 . S
H474 C448 0.977 . S
H475 C449 0.979 . S
H476 C449 0.980 . S
H477 C449 0.983 . S
H478 C422 0.947 . S
C479 C422 1.392 . S
C479 C423 1.419 . S
C479 H461 0.948 . S
C480 C481 1.391 . S
C480 C484 1.391 . S
C480 H522 0.948 . S
C481 C480 1.391 . S
C481 C482 1.391 . S
C482 C481 1.391 . S
C482 H538 0.947 . S
C482 C539 1.392 . S
C483 C484 1.391 . S
C483 C487 1.397 . S
C483 C539 1.419 . S
C484 C480 1.391 . S
C484 C483 1.391 . S
C484 C485 1.399 . S
C485 C484 1.399 . S
C485 C488 1.396 . S
C485 C497 1.453 . S
C485 C498 1.684 . S
H486 C510 0.948 . S
C487 C483 1.397 . S
C487 C488 1.394 . S
C487 C506 1.723 . S
C488 C485 1.396 . S
C488 C487 1.394 . S
C488 C518 1.723 . S
H489 C512 0.947 . S
H490 C513 0.948 . S
H491 C519 0.982 . S
H492 C520 0.979 . S
H493 C520 0.980 . S
H494 C520 0.983 . S
H495 C519 0.979 . S
H496 C519 0.977 . S
C497 C485 1.453 . S
C497 H526 0.982 . S
C497 H527 0.979 . S
C497 H528 0.977 . S
C498 C485 1.684 . S
C498 H523 0.979 . S
C498 H524 0.980 . S
C498 H525 0.983 . S
C499 C500 1.391 . S
C499 C504 1.391 . S
C499 H529 0.948 . S
C500 C499 1.391 . S
C500 C501 1.391 . S
C501 C500 1.391 . S
C501 C502 1.392 . S
C501 H530 0.947 . S
C502 C501 1.392 . S
C502 C503 1.419 . S
C502 H531 0.948 . S
C503 C502 1.419 . S
C503 C504 1.391 . S
C503 C507 1.397 . S
C504 C499 1.391 . S
C504 C503 1.391 . S
C504 C505 1.399 . S
C505 C504 1.399 . S
C505 C506 1.396 . S
C505 C508 1.453 . S
C505 C509 1.684 . S
C506 C487 1.723 . S
C506 C505 1.396 . S
C506 C507 1.394 . S
C507 C503 1.397 . S
C507 C506 1.394 . S
C507 C517 1.723 . S
C508 C505 1.453 . S
C508 H532 0.982 . S
C508 H533 0.979 . S
C508 H534 0.977 . S
C509 C505 1.684 . S
C509 H535 0.979 . S
C509 H536 0.980 . S
C509 H537 0.983 . S
C510 H486 0.948 . S
C510 C511 1.391 . S
C510 C515 1.391 . S
C511 C510 1.391 . S
C511 C512 1.391 . S
C512 H489 0.947 . S
C512 C511 1.391 . S
C512 C513 1.392 . S
C513 H490 0.948 . S
C513 C512 1.392 . S
C513 C514 1.419 . S
C514 C513 1.419 . S
C514 C515 1.391 . S
C514 C518 1.397 . S
C515 C510 1.391 . S
C515 C514 1.391 . S
C515 C516 1.399 . S
C516 C515 1.399 . S
C516 C517 1.396 . S
C516 C519 1.453 . S
C516 C520 1.684 . S
C517 C507 1.723 . S
C517 C516 1.396 . S
C517 C518 1.394 . S
C518 C488 1.723 . S
C518 C514 1.397 . S
C518 C517 1.394 . S
C519 H491 0.982 . S
C519 H495 0.979 . S
C519 H496 0.977 . S
C519 C516 1.453 . S
C520 H492 0.979 . S
C520 H493 0.980 . S
C520 H494 0.983 . S
C520 C516 1.684 . S
H521 C539 0.948 . S
H522 C480 0.948 . S
H523 C498 0.979 . S
H524 C498 0.980 . S
H525 C498 0.983 . S
H526 C497 0.982 . S
H527 C497 0.979 . S
H528 C497 0.977 . S
H529 C499 0.948 . S
H530 C501 0.947 . S
H531 C502 0.948 . S
H532 C508 0.982 . S
H533 C508 0.979 . S
H534 C508 0.977 . S
H535 C509 0.979 . S
H536 C509 0.980 . S
H537 C509 0.983 . S
H538 C482 0.947 . S
C539 C482 1.392 . S
C539 C483 1.419 . S
C539 H521 0.948 . S
C540 C541 1.391 . S
C540 C544 1.391 . S
C540 H582 0.948 . S
C541 C540 1.391 . S
C541 C542 1.391 . S
C542 C541 1.391 . S
C542 H598 0.947 . S
C542 C599 1.392 . S
C543 C544 1.391 . S
C543 C547 1.397 . S
C543 C599 1.419 . S
C544 C540 1.391 . S
C544 C543 1.391 . S
C544 C545 1.399 . S
C545 C544 1.399 . S
C545 C548 1.396 . S
C545 C557 1.453 . S
C545 C558 1.684 . S
H546 C570 0.948 . S
C547 C543 1.397 . S
C547 C548 1.394 . S
C547 C566 1.723 . S
C548 C545 1.396 . S
C548 C547 1.394 . S
C548 C578 1.723 . S
H549 C572 0.947 . S
H550 C573 0.948 . S
H551 C579 0.982 . S
H552 C580 0.979 . S
H553 C580 0.980 . S
H554 C580 0.983 . S
H555 C579 0.979 . S
H556 C579 0.977 . S
C557 C545 1.453 . S
C557 H586 0.982 . S
C557 H587 0.979 . S
C557 H588 0.977 . S
C558 C545 1.684 . S
C558 H583 0.979 . S
C558 H584 0.980 . S
C558 H585 0.983 . S
C559 C560 1.391 . S
C559 C564 1.391 . S
C559 H589 0.948 . S
C560 C559 1.391 . S
C560 C561 1.391 . S
C561 C560 1.391 . S
C561 C562 1.392 . S
C561 H590 0.947 . S
C562 C561 1.392 . S
C562 C563 1.419 . S
C562 H591 0.948 . S
C563 C562 1.419 . S
C563 C564 1.391 . S
C563 C567 1.397 . S
C564 C559 1.391 . S
C564 C563 1.391 . S
C564 C565 1.399 . S
C565 C564 1.399 . S
C565 C566 1.396 . S
C565 C568 1.453 . S
C565 C569 1.684 . S
C566 C547 1.723 . S
C566 C565 1.396 . S
C566 C567 1.394 . S
C567 C563 1.397 . S
C567 C566 1.394 . S
C567 C577 1.723 . S
C568 C565 1.453 . S
C568 H592 0.982 . S
C568 H593 0.979 . S
C568 H594 0.977 . S
C569 C565 1.684 . S
C569 H595 0.979 . S
C569 H596 0.980 . S
C569 H597 0.983 . S
C570 H546 0.948 . S
C570 C571 1.391 . S
C570 C575 1.391 . S
C571 C570 1.391 . S
C571 C572 1.391 . S
C572 H549 0.947 . S
C572 C571 1.391 . S
C572 C573 1.392 . S
C573 H550 0.948 . S
C573 C572 1.392 . S
C573 C574 1.419 . S
C574 C573 1.419 . S
C574 C575 1.391 . S
C574 C578 1.397 . S
C575 C570 1.391 . S
C575 C574 1.391 . S
C575 C576 1.399 . S
C576 C575 1.399 . S
C576 C577 1.396 . S
C576 C579 1.453 . S
C576 C580 1.684 . S
C577 C567 1.723 . S
C577 C576 1.396 . S
C577 C578 1.394 . S
C578 C548 1.723 . S
C578 C574 1.397 . S
C578 C577 1.394 . S
C579 H551 0.982 . S
C579 H555 0.979 . S
C579 H556 0.977 . S
C579 C576 1.453 . S
C580 H552 0.979 . S
C580 H553 0.980 . S
C580 H554 0.983 . S
C580 C576 1.684 . S
H581 C599 0.948 . S
H582 C540 0.948 . S
H583 C558 0.979 . S
H584 C558 0.980 . S
H585 C558 0.983 . S
H586 C557 0.982 . S
H587 C557 0.979 . S
H588 C557 0.977 . S
H589 C559 0.948 . S
H590 C561 0.947 . S
H591 C562 0.948 . S
H592 C568 0.982 . S
H593 C568 0.979 . S
H594 C568 0.977 . S
H595 C569 0.979 . S
H596 C569 0.980 . S
H597 C569 0.983 . S
H598 C542 0.947 . S
C599 C542 1.392 . S
C599 C543 1.419 . S
C599 H581 0.948 . S
C600 C601 1.391 . S
C600 C604 1.391 . S
C600 H642 0.948 . S
C601 C600 1.391 . S
C601 C602 1.391 . S
C602 C601 1.391 . S
C602 H658 0.947 . S
C602 C659 1.392 . S
C603 C604 1.391 . S
C603 C607 1.397 . S
C603 C659 1.419 . S
C604 C600 1.391 . S
C604 C603 1.391 . S
C604 C605 1.399 . S
C605 C604 1.399 . S
C605 C608 1.396 . S
C605 C617 1.453 . S
C605 C618 1.684 . S
H606 C630 0.948 . S
C607 C603 1.397 . S
C607 C608 1.394 . S
C607 C626 1.723 . S
C608 C605 1.396 . S
C608 C607 1.394 . S
C608 C638 1.723 . S
H609 C632 0.947 . S
H610 C633 0.948 . S
H611 C639 0.982 . S
H612 C640 0.979 . S
H613 C640 0.980 . S
H614 C640 0.983 . S
H615 C639 0.979 . S
H616 C639 0.977 . S
C617 C605 1.453 . S
C617 H646 0.982 . S
C617 H647 0.979 . S
C617 H648 0.977 . S
C618 C605 1.684 . S
C618 H643 0.979 . S
C618 H644 0.980 . S
C618 H645 0.983 . S
C619 C620 1.391 . S
C619 C624 1.391 . S
C619 H649 0.948 . S
C620 C619 1.391 . S
C620 C621 1.391 . S
C621 C620 1.391 . S
C621 C622 1.392 . S
C621 H650 0.947 . S
C622 C621 1.392 . S
C622 C623 1.419 . S
C622 H651 0.948 . S
C623 C622 1.419 . S
C623 C624 1.391 . S
C623 C627 1.397 . S
C624 C619 1.391 . S
C624 C623 1.391 . S
C624 C625 1.399 . S
C625 C624 1.399 . S
C625 C626 1.396 . S
C625 C628 1.453 . S
C625 C629 1.684 . S
C626 C607 1.723 . S
C626 C625 1.396 . S
C626 C627 1.394 . S
C627 C623 1.397 . S
C627 C626 1.394 . S
C627 C637 1.723 . S
C628 C625 1.453 . S
C628 H652 0.982 . S
C628 H653 0.979 . S
C628 H654 0.977 . S
C629 C625 1.684 . S
C629 H655 0.979 . S
C629 H656 0.980 . S
C629 H657 0.983 . S
C630 H606 0.948 . S
C630 C631 1.391 . S
C630 C635 1.391 . S
C631 C630 1.391 . S
C631 C632 1.391 . S
C632 H609 0.947 . S
C632 C631 1.391 . S
C632 C633 1.392 . S
C633 H610 0.948 . S
C633 C632 1.392 . S
C633 C634 1.419 . S
C634 C633 1.419 . S
C634 C635 1.391 . S
C634 C638 1.397 . S
C635 C630 1.391 . S
C635 C634 1.391 . S
C635 C636 1.399 . S
C636 C635 1.399 . S
C636 C637 1.396 . S
C636 C639 1.453 . S
C636 C640 1.684 . S
C637 C627 1.723 . S
C637 C636 1.396 . S
C637 C638 1.394 . S
C638 C608 1.723 . S
C638 C634 1.397 . S
C638 C637 1.394 . S
C639 H611 0.982 . S
C639 H615 0.979 . S
C639 H616 0.977 . S
C639 C636 1.453 . S
C640 H612 0.979 . S
C640 H613 0.980 . S
C640 H614 0.983 . S
C640 C636 1.684 . S
H641 C659 0.948 . S
H642 C600 0.948 . S
H643 C618 0.979 . S
H644 C618 0.980 . S
H645 C618 0.983 . S
H646 C617 0.982 . S
H647 C617 0.979 . S
H648 C617 0.977 . S
H649 C619 0.948 . S
H650 C621 0.947 . S
H651 C622 0.948 . S
H652 C628 0.982 . S
H653 C628 0.979 . S
H654 C628 0.977 . S
H655 C629 0.979 . S
H656 C629 0.980 . S
H657 C629 0.983 . S
H658 C602 0.947 . S
C659 C602 1.392 . S
C659 C603 1.419 . S
C659 H641 0.948 . S
C660 C661 1.391 . S
C660 C664 1.391 . S
C660 H702 0.948 . S
C661 C660 1.391 . S
C661 C662 1.391 . S
C662 C661 1.391 . S
C662 H718 0.947 . S
C662 C719 1.392 . S
C663 C664 1.391 . S
C663 C667 1.397 . S
C663 C719 1.419 . S
C664 C660 1.391 . S
C664 C663 1.391 . S
C664 C665 1.399 . S
C665 C664 1.399 . S
C665 C668 1.396 . S
C665 C677 1.453 . S
C665 C678 1.684 . S
H666 C690 0.948 . S
C667 C663 1.397 . S
C667 C668 1.394 . S
C667 C686 1.723 . S
C668 C665 1.396 . S
C668 C667 1.394 . S
C668 C698 1.723 . S
H669 C692 0.947 . S
H670 C693 0.948 . S
H671 C699 0.982 . S
H672 C700 0.979 . S
H673 C700 0.980 . S
H674 C700 0.983 . S
H675 C699 0.979 . S
H676 C699 0.977 . S
C677 C665 1.453 . S
C677 H706 0.982 . S
C677 H707 0.979 . S
C677 H708 0.977 . S
C678 C665 1.684 . S
C678 H703 0.979 . S
C678 H704 0.980 . S
C678 H705 0.983 . S
C679 C680 1.391 . S
C679 C684 1.391 . S
C679 H709 0.948 . S
C680 C679 1.391 . S
C680 C681 1.391 . S
C681 C680 1.391 . S
C681 C682 1.392 . S
C681 H710 0.947 . S
C682 C681 1.392 . S
C682 C683 1.419 . S
C682 H711 0.948 . S
C683 C682 1.419 . S
C683 C684 1.391 . S
C683 C687 1.397 . S
C684 C679 1.391 . S
C684 C683 1.391 . S
C684 C685 1.399 . S
C685 C684 1.399 . S
C685 C686 1.396 . S
C685 C688 1.453 . S
C685 C689 1.684 . S
C686 C667 1.723 . S
C686 C685 1.396 . S
C686 C687 1.394 . S
C687 C683 1.397 . S
C687 C686 1.394 . S
C687 C697 1.723 . S
C688 C685 1.453 . S
C688 H712 0.982 . S
C688 H713 0.979 . S
C688 H714 0.977 . S
C689 C685 1.684 . S
C689 H715 0.979 . S
C689 H716 0.980 . S
C689 H717 0.983 . S
C690 H666 0.948 . S
C690 C691 1.391 . S
C690 C695 1.391 . S
C691 C690 1.391 . S
C691 C692 1.391 . S
C692 H669 0.947 . S
C692 C691 1.391 . S
C692 C693 1.392 . S
C693 H670 0.948 . S
C693 C692 1.392 . S
C693 C694 1.419 . S
C694 C693 1.419 . S
C694 C695 1.391 . S
C694 C698 1.397 . S
C695 C690 1.391 . S
C695 C694 1.391 . S
C695 C696 1.399 . S
C696 C695 1.399 . S
C696 C697 1.396 . S
C696 C699 1.453 . S
C696 C700 1.684 . S
C697 C687 1.723 . S
C697 C696 1.396 . S
C697 C698 1.394 . S
C698 C668 1.723 . S
C698 C694 1.397 . S
C698 C697 1.394 . S
C699 H671 0.982 . S
C699 H675 0.979 . S
C699 H676 0.977 . S
C699 C696 1.453 . S
C700 H672 0.979 . S
C700 H673 0.980 . S
C700 H674 0.983 . S
C700 C696 1.684 . S
H701 C719 0.948 . S
H702 C660 0.948 . S
H703 C678 0.979 . S
H704 C678 0.980 . S
H705 C678 0.983 . S
H706 C677 0.982 . S
H707 C677 0.979 . S
H708 C677 0.977 . S
H709 C679 0.948 . S
H710 C681 0.947 . S
H711 C682 0.948 . S
H712 C688 0.982 . S
H713 C688 0.979 . S
H714 C688 0.977 . S
H715 C689 0.979 . S
H716 C689 0.980 . S
H717 C689 0.983 . S
H718 C662 0.947 . S
C719 C662 1.392 . S
C719 C663 1.419 . S
C719 H701 0.948 . S
C720 C721 1.391 . S
C720 C724 1.391 . S
C720 H762 0.948 . S
C721 C720 1.391 . S
C721 C722 1.391 . S
C722 C721 1.391 . S
C722 H778 0.947 . S
C722 C779 1.392 . S
C723 C724 1.391 . S
C723 C727 1.397 . S
C723 C779 1.419 . S
C724 C720 1.391 . S
C724 C723 1.391 . S
C724 C725 1.399 . S
C725 C724 1.399 . S
C725 C728 1.396 . S
C725 C737 1.453 . S
C725 C738 1.684 . S
H726 C750 0.948 . S
C727 C723 1.397 . S
C727 C728 1.394 . S
C727 C746 1.723 . S
C728 C725 1.396 . S
C728 C727 1.394 . S
C728 C758 1.723 . S
H729 C752 0.947 . S
H730 C753 0.948 . S
H731 C759 0.982 . S
H732 C760 0.979 . S
H733 C760 0.980 . S
H734 C760 0.983 . S
H735 C759 0.979 . S
H736 C759 0.977 . S
C737 C725 1.453 . S
C737 H766 0.982 . S
C737 H767 0.979 . S
C737 H768 0.977 . S
C738 C725 1.684 . S
C738 H763 0.979 . S
C738 H764 0.980 . S
C738 H765 0.983 . S
C739 C740 1.391 . S
C739 C744 1.391 . S
C739 H769 0.948 . S
C740 C739 1.391 . S
C740 C741 1.391 . S
C741 C740 1.391 . S
C741 C742 1.392 . S
C741 H770 0.947 . S
C742 C741 1.392 . S
C742 C743 1.419 . S
C742 H771 0.948 . S
C743 C742 1.419 . S
C743 C744 1.391 . S
C743 C747 1.397 . S
C744 C739 1.391 . S
C744 C743 1.391 . S
C744 C745 1.399 . S
C745 C744 1.399 . S
C745 C746 1.396 . S
C745 C748 1.453 . S
C745 C749 1.684 . S
C746 C727 1.723 . S
C746 C745 1.396 . S
C746 C747 1.394 . S
C747 C743 1.397 . S
C747 C746 1.394 . S
C747 C757 1.723 . S
C748 C745 1.453 . S
C748 H772 0.982 . S
C748 H773 0.979 . S
C748 H774 0.977 . S
C749 C745 1.684 . S
C749 H775 0.979 . S
C749 H776 0.980 . S
C749 H777 0.983 . S
C750 H726 0.948 . S
C750 C751 1.391 . S
C750 C755 1.391 . S
C751 C750 1.391 . S
C751 C752 1.391 . S
C752 H729 0.947 . S
C752 C751 1.391 . S
C752 C753 1.392 . S
C753 H730 0.948 . S
C753 C752 1.392 . S
C753 C754 1.419 . S
C754 C753 1.419 . S
C754 C755 1.391 . S
C754 C758 1.397 . S
C755 C750 1.391 . S
C755 C754 1.391 . S
C755 C756 1.399 . S
C756 C755 1.399 . S
C756 C757 1.396 . S
C756 C759 1.453 . S
C756 C760 1.684 . S
C757 C747 1.723 . S
C757 C756 1.396 . S
C757 C758 1.394 . S
C758 C728 1.723 . S
C758 C754 1.397 . S
C758 C757 1.394 . S
C759 H731 0.982 . S
C759 H735 0.979 . S
C759 H736 0.977 . S
C759 C756 1.453 . S
C760 H732 0.979 . S
C760 H733 0.980 . S
C760 H734 0.983 . S
C760 C756 1.684 . S
H761 C779 0.948 . S
H762 C720 0.948 . S
H763 C738 0.979 . S
H764 C738 0.980 . S
H765 C738 0.983 . S
H766 C737 0.982 . S
H767 C737 0.979 . S
H768 C737 0.977 . S
H769 C739 0.948 . S
H770 C741 0.947 . S
H771 C742 0.948 . S
H772 C748 0.982 . S
H773 C748 0.979 . S
H774 C748 0.977 . S
H775 C749 0.979 . S
H776 C749 0.980 . S
H777 C749 0.983 . S
H778 C722 0.947 . S
C779 C722 1.392 . S
C779 C723 1.419 . S
C779 H761 0.948 . S
C780 C781 1.391 . S
C780 C784 1.391 . S
C780 H822 0.948 . S
C781 C780 1.391 . S
C781 C782 1.391 . S
C782 C781 1.391 . S
C782 H838 0.947 . S
C782 C839 1.392 . S
C783 C784 1.391 . S
C783 C787 1.397 . S
C783 C839 1.419 . S
C784 C780 1.391 . S
C784 C783 1.391 . S
C784 C785 1.399 . S
C785 C784 1.399 . S
C785 C788 1.396 . S
C785 C797 1.453 . S
C785 C798 1.684 . S
H786 C810 0.948 . S
C787 C783 1.397 . S
C787 C788 1.394 . S
C787 C806 1.723 . S
C788 C785 1.396 . S
C788 C787 1.394 . S
C788 C818 1.723 . S
H789 C812 0.947 . S
H790 C813 0.948 . S
H791 C819 0.982 . S
H792 C820 0.979 . S
H793 C820 0.980 . S
H794 C820 0.983 . S
H795 C819 0.979 . S
H796 C819 0.977 . S
C797 C785 1.453 . S
C797 H826 0.982 . S
C797 H827 0.979 . S
C797 H828 0.977 . S
C798 C785 1.684 . S
C798 H823 0.979 . S
C798 H824 0.980 . S
C798 H825 0.983 . S
C799 C800 1.391 . S
C799 C804 1.391 . S
C799 H829 0.948 . S
C800 C799 1.391 . S
C800 C801 1.391 . S
C801 C800 1.391 . S
C801 C802 1.392 . S
C801 H830 0.947 . S
C802 C801 1.392 . S
C802 C803 1.419 . S
C802 H831 0.948 . S
C803 C802 1.419 . S
C803 C804 1.391 . S
C803 C807 1.397 . S
C804 C799 1.391 . S
C804 C803 1.391 . S
C804 C805 1.399 . S
C805 C804 1.399 . S
C805 C806 1.396 . S
C805 C808 1.453 . S
C805 C809 1.684 . S
C806 C787 1.723 . S
C806 C805 1.396 . S
C806 C807 1.394 . S
C807 C803 1.397 . S
C807 C806 1.394 . S
C807 C817 1.723 . S
C808 C805 1.453 . S
C808 H832 0.982 . S
C808 H833 0.979 . S
C808 H834 0.977 . S
C809 C805 1.684 . S
C809 H835 0.979 . S
C809 H836 0.980 . S
C809 H837 0.983 . S
C810 H786 0.948 . S
C810 C811 1.391 . S
C810 C815 1.391 . S
C811 C810 1.391 . S
C811 C812 1.391 . S
C812 H789 0.947 . S
C812 C811 1.391 . S
C812 C813 1.392 . S
C813 H790 0.948 . S
C813 C812 1.392 . S
C813 C814 1.419 . S
C814 C813 1.419 . S
C814 C815 1.391 . S
C814 C818 1.397 . S
C815 C810 1.391 . S
C815 C814 1.391 . S
C815 C816 1.399 . S
C816 C815 1.399 . S
C816 C817 1.396 . S
C816 C819 1.453 . S
C816 C820 1.684 . S
C817 C807 1.723 . S
C817 C816 1.396 . S
C817 C818 1.394 . S
C818 C788 1.723 . S
C818 C814 1.397 . S
C818 C817 1.394 . S
C819 H791 0.982 . S
C819 H795 0.979 . S
C819 H796 0.977 . S
C819 C816 1.453 . S
C820 H792 0.979 . S
C820 H793 0.980 . S
C820 H794 0.983 . S
C820 C816 1.684 . S
H821 C839 0.948 . S
H822 C780 0.948 . S
H823 C798 0.979 . S
H824 C798 0.980 . S
H825 C798 0.983 . S
H826 C797 0.982 . S
H827 C797 0.979 . S
H828 C797 0.977 . S
H829 C799 0.948 . S
H830 C801 0.947 . S
H831 C802 0.948 . S
H832 C808 0.982 . S
H833 C808 0.979 . S
H834 C808 0.977 . S
H835 C809 0.979 . S
H836 C809 0.980 . S
H837 C809 0.983 . S
H838 C782 0.947 . S
C839 C782 1.392 . S
C839 C783 1.419 . S
C839 H821 0.948 . S
C840 C841 1.391 . S
C840 C844 1.391 . S
C840 H882 0.948 . S
C841 C840 1.391 . S
C841 C842 1.391 . S
C842 C841 1.391 . S
C842 H898 0.947 . S
C842 C899 1.392 . S
C843 C844 1.391 . S
C843 C847 1.397 . S
C843 C899 1.419 . S
C844 C840 1.391 . S
C844 C843 1.391 . S
C844 C845 1.399 . S
C845 C844 1.399 . S
C845 C848 1.396 . S
C845 C857 1.453 . S
C845 C858 1.684 . S
H846 C870 0.948 . S
C847 C843 1.397 . S
C847 C848 1.394 . S
C847 C866 1.723 . S
C848 C845 1.396 . S
C848 C847 1.394 . S
C848 C878 1.723 . S
H849 C872 0.947 . S
H850 C873 0.948 . S
H851 C879 0.982 . S
H852 C880 0.979 . S
H853 C880 0.980 . S
H854 C880 0.983 . S
H855 C879 0.979 . S
H856 C879 0.977 . S
C857 C845 1.453 . S
C857 H886 0.982 . S
C857 H887 0.979 . S
C857 H888 0.977 . S
C858 C845 1.684 . S
C858 H883 0.979 . S
C858 H884 0.980 . S
C858 H885 0.983 . S
C859 C860 1.391 . S
C859 C864 1.391 . S
C859 H889 0.948 . S
C860 C859 1.391 . S
C860 C861 1.391 . S
C861 C860 1.391 . S
C861 C862 1.392 . S
C861 H890 0.947 . S
C862 C861 1.392 . S
C862 C863 1.419 . S
C862 H891 0.948 . S
C863 C862 1.419 . S
C863 C864 1.391 . S
C863 C867 1.397 . S
C864 C859 1.391 . S
C864 C863 1.391 . S
C864 C865 1.399 . S
C865 C864 1.399 . S
C865 C866 1.396 . S
C865 C868 1.453 . S
C865 C869 1.684 . S
C866 C847 1.723 . S
C866 C865 1.396 . S
C866 C867 1.394 . S
C867 C863 1.397 . S
C867 C866 1.394 . S
C867 C877 1.723 . S
C868 C865 1.453 . S
C868 H892 0.982 . S
C868 H893 0.979 . S
C868 H894 0.977 . S
C869 C865 1.684 . S
C869 H895 0.979 . S
C869 H896 0.980 . S
C869 H897 0.983 . S
C870 H846 0.948 . S
C870 C871 1.391 . S
C870 C875 1.391 . S
C871 C870 1.391 . S
C871 C872 1.391 . S
C872 H849 0.947 . S
C872 C871 1.391 . S
C872 C873 1.392 . S
C873 H850 0.948 . S
C873 C872 1.392 . S
C873 C874 1.419 . S
C874 C873 1.419 . S
C874 C875 1.391 . S
C874 C878 1.397 . S
C875 C870 1.391 . S
C875 C874 1.391 . S
C875 C876 1.399 . S
C876 C875 1.399 . S
C876 C877 1.396 . S
C876 C879 1.453 . S
C876 C880 1.684 . S
C877 C867 1.723 . S
C877 C876 1.396 . S
C877 C878 1.394 . S
C878 C848 1.723 . S
C878 C874 1.397 . S
C878 C877 1.394 . S
C879 H851 0.982 . S
C879 H855 0.979 . S
C879 H856 0.977 . S
C879 C876 1.453 . S
C880 H852 0.979 . S
C880 H853 0.980 . S
C880 H854 0.983 . S
C880 C876 1.684 . S
H881 C899 0.948 . S
H882 C840 0.948 . S
H883 C858 0.979 . S
H884 C858 0.980 . S
H885 C858 0.983 . S
H886 C857 0.982 . S
H887 C857 0.979 . S
H888 C857 0.977 . S
H889 C859 0.948 . S
H890 C861 0.947 . S
H891 C862 0.948 . S
H892 C868 0.982 . S
H893 C868 0.979 . S
H894 C868 0.977 . S
H895 C869 0.979 . S
H896 C869 0.980 . S
H897 C869 0.983 . S
H898 C842 0.947 . S
C899 C842 1.392 . S
C899 C843 1.419 . S
C899 H881 0.948 . S
C900 C901 1.391 . S
C900 C904 1.391 . S
C900 H942 0.948 . S
C901 C900 1.391 . S
C901 C902 1.391 . S
C902 C901 1.391 . S
C902 H958 0.947 . S
C902 C959 1.392 . S
C903 C904 1.391 . S
C903 C907 1.397 . S
C903 C959 1.419 . S
C904 C900 1.391 . S
C904 C903 1.391 . S
C904 C905 1.399 . S
C905 C904 1.399 . S
C905 C908 1.396 . S
C905 C917 1.453 . S
C905 C918 1.684 . S
H906 C930 0.948 . S
C907 C903 1.397 . S
C907 C908 1.394 . S
C907 C926 1.723 . S
C908 C905 1.396 . S
C908 C907 1.394 . S
C908 C938 1.723 . S
H909 C932 0.947 . S
H910 C933 0.948 . S
H911 C939 0.982 . S
H912 C940 0.979 . S
H913 C940 0.980 . S
H914 C940 0.983 . S
H915 C939 0.979 . S
H916 C939 0.977 . S
C917 C905 1.453 . S
C917 H946 0.982 . S
C917 H947 0.979 . S
C917 H948 0.977 . S
C918 C905 1.684 . S
C918 H943 0.979 . S
C918 H944 0.980 . S
C918 H945 0.983 . S
C919 C920 1.391 . S
C919 C924 1.391 . S
C919 H949 0.948 . S
C920 C919 1.391 . S
C920 C921 1.391 . S
C921 C920 1.391 . S
C921 C922 1.392 . S
C921 H950 0.947 . S
C922 C921 1.392 . S
C922 C923 1.419 . S
C922 H951 0.948 . S
C923 C922 1.419 . S
C923 C924 1.391 . S
C923 C927 1.397 . S
C924 C919 1.391 . S
C924 C923 1.391 . S
C924 C925 1.399 . S
C925 C924 1.399 . S
C925 C926 1.396 . S
C925 C928 1.453 . S
C925 C929 1.684 . S
C926 C907 1.723 . S
C926 C925 1.396 . S
C926 C927 1.394 . S
C927 C923 1.397 . S
C927 C926 1.394 . S
C927 C937 1.723 . S
C928 C925 1.453 . S
C928 H952 0.982 . S
C928 H953 0.979 . S
C928 H954 0.977 . S
C929 C925 1.684 . S
C929 H955 0.979 . S
C929 H956 0.980 . S
C929 H957 0.983 . S
C930 H906 0.948 . S
C930 C931 1.391 . S
C930 C935 1.391 . S
C931 C930 1.391 . S
C931 C932 1.391 . S
C932 H909 0.947 . S
C932 C931 1.391 . S
C932 C933 1.392 . S
C933 H910 0.948 . S
C933 C932 1.392 . S
C933 C934 1.419 . S
C934 C933 1.419 . S
C934 C935 1.391 . S
C934 C938 1.397 . S
C935 C930 1.391 . S
C935 C934 1.391 . S
C935 C936 1.399 . S
C936 C935 1.399 . S
C936 C937 1.396 . S
C936 C939 1.453 . S
C936 C940 1.684 . S
C937 C927 1.723 . S
C937 C936 1.396 . S
C937 C938 1.394 . S
C938 C908 1.723 . S
C938 C934 1.397 . S
C938 C937 1.394 . S
C939 H911 0.982 . S
C939 H915 0.979 . S
C939 H916 0.977 . S
C939 C936 1.453 . S
C940 H912 0.979 . S
C940 H913 0.980 . S
C940 H914 0.983 . S
C940 C936 1.684 . S
H941 C959 0.948 . S
H942 C900 0.948 . S
H943 C918 0.979 . S
H944 C918 0.980 . S
H945 C918 0.983 . S
H946 C917 0.982 . S
H947 C917 0.979 . S
H948 C917 0.977 . S
H949 C919 0.948 . S
H950 C921 0.947 . S
H951 C922 0.948 . S
H952 C928 0.982 . S
H953 C928 0.979 . S
H954 C928 0.977 . S
H955 C929 0.979 . S
H956 C929 0.980 . S
H957 C929 0.983 . S
H958 C902 0.947 . S
C959 C902 1.392 . S
C959 C903 1.419 . S
C959 H941 0.948 . S
C960 C961 1.391 . S
C960 C964 1.391 . S
C960 H1002 0.948 . S
C961 C960 1.391 . S
C961 C962 1.391 . S
C962 C961 1.391 . S
C962 H1018 0.947 . S
C962 C1019 1.392 . S
C963 C964 1.391 . S
C963 C967 1.397 . S
C963 C1019 1.419 . S
C964 C960 1.391 . S
C964 C963 1.391 . S
C964 C965 1.399 . S
C965 C964 1.399 . S
C965 C968 1.396 . S
C965 C977 1.453 . S
C965 C978 1.684 . S
H966 C990 0.948 . S
C967 C963 1.397 . S
C967 C968 1.394 . S
C967 C986 1.723 . S
C968 C965 1.396 . S
C968 C967 1.394 . S
C968 C998 1.723 . S
H969 C992 0.947 . S
H970 C993 0.948 . S
H971 C999 0.982 . S
H972 C1000 0.979 . S
H973 C1000 0.980 . S
H974 C1000 0.983 . S
H975 C999 0.979 . S
H976 C999 0.977 . S
C977 C965 1.453 . S
C977 H1006 0.982 . S
C977 H1007 0.979 . S
C977 H1008 0.977 . S
C978 C965 1.684 . S
C978 H1003 0.979 . S
C978 H1004 0.980 . S
C978 H1005 0.983 . S
C979 C980 1.391 . S
C979 C984 1.391 . S
C979 H1009 0.948 . S
C980 C979 1.391 . S
C980 C981 1.391 . S
C981 C980 1.391 . S
C981 C982 1.392 . S
C981 H1010 0.947 . S
C982 C981 1.392 . S
C982 C983 1.419 . S
C982 H1011 0.948 . S
C983 C982 1.419 . S
C983 C984 1.391 . S
C983 C987 1.397 . S
C984 C979 1.391 . S
C984 C983 1.391 . S
C984 C985 1.399 . S
C985 C984 1.399 . S
C985 C986 1.396 . S
C985 C988 1.453 . S
C985 C989 1.684 . S
C986 C967 1.723 . S
C986 C985 1.396 . S
C986 C987 1.394 . S
C987 C983 1.397 . S
C987 C986 1.394 . S
C987 C997 1.723 . S
C988 C985 1.453 . S
C988 H1012 0.982 . S
C988 H1013 0.979 . S
C988 H1014 0.977 . S
C989 C985 1.684 . S
C989 H1015 0.979 . S
C989 H1016 0.980 . S
C989 H1017 0.983 . S
C990 H966 0.948 . S
C990 C991 1.391 . S
C990 C995 1.391 . S
C991 C990 1.391 . S
C991 C992 1.391 . S
C992 H969 0.947 . S
C992 C991 1.391 . S
C992 C993 1.392 . S
C993 H970 0.948 . S
C993 C992 1.392 . S
C993 C994 1.419 . S
C994 C993 1.419 . S
C994 C995 1.391 . S
C994 C998 1.397 . S
C995 C990 1.391 . S
C995 C994 1.391 . S
C995 C996 1.399 . S
C996 C995 1.399 . S
C996 C997 1.396 . S
C996 C999 1.453 . S
C996 C1000 1.684 . S
C997 C987 1.723 . S
C997 C996 1.396 . S
C997 C998 1.394 . S
C998 C968 1.723 . S
C998 C994 1.397 . S
C998 C997 1.394 . S
C999 H971 0.982 . S
C999 H975 0.979 . S
C999 H976 0.977 . S
C999 C996 1.453 . S
C1000 H972 0.979 . S
C1000 H973 0.980 . S
C1000 H974 0.983 . S
C1000 C996 1.684 . S
H1001 C1019 0.948 . S
H1002 C960 0.948 . S
H1003 C978 0.979 . S
H1004 C978 0.980 . S
H1005 C978 0.983 . S
H1006 C977 0.982 . S
H1007 C977 0.979 . S
H1008 C977 0.977 . S
H1009 C979 0.948 . S
H1010 C981 0.947 . S
H1011 C982 0.948 . S
H1012 C988 0.982 . S
H1013 C988 0.979 . S
H1014 C988 0.977 . S
H1015 C989 0.979 . S
H1016 C989 0.980 . S
H1017 C989 0.983 . S
H1018 C962 0.947 . S
C1019 C962 1.392 . S
C1019 C963 1.419 . S
C1019 H1001 0.948 . S
C1020 C1021 1.391 . S
C1020 C1024 1.391 . S
C1020 H1062 0.948 . S
C1021 C1020 1.391 . S
C1021 C1022 1.391 . S
C1022 C1021 1.391 . S
C1022 H1078 0.947 . S
C1022 C1079 1.392 . S
C1023 C1024 1.391 . S
C1023 C1027 1.397 . S
C1023 C1079 1.419 . S
C1024 C1020 1.391 . S
C1024 C1023 1.391 . S
C1024 C1025 1.399 . S
C1025 C1024 1.399 . S
C1025 C1028 1.396 . S
C1025 C1037 1.453 . S
C1025 C1038 1.684 . S
H1026 C1050 0.948 . S
C1027 C1023 1.397 . S
C1027 C1028 1.394 . S
C1027 C1046 1.723 . S
C1028 C1025 1.396 . S
C1028 C1027 1.394 . S
C1028 C1058 1.723 . S
H1029 C1052 0.947 . S
H1030 C1053 0.948 . S
H1031 C1059 0.982 . S
H1032 C1060 0.979 . S
H1033 C1060 0.980 . S
H1034 C1060 0.983 . S
H1035 C1059 0.979 . S
H1036 C1059 0.977 . S
C1037 C1025 1.453 . S
C1037 H1066 0.982 . S
C1037 H1067 0.979 . S
C1037 H1068 0.977 . S
C1038 C1025 1.684 . S
C1038 H1063 0.979 . S
C1038 H1064 0.980 . S
C1038 H1065 0.983 . S
C1039 C1040 1.391 . S
C1039 C1044 1.391 . S
C1039 H1069 0.948 . S
C1040 C1039 1.391 . S
C1040 C1041 1.391 . S
C1041 C1040 1.391 . S
C1041 C1042 1.392 . S
C1041 H1070 0.947 . S
C1042 C1041 1.392 . S
C1042 C1043 1.419 . S
C1042 H1071 0.948 . S
C1043 C1042 1.419 . S
C1043 C1044 1.391 . S
C1043 C1047 1.397 . S
C1044 C1039 1.391 . S
C1044 C1043 1.391 . S
C1044 C1045 1.399 . S
C1045 C1044 1.399 . S
C1045 C1046 1.396 . S
C1045 C1048 1.453 . S
C1045 C1049 1.684 . S
C1046 C1027 1.723 . S
C1046 C1045 1.396 . S
C1046 C1047 1.394 . S
C1047 C1043 1.397 . S
C1047 C1046 1.394 . S
C1047 C1057 1.723 . S
C1048 C1045 1.453 . S
C1048 H1072 0.982 . S
C1048 H1073 0.979 . S
C1048 H1074 0.977 . S
C1049 C1045 1.684 . S
C1049 H1075 0.979 . S
C1049 H1076 0.980 . S
C1049 H1077 0.983 . S
C1050 H1026 0.948 . S
C1050 C1051 1.391 . S
C1050 C1055 1.391 . S
C1051 C1050 1.391 . S
C1051 C1052 1.391 . S
C1052 H1029 0.947 . S
C1052 C1051 1.391 . S
C1052 C1053 1.392 . S
C1053 H1030 0.948 . S
C1053 C1052 1.392 . S
C1053 C1054 1.419 . S
C1054 C1053 1.419 . S
C1054 C1055 1.391 . S
C1054 C1058 1.397 . S
C1055 C1050 1.391 . S
C1055 C1054 1.391 . S
C1055 C1056 1.399 . S
C1056 C1055 1.399 . S
C1056 C1057 1.396 . S
C1056 C1059 1.453 . S
C1056 C1060 1.684 . S
C1057 C1047 1.723 . S
C1057 C1056 1.396 . S
C1057 C1058 1.394 . S
C1058 C1028 1.723 . S
C1058 C1054 1.397 . S
C1058 C1057 1.394 . S
C1059 H1031 0.982 . S
C1059 H1035 0.979 . S
C1059 H1036 0.977 . S
C1059 C1056 1.453 . S
C1060 H1032 0.979 . S
C1060 H1033 0.980 . S
C1060 H1034 0.983 . S
C1060 C1056 1.684 . S
H1061 C1079 0.948 . S
H1062 C1020 0.948 . S
H1063 C1038 0.979 . S
H1064 C1038 0.980 . S
H1065 C1038 0.983 . S
H1066 C1037 0.982 . S
H1067 C1037 0.979 . S
H1068 C1037 0.977 . S
H1069 C1039 0.948 . S
H1070 C1041 0.947 . S
H1071 C1042 0.948 . S
H1072 C1048 0.982 . S
H1073 C1048 0.979 . S
H1074 C1048 0.977 . S
H1075 C1049 0.979 . S
H1076 C1049 0.980 . S
H1077 C1049 0.983 . S
H1078 C1022 0.947 . S
C1079 C1022 1.392 . S
C1079 C1023 1.419 . S
C1079 H1061 0.948 . S
Tb1080 N1111 2.660 . S
Tb1080 N1118 2.600 . S
Tb1080 O1124 2.546 . S
Tb1080 O1125 2.610 1_565 S
Tb1080 O1127 2.320 1_565 S
Tb1080 O1128 2.552 1_565 S
Tb1080 O1129 2.413 . S
Tb1080 O1131 2.362 1_556 S
Tb1080 O1132 2.421 . S
Tb1080 C1144 2.833 . S
C1081 C1084 1.432 . S
C1081 C1085 1.414 . S
C1081 N1088 1.359 . S
C1082 C1084 1.417 . S
C1082 C1086 1.432 . S
C1082 C1094 1.410 . S
C1083 C1085 1.444 . S
C1083 C1086 1.317 . S
C1083 H1106 0.929 . S
C1084 C1081 1.432 . S
C1084 C1082 1.417 . S
C1084 N1092 1.360 . S
C1085 C1081 1.414 . S
C1085 C1083 1.444 . S
C1085 C1090 1.385 . S
C1086 C1082 1.432 . S
C1086 C1083 1.317 . S
C1086 H1098 0.930 . S
C1087 C1089 1.392 . S
C1087 C1090 1.370 . S
C1087 H1099 0.931 . S
N1088 C1081 1.359 . S
N1088 C1089 1.327 . S
N1088 Tb1091 2.600 . S
C1089 C1087 1.392 . S
C1089 N1088 1.327 . S
C1089 H1096 0.930 . S
C1090 C1085 1.385 . S
C1090 C1087 1.370 . S
C1090 H1109 0.930 . S
Tb1091 N1088 2.600 . S
Tb1091 N1092 2.660 . S
Tb1091 O1125 2.362 1_554 S
Tb1091 O1126 2.421 . S
Tb1091 O1130 2.546 . S
Tb1091 O1131 2.610 1_545 S
Tb1091 O1133 2.320 1_545 S
Tb1091 O1134 2.552 1_545 S
Tb1091 O1135 2.413 . S
Tb1091 C1155 2.833 . S
N1092 C1084 1.360 . S
N1092 Tb1091 2.660 . S
N1092 C1093 1.305 . S
C1093 N1092 1.305 . S
C1093 C1095 1.407 . S
C1093 H1100 0.930 . S
C1094 C1082 1.410 . S
C1094 C1095 1.345 . S
C1094 H1102 0.930 . S
C1095 C1093 1.407 . S
C1095 C1094 1.345 . S
C1095 H1097 0.930 . S
H1096 C1089 0.930 . S
H1097 C1095 0.930 . S
H1098 C1086 0.930 . S
H1099 C1087 0.931 . S
H1100 C1093 0.930 . S
H1101 C1115 0.930 . S
H1102 C1094 0.930 . S
H1103 C1121 0.930 . S
H1104 C1112 0.930 . S
H1105 C1119 0.931 . S
H1106 C1083 0.929 . S
H1107 C1113 0.930 . S
H1108 C1146 0.930 . S
H1109 C1090 0.930 . S
H1110 C1145 0.929 . S
N1111 Tb1080 2.660 . S
N1111 C1112 1.305 . S
N1111 C1116 1.360 . S
C1112 H1104 0.930 . S
C1112 N1111 1.305 . S
C1112 C1115 1.407 . S
C1113 H1107 0.930 . S
C1113 C1114 1.410 . S
C1113 C1115 1.345 . S
C1114 C1113 1.410 . S
C1114 C1116 1.417 . S
C1114 C1146 1.432 . S
C1115 H1101 0.930 . S
C1115 C1112 1.407 . S
C1115 C1113 1.345 . S
C1116 N1111 1.360 . S
C1116 C1114 1.417 . S
C1116 C1120 1.432 . S
H1117 C1122 0.930 . S
N1118 Tb1080 2.600 . S
N1118 C1120 1.359 . S
N1118 C1121 1.327 . S
C1119 H1105 0.931 . S
C1119 C1121 1.392 . S
C1119 C1122 1.370 . S
C1120 C1116 1.432 . S
C1120 N1118 1.359 . S
C1120 C1123 1.414 . S
C1121 H1103 0.930 . S
C1121 N1118 1.327 . S
C1121 C1119 1.392 . S
C1122 H1117 0.930 . S
C1122 C1119 1.370 . S
C1122 C1123 1.385 . S
C1123 C1120 1.414 . S
C1123 C1122 1.385 . S
C1123 C1145 1.444 . S
O1124 Tb1080 2.546 . S
O1124 C1144 1.251 . S
O1125 Tb1080 2.610 1_545 S
O1125 Tb1091 2.362 1_556 S
O1125 C1136 1.283 . S
O1126 Tb1091 2.421 . S
O1126 C1143 1.262 1_554 S
O1127 Tb1080 2.320 1_545 S
O1127 C1143 1.260 . S
O1128 Tb1080 2.552 1_545 S
O1128 C1136 1.243 . S
O1129 Tb1080 2.413 . S
O1129 C1144 1.256 . S
O1130 Tb1091 2.546 . S
O1130 C1155 1.251 . S
O1131 Tb1080 2.362 1_554 S
O1131 Tb1091 2.610 1_565 S
O1131 C1147 1.283 . S
O1132 Tb1080 2.421 . S
O1132 C1154 1.262 1_556 S
O1133 Tb1091 2.320 1_565 S
O1133 C1154 1.260 . S
O1134 Tb1091 2.552 1_565 S
O1134 C1147 1.243 . S
O1135 Tb1091 2.413 . S
O1135 C1155 1.256 . S
C1136 O1125 1.283 . S
C1136 O1128 1.243 . S
C1137 C1139 1.382 1_565 S
C1137 C1141 1.393 . S
C1137 C1144 1.500 . S
C1138 C1139 1.400 . S
C1138 C1140 1.384 1_545 S
C1139 C1137 1.382 1_545 S
C1139 C1138 1.400 . S
C1139 H1156 0.930 . S
C1140 C1138 1.384 1_565 S
C1140 C1142 1.392 . S
C1140 H1157 0.931 . S
C1141 C1137 1.393 . S
C1141 C1142 1.401 . S
C1141 H1158 0.930 . S
C1142 C1140 1.392 . S
C1142 C1141 1.401 . S
C1142 H1159 0.930 . S
C1143 O1126 1.262 1_556 S
C1143 O1127 1.260 . S
C1144 Tb1080 2.833 . S
C1144 O1124 1.251 . S
C1144 O1129 1.256 . S
C1144 C1137 1.500 . S
C1145 H1110 0.929 . S
C1145 C1123 1.444 . S
C1145 C1146 1.317 . S
C1146 H1108 0.930 . S
C1146 C1114 1.432 . S
C1146 C1145 1.317 . S
C1147 O1131 1.283 . S
C1147 O1134 1.243 . S
C1148 C1149 1.382 1_545 S
C1148 C1152 1.393 . S
C1148 C1155 1.500 . S
C1149 C1148 1.382 1_565 S
C1149 C1150 1.400 . S
C1149 H1160 0.930 . S
C1150 C1149 1.400 . S
C1150 C1151 1.384 1_565 S
C1151 C1150 1.384 1_545 S
C1151 C1153 1.392 . S
C1151 H1161 0.931 . S
C1152 C1148 1.393 . S
C1152 C1153 1.401 . S
C1152 H1162 0.930 . S
C1153 C1151 1.392 . S
C1153 C1152 1.401 . S
C1153 H1163 0.930 . S
C1154 O1132 1.262 1_554 S
C1154 O1133 1.260 . S
C1155 Tb1091 2.833 . S
C1155 O1130 1.251 . S
C1155 O1135 1.256 . S
C1155 C1148 1.500 . S
H1156 C1139 0.930 . S
H1157 C1140 0.931 . S
H1158 C1141 0.930 . S
H1159 C1142 0.930 . S
H1160 C1149 0.930 . S
H1161 C1151 0.931 . S
H1162 C1152 0.930 . S
H1163 C1153 0.930 . S
Tb1164 N1195 2.660 . S
Tb1164 N1202 2.600 . S
Tb1164 O1208 2.546 . S
Tb1164 O1209 2.610 1_455 S
Tb1164 O1211 2.320 1_455 S
Tb1164 O1212 2.552 1_455 S
Tb1164 O1213 2.413 . S
Tb1164 O1215 2.362 1_556 S
Tb1164 O1216 2.421 . S
Tb1164 C1228 2.833 . S
C1165 C1168 1.432 . S
C1165 C1169 1.414 . S
C1165 N1172 1.359 . S
C1166 C1168 1.417 . S
C1166 C1170 1.432 . S
C1166 C1178 1.410 . S
C1167 C1169 1.444 . S
C1167 C1170 1.317 . S
C1167 H1190 0.929 . S
C1168 C1165 1.432 . S
C1168 C1166 1.417 . S
C1168 N1176 1.360 . S
C1169 C1165 1.414 . S
C1169 C1167 1.444 . S
C1169 C1174 1.385 . S
C1170 C1166 1.432 . S
C1170 C1167 1.317 . S
C1170 H1182 0.930 . S
C1171 C1173 1.392 . S
C1171 C1174 1.370 . S
C1171 H1183 0.931 . S
N1172 C1165 1.359 . S
N1172 C1173 1.327 . S
N1172 Tb1175 2.600 . S
C1173 C1171 1.392 . S
C1173 N1172 1.327 . S
C1173 H1180 0.930 . S
C1174 C1169 1.385 . S
C1174 C1171 1.370 . S
C1174 H1193 0.930 . S
Tb1175 N1172 2.600 . S
Tb1175 N1176 2.660 . S
Tb1175 O1209 2.362 1_554 S
Tb1175 O1210 2.421 . S
Tb1175 O1214 2.546 . S
Tb1175 O1215 2.610 1_655 S
Tb1175 O1217 2.320 1_655 S
Tb1175 O1218 2.552 1_655 S
Tb1175 O1219 2.413 . S
Tb1175 C1239 2.833 . S
N1176 C1168 1.360 . S
N1176 Tb1175 2.660 . S
N1176 C1177 1.305 . S
C1177 N1176 1.305 . S
C1177 C1179 1.407 . S
C1177 H1184 0.930 . S
C1178 C1166 1.410 . S
C1178 C1179 1.345 . S
C1178 H1186 0.930 . S
C1179 C1177 1.407 . S
C1179 C1178 1.345 . S
C1179 H1181 0.930 . S
H1180 C1173 0.930 . S
H1181 C1179 0.930 . S
H1182 C1170 0.930 . S
H1183 C1171 0.931 . S
H1184 C1177 0.930 . S
H1185 C1199 0.930 . S
H1186 C1178 0.930 . S
H1187 C1205 0.930 . S
H1188 C1196 0.930 . S
H1189 C1203 0.931 . S
H1190 C1167 0.929 . S
H1191 C1197 0.930 . S
H1192 C1230 0.930 . S
H1193 C1174 0.930 . S
H1194 C1229 0.929 . S
N1195 Tb1164 2.660 . S
N1195 C1196 1.305 . S
N1195 C1200 1.360 . S
C1196 H1188 0.930 . S
C1196 N1195 1.305 . S
C1196 C1199 1.407 . S
C1197 H1191 0.930 . S
C1197 C1198 1.410 . S
C1197 C1199 1.345 . S
C1198 C1197 1.410 . S
C1198 C1200 1.417 . S
C1198 C1230 1.432 . S
C1199 H1185 0.930 . S
C1199 C1196 1.407 . S
C1199 C1197 1.345 . S
C1200 N1195 1.360 . S
C1200 C1198 1.417 . S
C1200 C1204 1.432 . S
H1201 C1206 0.930 . S
N1202 Tb1164 2.600 . S
N1202 C1204 1.359 . S
N1202 C1205 1.327 . S
C1203 H1189 0.931 . S
C1203 C1205 1.392 . S
C1203 C1206 1.370 . S
C1204 C1200 1.432 . S
C1204 N1202 1.359 . S
C1204 C1207 1.414 . S
C1205 H1187 0.930 . S
C1205 N1202 1.327 . S
C1205 C1203 1.392 . S
C1206 H1201 0.930 . S
C1206 C1203 1.370 . S
C1206 C1207 1.385 . S
C1207 C1204 1.414 . S
C1207 C1206 1.385 . S
C1207 C1229 1.444 . S
O1208 Tb1164 2.546 . S
O1208 C1228 1.251 . S
O1209 Tb1164 2.610 1_655 S
O1209 Tb1175 2.362 1_556 S
O1209 C1220 1.283 . S
O1210 Tb1175 2.421 . S
O1210 C1227 1.262 1_554 S
O1211 Tb1164 2.320 1_655 S
O1211 C1227 1.260 . S
O1212 Tb1164 2.552 1_655 S
O1212 C1220 1.243 . S
O1213 Tb1164 2.413 . S
O1213 C1228 1.256 . S
O1214 Tb1175 2.546 . S
O1214 C1239 1.251 . S
O1215 Tb1164 2.362 1_554 S
O1215 Tb1175 2.610 1_455 S
O1215 C1231 1.283 . S
O1216 Tb1164 2.421 . S
O1216 C1238 1.262 1_556 S
O1217 Tb1175 2.320 1_455 S
O1217 C1238 1.260 . S
O1218 Tb1175 2.552 1_455 S
O1218 C1231 1.243 . S
O1219 Tb1175 2.413 . S
O1219 C1239 1.256 . S
C1220 O1209 1.283 . S
C1220 O1212 1.243 . S
C1221 C1223 1.382 1_455 S
C1221 C1225 1.393 . S
C1221 C1228 1.500 . S
C1222 C1223 1.400 . S
C1222 C1224 1.384 1_655 S
C1223 C1221 1.382 1_655 S
C1223 C1222 1.400 . S
C1223 H1240 0.930 . S
C1224 C1222 1.384 1_455 S
C1224 C1226 1.392 . S
C1224 H1241 0.931 . S
C1225 C1221 1.393 . S
C1225 C1226 1.401 . S
C1225 H1242 0.930 . S
C1226 C1224 1.392 . S
C1226 C1225 1.401 . S
C1226 H1243 0.930 . S
C1227 O1210 1.262 1_556 S
C1227 O1211 1.260 . S
C1228 Tb1164 2.833 . S
C1228 O1208 1.251 . S
C1228 O1213 1.256 . S
C1228 C1221 1.500 . S
C1229 H1194 0.929 . S
C1229 C1207 1.444 . S
C1229 C1230 1.317 . S
C1230 H1192 0.930 . S
C1230 C1198 1.432 . S
C1230 C1229 1.317 . S
C1231 O1215 1.283 . S
C1231 O1218 1.243 . S
C1232 C1233 1.382 1_655 S
C1232 C1236 1.393 . S
C1232 C1239 1.500 . S
C1233 C1232 1.382 1_455 S
C1233 C1234 1.400 . S
C1233 H1244 0.930 . S
C1234 C1233 1.400 . S
C1234 C1235 1.384 1_455 S
C1235 C1234 1.384 1_655 S
C1235 C1237 1.392 . S
C1235 H1245 0.931 . S
C1236 C1232 1.393 . S
C1236 C1237 1.401 . S
C1236 H1246 0.930 . S
C1237 C1235 1.392 . S
C1237 C1236 1.401 . S
C1237 H1247 0.930 . S
C1238 O1216 1.262 1_554 S
C1238 O1217 1.260 . S
C1239 Tb1175 2.833 . S
C1239 O1214 1.251 . S
C1239 O1219 1.256 . S
C1239 C1232 1.500 . S
H1240 C1223 0.930 . S
H1241 C1224 0.931 . S
H1242 C1225 0.930 . S
H1243 C1226 0.930 . S
H1244 C1233 0.930 . S
H1245 C1235 0.931 . S
H1246 C1236 0.930 . S
H1247 C1237 0.930 . S
Tb1248 N1279 2.660 . S
Tb1248 N1286 2.600 . S
Tb1248 O1292 2.546 . S
Tb1248 O1293 2.610 . S
Tb1248 O1295 2.320 . S
Tb1248 O1296 2.552 . S
Tb1248 O1297 2.413 . S
Tb1248 O1299 2.362 1_554 S
Tb1248 O1300 2.421 . S
Tb1248 C1312 2.833 . S
C1249 C1252 1.432 . S
C1249 C1253 1.414 . S
C1249 N1256 1.359 . S
C1250 C1252 1.417 . S
C1250 C1254 1.432 . S
C1250 C1262 1.410 . S
C1251 C1253 1.444 . S
C1251 C1254 1.317 . S
C1251 H1274 0.929 . S
C1252 C1249 1.432 . S
C1252 C1250 1.417 . S
C1252 N1260 1.360 . S
C1253 C1249 1.414 . S
C1253 C1251 1.444 . S
C1253 C1258 1.385 . S
C1254 C1250 1.432 . S
C1254 C1251 1.317 . S
C1254 H1266 0.930 . S
C1255 C1257 1.392 . S
C1255 C1258 1.370 . S
C1255 H1267 0.931 . S
N1256 C1249 1.359 . S
N1256 C1257 1.327 . S
N1256 Tb1259 2.600 . S
C1257 C1255 1.392 . S
C1257 N1256 1.327 . S
C1257 H1264 0.930 . S
C1258 C1253 1.385 . S
C1258 C1255 1.370 . S
C1258 H1277 0.930 . S
Tb1259 N1256 2.600 . S
Tb1259 N1260 2.660 . S
Tb1259 O1293 2.362 1_556 S
Tb1259 O1294 2.421 . S
Tb1259 O1298 2.546 . S
Tb1259 O1299 2.610 . S
Tb1259 O1301 2.320 . S
Tb1259 O1302 2.552 . S
Tb1259 O1303 2.413 . S
Tb1259 C1323 2.833 . S
N1260 C1252 1.360 . S
N1260 Tb1259 2.660 . S
N1260 C1261 1.305 . S
C1261 N1260 1.305 . S
C1261 C1263 1.407 . S
C1261 H1268 0.930 . S
C1262 C1250 1.410 . S
C1262 C1263 1.345 . S
C1262 H1270 0.930 . S
C1263 C1261 1.407 . S
C1263 C1262 1.345 . S
C1263 H1265 0.930 . S
H1264 C1257 0.930 . S
H1265 C1263 0.930 . S
H1266 C1254 0.930 . S
H1267 C1255 0.931 . S
H1268 C1261 0.930 . S
H1269 C1283 0.930 . S
H1270 C1262 0.930 . S
H1271 C1289 0.930 . S
H1272 C1280 0.930 . S
H1273 C1287 0.931 . S
H1274 C1251 0.929 . S
H1275 C1281 0.930 . S
H1276 C1314 0.930 . S
H1277 C1258 0.930 . S
H1278 C1313 0.929 . S
N1279 Tb1248 2.660 . S
N1279 C1280 1.305 . S
N1279 C1284 1.360 . S
C1280 H1272 0.930 . S
C1280 N1279 1.305 . S
C1280 C1283 1.407 . S
C1281 H1275 0.930 . S
C1281 C1282 1.410 . S
C1281 C1283 1.345 . S
C1282 C1281 1.410 . S
C1282 C1284 1.417 . S
C1282 C1314 1.432 . S
C1283 H1269 0.930 . S
C1283 C1280 1.407 . S
C1283 C1281 1.345 . S
C1284 N1279 1.360 . S
C1284 C1282 1.417 . S
C1284 C1288 1.432 . S
H1285 C1290 0.930 . S
N1286 Tb1248 2.600 . S
N1286 C1288 1.359 . S
N1286 C1289 1.327 . S
C1287 H1273 0.931 . S
C1287 C1289 1.392 . S
C1287 C1290 1.370 . S
C1288 C1284 1.432 . S
C1288 N1286 1.359 . S
C1288 C1291 1.414 . S
C1289 H1271 0.930 . S
C1289 N1286 1.327 . S
C1289 C1287 1.392 . S
C1290 H1285 0.930 . S
C1290 C1287 1.370 . S
C1290 C1291 1.385 . S
C1291 C1288 1.414 . S
C1291 C1290 1.385 . S
C1291 C1313 1.444 . S
O1292 Tb1248 2.546 . S
O1292 C1312 1.251 . S
O1293 Tb1248 2.610 . S
O1293 Tb1259 2.362 1_554 S
O1293 C1304 1.283 . S
O1294 Tb1259 2.421 . S
O1294 C1311 1.262 1_556 S
O1295 Tb1248 2.320 . S
O1295 C1311 1.260 . S
O1296 Tb1248 2.552 . S
O1296 C1304 1.243 . S
O1297 Tb1248 2.413 . S
O1297 C1312 1.256 . S
O1298 Tb1259 2.546 . S
O1298 C1323 1.251 . S
O1299 Tb1248 2.362 1_556 S
O1299 Tb1259 2.610 . S
O1299 C1315 1.283 . S
O1300 Tb1248 2.421 . S
O1300 C1322 1.262 1_554 S
O1301 Tb1259 2.320 . S
O1301 C1322 1.260 . S
O1302 Tb1259 2.552 . S
O1302 C1315 1.243 . S
O1303 Tb1259 2.413 . S
O1303 C1323 1.256 . S
C1304 O1293 1.283 . S
C1304 O1296 1.243 . S
C1305 C1307 1.382 . S
C1305 C1309 1.393 . S
C1305 C1312 1.500 . S
C1306 C1307 1.400 . S
C1306 C1308 1.384 . S
C1307 C1305 1.382 . S
C1307 C1306 1.400 . S
C1307 H1324 0.930 . S
C1308 C1306 1.384 . S
C1308 C1310 1.392 . S
C1308 H1325 0.931 . S
C1309 C1305 1.393 . S
C1309 C1310 1.401 . S
C1309 H1326 0.930 . S
C1310 C1308 1.392 . S
C1310 C1309 1.401 . S
C1310 H1327 0.930 . S
C1311 O1294 1.262 1_554 S
C1311 O1295 1.260 . S
C1312 Tb1248 2.833 . S
C1312 O1292 1.251 . S
C1312 O1297 1.256 . S
C1312 C1305 1.500 . S
C1313 H1278 0.929 . S
C1313 C1291 1.444 . S
C1313 C1314 1.317 . S
C1314 H1276 0.930 . S
C1314 C1282 1.432 . S
C1314 C1313 1.317 . S
C1315 O1299 1.283 . S
C1315 O1302 1.243 . S
C1316 C1317 1.382 . S
C1316 C1320 1.393 . S
C1316 C1323 1.500 . S
C1317 C1316 1.382 . S
C1317 C1318 1.400 . S
C1317 H1328 0.930 . S
C1318 C1317 1.400 . S
C1318 C1319 1.384 . S
C1319 C1318 1.384 . S
C1319 C1321 1.392 . S
C1319 H1329 0.931 . S
C1320 C1316 1.393 . S
C1320 C1321 1.401 . S
C1320 H1330 0.930 . S
C1321 C1319 1.392 . S
C1321 C1320 1.401 . S
C1321 H1331 0.930 . S
C1322 O1300 1.262 1_556 S
C1322 O1301 1.260 . S
C1323 Tb1259 2.833 . S
C1323 O1298 1.251 . S
C1323 O1303 1.256 . S
C1323 C1316 1.500 . S
H1324 C1307 0.930 . S
H1325 C1308 0.931 . S
H1326 C1309 0.930 . S
H1327 C1310 0.930 . S
H1328 C1317 0.930 . S
H1329 C1319 0.931 . S
H1330 C1320 0.930 . S
H1331 C1321 0.930 . S
Tb1332 N1363 2.660 . S
Tb1332 N1370 2.600 . S
Tb1332 O1376 2.546 . S
Tb1332 O1377 2.610 . S
Tb1332 O1379 2.320 . S
Tb1332 O1380 2.552 . S
Tb1332 O1381 2.413 . S
Tb1332 O1383 2.362 . S
Tb1332 O1384 2.421 . S
Tb1332 C1396 2.833 . S
C1333 C1336 1.432 . S
C1333 C1337 1.414 . S
C1333 N1340 1.359 . S
C1334 C1336 1.417 . S
C1334 C1338 1.432 . S
C1334 C1346 1.410 . S
C1335 C1337 1.444 . S
C1335 C1338 1.317 . S
C1335 H1358 0.929 . S
C1336 C1333 1.432 . S
C1336 C1334 1.417 . S
C1336 N1344 1.360 . S
C1337 C1333 1.414 . S
C1337 C1335 1.444 . S
C1337 C1342 1.385 . S
C1338 C1334 1.432 . S
C1338 C1335 1.317 . S
C1338 H1350 0.930 . S
C1339 C1341 1.392 . S
C1339 C1342 1.370 . S
C1339 H1351 0.931 . S
N1340 C1333 1.359 . S
N1340 C1341 1.327 . S
N1340 Tb1343 2.600 . S
C1341 C1339 1.392 . S
C1341 N1340 1.327 . S
C1341 H1348 0.930 . S
C1342 C1337 1.385 . S
C1342 C1339 1.370 . S
C1342 H1361 0.930 . S
Tb1343 N1340 2.600 . S
Tb1343 N1344 2.660 . S
Tb1343 O1377 2.362 . S
Tb1343 O1378 2.421 . S
Tb1343 O1382 2.546 . S
Tb1343 O1383 2.610 . S
Tb1343 O1385 2.320 . S
Tb1343 O1386 2.552 . S
Tb1343 O1387 2.413 . S
Tb1343 C1407 2.833 . S
N1344 C1336 1.360 . S
N1344 Tb1343 2.660 . S
N1344 C1345 1.305 . S
C1345 N1344 1.305 . S
C1345 C1347 1.407 . S
C1345 H1352 0.930 . S
C1346 C1334 1.410 . S
C1346 C1347 1.345 . S
C1346 H1354 0.930 . S
C1347 C1345 1.407 . S
C1347 C1346 1.345 . S
C1347 H1349 0.930 . S
H1348 C1341 0.930 . S
H1349 C1347 0.930 . S
H1350 C1338 0.930 . S
H1351 C1339 0.931 . S
H1352 C1345 0.930 . S
H1353 C1367 0.930 . S
H1354 C1346 0.930 . S
H1355 C1373 0.930 . S
H1356 C1364 0.930 . S
H1357 C1371 0.931 . S
H1358 C1335 0.929 . S
H1359 C1365 0.930 . S
H1360 C1398 0.930 . S
H1361 C1342 0.930 . S
H1362 C1397 0.929 . S
N1363 Tb1332 2.660 . S
N1363 C1364 1.305 . S
N1363 C1368 1.360 . S
C1364 H1356 0.930 . S
C1364 N1363 1.305 . S
C1364 C1367 1.407 . S
C1365 H1359 0.930 . S
C1365 C1366 1.410 . S
C1365 C1367 1.345 . S
C1366 C1365 1.410 . S
C1366 C1368 1.417 . S
C1366 C1398 1.432 . S
C1367 H1353 0.930 . S
C1367 C1364 1.407 . S
C1367 C1365 1.345 . S
C1368 N1363 1.360 . S
C1368 C1366 1.417 . S
C1368 C1372 1.432 . S
H1369 C1374 0.930 . S
N1370 Tb1332 2.600 . S
N1370 C1372 1.359 . S
N1370 C1373 1.327 . S
C1371 H1357 0.931 . S
C1371 C1373 1.392 . S
C1371 C1374 1.370 . S
C1372 C1368 1.432 . S
C1372 N1370 1.359 . S
C1372 C1375 1.414 . S
C1373 H1355 0.930 . S
C1373 N1370 1.327 . S
C1373 C1371 1.392 . S
C1374 H1369 0.930 . S
C1374 C1371 1.370 . S
C1374 C1375 1.385 . S
C1375 C1372 1.414 . S
C1375 C1374 1.385 . S
C1375 C1397 1.444 . S
O1376 Tb1332 2.546 . S
O1376 C1396 1.251 . S
O1377 Tb1332 2.610 . S
O1377 Tb1343 2.362 . S
O1377 C1388 1.283 . S
O1378 Tb1343 2.421 . S
O1378 C1395 1.262 . S
O1379 Tb1332 2.320 . S
O1379 C1395 1.260 . S
O1380 Tb1332 2.552 . S
O1380 C1388 1.243 . S
O1381 Tb1332 2.413 . S
O1381 C1396 1.256 . S
O1382 Tb1343 2.546 . S
O1382 C1407 1.251 . S
O1383 Tb1332 2.362 . S
O1383 Tb1343 2.610 . S
O1383 C1399 1.283 . S
O1384 Tb1332 2.421 . S
O1384 C1406 1.262 . S
O1385 Tb1343 2.320 . S
O1385 C1406 1.260 . S
O1386 Tb1343 2.552 . S
O1386 C1399 1.243 . S
O1387 Tb1343 2.413 . S
O1387 C1407 1.256 . S
C1388 O1377 1.283 . S
C1388 O1380 1.243 . S
C1389 C1391 1.382 . S
C1389 C1393 1.393 . S
C1389 C1396 1.500 . S
C1390 C1391 1.400 . S
C1390 C1392 1.384 . S
C1391 C1389 1.382 . S
C1391 C1390 1.400 . S
C1391 H1408 0.930 . S
C1392 C1390 1.384 . S
C1392 C1394 1.392 . S
C1392 H1409 0.931 . S
C1393 C1389 1.393 . S
C1393 C1394 1.401 . S
C1393 H1410 0.930 . S
C1394 C1392 1.392 . S
C1394 C1393 1.401 . S
C1394 H1411 0.930 . S
C1395 O1378 1.262 . S
C1395 O1379 1.260 . S
C1396 Tb1332 2.833 . S
C1396 O1376 1.251 . S
C1396 O1381 1.256 . S
C1396 C1389 1.500 . S
C1397 H1362 0.929 . S
C1397 C1375 1.444 . S
C1397 C1398 1.317 . S
C1398 H1360 0.930 . S
C1398 C1366 1.432 . S
C1398 C1397 1.317 . S
C1399 O1383 1.283 . S
C1399 O1386 1.243 . S
C1400 C1401 1.382 . S
C1400 C1404 1.393 . S
C1400 C1407 1.500 . S
C1401 C1400 1.382 . S
C1401 C1402 1.400 . S
C1401 H1412 0.930 . S
C1402 C1401 1.400 . S
C1402 C1403 1.384 . S
C1403 C1402 1.384 . S
C1403 C1405 1.392 . S
C1403 H1413 0.931 . S
C1404 C1400 1.393 . S
C1404 C1405 1.401 . S
C1404 H1414 0.930 . S
C1405 C1403 1.392 . S
C1405 C1404 1.401 . S
C1405 H1415 0.930 . S
C1406 O1384 1.262 . S
C1406 O1385 1.260 . S
C1407 Tb1343 2.833 . S
C1407 O1382 1.251 . S
C1407 O1387 1.256 . S
C1407 C1400 1.500 . S
H1408 C1391 0.930 . S
H1409 C1392 0.931 . S
H1410 C1393 0.930 . S
H1411 C1394 0.930 . S
H1412 C1401 0.930 . S
H1413 C1403 0.931 . S
H1414 C1404 0.930 . S
H1415 C1405 0.930 . S
Tb1416 N1447 2.660 . S
Tb1416 N1454 2.600 . S
Tb1416 O1460 2.546 . S
Tb1416 O1461 2.610 . S
Tb1416 O1463 2.320 . S
Tb1416 O1464 2.552 . S
Tb1416 O1465 2.413 . S
Tb1416 O1467 2.362 . S
Tb1416 O1468 2.421 . S
Tb1416 C1480 2.833 . S
C1417 C1420 1.432 . S
C1417 C1421 1.414 . S
C1417 N1424 1.359 . S
C1418 C1420 1.417 . S
C1418 C1422 1.432 . S
C1418 C1430 1.410 . S
C1419 C1421 1.444 . S
C1419 C1422 1.317 . S
C1419 H1442 0.929 . S
C1420 C1417 1.432 . S
C1420 C1418 1.417 . S
C1420 N1428 1.360 . S
C1421 C1417 1.414 . S
C1421 C1419 1.444 . S
C1421 C1426 1.385 . S
C1422 C1418 1.432 . S
C1422 C1419 1.317 . S
C1422 H1434 0.930 . S
C1423 C1425 1.392 . S
C1423 C1426 1.370 . S
C1423 H1435 0.931 . S
N1424 C1417 1.359 . S
N1424 C1425 1.327 . S
N1424 Tb1427 2.600 . S
C1425 C1423 1.392 . S
C1425 N1424 1.327 . S
C1425 H1432 0.930 . S
C1426 C1421 1.385 . S
C1426 C1423 1.370 . S
C1426 H1445 0.930 . S
Tb1427 N1424 2.600 . S
Tb1427 N1428 2.660 . S
Tb1427 O1461 2.362 . S
Tb1427 O1462 2.421 . S
Tb1427 O1466 2.546 . S
Tb1427 O1467 2.610 . S
Tb1427 O1469 2.320 . S
Tb1427 O1470 2.552 . S
Tb1427 O1471 2.413 . S
Tb1427 C1491 2.833 . S
N1428 C1420 1.360 . S
N1428 Tb1427 2.660 . S
N1428 C1429 1.305 . S
C1429 N1428 1.305 . S
C1429 C1431 1.407 . S
C1429 H1436 0.930 . S
C1430 C1418 1.410 . S
C1430 C1431 1.345 . S
C1430 H1438 0.930 . S
C1431 C1429 1.407 . S
C1431 C1430 1.345 . S
C1431 H1433 0.930 . S
H1432 C1425 0.930 . S
H1433 C1431 0.930 . S
H1434 C1422 0.930 . S
H1435 C1423 0.931 . S
H1436 C1429 0.930 . S
H1437 C1451 0.930 . S
H1438 C1430 0.930 . S
H1439 C1457 0.930 . S
H1440 C1448 0.930 . S
H1441 C1455 0.931 . S
H1442 C1419 0.929 . S
H1443 C1449 0.930 . S
H1444 C1482 0.930 . S
H1445 C1426 0.930 . S
H1446 C1481 0.929 . S
N1447 Tb1416 2.660 . S
N1447 C1448 1.305 . S
N1447 C1452 1.360 . S
C1448 H1440 0.930 . S
C1448 N1447 1.305 . S
C1448 C1451 1.407 . S
C1449 H1443 0.930 . S
C1449 C1450 1.410 . S
C1449 C1451 1.345 . S
C1450 C1449 1.410 . S
C1450 C1452 1.417 . S
C1450 C1482 1.432 . S
C1451 H1437 0.930 . S
C1451 C1448 1.407 . S
C1451 C1449 1.345 . S
C1452 N1447 1.360 . S
C1452 C1450 1.417 . S
C1452 C1456 1.432 . S
H1453 C1458 0.930 . S
N1454 Tb1416 2.600 . S
N1454 C1456 1.359 . S
N1454 C1457 1.327 . S
C1455 H1441 0.931 . S
C1455 C1457 1.392 . S
C1455 C1458 1.370 . S
C1456 C1452 1.432 . S
C1456 N1454 1.359 . S
C1456 C1459 1.414 . S
C1457 H1439 0.930 . S
C1457 N1454 1.327 . S
C1457 C1455 1.392 . S
C1458 H1453 0.930 . S
C1458 C1455 1.370 . S
C1458 C1459 1.385 . S
C1459 C1456 1.414 . S
C1459 C1458 1.385 . S
C1459 C1481 1.444 . S
O1460 Tb1416 2.546 . S
O1460 C1480 1.251 . S
O1461 Tb1416 2.610 . S
O1461 Tb1427 2.362 . S
O1461 C1472 1.283 . S
O1462 Tb1427 2.421 . S
O1462 C1479 1.262 . S
O1463 Tb1416 2.320 . S
O1463 C1479 1.260 . S
O1464 Tb1416 2.552 . S
O1464 C1472 1.243 . S
O1465 Tb1416 2.413 . S
O1465 C1480 1.256 . S
O1466 Tb1427 2.546 . S
O1466 C1491 1.251 . S
O1467 Tb1416 2.362 . S
O1467 Tb1427 2.610 . S
O1467 C1483 1.283 . S
O1468 Tb1416 2.421 . S
O1468 C1490 1.262 . S
O1469 Tb1427 2.320 . S
O1469 C1490 1.260 . S
O1470 Tb1427 2.552 . S
O1470 C1483 1.243 . S
O1471 Tb1427 2.413 . S
O1471 C1491 1.256 . S
C1472 O1461 1.283 . S
C1472 O1464 1.243 . S
C1473 C1475 1.382 . S
C1473 C1477 1.393 . S
C1473 C1480 1.500 . S
C1474 C1475 1.400 . S
C1474 C1476 1.384 . S
C1475 C1473 1.382 . S
C1475 C1474 1.400 . S
C1475 H1492 0.930 . S
C1476 C1474 1.384 . S
C1476 C1478 1.392 . S
C1476 H1493 0.931 . S
C1477 C1473 1.393 . S
C1477 C1478 1.401 . S
C1477 H1494 0.930 . S
C1478 C1476 1.392 . S
C1478 C1477 1.401 . S
C1478 H1495 0.930 . S
C1479 O1462 1.262 . S
C1479 O1463 1.260 . S
C1480 Tb1416 2.833 . S
C1480 O1460 1.251 . S
C1480 O1465 1.256 . S
C1480 C1473 1.500 . S
C1481 H1446 0.929 . S
C1481 C1459 1.444 . S
C1481 C1482 1.317 . S
C1482 H1444 0.930 . S
C1482 C1450 1.432 . S
C1482 C1481 1.317 . S
C1483 O1467 1.283 . S
C1483 O1470 1.243 . S
C1484 C1485 1.382 . S
C1484 C1488 1.393 . S
C1484 C1491 1.500 . S
C1485 C1484 1.382 . S
C1485 C1486 1.400 . S
C1485 H1496 0.930 . S
C1486 C1485 1.400 . S
C1486 C1487 1.384 . S
C1487 C1486 1.384 . S
C1487 C1489 1.392 . S
C1487 H1497 0.931 . S
C1488 C1484 1.393 . S
C1488 C1489 1.401 . S
C1488 H1498 0.930 . S
C1489 C1487 1.392 . S
C1489 C1488 1.401 . S
C1489 H1499 0.930 . S
C1490 O1468 1.262 . S
C1490 O1469 1.260 . S
C1491 Tb1427 2.833 . S
C1491 O1466 1.251 . S
C1491 O1471 1.256 . S
C1491 C1484 1.500 . S
H1492 C1475 0.930 . S
H1493 C1476 0.931 . S
H1494 C1477 0.930 . S
H1495 C1478 0.930 . S
H1496 C1485 0.930 . S
H1497 C1487 0.931 . S
H1498 C1488 0.930 . S
H1499 C1489 0.930 . S
Tb1500 N1531 2.660 . S
Tb1500 N1538 2.600 . S
Tb1500 O1544 2.546 . S
Tb1500 O1545 2.610 . S
Tb1500 O1547 2.320 . S
Tb1500 O1548 2.552 . S
Tb1500 O1549 2.413 . S
Tb1500 O1551 2.362 . S
Tb1500 O1552 2.421 . S
Tb1500 C1564 2.833 . S
C1501 C1504 1.432 . S
C1501 C1505 1.414 . S
C1501 N1508 1.359 . S
C1502 C1504 1.417 . S
C1502 C1506 1.432 . S
C1502 C1514 1.410 . S
C1503 C1505 1.444 . S
C1503 C1506 1.317 . S
C1503 H1526 0.929 . S
C1504 C1501 1.432 . S
C1504 C1502 1.417 . S
C1504 N1512 1.360 . S
C1505 C1501 1.414 . S
C1505 C1503 1.444 . S
C1505 C1510 1.385 . S
C1506 C1502 1.432 . S
C1506 C1503 1.317 . S
C1506 H1518 0.930 . S
C1507 C1509 1.392 . S
C1507 C1510 1.370 . S
C1507 H1519 0.931 . S
N1508 C1501 1.359 . S
N1508 C1509 1.327 . S
N1508 Tb1511 2.600 . S
C1509 C1507 1.392 . S
C1509 N1508 1.327 . S
C1509 H1516 0.930 . S
C1510 C1505 1.385 . S
C1510 C1507 1.370 . S
C1510 H1529 0.930 . S
Tb1511 N1508 2.600 . S
Tb1511 N1512 2.660 . S
Tb1511 O1545 2.362 . S
Tb1511 O1546 2.421 . S
Tb1511 O1550 2.546 . S
Tb1511 O1551 2.610 . S
Tb1511 O1553 2.320 . S
Tb1511 O1554 2.552 . S
Tb1511 O1555 2.413 . S
Tb1511 C1575 2.833 . S
N1512 C1504 1.360 . S
N1512 Tb1511 2.660 . S
N1512 C1513 1.305 . S
C1513 N1512 1.305 . S
C1513 C1515 1.407 . S
C1513 H1520 0.930 . S
C1514 C1502 1.410 . S
C1514 C1515 1.345 . S
C1514 H1522 0.930 . S
C1515 C1513 1.407 . S
C1515 C1514 1.345 . S
C1515 H1517 0.930 . S
H1516 C1509 0.930 . S
H1517 C1515 0.930 . S
H1518 C1506 0.930 . S
H1519 C1507 0.931 . S
H1520 C1513 0.930 . S
H1521 C1535 0.930 . S
H1522 C1514 0.930 . S
H1523 C1541 0.930 . S
H1524 C1532 0.930 . S
H1525 C1539 0.931 . S
H1526 C1503 0.929 . S
H1527 C1533 0.930 . S
H1528 C1566 0.930 . S
H1529 C1510 0.930 . S
H1530 C1565 0.929 . S
N1531 Tb1500 2.660 . S
N1531 C1532 1.305 . S
N1531 C1536 1.360 . S
C1532 H1524 0.930 . S
C1532 N1531 1.305 . S
C1532 C1535 1.407 . S
C1533 H1527 0.930 . S
C1533 C1534 1.410 . S
C1533 C1535 1.345 . S
C1534 C1533 1.410 . S
C1534 C1536 1.417 . S
C1534 C1566 1.432 . S
C1535 H1521 0.930 . S
C1535 C1532 1.407 . S
C1535 C1533 1.345 . S
C1536 N1531 1.360 . S
C1536 C1534 1.417 . S
C1536 C1540 1.432 . S
H1537 C1542 0.930 . S
N1538 Tb1500 2.600 . S
N1538 C1540 1.359 . S
N1538 C1541 1.327 . S
C1539 H1525 0.931 . S
C1539 C1541 1.392 . S
C1539 C1542 1.370 . S
C1540 C1536 1.432 . S
C1540 N1538 1.359 . S
C1540 C1543 1.414 . S
C1541 H1523 0.930 . S
C1541 N1538 1.327 . S
C1541 C1539 1.392 . S
C1542 H1537 0.930 . S
C1542 C1539 1.370 . S
C1542 C1543 1.385 . S
C1543 C1540 1.414 . S
C1543 C1542 1.385 . S
C1543 C1565 1.444 . S
O1544 Tb1500 2.546 . S
O1544 C1564 1.251 . S
O1545 Tb1500 2.610 . S
O1545 Tb1511 2.362 . S
O1545 C1556 1.283 . S
O1546 Tb1511 2.421 . S
O1546 C1563 1.262 . S
O1547 Tb1500 2.320 . S
O1547 C1563 1.260 . S
O1548 Tb1500 2.552 . S
O1548 C1556 1.243 . S
O1549 Tb1500 2.413 . S
O1549 C1564 1.256 . S
O1550 Tb1511 2.546 . S
O1550 C1575 1.251 . S
O1551 Tb1500 2.362 . S
O1551 Tb1511 2.610 . S
O1551 C1567 1.283 . S
O1552 Tb1500 2.421 . S
O1552 C1574 1.262 . S
O1553 Tb1511 2.320 . S
O1553 C1574 1.260 . S
O1554 Tb1511 2.552 . S
O1554 C1567 1.243 . S
O1555 Tb1511 2.413 . S
O1555 C1575 1.256 . S
C1556 O1545 1.283 . S
C1556 O1548 1.243 . S
C1557 C1559 1.382 . S
C1557 C1561 1.393 . S
C1557 C1564 1.500 . S
C1558 C1559 1.400 . S
C1558 C1560 1.384 . S
C1559 C1557 1.382 . S
C1559 C1558 1.400 . S
C1559 H1576 0.930 . S
C1560 C1558 1.384 . S
C1560 C1562 1.392 . S
C1560 H1577 0.931 . S
C1561 C1557 1.393 . S
C1561 C1562 1.401 . S
C1561 H1578 0.930 . S
C1562 C1560 1.392 . S
C1562 C1561 1.401 . S
C1562 H1579 0.930 . S
C1563 O1546 1.262 . S
C1563 O1547 1.260 . S
C1564 Tb1500 2.833 . S
C1564 O1544 1.251 . S
C1564 O1549 1.256 . S
C1564 C1557 1.500 . S
C1565 H1530 0.929 . S
C1565 C1543 1.444 . S
C1565 C1566 1.317 . S
C1566 H1528 0.930 . S
C1566 C1534 1.432 . S
C1566 C1565 1.317 . S
C1567 O1551 1.283 . S
C1567 O1554 1.243 . S
C1568 C1569 1.382 . S
C1568 C1572 1.393 . S
C1568 C1575 1.500 . S
C1569 C1568 1.382 . S
C1569 C1570 1.400 . S
C1569 H1580 0.930 . S
C1570 C1569 1.400 . S
C1570 C1571 1.384 . S
C1571 C1570 1.384 . S
C1571 C1573 1.392 . S
C1571 H1581 0.931 . S
C1572 C1568 1.393 . S
C1572 C1573 1.401 . S
C1572 H1582 0.930 . S
C1573 C1571 1.392 . S
C1573 C1572 1.401 . S
C1573 H1583 0.930 . S
C1574 O1552 1.262 . S
C1574 O1553 1.260 . S
C1575 Tb1511 2.833 . S
C1575 O1550 1.251 . S
C1575 O1555 1.256 . S
C1575 C1568 1.500 . S
H1576 C1559 0.930 . S
H1577 C1560 0.931 . S
H1578 C1561 0.930 . S
H1579 C1562 0.930 . S
H1580 C1569 0.930 . S
H1581 C1571 0.931 . S
H1582 C1572 0.930 . S
H1583 C1573 0.930 . S
Tb1584 N1615 2.660 . S
Tb1584 N1622 2.600 . S
Tb1584 O1628 2.546 . S
Tb1584 O1629 2.610 . S
Tb1584 O1631 2.320 . S
Tb1584 O1632 2.552 . S
Tb1584 O1633 2.413 . S
Tb1584 O1635 2.362 . S
Tb1584 O1636 2.421 . S
Tb1584 C1648 2.833 . S
C1585 C1588 1.432 . S
C1585 C1589 1.414 . S
C1585 N1592 1.359 . S
C1586 C1588 1.417 . S
C1586 C1590 1.432 . S
C1586 C1598 1.410 . S
C1587 C1589 1.444 . S
C1587 C1590 1.317 . S
C1587 H1610 0.929 . S
C1588 C1585 1.432 . S
C1588 C1586 1.417 . S
C1588 N1596 1.360 . S
C1589 C1585 1.414 . S
C1589 C1587 1.444 . S
C1589 C1594 1.385 . S
C1590 C1586 1.432 . S
C1590 C1587 1.317 . S
C1590 H1602 0.930 . S
C1591 C1593 1.392 . S
C1591 C1594 1.370 . S
C1591 H1603 0.931 . S
N1592 C1585 1.359 . S
N1592 C1593 1.327 . S
N1592 Tb1595 2.600 . S
C1593 C1591 1.392 . S
C1593 N1592 1.327 . S
C1593 H1600 0.930 . S
C1594 C1589 1.385 . S
C1594 C1591 1.370 . S
C1594 H1613 0.930 . S
Tb1595 N1592 2.600 . S
Tb1595 N1596 2.660 . S
Tb1595 O1629 2.362 . S
Tb1595 O1630 2.421 . S
Tb1595 O1634 2.546 . S
Tb1595 O1635 2.610 . S
Tb1595 O1637 2.320 . S
Tb1595 O1638 2.552 . S
Tb1595 O1639 2.413 . S
Tb1595 C1659 2.833 . S
N1596 C1588 1.360 . S
N1596 Tb1595 2.660 . S
N1596 C1597 1.305 . S
C1597 N1596 1.305 . S
C1597 C1599 1.407 . S
C1597 H1604 0.930 . S
C1598 C1586 1.410 . S
C1598 C1599 1.345 . S
C1598 H1606 0.930 . S
C1599 C1597 1.407 . S
C1599 C1598 1.345 . S
C1599 H1601 0.930 . S
H1600 C1593 0.930 . S
H1601 C1599 0.930 . S
H1602 C1590 0.930 . S
H1603 C1591 0.931 . S
H1604 C1597 0.930 . S
H1605 C1619 0.930 . S
H1606 C1598 0.930 . S
H1607 C1625 0.930 . S
H1608 C1616 0.930 . S
H1609 C1623 0.931 . S
H1610 C1587 0.929 . S
H1611 C1617 0.930 . S
H1612 C1650 0.930 . S
H1613 C1594 0.930 . S
H1614 C1649 0.929 . S
N1615 Tb1584 2.660 . S
N1615 C1616 1.305 . S
N1615 C1620 1.360 . S
C1616 H1608 0.930 . S
C1616 N1615 1.305 . S
C1616 C1619 1.407 . S
C1617 H1611 0.930 . S
C1617 C1618 1.410 . S
C1617 C1619 1.345 . S
C1618 C1617 1.410 . S
C1618 C1620 1.417 . S
C1618 C1650 1.432 . S
C1619 H1605 0.930 . S
C1619 C1616 1.407 . S
C1619 C1617 1.345 . S
C1620 N1615 1.360 . S
C1620 C1618 1.417 . S
C1620 C1624 1.432 . S
H1621 C1626 0.930 . S
N1622 Tb1584 2.600 . S
N1622 C1624 1.359 . S
N1622 C1625 1.327 . S
C1623 H1609 0.931 . S
C1623 C1625 1.392 . S
C1623 C1626 1.370 . S
C1624 C1620 1.432 . S
C1624 N1622 1.359 . S
C1624 C1627 1.414 . S
C1625 H1607 0.930 . S
C1625 N1622 1.327 . S
C1625 C1623 1.392 . S
C1626 H1621 0.930 . S
C1626 C1623 1.370 . S
C1626 C1627 1.385 . S
C1627 C1624 1.414 . S
C1627 C1626 1.385 . S
C1627 C1649 1.444 . S
O1628 Tb1584 2.546 . S
O1628 C1648 1.251 . S
O1629 Tb1584 2.610 . S
O1629 Tb1595 2.362 . S
O1629 C1640 1.283 . S
O1630 Tb1595 2.421 . S
O1630 C1647 1.262 . S
O1631 Tb1584 2.320 . S
O1631 C1647 1.260 . S
O1632 Tb1584 2.552 . S
O1632 C1640 1.243 . S
O1633 Tb1584 2.413 . S
O1633 C1648 1.256 . S
O1634 Tb1595 2.546 . S
O1634 C1659 1.251 . S
O1635 Tb1584 2.362 . S
O1635 Tb1595 2.610 . S
O1635 C1651 1.283 . S
O1636 Tb1584 2.421 . S
O1636 C1658 1.262 . S
O1637 Tb1595 2.320 . S
O1637 C1658 1.260 . S
O1638 Tb1595 2.552 . S
O1638 C1651 1.243 . S
O1639 Tb1595 2.413 . S
O1639 C1659 1.256 . S
C1640 O1629 1.283 . S
C1640 O1632 1.243 . S
C1641 C1643 1.382 . S
C1641 C1645 1.393 . S
C1641 C1648 1.500 . S
C1642 C1643 1.400 . S
C1642 C1644 1.384 . S
C1643 C1641 1.382 . S
C1643 C1642 1.400 . S
C1643 H1660 0.930 . S
C1644 C1642 1.384 . S
C1644 C1646 1.392 . S
C1644 H1661 0.931 . S
C1645 C1641 1.393 . S
C1645 C1646 1.401 . S
C1645 H1662 0.930 . S
C1646 C1644 1.392 . S
C1646 C1645 1.401 . S
C1646 H1663 0.930 . S
C1647 O1630 1.262 . S
C1647 O1631 1.260 . S
C1648 Tb1584 2.833 . S
C1648 O1628 1.251 . S
C1648 O1633 1.256 . S
C1648 C1641 1.500 . S
C1649 H1614 0.929 . S
C1649 C1627 1.444 . S
C1649 C1650 1.317 . S
C1650 H1612 0.930 . S
C1650 C1618 1.432 . S
C1650 C1649 1.317 . S
C1651 O1635 1.283 . S
C1651 O1638 1.243 . S
C1652 C1653 1.382 . S
C1652 C1656 1.393 . S
C1652 C1659 1.500 . S
C1653 C1652 1.382 . S
C1653 C1654 1.400 . S
C1653 H1664 0.930 . S
C1654 C1653 1.400 . S
C1654 C1655 1.384 . S
C1655 C1654 1.384 . S
C1655 C1657 1.392 . S
C1655 H1665 0.931 . S
C1656 C1652 1.393 . S
C1656 C1657 1.401 . S
C1656 H1666 0.930 . S
C1657 C1655 1.392 . S
C1657 C1656 1.401 . S
C1657 H1667 0.930 . S
C1658 O1636 1.262 . S
C1658 O1637 1.260 . S
C1659 Tb1595 2.833 . S
C1659 O1634 1.251 . S
C1659 O1639 1.256 . S
C1659 C1652 1.500 . S
H1660 C1643 0.930 . S
H1661 C1644 0.931 . S
H1662 C1645 0.930 . S
H1663 C1646 0.930 . S
H1664 C1653 0.930 . S
H1665 C1655 0.931 . S
H1666 C1656 0.930 . S
H1667 C1657 0.930 . S
Tb1668 N1699 2.660 . S
Tb1668 N1706 2.600 . S
Tb1668 O1712 2.546 . S
Tb1668 O1713 2.610 . S
Tb1668 O1715 2.320 . S
Tb1668 O1716 2.552 . S
Tb1668 O1717 2.413 . S
Tb1668 O1719 2.362 . S
Tb1668 O1720 2.421 . S
Tb1668 C1732 2.833 . S
C1669 C1672 1.432 . S
C1669 C1673 1.414 . S
C1669 N1676 1.359 . S
C1670 C1672 1.417 . S
C1670 C1674 1.432 . S
C1670 C1682 1.410 . S
C1671 C1673 1.444 . S
C1671 C1674 1.317 . S
C1671 H1694 0.929 . S
C1672 C1669 1.432 . S
C1672 C1670 1.417 . S
C1672 N1680 1.360 . S
C1673 C1669 1.414 . S
C1673 C1671 1.444 . S
C1673 C1678 1.385 . S
C1674 C1670 1.432 . S
C1674 C1671 1.317 . S
C1674 H1686 0.930 . S
C1675 C1677 1.392 . S
C1675 C1678 1.370 . S
C1675 H1687 0.931 . S
N1676 C1669 1.359 . S
N1676 C1677 1.327 . S
N1676 Tb1679 2.600 . S
C1677 C1675 1.392 . S
C1677 N1676 1.327 . S
C1677 H1684 0.930 . S
C1678 C1673 1.385 . S
C1678 C1675 1.370 . S
C1678 H1697 0.930 . S
Tb1679 N1676 2.600 . S
Tb1679 N1680 2.660 . S
Tb1679 O1713 2.362 . S
Tb1679 O1714 2.421 . S
Tb1679 O1718 2.546 . S
Tb1679 O1719 2.610 . S
Tb1679 O1721 2.320 . S
Tb1679 O1722 2.552 . S
Tb1679 O1723 2.413 . S
Tb1679 C1743 2.833 . S
N1680 C1672 1.360 . S
N1680 Tb1679 2.660 . S
N1680 C1681 1.305 . S
C1681 N1680 1.305 . S
C1681 C1683 1.407 . S
C1681 H1688 0.930 . S
C1682 C1670 1.410 . S
C1682 C1683 1.345 . S
C1682 H1690 0.930 . S
C1683 C1681 1.407 . S
C1683 C1682 1.345 . S
C1683 H1685 0.930 . S
H1684 C1677 0.930 . S
H1685 C1683 0.930 . S
H1686 C1674 0.930 . S
H1687 C1675 0.931 . S
H1688 C1681 0.930 . S
H1689 C1703 0.930 . S
H1690 C1682 0.930 . S
H1691 C1709 0.930 . S
H1692 C1700 0.930 . S
H1693 C1707 0.931 . S
H1694 C1671 0.929 . S
H1695 C1701 0.930 . S
H1696 C1734 0.930 . S
H1697 C1678 0.930 . S
H1698 C1733 0.929 . S
N1699 Tb1668 2.660 . S
N1699 C1700 1.305 . S
N1699 C1704 1.360 . S
C1700 H1692 0.930 . S
C1700 N1699 1.305 . S
C1700 C1703 1.407 . S
C1701 H1695 0.930 . S
C1701 C1702 1.410 . S
C1701 C1703 1.345 . S
C1702 C1701 1.410 . S
C1702 C1704 1.417 . S
C1702 C1734 1.432 . S
C1703 H1689 0.930 . S
C1703 C1700 1.407 . S
C1703 C1701 1.345 . S
C1704 N1699 1.360 . S
C1704 C1702 1.417 . S
C1704 C1708 1.432 . S
H1705 C1710 0.930 . S
N1706 Tb1668 2.600 . S
N1706 C1708 1.359 . S
N1706 C1709 1.327 . S
C1707 H1693 0.931 . S
C1707 C1709 1.392 . S
C1707 C1710 1.370 . S
C1708 C1704 1.432 . S
C1708 N1706 1.359 . S
C1708 C1711 1.414 . S
C1709 H1691 0.930 . S
C1709 N1706 1.327 . S
C1709 C1707 1.392 . S
C1710 H1705 0.930 . S
C1710 C1707 1.370 . S
C1710 C1711 1.385 . S
C1711 C1708 1.414 . S
C1711 C1710 1.385 . S
C1711 C1733 1.444 . S
O1712 Tb1668 2.546 . S
O1712 C1732 1.251 . S
O1713 Tb1668 2.610 . S
O1713 Tb1679 2.362 . S
O1713 C1724 1.283 . S
O1714 Tb1679 2.421 . S
O1714 C1731 1.262 . S
O1715 Tb1668 2.320 . S
O1715 C1731 1.260 . S
O1716 Tb1668 2.552 . S
O1716 C1724 1.243 . S
O1717 Tb1668 2.413 . S
O1717 C1732 1.256 . S
O1718 Tb1679 2.546 . S
O1718 C1743 1.251 . S
O1719 Tb1668 2.362 . S
O1719 Tb1679 2.610 . S
O1719 C1735 1.283 . S
O1720 Tb1668 2.421 . S
O1720 C1742 1.262 . S
O1721 Tb1679 2.320 . S
O1721 C1742 1.260 . S
O1722 Tb1679 2.552 . S
O1722 C1735 1.243 . S
O1723 Tb1679 2.413 . S
O1723 C1743 1.256 . S
C1724 O1713 1.283 . S
C1724 O1716 1.243 . S
C1725 C1727 1.382 . S
C1725 C1729 1.393 . S
C1725 C1732 1.500 . S
C1726 C1727 1.400 . S
C1726 C1728 1.384 . S
C1727 C1725 1.382 . S
C1727 C1726 1.400 . S
C1727 H1744 0.930 . S
C1728 C1726 1.384 . S
C1728 C1730 1.392 . S
C1728 H1745 0.931 . S
C1729 C1725 1.393 . S
C1729 C1730 1.401 . S
C1729 H1746 0.930 . S
C1730 C1728 1.392 . S
C1730 C1729 1.401 . S
C1730 H1747 0.930 . S
C1731 O1714 1.262 . S
C1731 O1715 1.260 . S
C1732 Tb1668 2.833 . S
C1732 O1712 1.251 . S
C1732 O1717 1.256 . S
C1732 C1725 1.500 . S
C1733 H1698 0.929 . S
C1733 C1711 1.444 . S
C1733 C1734 1.317 . S
C1734 H1696 0.930 . S
C1734 C1702 1.432 . S
C1734 C1733 1.317 . S
C1735 O1719 1.283 . S
C1735 O1722 1.243 . S
C1736 C1737 1.382 . S
C1736 C1740 1.393 . S
C1736 C1743 1.500 . S
C1737 C1736 1.382 . S
C1737 C1738 1.400 . S
C1737 H1748 0.930 . S
C1738 C1737 1.400 . S
C1738 C1739 1.384 . S
C1739 C1738 1.384 . S
C1739 C1741 1.392 . S
C1739 H1749 0.931 . S
C1740 C1736 1.393 . S
C1740 C1741 1.401 . S
C1740 H1750 0.930 . S
C1741 C1739 1.392 . S
C1741 C1740 1.401 . S
C1741 H1751 0.930 . S
C1742 O1720 1.262 . S
C1742 O1721 1.260 . S
C1743 Tb1679 2.833 . S
C1743 O1718 1.251 . S
C1743 O1723 1.256 . S
C1743 C1736 1.500 . S
H1744 C1727 0.930 . S
H1745 C1728 0.931 . S
H1746 C1729 0.930 . S
H1747 C1730 0.930 . S
H1748 C1737 0.930 . S
H1749 C1739 0.931 . S
H1750 C1740 0.930 . S
H1751 C1741 0.930 . S
Tb1752 N1783 2.660 . S
Tb1752 N1790 2.600 . S
Tb1752 O1796 2.546 . S
Tb1752 O1797 2.610 . S
Tb1752 O1799 2.320 . S
Tb1752 O1800 2.552 . S
Tb1752 O1801 2.413 . S
Tb1752 O1803 2.362 . S
Tb1752 O1804 2.421 . S
Tb1752 C1816 2.833 . S
C1753 C1756 1.432 . S
C1753 C1757 1.414 . S
C1753 N1760 1.359 . S
C1754 C1756 1.417 . S
C1754 C1758 1.432 . S
C1754 C1766 1.410 . S
C1755 C1757 1.444 . S
C1755 C1758 1.317 . S
C1755 H1778 0.929 . S
C1756 C1753 1.432 . S
C1756 C1754 1.417 . S
C1756 N1764 1.360 . S
C1757 C1753 1.414 . S
C1757 C1755 1.444 . S
C1757 C1762 1.385 . S
C1758 C1754 1.432 . S
C1758 C1755 1.317 . S
C1758 H1770 0.930 . S
C1759 C1761 1.392 . S
C1759 C1762 1.370 . S
C1759 H1771 0.931 . S
N1760 C1753 1.359 . S
N1760 C1761 1.327 . S
N1760 Tb1763 2.600 . S
C1761 C1759 1.392 . S
C1761 N1760 1.327 . S
C1761 H1768 0.930 . S
C1762 C1757 1.385 . S
C1762 C1759 1.370 . S
C1762 H1781 0.930 . S
Tb1763 N1760 2.600 . S
Tb1763 N1764 2.660 . S
Tb1763 O1797 2.362 . S
Tb1763 O1798 2.421 . S
Tb1763 O1802 2.546 . S
Tb1763 O1803 2.610 . S
Tb1763 O1805 2.320 . S
Tb1763 O1806 2.552 . S
Tb1763 O1807 2.413 . S
Tb1763 C1827 2.833 . S
N1764 C1756 1.360 . S
N1764 Tb1763 2.660 . S
N1764 C1765 1.305 . S
C1765 N1764 1.305 . S
C1765 C1767 1.407 . S
C1765 H1772 0.930 . S
C1766 C1754 1.410 . S
C1766 C1767 1.345 . S
C1766 H1774 0.930 . S
C1767 C1765 1.407 . S
C1767 C1766 1.345 . S
C1767 H1769 0.930 . S
H1768 C1761 0.930 . S
H1769 C1767 0.930 . S
H1770 C1758 0.930 . S
H1771 C1759 0.931 . S
H1772 C1765 0.930 . S
H1773 C1787 0.930 . S
H1774 C1766 0.930 . S
H1775 C1793 0.930 . S
H1776 C1784 0.930 . S
H1777 C1791 0.931 . S
H1778 C1755 0.929 . S
H1779 C1785 0.930 . S
H1780 C1818 0.930 . S
H1781 C1762 0.930 . S
H1782 C1817 0.929 . S
N1783 Tb1752 2.660 . S
N1783 C1784 1.305 . S
N1783 C1788 1.360 . S
C1784 H1776 0.930 . S
C1784 N1783 1.305 . S
C1784 C1787 1.407 . S
C1785 H1779 0.930 . S
C1785 C1786 1.410 . S
C1785 C1787 1.345 . S
C1786 C1785 1.410 . S
C1786 C1788 1.417 . S
C1786 C1818 1.432 . S
C1787 H1773 0.930 . S
C1787 C1784 1.407 . S
C1787 C1785 1.345 . S
C1788 N1783 1.360 . S
C1788 C1786 1.417 . S
C1788 C1792 1.432 . S
H1789 C1794 0.930 . S
N1790 Tb1752 2.600 . S
N1790 C1792 1.359 . S
N1790 C1793 1.327 . S
C1791 H1777 0.931 . S
C1791 C1793 1.392 . S
C1791 C1794 1.370 . S
C1792 C1788 1.432 . S
C1792 N1790 1.359 . S
C1792 C1795 1.414 . S
C1793 H1775 0.930 . S
C1793 N1790 1.327 . S
C1793 C1791 1.392 . S
C1794 H1789 0.930 . S
C1794 C1791 1.370 . S
C1794 C1795 1.385 . S
C1795 C1792 1.414 . S
C1795 C1794 1.385 . S
C1795 C1817 1.444 . S
O1796 Tb1752 2.546 . S
O1796 C1816 1.251 . S
O1797 Tb1752 2.610 . S
O1797 Tb1763 2.362 . S
O1797 C1808 1.283 . S
O1798 Tb1763 2.421 . S
O1798 C1815 1.262 . S
O1799 Tb1752 2.320 . S
O1799 C1815 1.260 . S
O1800 Tb1752 2.552 . S
O1800 C1808 1.243 . S
O1801 Tb1752 2.413 . S
O1801 C1816 1.256 . S
O1802 Tb1763 2.546 . S
O1802 C1827 1.251 . S
O1803 Tb1752 2.362 . S
O1803 Tb1763 2.610 . S
O1803 C1819 1.283 . S
O1804 Tb1752 2.421 . S
O1804 C1826 1.262 . S
O1805 Tb1763 2.320 . S
O1805 C1826 1.260 . S
O1806 Tb1763 2.552 . S
O1806 C1819 1.243 . S
O1807 Tb1763 2.413 . S
O1807 C1827 1.256 . S
C1808 O1797 1.283 . S
C1808 O1800 1.243 . S
C1809 C1811 1.382 . S
C1809 C1813 1.393 . S
C1809 C1816 1.500 . S
C1810 C1811 1.400 . S
C1810 C1812 1.384 . S
C1811 C1809 1.382 . S
C1811 C1810 1.400 . S
C1811 H1828 0.930 . S
C1812 C1810 1.384 . S
C1812 C1814 1.392 . S
C1812 H1829 0.931 . S
C1813 C1809 1.393 . S
C1813 C1814 1.401 . S
C1813 H1830 0.930 . S
C1814 C1812 1.392 . S
C1814 C1813 1.401 . S
C1814 H1831 0.930 . S
C1815 O1798 1.262 . S
C1815 O1799 1.260 . S
C1816 Tb1752 2.833 . S
C1816 O1796 1.251 . S
C1816 O1801 1.256 . S
C1816 C1809 1.500 . S
C1817 H1782 0.929 . S
C1817 C1795 1.444 . S
C1817 C1818 1.317 . S
C1818 H1780 0.930 . S
C1818 C1786 1.432 . S
C1818 C1817 1.317 . S
C1819 O1803 1.283 . S
C1819 O1806 1.243 . S
C1820 C1821 1.382 . S
C1820 C1824 1.393 . S
C1820 C1827 1.500 . S
C1821 C1820 1.382 . S
C1821 C1822 1.400 . S
C1821 H1832 0.930 . S
C1822 C1821 1.400 . S
C1822 C1823 1.384 . S
C1823 C1822 1.384 . S
C1823 C1825 1.392 . S
C1823 H1833 0.931 . S
C1824 C1820 1.393 . S
C1824 C1825 1.401 . S
C1824 H1834 0.930 . S
C1825 C1823 1.392 . S
C1825 C1824 1.401 . S
C1825 H1835 0.930 . S
C1826 O1804 1.262 . S
C1826 O1805 1.260 . S
C1827 Tb1763 2.833 . S
C1827 O1802 1.251 . S
C1827 O1807 1.256 . S
C1827 C1820 1.500 . S
H1828 C1811 0.930 . S
H1829 C1812 0.931 . S
H1830 C1813 0.930 . S
H1831 C1814 0.930 . S
H1832 C1821 0.930 . S
H1833 C1823 0.931 . S
H1834 C1824 0.930 . S
H1835 C1825 0.930 . S
C1836 C1837 1.391 . S
C1836 C1838 1.394 . S
C1836 H1852 0.931 . S
C1837 C1836 1.391 . S
C1837 C1841 1.376 . S
C1838 C1836 1.394 . S
C1838 C1839 1.369 . S
C1838 C1842 1.531 . S
C1839 C1838 1.369 . S
C1839 C1840 1.410 . S
C1839 C1847 1.503 . S
C1840 C1839 1.410 . S
C1840 C1841 1.392 . S
C1840 C1843 1.511 . S
C1841 C1837 1.376 . S
C1841 C1840 1.392 . S
C1841 H1853 0.929 . S
C1842 C1838 1.531 . S
C1842 H1854 0.960 . S
C1842 H1855 0.962 . S
C1842 H1856 0.960 . S
C1843 C1840 1.511 . S
C1843 H1857 0.961 . S
C1843 H1858 0.961 . S
C1843 H1859 0.961 . S
C1844 C1845 1.370 . S
C1844 C1846 1.363 . S
C1844 H1860 0.931 . S
C1845 C1844 1.370 . S
C1845 C1849 1.408 . S
C1846 C1844 1.363 . S
C1846 C1847 1.370 . S
C1846 C1850 1.524 . S
C1847 C1839 1.503 . S
C1847 C1846 1.370 . S
C1847 C1848 1.403 . S
C1848 C1847 1.403 . S
C1848 C1849 1.404 . S
C1848 C1851 1.539 . S
C1849 C1845 1.408 . S
C1849 C1848 1.404 . S
C1849 H1861 0.930 . S
C1850 C1846 1.524 . S
C1850 H1862 0.956 . S
C1850 H1863 0.961 . S
C1850 H1864 0.961 . S
C1851 C1848 1.539 . S
C1851 H1865 0.998 . S
C1851 H1866 0.961 . S
C1851 H1867 0.960 . S
H1852 C1836 0.931 . S
H1853 C1841 0.929 . S
H1854 C1842 0.960 . S
H1855 C1842 0.962 . S
H1856 C1842 0.960 . S
H1857 C1843 0.961 . S
H1858 C1843 0.961 . S
H1859 C1843 0.961 . S
H1860 C1844 0.931 . S
H1861 C1849 0.930 . S
H1862 C1850 0.956 . S
H1863 C1850 0.961 . S
H1864 C1850 0.961 . S
H1865 C1851 0.998 . S
H1866 C1851 0.961 . S
H1867 C1851 0.960 . S
C1868 C1869 1.391 . S
C1868 C1870 1.394 . S
C1868 H1884 0.931 . S
C1869 C1868 1.391 . S
C1869 C1873 1.376 . S
C1870 C1868 1.394 . S
C1870 C1871 1.369 . S
C1870 C1874 1.531 . S
C1871 C1870 1.369 . S
C1871 C1872 1.410 . S
C1871 C1879 1.503 . S
C1872 C1871 1.410 . S
C1872 C1873 1.392 . S
C1872 C1875 1.511 . S
C1873 C1869 1.376 . S
C1873 C1872 1.392 . S
C1873 H1885 0.929 . S
C1874 C1870 1.531 . S
C1874 H1886 0.960 . S
C1874 H1887 0.962 . S
C1874 H1888 0.960 . S
C1875 C1872 1.511 . S
C1875 H1889 0.961 . S
C1875 H1890 0.961 . S
C1875 H1891 0.961 . S
C1876 C1877 1.370 . S
C1876 C1878 1.363 . S
C1876 H1892 0.931 . S
C1877 C1876 1.370 . S
C1877 C1881 1.408 . S
C1878 C1876 1.363 . S
C1878 C1879 1.370 . S
C1878 C1882 1.524 . S
C1879 C1871 1.503 . S
C1879 C1878 1.370 . S
C1879 C1880 1.403 . S
C1880 C1879 1.403 . S
C1880 C1881 1.404 . S
C1880 C1883 1.539 . S
C1881 C1877 1.408 . S
C1881 C1880 1.404 . S
C1881 H1893 0.930 . S
C1882 C1878 1.524 . S
C1882 H1894 0.956 . S
C1882 H1895 0.961 . S
C1882 H1896 0.961 . S
C1883 C1880 1.539 . S
C1883 H1897 0.958 . S
C1883 H1898 0.961 . S
C1883 H1899 0.960 . S
H1884 C1868 0.931 . S
H1885 C1873 0.929 . S
H1886 C1874 0.960 . S
H1887 C1874 0.962 . S
H1888 C1874 0.960 . S
H1889 C1875 0.961 . S
H1890 C1875 0.961 . S
H1891 C1875 0.961 . S
H1892 C1876 0.931 . S
H1893 C1881 0.930 . S
H1894 C1882 0.956 . S
H1895 C1882 0.961 . S
H1896 C1882 0.961 . S
H1897 C1883 0.958 . S
H1898 C1883 0.961 . S
H1899 C1883 0.960 . S
C1900 C1901 1.391 . S
C1900 C1902 1.394 . S
C1900 H1916 0.931 . S
C1901 C1900 1.391 . S
C1901 C1905 1.376 . S
C1902 C1900 1.394 . S
C1902 C1903 1.369 . S
C1902 C1906 1.531 . S
C1903 C1902 1.369 . S
C1903 C1904 1.410 . S
C1903 C1911 1.503 . S
C1904 C1903 1.410 . S
C1904 C1905 1.392 . S
C1904 C1907 1.511 . S
C1905 C1901 1.376 . S
C1905 C1904 1.392 . S
C1905 H1917 0.929 . S
C1906 C1902 1.531 . S
C1906 H1918 0.960 . S
C1906 H1919 0.962 . S
C1906 H1920 0.960 . S
C1907 C1904 1.511 . S
C1907 H1921 0.961 . S
C1907 H1922 0.961 . S
C1907 H1923 0.961 . S
C1908 C1909 1.370 . S
C1908 C1910 1.363 . S
C1908 H1924 0.931 . S
C1909 C1908 1.370 . S
C1909 C1913 1.408 . S
C1910 C1908 1.363 . S
C1910 C1911 1.370 . S
C1910 C1914 1.524 . S
C1911 C1903 1.503 . S
C1911 C1910 1.370 . S
C1911 C1912 1.403 . S
C1912 C1911 1.403 . S
C1912 C1913 1.404 . S
C1912 C1915 1.537 1_554 S
C1913 C1909 1.408 . S
C1913 C1912 1.404 . S
C1913 H1925 0.930 1_554 S
C1914 C1910 1.524 . S
C1914 H1926 0.956 . S
C1914 H1927 0.961 . S
C1914 H1928 0.961 . S
C1915 C1912 1.537 1_556 S
C1915 H1929 0.958 . S
C1915 H1930 0.964 . S
C1915 H1931 0.959 1_556 S
H1916 C1900 0.931 . S
H1917 C1905 0.929 . S
H1918 C1906 0.960 . S
H1919 C1906 0.962 . S
H1920 C1906 0.960 . S
H1921 C1907 0.961 . S
H1922 C1907 0.961 . S
H1923 C1907 0.961 . S
H1924 C1908 0.931 . S
H1925 C1913 0.930 1_556 S
H1926 C1914 0.956 . S
H1927 C1914 0.961 . S
H1928 C1914 0.961 . S
H1929 C1915 0.958 . S
H1930 C1915 0.964 . S
H1931 C1915 0.959 1_554 S
C1932 C1933 1.391 . S
C1932 C1934 1.394 . S
C1932 H1948 0.931 . S
C1933 C1932 1.391 . S
C1933 C1937 1.376 . S
C1934 C1932 1.394 . S
C1934 C1935 1.369 . S
C1934 C1938 1.531 . S
C1935 C1934 1.369 . S
C1935 C1936 1.410 . S
C1935 C1943 1.503 . S
C1936 C1935 1.410 . S
C1936 C1937 1.392 . S
C1936 C1939 1.511 . S
C1937 C1933 1.376 . S
C1937 C1936 1.392 . S
C1937 H1949 0.929 . S
C1938 C1934 1.531 . S
C1938 H1950 0.960 . S
C1938 H1951 0.962 . S
C1938 H1952 0.960 . S
C1939 C1936 1.511 . S
C1939 H1953 0.961 . S
C1939 H1954 0.961 . S
C1939 H1955 0.961 . S
C1940 C1941 1.370 . S
C1940 C1942 1.363 . S
C1940 H1956 0.931 . S
C1941 C1940 1.370 . S
C1941 C1945 1.408 . S
C1942 C1940 1.363 . S
C1942 C1943 1.370 . S
C1942 C1946 1.524 . S
C1943 C1935 1.503 . S
C1943 C1942 1.370 . S
C1943 C1944 1.403 . S
C1944 C1943 1.403 . S
C1944 C1945 1.404 . S
C1944 C1947 1.539 . S
C1945 C1941 1.408 . S
C1945 C1944 1.404 . S
C1945 H1957 0.930 . S
C1946 C1942 1.524 . S
C1946 H1958 0.956 . S
C1946 H1959 0.961 . S
C1946 H1960 0.961 . S
C1947 C1944 1.539 . S
C1947 H1961 0.958 . S
C1947 H1962 0.961 . S
C1947 H1963 0.960 . S
H1948 C1932 0.931 . S
H1949 C1937 0.929 . S
H1950 C1938 0.960 . S
H1951 C1938 0.962 . S
H1952 C1938 0.960 . S
H1953 C1939 0.961 . S
H1954 C1939 0.961 . S
H1955 C1939 0.961 . S
H1956 C1940 0.931 . S
H1957 C1945 0.930 . S
H1958 C1946 0.956 . S
H1959 C1946 0.961 . S
H1960 C1946 0.961 . S
H1961 C1947 0.958 . S
H1962 C1947 0.961 . S
H1963 C1947 0.960 . S
C1964 C1965 1.391 . S
C1964 C1966 1.394 . S
C1964 H1980 0.931 . S
C1965 C1964 1.391 . S
C1965 C1969 1.376 . S
C1966 C1964 1.394 . S
C1966 C1967 1.369 . S
C1966 C1970 1.531 . S
C1967 C1966 1.369 . S
C1967 C1968 1.410 . S
C1967 C1975 1.503 . S
C1968 C1967 1.410 . S
C1968 C1969 1.392 . S
C1968 C1971 1.511 . S
C1969 C1965 1.376 . S
C1969 C1968 1.392 . S
C1969 H1981 0.929 . S
C1970 C1966 1.531 . S
C1970 H1982 0.960 . S
C1970 H1983 0.962 . S
C1970 H1984 0.960 . S
C1971 C1968 1.511 . S
C1971 H1985 0.961 . S
C1971 H1986 0.961 . S
C1971 H1987 0.961 . S
C1972 C1973 1.370 . S
C1972 C1974 1.363 . S
C1972 H1988 0.931 . S
C1973 C1972 1.370 . S
C1973 C1977 1.408 . S
C1974 C1972 1.363 . S
C1974 C1975 1.370 . S
C1974 C1978 1.524 . S
C1975 C1967 1.503 . S
C1975 C1974 1.370 . S
C1975 C1976 1.403 . S
C1976 C1975 1.403 . S
C1976 C1977 1.404 . S
C1976 C1979 1.539 . S
C1977 C1973 1.408 . S
C1977 C1976 1.404 . S
C1977 H1989 0.930 . S
C1978 C1974 1.524 . S
C1978 H1990 0.956 . S
C1978 H1991 0.961 . S
C1978 H1992 0.961 . S
C1979 C1976 1.539 . S
C1979 H1993 0.958 . S
C1979 H1994 0.961 . S
C1979 H1995 0.960 . S
H1980 C1964 0.931 . S
H1981 C1969 0.929 . S
H1982 C1970 0.960 . S
H1983 C1970 0.962 . S
H1984 C1970 0.960 . S
H1985 C1971 0.961 . S
H1986 C1971 0.961 . S
H1987 C1971 0.961 . S
H1988 C1972 0.931 . S
H1989 C1977 0.930 . S
H1990 C1978 0.956 . S
H1991 C1978 0.961 . S
H1992 C1978 0.961 . S
H1993 C1979 0.958 . S
H1994 C1979 0.961 . S
H1995 C1979 0.960 . S
C1996 C1997 1.391 . S
C1996 C1998 1.394 . S
C1996 H2012 0.931 . S
C1997 C1996 1.391 . S
C1997 C2001 1.376 . S
C1998 C1996 1.394 . S
C1998 C1999 1.369 . S
C1998 C2002 1.531 . S
C1999 C1998 1.369 . S
C1999 C2000 1.410 . S
C1999 C2007 1.503 . S
C2000 C1999 1.410 . S
C2000 C2001 1.392 . S
C2000 C2003 1.511 . S
C2001 C1997 1.376 . S
C2001 C2000 1.392 . S
C2001 H2013 0.929 . S
C2002 C1998 1.531 . S
C2002 H2014 0.960 . S
C2002 H2015 0.962 . S
C2002 H2016 0.960 . S
C2003 C2000 1.511 . S
C2003 H2017 0.961 . S
C2003 H2018 0.961 . S
C2003 H2019 0.956 1_556 S
C2004 C2005 1.370 . S
C2004 C2006 1.363 . S
C2004 H2020 0.931 . S
C2005 C2004 1.370 . S
C2005 C2009 1.408 . S
C2006 C2004 1.363 . S
C2006 C2007 1.370 . S
C2006 C2010 1.524 . S
C2007 C1999 1.503 . S
C2007 C2006 1.370 . S
C2007 C2008 1.403 . S
C2008 C2007 1.403 . S
C2008 C2009 1.404 . S
C2008 C2011 1.539 . S
C2009 C2005 1.408 . S
C2009 C2008 1.404 . S
C2009 H2021 0.932 1_556 S
C2010 C2006 1.524 . S
C2010 H2022 0.956 . S
C2010 H2023 0.961 . S
C2010 H2024 0.961 . S
C2011 C2008 1.539 . S
C2011 H2025 0.958 . S
C2011 H2026 0.961 1_556 S
C2011 H2027 0.960 . S
H2012 C1996 0.931 . S
H2013 C2001 0.929 . S
H2014 C2002 0.960 . S
H2015 C2002 0.962 . S
H2016 C2002 0.960 . S
H2017 C2003 0.961 . S
H2018 C2003 0.961 . S
H2019 C2003 0.956 1_554 S
H2020 C2004 0.931 . S
H2021 C2009 0.932 1_554 S
H2022 C2010 0.956 . S
H2023 C2010 0.961 . S
H2024 C2010 0.961 . S
H2025 C2011 0.958 . S
H2026 C2011 0.961 1_554 S
H2027 C2011 0.960 . S
C2028 C2029 1.391 . S
C2028 C2030 1.394 . S
C2028 H2044 0.931 . S
C2029 C2028 1.391 . S
C2029 C2033 1.376 . S
C2030 C2028 1.394 . S
C2030 C2031 1.369 . S
C2030 C2034 1.531 . S
C2031 C2030 1.369 . S
C2031 C2032 1.410 . S
C2031 C2039 1.503 . S
C2032 C2031 1.410 . S
C2032 C2033 1.392 . S
C2032 C2035 1.511 . S
C2033 C2029 1.376 . S
C2033 C2032 1.392 . S
C2033 H2045 0.929 . S
C2034 C2030 1.531 . S
C2034 H2046 0.960 . S
C2034 H2047 0.962 . S
C2034 H2048 0.960 . S
C2035 C2032 1.511 . S
C2035 H2049 0.961 . S
C2035 H2050 0.961 . S
C2035 H2051 0.961 . S
C2036 C2037 1.370 . S
C2036 C2038 1.363 . S
C2036 H2052 0.931 . S
C2037 C2036 1.370 . S
C2037 C2041 1.408 . S
C2038 C2036 1.363 . S
C2038 C2039 1.370 . S
C2038 C2042 1.524 . S
C2039 C2031 1.503 . S
C2039 C2038 1.370 . S
C2039 C2040 1.403 . S
C2040 C2039 1.403 . S
C2040 C2041 1.404 . S
C2040 C2043 1.539 . S
C2041 C2037 1.408 . S
C2041 C2040 1.404 . S
C2041 H2053 0.930 . S
C2042 C2038 1.524 . S
C2042 H2054 0.956 . S
C2042 H2055 0.961 . S
C2042 H2056 0.961 . S
C2043 C2040 1.539 . S
C2043 H2057 0.958 . S
C2043 H2058 0.961 . S
C2043 H2059 0.960 . S
H2044 C2028 0.931 . S
H2045 C2033 0.929 . S
H2046 C2034 0.960 . S
H2047 C2034 0.962 . S
H2048 C2034 0.960 . S
H2049 C2035 0.961 . S
H2050 C2035 0.961 . S
H2051 C2035 0.961 . S
H2052 C2036 0.931 . S
H2053 C2041 0.930 . S
H2054 C2042 0.956 . S
H2055 C2042 0.961 . S
H2056 C2042 0.961 . S
H2057 C2043 0.958 . S
H2058 C2043 0.961 . S
H2059 C2043 0.960 . S
C2060 C2061 1.391 . S
C2060 C2062 1.394 . S
C2060 H2076 0.931 . S
C2061 C2060 1.391 . S
C2061 C2065 1.376 . S
C2062 C2060 1.394 . S
C2062 C2063 1.369 . S
C2062 C2066 1.531 . S
C2063 C2062 1.369 . S
C2063 C2064 1.410 . S
C2063 C2071 1.503 . S
C2064 C2063 1.410 . S
C2064 C2065 1.392 . S
C2064 C2067 1.511 . S
C2065 C2061 1.376 . S
C2065 C2064 1.392 . S
C2065 H2077 0.929 . S
C2066 C2062 1.531 . S
C2066 H2078 0.960 . S
C2066 H2079 0.962 . S
C2066 H2080 0.960 . S
C2067 C2064 1.511 . S
C2067 H2081 0.961 . S
C2067 H2082 0.961 . S
C2067 H2083 0.961 . S
C2068 C2069 1.370 . S
C2068 C2070 1.363 . S
C2068 H2084 0.931 . S
C2069 C2068 1.370 . S
C2069 C2073 1.408 . S
C2070 C2068 1.363 . S
C2070 C2071 1.370 . S
C2070 C2074 1.524 . S
C2071 C2063 1.503 . S
C2071 C2070 1.370 . S
C2071 C2072 1.403 . S
C2072 C2071 1.403 . S
C2072 C2073 1.404 . S
C2072 C2075 1.539 . S
C2073 C2069 1.408 . S
C2073 C2072 1.404 . S
C2073 H2085 0.930 . S
C2074 C2070 1.524 . S
C2074 H2086 0.956 . S
C2074 H2087 0.961 . S
C2074 H2088 0.961 . S
C2075 C2072 1.539 . S
C2075 H2089 0.958 . S
C2075 H2090 0.961 . S
C2075 H2091 0.960 . S
H2076 C2060 0.931 . S
H2077 C2065 0.929 . S
H2078 C2066 0.960 . S
H2079 C2066 0.962 . S
H2080 C2066 0.960 . S
H2081 C2067 0.961 . S
H2082 C2067 0.961 . S
H2083 C2067 0.961 . S
H2084 C2068 0.931 . S
H2085 C2073 0.930 . S
H2086 C2074 0.956 . S
H2087 C2074 0.961 . S
H2088 C2074 0.961 . S
H2089 C2075 0.958 . S
H2090 C2075 0.961 . S
H2091 C2075 0.960 . S
C2092 C2093 1.391 . S
C2092 C2094 1.394 . S
C2092 H2108 0.931 . S
C2093 C2092 1.391 . S
C2093 C2097 1.376 . S
C2094 C2092 1.394 . S
C2094 C2095 1.369 . S
C2094 C2098 1.531 . S
C2095 C2094 1.369 . S
C2095 C2096 1.410 . S
C2095 C2103 1.503 . S
C2096 C2095 1.410 . S
C2096 C2097 1.392 . S
C2096 C2099 1.511 . S
C2097 C2093 1.376 . S
C2097 C2096 1.392 . S
C2097 H2109 0.929 . S
C2098 C2094 1.531 . S
C2098 H2110 0.960 . S
C2098 H2111 0.962 . S
C2098 H2112 0.960 . S
C2099 C2096 1.511 . S
C2099 H2113 0.961 . S
C2099 H2114 0.961 . S
C2099 H2115 0.961 . S
C2100 C2101 1.370 . S
C2100 C2102 1.363 . S
C2100 H2116 0.931 . S
C2101 C2100 1.370 . S
C2101 C2105 1.408 . S
C2102 C2100 1.363 . S
C2102 C2103 1.370 . S
C2102 C2106 1.524 . S
C2103 C2095 1.503 . S
C2103 C2102 1.370 . S
C2103 C2104 1.403 . S
C2104 C2103 1.403 . S
C2104 C2105 1.404 . S
C2104 C2107 1.539 1_556 S
C2105 C2101 1.408 . S
C2105 C2104 1.404 . S
C2105 H2117 0.930 1_556 S
C2106 C2102 1.524 . S
C2106 H2118 0.956 . S
C2106 H2119 0.961 . S
C2106 H2120 0.961 . S
C2107 C2104 1.539 1_554 S
C2107 H2121 0.958 . S
C2107 H2122 0.961 . S
C2107 H2123 0.976 . S
H2108 C2092 0.931 . S
H2109 C2097 0.929 . S
H2110 C2098 0.960 . S
H2111 C2098 0.962 . S
H2112 C2098 0.960 . S
H2113 C2099 0.961 . S
H2114 C2099 0.961 . S
H2115 C2099 0.961 . S
H2116 C2100 0.931 . S
H2117 C2105 0.930 1_554 S
H2118 C2106 0.956 . S
H2119 C2106 0.961 . S
H2120 C2106 0.961 . S
H2121 C2107 0.958 . S
H2122 C2107 0.961 . S
H2123 C2107 0.976 . S
C2124 C2125 1.391 . S
C2124 C2126 1.394 . S
C2124 H2140 0.931 . S
C2125 C2124 1.391 . S
C2125 C2129 1.376 . S
C2126 C2124 1.394 . S
C2126 C2127 1.369 . S
C2126 C2130 1.531 . S
C2127 C2126 1.369 . S
C2127 C2128 1.410 . S
C2127 C2135 1.503 . S
C2128 C2127 1.410 . S
C2128 C2129 1.392 . S
C2128 C2131 1.511 . S
C2129 C2125 1.376 . S
C2129 C2128 1.392 . S
C2129 H2141 0.929 . S
C2130 C2126 1.531 . S
C2130 H2142 0.960 . S
C2130 H2143 0.962 . S
C2130 H2144 0.960 . S
C2131 C2128 1.511 . S
C2131 H2145 0.961 . S
C2131 H2146 0.961 . S
C2131 H2147 0.961 . S
C2132 C2133 1.370 . S
C2132 C2134 1.363 . S
C2132 H2148 0.931 . S
C2133 C2132 1.370 . S
C2133 C2137 1.408 . S
C2134 C2132 1.363 . S
C2134 C2135 1.370 . S
C2134 C2138 1.524 . S
C2135 C2127 1.503 . S
C2135 C2134 1.370 . S
C2135 C2136 1.403 . S
C2136 C2135 1.403 . S
C2136 C2137 1.404 . S
C2136 C2139 1.539 . S
C2137 C2133 1.408 . S
C2137 C2136 1.404 . S
C2137 H2149 0.930 . S
C2138 C2134 1.524 . S
C2138 H2150 0.956 . S
C2138 H2151 0.961 . S
C2138 H2152 0.890 1_554 S
C2139 C2136 1.539 . S
C2139 H2153 0.958 . S
C2139 H2154 0.961 . S
C2139 H2155 0.960 . S
H2140 C2124 0.931 . S
H2141 C2129 0.929 . S
H2142 C2130 0.960 . S
H2143 C2130 0.962 . S
H2144 C2130 0.960 . S
H2145 C2131 0.961 . S
H2146 C2131 0.961 . S
H2147 C2131 0.961 . S
H2148 C2132 0.931 . S
H2149 C2137 0.930 . S
H2150 C2138 0.956 . S
H2151 C2138 0.961 . S
H2152 C2138 0.890 1_556 S
H2153 C2139 0.958 . S
H2154 C2139 0.961 . S
H2155 C2139 0.960 . S
C2156 C2157 1.391 . S
C2156 C2158 1.394 . S
C2156 H2172 0.931 . S
C2157 C2156 1.391 . S
C2157 C2161 1.376 . S
C2158 C2156 1.394 . S
C2158 C2159 1.369 . S
C2158 C2162 1.531 . S
C2159 C2158 1.369 . S
C2159 C2160 1.410 . S
C2159 C2167 1.503 . S
C2160 C2159 1.410 . S
C2160 C2161 1.392 . S
C2160 C2163 1.511 . S
C2161 C2157 1.376 . S
C2161 C2160 1.392 . S
C2161 H2173 0.929 . S
C2162 C2158 1.531 . S
C2162 H2174 0.960 . S
C2162 H2175 0.962 . S
C2162 H2176 0.960 . S
C2163 C2160 1.511 . S
C2163 H2177 0.961 . S
C2163 H2178 0.961 . S
C2163 H2179 0.961 . S
C2164 C2165 1.370 . S
C2164 C2166 1.363 . S
C2164 H2180 0.931 . S
C2165 C2164 1.370 . S
C2165 C2169 1.408 . S
C2166 C2164 1.363 . S
C2166 C2167 1.370 . S
C2166 C2170 1.524 . S
C2167 C2159 1.503 . S
C2167 C2166 1.370 . S
C2167 C2168 1.403 . S
C2168 C2167 1.403 . S
C2168 C2169 1.404 . S
C2168 C2171 1.539 . S
C2169 C2165 1.408 . S
C2169 C2168 1.404 . S
C2169 H2181 0.930 . S
C2170 C2166 1.524 . S
C2170 H2182 0.956 . S
C2170 H2183 0.961 . S
C2170 H2184 0.961 . S
C2171 C2168 1.539 . S
C2171 H2185 0.958 . S
C2171 H2186 0.961 . S
C2171 H2187 0.960 . S
H2172 C2156 0.931 . S
H2173 C2161 0.929 . S
H2174 C2162 0.960 . S
H2175 C2162 0.962 . S
H2176 C2162 0.960 . S
H2177 C2163 0.961 . S
H2178 C2163 0.961 . S
H2179 C2163 0.961 . S
H2180 C2164 0.931 . S
H2181 C2169 0.930 . S
H2182 C2170 0.956 . S
H2183 C2170 0.961 . S
H2184 C2170 0.961 . S
H2185 C2171 0.958 . S
H2186 C2171 0.961 . S
H2187 C2171 0.960 . S
C2188 C2189 1.391 . S
C2188 C2190 1.394 . S
C2188 H2204 0.931 . S
C2189 C2188 1.391 . S
C2189 C2193 1.376 . S
C2190 C2188 1.394 . S
C2190 C2191 1.369 . S
C2190 C2194 1.531 . S
C2191 C2190 1.369 . S
C2191 C2192 1.410 . S
C2191 C2199 1.503 . S
C2192 C2191 1.410 . S
C2192 C2193 1.392 . S
C2192 C2195 1.511 . S
C2193 C2189 1.376 . S
C2193 C2192 1.392 . S
C2193 H2205 0.929 . S
C2194 C2190 1.531 . S
C2194 H2206 0.960 . S
C2194 H2207 0.962 . S
C2194 H2208 0.960 . S
C2195 C2192 1.511 . S
C2195 H2209 0.961 . S
C2195 H2210 0.961 . S
C2195 H2211 0.961 . S
C2196 C2197 1.370 . S
C2196 C2198 1.363 . S
C2196 H2212 0.931 . S
C2197 C2196 1.370 . S
C2197 C2201 1.408 . S
C2198 C2196 1.363 . S
C2198 C2199 1.370 . S
C2198 C2202 1.524 . S
C2199 C2191 1.503 . S
C2199 C2198 1.370 . S
C2199 C2200 1.403 . S
C2200 C2199 1.403 . S
C2200 C2201 1.404 . S
C2200 C2203 1.539 . S
C2201 C2197 1.408 . S
C2201 C2200 1.404 . S
C2201 H2213 0.930 . S
C2202 C2198 1.524 . S
C2202 H2214 0.956 . S
C2202 H2215 0.961 . S
C2202 H2216 0.961 . S
C2203 C2200 1.539 . S
C2203 H2217 0.958 . S
C2203 H2218 0.961 . S
C2203 H2219 0.960 . S
H2204 C2188 0.931 . S
H2205 C2193 0.929 . S
H2206 C2194 0.960 . S
H2207 C2194 0.962 . S
H2208 C2194 0.960 . S
H2209 C2195 0.961 . S
H2210 C2195 0.961 . S
H2211 C2195 0.961 . S
H2212 C2196 0.931 . S
H2213 C2201 0.930 . S
H2214 C2202 0.956 . S
H2215 C2202 0.961 . S
H2216 C2202 0.961 . S
H2217 C2203 0.958 . S
H2218 C2203 0.961 . S
H2219 C2203 0.960 . S
C2220 C2221 1.391 1_455 S
C2220 C2222 1.394 . S
C2220 H2236 0.931 1_455 S
C2221 C2220 1.391 1_655 S
C2221 C2225 1.394 . S
C2222 C2220 1.394 . S
C2222 C2223 1.369 . S
C2222 C2226 1.531 . S
C2223 C2222 1.369 . S
C2223 C2224 1.410 . S
C2223 C2231 1.503 . S
C2224 C2223 1.410 . S
C2224 C2225 1.373 1_455 S
C2224 C2227 1.511 . S
C2225 C2221 1.394 . S
C2225 C2224 1.373 1_655 S
C2225 H2237 0.931 . S
C2226 C2222 1.531 . S
C2226 H2238 0.960 . S
C2226 H2239 0.962 . S
C2226 H2240 0.960 . S
C2227 C2224 1.511 . S
C2227 H2241 0.961 . S
C2227 H2242 0.961 . S
C2227 H2243 0.961 . S
C2228 C2229 1.370 . S
C2228 C2230 1.363 . S
C2228 H2244 0.931 . S
C2229 C2228 1.370 . S
C2229 C2233 1.408 . S
C2230 C2228 1.363 . S
C2230 C2231 1.370 . S
C2230 C2234 1.524 . S
C2231 C2223 1.503 . S
C2231 C2230 1.370 . S
C2231 C2232 1.403 . S
C2232 C2231 1.403 . S
C2232 C2233 1.404 . S
C2232 C2235 1.539 . S
C2233 C2229 1.408 . S
C2233 C2232 1.404 . S
C2233 H2245 0.930 . S
C2234 C2230 1.524 . S
C2234 H2246 0.956 . S
C2234 H2247 0.961 . S
C2234 H2248 0.961 . S
C2235 C2232 1.539 . S
C2235 H2249 0.958 . S
C2235 H2250 0.961 . S
C2235 H2251 0.960 . S
H2236 C2220 0.931 1_655 S
H2237 C2225 0.931 . S
H2238 C2226 0.960 . S
H2239 C2226 0.962 . S
H2240 C2226 0.960 . S
H2241 C2227 0.961 . S
H2242 C2227 0.961 . S
H2243 C2227 0.961 . S
H2244 C2228 0.931 . S
H2245 C2233 0.930 . S
H2246 C2234 0.956 . S
H2247 C2234 0.961 . S
H2248 C2234 0.961 . S
H2249 C2235 0.958 . S
H2250 C2235 0.961 . S
H2251 C2235 0.960 . S
C2252 C2253 1.391 . S
C2252 C2254 1.394 . S
C2252 H2268 0.931 . S
C2253 C2252 1.391 . S
C2253 C2257 1.376 . S
C2254 C2252 1.394 . S
C2254 C2255 1.369 . S
C2254 C2258 1.531 . S
C2255 C2254 1.369 . S
C2255 C2256 1.410 . S
C2255 C2263 1.503 . S
C2256 C2255 1.410 . S
C2256 C2257 1.392 . S
C2256 C2259 1.511 . S
C2257 C2253 1.376 . S
C2257 C2256 1.392 . S
C2257 H2269 0.929 . S
C2258 C2254 1.531 . S
C2258 H2270 0.960 . S
C2258 H2271 0.962 . S
C2258 H2272 0.960 . S
C2259 C2256 1.511 . S
C2259 H2273 0.961 . S
C2259 H2274 0.961 . S
C2259 H2275 0.961 . S
C2260 C2261 1.370 . S
C2260 C2262 1.363 . S
C2260 H2276 0.931 . S
C2261 C2260 1.370 . S
C2261 C2265 1.408 . S
C2262 C2260 1.363 . S
C2262 C2263 1.370 . S
C2262 C2266 1.524 . S
C2263 C2255 1.503 . S
C2263 C2262 1.370 . S
C2263 C2264 1.403 . S
C2264 C2263 1.403 . S
C2264 C2265 1.404 . S
C2264 C2267 1.539 . S
C2265 C2261 1.408 . S
C2265 C2264 1.404 . S
C2265 H2277 0.930 . S
C2266 C2262 1.524 . S
C2266 H2278 0.956 . S
C2266 H2279 0.961 . S
C2266 H2280 0.961 . S
C2267 C2264 1.539 . S
C2267 H2281 0.958 . S
C2267 H2282 0.961 . S
C2267 H2283 0.960 . S
H2268 C2252 0.931 . S
H2269 C2257 0.929 . S
H2270 C2258 0.960 . S
H2271 C2258 0.962 . S
H2272 C2258 0.960 . S
H2273 C2259 0.961 . S
H2274 C2259 0.961 . S
H2275 C2259 0.961 . S
H2276 C2260 0.931 . S
H2277 C2265 0.930 . S
H2278 C2266 0.956 . S
H2279 C2266 0.961 . S
H2280 C2266 0.961 . S
H2281 C2267 0.958 . S
H2282 C2267 0.961 . S
H2283 C2267 0.960 . S
C2284 C2285 1.391 . S
C2284 C2286 1.394 1_545 S
C2284 H2300 0.931 . S
C2285 C2284 1.391 . S
C2285 C2289 1.376 . S
C2286 C2284 1.394 1_565 S
C2286 C2287 1.369 . S
C2286 C2290 1.531 . S
C2287 C2286 1.369 . S
C2287 C2288 1.410 . S
C2287 C2295 1.503 . S
C2288 C2287 1.410 . S
C2288 C2289 1.392 1_565 S
C2288 C2291 1.511 . S
C2289 C2285 1.376 . S
C2289 C2288 1.392 1_545 S
C2289 H2301 0.929 . S
C2290 C2286 1.531 . S
C2290 H2302 0.960 . S
C2290 H2303 0.962 . S
C2290 H2304 0.960 . S
C2291 C2288 1.511 . S
C2291 H2305 0.961 . S
C2291 H2306 0.961 . S
C2291 H2307 0.961 . S
C2292 C2293 1.370 . S
C2292 C2294 1.363 . S
C2292 H2308 0.931 . S
C2293 C2292 1.370 . S
C2293 C2297 1.408 . S
C2294 C2292 1.363 . S
C2294 C2295 1.370 . S
C2294 C2298 1.524 . S
C2295 C2287 1.503 . S
C2295 C2294 1.370 . S
C2295 C2296 1.403 . S
C2296 C2295 1.403 . S
C2296 C2297 1.404 . S
C2296 C2299 1.539 . S
C2297 C2293 1.408 . S
C2297 C2296 1.404 . S
C2297 H2309 0.930 . S
C2298 C2294 1.524 . S
C2298 H2310 0.956 . S
C2298 H2311 0.961 . S
C2298 H2312 0.961 . S
C2299 C2296 1.539 . S
C2299 H2313 0.958 . S
C2299 H2314 0.961 . S
C2299 H2315 0.960 . S
H2300 C2284 0.931 . S
H2301 C2289 0.929 . S
H2302 C2290 0.960 . S
H2303 C2290 0.962 . S
H2304 C2290 0.960 . S
H2305 C2291 0.961 . S
H2306 C2291 0.961 . S
H2307 C2291 0.961 . S
H2308 C2292 0.931 . S
H2309 C2297 0.930 . S
H2310 C2298 0.956 . S
H2311 C2298 0.961 . S
H2312 C2298 0.961 . S
H2313 C2299 0.958 . S
H2314 C2299 0.961 . S
H2315 C2299 0.960 . S
C2316 C2317 1.391 . S
C2316 C2318 1.394 . S
C2316 H2332 0.931 . S
C2317 C2316 1.391 . S
C2317 C2321 1.376 . S
C2318 C2316 1.394 . S
C2318 C2319 1.369 . S
C2318 C2322 1.531 . S
C2319 C2318 1.369 . S
C2319 C2320 1.410 . S
C2319 C2327 1.503 . S
C2320 C2319 1.410 . S
C2320 C2321 1.392 . S
C2320 C2323 1.511 . S
C2321 C2317 1.376 . S
C2321 C2320 1.392 . S
C2321 H2333 0.929 . S
C2322 C2318 1.531 . S
C2322 H2334 0.960 . S
C2322 H2335 0.962 . S
C2322 H2336 0.960 . S
C2323 C2320 1.511 . S
C2323 H2337 0.961 . S
C2323 H2338 0.961 . S
C2323 H2339 0.961 . S
C2324 C2325 1.370 . S
C2324 C2326 1.363 . S
C2324 H2340 0.931 . S
C2325 C2324 1.370 . S
C2325 C2329 1.408 . S
C2326 C2324 1.363 . S
C2326 C2327 1.370 . S
C2326 C2330 1.524 . S
C2327 C2319 1.503 . S
C2327 C2326 1.370 . S
C2327 C2328 1.403 . S
C2328 C2327 1.403 . S
C2328 C2329 1.404 . S
C2328 C2331 1.539 . S
C2329 C2325 1.408 . S
C2329 C2328 1.404 . S
C2329 H2341 0.930 . S
C2330 C2326 1.524 . S
C2330 H2342 0.956 . S
C2330 H2343 0.961 . S
C2330 H2344 0.961 . S
C2331 C2328 1.539 . S
C2331 H2345 0.958 . S
C2331 H2346 0.961 . S
C2331 H2347 0.960 . S
H2332 C2316 0.931 . S
H2333 C2321 0.929 . S
H2334 C2322 0.960 . S
H2335 C2322 0.962 . S
H2336 C2322 0.960 . S
H2337 C2323 0.961 . S
H2338 C2323 0.961 . S
H2339 C2323 0.961 . S
H2340 C2324 0.931 . S
H2341 C2329 0.930 . S
H2342 C2330 0.956 . S
H2343 C2330 0.961 . S
H2344 C2330 0.961 . S
H2345 C2331 0.958 . S
H2346 C2331 0.961 . S
H2347 C2331 0.960 . S
C2348 C2349 1.391 . S
C2348 C2350 1.394 . S
C2348 H2364 0.931 . S
C2349 C2348 1.391 . S
C2349 C2353 1.376 . S
C2350 C2348 1.394 . S
C2350 C2351 1.369 . S
C2350 C2354 1.531 . S
C2351 C2350 1.369 . S
C2351 C2352 1.410 . S
C2351 C2359 1.503 . S
C2352 C2351 1.410 . S
C2352 C2353 1.392 . S
C2352 C2355 1.511 . S
C2353 C2349 1.376 . S
C2353 C2352 1.392 . S
C2353 H2365 0.929 . S
C2354 C2350 1.531 . S
C2354 H2366 0.960 . S
C2354 H2367 0.962 . S
C2354 H2368 0.960 . S
C2355 C2352 1.511 . S
C2355 H2369 0.961 . S
C2355 H2370 0.961 . S
C2355 H2371 0.961 . S
C2356 C2357 1.370 . S
C2356 C2358 1.363 . S
C2356 H2372 0.931 . S
C2357 C2356 1.370 . S
C2357 C2361 1.408 . S
C2358 C2356 1.363 . S
C2358 C2359 1.370 . S
C2358 C2362 1.524 . S
C2359 C2351 1.503 . S
C2359 C2358 1.370 . S
C2359 C2360 1.403 . S
C2360 C2359 1.403 . S
C2360 C2361 1.404 . S
C2360 C2363 1.539 . S
C2361 C2357 1.408 . S
C2361 C2360 1.404 . S
C2361 H2373 0.930 . S
C2362 C2358 1.524 . S
C2362 H2374 0.956 . S
C2362 H2375 0.961 . S
C2362 H2376 0.961 . S
C2363 C2360 1.539 . S
C2363 H2377 0.958 . S
C2363 H2378 0.961 . S
C2363 H2379 0.960 . S
H2364 C2348 0.931 . S
H2365 C2353 0.929 . S
H2366 C2354 0.960 . S
H2367 C2354 0.962 . S
H2368 C2354 0.960 . S
H2369 C2355 0.961 . S
H2370 C2355 0.961 . S
H2371 C2355 0.961 . S
H2372 C2356 0.931 . S
H2373 C2361 0.930 . S
H2374 C2362 0.956 . S
H2375 C2362 0.961 . S
H2376 C2362 0.961 . S
H2377 C2363 0.958 . S
H2378 C2363 0.961 . S
H2379 C2363 0.960 . S
C2380 C2381 1.391 . S
C2380 C2382 1.394 . S
C2380 H2396 0.931 . S
C2381 C2380 1.391 . S
C2381 C2385 1.376 . S
C2382 C2380 1.394 . S
C2382 C2383 1.369 . S
C2382 C2386 1.531 . S
C2383 C2382 1.369 . S
C2383 C2384 1.410 . S
C2383 C2391 1.503 . S
C2384 C2383 1.410 . S
C2384 C2385 1.392 . S
C2384 C2387 1.511 . S
C2385 C2381 1.376 . S
C2385 C2384 1.392 . S
C2385 H2397 0.929 . S
C2386 C2382 1.531 . S
C2386 H2398 0.960 . S
C2386 H2399 0.962 . S
C2386 H2400 0.960 . S
C2387 C2384 1.511 . S
C2387 H2401 0.961 . S
C2387 H2402 0.961 . S
C2387 H2403 0.961 . S
C2388 C2389 1.370 . S
C2388 C2390 1.363 . S
C2388 H2404 0.931 . S
C2389 C2388 1.370 . S
C2389 C2393 1.408 . S
C2390 C2388 1.363 . S
C2390 C2391 1.370 . S
C2390 C2394 1.524 . S
C2391 C2383 1.503 . S
C2391 C2390 1.370 . S
C2391 C2392 1.403 . S
C2392 C2391 1.403 . S
C2392 C2393 1.404 . S
C2392 C2395 1.539 . S
C2393 C2389 1.408 . S
C2393 C2392 1.404 . S
C2393 H2405 0.930 . S
C2394 C2390 1.524 . S
C2394 H2406 0.956 . S
C2394 H2407 0.961 . S
C2394 H2408 0.961 . S
C2395 C2392 1.539 . S
C2395 H2409 0.958 . S
C2395 H2410 0.961 . S
C2395 H2411 0.960 . S
H2396 C2380 0.931 . S
H2397 C2385 0.929 . S
H2398 C2386 0.960 . S
H2399 C2386 0.962 . S
H2400 C2386 0.960 . S
H2401 C2387 0.961 . S
H2402 C2387 0.961 . S
H2403 C2387 0.961 . S
H2404 C2388 0.931 . S
H2405 C2393 0.930 . S
H2406 C2394 0.956 . S
H2407 C2394 0.961 . S
H2408 C2394 0.961 . S
H2409 C2395 0.958 . S
H2410 C2395 0.961 . S
H2411 C2395 0.960 . S
C2412 C2413 1.391 . S
C2412 C2414 1.394 . S
C2412 H2428 0.931 . S
C2413 C2412 1.391 . S
C2413 C2417 1.376 . S
C2414 C2412 1.394 . S
C2414 C2415 1.369 . S
C2414 C2418 1.531 . S
C2415 C2414 1.369 . S
C2415 C2416 1.410 . S
C2415 C2423 1.503 . S
C2416 C2415 1.410 . S
C2416 C2417 1.392 . S
C2416 C2419 1.511 . S
C2417 C2413 1.376 . S
C2417 C2416 1.392 . S
C2417 H2429 0.929 . S
C2418 C2414 1.531 . S
C2418 H2430 0.960 . S
C2418 H2431 0.962 . S
C2418 H2432 0.960 . S
C2419 C2416 1.511 . S
C2419 H2433 0.961 . S
C2419 H2434 0.961 . S
C2419 H2435 0.961 . S
C2420 C2421 1.370 . S
C2420 C2422 1.363 . S
C2420 H2436 0.931 . S
C2421 C2420 1.370 . S
C2421 C2425 1.408 . S
C2422 C2420 1.363 . S
C2422 C2423 1.370 . S
C2422 C2426 1.524 . S
C2423 C2415 1.503 . S
C2423 C2422 1.370 . S
C2423 C2424 1.403 . S
C2424 C2423 1.403 . S
C2424 C2425 1.404 . S
C2424 C2427 1.539 . S
C2425 C2421 1.408 . S
C2425 C2424 1.404 . S
C2425 H2437 0.930 . S
C2426 C2422 1.524 . S
C2426 H2438 0.956 . S
C2426 H2439 0.961 . S
C2426 H2440 0.961 . S
C2427 C2424 1.539 . S
C2427 H2441 0.958 . S
C2427 H2442 0.961 . S
C2427 H2443 0.960 . S
H2428 C2412 0.931 . S
H2429 C2417 0.929 . S
H2430 C2418 0.960 . S
H2431 C2418 0.962 . S
H2432 C2418 0.960 . S
H2433 C2419 0.961 . S
H2434 C2419 0.961 . S
H2435 C2419 0.961 . S
H2436 C2420 0.931 . S
H2437 C2425 0.930 . S
H2438 C2426 0.956 . S
H2439 C2426 0.961 . S
H2440 C2426 0.961 . S
H2441 C2427 0.958 . S
H2442 C2427 0.961 . S
H2443 C2427 0.960 . S
C2444 C2445 1.391 . S
C2444 C2446 1.394 . S
C2444 H2460 0.931 . S
C2445 C2444 1.391 . S
C2445 C2449 1.376 . S
C2446 C2444 1.394 . S
C2446 C2447 1.369 . S
C2446 C2450 1.531 . S
C2447 C2446 1.369 . S
C2447 C2448 1.410 . S
C2447 C2455 1.503 . S
C2448 C2447 1.410 . S
C2448 C2449 1.392 . S
C2448 C2451 1.511 . S
C2449 C2445 1.376 . S
C2449 C2448 1.392 . S
C2449 H2461 0.929 . S
C2450 C2446 1.531 . S
C2450 H2462 0.960 . S
C2450 H2463 0.962 . S
C2450 H2464 0.960 . S
C2451 C2448 1.511 . S
C2451 H2465 0.961 . S
C2451 H2466 0.961 . S
C2451 H2467 0.961 . S
C2452 C2453 1.370 . S
C2452 C2454 1.363 . S
C2452 H2468 0.931 . S
C2453 C2452 1.370 . S
C2453 C2457 1.408 . S
C2454 C2452 1.363 . S
C2454 C2455 1.370 . S
C2454 C2458 1.524 . S
C2455 C2447 1.503 . S
C2455 C2454 1.370 . S
C2455 C2456 1.403 . S
C2456 C2455 1.403 . S
C2456 C2457 1.404 . S
C2456 C2459 1.539 . S
C2457 C2453 1.408 . S
C2457 C2456 1.404 . S
C2457 H2469 0.930 . S
C2458 C2454 1.524 . S
C2458 H2470 0.956 . S
C2458 H2471 0.961 . S
C2458 H2472 0.961 . S
C2459 C2456 1.539 . S
C2459 H2473 0.958 . S
C2459 H2474 0.961 . S
C2459 H2475 0.960 . S
H2460 C2444 0.931 . S
H2461 C2449 0.929 . S
H2462 C2450 0.960 . S
H2463 C2450 0.962 . S
H2464 C2450 0.960 . S
H2465 C2451 0.961 . S
H2466 C2451 0.961 . S
H2467 C2451 0.961 . S
H2468 C2452 0.931 . S
H2469 C2457 0.930 . S
H2470 C2458 0.956 . S
H2471 C2458 0.961 . S
H2472 C2458 0.961 . S
H2473 C2459 0.958 . S
H2474 C2459 0.961 . S
H2475 C2459 0.960 . S
C2476 C2477 1.391 . S
C2476 C2478 1.394 . S
C2476 H2492 0.931 . S
C2477 C2476 1.391 . S
C2477 C2481 1.376 . S
C2478 C2476 1.394 . S
C2478 C2479 1.369 . S
C2478 C2482 1.531 . S
C2479 C2478 1.369 . S
C2479 C2480 1.410 . S
C2479 C2487 1.503 . S
C2480 C2479 1.410 . S
C2480 C2481 1.392 . S
C2480 C2483 1.511 . S
C2481 C2477 1.376 . S
C2481 C2480 1.392 . S
C2481 H2493 0.929 . S
C2482 C2478 1.531 . S
C2482 H2494 0.960 . S
C2482 H2495 0.962 . S
C2482 H2496 0.960 . S
C2483 C2480 1.511 . S
C2483 H2497 0.961 . S
C2483 H2498 0.961 . S
C2483 H2499 0.961 . S
C2484 C2485 1.370 . S
C2484 C2486 1.363 . S
C2484 H2500 0.931 . S
C2485 C2484 1.370 . S
C2485 C2489 1.408 . S
C2486 C2484 1.363 . S
C2486 C2487 1.370 . S
C2486 C2490 1.524 . S
C2487 C2479 1.503 . S
C2487 C2486 1.370 . S
C2487 C2488 1.403 . S
C2488 C2487 1.403 . S
C2488 C2489 1.404 . S
C2488 C2491 1.539 . S
C2489 C2485 1.408 . S
C2489 C2488 1.404 . S
C2489 H2501 0.930 . S
C2490 C2486 1.524 . S
C2490 H2502 0.956 . S
C2490 H2503 0.961 . S
C2490 H2504 0.961 . S
C2491 C2488 1.539 . S
C2491 H2505 0.958 . S
C2491 H2506 0.961 . S
C2491 H2507 0.960 . S
H2492 C2476 0.931 . S
H2493 C2481 0.929 . S
H2494 C2482 0.960 . S
H2495 C2482 0.962 . S
H2496 C2482 0.960 . S
H2497 C2483 0.961 . S
H2498 C2483 0.961 . S
H2499 C2483 0.961 . S
H2500 C2484 0.931 . S
H2501 C2489 0.930 . S
H2502 C2490 0.956 . S
H2503 C2490 0.961 . S
H2504 C2490 0.961 . S
H2505 C2491 0.958 . S
H2506 C2491 0.961 . S
H2507 C2491 0.960 . S
C2508 C2509 1.391 . S
C2508 C2510 1.394 1_545 S
C2508 H2524 0.931 . S
C2509 C2508 1.391 . S
C2509 C2513 1.324 1_545 S
C2510 C2508 1.394 1_565 S
C2510 C2511 1.369 . S
C2510 C2514 1.531 . S
C2511 C2510 1.369 . S
C2511 C2512 1.410 . S
C2511 C2519 1.503 . S
C2512 C2511 1.410 . S
C2512 C2513 1.431 . S
C2512 C2515 1.511 . S
C2513 C2509 1.324 1_565 S
C2513 C2512 1.431 . S
C2513 H2525 0.944 1_565 S
C2514 C2510 1.531 . S
C2514 H2526 0.960 . S
C2514 H2527 0.962 . S
C2514 H2528 0.960 . S
C2515 C2512 1.511 . S
C2515 H2529 0.961 . S
C2515 H2530 0.961 . S
C2515 H2531 0.961 . S
C2516 C2517 1.370 . S
C2516 C2518 1.363 . S
C2516 H2532 0.931 . S
C2517 C2516 1.370 . S
C2517 C2521 1.408 . S
C2518 C2516 1.363 . S
C2518 C2519 1.370 . S
C2518 C2522 1.524 . S
C2519 C2511 1.503 . S
C2519 C2518 1.370 . S
C2519 C2520 1.403 . S
C2520 C2519 1.403 . S
C2520 C2521 1.404 . S
C2520 C2523 1.539 . S
C2521 C2517 1.408 . S
C2521 C2520 1.404 . S
C2521 H2533 0.930 . S
C2522 C2518 1.524 . S
C2522 H2534 0.956 . S
C2522 H2535 0.961 . S
C2522 H2536 0.961 . S
C2523 C2520 1.539 . S
C2523 H2537 0.958 . S
C2523 H2538 0.961 . S
C2523 H2539 0.960 . S
H2524 C2508 0.931 . S
H2525 C2513 0.944 1_545 S
H2526 C2514 0.960 . S
H2527 C2514 0.962 . S
H2528 C2514 0.960 . S
H2529 C2515 0.961 . S
H2530 C2515 0.961 . S
H2531 C2515 0.961 . S
H2532 C2516 0.931 . S
H2533 C2521 0.930 . S
H2534 C2522 0.956 . S
H2535 C2522 0.961 . S
H2536 C2522 0.961 . S
H2537 C2523 0.958 . S
H2538 C2523 0.961 . S
H2539 C2523 0.960 . S
C2540 C2541 1.391 . S
C2540 C2542 1.394 1_655 S
C2540 H2556 0.931 . S
C2541 C2540 1.391 . S
C2541 C2545 1.376 1_655 S
C2542 C2540 1.394 1_455 S
C2542 C2543 1.369 . S
C2542 C2546 1.531 . S
C2543 C2542 1.369 . S
C2543 C2544 1.410 . S
C2543 C2551 1.503 . S
C2544 C2543 1.410 . S
C2544 C2545 1.392 . S
C2544 C2547 1.511 . S
C2545 C2541 1.376 1_455 S
C2545 C2544 1.392 . S
C2545 H2557 0.929 . S
C2546 C2542 1.531 . S
C2546 H2558 0.960 . S
C2546 H2559 0.962 . S
C2546 H2560 0.960 . S
C2547 C2544 1.511 . S
C2547 H2561 0.961 . S
C2547 H2562 0.961 . S
C2547 H2563 0.961 . S
C2548 C2549 1.370 . S
C2548 C2550 1.363 . S
C2548 H2564 0.931 . S
C2549 C2548 1.370 . S
C2549 C2553 1.408 . S
C2550 C2548 1.363 . S
C2550 C2551 1.370 . S
C2550 C2554 1.524 . S
C2551 C2543 1.503 . S
C2551 C2550 1.370 . S
C2551 C2552 1.403 . S
C2552 C2551 1.403 . S
C2552 C2553 1.404 . S
C2552 C2555 1.539 . S
C2553 C2549 1.408 . S
C2553 C2552 1.404 . S
C2553 H2565 0.930 . S
C2554 C2550 1.524 . S
C2554 H2566 0.956 . S
C2554 H2567 0.961 . S
C2554 H2568 0.961 . S
C2555 C2552 1.539 . S
C2555 H2569 0.958 . S
C2555 H2570 0.961 . S
C2555 H2571 0.960 . S
H2556 C2540 0.931 . S
H2557 C2545 0.929 . S
H2558 C2546 0.960 . S
H2559 C2546 0.962 . S
H2560 C2546 0.960 . S
H2561 C2547 0.961 . S
H2562 C2547 0.961 . S
H2563 C2547 0.961 . S
H2564 C2548 0.931 . S
H2565 C2553 0.930 . S
H2566 C2554 0.956 . S
H2567 C2554 0.961 . S
H2568 C2554 0.961 . S
H2569 C2555 0.958 . S
H2570 C2555 0.961 . S
H2571 C2555 0.960 . S
C2572 C2573 1.391 . S
C2572 C2574 1.394 . S
C2572 H2588 0.931 . S
C2573 C2572 1.391 . S
C2573 C2577 1.376 . S
C2574 C2572 1.394 . S
C2574 C2575 1.369 . S
C2574 C2578 1.531 . S
C2575 C2574 1.369 . S
C2575 C2576 1.410 . S
C2575 C2583 1.503 . S
C2576 C2575 1.410 . S
C2576 C2577 1.392 . S
C2576 C2579 1.511 . S
C2577 C2573 1.376 . S
C2577 C2576 1.392 . S
C2577 H2589 0.929 . S
C2578 C2574 1.531 . S
C2578 H2590 0.960 . S
C2578 H2591 0.962 . S
C2578 H2592 0.960 . S
C2579 C2576 1.511 . S
C2579 H2593 0.961 . S
C2579 H2594 0.961 . S
C2579 H2595 0.961 . S
C2580 C2581 1.370 . S
C2580 C2582 1.363 . S
C2580 H2596 0.931 . S
C2581 C2580 1.370 . S
C2581 C2585 1.408 . S
C2582 C2580 1.363 . S
C2582 C2583 1.370 . S
C2582 C2586 1.524 . S
C2583 C2575 1.503 . S
C2583 C2582 1.370 . S
C2583 C2584 1.403 . S
C2584 C2583 1.403 . S
C2584 C2585 1.404 . S
C2584 C2587 1.539 . S
C2585 C2581 1.408 . S
C2585 C2584 1.404 . S
C2585 H2597 0.930 . S
C2586 C2582 1.524 . S
C2586 H2598 0.956 . S
C2586 H2599 0.961 . S
C2586 H2600 0.961 . S
C2587 C2584 1.539 . S
C2587 H2601 0.958 . S
C2587 H2602 0.961 . S
C2587 H2603 0.960 . S
H2588 C2572 0.931 . S
H2589 C2577 0.929 . S
H2590 C2578 0.960 . S
H2591 C2578 0.962 . S
H2592 C2578 0.960 . S
H2593 C2579 0.961 . S
H2594 C2579 0.961 . S
H2595 C2579 0.961 . S
H2596 C2580 0.931 . S
H2597 C2585 0.930 . S
H2598 C2586 0.956 . S
H2599 C2586 0.961 . S
H2600 C2586 0.961 . S
H2601 C2587 0.958 . S
H2602 C2587 0.961 . S
H2603 C2587 0.960 . S
C2604 C2605 1.391 . S
C2604 C2606 1.394 . S
C2604 H2620 0.931 . S
C2605 C2604 1.391 . S
C2605 C2609 1.376 . S
C2606 C2604 1.394 . S
C2606 C2607 1.369 . S
C2606 C2610 1.531 . S
C2607 C2606 1.369 . S
C2607 C2608 1.410 . S
C2607 C2615 1.503 . S
C2608 C2607 1.410 . S
C2608 C2609 1.392 . S
C2608 C2611 1.511 . S
C2609 C2605 1.376 . S
C2609 C2608 1.392 . S
C2609 H2621 0.929 . S
C2610 C2606 1.531 . S
C2610 H2622 0.960 . S
C2610 H2623 0.962 . S
C2610 H2624 0.960 . S
C2611 C2608 1.511 . S
C2611 H2625 0.961 . S
C2611 H2626 0.961 . S
C2611 H2627 0.961 . S
C2612 C2613 1.370 . S
C2612 C2614 1.363 . S
C2612 H2628 0.931 . S
C2613 C2612 1.370 . S
C2613 C2617 1.408 . S
C2614 C2612 1.363 . S
C2614 C2615 1.370 . S
C2614 C2618 1.524 . S
C2615 C2607 1.503 . S
C2615 C2614 1.370 . S
C2615 C2616 1.403 . S
C2616 C2615 1.403 . S
C2616 C2617 1.404 . S
C2616 C2619 1.539 . S
C2617 C2613 1.408 . S
C2617 C2616 1.404 . S
C2617 H2629 0.930 . S
C2618 C2614 1.524 . S
C2618 H2630 0.956 . S
C2618 H2631 0.961 . S
C2618 H2632 0.961 . S
C2619 C2616 1.539 . S
C2619 H2633 0.958 . S
C2619 H2634 0.961 . S
C2619 H2635 0.960 . S
H2620 C2604 0.931 . S
H2621 C2609 0.929 . S
H2622 C2610 0.960 . S
H2623 C2610 0.962 . S
H2624 C2610 0.960 . S
H2625 C2611 0.961 . S
H2626 C2611 0.961 . S
H2627 C2611 0.961 . S
H2628 C2612 0.931 . S
H2629 C2617 0.930 . S
H2630 C2618 0.956 . S
H2631 C2618 0.961 . S
H2632 C2618 0.961 . S
H2633 C2619 0.958 . S
H2634 C2619 0.961 . S
H2635 C2619 0.960 . S
C2636 C2637 1.391 . S
C2636 C2638 1.394 . S
C2636 H2652 0.931 . S
C2637 C2636 1.391 . S
C2637 C2641 1.376 . S
C2638 C2636 1.394 . S
C2638 C2639 1.369 . S
C2638 C2642 1.531 . S
C2639 C2638 1.369 . S
C2639 C2640 1.410 . S
C2639 C2647 1.503 . S
C2640 C2639 1.410 . S
C2640 C2641 1.392 . S
C2640 C2643 1.511 . S
C2641 C2637 1.376 . S
C2641 C2640 1.392 . S
C2641 H2653 0.929 . S
C2642 C2638 1.531 . S
C2642 H2654 0.960 . S
C2642 H2655 0.962 . S
C2642 H2656 0.960 . S
C2643 C2640 1.511 . S
C2643 H2657 0.961 . S
C2643 H2658 0.961 . S
C2643 H2659 0.961 . S
C2644 C2645 1.370 . S
C2644 C2646 1.363 . S
C2644 H2660 0.931 . S
C2645 C2644 1.370 . S
C2645 C2649 1.408 . S
C2646 C2644 1.363 . S
C2646 C2647 1.370 . S
C2646 C2650 1.524 . S
C2647 C2639 1.503 . S
C2647 C2646 1.370 . S
C2647 C2648 1.403 . S
C2648 C2647 1.403 . S
C2648 C2649 1.404 . S
C2648 C2651 1.539 . S
C2649 C2645 1.408 . S
C2649 C2648 1.404 . S
C2649 H2661 0.930 . S
C2650 C2646 1.524 . S
C2650 H2662 0.956 . S
C2650 H2663 0.961 . S
C2650 H2664 0.961 . S
C2651 C2648 1.539 . S
C2651 H2665 0.958 . S
C2651 H2666 0.961 . S
C2651 H2667 0.960 . S
H2652 C2636 0.931 . S
H2653 C2641 0.929 . S
H2654 C2642 0.960 . S
H2655 C2642 0.962 . S
H2656 C2642 0.960 . S
H2657 C2643 0.961 . S
H2658 C2643 0.961 . S
H2659 C2643 0.961 . S
H2660 C2644 0.931 . S
H2661 C2649 0.930 . S
H2662 C2650 0.956 . S
H2663 C2650 0.961 . S
H2664 C2650 0.961 . S
H2665 C2651 0.958 . S
H2666 C2651 0.961 . S
H2667 C2651 0.960 . S
C2668 C2669 1.391 . S
C2668 C2670 1.394 . S
C2668 H2684 0.931 . S
C2669 C2668 1.391 . S
C2669 C2673 1.376 . S
C2670 C2668 1.394 . S
C2670 C2671 1.369 . S
C2670 C2674 1.531 . S
C2671 C2670 1.369 . S
C2671 C2672 1.410 . S
C2671 C2679 1.503 . S
C2672 C2671 1.410 . S
C2672 C2673 1.392 . S
C2672 C2675 1.511 . S
C2673 C2669 1.376 . S
C2673 C2672 1.392 . S
C2673 H2685 0.929 . S
C2674 C2670 1.531 . S
C2674 H2686 0.960 . S
C2674 H2687 0.962 . S
C2674 H2688 0.960 . S
C2675 C2672 1.511 . S
C2675 H2689 0.961 . S
C2675 H2690 0.961 . S
C2675 H2691 0.961 . S
C2676 C2677 1.370 . S
C2676 C2678 1.363 . S
C2676 H2692 0.931 . S
C2677 C2676 1.370 . S
C2677 C2681 1.408 . S
C2678 C2676 1.363 . S
C2678 C2679 1.370 . S
C2678 C2682 1.524 . S
C2679 C2671 1.503 . S
C2679 C2678 1.370 . S
C2679 C2680 1.403 . S
C2680 C2679 1.403 . S
C2680 C2681 1.404 . S
C2680 C2683 1.539 . S
C2681 C2677 1.408 . S
C2681 C2680 1.404 . S
C2681 H2693 0.930 . S
C2682 C2678 1.524 . S
C2682 H2694 0.956 . S
C2682 H2695 0.961 . S
C2682 H2696 0.961 . S
C2683 C2680 1.539 . S
C2683 H2697 0.958 . S
C2683 H2698 0.961 . S
C2683 H2699 0.960 . S
H2684 C2668 0.931 . S
H2685 C2673 0.929 . S
H2686 C2674 0.960 . S
H2687 C2674 0.962 . S
H2688 C2674 0.960 . S
H2689 C2675 0.961 . S
H2690 C2675 0.961 . S
H2691 C2675 0.961 . S
H2692 C2676 0.931 . S
H2693 C2681 0.930 . S
H2694 C2682 0.956 . S
H2695 C2682 0.961 . S
H2696 C2682 0.961 . S
H2697 C2683 0.958 . S
H2698 C2683 0.961 . S
H2699 C2683 0.960 . S
C2700 C2701 1.391 . S
C2700 C2702 1.394 1_565 S
C2700 H2716 0.931 . S
C2701 C2700 1.391 . S
C2701 C2705 1.376 . S
C2702 C2700 1.394 1_545 S
C2702 C2703 1.369 . S
C2702 C2706 1.531 . S
C2703 C2702 1.369 . S
C2703 C2704 1.410 . S
C2703 C2711 1.503 . S
C2704 C2703 1.410 . S
C2704 C2705 1.392 1_545 S
C2704 C2707 1.511 . S
C2705 C2701 1.376 . S
C2705 C2704 1.392 1_565 S
C2705 H2717 0.929 . S
C2706 C2702 1.531 . S
C2706 H2718 0.960 . S
C2706 H2719 0.962 . S
C2706 H2720 0.960 . S
C2707 C2704 1.511 . S
C2707 H2721 0.961 . S
C2707 H2722 0.961 . S
C2707 H2723 0.961 . S
C2708 C2709 1.370 . S
C2708 C2710 1.363 . S
C2708 H2724 0.931 . S
C2709 C2708 1.370 . S
C2709 C2713 1.408 . S
C2710 C2708 1.363 . S
C2710 C2711 1.370 . S
C2710 C2714 1.524 . S
C2711 C2703 1.503 . S
C2711 C2710 1.370 . S
C2711 C2712 1.403 . S
C2712 C2711 1.403 . S
C2712 C2713 1.404 . S
C2712 C2715 1.539 . S
C2713 C2709 1.408 . S
C2713 C2712 1.404 . S
C2713 H2725 0.930 . S
C2714 C2710 1.524 . S
C2714 H2726 0.956 . S
C2714 H2727 0.961 . S
C2714 H2728 0.961 . S
C2715 C2712 1.539 . S
C2715 H2729 0.958 . S
C2715 H2730 0.961 . S
C2715 H2731 0.960 . S
H2716 C2700 0.931 . S
H2717 C2705 0.929 . S
H2718 C2706 0.960 . S
H2719 C2706 0.962 . S
H2720 C2706 0.960 . S
H2721 C2707 0.961 . S
H2722 C2707 0.961 . S
H2723 C2707 0.961 . S
H2724 C2708 0.931 . S
H2725 C2713 0.930 . S
H2726 C2714 0.956 . S
H2727 C2714 0.961 . S
H2728 C2714 0.961 . S
H2729 C2715 0.958 . S
H2730 C2715 0.961 . S
H2731 C2715 0.960 . S
C2732 C2733 1.391 1_655 S
C2732 C2734 1.394 . S
C2732 H2748 0.931 1_655 S
C2733 C2732 1.391 1_455 S
C2733 C2737 1.376 1_455 S
C2734 C2732 1.394 . S
C2734 C2735 1.369 . S
C2734 C2738 1.531 . S
C2735 C2734 1.369 . S
C2735 C2736 1.410 . S
C2735 C2743 1.503 . S
C2736 C2735 1.410 . S
C2736 C2737 1.392 . S
C2736 C2739 1.511 . S
C2737 C2733 1.376 1_655 S
C2737 C2736 1.392 . S
C2737 H2749 0.929 1_655 S
C2738 C2734 1.531 . S
C2738 H2750 0.960 . S
C2738 H2751 0.962 . S
C2738 H2752 0.960 . S
C2739 C2736 1.511 . S
C2739 H2753 0.961 . S
C2739 H2754 0.961 . S
C2739 H2755 0.961 . S
C2740 C2741 1.370 . S
C2740 C2742 1.363 . S
C2740 H2756 0.931 . S
C2741 C2740 1.370 . S
C2741 C2745 1.408 . S
C2742 C2740 1.363 . S
C2742 C2743 1.370 . S
C2742 C2746 1.524 . S
C2743 C2735 1.503 . S
C2743 C2742 1.370 . S
C2743 C2744 1.403 . S
C2744 C2743 1.403 . S
C2744 C2745 1.404 . S
C2744 C2747 1.539 . S
C2745 C2741 1.408 . S
C2745 C2744 1.404 . S
C2745 H2757 0.930 . S
C2746 C2742 1.524 . S
C2746 H2758 0.956 . S
C2746 H2759 0.961 . S
C2746 H2760 0.961 . S
C2747 C2744 1.539 . S
C2747 H2761 0.958 . S
C2747 H2762 0.961 . S
C2747 H2763 0.960 . S
H2748 C2732 0.931 1_455 S
H2749 C2737 0.929 1_455 S
H2750 C2738 0.960 . S
H2751 C2738 0.962 . S
H2752 C2738 0.960 . S
H2753 C2739 0.961 . S
H2754 C2739 0.961 . S
H2755 C2739 0.961 . S
H2756 C2740 0.931 . S
H2757 C2745 0.930 . S
H2758 C2746 0.956 . S
H2759 C2746 0.961 . S
H2760 C2746 0.961 . S
H2761 C2747 0.958 . S
H2762 C2747 0.961 . S
H2763 C2747 0.960 . S
C2764 C2765 1.391 . S
C2764 C2766 1.394 . S
C2764 H2780 0.931 . S
C2765 C2764 1.391 . S
C2765 C2769 1.376 . S
C2766 C2764 1.394 . S
C2766 C2767 1.369 . S
C2766 C2770 1.531 . S
C2767 C2766 1.369 . S
C2767 C2768 1.410 . S
C2767 C2775 1.503 . S
C2768 C2767 1.410 . S
C2768 C2769 1.392 . S
C2768 C2771 1.511 . S
C2769 C2765 1.376 . S
C2769 C2768 1.392 . S
C2769 H2781 0.929 . S
C2770 C2766 1.531 . S
C2770 H2782 0.960 . S
C2770 H2783 0.962 . S
C2770 H2784 0.960 . S
C2771 C2768 1.511 . S
C2771 H2785 0.961 . S
C2771 H2786 0.961 . S
C2771 H2787 0.961 . S
C2772 C2773 1.370 . S
C2772 C2774 1.363 . S
C2772 H2788 0.931 . S
C2773 C2772 1.370 . S
C2773 C2777 1.408 . S
C2774 C2772 1.363 . S
C2774 C2775 1.370 . S
C2774 C2778 1.524 . S
C2775 C2767 1.503 . S
C2775 C2774 1.370 . S
C2775 C2776 1.403 . S
C2776 C2775 1.403 . S
C2776 C2777 1.404 . S
C2776 C2779 1.539 . S
C2777 C2773 1.408 . S
C2777 C2776 1.404 . S
C2777 H2789 0.930 . S
C2778 C2774 1.524 . S
C2778 H2790 0.956 . S
C2778 H2791 0.961 . S
C2778 H2792 0.961 . S
C2779 C2776 1.539 . S
C2779 H2793 0.958 . S
C2779 H2794 0.961 . S
C2779 H2795 0.960 . S
H2780 C2764 0.931 . S
H2781 C2769 0.929 . S
H2782 C2770 0.960 . S
H2783 C2770 0.962 . S
H2784 C2770 0.960 . S
H2785 C2771 0.961 . S
H2786 C2771 0.961 . S
H2787 C2771 0.961 . S
H2788 C2772 0.931 . S
H2789 C2777 0.930 . S
H2790 C2778 0.956 . S
H2791 C2778 0.961 . S
H2792 C2778 0.961 . S
H2793 C2779 0.958 . S
H2794 C2779 0.961 . S
H2795 C2779 0.960 . S
C2796 C2797 1.391 1_655 S
C2796 C2798 1.394 . S
C2796 H2812 0.933 . S
C2797 C2796 1.391 1_455 S
C2797 C2801 1.376 . S
C2798 C2796 1.394 . S
C2798 C2799 1.369 . S
C2798 C2802 1.531 . S
C2799 C2798 1.369 . S
C2799 C2800 1.410 . S
C2799 C2807 1.503 . S
C2800 C2799 1.410 . S
C2800 C2801 1.392 1_655 S
C2800 C2803 1.511 . S
C2801 C2797 1.376 . S
C2801 C2800 1.392 1_455 S
C2801 H2813 0.929 . S
C2802 C2798 1.531 . S
C2802 H2814 0.960 . S
C2802 H2815 0.962 . S
C2802 H2816 0.960 . S
C2803 C2800 1.511 . S
C2803 H2817 0.961 . S
C2803 H2818 0.961 . S
C2803 H2819 0.961 . S
C2804 C2805 1.370 . S
C2804 C2806 1.363 . S
C2804 H2820 0.931 . S
C2805 C2804 1.370 . S
C2805 C2809 1.408 . S
C2806 C2804 1.363 . S
C2806 C2807 1.370 . S
C2806 C2810 1.524 . S
C2807 C2799 1.503 . S
C2807 C2806 1.370 . S
C2807 C2808 1.403 . S
C2808 C2807 1.403 . S
C2808 C2809 1.404 . S
C2808 C2811 1.539 . S
C2809 C2805 1.408 . S
C2809 C2808 1.404 . S
C2809 H2821 0.930 . S
C2810 C2806 1.524 . S
C2810 H2822 0.956 . S
C2810 H2823 0.961 . S
C2810 H2824 0.961 . S
C2811 C2808 1.539 . S
C2811 H2825 0.958 . S
C2811 H2826 0.961 . S
C2811 H2827 0.960 . S
H2812 C2796 0.933 . S
H2813 C2801 0.929 . S
H2814 C2802 0.960 . S
H2815 C2802 0.962 . S
H2816 C2802 0.960 . S
H2817 C2803 0.961 . S
H2818 C2803 0.961 . S
H2819 C2803 0.961 . S
H2820 C2804 0.931 . S
H2821 C2809 0.930 . S
H2822 C2810 0.956 . S
H2823 C2810 0.961 . S
H2824 C2810 0.961 . S
H2825 C2811 0.958 . S
H2826 C2811 0.961 . S
H2827 C2811 0.960 . S
C2828 C2829 1.391 . S
C2828 C2830 1.394 . S
C2828 H2844 0.931 . S
C2829 C2828 1.391 . S
C2829 C2833 1.376 . S
C2830 C2828 1.394 . S
C2830 C2831 1.369 . S
C2830 C2834 1.531 . S
C2831 C2830 1.369 . S
C2831 C2832 1.410 . S
C2831 C2839 1.503 . S
C2832 C2831 1.410 . S
C2832 C2833 1.392 . S
C2832 C2835 1.511 . S
C2833 C2829 1.376 . S
C2833 C2832 1.392 . S
C2833 H2845 0.929 . S
C2834 C2830 1.531 . S
C2834 H2846 0.960 . S
C2834 H2847 0.962 . S
C2834 H2848 0.960 . S
C2835 C2832 1.511 . S
C2835 H2849 0.961 . S
C2835 H2850 0.961 . S
C2835 H2851 0.961 . S
C2836 C2837 1.370 . S
C2836 C2838 1.363 . S
C2836 H2852 0.931 . S
C2837 C2836 1.370 . S
C2837 C2841 1.408 . S
C2838 C2836 1.363 . S
C2838 C2839 1.370 . S
C2838 C2842 1.524 . S
C2839 C2831 1.503 . S
C2839 C2838 1.370 . S
C2839 C2840 1.403 . S
C2840 C2839 1.403 . S
C2840 C2841 1.404 . S
C2840 C2843 1.539 . S
C2841 C2837 1.408 . S
C2841 C2840 1.404 . S
C2841 H2853 0.930 . S
C2842 C2838 1.524 . S
C2842 H2854 0.956 . S
C2842 H2855 0.961 . S
C2842 H2856 0.961 . S
C2843 C2840 1.539 . S
C2843 H2857 0.958 . S
C2843 H2858 0.961 . S
C2843 H2859 0.960 . S
H2844 C2828 0.931 . S
H2845 C2833 0.929 . S
H2846 C2834 0.960 . S
H2847 C2834 0.962 . S
H2848 C2834 0.960 . S
H2849 C2835 0.961 . S
H2850 C2835 0.961 . S
H2851 C2835 0.961 . S
H2852 C2836 0.931 . S
H2853 C2841 0.930 . S
H2854 C2842 0.956 . S
H2855 C2842 0.961 . S
H2856 C2842 0.961 . S
H2857 C2843 0.958 . S
H2858 C2843 0.961 . S
H2859 C2843 0.960 . S
C2860 C2861 1.391 . S
C2860 C2862 1.394 1_565 S
C2860 H2876 0.931 . S
C2861 C2860 1.391 . S
C2861 C2865 1.376 . S
C2862 C2860 1.394 1_545 S
C2862 C2863 1.369 . S
C2862 C2866 1.531 . S
C2863 C2862 1.369 . S
C2863 C2864 1.410 . S
C2863 C2871 1.503 . S
C2864 C2863 1.410 . S
C2864 C2865 1.392 1_545 S
C2864 C2867 1.511 . S
C2865 C2861 1.376 . S
C2865 C2864 1.392 1_565 S
C2865 H2877 0.929 . S
C2866 C2862 1.531 . S
C2866 H2878 0.960 . S
C2866 H2879 0.962 . S
C2866 H2880 0.960 . S
C2867 C2864 1.511 . S
C2867 H2881 0.961 . S
C2867 H2882 0.961 . S
C2867 H2883 0.961 . S
C2868 C2869 1.370 . S
C2868 C2870 1.363 . S
C2868 H2884 0.931 . S
C2869 C2868 1.370 . S
C2869 C2873 1.408 . S
C2870 C2868 1.363 . S
C2870 C2871 1.370 . S
C2870 C2874 1.524 . S
C2871 C2863 1.503 . S
C2871 C2870 1.370 . S
C2871 C2872 1.403 . S
C2872 C2871 1.403 . S
C2872 C2873 1.404 . S
C2872 C2875 1.539 . S
C2873 C2869 1.408 . S
C2873 C2872 1.404 . S
C2873 H2885 0.930 . S
C2874 C2870 1.524 . S
C2874 H2886 0.956 . S
C2874 H2887 0.961 . S
C2874 H2888 0.961 . S
C2875 C2872 1.539 . S
C2875 H2889 0.958 . S
C2875 H2890 0.961 . S
C2875 H2891 0.960 . S
H2876 C2860 0.931 . S
H2877 C2865 0.929 . S
H2878 C2866 0.960 . S
H2879 C2866 0.962 . S
H2880 C2866 0.960 . S
H2881 C2867 0.961 . S
H2882 C2867 0.961 . S
H2883 C2867 0.961 . S
H2884 C2868 0.931 . S
H2885 C2873 0.930 . S
H2886 C2874 0.956 . S
H2887 C2874 0.961 . S
H2888 C2874 0.961 . S
H2889 C2875 0.958 . S
H2890 C2875 0.961 . S
H2891 C2875 0.960 . S
C2892 C2893 1.391 . S
C2892 C2894 1.394 . S
C2892 H2908 0.931 . S
C2893 C2892 1.391 . S
C2893 C2897 1.376 . S
C2894 C2892 1.394 . S
C2894 C2895 1.369 . S
C2894 C2898 1.531 . S
C2895 C2894 1.369 . S
C2895 C2896 1.410 . S
C2895 C2903 1.503 . S
C2896 C2895 1.410 . S
C2896 C2897 1.392 . S
C2896 C2899 1.511 . S
C2897 C2893 1.376 . S
C2897 C2896 1.392 . S
C2897 H2909 0.929 . S
C2898 C2894 1.531 . S
C2898 H2910 0.960 . S
C2898 H2911 0.962 . S
C2898 H2912 0.960 . S
C2899 C2896 1.511 . S
C2899 H2913 0.961 . S
C2899 H2914 0.961 . S
C2899 H2915 0.961 . S
C2900 C2901 1.370 . S
C2900 C2902 1.363 . S
C2900 H2916 0.931 . S
C2901 C2900 1.370 . S
C2901 C2905 1.408 . S
C2902 C2900 1.363 . S
C2902 C2903 1.370 . S
C2902 C2906 1.524 . S
C2903 C2895 1.503 . S
C2903 C2902 1.370 . S
C2903 C2904 1.403 . S
C2904 C2903 1.403 . S
C2904 C2905 1.404 . S
C2904 C2907 1.539 . S
C2905 C2901 1.408 . S
C2905 C2904 1.404 . S
C2905 H2917 0.930 . S
C2906 C2902 1.524 . S
C2906 H2918 0.956 . S
C2906 H2919 0.961 . S
C2906 H2920 0.961 . S
C2907 C2904 1.539 . S
C2907 H2921 0.958 . S
C2907 H2922 0.961 . S
C2907 H2923 0.960 . S
H2908 C2892 0.931 . S
H2909 C2897 0.929 . S
H2910 C2898 0.960 . S
H2911 C2898 0.962 . S
H2912 C2898 0.960 . S
H2913 C2899 0.961 . S
H2914 C2899 0.961 . S
H2915 C2899 0.961 . S
H2916 C2900 0.931 . S
H2917 C2905 0.930 . S
H2918 C2906 0.956 . S
H2919 C2906 0.961 . S
H2920 C2906 0.961 . S
H2921 C2907 0.958 . S
H2922 C2907 0.961 . S
H2923 C2907 0.960 . S
C2924 C2925 1.391 . S
C2924 C2926 1.394 . S
C2924 H2940 0.931 . S
C2925 C2924 1.391 . S
C2925 C2929 1.376 . S
C2926 C2924 1.394 . S
C2926 C2927 1.369 . S
C2926 C2930 1.531 . S
C2927 C2926 1.369 . S
C2927 C2928 1.410 . S
C2927 C2935 1.503 . S
C2928 C2927 1.410 . S
C2928 C2929 1.392 . S
C2928 C2931 1.511 . S
C2929 C2925 1.376 . S
C2929 C2928 1.392 . S
C2929 H2941 0.929 . S
C2930 C2926 1.531 . S
C2930 H2942 0.960 . S
C2930 H2943 0.962 . S
C2930 H2944 0.960 . S
C2931 C2928 1.511 . S
C2931 H2945 0.961 . S
C2931 H2946 0.961 . S
C2931 H2947 0.961 . S
C2932 C2933 1.370 . S
C2932 C2934 1.363 . S
C2932 H2948 0.931 . S
C2933 C2932 1.370 . S
C2933 C2937 1.408 . S
C2934 C2932 1.363 . S
C2934 C2935 1.370 . S
C2934 C2938 1.524 . S
C2935 C2927 1.503 . S
C2935 C2934 1.370 . S
C2935 C2936 1.403 . S
C2936 C2935 1.403 . S
C2936 C2937 1.404 . S
C2936 C2939 1.539 . S
C2937 C2933 1.408 . S
C2937 C2936 1.404 . S
C2937 H2949 0.930 . S
C2938 C2934 1.524 . S
C2938 H2950 0.956 . S
C2938 H2951 0.961 . S
C2938 H2952 0.961 . S
C2939 C2936 1.539 . S
C2939 H2953 0.958 . S
C2939 H2954 0.961 . S
C2939 H2955 0.960 . S
H2940 C2924 0.931 . S
H2941 C2929 0.929 . S
H2942 C2930 0.960 . S
H2943 C2930 0.962 . S
H2944 C2930 0.960 . S
H2945 C2931 0.961 . S
H2946 C2931 0.961 . S
H2947 C2931 0.961 . S
H2948 C2932 0.931 . S
H2949 C2937 0.930 . S
H2950 C2938 0.956 . S
H2951 C2938 0.961 . S
H2952 C2938 0.961 . S
H2953 C2939 0.958 . S
H2954 C2939 0.961 . S
H2955 C2939 0.960 . S
C2956 C2957 1.391 . S
C2956 C2958 1.394 . S
C2956 H2972 0.931 . S
C2957 C2956 1.391 . S
C2957 C2961 1.376 . S
C2958 C2956 1.394 . S
C2958 C2959 1.369 . S
C2958 C2962 1.531 . S
C2959 C2958 1.369 . S
C2959 C2960 1.410 . S
C2959 C2967 1.503 . S
C2960 C2959 1.410 . S
C2960 C2961 1.392 . S
C2960 C2963 1.511 . S
C2961 C2957 1.376 . S
C2961 C2960 1.392 . S
C2961 H2973 0.929 . S
C2962 C2958 1.531 . S
C2962 H2974 0.960 . S
C2962 H2975 0.962 . S
C2962 H2976 0.960 . S
C2963 C2960 1.511 . S
C2963 H2977 0.961 . S
C2963 H2978 0.961 . S
C2963 H2979 0.961 . S
C2964 C2965 1.370 . S
C2964 C2966 1.363 . S
C2964 H2980 0.931 . S
C2965 C2964 1.370 . S
C2965 C2969 1.408 . S
C2966 C2964 1.363 . S
C2966 C2967 1.370 . S
C2966 C2970 1.524 . S
C2967 C2959 1.503 . S
C2967 C2966 1.370 . S
C2967 C2968 1.403 . S
C2968 C2967 1.403 . S
C2968 C2969 1.404 . S
C2968 C2971 1.539 . S
C2969 C2965 1.408 . S
C2969 C2968 1.404 . S
C2969 H2981 0.930 . S
C2970 C2966 1.524 . S
C2970 H2982 0.956 . S
C2970 H2983 0.961 . S
C2970 H2984 0.961 . S
C2971 C2968 1.539 . S
C2971 H2985 0.958 . S
C2971 H2986 0.961 . S
C2971 H2987 0.960 . S
H2972 C2956 0.931 . S
H2973 C2961 0.929 . S
H2974 C2962 0.960 . S
H2975 C2962 0.962 . S
H2976 C2962 0.960 . S
H2977 C2963 0.961 . S
H2978 C2963 0.961 . S
H2979 C2963 0.961 . S
H2980 C2964 0.931 . S
H2981 C2969 0.930 . S
H2982 C2970 0.956 . S
H2983 C2970 0.961 . S
H2984 C2970 0.961 . S
H2985 C2971 0.958 . S
H2986 C2971 0.961 . S
H2987 C2971 0.960 . S
C2988 C2989 1.391 . S
C2988 C2990 1.394 . S
C2988 H3004 0.931 . S
C2989 C2988 1.391 . S
C2989 C2993 1.376 . S
C2990 C2988 1.394 . S
C2990 C2991 1.369 . S
C2990 C2994 1.531 . S
C2991 C2990 1.369 . S
C2991 C2992 1.410 . S
C2991 C2999 1.503 . S
C2992 C2991 1.410 . S
C2992 C2993 1.392 . S
C2992 C2995 1.511 . S
C2993 C2989 1.376 . S
C2993 C2992 1.392 . S
C2993 H3005 0.929 . S
C2994 C2990 1.531 . S
C2994 H3006 0.960 . S
C2994 H3007 0.962 . S
C2994 H3008 0.960 . S
C2995 C2992 1.511 . S
C2995 H3009 0.961 . S
C2995 H3010 0.961 . S
C2995 H3011 0.961 . S
C2996 C2997 1.370 . S
C2996 C2998 1.363 . S
C2996 H3012 0.931 . S
C2997 C2996 1.370 . S
C2997 C3001 1.408 . S
C2998 C2996 1.363 . S
C2998 C2999 1.370 . S
C2998 C3002 1.524 . S
C2999 C2991 1.503 . S
C2999 C2998 1.370 . S
C2999 C3000 1.403 . S
C3000 C2999 1.403 . S
C3000 C3001 1.404 . S
C3000 C3003 1.543 . S
C3001 C2997 1.408 . S
C3001 C3000 1.404 . S
C3001 H3013 0.930 1_565 S
C3002 C2998 1.524 . S
C3002 H3014 0.956 . S
C3002 H3015 0.961 . S
C3002 H3016 0.961 . S
C3003 C3000 1.543 . S
C3003 H3017 0.943 1_565 S
C3003 H3018 0.962 1_565 S
C3003 H3019 0.971 . S
H3004 C2988 0.931 . S
H3005 C2993 0.929 . S
H3006 C2994 0.960 . S
H3007 C2994 0.962 . S
H3008 C2994 0.960 . S
H3009 C2995 0.961 . S
H3010 C2995 0.961 . S
H3011 C2995 0.961 . S
H3012 C2996 0.931 . S
H3013 C3001 0.930 1_545 S
H3014 C3002 0.956 . S
H3015 C3002 0.961 . S
H3016 C3002 0.961 . S
H3017 C3003 0.943 1_545 S
H3018 C3003 0.962 1_545 S
H3019 C3003 0.971 . S
C3020 C3021 1.391 . S
C3020 C3022 1.394 . S
C3020 H3036 0.931 . S
C3021 C3020 1.391 . S
C3021 C3025 1.376 . S
C3022 C3020 1.394 . S
C3022 C3023 1.369 . S
C3022 C3026 1.531 . S
C3023 C3022 1.369 . S
C3023 C3024 1.410 . S
C3023 C3031 1.503 . S
C3024 C3023 1.410 . S
C3024 C3025 1.392 . S
C3024 C3027 1.511 . S
C3025 C3021 1.376 . S
C3025 C3024 1.392 . S
C3025 H3037 0.929 . S
C3026 C3022 1.531 . S
C3026 H3038 0.960 . S
C3026 H3039 0.962 . S
C3026 H3040 0.960 . S
C3027 C3024 1.511 . S
C3027 H3041 0.961 1_455 S
C3027 H3042 0.961 1_455 S
C3027 H3043 0.961 . S
C3028 C3029 1.370 . S
C3028 C3030 1.363 . S
C3028 H3044 0.931 . S
C3029 C3028 1.370 . S
C3029 C3033 1.408 . S
C3030 C3028 1.363 . S
C3030 C3031 1.370 . S
C3030 C3034 1.524 . S
C3031 C3023 1.503 . S
C3031 C3030 1.370 . S
C3031 C3032 1.403 . S
C3032 C3031 1.403 . S
C3032 C3033 1.404 . S
C3032 C3035 1.539 . S
C3033 C3029 1.408 . S
C3033 C3032 1.404 . S
C3033 H3045 0.930 . S
C3034 C3030 1.524 . S
C3034 H3046 0.956 . S
C3034 H3047 0.961 . S
C3034 H3048 0.961 . S
C3035 C3032 1.539 . S
C3035 H3049 0.958 . S
C3035 H3050 0.961 . S
C3035 H3051 0.960 . S
H3036 C3020 0.931 . S
H3037 C3025 0.929 . S
H3038 C3026 0.960 . S
H3039 C3026 0.962 . S
H3040 C3026 0.960 . S
H3041 C3027 0.961 1_655 S
H3042 C3027 0.961 1_655 S
H3043 C3027 0.961 . S
H3044 C3028 0.931 . S
H3045 C3033 0.930 . S
H3046 C3034 0.956 . S
H3047 C3034 0.961 . S
H3048 C3034 0.961 . S
H3049 C3035 0.958 . S
H3050 C3035 0.961 . S
H3051 C3035 0.960 . S
C3052 C3053 1.391 . S
C3052 C3054 1.394 . S
C3052 H3068 0.931 . S
C3053 C3052 1.391 . S
C3053 C3057 1.376 . S
C3054 C3052 1.394 . S
C3054 C3055 1.369 . S
C3054 C3058 1.531 . S
C3055 C3054 1.369 . S
C3055 C3056 1.410 . S
C3055 C3063 1.503 . S
C3056 C3055 1.410 . S
C3056 C3057 1.392 . S
C3056 C3059 1.511 . S
C3057 C3053 1.376 . S
C3057 C3056 1.392 . S
C3057 H3069 0.929 . S
C3058 C3054 1.531 . S
C3058 H3070 0.960 . S
C3058 H3071 0.962 . S
C3058 H3072 0.960 . S
C3059 C3056 1.511 . S
C3059 H3073 0.961 . S
C3059 H3074 0.961 . S
C3059 H3075 0.961 . S
C3060 C3061 1.370 . S
C3060 C3062 1.363 . S
C3060 H3076 0.931 . S
C3061 C3060 1.370 . S
C3061 C3065 1.408 . S
C3062 C3060 1.363 . S
C3062 C3063 1.370 . S
C3062 C3066 1.524 . S
C3063 C3055 1.503 . S
C3063 C3062 1.370 . S
C3063 C3064 1.403 . S
C3064 C3063 1.403 . S
C3064 C3065 1.404 . S
C3064 C3067 1.539 . S
C3065 C3061 1.408 . S
C3065 C3064 1.404 . S
C3065 H3077 0.930 . S
C3066 C3062 1.524 . S
C3066 H3078 0.956 . S
C3066 H3079 0.961 . S
C3066 H3080 0.961 . S
C3067 C3064 1.539 . S
C3067 H3081 0.958 . S
C3067 H3082 0.961 . S
C3067 H3083 0.960 . S
H3068 C3052 0.931 . S
H3069 C3057 0.929 . S
H3070 C3058 0.960 . S
H3071 C3058 0.962 . S
H3072 C3058 0.960 . S
H3073 C3059 0.961 . S
H3074 C3059 0.961 . S
H3075 C3059 0.961 . S
H3076 C3060 0.931 . S
H3077 C3065 0.930 . S
H3078 C3066 0.956 . S
H3079 C3066 0.961 . S
H3080 C3066 0.961 . S
H3081 C3067 0.958 . S
H3082 C3067 0.961 . S
H3083 C3067 0.960 . S
C3084 C3085 1.391 . S
C3084 C3086 1.394 . S
C3084 H3100 0.931 . S
C3085 C3084 1.391 . S
C3085 C3089 1.376 . S
C3086 C3084 1.394 . S
C3086 C3087 1.369 . S
C3086 C3090 1.531 1_655 S
C3087 C3086 1.369 . S
C3087 C3088 1.410 . S
C3087 C3095 1.503 . S
C3088 C3087 1.410 . S
C3088 C3089 1.392 . S
C3088 C3091 1.511 . S
C3089 C3085 1.376 . S
C3089 C3088 1.392 . S
C3089 H3101 0.929 . S
C3090 C3086 1.531 1_455 S
C3090 H3102 0.960 . S
C3090 H3103 0.962 . S
C3090 H3104 0.960 . S
C3091 C3088 1.511 . S
C3091 H3105 0.961 . S
C3091 H3106 0.961 . S
C3091 H3107 0.961 . S
C3092 C3093 1.370 . S
C3092 C3094 1.363 . S
C3092 H3108 0.931 . S
C3093 C3092 1.370 . S
C3093 C3097 1.408 . S
C3094 C3092 1.363 . S
C3094 C3095 1.370 . S
C3094 C3098 1.524 . S
C3095 C3087 1.503 . S
C3095 C3094 1.370 . S
C3095 C3096 1.403 . S
C3096 C3095 1.403 . S
C3096 C3097 1.404 . S
C3096 C3099 1.539 . S
C3097 C3093 1.408 . S
C3097 C3096 1.404 . S
C3097 H3109 0.930 . S
C3098 C3094 1.524 . S
C3098 H3110 0.956 . S
C3098 H3111 0.961 . S
C3098 H3112 0.961 . S
C3099 C3096 1.539 . S
C3099 H3113 0.958 . S
C3099 H3114 0.961 . S
C3099 H3115 0.960 . S
H3100 C3084 0.931 . S
H3101 C3089 0.929 . S
H3102 C3090 0.960 . S
H3103 C3090 0.962 . S
H3104 C3090 0.960 . S
H3105 C3091 0.961 . S
H3106 C3091 0.961 . S
H3107 C3091 0.961 . S
H3108 C3092 0.931 . S
H3109 C3097 0.930 . S
H3110 C3098 0.956 . S
H3111 C3098 0.961 . S
H3112 C3098 0.961 . S
H3113 C3099 0.958 . S
H3114 C3099 0.961 . S
H3115 C3099 0.960 . S
C3116 C3117 1.391 . S
C3116 C3118 1.394 . S
C3116 H3132 0.931 . S
C3117 C3116 1.391 . S
C3117 C3121 1.376 . S
C3118 C3116 1.394 . S
C3118 C3119 1.369 . S
C3118 C3122 1.531 . S
C3119 C3118 1.369 . S
C3119 C3120 1.410 . S
C3119 C3127 1.503 . S
C3120 C3119 1.410 . S
C3120 C3121 1.392 . S
C3120 C3123 1.511 . S
C3121 C3117 1.376 . S
C3121 C3120 1.392 . S
C3121 H3133 0.929 . S
C3122 C3118 1.531 . S
C3122 H3134 0.960 . S
C3122 H3135 0.962 . S
C3122 H3136 0.960 . S
C3123 C3120 1.511 . S
C3123 H3137 0.961 . S
C3123 H3138 0.961 . S
C3123 H3139 0.961 . S
C3124 C3125 1.370 . S
C3124 C3126 1.363 . S
C3124 H3140 0.931 . S
C3125 C3124 1.370 . S
C3125 C3129 1.408 . S
C3126 C3124 1.363 . S
C3126 C3127 1.370 . S
C3126 C3130 1.524 . S
C3127 C3119 1.503 . S
C3127 C3126 1.370 . S
C3127 C3128 1.403 . S
C3128 C3127 1.403 . S
C3128 C3129 1.404 . S
C3128 C3131 1.539 . S
C3129 C3125 1.408 . S
C3129 C3128 1.404 . S
C3129 H3141 0.930 . S
C3130 C3126 1.524 . S
C3130 H3142 0.956 . S
C3130 H3143 0.961 . S
C3130 H3144 0.961 . S
C3131 C3128 1.539 . S
C3131 H3145 0.958 . S
C3131 H3146 0.961 . S
C3131 H3147 0.960 . S
H3132 C3116 0.931 . S
H3133 C3121 0.929 . S
H3134 C3122 0.960 . S
H3135 C3122 0.962 . S
H3136 C3122 0.960 . S
H3137 C3123 0.961 . S
H3138 C3123 0.961 . S
H3139 C3123 0.961 . S
H3140 C3124 0.931 . S
H3141 C3129 0.930 . S
H3142 C3130 0.956 . S
H3143 C3130 0.961 . S
H3144 C3130 0.961 . S
H3145 C3131 0.958 . S
H3146 C3131 0.961 . S
H3147 C3131 0.960 . S
C3148 C3149 1.391 . S
C3148 C3150 1.394 . S
C3148 H3164 0.931 . S
C3149 C3148 1.391 . S
C3149 C3153 1.376 . S
C3150 C3148 1.394 . S
C3150 C3151 1.369 . S
C3150 C3154 1.531 . S
C3151 C3150 1.369 . S
C3151 C3152 1.410 . S
C3151 C3159 1.503 . S
C3152 C3151 1.410 . S
C3152 C3153 1.392 . S
C3152 C3155 1.511 . S
C3153 C3149 1.376 . S
C3153 C3152 1.392 . S
C3153 H3165 0.929 . S
C3154 C3150 1.531 . S
C3154 H3166 0.960 . S
C3154 H3167 0.962 1_545 S
C3154 H3168 0.960 1_545 S
C3155 C3152 1.511 . S
C3155 H3169 0.961 . S
C3155 H3170 0.961 . S
C3155 H3171 0.961 . S
C3156 C3157 1.370 . S
C3156 C3158 1.363 . S
C3156 H3172 0.931 . S
C3157 C3156 1.370 . S
C3157 C3161 1.408 . S
C3158 C3156 1.363 . S
C3158 C3159 1.370 . S
C3158 C3162 1.524 . S
C3159 C3151 1.503 . S
C3159 C3158 1.370 . S
C3159 C3160 1.403 . S
C3160 C3159 1.403 . S
C3160 C3161 1.404 . S
C3160 C3163 1.539 . S
C3161 C3157 1.408 . S
C3161 C3160 1.404 . S
C3161 H3173 0.930 . S
C3162 C3158 1.524 . S
C3162 H3174 0.956 . S
C3162 H3175 0.961 . S
C3162 H3176 0.961 . S
C3163 C3160 1.539 . S
C3163 H3177 0.958 . S
C3163 H3178 0.961 . S
C3163 H3179 0.960 . S
H3164 C3148 0.931 . S
H3165 C3153 0.929 . S
H3166 C3154 0.960 . S
H3167 C3154 0.962 1_565 S
H3168 C3154 0.960 1_565 S
H3169 C3155 0.961 . S
H3170 C3155 0.961 . S
H3171 C3155 0.961 . S
H3172 C3156 0.931 . S
H3173 C3161 0.930 . S
H3174 C3162 0.956 . S
H3175 C3162 0.961 . S
H3176 C3162 0.961 . S
H3177 C3163 0.958 . S
H3178 C3163 0.961 . S
H3179 C3163 0.960 . S
C3180 C3181 1.391 . S
C3180 C3182 1.394 . S
C3180 H3196 0.931 . S
C3181 C3180 1.391 . S
C3181 C3185 1.376 . S
C3182 C3180 1.394 . S
C3182 C3183 1.369 . S
C3182 C3186 1.531 . S
C3183 C3182 1.369 . S
C3183 C3184 1.410 . S
C3183 C3191 1.503 . S
C3184 C3183 1.410 . S
C3184 C3185 1.392 . S
C3184 C3187 1.511 . S
C3185 C3181 1.376 . S
C3185 C3184 1.392 . S
C3185 H3197 0.929 . S
C3186 C3182 1.531 . S
C3186 H3198 0.960 . S
C3186 H3199 0.962 . S
C3186 H3200 0.960 . S
C3187 C3184 1.511 . S
C3187 H3201 0.961 . S
C3187 H3202 0.961 . S
C3187 H3203 0.961 . S
C3188 C3189 1.370 . S
C3188 C3190 1.363 . S
C3188 H3204 0.931 . S
C3189 C3188 1.370 . S
C3189 C3193 1.408 . S
C3190 C3188 1.363 . S
C3190 C3191 1.370 . S
C3190 C3194 1.524 . S
C3191 C3183 1.503 . S
C3191 C3190 1.370 . S
C3191 C3192 1.403 . S
C3192 C3191 1.403 . S
C3192 C3193 1.404 . S
C3192 C3195 1.539 . S
C3193 C3189 1.408 . S
C3193 C3192 1.404 . S
C3193 H3205 0.930 . S
C3194 C3190 1.524 . S
C3194 H3206 0.956 . S
C3194 H3207 0.961 . S
C3194 H3208 0.961 . S
C3195 C3192 1.539 . S
C3195 H3209 0.958 . S
C3195 H3210 0.961 . S
C3195 H3211 0.960 . S
H3196 C3180 0.931 . S
H3197 C3185 0.929 . S
H3198 C3186 0.960 . S
H3199 C3186 0.962 . S
H3200 C3186 0.960 . S
H3201 C3187 0.961 . S
H3202 C3187 0.961 . S
H3203 C3187 0.961 . S
H3204 C3188 0.931 . S
H3205 C3193 0.930 . S
H3206 C3194 0.956 . S
H3207 C3194 0.961 . S
H3208 C3194 0.961 . S
H3209 C3195 0.958 . S
H3210 C3195 0.961 . S
H3211 C3195 0.960 . S
C3212 C3213 1.391 . S
C3212 C3214 1.394 . S
C3212 H3228 0.931 . S
C3213 C3212 1.391 . S
C3213 C3217 1.376 . S
C3214 C3212 1.394 . S
C3214 C3215 1.369 . S
C3214 C3218 1.531 . S
C3215 C3214 1.369 . S
C3215 C3216 1.410 . S
C3215 C3223 1.503 . S
C3216 C3215 1.410 . S
C3216 C3217 1.392 . S
C3216 C3219 1.511 . S
C3217 C3213 1.376 . S
C3217 C3216 1.392 . S
C3217 H3229 0.929 . S
C3218 C3214 1.531 . S
C3218 H3230 0.960 . S
C3218 H3231 0.962 . S
C3218 H3232 0.960 . S
C3219 C3216 1.511 . S
C3219 H3233 0.961 . S
C3219 H3234 0.961 . S
C3219 H3235 0.961 . S
C3220 C3221 1.370 . S
C3220 C3222 1.363 . S
C3220 H3236 0.931 . S
C3221 C3220 1.370 . S
C3221 C3225 1.408 . S
C3222 C3220 1.363 . S
C3222 C3223 1.370 . S
C3222 C3226 1.524 . S
C3223 C3215 1.503 . S
C3223 C3222 1.370 . S
C3223 C3224 1.403 . S
C3224 C3223 1.403 . S
C3224 C3225 1.404 . S
C3224 C3227 1.539 . S
C3225 C3221 1.408 . S
C3225 C3224 1.404 . S
C3225 H3237 0.930 . S
C3226 C3222 1.524 . S
C3226 H3238 0.956 . S
C3226 H3239 0.961 . S
C3226 H3240 0.961 . S
C3227 C3224 1.539 . S
C3227 H3241 0.958 . S
C3227 H3242 0.961 . S
C3227 H3243 0.960 . S
H3228 C3212 0.931 . S
H3229 C3217 0.929 . S
H3230 C3218 0.960 . S
H3231 C3218 0.962 . S
H3232 C3218 0.960 . S
H3233 C3219 0.961 . S
H3234 C3219 0.961 . S
H3235 C3219 0.961 . S
H3236 C3220 0.931 . S
H3237 C3225 0.930 . S
H3238 C3226 0.956 . S
H3239 C3226 0.961 . S
H3240 C3226 0.961 . S
H3241 C3227 0.958 . S
H3242 C3227 0.961 . S
H3243 C3227 0.960 . S
C3244 C3245 1.391 . S
C3244 C3246 1.394 . S
C3244 H3260 0.931 . S
C3245 C3244 1.391 . S
C3245 C3249 1.376 . S
C3246 C3244 1.394 . S
C3246 C3247 1.369 . S
C3246 C3250 1.531 . S
C3247 C3246 1.369 . S
C3247 C3248 1.410 . S
C3247 C3255 1.503 . S
C3248 C3247 1.410 . S
C3248 C3249 1.392 . S
C3248 C3251 1.511 . S
C3249 C3245 1.376 . S
C3249 C3248 1.392 . S
C3249 H3261 0.929 . S
C3250 C3246 1.531 . S
C3250 H3262 0.960 . S
C3250 H3263 0.962 . S
C3250 H3264 0.960 . S
C3251 C3248 1.511 . S
C3251 H3265 0.961 . S
C3251 H3266 0.961 . S
C3251 H3267 0.961 . S
C3252 C3253 1.370 . S
C3252 C3254 1.363 . S
C3252 H3268 0.931 . S
C3253 C3252 1.370 . S
C3253 C3257 1.408 . S
C3254 C3252 1.363 . S
C3254 C3255 1.370 . S
C3254 C3258 1.524 . S
C3255 C3247 1.503 . S
C3255 C3254 1.370 . S
C3255 C3256 1.403 . S
C3256 C3255 1.403 . S
C3256 C3257 1.404 . S
C3256 C3259 1.539 . S
C3257 C3253 1.408 . S
C3257 C3256 1.404 . S
C3257 H3269 0.930 . S
C3258 C3254 1.524 . S
C3258 H3270 0.956 . S
C3258 H3271 0.961 . S
C3258 H3272 0.961 . S
C3259 C3256 1.539 . S
C3259 H3273 0.958 . S
C3259 H3274 0.961 . S
C3259 H3275 0.960 . S
H3260 C3244 0.931 . S
H3261 C3249 0.929 . S
H3262 C3250 0.960 . S
H3263 C3250 0.962 . S
H3264 C3250 0.960 . S
H3265 C3251 0.961 . S
H3266 C3251 0.961 . S
H3267 C3251 0.961 . S
H3268 C3252 0.931 . S
H3269 C3257 0.930 . S
H3270 C3258 0.956 . S
H3271 C3258 0.961 . S
H3272 C3258 0.961 . S
H3273 C3259 0.958 . S
H3274 C3259 0.961 . S
H3275 C3259 0.960 . S
C3276 C3277 1.391 . S
C3276 C3278 1.394 . S
C3276 H3292 0.931 . S
C3277 C3276 1.391 . S
C3277 C3281 1.376 . S
C3278 C3276 1.394 . S
C3278 C3279 1.369 . S
C3278 C3282 1.531 . S
C3279 C3278 1.369 . S
C3279 C3280 1.410 . S
C3279 C3287 1.503 . S
C3280 C3279 1.410 . S
C3280 C3281 1.392 . S
C3280 C3283 1.511 . S
C3281 C3277 1.376 . S
C3281 C3280 1.392 . S
C3281 H3293 0.929 . S
C3282 C3278 1.531 . S
C3282 H3294 0.960 . S
C3282 H3295 0.962 . S
C3282 H3296 0.960 . S
C3283 C3280 1.511 . S
C3283 H3297 0.961 . S
C3283 H3298 0.961 . S
C3283 H3299 0.961 . S
C3284 C3285 1.370 . S
C3284 C3286 1.363 . S
C3284 H3300 0.931 . S
C3285 C3284 1.370 . S
C3285 C3289 1.408 . S
C3286 C3284 1.363 . S
C3286 C3287 1.370 . S
C3286 C3290 1.524 . S
C3287 C3279 1.503 . S
C3287 C3286 1.370 . S
C3287 C3288 1.403 . S
C3288 C3287 1.403 . S
C3288 C3289 1.404 . S
C3288 C3291 1.539 . S
C3289 C3285 1.408 . S
C3289 C3288 1.404 . S
C3289 H3301 0.930 . S
C3290 C3286 1.524 . S
C3290 H3302 0.956 . S
C3290 H3303 0.961 . S
C3290 H3304 0.961 . S
C3291 C3288 1.539 . S
C3291 H3305 0.958 . S
C3291 H3306 0.961 . S
C3291 H3307 0.960 . S
H3292 C3276 0.931 . S
H3293 C3281 0.929 . S
H3294 C3282 0.960 . S
H3295 C3282 0.962 . S
H3296 C3282 0.960 . S
H3297 C3283 0.961 . S
H3298 C3283 0.961 . S
H3299 C3283 0.961 . S
H3300 C3284 0.931 . S
H3301 C3289 0.930 . S
H3302 C3290 0.956 . S
H3303 C3290 0.961 . S
H3304 C3290 0.961 . S
H3305 C3291 0.958 . S
H3306 C3291 0.961 . S
H3307 C3291 0.960 . S
C3308 C3309 1.391 . S
C3308 C3310 1.394 . S
C3308 H3324 0.931 . S
C3309 C3308 1.391 . S
C3309 C3313 1.376 . S
C3310 C3308 1.394 . S
C3310 C3311 1.369 . S
C3310 C3314 1.531 . S
C3311 C3310 1.369 . S
C3311 C3312 1.410 . S
C3311 C3319 1.503 . S
C3312 C3311 1.410 . S
C3312 C3313 1.392 . S
C3312 C3315 1.511 . S
C3313 C3309 1.376 . S
C3313 C3312 1.392 . S
C3313 H3325 0.929 . S
C3314 C3310 1.531 . S
C3314 H3326 0.960 . S
C3314 H3327 0.962 . S
C3314 H3328 0.960 . S
C3315 C3312 1.511 . S
C3315 H3329 0.961 . S
C3315 H3330 0.961 . S
C3315 H3331 0.961 . S
C3316 C3317 1.370 . S
C3316 C3318 1.363 . S
C3316 H3332 0.931 . S
C3317 C3316 1.370 . S
C3317 C3321 1.408 . S
C3318 C3316 1.363 . S
C3318 C3319 1.370 . S
C3318 C3322 1.524 . S
C3319 C3311 1.503 . S
C3319 C3318 1.370 . S
C3319 C3320 1.403 . S
C3320 C3319 1.403 . S
C3320 C3321 1.404 . S
C3320 C3323 1.539 . S
C3321 C3317 1.408 . S
C3321 C3320 1.404 . S
C3321 H3333 0.930 . S
C3322 C3318 1.524 . S
C3322 H3334 0.956 . S
C3322 H3335 0.961 . S
C3322 H3336 0.961 . S
C3323 C3320 1.539 . S
C3323 H3337 0.958 . S
C3323 H3338 0.961 . S
C3323 H3339 0.960 . S
H3324 C3308 0.931 . S
H3325 C3313 0.929 . S
H3326 C3314 0.960 . S
H3327 C3314 0.962 . S
H3328 C3314 0.960 . S
H3329 C3315 0.961 . S
H3330 C3315 0.961 . S
H3331 C3315 0.961 . S
H3332 C3316 0.931 . S
H3333 C3321 0.930 . S
H3334 C3322 0.956 . S
H3335 C3322 0.961 . S
H3336 C3322 0.961 . S
H3337 C3323 0.958 . S
H3338 C3323 0.961 . S
H3339 C3323 0.960 . S
C3340 C3341 1.391 . S
C3340 C3342 1.394 . S
C3340 H3356 0.931 . S
C3341 C3340 1.391 . S
C3341 C3345 1.376 . S
C3342 C3340 1.394 . S
C3342 C3343 1.369 . S
C3342 C3346 1.531 . S
C3343 C3342 1.369 . S
C3343 C3344 1.410 . S
C3343 C3351 1.503 . S
C3344 C3343 1.410 . S
C3344 C3345 1.392 . S
C3344 C3347 1.511 . S
C3345 C3341 1.376 . S
C3345 C3344 1.392 . S
C3345 H3357 0.929 . S
C3346 C3342 1.531 . S
C3346 H3358 0.960 . S
C3346 H3359 0.962 . S
C3346 H3360 0.960 . S
C3347 C3344 1.511 . S
C3347 H3361 0.961 . S
C3347 H3362 0.961 . S
C3347 H3363 0.961 . S
C3348 C3349 1.370 . S
C3348 C3350 1.363 . S
C3348 H3364 0.931 . S
C3349 C3348 1.370 . S
C3349 C3353 1.408 . S
C3350 C3348 1.363 . S
C3350 C3351 1.370 . S
C3350 C3354 1.524 . S
C3351 C3343 1.503 . S
C3351 C3350 1.370 . S
C3351 C3352 1.403 . S
C3352 C3351 1.403 . S
C3352 C3353 1.404 . S
C3352 C3355 1.539 . S
C3353 C3349 1.408 . S
C3353 C3352 1.404 . S
C3353 H3365 0.930 . S
C3354 C3350 1.524 . S
C3354 H3366 0.956 . S
C3354 H3367 0.961 . S
C3354 H3368 0.961 . S
C3355 C3352 1.539 . S
C3355 H3369 0.958 . S
C3355 H3370 0.961 . S
C3355 H3371 0.960 . S
H3356 C3340 0.931 . S
H3357 C3345 0.929 . S
H3358 C3346 0.960 . S
H3359 C3346 0.962 . S
H3360 C3346 0.960 . S
H3361 C3347 0.961 . S
H3362 C3347 0.961 . S
H3363 C3347 0.961 . S
H3364 C3348 0.931 . S
H3365 C3353 0.930 . S
H3366 C3354 0.956 . S
H3367 C3354 0.961 . S
H3368 C3354 0.961 . S
H3369 C3355 0.958 . S
H3370 C3355 0.961 . S
H3371 C3355 0.960 . S
C3372 C3373 1.391 . S
C3372 C3374 1.394 . S
C3372 H3388 0.931 . S
C3373 C3372 1.391 . S
C3373 C3377 1.376 . S
C3374 C3372 1.394 . S
C3374 C3375 1.369 . S
C3374 C3378 1.531 . S
C3375 C3374 1.369 . S
C3375 C3376 1.410 . S
C3375 C3383 1.503 . S
C3376 C3375 1.410 . S
C3376 C3377 1.392 . S
C3376 C3379 1.511 . S
C3377 C3373 1.376 . S
C3377 C3376 1.392 . S
C3377 H3389 0.929 . S
C3378 C3374 1.531 . S
C3378 H3390 0.960 . S
C3378 H3391 0.962 . S
C3378 H3392 0.960 . S
C3379 C3376 1.511 . S
C3379 H3393 0.961 . S
C3379 H3394 0.961 . S
C3379 H3395 0.961 . S
C3380 C3381 1.370 . S
C3380 C3382 1.363 . S
C3380 H3396 0.931 . S
C3381 C3380 1.370 . S
C3381 C3385 1.408 . S
C3382 C3380 1.363 . S
C3382 C3383 1.370 . S
C3382 C3386 1.524 . S
C3383 C3375 1.503 . S
C3383 C3382 1.370 . S
C3383 C3384 1.403 . S
C3384 C3383 1.403 . S
C3384 C3385 1.404 . S
C3384 C3387 1.539 . S
C3385 C3381 1.408 . S
C3385 C3384 1.404 . S
C3385 H3397 0.930 . S
C3386 C3382 1.524 . S
C3386 H3398 0.956 . S
C3386 H3399 0.961 . S
C3386 H3400 0.961 . S
C3387 C3384 1.539 . S
C3387 H3401 0.958 . S
C3387 H3402 0.961 . S
C3387 H3403 0.960 . S
H3388 C3372 0.931 . S
H3389 C3377 0.929 . S
H3390 C3378 0.960 . S
H3391 C3378 0.962 . S
H3392 C3378 0.960 . S
H3393 C3379 0.961 . S
H3394 C3379 0.961 . S
H3395 C3379 0.961 . S
H3396 C3380 0.931 . S
H3397 C3385 0.930 . S
H3398 C3386 0.956 . S
H3399 C3386 0.961 . S
H3400 C3386 0.961 . S
H3401 C3387 0.958 . S
H3402 C3387 0.961 . S
H3403 C3387 0.960 . S
C3404 C3405 1.391 . S
C3404 C3406 1.394 . S
C3404 H3420 0.931 . S
C3405 C3404 1.391 . S
C3405 C3409 1.376 . S
C3406 C3404 1.394 . S
C3406 C3407 1.369 . S
C3406 C3410 1.531 . S
C3407 C3406 1.369 . S
C3407 C3408 1.410 . S
C3407 C3415 1.503 . S
C3408 C3407 1.410 . S
C3408 C3409 1.392 . S
C3408 C3411 1.511 . S
C3409 C3405 1.376 . S
C3409 C3408 1.392 . S
C3409 H3421 0.929 . S
C3410 C3406 1.531 . S
C3410 H3422 0.960 . S
C3410 H3423 0.962 . S
C3410 H3424 0.960 . S
C3411 C3408 1.511 . S
C3411 H3425 0.961 . S
C3411 H3426 0.961 . S
C3411 H3427 0.961 . S
C3412 C3413 1.370 . S
C3412 C3414 1.363 . S
C3412 H3428 0.931 . S
C3413 C3412 1.370 . S
C3413 C3417 1.408 . S
C3414 C3412 1.363 . S
C3414 C3415 1.370 . S
C3414 C3418 1.524 . S
C3415 C3407 1.503 . S
C3415 C3414 1.370 . S
C3415 C3416 1.403 . S
C3416 C3415 1.403 . S
C3416 C3417 1.404 . S
C3416 C3419 1.539 . S
C3417 C3413 1.408 . S
C3417 C3416 1.404 . S
C3417 H3429 0.930 . S
C3418 C3414 1.524 . S
C3418 H3430 0.956 . S
C3418 H3431 0.961 . S
C3418 H3432 0.961 . S
C3419 C3416 1.539 . S
C3419 H3433 0.958 . S
C3419 H3434 0.961 . S
C3419 H3435 0.960 . S
H3420 C3404 0.931 . S
H3421 C3409 0.929 . S
H3422 C3410 0.960 . S
H3423 C3410 0.962 . S
H3424 C3410 0.960 . S
H3425 C3411 0.961 . S
H3426 C3411 0.961 . S
H3427 C3411 0.961 . S
H3428 C3412 0.931 . S
H3429 C3417 0.930 . S
H3430 C3418 0.956 . S
H3431 C3418 0.961 . S
H3432 C3418 0.961 . S
H3433 C3419 0.958 . S
H3434 C3419 0.961 . S
H3435 C3419 0.960 . S
C3436 C3437 1.391 . S
C3436 C3438 1.394 . S
C3436 H3452 0.931 . S
C3437 C3436 1.391 . S
C3437 C3441 1.376 . S
C3438 C3436 1.394 . S
C3438 C3439 1.369 . S
C3438 C3442 1.531 . S
C3439 C3438 1.369 . S
C3439 C3440 1.410 . S
C3439 C3447 1.503 . S
C3440 C3439 1.410 . S
C3440 C3441 1.392 . S
C3440 C3443 1.511 . S
C3441 C3437 1.376 . S
C3441 C3440 1.392 . S
C3441 H3453 0.929 . S
C3442 C3438 1.531 . S
C3442 H3454 0.960 . S
C3442 H3455 0.962 . S
C3442 H3456 0.960 . S
C3443 C3440 1.511 . S
C3443 H3457 0.961 . S
C3443 H3458 0.961 . S
C3443 H3459 0.961 . S
C3444 C3445 1.370 . S
C3444 C3446 1.363 . S
C3444 H3460 0.931 . S
C3445 C3444 1.370 . S
C3445 C3449 1.408 . S
C3446 C3444 1.363 . S
C3446 C3447 1.370 . S
C3446 C3450 1.524 . S
C3447 C3439 1.503 . S
C3447 C3446 1.370 . S
C3447 C3448 1.403 . S
C3448 C3447 1.403 . S
C3448 C3449 1.404 . S
C3448 C3451 1.539 . S
C3449 C3445 1.408 . S
C3449 C3448 1.404 . S
C3449 H3461 0.930 . S
C3450 C3446 1.524 . S
C3450 H3462 0.956 . S
C3450 H3463 0.961 . S
C3450 H3464 0.961 . S
C3451 C3448 1.539 . S
C3451 H3465 0.958 . S
C3451 H3466 0.961 . S
C3451 H3467 0.960 . S
H3452 C3436 0.931 . S
H3453 C3441 0.929 . S
H3454 C3442 0.960 . S
H3455 C3442 0.962 . S
H3456 C3442 0.960 . S
H3457 C3443 0.961 . S
H3458 C3443 0.961 . S
H3459 C3443 0.961 . S
H3460 C3444 0.931 . S
H3461 C3449 0.930 . S
H3462 C3450 0.956 . S
H3463 C3450 0.961 . S
H3464 C3450 0.961 . S
H3465 C3451 0.958 . S
H3466 C3451 0.961 . S
H3467 C3451 0.960 . S
C3468 C3469 1.391 . S
C3468 C3470 1.394 . S
C3468 H3484 0.931 . S
C3469 C3468 1.391 . S
C3469 C3473 1.376 . S
C3470 C3468 1.394 . S
C3470 C3471 1.369 . S
C3470 C3474 1.531 . S
C3471 C3470 1.369 . S
C3471 C3472 1.410 . S
C3471 C3479 1.503 . S
C3472 C3471 1.410 . S
C3472 C3473 1.392 . S
C3472 C3475 1.511 . S
C3473 C3469 1.376 . S
C3473 C3472 1.392 . S
C3473 H3485 0.929 . S
C3474 C3470 1.531 . S
C3474 H3486 0.960 . S
C3474 H3487 0.962 . S
C3474 H3488 0.960 . S
C3475 C3472 1.511 . S
C3475 H3489 0.961 . S
C3475 H3490 0.961 . S
C3475 H3491 0.961 . S
C3476 C3477 1.370 . S
C3476 C3478 1.363 . S
C3476 H3492 0.931 . S
C3477 C3476 1.370 . S
C3477 C3481 1.408 . S
C3478 C3476 1.363 . S
C3478 C3479 1.370 . S
C3478 C3482 1.524 . S
C3479 C3471 1.503 . S
C3479 C3478 1.370 . S
C3479 C3480 1.403 . S
C3480 C3479 1.403 . S
C3480 C3481 1.404 . S
C3480 C3483 1.539 . S
C3481 C3477 1.408 . S
C3481 C3480 1.404 . S
C3481 H3493 0.930 . S
C3482 C3478 1.524 . S
C3482 H3494 0.956 . S
C3482 H3495 0.961 . S
C3482 H3496 0.961 . S
C3483 C3480 1.539 . S
C3483 H3497 0.958 . S
C3483 H3498 0.961 . S
C3483 H3499 0.960 . S
H3484 C3468 0.931 . S
H3485 C3473 0.929 . S
H3486 C3474 0.960 . S
H3487 C3474 0.962 . S
H3488 C3474 0.960 . S
H3489 C3475 0.961 . S
H3490 C3475 0.961 . S
H3491 C3475 0.961 . S
H3492 C3476 0.931 . S
H3493 C3481 0.930 . S
H3494 C3482 0.956 . S
H3495 C3482 0.961 . S
H3496 C3482 0.961 . S
H3497 C3483 0.958 . S
H3498 C3483 0.961 . S
H3499 C3483 0.960 . S
C3500 C3501 1.391 . S
C3500 C3502 1.394 . S
C3500 H3516 0.931 . S
C3501 C3500 1.391 . S
C3501 C3505 1.376 . S
C3502 C3500 1.394 . S
C3502 C3503 1.369 . S
C3502 C3506 1.531 . S
C3503 C3502 1.369 . S
C3503 C3504 1.410 . S
C3503 C3511 1.503 . S
C3504 C3503 1.410 . S
C3504 C3505 1.392 . S
C3504 C3507 1.511 . S
C3505 C3501 1.376 . S
C3505 C3504 1.392 . S
C3505 H3517 0.929 . S
C3506 C3502 1.531 . S
C3506 H3518 0.960 . S
C3506 H3519 0.962 . S
C3506 H3520 0.960 . S
C3507 C3504 1.511 . S
C3507 H3521 0.961 . S
C3507 H3522 0.961 . S
C3507 H3523 0.961 . S
C3508 C3509 1.370 . S
C3508 C3510 1.363 . S
C3508 H3524 0.931 . S
C3509 C3508 1.370 . S
C3509 C3513 1.408 . S
C3510 C3508 1.363 . S
C3510 C3511 1.370 . S
C3510 C3514 1.524 . S
C3511 C3503 1.503 . S
C3511 C3510 1.370 . S
C3511 C3512 1.403 . S
C3512 C3511 1.403 . S
C3512 C3513 1.404 . S
C3512 C3515 1.539 . S
C3513 C3509 1.408 . S
C3513 C3512 1.404 . S
C3513 H3525 0.930 . S
C3514 C3510 1.524 . S
C3514 H3526 0.956 . S
C3514 H3527 0.961 . S
C3514 H3528 0.961 . S
C3515 C3512 1.539 . S
C3515 H3529 0.958 . S
C3515 H3530 0.961 . S
C3515 H3531 0.960 . S
H3516 C3500 0.931 . S
H3517 C3505 0.929 . S
H3518 C3506 0.960 . S
H3519 C3506 0.962 . S
H3520 C3506 0.960 . S
H3521 C3507 0.961 . S
H3522 C3507 0.961 . S
H3523 C3507 0.961 . S
H3524 C3508 0.931 . S
H3525 C3513 0.930 . S
H3526 C3514 0.956 . S
H3527 C3514 0.961 . S
H3528 C3514 0.961 . S
H3529 C3515 0.958 . S
H3530 C3515 0.961 . S
H3531 C3515 0.960 . S
C3532 C3533 1.391 . S
C3532 C3534 1.394 . S
C3532 H3548 0.931 . S
C3533 C3532 1.391 . S
C3533 C3537 1.376 . S
C3534 C3532 1.394 . S
C3534 C3535 1.369 . S
C3534 C3538 1.531 . S
C3535 C3534 1.369 . S
C3535 C3536 1.410 . S
C3535 C3543 1.503 . S
C3536 C3535 1.410 . S
C3536 C3537 1.392 . S
C3536 C3539 1.511 . S
C3537 C3533 1.376 . S
C3537 C3536 1.392 . S
C3537 H3549 0.929 . S
C3538 C3534 1.531 . S
C3538 H3550 0.960 . S
C3538 H3551 0.962 . S
C3538 H3552 0.960 . S
C3539 C3536 1.511 . S
C3539 H3553 0.961 . S
C3539 H3554 0.961 . S
C3539 H3555 0.961 . S
C3540 C3541 1.370 . S
C3540 C3542 1.363 . S
C3540 H3556 0.931 . S
C3541 C3540 1.370 . S
C3541 C3545 1.408 . S
C3542 C3540 1.363 . S
C3542 C3543 1.370 . S
C3542 C3546 1.524 . S
C3543 C3535 1.503 . S
C3543 C3542 1.370 . S
C3543 C3544 1.403 . S
C3544 C3543 1.403 . S
C3544 C3545 1.404 . S
C3544 C3547 1.539 . S
C3545 C3541 1.408 . S
C3545 C3544 1.404 . S
C3545 H3557 0.930 . S
C3546 C3542 1.524 . S
C3546 H3558 0.956 . S
C3546 H3559 0.961 . S
C3546 H3560 0.961 . S
C3547 C3544 1.539 . S
C3547 H3561 0.958 . S
C3547 H3562 0.961 . S
C3547 H3563 0.960 . S
H3548 C3532 0.931 . S
H3549 C3537 0.929 . S
H3550 C3538 0.960 . S
H3551 C3538 0.962 . S
H3552 C3538 0.960 . S
H3553 C3539 0.961 . S
H3554 C3539 0.961 . S
H3555 C3539 0.961 . S
H3556 C3540 0.931 . S
H3557 C3545 0.930 . S
H3558 C3546 0.956 . S
H3559 C3546 0.961 . S
H3560 C3546 0.961 . S
H3561 C3547 0.958 . S
H3562 C3547 0.961 . S
H3563 C3547 0.960 . S
C1837 C781 1.429 . S
C1845 C1147 1.364 . S
C1869 C871 1.409 . S
C1877 C1231 1.407 . S
C1901 C751 1.430 . S
C1909 C1311 1.429 . S
C1933 C691 1.426 . S
C1941 C1227 1.383 . S
C1973 C1315 1.340 . S
C1965 C571 1.343 . S
C1997 C601 1.416 . S
C2005 C1143 1.372 . S
C2037 C1136 1.349 . S
C2029 C661 1.391 . S
C2069 C1220 1.394 . S
C2061 C541 1.445 . S
C2093 C631 1.461 . S
C2101 C1322 1.429 . S
C2125 C811 1.437 . S
C2133 C1238 1.389 . S
C2157 C841 1.353 . S
C2165 C1304 1.334 . S
C2197 C1154 1.360 . S
C2189 C721 1.375 . S
C2229 C1399 1.364 . S
C2221 C61 1.412 . S
C2253 C151 1.442 . S
C2261 C1483 1.395 . S
C2285 C31 1.433 . S
C2293 C1563 1.444 . S
C2317 C1051 1.406 . S
C2325 C1479 1.380 . S
C2349 C931 1.386 . S
C2357 C1567 1.321 . S
C2381 C961 1.392 . S
C2389 C1395 1.360 . S
C2413 C1021 1.395 . S
C2421 C1388 1.350 . S
C2445 C901 1.422 . S
C2453 C1472 1.381 . S
C2485 C1574 1.431 . S
C2477 C991 1.460 . S
C2509 C91 1.408 . S
C2517 C1490 1.392 . S
C2549 C1556 1.330 . S
C2541 C121 1.346 . S
C2573 C1 1.377 . S
C2581 C1406 1.359 . S
C2613 C1651 1.356 . S
C2605 C421 1.405 . S
C2637 C511 1.454 . S
C2645 C1735 1.377 . S
C2677 C1815 1.424 . S
C2669 C391 1.469 . S
C2709 C1731 1.379 . S
C2701 C331 1.410 . S
C2741 C1819 1.319 . S
C2733 C211 1.368 . S
C2765 C241 1.419 . S
C2773 C1647 1.367 . S
C2797 C301 1.420 . S
C2805 C1640 1.362 . S
C2829 C181 1.451 . S
C2837 C1724 1.406 . S
C2869 C1826 1.445 . S
C2861 C271 1.473 . S
C2893 C451 1.409 . S
C2901 C1742 1.398 . S
C2925 C481 1.360 . S
C2933 C1808 1.311 . S
C2957 C361 1.393 . S
C2965 C1658 1.373 . S
C2989 C920 1.444 . S
C2997 C1150 1.328 . S
C3029 C1234 1.360 . S
C3021 C980 1.506 . S
C3053 C1040 1.462 . S
C3061 C1306 1.338 . S
C3085 C380 1.495 . S
C3093 C1222 1.356 . S
C3117 C440 1.449 . S
C3125 C1318 1.362 . S
C3157 C1138 1.331 . S
C3149 C500 1.442 . S
C3181 C200 1.444 . S
C3189 C1402 1.326 . S
C3213 C260 1.480 . S
C3221 C1486 1.382 . S
C3245 C320 1.461 . S
C3253 C1558 1.339 . S
C3277 C740 1.493 . S
C3285 C1474 1.340 . S
C3317 C1570 1.362 . S
C3309 C800 1.444 . S
C3341 C860 1.405 . S
C3349 C1390 1.345 . S
C3373 C560 1.439 . S
C3381 C1654 1.350 . S
C3405 C620 1.493 . S
C3413 C1738 1.340 . S
C3445 C1810 1.337 . S
C3437 C680 1.463 . S
C3469 C20 1.470 . S
C3477 C1726 1.352 . S
C3501 C80 1.440 . S
C3509 C1822 1.323 . S
C3533 C140 1.405 . S
C3541 C1642 1.349 . S
