# Generated by pormake.
# Topology ssc, (4,4)-cn, num edge types: 1
# Building blocks:
#     Node 0, Type 0, BuildingBlock: QUQFOY_clean_sbu_3, # of connection points: 4
#     Node 1, Type 0, BuildingBlock: QUQFOY_clean_sbu_3, # of connection points: 4
#     Node 2, Type 0, BuildingBlock: QUQFOY_clean_sbu_3, # of connection points: 4
#     Node 3, Type 0, BuildingBlock: QUQFOY_clean_sbu_3, # of connection points: 4
#     Node 4, Type 0, BuildingBlock: QUQFOY_clean_sbu_3, # of connection points: 4
#     Node 5, Type 0, BuildingBlock: QUQFOY_clean_sbu_3, # of connection points: 4
#     Node 6, Type 0, BuildingBlock: QUQFOY_clean_sbu_3, # of connection points: 4
#     Node 7, Type 0, BuildingBlock: QUQFOY_clean_sbu_3, # of connection points: 4
#     Node 8, Type 0, BuildingBlock: QUQFOY_clean_sbu_3, # of connection points: 4
#     Node 9, Type 0, BuildingBlock: QUQFOY_clean_sbu_3, # of connection points: 4
#     Node 10, Type 0, BuildingBlock: QUQFOY_clean_sbu_3, # of connection points: 4
#     Node 11, Type 0, BuildingBlock: QUQFOY_clean_sbu_3, # of connection points: 4
#     Node 12, Type 1, BuildingBlock: KUFVIS_clean_linker_0, # of connection points: 4
#     Node 13, Type 1, BuildingBlock: KUFVIS_clean_linker_0, # of connection points: 4
#     Node 14, Type 1, BuildingBlock: KUFVIS_clean_linker_0, # of connection points: 4
#     Node 15, Type 1, BuildingBlock: KUFVIS_clean_linker_0, # of connection points: 4
#     Node 16, Type 1, BuildingBlock: KUFVIS_clean_linker_0, # of connection points: 4
#     Node 17, Type 1, BuildingBlock: KUFVIS_clean_linker_0, # of connection points: 4
#     Node 18, Type 1, BuildingBlock: KUFVIS_clean_linker_0, # of connection points: 4
#     Node 19, Type 1, BuildingBlock: KUFVIS_clean_linker_0, # of connection points: 4
#     Node 20, Type 1, BuildingBlock: KUFVIS_clean_linker_0, # of connection points: 4
#     Node 21, Type 1, BuildingBlock: KUFVIS_clean_linker_0, # of connection points: 4
#     Node 22, Type 1, BuildingBlock: KUFVIS_clean_linker_0, # of connection points: 4
#     Node 23, Type 1, BuildingBlock: KUFVIS_clean_linker_0, # of connection points: 4
#     Edge 24, Type (0, 1), BuildingBlock: XIVTED_clean_linker_0, # of connection points: 2
#     Edge 25, Type (0, 1), BuildingBlock: XIVTED_clean_linker_0, # of connection points: 2
#     Edge 26, Type (0, 1), BuildingBlock: XIVTED_clean_linker_0, # of connection points: 2
#     Edge 27, Type (0, 1), BuildingBlock: XIVTED_clean_linker_0, # of connection points: 2
#     Edge 28, Type (0, 1), BuildingBlock: XIVTED_clean_linker_0, # of connection points: 2
#     Edge 29, Type (0, 1), BuildingBlock: XIVTED_clean_linker_0, # of connection points: 2
#     Edge 30, Type (0, 1), BuildingBlock: XIVTED_clean_linker_0, # of connection points: 2
#     Edge 31, Type (0, 1), BuildingBlock: XIVTED_clean_linker_0, # of connection points: 2
#     Edge 32, Type (0, 1), BuildingBlock: XIVTED_clean_linker_0, # of connection points: 2
#     Edge 33, Type (0, 1), BuildingBlock: XIVTED_clean_linker_0, # of connection points: 2
#     Edge 34, Type (0, 1), BuildingBlock: XIVTED_clean_linker_0, # of connection points: 2
#     Edge 35, Type (0, 1), BuildingBlock: XIVTED_clean_linker_0, # of connection points: 2
#     Edge 36, Type (0, 1), BuildingBlock: XIVTED_clean_linker_0, # of connection points: 2
#     Edge 37, Type (0, 1), BuildingBlock: XIVTED_clean_linker_0, # of connection points: 2
#     Edge 38, Type (0, 1), BuildingBlock: XIVTED_clean_linker_0, # of connection points: 2
#     Edge 39, Type (0, 1), BuildingBlock: XIVTED_clean_linker_0, # of connection points: 2
#     Edge 40, Type (0, 1), BuildingBlock: XIVTED_clean_linker_0, # of connection points: 2
#     Edge 41, Type (0, 1), BuildingBlock: XIVTED_clean_linker_0, # of connection points: 2
#     Edge 42, Type (0, 1), BuildingBlock: XIVTED_clean_linker_0, # of connection points: 2
#     Edge 43, Type (0, 1), BuildingBlock: XIVTED_clean_linker_0, # of connection points: 2
#     Edge 44, Type (0, 1), BuildingBlock: XIVTED_clean_linker_0, # of connection points: 2
#     Edge 45, Type (0, 1), BuildingBlock: XIVTED_clean_linker_0, # of connection points: 2
#     Edge 46, Type (0, 1), BuildingBlock: XIVTED_clean_linker_0, # of connection points: 2
#     Edge 47, Type (0, 1), BuildingBlock: XIVTED_clean_linker_0, # of connection points: 2
#     Edge 48, Type (0, 1), BuildingBlock: XIVTED_clean_linker_0, # of connection points: 2
#     Edge 49, Type (0, 1), BuildingBlock: XIVTED_clean_linker_0, # of connection points: 2
#     Edge 50, Type (0, 1), BuildingBlock: XIVTED_clean_linker_0, # of connection points: 2
#     Edge 51, Type (0, 1), BuildingBlock: XIVTED_clean_linker_0, # of connection points: 2
#     Edge 52, Type (0, 1), BuildingBlock: XIVTED_clean_linker_0, # of connection points: 2
#     Edge 53, Type (0, 1), BuildingBlock: XIVTED_clean_linker_0, # of connection points: 2
#     Edge 54, Type (0, 1), BuildingBlock: XIVTED_clean_linker_0, # of connection points: 2
#     Edge 55, Type (0, 1), BuildingBlock: XIVTED_clean_linker_0, # of connection points: 2
#     Edge 56, Type (0, 1), BuildingBlock: XIVTED_clean_linker_0, # of connection points: 2
#     Edge 57, Type (0, 1), BuildingBlock: XIVTED_clean_linker_0, # of connection points: 2
#     Edge 58, Type (0, 1), BuildingBlock: XIVTED_clean_linker_0, # of connection points: 2
#     Edge 59, Type (0, 1), BuildingBlock: XIVTED_clean_linker_0, # of connection points: 2
#     Edge 60, Type (0, 1), BuildingBlock: XIVTED_clean_linker_0, # of connection points: 2
#     Edge 61, Type (0, 1), BuildingBlock: XIVTED_clean_linker_0, # of connection points: 2
#     Edge 62, Type (0, 1), BuildingBlock: XIVTED_clean_linker_0, # of connection points: 2
#     Edge 63, Type (0, 1), BuildingBlock: XIVTED_clean_linker_0, # of connection points: 2
#     Edge 64, Type (0, 1), BuildingBlock: XIVTED_clean_linker_0, # of connection points: 2
#     Edge 65, Type (0, 1), BuildingBlock: XIVTED_clean_linker_0, # of connection points: 2
#     Edge 66, Type (0, 1), BuildingBlock: XIVTED_clean_linker_0, # of connection points: 2
#     Edge 67, Type (0, 1), BuildingBlock: XIVTED_clean_linker_0, # of connection points: 2
#     Edge 68, Type (0, 1), BuildingBlock: XIVTED_clean_linker_0, # of connection points: 2
#     Edge 69, Type (0, 1), BuildingBlock: XIVTED_clean_linker_0, # of connection points: 2
#     Edge 70, Type (0, 1), BuildingBlock: XIVTED_clean_linker_0, # of connection points: 2
#     Edge 71, Type (0, 1), BuildingBlock: XIVTED_clean_linker_0, # of connection points: 2
# Relax obj value: 0.126
# Max RMSD: 0.301
# Mean RMSD: 0.275
data_MOF--net-ssc--node1-QUQFOY_clean_sbu_3--node2-KUFVIS_clean_linker_0--edge1-XIVTED_clean_linker_0
_symmetry_space_group_name_H-M    P1
_symmetry_Int_Tables_number       1
_symmetry_cell_setting            triclinic
loop_
_symmetry_equiv_pos_as_xyz
'x, y, z'
_cell_length_a     31.211729
_cell_length_b     31.371455
_cell_length_c     31.297388
_cell_angle_alpha  92.757174
_cell_angle_beta   90.137341
_cell_angle_gamma 90.831832
loop_
_atom_site_label
_atom_site_type_symbol
_atom_site_fract_x
_atom_site_fract_y
_atom_site_fract_z
_atom_type_partial_charge
C0 C 0.0616 0.26725 0.22401 0.0
O1 O 0.0615 0.22756 0.22995 0.0
Cd2 Cd 0.0388 0.17849 0.17494 0.0
O3 O 0.04282 0.28142 0.19134 0.0
Cd4 Cd -0.00063 0.24464 0.132 0.0
C5 C 0.93279 0.18121 0.18367 0.0
O6 O 0.06537 0.20941 0.11155 0.0
O7 O 0.00931 0.18292 0.07996 0.0
O8 O 0.00372 0.31206 0.09484 0.0
C9 C 0.04976 0.18704 0.0808 0.0
O10 O 0.96441 0.15618 0.18203 0.0
C11 C 0.97201 0.30356 0.07028 0.0
O12 O 0.93766 0.21951 0.17299 0.0
O13 O 0.95164 0.26918 0.07623 0.0
C14 C 0.0331 0.76219 0.2724 0.0
O15 O 0.04087 0.802 0.27547 0.0
Cd16 Cd 0.01462 0.84688 0.3323 0.0
O17 O 0.01144 0.74402 0.30118 0.0
Cd18 Cd 0.97783 0.76622 0.37152 0.0
C19 C 0.90572 0.82584 0.32487 0.0
O20 O 0.03557 0.81468 0.39601 0.0
O21 O 0.97386 0.82615 0.42468 0.0
O22 O 0.00791 0.70339 0.4029 0.0
C23 C 0.01404 0.83262 0.42566 0.0
O24 O 0.93713 0.85214 0.32376 0.0
C25 C 0.97671 0.69574 0.42743 0.0
O26 O 0.91103 0.78813 0.33715 0.0
O27 O 0.94378 0.71857 0.42347 0.0
C28 C 0.55139 0.75718 0.74709 0.0
O29 O 0.5488 0.71766 0.75371 0.0
Cd30 Cd 0.51598 0.66821 0.70416 0.0
O31 O 0.53179 0.77244 0.71552 0.0
Cd32 Cd 0.48492 0.74353 0.65569 0.0
C33 C 0.40954 0.6919 0.70785 0.0
O34 O 0.53949 0.69199 0.6374 0.0
O35 O 0.47905 0.67955 0.60582 0.0
O36 O 0.51308 0.80415 0.61775 0.0
C37 C 0.5186 0.67155 0.60849 0.0
O38 O 0.43883 0.66448 0.71095 0.0
C39 C 0.47988 0.80925 0.59527 0.0
O40 O 0.41804 0.72863 0.69426 0.0
O41 O 0.44788 0.78531 0.60249 0.0
C42 C 0.52034 0.26443 0.76047 0.0
O43 O 0.52001 0.30476 0.76517 0.0
Cd44 Cd 0.48578 0.34194 0.82203 0.0
O45 O 0.50137 0.24105 0.78727 0.0
Cd46 Cd 0.4614 0.2559 0.85698 0.0
C47 C 0.38081 0.30722 0.81425 0.0
O48 O 0.51234 0.31021 0.88336 0.0
O49 O 0.45021 0.31349 0.91266 0.0
O50 O 0.49722 0.19727 0.8911 0.0
C51 C 0.4894 0.32459 0.91369 0.0
O52 O 0.40816 0.33771 0.81494 0.0
C53 C 0.4656 0.18618 0.91366 0.0
O54 O 0.39175 0.26971 0.82311 0.0
O55 O 0.43037 0.20433 0.9066 0.0
C56 C 0.0965 0.03899 0.19324 0.0
O57 O 0.10587 0.07472 0.21206 0.0
Cd58 Cd 0.15241 0.08262 0.27254 0.0
O59 O 0.11496 0.00481 0.20344 0.0
Cd60 Cd 0.17204 0.97796 0.25074 0.0
C61 C 0.10223 0.00375 0.33085 0.0
O62 O 0.21249 0.04368 0.24863 0.0
O63 O 0.23788 -0.00066 0.29188 0.0
O64 O 0.19178 0.93273 0.18845 0.0
C65 C 0.24083 0.03557 0.27578 0.0
O66 O 0.11126 0.04266 0.32421 0.0
C67 C 0.20065 0.90014 0.2092 0.0
O68 O 0.1192 0.97348 0.30843 0.0
O69 O 0.19531 0.90325 0.24947 0.0
C70 C 0.22377 0.90018 0.44808 0.0
O71 O 0.24208 0.89756 0.41193 0.0
Cd72 Cd 0.31147 0.86607 0.40559 0.0
O73 O 0.23909 0.88072 0.4794 0.0
Cd74 Cd 0.29866 0.83138 0.49454 0.0
C75 C 0.35829 0.91948 0.49301 0.0
O76 O 0.3118 0.7928 0.42464 0.0
O77 O 0.36446 0.79925 0.46927 0.0
O78 O 0.24888 0.78664 0.53315 0.0
C79 C 0.34973 0.78279 0.43446 0.0
O80 O 0.35662 0.91326 0.45247 0.0
C81 C 0.27411 0.78106 0.56426 0.0
O82 O 0.33749 0.8955 0.51739 0.0
O83 O 0.3108 0.79887 0.56314 0.0
C84 C 0.4111 0.95759 0.69008 0.0
O85 O 0.39604 0.92476 0.70732 0.0
Cd86 Cd 0.33613 0.92698 0.75508 0.0
O87 O 0.39391 0.994 0.69663 0.0
Cd88 Cd 0.33416 0.02795 0.73716 0.0
C89 C 0.38251 -0.00081 0.82816 0.0
O90 O 0.28314 0.96901 0.722 0.0
O91 O 0.26386 0.01752 0.76872 0.0
O92 O 0.32565 0.07739 0.67978 0.0
C93 C 0.25423 0.98391 0.74653 0.0
O94 O 0.36895 0.96134 0.81899 0.0
C95 C 0.31944 0.11003 0.70455 0.0
O96 O 0.37569 0.02909 0.80305 0.0
O97 O 0.32204 0.10481 0.74443 0.0
C98 C 0.21033 0.08911 0.10912 0.0
O99 O 0.23287 0.08707 0.14276 0.0
Cd100 Cd 0.29824 0.12627 0.15787 0.0
O101 O 0.22102 0.11403 0.07975 0.0
Cd102 Cd 0.28092 0.16415 0.06373 0.0
C103 C 0.35249 0.08505 0.06988 0.0
O104 O 0.29537 0.19707 0.13486 0.0
O105 O 0.3466 0.19837 0.0886 0.0
O106 O 0.244 0.2243 0.03339 0.0
C107 C 0.33319 0.20889 0.12578 0.0
O108 O 0.34869 0.08966 0.11039 0.0
C109 C 0.25759 0.21752 -0.00454 0.0
O110 O 0.32901 0.10558 0.04483 0.0
O111 O 0.28109 0.18518 0.98879 0.0
C112 C 0.73369 0.40821 0.98565 0.0
O113 O 0.75914 0.40366 0.95415 0.0
Cd114 Cd 0.82548 0.36673 0.9572 0.0
O115 O 0.74232 0.39256 0.02156 0.0
Cd116 Cd 0.79709 0.34941 0.05719 0.0
C117 C 0.87221 0.42672 0.04178 0.0
O118 O 0.80173 0.30555 0.99244 0.0
O119 O 0.84341 0.28638 0.04239 0.0
O120 O 0.73447 0.32888 0.09791 0.0
C121 C 0.82913 0.27963 0.00472 0.0
O122 O 0.87102 0.41491 0.00223 0.0
C123 C 0.75509 0.31991 0.13124 0.0
O124 O 0.84767 0.40941 0.06862 0.0
O125 O 0.79539 0.32594 0.13081 0.0
C126 C 0.93013 0.42224 0.19766 0.0
O127 O 0.91841 0.39211 0.22099 0.0
Cd128 Cd 0.85693 0.38945 0.26611 0.0
O129 O 0.90844 0.45652 0.19611 0.0
Cd130 Cd 0.8423 0.48855 0.22913 0.0
C131 C 0.88585 0.4778 0.32921 0.0
O132 O 0.80643 0.42086 0.22128 0.0
O133 O 0.76699 0.4702 0.24847 0.0
O134 O 0.82936 0.53415 0.16903 0.0
C135 C 0.77057 0.4313 0.23652 0.0
O136 O 0.8791 0.43761 0.32599 0.0
C137 C 0.82056 0.56703 0.19259 0.0
O138 O 0.8767 0.50136 0.29858 0.0
O139 O 0.82346 0.56357 0.23272 0.0
C140 C 0.72145 0.60712 0.57389 0.0
O141 O 0.7293 0.62143 0.61176 0.0
Cd142 Cd 0.7906 0.66647 0.62488 0.0
O143 O 0.73921 0.62392 0.5419 0.0
Cd144 Cd 0.7873 0.68475 0.5234 0.0
C145 C 0.85506 0.60959 0.55127 0.0
O146 O 0.78431 0.73058 0.58859 0.0
O147 O 0.84328 0.73161 0.5528 0.0
O148 O 0.73349 0.7135 0.47571 0.0
C149 C 0.82168 0.74621 0.58435 0.0
O150 O 0.84449 0.62076 0.58951 0.0
C151 C 0.75974 0.72305 0.44655 0.0
O152 O 0.83818 0.62686 0.51933 0.0
O153 O 0.79873 0.71362 0.45225 0.0
C154 C 0.59035 0.52471 0.69778 0.0
O155 O 0.60475 0.55721 0.7193 0.0
Cd156 Cd 0.65702 0.55459 0.77461 0.0
O157 O 0.6059 0.48777 0.7025 0.0
Cd158 Cd 0.66246 0.4526 0.74434 0.0
C159 C 0.59924 0.47982 0.82954 0.0
O160 O 0.71217 0.51246 0.74318 0.0
O161 O 0.72924 0.46435 0.78642 0.0
O162 O 0.67691 0.4084 0.67958 0.0
C163 C 0.73891 0.49918 0.76965 0.0
O164 O 0.61384 0.51776 0.82692 0.0
C165 C 0.6831 0.37417 0.69871 0.0
O166 O 0.61091 0.45007 0.8031 0.0
O167 O 0.67803 0.3759 0.73902 0.0
H168 H 0.88181 0.31474 0.53803 0.0
H169 H 0.94351 0.19677 0.56285 0.0
H170 H 0.01764 0.30528 0.52307 0.0
H171 H 0.0006 0.16692 0.50749 0.0
H172 H 0.13414 0.16406 0.54011 0.0
H173 H 0.05994 0.2727 0.5805 0.0
C174 C 0.91034 0.29534 0.53736 0.0
C175 C 0.94977 0.31442 0.5283 0.0
C176 C 0.90761 0.2532 0.55018 0.0
C177 C 0.94518 0.22905 0.55201 0.0
C178 C 0.98515 0.24744 0.54142 0.0
C179 C 0.98708 0.29038 0.53018 0.0
C180 C 0.02543 0.22296 0.54333 0.0
C181 C 0.02838 0.18192 0.52304 0.0
C182 C 0.06787 0.16102 0.52156 0.0
C183 C 0.10393 0.18082 0.54065 0.0
C184 C 0.10133 0.22086 0.56202 0.0
C185 C 0.06199 0.24179 0.56366 0.0
H186 H 0.94101 0.63476 0.97436 0.0
H187 H 0.01551 0.74211 0.02298 0.0
H188 H 0.95737 0.74251 0.8969 0.0
H189 H 0.0196 0.77866 0.88453 0.0
H190 H 0.05677 0.90345 0.93334 0.0
H191 H 0.00398 0.81433 0.01902 0.0
C192 C 0.95449 0.66631 0.96982 0.0
C193 C 0.94778 0.68566 0.93121 0.0
C194 C 0.97819 0.68671 0.00296 0.0
C195 C 0.99589 0.72737 -0.00238 0.0
C196 C 0.98878 0.74819 0.95914 0.0
C197 C 0.9639 0.7271 0.92639 0.0
C198 C 0.0078 0.79129 0.95241 0.0
C199 C 0.02123 0.80204 0.91111 0.0
C200 C 0.03766 0.84283 0.9039 0.0
C201 C 0.04181 0.87265 0.93836 0.0
C202 C 0.03051 0.86239 0.97983 0.0
C203 C 0.01328 0.82176 0.98689 0.0
H204 H 0.38988 0.81292 0.03739 0.0
H205 H 0.44974 0.69744 0.07329 0.0
H206 H 0.52255 0.79298 0.00864 0.0
H207 H 0.49808 0.66355 -0.0005 0.0
H208 H 0.63192 0.64876 0.02516 0.0
H209 H 0.5671 0.75893 0.0779 0.0
C210 C 0.41745 0.79219 0.0365 0.0
C211 C 0.45611 0.80692 0.01971 0.0
C212 C 0.41488 0.75327 0.05645 0.0
C213 C 0.45126 0.72749 0.05762 0.0
C214 C 0.49002 0.74143 0.03941 0.0
C215 C 0.49244 0.78153 0.02136 0.0
C216 C 0.52833 0.71455 0.03841 0.0
C217 C 0.52756 0.67544 0.01444 0.0
C218 C 0.56535 0.65246 0.00866 0.0
C219 C 0.6033 0.66797 0.02789 0.0
C220 C 0.60433 0.70582 0.05334 0.0
C221 C 0.56666 0.72938 0.05847 0.0
H222 H 0.3943 0.17651 0.49587 0.0
H223 H 0.51582 0.2247 0.54317 0.0
H224 H 0.46482 0.26666 0.42463 0.0
H225 H 0.54028 0.24428 0.41339 0.0
H226 H 0.63839 0.33514 0.44996 0.0
H227 H 0.53507 0.31137 0.537 0.0
C228 C 0.42041 0.19966 0.49459 0.0
C229 C 0.42486 0.22297 0.45786 0.0
C230 C 0.45345 0.19929 0.52511 0.0
C231 C 0.48919 0.22646 0.52103 0.0
C232 C 0.49295 0.25179 0.48534 0.0
C233 C 0.46069 0.24972 0.45378 0.0
C234 C 0.53376 0.2742 0.47693 0.0
C235 C 0.5543 0.26635 0.43742 0.0
C236 C 0.59249 0.2876 0.4284 0.0
C237 C 0.61027 0.31682 0.45872 0.0
C238 C 0.58977 0.32624 0.4978 0.0
C239 C 0.55159 0.3042 0.50715 0.0
H240 H 0.57584 0.88709 0.33875 0.0
H241 H 0.62659 0.96374 0.23985 0.0
H242 H 0.5167 0.00577 0.31339 0.0
H243 H 0.52575 0.00176 0.19827 0.0
H244 H 0.55797 0.13488 0.1925 0.0
H245 H 0.61114 0.06216 0.29229 0.0
C246 C 0.5735 0.91466 0.31919 0.0
C247 C 0.54238 0.94503 0.32899 0.0
C248 C 0.60419 0.92106 0.28756 0.0
C249 C 0.60243 0.958 0.26381 0.0
C250 C 0.56963 0.98791 0.27191 0.0
C251 C 0.5403 0.9817 0.30527 0.0
C252 C 0.56779 0.02772 0.24857 0.0
C253 C 0.54223 0.03006 0.2115 0.0
C254 C 0.53806 0.06914 0.19164 0.0
C255 C 0.55959 0.10534 0.20908 0.0
C256 C 0.58648 0.10314 0.24483 0.0
C257 C 0.59044 0.06417 0.2646 0.0
H258 H 0.14385 0.48726 0.40448 0.0
H259 H 0.1597 0.52263 0.53759 0.0
H260 H 0.2497 0.43833 0.47398 0.0
H261 H 0.18651 0.44174 0.58098 0.0
H262 H 0.29957 0.47667 0.65418 0.0
H263 H 0.28764 0.51581 0.52531 0.0
C264 C 0.16349 0.48766 0.43316 0.0
C265 C 0.199 0.46101 0.4343 0.0
C266 C 0.14871 0.50934 0.47018 0.0
C267 C 0.17152 0.50671 0.50852 0.0
C268 C 0.20905 0.4826 0.50946 0.0
C269 C 0.22242 0.45923 0.47249 0.0
C270 C 0.2335 0.48073 0.54948 0.0
C271 C 0.21698 0.45865 0.58408 0.0
C272 C 0.24071 0.4573 0.62213 0.0
C273 C 0.28034 0.47891 0.62545 0.0
C274 C 0.2976 0.49954 0.59063 0.0
C275 C 0.2742 0.50023 0.55253 0.0
H276 H 0.0527 0.14711 0.85093 0.0
H277 H 0.97857 0.05164 0.78057 0.0
H278 H 0.11556 0.04017 0.78959 0.0
H279 H 0.09579 0.01815 0.71251 0.0
H280 H 0.04072 0.89327 0.69 0.0
H281 H 0.99122 0.97591 0.79066 0.0
C282 C 0.05179 0.11928 0.82896 0.0
C283 C 0.08935 0.09613 0.82094 0.0
C284 C 0.01185 0.10312 0.81503 0.0
C285 C 0.00958 0.06463 0.79055 0.0
C286 C 0.04722 0.04249 0.78 0.0
C287 C 0.08695 0.05866 0.79497 0.0
C288 C 0.04542 0.00092 0.75599 0.0
C289 C 0.07409 0.99308 0.72213 0.0
C290 C 0.07251 0.95429 0.69836 0.0
C291 C 0.04354 0.92243 0.70997 0.0
C292 C 0.01357 0.93024 0.74256 0.0
C293 C 0.01452 0.96967 0.7656 0.0
H294 H 0.31385 0.52786 0.86868 0.0
H295 H 0.2974 0.4899 -0.0025 0.0
H296 H 0.20442 0.57088 0.94077 0.0
H297 H 0.21093 0.59605 0.01856 0.0
H298 H 0.14782 0.52156 0.11182 0.0
H299 H 0.22086 0.45866 0.01235 0.0
C300 C 0.29451 0.52722 0.89742 0.0
C301 C 0.25696 0.55121 0.90034 0.0
C302 C 0.30958 0.50571 0.93247 0.0
C303 C 0.28573 0.50648 0.97027 0.0
C304 C 0.24722 0.52918 0.97324 0.0
C305 C 0.23344 0.55236 0.93844 0.0
C306 C 0.22115 0.52777 0.01247 0.0
C307 C 0.20432 0.5654 0.0319 0.0
C308 C 0.17746 0.56305 0.06759 0.0
C309 C 0.16927 0.5234 0.08469 0.0
C310 C 0.18456 0.48571 0.06495 0.0
C311 C 0.2106 0.48793 0.02884 0.0
H312 H 0.64318 0.97644 0.91037 0.0
H313 H 0.66383 0.01913 0.04105 0.0
H314 H 0.75564 0.9373 0.97636 0.0
H315 H 0.69693 0.94912 0.0901 0.0
H316 H 0.81808 0.98457 0.14835 0.0
H317 H 0.79445 0.01231 0.0177 0.0
C318 C 0.66408 0.97888 0.93821 0.0
C319 C 0.7014 0.95483 0.9386 0.0
C320 C 0.6501 0.00149 0.97492 0.0
C321 C 0.6749 0.0021 0.01228 0.0
C322 C 0.71409 0.98051 0.01221 0.0
C323 C 0.72688 0.95622 0.97556 0.0
C324 C 0.74166 0.98268 0.05041 0.0
C325 C 0.72799 0.96488 0.08862 0.0
C326 C 0.75547 0.96581 0.12421 0.0
C327 C 0.79605 0.98524 0.1215 0.0
C328 C 0.81024 0.0017 0.08322 0.0
C329 C 0.78311 0.00034 0.04764 0.0
H330 H 0.57075 0.59614 0.37484 0.0
H331 H 0.52711 0.53969 0.25456 0.0
H332 H 0.60577 0.46802 0.33805 0.0
H333 H 0.58746 0.49792 0.20757 0.0
H334 H 0.55323 0.36654 0.18096 0.0
H335 H 0.53762 0.42209 0.30793 0.0
C336 C 0.57178 0.57034 0.3505 0.0
C337 C 0.59256 0.53253 0.35976 0.0
C338 C 0.54744 0.57316 0.31311 0.0
C339 C 0.54641 0.5383 0.28329 0.0
C340 C 0.56847 0.50073 0.29175 0.0
C341 C 0.59084 0.49772 0.33035 0.0
C342 C 0.56564 0.46337 0.26173 0.0
C343 C 0.577 0.46731 0.21879 0.0
C344 C 0.57345 0.43204 0.18999 0.0
C345 C 0.5586 0.3929 0.2042 0.0
C346 C 0.54458 0.38923 0.24635 0.0
C347 C 0.54898 0.42441 0.2754 0.0
H348 H 0.83236 0.02532 0.373 0.0
H349 H 0.7996 0.006 0.50372 0.0
H350 H 0.71786 0.08084 0.4259 0.0
H351 H 0.72518 0.11692 0.50685 0.0
H352 H 0.64019 0.05817 0.59504 0.0
H353 H 0.71176 0.97955 0.50601 0.0
C354 C 0.8098 0.02912 0.3992 0.0
C355 C 0.77345 0.05423 0.39437 0.0
C356 C 0.81978 0.01229 0.43854 0.0
C357 C 0.79189 0.01881 0.47311 0.0
C358 C 0.75456 0.04281 0.46843 0.0
C359 C 0.74597 0.06137 0.4293 0.0
C360 C 0.72416 0.04761 0.50425 0.0
C361 C 0.71203 0.08843 0.52044 0.0
C362 C 0.68176 0.09206 0.5534 0.0
C363 C 0.66465 0.05521 0.57047 0.0
C364 C 0.67486 0.01477 0.55332 0.0
C365 C 0.70489 0.01084 0.52036 0.0
H366 H 0.08316 0.36992 0.83737 0.0
H367 H 0.15833 0.44814 0.75679 0.0
H368 H 0.02506 0.47644 0.7801 0.0
H369 H 0.03562 0.48847 0.69995 0.0
H370 H 0.10196 0.60306 0.66726 0.0
H371 H 0.1553 0.52563 0.76272 0.0
C372 C 0.08496 0.39551 0.81524 0.0
C373 C 0.04933 0.42123 0.80996 0.0
C374 C 0.12435 0.40533 0.79683 0.0
C375 C 0.12761 0.44018 0.77046 0.0
C376 C 0.09128 0.46509 0.76249 0.0
C377 C 0.05234 0.45582 0.78323 0.0
C378 C 0.09462 0.5027 0.73532 0.0
C379 C 0.06227 0.51069 0.70498 0.0
C380 C 0.0649 0.54712 0.68059 0.0
C381 C 0.09953 0.57536 0.6867 0.0
C382 C 0.13218 0.56759 0.71581 0.0
C383 C 0.13001 0.53118 0.73993 0.0
H384 H 0.932 0.27705 -0.0039 0.0
H385 H 0.02547 0.47517 0.87543 0.0
H386 H 0.99414 0.38663 0.05802 0.0
H387 H 0.99509 0.35256 0.81421 0.0
H388 H 0.99009 0.4528 0.94043 0.0
H389 H 0.93112 0.31389 0.92895 0.0
C390 C 0.94429 0.30942 -0.00414 0.0
C391 C 0.96352 0.32877 0.03257 0.0
C392 C 0.98963 0.43132 0.91232 0.0
C393 C 0.96413 0.37056 0.95562 0.0
C394 C 0.00931 0.44435 0.875 0.0
C395 C 0.0132 0.41557 0.83962 0.0
C396 C 0.97366 0.38931 0.91401 0.0
C397 C 0.9926 0.37562 0.84094 0.0
C398 C 0.94428 0.33024 0.9574 0.0
C399 C 0.97999 0.37029 0.03023 0.0
N400 N 0.97437 0.36332 0.87786 0.0
N401 N 0.98078 0.38946 0.99221 0.0
H402 H 0.84543 0.77862 0.27795 0.0
H403 H 0.74731 0.99542 0.20697 0.0
H404 H 0.87189 0.90458 0.33354 0.0
H405 H 0.74736 0.87963 0.12724 0.0
H406 H 0.76477 0.95408 0.26875 0.0
H407 H 0.78541 0.80775 0.23781 0.0
C408 C 0.83774 0.81206 0.28277 0.0
C409 C 0.86389 0.83947 0.30863 0.0
C410 C 0.75961 0.93746 0.23803 0.0
C411 C 0.79565 0.8727 0.26342 0.0
C412 C 0.74912 0.96099 0.20292 0.0
C413 C 0.74656 0.94085 0.16206 0.0
C414 C 0.76865 0.89383 0.2319 0.0
C415 C 0.74936 0.89623 0.15835 0.0
C416 C 0.80365 0.82865 0.25983 0.0
C417 C 0.85271 0.88249 0.31375 0.0
N418 N 0.76159 0.87423 0.19266 0.0
N419 N 0.81978 0.89782 0.29107 0.0
H420 H 0.6024 0.66865 0.58726 0.0
H421 H 0.55776 0.47989 0.41645 0.0
H422 H 0.48214 0.60106 0.56728 0.0
H423 H 0.65539 0.57692 0.40421 0.0
H424 H 0.54932 0.50248 0.49167 0.0
H425 H 0.63601 0.61879 0.53606 0.0
C426 C 0.58345 0.64236 0.57316 0.0
C427 C 0.53945 0.63889 0.58115 0.0
C428 C 0.5739 0.51761 0.47301 0.0
C429 C 0.57867 0.57975 0.52554 0.0
C430 C 0.57926 0.50426 0.4303 0.0
C431 C 0.60624 0.52774 0.40416 0.0
C432 C 0.5959 0.55431 0.48897 0.0
C433 C 0.63355 0.55883 0.42344 0.0
C434 C 0.60289 0.6135 0.5446 0.0
C435 C 0.51619 0.60471 0.56177 0.0
N436 N 0.62668 0.57234 0.46459 0.0
N437 N 0.53616 0.57623 0.53485 0.0
H438 H 0.59502 0.29433 0.72791 0.0
H439 H 0.6019 0.11846 0.53741 0.0
H440 H 0.50194 0.19176 0.71135 0.0
H441 H 0.71745 0.15535 0.60611 0.0
H442 H 0.56151 0.16813 0.58408 0.0
H443 H 0.63666 0.26253 0.6683 0.0
C444 C 0.58322 0.26528 0.71149 0.0
C445 C 0.54515 0.24532 0.72462 0.0
C446 C 0.59589 0.16627 0.58793 0.0
C447 C 0.59179 0.21009 0.65605 0.0
C448 C 0.61902 0.13858 0.56106 0.0
C449 C 0.66293 0.13293 0.56819 0.0
C450 C 0.61693 0.18874 0.62171 0.0
C451 C 0.68365 0.15909 0.59963 0.0
C452 C 0.60697 0.24738 0.67764 0.0
C453 C 0.53131 0.2078 0.70245 0.0
N454 N 0.66027 0.18564 0.62586 0.0
N455 N 0.55453 0.1915 0.66895 0.0
H456 H 0.04416 0.64439 0.44231 0.0
H457 H 0.00041 0.60501 0.68067 0.0
H458 H 0.92071 0.67997 0.49335 0.0
H459 H 0.06589 0.51227 0.59984 0.0
H460 H 0.97101 0.6366 0.61649 0.0
H461 H 0.05629 0.6024 0.50472 0.0
C462 C 0.01907 0.64251 0.46602 0.0
C463 C 0.98107 0.66536 0.46212 0.0
C464 C 0.99072 0.60853 0.61295 0.0
C465 C 0.99478 0.61638 0.5334 0.0
C466 C 0.00698 0.59018 0.64945 0.0
C467 C 0.03492 0.55552 0.64541 0.0
C468 C 0.00358 0.59274 0.57234 0.0
C469 C 0.04379 0.5384 0.60429 0.0
C470 C 0.02599 0.61826 0.50148 0.0
C471 C 0.95023 0.66238 0.49465 0.0
N472 N 0.02896 0.55776 0.56936 0.0
N473 N 0.95796 0.6387 0.52925 0.0
H474 H 0.59573 0.7356 0.81812 0.0
H475 H 0.70405 0.96549 0.85253 0.0
H476 H 0.57751 0.83954 0.73455 0.0
H477 H 0.70609 0.86929 0.94621 0.0
H478 H 0.67592 0.91235 0.79965 0.0
H479 H 0.64965 0.77841 0.85774 0.0
C480 C 0.60287 0.76753 0.80819 0.0
C481 C 0.58156 0.78422 0.77326 0.0
C482 C 0.68372 0.90251 0.8314 0.0
C483 C 0.64401 0.83309 0.81814 0.0
C484 C 0.7005 0.93264 0.86132 0.0
C485 C 0.70646 0.92181 0.90389 0.0
C486 C 0.67297 0.86151 0.84439 0.0
C487 C 0.70152 0.87894 0.91378 0.0
C488 C 0.634 0.79178 0.83063 0.0
C489 C 0.59262 0.82559 0.76163 0.0
N490 N 0.68386 0.85049 0.88453 0.0
N491 N 0.62297 0.84868 0.78415 0.0
H492 H 0.57353 0.34044 0.93171 0.0
H493 H 0.52127 0.47979 0.14368 0.0
H494 H 0.44608 0.37699 0.97053 0.0
H495 H 0.6263 0.39239 0.13196 0.0
H496 H 0.50482 0.46581 0.06772 0.0
H497 H 0.60283 0.38253 0.99293 0.0
C498 C 0.55178 0.35789 0.95277 0.0
C499 C 0.50728 0.35432 0.94698 0.0
C500 C 0.53236 0.45087 0.08149 0.0
C501 C 0.54064 0.40314 0.01605 0.0
C502 C 0.54213 0.45928 0.12451 0.0
C503 C 0.57507 0.43704 0.14367 0.0
C504 C 0.55623 0.42062 0.05772 0.0
C505 C 0.60071 0.41009 0.11799 0.0
C506 C 0.56856 0.38201 0.98748 0.0
C507 C 0.48053 0.37804 0.97469 0.0
N508 N 0.59032 0.40205 0.07625 0.0
N509 N 0.49766 0.40126 0.00841 0.0
H510 H 0.86627 0.22916 0.21654 0.0
H511 H 0.76642 0.13991 0.38513 0.0
H512 H 0.90548 0.09908 0.19107 0.0
H513 H 0.77252 0.01992 0.31278 0.0
H514 H 0.78805 0.17676 0.32171 0.0
H515 H 0.80539 0.20297 0.25758 0.0
C516 C 0.86172 0.19508 0.21906 0.0
C517 C 0.89172 0.16627 0.20153 0.0
C518 C 0.78291 0.14258 0.31883 0.0
C519 C 0.82265 0.13616 0.24876 0.0
C520 C 0.77032 0.12152 0.35523 0.0
C521 C 0.76874 0.07681 0.35424 0.0
C522 C 0.79425 0.11844 0.28157 0.0
C523 C 0.77428 0.05443 0.31485 0.0
C524 C 0.82709 0.18016 0.24276 0.0
C525 C 0.88381 0.12249 0.20502 0.0
N526 N 0.78802 0.07535 0.28039 0.0
N527 N 0.85039 0.10886 0.22863 0.0
H528 H 0.06421 0.92615 0.34692 0.0
H529 H 0.85044 0.93861 0.40151 0.0
H530 H 0.05946 0.06055 0.38307 0.0
H531 H 0.88666 0.04689 0.48394 0.0
H532 H 0.92623 0.92466 0.38767 0.0
H533 H -0.0014 0.91492 0.3878 0.0
C534 C 0.05006 0.95312 0.36426 0.0
C535 C 0.06738 0.99447 0.36131 0.0
C536 C 0.91792 0.95044 0.41015 0.0
C537 C 0.99266 0.98168 0.40865 0.0
C538 C 0.87463 0.95825 0.41808 0.0
C539 C 0.86264 0.99398 0.4436 0.0
C540 C 0.9491 0.97936 0.4271 0.0
C541 C 0.89481 0.01893 0.46414 0.0
C542 C 0.0125 0.94665 0.38757 0.0
C543 C 0.0476 0.02809 0.38454 0.0
N544 N 0.93659 0.0119 0.45446 0.0
N545 N 0.01139 0.02096 0.40708 0.0
H546 H 0.19634 0.77758 0.60227 0.0
H547 H 0.21188 0.55587 0.68254 0.0
H548 H 0.32281 0.72437 0.6063 0.0
H549 H 0.13305 0.64866 0.74935 0.0
H550 H 0.25702 0.61412 0.65707 0.0
H551 H 0.1731 0.72891 0.65667 0.0
C552 C 0.21925 0.75581 0.61497 0.0
C553 C 0.26132 0.75456 0.59973 0.0
C554 C 0.23091 0.6216 0.67878 0.0
C555 C 0.23493 0.69844 0.66119 0.0
C556 C 0.20551 0.5884 0.69369 0.0
C557 C 0.16877 0.59778 0.71785 0.0
C558 C 0.21864 0.66401 0.68757 0.0
C559 C 0.1612 0.64038 0.73073 0.0
C560 C 0.20617 0.72837 0.64623 0.0
C561 C 0.29 0.72605 0.61735 0.0
N562 N 0.18513 0.6721 0.71436 0.0
N563 N 0.27599 0.69817 0.64649 0.0
H564 H 0.41602 0.93987 0.87917 0.0
H565 H 0.62099 0.0677 0.93117 0.0
H566 H 0.4185 0.07522 0.85914 0.0
H567 H 0.58018 0.9671 0.01139 0.0
H568 H 0.54741 0.07309 0.90491 0.0
H569 H 0.47729 0.94983 0.92684 0.0
C570 C 0.42836 0.97195 0.88593 0.0
C571 C 0.4123 0.00671 0.86465 0.0
C572 C 0.55414 0.05133 0.92983 0.0
C573 C 0.48142 0.01828 0.92089 0.0
C574 C 0.59594 0.04854 0.94504 0.0
C575 C 0.60619 0.01754 0.97401 0.0
C576 C 0.52262 0.02298 0.94383 0.0
C577 C 0.57318 0.99201 0.98973 0.0
C578 C 0.4631 0.97758 0.91359 0.0
C579 C 0.43005 0.04746 0.8746 0.0
N580 N 0.53286 0.99473 0.9738 0.0
N581 N 0.46419 0.05208 0.9016 0.0
H582 H 0.31576 0.25509 0.20025 0.0
H583 H 0.56351 0.30486 0.23292 0.0
H584 H 0.4193 0.1983 0.1275 0.0
H585 H 0.46379 0.38862 0.27906 0.0
H586 H 0.5101 0.24805 0.2201 0.0
H587 H 0.36861 0.28769 0.25087 0.0
C588 C 0.34951 0.24907 0.19532 0.0
C589 C 0.36342 0.22522 0.15906 0.0
C590 C 0.50002 0.27845 0.23428 0.0
C591 C 0.42346 0.26114 0.21691 0.0
C592 C 0.53056 0.3107 0.24193 0.0
C593 C 0.51775 0.35168 0.25594 0.0
C594 C 0.45643 0.28767 0.23992 0.0
C595 C 0.47481 0.35757 0.26763 0.0
C596 C 0.37953 0.26741 0.22422 0.0
C597 C 0.40734 0.21763 0.15437 0.0
N598 N 0.44531 0.32625 0.25809 0.0
N599 N 0.43579 0.23586 0.18271 0.0
H600 H 0.05775 0.10464 0.15427 0.0
H601 H 0.87417 0.9531 0.051 0.0
H602 H 0.05412 0.96758 0.16103 0.0
H603 H 0.84869 0.07679 0.11049 0.0
H604 H 0.95106 0.96537 0.06399 0.0
H605 H 0.9914 0.10041 0.11188 0.0
C606 C 0.04324 0.07372 0.14653 0.0
C607 C 0.06084 0.03653 0.16209 0.0
C608 C 0.92872 0.99034 0.0729 0.0
C609 C 0.98615 0.03151 0.1129 0.0
C610 C 0.8851 0.9835 0.06529 0.0
C611 C 0.8556 0.01409 0.07973 0.0
C612 C 0.94258 0.02809 0.09485 0.0
C613 C 0.87081 0.05267 0.0988 0.0
C614 C 0.0057 0.07137 0.12218 0.0
C615 C 0.04139 -0.00288 0.15022 0.0
N616 N 0.91346 0.0585 0.10624 0.0
N617 N 0.00487 0.99567 0.12657 0.0
H618 H 0.43647 0.78706 0.43053 0.0
H619 H 0.46113 0.57061 0.29719 0.0
H620 H 0.32717 0.7222 0.37144 0.0
H621 H 0.56626 0.6582 0.32537 0.0
H622 H 0.41079 0.62773 0.31586 0.0
H623 H 0.48378 0.74254 0.38665 0.0
C624 C 0.4224 0.76351 0.40805 0.0
C625 C 0.37783 0.75794 0.40497 0.0
C626 C 0.44485 0.63478 0.31682 0.0
C627 C 0.43207 0.7062 0.35466 0.0
C628 C 0.47362 0.60228 0.30575 0.0
C629 C 0.51792 0.6096 0.31031 0.0
C630 C 0.46066 0.67455 0.33292 0.0
C631 C 0.53232 0.6511 0.32202 0.0
C632 C 0.44948 0.7382 0.38272 0.0
C633 C 0.36141 0.72729 0.37489 0.0
N634 N 0.50381 0.68173 0.33375 0.0
N635 N 0.38858 0.70194 0.35137 0.0
H636 H 0.44248 0.01533 0.63575 0.0
H637 H 0.67251 0.97133 0.62684 0.0
H638 H 0.47031 0.8934 0.68695 0.0
H639 H 0.6086 0.98406 0.50614 0.0
H640 H 0.60531 0.94379 0.65665 0.0
H641 H 0.50882 0.01119 0.59458 0.0
C642 C 0.4621 0.98733 0.63769 0.0
C643 C 0.45031 0.95421 0.66391 0.0
C644 C 0.60668 0.95083 0.62312 0.0
C645 C 0.52712 0.95054 0.61891 0.0
C646 C 0.645 0.96592 0.60601 0.0
C647 C 0.64584 0.97962 0.564 0.0
C648 C 0.56928 0.95119 0.59831 0.0
C649 C 0.60914 0.97337 0.53854 0.0
C650 C 0.4999 0.9851 0.61438 0.0
C651 C 0.47794 0.91937 0.66658 0.0
N652 N 0.57174 0.96132 0.55662 0.0
N653 N 0.51576 0.91883 0.645 0.0
H654 H 0.25865 0.2004 0.90854 0.0
H655 H 0.1819 0.43464 0.85631 0.0
H656 H 0.23288 0.30052 0.00393 0.0
H657 H 0.14854 0.32362 0.7762 0.0
H658 H 0.22411 0.38958 0.90197 0.0
H659 H 0.23882 0.2489 0.85244 0.0
C660 C 0.24919 0.23264 0.91764 0.0
C661 C 0.24698 0.24637 0.96096 0.0
C662 C 0.20856 0.37527 0.87369 0.0
C663 C 0.22534 0.30199 0.89716 0.0
C664 C 0.18515 0.40106 0.84727 0.0
C665 C 0.16207 0.38272 0.81241 0.0
C666 C 0.20903 0.33093 0.86494 0.0
C667 C 0.16631 0.33886 0.80263 0.0
C668 C 0.23796 0.26021 0.88567 0.0
C669 C 0.23454 0.28847 0.97099 0.0
N670 N 0.18893 0.31427 0.82907 0.0
N671 N 0.22425 0.31476 0.93936 0.0
H672 H 0.41463 0.04424 0.11267 0.0
H673 H 0.40498 0.84658 0.96365 0.0
H674 H 0.35779 0.05149 0.98733 0.0
H675 H 0.51143 0.86893 0.05025 0.0
H676 H 0.39194 0.92324 0.96579 0.0
H677 H 0.45561 0.98312 0.08671 0.0
C678 C 0.41122 0.03338 0.07945 0.0
C679 C 0.38219 0.05258 0.05232 0.0
C680 C 0.41913 0.91158 0.98308 0.0
C681 C 0.42835 0.98186 0.02271 0.0
C682 C 0.42667 0.86793 0.98169 0.0
C683 C 0.45879 0.85164 0.00741 0.0
C684 C 0.44378 0.9388 0.01058 0.0
C685 C 0.48617 0.88037 0.03018 0.0
C686 C 0.43489 -0.00141 0.06457 0.0
C687 C 0.37944 0.03731 0.00949 0.0
N688 N 0.47731 0.92265 0.0322 0.0
N689 N 0.40138 0.00201 -0.00375 0.0
H690 H 0.86514 0.47963 0.11386 0.0
H691 H 0.92553 0.68442 0.07163 0.0
H692 H 0.94 0.45989 -0.00057 0.0
H693 H 0.04075 0.63051 0.01849 0.0
H694 H 0.90788 0.61629 0.10181 0.0
H695 H 0.90416 0.5476 0.12903 0.0
C696 C 0.89043 0.48905 0.09254 0.0
C697 C 0.89953 0.46393 0.05538 0.0
C698 C 0.93831 0.61974 0.08573 0.0
C699 C 0.94448 0.54068 0.07284 0.0
C700 C 0.9487 0.65904 0.06894 0.0
C701 C 0.98406 0.66257 0.04169 0.0
C702 C 0.96349 0.58414 0.07458 0.0
C703 C 0.01279 0.62869 0.0388 0.0
C704 C 0.91243 0.5278 0.10109 0.0
C705 C 0.93255 0.47756 0.02881 0.0
N706 N 0.00092 0.59017 0.05327 0.0
N707 N 0.95378 0.51485 0.03806 0.0
H708 H 0.82206 0.5904 0.10936 0.0
H709 H 0.61372 0.71568 0.13993 0.0
H710 H 0.77732 0.63126 0.23487 0.0
H711 H 0.68537 0.71518 0.02247 0.0
H712 H 0.67914 0.69847 0.17822 0.0
H713 H 0.77944 0.64612 0.07865 0.0
C714 C 0.80389 0.61163 0.13052 0.0
C715 C 0.8025 0.60564 0.17458 0.0
C716 C 0.68101 0.70363 0.14431 0.0
C717 C 0.75301 0.66901 0.13969 0.0
C718 C 0.64367 0.71402 0.12255 0.0
C719 C 0.64409 0.71589 0.07791 0.0
C720 C 0.71849 0.69437 0.12093 0.0
C721 C 0.68372 0.71321 0.05688 0.0
C722 C 0.77966 0.64361 0.11303 0.0
C723 C 0.77885 0.63442 0.20061 0.0
N724 N 0.71908 0.70117 0.0783 0.0
N725 N 0.75418 0.66417 0.18269 0.0
H726 H 0.66151 0.57282 0.62709 0.0
H727 H 0.54352 0.3917 0.53544 0.0
H728 H 0.72632 0.54898 0.50671 0.0
H729 H 0.67282 0.34694 0.51862 0.0
H730 H 0.57259 0.46189 0.55999 0.0
H731 H 0.62616 0.50226 0.61748 0.0
C732 C 0.66802 0.55299 0.59861 0.0
C733 C 0.69663 0.56688 0.56741 0.0
C734 C 0.59434 0.43614 0.55208 0.0
C735 C 0.65716 0.4867 0.55733 0.0
C736 C 0.5779 0.39606 0.53837 0.0
C737 C 0.60582 0.36353 0.52449 0.0
C738 C 0.63873 0.44351 0.55132 0.0
C739 C 0.65015 0.37136 0.52821 0.0
C740 C 0.64773 0.51309 0.59327 0.0
C741 C 0.70413 0.5398 0.53128 0.0
N742 N 0.66525 0.41091 0.54016 0.0
N743 N 0.68496 0.50069 0.52753 0.0
H744 H 0.19967 0.87712 0.12403 0.0
H745 H 0.33405 0.73756 0.02596 0.0
H746 H 0.24648 0.83709 0.24529 0.0
H747 H 0.40651 0.75514 0.14285 0.0
H748 H 0.26904 0.75798 0.06485 0.0
H749 H 0.242 0.82203 0.08768 0.0
C750 C 0.21815 0.85599 0.14306 0.0
C751 C 0.21994 0.86202 0.18769 0.0
C752 C 0.29896 0.75676 0.08226 0.0
C753 C 0.26858 0.79816 0.14626 0.0
C754 C 0.33584 0.74404 0.06025 0.0
C755 C 0.37563 0.74512 0.08124 0.0
C756 C 0.30228 0.77164 0.12527 0.0
C757 C 0.37639 0.754 0.12556 0.0
C758 C 0.24207 0.82403 0.12227 0.0
C759 C 0.24434 0.83363 0.21076 0.0
N760 N 0.34043 0.76803 0.14597 0.0
N761 N 0.26853 0.8036 0.18973 0.0
H762 H 0.18946 0.92789 0.52463 0.0
H763 H 0.10559 0.14091 0.44554 0.0
H764 H 0.17989 0.94482 0.38879 0.0
H765 H 0.04755 0.08469 0.55453 0.0
H766 H 0.13602 0.07147 0.42409 0.0
H767 H 0.14237 0.98859 0.53736 0.0
C768 C 0.17644 0.94339 0.49737 0.0
C769 C 0.18874 0.93108 0.45551 0.0
C770 C 0.11546 0.07403 0.45191 0.0
C771 C 0.13356 -0.00028 0.47019 0.0
C772 C 0.09778 0.11341 0.46384 0.0
C773 C 0.0734 0.11806 0.50129 0.0
C774 C 0.10902 0.0393 0.47787 0.0
C775 C 0.06539 0.08197 0.52492 0.0
C776 C 0.14921 0.9778 0.50476 0.0
C777 C 0.17126 0.95308 0.4216 0.0
N778 N 0.08378 0.04413 0.51321 0.0
N779 N 0.14493 0.98669 0.42972 0.0
H780 H 0.78736 0.34959 0.25613 0.0
H781 H 0.55687 0.31984 0.35862 0.0
H782 H 0.68435 0.43929 0.24899 0.0
H783 H 0.66993 0.25734 0.40185 0.0
H784 H 0.59788 0.34621 0.29871 0.0
H785 H 0.73924 0.30055 0.2915 0.0
C786 C 0.75437 0.35863 0.26124 0.0
C787 C 0.73992 0.39887 0.25053 0.0
C788 C 0.61303 0.32509 0.3201 0.0
C789 C 0.68449 0.34225 0.28935 0.0
C790 C 0.58967 0.30973 0.35406 0.0
C791 C 0.61036 0.28669 0.38503 0.0
C792 C 0.65691 0.31684 0.31698 0.0
C793 C 0.6531 0.27512 0.37838 0.0
C794 C 0.72697 0.33056 0.28133 0.0
C795 C 0.6968 0.40874 0.25738 0.0
N796 N 0.67532 0.29094 0.34528 0.0
N797 N 0.67053 0.38061 0.27657 0.0
H798 H 0.80707 0.47609 0.81773 0.0
H799 H 0.88177 0.71302 0.88131 0.0
H800 H 0.7524 0.58437 0.75867 0.0
H801 H 0.9588 0.60305 0.90322 0.0
H802 H 0.83489 0.66792 0.83431 0.0
H803 H 0.86336 0.52283 0.84891 0.0
C804 C 0.80712 0.50967 0.81111 0.0
C805 C 0.77494 0.52643 0.78584 0.0
C806 C 0.86245 0.65388 0.84894 0.0
C807 C 0.83895 0.58026 0.82171 0.0
C808 C 0.88928 0.67964 0.87554 0.0
C809 C 0.92369 0.66154 0.89677 0.0
C810 C 0.87005 0.60983 0.84398 0.0
C811 C 0.93197 0.61807 0.88828 0.0
C812 C 0.83933 0.53634 0.82876 0.0
C813 C 0.77663 0.57017 0.77807 0.0
N814 N 0.905 0.5936 0.86311 0.0
N815 N 0.8078 0.59573 0.79641 0.0
H816 H 0.41772 0.81926 0.53475 0.0
H817 H 0.55492 0.98665 0.40576 0.0
H818 H 0.54384 0.86411 0.57338 0.0
H819 H 0.47728 0.88831 0.34187 0.0
H820 H 0.53278 0.96003 0.47494 0.0
H821 H 0.4241 0.86057 0.47012 0.0
C822 C 0.4462 0.83861 0.53023 0.0
C823 C 0.48021 0.83853 0.55963 0.0
C824 C 0.51991 0.94496 0.44576 0.0
C825 C 0.48668 0.88668 0.487 0.0
C826 C 0.53176 0.96062 0.40645 0.0
C827 C 0.51744 0.93981 0.36835 0.0
C828 C 0.49342 0.9085 0.44675 0.0
C829 C 0.48845 0.90543 0.37073 0.0
C830 C 0.44966 0.86211 0.49354 0.0
C831 C 0.51657 0.86379 0.55195 0.0
N832 N 0.47759 0.89053 0.40938 0.0
N833 N 0.51881 0.88696 0.51644 0.0
H834 H 0.33117 0.37245 0.84206 0.0
H835 H 0.22917 0.37095 0.61505 0.0
H836 H 0.33241 0.26393 0.75253 0.0
H837 H 0.2294 0.47762 0.707 0.0
H838 H 0.24225 0.32305 0.67303 0.0
H839 H 0.27169 0.40173 0.803 0.0
C840 C 0.31787 0.35421 0.81479 0.0
C841 C 0.33712 0.31637 0.79983 0.0
C842 C 0.23791 0.35672 0.68081 0.0
C843 C 0.26974 0.35002 0.75409 0.0
C844 C 0.22994 0.38402 0.64773 0.0
C845 C 0.22919 0.42831 0.65632 0.0
C846 C 0.24559 0.37416 0.72241 0.0
C847 C 0.23059 0.44367 0.69908 0.0
C848 C 0.28391 0.37089 0.79239 0.0
C849 C 0.31855 0.2935 0.76476 0.0
N850 N 0.23984 0.41678 0.7304 0.0
N851 N 0.28656 0.3113 0.74224 0.0
H852 H 0.12758 0.21637 0.05505 0.0
H853 H 0.12629 0.03808 0.87028 0.0
H854 H 0.03401 0.11554 0.03018 0.0
H855 H 0.13332 0.17123 0.84256 0.0
H856 H 0.14111 0.0571 0.94503 0.0
H857 H 0.1686 0.18963 0.99252 0.0
C858 C 0.11639 0.18793 0.03716 0.0
C859 C 0.07725 0.16816 0.04727 0.0
C860 C 0.14191 0.08193 0.92212 0.0
C861 C 0.12494 0.13674 0.97808 0.0
C862 C 0.13381 0.07116 0.87919 0.0
C863 C 0.12563 0.10357 0.85098 0.0
C864 C 0.14251 0.12506 0.9359 0.0
C865 C 0.13721 0.14558 0.86412 0.0
C866 C 0.13997 0.17271 0.00195 0.0
C867 C 0.06377 0.13186 0.02304 0.0
N868 N 0.14316 0.15558 0.90643 0.0
N869 N 0.08759 0.11736 0.98938 0.0
H870 H 0.00582 0.68395 0.2398 0.0
H871 H 0.21011 0.64115 0.09675 0.0
H872 H 0.10089 0.78275 0.22182 0.0
H873 H 0.09197 0.56914 0.08051 0.0
H874 H 0.17166 0.69517 0.14088 0.0
H875 H 0.03794 0.64132 0.18116 0.0
C876 C 0.03338 0.69668 0.22344 0.0
C877 C 0.05086 0.73676 0.23584 0.0
C878 C 0.15409 0.66787 0.12697 0.0
C879 C 0.08808 0.6881 0.16905 0.0
C880 C 0.17596 0.63729 0.10168 0.0
C881 C 0.15426 0.60043 0.08584 0.0
C882 C 0.11056 0.66098 0.13654 0.0
C883 C 0.11001 0.59677 0.09303 0.0
C884 C 0.05156 0.6725 0.1898 0.0
C885 C 0.08642 0.75193 0.21327 0.0
N886 N 0.08979 0.62621 0.11846 0.0
N887 N 0.10426 0.72733 0.18131 0.0
H888 H 0.5393 0.14955 0.93951 0.0
H889 H 0.558 0.02809 0.116 0.0
H890 H 0.40602 0.16225 0.97345 0.0
H891 H 0.472 0.12138 0.17175 0.0
H892 H 0.53744 0.0501 0.04484 0.0
H893 H 0.55167 0.11343 0.0056 0.0
C894 C 0.51232 0.14373 0.96024 0.0
C895 C 0.4714 0.15842 0.95038 0.0
C896 C 0.52242 0.06497 0.07259 0.0
C897 C 0.48552 0.11676 0.02639 0.0
C898 C 0.53361 0.05203 0.11316 0.0
C899 C 0.51647 0.07277 0.14971 0.0
C900 C 0.49346 0.09837 0.06843 0.0
C901 C 0.48571 0.10444 0.14421 0.0
C902 C 0.51945 0.12297 -0.00203 0.0
C903 C 0.43799 0.15092 0.97936 0.0
N904 N 0.47525 0.11644 0.10428 0.0
N905 N 0.4459 0.13111 0.01639 0.0
H906 H 0.0912 0.3484 0.21061 0.0
H907 H 0.20145 0.37488 0.43961 0.0
H908 H 0.09435 0.24976 0.30199 0.0
H909 H 0.20264 0.47353 0.34837 0.0
H910 H 0.17554 0.32401 0.38378 0.0
H911 H 0.13997 0.39188 0.25649 0.0
C912 C 0.1016 0.33615 0.24056 0.0
C913 C 0.08796 0.29574 0.25281 0.0
C914 C 0.18249 0.35652 0.37557 0.0
C915 C 0.1449 0.34464 0.30487 0.0
C916 C 0.19813 0.38541 0.40732 0.0
C917 C 0.20338 0.42861 0.39872 0.0
C918 C 0.17179 0.37117 0.3352 0.0
C919 C 0.19829 0.44054 0.35634 0.0
C920 C 0.13004 0.36067 0.26644 0.0
C921 C 0.10366 0.2809 0.2914 0.0
N922 N 0.1816 0.41224 0.32636 0.0
N923 N 0.13107 0.3054 0.31609 0.0
H924 H 0.97797 0.89903 0.47063 0.0
H925 H 0.12247 0.89094 0.66256 0.0
H926 H 0.0961 0.8303 0.45529 0.0
H927 H 0.05954 0.00799 0.63505 0.0
H928 H 0.12043 0.86984 0.58613 0.0
H929 H 0.00995 0.94118 0.53036 0.0
C930 C 0.01082 0.8932 0.47965 0.0
C931 C 0.0344 0.86108 0.45848 0.0
C932 C 0.10858 0.90086 0.5967 0.0
C933 C 0.0706 0.90794 0.52733 0.0
C934 C 0.11017 0.91304 0.64014 0.0
C935 C 0.09045 0.95081 0.65492 0.0
C936 C 0.08607 0.9262 0.56876 0.0
C937 C 0.07473 0.97841 0.62486 0.0
C938 C 0.02916 0.91739 0.51345 0.0
C939 C 0.07691 0.85479 0.47112 0.0
N940 N 0.07131 0.9648 0.58326 0.0
N941 N 0.0934 0.87725 0.50567 0.0
H942 H 0.34881 0.74291 0.74772 0.0
H943 H 0.25196 0.63772 0.90477 0.0
H944 H 0.3716 0.61417 0.69986 0.0
H945 H 0.24261 0.52863 0.81616 0.0
H946 H 0.26848 0.68275 0.84565 0.0
H947 H 0.28532 0.71716 0.78564 0.0
C948 C 0.33989 0.70942 0.74452 0.0
C949 C 0.36612 0.68024 0.72201 0.0
C950 C 0.26078 0.64946 0.83846 0.0
C951 C 0.29473 0.6505 0.76567 0.0
C952 C 0.25116 0.62369 0.87245 0.0
C953 C 0.24714 0.57938 0.86525 0.0
C954 C 0.26679 0.63035 0.79734 0.0
C955 C 0.24651 0.56265 0.82295 0.0
C956 C 0.30395 0.69463 0.76649 0.0
C957 C 0.35287 0.63742 0.71802 0.0
N958 N 0.25759 0.58795 0.79069 0.0
N959 N 0.31856 0.62376 0.74019 0.0
H960 H 0.55112 0.40642 0.83742 0.0
H961 H 0.3377 0.44385 0.87603 0.0
H962 H 0.56213 0.5373 0.8859 0.0
H963 H 0.37922 0.52746 0.98168 0.0
H964 H 0.41235 0.42601 0.86124 0.0
H965 H 0.48127 0.40138 0.87249 0.0
C966 C 0.53963 0.43365 0.85641 0.0
C967 C 0.56263 0.47251 0.85852 0.0
C968 C 0.40526 0.44699 0.8887 0.0
C969 C 0.48303 0.46631 0.89875 0.0
C970 C 0.36265 0.45717 0.89699 0.0
C971 C 0.3526 0.48685 0.93015 0.0
C972 C 0.43801 0.46759 0.91317 0.0
C973 C 0.38587 0.50412 0.95603 0.0
C974 C 0.4997 0.43066 0.87617 0.0
C975 C 0.54588 0.50662 0.88368 0.0
N976 N 0.4273 0.49508 0.94631 0.0
N977 N 0.50703 0.5028 0.90264 0.0
H978 H 0.67166 0.32663 0.15561 0.0
H979 H 0.67352 0.10517 0.25466 0.0
H980 H 0.78941 0.26438 0.18606 0.0
H981 H 0.56312 0.1863 0.25878 0.0
H982 H 0.71917 0.16766 0.24405 0.0
H983 H 0.63343 0.28109 0.20424 0.0
C984 C 0.68952 0.3038 0.17316 0.0
C985 C 0.73355 0.29878 0.16647 0.0
C986 C 0.68513 0.17208 0.24869 0.0
C987 C 0.69001 0.24597 0.22162 0.0
C988 C 0.65908 0.13639 0.25515 0.0
C989 C 0.61441 0.14053 0.25629 0.0
C990 C 0.6661 0.21174 0.24278 0.0
C991 C 0.5974 0.18173 0.25687 0.0
C992 C 0.66775 0.27785 0.20103 0.0
C993 C 0.75535 0.26905 0.19024 0.0
N994 N 0.62313 0.21563 0.24885 0.0
N995 N 0.73317 0.24303 0.21606 0.0
H996 H 0.91968 0.55886 0.34033 0.0
H997 H 0.08146 0.48337 0.51698 0.0
H998 H 0.91185 0.43798 0.40063 0.0
H999 H 0.11592 0.56789 0.41768 0.0
H1000 H 0.00677 0.48679 0.49462 0.0
H1001 H 0.97767 0.58115 0.38958 0.0
C1002 C 0.92928 0.5374 0.36458 0.0
C1003 C 0.91164 0.49596 0.36557 0.0
C1004 C 0.03036 0.50582 0.47884 0.0
C1005 C 0.97785 0.52136 0.42158 0.0
C1006 C 0.07294 0.50439 0.49193 0.0
C1007 C 0.10469 0.52546 0.46912 0.0
C1008 C 0.01953 0.52868 0.44308 0.0
C1009 C 0.09214 0.55134 0.43609 0.0
C1010 C 0.96248 0.55016 0.3925 0.0
C1011 C 0.9251 0.46983 0.39804 0.0
N1012 N 0.05051 0.55155 0.42341 0.0
N1013 N 0.95806 0.48263 0.42416 0.0
H1014 H 0.78867 0.80689 0.64068 0.0
H1015 H 0.01694 0.84447 0.75242 0.0
H1016 H 0.90385 0.73764 0.61004 0.0
H1017 H 0.9283 0.94668 0.73676 0.0
H1018 H 0.96186 0.7933 0.72633 0.0
H1019 H 0.82823 0.84764 0.69798 0.0
C1020 C 0.82207 0.80005 0.64636 0.0
C1021 C 0.84343 0.76972 0.62019 0.0
C1022 C 0.95403 0.8268 0.72994 0.0
C1023 C 0.88786 0.81445 0.68602 0.0
C1024 C 0.98525 0.85588 0.74518 0.0
C1025 C 0.9773 0.89977 0.74567 0.0
C1026 C 0.9148 0.84187 0.71516 0.0
C1027 C 0.93571 0.91305 0.73637 0.0
C1028 C 0.84442 0.82302 0.67901 0.0
C1029 C 0.8865 0.76151 0.62891 0.0
N1030 N 0.90616 0.88424 0.72032 0.0
N1031 N 0.90729 0.78379 0.66102 0.0
H1032 H 0.53713 0.59272 0.69588 0.0
H1033 H 0.36514 0.47168 0.54297 0.0
H1034 H 0.55527 0.46621 0.63922 0.0
H1035 H 0.33123 0.56078 0.64601 0.0
H1036 H 0.44127 0.48485 0.55984 0.0
H1037 H 0.46757 0.59526 0.66003 0.0
C1038 C 0.52695 0.56589 0.67513 0.0
C1039 C 0.55193 0.52911 0.67073 0.0
C1040 C 0.41712 0.50221 0.57805 0.0
C1041 C 0.47279 0.53209 0.62936 0.0
C1042 C 0.37389 0.49506 0.56822 0.0
C1043 C 0.34228 0.51518 0.59332 0.0
C1044 C 0.42846 0.52994 0.61289 0.0
C1045 C 0.35493 0.54469 0.6261 0.0
C1046 C 0.4872 0.5673 0.65497 0.0
C1047 C 0.53704 0.49517 0.64355 0.0
N1048 N 0.39717 0.55099 0.6352 0.0
N1049 N 0.49831 0.49742 0.62393 0.0
H1050 H 0.86912 0.20575 0.02322 0.0
H1051 H 0.95427 0.06666 0.86739 0.0
H1052 H 0.83237 0.28148 0.918 0.0
H1053 H 0.98384 0.18434 0.80745 0.0
H1054 H 0.90157 0.10437 0.9128 0.0
H1055 H 0.90497 0.15617 0.97245 0.0
C1056 C 0.86808 0.2115 0.98938 0.0
C1057 C 0.84781 0.24757 0.97465 0.0
C1058 C 0.91919 0.12172 0.88927 0.0
C1059 C 0.88837 0.19134 0.9167 0.0
C1060 C 0.94862 0.10017 0.86297 0.0
C1061 C 0.97312 0.12262 0.83377 0.0
C1062 C 0.91426 0.16583 0.88593 0.0
C1063 C 0.96535 0.1661 0.82961 0.0
C1064 C 0.88814 0.18309 0.96044 0.0
C1065 C 0.84748 0.25384 0.93056 0.0
N1066 N 0.93659 0.18642 0.8556 0.0
N1067 N 0.86821 0.22641 0.90316 0.0
H1068 H 0.9654 0.47811 0.14314 0.0
H1069 H 0.13191 0.4357 0.01527 0.0
H1070 H 0.98816 0.35708 0.1983 0.0
H1071 H 0.18604 0.44801 0.14205 0.0
H1072 H 0.06774 0.40327 0.04468 0.0
H1073 H 0.03241 0.471 0.10366 0.0
C1074 C 0.98382 0.44962 0.14614 0.0
C1075 C 0.97037 0.41773 0.17308 0.0
C1076 C 0.0946 0.41086 0.06572 0.0
C1077 C 0.04773 0.41006 0.12932 0.0
C1078 C 0.13154 0.42886 0.04889 0.0
C1079 C 0.16353 0.44561 0.0766 0.0
C1080 C 0.09048 0.40916 0.11019 0.0
C1081 C 0.16144 0.43611 0.11993 0.0
C1082 C 0.02211 0.44568 0.12385 0.0
C1083 C -0.00304 0.38225 0.17739 0.0
N1084 N 0.12455 0.41986 0.13586 0.0
N1085 N 0.03495 0.3797 0.15625 0.0
H1086 H 0.8031 0.78634 0.40679 0.0
H1087 H 0.60041 0.83708 0.26239 0.0
H1088 H 0.68419 0.71459 0.40276 0.0
H1089 H 0.68721 0.93519 0.3124 0.0
H1090 H 0.64718 0.78292 0.29033 0.0
H1091 H 0.77443 0.83271 0.35268 0.0
C1092 C 0.77145 0.77964 0.39363 0.0
C1093 C 0.74576 0.74682 0.4094 0.0
C1094 C 0.65678 0.81622 0.29393 0.0
C1095 C 0.71369 0.79851 0.34652 0.0
C1096 C 0.6305 0.84707 0.27734 0.0
C1097 C 0.63999 0.8906 0.28518 0.0
C1098 C 0.69275 0.82903 0.31857 0.0
C1099 C 0.67893 0.90192 0.30551 0.0
C1100 C 0.75523 0.80602 0.36275 0.0
C1101 C 0.70486 0.73975 0.39165 0.0
N1102 N 0.70352 0.87133 0.32238 0.0
N1103 N 0.69011 0.76534 0.36116 0.0
H1104 H 0.90145 0.56904 0.61092 0.0
H1105 H -0.00196 0.37436 0.57324 0.0
H1106 H 0.87046 0.56354 0.4762 0.0
H1107 H 0.90361 0.36004 0.4726 0.0
H1108 H 0.9865 0.45156 0.57665 0.0
H1109 H 0.93664 0.50058 0.60155 0.0
C1110 C 0.90276 0.55383 0.57915 0.0
C1111 C 0.88272 0.57204 0.54434 0.0
C1112 C 0.96839 0.43152 0.55376 0.0
C1113 C 0.92279 0.49323 0.53342 0.0
C1114 C 0.97562 0.38767 0.5512 0.0
C1115 C 0.95135 0.36097 0.52292 0.0
C1116 C 0.93671 0.44852 0.52778 0.0
C1117 C 0.92257 0.37966 0.49514 0.0
C1118 C 0.92316 0.51474 0.57378 0.0
C1119 C 0.88539 0.55074 0.50398 0.0
N1120 N 0.91575 0.42232 0.49852 0.0
N1121 N 0.90416 0.51197 0.49987 0.0
H1122 H 0.42408 0.96204 0.45639 0.0
H1123 H 0.39533 0.16931 0.58259 0.0
H1124 H 0.34813 0.96101 0.57127 0.0
H1125 H 0.51535 0.13998 0.52094 0.0
H1126 H 0.38182 0.09287 0.58945 0.0
H1127 H 0.46163 0.02584 0.48486 0.0
C1128 C 0.41596 0.97479 0.48802 0.0
C1129 C 0.38336 0.95599 0.51166 0.0
C1130 C 0.41198 0.10329 0.57616 0.0
C1131 C 0.42453 0.03037 0.54361 0.0
C1132 C 0.41992 0.14692 0.57273 0.0
C1133 C 0.45602 0.16078 0.55032 0.0
C1134 C 0.43991 0.07393 0.55615 0.0
C1135 C 0.48687 0.13056 0.53802 0.0
C1136 C 0.43737 0.01123 0.50433 0.0
C1137 C 0.37326 0.97447 0.55207 0.0
N1138 N 0.47738 0.08835 0.53956 0.0
N1139 N 0.39291 0.01147 0.56626 0.0
H1140 H 0.27751 0.17446 0.74848 0.0
H1141 H 0.17976 0.23851 0.52889 0.0
H1142 H 0.32332 0.1363 0.62265 0.0
H1143 H 0.11064 0.23817 0.64781 0.0
H1144 H 0.24713 0.23472 0.56843 0.0
H1145 H 0.23296 0.22828 0.71661 0.0
C1146 C 0.2793 0.1783 0.71431 0.0
C1147 C 0.30312 0.15001 0.68791 0.0
C1148 C 0.21737 0.23709 0.58606 0.0
C1149 C 0.25253 0.21144 0.65155 0.0
C1150 C 0.17898 0.23957 0.56354 0.0
C1151 C 0.13978 0.23759 0.5852 0.0
C1152 C 0.21627 0.2319 0.63035 0.0
C1153 C 0.14032 0.23919 0.63001 0.0
C1154 C 0.25381 0.20899 0.6962 0.0
C1155 C 0.30463 0.15675 0.64401 0.0
N1156 N 0.17802 0.23495 0.65117 0.0
N1157 N 0.27902 0.18627 0.6271 0.0
H1158 H 0.14031 0.09774 0.05887 0.0
H1159 H 0.0827 0.85103 0.04842 0.0
H1160 H 0.20024 0.00982 0.14091 0.0
H1161 H 0.00664 0.9454 0.98903 0.0
H1162 H 0.12065 0.90838 0.08976 0.0
H1163 H 0.08689 0.04266 0.03791 0.0
C1164 C 0.14174 0.06696 0.07275 0.0
C1165 C 0.17458 0.05831 0.10137 0.0
C1166 C 0.09494 0.91649 0.06845 0.0
C1167 C 0.11447 0.99469 0.07712 0.0
C1168 C 0.07289 0.88373 0.04536 0.0
C1169 C 0.04187 0.89367 0.01507 0.0
C1170 C 0.08606 0.95925 0.06063 0.0
C1171 C 0.0307 0.93655 0.01184 0.0
C1172 C 0.11142 0.03551 0.06086 0.0
C1173 C 0.17528 0.01786 0.11875 0.0
N1174 N 0.05336 0.9678 0.03363 0.0
N1175 N 0.14605 0.98728 0.10585 0.0
H1176 H 0.68094 0.35375 0.61294 0.0
H1177 H 0.89156 0.22904 0.63116 0.0
H1178 H 0.72669 0.30834 0.73229 0.0
H1179 H 0.82925 0.24939 0.5111 0.0
H1180 H 0.82325 0.24 0.66783 0.0
H1181 H 0.72476 0.3008 0.57442 0.0
C1182 C 0.69962 0.33202 0.631 0.0
C1183 C 0.70104 0.33614 0.67577 0.0
C1184 C 0.82401 0.24055 0.63327 0.0
C1185 C 0.75223 0.27601 0.63204 0.0
C1186 C 0.86302 0.23368 0.61227 0.0
C1187 C 0.86613 0.23916 0.56818 0.0
C1188 C 0.7883 0.25363 0.60995 0.0
C1189 C 0.82821 0.24553 0.54528 0.0
C1190 C 0.72463 0.30165 0.60904 0.0
C1191 C 0.72519 0.30669 0.69769 0.0
N1192 N 0.79113 0.25391 0.56654 0.0
N1193 N 0.75074 0.27862 0.67563 0.0
H1194 H 0.67783 0.43381 0.04855 0.0
H1195 H 0.52376 0.58023 0.03133 0.0
H1196 H 0.70172 0.44273 0.91333 0.0
H1197 H 0.61245 0.628 0.93916 0.0
H1198 H 0.55221 0.50843 0.01743 0.0
H1199 H 0.62054 0.48507 0.04321 0.0
C1200 C 0.67027 0.44558 0.01748 0.0
C1201 C 0.69493 0.43422 0.98142 0.0
C1202 C 0.56468 0.53453 -0.00035 0.0
C1203 C 0.62804 0.49165 0.97485 0.0
C1204 C 0.54784 0.5752 0.00679 0.0
C1205 C 0.56647 0.60989 0.98684 0.0
C1206 C 0.60048 0.52916 0.97294 0.0
C1207 C 0.59773 0.60189 0.95547 0.0
C1208 C 0.63701 0.47434 0.01434 0.0
C1209 C 0.68375 0.45085 0.94205 0.0
N1210 N 0.61476 0.56246 0.95036 0.0
N1211 N 0.65159 0.47943 0.93997 0.0
H1212 H 0.23119 0.90246 0.71754 0.0
H1213 H 0.09322 0.7973 0.85227 0.0
H1214 H 0.18614 0.01109 0.79345 0.0
H1215 H 0.02382 0.91521 0.86153 0.0
H1216 H 0.13947 0.82743 0.7981 0.0
H1217 H 0.16816 0.86128 0.73962 0.0
C1218 C 0.20781 0.91776 0.73844 0.0
C1219 C 0.21418 0.96002 0.7544 0.0
C1220 C 0.11313 0.84618 0.81069 0.0
C1221 C 0.14268 0.91326 0.77988 0.0
C1222 C 0.08659 0.82887 0.84158 0.0
C1223 C 0.0553 0.85418 0.86199 0.0
C1224 C 0.10838 0.88913 0.80085 0.0
C1225 C 0.04829 0.89501 0.84726 0.0
C1226 C 0.17206 0.89417 0.75121 0.0
C1227 C 0.18273 0.97848 0.78085 0.0
N1228 N 0.07556 0.91168 0.81868 0.0
N1229 N 0.14854 0.95491 0.79297 0.0
H1230 H 0.22705 0.12139 0.28302 0.0
H1231 H 0.4532 0.18344 0.38501 0.0
H1232 H 0.32032 0.0261 0.31011 0.0
H1233 H 0.33788 0.22792 0.44697 0.0
H1234 H 0.40931 0.14193 0.3323 0.0
H1235 H 0.27299 0.17593 0.31992 0.0
C1236 C 0.25748 0.11209 0.29611 0.0
C1237 C 0.2699 0.06919 0.29395 0.0
C1238 C 0.39377 0.16186 0.35671 0.0
C1239 C 0.32258 0.13128 0.3346 0.0
C1240 C 0.41862 0.18584 0.38638 0.0
C1241 C 0.39892 0.20926 0.42003 0.0
C1242 C 0.34907 0.16208 0.36032 0.0
C1243 C 0.35405 0.21048 0.42119 0.0
C1244 C 0.28345 0.14314 0.31709 0.0
C1245 C 0.30953 0.05879 0.31147 0.0
N1246 N 0.33045 0.18694 0.39177 0.0
N1247 N 0.33465 0.08971 0.33097 0.0
loop_
_geom_bond_atom_site_label_1
_geom_bond_atom_site_label_2
_geom_bond_distance
_geom_bond_site_symmetry_2
_ccdc_geom_bond_type
C0 O1 1.306 . S
C0 O3 1.160 . S
O1 C0 1.306 . S
O1 Cd2 2.228 . S
Cd2 O1 2.228 . S
Cd2 O6 2.273 . S
Cd2 O10 2.277 1_455 S
O3 C0 1.160 . S
O3 Cd4 2.203 1_455 S
Cd4 O3 2.203 1_655 S
Cd4 O6 2.411 1_655 S
Cd4 O7 2.333 . S
Cd4 O8 2.352 1_655 S
Cd4 O12 2.277 . S
Cd4 O13 2.356 . S
C5 O10 1.209 . S
C5 O12 1.226 . S
O6 Cd2 2.273 . S
O6 Cd4 2.411 1_455 S
O6 C9 1.320 . S
O7 Cd4 2.333 . S
O7 C9 1.214 1_655 S
O8 Cd4 2.352 1_455 S
O8 C11 1.258 1_455 S
C9 O6 1.320 . S
C9 O7 1.214 1_455 S
O10 Cd2 2.277 1_655 S
O10 C5 1.209 . S
C11 O8 1.258 1_655 S
C11 O13 1.282 . S
O12 Cd4 2.277 . S
O12 C5 1.226 . S
O13 Cd4 2.356 . S
O13 C11 1.282 . S
C14 O15 1.306 . S
C14 O17 1.160 . S
O15 C14 1.306 . S
O15 Cd16 2.228 . S
Cd16 O15 2.228 . S
Cd16 O20 2.273 . S
Cd16 O24 2.277 1_455 S
O17 C14 1.160 . S
O17 Cd18 2.203 1_455 S
Cd18 O17 2.203 1_655 S
Cd18 O20 2.411 1_655 S
Cd18 O21 2.333 . S
Cd18 O22 2.352 1_655 S
Cd18 O26 2.277 . S
Cd18 O27 2.356 . S
C19 O24 1.209 . S
C19 O26 1.226 . S
O20 Cd16 2.273 . S
O20 Cd18 2.411 1_455 S
O20 C23 1.320 . S
O21 Cd18 2.333 . S
O21 C23 1.214 1_655 S
O22 Cd18 2.352 1_455 S
O22 C25 1.258 1_455 S
C23 O20 1.320 . S
C23 O21 1.214 1_455 S
O24 Cd16 2.277 1_655 S
O24 C19 1.209 . S
C25 O22 1.258 1_655 S
C25 O27 1.282 . S
O26 Cd18 2.277 . S
O26 C19 1.226 . S
O27 Cd18 2.356 . S
O27 C25 1.282 . S
C28 O29 1.306 . S
C28 O31 1.160 . S
O29 C28 1.306 . S
O29 Cd30 2.228 . S
Cd30 O29 2.228 . S
Cd30 O34 2.273 . S
Cd30 O38 2.277 . S
O31 C28 1.160 . S
O31 Cd32 2.203 . S
Cd32 O31 2.203 . S
Cd32 O34 2.411 . S
Cd32 O35 2.333 . S
Cd32 O36 2.352 . S
Cd32 O40 2.277 . S
Cd32 O41 2.356 . S
C33 O38 1.209 . S
C33 O40 1.226 . S
O34 Cd30 2.273 . S
O34 Cd32 2.411 . S
O34 C37 1.320 . S
O35 Cd32 2.333 . S
O35 C37 1.214 . S
O36 Cd32 2.352 . S
O36 C39 1.258 . S
C37 O34 1.320 . S
C37 O35 1.214 . S
O38 Cd30 2.277 . S
O38 C33 1.209 . S
C39 O36 1.258 . S
C39 O41 1.282 . S
O40 Cd32 2.277 . S
O40 C33 1.226 . S
O41 Cd32 2.356 . S
O41 C39 1.282 . S
C42 O43 1.306 . S
C42 O45 1.160 . S
O43 C42 1.306 . S
O43 Cd44 2.228 . S
Cd44 O43 2.228 . S
Cd44 O48 2.273 . S
Cd44 O52 2.277 . S
O45 C42 1.160 . S
O45 Cd46 2.203 . S
Cd46 O45 2.203 . S
Cd46 O48 2.411 . S
Cd46 O49 2.333 . S
Cd46 O50 2.352 . S
Cd46 O54 2.277 . S
Cd46 O55 2.356 . S
C47 O52 1.209 . S
C47 O54 1.226 . S
O48 Cd44 2.273 . S
O48 Cd46 2.411 . S
O48 C51 1.320 . S
O49 Cd46 2.333 . S
O49 C51 1.214 . S
O50 Cd46 2.352 . S
O50 C53 1.258 . S
C51 O48 1.320 . S
C51 O49 1.214 . S
O52 Cd44 2.277 . S
O52 C47 1.209 . S
C53 O50 1.258 . S
C53 O55 1.282 . S
O54 Cd46 2.277 . S
O54 C47 1.226 . S
O55 Cd46 2.356 . S
O55 C53 1.282 . S
C56 O57 1.306 . S
C56 O59 1.160 1_545 S
O57 C56 1.306 . S
O57 Cd58 2.228 . S
Cd58 O57 2.228 . S
Cd58 O62 2.273 . S
Cd58 O66 2.277 . S
O59 C56 1.160 1_565 S
O59 Cd60 2.203 . S
Cd60 O59 2.203 . S
Cd60 O62 2.411 1_565 S
Cd60 O63 2.333 1_565 S
Cd60 O64 2.352 . S
Cd60 O68 2.277 . S
Cd60 O69 2.356 . S
C61 O66 1.209 . S
C61 O68 1.226 1_545 S
O62 Cd58 2.273 . S
O62 Cd60 2.411 1_545 S
O62 C65 1.320 . S
O63 Cd60 2.333 1_545 S
O63 C65 1.214 . S
O64 Cd60 2.352 . S
O64 C67 1.258 . S
C65 O62 1.320 . S
C65 O63 1.214 . S
O66 Cd58 2.277 . S
O66 C61 1.209 . S
C67 O64 1.258 . S
C67 O69 1.282 . S
O68 Cd60 2.277 . S
O68 C61 1.226 1_565 S
O69 Cd60 2.356 . S
O69 C67 1.282 . S
C70 O71 1.306 . S
C70 O73 1.160 . S
O71 C70 1.306 . S
O71 Cd72 2.228 . S
Cd72 O71 2.228 . S
Cd72 O76 2.273 . S
Cd72 O80 2.277 . S
O73 C70 1.160 . S
O73 Cd74 2.203 . S
Cd74 O73 2.203 . S
Cd74 O76 2.411 . S
Cd74 O77 2.333 . S
Cd74 O78 2.352 . S
Cd74 O82 2.277 . S
Cd74 O83 2.356 . S
C75 O80 1.209 . S
C75 O82 1.226 . S
O76 Cd72 2.273 . S
O76 Cd74 2.411 . S
O76 C79 1.320 . S
O77 Cd74 2.333 . S
O77 C79 1.214 . S
O78 Cd74 2.352 . S
O78 C81 1.258 . S
C79 O76 1.320 . S
C79 O77 1.214 . S
O80 Cd72 2.277 . S
O80 C75 1.209 . S
C81 O78 1.258 . S
C81 O83 1.282 . S
O82 Cd74 2.277 . S
O82 C75 1.226 . S
O83 Cd74 2.356 . S
O83 C81 1.282 . S
C84 O85 1.306 . S
C84 O87 1.160 1_565 S
O85 C84 1.306 . S
O85 Cd86 2.228 . S
Cd86 O85 2.228 . S
Cd86 O90 2.273 . S
Cd86 O94 2.277 . S
O87 C84 1.160 1_545 S
O87 Cd88 2.203 . S
Cd88 O87 2.203 . S
Cd88 O90 2.411 1_545 S
Cd88 O91 2.333 1_545 S
Cd88 O92 2.352 . S
Cd88 O96 2.277 . S
Cd88 O97 2.356 . S
C89 O94 1.209 1_545 S
C89 O96 1.226 . S
O90 Cd86 2.273 . S
O90 Cd88 2.411 1_565 S
O90 C93 1.320 . S
O91 Cd88 2.333 1_565 S
O91 C93 1.214 . S
O92 Cd88 2.352 . S
O92 C95 1.258 . S
C93 O90 1.320 . S
C93 O91 1.214 . S
O94 Cd86 2.277 . S
O94 C89 1.209 1_565 S
C95 O92 1.258 . S
C95 O97 1.282 . S
O96 Cd88 2.277 . S
O96 C89 1.226 . S
O97 Cd88 2.356 . S
O97 C95 1.282 . S
C98 O99 1.306 . S
C98 O101 1.160 1_554 S
O99 C98 1.306 . S
O99 Cd100 2.228 . S
Cd100 O99 2.228 . S
Cd100 O104 2.273 . S
Cd100 O108 2.277 . S
O101 C98 1.160 1_556 S
O101 Cd102 2.203 . S
Cd102 O101 2.203 . S
Cd102 O104 2.411 1_556 S
Cd102 O105 2.333 1_556 S
Cd102 O106 2.352 . S
Cd102 O110 2.277 . S
Cd102 O111 2.356 . S
C103 O108 1.209 1_556 S
C103 O110 1.226 . S
O104 Cd100 2.273 . S
O104 Cd102 2.411 1_554 S
O104 C107 1.320 . S
O105 Cd102 2.333 1_554 S
O105 C107 1.214 . S
O106 Cd102 2.352 . S
O106 C109 1.258 . S
C107 O104 1.320 . S
C107 O105 1.214 . S
O108 Cd100 2.277 . S
O108 C103 1.209 1_554 S
C109 O106 1.258 . S
C109 O111 1.282 . S
O110 Cd102 2.277 . S
O110 C103 1.226 . S
O111 Cd102 2.356 . S
O111 C109 1.282 . S
C112 O113 1.306 1_554 S
C112 O115 1.160 . S
O113 C112 1.306 1_556 S
O113 Cd114 2.228 . S
Cd114 O113 2.228 . S
Cd114 O118 2.273 . S
Cd114 O122 2.277 . S
O115 C112 1.160 . S
O115 Cd116 2.203 . S
Cd116 O115 2.203 . S
Cd116 O118 2.411 1_554 S
Cd116 O119 2.338 . S
Cd116 O120 2.352 . S
Cd116 O124 2.277 . S
Cd116 O125 2.356 . S
C117 O122 1.209 1_554 S
C117 O124 1.226 . S
O118 Cd114 2.273 . S
O118 Cd116 2.411 1_556 S
O118 C121 1.320 . S
O119 Cd116 2.338 . S
O119 C121 1.202 1_554 S
O120 Cd116 2.352 . S
O120 C123 1.258 . S
C121 O118 1.320 . S
C121 O119 1.202 1_556 S
O122 Cd114 2.277 . S
O122 C117 1.209 1_556 S
C123 O120 1.258 . S
C123 O125 1.282 . S
O124 Cd116 2.277 . S
O124 C117 1.226 . S
O125 Cd116 2.356 . S
O125 C123 1.282 . S
C126 O127 1.306 . S
C126 O129 1.160 . S
O127 C126 1.306 . S
O127 Cd128 2.228 . S
Cd128 O127 2.228 . S
Cd128 O132 2.273 . S
Cd128 O136 2.277 . S
O129 C126 1.160 . S
O129 Cd130 2.203 . S
Cd130 O129 2.203 . S
Cd130 O132 2.411 . S
Cd130 O133 2.333 . S
Cd130 O134 2.352 . S
Cd130 O138 2.277 . S
Cd130 O139 2.356 . S
C131 O136 1.209 . S
C131 O138 1.226 . S
O132 Cd128 2.273 . S
O132 Cd130 2.411 . S
O132 C135 1.320 . S
O133 Cd130 2.333 . S
O133 C135 1.214 . S
O134 Cd130 2.352 . S
O134 C137 1.258 . S
C135 O132 1.320 . S
C135 O133 1.214 . S
O136 Cd128 2.277 . S
O136 C131 1.209 . S
C137 O134 1.258 . S
C137 O139 1.282 . S
O138 Cd130 2.277 . S
O138 C131 1.226 . S
O139 Cd130 2.356 . S
O139 C137 1.282 . S
C140 O141 1.306 . S
C140 O143 1.160 . S
O141 C140 1.306 . S
O141 Cd142 2.228 . S
Cd142 O141 2.228 . S
Cd142 O146 2.273 . S
Cd142 O150 2.277 . S
O143 C140 1.160 . S
O143 Cd144 2.203 . S
Cd144 O143 2.203 . S
Cd144 O146 2.411 . S
Cd144 O147 2.333 . S
Cd144 O148 2.352 . S
Cd144 O152 2.277 . S
Cd144 O153 2.356 . S
C145 O150 1.209 . S
C145 O152 1.226 . S
O146 Cd142 2.273 . S
O146 Cd144 2.411 . S
O146 C149 1.320 . S
O147 Cd144 2.333 . S
O147 C149 1.214 . S
O148 Cd144 2.352 . S
O148 C151 1.258 . S
C149 O146 1.320 . S
C149 O147 1.214 . S
O150 Cd142 2.277 . S
O150 C145 1.209 . S
C151 O148 1.258 . S
C151 O153 1.282 . S
O152 Cd144 2.277 . S
O152 C145 1.226 . S
O153 Cd144 2.356 . S
O153 C151 1.282 . S
C154 O155 1.306 . S
C154 O157 1.160 . S
O155 C154 1.306 . S
O155 Cd156 2.228 . S
Cd156 O155 2.228 . S
Cd156 O160 2.273 . S
Cd156 O164 2.277 . S
O157 C154 1.160 . S
O157 Cd158 2.203 . S
Cd158 O157 2.203 . S
Cd158 O160 2.411 . S
Cd158 O161 2.333 . S
Cd158 O162 2.352 . S
Cd158 O166 2.277 . S
Cd158 O167 2.356 . S
C159 O164 1.209 . S
C159 O166 1.226 . S
O160 Cd156 2.273 . S
O160 Cd158 2.411 . S
O160 C163 1.320 . S
O161 Cd158 2.333 . S
O161 C163 1.214 . S
O162 Cd158 2.352 . S
O162 C165 1.258 . S
C163 O160 1.320 . S
C163 O161 1.214 . S
O164 Cd156 2.277 . S
O164 C159 1.209 . S
C165 O162 1.258 . S
C165 O167 1.282 . S
O166 Cd158 2.277 . S
O166 C159 1.226 . S
O167 Cd158 2.356 . S
O167 C165 1.282 . S
H168 C174 0.930 . S
H169 C177 0.931 . S
H170 C179 0.931 1_455 S
H171 C181 0.930 . S
H172 C183 0.930 . S
H173 C185 0.931 . S
C174 H168 0.930 . S
C174 C175 1.380 . S
C174 C176 1.394 . S
C175 C174 1.380 . S
C175 C179 1.382 . S
C176 C174 1.394 . S
C176 C177 1.400 . S
C177 H169 0.931 . S
C177 C176 1.400 . S
C177 C178 1.380 . S
C178 C177 1.380 . S
C178 C179 1.417 . S
C178 C180 1.493 1_655 S
C179 H170 0.931 1_655 S
C179 C175 1.382 . S
C179 C178 1.417 . S
C180 C178 1.493 1_455 S
C180 C181 1.384 . S
C180 C185 1.408 . S
C181 H171 0.930 . S
C181 C180 1.384 . S
C181 C182 1.389 . S
C182 C181 1.389 . S
C182 C183 1.405 . S
C183 H172 0.930 . S
C183 C182 1.405 . S
C183 C184 1.364 . S
C184 C183 1.364 . S
C184 C185 1.400 . S
C185 H173 0.931 . S
C185 C180 1.408 . S
C185 C184 1.400 . S
H186 C192 0.930 . S
H187 C195 0.931 1_455 S
H188 C197 0.931 . S
H189 C199 0.930 . S
H190 C201 0.930 . S
H191 C203 0.931 . S
C192 H186 0.930 . S
C192 C193 1.380 . S
C192 C194 1.394 1_556 S
C193 C192 1.380 . S
C193 C197 1.382 . S
C194 C192 1.394 1_554 S
C194 C195 1.400 . S
C195 H187 0.931 1_655 S
C195 C194 1.400 . S
C195 C196 1.375 1_654 S
C196 C195 1.375 1_456 S
C196 C197 1.415 1_455 S
C196 C198 1.501 . S
C197 H188 0.931 . S
C197 C193 1.382 . S
C197 C196 1.415 1_655 S
C198 C196 1.501 . S
C198 C199 1.384 . S
C198 C203 1.408 1_556 S
C199 H189 0.930 . S
C199 C198 1.384 . S
C199 C200 1.389 . S
C200 C199 1.389 . S
C200 C201 1.405 . S
C201 H190 0.930 . S
C201 C200 1.405 . S
C201 C202 1.348 1_556 S
C202 C201 1.348 1_554 S
C202 C203 1.402 . S
C203 H191 0.931 . S
C203 C198 1.408 1_554 S
C203 C202 1.402 . S
H204 C210 0.930 . S
H205 C213 0.931 . S
H206 C215 0.931 1_556 S
H207 C217 0.930 1_556 S
H208 C219 0.930 . S
H209 C221 0.931 . S
C210 H204 0.930 . S
C210 C211 1.380 . S
C210 C212 1.394 . S
C211 C210 1.380 . S
C211 C215 1.382 . S
C212 C210 1.394 . S
C212 C213 1.400 . S
C213 H205 0.931 . S
C213 C212 1.400 . S
C213 C214 1.375 . S
C214 C213 1.375 . S
C214 C215 1.415 . S
C214 C216 1.501 . S
C215 H206 0.931 1_554 S
C215 C211 1.382 . S
C215 C214 1.415 . S
C216 C214 1.501 . S
C216 C217 1.384 . S
C216 C221 1.408 . S
C217 H207 0.930 1_554 S
C217 C216 1.384 . S
C217 C218 1.389 . S
C218 C217 1.389 . S
C218 C219 1.405 . S
C219 H208 0.930 . S
C219 C218 1.405 . S
C219 C220 1.364 . S
C220 C219 1.364 . S
C220 C221 1.400 . S
C221 H209 0.931 . S
C221 C216 1.408 . S
C221 C220 1.400 . S
H222 C228 0.930 . S
H223 C231 0.931 . S
H224 C233 0.931 . S
H225 C235 0.930 . S
H226 C237 0.930 . S
H227 C239 0.931 . S
C228 H222 0.930 . S
C228 C229 1.380 . S
C228 C230 1.394 . S
C229 C228 1.380 . S
C229 C233 1.382 . S
C230 C228 1.394 . S
C230 C231 1.400 . S
C231 H223 0.931 . S
C231 C230 1.400 . S
C231 C232 1.375 . S
C232 C231 1.375 . S
C232 C233 1.415 . S
C232 C234 1.501 . S
C233 H224 0.931 . S
C233 C229 1.382 . S
C233 C232 1.415 . S
C234 C232 1.501 . S
C234 C235 1.384 . S
C234 C239 1.408 . S
C235 H225 0.930 . S
C235 C234 1.384 . S
C235 C236 1.389 . S
C236 C235 1.389 . S
C236 C237 1.405 . S
C237 H226 0.930 . S
C237 C236 1.405 . S
C237 C238 1.364 . S
C238 C237 1.364 . S
C238 C239 1.400 . S
C239 H227 0.931 . S
C239 C234 1.408 . S
C239 C238 1.400 . S
H240 C246 0.930 . S
H241 C249 0.931 . S
H242 C251 0.931 . S
H243 C253 0.930 . S
H244 C255 0.930 . S
H245 C257 0.931 . S
C246 H240 0.930 . S
C246 C247 1.380 . S
C246 C248 1.394 . S
C247 C246 1.380 . S
C247 C251 1.382 . S
C248 C246 1.394 . S
C248 C249 1.400 . S
C249 H241 0.931 . S
C249 C248 1.400 . S
C249 C250 1.375 . S
C250 C249 1.375 . S
C250 C251 1.415 . S
C250 C252 1.501 1_565 S
C251 H242 0.931 . S
C251 C247 1.382 . S
C251 C250 1.415 . S
C252 C250 1.501 1_545 S
C252 C253 1.384 . S
C252 C257 1.408 . S
C253 H243 0.930 . S
C253 C252 1.384 . S
C253 C254 1.389 . S
C254 C253 1.389 . S
C254 C255 1.405 . S
C255 H244 0.930 . S
C255 C254 1.405 . S
C255 C256 1.364 . S
C256 C255 1.364 . S
C256 C257 1.400 . S
C257 H245 0.931 . S
C257 C252 1.408 . S
C257 C256 1.400 . S
H258 C264 0.930 . S
H259 C267 0.931 . S
H260 C269 0.931 . S
H261 C271 0.930 . S
H262 C273 0.930 . S
H263 C275 0.931 . S
C264 H258 0.930 . S
C264 C265 1.380 . S
C264 C266 1.394 . S
C265 C264 1.380 . S
C265 C269 1.382 . S
C266 C264 1.394 . S
C266 C267 1.400 . S
C267 H259 0.931 . S
C267 C266 1.400 . S
C267 C268 1.375 . S
C268 C267 1.375 . S
C268 C269 1.415 . S
C268 C270 1.501 . S
C269 H260 0.931 . S
C269 C265 1.382 . S
C269 C268 1.415 . S
C270 C268 1.501 . S
C270 C271 1.384 . S
C270 C275 1.408 . S
C271 H261 0.930 . S
C271 C270 1.384 . S
C271 C272 1.389 . S
C272 C271 1.389 . S
C272 C273 1.405 . S
C273 H262 0.930 . S
C273 C272 1.405 . S
C273 C274 1.364 . S
C274 C273 1.364 . S
C274 C275 1.400 . S
C275 H263 0.931 . S
C275 C270 1.408 . S
C275 C274 1.400 . S
H276 C282 0.930 . S
H277 C285 0.931 . S
H278 C287 0.931 . S
H279 C289 0.930 . S
H280 C291 0.930 . S
H281 C293 0.931 . S
C282 H276 0.930 . S
C282 C283 1.380 1_655 S
C282 C284 1.394 . S
C283 C282 1.380 1_455 S
C283 C287 1.382 . S
C284 C282 1.394 . S
C284 C285 1.400 . S
C285 H277 0.931 . S
C285 C284 1.400 . S
C285 C286 1.375 . S
C286 C285 1.375 . S
C286 C287 1.415 1_655 S
C286 C288 1.501 1_545 S
C287 H278 0.931 . S
C287 C283 1.382 . S
C287 C286 1.415 1_455 S
C288 C286 1.501 1_565 S
C288 C289 1.384 1_655 S
C288 C293 1.408 . S
C289 H279 0.930 . S
C289 C288 1.384 1_455 S
C289 C290 1.389 . S
C290 C289 1.389 . S
C290 C291 1.405 1_455 S
C291 H280 0.930 . S
C291 C290 1.405 1_655 S
C291 C292 1.364 . S
C292 C291 1.364 . S
C292 C293 1.400 . S
C293 H281 0.931 . S
C293 C288 1.408 . S
C293 C292 1.400 . S
H294 C300 0.930 . S
H295 C303 0.931 1_554 S
H296 C305 0.931 . S
H297 C307 0.930 . S
H298 C309 0.930 . S
H299 C311 0.931 . S
C300 H294 0.930 . S
C300 C301 1.380 . S
C300 C302 1.394 . S
C301 C300 1.380 . S
C301 C305 1.382 . S
C302 C300 1.394 . S
C302 C303 1.400 . S
C303 H295 0.931 1_556 S
C303 C302 1.400 . S
C303 C304 1.375 1_556 S
C304 C303 1.375 1_554 S
C304 C305 1.415 1_554 S
C304 C306 1.501 . S
C305 H296 0.931 . S
C305 C301 1.382 . S
C305 C304 1.415 1_556 S
C306 C304 1.501 . S
C306 C307 1.384 . S
C306 C311 1.408 . S
C307 H297 0.930 . S
C307 C306 1.384 . S
C307 C308 1.389 . S
C308 C307 1.389 . S
C308 C309 1.405 . S
C309 H298 0.930 . S
C309 C308 1.405 . S
C309 C310 1.364 . S
C310 C309 1.364 . S
C310 C311 1.400 . S
C311 H299 0.931 . S
C311 C306 1.408 . S
C311 C310 1.400 . S
H312 C318 0.930 . S
H313 C321 0.931 1_544 S
H314 C323 0.931 1_554 S
H315 C325 0.930 . S
H316 C327 0.930 . S
H317 C329 0.931 1_545 S
C318 H312 0.930 . S
C318 C319 1.380 . S
C318 C320 1.394 . S
C319 C318 1.380 . S
C319 C323 1.382 . S
C320 C318 1.394 . S
C320 C321 1.400 . S
C321 H313 0.931 1_566 S
C321 C320 1.400 . S
C321 C322 1.375 1_556 S
C322 C321 1.375 1_554 S
C322 C323 1.415 1_554 S
C322 C324 1.501 . S
C323 H314 0.931 1_556 S
C323 C319 1.382 . S
C323 C322 1.415 1_556 S
C324 C322 1.501 . S
C324 C325 1.384 . S
C324 C329 1.408 . S
C325 H315 0.930 . S
C325 C324 1.384 . S
C325 C326 1.389 . S
C326 C325 1.389 . S
C326 C327 1.405 . S
C327 H316 0.930 . S
C327 C326 1.405 . S
C327 C328 1.364 . S
C328 C327 1.364 . S
C328 C329 1.400 . S
C329 H317 0.931 1_565 S
C329 C324 1.408 . S
C329 C328 1.400 . S
H330 C336 0.930 . S
H331 C339 0.931 . S
H332 C341 0.931 . S
H333 C343 0.930 . S
H334 C345 0.930 . S
H335 C347 0.931 . S
C336 H330 0.930 . S
C336 C337 1.380 . S
C336 C338 1.394 . S
C337 C336 1.380 . S
C337 C341 1.382 . S
C338 C336 1.394 . S
C338 C339 1.400 . S
C339 H331 0.931 . S
C339 C338 1.400 . S
C339 C340 1.375 . S
C340 C339 1.375 . S
C340 C341 1.415 . S
C340 C342 1.501 . S
C341 H332 0.931 . S
C341 C337 1.382 . S
C341 C340 1.415 . S
C342 C340 1.501 . S
C342 C343 1.384 . S
C342 C347 1.408 . S
C343 H333 0.930 . S
C343 C342 1.384 . S
C343 C344 1.389 . S
C344 C343 1.389 . S
C344 C345 1.405 . S
C345 H334 0.930 . S
C345 C344 1.405 . S
C345 C346 1.364 . S
C346 C345 1.364 . S
C346 C347 1.400 . S
C347 H335 0.931 . S
C347 C342 1.408 . S
C347 C346 1.400 . S
H348 C354 0.930 . S
H349 C357 0.931 1_565 S
H350 C359 0.931 . S
H351 C361 0.930 . S
H352 C363 0.930 . S
H353 C365 0.931 1_565 S
C354 H348 0.930 . S
C354 C355 1.380 . S
C354 C356 1.394 . S
C355 C354 1.380 . S
C355 C359 1.382 . S
C356 C354 1.394 . S
C356 C357 1.400 . S
C357 H349 0.931 1_545 S
C357 C356 1.400 . S
C357 C358 1.375 . S
C358 C357 1.375 . S
C358 C359 1.415 . S
C358 C360 1.501 . S
C359 H350 0.931 . S
C359 C355 1.382 . S
C359 C358 1.415 . S
C360 C358 1.501 . S
C360 C361 1.384 . S
C360 C365 1.408 . S
C361 H351 0.930 . S
C361 C360 1.384 . S
C361 C362 1.389 . S
C362 C361 1.389 . S
C362 C363 1.405 . S
C363 H352 0.930 . S
C363 C362 1.405 . S
C363 C364 1.364 . S
C364 C363 1.364 . S
C364 C365 1.400 . S
C365 H353 0.931 1_545 S
C365 C360 1.408 . S
C365 C364 1.400 . S
H366 C372 0.930 . S
H367 C375 0.931 . S
H368 C377 0.931 . S
H369 C379 0.930 . S
H370 C381 0.930 . S
H371 C383 0.931 . S
C372 H366 0.930 . S
C372 C373 1.380 . S
C372 C374 1.394 . S
C373 C372 1.380 . S
C373 C377 1.382 . S
C374 C372 1.394 . S
C374 C375 1.400 . S
C375 H367 0.931 . S
C375 C374 1.400 . S
C375 C376 1.375 . S
C376 C375 1.375 . S
C376 C377 1.415 . S
C376 C378 1.501 . S
C377 H368 0.931 . S
C377 C373 1.382 . S
C377 C376 1.415 . S
C378 C376 1.501 . S
C378 C379 1.384 . S
C378 C383 1.408 . S
C379 H369 0.930 . S
C379 C378 1.384 . S
C379 C380 1.389 . S
C380 C379 1.389 . S
C380 C381 1.405 . S
C381 H370 0.930 . S
C381 C380 1.405 . S
C381 C382 1.364 . S
C382 C381 1.364 . S
C382 C383 1.400 . S
C383 H371 0.931 . S
C383 C378 1.408 . S
C383 C382 1.400 . S
H384 C390 0.930 . S
H385 C394 0.930 . S
H386 C399 0.929 . S
H387 C397 0.929 . S
H388 C392 0.929 . S
H389 C398 0.929 . S
C390 H384 0.930 . S
C390 C391 1.367 . S
C390 C398 1.378 1_554 S
C391 C390 1.367 . S
C391 C399 1.433 1_655 S
C392 H388 0.929 . S
C392 C394 1.378 . S
C392 C396 1.350 . S
C393 C396 1.463 . S
C393 C398 1.350 1_455 S
C393 N401 1.427 1_556 S
C394 H385 0.930 . S
C394 C392 1.378 . S
C394 C395 1.367 . S
C395 C394 1.367 . S
C395 C397 1.433 1_455 S
C396 C392 1.350 . S
C396 C393 1.463 . S
C396 N400 1.427 1_455 S
C397 H387 0.929 . S
C397 C395 1.433 1_655 S
C397 N400 1.384 . S
C398 H389 0.929 . S
C398 C390 1.378 1_556 S
C398 C393 1.350 1_655 S
C399 H386 0.929 . S
C399 C391 1.433 1_455 S
C399 N401 1.384 . S
N400 C396 1.427 1_655 S
N400 C397 1.384 . S
N401 C393 1.427 1_554 S
N401 C399 1.384 . S
H402 C408 0.930 . S
H403 C412 0.930 . S
H404 C417 0.929 . S
H405 C415 0.929 . S
H406 C410 0.929 . S
H407 C416 0.929 . S
C408 H402 0.930 . S
C408 C409 1.367 . S
C408 C416 1.378 . S
C409 C408 1.367 . S
C409 C417 1.433 . S
C410 H406 0.929 . S
C410 C412 1.378 . S
C410 C414 1.350 . S
C411 C414 1.463 . S
C411 C416 1.350 . S
C411 N419 1.427 . S
C412 H403 0.930 . S
C412 C410 1.378 . S
C412 C413 1.367 . S
C413 C412 1.367 . S
C413 C415 1.433 . S
C414 C410 1.350 . S
C414 C411 1.463 . S
C414 N418 1.427 . S
C415 H405 0.929 . S
C415 C413 1.433 . S
C415 N418 1.384 . S
C416 H407 0.929 . S
C416 C408 1.378 . S
C416 C411 1.350 . S
C417 H404 0.929 . S
C417 C409 1.433 . S
C417 N419 1.384 . S
N418 C414 1.427 . S
N418 C415 1.384 . S
N419 C411 1.427 . S
N419 C417 1.384 . S
H420 C426 0.930 . S
H421 C430 0.930 . S
H422 C435 0.929 . S
H423 C433 0.929 . S
H424 C428 0.929 . S
H425 C434 0.929 . S
C426 H420 0.930 . S
C426 C427 1.367 . S
C426 C434 1.378 . S
C427 C426 1.367 . S
C427 C435 1.433 . S
C428 H424 0.929 . S
C428 C430 1.378 . S
C428 C432 1.350 . S
C429 C432 1.463 . S
C429 C434 1.350 . S
C429 N437 1.427 . S
C430 H421 0.930 . S
C430 C428 1.378 . S
C430 C431 1.367 . S
C431 C430 1.367 . S
C431 C433 1.433 . S
C432 C428 1.350 . S
C432 C429 1.463 . S
C432 N436 1.427 . S
C433 H423 0.929 . S
C433 C431 1.433 . S
C433 N436 1.384 . S
C434 H425 0.929 . S
C434 C426 1.378 . S
C434 C429 1.350 . S
C435 H422 0.929 . S
C435 C427 1.433 . S
C435 N437 1.384 . S
N436 C432 1.427 . S
N436 C433 1.384 . S
N437 C429 1.427 . S
N437 C435 1.384 . S
H438 C444 0.930 . S
H439 C448 0.930 . S
H440 C453 0.929 . S
H441 C451 0.929 . S
H442 C446 0.929 . S
H443 C452 0.929 . S
C444 H438 0.930 . S
C444 C445 1.367 . S
C444 C452 1.378 . S
C445 C444 1.367 . S
C445 C453 1.433 . S
C446 H442 0.929 . S
C446 C448 1.378 . S
C446 C450 1.350 . S
C447 C450 1.463 . S
C447 C452 1.350 . S
C447 N455 1.427 . S
C448 H439 0.930 . S
C448 C446 1.378 . S
C448 C449 1.367 . S
C449 C448 1.367 . S
C449 C451 1.433 . S
C450 C446 1.350 . S
C450 C447 1.463 . S
C450 N454 1.427 . S
C451 H441 0.929 . S
C451 C449 1.433 . S
C451 N454 1.384 . S
C452 H443 0.929 . S
C452 C444 1.378 . S
C452 C447 1.350 . S
C453 H440 0.929 . S
C453 C445 1.433 . S
C453 N455 1.384 . S
N454 C450 1.427 . S
N454 C451 1.384 . S
N455 C447 1.427 . S
N455 C453 1.384 . S
H456 C462 0.930 . S
H457 C466 0.930 . S
H458 C471 0.929 . S
H459 C469 0.929 . S
H460 C464 0.929 . S
H461 C470 0.929 . S
C462 H456 0.930 . S
C462 C463 1.367 1_455 S
C462 C470 1.378 . S
C463 C462 1.367 1_655 S
C463 C471 1.433 . S
C464 H460 0.929 . S
C464 C466 1.378 . S
C464 C468 1.350 1_655 S
C465 C468 1.463 . S
C465 C470 1.350 . S
C465 N473 1.427 1_455 S
C466 H457 0.930 . S
C466 C464 1.378 . S
C466 C467 1.367 1_655 S
C467 C466 1.367 1_455 S
C467 C469 1.433 . S
C468 C464 1.350 1_455 S
C468 C465 1.463 . S
C468 N472 1.427 . S
C469 H459 0.929 . S
C469 C467 1.433 . S
C469 N472 1.384 . S
C470 H461 0.929 . S
C470 C462 1.378 . S
C470 C465 1.350 . S
C471 H458 0.929 . S
C471 C463 1.433 . S
C471 N473 1.384 . S
N472 C468 1.427 . S
N472 C469 1.384 . S
N473 C465 1.427 1_655 S
N473 C471 1.384 . S
H474 C480 0.930 . S
H475 C484 0.930 . S
H476 C489 0.929 . S
H477 C487 0.929 . S
H478 C482 0.929 . S
H479 C488 0.929 . S
C480 H474 0.930 . S
C480 C481 1.367 . S
C480 C488 1.378 . S
C481 C480 1.367 . S
C481 C489 1.433 . S
C482 H478 0.929 . S
C482 C484 1.378 . S
C482 C486 1.350 . S
C483 C486 1.463 . S
C483 C488 1.350 . S
C483 N491 1.427 . S
C484 H475 0.930 . S
C484 C482 1.378 . S
C484 C485 1.367 . S
C485 C484 1.367 . S
C485 C487 1.433 . S
C486 C482 1.350 . S
C486 C483 1.463 . S
C486 N490 1.427 . S
C487 H477 0.929 . S
C487 C485 1.433 . S
C487 N490 1.384 . S
C488 H479 0.929 . S
C488 C480 1.378 . S
C488 C483 1.350 . S
C489 H476 0.929 . S
C489 C481 1.433 . S
C489 N491 1.384 . S
N490 C486 1.427 . S
N490 C487 1.384 . S
N491 C483 1.427 . S
N491 C489 1.384 . S
H492 C498 0.930 1_556 S
H493 C502 0.930 . S
H494 C507 0.929 . S
H495 C505 0.929 . S
H496 C500 0.929 . S
H497 C506 0.929 . S
C498 H492 0.930 1_554 S
C498 C499 1.367 1_554 S
C498 C506 1.378 . S
C499 C498 1.367 1_556 S
C499 C507 1.433 . S
C500 H496 0.929 . S
C500 C502 1.378 . S
C500 C504 1.350 . S
C501 C504 1.463 . S
C501 C506 1.350 . S
C501 N509 1.427 . S
C502 H493 0.930 . S
C502 C500 1.378 . S
C502 C503 1.367 . S
C503 C502 1.367 . S
C503 C505 1.433 . S
C504 C500 1.350 . S
C504 C501 1.463 . S
C504 N508 1.427 . S
C505 H495 0.929 . S
C505 C503 1.433 . S
C505 N508 1.384 . S
C506 H497 0.929 . S
C506 C498 1.378 . S
C506 C501 1.350 . S
C507 H494 0.929 . S
C507 C499 1.433 . S
C507 N509 1.384 1_556 S
N508 C504 1.427 . S
N508 C505 1.384 . S
N509 C501 1.427 . S
N509 C507 1.384 1_554 S
H510 C516 0.930 . S
H511 C520 0.930 . S
H512 C525 0.929 . S
H513 C523 0.929 . S
H514 C518 0.929 . S
H515 C524 0.929 . S
C516 H510 0.930 . S
C516 C517 1.367 . S
C516 C524 1.378 . S
C517 C516 1.367 . S
C517 C525 1.433 . S
C518 H514 0.929 . S
C518 C520 1.378 . S
C518 C522 1.350 . S
C519 C522 1.463 . S
C519 C524 1.350 . S
C519 N527 1.427 . S
C520 H511 0.930 . S
C520 C518 1.378 . S
C520 C521 1.367 . S
C521 C520 1.367 . S
C521 C523 1.433 . S
C522 C518 1.350 . S
C522 C519 1.463 . S
C522 N526 1.427 . S
C523 H513 0.929 . S
C523 C521 1.433 . S
C523 N526 1.384 . S
C524 H515 0.929 . S
C524 C516 1.378 . S
C524 C519 1.350 . S
C525 H512 0.929 . S
C525 C517 1.433 . S
C525 N527 1.384 . S
N526 C522 1.427 . S
N526 C523 1.384 . S
N527 C519 1.427 . S
N527 C525 1.384 . S
H528 C534 0.930 . S
H529 C538 0.930 . S
H530 C543 0.929 . S
H531 C541 0.929 . S
H532 C536 0.929 . S
H533 C542 0.929 . S
C534 H528 0.930 . S
C534 C535 1.367 1_565 S
C534 C542 1.378 . S
C535 C534 1.367 1_545 S
C535 C543 1.433 . S
C536 H532 0.929 . S
C536 C538 1.378 . S
C536 C540 1.350 . S
C537 C540 1.463 . S
C537 C542 1.350 1_645 S
C537 N545 1.424 1_655 S
C538 H529 0.930 . S
C538 C536 1.378 . S
C538 C539 1.367 . S
C539 C538 1.367 . S
C539 C541 1.433 1_545 S
C540 C536 1.350 . S
C540 C537 1.463 . S
C540 N544 1.427 1_545 S
C541 H531 0.929 . S
C541 C539 1.433 1_565 S
C541 N544 1.384 . S
C542 H533 0.929 . S
C542 C534 1.378 . S
C542 C537 1.350 1_465 S
C543 H530 0.929 . S
C543 C535 1.433 . S
C543 N545 1.395 . S
N544 C540 1.427 1_565 S
N544 C541 1.384 . S
N545 C537 1.424 1_455 S
N545 C543 1.395 . S
H546 C552 0.930 . S
H547 C556 0.930 . S
H548 C561 0.929 . S
H549 C559 0.929 . S
H550 C554 0.929 . S
H551 C560 0.929 . S
C552 H546 0.930 . S
C552 C553 1.367 . S
C552 C560 1.378 . S
C553 C552 1.367 . S
C553 C561 1.433 . S
C554 H550 0.929 . S
C554 C556 1.378 . S
C554 C558 1.350 . S
C555 C558 1.463 . S
C555 C560 1.350 . S
C555 N563 1.427 . S
C556 H547 0.930 . S
C556 C554 1.378 . S
C556 C557 1.367 . S
C557 C556 1.367 . S
C557 C559 1.433 . S
C558 C554 1.350 . S
C558 C555 1.463 . S
C558 N562 1.427 . S
C559 H549 0.929 . S
C559 C557 1.433 . S
C559 N562 1.384 . S
C560 H551 0.929 . S
C560 C552 1.378 . S
C560 C555 1.350 . S
C561 H548 0.929 . S
C561 C553 1.433 . S
C561 N563 1.384 . S
N562 C558 1.427 . S
N562 C559 1.384 . S
N563 C555 1.427 . S
N563 C561 1.384 . S
H564 C570 0.930 . S
H565 C574 0.930 . S
H566 C579 0.929 . S
H567 C577 0.929 . S
H568 C572 0.929 . S
H569 C578 0.929 . S
C570 H564 0.930 . S
C570 C571 1.367 1_565 S
C570 C578 1.378 . S
C571 C570 1.367 1_545 S
C571 C579 1.433 . S
C572 H568 0.929 . S
C572 C574 1.378 . S
C572 C576 1.350 . S
C573 C576 1.463 . S
C573 C578 1.350 1_545 S
C573 N581 1.427 . S
C574 H565 0.930 . S
C574 C572 1.378 . S
C574 C575 1.367 . S
C575 C574 1.367 . S
C575 C577 1.433 1_545 S
C576 C572 1.350 . S
C576 C573 1.463 . S
C576 N580 1.427 1_545 S
C577 H567 0.929 . S
C577 C575 1.433 1_565 S
C577 N580 1.384 . S
C578 H569 0.929 . S
C578 C570 1.378 . S
C578 C573 1.350 1_565 S
C579 H566 0.929 . S
C579 C571 1.433 . S
C579 N581 1.384 . S
N580 C576 1.427 1_565 S
N580 C577 1.384 . S
N581 C573 1.427 . S
N581 C579 1.384 . S
H582 C588 0.930 . S
H583 C592 0.930 . S
H584 C597 0.929 . S
H585 C595 0.929 . S
H586 C590 0.929 . S
H587 C596 0.929 . S
C588 H582 0.930 . S
C588 C589 1.367 . S
C588 C596 1.378 . S
C589 C588 1.367 . S
C589 C597 1.433 . S
C590 H586 0.929 . S
C590 C592 1.378 . S
C590 C594 1.350 . S
C591 C594 1.463 . S
C591 C596 1.350 . S
C591 N599 1.427 . S
C592 H583 0.930 . S
C592 C590 1.378 . S
C592 C593 1.367 . S
C593 C592 1.367 . S
C593 C595 1.433 . S
C594 C590 1.350 . S
C594 C591 1.463 . S
C594 N598 1.427 . S
C595 H585 0.929 . S
C595 C593 1.433 . S
C595 N598 1.384 . S
C596 H587 0.929 . S
C596 C588 1.378 . S
C596 C591 1.350 . S
C597 H584 0.929 . S
C597 C589 1.433 . S
C597 N599 1.384 . S
N598 C594 1.427 . S
N598 C595 1.384 . S
N599 C591 1.427 . S
N599 C597 1.384 . S
H600 C606 0.930 . S
H601 C610 0.930 . S
H602 C615 0.929 . S
H603 C613 0.929 . S
H604 C608 0.929 . S
H605 C614 0.929 1_655 S
C606 H600 0.930 . S
C606 C607 1.367 . S
C606 C614 1.378 . S
C607 C606 1.367 . S
C607 C615 1.433 1_545 S
C608 H604 0.929 . S
C608 C610 1.378 . S
C608 C612 1.350 1_565 S
C609 C612 1.463 . S
C609 C614 1.350 1_655 S
C609 N617 1.427 1_545 S
C610 H601 0.930 . S
C610 C608 1.378 . S
C610 C611 1.367 1_565 S
C611 C610 1.367 1_545 S
C611 C613 1.433 . S
C612 C608 1.350 1_545 S
C612 C609 1.463 . S
C612 N616 1.427 . S
C613 H603 0.929 . S
C613 C611 1.433 . S
C613 N616 1.384 . S
C614 H605 0.929 1_455 S
C614 C606 1.378 . S
C614 C609 1.350 1_455 S
C615 H602 0.929 . S
C615 C607 1.433 1_565 S
C615 N617 1.384 1_455 S
N616 C612 1.427 . S
N616 C613 1.384 . S
N617 C609 1.427 1_565 S
N617 C615 1.384 1_655 S
H618 C624 0.930 . S
H619 C628 0.930 . S
H620 C633 0.929 . S
H621 C631 0.929 . S
H622 C626 0.929 . S
H623 C632 0.929 . S
C624 H618 0.930 . S
C624 C625 1.367 . S
C624 C632 1.378 . S
C625 C624 1.367 . S
C625 C633 1.433 . S
C626 H622 0.929 . S
C626 C628 1.378 . S
C626 C630 1.350 . S
C627 C630 1.463 . S
C627 C632 1.350 . S
C627 N635 1.427 . S
C628 H619 0.930 . S
C628 C626 1.378 . S
C628 C629 1.367 . S
C629 C628 1.367 . S
C629 C631 1.433 . S
C630 C626 1.350 . S
C630 C627 1.463 . S
C630 N634 1.427 . S
C631 H621 0.929 . S
C631 C629 1.433 . S
C631 N634 1.384 . S
C632 H623 0.929 . S
C632 C624 1.378 . S
C632 C627 1.350 . S
C633 H620 0.929 . S
C633 C625 1.433 . S
C633 N635 1.384 . S
N634 C630 1.427 . S
N634 C631 1.384 . S
N635 C627 1.427 . S
N635 C633 1.384 . S
H636 C642 0.930 . S
H637 C646 0.930 . S
H638 C651 0.929 . S
H639 C649 0.929 . S
H640 C644 0.929 . S
H641 C650 0.929 . S
C642 H636 0.930 . S
C642 C643 1.367 . S
C642 C650 1.378 . S
C643 C642 1.367 . S
C643 C651 1.433 1_565 S
C644 H640 0.929 . S
C644 C646 1.378 . S
C644 C648 1.350 1_545 S
C645 C648 1.463 . S
C645 C650 1.350 . S
C645 N653 1.427 1_565 S
C646 H637 0.930 . S
C646 C644 1.378 . S
C646 C647 1.355 1_545 S
C647 C646 1.355 1_565 S
C647 C649 1.447 . S
C648 C644 1.350 1_565 S
C648 C645 1.463 . S
C648 N652 1.427 . S
C649 H639 0.929 . S
C649 C647 1.447 . S
C649 N652 1.384 . S
C650 H641 0.929 . S
C650 C642 1.378 . S
C650 C645 1.350 . S
C651 H638 0.929 . S
C651 C643 1.433 1_545 S
C651 N653 1.384 . S
N652 C648 1.427 . S
N652 C649 1.384 . S
N653 C645 1.427 1_545 S
N653 C651 1.384 . S
H654 C660 0.930 . S
H655 C664 0.930 . S
H656 C669 0.929 . S
H657 C667 0.929 . S
H658 C662 0.929 . S
H659 C668 0.929 . S
C660 H654 0.930 . S
C660 C661 1.367 . S
C660 C668 1.378 . S
C661 C660 1.367 . S
C661 C669 1.433 . S
C662 H658 0.929 . S
C662 C664 1.378 . S
C662 C666 1.350 . S
C663 C666 1.463 . S
C663 C668 1.350 . S
C663 N671 1.427 . S
C664 H655 0.930 . S
C664 C662 1.378 . S
C664 C665 1.367 . S
C665 C664 1.367 . S
C665 C667 1.433 . S
C666 C662 1.350 . S
C666 C663 1.463 . S
C666 N670 1.427 . S
C667 H657 0.929 . S
C667 C665 1.433 . S
C667 N670 1.384 . S
C668 H659 0.929 . S
C668 C660 1.378 . S
C668 C663 1.350 . S
C669 H656 0.929 . S
C669 C661 1.433 . S
C669 N671 1.384 . S
N670 C666 1.427 . S
N670 C667 1.384 . S
N671 C663 1.427 . S
N671 C669 1.384 . S
H672 C678 0.930 . S
H673 C682 0.930 . S
H674 C687 0.929 . S
H675 C685 0.929 . S
H676 C680 0.929 . S
H677 C686 0.929 . S
C678 H672 0.930 . S
C678 C679 1.367 1_554 S
C678 C686 1.378 1_545 S
C679 C678 1.367 1_556 S
C679 C687 1.433 . S
C680 H676 0.929 . S
C680 C682 1.378 . S
C680 C684 1.350 . S
C681 C684 1.463 . S
C681 C686 1.350 1_556 S
C681 N689 1.427 . S
C682 H673 0.930 . S
C682 C680 1.378 . S
C682 C683 1.367 . S
C683 C682 1.367 . S
C683 C685 1.433 1_556 S
C684 C680 1.350 . S
C684 C681 1.463 . S
C684 N688 1.427 1_556 S
C685 H675 0.929 . S
C685 C683 1.433 1_554 S
C685 N688 1.384 . S
C686 H677 0.929 . S
C686 C678 1.378 1_565 S
C686 C681 1.350 1_554 S
C687 H674 0.929 . S
C687 C679 1.433 . S
C687 N689 1.384 1_545 S
N688 C684 1.427 1_554 S
N688 C685 1.384 . S
N689 C681 1.427 . S
N689 C687 1.384 1_565 S
H690 C696 0.930 . S
H691 C700 0.930 1_556 S
H692 C705 0.929 1_556 S
H693 C703 0.927 1_455 S
H694 C698 0.929 1_556 S
H695 C704 0.929 . S
C696 H690 0.930 . S
C696 C697 1.367 . S
C696 C704 1.378 . S
C697 C696 1.367 . S
C697 C705 1.433 . S
C698 H694 0.929 1_554 S
C698 C700 1.378 . S
C698 C702 1.350 . S
C699 C702 1.463 . S
C699 C704 1.350 . S
C699 N707 1.427 . S
C700 H691 0.930 1_554 S
C700 C698 1.378 . S
C700 C701 1.367 . S
C701 C700 1.367 . S
C701 C703 1.433 . S
C702 C698 1.350 . S
C702 C699 1.463 . S
C702 N706 1.427 . S
C703 H693 0.927 1_655 S
C703 C701 1.433 . S
C703 N706 1.384 . S
C704 H695 0.929 . S
C704 C696 1.378 . S
C704 C699 1.350 . S
C705 H692 0.929 1_554 S
C705 C697 1.433 . S
C705 N707 1.384 . S
N706 C702 1.427 . S
N706 C703 1.384 . S
N707 C699 1.427 . S
N707 C705 1.384 . S
H708 C714 0.930 . S
H709 C718 0.930 . S
H710 C723 0.929 . S
H711 C721 0.929 . S
H712 C716 0.929 . S
H713 C722 0.929 . S
C714 H708 0.930 . S
C714 C715 1.367 . S
C714 C722 1.378 . S
C715 C714 1.367 . S
C715 C723 1.433 . S
C716 H712 0.929 . S
C716 C718 1.378 . S
C716 C720 1.350 . S
C717 C720 1.463 . S
C717 C722 1.350 . S
C717 N725 1.427 . S
C718 H709 0.930 . S
C718 C716 1.378 . S
C718 C719 1.367 . S
C719 C718 1.367 . S
C719 C721 1.433 . S
C720 C716 1.350 . S
C720 C717 1.463 . S
C720 N724 1.427 . S
C721 H711 0.929 . S
C721 C719 1.433 . S
C721 N724 1.384 . S
C722 H713 0.929 . S
C722 C714 1.378 . S
C722 C717 1.350 . S
C723 H710 0.929 . S
C723 C715 1.433 . S
C723 N725 1.384 . S
N724 C720 1.427 . S
N724 C721 1.384 . S
N725 C717 1.427 . S
N725 C723 1.384 . S
H726 C732 0.930 . S
H727 C736 0.930 . S
H728 C741 0.929 . S
H729 C739 0.929 . S
H730 C734 0.929 . S
H731 C740 0.929 . S
C732 H726 0.930 . S
C732 C733 1.367 . S
C732 C740 1.378 . S
C733 C732 1.367 . S
C733 C741 1.433 . S
C734 H730 0.929 . S
C734 C736 1.378 . S
C734 C738 1.350 . S
C735 C738 1.463 . S
C735 C740 1.350 . S
C735 N743 1.427 . S
C736 H727 0.930 . S
C736 C734 1.378 . S
C736 C737 1.367 . S
C737 C736 1.367 . S
C737 C739 1.433 . S
C738 C734 1.350 . S
C738 C735 1.463 . S
C738 N742 1.427 . S
C739 H729 0.929 . S
C739 C737 1.433 . S
C739 N742 1.384 . S
C740 H731 0.929 . S
C740 C732 1.378 . S
C740 C735 1.350 . S
C741 H728 0.929 . S
C741 C733 1.433 . S
C741 N743 1.384 . S
N742 C738 1.427 . S
N742 C739 1.384 . S
N743 C735 1.427 . S
N743 C741 1.384 . S
H744 C750 0.930 . S
H745 C754 0.930 . S
H746 C759 0.929 . S
H747 C757 0.929 . S
H748 C752 0.929 . S
H749 C758 0.929 . S
C750 H744 0.930 . S
C750 C751 1.367 . S
C750 C758 1.378 . S
C751 C750 1.367 . S
C751 C759 1.433 . S
C752 H748 0.929 . S
C752 C754 1.378 . S
C752 C756 1.350 . S
C753 C756 1.463 . S
C753 C758 1.350 . S
C753 N761 1.427 . S
C754 H745 0.930 . S
C754 C752 1.378 . S
C754 C755 1.367 . S
C755 C754 1.367 . S
C755 C757 1.433 . S
C756 C752 1.350 . S
C756 C753 1.463 . S
C756 N760 1.427 . S
C757 H747 0.929 . S
C757 C755 1.433 . S
C757 N760 1.384 . S
C758 H749 0.929 . S
C758 C750 1.378 . S
C758 C753 1.350 . S
C759 H746 0.929 . S
C759 C751 1.433 . S
C759 N761 1.384 . S
N760 C756 1.427 . S
N760 C757 1.384 . S
N761 C753 1.427 . S
N761 C759 1.384 . S
H762 C768 0.930 . S
H763 C772 0.930 . S
H764 C777 0.929 . S
H765 C775 0.929 . S
H766 C770 0.929 . S
H767 C776 0.929 . S
C768 H762 0.930 . S
C768 C769 1.367 . S
C768 C776 1.378 . S
C769 C768 1.367 . S
C769 C777 1.433 . S
C770 H766 0.929 . S
C770 C772 1.378 . S
C770 C774 1.350 . S
C771 C774 1.463 . S
C771 C776 1.350 1_545 S
C771 N779 1.427 . S
C772 H763 0.930 . S
C772 C770 1.378 . S
C772 C773 1.367 . S
C773 C772 1.367 . S
C773 C775 1.433 . S
C774 C770 1.350 . S
C774 C771 1.463 . S
C774 N778 1.427 . S
C775 H765 0.929 . S
C775 C773 1.433 . S
C775 N778 1.384 . S
C776 H767 0.929 . S
C776 C768 1.378 . S
C776 C771 1.350 1_565 S
C777 H764 0.929 . S
C777 C769 1.433 . S
C777 N779 1.384 1_565 S
N778 C774 1.427 . S
N778 C775 1.384 . S
N779 C771 1.427 . S
N779 C777 1.384 1_545 S
H780 C786 0.930 . S
H781 C790 0.930 . S
H782 C795 0.929 . S
H783 C793 0.929 . S
H784 C788 0.929 . S
H785 C794 0.929 . S
C786 H780 0.930 . S
C786 C787 1.367 . S
C786 C794 1.378 . S
C787 C786 1.367 . S
C787 C795 1.433 . S
C788 H784 0.929 . S
C788 C790 1.378 . S
C788 C792 1.350 . S
C789 C792 1.463 . S
C789 C794 1.350 . S
C789 N797 1.427 . S
C790 H781 0.930 . S
C790 C788 1.378 . S
C790 C791 1.367 . S
C791 C790 1.367 . S
C791 C793 1.433 . S
C792 C788 1.350 . S
C792 C789 1.463 . S
C792 N796 1.427 . S
C793 H783 0.929 . S
C793 C791 1.433 . S
C793 N796 1.384 . S
C794 H785 0.929 . S
C794 C786 1.378 . S
C794 C789 1.350 . S
C795 H782 0.929 . S
C795 C787 1.433 . S
C795 N797 1.384 . S
N796 C792 1.427 . S
N796 C793 1.384 . S
N797 C789 1.427 . S
N797 C795 1.384 . S
H798 C804 0.930 . S
H799 C808 0.930 . S
H800 C813 0.929 . S
H801 C811 0.929 . S
H802 C806 0.929 . S
H803 C812 0.929 . S
C804 H798 0.930 . S
C804 C805 1.367 . S
C804 C812 1.378 . S
C805 C804 1.367 . S
C805 C813 1.433 . S
C806 H802 0.929 . S
C806 C808 1.378 . S
C806 C810 1.350 . S
C807 C810 1.463 . S
C807 C812 1.350 . S
C807 N815 1.427 . S
C808 H799 0.930 . S
C808 C806 1.378 . S
C808 C809 1.367 . S
C809 C808 1.367 . S
C809 C811 1.433 . S
C810 C806 1.350 . S
C810 C807 1.463 . S
C810 N814 1.427 . S
C811 H801 0.929 . S
C811 C809 1.433 . S
C811 N814 1.384 . S
C812 H803 0.929 . S
C812 C804 1.378 . S
C812 C807 1.350 . S
C813 H800 0.929 . S
C813 C805 1.433 . S
C813 N815 1.384 . S
N814 C810 1.427 . S
N814 C811 1.384 . S
N815 C807 1.427 . S
N815 C813 1.384 . S
H816 C822 0.930 . S
H817 C826 0.930 . S
H818 C831 0.929 . S
H819 C829 0.929 . S
H820 C824 0.929 . S
H821 C830 0.929 . S
C822 H816 0.930 . S
C822 C823 1.367 . S
C822 C830 1.378 . S
C823 C822 1.367 . S
C823 C831 1.433 . S
C824 H820 0.929 . S
C824 C826 1.378 . S
C824 C828 1.350 . S
C825 C828 1.463 . S
C825 C830 1.350 . S
C825 N833 1.427 . S
C826 H817 0.930 . S
C826 C824 1.378 . S
C826 C827 1.367 . S
C827 C826 1.367 . S
C827 C829 1.433 . S
C828 C824 1.350 . S
C828 C825 1.463 . S
C828 N832 1.427 . S
C829 H819 0.929 . S
C829 C827 1.433 . S
C829 N832 1.384 . S
C830 H821 0.929 . S
C830 C822 1.378 . S
C830 C825 1.350 . S
C831 H818 0.929 . S
C831 C823 1.433 . S
C831 N833 1.384 . S
N832 C828 1.427 . S
N832 C829 1.384 . S
N833 C825 1.427 . S
N833 C831 1.384 . S
H834 C840 0.930 . S
H835 C844 0.930 . S
H836 C849 0.929 . S
H837 C847 0.929 . S
H838 C842 0.929 . S
H839 C848 0.929 . S
C840 H834 0.930 . S
C840 C841 1.367 . S
C840 C848 1.378 . S
C841 C840 1.367 . S
C841 C849 1.433 . S
C842 H838 0.929 . S
C842 C844 1.378 . S
C842 C846 1.350 . S
C843 C846 1.463 . S
C843 C848 1.350 . S
C843 N851 1.427 . S
C844 H835 0.930 . S
C844 C842 1.378 . S
C844 C845 1.367 . S
C845 C844 1.367 . S
C845 C847 1.433 . S
C846 C842 1.350 . S
C846 C843 1.463 . S
C846 N850 1.427 . S
C847 H837 0.929 . S
C847 C845 1.433 . S
C847 N850 1.384 . S
C848 H839 0.929 . S
C848 C840 1.378 . S
C848 C843 1.350 . S
C849 H836 0.929 . S
C849 C841 1.433 . S
C849 N851 1.384 . S
N850 C846 1.427 . S
N850 C847 1.384 . S
N851 C843 1.427 . S
N851 C849 1.384 . S
H852 C858 0.930 . S
H853 C862 0.930 . S
H854 C867 0.929 . S
H855 C865 0.929 . S
H856 C860 0.929 . S
H857 C866 0.929 1_556 S
C858 H852 0.930 . S
C858 C859 1.367 . S
C858 C866 1.378 . S
C859 C858 1.367 . S
C859 C867 1.433 1_455 S
C860 H856 0.929 . S
C860 C862 1.378 . S
C860 C864 1.350 1_655 S
C861 C864 1.463 . S
C861 C866 1.350 1_556 S
C861 N869 1.427 1_456 S
C862 H853 0.930 . S
C862 C860 1.378 . S
C862 C863 1.367 1_655 S
C863 C862 1.367 1_455 S
C863 C865 1.433 . S
C864 C860 1.350 1_455 S
C864 C861 1.463 . S
C864 N868 1.427 . S
C865 H855 0.929 . S
C865 C863 1.433 . S
C865 N868 1.384 . S
C866 H857 0.929 1_554 S
C866 C858 1.378 . S
C866 C861 1.350 1_554 S
C867 H854 0.929 . S
C867 C859 1.433 1_655 S
C867 N869 1.384 . S
N868 C864 1.427 . S
N868 C865 1.384 . S
N869 C861 1.427 1_654 S
N869 C867 1.384 . S
H870 C876 0.930 . S
H871 C880 0.930 . S
H872 C885 0.929 . S
H873 C883 0.929 . S
H874 C878 0.929 . S
H875 C884 0.929 . S
C876 H870 0.930 . S
C876 C877 1.367 . S
C876 C884 1.378 . S
C877 C876 1.367 . S
C877 C885 1.433 . S
C878 H874 0.929 . S
C878 C880 1.378 . S
C878 C882 1.350 . S
C879 C882 1.463 . S
C879 C884 1.350 . S
C879 N887 1.427 . S
C880 H871 0.930 . S
C880 C878 1.378 . S
C880 C881 1.367 . S
C881 C880 1.367 . S
C881 C883 1.433 . S
C882 C878 1.350 . S
C882 C879 1.463 . S
C882 N886 1.427 . S
C883 H873 0.929 . S
C883 C881 1.433 . S
C883 N886 1.384 . S
C884 H875 0.929 . S
C884 C876 1.378 . S
C884 C879 1.350 . S
C885 H872 0.929 . S
C885 C877 1.433 . S
C885 N887 1.384 . S
N886 C882 1.427 . S
N886 C883 1.384 . S
N887 C879 1.427 . S
N887 C885 1.384 . S
H888 C894 0.930 1_556 S
H889 C898 0.930 . S
H890 C903 0.929 . S
H891 C901 0.929 . S
H892 C896 0.929 . S
H893 C902 0.929 . S
C894 H888 0.930 1_554 S
C894 C895 1.367 1_554 S
C894 C902 1.378 . S
C895 C894 1.367 1_556 S
C895 C903 1.433 . S
C896 H892 0.929 . S
C896 C898 1.378 . S
C896 C900 1.350 . S
C897 C900 1.463 . S
C897 C902 1.350 . S
C897 N905 1.427 . S
C898 H889 0.930 . S
C898 C896 1.378 . S
C898 C899 1.367 . S
C899 C898 1.367 . S
C899 C901 1.433 . S
C900 C896 1.350 . S
C900 C897 1.463 . S
C900 N904 1.427 . S
C901 H891 0.929 . S
C901 C899 1.433 . S
C901 N904 1.384 . S
C902 H893 0.929 . S
C902 C894 1.378 . S
C902 C897 1.350 . S
C903 H890 0.929 . S
C903 C895 1.433 . S
C903 N905 1.384 1_556 S
N904 C900 1.427 . S
N904 C901 1.384 . S
N905 C897 1.427 . S
N905 C903 1.384 1_554 S
H906 C912 0.930 . S
H907 C916 0.930 . S
H908 C921 0.929 . S
H909 C919 0.929 . S
H910 C914 0.929 . S
H911 C920 0.929 . S
C912 H906 0.930 . S
C912 C913 1.367 . S
C912 C920 1.378 . S
C913 C912 1.367 . S
C913 C921 1.433 . S
C914 H910 0.929 . S
C914 C916 1.378 . S
C914 C918 1.350 . S
C915 C918 1.463 . S
C915 C920 1.350 . S
C915 N923 1.427 . S
C916 H907 0.930 . S
C916 C914 1.378 . S
C916 C917 1.367 . S
C917 C916 1.367 . S
C917 C919 1.433 . S
C918 C914 1.350 . S
C918 C915 1.463 . S
C918 N922 1.427 . S
C919 H909 0.929 . S
C919 C917 1.433 . S
C919 N922 1.384 . S
C920 H911 0.929 . S
C920 C912 1.378 . S
C920 C915 1.350 . S
C921 H908 0.929 . S
C921 C913 1.433 . S
C921 N923 1.384 . S
N922 C918 1.427 . S
N922 C919 1.384 . S
N923 C915 1.427 . S
N923 C921 1.384 . S
H924 C930 0.930 . S
H925 C934 0.930 . S
H926 C939 0.929 . S
H927 C937 0.929 . S
H928 C932 0.929 . S
H929 C938 0.929 . S
C930 H924 0.930 . S
C930 C931 1.367 1_655 S
C930 C938 1.378 . S
C931 C930 1.367 1_455 S
C931 C939 1.433 . S
C932 H928 0.929 . S
C932 C934 1.378 . S
C932 C936 1.350 . S
C933 C936 1.463 . S
C933 C938 1.350 1_455 S
C933 N941 1.427 . S
C934 H925 0.930 . S
C934 C932 1.378 . S
C934 C935 1.367 . S
C935 C934 1.367 . S
C935 C937 1.433 . S
C936 C932 1.350 . S
C936 C933 1.463 . S
C936 N940 1.427 . S
C937 H927 0.929 . S
C937 C935 1.433 . S
C937 N940 1.384 . S
C938 H929 0.929 . S
C938 C930 1.378 . S
C938 C933 1.350 1_655 S
C939 H926 0.929 . S
C939 C931 1.433 . S
C939 N941 1.384 . S
N940 C936 1.427 . S
N940 C937 1.384 . S
N941 C933 1.427 . S
N941 C939 1.384 . S
H942 C948 0.930 . S
H943 C952 0.930 . S
H944 C957 0.929 . S
H945 C955 0.929 . S
H946 C950 0.929 . S
H947 C956 0.929 . S
C948 H942 0.930 . S
C948 C949 1.367 . S
C948 C956 1.378 . S
C949 C948 1.367 . S
C949 C957 1.433 . S
C950 H946 0.929 . S
C950 C952 1.378 . S
C950 C954 1.350 . S
C951 C954 1.463 . S
C951 C956 1.350 . S
C951 N959 1.427 . S
C952 H943 0.930 . S
C952 C950 1.378 . S
C952 C953 1.367 . S
C953 C952 1.367 . S
C953 C955 1.433 . S
C954 C950 1.350 . S
C954 C951 1.463 . S
C954 N958 1.427 . S
C955 H945 0.929 . S
C955 C953 1.433 . S
C955 N958 1.384 . S
C956 H947 0.929 . S
C956 C948 1.378 . S
C956 C951 1.350 . S
C957 H944 0.929 . S
C957 C949 1.433 . S
C957 N959 1.384 . S
N958 C954 1.427 . S
N958 C955 1.384 . S
N959 C951 1.427 . S
N959 C957 1.384 . S
H960 C966 0.930 . S
H961 C970 0.930 . S
H962 C975 0.929 . S
H963 C973 0.929 . S
H964 C968 0.929 . S
H965 C974 0.929 . S
C966 H960 0.930 . S
C966 C967 1.367 . S
C966 C974 1.378 . S
C967 C966 1.367 . S
C967 C975 1.433 . S
C968 H964 0.929 . S
C968 C970 1.378 . S
C968 C972 1.350 . S
C969 C972 1.463 . S
C969 C974 1.350 . S
C969 N977 1.427 . S
C970 H961 0.930 . S
C970 C968 1.378 . S
C970 C971 1.367 . S
C971 C970 1.367 . S
C971 C973 1.433 . S
C972 C968 1.350 . S
C972 C969 1.463 . S
C972 N976 1.427 . S
C973 H963 0.929 . S
C973 C971 1.433 . S
C973 N976 1.384 . S
C974 H965 0.929 . S
C974 C966 1.378 . S
C974 C969 1.350 . S
C975 H962 0.929 . S
C975 C967 1.433 . S
C975 N977 1.384 . S
N976 C972 1.427 . S
N976 C973 1.384 . S
N977 C969 1.427 . S
N977 C975 1.384 . S
H978 C984 0.930 . S
H979 C988 0.930 . S
H980 C993 0.929 . S
H981 C991 0.929 . S
H982 C986 0.929 . S
H983 C992 0.929 . S
C984 H978 0.930 . S
C984 C985 1.367 . S
C984 C992 1.378 . S
C985 C984 1.367 . S
C985 C993 1.433 . S
C986 H982 0.929 . S
C986 C988 1.378 . S
C986 C990 1.350 . S
C987 C990 1.463 . S
C987 C992 1.350 . S
C987 N995 1.427 . S
C988 H979 0.930 . S
C988 C986 1.378 . S
C988 C989 1.367 . S
C989 C988 1.367 . S
C989 C991 1.433 . S
C990 C986 1.350 . S
C990 C987 1.463 . S
C990 N994 1.427 . S
C991 H981 0.929 . S
C991 C989 1.433 . S
C991 N994 1.384 . S
C992 H983 0.929 . S
C992 C984 1.378 . S
C992 C987 1.350 . S
C993 H980 0.929 . S
C993 C985 1.433 . S
C993 N995 1.384 . S
N994 C990 1.427 . S
N994 C991 1.384 . S
N995 C987 1.427 . S
N995 C993 1.384 . S
H996 C1002 0.930 . S
H997 C1006 0.930 . S
H998 C1011 0.929 . S
H999 C1009 0.929 . S
H1000 C1004 0.929 . S
H1001 C1010 0.929 . S
C1002 H996 0.930 . S
C1002 C1003 1.367 . S
C1002 C1010 1.378 1_655 S
C1003 C1002 1.367 . S
C1003 C1011 1.433 . S
C1004 H1000 0.929 . S
C1004 C1006 1.378 . S
C1004 C1008 1.350 . S
C1005 C1008 1.463 . S
C1005 C1010 1.350 . S
C1005 N1013 1.427 . S
C1006 H997 0.930 . S
C1006 C1004 1.378 . S
C1006 C1007 1.367 . S
C1007 C1006 1.367 . S
C1007 C1009 1.433 . S
C1008 C1004 1.350 . S
C1008 C1005 1.463 . S
C1008 N1012 1.427 . S
C1009 H999 0.929 . S
C1009 C1007 1.433 . S
C1009 N1012 1.384 . S
C1010 H1001 0.929 . S
C1010 C1002 1.378 1_455 S
C1010 C1005 1.350 . S
C1011 H998 0.929 . S
C1011 C1003 1.433 . S
C1011 N1013 1.384 1_655 S
N1012 C1008 1.427 . S
N1012 C1009 1.384 . S
N1013 C1005 1.427 . S
N1013 C1011 1.384 1_455 S
H1014 C1020 0.930 . S
H1015 C1024 0.930 . S
H1016 C1029 0.929 . S
H1017 C1027 0.929 . S
H1018 C1022 0.929 . S
H1019 C1028 0.929 . S
C1020 H1014 0.930 . S
C1020 C1021 1.367 . S
C1020 C1028 1.378 . S
C1021 C1020 1.367 . S
C1021 C1029 1.433 . S
C1022 H1018 0.929 . S
C1022 C1024 1.378 . S
C1022 C1026 1.350 . S
C1023 C1026 1.463 . S
C1023 C1028 1.350 . S
C1023 N1031 1.427 . S
C1024 H1015 0.930 . S
C1024 C1022 1.378 . S
C1024 C1025 1.367 . S
C1025 C1024 1.367 . S
C1025 C1027 1.433 . S
C1026 C1022 1.350 . S
C1026 C1023 1.463 . S
C1026 N1030 1.427 . S
C1027 H1017 0.929 . S
C1027 C1025 1.433 . S
C1027 N1030 1.384 . S
C1028 H1019 0.929 . S
C1028 C1020 1.378 . S
C1028 C1023 1.350 . S
C1029 H1016 0.929 . S
C1029 C1021 1.433 . S
C1029 N1031 1.384 . S
N1030 C1026 1.427 . S
N1030 C1027 1.384 . S
N1031 C1023 1.427 . S
N1031 C1029 1.384 . S
H1032 C1038 0.930 . S
H1033 C1042 0.930 . S
H1034 C1047 0.929 . S
H1035 C1045 0.929 . S
H1036 C1040 0.929 . S
H1037 C1046 0.929 . S
C1038 H1032 0.930 . S
C1038 C1039 1.367 . S
C1038 C1046 1.378 . S
C1039 C1038 1.367 . S
C1039 C1047 1.433 . S
C1040 H1036 0.929 . S
C1040 C1042 1.378 . S
C1040 C1044 1.350 . S
C1041 C1044 1.463 . S
C1041 C1046 1.350 . S
C1041 N1049 1.427 . S
C1042 H1033 0.930 . S
C1042 C1040 1.378 . S
C1042 C1043 1.367 . S
C1043 C1042 1.367 . S
C1043 C1045 1.433 . S
C1044 C1040 1.350 . S
C1044 C1041 1.463 . S
C1044 N1048 1.427 . S
C1045 H1035 0.929 . S
C1045 C1043 1.433 . S
C1045 N1048 1.384 . S
C1046 H1037 0.929 . S
C1046 C1038 1.378 . S
C1046 C1041 1.350 . S
C1047 H1034 0.929 . S
C1047 C1039 1.433 . S
C1047 N1049 1.384 . S
N1048 C1044 1.427 . S
N1048 C1045 1.384 . S
N1049 C1041 1.427 . S
N1049 C1047 1.384 . S
H1050 C1056 0.930 . S
H1051 C1060 0.930 . S
H1052 C1065 0.929 . S
H1053 C1063 0.929 . S
H1054 C1058 0.929 . S
H1055 C1064 0.929 . S
C1056 H1050 0.930 . S
C1056 C1057 1.367 . S
C1056 C1064 1.378 . S
C1057 C1056 1.367 . S
C1057 C1065 1.433 . S
C1058 H1054 0.929 . S
C1058 C1060 1.378 . S
C1058 C1062 1.350 . S
C1059 C1062 1.463 . S
C1059 C1064 1.350 . S
C1059 N1067 1.427 . S
C1060 H1051 0.930 . S
C1060 C1058 1.378 . S
C1060 C1061 1.367 . S
C1061 C1060 1.367 . S
C1061 C1063 1.433 . S
C1062 C1058 1.350 . S
C1062 C1059 1.463 . S
C1062 N1066 1.427 . S
C1063 H1053 0.929 . S
C1063 C1061 1.433 . S
C1063 N1066 1.384 . S
C1064 H1055 0.929 . S
C1064 C1056 1.378 . S
C1064 C1059 1.350 . S
C1065 H1052 0.929 . S
C1065 C1057 1.433 . S
C1065 N1067 1.384 . S
N1066 C1062 1.427 . S
N1066 C1063 1.384 . S
N1067 C1059 1.427 . S
N1067 C1065 1.384 . S
H1068 C1074 0.930 . S
H1069 C1078 0.930 . S
H1070 C1083 0.929 . S
H1071 C1081 0.929 . S
H1072 C1076 0.929 . S
H1073 C1082 0.929 . S
C1074 H1068 0.930 . S
C1074 C1075 1.367 1_455 S
C1074 C1082 1.378 . S
C1075 C1074 1.367 1_655 S
C1075 C1083 1.433 . S
C1076 H1072 0.929 . S
C1076 C1078 1.378 . S
C1076 C1080 1.350 . S
C1077 C1080 1.463 . S
C1077 C1082 1.350 . S
C1077 N1085 1.427 . S
C1078 H1069 0.930 . S
C1078 C1076 1.378 . S
C1078 C1079 1.367 . S
C1079 C1078 1.367 . S
C1079 C1081 1.433 . S
C1080 C1076 1.350 . S
C1080 C1077 1.463 . S
C1080 N1084 1.427 . S
C1081 H1071 0.929 . S
C1081 C1079 1.433 . S
C1081 N1084 1.384 . S
C1082 H1073 0.929 . S
C1082 C1074 1.378 . S
C1082 C1077 1.350 . S
C1083 H1070 0.929 . S
C1083 C1075 1.433 . S
C1083 N1085 1.384 1_655 S
N1084 C1080 1.427 . S
N1084 C1081 1.384 . S
N1085 C1077 1.427 . S
N1085 C1083 1.384 1_455 S
H1086 C1092 0.930 . S
H1087 C1096 0.930 . S
H1088 C1101 0.929 . S
H1089 C1099 0.929 . S
H1090 C1094 0.929 . S
H1091 C1100 0.929 . S
C1092 H1086 0.930 . S
C1092 C1093 1.367 . S
C1092 C1100 1.378 . S
C1093 C1092 1.367 . S
C1093 C1101 1.433 . S
C1094 H1090 0.929 . S
C1094 C1096 1.378 . S
C1094 C1098 1.350 . S
C1095 C1098 1.463 . S
C1095 C1100 1.350 . S
C1095 N1103 1.427 . S
C1096 H1087 0.930 . S
C1096 C1094 1.378 . S
C1096 C1097 1.367 . S
C1097 C1096 1.367 . S
C1097 C1099 1.433 . S
C1098 C1094 1.350 . S
C1098 C1095 1.463 . S
C1098 N1102 1.427 . S
C1099 H1089 0.929 . S
C1099 C1097 1.433 . S
C1099 N1102 1.384 . S
C1100 H1091 0.929 . S
C1100 C1092 1.378 . S
C1100 C1095 1.350 . S
C1101 H1088 0.929 . S
C1101 C1093 1.433 . S
C1101 N1103 1.384 . S
N1102 C1098 1.427 . S
N1102 C1099 1.384 . S
N1103 C1095 1.427 . S
N1103 C1101 1.384 . S
H1104 C1110 0.930 . S
H1105 C1114 0.930 . S
H1106 C1119 0.929 . S
H1107 C1117 0.929 . S
H1108 C1112 0.929 . S
H1109 C1118 0.929 . S
C1110 H1104 0.930 . S
C1110 C1111 1.367 . S
C1110 C1118 1.378 . S
C1111 C1110 1.367 . S
C1111 C1119 1.433 . S
C1112 H1108 0.929 . S
C1112 C1114 1.378 . S
C1112 C1116 1.350 . S
C1113 C1116 1.463 . S
C1113 C1118 1.350 . S
C1113 N1121 1.427 . S
C1114 H1105 0.930 . S
C1114 C1112 1.378 . S
C1114 C1115 1.367 . S
C1115 C1114 1.367 . S
C1115 C1117 1.433 . S
C1116 C1112 1.350 . S
C1116 C1113 1.463 . S
C1116 N1120 1.427 . S
C1117 H1107 0.929 . S
C1117 C1115 1.433 . S
C1117 N1120 1.384 . S
C1118 H1109 0.929 . S
C1118 C1110 1.378 . S
C1118 C1113 1.350 . S
C1119 H1106 0.929 . S
C1119 C1111 1.433 . S
C1119 N1121 1.384 . S
N1120 C1116 1.427 . S
N1120 C1117 1.384 . S
N1121 C1113 1.427 . S
N1121 C1119 1.384 . S
H1122 C1128 0.930 . S
H1123 C1132 0.930 . S
H1124 C1137 0.929 . S
H1125 C1135 0.929 . S
H1126 C1130 0.929 . S
H1127 C1136 0.929 . S
C1128 H1122 0.930 . S
C1128 C1129 1.367 . S
C1128 C1136 1.378 1_565 S
C1129 C1128 1.367 . S
C1129 C1137 1.433 . S
C1130 H1126 0.929 . S
C1130 C1132 1.378 . S
C1130 C1134 1.350 . S
C1131 C1134 1.463 . S
C1131 C1136 1.350 . S
C1131 N1139 1.427 . S
C1132 H1123 0.930 . S
C1132 C1130 1.378 . S
C1132 C1133 1.367 . S
C1133 C1132 1.367 . S
C1133 C1135 1.433 . S
C1134 C1130 1.350 . S
C1134 C1131 1.463 . S
C1134 N1138 1.427 . S
C1135 H1125 0.929 . S
C1135 C1133 1.433 . S
C1135 N1138 1.384 . S
C1136 H1127 0.929 . S
C1136 C1128 1.378 1_545 S
C1136 C1131 1.350 . S
C1137 H1124 0.929 . S
C1137 C1129 1.433 . S
C1137 N1139 1.384 1_565 S
N1138 C1134 1.427 . S
N1138 C1135 1.384 . S
N1139 C1131 1.427 . S
N1139 C1137 1.384 1_545 S
H1140 C1146 0.930 . S
H1141 C1150 0.930 . S
H1142 C1155 0.929 . S
H1143 C1153 0.929 . S
H1144 C1148 0.929 . S
H1145 C1154 0.929 . S
C1146 H1140 0.930 . S
C1146 C1147 1.367 . S
C1146 C1154 1.378 . S
C1147 C1146 1.367 . S
C1147 C1155 1.433 . S
C1148 H1144 0.929 . S
C1148 C1150 1.378 . S
C1148 C1152 1.350 . S
C1149 C1152 1.463 . S
C1149 C1154 1.350 . S
C1149 N1157 1.427 . S
C1150 H1141 0.930 . S
C1150 C1148 1.378 . S
C1150 C1151 1.367 . S
C1151 C1150 1.367 . S
C1151 C1153 1.433 . S
C1152 C1148 1.350 . S
C1152 C1149 1.463 . S
C1152 N1156 1.427 . S
C1153 H1143 0.929 . S
C1153 C1151 1.433 . S
C1153 N1156 1.384 . S
C1154 H1145 0.929 . S
C1154 C1146 1.378 . S
C1154 C1149 1.350 . S
C1155 H1142 0.929 . S
C1155 C1147 1.433 . S
C1155 N1157 1.384 . S
N1156 C1152 1.427 . S
N1156 C1153 1.384 . S
N1157 C1149 1.427 . S
N1157 C1155 1.384 . S
H1158 C1164 0.930 . S
H1159 C1168 0.940 . S
H1160 C1173 0.929 . S
H1161 C1171 0.929 . S
H1162 C1166 0.929 . S
H1163 C1172 0.929 . S
C1164 H1158 0.930 . S
C1164 C1165 1.367 . S
C1164 C1172 1.378 . S
C1165 C1164 1.367 . S
C1165 C1173 1.433 1_554 S
C1166 H1162 0.929 . S
C1166 C1168 1.381 . S
C1166 C1170 1.350 1_556 S
C1167 C1170 1.463 . S
C1167 C1172 1.350 1_565 S
C1167 N1175 1.427 1_554 S
C1168 H1159 0.940 . S
C1168 C1166 1.381 . S
C1168 C1169 1.354 1_556 S
C1169 C1168 1.354 1_554 S
C1169 C1171 1.433 . S
C1170 C1166 1.350 1_554 S
C1170 C1167 1.463 . S
C1170 N1174 1.427 . S
C1171 H1161 0.929 . S
C1171 C1169 1.433 . S
C1171 N1174 1.384 . S
C1172 H1163 0.929 . S
C1172 C1164 1.378 . S
C1172 C1167 1.350 1_545 S
C1173 H1160 0.929 . S
C1173 C1165 1.433 1_556 S
C1173 N1175 1.384 1_545 S
N1174 C1170 1.427 . S
N1174 C1171 1.384 . S
N1175 C1167 1.427 1_556 S
N1175 C1173 1.384 1_565 S
H1176 C1182 0.930 . S
H1177 C1186 0.930 . S
H1178 C1191 0.929 . S
H1179 C1189 0.929 . S
H1180 C1184 0.929 . S
H1181 C1190 0.929 . S
C1182 H1176 0.930 . S
C1182 C1183 1.367 . S
C1182 C1190 1.378 . S
C1183 C1182 1.367 . S
C1183 C1191 1.433 . S
C1184 H1180 0.929 . S
C1184 C1186 1.378 . S
C1184 C1188 1.350 . S
C1185 C1188 1.463 . S
C1185 C1190 1.350 . S
C1185 N1193 1.427 . S
C1186 H1177 0.930 . S
C1186 C1184 1.378 . S
C1186 C1187 1.367 . S
C1187 C1186 1.367 . S
C1187 C1189 1.433 . S
C1188 C1184 1.350 . S
C1188 C1185 1.463 . S
C1188 N1192 1.427 . S
C1189 H1179 0.929 . S
C1189 C1187 1.433 . S
C1189 N1192 1.384 . S
C1190 H1181 0.929 . S
C1190 C1182 1.378 . S
C1190 C1185 1.350 . S
C1191 H1178 0.929 . S
C1191 C1183 1.433 . S
C1191 N1193 1.384 . S
N1192 C1188 1.427 . S
N1192 C1189 1.384 . S
N1193 C1185 1.427 . S
N1193 C1191 1.384 . S
H1194 C1200 0.930 . S
H1195 C1204 0.930 . S
H1196 C1209 0.929 . S
H1197 C1207 0.929 . S
H1198 C1202 0.929 . S
H1199 C1208 0.929 . S
C1200 H1194 0.930 . S
C1200 C1201 1.367 . S
C1200 C1208 1.378 . S
C1201 C1200 1.367 . S
C1201 C1209 1.433 1_554 S
C1202 H1198 0.929 . S
C1202 C1204 1.378 . S
C1202 C1206 1.350 1_556 S
C1203 C1206 1.463 . S
C1203 C1208 1.350 . S
C1203 N1211 1.427 1_554 S
C1204 H1195 0.930 . S
C1204 C1202 1.378 . S
C1204 C1205 1.367 . S
C1205 C1204 1.367 . S
C1205 C1207 1.433 1_556 S
C1206 C1202 1.350 1_554 S
C1206 C1203 1.463 . S
C1206 N1210 1.427 . S
C1207 H1197 0.929 . S
C1207 C1205 1.433 1_554 S
C1207 N1210 1.384 . S
C1208 H1199 0.929 . S
C1208 C1200 1.378 . S
C1208 C1203 1.350 . S
C1209 H1196 0.929 . S
C1209 C1201 1.433 1_556 S
C1209 N1211 1.384 . S
N1210 C1206 1.427 . S
N1210 C1207 1.384 . S
N1211 C1203 1.427 1_556 S
N1211 C1209 1.384 . S
H1212 C1218 0.930 . S
H1213 C1222 0.930 . S
H1214 C1227 0.929 . S
H1215 C1225 0.929 . S
H1216 C1220 0.929 . S
H1217 C1226 0.929 . S
C1218 H1212 0.930 . S
C1218 C1219 1.367 . S
C1218 C1226 1.378 . S
C1219 C1218 1.367 . S
C1219 C1227 1.433 . S
C1220 H1216 0.929 . S
C1220 C1222 1.378 . S
C1220 C1224 1.350 . S
C1221 C1224 1.463 . S
C1221 C1226 1.350 . S
C1221 N1229 1.427 . S
C1222 H1213 0.930 . S
C1222 C1220 1.378 . S
C1222 C1223 1.367 . S
C1223 C1222 1.367 . S
C1223 C1225 1.433 . S
C1224 C1220 1.350 . S
C1224 C1221 1.463 . S
C1224 N1228 1.427 . S
C1225 H1215 0.929 . S
C1225 C1223 1.433 . S
C1225 N1228 1.384 . S
C1226 H1217 0.929 . S
C1226 C1218 1.378 . S
C1226 C1221 1.350 . S
C1227 H1214 0.929 . S
C1227 C1219 1.433 . S
C1227 N1229 1.384 . S
N1228 C1224 1.427 . S
N1228 C1225 1.384 . S
N1229 C1221 1.427 . S
N1229 C1227 1.384 . S
H1230 C1236 0.930 . S
H1231 C1240 0.930 . S
H1232 C1245 0.929 . S
H1233 C1243 0.929 . S
H1234 C1238 0.929 . S
H1235 C1244 0.929 . S
C1236 H1230 0.930 . S
C1236 C1237 1.367 . S
C1236 C1244 1.378 . S
C1237 C1236 1.367 . S
C1237 C1245 1.433 . S
C1238 H1234 0.929 . S
C1238 C1240 1.378 . S
C1238 C1242 1.350 . S
C1239 C1242 1.463 . S
C1239 C1244 1.350 . S
C1239 N1247 1.427 . S
C1240 H1231 0.930 . S
C1240 C1238 1.378 . S
C1240 C1241 1.367 . S
C1241 C1240 1.367 . S
C1241 C1243 1.433 . S
C1242 C1238 1.350 . S
C1242 C1239 1.463 . S
C1242 N1246 1.427 . S
C1243 H1233 0.929 . S
C1243 C1241 1.433 . S
C1243 N1246 1.384 . S
C1244 H1235 0.929 . S
C1244 C1236 1.378 . S
C1244 C1239 1.350 . S
C1245 H1232 0.929 . S
C1245 C1237 1.433 . S
C1245 N1247 1.384 . S
N1246 C1242 1.427 . S
N1246 C1243 1.384 . S
N1247 C1239 1.427 . S
N1247 C1245 1.384 . S
C395 C373 1.036 . S
C391 C11 1.127 . S
C409 C19 1.364 . S
C413 C326 1.332 . S
C427 C37 1.174 . S
C431 C337 1.016 . S
C449 C362 1.238 . S
C445 C42 1.313 . S
C463 C25 1.155 . S
C467 C380 1.054 . S
C485 C319 1.210 . S
C481 C28 1.276 . S
C503 C344 1.021 . S
C499 C51 1.190 . S
C521 C355 1.298 . S
C517 C5 1.348 . S
C535 C61 1.154 . S
C539 C356 1.023 . S
C557 C382 1.294 . S
C553 C81 1.342 . S
C575 C320 1.081 1_545 S
C571 C89 1.214 . S
C593 C346 1.240 . S
C589 C107 1.273 . S
C607 C56 1.113 . S
C611 C328 1.017 1_545 S
C625 C79 1.304 . S
C629 C338 1.281 . S
C643 C84 1.180 . S
C647 C364 1.035 1_565 S
C665 C374 1.330 . S
C661 C109 1.382 . S
C683 C211 1.129 1_556 S
C679 C103 1.258 . S
C701 C194 1.067 . S
C697 C117 1.207 . S
C719 C220 1.267 . S
C715 C137 1.319 . S
C737 C238 0.987 . S
C733 C140 1.123 . S
C751 C67 1.266 . S
C755 C212 1.226 . S
C769 C70 1.177 . S
C773 C182 1.030 . S
C787 C135 1.359 . S
C791 C236 1.323 . S
C805 C163 1.308 . S
C809 C193 1.296 . S
C827 C247 1.029 . S
C823 C39 1.131 . S
C845 C272 1.328 . S
C841 C47 1.374 . S
C859 C9 1.174 . S
C863 C283 1.017 . S
C877 C14 1.306 . S
C881 C308 1.243 . S
C899 C254 1.048 . S
C895 C53 1.143 . S
C917 C265 1.215 . S
C913 C0 1.284 . S
C931 C23 1.206 . S
C935 C290 1.045 . S
C953 C301 1.298 . S
C949 C33 1.348 . S
C967 C159 1.159 . S
C971 C302 1.035 . S
C985 C123 1.337 . S
C989 C256 1.298 . S
C1007 C266 1.046 . S
C1003 C131 1.212 . S
C1021 C149 1.276 . S
C1025 C292 1.240 . S
C1043 C274 1.016 . S
C1039 C154 1.111 . S
C1057 C121 1.306 . S
C1061 C284 1.280 . S
C1079 C310 1.059 . S
C1075 C126 1.163 . S
C1097 C248 1.323 . S
C1093 C151 1.371 . S
C1115 C175 1.139 . S
C1111 C145 1.247 . S
C1133 C230 1.089 . S
C1129 C75 1.203 . S
C1147 C95 1.311 . S
C1151 C184 1.253 . S
C1169 C202 1.008 . S
C1165 C98 1.131 . S
C1187 C176 1.227 . S
C1183 C165 1.275 . S
C1201 C112 1.167 . S
C1205 C218 1.045 1_556 S
C1219 C93 1.356 . S
C1223 C200 1.307 . S
C1237 C65 1.319 . S
C1241 C229 1.289 . S
