# Generated by pormake.
# Topology apo, (3,6)-cn, num edge types: 1
# Building blocks:
#     Node 0, Type 0, BuildingBlock: QEWDON_clean_linker_0, # of connection points: 3
#     Node 1, Type 0, BuildingBlock: QEWDON_clean_linker_0, # of connection points: 3
#     Node 2, Type 0, BuildingBlock: QEWDON_clean_linker_0, # of connection points: 3
#     Node 3, Type 0, BuildingBlock: QEWDON_clean_linker_0, # of connection points: 3
#     Node 4, Type 0, BuildingBlock: QEWDON_clean_linker_0, # of connection points: 3
#     Node 5, Type 0, BuildingBlock: QEWDON_clean_linker_0, # of connection points: 3
#     Node 6, Type 0, BuildingBlock: QEWDON_clean_linker_0, # of connection points: 3
#     Node 7, Type 0, BuildingBlock: QEWDON_clean_linker_0, # of connection points: 3
#     Node 8, Type 1, BuildingBlock: KUMBUR_clean_sbu_1, # of connection points: 6
#     Node 9, Type 1, BuildingBlock: KUMBUR_clean_sbu_1, # of connection points: 6
#     Node 10, Type 1, BuildingBlock: KUMBUR_clean_sbu_1, # of connection points: 6
#     Node 11, Type 1, BuildingBlock: KUMBUR_clean_sbu_1, # of connection points: 6
#     Edge 12, Type (0, 1), BuildingBlock: ZUJKAS_clean_linker_0, # of connection points: 2
#     Edge 13, Type (0, 1), BuildingBlock: ZUJKAS_clean_linker_0, # of connection points: 2
#     Edge 14, Type (0, 1), BuildingBlock: ZUJKAS_clean_linker_0, # of connection points: 2
#     Edge 15, Type (0, 1), BuildingBlock: ZUJKAS_clean_linker_0, # of connection points: 2
#     Edge 16, Type (0, 1), BuildingBlock: ZUJKAS_clean_linker_0, # of connection points: 2
#     Edge 17, Type (0, 1), BuildingBlock: ZUJKAS_clean_linker_0, # of connection points: 2
#     Edge 18, Type (0, 1), BuildingBlock: ZUJKAS_clean_linker_0, # of connection points: 2
#     Edge 19, Type (0, 1), BuildingBlock: ZUJKAS_clean_linker_0, # of connection points: 2
#     Edge 20, Type (0, 1), BuildingBlock: ZUJKAS_clean_linker_0, # of connection points: 2
#     Edge 21, Type (0, 1), BuildingBlock: ZUJKAS_clean_linker_0, # of connection points: 2
#     Edge 22, Type (0, 1), BuildingBlock: ZUJKAS_clean_linker_0, # of connection points: 2
#     Edge 23, Type (0, 1), BuildingBlock: ZUJKAS_clean_linker_0, # of connection points: 2
#     Edge 24, Type (0, 1), BuildingBlock: ZUJKAS_clean_linker_0, # of connection points: 2
#     Edge 25, Type (0, 1), BuildingBlock: ZUJKAS_clean_linker_0, # of connection points: 2
#     Edge 26, Type (0, 1), BuildingBlock: ZUJKAS_clean_linker_0, # of connection points: 2
#     Edge 27, Type (0, 1), BuildingBlock: ZUJKAS_clean_linker_0, # of connection points: 2
#     Edge 28, Type (0, 1), BuildingBlock: ZUJKAS_clean_linker_0, # of connection points: 2
#     Edge 29, Type (0, 1), BuildingBlock: ZUJKAS_clean_linker_0, # of connection points: 2
#     Edge 30, Type (0, 1), BuildingBlock: ZUJKAS_clean_linker_0, # of connection points: 2
#     Edge 31, Type (0, 1), BuildingBlock: ZUJKAS_clean_linker_0, # of connection points: 2
#     Edge 32, Type (0, 1), BuildingBlock: ZUJKAS_clean_linker_0, # of connection points: 2
#     Edge 33, Type (0, 1), BuildingBlock: ZUJKAS_clean_linker_0, # of connection points: 2
#     Edge 34, Type (0, 1), BuildingBlock: ZUJKAS_clean_linker_0, # of connection points: 2
#     Edge 35, Type (0, 1), BuildingBlock: ZUJKAS_clean_linker_0, # of connection points: 2
# Relax obj value: 0.074
# Max RMSD: 0.250
# Mean RMSD: 0.201
data_MOF--net-apo--node1-KUMBUR_clean_sbu_1--node2-QEWDON_clean_linker_0--edge1-ZUJKAS_clean_linker_0
_symmetry_space_group_name_H-M    P1
_symmetry_Int_Tables_number       1
_symmetry_cell_setting            triclinic
loop_
_symmetry_equiv_pos_as_xyz
'x, y, z'
_cell_length_a     38.17456
_cell_length_b     56.11425
_cell_length_c     64.522254
_cell_angle_alpha  90.048587
_cell_angle_beta   89.934181
_cell_angle_gamma 90.22584
loop_
_atom_site_label
_atom_site_type_symbol
_atom_site_fract_x
_atom_site_fract_y
_atom_site_fract_z
_atom_type_partial_charge
H0 H 0.28183 0.40042 0.3906 0.0
C1 C 0.29234 0.39875 0.40613 0.0
C2 C 0.32275 0.41151 0.41176 0.0
C3 C 0.27365 0.38552 0.42101 0.0
H4 H 0.35874 0.41944 0.43663 0.0
C5 C 0.33501 0.41002 0.43231 0.0
C6 C 0.31676 0.39677 0.44738 0.0
C7 C 0.28614 0.38454 0.44148 0.0
C8 C 0.23827 0.37591 0.41626 0.0
H9 H 0.2709 0.37509 0.45306 0.0
C10 C 0.2326 0.35851 0.40077 0.0
C11 C 0.19841 0.34974 0.39694 0.0
C12 C 0.20963 0.38447 0.4277 0.0
H13 H 0.21334 0.3979 0.43958 0.0
C14 C 0.17595 0.37598 0.42388 0.0
H15 H 0.25458 0.35179 0.39191 0.0
C16 C 0.17033 0.35875 0.40869 0.0
H17 H 0.14392 0.35213 0.40641 0.0
H18 H 0.1541 0.38268 0.43283 0.0
H19 H 0.24013 0.12769 0.88746 0.0
C20 C 0.22789 0.12917 0.90257 0.0
C21 C 0.19687 0.1164 0.90687 0.0
C22 C 0.24417 0.14289 0.91806 0.0
H23 H 0.15899 0.10733 0.93042 0.0
C24 C 0.18196 0.11795 0.9268 0.0
C25 C 0.19787 0.13163 0.9425 0.0
C26 C 0.22884 0.14419 0.93785 0.0
C27 C 0.27952 0.15328 0.91466 0.0
H28 H 0.24157 0.15473 0.94976 0.0
C29 C 0.28637 0.1698 0.89865 0.0
C30 C 0.32046 0.17923 0.89595 0.0
C31 C 0.30692 0.1463 0.92781 0.0
H32 H 0.30231 0.13356 0.94013 0.0
C33 C 0.34057 0.15544 0.92509 0.0
H34 H 0.26535 0.17533 0.88848 0.0
C35 C 0.34735 0.17176 0.90932 0.0
H36 H 0.37363 0.17892 0.90785 0.0
H37 H 0.36148 0.14993 0.93532 0.0
H38 H 0.78598 0.13856 0.64252 0.0
C39 C 0.79919 0.1389 0.62765 0.0
C40 C 0.82952 0.12508 0.62445 0.0
C41 C 0.78479 0.15223 0.61134 0.0
H42 H 0.86854 0.11443 0.60201 0.0
C43 C 0.84569 0.12536 0.60479 0.0
C44 C 0.83178 0.1388 0.58839 0.0
C45 C 0.80146 0.15228 0.59191 0.0
C46 C 0.75005 0.16374 0.61348 0.0
H47 H 0.78974 0.16204 0.57921 0.0
C48 C 0.74341 0.18131 0.62864 0.0
C49 C 0.71084 0.19313 0.62901 0.0
C50 C 0.72344 0.15749 0.59942 0.0
H51 H 0.72782 0.14387 0.5878 0.0
C52 C 0.691 0.16871 0.60015 0.0
H53 H 0.76382 0.18643 0.63944 0.0
C54 C 0.68478 0.18653 0.61471 0.0
H55 H 0.65947 0.19521 0.61484 0.0
H56 H 0.67071 0.16376 0.58924 0.0
H57 H 0.74162 0.38946 0.13937 0.0
C58 C 0.72804 0.38885 0.12464 0.0
C59 C 0.69727 0.4023 0.1216 0.0
C60 C 0.74242 0.37541 0.10839 0.0
H61 H 0.65757 0.41199 0.09915 0.0
C62 C 0.68045 0.40117 0.10212 0.0
C63 C 0.69418 0.38734 0.08588 0.0
C64 C 0.72518 0.37457 0.08921 0.0
C65 C 0.77755 0.36446 0.11026 0.0
H66 H 0.73629 0.36407 0.07673 0.0
C67 C 0.78483 0.34661 0.12502 0.0
C68 C 0.81781 0.33531 0.12508 0.0
C69 C 0.80384 0.37148 0.09626 0.0
H70 H 0.79887 0.38527 0.08489 0.0
C71 C 0.83669 0.36082 0.09671 0.0
H72 H 0.76459 0.34088 0.13573 0.0
C73 C 0.84361 0.34277 0.1109 0.0
H74 H 0.86927 0.33458 0.11082 0.0
H75 H 0.85676 0.36639 0.08586 0.0
H76 H 0.69396 0.65029 0.64337 0.0
C77 C 0.69025 0.64566 0.62721 0.0
C78 C 0.67995 0.62231 0.62171 0.0
C79 C 0.69397 0.66342 0.61199 0.0
H80 H 0.66564 0.59922 0.59625 0.0
C81 C 0.67428 0.61692 0.60064 0.0
C82 C 0.67818 0.63439 0.5852 0.0
C83 C 0.68835 0.65751 0.59106 0.0
C84 C 0.69893 0.68883 0.61788 0.0
H85 H 0.69035 0.67133 0.57938 0.0
C86 C 0.72647 0.69644 0.63097 0.0
C87 C 0.73012 0.72082 0.63616 0.0
C88 C 0.67519 0.70577 0.61023 0.0
H89 H 0.6536 0.70039 0.60037 0.0
C90 C 0.67872 0.72975 0.61533 0.0
H91 H 0.74488 0.68354 0.63698 0.0
C92 C 0.70593 0.73726 0.62814 0.0
H93 H 0.70834 0.75611 0.63153 0.0
H94 H 0.66032 0.74261 0.60928 0.0
H95 H 0.84318 0.87394 0.14897 0.0
C96 C 0.84219 0.87565 0.13224 0.0
C97 C 0.85017 0.89765 0.12283 0.0
C98 C 0.83554 0.85534 0.12013 0.0
H99 H 0.85731 0.91587 0.09366 0.0
C100 C 0.85071 0.8991 0.10103 0.0
C101 C 0.84441 0.87885 0.08868 0.0
C102 C 0.83662 0.85706 0.09844 0.0
C103 C 0.83418 0.83154 0.12987 0.0
H104 H 0.83243 0.84116 0.0892 0.0
C105 C 0.80235 0.82097 0.13624 0.0
C106 C 0.8021 0.79753 0.14421 0.0
C107 C 0.86555 0.81884 0.13192 0.0
H108 H 0.89019 0.82672 0.12706 0.0
C109 C 0.86541 0.79585 0.14004 0.0
H110 H 0.77802 0.83065 0.13453 0.0
C111 C 0.83396 0.7852 0.14605 0.0
H112 H 0.83455 0.7673 0.15233 0.0
H113 H 0.88975 0.78618 0.14156 0.0
H114 H 0.18051 0.86371 0.37845 0.0
C115 C 0.1763 0.86722 0.39478 0.0
C116 C 0.16662 0.89022 0.40143 0.0
C117 C 0.1791 0.84847 0.40908 0.0
H118 H 0.15146 0.91163 0.42775 0.0
C119 C 0.16035 0.89426 0.42268 0.0
C120 C 0.16323 0.87571 0.43722 0.0
C121 C 0.17302 0.85297 0.43021 0.0
C122 C 0.18464 0.82355 0.40208 0.0
H123 H 0.17559 0.83848 0.4412 0.0
C124 C 0.21392 0.81688 0.39001 0.0
C125 C 0.21953 0.79266 0.38515 0.0
C126 C 0.16054 0.80596 0.40836 0.0
H127 H 0.13768 0.81068 0.41743 0.0
C128 C 0.16563 0.78216 0.40309 0.0
H129 H 0.23287 0.83022 0.38524 0.0
C130 C 0.19502 0.7755 0.39172 0.0
H131 H 0.19867 0.75683 0.38802 0.0
H132 H 0.1469 0.76879 0.40803 0.0
H133 H 0.3281 0.65686 0.88138 0.0
C134 C 0.33032 0.65349 0.89787 0.0
C135 C 0.33811 0.63041 0.90505 0.0
C136 C 0.32723 0.6726 0.91178 0.0
H137 H 0.34832 0.60905 0.93227 0.0
C138 C 0.34131 0.62655 0.92657 0.0
C139 C 0.33805 0.64554 0.94071 0.0
C140 C 0.331 0.66848 0.9331 0.0
C141 C 0.32463 0.69736 0.904 0.0
H142 H 0.32881 0.68334 0.94377 0.0
C143 C 0.29633 0.70484 0.89162 0.0
C144 C 0.29518 0.72843 0.8841 0.0
C145 C 0.35146 0.71362 0.90886 0.0
H146 H 0.37349 0.7082 0.91831 0.0
C147 C 0.35047 0.73686 0.90131 0.0
H148 H 0.27541 0.69245 0.88789 0.0
C149 C 0.32262 0.74423 0.88897 0.0
H150 H 0.3222 0.76248 0.88349 0.0
H151 H 0.37136 0.74923 0.90507 0.0
Tb152 Tb 0.057 0.12618 0.24416 0.0
C153 C 0.90263 0.10611 0.27231 0.0
N154 N 0.9211 0.12649 0.27573 0.0
C155 C 0.87101 0.14977 0.2663 0.0
C156 C 0.86766 0.10675 0.2654 0.0
C157 C 0.90566 0.14819 0.27319 0.0
C158 C 0.85198 0.12896 0.26227 0.0
C159 C 0.90087 0.0629 0.27264 0.0
C160 C 0.91906 0.0845 0.27575 0.0
C161 C 0.86613 0.06339 0.2655 0.0
C162 C 0.84957 0.08526 0.26188 0.0
Tb163 Tb 0.97805 0.12181 0.28574 0.0
N164 N 0.95301 0.08479 0.28222 0.0
C165 C 0.91812 0.04152 0.27694 0.0
C166 C 0.96909 0.06406 0.28768 0.0
C167 C 0.95219 0.04213 0.28477 0.0
H168 H 0.91983 0.16431 0.27688 0.0
H169 H 0.96535 0.02573 0.2888 0.0
H170 H 0.11907 0.08841 0.25834 0.0
H171 H 0.05607 0.22246 0.2367 0.0
H172 H 0.99456 0.0642 0.29464 0.0
H173 H 0.90511 0.02451 0.27472 0.0
H174 H 0.03292 0.18209 0.23187 0.0
H175 H 0.85896 0.16703 0.26422 0.0
H176 H 0.85177 0.04697 0.26287 0.0
H177 H 0.82271 0.08537 0.25647 0.0
H178 H 0.17949 0.09069 0.27173 0.0
H179 H 0.82514 0.13023 0.25695 0.0
H180 H 0.11512 0.22842 0.25161 0.0
N181 N 0.11331 0.12598 0.25587 0.0
C182 C 0.12895 0.14766 0.25784 0.0
C183 C 0.16549 0.10686 0.26799 0.0
C184 C 0.16343 0.14982 0.26541 0.0
C185 C 0.1311 0.10564 0.26059 0.0
C186 C 0.1817 0.12905 0.27049 0.0
N187 N 0.07604 0.16494 0.24637 0.0
C188 C 0.05756 0.18421 0.23961 0.0
C189 C 0.12463 0.19066 0.25535 0.0
C190 C 0.10967 0.1678 0.25299 0.0
C191 C 0.10464 0.21054 0.24998 0.0
C192 C 0.07118 0.20726 0.24174 0.0
H193 H 0.20826 0.12994 0.27635 0.0
H194 H 0.20474 0.1746 0.27382 0.0
H195 H 0.17078 0.21036 0.26498 0.0
O196 O 0.05556 0.13674 0.21287 0.0
O197 O 0.06512 0.13819 0.27635 0.0
O198 O 0.01217 0.15338 0.28673 0.0
O199 O 0.09158 0.11 0.22293 0.0
O200 O 0.00576 0.14227 0.23686 0.0
O201 O 0.98261 0.15488 0.26809 0.0
O202 O 0.98629 0.11253 0.317 0.0
O203 O 0.96997 0.10671 0.25443 0.0
O204 O 0.02378 0.09443 0.24209 0.0
O205 O 0.94559 0.13687 0.3087 0.0
O206 O 0.02741 0.10287 0.2922 0.0
O207 O 0.05441 0.09238 0.26114 0.0
C208 C 0.04662 0.15353 0.28709 0.0
C209 C 0.06967 0.10685 0.18877 0.0
C210 C 0.0709 0.10073 0.15121 0.0
C211 C 0.04935 0.08053 0.15375 0.0
C212 C 0.04851 0.08652 0.19087 0.0
C213 C 0.03835 0.07349 0.17346 0.0
C214 C 0.08102 0.11384 0.16891 0.0
C215 C 0.98438 0.15588 0.24774 0.0
C216 C 0.07893 0.12132 0.20707 0.0
C217 C 0.17832 0.17256 0.26794 0.0
C218 C 0.15896 0.19293 0.26293 0.0
C219 C 0.98949 0.09257 0.24303 0.0
C220 C 0.9359 0.1129 0.33829 0.0
C221 C 0.91481 0.10615 0.37365 0.0
C222 C 0.89114 0.08903 0.36595 0.0
C223 C 0.91184 0.09589 0.3311 0.0
C224 C 0.93714 0.11817 0.35964 0.0
C225 C 0.88967 0.08402 0.34483 0.0
C226 C 0.04847 0.08919 0.28114 0.0
C227 C 0.95992 0.12501 0.32371 0.0
H228 H 0.04144 0.06994 0.14051 0.0
H229 H 0.03986 0.08072 0.20596 0.0
H230 H 0.02193 0.05785 0.17525 0.0
H231 H 0.09719 0.12964 0.16723 0.0
H232 H 0.8733 0.07976 0.37626 0.0
H233 H 0.91001 0.09176 0.31491 0.0
H234 H 0.95566 0.13131 0.36534 0.0
H235 H 0.87118 0.07094 0.33905 0.0
Tb236 Tb 0.47089 0.40222 0.74177 0.0
C237 C 0.61365 0.42431 0.77596 0.0
N238 N 0.59602 0.40337 0.77808 0.0
C239 C 0.64717 0.38212 0.76683 0.0
C240 C 0.64806 0.42511 0.76805 0.0
C241 C 0.61326 0.38232 0.77508 0.0
C242 C 0.66438 0.40365 0.76283 0.0
C243 C 0.616 0.46674 0.78289 0.0
C244 C 0.59807 0.44478 0.7833 0.0
C245 C 0.64949 0.46796 0.77389 0.0
C246 C 0.66549 0.44716 0.76645 0.0
Tb247 Tb 0.53925 0.40632 0.78976 0.0
N248 N 0.56535 0.44295 0.79137 0.0
C249 C 0.59996 0.48662 0.79193 0.0
C250 C 0.55044 0.46184 0.80139 0.0
C251 C 0.56729 0.48405 0.80155 0.0
H252 H 0.60117 0.36558 0.77923 0.0
H253 H 0.55504 0.49916 0.809 0.0
H254 H 0.3997 0.42448 0.76333 0.0
H255 H 0.49465 0.31695 0.70484 0.0
H256 H 0.52518 0.45983 0.80875 0.0
H257 H 0.61288 0.50384 0.79198 0.0
H258 H 0.50574 0.35934 0.71195 0.0
H259 H 0.66022 0.36537 0.76388 0.0
H260 H 0.66357 0.48473 0.77311 0.0
H261 H 0.69176 0.44821 0.76013 0.0
H262 H 0.34131 0.40999 0.77429 0.0
H263 H 0.69081 0.40345 0.75669 0.0
H264 H 0.44148 0.29738 0.71882 0.0
N265 N 0.41638 0.3906 0.75239 0.0
C266 C 0.40732 0.3676 0.74857 0.0
C267 C 0.35974 0.39784 0.7672 0.0
C268 C 0.37448 0.35848 0.75469 0.0
C269 C 0.39285 0.40597 0.76105 0.0
C270 C 0.35063 0.37393 0.76421 0.0
N271 N 0.4621 0.36319 0.73227 0.0
C272 C 0.48374 0.35075 0.71932 0.0
C273 C 0.42306 0.32929 0.73417 0.0
C274 C 0.43136 0.35327 0.73858 0.0
C275 C 0.44685 0.31586 0.72257 0.0
C276 C 0.47698 0.3268 0.71475 0.0
H277 H 0.32507 0.36763 0.76912 0.0
H278 H 0.34165 0.32691 0.75589 0.0
H279 H 0.38418 0.30133 0.73782 0.0
O280 O 0.45671 0.39913 0.71035 0.0
O281 O 0.45766 0.38831 0.77274 0.0
O282 O 0.5087 0.37338 0.78602 0.0
O283 O 0.44908 0.43197 0.72667 0.0
O284 O 0.52422 0.38788 0.73747 0.0
O285 O 0.54198 0.3745 0.76973 0.0
O286 O 0.52216 0.40985 0.82058 0.0
O287 O 0.5333 0.43571 0.76742 0.0
O288 O 0.52321 0.41714 0.7365 0.0
O289 O 0.57263 0.39534 0.81397 0.0
O290 O 0.48676 0.42131 0.79431 0.0
O291 O 0.46521 0.43363 0.76223 0.0
C292 C 0.4747 0.37186 0.78301 0.0
C293 C 0.40985 0.42289 0.69895 0.0
C294 C 0.37529 0.42111 0.66694 0.0
C295 C 0.34528 0.42708 0.67851 0.0
C296 C 0.37962 0.42927 0.70999 0.0
C297 C 0.34753 0.43117 0.69982 0.0
C298 C 0.40754 0.4189 0.67742 0.0
C299 C 0.54253 0.37334 0.7493 0.0
C300 C 0.44412 0.42051 0.70936 0.0
C301 C 0.36659 0.33437 0.75109 0.0
C302 C 0.39087 0.31978 0.74088 0.0
C303 C 0.53712 0.43458 0.74726 0.0
C304 C 0.54401 0.38179 0.84421 0.0
C305 C 0.54984 0.36849 0.88013 0.0
C306 C 0.53014 0.348 0.8752 0.0
C307 C 0.52462 0.36119 0.83962 0.0
C308 C 0.55673 0.38532 0.86442 0.0
C309 C 0.51773 0.3444 0.85506 0.0
C310 C 0.46774 0.4357 0.78267 0.0
C311 C 0.55002 0.4002 0.82837 0.0
H312 H 0.3199 0.42845 0.67113 0.0
H313 H 0.38073 0.43293 0.72642 0.0
H314 H 0.32428 0.43589 0.70849 0.0
H315 H 0.43106 0.41449 0.66883 0.0
H316 H 0.52467 0.33462 0.88686 0.0
H317 H 0.51464 0.35818 0.82418 0.0
H318 H 0.57134 0.40141 0.868 0.0
H319 H 0.50266 0.32856 0.85142 0.0
Tb320 Tb 0.04167 0.90113 0.74333 0.0
C321 C 0.89573 0.87157 0.77339 0.0
N322 N 0.90902 0.894 0.7718 0.0
C323 C 0.85582 0.90742 0.75602 0.0
C324 C 0.8618 0.86615 0.76616 0.0
C325 C 0.88953 0.91199 0.76354 0.0
C326 C 0.8419 0.88439 0.7573 0.0
C327 C 0.90324 0.8307 0.78451 0.0
C328 C 0.91648 0.85405 0.78221 0.0
C329 C 0.86945 0.82518 0.77735 0.0
C330 C 0.84885 0.84282 0.76809 0.0
Tb331 Tb 0.96321 0.89972 0.78564 0.0
N332 N 0.94889 0.86016 0.78933 0.0
C333 C 0.92381 0.81379 0.79464 0.0
C334 C 0.96731 0.84425 0.80106 0.0
C335 C 0.95574 0.82072 0.80326 0.0
H336 H 0.89983 0.92991 0.76294 0.0
H337 H 0.97094 0.80814 0.81219 0.0
H338 H 0.09652 0.85673 0.75247 0.0
H339 H 0.06185 0.99651 0.73887 0.0
H340 H 0.99012 0.84964 0.80966 0.0
H341 H 0.91461 0.79565 0.7967 0.0
H342 H 0.02913 0.95906 0.7343 0.0
H343 H 0.84049 0.92168 0.74938 0.0
H344 H 0.85882 0.80737 0.77915 0.0
H345 H 0.82281 0.83828 0.76266 0.0
H346 H 0.15709 0.85194 0.76523 0.0
H347 H 0.81573 0.88093 0.75153 0.0
H348 H 0.12275 0.99573 0.75194 0.0
N349 N 0.09825 0.89452 0.75329 0.0
C350 C 0.11847 0.91424 0.75616 0.0
C351 C 0.14647 0.86958 0.76288 0.0
C352 C 0.15344 0.91242 0.76289 0.0
C353 C 0.11198 0.87233 0.75601 0.0
C354 C 0.16724 0.88972 0.76649 0.0
N355 N 0.06984 0.93718 0.74601 0.0
C356 C 0.05511 0.95839 0.74059 0.0
C357 C 0.12396 0.95728 0.75463 0.0
C358 C 0.10394 0.93634 0.75213 0.0
C359 C 0.10833 0.97918 0.75014 0.0
C360 C 0.07389 0.9797 0.74287 0.0
H361 H 0.19398 0.88754 0.77174 0.0
H362 H 0.20034 0.93226 0.77096 0.0
H363 H 0.17451 0.97154 0.76373 0.0
O364 O 0.03506 0.91071 0.71192 0.0
O365 O 0.05104 0.91782 0.77393 0.0
O366 O 0.99807 0.93062 0.78738 0.0
O367 O 0.07172 0.8837 0.72054 0.0
O368 O 0.99358 0.92133 0.73664 0.0
O369 O 0.9663 0.93263 0.76748 0.0
O370 O 0.9611 0.89533 0.81815 0.0
O371 O 0.95396 0.88756 0.75358 0.0
O372 O 0.00559 0.87052 0.7431 0.0
O373 O 0.92663 0.91955 0.80285 0.0
O374 O 0.01457 0.88393 0.79312 0.0
O375 O 0.03449 0.869 0.76197 0.0
C376 C 0.0323 0.93219 0.78563 0.0
C377 C 0.08575 0.90666 0.69096 0.0
C378 C 0.10754 0.91298 0.65559 0.0
C379 C 0.13636 0.92549 0.66384 0.0
C380 C 0.11494 0.91907 0.6986 0.0
C381 C 0.13992 0.9285 0.68516 0.0
C382 C 0.08217 0.90356 0.66936 0.0
C383 C 0.97302 0.93554 0.74754 0.0
C384 C 0.05957 0.89646 0.7054 0.0
C385 C 0.17343 0.93326 0.76571 0.0
C386 C 0.15874 0.95563 0.76157 0.0
C387 C 0.97115 0.87124 0.74316 0.0
C388 C 0.90455 0.89986 0.83267 0.0
C389 C 0.87961 0.88877 0.86636 0.0
C390 C 0.84843 0.88203 0.85629 0.0
C391 C 0.87284 0.89336 0.82315 0.0
C392 C 0.90772 0.89767 0.85436 0.0
C393 C 0.84515 0.88434 0.83488 0.0
C394 C 0.03406 0.86898 0.78234 0.0
C395 C 0.93419 0.90922 0.82026 0.0
H396 H 0.15673 0.93251 0.65385 0.0
H397 H 0.11882 0.92122 0.71494 0.0
H398 H 0.1624 0.93794 0.69132 0.0
H399 H 0.05973 0.89391 0.66334 0.0
H400 H 0.82617 0.87547 0.86504 0.0
H401 H 0.86912 0.89549 0.80669 0.0
H402 H 0.93203 0.90279 0.86183 0.0
H403 H 0.82086 0.87938 0.82735 0.0
Tb404 Tb 0.47448 0.61568 0.2384 0.0
C405 C 0.6195 0.64473 0.27098 0.0
N406 N 0.60297 0.62332 0.2727 0.0
C407 C 0.65575 0.60349 0.26211 0.0
C408 C 0.65441 0.64643 0.26395 0.0
C409 C 0.62139 0.60275 0.26966 0.0
C410 C 0.67213 0.62545 0.25887 0.0
C411 C 0.619 0.68726 0.27775 0.0
C412 C 0.60219 0.66487 0.27778 0.0
C413 C 0.65322 0.68923 0.2699 0.0
C414 C 0.67091 0.66884 0.26305 0.0
Tb415 Tb 0.54605 0.6248 0.28426 0.0
N416 N 0.569 0.66232 0.28498 0.0
C417 C 0.60108 0.70685 0.28596 0.0
C418 C 0.5521 0.68102 0.2941 0.0
C419 C 0.56765 0.70365 0.29442 0.0
H420 H 0.61014 0.58564 0.27345 0.0
H421 H 0.55392 0.71856 0.30124 0.0
H422 H 0.40517 0.63837 0.26193 0.0
H423 H 0.49788 0.52782 0.20639 0.0
H424 H 0.52646 0.6785 0.30086 0.0
H425 H 0.61307 0.72438 0.28622 0.0
H426 H 0.50771 0.57091 0.21025 0.0
H427 H 0.66982 0.58711 0.25924 0.0
H428 H 0.66649 0.70633 0.2695 0.0
H429 H 0.69764 0.67051 0.25756 0.0
H430 H 0.34933 0.62383 0.27666 0.0
H431 H 0.69894 0.62597 0.25334 0.0
H432 H 0.44689 0.50871 0.22341 0.0
N433 N 0.42194 0.60405 0.25223 0.0
C434 C 0.41323 0.5807 0.25003 0.0
C435 C 0.36722 0.61146 0.26937 0.0
C436 C 0.38163 0.57157 0.25813 0.0
C437 C 0.39905 0.61963 0.26122 0.0
C438 C 0.35859 0.58728 0.26799 0.0
N439 N 0.46619 0.57581 0.23183 0.0
C440 C 0.48698 0.56261 0.21898 0.0
C441 C 0.42877 0.54157 0.2373 0.0
C442 C 0.43656 0.56598 0.23988 0.0
C443 C 0.45187 0.52755 0.22575 0.0
C444 C 0.48077 0.53823 0.21622 0.0
H445 H 0.33402 0.58098 0.27442 0.0
H446 H 0.3502 0.53971 0.26245 0.0
H447 H 0.39148 0.5134 0.24416 0.0
O448 O 0.45996 0.60984 0.20736 0.0
O449 O 0.46585 0.6033 0.27049 0.0
O450 O 0.51899 0.59048 0.28214 0.0
O451 O 0.44645 0.64246 0.22257 0.0
O452 O 0.52793 0.60235 0.23275 0.0
O453 O 0.55066 0.5924 0.26496 0.0
O454 O 0.52846 0.62695 0.31514 0.0
O455 O 0.53796 0.65229 0.26048 0.0
O456 O 0.52505 0.6322 0.23051 0.0
O457 O 0.58161 0.61771 0.30841 0.0
O458 O 0.49333 0.63967 0.28897 0.0
O459 O 0.47017 0.64882 0.25649 0.0
C460 C 0.48498 0.58768 0.28043 0.0
C461 C 0.40951 0.62906 0.19506 0.0
C462 C 0.37642 0.62725 0.16257 0.0
C463 C 0.34522 0.62575 0.17413 0.0
C464 C 0.37801 0.62774 0.2062 0.0
C465 C 0.34609 0.62605 0.19576 0.0
C466 C 0.40855 0.62891 0.17325 0.0
C467 C 0.549 0.58972 0.24463 0.0
C468 C 0.44375 0.62997 0.20564 0.0
C469 C 0.3742 0.54714 0.25617 0.0
C470 C 0.39777 0.53215 0.24582 0.0
C471 C 0.54148 0.64939 0.24043 0.0
C472 C 0.55703 0.60181 0.33891 0.0
C473 C 0.56687 0.58972 0.37486 0.0
C474 C 0.55423 0.56681 0.36987 0.0
C475 C 0.54477 0.57885 0.33428 0.0
C476 C 0.56812 0.60717 0.35916 0.0
C477 C 0.54328 0.56148 0.34973 0.0
C478 C 0.47235 0.65211 0.27678 0.0
C479 C 0.55832 0.62041 0.32287 0.0
H480 H 0.32005 0.62475 0.16644 0.0
H481 H 0.37796 0.62804 0.22289 0.0
H482 H 0.3219 0.62504 0.20449 0.0
H483 H 0.4329 0.62975 0.1646 0.0
H484 H 0.55329 0.55288 0.38147 0.0
H485 H 0.53644 0.57437 0.31876 0.0
H486 H 0.57729 0.62502 0.36271 0.0
H487 H 0.53375 0.54378 0.34605 0.0
H488 H 0.13186 0.88743 0.36438 0.0
H489 H 0.11682 0.9201 0.34092 0.0
H490 H 0.17046 0.9698 0.38092 0.0
H491 H 0.18618 0.93717 0.40425 0.0
H492 H 0.07648 0.95973 0.35219 0.0
H493 H 0.20692 0.98781 0.32285 0.0
H494 H 0.19939 0.95923 0.33498 0.0
H495 H 0.20418 0.98559 0.35058 0.0
C496 C 0.14117 0.90522 0.36794 0.0
C497 C 0.16031 0.90967 0.38618 0.0
C498 C 0.13236 0.9239 0.35458 0.0
C499 C 0.14281 0.94736 0.35904 0.0
C500 C 0.1626 0.95179 0.37697 0.0
H501 H 0.05211 0.08089 0.32282 0.0
H502 H 0.07584 0.04603 0.34043 0.0
C503 C 0.17129 0.93315 0.39039 0.0
C504 C 0.13075 0.96741 0.34585 0.0
H505 H 0.15935 0.01435 0.3165 0.0
C506 C 0.0946 0.97154 0.34425 0.0
C507 C 0.15439 0.98272 0.33536 0.0
C508 C 0.19339 0.97856 0.33582 0.0
C509 C 0.08152 0.99097 0.33299 0.0
C510 C 0.1052 1.00679 0.32317 0.0
C511 C 0.1413 1.00229 0.32419 0.0
C512 C 0.09274 0.02846 0.31234 0.0
C513 C 0.04242 0.99455 0.33173 0.0
C514 C 0.09509 0.03037 0.2907 0.0
C515 C 0.08134 0.0503 0.28049 0.0
C516 C 0.06534 0.06876 0.29181 0.0
C517 C 0.06405 0.06701 0.31357 0.0
C518 C 0.07757 0.04707 0.32369 0.0
H519 H 0.02771 0.97822 0.33622 0.0
H520 H 0.03472 1.00913 0.34242 0.0
H521 H 0.03457 0.99978 0.31581 0.0
H522 H 0.10674 0.01617 0.28167 0.0
H523 H 0.08255 0.05094 0.26373 0.0
H524 H 0.31883 0.58318 0.90714 0.0
H525 H 0.33683 0.55073 0.884 0.0
H526 H 0.39324 0.60097 0.84592 0.0
H527 H 0.37625 0.63332 0.86915 0.0
H528 H 0.32858 0.5441 0.83935 0.0
H529 H 0.46771 0.55152 0.86403 0.0
H530 H 0.43235 0.56498 0.87842 0.0
H531 H 0.44817 0.57871 0.85506 0.0
C532 C 0.33503 0.58732 0.89382 0.0
C533 C 0.34617 0.61088 0.89008 0.0
C534 C 0.34508 0.56879 0.88054 0.0
C535 C 0.36666 0.57342 0.86336 0.0
C536 C 0.37685 0.59697 0.85919 0.0
H537 H 0.43178 0.47341 0.76555 0.0
H538 H 0.40489 0.50701 0.78399 0.0
C539 C 0.3668 0.61549 0.87241 0.0
C540 C 0.37999 0.55351 0.85041 0.0
H541 H 0.45504 0.52417 0.83728 0.0
C542 C 0.35622 0.53975 0.83882 0.0
C543 C 0.41604 0.54777 0.84989 0.0
C544 C 0.44261 0.56135 0.86262 0.0
C545 C 0.36765 0.52041 0.82666 0.0
C546 C 0.40373 0.51482 0.82606 0.0
C547 C 0.42742 0.52861 0.83764 0.0
C548 C 0.41748 0.49387 0.8146 0.0
C549 C 0.34104 0.50571 0.815 0.0
C550 C 0.43339 0.47536 0.82566 0.0
C551 C 0.4487 0.45625 0.81524 0.0
C552 C 0.4488 0.45524 0.79343 0.0
C553 C 0.43214 0.47357 0.78233 0.0
C554 C 0.41666 0.49275 0.79284 0.0
H555 H 0.3138 0.50975 0.81991 0.0
H556 H 0.3434 0.5095 0.79818 0.0
H557 H 0.34595 0.4864 0.81731 0.0
H558 H 0.43432 0.47585 0.84244 0.0
H559 H 0.46103 0.44247 0.82439 0.0
H560 H 0.69443 0.5744 0.62085 0.0
H561 H 0.67337 0.54371 0.64472 0.0
H562 H 0.62721 0.59786 0.6834 0.0
H563 H 0.64664 0.62858 0.6591 0.0
H564 H 0.68283 0.53425 0.68599 0.0
H565 H 0.54348 0.55596 0.6706 0.0
H566 H 0.57885 0.56804 0.65527 0.0
H567 H 0.56871 0.58064 0.6802 0.0
C568 C 0.67974 0.57982 0.63442 0.0
C569 C 0.67182 0.60401 0.63783 0.0
C570 C 0.66793 0.56223 0.64814 0.0
C571 C 0.64798 0.5684 0.66561 0.0
C572 C 0.64182 0.5926 0.66975 0.0
H573 H 0.5405 0.48143 0.75839 0.0
H574 H 0.56983 0.51404 0.73989 0.0
C575 C 0.65342 0.61021 0.65596 0.0
C576 C 0.63249 0.54942 0.67893 0.0
H577 H 0.5544 0.52682 0.6962 0.0
C578 C 0.65476 0.53265 0.68823 0.0
C579 C 0.59579 0.54721 0.68177 0.0
C580 C 0.57025 0.56376 0.67129 0.0
C581 C 0.64133 0.5139 0.70038 0.0
C582 C 0.60473 0.51176 0.70316 0.0
C583 C 0.58249 0.52861 0.69408 0.0
C584 C 0.5888 0.49177 0.71494 0.0
C585 C 0.66628 0.49655 0.71031 0.0
C586 C 0.58962 0.46849 0.70698 0.0
C587 C 0.57282 0.44986 0.7175 0.0
C588 C 0.55514 0.4542 0.73623 0.0
C589 C 0.55448 0.47751 0.74419 0.0
C590 C 0.57104 0.49615 0.7336 0.0
H591 H 0.69373 0.5032 0.71005 0.0
H592 H 0.65854 0.493 0.72663 0.0
H593 H 0.66527 0.47938 0.70179 0.0
H594 H 0.60278 0.46481 0.69245 0.0
H595 H 0.57374 0.43205 0.71102 0.0
H596 H 0.90481 0.92833 0.11597 0.0
H597 H 0.92395 0.96177 0.13743 0.0
H598 H 0.8396 0.94782 0.1803 0.0
H599 H 0.82031 0.91412 0.15887 0.0
H600 H 0.89068 1.00259 0.14898 0.0
H601 H 0.92423 0.94889 0.21839 0.0
H602 H 0.91525 0.93553 0.1935 0.0
H603 H 0.87983 0.94545 0.2097 0.0
C604 C 0.89004 0.93249 0.12985 0.0
C605 C 0.86094 0.91854 0.13567 0.0
C606 C 0.90115 0.95157 0.14217 0.0
C607 C 0.88355 0.95715 0.16064 0.0
C608 C 0.8541 0.94355 0.16636 0.0
H609 H 0.9224 0.09091 0.22811 0.0
H610 H 0.89423 0.05823 0.20906 0.0
C611 C 0.84303 0.92434 0.15407 0.0
C612 C 0.89628 0.97723 0.17376 0.0
H613 H 0.92948 0.99073 0.22157 0.0
C614 C 0.89901 1.00002 0.16488 0.0
C615 C 0.90757 0.97382 0.19445 0.0
C616 C 0.90693 0.94958 0.20457 0.0
C617 C 0.91288 0.01941 0.17604 0.0
C618 C 0.92374 0.01604 0.19679 0.0
C619 C 0.92083 0.99331 0.20573 0.0
C620 C 0.93999 0.03558 0.20907 0.0
C621 C 0.91694 0.04314 0.16529 0.0
C622 C 0.9747 0.03343 0.21595 0.0
C623 C 0.99068 0.05193 0.22701 0.0
C624 C 0.97227 0.07298 0.23143 0.0
C625 C 0.93729 0.07494 0.22488 0.0
C626 C 0.92125 0.05636 0.21386 0.0
H627 H 0.91462 0.04144 0.14818 0.0
H628 H 0.89611 0.05538 0.17074 0.0
H629 H 0.94269 0.05137 0.16899 0.0
H630 H 0.9896 0.0175 0.21254 0.0
H631 H 0.01748 0.04972 0.23215 0.0
H632 H 0.89778 0.11567 0.63484 0.0
H633 H 0.91934 0.08471 0.65815 0.0
H634 H 0.81314 0.06674 0.67497 0.0
H635 H 0.79128 0.09693 0.651 0.0
H636 H 0.91251 0.07605 0.69986 0.0
H637 H 0.85057 1.00342 0.65412 0.0
H638 H 0.85353 0.03363 0.64475 0.0
H639 H 0.82043 0.02551 0.66333 0.0
C640 C 0.87897 0.10513 0.64348 0.0
C641 C 0.84275 0.10864 0.6408 0.0
C642 C 0.89136 0.08753 0.65691 0.0
C643 C 0.86786 0.07305 0.66799 0.0
C644 C 0.83176 0.07734 0.66624 0.0
H645 H 0.93407 0.972 0.76418 0.0
H646 H 0.90733 1.00549 0.74588 0.0
C647 C 0.81931 0.09487 0.65272 0.0
C648 C 0.88123 0.05292 0.68067 0.0
H649 H 0.87919 0.99223 0.68502 0.0
C650 C 0.90514 0.05773 0.69669 0.0
C651 C 0.872 0.02896 0.6763 0.0
C652 C 0.848 0.02246 0.65858 0.0
C653 C 0.92007 0.03926 0.70842 0.0
C654 C 0.91035 0.01536 0.70428 0.0
C655 C 0.88638 0.01057 0.68831 0.0
C656 C 0.92602 0.99492 0.71557 0.0
C657 C 0.94698 0.04547 0.72469 0.0
C658 C 0.94458 0.97745 0.70458 0.0
C659 C 0.95954 0.95814 0.71493 0.0
C660 C 0.95622 0.95581 0.73657 0.0
C661 C 0.93723 0.97321 0.74753 0.0
C662 C 0.92215 0.9925 0.73712 0.0
H663 H 0.95775 0.06372 0.72248 0.0
H664 H 0.93454 0.04471 0.74023 0.0
H665 H 0.969 0.0326 0.72446 0.0
H666 H 0.94779 0.97887 0.68794 0.0
H667 H 0.97386 0.94512 0.70592 0.0
H668 H 0.73559 0.42875 0.14962 0.0
H669 H 0.71431 0.45773 0.17471 0.0
H670 H 0.60828 0.44479 0.15447 0.0
H671 H 0.62895 0.41427 0.13066 0.0
H672 H 0.68505 0.49783 0.16852 0.0
H673 H 0.59159 0.44475 0.21476 0.0
H674 H 0.62159 0.43111 0.19675 0.0
H675 H 0.58049 0.44309 0.18785 0.0
C676 C 0.70761 0.43138 0.15093 0.0
C677 C 0.68409 0.41891 0.13801 0.0
C678 C 0.69548 0.44827 0.16518 0.0
C679 C 0.65957 0.45335 0.16679 0.0
C680 C 0.63601 0.44085 0.15404 0.0
H681 H 0.57073 0.58744 0.2044 0.0
H682 H 0.59974 0.55435 0.18698 0.0
C683 C 0.64803 0.42363 0.14007 0.0
C684 C 0.6471 0.4729 0.18063 0.0
H685 H 0.58404 0.48739 0.21606 0.0
C686 C 0.66326 0.49539 0.17913 0.0
C687 C 0.61912 0.46982 0.19485 0.0
C688 C 0.60251 0.4458 0.19882 0.0
C689 C 0.65151 0.51495 0.19078 0.0
C690 C 0.6218 0.5123 0.20376 0.0
C691 C 0.60646 0.48962 0.20589 0.0
C692 C 0.60544 0.53289 0.21466 0.0
C693 C 0.67142 0.53817 0.18917 0.0
C694 C 0.598 0.53177 0.23599 0.0
C695 C 0.58049 0.55049 0.2459 0.0
C696 C 0.57012 0.57073 0.23468 0.0
C697 C 0.57834 0.57207 0.21348 0.0
C698 C 0.59531 0.55323 0.20353 0.0
H699 H 0.69936 0.53507 0.18517 0.0
H700 H 0.65991 0.54913 0.17662 0.0
H701 H 0.6703 0.54844 0.20388 0.0
H702 H 0.60534 0.51625 0.24494 0.0
H703 H 0.57426 0.54882 0.26222 0.0
H704 H 0.33786 0.40395 0.37052 0.0
H705 H 0.36666 0.43156 0.34631 0.0
H706 H 0.37455 0.48416 0.39485 0.0
H707 H 0.34616 0.4568 0.419 0.0
H708 H 0.34803 0.47596 0.33282 0.0
H709 H 0.47457 0.48156 0.37433 0.0
H710 H 0.44202 0.45916 0.38023 0.0
H711 H 0.43818 0.48877 0.39075 0.0
C712 C 0.34579 0.4214 0.37601 0.0
C713 C 0.3402 0.428 0.39679 0.0
C714 C 0.3623 0.43714 0.36218 0.0
C715 C 0.37351 0.45977 0.36886 0.0
C716 C 0.36717 0.46656 0.38946 0.0
H717 H 0.42023 0.5872 0.29847 0.0
H718 H 0.39295 0.55482 0.31821 0.0
C719 C 0.35089 0.45086 0.40327 0.0
C720 C 0.39114 0.4766 0.35432 0.0
H721 H 0.46408 0.51155 0.34878 0.0
C722 C 0.37354 0.48359 0.33622 0.0
C723 C 0.42473 0.48628 0.35852 0.0
C724 C 0.44614 0.47838 0.3769 0.0
C725 C 0.38803 0.50059 0.32263 0.0
C726 C 0.4207 0.51125 0.32748 0.0
C727 C 0.43883 0.50364 0.34519 0.0
C728 C 0.43644 0.5305 0.31458 0.0
C729 C 0.36846 0.50678 0.30308 0.0
C730 C 0.47025 0.52787 0.30628 0.0
C731 C 0.48584 0.54638 0.295 0.0
C732 C 0.46798 0.56793 0.29187 0.0
C733 C 0.43424 0.57059 0.30022 0.0
C734 C 0.41863 0.55207 0.31149 0.0
H735 H 0.34932 0.49265 0.29879 0.0
H736 H 0.35377 0.52357 0.3055 0.0
H737 H 0.38685 0.50946 0.28994 0.0
H738 H 0.48463 0.51148 0.30857 0.0
H739 H 0.51191 0.54386 0.28874 0.0
H740 H 0.12781 0.11048 0.89648 0.0
H741 H 0.10232 0.07999 0.8737 0.0
H742 H 0.20564 0.05378 0.85969 0.0
H743 H 0.23134 0.08409 0.88252 0.0
H744 H 0.12034 0.06857 0.82837 0.0
H745 H 0.14637 0.99609 0.88518 0.0
H746 H 0.14429 0.02706 0.89275 0.0
H747 H 0.18189 0.01611 0.8791 0.0
C748 C 0.14511 0.09833 0.88843 0.0
C749 C 0.1816 0.09968 0.89135 0.0
C750 C 0.13052 0.081 0.87538 0.0
C751 C 0.1521 0.06454 0.86517 0.0
C752 C 0.18856 0.06626 0.86752 0.0
H753 H 0.10106 0.93393 0.79773 0.0
H754 H 0.13147 0.96663 0.81535 0.0
C755 C 0.20319 0.0837 0.88045 0.0
C756 C 0.13634 0.04495 0.85281 0.0
H757 H 0.12005 0.98506 0.85364 0.0
C758 C 0.12028 0.05029 0.83383 0.0
C759 C 0.13654 0.02114 0.85994 0.0
C760 C 0.15298 0.01459 0.88041 0.0
C761 C 0.1045 0.03236 0.82173 0.0
C762 C 0.10391 1.00859 0.82912 0.0
C763 C 0.12042 1.00326 0.84799 0.0
C764 C 0.08564 0.98906 0.81779 0.0
C765 C 0.08919 0.03898 0.80098 0.0
C766 C 0.04966 0.99059 0.81351 0.0
C767 C 0.03233 0.97205 0.8032 0.0
C768 C 0.05057 0.95149 0.79708 0.0
C769 C 0.08642 0.94974 0.80181 0.0
C770 C 0.10379 0.96836 0.81202 0.0
H771 H 0.10098 0.05571 0.79488 0.0
H772 H 0.09319 0.02458 0.78941 0.0
H773 H 0.06062 0.04193 0.80274 0.0
H774 H 0.03484 1.00607 0.8183 0.0
H775 H 0.00467 0.97394 0.79987 0.0
H776 H 0.23444 0.12984 0.97909 0.0
H777 H 0.21111 0.12767 0.01431 0.0
H778 H 0.10587 0.12972 0.99031 0.0
H779 H 0.12892 0.13246 0.95494 0.0
H780 H 0.16311 0.15975 0.03587 0.0
H781 H 0.11012 0.06795 0.02622 0.0
H782 H 0.14225 0.08053 1.00878 0.0
H783 H 0.09718 0.08927 1.00693 0.0
C784 C 0.20632 0.13026 0.98124 0.0
C785 C 0.18359 0.13134 0.96407 0.0
C786 C 0.19305 0.12886 1.00142 0.0
C787 C 0.15679 0.12827 1.00492 0.0
C788 C 0.13397 0.12979 0.98793 0.0
H789 H 0.03198 0.10302 0.11571 0.0
H790 H 0.05233 0.11161 0.08054 0.0
C791 C 0.14721 0.1313 0.96772 0.0
C792 C 0.14299 0.1256 0.02633 0.0
H793 H 0.09891 0.08709 0.05805 0.0
C794 C 0.14905 0.14389 0.04076 0.0
C795 C 0.12462 0.10491 0.03263 0.0
C796 C 0.11829 0.08441 0.01794 0.0
C797 C 0.13682 0.14217 0.06129 0.0
C798 C 0.11881 0.12131 0.0677 0.0
C799 C 0.11266 0.10309 0.05318 0.0
C800 C 0.10629 0.1178 0.08936 0.0
C801 C 0.14267 0.16294 0.07576 0.0
C802 C 0.12975 0.1185 0.10613 0.0
C803 C 0.11811 0.11372 0.12632 0.0
C804 C 0.08286 0.10775 0.13009 0.0
C805 C 0.05936 0.10733 0.1133 0.0
C806 C 0.07095 0.11229 0.09319 0.0
H807 H 0.14695 0.17981 0.06709 0.0
H808 H 0.12007 0.16533 0.0864 0.0
H809 H 0.16639 0.15959 0.08522 0.0
H810 H 0.15731 0.12209 0.10356 0.0
H811 H 0.13694 0.11385 0.13886 0.0
H812 H 0.34215 0.43469 0.46978 0.0
H813 H 0.35698 0.43603 0.50657 0.0
H814 H 0.33047 0.3616 0.51247 0.0
H815 H 0.31607 0.35996 0.47551 0.0
H816 H 0.29867 0.39043 0.54227 0.0
H817 H 0.44127 0.40902 0.53814 0.0
H818 H 0.41514 0.42904 0.52299 0.0
H819 H 0.41656 0.39796 0.51627 0.0
C820 C 0.34023 0.41842 0.47873 0.0
C821 C 0.32802 0.39717 0.46956 0.0
C822 C 0.3487 0.41925 0.49983 0.0
C823 C 0.34527 0.39885 0.51225 0.0
C824 C 0.33343 0.37755 0.50317 0.0
H825 H 0.40895 0.38776 0.64272 0.0
H826 H 0.40289 0.38135 0.60529 0.0
C827 C 0.32505 0.37668 0.48205 0.0
C828 C 0.35187 0.40019 0.53496 0.0
H829 H 0.41391 0.41459 0.57112 0.0
C830 C 0.32395 0.39552 0.54857 0.0
C831 C 0.38495 0.4066 0.54321 0.0
C832 C 0.41632 0.41073 0.52943 0.0
C833 C 0.32789 0.39784 0.57013 0.0
C834 C 0.36053 0.40525 0.57833 0.0
C835 C 0.38881 0.40914 0.5648 0.0
C836 C 0.36536 0.40965 0.60087 0.0
C837 C 0.29705 0.39237 0.584 0.0
C838 C 0.34688 0.42802 0.61071 0.0
C839 C 0.35051 0.43189 0.63202 0.0
C840 C 0.37271 0.41745 0.64403 0.0
C841 C 0.39183 0.39936 0.634 0.0
C842 C 0.38828 0.39557 0.61261 0.0
H843 H 0.27694 0.38145 0.57591 0.0
H844 H 0.30558 0.38277 0.59815 0.0
H845 H 0.28465 0.40933 0.58889 0.0
H846 H 0.32959 0.43941 0.60188 0.0
H847 H 0.33601 0.44635 0.63904 0.0
H848 H 0.6243 0.38265 0.07677 0.0
H849 H 0.59697 0.38106 0.04237 0.0
H850 H 0.69832 0.38969 1.01375 0.0
H851 H 0.72573 0.39159 0.04798 0.0
H852 H 0.64227 0.41971 0.99733 0.0
H853 H 0.60657 0.32357 1.00129 0.0
H854 H 0.5933 0.34183 0.02282 0.0
H855 H 0.63902 0.33681 0.01813 0.0
C856 C 0.64071 0.38435 0.06314 0.0
C857 C 0.67722 0.38703 0.06511 0.0
C858 C 0.6251 0.38327 0.04352 0.0
C859 C 0.6457 0.38496 0.02552 0.0
C860 C 0.68199 0.38819 0.02744 0.0
H861 H 0.61499 0.38363 0.89221 0.0
H862 H 0.63707 0.38861 0.92754 0.0
C863 C 0.69762 0.38912 0.04701 0.0
C864 C 0.6296 0.38328 1.00464 0.0
H865 H 0.58938 0.34452 0.97139 0.0
C866 C 0.63063 0.4033 0.99164 0.0
C867 C 0.61434 0.36188 0.99731 0.0
C868 C 0.61334 0.33968 1.01049 0.0
C869 C 0.61659 0.40255 0.97151 0.0
C870 C 0.60198 0.38098 0.96398 0.0
C871 C 0.60062 0.36104 0.97712 0.0
C872 C 0.58837 0.37854 0.94246 0.0
C873 C 0.617 0.42502 0.95868 0.0
C874 C 0.55393 0.37063 0.93899 0.0
C875 C 0.54137 0.36752 0.9188 0.0
C876 C 0.56301 0.37226 0.90161 0.0
C877 C 0.59749 0.38021 0.90511 0.0
C878 C 0.61011 0.38314 0.92531 0.0
H879 H 0.61879 0.44119 0.96859 0.0
H880 H 0.64025 0.42487 0.94835 0.0
H881 H 0.59316 0.42636 0.94891 0.0
H882 H 0.53669 0.36688 0.95194 0.0
H883 H 0.5146 0.36157 0.91664 0.0
H884 H 0.84243 0.17486 0.56029 0.0
H885 H 0.86177 0.17123 0.52415 0.0
H886 H 0.87481 0.09556 0.5323 0.0
H887 H 0.85474 0.09887 0.56815 0.0
H888 H 0.9253 0.15143 0.50592 0.0
H889 H 0.80477 0.10207 0.48353 0.0
H890 H 0.80821 0.11865 0.50744 0.0
H891 H 0.8278 0.08968 0.50524 0.0
C892 C 0.84948 0.15745 0.55439 0.0
C893 C 0.84685 0.13714 0.56711 0.0
C894 C 0.86073 0.15544 0.53379 0.0
C895 C 0.86929 0.13309 0.52549 0.0
C896 C 0.86794 0.11294 0.53834 0.0
H897 H 0.91555 0.07421 0.40543 0.0
H898 H 0.90788 0.08222 0.44238 0.0
C899 C 0.85678 0.11492 0.55891 0.0
C900 C 0.87811 0.13055 0.50318 0.0
H901 H 0.84991 0.1043 0.45845 0.0
C902 C 0.9088 0.14124 0.49547 0.0
C903 C 0.8564 0.11737 0.48959 0.0
C904 C 0.82228 0.10644 0.49676 0.0
C905 C 0.91893 0.13839 0.47462 0.0
C906 C 0.89747 0.12483 0.46113 0.0
C907 C 0.8665 0.11454 0.46882 0.0
C908 C 0.90658 0.12057 0.43902 0.0
C909 C 0.95296 0.1493 0.46737 0.0
C910 C 0.90912 0.13949 0.42483 0.0
C911 C 0.91365 0.13494 0.40362 0.0
C912 C 0.91524 0.11137 0.39625 0.0
C913 C 0.91402 0.09255 0.41061 0.0
C914 C 0.9097 0.0971 0.43173 0.0
H915 H 0.97033 0.15402 0.48057 0.0
H916 H 0.96718 0.13695 0.45689 0.0
H917 H 0.94731 0.16586 0.45862 0.0
H918 H 0.90613 0.15773 0.43002 0.0
H919 H 0.91413 0.14977 0.39289 0.0
H920 H 0.82102 0.91361 0.0622 0.0
H921 H 0.82965 0.91606 0.0246 0.0
H922 H 0.88581 0.84958 0.02564 0.0
H923 H 0.87797 0.84723 0.06323 0.0
H924 H 0.91908 0.88621 1.00201 0.0
H925 H 0.77896 0.87449 0.98088 0.0
H926 H 0.78784 0.89782 0.99927 0.0
H927 H 0.79564 0.86733 1.00629 0.0
C928 C 0.83526 0.89953 0.05443 0.0
C929 C 0.84853 0.88012 0.06572 0.0
C930 C 0.83997 0.90088 0.03292 0.0
C931 C 0.85805 0.88287 0.02228 0.0
C932 C 0.87163 0.86361 0.03352 0.0
H933 H 0.85728 0.85215 0.89106 0.0
H934 H 0.85457 0.85108 0.92888 0.0
C935 C 0.86682 0.86219 0.05498 0.0
C936 C 0.86293 0.88404 0.99945 0.0
H937 H 0.81834 0.88311 0.95359 0.0
C938 C 0.89708 0.88556 0.9914 0.0
C939 C 0.83422 0.88296 0.98564 0.0
C940 C 0.79708 0.88036 0.99336 0.0
C941 C 0.90326 0.88616 0.96989 0.0
C942 C 0.87449 0.88542 0.9561 0.0
C943 C 0.84038 0.8838 0.96418 0.0
C944 C 0.879 0.88557 0.93319 0.0
C945 C 0.94052 0.88702 0.96212 0.0
C946 C 0.89407 0.90521 0.92297 0.0
C947 C 0.89564 0.90589 0.90126 0.0
C948 C 0.88185 0.88702 0.88937 0.0
C949 C 0.86771 0.86712 0.89972 0.0
C950 C 0.86621 0.86644 0.92136 0.0
H951 H 0.9595 0.88183 0.97434 0.0
H952 H 0.944 0.87506 0.94855 0.0
H953 H 0.94688 0.90547 0.95715 0.0
H954 H 0.90358 0.92036 0.93175 0.0
H955 H 0.9063 0.9216 0.89378 0.0
H956 H 0.62223 0.60866 0.57064 0.0
H957 H 0.60575 0.60122 0.53462 0.0
H958 H 0.69534 0.6417 0.51383 0.0
H959 H 0.71268 0.64861 0.54989 0.0
H960 H 0.58936 0.63502 0.5047 0.0
H961 H 0.70292 0.58048 0.47968 0.0
H962 H 0.69312 0.5861 0.50662 0.0
H963 H 0.71426 0.60862 0.49121 0.0
C964 C 0.63889 0.61558 0.55844 0.0
C965 C 0.669 0.62906 0.5632 0.0
C966 C 0.62923 0.61148 0.53783 0.0
C967 C 0.64951 0.62065 0.5215 0.0
C968 C 0.67962 0.63408 0.52615 0.0
H969 H 0.6244 0.61573 0.38696 0.0
H970 H 0.64403 0.62437 0.42233 0.0
C971 C 0.68931 0.63821 0.54678 0.0
C972 C 0.63824 0.6169 0.49968 0.0
H973 H 0.66291 0.59207 0.45354 0.0
C974 C 0.6054 0.62558 0.49353 0.0
C975 C 0.65928 0.60469 0.48508 0.0
C976 C 0.69423 0.59423 0.49095 0.0
C977 C 0.59312 0.62252 0.47318 0.0
C978 C 0.61396 0.61007 0.45864 0.0
C979 C 0.64697 0.60161 0.4647 0.0
C980 C 0.60164 0.6052 0.43719 0.0
C981 C 0.55815 0.63299 0.46733 0.0
C982 C 0.57143 0.59141 0.43377 0.0
C983 C 0.56004 0.58656 0.41359 0.0
C984 C 0.57873 0.59528 0.39636 0.0
C985 C 0.60909 0.60903 0.39985 0.0
C986 C 0.6205 0.61384 0.42006 0.0
H987 H 0.55014 0.64733 0.47822 0.0
H988 H 0.55881 0.64039 0.45138 0.0
H989 H 0.53786 0.61879 0.46787 0.0
H990 H 0.55677 0.58421 0.44672 0.0
H991 H 0.53642 0.57608 0.41151 0.0
H992 H 0.37669 0.67322 0.96712 0.0
H993 H 0.38506 0.66808 1.00438 0.0
H994 H 0.321 0.60462 1.00289 0.0
H995 H 0.3128 0.60956 0.96545 0.0
H996 H 0.33649 0.66833 0.03478 0.0
H997 H 0.40522 0.58143 0.03489 0.0
H998 H 0.39913 0.59869 1.01159 0.0
H999 H 0.36389 0.58073 0.02167 0.0
C1000 C 0.36434 0.65816 0.97471 0.0
C1001 C 0.34394 0.64184 0.96331 0.0
C1002 C 0.36929 0.65519 0.99601 0.0
C1003 C 0.35406 0.63581 1.00646 0.0
C1004 C 0.33374 0.61941 0.99513 0.0
H1005 H 0.33666 0.59898 0.13707 0.0
H1006 H 0.33199 0.60086 0.09923 0.0
C1007 C 0.32895 0.62229 0.97374 0.0
C1008 C 0.35825 0.63353 0.02933 0.0
H1009 H 0.38697 0.59638 0.06768 0.0
C1010 C 0.34772 0.65264 0.04193 0.0
C1011 C 0.37286 0.61304 0.03872 0.0
C1012 C 0.38624 0.59239 0.02603 0.0
C1013 C 0.35097 0.65173 0.06361 0.0
C1014 C 0.36547 0.63125 0.07297 0.0
C1015 C 0.37587 0.61207 0.06044 0.0
C1016 C 0.36971 0.62943 0.0958 0.0
C1017 C 0.33828 0.67252 0.07638 0.0
C1018 C 0.39298 0.64457 0.10639 0.0
C1019 C 0.39573 0.64354 0.12801 0.0
C1020 C 0.37517 0.62738 0.13948 0.0
C1021 C 0.3525 0.61186 0.12874 0.0
C1022 C 0.34994 0.6128 0.10711 0.0
H1023 H 0.32121 0.68461 0.06728 0.0
H1024 H 0.32352 0.66619 0.09017 0.0
H1025 H 0.36118 0.68295 0.08192 0.0
H1026 H 0.40878 0.65736 0.09792 0.0
H1027 H 0.41329 0.65583 0.13579 0.0
H1028 H 0.12799 0.84561 0.46362 0.0
H1029 H 0.11421 0.85176 0.50021 0.0
H1030 H 0.16317 0.92104 0.49805 0.0
H1031 H 0.178 0.91484 0.4615 0.0
H1032 H 0.16375 0.86209 0.53328 0.0
H1033 H 0.06385 0.93294 0.52344 0.0
H1034 H 0.07679 0.91339 0.50255 0.0
H1035 H 0.10469 0.9377 0.51012 0.0
C1036 C 0.13624 0.86208 0.47091 0.0
C1037 C 0.15434 0.87968 0.45953 0.0
C1038 C 0.12805 0.86562 0.49182 0.0
C1039 C 0.13732 0.88693 0.50179 0.0
C1040 C 0.15525 0.9046 0.49055 0.0
H1041 H 0.12211 0.9452 0.62491 0.0
H1042 H 0.12703 0.93777 0.58777 0.0
C1043 C 0.16368 0.90103 0.46964 0.0
C1044 C 0.12916 0.89034 0.52411 0.0
H1045 H 0.08174 0.92444 0.55779 0.0
C1046 C 0.14564 0.8756 0.53867 0.0
C1047 C 0.1056 0.90801 0.53106 0.0
C1048 C 0.08642 0.92384 0.51603 0.0
C1049 C 0.14002 0.87852 0.56006 0.0
C1050 C 0.11645 0.89624 0.56708 0.0
C1051 C 0.09964 0.91079 0.55244 0.0
C1052 C 0.11052 0.9009 0.58954 0.0
C1053 C 0.16047 0.86319 0.57494 0.0
C1054 C 0.0984 0.88289 0.60293 0.0
C1055 C 0.09595 0.88702 0.62433 0.0
C1056 C 0.10532 0.9093 0.63271 0.0
C1057 C 0.11543 0.92766 0.61907 0.0
C1058 C 0.11804 0.92349 0.59777 0.0
H1059 H 0.18364 0.85498 0.56738 0.0
H1060 H 0.16956 0.87373 0.58849 0.0
H1061 H 0.14337 0.84858 0.58067 0.0
H1062 H 0.09154 0.86548 0.5969 0.0
H1063 H 0.08808 0.87248 0.63435 0.0
H1064 H 0.2341 0.30787 0.39079 0.0
H1065 H 0.21603 0.27398 0.3691 0.0
H1066 H 0.12721 0.31415 0.34748 0.0
H1067 H 0.14564 0.34807 0.36848 0.0
H1068 H 0.15531 0.24934 0.37353 0.0
H1069 H 0.16078 0.28547 0.29397 0.0
H1070 H 0.1819 0.3001 0.31555 0.0
H1071 H 0.13584 0.30433 0.31083 0.0
C1072 C 0.21134 0.30969 0.38091 0.0
C1073 C 0.19125 0.33064 0.38141 0.0
C1074 C 0.20087 0.29026 0.36864 0.0
C1075 C 0.17039 0.29153 0.35646 0.0
C1076 C 0.15118 0.3128 0.35634 0.0
H1077 H 0.02337 0.19853 0.2955 0.0
H1078 H 0.05597 0.23115 0.31204 0.0
C1079 C 0.16158 0.33214 0.36856 0.0
C1080 C 0.15654 0.27009 0.34547 0.0
H1081 H 0.12392 0.25094 0.29895 0.0
C1082 C 0.149 0.24956 0.35714 0.0
C1083 C 0.14818 0.27032 0.32408 0.0
C1084 C 0.15744 0.29116 0.31035 0.0
C1085 C 0.13198 0.22977 0.34826 0.0
C1086 C 0.12248 0.2304 0.32709 0.0
C1087 C 0.13091 0.25059 0.31524 0.0
C1088 C 0.10293 0.21051 0.31712 0.0
C1089 C 0.12307 0.20866 0.36177 0.0
C1090 C 0.11854 0.18812 0.31447 0.0
C1091 C 0.09994 0.16946 0.30511 0.0
C1092 C 0.06542 0.17288 0.29814 0.0
C1093 C 0.04977 0.19528 0.30092 0.0
C1094 C 0.06846 0.21397 0.3102 0.0
H1095 H 0.12636 0.21272 0.37851 0.0
H1096 H 0.09566 0.20275 0.35904 0.0
H1097 H 0.1406 0.1936 0.35779 0.0
H1098 H 0.14524 0.18512 0.31946 0.0
H1099 H 0.11266 0.15238 0.30322 0.0
H1100 H 0.28427 0.22007 0.8869 0.0
H1101 H 0.30333 0.25288 0.86429 0.0
H1102 H 0.39502 0.21278 0.84708 0.0
H1103 H 0.37585 0.17997 0.86922 0.0
H1104 H 0.3653 0.27809 0.86961 0.0
H1105 H 0.36254 0.23785 0.79129 0.0
H1106 H 0.33973 0.22483 0.81308 0.0
H1107 H 0.38595 0.21998 0.80965 0.0
C1108 C 0.30795 0.21802 0.87782 0.0
C1109 C 0.32859 0.19746 0.87987 0.0
C1110 C 0.31895 0.23683 0.86502 0.0
C1111 C 0.35048 0.23525 0.85382 0.0
C1112 C 0.37031 0.21431 0.85523 0.0
H1113 H 0.49736 0.32672 0.79073 0.0
H1114 H 0.46477 0.29417 0.80742 0.0
C1115 C 0.35945 0.19562 0.86804 0.0
C1116 C 0.36455 0.25613 0.84223 0.0
H1117 H 0.39751 0.27324 0.79521 0.0
C1118 C 0.37182 0.27716 0.85326 0.0
C1119 C 0.37328 0.25489 0.82092 0.0
C1120 C 0.36467 0.23325 0.80799 0.0
C1121 C 0.38881 0.29659 0.84379 0.0
C1122 C 0.39833 0.29509 0.82264 0.0
C1123 C 0.39034 0.2743 0.81146 0.0
C1124 C 0.41753 0.31468 0.81205 0.0
C1125 C 0.39772 0.31824 0.85668 0.0
C1126 C 0.40168 0.33693 0.809 0.0
C1127 C 0.4203 0.35553 0.79958 0.0
C1128 C 0.45497 0.35216 0.79289 0.0
C1129 C 0.4707 0.32983 0.79581 0.0
C1130 C 0.45207 0.31121 0.80522 0.0
H1131 H 0.39474 0.31477 0.87354 0.0
H1132 H 0.42503 0.32418 0.85362 0.0
H1133 H 0.37995 0.33305 0.85244 0.0
H1134 H 0.37495 0.33993 0.81397 0.0
H1135 H 0.4077 0.37265 0.79779 0.0
H1136 H 0.69081 0.23794 0.61922 0.0
H1137 H 0.66878 0.26872 0.64261 0.0
H1138 H 0.68982 0.22331 0.69502 0.0
H1139 H 0.71278 0.19255 0.6715 0.0
H1140 H 0.61142 0.2621 0.66673 0.0
H1141 H 0.72485 0.28759 0.71601 0.0
H1142 H 0.72988 0.27132 0.69203 0.0
H1143 H 0.71548 0.25621 0.71508 0.0
C1144 C 0.69148 0.23477 0.63578 0.0
C1145 C 0.70344 0.21292 0.64359 0.0
C1146 C 0.67883 0.25233 0.64913 0.0
C1147 C 0.67767 0.24842 0.6706 0.0
C1148 C 0.69101 0.22695 0.67856 0.0
H1149 H 0.56303 0.33013 0.76471 0.0
H1150 H 0.59746 0.29935 0.74693 0.0
C1151 C 0.70406 0.20938 0.66514 0.0
C1152 C 0.65929 0.26589 0.6841 0.0
H1153 H 0.66969 0.30409 0.72503 0.0
C1154 C 0.62426 0.27128 0.67945 0.0
C1155 C 0.67589 0.27771 0.70085 0.0
C1156 C 0.71368 0.27312 0.70625 0.0
C1157 C 0.60554 0.28831 0.69084 0.0
C1158 C 0.62229 0.30045 0.70727 0.0
C1159 C 0.65701 0.29474 0.71235 0.0
C1160 C 0.60416 0.3197 0.71875 0.0
C1161 C 0.56785 0.2932 0.68531 0.0
C1162 C 0.59712 0.34143 0.7089 0.0
C1163 C 0.57769 0.35902 0.71901 0.0
C1164 C 0.56481 0.35517 0.73915 0.0
C1165 C 0.5727 0.33362 0.74921 0.0
C1166 C 0.59233 0.31604 0.7391 0.0
H1167 H 0.55695 0.2795 0.67465 0.0
H1168 H 0.55145 0.29381 0.69953 0.0
H1169 H 0.56604 0.31082 0.6776 0.0
H1170 H 0.60624 0.34463 0.69324 0.0
H1171 H 0.57238 0.37554 0.71095 0.0
H1172 H 0.84278 0.29179 0.11458 0.0
H1173 H 0.86506 0.26087 0.13765 0.0
H1174 H 0.83526 0.30302 0.19071 0.0
H1175 H 0.81221 0.33396 0.16749 0.0
H1176 H 0.91931 0.26822 0.16412 0.0
H1177 H 0.80269 0.23666 0.20795 0.0
H1178 H 0.79915 0.25385 0.1844 0.0
H1179 H 0.80968 0.26834 0.20845 0.0
C1180 C 0.84038 0.29425 0.13118 0.0
C1181 C 0.82592 0.31528 0.13928 0.0
C1182 C 0.85313 0.27659 0.14435 0.0
C1183 C 0.85181 0.27954 0.16593 0.0
C1184 C 0.83604 0.30012 0.17413 0.0
H1185 H 0.95566 0.19699 0.26314 0.0
H1186 H 0.92215 0.2271 0.24418 0.0
C1187 C 0.82293 0.31781 0.16088 0.0
C1188 C 0.86996 0.26205 0.17947 0.0
H1189 H 0.85793 0.22177 0.21863 0.0
C1190 C 0.90581 0.25806 0.176 0.0
C1191 C 0.85245 0.24892 0.19511 0.0
C1192 C 0.8138 0.25194 0.19915 0.0
C1193 C 0.92453 0.24122 0.18757 0.0
C1194 C 0.90692 0.22778 0.20292 0.0
C1195 C 0.87129 0.23207 0.20678 0.0
C1196 C 0.92519 0.20885 0.21471 0.0
C1197 C 0.96314 0.23804 0.18337 0.0
C1198 C 0.93754 0.18846 0.20447 0.0
C1199 C 0.95643 0.17116 0.21527 0.0
C1200 C 0.96319 0.17386 0.23656 0.0
C1201 C 0.95039 0.19418 0.24683 0.0
C1202 C 0.93134 0.21144 0.23602 0.0
H1203 H 0.97437 0.25335 0.17467 0.0
H1204 H 0.97789 0.2359 0.19808 0.0
H1205 H 0.96701 0.2217 0.17395 0.0
H1206 H 0.93279 0.18602 0.18806 0.0
H1207 H 0.96582 0.1557 0.20691 0.0
H1208 H 0.72549 0.7521 0.66834 0.0
H1209 H 0.77325 0.77212 0.68652 0.0
H1210 H 0.84842 0.73002 0.65273 0.0
H1211 H 0.80038 0.71025 0.63394 0.0
H1212 H 0.82681 0.75667 0.71134 0.0
H1213 H 0.87913 0.7982 0.63929 0.0
H1214 H 0.83705 0.78348 0.64016 0.0
H1215 H 0.87654 0.76621 0.63937 0.0
C1216 C 0.75218 0.74698 0.66483 0.0
C1217 C 0.75916 0.72982 0.64948 0.0
C1218 C 0.77949 0.75839 0.6753 0.0
C1219 C 0.81449 0.75297 0.6707 0.0
C1220 C 0.82163 0.73487 0.65622 0.0
H1221 H 0.99202 0.82619 0.73246 0.0
H1222 H 0.95734 0.7953 0.71473 0.0
C1223 C 0.79417 0.72337 0.64568 0.0
C1224 C 0.84296 0.76712 0.68067 0.0
H1225 H 0.90596 0.80917 0.67069 0.0
C1226 C 0.84455 0.76779 0.70241 0.0
C1227 C 0.86581 0.78195 0.66905 0.0
C1228 C 0.86456 0.78267 0.64568 0.0
C1229 C 0.86767 0.78324 0.71281 0.0
C1230 C 0.88968 0.79852 0.70121 0.0
C1231 C 0.88906 0.79734 0.67951 0.0
C1232 C 0.91123 0.8172 0.71139 0.0
C1233 C 0.86672 0.78424 0.73612 0.0
C1234 C 0.89688 0.83976 0.71512 0.0
C1235 C 0.91665 0.85745 0.72502 0.0
C1236 C 0.95105 0.85284 0.73162 0.0
C1237 C 0.9656 0.83031 0.72754 0.0
C1238 C 0.94582 0.81262 0.71751 0.0
H1239 H 0.85504 0.76782 0.74288 0.0
H1240 H 0.89333 0.78688 0.74267 0.0
H1241 H 0.85029 0.79958 0.74078 0.0
H1242 H 0.87027 0.84366 0.71043 0.0
H1243 H 0.90496 0.87476 0.72751 0.0
H1244 H 0.77875 0.75391 0.13208 0.0
H1245 H 0.72964 0.73107 0.14627 0.0
H1246 H 0.70327 0.79017 0.18608 0.0
H1247 H 0.75205 0.81335 0.17141 0.0
H1248 H 0.72423 0.71709 0.18546 0.0
H1249 H 0.60738 0.77096 0.16601 0.0
H1250 H 0.64956 0.77609 0.15412 0.0
H1251 H 0.6405 0.78742 0.17966 0.0
C1252 C 0.76201 0.76219 0.14356 0.0
C1253 C 0.76918 0.78539 0.15066 0.0
C1254 C 0.73398 0.74912 0.1517 0.0
C1255 C 0.71251 0.75886 0.1672 0.0
C1256 C 0.71889 0.78238 0.17383 0.0
H1257 H 0.55466 0.69632 0.24861 0.0
H1258 H 0.5959 0.72286 0.23073 0.0
C1259 C 0.74682 0.79562 0.16549 0.0
C1260 C 0.68573 0.74353 0.17755 0.0
H1261 H 0.59876 0.73908 0.18987 0.0
C1262 C 0.69676 0.72188 0.18628 0.0
C1263 C 0.64986 0.74975 0.17878 0.0
C1264 C 0.63599 0.77221 0.16898 0.0
C1265 C 0.67318 0.70644 0.1963 0.0
C1266 C 0.63732 0.71262 0.19749 0.0
C1267 C 0.62623 0.73434 0.18893 0.0
C1268 C 0.61112 0.6968 0.20771 0.0
C1269 C 0.68712 0.68381 0.20577 0.0
C1270 C 0.60539 0.67345 0.20051 0.0
C1271 C 0.58216 0.65819 0.21089 0.0
C1272 C 0.56419 0.666 0.22863 0.0
C1273 C 0.56885 0.68965 0.2353 0.0
C1274 C 0.59215 0.70489 0.22497 0.0
H1275 H 0.71552 0.68528 0.20932 0.0
H1276 H 0.67291 0.6792 0.22022 0.0
H1277 H 0.68356 0.66894 0.19461 0.0
H1278 H 0.61921 0.66694 0.18699 0.0
H1279 H 0.57893 0.64009 0.20532 0.0
H1280 H 0.2677 0.76107 0.39868 0.0
H1281 H 0.31391 0.74183 0.37855 0.0
H1282 H 0.28744 0.78508 0.32562 0.0
H1283 H 0.24153 0.80487 0.34608 0.0
H1284 H 0.30062 0.71515 0.34459 0.0
H1285 H 0.39387 0.78769 0.32409 0.0
H1286 H 0.36134 0.79092 0.34423 0.0
H1287 H 0.34899 0.79337 0.31745 0.0
C1288 C 0.27237 0.76687 0.3829 0.0
C1289 C 0.25117 0.78445 0.37392 0.0
C1290 C 0.29868 0.75583 0.37138 0.0
C1291 C 0.30431 0.76199 0.35056 0.0
C1292 C 0.2841 0.7803 0.34175 0.0
H1293 H 0.43045 0.68548 0.25791 0.0
H1294 H 0.38978 0.7133 0.27462 0.0
C1295 C 0.25786 0.79158 0.35342 0.0
C1296 C 0.32892 0.74752 0.33783 0.0
H1297 H 0.4039 0.74985 0.30876 0.0
C1298 C 0.32319 0.7228 0.33678 0.0
C1299 C 0.35822 0.75748 0.32744 0.0
C1300 C 0.36627 0.78379 0.32844 0.0
C1301 C 0.34609 0.70776 0.32595 0.0
C1302 C 0.37576 0.71761 0.31599 0.0
C1303 C 0.38112 0.74237 0.31648 0.0
C1304 C 0.40211 0.70212 0.30582 0.0
C1305 C 0.33847 0.68135 0.32528 0.0
C1306 C 0.4229 0.68693 0.31785 0.0
C1307 C 0.4461 0.67106 0.30841 0.0
C1308 C 0.44901 0.66998 0.28668 0.0
C1309 C 0.42877 0.68571 0.27466 0.0
C1310 C 0.40559 0.70168 0.28417 0.0
H1311 H 0.31098 0.67727 0.32976 0.0
H1312 H 0.3434 0.67407 0.30954 0.0
H1313 H 0.35609 0.67205 0.33626 0.0
H1314 H 0.42077 0.68712 0.33459 0.0
H1315 H 0.46128 0.65934 0.31821 0.0
H1316 H 0.22563 0.72746 0.89414 0.0
H1317 H 0.17793 0.74824 0.87633 0.0
H1318 H 0.24994 0.77022 0.82834 0.0
H1319 H 0.29772 0.75023 0.84652 0.0
H1320 H 0.21514 0.80696 0.84202 0.0
H1321 H 0.11963 0.73473 0.82619 0.0
H1322 H 0.13093 0.73672 0.8531 0.0
H1323 H 0.16393 0.72882 0.83438 0.0
C1324 C 0.23097 0.73626 0.87953 0.0
C1325 C 0.26527 0.73725 0.87166 0.0
C1326 C 0.2037 0.74809 0.86932 0.0
C1327 C 0.21016 0.76067 0.85084 0.0
C1328 C 0.24422 0.7607 0.84256 0.0
H1329 H 0.05776 0.82588 0.76866 0.0
H1330 H 0.09966 0.79947 0.78573 0.0
C1331 C 0.27149 0.74922 0.8529 0.0
C1332 C 0.18249 0.77556 0.84106 0.0
H1333 H 0.09901 0.77457 0.82192 0.0
C1334 C 0.18983 0.79979 0.83754 0.0
C1335 C 0.1495 0.76626 0.83501 0.0
C1336 C 0.14061 0.74016 0.83716 0.0
C1337 C 0.16523 0.81494 0.82827 0.0
C1338 C 0.13178 0.80587 0.82297 0.0
C1339 C 0.12446 0.78161 0.82628 0.0
C1340 C 0.10459 0.82117 0.81332 0.0
C1341 C 0.17573 0.84039 0.82375 0.0
C1342 C 0.09264 0.84184 0.82337 0.0
C1343 C 0.06909 0.85714 0.81351 0.0
C1344 C 0.05689 0.85196 0.79346 0.0
C1345 C 0.06739 0.83062 0.78391 0.0
C1346 C 0.09113 0.81543 0.7937 0.0
H1347 H 0.20466 0.84261 0.82338 0.0
H1348 H 0.16494 0.84645 0.80868 0.0
H1349 H 0.16534 0.85216 0.83612 0.0
H1350 H 0.10194 0.84632 0.83874 0.0
H1351 H 0.06112 0.8733 0.82136 0.0
loop_
_geom_bond_atom_site_label_1
_geom_bond_atom_site_label_2
_geom_bond_distance
_geom_bond_site_symmetry_2
_ccdc_geom_bond_type
H0 C1 0.949 . S
C1 H0 0.949 . S
C1 C2 1.395 . S
C1 C3 1.391 . S
C2 C1 1.395 . S
C2 C5 1.390 . S
C3 C1 1.391 . S
C3 C7 1.387 . S
C3 C8 1.491 . S
H4 C5 0.950 . S
C5 C2 1.390 . S
C5 H4 0.950 . S
C5 C6 1.378 . S
C6 C5 1.378 . S
C6 C7 1.409 . S
C7 C3 1.387 . S
C7 C6 1.409 . S
C7 H9 0.951 . S
C8 C3 1.491 . S
C8 C10 1.382 . S
C8 C12 1.404 . S
H9 C7 0.951 . S
C10 C8 1.382 . S
C10 C11 1.390 . S
C10 H15 0.949 . S
C11 C10 1.390 . S
C11 C16 1.399 . S
C12 C8 1.404 . S
C12 H13 0.950 . S
C12 C14 1.375 . S
H13 C12 0.950 . S
C14 C12 1.375 . S
C14 C16 1.382 . S
C14 H18 0.950 . S
H15 C10 0.949 . S
C16 C11 1.399 . S
C16 C14 1.382 . S
C16 H17 0.952 . S
H17 C16 0.952 . S
H18 C14 0.950 . S
H19 C20 0.949 . S
C20 H19 0.949 . S
C20 C21 1.395 . S
C20 C22 1.391 . S
C21 C20 1.395 . S
C21 C24 1.390 . S
C22 C20 1.391 . S
C22 C26 1.387 . S
C22 C27 1.491 . S
H23 C24 0.950 . S
C24 C21 1.390 . S
C24 H23 0.950 . S
C24 C25 1.378 . S
C25 C24 1.378 . S
C25 C26 1.409 . S
C26 C22 1.387 . S
C26 C25 1.409 . S
C26 H28 0.951 . S
C27 C22 1.491 . S
C27 C29 1.382 . S
C27 C31 1.404 . S
H28 C26 0.951 . S
C29 C27 1.382 . S
C29 C30 1.390 . S
C29 H34 0.949 . S
C30 C29 1.390 . S
C30 C35 1.399 . S
C31 C27 1.404 . S
C31 H32 0.950 . S
C31 C33 1.375 . S
H32 C31 0.950 . S
C33 C31 1.375 . S
C33 C35 1.382 . S
C33 H37 0.950 . S
H34 C29 0.949 . S
C35 C30 1.399 . S
C35 C33 1.382 . S
C35 H36 0.952 . S
H36 C35 0.952 . S
H37 C33 0.950 . S
H38 C39 0.949 . S
C39 H38 0.949 . S
C39 C40 1.395 . S
C39 C41 1.391 . S
C40 C39 1.395 . S
C40 C43 1.390 . S
C41 C39 1.391 . S
C41 C45 1.387 . S
C41 C46 1.491 . S
H42 C43 0.950 . S
C43 C40 1.390 . S
C43 H42 0.950 . S
C43 C44 1.378 . S
C44 C43 1.378 . S
C44 C45 1.409 . S
C45 C41 1.387 . S
C45 C44 1.409 . S
C45 H47 0.951 . S
C46 C41 1.491 . S
C46 C48 1.382 . S
C46 C50 1.404 . S
H47 C45 0.951 . S
C48 C46 1.382 . S
C48 C49 1.390 . S
C48 H53 0.949 . S
C49 C48 1.390 . S
C49 C54 1.399 . S
C50 C46 1.404 . S
C50 H51 0.950 . S
C50 C52 1.375 . S
H51 C50 0.950 . S
C52 C50 1.375 . S
C52 C54 1.382 . S
C52 H56 0.950 . S
H53 C48 0.949 . S
C54 C49 1.399 . S
C54 C52 1.382 . S
C54 H55 0.952 . S
H55 C54 0.952 . S
H56 C52 0.950 . S
H57 C58 0.949 . S
C58 H57 0.949 . S
C58 C59 1.395 . S
C58 C60 1.391 . S
C59 C58 1.395 . S
C59 C62 1.390 . S
C60 C58 1.391 . S
C60 C64 1.387 . S
C60 C65 1.491 . S
H61 C62 0.950 . S
C62 C59 1.390 . S
C62 H61 0.950 . S
C62 C63 1.378 . S
C63 C62 1.378 . S
C63 C64 1.409 . S
C64 C60 1.387 . S
C64 C63 1.409 . S
C64 H66 0.951 . S
C65 C60 1.491 . S
C65 C67 1.382 . S
C65 C69 1.404 . S
H66 C64 0.951 . S
C67 C65 1.382 . S
C67 C68 1.390 . S
C67 H72 0.949 . S
C68 C67 1.390 . S
C68 C73 1.399 . S
C69 C65 1.404 . S
C69 H70 0.950 . S
C69 C71 1.375 . S
H70 C69 0.950 . S
C71 C69 1.375 . S
C71 C73 1.382 . S
C71 H75 0.950 . S
H72 C67 0.949 . S
C73 C68 1.399 . S
C73 C71 1.382 . S
C73 H74 0.952 . S
H74 C73 0.952 . S
H75 C71 0.950 . S
H76 C77 0.949 . S
C77 H76 0.949 . S
C77 C78 1.395 . S
C77 C79 1.391 . S
C78 C77 1.395 . S
C78 C81 1.390 . S
C79 C77 1.391 . S
C79 C83 1.387 . S
C79 C84 1.491 . S
H80 C81 0.950 . S
C81 C78 1.390 . S
C81 H80 0.950 . S
C81 C82 1.378 . S
C82 C81 1.378 . S
C82 C83 1.409 . S
C83 C79 1.387 . S
C83 C82 1.409 . S
C83 H85 0.951 . S
C84 C79 1.491 . S
C84 C86 1.382 . S
C84 C88 1.404 . S
H85 C83 0.951 . S
C86 C84 1.382 . S
C86 C87 1.390 . S
C86 H91 0.949 . S
C87 C86 1.390 . S
C87 C92 1.399 . S
C88 C84 1.404 . S
C88 H89 0.950 . S
C88 C90 1.375 . S
H89 C88 0.950 . S
C90 C88 1.375 . S
C90 C92 1.382 . S
C90 H94 0.950 . S
H91 C86 0.949 . S
C92 C87 1.399 . S
C92 C90 1.382 . S
C92 H93 0.952 . S
H93 C92 0.952 . S
H94 C90 0.950 . S
H95 C96 0.949 . S
C96 H95 0.949 . S
C96 C97 1.395 . S
C96 C98 1.391 . S
C97 C96 1.395 . S
C97 C100 1.390 . S
C98 C96 1.391 . S
C98 C102 1.387 . S
C98 C103 1.491 . S
H99 C100 0.950 . S
C100 C97 1.390 . S
C100 H99 0.950 . S
C100 C101 1.378 . S
C101 C100 1.378 . S
C101 C102 1.409 . S
C102 C98 1.387 . S
C102 C101 1.409 . S
C102 H104 0.951 . S
C103 C98 1.491 . S
C103 C105 1.382 . S
C103 C107 1.404 . S
H104 C102 0.951 . S
C105 C103 1.382 . S
C105 C106 1.390 . S
C105 H110 0.949 . S
C106 C105 1.390 . S
C106 C111 1.399 . S
C107 C103 1.404 . S
C107 H108 0.950 . S
C107 C109 1.375 . S
H108 C107 0.950 . S
C109 C107 1.375 . S
C109 C111 1.382 . S
C109 H113 0.950 . S
H110 C105 0.949 . S
C111 C106 1.399 . S
C111 C109 1.382 . S
C111 H112 0.952 . S
H112 C111 0.952 . S
H113 C109 0.950 . S
H114 C115 0.949 . S
C115 H114 0.949 . S
C115 C116 1.395 . S
C115 C117 1.391 . S
C116 C115 1.395 . S
C116 C119 1.390 . S
C117 C115 1.391 . S
C117 C121 1.387 . S
C117 C122 1.491 . S
H118 C119 0.950 . S
C119 C116 1.390 . S
C119 H118 0.950 . S
C119 C120 1.378 . S
C120 C119 1.378 . S
C120 C121 1.409 . S
C121 C117 1.387 . S
C121 C120 1.409 . S
C121 H123 0.951 . S
C122 C117 1.491 . S
C122 C124 1.382 . S
C122 C126 1.404 . S
H123 C121 0.951 . S
C124 C122 1.382 . S
C124 C125 1.390 . S
C124 H129 0.949 . S
C125 C124 1.390 . S
C125 C130 1.399 . S
C126 C122 1.404 . S
C126 H127 0.950 . S
C126 C128 1.375 . S
H127 C126 0.950 . S
C128 C126 1.375 . S
C128 C130 1.382 . S
C128 H132 0.950 . S
H129 C124 0.949 . S
C130 C125 1.399 . S
C130 C128 1.382 . S
C130 H131 0.952 . S
H131 C130 0.952 . S
H132 C128 0.950 . S
H133 C134 0.949 . S
C134 H133 0.949 . S
C134 C135 1.395 . S
C134 C136 1.391 . S
C135 C134 1.395 . S
C135 C138 1.390 . S
C136 C134 1.391 . S
C136 C140 1.387 . S
C136 C141 1.491 . S
H137 C138 0.950 . S
C138 C135 1.390 . S
C138 H137 0.950 . S
C138 C139 1.378 . S
C139 C138 1.378 . S
C139 C140 1.409 . S
C140 C136 1.387 . S
C140 C139 1.409 . S
C140 H142 0.951 . S
C141 C136 1.491 . S
C141 C143 1.382 . S
C141 C145 1.404 . S
H142 C140 0.951 . S
C143 C141 1.382 . S
C143 C144 1.390 . S
C143 H148 0.949 . S
C144 C143 1.390 . S
C144 C149 1.399 . S
C145 C141 1.404 . S
C145 H146 0.950 . S
C145 C147 1.375 . S
H146 C145 0.950 . S
C147 C145 1.375 . S
C147 C149 1.382 . S
C147 H151 0.950 . S
H148 C143 0.949 . S
C149 C144 1.399 . S
C149 C147 1.382 . S
C149 H150 0.952 . S
H150 C149 0.952 . S
H151 C147 0.950 . S
Tb152 N181 2.617 . S
Tb152 N187 2.572 . S
Tb152 O196 2.465 . S
Tb152 O197 2.387 . S
Tb152 O199 2.428 . S
Tb152 O200 2.307 . S
Tb152 O204 2.371 . S
Tb152 O207 2.393 . S
Tb152 C216 2.802 . S
C153 N154 1.379 . S
C153 C156 1.416 . S
C153 C160 1.424 . S
N154 C153 1.379 . S
N154 C157 1.334 . S
N154 Tb163 2.617 . S
C155 C157 1.390 . S
C155 C158 1.339 . S
C155 H175 0.930 . S
C156 C153 1.416 . S
C156 C158 1.416 . S
C156 C162 1.448 . S
C157 N154 1.334 . S
C157 C155 1.390 . S
C157 H168 0.930 . S
C158 C155 1.339 . S
C158 C156 1.416 . S
C158 H179 0.930 . S
C159 C160 1.413 . S
C159 C161 1.427 . S
C159 C165 1.416 . S
C160 C153 1.424 . S
C160 C159 1.413 . S
C160 N164 1.361 . S
C161 C159 1.427 . S
C161 C162 1.328 . S
C161 H176 0.929 . S
C162 C156 1.448 . S
C162 C161 1.328 . S
C162 H177 0.930 . S
Tb163 N154 2.617 . S
Tb163 N164 2.572 . S
Tb163 O198 2.349 1_655 S
Tb163 O201 2.393 . S
Tb163 O202 2.465 . S
Tb163 O203 2.387 . S
Tb163 O205 2.428 . S
Tb163 O206 2.308 1_655 S
Tb163 C227 2.802 . S
N164 C160 1.361 . S
N164 Tb163 2.572 . S
N164 C166 1.340 . S
C165 C159 1.416 . S
C165 C167 1.332 . S
C165 H173 0.931 1_545 S
C166 N164 1.340 . S
C166 C167 1.407 . S
C166 H172 0.930 . S
C167 C165 1.332 . S
C167 C166 1.407 . S
C167 H169 0.929 1_545 S
H168 C157 0.930 . S
H169 C167 0.929 1_565 S
H170 C185 0.930 . S
H171 C192 0.929 . S
H172 C166 0.930 . S
H173 C165 0.931 1_565 S
H174 C188 0.930 . S
H175 C155 0.930 . S
H176 C161 0.929 . S
H177 C162 0.930 . S
H178 C183 0.930 . S
H179 C158 0.930 . S
H180 C191 0.931 . S
N181 Tb152 2.617 . S
N181 C182 1.379 . S
N181 C185 1.334 . S
C182 N181 1.379 . S
C182 C184 1.416 . S
C182 C190 1.424 . S
C183 H178 0.930 . S
C183 C185 1.390 . S
C183 C186 1.339 . S
C184 C182 1.416 . S
C184 C186 1.416 . S
C184 C217 1.448 . S
C185 H170 0.930 . S
C185 N181 1.334 . S
C185 C183 1.390 . S
C186 C183 1.339 . S
C186 C184 1.416 . S
C186 H193 0.930 . S
N187 Tb152 2.572 . S
N187 C188 1.340 . S
N187 C190 1.361 . S
C188 H174 0.930 . S
C188 N187 1.340 . S
C188 C192 1.407 . S
C189 C190 1.413 . S
C189 C191 1.416 . S
C189 C218 1.427 . S
C190 C182 1.424 . S
C190 N187 1.361 . S
C190 C189 1.413 . S
C191 H180 0.931 . S
C191 C189 1.416 . S
C191 C192 1.332 . S
C192 H171 0.929 . S
C192 C188 1.407 . S
C192 C191 1.332 . S
H193 C186 0.930 . S
H194 C217 0.930 . S
H195 C218 0.929 . S
O196 Tb152 2.465 . S
O196 C216 1.264 . S
O197 Tb152 2.387 . S
O197 C208 1.264 . S
O198 Tb163 2.349 1_455 S
O198 C208 1.243 . S
O199 Tb152 2.428 . S
O199 C216 1.256 . S
O200 Tb152 2.307 . S
O200 C215 1.268 1_455 S
O201 Tb163 2.393 . S
O201 C215 1.248 . S
O202 Tb163 2.465 . S
O202 C227 1.264 . S
O203 Tb163 2.387 . S
O203 C219 1.264 . S
O204 Tb152 2.371 . S
O204 C219 1.216 1_455 S
O205 Tb163 2.428 . S
O205 C227 1.256 . S
O206 Tb163 2.308 1_455 S
O206 C226 1.266 . S
O207 Tb152 2.393 . S
O207 C226 1.248 . S
C208 O197 1.264 . S
C208 O198 1.243 . S
C209 C212 1.399 . S
C209 C214 1.383 . S
C209 C216 1.496 . S
C210 C211 1.399 . S
C210 C214 1.389 . S
C211 C210 1.399 . S
C211 C213 1.380 . S
C211 H228 0.929 . S
C212 C209 1.399 . S
C212 C213 1.392 . S
C212 H229 0.929 . S
C213 C211 1.380 . S
C213 C212 1.392 . S
C213 H230 0.929 . S
C214 C209 1.383 . S
C214 C210 1.389 . S
C214 H231 0.931 . S
C215 O200 1.268 1_655 S
C215 O201 1.248 . S
C216 Tb152 2.802 . S
C216 O196 1.264 . S
C216 O199 1.256 . S
C216 C209 1.496 . S
C217 C184 1.448 . S
C217 H194 0.930 . S
C217 C218 1.328 . S
C218 C189 1.427 . S
C218 H195 0.929 . S
C218 C217 1.328 . S
C219 O203 1.264 . S
C219 O204 1.216 1_655 S
C220 C223 1.399 . S
C220 C224 1.383 . S
C220 C227 1.496 . S
C221 C222 1.399 . S
C221 C224 1.389 . S
C222 C221 1.399 . S
C222 C225 1.380 . S
C222 H232 0.929 . S
C223 C220 1.399 . S
C223 C225 1.392 . S
C223 H233 0.929 . S
C224 C220 1.383 . S
C224 C221 1.389 . S
C224 H234 0.931 . S
C225 C222 1.380 . S
C225 C223 1.392 . S
C225 H235 0.929 . S
C226 O206 1.266 . S
C226 O207 1.248 . S
C227 Tb163 2.802 . S
C227 O202 1.264 . S
C227 O205 1.256 . S
C227 C220 1.496 . S
H228 C211 0.929 . S
H229 C212 0.929 . S
H230 C213 0.929 . S
H231 C214 0.931 . S
H232 C222 0.929 . S
H233 C223 0.929 . S
H234 C224 0.931 . S
H235 C225 0.929 . S
Tb236 N265 2.617 . S
Tb236 N271 2.572 . S
Tb236 O280 2.465 . S
Tb236 O281 2.387 . S
Tb236 O283 2.428 . S
Tb236 O284 2.308 . S
Tb236 O288 2.349 . S
Tb236 O291 2.393 . S
Tb236 C300 2.802 . S
C237 N238 1.379 . S
C237 C240 1.416 . S
C237 C244 1.424 . S
N238 C237 1.379 . S
N238 C241 1.334 . S
N238 Tb247 2.617 . S
C239 C241 1.390 . S
C239 C242 1.339 . S
C239 H259 0.930 . S
C240 C237 1.416 . S
C240 C242 1.416 . S
C240 C246 1.448 . S
C241 N238 1.334 . S
C241 C239 1.390 . S
C241 H252 0.930 . S
C242 C239 1.339 . S
C242 C240 1.416 . S
C242 H263 0.930 . S
C243 C244 1.413 . S
C243 C245 1.427 . S
C243 C249 1.416 . S
C244 C237 1.424 . S
C244 C243 1.413 . S
C244 N248 1.361 . S
C245 C243 1.427 . S
C245 C246 1.328 . S
C245 H260 0.929 . S
C246 C240 1.448 . S
C246 C245 1.328 . S
C246 H261 0.930 . S
Tb247 N238 2.617 . S
Tb247 N248 2.572 . S
Tb247 O282 2.349 . S
Tb247 O285 2.393 . S
Tb247 O286 2.465 . S
Tb247 O287 2.387 . S
Tb247 O289 2.428 . S
Tb247 O290 2.308 . S
Tb247 C311 2.802 . S
N248 C244 1.361 . S
N248 Tb247 2.572 . S
N248 C250 1.340 . S
C249 C243 1.416 . S
C249 C251 1.332 . S
C249 H257 0.931 . S
C250 N248 1.340 . S
C250 C251 1.407 . S
C250 H256 0.930 . S
C251 C249 1.332 . S
C251 C250 1.407 . S
C251 H253 0.929 . S
H252 C241 0.930 . S
H253 C251 0.929 . S
H254 C269 0.930 . S
H255 C276 0.929 . S
H256 C250 0.930 . S
H257 C249 0.931 . S
H258 C272 0.930 . S
H259 C239 0.930 . S
H260 C245 0.929 . S
H261 C246 0.930 . S
H262 C267 0.930 . S
H263 C242 0.930 . S
H264 C275 0.931 . S
N265 Tb236 2.617 . S
N265 C266 1.379 . S
N265 C269 1.334 . S
C266 N265 1.379 . S
C266 C268 1.416 . S
C266 C274 1.424 . S
C267 H262 0.930 . S
C267 C269 1.390 . S
C267 C270 1.339 . S
C268 C266 1.416 . S
C268 C270 1.416 . S
C268 C301 1.448 . S
C269 H254 0.930 . S
C269 N265 1.334 . S
C269 C267 1.390 . S
C270 C267 1.339 . S
C270 C268 1.416 . S
C270 H277 0.930 . S
N271 Tb236 2.572 . S
N271 C272 1.340 . S
N271 C274 1.361 . S
C272 H258 0.930 . S
C272 N271 1.340 . S
C272 C276 1.407 . S
C273 C274 1.413 . S
C273 C275 1.416 . S
C273 C302 1.427 . S
C274 C266 1.424 . S
C274 N271 1.361 . S
C274 C273 1.413 . S
C275 H264 0.931 . S
C275 C273 1.416 . S
C275 C276 1.332 . S
C276 H255 0.929 . S
C276 C272 1.407 . S
C276 C275 1.332 . S
H277 C270 0.930 . S
H278 C301 0.930 . S
H279 C302 0.929 . S
O280 Tb236 2.465 . S
O280 C300 1.264 . S
O281 Tb236 2.387 . S
O281 C292 1.264 . S
O282 Tb247 2.349 . S
O282 C292 1.243 . S
O283 Tb236 2.428 . S
O283 C300 1.256 . S
O284 Tb236 2.308 . S
O284 C299 1.266 . S
O285 Tb247 2.393 . S
O285 C299 1.248 . S
O286 Tb247 2.465 . S
O286 C311 1.264 . S
O287 Tb247 2.387 . S
O287 C303 1.264 . S
O288 Tb236 2.349 . S
O288 C303 1.243 . S
O289 Tb247 2.428 . S
O289 C311 1.256 . S
O290 Tb247 2.308 . S
O290 C310 1.266 . S
O291 Tb236 2.393 . S
O291 C310 1.248 . S
C292 O281 1.264 . S
C292 O282 1.243 . S
C293 C296 1.399 . S
C293 C298 1.383 . S
C293 C300 1.496 . S
C294 C295 1.399 . S
C294 C298 1.389 . S
C295 C294 1.399 . S
C295 C297 1.380 . S
C295 H312 0.929 . S
C296 C293 1.399 . S
C296 C297 1.392 . S
C296 H313 0.929 . S
C297 C295 1.380 . S
C297 C296 1.392 . S
C297 H314 0.929 . S
C298 C293 1.383 . S
C298 C294 1.389 . S
C298 H315 0.931 . S
C299 O284 1.266 . S
C299 O285 1.248 . S
C300 Tb236 2.802 . S
C300 O280 1.264 . S
C300 O283 1.256 . S
C300 C293 1.496 . S
C301 C268 1.448 . S
C301 H278 0.930 . S
C301 C302 1.328 . S
C302 C273 1.427 . S
C302 H279 0.929 . S
C302 C301 1.328 . S
C303 O287 1.264 . S
C303 O288 1.243 . S
C304 C307 1.399 . S
C304 C308 1.383 . S
C304 C311 1.496 . S
C305 C306 1.399 . S
C305 C308 1.389 . S
C306 C305 1.399 . S
C306 C309 1.380 . S
C306 H316 0.929 . S
C307 C304 1.399 . S
C307 C309 1.392 . S
C307 H317 0.929 . S
C308 C304 1.383 . S
C308 C305 1.389 . S
C308 H318 0.931 . S
C309 C306 1.380 . S
C309 C307 1.392 . S
C309 H319 0.929 . S
C310 O290 1.266 . S
C310 O291 1.248 . S
C311 Tb247 2.802 . S
C311 O286 1.264 . S
C311 O289 1.256 . S
C311 C304 1.496 . S
H312 C295 0.929 . S
H313 C296 0.929 . S
H314 C297 0.929 . S
H315 C298 0.931 . S
H316 C306 0.929 . S
H317 C307 0.929 . S
H318 C308 0.931 . S
H319 C309 0.929 . S
Tb320 N349 2.617 . S
Tb320 N355 2.572 . S
Tb320 O364 2.465 . S
Tb320 O365 2.387 . S
Tb320 O367 2.428 . S
Tb320 O368 2.308 . S
Tb320 O372 2.349 . S
Tb320 O375 2.393 . S
Tb320 C384 2.802 . S
C321 N322 1.379 . S
C321 C324 1.416 . S
C321 C328 1.424 . S
N322 C321 1.379 . S
N322 C325 1.334 . S
N322 Tb331 2.617 . S
C323 C325 1.390 . S
C323 C326 1.339 . S
C323 H343 0.930 . S
C324 C321 1.416 . S
C324 C326 1.416 . S
C324 C330 1.448 . S
C325 N322 1.334 . S
C325 C323 1.390 . S
C325 H336 0.930 . S
C326 C323 1.339 . S
C326 C324 1.416 . S
C326 H347 0.930 . S
C327 C328 1.413 . S
C327 C329 1.427 . S
C327 C333 1.416 . S
C328 C321 1.424 . S
C328 C327 1.413 . S
C328 N332 1.361 . S
C329 C327 1.427 . S
C329 C330 1.328 . S
C329 H344 0.929 . S
C330 C324 1.448 . S
C330 C329 1.328 . S
C330 H345 0.930 . S
Tb331 N322 2.617 . S
Tb331 N332 2.572 . S
Tb331 O366 2.349 1_655 S
Tb331 O369 2.393 . S
Tb331 O370 2.465 . S
Tb331 O371 2.387 . S
Tb331 O373 2.428 . S
Tb331 O374 2.308 1_655 S
Tb331 C395 2.802 . S
N332 C328 1.361 . S
N332 Tb331 2.572 . S
N332 C334 1.340 . S
C333 C327 1.416 . S
C333 C335 1.332 . S
C333 H341 0.931 . S
C334 N332 1.340 . S
C334 C335 1.407 . S
C334 H340 0.930 . S
C335 C333 1.332 . S
C335 C334 1.407 . S
C335 H337 0.929 . S
H336 C325 0.930 . S
H337 C335 0.929 . S
H338 C353 0.930 . S
H339 C360 0.929 1_545 S
H340 C334 0.930 . S
H341 C333 0.931 . S
H342 C356 0.930 . S
H343 C323 0.930 . S
H344 C329 0.929 . S
H345 C330 0.930 . S
H346 C351 0.930 . S
H347 C326 0.930 . S
H348 C359 0.931 1_545 S
N349 Tb320 2.617 . S
N349 C350 1.379 . S
N349 C353 1.334 . S
C350 N349 1.379 . S
C350 C352 1.416 . S
C350 C358 1.424 . S
C351 H346 0.930 . S
C351 C353 1.390 . S
C351 C354 1.339 . S
C352 C350 1.416 . S
C352 C354 1.416 . S
C352 C385 1.448 . S
C353 H338 0.930 . S
C353 N349 1.334 . S
C353 C351 1.390 . S
C354 C351 1.339 . S
C354 C352 1.416 . S
C354 H361 0.930 . S
N355 Tb320 2.572 . S
N355 C356 1.340 . S
N355 C358 1.361 . S
C356 H342 0.930 . S
C356 N355 1.340 . S
C356 C360 1.407 . S
C357 C358 1.413 . S
C357 C359 1.416 . S
C357 C386 1.427 . S
C358 C350 1.424 . S
C358 N355 1.361 . S
C358 C357 1.413 . S
C359 H348 0.931 1_565 S
C359 C357 1.416 . S
C359 C360 1.332 . S
C360 H339 0.929 1_565 S
C360 C356 1.407 . S
C360 C359 1.332 . S
H361 C354 0.930 . S
H362 C385 0.930 . S
H363 C386 0.929 . S
O364 Tb320 2.465 . S
O364 C384 1.264 . S
O365 Tb320 2.387 . S
O365 C376 1.264 . S
O366 Tb331 2.349 1_455 S
O366 C376 1.243 . S
O367 Tb320 2.428 . S
O367 C384 1.256 . S
O368 Tb320 2.308 . S
O368 C383 1.266 1_455 S
O369 Tb331 2.393 . S
O369 C383 1.248 . S
O370 Tb331 2.465 . S
O370 C395 1.264 . S
O371 Tb331 2.387 . S
O371 C387 1.264 . S
O372 Tb320 2.349 . S
O372 C387 1.243 1_455 S
O373 Tb331 2.428 . S
O373 C395 1.256 . S
O374 Tb331 2.308 1_455 S
O374 C394 1.266 . S
O375 Tb320 2.393 . S
O375 C394 1.248 . S
C376 O365 1.264 . S
C376 O366 1.243 . S
C377 C380 1.399 . S
C377 C382 1.383 . S
C377 C384 1.496 . S
C378 C379 1.399 . S
C378 C382 1.389 . S
C379 C378 1.399 . S
C379 C381 1.380 . S
C379 H396 0.929 . S
C380 C377 1.399 . S
C380 C381 1.392 . S
C380 H397 0.929 . S
C381 C379 1.380 . S
C381 C380 1.392 . S
C381 H398 0.929 . S
C382 C377 1.383 . S
C382 C378 1.389 . S
C382 H399 0.931 . S
C383 O368 1.266 1_655 S
C383 O369 1.248 . S
C384 Tb320 2.802 . S
C384 O364 1.264 . S
C384 O367 1.256 . S
C384 C377 1.496 . S
C385 C352 1.448 . S
C385 H362 0.930 . S
C385 C386 1.328 . S
C386 C357 1.427 . S
C386 H363 0.929 . S
C386 C385 1.328 . S
C387 O371 1.264 . S
C387 O372 1.243 1_655 S
C388 C391 1.399 . S
C388 C392 1.383 . S
C388 C395 1.496 . S
C389 C390 1.399 . S
C389 C392 1.389 . S
C390 C389 1.399 . S
C390 C393 1.380 . S
C390 H400 0.929 . S
C391 C388 1.399 . S
C391 C393 1.392 . S
C391 H401 0.929 . S
C392 C388 1.383 . S
C392 C389 1.389 . S
C392 H402 0.931 . S
C393 C390 1.380 . S
C393 C391 1.392 . S
C393 H403 0.929 . S
C394 O374 1.266 . S
C394 O375 1.248 . S
C395 Tb331 2.802 . S
C395 O370 1.264 . S
C395 O373 1.256 . S
C395 C388 1.496 . S
H396 C379 0.929 . S
H397 C380 0.929 . S
H398 C381 0.929 . S
H399 C382 0.931 . S
H400 C390 0.929 . S
H401 C391 0.929 . S
H402 C392 0.931 . S
H403 C393 0.929 . S
Tb404 N433 2.617 . S
Tb404 N439 2.572 . S
Tb404 O448 2.465 . S
Tb404 O449 2.387 . S
Tb404 O451 2.428 . S
Tb404 O452 2.308 . S
Tb404 O456 2.349 . S
Tb404 O459 2.393 . S
Tb404 C468 2.802 . S
C405 N406 1.379 . S
C405 C408 1.416 . S
C405 C412 1.424 . S
N406 C405 1.379 . S
N406 C409 1.334 . S
N406 Tb415 2.617 . S
C407 C409 1.390 . S
C407 C410 1.339 . S
C407 H427 0.930 . S
C408 C405 1.416 . S
C408 C410 1.416 . S
C408 C414 1.448 . S
C409 N406 1.334 . S
C409 C407 1.390 . S
C409 H420 0.930 . S
C410 C407 1.339 . S
C410 C408 1.416 . S
C410 H431 0.930 . S
C411 C412 1.413 . S
C411 C413 1.427 . S
C411 C417 1.416 . S
C412 C405 1.424 . S
C412 C411 1.413 . S
C412 N416 1.361 . S
C413 C411 1.427 . S
C413 C414 1.328 . S
C413 H428 0.929 . S
C414 C408 1.448 . S
C414 C413 1.328 . S
C414 H429 0.930 . S
Tb415 N406 2.617 . S
Tb415 N416 2.572 . S
Tb415 O450 2.349 . S
Tb415 O453 2.393 . S
Tb415 O454 2.465 . S
Tb415 O455 2.387 . S
Tb415 O457 2.428 . S
Tb415 O458 2.308 . S
Tb415 C479 2.802 . S
N416 C412 1.361 . S
N416 Tb415 2.572 . S
N416 C418 1.340 . S
C417 C411 1.416 . S
C417 C419 1.332 . S
C417 H425 0.931 . S
C418 N416 1.340 . S
C418 C419 1.407 . S
C418 H424 0.930 . S
C419 C417 1.332 . S
C419 C418 1.407 . S
C419 H421 0.929 . S
H420 C409 0.930 . S
H421 C419 0.929 . S
H422 C437 0.930 . S
H423 C444 0.929 . S
H424 C418 0.930 . S
H425 C417 0.931 . S
H426 C440 0.930 . S
H427 C407 0.930 . S
H428 C413 0.929 . S
H429 C414 0.930 . S
H430 C435 0.930 . S
H431 C410 0.930 . S
H432 C443 0.931 . S
N433 Tb404 2.617 . S
N433 C434 1.379 . S
N433 C437 1.334 . S
C434 N433 1.379 . S
C434 C436 1.416 . S
C434 C442 1.424 . S
C435 H430 0.930 . S
C435 C437 1.390 . S
C435 C438 1.339 . S
C436 C434 1.416 . S
C436 C438 1.416 . S
C436 C469 1.448 . S
C437 H422 0.930 . S
C437 N433 1.334 . S
C437 C435 1.390 . S
C438 C435 1.339 . S
C438 C436 1.416 . S
C438 H445 0.930 . S
N439 Tb404 2.572 . S
N439 C440 1.340 . S
N439 C442 1.361 . S
C440 H426 0.930 . S
C440 N439 1.340 . S
C440 C444 1.407 . S
C441 C442 1.413 . S
C441 C443 1.416 . S
C441 C470 1.427 . S
C442 C434 1.424 . S
C442 N439 1.361 . S
C442 C441 1.413 . S
C443 H432 0.931 . S
C443 C441 1.416 . S
C443 C444 1.332 . S
C444 H423 0.929 . S
C444 C440 1.407 . S
C444 C443 1.332 . S
H445 C438 0.930 . S
H446 C469 0.930 . S
H447 C470 0.929 . S
O448 Tb404 2.465 . S
O448 C468 1.264 . S
O449 Tb404 2.387 . S
O449 C460 1.264 . S
O450 Tb415 2.349 . S
O450 C460 1.243 . S
O451 Tb404 2.428 . S
O451 C468 1.256 . S
O452 Tb404 2.308 . S
O452 C467 1.266 . S
O453 Tb415 2.393 . S
O453 C467 1.248 . S
O454 Tb415 2.465 . S
O454 C479 1.264 . S
O455 Tb415 2.387 . S
O455 C471 1.264 . S
O456 Tb404 2.349 . S
O456 C471 1.243 . S
O457 Tb415 2.428 . S
O457 C479 1.256 . S
O458 Tb415 2.308 . S
O458 C478 1.266 . S
O459 Tb404 2.393 . S
O459 C478 1.248 . S
C460 O449 1.264 . S
C460 O450 1.243 . S
C461 C464 1.399 . S
C461 C466 1.383 . S
C461 C468 1.496 . S
C462 C463 1.399 . S
C462 C466 1.389 . S
C463 C462 1.399 . S
C463 C465 1.380 . S
C463 H480 0.929 . S
C464 C461 1.399 . S
C464 C465 1.392 . S
C464 H481 0.929 . S
C465 C463 1.380 . S
C465 C464 1.392 . S
C465 H482 0.929 . S
C466 C461 1.383 . S
C466 C462 1.389 . S
C466 H483 0.931 . S
C467 O452 1.266 . S
C467 O453 1.248 . S
C468 Tb404 2.802 . S
C468 O448 1.264 . S
C468 O451 1.256 . S
C468 C461 1.496 . S
C469 C436 1.448 . S
C469 H446 0.930 . S
C469 C470 1.328 . S
C470 C441 1.427 . S
C470 H447 0.929 . S
C470 C469 1.328 . S
C471 O455 1.264 . S
C471 O456 1.243 . S
C472 C475 1.399 . S
C472 C476 1.383 . S
C472 C479 1.496 . S
C473 C474 1.399 . S
C473 C476 1.389 . S
C474 C473 1.399 . S
C474 C477 1.380 . S
C474 H484 0.929 . S
C475 C472 1.399 . S
C475 C477 1.392 . S
C475 H485 0.929 . S
C476 C472 1.383 . S
C476 C473 1.389 . S
C476 H486 0.931 . S
C477 C474 1.380 . S
C477 C475 1.392 . S
C477 H487 0.929 . S
C478 O458 1.266 . S
C478 O459 1.248 . S
C479 Tb415 2.802 . S
C479 O454 1.264 . S
C479 O457 1.256 . S
C479 C472 1.496 . S
H480 C463 0.929 . S
H481 C464 0.929 . S
H482 C465 0.929 . S
H483 C466 0.931 . S
H484 C474 0.929 . S
H485 C475 0.929 . S
H486 C476 0.931 . S
H487 C477 0.929 . S
H488 C496 0.929 . S
H489 C498 0.930 . S
H490 C500 0.930 . S
H491 C503 0.929 . S
H492 C506 0.930 . S
H493 C508 0.960 . S
H494 C508 0.960 . S
H495 C508 0.960 . S
C496 H488 0.929 . S
C496 C497 1.377 . S
C496 C498 1.384 . S
C497 C496 1.377 . S
C497 C503 1.390 . S
C498 H489 0.930 . S
C498 C496 1.384 . S
C498 C499 1.372 . S
C499 C498 1.372 . S
C499 C500 1.400 . S
C499 C504 1.490 . S
C500 H490 0.930 . S
C500 C499 1.400 . S
C500 C503 1.386 . S
H501 C517 0.930 . S
H502 C518 0.931 . S
C503 H491 0.929 . S
C503 C497 1.390 . S
C503 C500 1.386 . S
C504 C499 1.490 . S
C504 C506 1.395 . S
C504 C507 1.403 . S
H505 C511 0.930 . S
C506 H492 0.930 . S
C506 C504 1.395 . S
C506 C509 1.403 . S
C507 C504 1.403 . S
C507 C508 1.524 . S
C507 C511 1.400 . S
C508 H493 0.960 . S
C508 H494 0.960 . S
C508 H495 0.960 . S
C508 C507 1.524 . S
C509 C506 1.403 . S
C509 C510 1.392 . S
C509 C513 1.495 . S
C510 C509 1.392 . S
C510 C511 1.385 . S
C510 C512 1.460 1_565 S
C511 H505 0.930 . S
C511 C507 1.400 . S
C511 C510 1.385 . S
C512 C510 1.460 1_545 S
C512 C514 1.377 1_545 S
C512 C518 1.405 . S
C513 C509 1.495 . S
C513 H519 0.959 . S
C513 H520 0.961 1_565 S
C513 H521 0.960 . S
C514 C512 1.377 1_565 S
C514 C515 1.394 1_565 S
C514 H522 0.930 . S
C515 C514 1.394 1_545 S
C515 C516 1.383 . S
C515 H523 0.929 . S
C516 C515 1.383 . S
C516 C517 1.377 . S
C517 H501 0.930 . S
C517 C516 1.377 . S
C517 C518 1.379 . S
C518 H502 0.931 . S
C518 C512 1.405 . S
C518 C517 1.379 . S
H519 C513 0.959 . S
H520 C513 0.961 1_545 S
H521 C513 0.960 . S
H522 C514 0.930 . S
H523 C515 0.929 . S
H524 C532 0.929 . S
H525 C534 0.930 . S
H526 C536 0.930 . S
H527 C539 0.929 . S
H528 C542 0.930 . S
H529 C544 0.960 . S
H530 C544 0.960 . S
H531 C544 0.960 . S
C532 H524 0.929 . S
C532 C533 1.377 . S
C532 C534 1.384 . S
C533 C532 1.377 . S
C533 C539 1.390 . S
C534 H525 0.930 . S
C534 C532 1.384 . S
C534 C535 1.372 . S
C535 C534 1.372 . S
C535 C536 1.400 . S
C535 C540 1.490 . S
C536 H526 0.930 . S
C536 C535 1.400 . S
C536 C539 1.386 . S
H537 C553 0.930 . S
H538 C554 0.931 . S
C539 H527 0.929 . S
C539 C533 1.390 . S
C539 C536 1.386 . S
C540 C535 1.490 . S
C540 C542 1.395 . S
C540 C543 1.403 . S
H541 C547 0.930 . S
C542 H528 0.930 . S
C542 C540 1.395 . S
C542 C545 1.403 . S
C543 C540 1.403 . S
C543 C544 1.524 . S
C543 C547 1.400 . S
C544 H529 0.960 . S
C544 H530 0.960 . S
C544 H531 0.960 . S
C544 C543 1.524 . S
C545 C542 1.403 . S
C545 C546 1.392 . S
C545 C549 1.495 . S
C546 C545 1.392 . S
C546 C547 1.385 . S
C546 C548 1.478 . S
C547 H541 0.930 . S
C547 C543 1.400 . S
C547 C546 1.385 . S
C548 C546 1.478 . S
C548 C550 1.381 . S
C548 C554 1.383 . S
C549 C545 1.495 . S
C549 H555 0.959 . S
C549 H556 0.961 . S
C549 H557 0.960 . S
C550 C548 1.381 . S
C550 C551 1.394 . S
C550 H558 0.930 . S
C551 C550 1.394 . S
C551 C552 1.383 . S
C551 H559 0.929 . S
C552 C551 1.383 . S
C552 C553 1.377 . S
C553 H537 0.930 . S
C553 C552 1.377 . S
C553 C554 1.379 . S
C554 H538 0.931 . S
C554 C548 1.383 . S
C554 C553 1.379 . S
H555 C549 0.959 . S
H556 C549 0.961 . S
H557 C549 0.960 . S
H558 C550 0.930 . S
H559 C551 0.929 . S
H560 C568 0.929 . S
H561 C570 0.930 . S
H562 C572 0.930 . S
H563 C575 0.929 . S
H564 C578 0.930 . S
H565 C580 0.960 . S
H566 C580 0.960 . S
H567 C580 0.960 . S
C568 H560 0.929 . S
C568 C569 1.377 . S
C568 C570 1.384 . S
C569 C568 1.377 . S
C569 C575 1.390 . S
C570 H561 0.930 . S
C570 C568 1.384 . S
C570 C571 1.372 . S
C571 C570 1.372 . S
C571 C572 1.400 . S
C571 C576 1.490 . S
C572 H562 0.930 . S
C572 C571 1.400 . S
C572 C575 1.386 . S
H573 C589 0.930 . S
H574 C590 0.931 . S
C575 H563 0.929 . S
C575 C569 1.390 . S
C575 C572 1.386 . S
C576 C571 1.490 . S
C576 C578 1.395 . S
C576 C579 1.403 . S
H577 C583 0.930 . S
C578 H564 0.930 . S
C578 C576 1.395 . S
C578 C581 1.403 . S
C579 C576 1.403 . S
C579 C580 1.524 . S
C579 C583 1.400 . S
C580 H565 0.960 . S
C580 H566 0.960 . S
C580 H567 0.960 . S
C580 C579 1.524 . S
C581 C578 1.403 . S
C581 C582 1.392 . S
C581 C585 1.495 . S
C582 C581 1.392 . S
C582 C583 1.385 . S
C582 C584 1.478 . S
C583 H577 0.930 . S
C583 C579 1.400 . S
C583 C582 1.385 . S
C584 C582 1.478 . S
C584 C586 1.381 . S
C584 C590 1.383 . S
C585 C581 1.495 . S
C585 H591 0.959 . S
C585 H592 0.961 . S
C585 H593 0.960 . S
C586 C584 1.381 . S
C586 C587 1.394 . S
C586 H594 0.930 . S
C587 C586 1.394 . S
C587 C588 1.383 . S
C587 H595 0.929 . S
C588 C587 1.383 . S
C588 C589 1.377 . S
C589 H573 0.930 . S
C589 C588 1.377 . S
C589 C590 1.379 . S
C590 H574 0.931 . S
C590 C584 1.383 . S
C590 C589 1.379 . S
H591 C585 0.959 . S
H592 C585 0.961 . S
H593 C585 0.960 . S
H594 C586 0.930 . S
H595 C587 0.929 . S
H596 C604 0.929 . S
H597 C606 0.930 . S
H598 C608 0.930 . S
H599 C611 0.929 . S
H600 C614 0.930 . S
H601 C616 0.960 . S
H602 C616 0.960 . S
H603 C616 0.960 . S
C604 H596 0.929 . S
C604 C605 1.377 . S
C604 C606 1.384 . S
C605 C604 1.377 . S
C605 C611 1.390 . S
C606 H597 0.930 . S
C606 C604 1.384 . S
C606 C607 1.372 . S
C607 C606 1.372 . S
C607 C608 1.400 . S
C607 C612 1.490 . S
C608 H598 0.930 . S
C608 C607 1.400 . S
C608 C611 1.386 . S
H609 C625 0.930 . S
H610 C626 0.931 . S
C611 H599 0.929 . S
C611 C605 1.390 . S
C611 C608 1.386 . S
C612 C607 1.490 . S
C612 C614 1.395 . S
C612 C615 1.403 . S
H613 C619 0.930 . S
C614 H600 0.930 . S
C614 C612 1.395 . S
C614 C617 1.403 . S
C615 C612 1.403 . S
C615 C616 1.524 . S
C615 C619 1.400 . S
C616 H601 0.960 . S
C616 H602 0.960 . S
C616 H603 0.960 . S
C616 C615 1.524 . S
C617 C614 1.403 . S
C617 C618 1.392 . S
C617 C621 1.497 . S
C618 C617 1.392 . S
C618 C619 1.385 . S
C618 C620 1.478 1_565 S
C619 H613 0.930 . S
C619 C615 1.400 . S
C619 C618 1.385 . S
C620 C618 1.478 1_545 S
C620 C622 1.381 . S
C620 C626 1.383 . S
C621 C617 1.497 . S
C621 H627 0.960 . S
C621 H628 0.959 1_565 S
C621 H629 0.960 . S
C622 C620 1.381 . S
C622 C623 1.394 . S
C622 H630 0.930 1_545 S
C623 C622 1.394 . S
C623 C624 1.383 . S
C623 H631 0.929 . S
C624 C623 1.383 . S
C624 C625 1.377 . S
C625 H609 0.930 . S
C625 C624 1.377 . S
C625 C626 1.379 . S
C626 H610 0.931 . S
C626 C620 1.383 . S
C626 C625 1.379 . S
H627 C621 0.960 . S
H628 C621 0.959 1_545 S
H629 C621 0.960 . S
H630 C622 0.930 1_565 S
H631 C623 0.929 . S
H632 C640 0.929 . S
H633 C642 0.930 . S
H634 C644 0.930 . S
H635 C647 0.929 . S
H636 C650 0.930 . S
H637 C652 0.950 1_565 S
H638 C652 0.960 . S
H639 C652 0.960 . S
C640 H632 0.929 . S
C640 C641 1.377 . S
C640 C642 1.384 . S
C641 C640 1.377 . S
C641 C647 1.390 . S
C642 H633 0.930 . S
C642 C640 1.384 . S
C642 C643 1.372 . S
C643 C642 1.372 . S
C643 C644 1.400 . S
C643 C648 1.490 . S
C644 H634 0.930 . S
C644 C643 1.400 . S
C644 C647 1.386 . S
H645 C661 0.930 . S
H646 C662 0.931 . S
C647 H635 0.929 . S
C647 C641 1.390 . S
C647 C644 1.386 . S
C648 C643 1.490 . S
C648 C650 1.395 . S
C648 C651 1.403 . S
H649 C655 0.930 1_565 S
C650 H636 0.930 . S
C650 C648 1.395 . S
C650 C653 1.403 . S
C651 C648 1.403 . S
C651 C652 1.524 . S
C651 C655 1.400 . S
C652 H637 0.950 1_545 S
C652 H638 0.960 . S
C652 H639 0.960 . S
C652 C651 1.524 . S
C653 C650 1.403 . S
C653 C654 1.392 . S
C653 C657 1.495 . S
C654 C653 1.392 . S
C654 C655 1.385 . S
C654 C656 1.478 . S
C655 H649 0.930 1_545 S
C655 C651 1.400 . S
C655 C654 1.385 . S
C656 C654 1.478 . S
C656 C658 1.381 1_545 S
C656 C662 1.383 1_545 S
C657 C653 1.495 . S
C657 H663 0.959 . S
C657 H664 0.961 . S
C657 H665 0.960 . S
C658 C656 1.381 1_565 S
C658 C659 1.394 . S
C658 H666 0.930 1_565 S
C659 C658 1.394 . S
C659 C660 1.383 . S
C659 H667 0.929 . S
C660 C659 1.383 . S
C660 C661 1.377 . S
C661 H645 0.930 . S
C661 C660 1.377 . S
C661 C662 1.379 . S
C662 H646 0.931 . S
C662 C656 1.383 1_565 S
C662 C661 1.379 . S
H663 C657 0.959 . S
H664 C657 0.961 . S
H665 C657 0.960 . S
H666 C658 0.930 1_545 S
H667 C659 0.929 . S
H668 C676 0.929 . S
H669 C678 0.930 . S
H670 C680 0.930 . S
H671 C683 0.929 . S
H672 C686 0.930 . S
H673 C688 0.960 . S
H674 C688 0.960 . S
H675 C688 0.960 . S
C676 H668 0.929 . S
C676 C677 1.377 . S
C676 C678 1.384 . S
C677 C676 1.377 . S
C677 C683 1.390 . S
C678 H669 0.930 . S
C678 C676 1.384 . S
C678 C679 1.372 . S
C679 C678 1.372 . S
C679 C680 1.400 . S
C679 C684 1.490 . S
C680 H670 0.930 . S
C680 C679 1.400 . S
C680 C683 1.386 . S
H681 C697 0.930 . S
H682 C698 0.931 . S
C683 H671 0.929 . S
C683 C677 1.390 . S
C683 C680 1.386 . S
C684 C679 1.490 . S
C684 C686 1.395 . S
C684 C687 1.403 . S
H685 C691 0.930 . S
C686 H672 0.930 . S
C686 C684 1.395 . S
C686 C689 1.403 . S
C687 C684 1.403 . S
C687 C688 1.524 . S
C687 C691 1.400 . S
C688 H673 0.960 . S
C688 H674 0.960 . S
C688 H675 0.960 . S
C688 C687 1.524 . S
C689 C686 1.403 . S
C689 C690 1.392 . S
C689 C693 1.495 . S
C690 C689 1.392 . S
C690 C691 1.385 . S
C690 C692 1.478 . S
C691 H685 0.930 . S
C691 C687 1.400 . S
C691 C690 1.385 . S
C692 C690 1.478 . S
C692 C694 1.381 . S
C692 C698 1.383 . S
C693 C689 1.495 . S
C693 H699 0.959 . S
C693 H700 0.961 . S
C693 H701 0.960 . S
C694 C692 1.381 . S
C694 C695 1.394 . S
C694 H702 0.930 . S
C695 C694 1.394 . S
C695 C696 1.383 . S
C695 H703 0.929 . S
C696 C695 1.383 . S
C696 C697 1.377 . S
C697 H681 0.930 . S
C697 C696 1.377 . S
C697 C698 1.379 . S
C698 H682 0.931 . S
C698 C692 1.383 . S
C698 C697 1.379 . S
H699 C693 0.959 . S
H700 C693 0.961 . S
H701 C693 0.960 . S
H702 C694 0.930 . S
H703 C695 0.929 . S
H704 C712 0.929 . S
H705 C714 0.930 . S
H706 C716 0.930 . S
H707 C719 0.929 . S
H708 C722 0.930 . S
H709 C724 0.960 . S
H710 C724 0.960 . S
H711 C724 0.960 . S
C712 H704 0.929 . S
C712 C713 1.377 . S
C712 C714 1.384 . S
C713 C712 1.377 . S
C713 C719 1.390 . S
C714 H705 0.930 . S
C714 C712 1.384 . S
C714 C715 1.372 . S
C715 C714 1.372 . S
C715 C716 1.400 . S
C715 C720 1.490 . S
C716 H706 0.930 . S
C716 C715 1.400 . S
C716 C719 1.386 . S
H717 C733 0.930 . S
H718 C734 0.931 . S
C719 H707 0.929 . S
C719 C713 1.390 . S
C719 C716 1.386 . S
C720 C715 1.490 . S
C720 C722 1.395 . S
C720 C723 1.403 . S
H721 C727 0.930 . S
C722 H708 0.930 . S
C722 C720 1.395 . S
C722 C725 1.403 . S
C723 C720 1.403 . S
C723 C724 1.524 . S
C723 C727 1.400 . S
C724 H709 0.960 . S
C724 H710 0.960 . S
C724 H711 0.960 . S
C724 C723 1.524 . S
C725 C722 1.403 . S
C725 C726 1.392 . S
C725 C729 1.495 . S
C726 C725 1.392 . S
C726 C727 1.385 . S
C726 C728 1.478 . S
C727 H721 0.930 . S
C727 C723 1.400 . S
C727 C726 1.385 . S
C728 C726 1.478 . S
C728 C730 1.381 . S
C728 C734 1.383 . S
C729 C725 1.495 . S
C729 H735 0.959 . S
C729 H736 0.961 . S
C729 H737 0.960 . S
C730 C728 1.381 . S
C730 C731 1.394 . S
C730 H738 0.930 . S
C731 C730 1.394 . S
C731 C732 1.383 . S
C731 H739 0.929 . S
C732 C731 1.383 . S
C732 C733 1.377 . S
C733 H717 0.930 . S
C733 C732 1.377 . S
C733 C734 1.379 . S
C734 H718 0.931 . S
C734 C728 1.383 . S
C734 C733 1.379 . S
H735 C729 0.959 . S
H736 C729 0.961 . S
H737 C729 0.960 . S
H738 C730 0.930 . S
H739 C731 0.929 . S
H740 C748 0.929 . S
H741 C750 0.930 . S
H742 C752 0.930 . S
H743 C755 0.929 . S
H744 C758 0.930 . S
H745 C760 0.960 . S
H746 C760 0.960 . S
H747 C760 0.960 . S
C748 H740 0.929 . S
C748 C749 1.377 . S
C748 C750 1.384 . S
C749 C748 1.377 . S
C749 C755 1.390 . S
C750 H741 0.930 . S
C750 C748 1.384 . S
C750 C751 1.372 . S
C751 C750 1.372 . S
C751 C752 1.400 . S
C751 C756 1.490 . S
C752 H742 0.930 . S
C752 C751 1.400 . S
C752 C755 1.386 . S
H753 C769 0.930 . S
H754 C770 0.931 1_545 S
C755 H743 0.929 . S
C755 C749 1.390 . S
C755 C752 1.386 . S
C756 C751 1.490 . S
C756 C758 1.395 . S
C756 C759 1.403 . S
H757 C763 0.930 1_565 S
C758 H744 0.930 . S
C758 C756 1.395 . S
C758 C761 1.403 . S
C759 C756 1.403 . S
C759 C760 1.524 . S
C759 C763 1.400 . S
C760 H745 0.960 . S
C760 H746 0.960 . S
C760 H747 0.960 . S
C760 C759 1.524 . S
C761 C758 1.403 . S
C761 C762 1.392 . S
C761 C765 1.495 . S
C762 C761 1.392 . S
C762 C763 1.385 . S
C762 C764 1.478 . S
C763 H757 0.930 1_545 S
C763 C759 1.400 . S
C763 C762 1.385 . S
C764 C762 1.478 . S
C764 C766 1.381 1_545 S
C764 C770 1.383 1_545 S
C765 C761 1.495 . S
C765 H771 0.959 . S
C765 H772 0.961 . S
C765 H773 0.960 . S
C766 C764 1.381 1_565 S
C766 C767 1.394 . S
C766 H774 0.930 . S
C767 C766 1.394 . S
C767 C768 1.383 . S
C767 H775 0.929 . S
C768 C767 1.383 . S
C768 C769 1.377 . S
C769 H753 0.930 . S
C769 C768 1.377 . S
C769 C770 1.379 . S
C770 H754 0.931 1_565 S
C770 C764 1.383 1_565 S
C770 C769 1.379 . S
H771 C765 0.959 . S
H772 C765 0.961 . S
H773 C765 0.960 . S
H774 C766 0.930 . S
H775 C767 0.929 . S
H776 C784 0.929 . S
H777 C786 0.930 1_554 S
H778 C788 0.930 . S
H779 C791 0.929 . S
H780 C794 0.930 . S
H781 C796 0.960 . S
H782 C796 0.960 . S
H783 C796 0.960 1_556 S
C784 H776 0.929 . S
C784 C785 1.377 . S
C784 C786 1.384 . S
C785 C784 1.377 . S
C785 C791 1.390 . S
C786 H777 0.930 1_556 S
C786 C784 1.384 . S
C786 C787 1.376 . S
C787 C786 1.376 . S
C787 C788 1.437 . S
C787 C792 1.451 1_556 S
C788 H778 0.930 . S
C788 C787 1.437 . S
C788 C791 1.386 . S
H789 C805 0.930 . S
H790 C806 0.931 . S
C791 H779 0.929 . S
C791 C785 1.390 . S
C791 C788 1.386 . S
C792 C787 1.451 1_554 S
C792 C794 1.395 . S
C792 C795 1.403 . S
H793 C799 0.930 . S
C794 H780 0.930 . S
C794 C792 1.395 . S
C794 C797 1.403 . S
C795 C792 1.403 . S
C795 C796 1.524 . S
C795 C799 1.400 . S
C796 H781 0.960 . S
C796 H782 0.960 . S
C796 H783 0.960 1_554 S
C796 C795 1.524 . S
C797 C794 1.403 . S
C797 C798 1.392 . S
C797 C801 1.495 . S
C798 C797 1.392 . S
C798 C799 1.385 . S
C798 C800 1.478 . S
C799 H793 0.930 . S
C799 C795 1.400 . S
C799 C798 1.385 . S
C800 C798 1.478 . S
C800 C802 1.381 . S
C800 C806 1.383 . S
C801 C797 1.495 . S
C801 H807 0.959 . S
C801 H808 0.961 . S
C801 H809 0.960 . S
C802 C800 1.381 . S
C802 C803 1.394 . S
C802 H810 0.930 . S
C803 C802 1.394 . S
C803 C804 1.383 . S
C803 H811 0.929 . S
C804 C803 1.383 . S
C804 C805 1.377 . S
C805 H789 0.930 . S
C805 C804 1.377 . S
C805 C806 1.379 . S
C806 H790 0.931 . S
C806 C800 1.383 . S
C806 C805 1.379 . S
H807 C801 0.959 . S
H808 C801 0.961 . S
H809 C801 0.960 . S
H810 C802 0.930 . S
H811 C803 0.929 . S
H812 C820 0.929 . S
H813 C822 0.930 . S
H814 C824 0.930 . S
H815 C827 0.929 . S
H816 C830 0.930 . S
H817 C832 0.960 . S
H818 C832 0.960 . S
H819 C832 0.960 . S
C820 H812 0.929 . S
C820 C821 1.377 . S
C820 C822 1.384 . S
C821 C820 1.377 . S
C821 C827 1.390 . S
C822 H813 0.930 . S
C822 C820 1.384 . S
C822 C823 1.372 . S
C823 C822 1.372 . S
C823 C824 1.400 . S
C823 C828 1.490 . S
C824 H814 0.930 . S
C824 C823 1.400 . S
C824 C827 1.386 . S
H825 C841 0.930 . S
H826 C842 0.931 . S
C827 H815 0.929 . S
C827 C821 1.390 . S
C827 C824 1.386 . S
C828 C823 1.490 . S
C828 C830 1.395 . S
C828 C831 1.403 . S
H829 C835 0.930 . S
C830 H816 0.930 . S
C830 C828 1.395 . S
C830 C833 1.403 . S
C831 C828 1.403 . S
C831 C832 1.524 . S
C831 C835 1.400 . S
C832 H817 0.960 . S
C832 H818 0.960 . S
C832 H819 0.960 . S
C832 C831 1.524 . S
C833 C830 1.403 . S
C833 C834 1.392 . S
C833 C837 1.495 . S
C834 C833 1.392 . S
C834 C835 1.385 . S
C834 C836 1.478 . S
C835 H829 0.930 . S
C835 C831 1.400 . S
C835 C834 1.385 . S
C836 C834 1.478 . S
C836 C838 1.381 . S
C836 C842 1.383 . S
C837 C833 1.495 . S
C837 H843 0.959 . S
C837 H844 0.961 . S
C837 H845 0.960 . S
C838 C836 1.381 . S
C838 C839 1.394 . S
C838 H846 0.930 . S
C839 C838 1.394 . S
C839 C840 1.383 . S
C839 H847 0.929 . S
C840 C839 1.383 . S
C840 C841 1.377 . S
C841 H825 0.930 . S
C841 C840 1.377 . S
C841 C842 1.379 . S
C842 H826 0.931 . S
C842 C836 1.383 . S
C842 C841 1.379 . S
H843 C837 0.959 . S
H844 C837 0.961 . S
H845 C837 0.960 . S
H846 C838 0.930 . S
H847 C839 0.929 . S
H848 C856 0.929 . S
H849 C858 0.930 . S
H850 C860 0.930 1_556 S
H851 C863 0.929 . S
H852 C866 0.930 . S
H853 C868 0.960 . S
H854 C868 0.960 . S
H855 C868 0.960 . S
C856 H848 0.929 . S
C856 C857 1.377 . S
C856 C858 1.384 . S
C857 C856 1.377 . S
C857 C863 1.390 . S
C858 H849 0.930 . S
C858 C856 1.384 . S
C858 C859 1.372 . S
C859 C858 1.372 . S
C859 C860 1.400 . S
C859 C864 1.490 1_554 S
C860 H850 0.930 1_554 S
C860 C859 1.400 . S
C860 C863 1.386 . S
H861 C877 0.930 . S
H862 C878 0.931 . S
C863 H851 0.929 . S
C863 C857 1.390 . S
C863 C860 1.386 . S
C864 C859 1.490 1_556 S
C864 C866 1.395 . S
C864 C867 1.403 . S
H865 C871 0.930 . S
C866 H852 0.930 . S
C866 C864 1.395 . S
C866 C869 1.403 . S
C867 C864 1.403 . S
C867 C868 1.524 . S
C867 C871 1.400 . S
C868 H853 0.960 . S
C868 H854 0.960 . S
C868 H855 0.960 . S
C868 C867 1.524 . S
C869 C866 1.403 . S
C869 C870 1.392 . S
C869 C873 1.495 . S
C870 C869 1.392 . S
C870 C871 1.385 . S
C870 C872 1.478 . S
C871 H865 0.930 . S
C871 C867 1.400 . S
C871 C870 1.385 . S
C872 C870 1.478 . S
C872 C874 1.381 . S
C872 C878 1.383 . S
C873 C869 1.495 . S
C873 H879 0.959 . S
C873 H880 0.961 . S
C873 H881 0.960 . S
C874 C872 1.381 . S
C874 C875 1.394 . S
C874 H882 0.930 . S
C875 C874 1.394 . S
C875 C876 1.383 . S
C875 H883 0.929 . S
C876 C875 1.383 . S
C876 C877 1.377 . S
C877 H861 0.930 . S
C877 C876 1.377 . S
C877 C878 1.379 . S
C878 H862 0.931 . S
C878 C872 1.383 . S
C878 C877 1.379 . S
H879 C873 0.959 . S
H880 C873 0.961 . S
H881 C873 0.960 . S
H882 C874 0.930 . S
H883 C875 0.929 . S
H884 C892 0.929 . S
H885 C894 0.930 . S
H886 C896 0.930 . S
H887 C899 0.929 . S
H888 C902 0.930 . S
H889 C904 0.960 . S
H890 C904 0.960 . S
H891 C904 0.960 . S
C892 H884 0.929 . S
C892 C893 1.377 . S
C892 C894 1.384 . S
C893 C892 1.377 . S
C893 C899 1.390 . S
C894 H885 0.930 . S
C894 C892 1.384 . S
C894 C895 1.372 . S
C895 C894 1.372 . S
C895 C896 1.400 . S
C895 C900 1.490 . S
C896 H886 0.930 . S
C896 C895 1.400 . S
C896 C899 1.386 . S
H897 C913 0.930 . S
H898 C914 0.931 . S
C899 H887 0.929 . S
C899 C893 1.390 . S
C899 C896 1.386 . S
C900 C895 1.490 . S
C900 C902 1.395 . S
C900 C903 1.403 . S
H901 C907 0.930 . S
C902 H888 0.930 . S
C902 C900 1.395 . S
C902 C905 1.403 . S
C903 C900 1.403 . S
C903 C904 1.524 . S
C903 C907 1.400 . S
C904 H889 0.960 . S
C904 H890 0.960 . S
C904 H891 0.960 . S
C904 C903 1.524 . S
C905 C902 1.403 . S
C905 C906 1.392 . S
C905 C909 1.495 . S
C906 C905 1.392 . S
C906 C907 1.385 . S
C906 C908 1.478 . S
C907 H901 0.930 . S
C907 C903 1.400 . S
C907 C906 1.385 . S
C908 C906 1.478 . S
C908 C910 1.381 . S
C908 C914 1.383 . S
C909 C905 1.495 . S
C909 H915 0.959 . S
C909 H916 0.961 . S
C909 H917 0.960 . S
C910 C908 1.381 . S
C910 C911 1.394 . S
C910 H918 0.930 . S
C911 C910 1.394 . S
C911 C912 1.383 . S
C911 H919 0.929 . S
C912 C911 1.383 . S
C912 C913 1.377 . S
C913 H897 0.930 . S
C913 C912 1.377 . S
C913 C914 1.379 . S
C914 H898 0.931 . S
C914 C908 1.383 . S
C914 C913 1.379 . S
H915 C909 0.959 . S
H916 C909 0.961 . S
H917 C909 0.960 . S
H918 C910 0.930 . S
H919 C911 0.929 . S
H920 C928 0.929 . S
H921 C930 0.930 . S
H922 C932 0.914 1_556 S
H923 C935 0.929 . S
H924 C938 0.930 . S
H925 C940 0.960 . S
H926 C940 0.960 . S
H927 C940 0.960 . S
C928 H920 0.929 . S
C928 C929 1.377 . S
C928 C930 1.384 . S
C929 C928 1.377 . S
C929 C935 1.390 . S
C930 H921 0.930 . S
C930 C928 1.384 . S
C930 C931 1.372 . S
C931 C930 1.372 . S
C931 C932 1.400 . S
C931 C936 1.490 1_554 S
C932 H922 0.914 1_554 S
C932 C931 1.400 . S
C932 C935 1.386 . S
H933 C949 0.930 . S
H934 C950 0.931 . S
C935 H923 0.929 . S
C935 C929 1.390 . S
C935 C932 1.386 . S
C936 C931 1.490 1_556 S
C936 C938 1.395 . S
C936 C939 1.403 . S
H937 C943 0.930 . S
C938 H924 0.930 . S
C938 C936 1.395 . S
C938 C941 1.403 . S
C939 C936 1.403 . S
C939 C940 1.524 . S
C939 C943 1.400 . S
C940 H925 0.960 . S
C940 H926 0.960 . S
C940 H927 0.960 . S
C940 C939 1.524 . S
C941 C938 1.403 . S
C941 C942 1.392 . S
C941 C945 1.495 . S
C942 C941 1.392 . S
C942 C943 1.385 . S
C942 C944 1.478 . S
C943 H937 0.930 . S
C943 C939 1.400 . S
C943 C942 1.385 . S
C944 C942 1.478 . S
C944 C946 1.381 . S
C944 C950 1.383 . S
C945 C941 1.495 . S
C945 H951 0.959 . S
C945 H952 0.961 . S
C945 H953 0.960 . S
C946 C944 1.381 . S
C946 C947 1.394 . S
C946 H954 0.930 . S
C947 C946 1.394 . S
C947 C948 1.383 . S
C947 H955 0.929 . S
C948 C947 1.383 . S
C948 C949 1.377 . S
C949 H933 0.930 . S
C949 C948 1.377 . S
C949 C950 1.379 . S
C950 H934 0.931 . S
C950 C944 1.383 . S
C950 C949 1.379 . S
H951 C945 0.959 . S
H952 C945 0.961 . S
H953 C945 0.960 . S
H954 C946 0.930 . S
H955 C947 0.929 . S
H956 C964 0.929 . S
H957 C966 0.930 . S
H958 C968 0.930 . S
H959 C971 0.929 . S
H960 C974 0.930 . S
H961 C976 0.960 . S
H962 C976 0.960 . S
H963 C976 0.960 . S
C964 H956 0.929 . S
C964 C965 1.377 . S
C964 C966 1.384 . S
C965 C964 1.377 . S
C965 C971 1.390 . S
C966 H957 0.930 . S
C966 C964 1.384 . S
C966 C967 1.372 . S
C967 C966 1.372 . S
C967 C968 1.400 . S
C967 C972 1.490 . S
C968 H958 0.930 . S
C968 C967 1.400 . S
C968 C971 1.386 . S
H969 C985 0.930 . S
H970 C986 0.931 . S
C971 H959 0.929 . S
C971 C965 1.390 . S
C971 C968 1.386 . S
C972 C967 1.490 . S
C972 C974 1.395 . S
C972 C975 1.403 . S
H973 C979 0.930 . S
C974 H960 0.930 . S
C974 C972 1.395 . S
C974 C977 1.403 . S
C975 C972 1.403 . S
C975 C976 1.524 . S
C975 C979 1.400 . S
C976 H961 0.960 . S
C976 H962 0.960 . S
C976 H963 0.960 . S
C976 C975 1.524 . S
C977 C974 1.403 . S
C977 C978 1.392 . S
C977 C981 1.495 . S
C978 C977 1.392 . S
C978 C979 1.385 . S
C978 C980 1.478 . S
C979 H973 0.930 . S
C979 C975 1.400 . S
C979 C978 1.385 . S
C980 C978 1.478 . S
C980 C982 1.381 . S
C980 C986 1.383 . S
C981 C977 1.495 . S
C981 H987 0.959 . S
C981 H988 0.961 . S
C981 H989 0.960 . S
C982 C980 1.381 . S
C982 C983 1.394 . S
C982 H990 0.930 . S
C983 C982 1.394 . S
C983 C984 1.383 . S
C983 H991 0.929 . S
C984 C983 1.383 . S
C984 C985 1.377 . S
C985 H969 0.930 . S
C985 C984 1.377 . S
C985 C986 1.379 . S
C986 H970 0.931 . S
C986 C980 1.383 . S
C986 C985 1.379 . S
H987 C981 0.959 . S
H988 C981 0.961 . S
H989 C981 0.960 . S
H990 C982 0.930 . S
H991 C983 0.929 . S
H992 C1000 0.929 . S
H993 C1002 0.930 . S
H994 C1004 0.930 . S
H995 C1007 0.929 . S
H996 C1010 0.930 . S
H997 C1012 0.960 . S
H998 C1012 0.960 1_556 S
H999 C1012 0.960 1_556 S
C1000 H992 0.929 . S
C1000 C1001 1.377 . S
C1000 C1002 1.384 . S
C1001 C1000 1.377 . S
C1001 C1007 1.390 . S
C1002 H993 0.930 . S
C1002 C1000 1.384 . S
C1002 C1003 1.372 . S
C1003 C1002 1.372 . S
C1003 C1004 1.400 . S
C1003 C1008 1.490 1_556 S
C1004 H994 0.930 . S
C1004 C1003 1.400 . S
C1004 C1007 1.386 . S
H1005 C1021 0.930 . S
H1006 C1022 0.931 . S
C1007 H995 0.929 . S
C1007 C1001 1.390 . S
C1007 C1004 1.386 . S
C1008 C1003 1.490 1_554 S
C1008 C1010 1.395 . S
C1008 C1011 1.403 . S
H1009 C1015 0.930 . S
C1010 H996 0.930 . S
C1010 C1008 1.395 . S
C1010 C1013 1.403 . S
C1011 C1008 1.403 . S
C1011 C1012 1.524 . S
C1011 C1015 1.400 . S
C1012 H997 0.960 . S
C1012 H998 0.960 1_554 S
C1012 H999 0.960 1_554 S
C1012 C1011 1.524 . S
C1013 C1010 1.403 . S
C1013 C1014 1.392 . S
C1013 C1017 1.495 . S
C1014 C1013 1.392 . S
C1014 C1015 1.385 . S
C1014 C1016 1.478 . S
C1015 H1009 0.930 . S
C1015 C1011 1.400 . S
C1015 C1014 1.385 . S
C1016 C1014 1.478 . S
C1016 C1018 1.381 . S
C1016 C1022 1.383 . S
C1017 C1013 1.495 . S
C1017 H1023 0.959 . S
C1017 H1024 0.961 . S
C1017 H1025 0.960 . S
C1018 C1016 1.381 . S
C1018 C1019 1.394 . S
C1018 H1026 0.930 . S
C1019 C1018 1.394 . S
C1019 C1020 1.383 . S
C1019 H1027 0.929 . S
C1020 C1019 1.383 . S
C1020 C1021 1.377 . S
C1021 H1005 0.930 . S
C1021 C1020 1.377 . S
C1021 C1022 1.379 . S
C1022 H1006 0.931 . S
C1022 C1016 1.383 . S
C1022 C1021 1.379 . S
H1023 C1017 0.959 . S
H1024 C1017 0.961 . S
H1025 C1017 0.960 . S
H1026 C1018 0.930 . S
H1027 C1019 0.929 . S
H1028 C1036 0.929 . S
H1029 C1038 0.930 . S
H1030 C1040 0.930 . S
H1031 C1043 0.929 . S
H1032 C1046 0.930 . S
H1033 C1048 0.960 . S
H1034 C1048 0.960 . S
H1035 C1048 0.960 . S
C1036 H1028 0.929 . S
C1036 C1037 1.377 . S
C1036 C1038 1.384 . S
C1037 C1036 1.377 . S
C1037 C1043 1.390 . S
C1038 H1029 0.930 . S
C1038 C1036 1.384 . S
C1038 C1039 1.372 . S
C1039 C1038 1.372 . S
C1039 C1040 1.400 . S
C1039 C1044 1.490 . S
C1040 H1030 0.930 . S
C1040 C1039 1.400 . S
C1040 C1043 1.386 . S
H1041 C1057 0.930 . S
H1042 C1058 0.931 . S
C1043 H1031 0.929 . S
C1043 C1037 1.390 . S
C1043 C1040 1.386 . S
C1044 C1039 1.490 . S
C1044 C1046 1.395 . S
C1044 C1047 1.403 . S
H1045 C1051 0.930 . S
C1046 H1032 0.930 . S
C1046 C1044 1.395 . S
C1046 C1049 1.403 . S
C1047 C1044 1.403 . S
C1047 C1048 1.524 . S
C1047 C1051 1.400 . S
C1048 H1033 0.960 . S
C1048 H1034 0.960 . S
C1048 H1035 0.960 . S
C1048 C1047 1.524 . S
C1049 C1046 1.403 . S
C1049 C1050 1.392 . S
C1049 C1053 1.495 . S
C1050 C1049 1.392 . S
C1050 C1051 1.385 . S
C1050 C1052 1.478 . S
C1051 H1045 0.930 . S
C1051 C1047 1.400 . S
C1051 C1050 1.385 . S
C1052 C1050 1.478 . S
C1052 C1054 1.381 . S
C1052 C1058 1.383 . S
C1053 C1049 1.495 . S
C1053 H1059 0.959 . S
C1053 H1060 0.961 . S
C1053 H1061 0.960 . S
C1054 C1052 1.381 . S
C1054 C1055 1.394 . S
C1054 H1062 0.930 . S
C1055 C1054 1.394 . S
C1055 C1056 1.383 . S
C1055 H1063 0.929 . S
C1056 C1055 1.383 . S
C1056 C1057 1.377 . S
C1057 H1041 0.930 . S
C1057 C1056 1.377 . S
C1057 C1058 1.379 . S
C1058 H1042 0.931 . S
C1058 C1052 1.383 . S
C1058 C1057 1.379 . S
H1059 C1053 0.959 . S
H1060 C1053 0.961 . S
H1061 C1053 0.960 . S
H1062 C1054 0.930 . S
H1063 C1055 0.929 . S
H1064 C1072 0.929 . S
H1065 C1074 0.930 . S
H1066 C1076 0.930 . S
H1067 C1079 0.929 . S
H1068 C1082 0.930 . S
H1069 C1084 0.960 . S
H1070 C1084 0.960 . S
H1071 C1084 0.960 . S
C1072 H1064 0.929 . S
C1072 C1073 1.377 . S
C1072 C1074 1.384 . S
C1073 C1072 1.377 . S
C1073 C1079 1.390 . S
C1074 H1065 0.930 . S
C1074 C1072 1.384 . S
C1074 C1075 1.372 . S
C1075 C1074 1.372 . S
C1075 C1076 1.400 . S
C1075 C1080 1.490 . S
C1076 H1066 0.930 . S
C1076 C1075 1.400 . S
C1076 C1079 1.386 . S
H1077 C1093 0.930 . S
H1078 C1094 0.931 . S
C1079 H1067 0.929 . S
C1079 C1073 1.390 . S
C1079 C1076 1.386 . S
C1080 C1075 1.490 . S
C1080 C1082 1.395 . S
C1080 C1083 1.403 . S
H1081 C1087 0.930 . S
C1082 H1068 0.930 . S
C1082 C1080 1.395 . S
C1082 C1085 1.403 . S
C1083 C1080 1.403 . S
C1083 C1084 1.524 . S
C1083 C1087 1.400 . S
C1084 H1069 0.960 . S
C1084 H1070 0.960 . S
C1084 H1071 0.960 . S
C1084 C1083 1.524 . S
C1085 C1082 1.403 . S
C1085 C1086 1.392 . S
C1085 C1089 1.495 . S
C1086 C1085 1.392 . S
C1086 C1087 1.385 . S
C1086 C1088 1.478 . S
C1087 H1081 0.930 . S
C1087 C1083 1.400 . S
C1087 C1086 1.385 . S
C1088 C1086 1.478 . S
C1088 C1090 1.381 . S
C1088 C1094 1.383 . S
C1089 C1085 1.495 . S
C1089 H1095 0.959 . S
C1089 H1096 0.961 . S
C1089 H1097 0.960 . S
C1090 C1088 1.381 . S
C1090 C1091 1.394 . S
C1090 H1098 0.930 . S
C1091 C1090 1.394 . S
C1091 C1092 1.383 . S
C1091 H1099 0.929 . S
C1092 C1091 1.383 . S
C1092 C1093 1.377 . S
C1093 H1077 0.930 . S
C1093 C1092 1.377 . S
C1093 C1094 1.379 . S
C1094 H1078 0.931 . S
C1094 C1088 1.383 . S
C1094 C1093 1.379 . S
H1095 C1089 0.959 . S
H1096 C1089 0.961 . S
H1097 C1089 0.960 . S
H1098 C1090 0.930 . S
H1099 C1091 0.929 . S
H1100 C1108 0.929 . S
H1101 C1110 0.930 . S
H1102 C1112 0.930 . S
H1103 C1115 0.929 . S
H1104 C1118 0.930 . S
H1105 C1120 0.960 . S
H1106 C1120 0.960 . S
H1107 C1120 0.960 . S
C1108 H1100 0.929 . S
C1108 C1109 1.377 . S
C1108 C1110 1.384 . S
C1109 C1108 1.377 . S
C1109 C1115 1.390 . S
C1110 H1101 0.930 . S
C1110 C1108 1.384 . S
C1110 C1111 1.372 . S
C1111 C1110 1.372 . S
C1111 C1112 1.400 . S
C1111 C1116 1.490 . S
C1112 H1102 0.930 . S
C1112 C1111 1.400 . S
C1112 C1115 1.386 . S
H1113 C1129 0.930 . S
H1114 C1130 0.931 . S
C1115 H1103 0.929 . S
C1115 C1109 1.390 . S
C1115 C1112 1.386 . S
C1116 C1111 1.490 . S
C1116 C1118 1.395 . S
C1116 C1119 1.403 . S
H1117 C1123 0.930 . S
C1118 H1104 0.930 . S
C1118 C1116 1.395 . S
C1118 C1121 1.403 . S
C1119 C1116 1.403 . S
C1119 C1120 1.524 . S
C1119 C1123 1.400 . S
C1120 H1105 0.960 . S
C1120 H1106 0.960 . S
C1120 H1107 0.960 . S
C1120 C1119 1.524 . S
C1121 C1118 1.403 . S
C1121 C1122 1.392 . S
C1121 C1125 1.495 . S
C1122 C1121 1.392 . S
C1122 C1123 1.385 . S
C1122 C1124 1.478 . S
C1123 H1117 0.930 . S
C1123 C1119 1.400 . S
C1123 C1122 1.385 . S
C1124 C1122 1.478 . S
C1124 C1126 1.381 . S
C1124 C1130 1.383 . S
C1125 C1121 1.495 . S
C1125 H1131 0.959 . S
C1125 H1132 0.961 . S
C1125 H1133 0.960 . S
C1126 C1124 1.381 . S
C1126 C1127 1.394 . S
C1126 H1134 0.930 . S
C1127 C1126 1.394 . S
C1127 C1128 1.383 . S
C1127 H1135 0.929 . S
C1128 C1127 1.383 . S
C1128 C1129 1.377 . S
C1129 H1113 0.930 . S
C1129 C1128 1.377 . S
C1129 C1130 1.379 . S
C1130 H1114 0.931 . S
C1130 C1124 1.383 . S
C1130 C1129 1.379 . S
H1131 C1125 0.959 . S
H1132 C1125 0.961 . S
H1133 C1125 0.960 . S
H1134 C1126 0.930 . S
H1135 C1127 0.929 . S
H1136 C1144 0.929 . S
H1137 C1146 0.930 . S
H1138 C1148 0.930 . S
H1139 C1151 0.929 . S
H1140 C1154 0.930 . S
H1141 C1156 0.960 . S
H1142 C1156 0.960 . S
H1143 C1156 0.960 . S
C1144 H1136 0.929 . S
C1144 C1145 1.377 . S
C1144 C1146 1.384 . S
C1145 C1144 1.377 . S
C1145 C1151 1.390 . S
C1146 H1137 0.930 . S
C1146 C1144 1.384 . S
C1146 C1147 1.372 . S
C1147 C1146 1.372 . S
C1147 C1148 1.400 . S
C1147 C1152 1.490 . S
C1148 H1138 0.930 . S
C1148 C1147 1.400 . S
C1148 C1151 1.386 . S
H1149 C1165 0.930 . S
H1150 C1166 0.931 . S
C1151 H1139 0.929 . S
C1151 C1145 1.390 . S
C1151 C1148 1.386 . S
C1152 C1147 1.490 . S
C1152 C1154 1.395 . S
C1152 C1155 1.403 . S
H1153 C1159 0.930 . S
C1154 H1140 0.930 . S
C1154 C1152 1.395 . S
C1154 C1157 1.403 . S
C1155 C1152 1.403 . S
C1155 C1156 1.524 . S
C1155 C1159 1.400 . S
C1156 H1141 0.960 . S
C1156 H1142 0.960 . S
C1156 H1143 0.960 . S
C1156 C1155 1.524 . S
C1157 C1154 1.403 . S
C1157 C1158 1.392 . S
C1157 C1161 1.495 . S
C1158 C1157 1.392 . S
C1158 C1159 1.385 . S
C1158 C1160 1.478 . S
C1159 H1153 0.930 . S
C1159 C1155 1.400 . S
C1159 C1158 1.385 . S
C1160 C1158 1.478 . S
C1160 C1162 1.381 . S
C1160 C1166 1.383 . S
C1161 C1157 1.495 . S
C1161 H1167 0.959 . S
C1161 H1168 0.961 . S
C1161 H1169 0.960 . S
C1162 C1160 1.381 . S
C1162 C1163 1.394 . S
C1162 H1170 0.930 . S
C1163 C1162 1.394 . S
C1163 C1164 1.383 . S
C1163 H1171 0.929 . S
C1164 C1163 1.383 . S
C1164 C1165 1.377 . S
C1165 H1149 0.930 . S
C1165 C1164 1.377 . S
C1165 C1166 1.379 . S
C1166 H1150 0.931 . S
C1166 C1160 1.383 . S
C1166 C1165 1.379 . S
H1167 C1161 0.959 . S
H1168 C1161 0.961 . S
H1169 C1161 0.960 . S
H1170 C1162 0.930 . S
H1171 C1163 0.929 . S
H1172 C1180 0.929 . S
H1173 C1182 0.930 . S
H1174 C1184 0.930 . S
H1175 C1187 0.929 . S
H1176 C1190 0.930 . S
H1177 C1192 0.960 . S
H1178 C1192 0.960 . S
H1179 C1192 0.960 . S
C1180 H1172 0.929 . S
C1180 C1181 1.377 . S
C1180 C1182 1.384 . S
C1181 C1180 1.377 . S
C1181 C1187 1.390 . S
C1182 H1173 0.930 . S
C1182 C1180 1.384 . S
C1182 C1183 1.372 . S
C1183 C1182 1.372 . S
C1183 C1184 1.400 . S
C1183 C1188 1.490 . S
C1184 H1174 0.930 . S
C1184 C1183 1.400 . S
C1184 C1187 1.386 . S
H1185 C1201 0.930 . S
H1186 C1202 0.931 . S
C1187 H1175 0.929 . S
C1187 C1181 1.390 . S
C1187 C1184 1.386 . S
C1188 C1183 1.490 . S
C1188 C1190 1.395 . S
C1188 C1191 1.403 . S
H1189 C1195 0.930 . S
C1190 H1176 0.930 . S
C1190 C1188 1.395 . S
C1190 C1193 1.403 . S
C1191 C1188 1.403 . S
C1191 C1192 1.524 . S
C1191 C1195 1.400 . S
C1192 H1177 0.960 . S
C1192 H1178 0.960 . S
C1192 H1179 0.960 . S
C1192 C1191 1.524 . S
C1193 C1190 1.403 . S
C1193 C1194 1.392 . S
C1193 C1197 1.495 . S
C1194 C1193 1.392 . S
C1194 C1195 1.385 . S
C1194 C1196 1.478 . S
C1195 H1189 0.930 . S
C1195 C1191 1.400 . S
C1195 C1194 1.385 . S
C1196 C1194 1.478 . S
C1196 C1198 1.381 . S
C1196 C1202 1.383 . S
C1197 C1193 1.495 . S
C1197 H1203 0.959 . S
C1197 H1204 0.961 . S
C1197 H1205 0.960 . S
C1198 C1196 1.381 . S
C1198 C1199 1.394 . S
C1198 H1206 0.930 . S
C1199 C1198 1.394 . S
C1199 C1200 1.383 . S
C1199 H1207 0.929 . S
C1200 C1199 1.383 . S
C1200 C1201 1.377 . S
C1201 H1185 0.930 . S
C1201 C1200 1.377 . S
C1201 C1202 1.379 . S
C1202 H1186 0.931 . S
C1202 C1196 1.383 . S
C1202 C1201 1.379 . S
H1203 C1197 0.959 . S
H1204 C1197 0.961 . S
H1205 C1197 0.960 . S
H1206 C1198 0.930 . S
H1207 C1199 0.929 . S
H1208 C1216 0.929 . S
H1209 C1218 0.930 . S
H1210 C1220 0.930 . S
H1211 C1223 0.929 . S
H1212 C1226 0.930 . S
H1213 C1228 0.960 . S
H1214 C1228 0.960 . S
H1215 C1228 0.960 . S
C1216 H1208 0.929 . S
C1216 C1217 1.377 . S
C1216 C1218 1.384 . S
C1217 C1216 1.377 . S
C1217 C1223 1.390 . S
C1218 H1209 0.930 . S
C1218 C1216 1.384 . S
C1218 C1219 1.372 . S
C1219 C1218 1.372 . S
C1219 C1220 1.400 . S
C1219 C1224 1.490 . S
C1220 H1210 0.930 . S
C1220 C1219 1.400 . S
C1220 C1223 1.386 . S
H1221 C1237 0.930 . S
H1222 C1238 0.931 . S
C1223 H1211 0.929 . S
C1223 C1217 1.390 . S
C1223 C1220 1.386 . S
C1224 C1219 1.490 . S
C1224 C1226 1.395 . S
C1224 C1227 1.403 . S
H1225 C1231 0.930 . S
C1226 H1212 0.930 . S
C1226 C1224 1.395 . S
C1226 C1229 1.403 . S
C1227 C1224 1.403 . S
C1227 C1228 1.524 . S
C1227 C1231 1.400 . S
C1228 H1213 0.960 . S
C1228 H1214 0.960 . S
C1228 H1215 0.960 . S
C1228 C1227 1.524 . S
C1229 C1226 1.403 . S
C1229 C1230 1.392 . S
C1229 C1233 1.495 . S
C1230 C1229 1.392 . S
C1230 C1231 1.385 . S
C1230 C1232 1.478 . S
C1231 H1225 0.930 . S
C1231 C1227 1.400 . S
C1231 C1230 1.385 . S
C1232 C1230 1.478 . S
C1232 C1234 1.381 . S
C1232 C1238 1.383 . S
C1233 C1229 1.495 . S
C1233 H1239 0.959 . S
C1233 H1240 0.961 . S
C1233 H1241 0.960 . S
C1234 C1232 1.381 . S
C1234 C1235 1.394 . S
C1234 H1242 0.930 . S
C1235 C1234 1.394 . S
C1235 C1236 1.383 . S
C1235 H1243 0.929 . S
C1236 C1235 1.383 . S
C1236 C1237 1.377 . S
C1237 H1221 0.930 . S
C1237 C1236 1.377 . S
C1237 C1238 1.379 . S
C1238 H1222 0.931 . S
C1238 C1232 1.383 . S
C1238 C1237 1.379 . S
H1239 C1233 0.959 . S
H1240 C1233 0.961 . S
H1241 C1233 0.960 . S
H1242 C1234 0.930 . S
H1243 C1235 0.929 . S
H1244 C1252 0.929 . S
H1245 C1254 0.930 . S
H1246 C1256 0.930 . S
H1247 C1259 0.929 . S
H1248 C1262 0.930 . S
H1249 C1264 0.960 . S
H1250 C1264 0.960 . S
H1251 C1264 0.960 . S
C1252 H1244 0.929 . S
C1252 C1253 1.377 . S
C1252 C1254 1.384 . S
C1253 C1252 1.377 . S
C1253 C1259 1.390 . S
C1254 H1245 0.930 . S
C1254 C1252 1.384 . S
C1254 C1255 1.372 . S
C1255 C1254 1.372 . S
C1255 C1256 1.400 . S
C1255 C1260 1.490 . S
C1256 H1246 0.930 . S
C1256 C1255 1.400 . S
C1256 C1259 1.386 . S
H1257 C1273 0.930 . S
H1258 C1274 0.931 . S
C1259 H1247 0.929 . S
C1259 C1253 1.390 . S
C1259 C1256 1.386 . S
C1260 C1255 1.490 . S
C1260 C1262 1.395 . S
C1260 C1263 1.403 . S
H1261 C1267 0.930 . S
C1262 H1248 0.930 . S
C1262 C1260 1.395 . S
C1262 C1265 1.403 . S
C1263 C1260 1.403 . S
C1263 C1264 1.524 . S
C1263 C1267 1.400 . S
C1264 H1249 0.960 . S
C1264 H1250 0.960 . S
C1264 H1251 0.960 . S
C1264 C1263 1.524 . S
C1265 C1262 1.403 . S
C1265 C1266 1.392 . S
C1265 C1269 1.495 . S
C1266 C1265 1.392 . S
C1266 C1267 1.385 . S
C1266 C1268 1.478 . S
C1267 H1261 0.930 . S
C1267 C1263 1.400 . S
C1267 C1266 1.385 . S
C1268 C1266 1.478 . S
C1268 C1270 1.381 . S
C1268 C1274 1.383 . S
C1269 C1265 1.495 . S
C1269 H1275 0.959 . S
C1269 H1276 0.961 . S
C1269 H1277 0.960 . S
C1270 C1268 1.381 . S
C1270 C1271 1.394 . S
C1270 H1278 0.930 . S
C1271 C1270 1.394 . S
C1271 C1272 1.383 . S
C1271 H1279 0.929 . S
C1272 C1271 1.383 . S
C1272 C1273 1.377 . S
C1273 H1257 0.930 . S
C1273 C1272 1.377 . S
C1273 C1274 1.379 . S
C1274 H1258 0.931 . S
C1274 C1268 1.383 . S
C1274 C1273 1.379 . S
H1275 C1269 0.959 . S
H1276 C1269 0.961 . S
H1277 C1269 0.960 . S
H1278 C1270 0.930 . S
H1279 C1271 0.929 . S
H1280 C1288 0.929 . S
H1281 C1290 0.930 . S
H1282 C1292 0.930 . S
H1283 C1295 0.929 . S
H1284 C1298 0.930 . S
H1285 C1300 0.960 . S
H1286 C1300 0.960 . S
H1287 C1300 0.960 . S
C1288 H1280 0.929 . S
C1288 C1289 1.377 . S
C1288 C1290 1.384 . S
C1289 C1288 1.377 . S
C1289 C1295 1.390 . S
C1290 H1281 0.930 . S
C1290 C1288 1.384 . S
C1290 C1291 1.372 . S
C1291 C1290 1.372 . S
C1291 C1292 1.400 . S
C1291 C1296 1.490 . S
C1292 H1282 0.930 . S
C1292 C1291 1.400 . S
C1292 C1295 1.386 . S
H1293 C1309 0.930 . S
H1294 C1310 0.931 . S
C1295 H1283 0.929 . S
C1295 C1289 1.390 . S
C1295 C1292 1.386 . S
C1296 C1291 1.490 . S
C1296 C1298 1.395 . S
C1296 C1299 1.403 . S
H1297 C1303 0.930 . S
C1298 H1284 0.930 . S
C1298 C1296 1.395 . S
C1298 C1301 1.403 . S
C1299 C1296 1.403 . S
C1299 C1300 1.524 . S
C1299 C1303 1.400 . S
C1300 H1285 0.960 . S
C1300 H1286 0.960 . S
C1300 H1287 0.960 . S
C1300 C1299 1.524 . S
C1301 C1298 1.403 . S
C1301 C1302 1.392 . S
C1301 C1305 1.495 . S
C1302 C1301 1.392 . S
C1302 C1303 1.385 . S
C1302 C1304 1.478 . S
C1303 H1297 0.930 . S
C1303 C1299 1.400 . S
C1303 C1302 1.385 . S
C1304 C1302 1.478 . S
C1304 C1306 1.381 . S
C1304 C1310 1.383 . S
C1305 C1301 1.495 . S
C1305 H1311 0.959 . S
C1305 H1312 0.961 . S
C1305 H1313 0.960 . S
C1306 C1304 1.381 . S
C1306 C1307 1.394 . S
C1306 H1314 0.930 . S
C1307 C1306 1.394 . S
C1307 C1308 1.383 . S
C1307 H1315 0.929 . S
C1308 C1307 1.383 . S
C1308 C1309 1.377 . S
C1309 H1293 0.930 . S
C1309 C1308 1.377 . S
C1309 C1310 1.379 . S
C1310 H1294 0.931 . S
C1310 C1304 1.383 . S
C1310 C1309 1.379 . S
H1311 C1305 0.959 . S
H1312 C1305 0.961 . S
H1313 C1305 0.960 . S
H1314 C1306 0.930 . S
H1315 C1307 0.929 . S
H1316 C1324 0.929 . S
H1317 C1326 0.930 . S
H1318 C1328 0.930 . S
H1319 C1331 0.929 . S
H1320 C1334 0.930 . S
H1321 C1336 0.960 . S
H1322 C1336 0.960 . S
H1323 C1336 0.960 . S
C1324 H1316 0.929 . S
C1324 C1325 1.377 . S
C1324 C1326 1.384 . S
C1325 C1324 1.377 . S
C1325 C1331 1.390 . S
C1326 H1317 0.930 . S
C1326 C1324 1.384 . S
C1326 C1327 1.372 . S
C1327 C1326 1.372 . S
C1327 C1328 1.400 . S
C1327 C1332 1.490 . S
C1328 H1318 0.930 . S
C1328 C1327 1.400 . S
C1328 C1331 1.386 . S
H1329 C1345 0.930 . S
H1330 C1346 0.931 . S
C1331 H1319 0.929 . S
C1331 C1325 1.390 . S
C1331 C1328 1.386 . S
C1332 C1327 1.490 . S
C1332 C1334 1.395 . S
C1332 C1335 1.403 . S
H1333 C1339 0.930 . S
C1334 H1320 0.930 . S
C1334 C1332 1.395 . S
C1334 C1337 1.403 . S
C1335 C1332 1.403 . S
C1335 C1336 1.524 . S
C1335 C1339 1.400 . S
C1336 H1321 0.960 . S
C1336 H1322 0.960 . S
C1336 H1323 0.960 . S
C1336 C1335 1.524 . S
C1337 C1334 1.403 . S
C1337 C1338 1.392 . S
C1337 C1341 1.495 . S
C1338 C1337 1.392 . S
C1338 C1339 1.385 . S
C1338 C1340 1.478 . S
C1339 H1333 0.930 . S
C1339 C1335 1.400 . S
C1339 C1338 1.385 . S
C1340 C1338 1.478 . S
C1340 C1342 1.381 . S
C1340 C1346 1.383 . S
C1341 C1337 1.495 . S
C1341 H1347 0.959 . S
C1341 H1348 0.961 . S
C1341 H1349 0.960 . S
C1342 C1340 1.381 . S
C1342 C1343 1.394 . S
C1342 H1350 0.930 . S
C1343 C1342 1.394 . S
C1343 C1344 1.383 . S
C1343 H1351 0.929 . S
C1344 C1343 1.383 . S
C1344 C1345 1.377 . S
C1345 H1329 0.930 . S
C1345 C1344 1.377 . S
C1345 C1346 1.379 . S
C1346 H1330 0.931 . S
C1346 C1340 1.383 . S
C1346 C1345 1.379 . S
H1347 C1341 0.959 . S
H1348 C1341 0.961 . S
H1349 C1341 0.960 . S
H1350 C1342 0.930 . S
H1351 C1343 0.929 . S
C497 C116 1.839 . S
C516 C226 1.838 . S
C552 C310 1.824 . S
C533 C135 1.836 . S
C588 C303 1.826 . S
C569 C78 1.830 . S
C605 C97 1.832 . S
C624 C219 1.831 . S
C660 C383 1.817 . S
C641 C40 1.837 . S
C696 C467 1.822 . S
C677 C59 1.840 . S
C713 C2 1.831 . S
C732 C460 1.836 . S
C749 C21 1.831 . S
C768 C376 1.843 . S
C804 C210 1.607 . S
C785 C25 1.767 . S
C840 C294 1.561 . S
C821 C6 1.766 . S
C876 C305 1.530 . S
C857 C63 1.772 . S
C912 C221 1.522 . S
C893 C44 1.775 . S
C948 C389 1.613 . S
C929 C101 1.765 . S
C965 C82 1.763 . S
C984 C473 1.622 . S
C1020 C462 1.467 . S
C1001 C139 1.770 . S
C1037 C120 1.770 . S
C1056 C378 1.470 . S
C1092 C208 1.535 . S
C1073 C11 1.475 . S
C1128 C292 1.535 . S
C1109 C30 1.475 . S
C1145 C49 1.467 . S
C1164 C299 1.522 . S
C1200 C215 1.511 . S
C1181 C68 1.459 . S
C1236 C387 1.541 . S
C1217 C87 1.416 . S
C1253 C106 1.427 . S
C1272 C471 1.535 . S
C1289 C125 1.428 . S
C1308 C478 1.523 . S
C1325 C144 1.420 . S
C1344 C394 1.504 . S
