# Generated by pormake.
# Topology eea, (3,6)-cn, num edge types: 1
# Building blocks:
#     Node 0, Type 0, BuildingBlock: ESEHIV_clean_linker_0, # of connection points: 3
#     Node 1, Type 0, BuildingBlock: ESEHIV_clean_linker_0, # of connection points: 3
#     Node 2, Type 0, BuildingBlock: ESEHIV_clean_linker_0, # of connection points: 3
#     Node 3, Type 0, BuildingBlock: ESEHIV_clean_linker_0, # of connection points: 3
#     Node 4, Type 0, BuildingBlock: ESEHIV_clean_linker_0, # of connection points: 3
#     Node 5, Type 0, BuildingBlock: ESEHIV_clean_linker_0, # of connection points: 3
#     Node 6, Type 0, BuildingBlock: ESEHIV_clean_linker_0, # of connection points: 3
#     Node 7, Type 0, BuildingBlock: ESEHIV_clean_linker_0, # of connection points: 3
#     Node 8, Type 0, BuildingBlock: ESEHIV_clean_linker_0, # of connection points: 3
#     Node 9, Type 0, BuildingBlock: ESEHIV_clean_linker_0, # of connection points: 3
#     Node 10, Type 0, BuildingBlock: ESEHIV_clean_linker_0, # of connection points: 3
#     Node 11, Type 0, BuildingBlock: ESEHIV_clean_linker_0, # of connection points: 3
#     Node 12, Type 0, BuildingBlock: ESEHIV_clean_linker_0, # of connection points: 3
#     Node 13, Type 0, BuildingBlock: ESEHIV_clean_linker_0, # of connection points: 3
#     Node 14, Type 0, BuildingBlock: ESEHIV_clean_linker_0, # of connection points: 3
#     Node 15, Type 0, BuildingBlock: ESEHIV_clean_linker_0, # of connection points: 3
#     Node 16, Type 0, BuildingBlock: ESEHIV_clean_linker_0, # of connection points: 3
#     Node 17, Type 0, BuildingBlock: ESEHIV_clean_linker_0, # of connection points: 3
#     Node 18, Type 1, BuildingBlock: KUMBUR_clean_sbu_0, # of connection points: 6
#     Node 19, Type 1, BuildingBlock: KUMBUR_clean_sbu_0, # of connection points: 6
#     Node 20, Type 1, BuildingBlock: KUMBUR_clean_sbu_0, # of connection points: 6
#     Node 21, Type 1, BuildingBlock: KUMBUR_clean_sbu_0, # of connection points: 6
#     Node 22, Type 1, BuildingBlock: KUMBUR_clean_sbu_0, # of connection points: 6
#     Node 23, Type 1, BuildingBlock: KUMBUR_clean_sbu_0, # of connection points: 6
#     Node 24, Type 1, BuildingBlock: KUMBUR_clean_sbu_0, # of connection points: 6
#     Node 25, Type 1, BuildingBlock: KUMBUR_clean_sbu_0, # of connection points: 6
#     Node 26, Type 1, BuildingBlock: KUMBUR_clean_sbu_0, # of connection points: 6
#     Edge 27, Type (0, 1), BuildingBlock: OJICUG_clean_linker_0, # of connection points: 2
#     Edge 28, Type (0, 1), BuildingBlock: OJICUG_clean_linker_0, # of connection points: 2
#     Edge 29, Type (0, 1), BuildingBlock: OJICUG_clean_linker_0, # of connection points: 2
#     Edge 30, Type (0, 1), BuildingBlock: OJICUG_clean_linker_0, # of connection points: 2
#     Edge 31, Type (0, 1), BuildingBlock: OJICUG_clean_linker_0, # of connection points: 2
#     Edge 32, Type (0, 1), BuildingBlock: OJICUG_clean_linker_0, # of connection points: 2
#     Edge 33, Type (0, 1), BuildingBlock: OJICUG_clean_linker_0, # of connection points: 2
#     Edge 34, Type (0, 1), BuildingBlock: OJICUG_clean_linker_0, # of connection points: 2
#     Edge 35, Type (0, 1), BuildingBlock: OJICUG_clean_linker_0, # of connection points: 2
#     Edge 36, Type (0, 1), BuildingBlock: OJICUG_clean_linker_0, # of connection points: 2
#     Edge 37, Type (0, 1), BuildingBlock: OJICUG_clean_linker_0, # of connection points: 2
#     Edge 38, Type (0, 1), BuildingBlock: OJICUG_clean_linker_0, # of connection points: 2
#     Edge 39, Type (0, 1), BuildingBlock: OJICUG_clean_linker_0, # of connection points: 2
#     Edge 40, Type (0, 1), BuildingBlock: OJICUG_clean_linker_0, # of connection points: 2
#     Edge 41, Type (0, 1), BuildingBlock: OJICUG_clean_linker_0, # of connection points: 2
#     Edge 42, Type (0, 1), BuildingBlock: OJICUG_clean_linker_0, # of connection points: 2
#     Edge 43, Type (0, 1), BuildingBlock: OJICUG_clean_linker_0, # of connection points: 2
#     Edge 44, Type (0, 1), BuildingBlock: OJICUG_clean_linker_0, # of connection points: 2
#     Edge 45, Type (0, 1), BuildingBlock: OJICUG_clean_linker_0, # of connection points: 2
#     Edge 46, Type (0, 1), BuildingBlock: OJICUG_clean_linker_0, # of connection points: 2
#     Edge 47, Type (0, 1), BuildingBlock: OJICUG_clean_linker_0, # of connection points: 2
#     Edge 48, Type (0, 1), BuildingBlock: OJICUG_clean_linker_0, # of connection points: 2
#     Edge 49, Type (0, 1), BuildingBlock: OJICUG_clean_linker_0, # of connection points: 2
#     Edge 50, Type (0, 1), BuildingBlock: OJICUG_clean_linker_0, # of connection points: 2
#     Edge 51, Type (0, 1), BuildingBlock: OJICUG_clean_linker_0, # of connection points: 2
#     Edge 52, Type (0, 1), BuildingBlock: OJICUG_clean_linker_0, # of connection points: 2
#     Edge 53, Type (0, 1), BuildingBlock: OJICUG_clean_linker_0, # of connection points: 2
#     Edge 54, Type (0, 1), BuildingBlock: OJICUG_clean_linker_0, # of connection points: 2
#     Edge 55, Type (0, 1), BuildingBlock: OJICUG_clean_linker_0, # of connection points: 2
#     Edge 56, Type (0, 1), BuildingBlock: OJICUG_clean_linker_0, # of connection points: 2
#     Edge 57, Type (0, 1), BuildingBlock: OJICUG_clean_linker_0, # of connection points: 2
#     Edge 58, Type (0, 1), BuildingBlock: OJICUG_clean_linker_0, # of connection points: 2
#     Edge 59, Type (0, 1), BuildingBlock: OJICUG_clean_linker_0, # of connection points: 2
#     Edge 60, Type (0, 1), BuildingBlock: OJICUG_clean_linker_0, # of connection points: 2
#     Edge 61, Type (0, 1), BuildingBlock: OJICUG_clean_linker_0, # of connection points: 2
#     Edge 62, Type (0, 1), BuildingBlock: OJICUG_clean_linker_0, # of connection points: 2
#     Edge 63, Type (0, 1), BuildingBlock: OJICUG_clean_linker_0, # of connection points: 2
#     Edge 64, Type (0, 1), BuildingBlock: OJICUG_clean_linker_0, # of connection points: 2
#     Edge 65, Type (0, 1), BuildingBlock: OJICUG_clean_linker_0, # of connection points: 2
#     Edge 66, Type (0, 1), BuildingBlock: OJICUG_clean_linker_0, # of connection points: 2
#     Edge 67, Type (0, 1), BuildingBlock: OJICUG_clean_linker_0, # of connection points: 2
#     Edge 68, Type (0, 1), BuildingBlock: OJICUG_clean_linker_0, # of connection points: 2
#     Edge 69, Type (0, 1), BuildingBlock: OJICUG_clean_linker_0, # of connection points: 2
#     Edge 70, Type (0, 1), BuildingBlock: OJICUG_clean_linker_0, # of connection points: 2
#     Edge 71, Type (0, 1), BuildingBlock: OJICUG_clean_linker_0, # of connection points: 2
#     Edge 72, Type (0, 1), BuildingBlock: OJICUG_clean_linker_0, # of connection points: 2
#     Edge 73, Type (0, 1), BuildingBlock: OJICUG_clean_linker_0, # of connection points: 2
#     Edge 74, Type (0, 1), BuildingBlock: OJICUG_clean_linker_0, # of connection points: 2
#     Edge 75, Type (0, 1), BuildingBlock: OJICUG_clean_linker_0, # of connection points: 2
#     Edge 76, Type (0, 1), BuildingBlock: OJICUG_clean_linker_0, # of connection points: 2
#     Edge 77, Type (0, 1), BuildingBlock: OJICUG_clean_linker_0, # of connection points: 2
#     Edge 78, Type (0, 1), BuildingBlock: OJICUG_clean_linker_0, # of connection points: 2
#     Edge 79, Type (0, 1), BuildingBlock: OJICUG_clean_linker_0, # of connection points: 2
#     Edge 80, Type (0, 1), BuildingBlock: OJICUG_clean_linker_0, # of connection points: 2
# Relax obj value: 0.007
# Max RMSD: 0.110
# Mean RMSD: 0.093
data_MOF--net-eea--node1-KUMBUR_clean_sbu_0--node2-ESEHIV_clean_linker_0--edge1-OJICUG_clean_linker_0
_symmetry_space_group_name_H-M    P1
_symmetry_Int_Tables_number       1
_symmetry_cell_setting            triclinic
loop_
_symmetry_equiv_pos_as_xyz
'x, y, z'
_cell_length_a     32.970339
_cell_length_b     34.466527
_cell_length_c     53.527134
_cell_angle_alpha  89.620529
_cell_angle_beta   89.295042
_cell_angle_gamma 120.05107
loop_
_atom_site_label
_atom_site_type_symbol
_atom_site_fract_x
_atom_site_fract_y
_atom_site_fract_z
_atom_type_partial_charge
H0 H 0.27869 0.19211 0.45446 0.0
H1 H 0.2768 0.06675 0.45462 0.0
H2 H 0.21957 0.10248 0.39272 0.0
C3 C 0.2701 0.16106 0.44527 0.0
C4 C 0.24671 0.15052 0.42235 0.0
C5 C 0.28151 0.13118 0.4568 0.0
C6 C 0.26859 0.09009 0.44551 0.0
C7 C 0.24582 0.07926 0.42247 0.0
C8 C 0.23545 0.10986 0.41095 0.0
H9 H 0.8231 0.07074 0.4536 0.0
H10 H 0.94361 0.20284 0.44841 0.0
H11 H 0.91395 0.11066 0.38835 0.0
C12 C 0.85393 0.09556 0.44337 0.0
C13 C 0.86471 0.08524 0.41966 0.0
C14 C 0.88187 0.13794 0.45384 0.0
C15 C 0.92156 0.17013 0.44041 0.0
C16 C 0.93367 0.16032 0.41696 0.0
C17 C 0.90533 0.11772 0.40675 0.0
H18 H 0.80991 0.74049 0.4481 0.0
H19 H 0.93937 0.73877 0.44739 0.0
H20 H 0.90469 0.79588 0.38492 0.0
C21 C 0.84279 0.74851 0.43897 0.0
C22 C 0.85355 0.76951 0.41528 0.0
C23 C 0.87349 0.73751 0.45093 0.0
C24 C 0.91593 0.74814 0.4387 0.0
C25 C 0.92773 0.76925 0.41487 0.0
C26 C 0.89663 0.78067 0.40344 0.0
H27 H 0.07397 0.25317 0.60271 0.0
H28 H 0.20504 0.25467 0.60025 0.0
H29 H 0.11355 0.19986 0.66489 0.0
C30 C 0.09858 0.24512 0.61122 0.0
C31 C 0.08825 0.22469 0.63516 0.0
C32 C 0.14023 0.25548 0.59823 0.0
C33 C 0.17213 0.24554 0.60971 0.0
C34 C 0.16307 0.22565 0.63374 0.0
C35 C 0.12042 0.2143 0.6462 0.0
H36 H 0.72929 0.92555 0.59742 0.0
H37 H 0.7291 0.80087 0.59666 0.0
H38 H 0.804 0.89779 0.65334 0.0
C39 C 0.7408 0.90373 0.60532 0.0
C40 C 0.76761 0.91634 0.62705 0.0
C41 C 0.72747 0.8625 0.59402 0.0
C42 C 0.74017 0.83307 0.60507 0.0
C43 C 0.76728 0.84526 0.6268 0.0
C44 C 0.78143 0.88729 0.63729 0.0
H45 H 0.07731 0.79824 0.60033 0.0
H46 H 0.19749 0.93054 0.59779 0.0
H47 H 0.09821 0.88981 0.65942 0.0
C48 C 0.09805 0.83094 0.60859 0.0
C49 C 0.08351 0.84005 0.63151 0.0
C50 C 0.13853 0.86377 0.59603 0.0
C51 C 0.16501 0.90604 0.60689 0.0
C52 C 0.15118 0.91606 0.62986 0.0
C53 C 0.10974 0.88284 0.64184 0.0
H54 H 0.94303 0.52504 0.78656 0.0
H55 H 0.94184 0.40009 0.78719 0.0
H56 H 0.88487 0.4351 0.72484 0.0
C57 C 0.93473 0.49405 0.7774 0.0
C58 C 0.91166 0.4834 0.75437 0.0
C59 C 0.94617 0.46434 0.78912 0.0
C60 C 0.93365 0.42329 0.7779 0.0
C61 C 0.91118 0.41224 0.75478 0.0
C62 C 0.90067 0.44268 0.74308 0.0
H63 H 0.48725 0.40457 0.78506 0.0
H64 H 0.60702 0.53715 0.78115 0.0
H65 H 0.58496 0.44406 0.72276 0.0
C66 C 0.51941 0.42898 0.77566 0.0
C67 C 0.53269 0.41843 0.75267 0.0
C68 C 0.54605 0.47156 0.78618 0.0
C69 C 0.58609 0.50423 0.77318 0.0
C70 C 0.6001 0.49457 0.75024 0.0
C71 C 0.57374 0.45147 0.74032 0.0
H72 H 0.47553 0.07374 0.78279 0.0
H73 H 0.60497 0.07191 0.78222 0.0
H74 H 0.57008 0.12829 0.71949 0.0
C75 C 0.50837 0.08163 0.77367 0.0
C76 C 0.51903 0.1023 0.74987 0.0
C77 C 0.53909 0.07074 0.78574 0.0
C78 C 0.58152 0.08125 0.77349 0.0
C79 C 0.59327 0.10215 0.7496 0.0
C80 C 0.5621 0.11337 0.73808 0.0
H81 H 0.74385 0.58684 0.93367 0.0
H82 H 0.87467 0.58774 0.93459 0.0
H83 H 0.77905 0.53324 0.99751 0.0
C84 C 0.76753 0.57816 0.94273 0.0
C85 C 0.75565 0.55772 0.9667 0.0
C86 C 0.81044 0.58929 0.93089 0.0
C87 C 0.84148 0.57944 0.94344 0.0
C88 C 0.83075 0.55937 0.96741 0.0
C89 C 0.78718 0.54766 0.9788 0.0
H90 H 0.40093 0.26016 0.93098 0.0
H91 H 0.40542 0.13799 0.92955 0.0
H92 H 0.46873 0.2301 0.98994 0.0
C93 C 0.41228 0.23845 0.93923 0.0
C94 C 0.43707 0.25052 0.96163 0.0
C95 C 0.40055 0.19785 0.9277 0.0
C96 C 0.41363 0.16886 0.93882 0.0
C97 C 0.43828 0.18011 0.96138 0.0
C98 C 0.44986 0.2211 0.97257 0.0
H99 H 0.74381 0.12877 0.93577 0.0
H100 H 0.86308 0.26163 0.93216 0.0
H101 H 0.76518 0.22125 0.9944 0.0
C102 C 0.76458 0.16164 0.94383 0.0
C103 C 0.75043 0.17104 0.96678 0.0
C104 C 0.80455 0.19451 0.93093 0.0
C105 C 0.83096 0.23704 0.94151 0.0
C106 C 0.81746 0.24729 0.96451 0.0
C107 C 0.77651 0.21406 0.97682 0.0
H108 H 0.61362 0.85904 0.12188 0.0
H109 H 0.61361 0.7345 0.12062 0.0
H110 H 0.55402 0.77018 0.05991 0.0
C111 C 0.60483 0.82801 0.11265 0.0
C112 C 0.5809 0.81762 0.08986 0.0
C113 C 0.61798 0.79876 0.12351 0.0
C114 C 0.60551 0.75809 0.11173 0.0
C115 C 0.5819 0.74718 0.08893 0.0
C116 C 0.57034 0.77745 0.07803 0.0
H117 H 0.15327 0.73362 0.11818 0.0
H118 H 0.27237 0.86671 0.11634 0.0
H119 H 0.25367 0.77583 0.05713 0.0
C120 C 0.18543 0.75877 0.10911 0.0
C121 C 0.20012 0.74907 0.08634 0.0
C122 C 0.21148 0.80083 0.12027 0.0
C123 C 0.25243 0.83387 0.10811 0.0
C124 C 0.26753 0.82519 0.08521 0.0
C125 C 0.24168 0.78255 0.07464 0.0
H126 H 0.14357 0.40738 0.115 0.0
H127 H 0.27378 0.407 0.11488 0.0
H128 H 0.23837 0.4622 0.05182 0.0
C129 C 0.17655 0.41549 0.10597 0.0
C130 C 0.18715 0.43594 0.08211 0.0
C131 C 0.2075 0.4051 0.11819 0.0
C132 C 0.25013 0.41596 0.10605 0.0
C133 C 0.26183 0.43674 0.08213 0.0
C134 C 0.23041 0.4474 0.07044 0.0
H135 H 0.4131 0.92735 0.26896 0.0
H136 H 0.54258 0.92564 0.26868 0.0
H137 H 0.44732 0.87034 0.33165 0.0
C138 C 0.43648 0.918 0.27774 0.0
C139 C 0.42449 0.89689 0.30157 0.0
C140 C 0.47903 0.92863 0.26562 0.0
C141 C 0.50962 0.91765 0.27771 0.0
C142 C 0.49867 0.8967 0.30142 0.0
C143 C 0.45551 0.88552 0.31313 0.0
H144 H 0.07808 0.59856 0.26246 0.0
H145 H 0.07668 0.4735 0.2631 0.0
H146 H 0.13433 0.56312 0.32496 0.0
C147 C 0.08621 0.5753 0.27174 0.0
C148 C 0.10846 0.58619 0.29493 0.0
C149 C 0.07369 0.53427 0.26052 0.0
C150 C 0.08499 0.50449 0.27226 0.0
C151 C 0.10782 0.51503 0.29533 0.0
C152 C 0.11877 0.55568 0.30665 0.0
H153 H 0.41019 0.46356 0.26865 0.0
H154 H 0.53007 0.59609 0.26376 0.0
H155 H 0.43911 0.55509 0.32897 0.0
C156 C 0.43205 0.49623 0.27673 0.0
C157 C 0.41981 0.50569 0.30024 0.0
C158 C 0.47162 0.52871 0.26336 0.0
C159 C 0.4993 0.57104 0.27393 0.0
C160 C 0.48832 0.58103 0.29768 0.0
C161 C 0.44784 0.54826 0.31055 0.0
Tb162 Tb 0.4887 0.96521 0.99761 0.0
C163 C 0.58584 0.13694 0.06004 0.0
C164 C 0.66824 0.16052 0.05755 0.0
C165 C 0.64403 0.21609 0.0625 0.0
C166 C 0.62074 0.12649 0.05729 0.0
C167 C 0.59688 0.18173 0.06317 0.0
C168 C 0.6797 0.20549 0.05967 0.0
C169 C 0.51423 0.15477 0.06919 0.0
N170 N 0.54092 0.10273 0.06069 0.0
C171 C 0.50516 0.11086 0.06611 0.0
C172 C 0.56026 0.19045 0.06744 0.0
Tb173 Tb 0.52904 0.03204 0.05401 0.0
N174 N 0.60804 0.08266 0.05542 0.0
C175 C 0.64161 0.07039 0.05561 0.0
C176 C 0.70267 0.14821 0.05628 0.0
C177 C 0.68924 0.10287 0.05566 0.0
H178 H 0.46939 0.08368 0.06735 0.0
H179 H 0.71555 0.09288 0.05511 0.0
H180 H 0.71597 0.23217 0.05968 0.0
H181 H 0.4857 0.16105 0.07289 0.0
H182 H 0.6322 0.03568 0.0549 0.0
H183 H 0.30218 0.90446 0.99711 0.0
H184 H 0.73956 0.17329 0.05631 0.0
H185 H 0.54816 0.91358 0.9838 0.0
H186 H 0.38556 0.96163 0.9971 0.0
H187 H 0.53177 0.83623 0.97809 0.0
H188 H 0.65329 0.2508 0.06467 0.0
H189 H 0.27811 0.82403 0.99578 0.0
H190 H 0.30163 0.76513 0.99211 0.0
H191 H 0.56721 0.22441 0.06991 0.0
H192 H 0.36424 0.74649 0.98678 0.0
N193 N 0.40968 0.91463 0.99633 0.0
C194 C 0.37612 0.92691 0.99633 0.0
C195 C 0.31502 0.84911 0.99571 0.0
C196 C 0.34942 0.83678 0.99423 0.0
C197 C 0.32848 0.89445 0.99641 0.0
C198 C 0.39693 0.8708 0.99438 0.0
H199 H 0.45028 0.77288 0.98123 0.0
N200 N 0.4767 0.89454 0.99071 0.0
C201 C 0.50328 0.84251 0.98193 0.0
C202 C 0.43178 0.86034 0.99144 0.0
C203 C 0.51239 0.88641 0.98511 0.0
C204 C 0.45726 0.80683 0.98377 0.0
C205 C 0.42069 0.81555 0.98822 0.0
O206 O 0.52486 0.97715 0.96309 0.0
O207 O 0.5436 0.02308 1.01581 0.0
O208 O 0.52064 0.07281 0.02532 0.0
O209 O 0.4668 0.01605 0.99981 0.0
O210 O 0.56361 0.98924 0.99242 0.0
O211 O 0.46267 0.98211 0.96605 0.0
O212 O 0.49304 0.02065 0.08851 0.0
O213 O 0.47417 0.97405 0.03586 0.0
O214 O 0.49769 0.92454 0.02617 0.0
O215 O 0.55096 0.98122 0.05197 0.0
O216 O 0.45409 0.00788 0.0592 0.0
O217 O 0.55503 0.01525 0.0856 0.0
C218 C 0.57915 0.02369 1.00644 0.0
C219 C 0.48092 0.96379 0.92641 0.0
C220 C 0.48262 0.97056 0.88059 0.0
C221 C 0.49652 0.99037 0.90432 0.0
C222 C 0.45352 0.92367 0.87953 0.0
C223 C 0.45181 0.9173 0.92469 0.0
C224 C 0.43836 0.89743 0.90136 0.0
C225 C 0.48858 0.05804 1.0077 0.0
C226 C 0.4955 0.98486 0.95109 0.0
C227 C 0.37354 0.7812 0.989 0.0
C228 C 0.33791 0.7918 0.99203 0.0
C229 C 0.43855 0.9733 0.04527 0.0
C230 C 0.53736 0.03457 0.12505 0.0
C231 C 0.52183 0.00839 0.14725 0.0
C232 C 0.53594 0.02859 0.17086 0.0
C233 C 0.56526 0.07546 0.1717 0.0
C234 C 0.56671 0.08107 0.12652 0.0
C235 C 0.58042 0.10133 0.14974 0.0
C236 C 0.52956 0.93934 0.04391 0.0
C237 C 0.52241 0.013 0.10055 0.0
H238 H 0.51874 0.02639 0.90567 0.0
H239 H 0.44274 0.90709 0.86173 0.0
H240 H 0.43956 0.89637 0.94136 0.0
H241 H 0.41604 0.86145 0.90018 0.0
H242 H 0.49946 0.97236 0.14608 0.0
H243 H 0.57621 0.09232 0.18942 0.0
H244 H 0.57893 0.10169 0.10974 0.0
H245 H 0.60292 0.13732 0.15073 0.0
Tb246 Tb 0.04368 0.51088 0.99628 0.0
C247 C 0.86667 0.44688 0.06088 0.0
C248 C 0.8518 0.5086 0.0577 0.0
C249 C 0.78703 0.43299 0.06521 0.0
C250 C 0.88301 0.49188 0.0571 0.0
C251 C 0.81868 0.41698 0.06573 0.0
C252 C 0.80367 0.47882 0.06121 0.0
C253 C 0.83802 0.35948 0.07487 0.0
N254 N 0.89857 0.43315 0.06199 0.0
C255 C 0.88533 0.39071 0.07028 0.0
C256 C 0.80439 0.37247 0.07217 0.0
Tb257 Tb 0.97511 0.48603 0.05361 0.0
N258 N 0.92991 0.51962 0.05443 0.0
C259 C 0.94803 0.56513 0.05406 0.0
C260 C 0.87002 0.55488 0.05569 0.0
C261 C 0.91843 0.5833 0.05425 0.0
H262 H 0.91125 0.38057 0.07253 0.0
H263 H 0.93303 0.61926 0.05323 0.0
H264 H 0.77951 0.49136 0.06179 0.0
H265 H 0.82757 0.32552 0.0806 0.0
H266 H 0.98524 0.58796 0.05282 0.0
H267 H 0.08657 0.37812 0.99735 0.0
H268 H 0.84716 0.56904 0.05594 0.0
H269 H 0.10825 0.61615 0.97664 0.0
H270 H 0.03399 0.40902 0.99576 0.0
H271 H 0.19246 0.67165 0.97048 0.0
H272 H 0.74998 0.41052 0.06877 0.0
H273 H 0.17243 0.42883 0.99808 0.0
H274 H 0.24038 0.50729 0.99595 0.0
H275 H 0.76782 0.34839 0.07601 0.0
H276 H 0.26998 0.5881 0.98831 0.0
N277 N 0.08907 0.47746 0.9958 0.0
C278 C 0.07121 0.43199 0.99571 0.0
C279 C 0.14941 0.44275 0.99715 0.0
C280 C 0.16753 0.48906 0.99553 0.0
C281 C 0.10102 0.41407 0.99668 0.0
C282 C 0.13606 0.50542 0.99447 0.0
H283 H 0.25213 0.64954 0.97805 0.0
N284 N 0.12046 0.5638 0.98834 0.0
C285 C 0.18171 0.6377 0.97638 0.0
C286 C 0.15243 0.55037 0.99069 0.0
C287 C 0.1341 0.60619 0.97979 0.0
C288 C 0.21529 0.62514 0.98074 0.0
C289 C 0.20075 0.58068 0.98744 0.0
O290 O 0.03641 0.53692 0.96206 0.0
O291 O 0.9832 0.50682 1.01496 0.0
O292 O 0.93036 0.43326 0.02796 0.0
O293 O 0.98526 0.44092 0.99722 0.0
O294 O 0.02099 0.56036 0.99161 0.0
O295 O 0.02742 0.47067 0.96444 0.0
O296 O 0.98241 0.46001 0.08784 0.0
O297 O 0.03547 0.48995 0.03493 0.0
O298 O 0.08823 0.56396 0.02183 0.0
O299 O 0.03356 0.5559 0.05278 0.0
O300 O 0.99748 0.43633 0.0582 0.0
O301 O 0.992 0.5265 0.08537 0.0
C302 C 0.9839 0.54083 1.00559 0.0
C303 C 0.05382 0.50943 0.92585 0.0
C304 C 0.05129 0.50824 0.88038 0.0
C305 C 0.02841 0.49977 0.90377 0.0
C306 C 0.10018 0.5267 0.87938 0.0
C307 C 0.10248 0.5272 0.92461 0.0
C308 C 0.12552 0.53589 0.90142 0.0
C309 C 0.94335 0.41871 1.00831 0.0
C310 C 0.0286 0.50149 0.94978 0.0
C311 C 0.2326 0.56518 0.99014 0.0
C312 C 0.21591 0.51935 0.99433 0.0
C313 C 0.03461 0.45582 0.04426 0.0
C314 C 0.96553 0.48804 0.12402 0.0
C315 C 0.99107 0.49791 0.14606 0.0
C316 C 0.96832 0.48989 0.16946 0.0
C317 C 0.91948 0.47169 0.17054 0.0
C318 C 0.91692 0.47053 0.12534 0.0
C319 C 0.89402 0.46229 0.14854 0.0
C320 C 0.07534 0.57828 0.0416 0.0
C321 C 0.99059 0.49561 0.10006 0.0
H322 H 0.99079 0.48623 0.9048 0.0
H323 H 0.11865 0.53331 0.86159 0.0
H324 H 0.1226 0.53442 0.94142 0.0
H325 H 0.1631 0.54973 0.90053 0.0
H326 H 0.02865 0.51127 0.14499 0.0
H327 H 0.90115 0.46543 0.18835 0.0
H328 H 0.89669 0.46318 0.1086 0.0
H329 H 0.85647 0.44866 0.14947 0.0
Tb330 Tb 0.5275 0.48445 0.05347 0.0
C331 C 0.44214 0.57145 0.98844 0.0
C332 C 0.35868 0.51955 0.98834 0.0
C333 C 0.38835 0.59935 0.9822 0.0
C334 C 0.40499 0.52826 0.9908 0.0
C335 C 0.4344 0.60755 0.98393 0.0
C336 C 0.35063 0.55541 0.98421 0.0
C337 C 0.51822 0.65642 0.98088 0.0
N338 N 0.48607 0.57772 0.98944 0.0
C339 C 0.5241 0.61943 0.98496 0.0
C340 C 0.47317 0.65054 0.98053 0.0
Tb341 Tb 0.4919 0.51494 0.99649 0.0
N342 N 0.41446 0.49456 0.99405 0.0
C343 C 0.379 0.4509 0.99372 0.0
C344 C 0.32207 0.47503 0.98929 0.0
C345 C 0.33235 0.44054 0.99179 0.0
H346 H 0.55919 0.62469 0.98517 0.0
H347 H 0.30438 0.40593 0.99213 0.0
H348 H 0.31557 0.54951 0.98182 0.0
H349 H 0.54846 0.68943 0.9779 0.0
H350 H 0.38631 0.42381 0.99547 0.0
H351 H 0.71628 0.58989 0.05163 0.0
H352 H 0.28595 0.46687 0.98755 0.0
H353 H 0.46255 0.38033 0.07587 0.0
H354 H 0.63479 0.57416 0.05304 0.0
H355 H 0.47204 0.3152 0.08445 0.0
H356 H 0.38157 0.62657 0.97864 0.0
H357 H 0.7329 0.52743 0.05248 0.0
H358 H 0.70157 0.44397 0.05715 0.0
H359 H 0.46868 0.67918 0.97711 0.0
H360 H 0.63506 0.36901 0.06676 0.0
N361 N 0.60486 0.50315 0.05403 0.0
C362 C 0.64125 0.54644 0.05367 0.0
C363 C 0.69695 0.52025 0.05321 0.0
C364 C 0.65967 0.47621 0.05564 0.0
C365 C 0.68769 0.55559 0.05281 0.0
C366 C 0.61364 0.46889 0.05635 0.0
H367 H 0.54916 0.32071 0.07772 0.0
N368 N 0.53342 0.42265 0.06363 0.0
C369 C 0.50168 0.34635 0.07777 0.0
C370 C 0.57641 0.42692 0.06144 0.0
C371 C 0.4965 0.38356 0.07284 0.0
C372 C 0.54519 0.34953 0.07388 0.0
C373 C 0.58351 0.39049 0.0661 0.0
O374 O 0.49144 0.46831 0.08818 0.0
O375 O 0.47386 0.49198 0.03471 0.0
O376 O 0.49905 0.56241 0.02525 0.0
O377 O 0.55376 0.55704 0.04975 0.0
O378 O 0.45201 0.43899 0.05853 0.0
O379 O 0.55926 0.52709 0.08386 0.0
O380 O 0.52742 0.53761 0.96183 0.0
O381 O 0.54498 0.50583 1.01475 0.0
O382 O 0.51343 0.4311 0.02732 0.0
O383 O 0.46806 0.44264 0.99793 0.0
O384 O 0.56735 0.55993 0.99154 0.0
O385 O 0.46328 0.47416 0.96509 0.0
C386 C 0.43736 0.45888 0.04397 0.0
C387 C 0.5388 0.49189 0.12366 0.0
C388 C 0.53296 0.49 0.1693 0.0
C389 C 0.52143 0.5003 0.14585 0.0
C390 C 0.56225 0.47121 0.17011 0.0
C391 C 0.56812 0.47338 0.12493 0.0
C392 C 0.5797 0.46307 0.14807 0.0
C393 C 0.53196 0.57849 0.04233 0.0
C394 C 0.52536 0.50198 0.09942 0.0
C395 C 0.62883 0.39669 0.06373 0.0
C396 C 0.66683 0.43951 0.05836 0.0
C397 C 0.58154 0.53867 1.00529 0.0
C398 C 0.48129 0.51159 0.92579 0.0
C399 C 0.49746 0.50207 0.9035 0.0
C400 C 0.4848 0.51136 0.88008 0.0
C401 C 0.45543 0.53006 0.87941 0.0
C402 C 0.45195 0.53007 0.92463 0.0
C403 C 0.43911 0.5392 0.90154 0.0
C404 C 0.48493 0.41843 1.00805 0.0
C405 C 0.49616 0.50274 0.94997 0.0
H406 H 0.49845 0.51428 0.14482 0.0
H407 H 0.57229 0.46343 0.18782 0.0
H408 H 0.5821 0.46697 0.10811 0.0
H409 H 0.60241 0.44884 0.14892 0.0
H410 H 0.5205 0.48815 0.90442 0.0
H411 H 0.44455 0.53709 0.86175 0.0
H412 H 0.43903 0.53747 0.94148 0.0
H413 H 0.41638 0.55343 0.90079 0.0
Tb414 Tb 0.15737 0.29989 0.3301 0.0
C415 C 0.25263 0.46964 0.39441 0.0
C416 C 0.33525 0.49411 0.39193 0.0
C417 C 0.31015 0.54887 0.39767 0.0
C418 C 0.2879 0.45976 0.39138 0.0
C419 C 0.26315 0.51417 0.39808 0.0
C420 C 0.34619 0.53885 0.39458 0.0
C421 C 0.1803 0.48625 0.40399 0.0
N422 N 0.20786 0.43512 0.39476 0.0
C423 C 0.17175 0.44263 0.40038 0.0
C424 C 0.22617 0.52227 0.40256 0.0
Tb425 Tb 0.19691 0.365 0.38714 0.0
N426 N 0.2757 0.41615 0.38896 0.0
C427 C 0.30962 0.40433 0.38888 0.0
C428 C 0.37005 0.48231 0.39037 0.0
C429 C 0.35712 0.43714 0.38921 0.0
H430 H 0.13608 0.41523 0.40139 0.0
H431 H 0.38372 0.42752 0.38843 0.0
H432 H 0.38234 0.56577 0.3948 0.0
H433 H 0.15148 0.49206 0.40785 0.0
H434 H 0.30058 0.36975 0.38775 0.0
H435 H 0.97089 0.23887 0.32823 0.0
H436 H 0.40684 0.50765 0.39062 0.0
H437 H 0.21739 0.24871 0.31648 0.0
H438 H 0.05421 0.29612 0.32896 0.0
H439 H 0.20133 0.17152 0.31045 0.0
H440 H 0.319 0.58338 0.40023 0.0
H441 H 0.94703 0.15853 0.3265 0.0
H442 H 0.9708 0.0998 0.32289 0.0
H443 H 0.23271 0.55601 0.40543 0.0
H444 H 0.03365 0.0814 0.31793 0.0
N445 N 0.07845 0.24924 0.32822 0.0
C446 C 0.04485 0.26145 0.32803 0.0
C447 C 0.9839 0.18364 0.32677 0.0
C448 C 0.0184 0.17141 0.32551 0.0
C449 C 0.99725 0.22893 0.32768 0.0
C450 C 0.06586 0.20547 0.32607 0.0
H451 H 0.11984 0.10803 0.31296 0.0
N452 N 0.14575 0.22942 0.32294 0.0
C453 C 0.1727 0.17767 0.31416 0.0
C454 C 0.10085 0.19515 0.32332 0.0
C455 C 0.18163 0.22148 0.31751 0.0
C456 C 0.12668 0.14191 0.31564 0.0
C457 C 0.08995 0.15045 0.3199 0.0
O458 O 0.1937 0.31219 0.29563 0.0
O459 O 0.21209 0.35736 0.34877 0.0
O460 O 0.18873 0.40656 0.35897 0.0
O461 O 0.13541 0.35057 0.33285 0.0
O462 O 0.2324 0.32433 0.32493 0.0
O463 O 0.1317 0.3175 0.29866 0.0
O464 O 0.15996 0.35061 0.4215 0.0
O465 O 0.14214 0.30763 0.36841 0.0
O466 O 0.1654 0.25852 0.35852 0.0
O467 O 0.2194 0.31481 0.38417 0.0
O468 O 0.12188 0.34061 0.39229 0.0
O469 O 0.22379 0.3485 0.41851 0.0
C470 C 0.24779 0.35838 0.33925 0.0
C471 C 0.14966 0.29896 0.25902 0.0
C472 C 0.15122 0.30549 0.21319 0.0
C473 C 0.16521 0.32544 0.23689 0.0
C474 C 0.1221 0.2586 0.2122 0.0
C475 C 0.12048 0.25247 0.25736 0.0
C476 C 0.10695 0.23248 0.23407 0.0
C477 C 0.15686 0.39223 0.34126 0.0
C478 C 0.16443 0.3201 0.28367 0.0
C479 C 0.04282 0.11604 0.3203 0.0
C480 C 1.00705 0.12651 0.32312 0.0
C481 C 0.10642 0.30667 0.37788 0.0
C482 C 0.20341 0.36435 0.45831 0.0
C483 C 0.18692 0.33701 0.48006 0.0
C484 C 0.19708 0.35624 0.50403 0.0
C485 C 0.22455 0.40315 0.50576 0.0
C486 C 0.23086 0.41094 0.46062 0.0
C487 C 0.24141 0.43014 0.48424 0.0
C488 C 0.19757 0.273 0.37608 0.0
C489 C 0.19013 0.34397 0.43342 0.0
H490 H 0.18747 0.36146 0.23818 0.0
H491 H 0.11128 0.24191 0.19443 0.0
H492 H 0.10826 0.23162 0.27405 0.0
H493 H 0.0846 0.19649 0.23295 0.0
H494 H 0.16536 0.30098 0.47831 0.0
H495 H 0.23346 0.419 0.52383 0.0
H496 H 0.24385 0.43245 0.4442 0.0
H497 H 0.26261 0.46616 0.48588 0.0
Tb498 Tb 0.71302 0.84723 0.33108 0.0
C499 C 0.52843 0.76947 0.38942 0.0
C500 C 0.50546 0.82546 0.38445 0.0
C501 C 0.44591 0.74659 0.38725 0.0
C502 C 0.54045 0.81361 0.38644 0.0
C503 C 0.48103 0.73542 0.39078 0.0
C504 C 0.45825 0.79159 0.38378 0.0
C505 C 0.50699 0.68274 0.4002 0.0
N506 N 0.56353 0.76019 0.39196 0.0
C507 C 0.55354 0.71775 0.39842 0.0
C508 C 0.47054 0.69146 0.39593 0.0
Tb509 Tb 0.63852 0.81905 0.38633 0.0
N510 N 0.58656 0.84508 0.38631 0.0
C511 C 0.5998 0.88958 0.38686 0.0
C512 C 0.51897 0.87092 0.38347 0.0
C513 C 0.56632 0.90311 0.38526 0.0
H514 H 0.58146 0.71052 0.40131 0.0
H515 H 0.57718 0.9384 0.38498 0.0
H516 H 0.43121 0.80006 0.38087 0.0
H517 H 0.49927 0.649 0.40462 0.0
H518 H 0.6362 0.91507 0.38763 0.0
H519 H 0.77595 0.72909 0.33231 0.0
H520 H 0.49315 0.88145 0.38188 0.0
H521 H 0.76918 0.95572 0.31582 0.0
H522 H 0.71638 0.75174 0.32977 0.0
H523 H 0.85104 0.01766 0.31231 0.0
H524 H 0.40923 0.72087 0.38755 0.0
H525 H 0.85985 0.78658 0.33515 0.0
H526 H 0.92129 0.86825 0.33601 0.0
H527 H 0.43455 0.66426 0.39714 0.0
H528 H 0.94246 0.94715 0.32914 0.0
N529 N 0.76556 0.82186 0.33087 0.0
C530 C 0.7527 0.77745 0.3304 0.0
C531 C 0.83378 0.7968 0.33359 0.0
C532 C 0.84689 0.84216 0.33252 0.0
C533 C 0.7865 0.76431 0.33195 0.0
C534 C 0.81157 0.85358 0.33055 0.0
H535 H 0.91632 0.00314 0.31954 0.0
N536 N 0.78774 0.90639 0.32495 0.0
C537 C 0.84368 0.98402 0.31669 0.0
C538 C 0.82316 0.89756 0.32742 0.0
C539 C 0.79728 0.94874 0.31858 0.0
C540 C 0.88045 0.97572 0.32082 0.0
C541 C 0.87043 0.93191 0.32596 0.0
O542 O 0.70538 0.87094 0.29618 0.0
O543 O 0.65044 0.84152 0.348 0.0
O544 O 0.59809 0.77012 0.35789 0.0
O545 O 0.65924 0.77509 0.33311 0.0
O546 O 0.68803 0.89474 0.32462 0.0
O547 O 0.69928 0.80591 0.29988 0.0
O548 O 0.64603 0.79482 0.42106 0.0
O549 O 0.7012 0.82495 0.36946 0.0
O550 O 0.75368 0.89619 0.35947 0.0
O551 O 0.69289 0.89109 0.38467 0.0
O552 O 0.66379 0.77172 0.39287 0.0
O553 O 0.65013 0.85908 0.41796 0.0
C554 C 0.65049 0.87487 0.33816 0.0
C555 C 0.72498 0.8433 0.26082 0.0
C556 C 0.72367 0.84213 0.21522 0.0
C557 C 0.70026 0.83415 0.23847 0.0
C558 C 0.77247 0.85944 0.21479 0.0
C559 C 0.77352 0.86045 0.26007 0.0
C560 C 0.7971 0.86846 0.23709 0.0
C561 C 0.61466 0.75386 0.34078 0.0
C562 C 0.69922 0.83541 0.28457 0.0
C563 C 0.90588 0.92119 0.32948 0.0
C564 C 0.89399 0.87633 0.33307 0.0
C565 C 0.70137 0.79174 0.37935 0.0
C566 C 0.62373 0.81977 0.45654 0.0
C567 C 0.64793 0.82977 0.47907 0.0
C568 C 0.62355 0.81892 0.50211 0.0
C569 C 0.57436 0.79781 0.50228 0.0
C570 C 0.57473 0.79914 0.45696 0.0
C571 C 0.55021 0.78822 0.47979 0.0
C572 C 0.73735 0.91239 0.37675 0.0
C573 C 0.65056 0.82945 0.43301 0.0
H574 H 0.66261 0.82031 0.23927 0.0
H575 H 0.79173 0.8665 0.19724 0.0
H576 H 0.79308 0.86772 0.27714 0.0
H577 H 0.83463 0.88188 0.23655 0.0
H578 H 0.68581 0.84525 0.47863 0.0
H579 H 0.5547 0.78931 0.51976 0.0
H580 H 0.55551 0.79121 0.43977 0.0
H581 H 0.51236 0.77219 0.48007 0.0
Tb582 Tb 0.19454 0.81771 0.3866 0.0
C583 C 0.10588 0.90244 0.32083 0.0
C584 C 0.0229 0.84903 0.31932 0.0
C585 C 0.05103 0.92829 0.31215 0.0
C586 C 0.06938 0.85894 0.32301 0.0
C587 C 0.09727 0.93773 0.31538 0.0
C588 C 0.01402 0.88394 0.31379 0.0
C589 C 0.18089 0.98821 0.31394 0.0
N590 N 0.1501 0.90976 0.32275 0.0
C591 C 0.18766 0.95192 0.31869 0.0
C592 C 0.13548 0.98114 0.31236 0.0
Tb593 Tb 0.15769 0.84796 0.32993 0.0
N594 N 0.07978 0.82604 0.32705 0.0
C595 C 0.045 0.78206 0.32688 0.0
C596 C 0.98702 0.80423 0.32032 0.0
C597 C 0.99818 0.77058 0.32404 0.0
H598 H 0.22302 0.95803 0.31971 0.0
H599 H 0.9708 0.73573 0.32446 0.0
H600 H 0.97892 0.87687 0.30988 0.0
H601 H 0.21074 0.02156 0.31127 0.0
H602 H 0.05287 0.75549 0.32936 0.0
H603 H 0.38191 0.92725 0.39177 0.0
H604 H 0.95081 0.79524 0.31775 0.0
H605 H 0.12738 0.70754 0.39683 0.0
H606 H 0.3002 0.90892 0.38694 0.0
H607 H 0.13821 0.64329 0.40543 0.0
H608 H 0.04366 0.95481 0.30763 0.0
H609 H 0.40035 0.86674 0.39868 0.0
H610 H 0.3707 0.78478 0.40672 0.0
H611 H 0.13033 0.0092 0.30827 0.0
H612 H 0.30492 0.70743 0.40919 0.0
N613 N 0.27206 0.83823 0.3895 0.0
C614 C 0.30746 0.88195 0.38951 0.0
C615 C 0.36432 0.85839 0.39615 0.0
C616 C 0.32781 0.81386 0.39731 0.0
C617 C 0.35403 0.8926 0.39232 0.0
C618 C 0.2816 0.80479 0.39368 0.0
H619 H 0.21802 0.65424 0.4086 0.0
N620 N 0.20059 0.75506 0.39398 0.0
C621 C 0.16845 0.6764 0.4028 0.0
C622 C 0.24451 0.76159 0.39596 0.0
C623 C 0.16253 0.71317 0.39797 0.0
C624 C 0.21353 0.68268 0.40448 0.0
C625 C 0.25226 0.72577 0.40146 0.0
O626 O 0.1593 0.7963 0.4214 0.0
O627 O 0.1403 0.82463 0.36812 0.0
O628 O 0.16435 0.89506 0.35879 0.0
O629 O 0.21906 0.88998 0.38364 0.0
O630 O 0.11896 0.77199 0.39205 0.0
O631 O 0.22284 0.86004 0.41748 0.0
O632 O 0.19261 0.87078 0.29512 0.0
O633 O 0.21197 0.84127 0.34842 0.0
O634 O 0.18847 0.77083 0.35784 0.0
O635 O 0.1339 0.77573 0.33276 0.0
O636 O 0.23321 0.89395 0.32452 0.0
O637 O 0.13086 0.80564 0.29897 0.0
C638 C 0.10399 0.79176 0.37762 0.0
C639 C 0.20583 0.82404 0.45715 0.0
C640 C 0.20239 0.82508 0.50281 0.0
C641 C 0.18932 0.83354 0.47931 0.0
C642 C 0.23253 0.80726 0.50373 0.0
C643 C 0.23595 0.80645 0.45855 0.0
C644 C 0.24923 0.79817 0.48173 0.0
C645 C 0.19705 0.91114 0.37602 0.0
C646 C 0.19037 0.8318 0.43288 0.0
C647 C 0.29821 0.73437 0.40465 0.0
C648 C 0.33582 0.77841 0.4029 0.0
C649 C 0.24825 0.87416 0.33889 0.0
C650 C 0.14614 0.84171 0.2594 0.0
C651 C 0.16268 0.83258 0.23711 0.0
C652 C 0.1471 0.83853 0.21373 0.0
C653 C 0.11504 0.85417 0.21308 0.0
C654 C 0.11419 0.8572 0.25823 0.0
C655 C 0.09882 0.86345 0.23519 0.0
C656 C 0.15598 0.75468 0.34052 0.0
C657 C 0.16259 0.83481 0.28358 0.0
H658 H 0.16565 0.84675 0.47824 0.0
H659 H 0.24367 0.80085 0.52148 0.0
H660 H 0.24911 0.79902 0.44182 0.0
H661 H 0.27255 0.78461 0.48265 0.0
H662 H 0.18705 0.82018 0.23803 0.0
H663 H 0.10285 0.8597 0.19544 0.0
H664 H 0.10108 0.86443 0.27504 0.0
H665 H 0.07424 0.87555 0.23445 0.0
Tb666 Tb 0.82278 0.63371 0.66254 0.0
C667 C 0.92004 0.80325 0.72724 0.0
C668 C 1.00206 0.82658 0.7226 0.0
C669 C 0.97876 0.88212 0.73042 0.0
C670 C 0.95444 0.79278 0.72277 0.0
C671 C 0.93163 0.84781 0.73193 0.0
C672 C 0.01399 0.87151 0.7257 0.0
C673 C 0.85009 0.82025 0.74211 0.0
N674 N 0.87525 0.76901 0.72887 0.0
C675 C 0.84055 0.7766 0.73736 0.0
C676 C 0.89573 0.85615 0.73895 0.0
Tb677 Tb 0.86185 0.69866 0.7196 0.0
N678 N 0.94121 0.74893 0.72034 0.0
C679 C 0.97455 0.73634 0.71992 0.0
C680 C 0.03615 0.81398 0.72029 0.0
C681 C 0.0223 0.76856 0.71941 0.0
H682 H 0.8051 0.7492 0.73981 0.0
H683 H 0.04837 0.75829 0.71825 0.0
H684 H 0.05035 0.89804 0.72535 0.0
H685 H 0.82222 0.82614 0.74817 0.0
H686 H 0.96489 0.70159 0.71902 0.0
H687 H 0.63765 0.5789 0.66051 0.0
H688 H 0.07313 0.83886 0.71997 0.0
H689 H 0.87937 0.57933 0.64914 0.0
H690 H 0.7217 0.63416 0.66099 0.0
H691 H 0.86035 0.50104 0.64344 0.0
H692 H 0.98843 0.91668 0.73366 0.0
H693 H 0.6109 0.49785 0.65938 0.0
H694 H 0.63167 0.43698 0.65623 0.0
H695 H 0.9031 0.88989 0.74276 0.0
H696 H 0.69239 0.4157 0.65145 0.0
N697 N 0.74339 0.58529 0.66082 0.0
C698 C 0.71103 0.59908 0.66039 0.0
C699 C 0.64807 0.52204 0.65957 0.0
C700 C 0.68131 0.5082 0.65849 0.0
C701 C 0.66305 0.56774 0.66015 0.0
C702 C 0.72922 0.5411 0.65894 0.0
H703 H 0.77789 0.43946 0.64633 0.0
N704 N 0.80847 0.56231 0.65582 0.0
C705 C 0.83261 0.50846 0.64717 0.0
C706 C 0.76305 0.52915 0.65634 0.0
C707 C 0.84324 0.55282 0.65033 0.0
C708 C 0.78604 0.47378 0.64887 0.0
C709 C 0.75046 0.48395 0.65312 0.0
O710 O 0.85944 0.64369 0.62836 0.0
O711 O 0.8772 0.6917 0.68103 0.0
O712 O 0.84952 0.74015 0.69304 0.0
O713 O 0.80371 0.68644 0.66334 0.0
O714 O 0.89753 0.65705 0.65825 0.0
O715 O 0.79833 0.65073 0.63043 0.0
O716 O 0.82456 0.68312 0.75399 0.0
O717 O 0.80714 0.64164 0.7007 0.0
O718 O 0.82996 0.59189 0.69099 0.0
O719 O 0.88365 0.64789 0.7168 0.0
O720 O 0.78702 0.67538 0.72408 0.0
O721 O 0.88834 0.68129 0.75077 0.0
C722 C 0.91281 0.69203 0.67185 0.0
C723 C 0.8164 0.63065 0.59132 0.0
C724 C 0.81767 0.63703 0.54554 0.0
C725 C 0.83165 0.65705 0.56919 0.0
C726 C 0.78878 0.59012 0.54457 0.0
C727 C 0.78747 0.58412 0.58973 0.0
C728 C 0.77391 0.56403 0.56646 0.0
C729 C 0.82157 0.72668 0.67345 0.0
C730 C 0.83101 0.6521 0.61588 0.0
C731 C 0.70285 0.4507 0.65366 0.0
C732 C 0.6683 0.46282 0.65637 0.0
C733 C 0.77147 0.6413 0.70975 0.0
C734 C 0.86874 0.69737 0.7906 0.0
C735 C 0.85324 0.67048 0.81256 0.0
C736 C 0.8667 0.69005 0.83636 0.0
C737 C 0.89514 0.73698 0.83765 0.0
C738 C 0.89735 0.7439 0.79254 0.0
C739 C 0.91025 0.76352 0.81595 0.0
C740 C 0.86185 0.60612 0.70865 0.0
C741 C 0.85483 0.6766 0.76582 0.0
H742 H 0.85366 0.69311 0.57045 0.0
H743 H 0.77795 0.57341 0.5268 0.0
H744 H 0.77541 0.56333 0.60644 0.0
H745 H 0.75173 0.52802 0.56537 0.0
H746 H 0.83151 0.63443 0.81105 0.0
H747 H 0.9055 0.75335 0.85553 0.0
H748 H 0.90973 0.76506 0.77599 0.0
H749 H 0.93215 0.79953 0.81728 0.0
Tb750 Tb 0.37787 0.17883 0.66369 0.0
C751 C 0.19823 0.1132 0.72498 0.0
C752 C 0.18245 0.17396 0.71946 0.0
C753 C 0.11779 0.09761 0.72471 0.0
C754 C 0.21425 0.15805 0.72104 0.0
C755 C 0.14991 0.08255 0.72789 0.0
C756 C 0.13413 0.14332 0.72033 0.0
C757 C 0.16941 0.02606 0.73949 0.0
N758 N 0.23045 0.10018 0.72773 0.0
C759 C 0.21699 0.05788 0.73637 0.0
C760 C 0.13563 0.0382 0.73472 0.0
Tb761 Tb 0.30722 0.1536 0.72031 0.0
N762 N 0.2612 0.18636 0.71996 0.0
C763 C 0.27863 0.23175 0.71978 0.0
C764 C 0.20016 0.22019 0.71759 0.0
C765 C 0.24847 0.24924 0.71831 0.0
H766 H 0.24299 0.04824 0.73985 0.0
H767 H 0.2626 0.28513 0.71742 0.0
H768 H 0.10941 0.15499 0.71825 0.0
H769 H 0.15884 0.9922 0.74548 0.0
H770 H 0.31579 0.25499 0.71989 0.0
H771 H 0.42114 0.04631 0.66568 0.0
H772 H 0.17688 0.23378 0.71625 0.0
H773 H 0.44287 0.28415 0.64426 0.0
H774 H 0.36849 0.07707 0.66346 0.0
H775 H 0.52718 0.33981 0.63879 0.0
H776 H 0.08043 0.07442 0.72626 0.0
H777 H 0.50692 0.09712 0.66715 0.0
H778 H 0.57485 0.17571 0.66559 0.0
H779 H 0.09881 0.01355 0.73717 0.0
H780 H 0.60448 0.25644 0.65784 0.0
N781 N 0.42344 0.14555 0.66382 0.0
C782 C 0.40568 0.1001 0.6637 0.0
C783 C 0.48388 0.11099 0.66591 0.0
C784 C 0.50195 0.15729 0.66432 0.0
C785 C 0.43553 0.08225 0.66503 0.0
C786 C 0.47044 0.17357 0.66286 0.0
H787 H 0.58674 0.31784 0.6471 0.0
N788 N 0.45485 0.23185 0.65633 0.0
C789 C 0.51634 0.30586 0.64472 0.0
C790 C 0.48682 0.21851 0.65908 0.0
C791 C 0.46867 0.27426 0.64775 0.0
C792 C 0.54986 0.29337 0.64949 0.0
C793 C 0.53521 0.2489 0.65623 0.0
O794 O 0.37184 0.20506 0.62926 0.0
O795 O 0.31665 0.17447 0.68161 0.0
O796 O 0.26375 0.10055 0.69448 0.0
O797 O 0.3196 0.10876 0.66422 0.0
O798 O 0.35498 0.22803 0.65835 0.0
O799 O 0.36236 0.13862 0.63189 0.0
O800 O 0.31438 0.12798 0.7547 0.0
O801 O 0.36847 0.15796 0.7024 0.0
O802 O 0.42114 0.23203 0.68951 0.0
O803 O 0.36524 0.22378 0.71975 0.0
O804 O 0.32982 0.10419 0.72551 0.0
O805 O 0.32132 0.19341 0.75222 0.0
C806 C 0.31738 0.20831 0.67194 0.0
C807 C 0.38953 0.17721 0.5933 0.0
C808 C 0.38733 0.17537 0.54784 0.0
C809 C 0.36426 0.16707 0.57115 0.0
C810 C 0.43626 0.19411 0.54697 0.0
C811 C 0.43823 0.1953 0.59222 0.0
C812 C 0.46146 0.20377 0.56909 0.0
C813 C 0.27741 0.08629 0.67498 0.0
C814 C 0.36403 0.16952 0.6171 0.0
C815 C 0.56706 0.23348 0.65935 0.0
C816 C 0.55034 0.18766 0.66357 0.0
C817 C 0.3674 0.12384 0.71191 0.0
C818 C 0.29478 0.15413 0.7907 0.0
C819 C 0.31965 0.16366 0.81297 0.0
C820 C 0.29608 0.15409 0.83621 0.0
C821 C 0.24706 0.13463 0.83687 0.0
C822 C 0.24598 0.1354 0.79161 0.0
C823 C 0.22226 0.12559 0.81464 0.0
C824 C 0.40738 0.24635 0.70895 0.0
C825 C 0.32076 0.16296 0.76695 0.0
H826 H 0.32662 0.15335 0.57208 0.0
H827 H 0.45487 0.20063 0.52923 0.0
H828 H 0.45824 0.20296 0.60911 0.0
H829 H 0.49909 0.21786 0.56831 0.0
H830 H 0.35738 0.17795 0.81221 0.0
H831 H 0.22809 0.12714 0.85454 0.0
H832 H 0.22625 0.12824 0.77465 0.0
H833 H 0.18456 0.11099 0.81527 0.0
Tb834 Tb 0.85827 0.14842 0.72121 0.0
C835 C 0.77439 0.23623 0.65542 0.0
C836 C 0.69092 0.18442 0.65484 0.0
C837 C 0.72081 0.26422 0.64853 0.0
C838 C 0.73716 0.19307 0.65765 0.0
C839 C 0.76679 0.27237 0.65069 0.0
C840 C 0.68301 0.22029 0.6504 0.0
C841 C 0.85067 0.32122 0.6483 0.0
N842 N 0.81827 0.24246 0.65681 0.0
C843 C 0.85641 0.2842 0.65257 0.0
C844 C 0.80565 0.31535 0.6475 0.0
Tb845 Tb 0.82388 0.17958 0.66406 0.0
N846 N 0.7465 0.15933 0.66116 0.0
C847 C 0.71097 0.1157 0.66082 0.0
C848 C 0.65425 0.13993 0.65576 0.0
C849 C 0.66439 0.1054 0.65858 0.0
H850 H 0.89149 0.28947 0.6531 0.0
H851 H 0.63637 0.07081 0.65891 0.0
H852 H 0.64801 0.21442 0.64767 0.0
H853 H 0.88099 0.35423 0.64549 0.0
H854 H 0.71817 0.08857 0.66278 0.0
H855 H 0.04642 0.25674 0.72295 0.0
H856 H 0.61819 0.13184 0.65378 0.0
H857 H 0.79295 0.043 0.74115 0.0
H858 H 0.96452 0.2392 0.72128 0.0
H859 H 0.80338 0.97891 0.75112 0.0
H860 H 0.71417 0.29146 0.64478 0.0
H861 H 0.06475 0.19567 0.72698 0.0
H862 H 0.03503 0.11328 0.73411 0.0
H863 H 0.80129 0.34402 0.64392 0.0
H864 H 0.96881 0.03723 0.74114 0.0
N865 N 0.93593 0.16835 0.72285 0.0
C866 C 0.97163 0.21197 0.72281 0.0
C867 C 0.02858 0.18763 0.72592 0.0
C868 C 0.99185 0.14326 0.72782 0.0
C869 C 0.01836 0.22219 0.72378 0.0
C870 C 0.94544 0.13473 0.72624 0.0
H871 H 0.88205 0.98675 0.74798 0.0
N872 N 0.86478 0.08689 0.73116 0.0
C873 C 0.83324 0.01054 0.74519 0.0
C874 C 0.90836 0.09226 0.73056 0.0
C875 C 0.82752 0.04717 0.73945 0.0
C876 C 0.87762 0.01502 0.74328 0.0
C877 C 0.91608 0.05657 0.73648 0.0
O878 O 0.8222 0.13017 0.75594 0.0
O879 O 0.80495 0.15603 0.70216 0.0
O880 O 0.82973 0.22647 0.69275 0.0
O881 O 0.88363 0.22099 0.71793 0.0
O882 O 0.78265 0.10293 0.72588 0.0
O883 O 0.888 0.19139 0.75168 0.0
O884 O 0.86054 0.20218 0.6297 0.0
O885 O 0.87672 0.1705 0.68271 0.0
O886 O 0.84586 0.09608 0.6945 0.0
O887 O 0.79981 0.10735 0.66548 0.0
O888 O 0.89947 0.22488 0.65973 0.0
O889 O 0.79565 0.13931 0.63245 0.0
C890 C 0.76824 0.12295 0.71127 0.0
C891 C 0.86972 0.15591 0.7914 0.0
C892 C 0.86615 0.15569 0.83707 0.0
C893 C 0.85301 0.16466 0.81371 0.0
C894 C 0.8963 0.13786 0.83767 0.0
C895 C 0.90004 0.13849 0.79248 0.0
C896 C 0.91314 0.12945 0.81551 0.0
C897 C 0.86202 0.24243 0.71014 0.0
C898 C 0.85486 0.1648 0.76724 0.0
C899 C 0.96205 0.06418 0.73671 0.0
C900 C 0.99986 0.10753 0.73253 0.0
C901 C 0.91346 0.20361 0.67362 0.0
C902 C 0.81546 0.17725 0.5933 0.0
C903 C 0.83249 0.16816 0.57118 0.0
C904 C 0.82092 0.17808 0.54763 0.0
C905 C 0.7918 0.19704 0.54665 0.0
C906 C 0.78638 0.19596 0.59183 0.0
C907 C 0.77464 0.20578 0.56861 0.0
C908 C 0.8174 0.08347 0.67517 0.0
C909 C 0.82924 0.1677 0.6176 0.0
H910 H 0.82937 0.17791 0.81287 0.0
H911 H 0.90748 0.13107 0.8553 0.0
H912 H 0.91368 0.132 0.77561 0.0
H913 H 0.93659 0.11603 0.81618 0.0
H914 H 0.85533 0.15403 0.57235 0.0
H915 H 0.78172 0.20454 0.52887 0.0
H916 H 0.77279 0.20303 0.60855 0.0
H917 H 0.7521 0.22018 0.56761 0.0
C918 C 0.31437 0.9039 0.06895 0.0
C919 C 0.30969 0.86138 0.07215 0.0
H920 H 0.35869 0.97218 0.05721 0.0
C921 C 0.34633 0.85459 0.06394 0.0
H922 H 0.28646 0.90993 0.07482 0.0
C923 C 0.38793 0.89043 0.054 0.0
C924 C 0.39294 0.93325 0.0515 0.0
H925 H 0.34365 0.82214 0.06628 0.0
H926 H 0.41662 0.88495 0.04921 0.0
C927 C 0.35551 0.93939 0.05873 0.0
C928 C 0.10551 0.40422 0.06667 0.0
C929 C 0.15057 0.44158 0.06921 0.0
H930 H 0.03421 0.37974 0.05643 0.0
C931 C 0.15838 0.48402 0.06172 0.0
H932 H 0.09843 0.37113 0.07233 0.0
C933 C 0.1212 0.48905 0.05287 0.0
C934 C 0.07596 0.45153 0.05071 0.0
H935 H 0.19262 0.51345 0.06375 0.0
H936 H 0.12757 0.52232 0.04835 0.0
C937 C 0.06874 0.40914 0.0576 0.0
C938 C 0.52698 0.68035 0.06369 0.0
C939 C 0.56948 0.7043 0.07643 0.0
H940 H 0.48198 0.62203 0.04275 0.0
C941 C 0.59991 0.68681 0.07726 0.0
H942 H 0.50233 0.69239 0.06297 0.0
C943 C 0.58776 0.64604 0.06609 0.0
C944 C 0.54526 0.62215 0.0535 0.0
H945 H 0.63336 0.70474 0.0864 0.0
H946 H 0.61189 0.63341 0.06721 0.0
C947 C 0.51517 0.63987 0.05219 0.0
C948 C 0.87204 0.33087 0.96096 0.0
C949 C 0.84739 0.29197 0.97602 0.0
H950 H 0.92204 0.40129 0.95949 0.0
C951 C 0.85344 0.29587 1.00207 0.0
H952 H 0.86768 0.32956 0.94091 0.0
C953 C 0.8838 0.33729 1.01267 0.0
C954 C 0.90914 0.37557 0.99748 0.0
H955 H 0.83602 0.26669 1.01428 0.0
H956 H 0.88895 0.33887 0.0326 0.0
C957 C 0.90299 0.37206 0.97156 0.0
C958 C 0.6754 0.5092 0.98707 0.0
C959 C 0.71251 0.55174 0.97969 0.0
H960 H 0.60392 0.47103 1.00077 0.0
C961 C 0.7071 0.58925 0.98305 0.0
H962 H 0.67858 0.47968 0.98457 0.0
C963 C 0.66523 0.58446 0.99267 0.0
C964 C 0.62736 0.54202 0.9992 0.0
H965 H 0.73507 0.62241 0.97763 0.0
H966 H 0.66194 0.61409 0.99436 0.0
C967 C 0.63284 0.50428 0.99646 0.0
C968 C 0.4211 0.10234 0.97253 0.0
C969 C 0.45143 0.14896 0.9734 0.0
H970 H 0.40904 0.03732 0.98254 0.0
C971 C 0.49404 0.16541 0.98608 0.0
H972 H 0.38758 0.08837 0.96346 0.0
C973 C 0.50584 0.13597 0.99761 0.0
C974 C 0.47567 0.08945 0.99638 0.0
H975 H 0.51872 0.20103 0.98681 0.0
H976 H 0.53901 0.14966 1.00706 0.0
C977 C 0.43325 0.07298 0.98369 0.0
C978 C 0.67188 0.14222 0.98808 0.0
C979 C 0.70856 0.13528 0.98018 0.0
H980 H 0.60134 0.11201 1.00236 0.0
C981 C 0.70381 0.09277 0.98361 0.0
H982 H 0.67461 0.17465 0.98551 0.0
C983 C 0.66246 0.05736 0.99366 0.0
C984 C 0.62494 0.06361 1.00051 0.0
H985 H 0.73174 0.08666 0.97791 0.0
H986 H 0.65915 0.02453 0.9953 0.0
C987 C 0.63009 0.10646 0.99787 0.0
C988 C 0.85959 0.51229 0.989 0.0
C989 C 0.86744 0.55433 0.98066 0.0
H990 H 0.89048 0.47449 1.00303 0.0
C991 C 0.91265 0.59174 0.98265 0.0
H992 H 0.82523 0.48283 0.98747 0.0
C993 C 0.94957 0.58713 0.9918 0.0
C994 C 0.94239 0.54503 0.99931 0.0
H995 H 0.91976 0.62458 0.97643 0.0
H996 H 0.98421 0.61651 0.99245 0.0
C997 C 0.89692 0.50756 0.99794 0.0
C998 C 0.46264 0.33245 0.95903 0.0
C999 C 0.44922 0.29366 0.97365 0.0
H1000 H 0.48412 0.40231 0.95864 0.0
C1001 C 0.44723 0.2964 0.99981 0.0
H1002 H 0.46532 0.33182 0.93887 0.0
C1003 C 0.45888 0.33701 1.01105 0.0
C1004 C 0.47217 0.37547 0.9964 0.0
H1005 H 0.43595 0.26703 1.01164 0.0
H1006 H 0.45622 0.33795 0.03111 0.0
C1007 C 0.47358 0.37286 0.97031 0.0
C1008 C 0.1655 0.70103 0.04841 0.0
C1009 C 0.17087 0.70456 0.07451 0.0
H1010 H 0.13063 0.6584 1.0176 0.0
C1011 C 0.14603 0.66543 0.08936 0.0
H1012 H 0.18323 0.7304 0.03636 0.0
C1013 C 0.11533 0.62441 0.07853 0.0
C1014 C 0.1096 0.62127 0.05258 0.0
H1015 H 0.14997 0.66643 0.10943 0.0
H1016 H 0.09606 0.59503 0.09048 0.0
C1017 C 0.13535 0.65973 0.03757 0.0
C1018 C 0.31144 0.40617 0.0658 0.0
C1019 C 0.30495 0.44313 0.06885 0.0
H1020 H 0.35779 0.38253 0.05478 0.0
C1021 C 0.34103 0.48571 0.06075 0.0
H1022 H 0.28421 0.37294 0.07165 0.0
C1023 C 0.38384 0.49138 0.05127 0.0
C1024 C 0.39065 0.45431 0.04911 0.0
H1025 H 0.33702 0.51483 0.06293 0.0
H1026 H 0.41208 0.52482 0.0467 0.0
C1027 C 0.35353 0.41167 0.05602 0.0
C1028 C 0.52532 0.83224 0.06499 0.0
C1029 C 0.56756 0.84884 0.07805 0.0
H1030 H 0.48039 0.84768 0.04376 0.0
C1031 C 0.59719 0.89549 0.07946 0.0
H1032 H 0.50117 0.79655 0.06384 0.0
C1033 C 0.58476 0.92471 0.06835 0.0
C1034 C 0.54275 0.90809 0.05522 0.0
H1035 H 0.63041 0.9096 0.08885 0.0
H1036 H 0.60846 0.9604 0.06989 0.0
C1037 C 0.51324 0.86153 0.05353 0.0
C1038 C 0.01179 0.188 0.39519 0.0
C1039 C 0.97552 0.19552 0.40317 0.0
H1040 H 0.08257 0.21762 0.38114 0.0
C1041 C 0.98109 0.23837 0.3999 0.0
H1042 H 1.00842 0.15529 0.39765 0.0
C1043 C 0.02286 0.27356 0.39003 0.0
C1044 C 0.06009 0.26681 0.38323 0.0
H1045 H 0.95357 0.24499 0.40572 0.0
H1046 H 0.02677 0.30665 0.38861 0.0
C1047 C 0.05408 0.22357 0.3856 0.0
C1048 C 0.82487 0.81899 0.3967 0.0
C1049 C 0.81723 0.77603 0.40274 0.0
H1050 H 0.79399 0.85812 0.38494 0.0
C1051 C 0.77234 0.73882 0.39941 0.0
H1052 H 0.85893 0.84829 0.39945 0.0
C1053 C 0.7356 0.74433 0.39089 0.0
C1054 C 0.7427 0.78717 0.3853 0.0
H1055 H 0.76536 0.70537 0.40409 0.0
H1056 H 0.70118 0.715 0.38908 0.0
C1057 C 0.78774 0.82457 0.38834 0.0
C1058 C 0.26396 0.01899 0.41126 0.0
C1059 C 0.23347 0.03633 0.41021 0.0
H1060 H 0.27634 0.96587 0.4013 0.0
C1061 C 0.19118 0.01245 0.3973 0.0
H1062 H 0.29726 0.03696 0.42054 0.0
C1063 C 0.17965 0.97209 0.38578 0.0
C1064 C 0.20987 0.95455 0.38725 0.0
H1065 H 0.16656 0.02452 0.39642 0.0
H1066 H 0.14665 0.95425 0.37617 0.0
C1067 C 0.25213 0.97838 0.40005 0.0
C1068 C 0.50276 0.64837 0.32283 0.0
C1069 C 0.52038 0.62508 0.30921 0.0
H1070 H 0.51855 0.70753 0.34311 0.0
C1071 C 0.56927 0.6444 0.30641 0.0
H1072 H 0.46535 0.63475 0.32516 0.0
C1073 C 0.59971 0.68613 0.31658 0.0
C1074 C 0.58215 0.70952 0.33007 0.0
H1075 H 0.58421 0.62708 0.2965 0.0
H1076 H 0.63706 0.69982 0.31397 0.0
C1077 C 0.53331 0.69015 0.33312 0.0
C1078 C 0.37435 0.92734 0.31731 0.0
C1079 C 0.38132 0.89055 0.31477 0.0
H1080 H 0.32741 0.95067 0.32762 0.0
C1081 C 0.34551 0.84809 0.32319 0.0
H1082 H 0.40136 0.96052 0.31123 0.0
C1083 C 0.3025 0.84228 0.33241 0.0
C1084 C 0.29518 0.87912 0.33398 0.0
H1085 H 0.34985 0.81909 0.32142 0.0
H1086 H 0.27452 0.80887 0.33725 0.0
C1087 C 0.33203 0.92171 0.32681 0.0
C1088 C 0.08979 0.43708 0.30639 0.0
C1089 C 0.12005 0.48361 0.30769 0.0
H1090 H 0.0777 0.3719 0.31589 0.0
C1091 C 0.16217 0.49987 0.32079 0.0
H1092 H 0.05662 0.42334 0.29698 0.0
C1093 C 0.17379 0.47024 0.33217 0.0
C1094 C 0.14387 0.42377 0.33037 0.0
H1095 H 0.18668 0.5355 0.32187 0.0
H1096 H 0.2067 0.48374 0.34187 0.0
C1097 C 0.10173 0.40752 0.31743 0.0
C1098 C 0.34173 0.47735 0.3221 0.0
C1099 C 0.37815 0.47018 0.31396 0.0
H1100 H 0.27101 0.44724 0.33625 0.0
C1101 C 0.3729 0.42742 0.31701 0.0
H1102 H 0.34485 0.50999 0.31981 0.0
C1103 C 0.33128 0.39197 0.32683 0.0
C1104 C 0.29391 0.39838 0.33379 0.0
H1105 H 0.40057 0.42109 0.31106 0.0
H1106 H 0.32761 0.35896 0.3281 0.0
C1107 C 0.29961 0.44153 0.33164 0.0
C1108 C 0.52724 0.84734 0.3202 0.0
C1109 C 0.53487 0.89027 0.31413 0.0
H1110 H 0.55812 0.80834 0.33218 0.0
C1111 C 0.57962 0.92756 0.31762 0.0
H1112 H 0.49328 0.818 0.31731 0.0
C1113 C 0.61629 0.92215 0.32636 0.0
C1114 C 0.60921 0.87934 0.33198 0.0
H1115 H 0.58656 0.961 0.31293 0.0
H1116 H 0.65063 0.95153 0.3283 0.0
C1117 C 0.56431 0.84186 0.32876 0.0
C1118 C 0.16245 0.65326 0.32009 0.0
C1119 C 0.12039 0.62912 0.30704 0.0
H1120 H 0.20657 0.7118 0.34105 0.0
C1121 C 0.08982 0.64637 0.30558 0.0
H1122 H 0.1871 0.64128 0.32129 0.0
C1123 C 0.10141 0.68715 0.31649 0.0
C1124 C 0.14346 0.71123 0.32943 0.0
H1125 H 0.05668 0.62821 0.29617 0.0
H1126 H 0.07717 0.69956 0.31494 0.0
C1127 C 0.17373 0.69378 0.33132 0.0
C1128 C 0.84967 0.01771 0.39447 0.0
C1129 C 0.83236 0.04113 0.40822 0.0
H1130 H 0.83343 0.95852 0.37409 0.0
C1131 C 0.7835 0.0219 0.41121 0.0
H1132 H 0.88703 0.0312 0.39199 0.0
C1133 C 0.75282 0.98016 0.40111 0.0
C1134 C 0.77008 0.95668 0.38746 0.0
H1135 H 0.76874 0.03931 0.4212 0.0
H1136 H 0.71551 0.96656 0.40385 0.0
C1137 C 0.81889 0.97596 0.38422 0.0
C1138 C 1.00674 0.81799 0.3932 0.0
C1139 C 0.97084 0.77553 0.40158 0.0
H1140 H 0.07781 0.85714 0.37923 0.0
C1141 C 0.97775 0.7387 0.39904 0.0
H1142 H 1.00247 0.84702 0.39499 0.0
C1143 C 0.0201 0.74429 0.3896 0.0
C1144 C 0.05704 0.78686 0.38248 0.0
H1145 H 0.95069 0.70553 0.40508 0.0
H1146 H 0.02467 0.71529 0.3888 0.0
C1147 C 0.04977 0.82374 0.38403 0.0
C1148 C 0.26466 0.22842 0.41118 0.0
C1149 C 0.23426 0.18189 0.41013 0.0
H1150 H 0.27693 0.29352 0.40129 0.0
C1151 C 0.19191 0.16555 0.39722 0.0
H1152 H 0.29796 0.24221 0.42047 0.0
C1153 C 0.18032 0.19507 0.38568 0.0
C1154 C 0.21047 0.24153 0.38716 0.0
H1155 H 0.16727 0.12992 0.39635 0.0
H1156 H 0.14729 0.1815 0.37611 0.0
C1157 C 0.25275 0.25788 0.39999 0.0
C1158 C 0.6784 0.52292 0.72854 0.0
C1159 C 0.64202 0.53015 0.73667 0.0
H1160 H 0.74868 0.55266 0.71385 0.0
C1161 C 0.647 0.57274 0.73315 0.0
H1162 H 0.67551 0.49043 0.73114 0.0
C1163 C 0.68825 0.6079 0.7228 0.0
C1164 C 0.72554 0.60139 0.71576 0.0
H1165 H 0.61932 0.57912 0.73899 0.0
H1166 H 0.69172 0.64078 0.72113 0.0
C1167 C 0.72014 0.55844 0.71847 0.0
C1168 C 0.49076 0.15112 0.72984 0.0
C1169 C 0.48262 0.10847 0.73713 0.0
H1170 H 0.46044 0.18995 0.71656 0.0
C1171 C 0.43742 0.07135 0.73449 0.0
H1172 H 0.5251 0.18037 0.73197 0.0
C1173 C 0.4009 0.07669 0.72543 0.0
C1174 C 0.40849 0.11925 0.71862 0.0
H1175 H 0.43007 0.03812 0.74001 0.0
H1176 H 0.36629 0.04744 0.72411 0.0
C1177 C 0.45381 0.15656 0.72099 0.0
C1178 C 0.85677 0.34486 0.72989 0.0
C1179 C 0.89898 0.36906 0.74281 0.0
H1180 H 0.81209 0.28594 0.70935 0.0
C1181 C 0.92926 0.35148 0.74441 0.0
H1182 H 0.83229 0.35703 0.72858 0.0
C1183 C 0.91722 0.31032 0.7338 0.0
C1184 C 0.87501 0.28618 0.72101 0.0
H1185 H 0.96251 0.36963 0.75372 0.0
H1186 H 0.94124 0.29765 0.73546 0.0
C1187 C 0.84506 0.30398 0.71897 0.0
C1188 C 0.20695 -0.00047 0.62691 0.0
C1189 C 0.18133 0.96043 0.6417 0.0
H1190 H 0.25774 0.06975 0.62594 0.0
C1191 C 0.18667 0.9638 0.66782 0.0
H1192 H 0.20318 -0.00131 0.60683 0.0
C1193 C 0.21719 0.0049 0.67873 0.0
C1194 C 0.24344 0.04336 0.6638 0.0
H1195 H 0.1685 0.93446 0.67986 0.0
H1196 H 0.22165 0.0061 0.69872 0.0
C1197 C 0.23805 0.04037 0.63782 0.0
C1198 C 0.00883 0.17565 0.65633 0.0
C1199 C 0.0456 0.21837 0.64892 0.0
H1200 H 0.93728 0.1368 0.66984 0.0
C1201 C 0.03968 0.25558 0.65239 0.0
H1202 H 0.01235 0.14634 0.65371 0.0
C1203 C 0.9975 0.25026 0.66187 0.0
C1204 C 0.9598 0.20759 0.66816 0.0
H1205 H 0.06736 0.28886 0.64695 0.0
H1206 H 0.99375 0.27964 0.66347 0.0
C1207 C 0.96599 0.17021 0.66563 0.0
C1208 C 0.78279 0.81205 0.66496 0.0
C1209 C 0.7811 0.81456 0.63874 0.0
H1210 H 0.79673 0.78229 0.69641 0.0
C1211 C 0.79332 0.78803 0.62418 0.0
H1212 H 0.77252 0.8311 0.67684 0.0
C1213 C 0.80673 0.75969 0.63557 0.0
C1214 C 0.8089 0.7578 0.66171 0.0
H1215 H 0.79316 0.78953 0.60397 0.0
H1216 H 0.81597 0.73963 0.6239 0.0
C1217 C 0.79687 0.78421 0.67628 0.0
C1218 C 0.03679 0.76148 0.64786 0.0
C1219 C 0.04149 0.80402 0.64474 0.0
H1220 H 0.99251 0.69317 0.6595 0.0
C1221 C 1.00482 0.81078 0.65296 0.0
H1222 H 0.0647 0.75547 0.64196 0.0
C1223 C 0.96319 0.77487 0.66287 0.0
C1224 C 0.95821 0.73205 0.66526 0.0
H1225 H 1.00752 0.84324 0.65067 0.0
H1226 H 0.93447 0.78025 0.66782 0.0
C1227 C 0.99564 0.72594 0.65799 0.0
C1228 C 0.24556 0.25828 0.64821 0.0
C1229 C 0.20055 0.22064 0.6461 0.0
H1230 H 0.31705 0.28362 0.65842 0.0
C1231 C 0.19327 0.17856 0.65394 0.0
H1232 H 0.25225 0.29112 0.64228 0.0
C1233 C 0.23079 0.17415 0.66288 0.0
C1234 C 0.27586 0.21198 0.66487 0.0
H1235 H 0.15908 0.14891 0.65226 0.0
H1236 H 0.22471 0.14112 0.66776 0.0
C1237 C 0.28265 0.254 0.65743 0.0
C1238 C 0.78107 0.96203 0.6656 0.0
C1239 C 0.78068 0.95947 0.63936 0.0
H1240 H 0.79245 0.00307 0.69738 0.0
C1241 C 0.7925 0.99827 0.62512 0.0
H1242 H 0.77103 0.93263 0.67719 0.0
C1243 C 0.80418 0.03851 0.63687 0.0
C1244 C 0.80502 0.04092 0.66304 0.0
H1245 H 0.79327 0.99776 0.6049 0.0
H1246 H 0.81334 0.06794 0.62547 0.0
C1247 C 0.79343 0.00243 0.67727 0.0
C1248 C 0.47745 0.33486 0.75636 0.0
C1249 C 0.50253 0.37363 0.74124 0.0
H1250 H 0.42739 0.26442 0.75791 0.0
C1251 C 0.49684 0.36946 0.71517 0.0
H1252 H 0.48147 0.3363 0.77643 0.0
C1253 C 0.46664 0.32793 0.7046 0.0
C1254 C 0.44103 0.28975 0.71983 0.0
H1255 H 0.51453 0.3985 0.70287 0.0
H1256 H 0.46192 0.32614 0.68462 0.0
C1257 C 0.44664 0.29355 0.74578 0.0
C1258 C 0.6424 0.07103 0.73321 0.0
C1259 C 0.63618 0.10817 0.7362 0.0
H1260 H 0.68838 0.04693 0.72224 0.0
C1261 C 0.67239 0.15058 0.72794 0.0
H1262 H 0.61508 0.03791 0.73916 0.0
C1263 C 0.71505 0.15593 0.71842 0.0
C1264 C 0.72162 0.11869 0.71637 0.0
H1265 H 0.66862 0.17985 0.73006 0.0
H1266 H 0.74337 0.18926 0.71375 0.0
C1267 C 0.68434 0.0762 0.72339 0.0
C1268 C 0.92922 0.56134 0.74344 0.0
C1269 C 0.89916 0.51476 0.74208 0.0
H1270 H 0.94098 0.62647 0.7341 0.0
C1271 C 0.85698 0.49846 0.72901 0.0
H1272 H 0.96242 0.57517 0.75283 0.0
C1273 C 0.84513 0.52805 0.71773 0.0
C1274 C 0.87489 0.57454 0.71957 0.0
H1275 H 0.8326 0.46281 0.72787 0.0
H1276 H 0.8122 0.51448 0.70806 0.0
C1277 C 0.91705 0.59083 0.7325 0.0
C1278 C 0.53947 0.98828 0.23683 0.0
C1279 C 0.49309 0.95341 0.24104 0.0
H1280 H 0.5893 0.03835 0.21162 0.0
C1281 C 0.46083 0.94273 0.22164 0.0
H1282 H 0.56524 0.99794 0.25135 0.0
C1283 C 0.4747 0.96631 0.19868 0.0
C1284 C 0.52105 0.0015 0.19466 0.0
H1285 H 0.42492 0.91589 0.22412 0.0
H1286 H 0.44889 0.95758 0.18427 0.0
C1287 C 0.5532 0.01187 0.21405 0.0
C1288 C 1.00687 0.48036 0.23447 0.0
C1289 C 0.04776 0.52222 0.23683 0.0
H1290 H 0.94942 0.43742 0.21128 0.0
C1291 C 0.06268 0.55311 0.2168 0.0
H1292 H 0.99446 0.45612 0.24974 0.0
C1293 C 0.03704 0.54242 0.19485 0.0
C1294 C 0.99574 0.50083 0.19263 0.0
H1295 H 0.09421 0.58553 0.21812 0.0
H1296 H 0.04909 0.56698 0.17976 0.0
C1297 C 0.98092 0.46986 0.21262 0.0
C1298 C 0.48393 0.47702 0.23542 0.0
C1299 C 0.48512 0.518 0.23879 0.0
H1300 H 0.49769 0.43596 0.21089 0.0
C1301 C 0.50062 0.54909 0.21878 0.0
H1302 H 0.47255 0.45248 0.2505 0.0
C1303 C 0.51523 0.53968 0.19608 0.0
C1304 C 0.51502 0.4991 0.19292 0.0
H1305 H 0.50154 0.58078 0.22069 0.0
H1306 H 0.52779 0.56468 0.1812 0.0
C1307 C 0.4988 0.46774 0.2128 0.0
C1308 C 0.95712 0.44532 0.83284 0.0
C1309 C 0.97204 0.47633 0.81286 0.0
H1310 H 0.97061 0.43119 0.86984 0.0
C1311 C 0.01288 0.51821 0.81533 0.0
H1312 H 0.92563 0.41289 0.83145 0.0
C1313 C 0.03878 0.52858 0.83722 0.0
C1314 C 0.02396 0.49747 0.85715 0.0
H1315 H 0.02531 0.54256 0.80011 0.0
H1316 H 0.07024 0.56102 0.83863 0.0
C1317 C 0.98269 0.45588 0.85481 0.0
C1318 C 0.51605 0.4513 0.83062 0.0
C1319 C 0.53144 0.48215 0.81048 0.0
H1320 H 0.48948 0.43633 0.86834 0.0
C1321 C 0.53237 0.52305 0.81366 0.0
H1322 H 0.51532 0.41967 0.82886 0.0
C1323 C 0.51767 0.5326 0.83626 0.0
C1324 C 0.50195 0.50165 0.85634 0.0
H1325 H 0.54368 0.54741 0.79849 0.0
H1326 H 0.51875 0.56439 0.83804 0.0
C1327 C 0.50169 0.46102 0.85332 0.0
C1328 C 0.47877 0.01126 0.81472 0.0
C1329 C 0.52516 0.04604 0.8104 0.0
H1330 H 0.42906 0.96121 0.83999 0.0
C1331 C 0.55752 0.05668 0.82976 0.0
H1332 H 0.45289 0.0016 0.80026 0.0
C1333 C 0.54374 0.03312 0.85275 0.0
C1334 C 0.4974 0.99795 0.85685 0.0
H1335 H 0.59344 0.08346 0.82721 0.0
H1336 H 0.56963 0.04179 0.86711 0.0
C1337 C 0.46515 0.98768 0.83752 0.0
C1338 C 0.17102 0.26624 0.55366 0.0
C1339 C 0.15194 0.27925 0.57341 0.0
H1340 H 0.19951 0.27979 0.51619 0.0
C1341 C 0.14577 0.31637 0.56958 0.0
H1342 H 0.17596 0.23764 0.55591 0.0
C1343 C 0.15951 0.34059 0.54695 0.0
C1344 C 0.17932 0.32812 0.52736 0.0
H1345 H 0.13156 0.32757 0.58439 0.0
H1346 H 0.15495 0.36945 0.54484 0.0
C1347 C 0.18417 0.29016 0.53084 0.0
C1348 C 0.71481 0.88254 0.55093 0.0
C1349 C 0.7007 0.85078 0.57051 0.0
H1350 H 0.70137 0.89738 0.5141 0.0
C1351 C 0.66083 0.80835 0.56751 0.0
H1352 H 0.7456 0.91539 0.55265 0.0
C1353 C 0.63537 0.79807 0.54542 0.0
C1354 C 0.64968 0.82984 0.52582 0.0
H1355 H 0.649 0.78336 0.58236 0.0
H1356 H 0.60486 0.76508 0.54353 0.0
C1357 C 0.6897 0.87213 0.52881 0.0
C1358 C 0.16953 0.88449 0.55182 0.0
C1359 C 0.15391 0.85354 0.5719 0.0
H1360 H 0.19684 0.89971 0.51423 0.0
C1361 C 0.15347 0.81285 0.56887 0.0
H1362 H 0.16993 0.91598 0.55352 0.0
C1363 C 0.16884 0.80356 0.54642 0.0
C1364 C 0.18471 0.83457 0.52638 0.0
H1365 H 0.14199 0.78845 0.58402 0.0
H1366 H 0.16815 0.77193 0.54471 0.0
C1367 C 0.18453 0.875 0.52926 0.0
C1368 C 0.63486 0.8308 0.16683 0.0
C1369 C 0.64536 0.81067 0.14694 0.0
H1370 H 0.65159 0.85702 0.20378 0.0
C1371 C 0.68233 0.80173 0.14955 0.0
H1372 H 0.60642 0.83786 0.16552 0.0
C1373 C 0.70782 0.81218 0.17157 0.0
C1374 C 0.69711 0.83196 0.19156 0.0
H1375 H 0.69179 0.78681 0.13448 0.0
H1376 H 0.73549 0.80408 0.17306 0.0
C1377 C 0.66043 0.84131 0.18888 0.0
C1378 C 0.14767 0.7969 0.14823 0.0
C1379 C 0.19521 0.81041 0.14432 0.0
H1380 H 0.09527 0.7947 0.17314 0.0
C1381 C 0.22687 0.83288 0.16358 0.0
H1382 H 0.12242 0.7799 0.13371 0.0
C1383 C 0.2113 0.84154 0.18622 0.0
C1384 C 0.16377 0.82828 0.19002 0.0
H1385 H 0.26365 0.84339 0.16124 0.0
H1386 H 0.2366 0.85926 0.2006 0.0
C1387 C 0.13218 0.80577 0.17075 0.0
C1388 C 0.1473 0.34565 0.14721 0.0
C1389 C 0.19363 0.38055 0.14288 0.0
H1390 H 0.09766 0.29568 0.17252 0.0
C1391 C 0.22597 0.39146 0.16228 0.0
H1392 H 0.12145 0.33576 0.13272 0.0
C1393 C 0.21224 0.36802 0.18531 0.0
C1394 C 0.16596 0.33274 0.18941 0.0
H1395 H 0.26185 0.41834 0.15973 0.0
H1396 H 0.23812 0.37688 0.19969 0.0
C1397 C 0.13372 0.32223 0.17005 0.0
C1398 C 0.79232 0.6028 0.88673 0.0
C1399 C 0.8245 0.61383 0.90622 0.0
H1400 H 0.78024 0.6177 0.84939 0.0
C1401 C 0.87069 0.64912 0.90209 0.0
H1402 H 0.75655 0.57563 0.88913 0.0
C1403 C 0.88426 0.6729 0.87937 0.0
C1404 C 0.85211 0.66235 0.85996 0.0
H1405 H 0.89641 0.6591 0.91666 0.0
H1406 H 0.92018 0.69981 0.87704 0.0
C1407 C 0.80602 0.62661 0.86383 0.0
C1408 C 0.38859 0.21752 0.8844 0.0
C1409 C 0.37437 0.18594 0.90405 0.0
H1410 H 0.37487 0.23211 0.84756 0.0
C1411 C 0.33437 0.14357 0.90123 0.0
H1412 H 0.41946 0.25035 0.88605 0.0
C1413 C 0.30864 0.13324 0.87926 0.0
C1414 C 0.3229 0.16488 0.85962 0.0
H1415 H 0.32251 0.11876 0.91619 0.0
H1416 H 0.27786 0.10038 0.87753 0.0
C1417 C 0.36326 0.20701 0.86235 0.0
C1418 C 0.81883 0.1435 0.90348 0.0
C1419 C 0.81931 0.18418 0.90666 0.0
H1420 H 0.83288 0.10253 0.87903 0.0
C1421 C 0.8343 0.21503 0.88654 0.0
H1422 H 0.80782 0.11918 0.91865 0.0
C1423 C 0.84873 0.2055 0.86383 0.0
C1424 C 0.84889 0.16509 0.86079 0.0
H1425 H 0.83466 0.24648 0.88834 0.0
H1426 H 0.86065 0.23018 0.8488 0.0
C1427 C 0.83358 0.13414 0.88085 0.0
C1428 C 0.29313 0.11206 0.50037 0.0
C1429 C 0.3078 0.14308 0.48042 0.0
H1430 H 0.30693 0.09802 0.53733 0.0
C1431 C 0.34867 0.18496 0.4828 0.0
H1432 H 0.26162 0.07962 0.49905 0.0
C1433 C 0.37477 0.19538 0.50462 0.0
C1434 C 0.3601 0.16432 0.52456 0.0
H1435 H 0.36093 0.20932 0.46759 0.0
H1436 H 0.40617 0.22788 0.50599 0.0
C1437 C 0.31889 0.12267 0.52228 0.0
C1438 C 0.85283 0.11812 0.49847 0.0
C1439 C 0.8685 0.14902 0.47835 0.0
H1440 H 0.82565 0.10303 0.53607 0.0
C1441 C 0.86995 0.19015 0.48156 0.0
H1442 H 0.8517 0.08631 0.49669 0.0
C1443 C 0.85516 0.19975 0.50411 0.0
C1444 C 0.83878 0.16859 0.5241 0.0
H1445 H 0.88147 0.21455 0.4664 0.0
H1446 H 0.85646 0.23164 0.50589 0.0
C1447 C 0.83832 0.12787 0.52111 0.0
C1448 C 0.89207 0.72342 0.49483 0.0
C1449 C 0.85965 0.71268 0.4755 0.0
H1450 H 0.9044 0.70846 0.5321 0.0
C1451 C 0.81336 0.67767 0.47977 0.0
H1452 H 0.92791 0.75037 0.49231 0.0
C1453 C 0.7999 0.65393 0.50251 0.0
C1454 C 0.83223 0.66433 0.5218 0.0
H1455 H 0.78747 0.66799 0.46531 0.0
H1456 H 0.76389 0.62729 0.50498 0.0
C1457 C 0.87846 0.69971 0.51775 0.0
loop_
_geom_bond_atom_site_label_1
_geom_bond_atom_site_label_2
_geom_bond_distance
_geom_bond_site_symmetry_2
_ccdc_geom_bond_type
H0 C3 0.931 . S
H1 C6 0.928 . S
H2 C8 0.930 . S
C3 H0 0.931 . S
C3 C4 1.413 . S
C3 C5 1.360 . S
C4 C3 1.413 . S
C4 C8 1.429 . S
C5 C3 1.360 . S
C5 C6 1.372 . S
C6 H1 0.928 . S
C6 C5 1.372 . S
C6 C7 1.404 . S
C7 C6 1.404 . S
C7 C8 1.391 . S
C8 H2 0.930 . S
C8 C4 1.429 . S
C8 C7 1.391 . S
H9 C12 0.931 . S
H10 C15 0.928 . S
H11 C17 0.930 . S
C12 H9 0.931 . S
C12 C13 1.413 . S
C12 C14 1.360 . S
C13 C12 1.413 . S
C13 C17 1.429 . S
C14 C12 1.360 . S
C14 C15 1.372 . S
C15 H10 0.928 . S
C15 C14 1.372 . S
C15 C16 1.404 . S
C16 C15 1.404 . S
C16 C17 1.391 . S
C17 H11 0.930 . S
C17 C13 1.429 . S
C17 C16 1.391 . S
H18 C21 0.931 . S
H19 C24 0.928 . S
H20 C26 0.930 . S
C21 H18 0.931 . S
C21 C22 1.413 . S
C21 C23 1.360 . S
C22 C21 1.413 . S
C22 C26 1.429 . S
C23 C21 1.360 . S
C23 C24 1.372 . S
C24 H19 0.928 . S
C24 C23 1.372 . S
C24 C25 1.404 . S
C25 C24 1.404 . S
C25 C26 1.391 . S
C26 H20 0.930 . S
C26 C22 1.429 . S
C26 C25 1.391 . S
H27 C30 0.931 . S
H28 C33 0.928 . S
H29 C35 0.930 . S
C30 H27 0.931 . S
C30 C31 1.413 . S
C30 C32 1.360 . S
C31 C30 1.413 . S
C31 C35 1.429 . S
C32 C30 1.360 . S
C32 C33 1.372 . S
C33 H28 0.928 . S
C33 C32 1.372 . S
C33 C34 1.404 . S
C34 C33 1.404 . S
C34 C35 1.391 . S
C35 H29 0.930 . S
C35 C31 1.429 . S
C35 C34 1.391 . S
H36 C39 0.931 . S
H37 C42 0.928 . S
H38 C44 0.930 . S
C39 H36 0.931 . S
C39 C40 1.413 . S
C39 C41 1.360 . S
C40 C39 1.413 . S
C40 C44 1.429 . S
C41 C39 1.360 . S
C41 C42 1.372 . S
C42 H37 0.928 . S
C42 C41 1.372 . S
C42 C43 1.404 . S
C43 C42 1.404 . S
C43 C44 1.391 . S
C44 H38 0.930 . S
C44 C40 1.429 . S
C44 C43 1.391 . S
H45 C48 0.931 . S
H46 C51 0.928 . S
H47 C53 0.930 . S
C48 H45 0.931 . S
C48 C49 1.413 . S
C48 C50 1.360 . S
C49 C48 1.413 . S
C49 C53 1.429 . S
C50 C48 1.360 . S
C50 C51 1.372 . S
C51 H46 0.928 . S
C51 C50 1.372 . S
C51 C52 1.404 . S
C52 C51 1.404 . S
C52 C53 1.391 . S
C53 H47 0.930 . S
C53 C49 1.429 . S
C53 C52 1.391 . S
H54 C57 0.931 . S
H55 C60 0.928 . S
H56 C62 0.930 . S
C57 H54 0.931 . S
C57 C58 1.413 . S
C57 C59 1.360 . S
C58 C57 1.413 . S
C58 C62 1.429 . S
C59 C57 1.360 . S
C59 C60 1.372 . S
C60 H55 0.928 . S
C60 C59 1.372 . S
C60 C61 1.404 . S
C61 C60 1.404 . S
C61 C62 1.391 . S
C62 H56 0.930 . S
C62 C58 1.429 . S
C62 C61 1.391 . S
H63 C66 0.931 . S
H64 C69 0.928 . S
H65 C71 0.930 . S
C66 H63 0.931 . S
C66 C67 1.413 . S
C66 C68 1.360 . S
C67 C66 1.413 . S
C67 C71 1.429 . S
C68 C66 1.360 . S
C68 C69 1.372 . S
C69 H64 0.928 . S
C69 C68 1.372 . S
C69 C70 1.404 . S
C70 C69 1.404 . S
C70 C71 1.391 . S
C71 H65 0.930 . S
C71 C67 1.429 . S
C71 C70 1.391 . S
H72 C75 0.931 . S
H73 C78 0.928 . S
H74 C80 0.930 . S
C75 H72 0.931 . S
C75 C76 1.413 . S
C75 C77 1.360 . S
C76 C75 1.413 . S
C76 C80 1.429 . S
C77 C75 1.360 . S
C77 C78 1.372 . S
C78 H73 0.928 . S
C78 C77 1.372 . S
C78 C79 1.404 . S
C79 C78 1.404 . S
C79 C80 1.391 . S
C80 H74 0.930 . S
C80 C76 1.429 . S
C80 C79 1.391 . S
H81 C84 0.931 . S
H82 C87 0.928 . S
H83 C89 0.930 . S
C84 H81 0.931 . S
C84 C85 1.413 . S
C84 C86 1.360 . S
C85 C84 1.413 . S
C85 C89 1.429 . S
C86 C84 1.360 . S
C86 C87 1.372 . S
C87 H82 0.928 . S
C87 C86 1.372 . S
C87 C88 1.404 . S
C88 C87 1.404 . S
C88 C89 1.391 . S
C89 H83 0.930 . S
C89 C85 1.429 . S
C89 C88 1.391 . S
H90 C93 0.931 . S
H91 C96 0.928 . S
H92 C98 0.930 . S
C93 H90 0.931 . S
C93 C94 1.413 . S
C93 C95 1.360 . S
C94 C93 1.413 . S
C94 C98 1.429 . S
C95 C93 1.360 . S
C95 C96 1.372 . S
C96 H91 0.928 . S
C96 C95 1.372 . S
C96 C97 1.404 . S
C97 C96 1.404 . S
C97 C98 1.391 . S
C98 H92 0.930 . S
C98 C94 1.429 . S
C98 C97 1.391 . S
H99 C102 0.931 . S
H100 C105 0.928 . S
H101 C107 0.930 . S
C102 H99 0.931 . S
C102 C103 1.413 . S
C102 C104 1.360 . S
C103 C102 1.413 . S
C103 C107 1.429 . S
C104 C102 1.360 . S
C104 C105 1.372 . S
C105 H100 0.928 . S
C105 C104 1.372 . S
C105 C106 1.404 . S
C106 C105 1.404 . S
C106 C107 1.391 . S
C107 H101 0.930 . S
C107 C103 1.429 . S
C107 C106 1.391 . S
H108 C111 0.931 . S
H109 C114 0.928 . S
H110 C116 0.930 . S
C111 H108 0.931 . S
C111 C112 1.413 . S
C111 C113 1.360 . S
C112 C111 1.413 . S
C112 C116 1.429 . S
C113 C111 1.360 . S
C113 C114 1.372 . S
C114 H109 0.928 . S
C114 C113 1.372 . S
C114 C115 1.404 . S
C115 C114 1.404 . S
C115 C116 1.391 . S
C116 H110 0.930 . S
C116 C112 1.429 . S
C116 C115 1.391 . S
H117 C120 0.931 . S
H118 C123 0.928 . S
H119 C125 0.930 . S
C120 H117 0.931 . S
C120 C121 1.413 . S
C120 C122 1.360 . S
C121 C120 1.413 . S
C121 C125 1.429 . S
C122 C120 1.360 . S
C122 C123 1.372 . S
C123 H118 0.928 . S
C123 C122 1.372 . S
C123 C124 1.404 . S
C124 C123 1.404 . S
C124 C125 1.391 . S
C125 H119 0.930 . S
C125 C121 1.429 . S
C125 C124 1.391 . S
H126 C129 0.931 . S
H127 C132 0.928 . S
H128 C134 0.930 . S
C129 H126 0.931 . S
C129 C130 1.413 . S
C129 C131 1.360 . S
C130 C129 1.413 . S
C130 C134 1.429 . S
C131 C129 1.360 . S
C131 C132 1.372 . S
C132 H127 0.928 . S
C132 C131 1.372 . S
C132 C133 1.404 . S
C133 C132 1.404 . S
C133 C134 1.391 . S
C134 H128 0.930 . S
C134 C130 1.429 . S
C134 C133 1.391 . S
H135 C138 0.931 . S
H136 C141 0.928 . S
H137 C143 0.930 . S
C138 H135 0.931 . S
C138 C139 1.413 . S
C138 C140 1.360 . S
C139 C138 1.413 . S
C139 C143 1.429 . S
C140 C138 1.360 . S
C140 C141 1.372 . S
C141 H136 0.928 . S
C141 C140 1.372 . S
C141 C142 1.404 . S
C142 C141 1.404 . S
C142 C143 1.391 . S
C143 H137 0.930 . S
C143 C139 1.429 . S
C143 C142 1.391 . S
H144 C147 0.931 . S
H145 C150 0.928 . S
H146 C152 0.930 . S
C147 H144 0.931 . S
C147 C148 1.413 . S
C147 C149 1.360 . S
C148 C147 1.413 . S
C148 C152 1.429 . S
C149 C147 1.360 . S
C149 C150 1.372 . S
C150 H145 0.928 . S
C150 C149 1.372 . S
C150 C151 1.404 . S
C151 C150 1.404 . S
C151 C152 1.391 . S
C152 H146 0.930 . S
C152 C148 1.429 . S
C152 C151 1.391 . S
H153 C156 0.931 . S
H154 C159 0.928 . S
H155 C161 0.930 . S
C156 H153 0.931 . S
C156 C157 1.413 . S
C156 C158 1.360 . S
C157 C156 1.413 . S
C157 C161 1.429 . S
C158 C156 1.360 . S
C158 C159 1.372 . S
C159 H154 0.928 . S
C159 C158 1.372 . S
C159 C160 1.404 . S
C160 C159 1.404 . S
C160 C161 1.391 . S
C161 H155 0.930 . S
C161 C157 1.429 . S
C161 C160 1.391 . S
Tb162 N193 2.660 . S
Tb162 N200 2.600 . S
Tb162 O206 2.546 . S
Tb162 O207 2.610 1_565 S
Tb162 O209 2.320 1_565 S
Tb162 O210 2.552 1_565 S
Tb162 O211 2.413 . S
Tb162 O213 2.362 1_556 S
Tb162 O214 2.421 . S
Tb162 C226 2.833 . S
C163 C166 1.432 . S
C163 C167 1.414 . S
C163 N170 1.359 . S
C164 C166 1.417 . S
C164 C168 1.432 . S
C164 C176 1.410 . S
C165 C167 1.444 . S
C165 C168 1.317 . S
C165 H188 0.929 . S
C166 C163 1.432 . S
C166 C164 1.417 . S
C166 N174 1.360 . S
C167 C163 1.414 . S
C167 C165 1.444 . S
C167 C172 1.385 . S
C168 C164 1.432 . S
C168 C165 1.317 . S
C168 H180 0.930 . S
C169 C171 1.392 . S
C169 C172 1.370 . S
C169 H181 0.931 . S
N170 C163 1.359 . S
N170 C171 1.327 . S
N170 Tb173 2.600 . S
C171 C169 1.392 . S
C171 N170 1.327 . S
C171 H178 0.930 . S
C172 C167 1.385 . S
C172 C169 1.370 . S
C172 H191 0.930 . S
Tb173 N170 2.600 . S
Tb173 N174 2.660 . S
Tb173 O207 2.362 1_554 S
Tb173 O208 2.421 . S
Tb173 O212 2.546 . S
Tb173 O213 2.610 1_545 S
Tb173 O215 2.320 1_545 S
Tb173 O216 2.552 1_545 S
Tb173 O217 2.413 . S
Tb173 C237 2.833 . S
N174 C166 1.360 . S
N174 Tb173 2.660 . S
N174 C175 1.305 . S
C175 N174 1.305 . S
C175 C177 1.407 . S
C175 H182 0.930 . S
C176 C164 1.410 . S
C176 C177 1.345 . S
C176 H184 0.930 . S
C177 C175 1.407 . S
C177 C176 1.345 . S
C177 H179 0.930 . S
H178 C171 0.930 . S
H179 C177 0.930 . S
H180 C168 0.930 . S
H181 C169 0.931 . S
H182 C175 0.930 . S
H183 C197 0.930 . S
H184 C176 0.930 . S
H185 C203 0.930 . S
H186 C194 0.930 . S
H187 C201 0.931 . S
H188 C165 0.929 . S
H189 C195 0.930 . S
H190 C228 0.930 . S
H191 C172 0.930 . S
H192 C227 0.929 . S
N193 Tb162 2.660 . S
N193 C194 1.305 . S
N193 C198 1.360 . S
C194 H186 0.930 . S
C194 N193 1.305 . S
C194 C197 1.407 . S
C195 H189 0.930 . S
C195 C196 1.410 . S
C195 C197 1.345 . S
C196 C195 1.410 . S
C196 C198 1.417 . S
C196 C228 1.432 . S
C197 H183 0.930 . S
C197 C194 1.407 . S
C197 C195 1.345 . S
C198 N193 1.360 . S
C198 C196 1.417 . S
C198 C202 1.432 . S
H199 C204 0.930 . S
N200 Tb162 2.600 . S
N200 C202 1.359 . S
N200 C203 1.327 . S
C201 H187 0.931 . S
C201 C203 1.392 . S
C201 C204 1.370 . S
C202 C198 1.432 . S
C202 N200 1.359 . S
C202 C205 1.414 . S
C203 H185 0.930 . S
C203 N200 1.327 . S
C203 C201 1.392 . S
C204 H199 0.930 . S
C204 C201 1.370 . S
C204 C205 1.385 . S
C205 C202 1.414 . S
C205 C204 1.385 . S
C205 C227 1.444 . S
O206 Tb162 2.546 . S
O206 C226 1.251 . S
O207 Tb162 2.610 1_545 S
O207 Tb173 2.362 1_556 S
O207 C218 1.283 . S
O208 Tb173 2.421 . S
O208 C225 1.262 1_554 S
O209 Tb162 2.320 1_545 S
O209 C225 1.260 . S
O210 Tb162 2.552 1_545 S
O210 C218 1.243 . S
O211 Tb162 2.413 . S
O211 C226 1.256 . S
O212 Tb173 2.546 . S
O212 C237 1.251 . S
O213 Tb162 2.362 1_554 S
O213 Tb173 2.610 1_565 S
O213 C229 1.283 . S
O214 Tb162 2.421 . S
O214 C236 1.262 1_556 S
O215 Tb173 2.320 1_565 S
O215 C236 1.260 . S
O216 Tb173 2.552 1_565 S
O216 C229 1.243 . S
O217 Tb173 2.413 . S
O217 C237 1.256 . S
C218 O207 1.283 . S
C218 O210 1.243 . S
C219 C221 1.382 1_565 S
C219 C223 1.393 . S
C219 C226 1.500 . S
C220 C221 1.400 . S
C220 C222 1.384 1_545 S
C221 C219 1.382 1_545 S
C221 C220 1.400 . S
C221 H238 0.930 . S
C222 C220 1.384 1_565 S
C222 C224 1.392 . S
C222 H239 0.931 . S
C223 C219 1.393 . S
C223 C224 1.401 . S
C223 H240 0.930 . S
C224 C222 1.392 . S
C224 C223 1.401 . S
C224 H241 0.930 . S
C225 O208 1.262 1_556 S
C225 O209 1.260 . S
C226 Tb162 2.833 . S
C226 O206 1.251 . S
C226 O211 1.256 . S
C226 C219 1.500 . S
C227 H192 0.929 . S
C227 C205 1.444 . S
C227 C228 1.317 . S
C228 H190 0.930 . S
C228 C196 1.432 . S
C228 C227 1.317 . S
C229 O213 1.283 . S
C229 O216 1.243 . S
C230 C231 1.382 1_545 S
C230 C234 1.393 . S
C230 C237 1.500 . S
C231 C230 1.382 1_565 S
C231 C232 1.400 . S
C231 H242 0.930 . S
C232 C231 1.400 . S
C232 C233 1.384 1_565 S
C233 C232 1.384 1_545 S
C233 C235 1.392 . S
C233 H243 0.931 . S
C234 C230 1.393 . S
C234 C235 1.401 . S
C234 H244 0.930 . S
C235 C233 1.392 . S
C235 C234 1.401 . S
C235 H245 0.930 . S
C236 O214 1.262 1_554 S
C236 O215 1.260 . S
C237 Tb173 2.833 . S
C237 O212 1.251 . S
C237 O217 1.256 . S
C237 C230 1.500 . S
H238 C221 0.930 . S
H239 C222 0.931 . S
H240 C223 0.930 . S
H241 C224 0.930 . S
H242 C231 0.930 . S
H243 C233 0.931 . S
H244 C234 0.930 . S
H245 C235 0.930 . S
Tb246 N277 2.660 . S
Tb246 N284 2.600 . S
Tb246 O290 2.546 . S
Tb246 O291 2.610 1_455 S
Tb246 O293 2.320 1_455 S
Tb246 O294 2.552 1_455 S
Tb246 O295 2.413 . S
Tb246 O297 2.362 1_556 S
Tb246 O298 2.421 . S
Tb246 C310 2.833 . S
C247 C250 1.432 . S
C247 C251 1.414 . S
C247 N254 1.359 . S
C248 C250 1.417 . S
C248 C252 1.432 . S
C248 C260 1.410 . S
C249 C251 1.444 . S
C249 C252 1.317 . S
C249 H272 0.929 . S
C250 C247 1.432 . S
C250 C248 1.417 . S
C250 N258 1.360 . S
C251 C247 1.414 . S
C251 C249 1.444 . S
C251 C256 1.385 . S
C252 C248 1.432 . S
C252 C249 1.317 . S
C252 H264 0.930 . S
C253 C255 1.392 . S
C253 C256 1.370 . S
C253 H265 0.931 . S
N254 C247 1.359 . S
N254 C255 1.327 . S
N254 Tb257 2.600 . S
C255 C253 1.392 . S
C255 N254 1.327 . S
C255 H262 0.930 . S
C256 C251 1.385 . S
C256 C253 1.370 . S
C256 H275 0.930 . S
Tb257 N254 2.600 . S
Tb257 N258 2.660 . S
Tb257 O291 2.362 1_554 S
Tb257 O292 2.421 . S
Tb257 O296 2.546 . S
Tb257 O297 2.610 1_655 S
Tb257 O299 2.320 1_655 S
Tb257 O300 2.552 1_655 S
Tb257 O301 2.413 . S
Tb257 C321 2.833 . S
N258 C250 1.360 . S
N258 Tb257 2.660 . S
N258 C259 1.305 . S
C259 N258 1.305 . S
C259 C261 1.407 . S
C259 H266 0.930 . S
C260 C248 1.410 . S
C260 C261 1.345 . S
C260 H268 0.930 . S
C261 C259 1.407 . S
C261 C260 1.345 . S
C261 H263 0.930 . S
H262 C255 0.930 . S
H263 C261 0.930 . S
H264 C252 0.930 . S
H265 C253 0.931 . S
H266 C259 0.930 . S
H267 C281 0.930 . S
H268 C260 0.930 . S
H269 C287 0.930 . S
H270 C278 0.930 . S
H271 C285 0.931 . S
H272 C249 0.929 . S
H273 C279 0.930 . S
H274 C312 0.930 . S
H275 C256 0.930 . S
H276 C311 0.929 . S
N277 Tb246 2.660 . S
N277 C278 1.305 . S
N277 C282 1.360 . S
C278 H270 0.930 . S
C278 N277 1.305 . S
C278 C281 1.407 . S
C279 H273 0.930 . S
C279 C280 1.410 . S
C279 C281 1.345 . S
C280 C279 1.410 . S
C280 C282 1.417 . S
C280 C312 1.432 . S
C281 H267 0.930 . S
C281 C278 1.407 . S
C281 C279 1.345 . S
C282 N277 1.360 . S
C282 C280 1.417 . S
C282 C286 1.432 . S
H283 C288 0.930 . S
N284 Tb246 2.600 . S
N284 C286 1.359 . S
N284 C287 1.327 . S
C285 H271 0.931 . S
C285 C287 1.392 . S
C285 C288 1.370 . S
C286 C282 1.432 . S
C286 N284 1.359 . S
C286 C289 1.414 . S
C287 H269 0.930 . S
C287 N284 1.327 . S
C287 C285 1.392 . S
C288 H283 0.930 . S
C288 C285 1.370 . S
C288 C289 1.385 . S
C289 C286 1.414 . S
C289 C288 1.385 . S
C289 C311 1.444 . S
O290 Tb246 2.546 . S
O290 C310 1.251 . S
O291 Tb246 2.610 1_655 S
O291 Tb257 2.362 1_556 S
O291 C302 1.283 . S
O292 Tb257 2.421 . S
O292 C309 1.262 1_554 S
O293 Tb246 2.320 1_655 S
O293 C309 1.260 . S
O294 Tb246 2.552 1_655 S
O294 C302 1.243 . S
O295 Tb246 2.413 . S
O295 C310 1.256 . S
O296 Tb257 2.546 . S
O296 C321 1.251 . S
O297 Tb246 2.362 1_554 S
O297 Tb257 2.610 1_455 S
O297 C313 1.283 . S
O298 Tb246 2.421 . S
O298 C320 1.262 1_556 S
O299 Tb257 2.320 1_455 S
O299 C320 1.260 . S
O300 Tb257 2.552 1_455 S
O300 C313 1.243 . S
O301 Tb257 2.413 . S
O301 C321 1.256 . S
C302 O291 1.283 . S
C302 O294 1.243 . S
C303 C305 1.382 1_455 S
C303 C307 1.393 . S
C303 C310 1.500 . S
C304 C305 1.400 . S
C304 C306 1.384 1_655 S
C305 C303 1.382 1_655 S
C305 C304 1.400 . S
C305 H322 0.930 . S
C306 C304 1.384 1_455 S
C306 C308 1.392 . S
C306 H323 0.931 . S
C307 C303 1.393 . S
C307 C308 1.401 . S
C307 H324 0.930 . S
C308 C306 1.392 . S
C308 C307 1.401 . S
C308 H325 0.930 . S
C309 O292 1.262 1_556 S
C309 O293 1.260 . S
C310 Tb246 2.833 . S
C310 O290 1.251 . S
C310 O295 1.256 . S
C310 C303 1.500 . S
C311 H276 0.929 . S
C311 C289 1.444 . S
C311 C312 1.317 . S
C312 H274 0.930 . S
C312 C280 1.432 . S
C312 C311 1.317 . S
C313 O297 1.283 . S
C313 O300 1.243 . S
C314 C315 1.382 1_655 S
C314 C318 1.393 . S
C314 C321 1.500 . S
C315 C314 1.382 1_455 S
C315 C316 1.400 . S
C315 H326 0.930 . S
C316 C315 1.400 . S
C316 C317 1.384 1_455 S
C317 C316 1.384 1_655 S
C317 C319 1.392 . S
C317 H327 0.931 . S
C318 C314 1.393 . S
C318 C319 1.401 . S
C318 H328 0.930 . S
C319 C317 1.392 . S
C319 C318 1.401 . S
C319 H329 0.930 . S
C320 O298 1.262 1_554 S
C320 O299 1.260 . S
C321 Tb257 2.833 . S
C321 O296 1.251 . S
C321 O301 1.256 . S
C321 C314 1.500 . S
H322 C305 0.930 . S
H323 C306 0.931 . S
H324 C307 0.930 . S
H325 C308 0.930 . S
H326 C315 0.930 . S
H327 C317 0.931 . S
H328 C318 0.930 . S
H329 C319 0.930 . S
Tb330 N361 2.660 . S
Tb330 N368 2.600 . S
Tb330 O374 2.546 . S
Tb330 O375 2.610 . S
Tb330 O377 2.320 . S
Tb330 O378 2.552 . S
Tb330 O379 2.413 . S
Tb330 O381 2.362 1_554 S
Tb330 O382 2.421 . S
Tb330 C394 2.833 . S
C331 C334 1.432 . S
C331 C335 1.414 . S
C331 N338 1.359 . S
C332 C334 1.417 . S
C332 C336 1.432 . S
C332 C344 1.410 . S
C333 C335 1.444 . S
C333 C336 1.317 . S
C333 H356 0.929 . S
C334 C331 1.432 . S
C334 C332 1.417 . S
C334 N342 1.360 . S
C335 C331 1.414 . S
C335 C333 1.444 . S
C335 C340 1.385 . S
C336 C332 1.432 . S
C336 C333 1.317 . S
C336 H348 0.930 . S
C337 C339 1.392 . S
C337 C340 1.370 . S
C337 H349 0.931 . S
N338 C331 1.359 . S
N338 C339 1.327 . S
N338 Tb341 2.600 . S
C339 C337 1.392 . S
C339 N338 1.327 . S
C339 H346 0.930 . S
C340 C335 1.385 . S
C340 C337 1.370 . S
C340 H359 0.930 . S
Tb341 N338 2.600 . S
Tb341 N342 2.660 . S
Tb341 O375 2.362 1_556 S
Tb341 O376 2.421 . S
Tb341 O380 2.546 . S
Tb341 O381 2.610 . S
Tb341 O383 2.320 . S
Tb341 O384 2.552 . S
Tb341 O385 2.413 . S
Tb341 C405 2.833 . S
N342 C334 1.360 . S
N342 Tb341 2.660 . S
N342 C343 1.305 . S
C343 N342 1.305 . S
C343 C345 1.407 . S
C343 H350 0.930 . S
C344 C332 1.410 . S
C344 C345 1.345 . S
C344 H352 0.930 . S
C345 C343 1.407 . S
C345 C344 1.345 . S
C345 H347 0.930 . S
H346 C339 0.930 . S
H347 C345 0.930 . S
H348 C336 0.930 . S
H349 C337 0.931 . S
H350 C343 0.930 . S
H351 C365 0.930 . S
H352 C344 0.930 . S
H353 C371 0.930 . S
H354 C362 0.930 . S
H355 C369 0.931 . S
H356 C333 0.929 . S
H357 C363 0.930 . S
H358 C396 0.930 . S
H359 C340 0.930 . S
H360 C395 0.929 . S
N361 Tb330 2.660 . S
N361 C362 1.305 . S
N361 C366 1.360 . S
C362 H354 0.930 . S
C362 N361 1.305 . S
C362 C365 1.407 . S
C363 H357 0.930 . S
C363 C364 1.410 . S
C363 C365 1.345 . S
C364 C363 1.410 . S
C364 C366 1.417 . S
C364 C396 1.432 . S
C365 H351 0.930 . S
C365 C362 1.407 . S
C365 C363 1.345 . S
C366 N361 1.360 . S
C366 C364 1.417 . S
C366 C370 1.432 . S
H367 C372 0.930 . S
N368 Tb330 2.600 . S
N368 C370 1.359 . S
N368 C371 1.327 . S
C369 H355 0.931 . S
C369 C371 1.392 . S
C369 C372 1.370 . S
C370 C366 1.432 . S
C370 N368 1.359 . S
C370 C373 1.414 . S
C371 H353 0.930 . S
C371 N368 1.327 . S
C371 C369 1.392 . S
C372 H367 0.930 . S
C372 C369 1.370 . S
C372 C373 1.385 . S
C373 C370 1.414 . S
C373 C372 1.385 . S
C373 C395 1.444 . S
O374 Tb330 2.546 . S
O374 C394 1.251 . S
O375 Tb330 2.610 . S
O375 Tb341 2.362 1_554 S
O375 C386 1.283 . S
O376 Tb341 2.421 . S
O376 C393 1.262 1_556 S
O377 Tb330 2.320 . S
O377 C393 1.260 . S
O378 Tb330 2.552 . S
O378 C386 1.243 . S
O379 Tb330 2.413 . S
O379 C394 1.256 . S
O380 Tb341 2.546 . S
O380 C405 1.251 . S
O381 Tb330 2.362 1_556 S
O381 Tb341 2.610 . S
O381 C397 1.283 . S
O382 Tb330 2.421 . S
O382 C404 1.262 1_554 S
O383 Tb341 2.320 . S
O383 C404 1.260 . S
O384 Tb341 2.552 . S
O384 C397 1.243 . S
O385 Tb341 2.413 . S
O385 C405 1.256 . S
C386 O375 1.283 . S
C386 O378 1.243 . S
C387 C389 1.382 . S
C387 C391 1.393 . S
C387 C394 1.500 . S
C388 C389 1.400 . S
C388 C390 1.384 . S
C389 C387 1.382 . S
C389 C388 1.400 . S
C389 H406 0.930 . S
C390 C388 1.384 . S
C390 C392 1.392 . S
C390 H407 0.931 . S
C391 C387 1.393 . S
C391 C392 1.401 . S
C391 H408 0.930 . S
C392 C390 1.392 . S
C392 C391 1.401 . S
C392 H409 0.930 . S
C393 O376 1.262 1_554 S
C393 O377 1.260 . S
C394 Tb330 2.833 . S
C394 O374 1.251 . S
C394 O379 1.256 . S
C394 C387 1.500 . S
C395 H360 0.929 . S
C395 C373 1.444 . S
C395 C396 1.317 . S
C396 H358 0.930 . S
C396 C364 1.432 . S
C396 C395 1.317 . S
C397 O381 1.283 . S
C397 O384 1.243 . S
C398 C399 1.382 . S
C398 C402 1.393 . S
C398 C405 1.500 . S
C399 C398 1.382 . S
C399 C400 1.400 . S
C399 H410 0.930 . S
C400 C399 1.400 . S
C400 C401 1.384 . S
C401 C400 1.384 . S
C401 C403 1.392 . S
C401 H411 0.931 . S
C402 C398 1.393 . S
C402 C403 1.401 . S
C402 H412 0.930 . S
C403 C401 1.392 . S
C403 C402 1.401 . S
C403 H413 0.930 . S
C404 O382 1.262 1_556 S
C404 O383 1.260 . S
C405 Tb341 2.833 . S
C405 O380 1.251 . S
C405 O385 1.256 . S
C405 C398 1.500 . S
H406 C389 0.930 . S
H407 C390 0.931 . S
H408 C391 0.930 . S
H409 C392 0.930 . S
H410 C399 0.930 . S
H411 C401 0.931 . S
H412 C402 0.930 . S
H413 C403 0.930 . S
Tb414 N445 2.660 . S
Tb414 N452 2.600 . S
Tb414 O458 2.546 . S
Tb414 O459 2.610 . S
Tb414 O461 2.320 . S
Tb414 O462 2.552 . S
Tb414 O463 2.413 . S
Tb414 O465 2.362 . S
Tb414 O466 2.421 . S
Tb414 C478 2.833 . S
C415 C418 1.432 . S
C415 C419 1.414 . S
C415 N422 1.359 . S
C416 C418 1.417 . S
C416 C420 1.432 . S
C416 C428 1.410 . S
C417 C419 1.444 . S
C417 C420 1.317 . S
C417 H440 0.929 . S
C418 C415 1.432 . S
C418 C416 1.417 . S
C418 N426 1.360 . S
C419 C415 1.414 . S
C419 C417 1.444 . S
C419 C424 1.385 . S
C420 C416 1.432 . S
C420 C417 1.317 . S
C420 H432 0.930 . S
C421 C423 1.392 . S
C421 C424 1.370 . S
C421 H433 0.931 . S
N422 C415 1.359 . S
N422 C423 1.327 . S
N422 Tb425 2.600 . S
C423 C421 1.392 . S
C423 N422 1.327 . S
C423 H430 0.930 . S
C424 C419 1.385 . S
C424 C421 1.370 . S
C424 H443 0.930 . S
Tb425 N422 2.600 . S
Tb425 N426 2.660 . S
Tb425 O459 2.362 . S
Tb425 O460 2.421 . S
Tb425 O464 2.546 . S
Tb425 O465 2.610 . S
Tb425 O467 2.320 . S
Tb425 O468 2.552 . S
Tb425 O469 2.413 . S
Tb425 C489 2.833 . S
N426 C418 1.360 . S
N426 Tb425 2.660 . S
N426 C427 1.305 . S
C427 N426 1.305 . S
C427 C429 1.407 . S
C427 H434 0.930 . S
C428 C416 1.410 . S
C428 C429 1.345 . S
C428 H436 0.930 . S
C429 C427 1.407 . S
C429 C428 1.345 . S
C429 H431 0.930 . S
H430 C423 0.930 . S
H431 C429 0.930 . S
H432 C420 0.930 . S
H433 C421 0.931 . S
H434 C427 0.930 . S
H435 C449 0.930 . S
H436 C428 0.930 . S
H437 C455 0.930 . S
H438 C446 0.930 . S
H439 C453 0.931 . S
H440 C417 0.929 . S
H441 C447 0.930 . S
H442 C480 0.930 . S
H443 C424 0.930 . S
H444 C479 0.929 . S
N445 Tb414 2.660 . S
N445 C446 1.305 . S
N445 C450 1.360 . S
C446 H438 0.930 . S
C446 N445 1.305 . S
C446 C449 1.407 1_455 S
C447 H441 0.930 . S
C447 C448 1.410 . S
C447 C449 1.345 . S
C448 C447 1.410 . S
C448 C450 1.417 1_655 S
C448 C480 1.432 . S
C449 H435 0.930 . S
C449 C446 1.407 1_655 S
C449 C447 1.345 . S
C450 N445 1.360 . S
C450 C448 1.417 1_455 S
C450 C454 1.432 . S
H451 C456 0.930 . S
N452 Tb414 2.600 . S
N452 C454 1.359 . S
N452 C455 1.327 . S
C453 H439 0.931 . S
C453 C455 1.392 . S
C453 C456 1.370 . S
C454 C450 1.432 . S
C454 N452 1.359 . S
C454 C457 1.414 . S
C455 H437 0.930 . S
C455 N452 1.327 . S
C455 C453 1.392 . S
C456 H451 0.930 . S
C456 C453 1.370 . S
C456 C457 1.385 . S
C457 C454 1.414 . S
C457 C456 1.385 . S
C457 C479 1.444 1_455 S
O458 Tb414 2.546 . S
O458 C478 1.251 . S
O459 Tb414 2.610 . S
O459 Tb425 2.362 . S
O459 C470 1.283 . S
O460 Tb425 2.421 . S
O460 C477 1.262 . S
O461 Tb414 2.320 . S
O461 C477 1.260 . S
O462 Tb414 2.552 . S
O462 C470 1.243 . S
O463 Tb414 2.413 . S
O463 C478 1.256 . S
O464 Tb425 2.546 . S
O464 C489 1.251 . S
O465 Tb414 2.362 . S
O465 Tb425 2.610 . S
O465 C481 1.283 . S
O466 Tb414 2.421 . S
O466 C488 1.262 . S
O467 Tb425 2.320 . S
O467 C488 1.260 . S
O468 Tb425 2.552 . S
O468 C481 1.243 . S
O469 Tb425 2.413 . S
O469 C489 1.256 . S
C470 O459 1.283 . S
C470 O462 1.243 . S
C471 C473 1.382 . S
C471 C475 1.393 . S
C471 C478 1.500 . S
C472 C473 1.400 . S
C472 C474 1.384 . S
C473 C471 1.382 . S
C473 C472 1.400 . S
C473 H490 0.930 . S
C474 C472 1.384 . S
C474 C476 1.392 . S
C474 H491 0.931 . S
C475 C471 1.393 . S
C475 C476 1.401 . S
C475 H492 0.930 . S
C476 C474 1.392 . S
C476 C475 1.401 . S
C476 H493 0.930 . S
C477 O460 1.262 . S
C477 O461 1.260 . S
C478 Tb414 2.833 . S
C478 O458 1.251 . S
C478 O463 1.256 . S
C478 C471 1.500 . S
C479 H444 0.929 . S
C479 C457 1.444 1_655 S
C479 C480 1.317 . S
C480 H442 0.930 . S
C480 C448 1.432 . S
C480 C479 1.317 . S
C481 O465 1.283 . S
C481 O468 1.243 . S
C482 C483 1.382 . S
C482 C486 1.393 . S
C482 C489 1.500 . S
C483 C482 1.382 . S
C483 C484 1.400 . S
C483 H494 0.930 . S
C484 C483 1.400 . S
C484 C485 1.384 . S
C485 C484 1.384 . S
C485 C487 1.392 . S
C485 H495 0.931 . S
C486 C482 1.393 . S
C486 C487 1.401 . S
C486 H496 0.930 . S
C487 C485 1.392 . S
C487 C486 1.401 . S
C487 H497 0.930 . S
C488 O466 1.262 . S
C488 O467 1.260 . S
C489 Tb425 2.833 . S
C489 O464 1.251 . S
C489 O469 1.256 . S
C489 C482 1.500 . S
H490 C473 0.930 . S
H491 C474 0.931 . S
H492 C475 0.930 . S
H493 C476 0.930 . S
H494 C483 0.930 . S
H495 C485 0.931 . S
H496 C486 0.930 . S
H497 C487 0.930 . S
Tb498 N529 2.660 . S
Tb498 N536 2.600 . S
Tb498 O542 2.546 . S
Tb498 O543 2.610 . S
Tb498 O545 2.320 . S
Tb498 O546 2.552 . S
Tb498 O547 2.413 . S
Tb498 O549 2.362 . S
Tb498 O550 2.421 . S
Tb498 C562 2.833 . S
C499 C502 1.432 . S
C499 C503 1.414 . S
C499 N506 1.359 . S
C500 C502 1.417 . S
C500 C504 1.432 . S
C500 C512 1.410 . S
C501 C503 1.444 . S
C501 C504 1.317 . S
C501 H524 0.929 . S
C502 C499 1.432 . S
C502 C500 1.417 . S
C502 N510 1.360 . S
C503 C499 1.414 . S
C503 C501 1.444 . S
C503 C508 1.385 . S
C504 C500 1.432 . S
C504 C501 1.317 . S
C504 H516 0.930 . S
C505 C507 1.392 . S
C505 C508 1.370 . S
C505 H517 0.931 . S
N506 C499 1.359 . S
N506 C507 1.327 . S
N506 Tb509 2.600 . S
C507 C505 1.392 . S
C507 N506 1.327 . S
C507 H514 0.930 . S
C508 C503 1.385 . S
C508 C505 1.370 . S
C508 H527 0.930 . S
Tb509 N506 2.600 . S
Tb509 N510 2.660 . S
Tb509 O543 2.362 . S
Tb509 O544 2.421 . S
Tb509 O548 2.546 . S
Tb509 O549 2.610 . S
Tb509 O551 2.320 . S
Tb509 O552 2.552 . S
Tb509 O553 2.413 . S
Tb509 C573 2.833 . S
N510 C502 1.360 . S
N510 Tb509 2.660 . S
N510 C511 1.305 . S
C511 N510 1.305 . S
C511 C513 1.407 . S
C511 H518 0.930 . S
C512 C500 1.410 . S
C512 C513 1.345 . S
C512 H520 0.930 . S
C513 C511 1.407 . S
C513 C512 1.345 . S
C513 H515 0.930 . S
H514 C507 0.930 . S
H515 C513 0.930 . S
H516 C504 0.930 . S
H517 C505 0.931 . S
H518 C511 0.930 . S
H519 C533 0.930 . S
H520 C512 0.930 . S
H521 C539 0.930 . S
H522 C530 0.930 . S
H523 C537 0.931 . S
H524 C501 0.929 . S
H525 C531 0.930 . S
H526 C564 0.930 . S
H527 C508 0.930 . S
H528 C563 0.929 . S
N529 Tb498 2.660 . S
N529 C530 1.305 . S
N529 C534 1.360 . S
C530 H522 0.930 . S
C530 N529 1.305 . S
C530 C533 1.407 . S
C531 H525 0.930 . S
C531 C532 1.410 . S
C531 C533 1.345 . S
C532 C531 1.410 . S
C532 C534 1.417 . S
C532 C564 1.432 . S
C533 H519 0.930 . S
C533 C530 1.407 . S
C533 C531 1.345 . S
C534 N529 1.360 . S
C534 C532 1.417 . S
C534 C538 1.432 . S
H535 C540 0.930 . S
N536 Tb498 2.600 . S
N536 C538 1.359 . S
N536 C539 1.327 . S
C537 H523 0.931 . S
C537 C539 1.392 . S
C537 C540 1.370 . S
C538 C534 1.432 . S
C538 N536 1.359 . S
C538 C541 1.414 . S
C539 H521 0.930 . S
C539 N536 1.327 . S
C539 C537 1.392 . S
C540 H535 0.930 . S
C540 C537 1.370 . S
C540 C541 1.385 . S
C541 C538 1.414 . S
C541 C540 1.385 . S
C541 C563 1.444 . S
O542 Tb498 2.546 . S
O542 C562 1.251 . S
O543 Tb498 2.610 . S
O543 Tb509 2.362 . S
O543 C554 1.283 . S
O544 Tb509 2.421 . S
O544 C561 1.262 . S
O545 Tb498 2.320 . S
O545 C561 1.260 . S
O546 Tb498 2.552 . S
O546 C554 1.243 . S
O547 Tb498 2.413 . S
O547 C562 1.256 . S
O548 Tb509 2.546 . S
O548 C573 1.251 . S
O549 Tb498 2.362 . S
O549 Tb509 2.610 . S
O549 C565 1.283 . S
O550 Tb498 2.421 . S
O550 C572 1.262 . S
O551 Tb509 2.320 . S
O551 C572 1.260 . S
O552 Tb509 2.552 . S
O552 C565 1.243 . S
O553 Tb509 2.413 . S
O553 C573 1.256 . S
C554 O543 1.283 . S
C554 O546 1.243 . S
C555 C557 1.382 . S
C555 C559 1.393 . S
C555 C562 1.500 . S
C556 C557 1.400 . S
C556 C558 1.384 . S
C557 C555 1.382 . S
C557 C556 1.400 . S
C557 H574 0.930 . S
C558 C556 1.384 . S
C558 C560 1.392 . S
C558 H575 0.931 . S
C559 C555 1.393 . S
C559 C560 1.401 . S
C559 H576 0.930 . S
C560 C558 1.392 . S
C560 C559 1.401 . S
C560 H577 0.930 . S
C561 O544 1.262 . S
C561 O545 1.260 . S
C562 Tb498 2.833 . S
C562 O542 1.251 . S
C562 O547 1.256 . S
C562 C555 1.500 . S
C563 H528 0.929 . S
C563 C541 1.444 . S
C563 C564 1.317 . S
C564 H526 0.930 . S
C564 C532 1.432 . S
C564 C563 1.317 . S
C565 O549 1.283 . S
C565 O552 1.243 . S
C566 C567 1.382 . S
C566 C570 1.393 . S
C566 C573 1.500 . S
C567 C566 1.382 . S
C567 C568 1.400 . S
C567 H578 0.930 . S
C568 C567 1.400 . S
C568 C569 1.384 . S
C569 C568 1.384 . S
C569 C571 1.392 . S
C569 H579 0.931 . S
C570 C566 1.393 . S
C570 C571 1.401 . S
C570 H580 0.930 . S
C571 C569 1.392 . S
C571 C570 1.401 . S
C571 H581 0.930 . S
C572 O550 1.262 . S
C572 O551 1.260 . S
C573 Tb509 2.833 . S
C573 O548 1.251 . S
C573 O553 1.256 . S
C573 C566 1.500 . S
H574 C557 0.930 . S
H575 C558 0.931 . S
H576 C559 0.930 . S
H577 C560 0.930 . S
H578 C567 0.930 . S
H579 C569 0.931 . S
H580 C570 0.930 . S
H581 C571 0.930 . S
Tb582 N613 2.660 . S
Tb582 N620 2.600 . S
Tb582 O626 2.546 . S
Tb582 O627 2.610 . S
Tb582 O629 2.320 . S
Tb582 O630 2.552 . S
Tb582 O631 2.413 . S
Tb582 O633 2.362 . S
Tb582 O634 2.421 . S
Tb582 C646 2.833 . S
C583 C586 1.432 . S
C583 C587 1.414 . S
C583 N590 1.359 . S
C584 C586 1.417 1_655 S
C584 C588 1.432 . S
C584 C596 1.410 . S
C585 C587 1.444 1_655 S
C585 C588 1.317 . S
C585 H608 0.929 . S
C586 C583 1.432 . S
C586 C584 1.417 1_455 S
C586 N594 1.360 . S
C587 C583 1.414 . S
C587 C585 1.444 1_455 S
C587 C592 1.385 . S
C588 C584 1.432 . S
C588 C585 1.317 . S
C588 H600 0.930 . S
C589 C591 1.392 . S
C589 C592 1.370 . S
C589 H601 0.931 . S
N590 C583 1.359 . S
N590 C591 1.327 . S
N590 Tb593 2.600 . S
C591 C589 1.392 . S
C591 N590 1.327 . S
C591 H598 0.930 . S
C592 C587 1.385 . S
C592 C589 1.370 . S
C592 H611 0.930 . S
Tb593 N590 2.600 . S
Tb593 N594 2.660 . S
Tb593 O627 2.362 . S
Tb593 O628 2.421 . S
Tb593 O632 2.546 . S
Tb593 O633 2.610 . S
Tb593 O635 2.320 . S
Tb593 O636 2.552 . S
Tb593 O637 2.413 . S
Tb593 C657 2.833 . S
N594 C586 1.360 . S
N594 Tb593 2.660 . S
N594 C595 1.305 . S
C595 N594 1.305 . S
C595 C597 1.407 1_455 S
C595 H602 0.930 . S
C596 C584 1.410 . S
C596 C597 1.345 . S
C596 H604 0.930 . S
C597 C595 1.407 1_655 S
C597 C596 1.345 . S
C597 H599 0.930 . S
H598 C591 0.930 . S
H599 C597 0.930 . S
H600 C588 0.930 . S
H601 C589 0.931 . S
H602 C595 0.930 . S
H603 C617 0.930 . S
H604 C596 0.930 . S
H605 C623 0.930 . S
H606 C614 0.930 . S
H607 C621 0.931 . S
H608 C585 0.929 . S
H609 C615 0.930 . S
H610 C648 0.930 . S
H611 C592 0.930 . S
H612 C647 0.929 . S
N613 Tb582 2.660 . S
N613 C614 1.305 . S
N613 C618 1.360 . S
C614 H606 0.930 . S
C614 N613 1.305 . S
C614 C617 1.407 . S
C615 H609 0.930 . S
C615 C616 1.410 . S
C615 C617 1.345 . S
C616 C615 1.410 . S
C616 C618 1.417 . S
C616 C648 1.432 . S
C617 H603 0.930 . S
C617 C614 1.407 . S
C617 C615 1.345 . S
C618 N613 1.360 . S
C618 C616 1.417 . S
C618 C622 1.432 . S
H619 C624 0.930 . S
N620 Tb582 2.600 . S
N620 C622 1.359 . S
N620 C623 1.327 . S
C621 H607 0.931 . S
C621 C623 1.392 . S
C621 C624 1.370 . S
C622 C618 1.432 . S
C622 N620 1.359 . S
C622 C625 1.414 . S
C623 H605 0.930 . S
C623 N620 1.327 . S
C623 C621 1.392 . S
C624 H619 0.930 . S
C624 C621 1.370 . S
C624 C625 1.385 . S
C625 C622 1.414 . S
C625 C624 1.385 . S
C625 C647 1.444 . S
O626 Tb582 2.546 . S
O626 C646 1.251 . S
O627 Tb582 2.610 . S
O627 Tb593 2.362 . S
O627 C638 1.283 . S
O628 Tb593 2.421 . S
O628 C645 1.262 . S
O629 Tb582 2.320 . S
O629 C645 1.260 . S
O630 Tb582 2.552 . S
O630 C638 1.243 . S
O631 Tb582 2.413 . S
O631 C646 1.256 . S
O632 Tb593 2.546 . S
O632 C657 1.251 . S
O633 Tb582 2.362 . S
O633 Tb593 2.610 . S
O633 C649 1.283 . S
O634 Tb582 2.421 . S
O634 C656 1.262 . S
O635 Tb593 2.320 . S
O635 C656 1.260 . S
O636 Tb593 2.552 . S
O636 C649 1.243 . S
O637 Tb593 2.413 . S
O637 C657 1.256 . S
C638 O627 1.283 . S
C638 O630 1.243 . S
C639 C641 1.382 . S
C639 C643 1.393 . S
C639 C646 1.500 . S
C640 C641 1.400 . S
C640 C642 1.384 . S
C641 C639 1.382 . S
C641 C640 1.400 . S
C641 H658 0.930 . S
C642 C640 1.384 . S
C642 C644 1.392 . S
C642 H659 0.931 . S
C643 C639 1.393 . S
C643 C644 1.401 . S
C643 H660 0.930 . S
C644 C642 1.392 . S
C644 C643 1.401 . S
C644 H661 0.930 . S
C645 O628 1.262 . S
C645 O629 1.260 . S
C646 Tb582 2.833 . S
C646 O626 1.251 . S
C646 O631 1.256 . S
C646 C639 1.500 . S
C647 H612 0.929 . S
C647 C625 1.444 . S
C647 C648 1.317 . S
C648 H610 0.930 . S
C648 C616 1.432 . S
C648 C647 1.317 . S
C649 O633 1.283 . S
C649 O636 1.243 . S
C650 C651 1.382 . S
C650 C654 1.393 . S
C650 C657 1.500 . S
C651 C650 1.382 . S
C651 C652 1.400 . S
C651 H662 0.930 . S
C652 C651 1.400 . S
C652 C653 1.384 . S
C653 C652 1.384 . S
C653 C655 1.392 . S
C653 H663 0.931 . S
C654 C650 1.393 . S
C654 C655 1.401 . S
C654 H664 0.930 . S
C655 C653 1.392 . S
C655 C654 1.401 . S
C655 H665 0.930 . S
C656 O634 1.262 . S
C656 O635 1.260 . S
C657 Tb593 2.833 . S
C657 O632 1.251 . S
C657 O637 1.256 . S
C657 C650 1.500 . S
H658 C641 0.930 . S
H659 C642 0.931 . S
H660 C643 0.930 . S
H661 C644 0.930 . S
H662 C651 0.930 . S
H663 C653 0.931 . S
H664 C654 0.930 . S
H665 C655 0.930 . S
Tb666 N697 2.660 . S
Tb666 N704 2.600 . S
Tb666 O710 2.546 . S
Tb666 O711 2.610 . S
Tb666 O713 2.320 . S
Tb666 O714 2.552 . S
Tb666 O715 2.413 . S
Tb666 O717 2.362 . S
Tb666 O718 2.421 . S
Tb666 C730 2.833 . S
C667 C670 1.432 . S
C667 C671 1.414 . S
C667 N674 1.359 . S
C668 C670 1.417 1_455 S
C668 C672 1.432 . S
C668 C680 1.410 . S
C669 C671 1.444 1_455 S
C669 C672 1.317 . S
C669 H692 0.929 . S
C670 C667 1.432 . S
C670 C668 1.417 1_655 S
C670 N678 1.360 . S
C671 C667 1.414 . S
C671 C669 1.444 1_655 S
C671 C676 1.385 . S
C672 C668 1.432 . S
C672 C669 1.317 . S
C672 H684 0.930 . S
C673 C675 1.392 . S
C673 C676 1.370 . S
C673 H685 0.931 . S
N674 C667 1.359 . S
N674 C675 1.327 . S
N674 Tb677 2.600 . S
C675 C673 1.392 . S
C675 N674 1.327 . S
C675 H682 0.930 . S
C676 C671 1.385 . S
C676 C673 1.370 . S
C676 H695 0.930 . S
Tb677 N674 2.600 . S
Tb677 N678 2.660 . S
Tb677 O711 2.362 . S
Tb677 O712 2.421 . S
Tb677 O716 2.546 . S
Tb677 O717 2.610 . S
Tb677 O719 2.320 . S
Tb677 O720 2.552 . S
Tb677 O721 2.413 . S
Tb677 C741 2.833 . S
N678 C670 1.360 . S
N678 Tb677 2.660 . S
N678 C679 1.305 . S
C679 N678 1.305 . S
C679 C681 1.407 1_655 S
C679 H686 0.930 . S
C680 C668 1.410 . S
C680 C681 1.345 . S
C680 H688 0.930 . S
C681 C679 1.407 1_455 S
C681 C680 1.345 . S
C681 H683 0.930 . S
H682 C675 0.930 . S
H683 C681 0.930 . S
H684 C672 0.930 . S
H685 C673 0.931 . S
H686 C679 0.930 . S
H687 C701 0.930 . S
H688 C680 0.930 . S
H689 C707 0.930 . S
H690 C698 0.930 . S
H691 C705 0.931 . S
H692 C669 0.929 . S
H693 C699 0.930 . S
H694 C732 0.930 . S
H695 C676 0.930 . S
H696 C731 0.929 . S
N697 Tb666 2.660 . S
N697 C698 1.305 . S
N697 C702 1.360 . S
C698 H690 0.930 . S
C698 N697 1.305 . S
C698 C701 1.407 . S
C699 H693 0.930 . S
C699 C700 1.410 . S
C699 C701 1.345 . S
C700 C699 1.410 . S
C700 C702 1.417 . S
C700 C732 1.432 . S
C701 H687 0.930 . S
C701 C698 1.407 . S
C701 C699 1.345 . S
C702 N697 1.360 . S
C702 C700 1.417 . S
C702 C706 1.432 . S
H703 C708 0.930 . S
N704 Tb666 2.600 . S
N704 C706 1.359 . S
N704 C707 1.327 . S
C705 H691 0.931 . S
C705 C707 1.392 . S
C705 C708 1.370 . S
C706 C702 1.432 . S
C706 N704 1.359 . S
C706 C709 1.414 . S
C707 H689 0.930 . S
C707 N704 1.327 . S
C707 C705 1.392 . S
C708 H703 0.930 . S
C708 C705 1.370 . S
C708 C709 1.385 . S
C709 C706 1.414 . S
C709 C708 1.385 . S
C709 C731 1.444 . S
O710 Tb666 2.546 . S
O710 C730 1.251 . S
O711 Tb666 2.610 . S
O711 Tb677 2.362 . S
O711 C722 1.283 . S
O712 Tb677 2.421 . S
O712 C729 1.262 . S
O713 Tb666 2.320 . S
O713 C729 1.260 . S
O714 Tb666 2.552 . S
O714 C722 1.243 . S
O715 Tb666 2.413 . S
O715 C730 1.256 . S
O716 Tb677 2.546 . S
O716 C741 1.251 . S
O717 Tb666 2.362 . S
O717 Tb677 2.610 . S
O717 C733 1.283 . S
O718 Tb666 2.421 . S
O718 C740 1.262 . S
O719 Tb677 2.320 . S
O719 C740 1.260 . S
O720 Tb677 2.552 . S
O720 C733 1.243 . S
O721 Tb677 2.413 . S
O721 C741 1.256 . S
C722 O711 1.283 . S
C722 O714 1.243 . S
C723 C725 1.382 . S
C723 C727 1.393 . S
C723 C730 1.500 . S
C724 C725 1.400 . S
C724 C726 1.384 . S
C725 C723 1.382 . S
C725 C724 1.400 . S
C725 H742 0.930 . S
C726 C724 1.384 . S
C726 C728 1.392 . S
C726 H743 0.931 . S
C727 C723 1.393 . S
C727 C728 1.401 . S
C727 H744 0.930 . S
C728 C726 1.392 . S
C728 C727 1.401 . S
C728 H745 0.930 . S
C729 O712 1.262 . S
C729 O713 1.260 . S
C730 Tb666 2.833 . S
C730 O710 1.251 . S
C730 O715 1.256 . S
C730 C723 1.500 . S
C731 H696 0.929 . S
C731 C709 1.444 . S
C731 C732 1.317 . S
C732 H694 0.930 . S
C732 C700 1.432 . S
C732 C731 1.317 . S
C733 O717 1.283 . S
C733 O720 1.243 . S
C734 C735 1.382 . S
C734 C738 1.393 . S
C734 C741 1.500 . S
C735 C734 1.382 . S
C735 C736 1.400 . S
C735 H746 0.930 . S
C736 C735 1.400 . S
C736 C737 1.384 . S
C737 C736 1.384 . S
C737 C739 1.392 . S
C737 H747 0.931 . S
C738 C734 1.393 . S
C738 C739 1.401 . S
C738 H748 0.930 . S
C739 C737 1.392 . S
C739 C738 1.401 . S
C739 H749 0.930 . S
C740 O718 1.262 . S
C740 O719 1.260 . S
C741 Tb677 2.833 . S
C741 O716 1.251 . S
C741 O721 1.256 . S
C741 C734 1.500 . S
H742 C725 0.930 . S
H743 C726 0.931 . S
H744 C727 0.930 . S
H745 C728 0.930 . S
H746 C735 0.930 . S
H747 C737 0.931 . S
H748 C738 0.930 . S
H749 C739 0.930 . S
Tb750 N781 2.660 . S
Tb750 N788 2.600 . S
Tb750 O794 2.546 . S
Tb750 O795 2.610 . S
Tb750 O797 2.320 . S
Tb750 O798 2.552 . S
Tb750 O799 2.413 . S
Tb750 O801 2.362 . S
Tb750 O802 2.421 . S
Tb750 C814 2.833 . S
C751 C754 1.432 . S
C751 C755 1.414 . S
C751 N758 1.359 . S
C752 C754 1.417 . S
C752 C756 1.432 . S
C752 C764 1.410 . S
C753 C755 1.444 . S
C753 C756 1.317 . S
C753 H776 0.929 . S
C754 C751 1.432 . S
C754 C752 1.417 . S
C754 N762 1.360 . S
C755 C751 1.414 . S
C755 C753 1.444 . S
C755 C760 1.385 . S
C756 C752 1.432 . S
C756 C753 1.317 . S
C756 H768 0.930 . S
C757 C759 1.392 . S
C757 C760 1.370 . S
C757 H769 0.931 . S
N758 C751 1.359 . S
N758 C759 1.327 . S
N758 Tb761 2.600 . S
C759 C757 1.392 . S
C759 N758 1.327 . S
C759 H766 0.930 . S
C760 C755 1.385 . S
C760 C757 1.370 . S
C760 H779 0.930 . S
Tb761 N758 2.600 . S
Tb761 N762 2.660 . S
Tb761 O795 2.362 . S
Tb761 O796 2.421 . S
Tb761 O800 2.546 . S
Tb761 O801 2.610 . S
Tb761 O803 2.320 . S
Tb761 O804 2.552 . S
Tb761 O805 2.413 . S
Tb761 C825 2.833 . S
N762 C754 1.360 . S
N762 Tb761 2.660 . S
N762 C763 1.305 . S
C763 N762 1.305 . S
C763 C765 1.407 . S
C763 H770 0.930 . S
C764 C752 1.410 . S
C764 C765 1.345 . S
C764 H772 0.930 . S
C765 C763 1.407 . S
C765 C764 1.345 . S
C765 H767 0.930 . S
H766 C759 0.930 . S
H767 C765 0.930 . S
H768 C756 0.930 . S
H769 C757 0.931 . S
H770 C763 0.930 . S
H771 C785 0.930 . S
H772 C764 0.930 . S
H773 C791 0.930 . S
H774 C782 0.930 . S
H775 C789 0.931 . S
H776 C753 0.929 . S
H777 C783 0.930 . S
H778 C816 0.930 . S
H779 C760 0.930 . S
H780 C815 0.929 . S
N781 Tb750 2.660 . S
N781 C782 1.305 . S
N781 C786 1.360 . S
C782 H774 0.930 . S
C782 N781 1.305 . S
C782 C785 1.407 . S
C783 H777 0.930 . S
C783 C784 1.410 . S
C783 C785 1.345 . S
C784 C783 1.410 . S
C784 C786 1.417 . S
C784 C816 1.432 . S
C785 H771 0.930 . S
C785 C782 1.407 . S
C785 C783 1.345 . S
C786 N781 1.360 . S
C786 C784 1.417 . S
C786 C790 1.432 . S
H787 C792 0.930 . S
N788 Tb750 2.600 . S
N788 C790 1.359 . S
N788 C791 1.327 . S
C789 H775 0.931 . S
C789 C791 1.392 . S
C789 C792 1.370 . S
C790 C786 1.432 . S
C790 N788 1.359 . S
C790 C793 1.414 . S
C791 H773 0.930 . S
C791 N788 1.327 . S
C791 C789 1.392 . S
C792 H787 0.930 . S
C792 C789 1.370 . S
C792 C793 1.385 . S
C793 C790 1.414 . S
C793 C792 1.385 . S
C793 C815 1.444 . S
O794 Tb750 2.546 . S
O794 C814 1.251 . S
O795 Tb750 2.610 . S
O795 Tb761 2.362 . S
O795 C806 1.283 . S
O796 Tb761 2.421 . S
O796 C813 1.262 . S
O797 Tb750 2.320 . S
O797 C813 1.260 . S
O798 Tb750 2.552 . S
O798 C806 1.243 . S
O799 Tb750 2.413 . S
O799 C814 1.256 . S
O800 Tb761 2.546 . S
O800 C825 1.251 . S
O801 Tb750 2.362 . S
O801 Tb761 2.610 . S
O801 C817 1.283 . S
O802 Tb750 2.421 . S
O802 C824 1.262 . S
O803 Tb761 2.320 . S
O803 C824 1.260 . S
O804 Tb761 2.552 . S
O804 C817 1.243 . S
O805 Tb761 2.413 . S
O805 C825 1.256 . S
C806 O795 1.283 . S
C806 O798 1.243 . S
C807 C809 1.382 . S
C807 C811 1.393 . S
C807 C814 1.500 . S
C808 C809 1.400 . S
C808 C810 1.384 . S
C809 C807 1.382 . S
C809 C808 1.400 . S
C809 H826 0.930 . S
C810 C808 1.384 . S
C810 C812 1.392 . S
C810 H827 0.931 . S
C811 C807 1.393 . S
C811 C812 1.401 . S
C811 H828 0.930 . S
C812 C810 1.392 . S
C812 C811 1.401 . S
C812 H829 0.930 . S
C813 O796 1.262 . S
C813 O797 1.260 . S
C814 Tb750 2.833 . S
C814 O794 1.251 . S
C814 O799 1.256 . S
C814 C807 1.500 . S
C815 H780 0.929 . S
C815 C793 1.444 . S
C815 C816 1.317 . S
C816 H778 0.930 . S
C816 C784 1.432 . S
C816 C815 1.317 . S
C817 O801 1.283 . S
C817 O804 1.243 . S
C818 C819 1.382 . S
C818 C822 1.393 . S
C818 C825 1.500 . S
C819 C818 1.382 . S
C819 C820 1.400 . S
C819 H830 0.930 . S
C820 C819 1.400 . S
C820 C821 1.384 . S
C821 C820 1.384 . S
C821 C823 1.392 . S
C821 H831 0.931 . S
C822 C818 1.393 . S
C822 C823 1.401 . S
C822 H832 0.930 . S
C823 C821 1.392 . S
C823 C822 1.401 . S
C823 H833 0.930 . S
C824 O802 1.262 . S
C824 O803 1.260 . S
C825 Tb761 2.833 . S
C825 O800 1.251 . S
C825 O805 1.256 . S
C825 C818 1.500 . S
H826 C809 0.930 . S
H827 C810 0.931 . S
H828 C811 0.930 . S
H829 C812 0.930 . S
H830 C819 0.930 . S
H831 C821 0.931 . S
H832 C822 0.930 . S
H833 C823 0.930 . S
Tb834 N865 2.660 . S
Tb834 N872 2.600 . S
Tb834 O878 2.546 . S
Tb834 O879 2.610 . S
Tb834 O881 2.320 . S
Tb834 O882 2.552 . S
Tb834 O883 2.413 . S
Tb834 O885 2.362 . S
Tb834 O886 2.421 . S
Tb834 C898 2.833 . S
C835 C838 1.432 . S
C835 C839 1.414 . S
C835 N842 1.359 . S
C836 C838 1.417 . S
C836 C840 1.432 . S
C836 C848 1.410 . S
C837 C839 1.444 . S
C837 C840 1.317 . S
C837 H860 0.929 . S
C838 C835 1.432 . S
C838 C836 1.417 . S
C838 N846 1.360 . S
C839 C835 1.414 . S
C839 C837 1.444 . S
C839 C844 1.385 . S
C840 C836 1.432 . S
C840 C837 1.317 . S
C840 H852 0.930 . S
C841 C843 1.392 . S
C841 C844 1.370 . S
C841 H853 0.931 . S
N842 C835 1.359 . S
N842 C843 1.327 . S
N842 Tb845 2.600 . S
C843 C841 1.392 . S
C843 N842 1.327 . S
C843 H850 0.930 . S
C844 C839 1.385 . S
C844 C841 1.370 . S
C844 H863 0.930 . S
Tb845 N842 2.600 . S
Tb845 N846 2.660 . S
Tb845 O879 2.362 . S
Tb845 O880 2.421 . S
Tb845 O884 2.546 . S
Tb845 O885 2.610 . S
Tb845 O887 2.320 . S
Tb845 O888 2.552 . S
Tb845 O889 2.413 . S
Tb845 C909 2.833 . S
N846 C838 1.360 . S
N846 Tb845 2.660 . S
N846 C847 1.305 . S
C847 N846 1.305 . S
C847 C849 1.407 . S
C847 H854 0.930 . S
C848 C836 1.410 . S
C848 C849 1.345 . S
C848 H856 0.930 . S
C849 C847 1.407 . S
C849 C848 1.345 . S
C849 H851 0.930 . S
H850 C843 0.930 . S
H851 C849 0.930 . S
H852 C840 0.930 . S
H853 C841 0.931 . S
H854 C847 0.930 . S
H855 C869 0.930 . S
H856 C848 0.930 . S
H857 C875 0.930 . S
H858 C866 0.930 . S
H859 C873 0.931 . S
H860 C837 0.929 . S
H861 C867 0.930 . S
H862 C900 0.930 . S
H863 C844 0.930 . S
H864 C899 0.929 . S
N865 Tb834 2.660 . S
N865 C866 1.305 . S
N865 C870 1.360 . S
C866 H858 0.930 . S
C866 N865 1.305 . S
C866 C869 1.407 1_655 S
C867 H861 0.930 . S
C867 C868 1.410 . S
C867 C869 1.345 . S
C868 C867 1.410 . S
C868 C870 1.417 1_455 S
C868 C900 1.432 . S
C869 H855 0.930 . S
C869 C866 1.407 1_455 S
C869 C867 1.345 . S
C870 N865 1.360 . S
C870 C868 1.417 1_655 S
C870 C874 1.432 . S
H871 C876 0.930 . S
N872 Tb834 2.600 . S
N872 C874 1.359 . S
N872 C875 1.327 . S
C873 H859 0.931 . S
C873 C875 1.392 . S
C873 C876 1.370 . S
C874 C870 1.432 . S
C874 N872 1.359 . S
C874 C877 1.414 . S
C875 H857 0.930 . S
C875 N872 1.327 . S
C875 C873 1.392 . S
C876 H871 0.930 . S
C876 C873 1.370 . S
C876 C877 1.385 . S
C877 C874 1.414 . S
C877 C876 1.385 . S
C877 C899 1.444 1_655 S
O878 Tb834 2.546 . S
O878 C898 1.251 . S
O879 Tb834 2.610 . S
O879 Tb845 2.362 . S
O879 C890 1.283 . S
O880 Tb845 2.421 . S
O880 C897 1.262 . S
O881 Tb834 2.320 . S
O881 C897 1.260 . S
O882 Tb834 2.552 . S
O882 C890 1.243 . S
O883 Tb834 2.413 . S
O883 C898 1.256 . S
O884 Tb845 2.546 . S
O884 C909 1.251 . S
O885 Tb834 2.362 . S
O885 Tb845 2.610 . S
O885 C901 1.283 . S
O886 Tb834 2.421 . S
O886 C908 1.262 . S
O887 Tb845 2.320 . S
O887 C908 1.260 . S
O888 Tb845 2.552 . S
O888 C901 1.243 . S
O889 Tb845 2.413 . S
O889 C909 1.256 . S
C890 O879 1.283 . S
C890 O882 1.243 . S
C891 C893 1.382 . S
C891 C895 1.393 . S
C891 C898 1.500 . S
C892 C893 1.400 . S
C892 C894 1.384 . S
C893 C891 1.382 . S
C893 C892 1.400 . S
C893 H910 0.930 . S
C894 C892 1.384 . S
C894 C896 1.392 . S
C894 H911 0.931 . S
C895 C891 1.393 . S
C895 C896 1.401 . S
C895 H912 0.930 . S
C896 C894 1.392 . S
C896 C895 1.401 . S
C896 H913 0.930 . S
C897 O880 1.262 . S
C897 O881 1.260 . S
C898 Tb834 2.833 . S
C898 O878 1.251 . S
C898 O883 1.256 . S
C898 C891 1.500 . S
C899 H864 0.929 . S
C899 C877 1.444 1_455 S
C899 C900 1.317 . S
C900 H862 0.930 . S
C900 C868 1.432 . S
C900 C899 1.317 . S
C901 O885 1.283 . S
C901 O888 1.243 . S
C902 C903 1.382 . S
C902 C906 1.393 . S
C902 C909 1.500 . S
C903 C902 1.382 . S
C903 C904 1.400 . S
C903 H914 0.930 . S
C904 C903 1.400 . S
C904 C905 1.384 . S
C905 C904 1.384 . S
C905 C907 1.392 . S
C905 H915 0.931 . S
C906 C902 1.393 . S
C906 C907 1.401 . S
C906 H916 0.930 . S
C907 C905 1.392 . S
C907 C906 1.401 . S
C907 H917 0.930 . S
C908 O886 1.262 . S
C908 O887 1.260 . S
C909 Tb845 2.833 . S
C909 O884 1.251 . S
C909 O889 1.256 . S
C909 C902 1.500 . S
H910 C893 0.930 . S
H911 C894 0.931 . S
H912 C895 0.930 . S
H913 C896 0.930 . S
H914 C903 0.930 . S
H915 C905 0.931 . S
H916 C906 0.930 . S
H917 C907 0.930 . S
C918 C919 1.387 . S
C918 H922 0.950 . S
C918 C927 1.390 . S
C919 C918 1.387 . S
C919 C921 1.387 . S
H920 C927 0.950 . S
C921 C919 1.387 . S
C921 C923 1.390 . S
C921 H925 0.950 . S
H922 C918 0.950 . S
C923 C921 1.390 . S
C923 C924 1.387 . S
C923 H926 0.950 . S
C924 C923 1.387 . S
C924 C927 1.387 . S
H925 C921 0.950 . S
H926 C923 0.950 . S
C927 C918 1.390 . S
C927 H920 0.950 . S
C927 C924 1.387 . S
C928 C929 1.387 . S
C928 H932 0.950 . S
C928 C937 1.390 . S
C929 C928 1.387 . S
C929 C931 1.387 . S
H930 C937 0.950 . S
C931 C929 1.387 . S
C931 C933 1.390 . S
C931 H935 0.950 . S
H932 C928 0.950 . S
C933 C931 1.390 . S
C933 C934 1.387 . S
C933 H936 0.950 . S
C934 C933 1.387 . S
C934 C937 1.387 . S
H935 C931 0.950 . S
H936 C933 0.950 . S
C937 C928 1.390 . S
C937 H930 0.950 . S
C937 C934 1.387 . S
C938 C939 1.387 . S
C938 H942 0.950 . S
C938 C947 1.390 . S
C939 C938 1.387 . S
C939 C941 1.387 . S
H940 C947 0.950 . S
C941 C939 1.387 . S
C941 C943 1.390 . S
C941 H945 0.950 . S
H942 C938 0.950 . S
C943 C941 1.390 . S
C943 C944 1.387 . S
C943 H946 0.950 . S
C944 C943 1.387 . S
C944 C947 1.387 . S
H945 C941 0.950 . S
H946 C943 0.950 . S
C947 C938 1.390 . S
C947 H940 0.950 . S
C947 C944 1.387 . S
C948 C949 1.387 . S
C948 H952 0.950 . S
C948 C957 1.390 . S
C949 C948 1.387 . S
C949 C951 1.387 . S
H950 C957 0.950 . S
C951 C949 1.387 . S
C951 C953 1.390 . S
C951 H955 0.950 . S
H952 C948 0.950 . S
C953 C951 1.390 . S
C953 C954 1.387 . S
C953 H956 0.950 1_556 S
C954 C953 1.387 . S
C954 C957 1.387 . S
H955 C951 0.950 . S
H956 C953 0.950 1_554 S
C957 C948 1.390 . S
C957 H950 0.950 . S
C957 C954 1.387 . S
C958 C959 1.387 . S
C958 H962 0.950 . S
C958 C967 1.390 . S
C959 C958 1.387 . S
C959 C961 1.387 . S
H960 C967 0.950 . S
C961 C959 1.387 . S
C961 C963 1.390 . S
C961 H965 0.950 . S
H962 C958 0.950 . S
C963 C961 1.390 . S
C963 C964 1.387 . S
C963 H966 0.950 . S
C964 C963 1.387 . S
C964 C967 1.387 . S
H965 C961 0.950 . S
H966 C963 0.950 . S
C967 C958 1.390 . S
C967 H960 0.950 . S
C967 C964 1.387 . S
C968 C969 1.387 . S
C968 H972 0.950 . S
C968 C977 1.390 . S
C969 C968 1.387 . S
C969 C971 1.387 . S
H970 C977 0.950 . S
C971 C969 1.387 . S
C971 C973 1.390 . S
C971 H975 0.950 . S
H972 C968 0.950 . S
C973 C971 1.390 . S
C973 C974 1.387 . S
C973 H976 0.950 . S
C974 C973 1.387 . S
C974 C977 1.387 . S
H975 C971 0.950 . S
H976 C973 0.950 . S
C977 C968 1.390 . S
C977 H970 0.950 . S
C977 C974 1.387 . S
C978 C979 1.387 . S
C978 H982 0.950 . S
C978 C987 1.390 . S
C979 C978 1.387 . S
C979 C981 1.387 . S
H980 C987 0.950 1_554 S
C981 C979 1.387 . S
C981 C983 1.390 . S
C981 H985 0.950 . S
H982 C978 0.950 . S
C983 C981 1.390 . S
C983 C984 1.387 . S
C983 H986 0.950 . S
C984 C983 1.387 . S
C984 C987 1.387 . S
H985 C981 0.950 . S
H986 C983 0.950 . S
C987 C978 1.390 . S
C987 H980 0.950 1_556 S
C987 C984 1.387 . S
C988 C989 1.387 . S
C988 H992 0.950 . S
C988 C997 1.390 . S
C989 C988 1.387 . S
C989 C991 1.387 . S
H990 C997 0.950 . S
C991 C989 1.387 . S
C991 C993 1.390 . S
C991 H995 0.950 . S
H992 C988 0.950 . S
C993 C991 1.390 . S
C993 C994 1.387 . S
C993 H996 0.950 . S
C994 C993 1.387 . S
C994 C997 1.387 . S
H995 C991 0.950 . S
H996 C993 0.950 . S
C997 C988 1.390 . S
C997 H990 0.950 . S
C997 C994 1.387 . S
C998 C999 1.387 . S
C998 H1002 0.950 . S
C998 C1007 1.390 . S
C999 C998 1.387 . S
C999 C1001 1.387 . S
H1000 C1007 0.950 . S
C1001 C999 1.387 . S
C1001 C1003 1.390 . S
C1001 H1005 0.950 . S
H1002 C998 0.950 . S
C1003 C1001 1.390 . S
C1003 C1004 1.387 . S
C1003 H1006 0.950 1_556 S
C1004 C1003 1.387 . S
C1004 C1007 1.387 . S
H1005 C1001 0.950 . S
H1006 C1003 0.950 1_554 S
C1007 C998 1.390 . S
C1007 H1000 0.950 . S
C1007 C1004 1.387 . S
C1008 C1009 1.387 . S
C1008 H1012 0.950 . S
C1008 C1017 1.390 . S
C1009 C1008 1.387 . S
C1009 C1011 1.387 . S
H1010 C1017 0.950 . S
C1011 C1009 1.387 . S
C1011 C1013 1.390 . S
C1011 H1015 0.950 . S
H1012 C1008 0.950 . S
C1013 C1011 1.390 . S
C1013 C1014 1.387 . S
C1013 H1016 0.950 . S
C1014 C1013 1.387 . S
C1014 C1017 1.387 . S
H1015 C1011 0.950 . S
H1016 C1013 0.950 . S
C1017 C1008 1.390 . S
C1017 H1010 0.950 . S
C1017 C1014 1.387 . S
C1018 C1019 1.387 . S
C1018 H1022 0.950 . S
C1018 C1027 1.390 . S
C1019 C1018 1.387 . S
C1019 C1021 1.387 . S
H1020 C1027 0.950 . S
C1021 C1019 1.387 . S
C1021 C1023 1.390 . S
C1021 H1025 0.950 . S
H1022 C1018 0.950 . S
C1023 C1021 1.390 . S
C1023 C1024 1.387 . S
C1023 H1026 0.950 . S
C1024 C1023 1.387 . S
C1024 C1027 1.387 . S
H1025 C1021 0.950 . S
H1026 C1023 0.950 . S
C1027 C1018 1.390 . S
C1027 H1020 0.950 . S
C1027 C1024 1.387 . S
C1028 C1029 1.387 . S
C1028 H1032 0.950 . S
C1028 C1037 1.390 . S
C1029 C1028 1.387 . S
C1029 C1031 1.387 . S
H1030 C1037 0.950 . S
C1031 C1029 1.387 . S
C1031 C1033 1.390 . S
C1031 H1035 0.950 . S
H1032 C1028 0.950 . S
C1033 C1031 1.390 . S
C1033 C1034 1.387 . S
C1033 H1036 0.950 . S
C1034 C1033 1.387 . S
C1034 C1037 1.387 . S
H1035 C1031 0.950 . S
H1036 C1033 0.950 . S
C1037 C1028 1.390 . S
C1037 H1030 0.950 . S
C1037 C1034 1.387 . S
C1038 C1039 1.387 . S
C1038 H1042 0.950 . S
C1038 C1047 1.390 1_655 S
C1039 C1038 1.387 . S
C1039 C1041 1.387 . S
H1040 C1047 0.950 . S
C1041 C1039 1.387 . S
C1041 C1043 1.390 1_655 S
C1041 H1045 0.950 . S
H1042 C1038 0.950 . S
C1043 C1041 1.390 1_455 S
C1043 C1044 1.387 . S
C1043 H1046 0.950 . S
C1044 C1043 1.387 . S
C1044 C1047 1.387 . S
H1045 C1041 0.950 . S
H1046 C1043 0.950 . S
C1047 C1038 1.390 1_455 S
C1047 H1040 0.950 . S
C1047 C1044 1.387 . S
C1048 C1049 1.387 . S
C1048 H1052 0.950 . S
C1048 C1057 1.390 . S
C1049 C1048 1.387 . S
C1049 C1051 1.387 . S
H1050 C1057 0.950 . S
C1051 C1049 1.387 . S
C1051 C1053 1.390 . S
C1051 H1055 0.950 . S
H1052 C1048 0.950 . S
C1053 C1051 1.390 . S
C1053 C1054 1.387 . S
C1053 H1056 0.950 . S
C1054 C1053 1.387 . S
C1054 C1057 1.387 . S
H1055 C1051 0.950 . S
H1056 C1053 0.950 . S
C1057 C1048 1.390 . S
C1057 H1050 0.950 . S
C1057 C1054 1.387 . S
C1058 C1059 1.387 . S
C1058 H1062 0.950 . S
C1058 C1067 1.390 1_545 S
C1059 C1058 1.387 . S
C1059 C1061 1.387 . S
H1060 C1067 0.950 . S
C1061 C1059 1.387 . S
C1061 C1063 1.390 1_545 S
C1061 H1065 0.950 . S
H1062 C1058 0.950 . S
C1063 C1061 1.390 1_565 S
C1063 C1064 1.387 . S
C1063 H1066 0.950 . S
C1064 C1063 1.387 . S
C1064 C1067 1.387 . S
H1065 C1061 0.950 . S
H1066 C1063 0.950 . S
C1067 C1058 1.390 1_565 S
C1067 H1060 0.950 . S
C1067 C1064 1.387 . S
C1068 C1069 1.387 . S
C1068 H1072 0.950 . S
C1068 C1077 1.390 . S
C1069 C1068 1.387 . S
C1069 C1071 1.387 . S
H1070 C1077 0.950 . S
C1071 C1069 1.387 . S
C1071 C1073 1.390 . S
C1071 H1075 0.950 . S
H1072 C1068 0.950 . S
C1073 C1071 1.390 . S
C1073 C1074 1.387 . S
C1073 H1076 0.950 . S
C1074 C1073 1.387 . S
C1074 C1077 1.387 . S
H1075 C1071 0.950 . S
H1076 C1073 0.950 . S
C1077 C1068 1.390 . S
C1077 H1070 0.950 . S
C1077 C1074 1.387 . S
C1078 C1079 1.387 . S
C1078 H1082 0.950 . S
C1078 C1087 1.390 . S
C1079 C1078 1.387 . S
C1079 C1081 1.387 . S
H1080 C1087 0.950 . S
C1081 C1079 1.387 . S
C1081 C1083 1.390 . S
C1081 H1085 0.950 . S
H1082 C1078 0.950 . S
C1083 C1081 1.390 . S
C1083 C1084 1.387 . S
C1083 H1086 0.950 . S
C1084 C1083 1.387 . S
C1084 C1087 1.387 . S
H1085 C1081 0.950 . S
H1086 C1083 0.950 . S
C1087 C1078 1.390 . S
C1087 H1080 0.950 . S
C1087 C1084 1.387 . S
C1088 C1089 1.387 . S
C1088 H1092 0.950 . S
C1088 C1097 1.390 . S
C1089 C1088 1.387 . S
C1089 C1091 1.387 . S
H1090 C1097 0.950 . S
C1091 C1089 1.387 . S
C1091 C1093 1.390 . S
C1091 H1095 0.950 . S
H1092 C1088 0.950 . S
C1093 C1091 1.390 . S
C1093 C1094 1.387 . S
C1093 H1096 0.950 . S
C1094 C1093 1.387 . S
C1094 C1097 1.387 . S
H1095 C1091 0.950 . S
H1096 C1093 0.950 . S
C1097 C1088 1.390 . S
C1097 H1090 0.950 . S
C1097 C1094 1.387 . S
C1098 C1099 1.387 . S
C1098 H1102 0.950 . S
C1098 C1107 1.390 . S
C1099 C1098 1.387 . S
C1099 C1101 1.387 . S
H1100 C1107 0.950 . S
C1101 C1099 1.387 . S
C1101 C1103 1.390 . S
C1101 H1105 0.950 . S
H1102 C1098 0.950 . S
C1103 C1101 1.390 . S
C1103 C1104 1.387 . S
C1103 H1106 0.950 . S
C1104 C1103 1.387 . S
C1104 C1107 1.387 . S
H1105 C1101 0.950 . S
H1106 C1103 0.950 . S
C1107 C1098 1.390 . S
C1107 H1100 0.950 . S
C1107 C1104 1.387 . S
C1108 C1109 1.387 . S
C1108 H1112 0.950 . S
C1108 C1117 1.390 . S
C1109 C1108 1.387 . S
C1109 C1111 1.387 . S
H1110 C1117 0.950 . S
C1111 C1109 1.387 . S
C1111 C1113 1.390 . S
C1111 H1115 0.950 . S
H1112 C1108 0.950 . S
C1113 C1111 1.390 . S
C1113 C1114 1.387 . S
C1113 H1116 0.950 . S
C1114 C1113 1.387 . S
C1114 C1117 1.387 . S
H1115 C1111 0.950 . S
H1116 C1113 0.950 . S
C1117 C1108 1.390 . S
C1117 H1110 0.950 . S
C1117 C1114 1.387 . S
C1118 C1119 1.387 . S
C1118 H1122 0.950 . S
C1118 C1127 1.390 . S
C1119 C1118 1.387 . S
C1119 C1121 1.387 . S
H1120 C1127 0.950 . S
C1121 C1119 1.387 . S
C1121 C1123 1.390 . S
C1121 H1125 0.950 . S
H1122 C1118 0.950 . S
C1123 C1121 1.390 . S
C1123 C1124 1.387 . S
C1123 H1126 0.950 . S
C1124 C1123 1.387 . S
C1124 C1127 1.387 . S
H1125 C1121 0.950 . S
H1126 C1123 0.950 . S
C1127 C1118 1.390 . S
C1127 H1120 0.950 . S
C1127 C1124 1.387 . S
C1128 C1129 1.387 . S
C1128 H1132 0.950 . S
C1128 C1137 1.390 1_545 S
C1129 C1128 1.387 . S
C1129 C1131 1.387 . S
H1130 C1137 0.950 . S
C1131 C1129 1.387 . S
C1131 C1133 1.390 1_545 S
C1131 H1135 0.950 . S
H1132 C1128 0.950 . S
C1133 C1131 1.390 1_565 S
C1133 C1134 1.387 . S
C1133 H1136 0.950 . S
C1134 C1133 1.387 . S
C1134 C1137 1.387 . S
H1135 C1131 0.950 . S
H1136 C1133 0.950 . S
C1137 C1128 1.390 1_565 S
C1137 H1130 0.950 . S
C1137 C1134 1.387 . S
C1138 C1139 1.387 . S
C1138 H1142 0.950 . S
C1138 C1147 1.390 1_655 S
C1139 C1138 1.387 . S
C1139 C1141 1.387 . S
H1140 C1147 0.950 . S
C1141 C1139 1.387 . S
C1141 C1143 1.390 1_655 S
C1141 H1145 0.950 . S
H1142 C1138 0.950 . S
C1143 C1141 1.390 1_455 S
C1143 C1144 1.387 . S
C1143 H1146 0.950 . S
C1144 C1143 1.387 . S
C1144 C1147 1.387 . S
H1145 C1141 0.950 . S
H1146 C1143 0.950 . S
C1147 C1138 1.390 1_455 S
C1147 H1140 0.950 . S
C1147 C1144 1.387 . S
C1148 C1149 1.387 . S
C1148 H1152 0.950 . S
C1148 C1157 1.390 . S
C1149 C1148 1.387 . S
C1149 C1151 1.387 . S
H1150 C1157 0.950 . S
C1151 C1149 1.387 . S
C1151 C1153 1.390 . S
C1151 H1155 0.950 . S
H1152 C1148 0.950 . S
C1153 C1151 1.390 . S
C1153 C1154 1.387 . S
C1153 H1156 0.950 . S
C1154 C1153 1.387 . S
C1154 C1157 1.387 . S
H1155 C1151 0.950 . S
H1156 C1153 0.950 . S
C1157 C1148 1.390 . S
C1157 H1150 0.950 . S
C1157 C1154 1.387 . S
C1158 C1159 1.387 . S
C1158 H1162 0.950 . S
C1158 C1167 1.390 . S
C1159 C1158 1.387 . S
C1159 C1161 1.387 . S
H1160 C1167 0.950 . S
C1161 C1159 1.387 . S
C1161 C1163 1.390 . S
C1161 H1165 0.950 . S
H1162 C1158 0.950 . S
C1163 C1161 1.390 . S
C1163 C1164 1.387 . S
C1163 H1166 0.950 . S
C1164 C1163 1.387 . S
C1164 C1167 1.387 . S
H1165 C1161 0.950 . S
H1166 C1163 0.950 . S
C1167 C1158 1.390 . S
C1167 H1160 0.950 . S
C1167 C1164 1.387 . S
C1168 C1169 1.387 . S
C1168 H1172 0.950 . S
C1168 C1177 1.390 . S
C1169 C1168 1.387 . S
C1169 C1171 1.387 . S
H1170 C1177 0.950 . S
C1171 C1169 1.387 . S
C1171 C1173 1.390 . S
C1171 H1175 0.950 . S
H1172 C1168 0.950 . S
C1173 C1171 1.390 . S
C1173 C1174 1.387 . S
C1173 H1176 0.950 . S
C1174 C1173 1.387 . S
C1174 C1177 1.387 . S
H1175 C1171 0.950 . S
H1176 C1173 0.950 . S
C1177 C1168 1.390 . S
C1177 H1170 0.950 . S
C1177 C1174 1.387 . S
C1178 C1179 1.387 . S
C1178 H1182 0.950 . S
C1178 C1187 1.390 . S
C1179 C1178 1.387 . S
C1179 C1181 1.387 . S
H1180 C1187 0.950 . S
C1181 C1179 1.387 . S
C1181 C1183 1.390 . S
C1181 H1185 0.950 . S
H1182 C1178 0.950 . S
C1183 C1181 1.390 . S
C1183 C1184 1.387 . S
C1183 H1186 0.950 . S
C1184 C1183 1.387 . S
C1184 C1187 1.387 . S
H1185 C1181 0.950 . S
H1186 C1183 0.950 . S
C1187 C1178 1.390 . S
C1187 H1180 0.950 . S
C1187 C1184 1.387 . S
C1188 C1189 1.387 . S
C1188 H1192 0.950 . S
C1188 C1197 1.390 1_565 S
C1189 C1188 1.387 . S
C1189 C1191 1.387 . S
H1190 C1197 0.950 . S
C1191 C1189 1.387 . S
C1191 C1193 1.390 1_565 S
C1191 H1195 0.950 . S
H1192 C1188 0.950 . S
C1193 C1191 1.390 1_545 S
C1193 C1194 1.387 . S
C1193 H1196 0.950 . S
C1194 C1193 1.387 . S
C1194 C1197 1.387 . S
H1195 C1191 0.950 . S
H1196 C1193 0.950 . S
C1197 C1188 1.390 1_545 S
C1197 H1190 0.950 . S
C1197 C1194 1.387 . S
C1198 C1199 1.387 1_655 S
C1198 H1202 0.950 . S
C1198 C1207 1.390 . S
C1199 C1198 1.387 1_455 S
C1199 C1201 1.387 . S
H1200 C1207 0.950 . S
C1201 C1199 1.387 . S
C1201 C1203 1.390 1_455 S
C1201 H1205 0.950 . S
H1202 C1198 0.950 . S
C1203 C1201 1.390 1_655 S
C1203 C1204 1.387 . S
C1203 H1206 0.950 . S
C1204 C1203 1.387 . S
C1204 C1207 1.387 . S
H1205 C1201 0.950 . S
H1206 C1203 0.950 . S
C1207 C1198 1.390 . S
C1207 H1200 0.950 . S
C1207 C1204 1.387 . S
C1208 C1209 1.387 . S
C1208 H1212 0.950 . S
C1208 C1217 1.390 . S
C1209 C1208 1.387 . S
C1209 C1211 1.387 . S
H1210 C1217 0.950 . S
C1211 C1209 1.387 . S
C1211 C1213 1.390 . S
C1211 H1215 0.950 . S
H1212 C1208 0.950 . S
C1213 C1211 1.390 . S
C1213 C1214 1.387 . S
C1213 H1216 0.950 . S
C1214 C1213 1.387 . S
C1214 C1217 1.387 . S
H1215 C1211 0.950 . S
H1216 C1213 0.950 . S
C1217 C1208 1.390 . S
C1217 H1210 0.950 . S
C1217 C1214 1.387 . S
C1218 C1219 1.387 . S
C1218 H1222 0.950 . S
C1218 C1227 1.390 1_455 S
C1219 C1218 1.387 . S
C1219 C1221 1.387 1_455 S
H1220 C1227 0.950 . S
C1221 C1219 1.387 1_655 S
C1221 C1223 1.390 . S
C1221 H1225 0.950 1_655 S
H1222 C1218 0.950 . S
C1223 C1221 1.390 . S
C1223 C1224 1.387 . S
C1223 H1226 0.950 . S
C1224 C1223 1.387 . S
C1224 C1227 1.387 . S
H1225 C1221 0.950 1_455 S
H1226 C1223 0.950 . S
C1227 C1218 1.390 1_655 S
C1227 H1220 0.950 . S
C1227 C1224 1.387 . S
C1228 C1229 1.387 . S
C1228 H1232 0.950 . S
C1228 C1237 1.390 . S
C1229 C1228 1.387 . S
C1229 C1231 1.387 . S
H1230 C1237 0.950 . S
C1231 C1229 1.387 . S
C1231 C1233 1.390 . S
C1231 H1235 0.950 . S
H1232 C1228 0.950 . S
C1233 C1231 1.390 . S
C1233 C1234 1.387 . S
C1233 H1236 0.950 . S
C1234 C1233 1.387 . S
C1234 C1237 1.387 . S
H1235 C1231 0.950 . S
H1236 C1233 0.950 . S
C1237 C1228 1.390 . S
C1237 H1230 0.950 . S
C1237 C1234 1.387 . S
C1238 C1239 1.387 . S
C1238 H1242 0.950 . S
C1238 C1247 1.390 1_565 S
C1239 C1238 1.387 . S
C1239 C1241 1.387 . S
H1240 C1247 0.950 . S
C1241 C1239 1.387 . S
C1241 C1243 1.390 1_565 S
C1241 H1245 0.950 . S
H1242 C1238 0.950 . S
C1243 C1241 1.390 1_545 S
C1243 C1244 1.387 . S
C1243 H1246 0.950 . S
C1244 C1243 1.387 . S
C1244 C1247 1.387 . S
H1245 C1241 0.950 . S
H1246 C1243 0.950 . S
C1247 C1238 1.390 1_545 S
C1247 H1240 0.950 . S
C1247 C1244 1.387 . S
C1248 C1249 1.387 . S
C1248 H1252 0.950 . S
C1248 C1257 1.390 . S
C1249 C1248 1.387 . S
C1249 C1251 1.387 . S
H1250 C1257 0.950 . S
C1251 C1249 1.387 . S
C1251 C1253 1.390 . S
C1251 H1255 0.950 . S
H1252 C1248 0.950 . S
C1253 C1251 1.390 . S
C1253 C1254 1.387 . S
C1253 H1256 0.950 . S
C1254 C1253 1.387 . S
C1254 C1257 1.387 . S
H1255 C1251 0.950 . S
H1256 C1253 0.950 . S
C1257 C1248 1.390 . S
C1257 H1250 0.950 . S
C1257 C1254 1.387 . S
C1258 C1259 1.387 . S
C1258 H1262 0.950 . S
C1258 C1267 1.390 . S
C1259 C1258 1.387 . S
C1259 C1261 1.387 . S
H1260 C1267 0.950 . S
C1261 C1259 1.387 . S
C1261 C1263 1.390 . S
C1261 H1265 0.950 . S
H1262 C1258 0.950 . S
C1263 C1261 1.390 . S
C1263 C1264 1.387 . S
C1263 H1266 0.950 . S
C1264 C1263 1.387 . S
C1264 C1267 1.387 . S
H1265 C1261 0.950 . S
H1266 C1263 0.950 . S
C1267 C1258 1.390 . S
C1267 H1260 0.950 . S
C1267 C1264 1.387 . S
C1268 C1269 1.387 . S
C1268 H1272 0.950 . S
C1268 C1277 1.390 . S
C1269 C1268 1.387 . S
C1269 C1271 1.387 . S
H1270 C1277 0.950 . S
C1271 C1269 1.387 . S
C1271 C1273 1.390 . S
C1271 H1275 0.950 . S
H1272 C1268 0.950 . S
C1273 C1271 1.390 . S
C1273 C1274 1.387 . S
C1273 H1276 0.950 . S
C1274 C1273 1.387 . S
C1274 C1277 1.387 . S
H1275 C1271 0.950 . S
H1276 C1273 0.950 . S
C1277 C1268 1.390 . S
C1277 H1270 0.950 . S
C1277 C1274 1.387 . S
C1278 C1279 1.387 . S
C1278 H1282 0.950 . S
C1278 C1287 1.390 . S
C1279 C1278 1.387 . S
C1279 C1281 1.387 . S
H1280 C1287 0.950 . S
C1281 C1279 1.387 . S
C1281 C1283 1.390 . S
C1281 H1285 0.950 . S
H1282 C1278 0.950 . S
C1283 C1281 1.390 . S
C1283 C1284 1.387 . S
C1283 H1286 0.950 . S
C1284 C1283 1.387 . S
C1284 C1287 1.387 . S
H1285 C1281 0.950 . S
H1286 C1283 0.950 . S
C1287 C1278 1.390 . S
C1287 H1280 0.950 . S
C1287 C1284 1.387 . S
C1288 C1289 1.387 . S
C1288 H1292 0.950 . S
C1288 C1297 1.390 . S
C1289 C1288 1.387 . S
C1289 C1291 1.387 . S
H1290 C1297 0.950 1_655 S
C1291 C1289 1.387 . S
C1291 C1293 1.390 . S
C1291 H1295 0.950 . S
H1292 C1288 0.950 . S
C1293 C1291 1.390 . S
C1293 C1294 1.387 . S
C1293 H1296 0.950 . S
C1294 C1293 1.387 . S
C1294 C1297 1.387 . S
H1295 C1291 0.950 . S
H1296 C1293 0.950 . S
C1297 C1288 1.390 . S
C1297 H1290 0.950 1_455 S
C1297 C1294 1.387 . S
C1298 C1299 1.387 . S
C1298 H1302 0.950 . S
C1298 C1307 1.390 . S
C1299 C1298 1.387 . S
C1299 C1301 1.387 . S
H1300 C1307 0.950 . S
C1301 C1299 1.387 . S
C1301 C1303 1.390 . S
C1301 H1305 0.950 . S
H1302 C1298 0.950 . S
C1303 C1301 1.390 . S
C1303 C1304 1.387 . S
C1303 H1306 0.950 . S
C1304 C1303 1.387 . S
C1304 C1307 1.387 . S
H1305 C1301 0.950 . S
H1306 C1303 0.950 . S
C1307 C1298 1.390 . S
C1307 H1300 0.950 . S
C1307 C1304 1.387 . S
C1308 C1309 1.387 . S
C1308 H1312 0.950 . S
C1308 C1317 1.390 . S
C1309 C1308 1.387 . S
C1309 C1311 1.387 . S
H1310 C1317 0.950 . S
C1311 C1309 1.387 . S
C1311 C1313 1.390 . S
C1311 H1315 0.950 . S
H1312 C1308 0.950 . S
C1313 C1311 1.390 . S
C1313 C1314 1.387 . S
C1313 H1316 0.950 . S
C1314 C1313 1.387 . S
C1314 C1317 1.387 . S
H1315 C1311 0.950 . S
H1316 C1313 0.950 . S
C1317 C1308 1.390 . S
C1317 H1310 0.950 . S
C1317 C1314 1.387 . S
C1318 C1319 1.387 . S
C1318 H1322 0.950 . S
C1318 C1327 1.390 . S
C1319 C1318 1.387 . S
C1319 C1321 1.387 . S
H1320 C1327 0.950 . S
C1321 C1319 1.387 . S
C1321 C1323 1.390 . S
C1321 H1325 0.950 . S
H1322 C1318 0.950 . S
C1323 C1321 1.390 . S
C1323 C1324 1.387 . S
C1323 H1326 0.950 . S
C1324 C1323 1.387 . S
C1324 C1327 1.387 . S
H1325 C1321 0.950 . S
H1326 C1323 0.950 . S
C1327 C1318 1.390 . S
C1327 H1320 0.950 . S
C1327 C1324 1.387 . S
C1328 C1329 1.387 . S
C1328 H1332 0.950 . S
C1328 C1337 1.390 . S
C1329 C1328 1.387 . S
C1329 C1331 1.387 . S
H1330 C1337 0.950 . S
C1331 C1329 1.387 . S
C1331 C1333 1.390 . S
C1331 H1335 0.950 . S
H1332 C1328 0.950 . S
C1333 C1331 1.390 . S
C1333 C1334 1.387 . S
C1333 H1336 0.950 . S
C1334 C1333 1.387 . S
C1334 C1337 1.387 . S
H1335 C1331 0.950 . S
H1336 C1333 0.950 . S
C1337 C1328 1.390 . S
C1337 H1330 0.950 . S
C1337 C1334 1.387 . S
C1338 C1339 1.387 . S
C1338 H1342 0.950 . S
C1338 C1347 1.390 . S
C1339 C1338 1.387 . S
C1339 C1341 1.387 . S
H1340 C1347 0.950 . S
C1341 C1339 1.387 . S
C1341 C1343 1.390 . S
C1341 H1345 0.950 . S
H1342 C1338 0.950 . S
C1343 C1341 1.390 . S
C1343 C1344 1.387 . S
C1343 H1346 0.950 . S
C1344 C1343 1.387 . S
C1344 C1347 1.387 . S
H1345 C1341 0.950 . S
H1346 C1343 0.950 . S
C1347 C1338 1.390 . S
C1347 H1340 0.950 . S
C1347 C1344 1.387 . S
C1348 C1349 1.387 . S
C1348 H1352 0.950 . S
C1348 C1357 1.390 . S
C1349 C1348 1.387 . S
C1349 C1351 1.387 . S
H1350 C1357 0.950 . S
C1351 C1349 1.387 . S
C1351 C1353 1.390 . S
C1351 H1355 0.950 . S
H1352 C1348 0.950 . S
C1353 C1351 1.390 . S
C1353 C1354 1.387 . S
C1353 H1356 0.950 . S
C1354 C1353 1.387 . S
C1354 C1357 1.387 . S
H1355 C1351 0.950 . S
H1356 C1353 0.950 . S
C1357 C1348 1.390 . S
C1357 H1350 0.950 . S
C1357 C1354 1.387 . S
C1358 C1359 1.387 . S
C1358 H1362 0.950 . S
C1358 C1367 1.390 . S
C1359 C1358 1.387 . S
C1359 C1361 1.387 . S
H1360 C1367 0.950 . S
C1361 C1359 1.387 . S
C1361 C1363 1.390 . S
C1361 H1365 0.950 . S
H1362 C1358 0.950 . S
C1363 C1361 1.390 . S
C1363 C1364 1.387 . S
C1363 H1366 0.950 . S
C1364 C1363 1.387 . S
C1364 C1367 1.387 . S
H1365 C1361 0.950 . S
H1366 C1363 0.950 . S
C1367 C1358 1.390 . S
C1367 H1360 0.950 . S
C1367 C1364 1.387 . S
C1368 C1369 1.387 . S
C1368 H1372 0.950 . S
C1368 C1377 1.390 . S
C1369 C1368 1.387 . S
C1369 C1371 1.387 . S
H1370 C1377 0.950 . S
C1371 C1369 1.387 . S
C1371 C1373 1.390 . S
C1371 H1375 0.950 . S
H1372 C1368 0.950 . S
C1373 C1371 1.390 . S
C1373 C1374 1.387 . S
C1373 H1376 0.950 . S
C1374 C1373 1.387 . S
C1374 C1377 1.387 . S
H1375 C1371 0.950 . S
H1376 C1373 0.950 . S
C1377 C1368 1.390 . S
C1377 H1370 0.950 . S
C1377 C1374 1.387 . S
C1378 C1379 1.387 . S
C1378 H1382 0.950 . S
C1378 C1387 1.390 . S
C1379 C1378 1.387 . S
C1379 C1381 1.387 . S
H1380 C1387 0.950 . S
C1381 C1379 1.387 . S
C1381 C1383 1.390 . S
C1381 H1385 0.950 . S
H1382 C1378 0.950 . S
C1383 C1381 1.390 . S
C1383 C1384 1.387 . S
C1383 H1386 0.950 . S
C1384 C1383 1.387 . S
C1384 C1387 1.387 . S
H1385 C1381 0.950 . S
H1386 C1383 0.950 . S
C1387 C1378 1.390 . S
C1387 H1380 0.950 . S
C1387 C1384 1.387 . S
C1388 C1389 1.387 . S
C1388 H1392 0.950 . S
C1388 C1397 1.390 . S
C1389 C1388 1.387 . S
C1389 C1391 1.387 . S
H1390 C1397 0.950 . S
C1391 C1389 1.387 . S
C1391 C1393 1.390 . S
C1391 H1395 0.950 . S
H1392 C1388 0.950 . S
C1393 C1391 1.390 . S
C1393 C1394 1.387 . S
C1393 H1396 0.950 . S
C1394 C1393 1.387 . S
C1394 C1397 1.387 . S
H1395 C1391 0.950 . S
H1396 C1393 0.950 . S
C1397 C1388 1.390 . S
C1397 H1390 0.950 . S
C1397 C1394 1.387 . S
C1398 C1399 1.387 . S
C1398 H1402 0.950 . S
C1398 C1407 1.390 . S
C1399 C1398 1.387 . S
C1399 C1401 1.387 . S
H1400 C1407 0.950 . S
C1401 C1399 1.387 . S
C1401 C1403 1.390 . S
C1401 H1405 0.950 . S
H1402 C1398 0.950 . S
C1403 C1401 1.390 . S
C1403 C1404 1.387 . S
C1403 H1406 0.950 . S
C1404 C1403 1.387 . S
C1404 C1407 1.387 . S
H1405 C1401 0.950 . S
H1406 C1403 0.950 . S
C1407 C1398 1.390 . S
C1407 H1400 0.950 . S
C1407 C1404 1.387 . S
C1408 C1409 1.387 . S
C1408 H1412 0.950 . S
C1408 C1417 1.390 . S
C1409 C1408 1.387 . S
C1409 C1411 1.387 . S
H1410 C1417 0.950 . S
C1411 C1409 1.387 . S
C1411 C1413 1.390 . S
C1411 H1415 0.950 . S
H1412 C1408 0.950 . S
C1413 C1411 1.390 . S
C1413 C1414 1.387 . S
C1413 H1416 0.950 . S
C1414 C1413 1.387 . S
C1414 C1417 1.387 . S
H1415 C1411 0.950 . S
H1416 C1413 0.950 . S
C1417 C1408 1.390 . S
C1417 H1410 0.950 . S
C1417 C1414 1.387 . S
C1418 C1419 1.387 . S
C1418 H1422 0.950 . S
C1418 C1427 1.390 . S
C1419 C1418 1.387 . S
C1419 C1421 1.387 . S
H1420 C1427 0.950 . S
C1421 C1419 1.387 . S
C1421 C1423 1.390 . S
C1421 H1425 0.950 . S
H1422 C1418 0.950 . S
C1423 C1421 1.390 . S
C1423 C1424 1.387 . S
C1423 H1426 0.950 . S
C1424 C1423 1.387 . S
C1424 C1427 1.387 . S
H1425 C1421 0.950 . S
H1426 C1423 0.950 . S
C1427 C1418 1.390 . S
C1427 H1420 0.950 . S
C1427 C1424 1.387 . S
C1428 C1429 1.387 . S
C1428 H1432 0.950 . S
C1428 C1437 1.390 . S
C1429 C1428 1.387 . S
C1429 C1431 1.387 . S
H1430 C1437 0.950 . S
C1431 C1429 1.387 . S
C1431 C1433 1.390 . S
C1431 H1435 0.950 . S
H1432 C1428 0.950 . S
C1433 C1431 1.390 . S
C1433 C1434 1.387 . S
C1433 H1436 0.950 . S
C1434 C1433 1.387 . S
C1434 C1437 1.387 . S
H1435 C1431 0.950 . S
H1436 C1433 0.950 . S
C1437 C1428 1.390 . S
C1437 H1430 0.950 . S
C1437 C1434 1.387 . S
C1438 C1439 1.387 . S
C1438 H1442 0.950 . S
C1438 C1447 1.390 . S
C1439 C1438 1.387 . S
C1439 C1441 1.387 . S
H1440 C1447 0.950 . S
C1441 C1439 1.387 . S
C1441 C1443 1.390 . S
C1441 H1445 0.950 . S
H1442 C1438 0.950 . S
C1443 C1441 1.390 . S
C1443 C1444 1.387 . S
C1443 H1446 0.950 . S
C1444 C1443 1.387 . S
C1444 C1447 1.387 . S
H1445 C1441 0.950 . S
H1446 C1443 0.950 . S
C1447 C1438 1.390 . S
C1447 H1440 0.950 . S
C1447 C1444 1.387 . S
C1448 C1449 1.387 . S
C1448 H1452 0.950 . S
C1448 C1457 1.390 . S
C1449 C1448 1.387 . S
C1449 C1451 1.387 . S
H1450 C1457 0.950 . S
C1451 C1449 1.387 . S
C1451 C1453 1.390 . S
C1451 H1455 0.950 . S
H1452 C1448 0.950 . S
C1453 C1451 1.390 . S
C1453 C1454 1.387 . S
C1453 H1456 0.950 . S
C1454 C1453 1.387 . S
C1454 C1457 1.387 . S
H1455 C1451 0.950 . S
H1456 C1453 0.950 . S
C1457 C1448 1.390 . S
C1457 H1450 0.950 . S
C1457 C1454 1.387 . S
C919 C124 1.463 . S
C924 C229 1.382 . S
C929 C130 1.501 . S
C934 C313 1.426 . S
C939 C115 1.486 . S
C944 C393 1.443 . S
C949 C106 1.465 . S
C954 C309 1.426 . S
C964 C397 1.381 . S
C959 C85 1.458 . S
C969 C97 1.435 . S
C974 C225 1.393 . S
C984 C218 1.401 . S
C979 C103 1.482 . S
C994 C302 1.406 . S
C989 C88 1.480 . S
C999 C94 1.483 . S
C1004 C404 1.441 . S
C1009 C121 1.463 . S
C1014 C320 1.424 . S
C1019 C133 1.438 . S
C1024 C386 1.362 . S
C1034 C236 1.413 . S
C1029 C112 1.454 . S
C1044 C481 1.382 . S
C1039 C16 1.461 . S
C1049 C22 1.501 . S
C1054 C565 1.430 . S
C1059 C7 1.487 . S
C1064 C645 1.445 . S
C1069 C160 1.464 . S
C1074 C561 1.423 . S
C1079 C139 1.458 . S
C1084 C649 1.378 . S
C1089 C151 1.436 . S
C1094 C477 1.394 . S
C1099 C157 1.482 . S
C1104 C470 1.399 . S
C1109 C142 1.480 . S
C1114 C554 1.406 . S
C1124 C656 1.444 . S
C1119 C148 1.485 . S
C1129 C13 1.462 . S
C1134 C572 1.423 . S
C1144 C638 1.358 . S
C1139 C25 1.438 . S
C1149 C4 1.453 . S
C1154 C488 1.410 . S
C1164 C733 1.383 . S
C1159 C70 1.462 . S
C1169 C76 1.501 . S
C1174 C817 1.430 . S
C1184 C897 1.443 . S
C1179 C61 1.486 . S
C1194 C813 1.426 . S
C1189 C52 1.465 . S
C1204 C901 1.381 . S
C1199 C31 1.459 . S
C1209 C43 1.434 . S
C1214 C729 1.391 . S
C1219 C49 1.482 . S
C1224 C722 1.401 . S
C1229 C34 1.480 . S
C1234 C806 1.410 . S
C1244 C908 1.444 . S
C1239 C40 1.485 . S
C1249 C67 1.462 . S
C1254 C824 1.422 . S
C1259 C79 1.438 . S
C1264 C890 1.362 . S
C1269 C58 1.453 . S
C1274 C740 1.410 . S
C1279 C140 1.508 . S
C1284 C232 1.406 . S
C1294 C316 1.380 . S
C1289 C149 1.515 . S
C1299 C158 1.517 . S
C1304 C388 1.396 . S
C1309 C59 1.528 . S
C1314 C304 1.390 . S
C1319 C68 1.505 . S
C1324 C400 1.385 . S
C1334 C220 1.403 . S
C1329 C77 1.508 . S
C1339 C32 1.508 . S
C1344 C484 1.405 . S
C1349 C41 1.515 . S
C1354 C568 1.383 . S
C1359 C50 1.517 . S
C1364 C640 1.392 . S
C1369 C113 1.528 . S
C1374 C556 1.393 . S
C1384 C652 1.386 . S
C1379 C122 1.505 . S
C1389 C131 1.508 . S
C1394 C472 1.404 . S
C1399 C86 1.508 . S
C1404 C736 1.402 . S
C1409 C95 1.515 . S
C1414 C820 1.383 . S
C1424 C892 1.396 . S
C1419 C104 1.517 . S
C1429 C5 1.528 . S
C1434 C808 1.391 . S
C1439 C14 1.505 . S
C1444 C904 1.385 . S
C1449 C23 1.508 . S
C1454 C724 1.407 . S
