# Generated by pormake.
# Topology ftw, (4,12)-cn, num edge types: 1
# Building blocks:
#     Node 0, Type 0, BuildingBlock: GIZVER_clean_linker_0, # of connection points: 4
#     Node 1, Type 0, BuildingBlock: GIZVER_clean_linker_0, # of connection points: 4
#     Node 2, Type 0, BuildingBlock: GIZVER_clean_linker_0, # of connection points: 4
#     Node 3, Type 1, BuildingBlock: EZIPEK_clean_sbu_0, # of connection points: 12
#     Edge 4, Type (0, 1), BuildingBlock: TEMPAE_clean_linker_10, # of connection points: 2
#     Edge 5, Type (0, 1), BuildingBlock: TEMPAE_clean_linker_10, # of connection points: 2
#     Edge 6, Type (0, 1), BuildingBlock: TEMPAE_clean_linker_10, # of connection points: 2
#     Edge 7, Type (0, 1), BuildingBlock: TEMPAE_clean_linker_10, # of connection points: 2
#     Edge 8, Type (0, 1), BuildingBlock: TEMPAE_clean_linker_10, # of connection points: 2
#     Edge 9, Type (0, 1), BuildingBlock: TEMPAE_clean_linker_10, # of connection points: 2
#     Edge 10, Type (0, 1), BuildingBlock: TEMPAE_clean_linker_10, # of connection points: 2
#     Edge 11, Type (0, 1), BuildingBlock: TEMPAE_clean_linker_10, # of connection points: 2
#     Edge 12, Type (0, 1), BuildingBlock: TEMPAE_clean_linker_10, # of connection points: 2
#     Edge 13, Type (0, 1), BuildingBlock: TEMPAE_clean_linker_10, # of connection points: 2
#     Edge 14, Type (0, 1), BuildingBlock: TEMPAE_clean_linker_10, # of connection points: 2
#     Edge 15, Type (0, 1), BuildingBlock: TEMPAE_clean_linker_10, # of connection points: 2
# Relax obj value: 0.085
# Max RMSD: 0.239
# Mean RMSD: 0.181
data_MOF--net-ftw--node1-EZIPEK_clean_sbu_0--node2-GIZVER_clean_linker_0--edge1-TEMPAE_clean_linker_10
_symmetry_space_group_name_H-M    P1
_symmetry_Int_Tables_number       1
_symmetry_cell_setting            triclinic
loop_
_symmetry_equiv_pos_as_xyz
'x, y, z'
_cell_length_a     25.962824
_cell_length_b     24.354901
_cell_length_c     23.699798
_cell_angle_alpha  89.893693
_cell_angle_beta   89.853089
_cell_angle_gamma 90.080332
loop_
_atom_site_label
_atom_site_type_symbol
_atom_site_fract_x
_atom_site_fract_y
_atom_site_fract_z
_atom_type_partial_charge
H0 H 0.87468 0.45983 0.39955 0.0
H1 H 0.87506 0.46002 0.58139 0.0
H2 H 0.96552 0.34189 0.49043 0.0
H3 H 0.81208 0.51632 0.45268 0.0
H4 H 0.81176 0.51584 0.52846 0.0
H5 H 0.87654 0.57073 0.40011 0.0
H6 H 0.97057 0.68515 0.4916 0.0
H7 H 0.87591 0.5696 0.58194 0.0
C8 C 0.88761 0.44239 0.43916 0.0
C9 C 0.9224 0.39837 0.43895 0.0
C10 C 0.87063 0.46503 0.49049 0.0
C11 C 0.88784 0.44252 0.54173 0.0
C12 C 0.92265 0.39858 0.54184 0.0
C13 C 0.93972 0.37689 0.4904 0.0
C14 C 0.83722 0.51549 0.49063 0.0
C15 C 0.87157 0.56536 0.49099 0.0
C16 C 0.8898 0.58749 0.43986 0.0
C17 C 0.92593 0.63032 0.43995 0.0
C18 C 0.94374 0.65096 0.49148 0.0
C19 C 0.9256 0.62972 0.54282 0.0
C20 C 0.88945 0.58686 0.54239 0.0
H21 H 0.48675 0.10382 0.39876 0.0
H22 H 0.48531 0.10155 0.58039 0.0
H23 H 0.36464 0.0214 0.48778 0.0
H24 H 0.53902 0.1694 0.45278 0.0
H25 H 0.53772 0.16923 0.52814 0.0
H26 H 0.59442 0.10507 0.40053 0.0
H27 H 0.71723 0.02916 0.49335 0.0
H28 H 0.59217 0.1058 0.58228 0.0
C29 C 0.46941 0.09034 0.43808 0.0
C30 C 0.42376 0.05935 0.43716 0.0
C31 C 0.492 0.10535 0.48966 0.0
C32 C 0.46857 0.08906 0.54056 0.0
C33 C 0.42284 0.05818 0.54017 0.0
C34 C 0.40122 0.04296 0.48833 0.0
C35 C 0.5388 0.14205 0.49046 0.0
C36 C 0.58756 0.10852 0.49131 0.0
C37 C 0.61151 0.09324 0.44042 0.0
C38 C 0.65809 0.06402 0.44095 0.0
C39 C 0.68006 0.04943 0.49279 0.0
C40 C 0.65679 0.0644 0.54392 0.0
C41 C 0.61023 0.09365 0.54296 0.0
H42 H 0.59503 0.42589 0.04047 0.0
H43 H 0.59556 0.60304 0.03909 0.0
H44 H 0.73256 0.51396 -0.00476 0.0
H45 H 0.53573 0.47845 0.10073 0.0
H46 H 0.5363 0.55122 0.1006 0.0
H47 H 0.48399 0.42693 0.03254 0.0
H48 H 0.35405 0.51569 0.96702 0.0
H49 H 0.48415 0.60348 0.03365 0.0
C50 C 0.61416 0.46442 0.031 0.0
C51 C 0.66624 0.46417 0.01467 0.0
C52 C 0.58822 0.5145 0.0403 0.0
C53 C 0.61446 0.56433 0.0302 0.0
C54 C 0.66654 0.5642 0.01393 0.0
C55 C 0.69195 0.51409 0.00622 0.0
C56 C 0.53764 0.51483 0.07229 0.0
C57 C 0.49035 0.51517 0.03502 0.0
C58 C 0.46586 0.46544 0.02116 0.0
C59 C 0.41667 0.46515 -0.00372 0.0
C60 C 0.39297 0.51555 0.98348 0.0
C61 C 0.41683 0.56577 -0.00323 0.0
C62 C 0.46597 0.56513 0.02178 0.0
C63 C 0.03135 0.14788 0.85399 0.0
C64 C 0.03132 0.14774 0.12642 0.0
C65 C 0.03149 0.88181 0.8544 0.0
C66 C 0.03332 0.88188 0.12696 0.0
C67 C 0.16489 0.88156 -0.0111 0.0
C68 C 0.1648 0.14865 -0.01179 0.0
C69 C 0.91472 0.88155 -0.00913 0.0
C70 C 0.9147 0.14772 -0.00875 0.0
C71 C 0.91605 0.01672 0.12858 0.0
C72 C 0.16618 0.01681 0.12517 0.0
C73 C 0.91368 0.01816 0.85574 0.0
C74 C 0.16392 1.01515 0.85238 0.0
Eu75 Eu 0.03978 0.11881 -0.00985 0.0
O76 O 0.08627 0.06412 0.04015 0.0
O77 O 0.99396 0.06307 0.94128 0.0
Eu78 Eu 0.13724 1.01505 -0.01097 0.0
Eu79 Eu 0.94232 1.01462 -0.00816 0.0
O80 O 0.0854 0.06414 0.93914 0.0
O81 O 0.99479 0.06322 0.04064 0.0
Eu82 Eu 0.03895 1.01496 0.88361 0.0
Eu83 Eu 0.04075 1.01495 0.09712 0.0
O84 O 0.08528 0.96585 0.93942 0.0
O85 O 0.08616 0.96584 0.04023 0.0
O86 O 0.9946 0.96601 0.04116 0.0
O87 O 0.99375 0.96622 0.94109 0.0
Eu88 Eu 0.03976 0.9109 -0.00953 0.0
O89 O 0.03469 0.16477 0.90737 0.0
O90 O 0.03374 0.16467 0.07289 0.0
O91 O 0.03527 0.86495 0.90782 0.0
O92 O 0.03501 0.86506 0.07343 0.0
O93 O 0.18064 0.93387 -0.01221 0.0
O94 O 0.18058 0.09641 -0.01321 0.0
O95 O 0.89897 0.93366 -0.00685 0.0
O96 O 0.89902 0.09552 -0.00618 0.0
O97 O 0.96515 0.01676 0.14534 0.0
O98 O 0.11733 0.01687 0.1432 0.0
O99 O 0.96247 0.01784 0.8377 0.0
O100 O 0.11481 1.01567 0.83548 0.0
O101 O 0.96369 0.8649 -0.0111 0.0
O102 O 0.1158 0.86498 -0.00952 0.0
O103 O 0.96365 0.16452 -0.01134 0.0
O104 O 0.11573 0.16504 -0.00972 0.0
O105 O 0.03489 0.0957 0.14374 0.0
O106 O 0.03629 0.93402 0.14407 0.0
O107 O 0.03361 0.09575 0.83684 0.0
O108 O 0.03295 0.93403 0.83711 0.0
O109 O 0.17976 1.01452 0.90586 0.0
O110 O 0.1812 1.01569 0.07129 0.0
O111 O 0.89857 1.01636 0.90955 0.0
O112 O 0.90007 1.0153 0.07519 0.0
C113 C 0.99261 0.36143 0.37799 0.0
C114 C 0.94021 0.37309 0.38561 0.0
C115 C 1.00951 0.32986 0.33223 0.0
C116 C 0.97302 0.30935 0.29333 0.0
C117 C 0.9204 0.32374 0.29892 0.0
C118 C 0.90459 0.35568 0.34508 0.0
C119 C 0.06599 0.31582 0.32743 0.0
C120 C 0.88039 0.3027 0.25815 0.0
C121 C 1.0205 0.24585 0.15645 0.0
C122 C 1.0199 0.18966 0.16994 0.0
C123 C 1.00546 0.28546 0.19617 0.0
C124 C 0.98925 0.26843 0.25049 0.0
C125 C 0.98904 0.21192 0.26456 0.0
C126 C 1.00448 0.1733 0.22423 0.0
C127 C 1.00631 0.3454 0.17984 0.0
C128 C 0.9716 0.19206 0.32197 0.0
H129 H 1.02024 0.37555 0.40901 0.0
H130 H 0.86403 0.3645 0.35111 0.0
H131 H 0.0715 0.27144 0.33618 0.0
H132 H 0.08013 0.32376 0.28396 0.0
H133 H 0.08995 0.33964 0.3575 0.0
H134 H 0.84234 0.32258 0.26457 0.0
H135 H 0.89293 0.30977 0.21395 0.0
H136 H 0.87565 0.25773 0.26385 0.0
H137 H 0.03223 0.25899 0.11462 0.0
H138 H 1.00321 0.13007 0.23505 0.0
H139 H 0.03054 0.36892 0.20979 0.0
H140 H 0.96681 0.36256 0.18237 0.0
H141 H 1.02135 0.35199 0.13642 0.0
H142 H 0.99434 0.21239 0.35556 0.0
H143 H 0.97561 0.1469 0.32685 0.0
H144 H 0.93061 0.20312 0.32874 0.0
C145 C 0.69684 0.09561 0.34985 0.0
C146 C 0.68716 0.05301 0.38829 0.0
C147 C 0.7315 0.08838 0.30493 0.0
C148 C 0.75676 0.03728 0.29836 0.0
C149 C 0.74505 0.99328 0.33532 0.0
C150 C 0.7104 1.00171 0.37991 0.0
C151 C 0.74302 0.13624 0.26628 0.0
C152 C 0.77094 0.93808 0.3294 0.0
C153 C 0.82424 1.00745 0.15958 0.0
C154 C 0.87566 0.01998 0.17265 0.0
C155 C 0.78515 1.01252 0.20016 0.0
C156 C 0.79771 0.03083 0.25502 0.0
C157 C 0.84954 0.04313 0.26867 0.0
C158 C 0.88792 0.03742 0.22735 0.0
C159 C 0.73037 0.99871 0.1842 0.0
C160 C 0.86439 0.06312 0.3267 0.0
H161 H 0.67941 0.13549 0.35661 0.0
H162 H 0.70262 0.96862 0.40941 0.0
H163 H 0.7834 0.1499 0.27251 0.0
H164 H 0.73918 0.1237 0.22151 0.0
H165 H 0.7171 0.17168 0.27418 0.0
H166 H 0.75462 0.90699 0.3588 0.0
H167 H 0.76704 0.9227 0.28558 0.0
H168 H 0.81272 0.94235 0.33813 0.0
H169 H 0.81439 0.99362 0.11752 0.0
H170 H 0.92742 0.04769 0.23772 0.0
H171 H 0.7057 0.0356 0.18885 0.0
H172 H 0.71479 0.96679 0.21304 0.0
H173 H 0.72724 0.98363 0.14013 0.0
H174 H 0.84563 0.10318 0.33518 0.0
H175 H 0.90669 0.06826 0.33129 0.0
H176 H 0.85068 0.03381 0.35936 0.0
C177 C 0.99679 0.66457 0.37797 0.0
C178 C 0.94404 0.65569 0.38676 0.0
C179 C 1.01429 0.6959 0.33212 0.0
C180 C 0.97803 0.71938 0.29473 0.0
C181 C 0.92485 0.70802 0.3017 0.0
C182 C 0.90848 0.67597 0.34763 0.0
C183 C 0.07133 0.70631 0.3255 0.0
C184 C 0.88503 0.73253 0.26277 0.0
C185 C 1.01259 0.85527 0.22644 0.0
C186 C 0.0237 0.83954 0.17079 0.0
C187 C 0.9982 0.81639 0.26716 0.0
C188 C 0.9952 0.76026 0.25212 0.0
C189 C 1.00777 0.74375 0.1966 0.0
C190 C 1.02176 0.7836 0.15651 0.0
C191 C 0.98492 0.83562 0.32602 0.0
C192 C 1.00534 0.68418 0.17924 0.0
H193 H 0.02427 0.64831 0.40804 0.0
H194 H 0.86766 0.66932 0.3547 0.0
H195 H 0.08359 0.69891 0.28129 0.0
H196 H 0.07989 0.74989 0.33534 0.0
H197 H 0.09465 0.67991 0.35391 0.0
H198 H 0.8459 0.71568 0.27076 0.0
H199 H 0.88381 0.7777 0.26873 0.0
H200 H 0.89545 0.72484 0.21806 0.0
H201 H 1.01371 0.89826 0.23807 0.0
H202 H 0.03033 0.77086 0.11372 0.0
H203 H 1.00959 0.81448 0.3574 0.0
H204 H 0.94435 0.82493 0.33602 0.0
H205 H 0.98989 0.88066 0.33107 0.0
H206 H 0.02842 0.6586 0.20854 0.0
H207 H 1.01971 0.67767 0.13557 0.0
H208 H 0.96498 0.66936 0.18173 0.0
C209 C 0.37426 0.99712 0.37325 0.0
C210 C 0.39582 0.04891 0.38374 0.0
C211 C 0.34043 0.98898 0.32797 0.0
C212 C 0.32761 0.03385 0.29268 0.0
C213 C 0.3514 0.08552 0.30129 0.0
C214 C 0.3854 0.09239 0.34669 0.0
C215 C 0.31643 0.93307 0.31968 0.0
C216 C 0.33865 0.13439 0.26462 0.0
C217 C 0.25889 1.00903 0.15364 0.0
C218 C 0.20735 0.01933 0.16841 0.0
C219 C 0.29844 1.01297 0.19372 0.0
C220 C 0.28626 0.02796 0.2498 0.0
C221 C 0.23436 0.03799 0.26513 0.0
C222 C 0.19554 0.03334 0.22435 0.0
C223 C 0.35327 1.00144 0.17599 0.0
C224 C 0.21987 0.05431 0.32455 0.0
H225 H 0.38262 0.96335 0.40165 0.0
H226 H 0.40156 0.13262 0.35505 0.0
H227 H 0.27473 0.93502 0.32985 0.0
H228 H 0.31994 0.92013 0.27498 0.0
H229 H 0.33444 0.9013 0.34689 0.0
H230 H 0.36376 0.17026 0.27368 0.0
H231 H 0.34262 0.12364 0.21936 0.0
H232 H 0.29799 0.14657 0.27178 0.0
H233 H 0.2685 0.9978 0.11066 0.0
H234 H 0.15598 0.04165 0.23623 0.0
H235 H 0.36976 0.96843 0.2027 0.0
H236 H 0.37731 0.03861 0.18227 0.0
H237 H 0.35615 0.98882 0.13107 0.0
H238 H 0.23246 0.02221 0.35477 0.0
H239 H 0.17773 0.06052 0.32966 0.0
H240 H 0.23991 0.09293 0.33614 0.0
C241 C 0.99595 0.66468 0.60467 0.0
C242 C 0.94336 0.65457 0.59628 0.0
C243 C 1.01292 0.69604 0.65052 0.0
C244 C 0.97632 0.71815 0.68849 0.0
C245 C 0.92342 0.70528 0.68214 0.0
C246 C 0.90755 0.67336 0.63608 0.0
C247 C 0.06971 0.70813 0.6564 0.0
C248 C 0.88324 0.7282 0.72177 0.0
C249 C 1.02046 0.78334 0.82565 0.0
C250 C 1.02131 0.8393 0.8111 0.0
C251 C 1.00646 0.7432 0.78609 0.0
C252 C 0.99271 0.75945 0.73083 0.0
C253 C 0.99424 0.81565 0.7156 0.0
C254 C 1.00871 0.85481 0.75578 0.0
C255 C 1.00549 0.68359 0.80369 0.0
C256 C 0.97955 0.83464 0.65707 0.0
H257 H 0.02369 0.64952 0.57418 0.0
H258 H 0.86686 0.66577 0.62943 0.0
H259 H 0.07702 0.75204 0.64664 0.0
H260 H 0.08247 0.70077 0.7004 0.0
H261 H 0.09353 0.68268 0.62755 0.0
H262 H 0.84469 0.70962 0.71475 0.0
H263 H 0.89453 0.72122 0.76631 0.0
H264 H 0.8802 0.77324 0.71544 0.0
H265 H 0.03002 0.77075 0.86824 0.0
H266 H 1.00888 0.89782 0.74398 0.0
H267 H 0.02896 0.65864 0.77415 0.0
H268 H 0.96547 0.66772 0.80178 0.0
H269 H 1.02028 0.67744 0.84718 0.0
H270 H 1.00451 0.81457 0.62516 0.0
H271 H 0.98296 0.87985 0.65196 0.0
H272 H 0.93923 0.82247 0.64789 0.0
C273 C 0.38419 0.0892 0.63138 0.0
C274 C 0.39393 0.04673 0.59298 0.0
C275 C 0.34975 0.08168 0.67647 0.0
C276 C 0.32468 0.03041 0.68332 0.0
C277 C 0.33662 0.98646 0.64658 0.0
C278 C 0.37104 0.9952 0.60174 0.0
C279 C 0.33806 0.12952 0.71486 0.0
C280 C 0.31119 0.93099 0.653 0.0
C281 C 0.25579 1.00362 0.8222 0.0
C282 C 0.2046 1.01651 0.80841 0.0
C283 C 0.29519 1.00701 0.78173 0.0
C284 C 0.28324 0.02411 0.72624 0.0
C285 C 0.23161 0.03641 0.71179 0.0
C286 C 0.19288 0.03224 0.75297 0.0
C287 C 0.34968 0.99297 0.79854 0.0
C288 C 0.2174 0.05496 0.65301 0.0
H289 H 0.40133 0.12927 0.62442 0.0
H290 H 0.37891 0.96215 0.57238 0.0
H291 H 0.2976 0.14279 0.7086 0.0
H292 H 0.34203 0.11711 0.75969 0.0
H293 H 0.36379 0.16516 0.70671 0.0
H294 H 0.32836 0.89977 0.62451 0.0
H295 H 0.31442 0.91626 0.69716 0.0
H296 H 0.26955 0.93453 0.64325 0.0
H297 H 0.26524 0.99091 0.86479 0.0
H298 H 0.15356 0.04248 0.74193 0.0
H299 H 0.37449 0.0299 0.79459 0.0
H300 H 0.36564 0.96134 0.76978 0.0
H301 H 0.3521 0.97748 0.84258 0.0
H302 H 0.23812 0.09355 0.64253 0.0
H303 H 0.17538 0.0622 0.64839 0.0
H304 H 0.22942 0.02366 0.62171 0.0
C305 C 0.99317 0.36269 0.6027 0.0
C306 C 0.94064 0.37357 0.59516 0.0
C307 C 1.0103 0.33141 0.64858 0.0
C308 C 0.97391 0.31027 0.6875 0.0
C309 C 0.92113 0.32388 0.68195 0.0
C310 C 0.9051 0.35566 0.63578 0.0
C311 C 0.06695 0.31828 0.65345 0.0
C312 C 0.88121 0.30202 0.72268 0.0
C313 C 1.00589 0.17402 0.75598 0.0
C314 C 1.02043 0.19005 0.81052 0.0
C315 C 0.9907 0.21285 0.71573 0.0
C316 C 0.99035 0.26922 0.73011 0.0
C317 C 1.00579 0.28594 0.78464 0.0
C318 C 1.02054 0.24612 0.8243 0.0
C319 C 0.97403 0.19333 0.65808 0.0
C320 C 1.00593 0.34575 0.80132 0.0
H321 H 1.0207 0.37721 0.57156 0.0
H322 H 0.86445 0.3639 0.62976 0.0
H323 H 0.08067 0.32608 0.697 0.0
H324 H 0.07318 0.27409 0.64446 0.0
H325 H 0.09074 0.34279 0.62357 0.0
H326 H 0.84295 0.32142 0.71634 0.0
H327 H 0.87704 0.25703 0.71681 0.0
H328 H 0.89348 0.30894 0.76689 0.0
H329 H 1.00506 0.13087 0.74491 0.0
H330 H 0.03152 0.25902 0.86632 0.0
H331 H 0.99738 0.21373 0.62482 0.0
H332 H 0.9332 0.20462 0.6508 0.0
H333 H 0.97792 0.14817 0.65319 0.0
H334 H 0.02952 0.36999 0.77113 0.0
H335 H 1.02126 0.35216 0.84454 0.0
H336 H 0.96615 0.36222 0.7996 0.0
C337 C 0.69354 0.09674 0.63542 0.0
C338 C 0.68461 0.0538 0.59737 0.0
C339 C 0.7276 0.09003 0.68081 0.0
C340 C 0.75305 0.03914 0.68822 0.0
C341 C 0.74186 0.99472 0.65183 0.0
C342 C 0.70776 1.00262 0.60679 0.0
C343 C 0.73853 0.13831 0.71885 0.0
C344 C 0.76792 0.93971 0.65865 0.0
C345 C 0.88453 0.03989 0.75768 0.0
C346 C 0.87271 0.02226 0.81258 0.0
C347 C 0.84585 0.04581 0.71696 0.0
C348 C 0.79412 0.03347 0.73135 0.0
C349 C 0.78192 1.01536 0.78652 0.0
C350 C 0.82134 1.01012 0.82655 0.0
C351 C 0.86033 0.0657 0.65861 0.0
C352 C 0.72724 1.00161 0.80327 0.0
H353 H 0.67614 0.13651 0.6279 0.0
H354 H 0.70053 0.96925 0.57762 0.0
H355 H 0.73511 0.126 0.7638 0.0
H356 H 0.77865 0.15266 0.71198 0.0
H357 H 0.71201 0.17321 0.71086 0.0
H358 H 0.75168 0.90815 0.62994 0.0
H359 H 0.80968 0.94402 0.64953 0.0
H360 H 0.76413 0.92493 0.70277 0.0
H361 H 0.92398 0.04996 0.74663 0.0
H362 H 0.81181 0.99626 0.86879 0.0
H363 H 0.83996 0.10466 0.64918 0.0
H364 H 0.84812 0.03521 0.62657 0.0
H365 H 0.90241 0.07279 0.65404 0.0
H366 H 0.7022 0.03801 0.79724 0.0
H367 H 0.72419 0.98799 0.84792 0.0
H368 H 0.71204 0.96855 0.77577 0.0
C369 C 0.38478 0.37522 0.03499 0.0
C370 C 0.3869 0.41304 -0.00975 0.0
C371 C 0.35176 0.32946 0.03317 0.0
C372 C 0.32012 0.32104 0.98535 0.0
C373 C 0.32372 0.3577 0.93901 0.0
C374 C 0.35688 0.40333 0.94211 0.0
C375 C 0.34894 0.29164 0.08364 0.0
C376 C 0.29112 0.34991 0.88698 0.0
C377 C 0.25486 0.18159 0.96756 0.0
C378 C 0.20491 0.19235 -0.01246 0.0
C379 C 0.29266 0.22309 0.96601 0.0
C380 C 0.28051 0.27644 0.98568 0.0
C381 C 0.2303 0.28738 0.00628 0.0
C382 C 0.19312 0.24542 0.0066 0.0
C383 C 0.34549 0.20994 0.94306 0.0
C384 C 0.21582 0.34346 0.02829 0.0
H385 H 0.40721 0.38276 0.07271 0.0
H386 H 0.35861 0.4321 0.9072 0.0
H387 H 0.31047 0.29518 0.10381 0.0
H388 H 0.35364 0.24831 0.07028 0.0
H389 H 0.3788 0.3013 0.11563 0.0
H390 H 0.30168 0.37907 0.85274 0.0
H391 H 0.29513 0.30738 0.87087 0.0
H392 H 0.24994 0.35609 0.89781 0.0
H393 H 0.26428 0.14088 0.95232 0.0
H394 H 0.15483 0.25416 0.02253 0.0
H395 H 0.37502 0.21733 0.97594 0.0
H396 H 0.35462 0.23748 0.90704 0.0
H397 H 0.34863 0.16669 0.92864 0.0
H398 H 0.24165 0.35505 0.06356 0.0
H399 H 0.17535 0.34511 0.04351 0.0
H400 H 0.2209 0.37466 -0.00543 0.0
C401 C 0.38454 0.65496 0.03629 0.0
C402 C 0.38723 0.61795 -0.00896 0.0
C403 C 0.35151 0.70064 0.03464 0.0
C404 C 0.32053 0.70987 -0.01357 0.0
C405 C 0.32481 0.67407 0.93959 0.0
C406 C 0.35787 0.62845 0.94256 0.0
C407 C 0.34792 0.73748 0.08567 0.0
C408 C 0.293 0.68277 0.8871 0.0
C409 C 0.1931 0.78458 0.00645 0.0
C410 C 0.20508 0.83804 -0.01161 0.0
C411 C 0.23036 0.74281 0.00622 0.0
C412 C 0.28088 0.75432 -0.01322 0.0
C413 C 0.29324 0.80808 0.96815 0.0
C414 C 0.25534 0.84937 0.96955 0.0
C415 C 0.21561 0.68627 0.02708 0.0
C416 C 0.34642 0.82191 0.94646 0.0
H417 H 0.40648 0.64678 0.07423 0.0
H418 H 0.36005 0.60027 0.90728 0.0
H419 H 0.3528 0.78108 0.07311 0.0
H420 H 0.30917 0.73342 0.10509 0.0
H421 H 0.37731 0.72729 0.11801 0.0
H422 H 0.30413 0.65434 0.85257 0.0
H423 H 0.25167 0.6762 0.89706 0.0
H424 H 0.2972 0.72563 0.87181 0.0
H425 H 0.15458 0.77537 0.02148 0.0
H426 H 0.26495 0.89038 0.95509 0.0
H427 H 0.24095 0.67409 0.06258 0.0
H428 H 0.22118 0.65573 -0.00706 0.0
H429 H 0.17493 0.68419 0.04159 0.0
H430 H 0.37536 0.81434 0.97991 0.0
H431 H 0.34963 0.86536 0.93251 0.0
H432 H 0.35631 0.79488 0.9104 0.0
C433 C 0.73624 0.40479 0.05182 0.0
C434 C 0.69638 0.41265 0.01293 0.0
C435 C 0.76893 0.35911 0.04821 0.0
C436 C 0.76218 0.32084 0.0039 0.0
C437 C 0.7212 0.32805 0.96509 0.0
C438 C 0.68843 0.37381 0.97036 0.0
C439 C 0.81152 0.35259 0.09103 0.0
C440 C 0.71318 0.28857 0.9169 0.0
C441 C 0.88298 0.2412 0.96486 0.0
C442 C 0.87446 0.19077 -0.00804 0.0
C443 C 0.84583 0.28304 0.96652 0.0
C444 C 0.7995 0.27476 -0.00283 0.0
C445 C 0.79047 0.22365 0.0241 0.0
C446 C 0.82782 0.18205 0.02064 0.0
C447 C 0.85665 0.3365 0.93631 0.0
C448 C 0.74208 0.2135 0.05804 0.0
H449 H 0.74223 0.43502 0.08471 0.0
H450 H 0.65781 0.38034 0.94007 0.0
H451 H 0.80965 0.31124 0.11068 0.0
H452 H 0.8495 0.35616 0.06977 0.0
H453 H 0.80946 0.38396 0.12494 0.0
H454 H 0.67826 0.29851 0.89191 0.0
H455 H 0.74716 0.28966 0.8884 0.0
H456 H 0.70965 0.24597 0.9331 0.0
H457 H 0.91871 0.2479 0.94204 0.0
H458 H 0.82118 0.14324 0.04196 0.0
H459 H 0.86048 0.37011 0.96755 0.0
H460 H 0.82405 0.34715 0.90817 0.0
H461 H 0.89251 0.33478 0.91068 0.0
H462 H 0.74063 0.24231 0.09424 0.0
H463 H 0.73993 0.17083 0.07456 0.0
H464 H 0.70757 0.22147 0.03181 0.0
C465 C 0.73713 0.62335 0.05016 0.0
C466 C 0.69696 0.61559 0.01165 0.0
C467 C 0.76974 0.66917 0.04636 0.0
C468 C 0.76259 0.70768 0.00223 0.0
C469 C 0.72137 0.70051 0.96374 0.0
C470 C 0.68866 0.65462 0.96922 0.0
C471 C 0.81258 0.67567 0.08887 0.0
C472 C 0.71297 0.74023 0.91569 0.0
C473 C 0.8278 0.84667 0.01968 0.0
C474 C 0.8745 0.8384 -0.00891 0.0
C475 C 0.79049 0.80489 0.02276 0.0
C476 C 0.79965 0.75409 -0.0045 0.0
C477 C 0.84599 0.74635 0.9648 0.0
C478 C 0.88311 0.78834 0.96356 0.0
C479 C 0.7421 0.81446 0.05677 0.0
C480 C 0.85687 0.6933 0.93414 0.0
H481 H 0.74335 0.593 0.08298 0.0
H482 H 0.65776 0.64818 0.93925 0.0
H483 H 0.85044 0.67262 0.0673 0.0
H484 H 0.81062 0.71683 0.10876 0.0
H485 H 0.8109 0.64398 0.12261 0.0
H486 H 0.678 0.73015 0.89084 0.0
H487 H 0.7093 0.78269 0.93204 0.0
H488 H 0.74685 0.73961 0.88705 0.0
H489 H 0.82111 0.88523 0.04127 0.0
H490 H 0.91889 0.78204 0.94077 0.0
H491 H 0.74084 0.78546 0.09292 0.0
H492 H 0.70758 0.80632 0.03059 0.0
H493 H 0.73975 0.85703 0.07335 0.0
H494 H 0.86115 0.65942 0.96512 0.0
H495 H 0.89253 0.69562 0.90819 0.0
H496 H 0.82413 0.68259 0.90622 0.0
loop_
_geom_bond_atom_site_label_1
_geom_bond_atom_site_label_2
_geom_bond_distance
_geom_bond_site_symmetry_2
_ccdc_geom_bond_type
H0 C8 0.930 . S
H1 C11 0.930 . S
H2 C13 0.930 . S
H3 C14 0.970 . S
H4 C14 0.970 . S
H5 C16 0.930 . S
H6 C18 0.930 . S
H7 C20 0.930 . S
C8 H0 0.930 . S
C8 C9 1.382 . S
C8 C10 1.426 . S
C9 C8 1.382 . S
C9 C13 1.389 1_655 S
C10 C8 1.426 . S
C10 C11 1.375 . S
C10 C14 1.532 . S
C11 H1 0.930 . S
C11 C10 1.375 . S
C11 C12 1.416 . S
C12 C11 1.416 . S
C12 C13 1.371 1_655 S
C13 H2 0.930 . S
C13 C9 1.389 1_455 S
C13 C12 1.371 1_455 S
C14 H3 0.970 . S
C14 H4 0.970 . S
C14 C10 1.532 . S
C14 C15 1.499 . S
C15 C14 1.499 . S
C15 C16 1.370 . S
C15 C20 1.415 . S
C16 H5 0.930 . S
C16 C15 1.370 . S
C16 C17 1.407 . S
C17 C16 1.407 . S
C17 C18 1.365 1_655 S
C18 H6 0.930 . S
C18 C17 1.365 1_455 S
C18 C19 1.393 1_455 S
C19 C18 1.393 1_655 S
C19 C20 1.387 . S
C20 H7 0.930 . S
C20 C15 1.415 . S
C20 C19 1.387 . S
H21 C29 0.930 . S
H22 C32 0.930 . S
H23 C34 0.933 . S
H24 C35 0.970 . S
H25 C35 0.970 . S
H26 C37 0.930 . S
H27 C39 0.930 . S
H28 C41 0.930 . S
C29 H21 0.930 . S
C29 C30 1.382 . S
C29 C31 1.426 . S
C30 C29 1.382 . S
C30 C34 1.387 1_545 S
C31 C29 1.426 . S
C31 C32 1.375 . S
C31 C35 1.532 . S
C32 H22 0.930 . S
C32 C31 1.375 . S
C32 C33 1.416 . S
C33 C32 1.416 . S
C33 C34 1.370 1_545 S
C34 H23 0.933 . S
C34 C30 1.387 1_565 S
C34 C33 1.370 1_565 S
C35 H24 0.970 . S
C35 H25 0.970 . S
C35 C31 1.532 . S
C35 C36 1.499 . S
C36 C35 1.499 . S
C36 C37 1.370 . S
C36 C41 1.415 . S
C37 H26 0.930 . S
C37 C36 1.370 . S
C37 C38 1.407 . S
C38 C37 1.407 . S
C38 C39 1.365 1_545 S
C39 H27 0.930 . S
C39 C38 1.365 1_565 S
C39 C40 1.393 1_565 S
C40 C39 1.393 1_545 S
C40 C41 1.387 . S
C41 H28 0.930 . S
C41 C36 1.415 . S
C41 C40 1.387 . S
H42 C50 0.930 . S
H43 C53 0.930 . S
H44 C55 0.930 . S
H45 C56 0.970 . S
H46 C56 0.970 . S
H47 C58 0.930 . S
H48 C60 0.930 . S
H49 C62 0.930 . S
C50 H42 0.930 . S
C50 C51 1.382 . S
C50 C52 1.426 . S
C51 C50 1.382 . S
C51 C55 1.389 1_554 S
C52 C50 1.426 . S
C52 C53 1.375 . S
C52 C56 1.532 . S
C53 H43 0.930 . S
C53 C52 1.375 . S
C53 C54 1.416 . S
C54 C53 1.416 . S
C54 C55 1.371 1_554 S
C55 H44 0.930 . S
C55 C51 1.389 1_556 S
C55 C54 1.371 1_556 S
C56 H45 0.970 . S
C56 H46 0.970 . S
C56 C52 1.532 . S
C56 C57 1.499 . S
C57 C56 1.499 . S
C57 C58 1.370 . S
C57 C62 1.415 . S
C58 H47 0.930 . S
C58 C57 1.370 . S
C58 C59 1.407 . S
C59 C58 1.407 . S
C59 C60 1.365 1_554 S
C60 H48 0.930 . S
C60 C59 1.365 1_556 S
C60 C61 1.393 1_556 S
C61 C60 1.393 1_554 S
C61 C62 1.387 . S
C62 H49 0.930 . S
C62 C57 1.415 . S
C62 C61 1.387 . S
C63 O89 1.283 . S
C63 O107 1.283 . S
C64 O90 1.283 . S
C64 O105 1.283 1_455 S
C65 O91 1.283 . S
C65 O108 1.283 . S
C66 O92 1.283 . S
C66 O106 1.283 . S
C67 O93 1.283 . S
C67 O102 1.283 . S
C68 O94 1.283 . S
C68 O104 1.283 . S
C69 O95 1.283 . S
C69 O101 1.283 . S
C70 O96 1.283 . S
C70 O103 1.283 . S
C71 O97 1.283 . S
C71 O112 1.283 . S
C72 O98 1.283 . S
C72 O110 1.283 . S
C73 O99 1.283 . S
C73 O111 1.283 . S
C74 O100 1.283 . S
C74 O109 1.283 . S
Eu75 O76 2.374 . S
Eu75 O77 2.366 1_454 S
Eu75 O80 2.374 1_554 S
Eu75 O81 2.366 1_455 S
Eu75 O89 2.363 1_554 S
Eu75 O90 2.363 . S
Eu75 O103 2.356 1_455 S
Eu75 O104 2.370 . S
O76 Eu75 2.374 . S
O76 Eu78 2.370 . S
O76 Eu83 2.369 1_455 S
O77 Eu75 2.366 1_656 S
O77 Eu79 2.370 1_556 S
O77 Eu82 2.365 1_655 S
Eu78 O76 2.370 . S
Eu78 O80 2.370 1_554 S
Eu78 O84 2.370 1_544 S
Eu78 O85 2.370 1_545 S
Eu78 O93 2.363 1_545 S
Eu78 O94 2.363 . S
Eu78 O109 2.363 1_554 S
Eu78 O110 2.363 . S
Eu79 O77 2.370 1_554 S
Eu79 O81 2.370 . S
Eu79 O86 2.370 1_545 S
Eu79 O87 2.370 1_544 S
Eu79 O95 2.363 1_545 S
Eu79 O96 2.363 . S
Eu79 O111 2.363 1_554 S
Eu79 O112 2.363 . S
O80 Eu75 2.374 1_556 S
O80 Eu78 2.370 1_556 S
O80 Eu82 2.375 . S
O81 Eu75 2.366 1_655 S
O81 Eu79 2.370 . S
O81 Eu83 2.371 . S
Eu82 O77 2.365 1_455 S
Eu82 O80 2.375 . S
Eu82 O84 2.375 1_545 S
Eu82 O87 2.365 1_445 S
Eu82 O99 2.355 1_455 S
Eu82 O100 2.371 . S
Eu82 O107 2.363 . S
Eu82 O108 2.363 1_545 S
Eu83 O76 2.369 1_655 S
Eu83 O81 2.371 . S
Eu83 O85 2.369 1_645 S
Eu83 O86 2.371 1_545 S
Eu83 O97 2.365 . S
Eu83 O98 2.361 1_655 S
Eu83 O105 2.363 . S
Eu83 O106 2.363 1_545 S
O84 Eu78 2.370 1_566 S
O84 Eu82 2.375 1_565 S
O84 Eu88 2.370 1_456 S
O85 Eu78 2.370 1_565 S
O85 Eu83 2.369 1_465 S
O85 Eu88 2.370 1_455 S
O86 Eu79 2.370 1_565 S
O86 Eu83 2.371 1_565 S
O86 Eu88 2.371 . S
O87 Eu79 2.370 1_566 S
O87 Eu82 2.365 1_665 S
O87 Eu88 2.371 1_556 S
Eu88 O84 2.370 1_654 S
Eu88 O85 2.370 1_655 S
Eu88 O86 2.371 . S
Eu88 O87 2.371 1_554 S
Eu88 O91 2.363 1_654 S
Eu88 O92 2.363 . S
Eu88 O101 2.364 . S
Eu88 O102 2.362 1_655 S
O89 C63 1.283 . S
O89 Eu75 2.363 1_556 S
O90 C64 1.283 . S
O90 Eu75 2.363 . S
O91 C65 1.283 . S
O91 Eu88 2.363 1_456 S
O92 C66 1.283 . S
O92 Eu88 2.363 . S
O93 C67 1.283 . S
O93 Eu78 2.363 1_565 S
O94 C68 1.283 . S
O94 Eu78 2.363 . S
O95 C69 1.283 . S
O95 Eu79 2.363 1_565 S
O96 C70 1.283 . S
O96 Eu79 2.363 . S
O97 C71 1.283 . S
O97 Eu83 2.365 . S
O98 C72 1.283 . S
O98 Eu83 2.361 1_455 S
O99 C73 1.283 . S
O99 Eu82 2.355 1_655 S
O100 C74 1.283 . S
O100 Eu82 2.371 . S
O101 C69 1.283 . S
O101 Eu88 2.364 . S
O102 C67 1.283 . S
O102 Eu88 2.362 1_455 S
O103 C70 1.283 . S
O103 Eu75 2.356 1_655 S
O104 C68 1.283 . S
O104 Eu75 2.370 . S
O105 C64 1.283 1_655 S
O105 Eu83 2.363 . S
O106 C66 1.283 . S
O106 Eu83 2.363 1_565 S
O107 C63 1.283 . S
O107 Eu82 2.363 . S
O108 C65 1.283 . S
O108 Eu82 2.363 1_565 S
O109 C74 1.283 . S
O109 Eu78 2.363 1_556 S
O110 C72 1.283 . S
O110 Eu78 2.363 . S
O111 C73 1.283 . S
O111 Eu79 2.363 1_556 S
O112 C71 1.283 . S
O112 Eu79 2.363 . S
C113 C114 1.391 1_455 S
C113 C115 1.394 . S
C113 H129 0.931 . S
C114 C113 1.391 1_655 S
C114 C118 1.376 . S
C115 C113 1.394 . S
C115 C116 1.369 . S
C115 C119 1.531 . S
C116 C115 1.369 . S
C116 C117 1.410 1_455 S
C116 C124 1.503 . S
C117 C116 1.410 1_655 S
C117 C118 1.392 . S
C117 C120 1.511 . S
C118 C114 1.376 . S
C118 C117 1.392 . S
C118 H130 0.929 . S
C119 C115 1.531 . S
C119 H131 0.960 . S
C119 H132 0.962 . S
C119 H133 0.960 . S
C120 C117 1.511 . S
C120 H134 0.961 . S
C120 H135 0.961 . S
C120 H136 0.961 . S
C121 C122 1.370 1_655 S
C121 C123 1.363 . S
C121 H137 0.931 . S
C122 C121 1.370 1_455 S
C122 C126 1.409 . S
C123 C121 1.363 . S
C123 C124 1.370 1_655 S
C123 C127 1.524 . S
C124 C116 1.503 . S
C124 C123 1.370 1_455 S
C124 C125 1.403 . S
C125 C124 1.403 . S
C125 C126 1.404 . S
C125 C128 1.539 . S
C126 C122 1.409 . S
C126 C125 1.404 . S
C126 H138 0.930 . S
C127 C123 1.524 . S
C127 H139 0.963 . S
C127 H140 0.961 . S
C127 H141 0.961 . S
C128 C125 1.539 . S
C128 H142 0.958 . S
C128 H143 0.961 . S
C128 H144 0.960 . S
H129 C113 0.931 . S
H130 C118 0.929 . S
H131 C119 0.960 . S
H132 C119 0.962 . S
H133 C119 0.960 . S
H134 C120 0.961 . S
H135 C120 0.961 . S
H136 C120 0.961 . S
H137 C121 0.931 . S
H138 C126 0.930 . S
H139 C127 0.963 . S
H140 C127 0.961 . S
H141 C127 0.961 . S
H142 C128 0.958 . S
H143 C128 0.961 . S
H144 C128 0.960 . S
C145 C146 1.391 . S
C145 C147 1.394 . S
C145 H161 0.931 . S
C146 C145 1.391 . S
C146 C150 1.376 1_565 S
C147 C145 1.394 . S
C147 C148 1.369 . S
C147 C151 1.531 . S
C148 C147 1.369 . S
C148 C149 1.410 1_565 S
C148 C156 1.503 . S
C149 C148 1.410 1_545 S
C149 C150 1.392 . S
C149 C152 1.511 . S
C150 C146 1.376 1_545 S
C150 C149 1.392 . S
C150 H162 0.929 . S
C151 C147 1.531 . S
C151 H163 0.960 . S
C151 H164 0.962 . S
C151 H165 0.960 . S
C152 C149 1.511 . S
C152 H166 0.961 . S
C152 H167 0.961 . S
C152 H168 0.961 1_545 S
C153 C154 1.370 . S
C153 C155 1.363 . S
C153 H169 0.931 . S
C154 C153 1.370 . S
C154 C158 1.408 1_545 S
C155 C153 1.363 . S
C155 C156 1.370 1_545 S
C155 C159 1.524 . S
C156 C148 1.503 . S
C156 C155 1.370 1_565 S
C156 C157 1.403 . S
C157 C156 1.403 . S
C157 C158 1.404 . S
C157 C160 1.539 . S
C158 C154 1.408 1_565 S
C158 C157 1.404 . S
C158 H170 0.930 . S
C159 C155 1.524 . S
C159 H171 0.956 . S
C159 H172 0.961 . S
C159 H173 0.961 . S
C160 C157 1.539 . S
C160 H174 0.958 . S
C160 H175 0.961 . S
C160 H176 0.960 . S
H161 C145 0.931 . S
H162 C150 0.929 . S
H163 C151 0.960 . S
H164 C151 0.962 . S
H165 C151 0.960 . S
H166 C152 0.961 . S
H167 C152 0.961 . S
H168 C152 0.961 1_565 S
H169 C153 0.931 . S
H170 C158 0.930 . S
H171 C159 0.956 . S
H172 C159 0.961 . S
H173 C159 0.961 . S
H174 C160 0.958 . S
H175 C160 0.961 . S
H176 C160 0.960 . S
C177 C178 1.393 . S
C177 C179 1.394 . S
C177 H193 0.931 . S
C178 C177 1.393 . S
C178 C182 1.376 . S
C179 C177 1.394 . S
C179 C180 1.369 . S
C179 C183 1.531 . S
C180 C179 1.369 . S
C180 C181 1.410 . S
C180 C188 1.503 . S
C181 C180 1.410 . S
C181 C182 1.392 . S
C181 C184 1.511 . S
C182 C178 1.376 . S
C182 C181 1.392 . S
C182 H194 0.929 1_655 S
C183 C179 1.531 . S
C183 H195 0.960 . S
C183 H196 0.962 1_655 S
C183 H197 0.960 . S
C184 C181 1.511 . S
C184 H198 0.961 1_655 S
C184 H199 0.961 1_655 S
C184 H200 0.961 . S
C185 C186 1.370 1_455 S
C185 C187 1.363 . S
C185 H201 0.931 . S
C186 C185 1.370 1_655 S
C186 C190 1.408 . S
C187 C185 1.363 . S
C187 C188 1.370 1_455 S
C187 C191 1.524 . S
C188 C180 1.503 . S
C188 C187 1.370 1_655 S
C188 C189 1.403 . S
C189 C188 1.403 . S
C189 C190 1.404 . S
C189 C192 1.539 . S
C190 C186 1.408 . S
C190 C189 1.404 . S
C190 H202 0.930 . S
C191 C187 1.524 . S
C191 H203 0.956 . S
C191 H204 0.961 . S
C191 H205 0.961 . S
C192 C189 1.539 . S
C192 H206 0.958 . S
C192 H207 0.961 . S
C192 H208 0.960 . S
H193 C177 0.931 . S
H194 C182 0.929 1_455 S
H195 C183 0.960 . S
H196 C183 0.962 1_455 S
H197 C183 0.960 . S
H198 C184 0.961 1_455 S
H199 C184 0.961 1_455 S
H200 C184 0.961 . S
H201 C185 0.931 . S
H202 C190 0.930 . S
H203 C191 0.956 . S
H204 C191 0.961 . S
H205 C191 0.961 . S
H206 C192 0.958 . S
H207 C192 0.961 . S
H208 C192 0.960 . S
C209 C210 1.391 1_565 S
C209 C211 1.394 . S
C209 H225 0.931 . S
C210 C209 1.391 1_545 S
C210 C214 1.376 . S
C211 C209 1.394 . S
C211 C212 1.369 1_565 S
C211 C215 1.531 . S
C212 C211 1.369 1_545 S
C212 C213 1.410 . S
C212 C220 1.503 . S
C213 C212 1.410 . S
C213 C214 1.392 . S
C213 C216 1.511 . S
C214 C210 1.376 . S
C214 C213 1.392 . S
C214 H226 0.929 . S
C215 C211 1.531 . S
C215 H227 0.960 . S
C215 H228 0.962 . S
C215 H229 0.960 . S
C216 C213 1.511 . S
C216 H230 0.961 . S
C216 H231 0.961 . S
C216 H232 0.961 . S
C217 C218 1.370 . S
C217 C219 1.363 . S
C217 H233 0.931 . S
C218 C217 1.370 . S
C218 C222 1.408 1_545 S
C219 C217 1.363 . S
C219 C220 1.370 . S
C219 C223 1.524 . S
C220 C212 1.503 . S
C220 C219 1.370 . S
C220 C221 1.403 1_545 S
C221 C220 1.403 1_565 S
C221 C222 1.404 . S
C221 C224 1.539 . S
C222 C218 1.408 1_565 S
C222 C221 1.404 . S
C222 H234 0.930 . S
C223 C219 1.524 . S
C223 H235 0.956 . S
C223 H236 0.961 . S
C223 H237 0.961 . S
C224 C221 1.539 . S
C224 H238 0.958 . S
C224 H239 0.961 . S
C224 H240 0.960 . S
H225 C209 0.931 . S
H226 C214 0.929 . S
H227 C215 0.960 . S
H228 C215 0.962 . S
H229 C215 0.960 . S
H230 C216 0.961 . S
H231 C216 0.961 . S
H232 C216 0.961 . S
H233 C217 0.931 . S
H234 C222 0.930 . S
H235 C223 0.956 . S
H236 C223 0.961 . S
H237 C223 0.961 . S
H238 C224 0.958 . S
H239 C224 0.961 . S
H240 C224 0.960 . S
C241 C242 1.391 1_455 S
C241 C243 1.394 . S
C241 H257 0.931 . S
C242 C241 1.391 1_655 S
C242 C246 1.376 . S
C243 C241 1.394 . S
C243 C244 1.369 1_455 S
C243 C247 1.531 . S
C244 C243 1.369 1_655 S
C244 C245 1.410 . S
C244 C252 1.503 . S
C245 C244 1.410 . S
C245 C246 1.392 . S
C245 C248 1.511 . S
C246 C242 1.376 . S
C246 C245 1.392 . S
C246 H258 0.929 . S
C247 C243 1.531 . S
C247 H259 0.960 . S
C247 H260 0.962 . S
C247 H261 0.960 . S
C248 C245 1.511 . S
C248 H262 0.961 . S
C248 H263 0.961 . S
C248 H264 0.961 . S
C249 C250 1.365 1_455 S
C249 C251 1.363 . S
C249 H265 0.931 . S
C250 C249 1.365 1_655 S
C250 C254 1.414 . S
C251 C249 1.363 . S
C251 C252 1.370 1_455 S
C251 C255 1.524 . S
C252 C244 1.503 . S
C252 C251 1.370 1_655 S
C252 C253 1.403 . S
C253 C252 1.403 . S
C253 C254 1.404 . S
C253 C256 1.539 . S
C254 C250 1.414 . S
C254 C253 1.404 . S
C254 H266 0.930 . S
C255 C251 1.524 . S
C255 H267 0.956 . S
C255 H268 0.961 1_455 S
C255 H269 0.961 . S
C256 C253 1.539 . S
C256 H270 0.958 . S
C256 H271 0.961 . S
C256 H272 0.960 . S
H257 C241 0.931 . S
H258 C246 0.929 . S
H259 C247 0.960 . S
H260 C247 0.962 . S
H261 C247 0.960 . S
H262 C248 0.961 . S
H263 C248 0.961 . S
H264 C248 0.961 . S
H265 C249 0.931 . S
H266 C254 0.930 . S
H267 C255 0.956 . S
H268 C255 0.961 1_655 S
H269 C255 0.961 . S
H270 C256 0.958 . S
H271 C256 0.961 . S
H272 C256 0.960 . S
C273 C274 1.391 . S
C273 C275 1.394 . S
C273 H289 0.931 . S
C274 C273 1.391 . S
C274 C278 1.376 . S
C275 C273 1.394 . S
C275 C276 1.369 . S
C275 C279 1.531 . S
C276 C275 1.369 . S
C276 C277 1.410 . S
C276 C284 1.503 . S
C277 C276 1.410 . S
C277 C278 1.392 . S
C277 C280 1.511 . S
C278 C274 1.376 . S
C278 C277 1.392 . S
C278 H290 0.928 1_565 S
C279 C275 1.531 . S
C279 H291 0.960 . S
C279 H292 0.962 1_565 S
C279 H293 0.960 . S
C280 C277 1.511 . S
C280 H294 0.961 1_565 S
C280 H295 0.961 1_565 S
C280 H296 0.961 . S
C281 C282 1.370 . S
C281 C283 1.363 . S
C281 H297 0.931 . S
C282 C281 1.370 . S
C282 C286 1.408 1_545 S
C283 C281 1.363 . S
C283 C284 1.370 1_545 S
C283 C287 1.524 . S
C284 C276 1.503 . S
C284 C283 1.370 1_565 S
C284 C285 1.403 . S
C285 C284 1.403 . S
C285 C286 1.404 . S
C285 C288 1.539 . S
C286 C282 1.408 1_565 S
C286 C285 1.404 . S
C286 H298 0.930 . S
C287 C283 1.524 . S
C287 H299 0.956 . S
C287 H300 0.961 . S
C287 H301 0.961 . S
C288 C285 1.539 . S
C288 H302 0.958 . S
C288 H303 0.961 . S
C288 H304 0.960 . S
H289 C273 0.931 . S
H290 C278 0.928 1_545 S
H291 C279 0.960 . S
H292 C279 0.962 1_545 S
H293 C279 0.960 . S
H294 C280 0.961 1_545 S
H295 C280 0.961 1_545 S
H296 C280 0.961 . S
H297 C281 0.931 . S
H298 C286 0.930 . S
H299 C287 0.956 . S
H300 C287 0.961 . S
H301 C287 0.961 . S
H302 C288 0.958 . S
H303 C288 0.961 . S
H304 C288 0.960 . S
C305 C306 1.391 . S
C305 C307 1.394 . S
C305 H321 0.931 . S
C306 C305 1.391 . S
C306 C310 1.376 1_455 S
C307 C305 1.394 . S
C307 C308 1.369 1_455 S
C307 C311 1.531 . S
C308 C307 1.369 1_655 S
C308 C309 1.410 . S
C308 C316 1.503 . S
C309 C308 1.410 . S
C309 C310 1.392 . S
C309 C312 1.511 . S
C310 C306 1.376 1_655 S
C310 C309 1.392 . S
C310 H322 0.929 . S
C311 C307 1.531 . S
C311 H323 0.960 . S
C311 H324 0.962 . S
C311 H325 0.960 . S
C312 C309 1.511 . S
C312 H326 0.961 . S
C312 H327 0.961 . S
C312 H328 0.961 . S
C313 C314 1.367 1_455 S
C313 C315 1.363 . S
C313 H329 0.931 . S
C314 C313 1.367 1_655 S
C314 C318 1.412 . S
C315 C313 1.363 . S
C315 C316 1.370 1_455 S
C315 C319 1.524 . S
C316 C308 1.503 . S
C316 C315 1.370 1_655 S
C316 C317 1.403 . S
C317 C316 1.403 . S
C317 C318 1.404 . S
C317 C320 1.539 . S
C318 C314 1.412 . S
C318 C317 1.404 . S
C318 H330 0.930 . S
C319 C315 1.524 . S
C319 H331 0.956 . S
C319 H332 0.961 . S
C319 H333 0.961 . S
C320 C317 1.539 . S
C320 H334 0.958 . S
C320 H335 0.961 . S
C320 H336 0.960 . S
H321 C305 0.931 . S
H322 C310 0.929 . S
H323 C311 0.960 . S
H324 C311 0.962 . S
H325 C311 0.960 . S
H326 C312 0.961 . S
H327 C312 0.961 . S
H328 C312 0.961 . S
H329 C313 0.931 . S
H330 C318 0.930 . S
H331 C319 0.956 . S
H332 C319 0.961 . S
H333 C319 0.961 . S
H334 C320 0.958 . S
H335 C320 0.961 . S
H336 C320 0.960 . S
C337 C338 1.391 . S
C337 C339 1.394 . S
C337 H353 0.931 . S
C338 C337 1.391 . S
C338 C342 1.376 . S
C339 C337 1.394 . S
C339 C340 1.369 . S
C339 C343 1.531 . S
C340 C339 1.369 . S
C340 C341 1.410 . S
C340 C348 1.503 . S
C341 C340 1.410 . S
C341 C342 1.392 . S
C341 C344 1.511 1_545 S
C342 C338 1.376 . S
C342 C341 1.392 . S
C342 H354 0.929 1_545 S
C343 C339 1.531 . S
C343 H355 0.960 . S
C343 H356 0.962 . S
C343 H357 0.960 . S
C344 C341 1.511 1_565 S
C344 H358 0.961 . S
C344 H359 0.961 . S
C344 H360 0.961 1_565 S
C345 C346 1.370 1_565 S
C345 C347 1.363 . S
C345 H361 0.931 . S
C346 C345 1.370 1_545 S
C346 C350 1.408 . S
C347 C345 1.363 . S
C347 C348 1.370 1_565 S
C347 C351 1.524 . S
C348 C340 1.503 . S
C348 C347 1.370 1_545 S
C348 C349 1.403 . S
C349 C348 1.403 . S
C349 C350 1.404 . S
C349 C352 1.539 . S
C350 C346 1.408 . S
C350 C349 1.404 . S
C350 H362 0.930 . S
C351 C347 1.524 . S
C351 H363 0.956 . S
C351 H364 0.961 . S
C351 H365 0.961 . S
C352 C349 1.539 . S
C352 H366 0.958 . S
C352 H367 0.961 . S
C352 H368 0.960 . S
H353 C337 0.931 . S
H354 C342 0.929 1_565 S
H355 C343 0.960 . S
H356 C343 0.962 . S
H357 C343 0.960 . S
H358 C344 0.961 . S
H359 C344 0.961 . S
H360 C344 0.961 1_545 S
H361 C345 0.931 . S
H362 C350 0.930 . S
H363 C351 0.956 . S
H364 C351 0.961 . S
H365 C351 0.961 . S
H366 C352 0.958 . S
H367 C352 0.961 . S
H368 C352 0.960 . S
C369 C370 1.397 . S
C369 C371 1.394 . S
C369 H385 0.931 . S
C370 C369 1.397 . S
C370 C374 1.370 1_554 S
C371 C369 1.394 . S
C371 C372 1.369 . S
C371 C375 1.531 . S
C372 C371 1.369 . S
C372 C373 1.410 1_554 S
C372 C380 1.503 . S
C373 C372 1.410 1_556 S
C373 C374 1.392 . S
C373 C376 1.511 . S
C374 C370 1.370 1_556 S
C374 C373 1.392 . S
C374 H386 0.929 . S
C375 C371 1.531 . S
C375 H387 0.960 . S
C375 H388 0.962 . S
C375 H389 0.960 . S
C376 C373 1.511 . S
C376 H390 0.961 . S
C376 H391 0.961 . S
C376 H392 0.961 . S
C377 C378 1.370 1_556 S
C377 C379 1.363 . S
C377 H393 0.931 . S
C378 C377 1.370 1_554 S
C378 C382 1.408 . S
C379 C377 1.363 . S
C379 C380 1.370 1_556 S
C379 C383 1.524 . S
C380 C372 1.503 . S
C380 C379 1.370 1_554 S
C380 C381 1.403 . S
C381 C380 1.403 . S
C381 C382 1.404 . S
C381 C384 1.539 . S
C382 C378 1.408 . S
C382 C381 1.404 . S
C382 H394 0.930 . S
C383 C379 1.524 . S
C383 H395 0.956 1_556 S
C383 H396 0.961 . S
C383 H397 0.961 . S
C384 C381 1.539 . S
C384 H398 0.958 . S
C384 H399 0.961 . S
C384 H400 0.960 . S
H385 C369 0.931 . S
H386 C374 0.929 . S
H387 C375 0.960 . S
H388 C375 0.962 . S
H389 C375 0.960 . S
H390 C376 0.961 . S
H391 C376 0.961 . S
H392 C376 0.961 . S
H393 C377 0.931 . S
H394 C382 0.930 . S
H395 C383 0.956 1_554 S
H396 C383 0.961 . S
H397 C383 0.961 . S
H398 C384 0.958 . S
H399 C384 0.961 . S
H400 C384 0.960 . S
C401 C402 1.391 . S
C401 C403 1.394 . S
C401 H417 0.931 . S
C402 C401 1.391 . S
C402 C406 1.376 1_554 S
C403 C401 1.394 . S
C403 C404 1.369 . S
C403 C407 1.531 . S
C404 C403 1.369 . S
C404 C405 1.410 1_554 S
C404 C412 1.503 . S
C405 C404 1.410 1_556 S
C405 C406 1.392 . S
C405 C408 1.511 . S
C406 C402 1.376 1_556 S
C406 C405 1.392 . S
C406 H418 0.929 . S
C407 C403 1.531 . S
C407 H419 0.960 . S
C407 H420 0.962 . S
C407 H421 0.960 . S
C408 C405 1.511 . S
C408 H422 0.961 . S
C408 H423 0.961 . S
C408 H424 0.961 . S
C409 C410 1.370 1_556 S
C409 C411 1.363 . S
C409 H425 0.931 . S
C410 C409 1.370 1_554 S
C410 C414 1.408 . S
C411 C409 1.363 . S
C411 C412 1.370 1_556 S
C411 C415 1.524 . S
C412 C404 1.503 . S
C412 C411 1.370 1_554 S
C412 C413 1.403 . S
C413 C412 1.403 . S
C413 C414 1.404 . S
C413 C416 1.539 . S
C414 C410 1.408 . S
C414 C413 1.404 . S
C414 H426 0.930 . S
C415 C411 1.524 . S
C415 H427 0.956 . S
C415 H428 0.961 . S
C415 H429 0.961 . S
C416 C413 1.539 . S
C416 H430 0.958 . S
C416 H431 0.961 . S
C416 H432 0.960 . S
H417 C401 0.931 . S
H418 C406 0.929 . S
H419 C407 0.960 . S
H420 C407 0.962 . S
H421 C407 0.960 . S
H422 C408 0.961 . S
H423 C408 0.961 . S
H424 C408 0.961 . S
H425 C409 0.931 . S
H426 C414 0.930 . S
H427 C415 0.956 . S
H428 C415 0.961 . S
H429 C415 0.961 . S
H430 C416 0.958 . S
H431 C416 0.961 . S
H432 C416 0.960 . S
C433 C434 1.391 . S
C433 C435 1.394 . S
C433 H449 0.931 . S
C434 C433 1.391 . S
C434 C438 1.376 . S
C435 C433 1.394 . S
C435 C436 1.369 . S
C435 C439 1.531 . S
C436 C435 1.369 . S
C436 C437 1.410 . S
C436 C444 1.503 . S
C437 C436 1.410 . S
C437 C438 1.392 . S
C437 C440 1.511 . S
C438 C434 1.376 . S
C438 C437 1.392 . S
C438 H450 0.929 . S
C439 C435 1.531 . S
C439 H451 0.960 . S
C439 H452 0.962 1_554 S
C439 H453 0.960 . S
C440 C437 1.511 . S
C440 H454 0.961 1_554 S
C440 H455 0.961 1_554 S
C440 H456 0.961 . S
C441 C442 1.370 1_556 S
C441 C443 1.363 . S
C441 H457 0.931 . S
C442 C441 1.370 1_554 S
C442 C446 1.408 . S
C443 C441 1.363 . S
C443 C444 1.370 1_556 S
C443 C447 1.524 . S
C444 C436 1.503 . S
C444 C443 1.370 1_554 S
C444 C445 1.403 . S
C445 C444 1.403 . S
C445 C446 1.404 . S
C445 C448 1.539 . S
C446 C442 1.408 . S
C446 C445 1.404 . S
C446 H458 0.930 . S
C447 C443 1.524 . S
C447 H459 0.956 . S
C447 H460 0.961 . S
C447 H461 0.961 . S
C448 C445 1.539 . S
C448 H462 0.958 . S
C448 H463 0.961 . S
C448 H464 0.960 . S
H449 C433 0.931 . S
H450 C438 0.929 . S
H451 C439 0.960 . S
H452 C439 0.962 1_556 S
H453 C439 0.960 . S
H454 C440 0.961 1_556 S
H455 C440 0.961 1_556 S
H456 C440 0.961 . S
H457 C441 0.931 . S
H458 C446 0.930 . S
H459 C447 0.956 . S
H460 C447 0.961 . S
H461 C447 0.961 . S
H462 C448 0.958 . S
H463 C448 0.961 . S
H464 C448 0.960 . S
C465 C466 1.391 1_554 S
C465 C467 1.394 . S
C465 H481 0.931 . S
C466 C465 1.391 1_556 S
C466 C470 1.376 . S
C467 C465 1.394 . S
C467 C468 1.369 1_554 S
C467 C471 1.531 . S
C468 C467 1.369 1_556 S
C468 C469 1.410 . S
C468 C476 1.503 . S
C469 C468 1.410 . S
C469 C470 1.392 . S
C469 C472 1.511 . S
C470 C466 1.376 . S
C470 C469 1.392 . S
C470 H482 0.929 . S
C471 C467 1.531 . S
C471 H483 0.960 . S
C471 H484 0.962 . S
C471 H485 0.960 . S
C472 C469 1.511 . S
C472 H486 0.961 . S
C472 H487 0.961 . S
C472 H488 0.961 . S
C473 C474 1.370 . S
C473 C475 1.363 . S
C473 H489 0.931 . S
C474 C473 1.370 . S
C474 C478 1.408 1_554 S
C475 C473 1.363 . S
C475 C476 1.370 1_554 S
C475 C479 1.524 . S
C476 C468 1.503 . S
C476 C475 1.370 1_556 S
C476 C477 1.403 . S
C477 C476 1.403 . S
C477 C478 1.404 . S
C477 C480 1.539 . S
C478 C474 1.408 1_556 S
C478 C477 1.404 . S
C478 H490 0.930 . S
C479 C475 1.524 . S
C479 H491 0.956 . S
C479 H492 0.961 . S
C479 H493 0.961 . S
C480 C477 1.539 . S
C480 H494 0.958 . S
C480 H495 0.961 . S
C480 H496 0.960 . S
H481 C465 0.931 . S
H482 C470 0.929 . S
H483 C471 0.960 . S
H484 C471 0.962 . S
H485 C471 0.960 . S
H486 C472 0.961 . S
H487 C472 0.961 . S
H488 C472 0.961 . S
H489 C473 0.931 . S
H490 C478 0.930 . S
H491 C479 0.956 . S
H492 C479 0.961 . S
H493 C479 0.961 . S
H494 C480 0.958 . S
H495 C480 0.961 . S
H496 C480 0.960 . S
C122 C64 1.194 . S
C114 C9 1.153 . S
C154 C71 1.557 . S
C146 C38 1.522 1_565 S
C186 C66 1.211 . S
C178 C17 1.147 . S
C218 C72 1.541 . S
C210 C30 1.478 . S
C242 C19 1.141 . S
C250 C65 1.185 1_655 S
C282 C74 1.553 . S
C274 C33 1.509 1_565 S
C306 C12 1.164 1_455 S
C314 C63 1.207 1_655 S
C338 C40 1.484 . S
C346 C73 1.530 . S
C370 C59 1.852 . S
C378 C68 1.928 . S
C402 C61 1.870 . S
C410 C67 1.902 . S
C442 C70 1.911 . S
C434 C51 1.855 . S
C474 C69 1.925 . S
C466 C54 1.860 1_556 S
