# Generated by pormake.
# Topology pyr, (3,6)-cn, num edge types: 1
# Building blocks:
#     Node 0, Type 0, BuildingBlock: ESEHIV_clean_linker_0, # of connection points: 3
#     Node 1, Type 0, BuildingBlock: ESEHIV_clean_linker_0, # of connection points: 3
#     Node 2, Type 0, BuildingBlock: ESEHIV_clean_linker_0, # of connection points: 3
#     Node 3, Type 0, BuildingBlock: ESEHIV_clean_linker_0, # of connection points: 3
#     Node 4, Type 0, BuildingBlock: ESEHIV_clean_linker_0, # of connection points: 3
#     Node 5, Type 0, BuildingBlock: ESEHIV_clean_linker_0, # of connection points: 3
#     Node 6, Type 0, BuildingBlock: ESEHIV_clean_linker_0, # of connection points: 3
#     Node 7, Type 0, BuildingBlock: ESEHIV_clean_linker_0, # of connection points: 3
#     Node 8, Type 1, BuildingBlock: BETGAK_clean_sbu_0, # of connection points: 6
#     Node 9, Type 1, BuildingBlock: BETGAK_clean_sbu_0, # of connection points: 6
#     Node 10, Type 1, BuildingBlock: BETGAK_clean_sbu_0, # of connection points: 6
#     Node 11, Type 1, BuildingBlock: BETGAK_clean_sbu_0, # of connection points: 6
#     Edge 12, Type (0, 1), BuildingBlock: UVAHIK_clean_linker_0, # of connection points: 2
#     Edge 13, Type (0, 1), BuildingBlock: UVAHIK_clean_linker_0, # of connection points: 2
#     Edge 14, Type (0, 1), BuildingBlock: UVAHIK_clean_linker_0, # of connection points: 2
#     Edge 15, Type (0, 1), BuildingBlock: UVAHIK_clean_linker_0, # of connection points: 2
#     Edge 16, Type (0, 1), BuildingBlock: UVAHIK_clean_linker_0, # of connection points: 2
#     Edge 17, Type (0, 1), BuildingBlock: UVAHIK_clean_linker_0, # of connection points: 2
#     Edge 18, Type (0, 1), BuildingBlock: UVAHIK_clean_linker_0, # of connection points: 2
#     Edge 19, Type (0, 1), BuildingBlock: UVAHIK_clean_linker_0, # of connection points: 2
#     Edge 20, Type (0, 1), BuildingBlock: UVAHIK_clean_linker_0, # of connection points: 2
#     Edge 21, Type (0, 1), BuildingBlock: UVAHIK_clean_linker_0, # of connection points: 2
#     Edge 22, Type (0, 1), BuildingBlock: UVAHIK_clean_linker_0, # of connection points: 2
#     Edge 23, Type (0, 1), BuildingBlock: UVAHIK_clean_linker_0, # of connection points: 2
#     Edge 24, Type (0, 1), BuildingBlock: UVAHIK_clean_linker_0, # of connection points: 2
#     Edge 25, Type (0, 1), BuildingBlock: UVAHIK_clean_linker_0, # of connection points: 2
#     Edge 26, Type (0, 1), BuildingBlock: UVAHIK_clean_linker_0, # of connection points: 2
#     Edge 27, Type (0, 1), BuildingBlock: UVAHIK_clean_linker_0, # of connection points: 2
#     Edge 28, Type (0, 1), BuildingBlock: UVAHIK_clean_linker_0, # of connection points: 2
#     Edge 29, Type (0, 1), BuildingBlock: UVAHIK_clean_linker_0, # of connection points: 2
#     Edge 30, Type (0, 1), BuildingBlock: UVAHIK_clean_linker_0, # of connection points: 2
#     Edge 31, Type (0, 1), BuildingBlock: UVAHIK_clean_linker_0, # of connection points: 2
#     Edge 32, Type (0, 1), BuildingBlock: UVAHIK_clean_linker_0, # of connection points: 2
#     Edge 33, Type (0, 1), BuildingBlock: UVAHIK_clean_linker_0, # of connection points: 2
#     Edge 34, Type (0, 1), BuildingBlock: UVAHIK_clean_linker_0, # of connection points: 2
#     Edge 35, Type (0, 1), BuildingBlock: UVAHIK_clean_linker_0, # of connection points: 2
# Relax obj value: 0.094
# Max RMSD: 0.120
# Mean RMSD: 0.056
data_MOF--net-pyr--node1-BETGAK_clean_sbu_0--node2-ESEHIV_clean_linker_0--edge1-UVAHIK_clean_linker_0
_symmetry_space_group_name_H-M    P1
_symmetry_Int_Tables_number       1
_symmetry_cell_setting            triclinic
loop_
_symmetry_equiv_pos_as_xyz
'x, y, z'
_cell_length_a     48.200584
_cell_length_b     48.877321
_cell_length_c     43.188497
_cell_angle_alpha  89.953177
_cell_angle_beta   88.202129
_cell_angle_gamma 102.12625
loop_
_atom_site_label
_atom_site_type_symbol
_atom_site_fract_x
_atom_site_fract_y
_atom_site_fract_z
_atom_type_partial_charge
H0 H 0.27976 0.32233 0.25025 0.0
H1 H 0.32926 0.26124 0.27063 0.0
H2 H 0.33479 0.29837 0.1799 0.0
C3 C 0.296 0.31094 0.24366 0.0
C4 C 0.30749 0.3138 0.21322 0.0
C5 C 0.30343 0.29196 0.2647 0.0
C6 C 0.32299 0.27589 0.25481 0.0
C7 C 0.33401 0.27778 0.22423 0.0
C8 C 0.32658 0.29711 0.20363 0.0
H9 H 0.26034 0.9004 0.65766 0.0
H10 H 0.33123 0.87344 0.61473 0.0
H11 H 0.25097 0.85722 0.57026 0.0
C12 C 0.26928 0.89091 0.63813 0.0
C13 C 0.25202 0.87973 0.61362 0.0
C14 C 0.29784 0.88897 0.63847 0.0
C15 C 0.30929 0.87554 0.61416 0.0
C16 C 0.29234 0.86392 0.58969 0.0
C17 C 0.26378 0.86603 0.58944 0.0
H18 H 0.68255 0.34713 0.91891 0.0
H19 H 0.68631 0.41653 0.85638 0.0
H20 H 0.61718 0.34487 0.85287 0.0
C21 C 0.67391 0.35668 0.89982 0.0
C22 C 0.64842 0.34251 0.88702 0.0
C23 C 0.68789 0.38341 0.88907 0.0
C24 C 0.67561 0.39618 0.86526 0.0
C25 C 0.6501 0.38244 0.85196 0.0
C26 C 0.63676 0.35558 0.86299 0.0
H27 H 0.81578 0.72235 0.41685 0.0
H28 H 0.886 0.7228 0.35281 0.0
H29 H 0.81356 0.65372 0.3545 0.0
C30 C 0.8257 0.71247 0.39834 0.0
C31 C 0.81177 0.68622 0.3875 0.0
C32 C 0.85237 0.72599 0.38582 0.0
C33 C 0.8651 0.71284 0.36182 0.0
C34 C 0.85155 0.68645 0.3504 0.0
C35 C 0.82476 0.67353 0.36345 0.0
H36 H 0.65351 0.81111 0.84087 0.0
H37 H 0.71173 0.75551 0.84338 0.0
H38 H 0.6692 0.77387 0.92711 0.0
C39 C 0.66336 0.79667 0.85344 0.0
C40 C 0.65843 0.79351 0.8856 0.0
C41 C 0.68288 0.78338 0.83792 0.0
C42 C 0.69575 0.76504 0.85467 0.0
C43 C 0.69076 0.76129 0.88672 0.0
C44 C 0.6723 0.77584 0.90217 0.0
H45 H 0.67556 0.22537 0.49489 0.0
H46 H 0.73908 0.18402 0.45696 0.0
H47 H 0.74923 0.22226 0.54696 0.0
C48 C 0.69526 0.21823 0.49707 0.0
C49 C 0.71075 0.22432 0.52405 0.0
C50 C 0.70583 0.2045 0.47234 0.0
C51 C 0.7316 0.1959 0.47543 0.0
C52 C 0.74753 0.2021 0.5022 0.0
C53 C 0.73703 0.21668 0.5264 0.0
H54 H 0.32248 0.73096 0.19395 0.0
H55 H 0.32215 0.65899 0.25179 0.0
H56 H 0.38821 0.73266 0.25925 0.0
C57 C 0.33217 0.72039 0.21133 0.0
C58 C 0.35726 0.73489 0.22473 0.0
C59 C 0.31915 0.69287 0.22059 0.0
C60 C 0.33156 0.68017 0.24441 0.0
C61 C 0.35607 0.69459 0.25904 0.0
C62 C 0.36878 0.72189 0.2489 0.0
H63 H 0.11472 0.35322 0.76522 0.0
H64 H 0.18087 0.35732 0.69535 0.0
H65 H 0.18308 0.42605 0.758 0.0
C66 C 0.13448 0.36436 0.75443 0.0
C67 C 0.14727 0.39134 0.76483 0.0
C68 C 0.14636 0.35222 0.72908 0.0
C69 C 0.17153 0.36696 0.7145 0.0
C70 C 0.18516 0.39351 0.72489 0.0
C71 C 0.17284 0.4055 0.75006 0.0
La72 La 0.01766 0.04856 0.52907 0.0
La73 La 0.98961 1.0238 0.58916 0.0
C74 C 0.03781 0.07999 0.48414 0.0
C75 C 0.05523 0.1085 0.48085 0.0
C76 C 0.07669 0.11843 0.50182 0.0
C77 C 0.09618 0.14344 0.4959 0.0
C78 C 0.09451 0.15902 0.46896 0.0
C79 C 0.07186 0.15007 0.4491 0.0
C80 C 0.0524 0.12488 0.45497 0.0
C81 C 0.03821 1.00801 0.55275 0.0
C82 C 0.03286 0.08222 0.59184 0.0
C83 C 0.975 0.99925 0.63984 0.0
C84 C 0.94994 0.97757 0.64899 0.0
C85 C 0.92262 0.97993 0.64054 0.0
C86 C 0.89917 0.95856 0.64772 0.0
C87 C 0.90253 0.93419 0.66317 0.0
C88 C 0.92996 0.93186 0.67151 0.0
C89 C 0.95342 0.95339 0.66453 0.0
C90 C 0.9583 0.04851 0.55426 0.0
C91 C 0.97434 0.99122 0.52686 0.0
O92 O 0.05057 0.06169 0.49644 0.0
O93 O 0.01164 0.07751 0.49494 0.0
O94 O 0.03574 1.01152 0.52334 0.0
O95 O 0.0304 1.02731 0.5677 0.0
O96 O 0.03831 0.08024 0.56174 0.0
O97 O 0.01466 0.06256 0.6074 0.0
O98 O 0.97027 1.02404 0.63321 0.0
O99 O 0.99268 0.99127 0.61978 0.0
O100 O 0.9482 1.02674 0.57143 0.0
O101 O 0.98433 0.05632 0.55865 0.0
O102 O 0.97774 0.98915 0.55704 0.0
O103 O 0.9844 1.01494 0.51142 0.0
H104 H 0.07935 0.10616 0.52195 0.0
H105 H 0.11332 0.14999 0.51168 0.0
H106 H 0.07025 0.16159 0.42803 0.0
H107 H 0.03599 0.11756 0.43853 0.0
H108 H 0.9193 0.99821 0.62819 0.0
H109 H 0.87836 0.96133 0.64143 0.0
H110 H 0.93339 0.91323 0.68306 0.0
H111 H 0.97436 0.95099 0.67085 0.0
La112 La 0.53266 0.05038 0.07251 0.0
La113 La 0.47603 1.02912 1.04723 0.0
C114 C 0.57693 0.08125 0.09244 0.0
C115 C 0.5829 0.09677 0.12134 0.0
C116 C 0.56736 0.08738 0.14871 0.0
C117 C 0.57349 0.10185 0.17632 0.0
C118 C 0.595 0.12623 0.17699 0.0
C119 C 0.60989 0.13603 0.14921 0.0
C120 C 0.60393 0.12134 0.12163 0.0
C121 C 0.50406 1.00343 0.09878 0.0
C122 C 0.47892 0.07212 0.09948 0.0
C123 C 0.43143 0.99906 1.02705 0.0
C124 C 0.42424 0.9879 0.9962 0.0
C125 C 0.44015 1.00001 0.97006 0.0
C126 C 0.4326 0.99031 0.94051 0.0
C127 C 0.40921 0.96807 0.93658 0.0
C128 C 0.39391 0.95543 0.96303 0.0
C129 C 0.40133 0.96536 0.99262 0.0
C130 C 0.50458 0.07599 1.02075 0.0
C131 C 0.53003 1.00699 1.0206 0.0
O132 O 0.57104 0.05398 0.09517 0.0
O133 O 0.55955 0.0902 0.07422 0.0
O134 O 0.53136 1.00987 0.09498 0.0
O135 O 0.49395 1.02392 0.09053 0.0
O136 O 0.50669 0.07743 0.09422 0.0
O137 O 0.46247 0.04975 0.08775 0.0
O138 O 0.43573 1.02629 1.02919 0.0
O139 O 0.45087 0.98895 1.0409 0.0
O140 O 0.4773 0.06942 1.02441 0.0
O141 O 0.51469 0.05551 1.02909 0.0
O142 O 0.50209 1.00244 1.02461 0.0
O143 O 0.54674 1.02858 1.03344 0.0
H144 H 0.55075 0.0686 0.14884 0.0
H145 H 0.56185 0.09345 0.19726 0.0
H146 H 0.62622 0.15501 0.14876 0.0
H147 H 0.6158 0.12908 0.10057 0.0
H148 H 0.45809 1.01734 0.97249 0.0
H149 H 0.44465 1.00081 0.92074 0.0
H150 H 0.37612 0.93793 0.96088 0.0
H151 H 0.38906 0.95562 1.01265 0.0
La152 La 0.50231 0.51545 0.5371 0.0
La153 La 0.49784 0.56172 0.57899 0.0
C154 C 0.52178 0.47831 0.50915 0.0
C155 C 0.53934 0.45957 0.52097 0.0
C156 C 0.52986 0.43054 0.51864 0.0
C157 C 0.54399 0.41242 0.53366 0.0
C158 C 0.56793 0.42306 0.55119 0.0
C159 C 0.57792 0.45212 0.55273 0.0
C160 C 0.56371 0.47023 0.53786 0.0
C161 C 0.45215 0.51047 0.565 0.0
C162 C 0.52373 0.51518 0.60722 0.0
C163 C 0.47959 0.59921 0.60791 0.0
C164 C 0.46563 0.62143 0.59735 0.0
C165 C 0.47736 0.64933 0.60445 0.0
C166 C 0.46583 0.67091 0.59262 0.0
C167 C 0.44214 0.66497 0.57361 0.0
C168 C 0.43031 0.63694 0.56667 0.0
C169 C 0.44199 0.61537 0.57834 0.0
C170 C 0.54784 0.56657 0.55043 0.0
C171 C 0.47644 0.56208 0.50866 0.0
O172 O 0.49597 0.4741 0.52116 0.0
O173 O 0.53371 0.50496 0.50743 0.0
O174 O 0.45618 0.50289 0.53672 0.0
O175 O 0.47589 0.51918 0.5771 0.0
O176 O 0.52492 0.5062 0.57835 0.0
O177 O 0.5108 0.53575 0.61422 0.0
O178 O 0.50606 0.60182 0.5985 0.0
O179 O 0.46519 0.57343 0.60568 0.0
O180 O 0.54421 0.57412 0.57878 0.0
O181 O 0.52391 0.55801 0.53889 0.0
O182 O 0.4763 0.57199 0.53727 0.0
O183 O 0.48827 0.54068 0.50193 0.0
H184 H 0.51103 0.42189 0.50593 0.0
H185 H 0.53616 0.39007 0.53158 0.0
H186 H 0.59622 0.46088 0.5662 0.0
H187 H 0.57132 0.49257 0.54048 0.0
H188 H 0.4958 0.65446 0.61873 0.0
H189 H 0.47573 0.69229 0.59804 0.0
H190 H 0.41187 0.63161 0.55245 0.0
H191 H 0.43265 0.59402 0.57217 0.0
La192 La 0.00343 0.50914 0.07343 0.0
La193 La 0.99868 0.56795 1.04775 0.0
C194 C 0.0198 0.46552 0.08845 0.0
C195 C 0.0475 0.45732 0.09042 0.0
C196 C 0.05601 0.44932 0.11922 0.0
C197 C 0.08225 0.44188 0.12196 0.0
C198 C 0.10045 0.44203 0.09586 0.0
C199 C 0.09186 0.44982 0.06693 0.0
C200 C 0.06567 0.45753 0.06423 0.0
C201 C 0.97455 0.53864 0.10815 0.0
C202 C 0.05529 0.56227 0.07903 0.0
C203 C 0.98211 0.6134 1.04688 0.0
C204 C 0.96167 0.62615 1.03063 0.0
C205 C 0.9519 0.6169 1.00141 0.0
C206 C 0.93014 0.62749 0.98812 0.0
C207 C 0.9176 0.64722 1.00404 0.0
C208 C 0.92785 0.65653 1.03318 0.0
C209 C 0.94969 0.64616 1.04624 0.0
C210 C 0.02056 0.53875 1.00465 0.0
C211 C 0.95072 0.51326 1.03386 0.0
O212 O 0.01502 0.48429 0.10842 0.0
O213 O 0.01117 0.46994 0.06077 0.0
O214 O 0.96844 0.51155 0.10632 0.0
O215 O 0.99679 0.54785 0.09198 0.0
O216 O 0.04639 0.53461 0.07886 0.0
O217 O 0.0393 0.57968 0.07014 0.0
O218 O 0.00465 0.60932 1.03114 0.0
O219 O 0.97058 0.592 0.06459 0.0
O220 O 0.01629 0.56386 1.00028 0.0
O221 O 0.01233 0.53209 1.03205 0.0
O222 O 0.95802 0.54101 1.03551 0.0
O223 O 0.96667 0.49654 1.04469 0.0
H224 H 0.04233 0.44886 0.1397 0.0
H225 H 0.08811 0.43556 0.14447 0.0
H226 H 0.10554 0.45027 1.04647 0.0
H227 H 0.05977 0.46371 1.04169 0.0
H228 H 0.96068 0.60114 0.98921 0.0
H229 H 0.92303 0.62006 0.96551 0.0
H230 H 0.9184 0.67118 1.0465 0.0
H231 H 0.95666 0.65315 0.06907 0.0
C232 C 0.28156 0.25962 0.30835 0.0
C233 C 0.28838 0.28683 0.29558 0.0
C234 C 0.26446 0.25395 0.33519 0.0
C235 C 0.20298 0.26772 0.3679 0.0
H236 H 0.22128 0.2344 0.44405 0.0
C237 C 0.11358 0.20755 0.44799 0.0
C238 C 0.11837 0.18211 0.45942 0.0
C239 C 0.13616 0.22772 0.43547 0.0
C240 C 0.21572 0.24355 0.42289 0.0
H241 H 0.28373 0.32972 0.30264 0.0
H242 H 0.25214 0.3191 0.3485 0.0
H243 H 0.25937 0.25584 0.40748 0.0
H244 H 0.15041 0.15798 0.46736 0.0
H245 H 0.1893 0.1922 0.44458 0.0
H246 H 0.15942 0.2532 0.38123 0.0
C247 C 0.26066 0.30249 0.33769 0.0
C248 C 0.23759 0.25609 0.40223 0.0
C249 C 0.27846 0.30839 0.31125 0.0
C250 C 0.14617 0.1776 0.45913 0.0
C251 C 0.16858 0.19743 0.44617 0.0
C252 C 0.18106 0.2546 0.38815 0.0
C253 C 0.25327 0.27514 0.34951 0.0
C254 C 0.23127 0.26755 0.37424 0.0
C255 C 0.16385 0.22255 0.43351 0.0
C256 C 0.18708 0.24141 0.4154 0.0
H257 H 0.28811 0.24224 0.29686 0.0
H258 H 0.2586 0.2326 0.34378 0.0
H259 H 0.19772 0.27622 0.34619 0.0
H260 H 0.09232 0.21157 0.44819 0.0
H261 H 0.13172 0.24701 0.42656 0.0
C262 C 0.32896 0.88191 0.6816 0.0
C263 C 0.315 0.89959 0.66531 0.0
C264 C 0.34239 0.89085 0.70909 0.0
C265 C 0.33991 0.94198 0.77145 0.0
H266 H 0.40581 0.91629 0.79931 0.0
C267 C 0.37114 0.95176 0.89847 0.0
C268 C 0.40013 0.95905 0.90497 0.0
C269 C 0.3625 0.94487 0.86844 0.0
C270 C 0.38759 0.92393 0.79177 0.0
H271 H 0.30543 0.94088 0.66363 0.0
H272 H 0.32975 0.957 0.71105 0.0
H273 H 0.38963 0.9057 0.74696 0.0
H274 H 0.4428 0.96392 0.88499 0.0
H275 H 0.42772 0.95299 0.83235 0.0
H276 H 0.33832 0.96094 0.81577 0.0
C277 C 0.32959 0.93591 0.70329 0.0
C278 C 0.3781 0.91756 0.76186 0.0
C279 C 0.31582 0.92681 0.67607 0.0
C280 C 0.42028 0.95882 0.88074 0.0
C281 C 0.41163 0.95219 0.8506 0.0
C282 C 0.34956 0.94858 0.80116 0.0
C283 C 0.34238 0.91779 0.7206 0.0
C284 C 0.35392 0.92622 0.75147 0.0
C285 C 0.38262 0.9454 0.84404 0.0
C286 C 0.37325 0.93929 0.81188 0.0
H287 H 0.32836 0.86073 0.67384 0.0
H288 H 0.35167 0.87619 0.72196 0.0
H289 H 0.32099 0.94869 0.76448 0.0
H290 H 0.355 0.95203 0.91643 0.0
H291 H 0.33997 0.9392 0.86437 0.0
C292 C 0.62746 0.38106 0.79988 0.0
C293 C 0.63746 0.39609 0.82647 0.0
C294 C 0.61567 0.39387 0.77594 0.0
C295 C 0.60963 0.46444 0.74554 0.0
H296 H 0.54912 0.42051 0.69829 0.0
C297 C 0.54228 0.51435 0.66109 0.0
C298 C 0.53694 0.50154 0.6321 0.0
C299 C 0.55493 0.50158 0.68437 0.0
C300 C 0.56616 0.43304 0.71109 0.0
H301 H 0.64238 0.43636 0.84886 0.0
H302 H 0.6211 0.45848 0.80781 0.0
H303 H 0.56985 0.3983 0.7397 0.0
H304 H 0.54042 0.4649 0.6052 0.0
H305 H 0.56226 0.44258 0.64582 0.0
H306 H 0.60525 0.49933 0.71728 0.0
C307 C 0.62308 0.43699 0.80481 0.0
C308 C 0.57821 0.42027 0.73487 0.0
C309 C 0.63521 0.42426 0.82854 0.0
C310 C 0.54439 0.4755 0.62712 0.0
C311 C 0.55672 0.46257 0.65053 0.0
C312 C 0.59731 0.47727 0.72203 0.0
C313 C 0.61314 0.42205 0.77802 0.0
C314 C 0.60021 0.43573 0.75251 0.0
C315 C 0.56224 0.47548 0.67946 0.0
C316 C 0.57543 0.46175 0.70446 0.0
H317 H 0.6292 0.35943 0.79732 0.0
H318 H 0.60891 0.38167 0.75559 0.0
H319 H 0.62685 0.47709 0.75794 0.0
H320 H 0.53687 0.5344 0.66577 0.0
H321 H 0.55863 0.512 0.70645 0.0
C322 C 0.88238 0.68748 0.30142 0.0
C323 C 0.86533 0.67212 0.32526 0.0
C324 C 0.89492 0.6739 0.27786 0.0
C325 C 0.91157 0.60407 0.2575 0.0
H326 H 0.92216 0.63563 0.17452 0.0
C327 C 0.93885 0.54165 0.15082 0.0
C328 C 0.96167 0.55502 0.13145 0.0
C329 C 0.92754 0.55653 0.17403 0.0
C330 C 0.91948 0.62665 0.19763 0.0
H331 H 0.84888 0.62998 0.34281 0.0
H332 H 0.86904 0.60652 0.30122 0.0
H333 H 0.90157 0.66015 0.21559 0.0
H334 H 0.99062 0.59458 0.12148 0.0
H335 H 0.9701 0.62083 0.16127 0.0
H336 H 0.9286 0.57009 0.23905 0.0
C337 C 0.87346 0.62916 0.30096 0.0
C338 C 0.9078 0.64079 0.22135 0.0
C339 C 0.86132 0.64273 0.32471 0.0
C340 C 0.97269 0.58376 0.1356 0.0
C341 C 0.96101 0.59878 0.15846 0.0
C342 C 0.92275 0.58974 0.23369 0.0
C343 C 0.89056 0.64446 0.27712 0.0
C344 C 0.90357 0.62971 0.25172 0.0
C345 C 0.93849 0.58526 0.17818 0.0
C346 C 0.92681 0.60081 0.20346 0.0
H347 H 0.88583 0.71009 0.30063 0.0
H348 H 0.90822 0.68662 0.26035 0.0
H349 H 0.90948 0.59502 0.28055 0.0
H350 H 0.92993 0.51953 0.14831 0.0
H351 H 0.91007 0.54555 0.18869 0.0
C352 C 0.34025 0.22873 0.21816 0.0
C353 C 0.35088 0.25746 0.21323 0.0
C354 C 0.35559 0.20915 0.20769 0.0
C355 C 0.41452 0.20092 0.15318 0.0
H356 H 0.40931 0.13191 0.19958 0.0
C357 C 0.482 0.11967 0.12197 0.0
C358 C 0.46618 0.09242 0.11735 0.0
C359 C 0.4693 0.13998 0.13577 0.0
C360 C 0.41088 0.15108 0.18641 0.0
H361 H 0.38586 0.28839 0.19369 0.0
H362 H 0.41343 0.25424 0.17628 0.0
H363 H 0.38544 0.16778 0.21979 0.0
H364 H 0.42498 0.06479 0.12476 0.0
H365 H 0.40296 0.10027 0.14969 0.0
H366 H 0.44061 0.18423 0.12022 0.0
C367 C 0.39287 0.2467 0.18756 0.0
C368 C 0.39708 0.17161 0.19782 0.0
C369 C 0.37722 0.26631 0.19764 0.0
C370 C 0.43769 0.08561 0.12797 0.0
C371 C 0.42512 0.10584 0.14229 0.0
C372 C 0.42872 0.18058 0.14207 0.0
C373 C 0.38221 0.21781 0.1924 0.0
C374 C 0.39836 0.19667 0.18115 0.0
C375 C 0.44067 0.13334 0.14573 0.0
C376 C 0.42674 0.15536 0.1584 0.0
H377 H 0.31974 0.22136 0.22969 0.0
H378 H 0.34625 0.18717 0.21116 0.0
H379 H 0.41566 0.21964 0.13937 0.0
H380 H 0.50398 0.12564 0.11397 0.0
H381 H 0.48177 0.16099 0.1384 0.0
C382 C 0.21436 0.90697 0.62528 0.0
C383 C 0.22192 0.88263 0.61347 0.0
C384 C 0.18639 0.91025 0.62472 0.0
C385 C 0.1277 0.89662 0.57677 0.0
H386 H 0.0888 0.92597 0.64498 0.0
C387 C 0.04452 0.95902 0.55011 0.0
C388 C 0.04763 0.98422 0.56639 0.0
C389 C 0.05665 0.93748 0.56093 0.0
C390 C 0.09934 0.91782 0.62566 0.0
H391 H 0.2055 0.84227 0.59256 0.0
H392 H 0.15672 0.84904 0.58984 0.0
H393 H 0.1291 0.90457 0.65511 0.0
H394 H 0.06383 1.00631 0.60756 0.0
H395 H 0.08674 0.96966 0.62555 0.0
H396 H 0.10036 0.9122 0.54682 0.0
C397 C 0.17264 0.86514 0.60014 0.0
C398 C 0.12218 0.90533 0.63155 0.0
C399 C 0.20061 0.86151 0.60132 0.0
C400 C 0.06141 0.98703 0.5946 0.0
C401 C 0.07424 0.9658 0.60502 0.0
C402 C 0.10529 0.9096 0.57077 0.0
C403 C 0.16542 0.88959 0.61176 0.0
C404 C 0.1372 0.89569 0.60698 0.0
C405 C 0.07289 0.94112 0.58771 0.0
C406 C 0.09164 0.92152 0.595 0.0
H407 H 0.23017 0.92401 0.63411 0.0
H408 H 0.18143 0.92962 0.6331 0.0
H409 H 0.13917 0.88953 0.55744 0.0
H410 H 0.0333 0.95625 0.5286 0.0
H411 H 0.05434 0.91847 0.54752 0.0
C412 C 0.72134 0.42672 0.90833 0.0
C413 C 0.7153 0.39771 0.90281 0.0
C414 C 0.74668 0.43976 0.92211 0.0
C415 C 0.80364 0.42426 0.97096 0.0
H416 H 0.84604 0.49653 0.94198 0.0
C417 C 0.916 0.47136 1.01433 0.0
C418 C 0.92358 0.50043 1.01896 0.0
C419 C 0.8906 0.45931 1.00015 0.0
C420 C 0.83432 0.47651 0.9507 0.0
H421 H 0.73206 0.36 0.9066 0.0
H422 H 0.77587 0.38259 0.93072 0.0
H423 H 0.80198 0.47498 0.91734 0.0
H424 H 0.90998 0.53957 1.01221 0.0
H425 H 0.8656 0.51855 0.98806 0.0
H426 H 0.83572 0.42577 1.00445 0.0
C427 C 0.76078 0.39523 0.92492 0.0
C428 C 0.80901 0.46411 0.93648 0.0
C429 C 0.73556 0.38224 0.91106 0.0
C430 C 0.90498 0.51711 1.00901 0.0
C431 C 0.87952 0.50503 0.99491 0.0
C432 C 0.82885 0.43668 0.98525 0.0
C433 C 0.76666 0.42413 0.93085 0.0
C434 C 0.79339 0.43773 0.9463 0.0
C435 C 0.87192 0.47593 0.99026 0.0
C436 C 0.84469 0.46293 0.97525 0.0
H437 H 0.70618 0.43931 0.90267 0.0
H438 H 0.75032 0.462 0.92658 0.0
H439 H 0.79196 0.40417 0.97957 0.0
H440 H 0.92979 0.4578 1.02145 0.0
H441 H 0.88584 0.43691 0.99655 0.0
C442 C 0.7787 0.64326 0.40965 0.0
C443 C 0.78387 0.67187 0.4018 0.0
C444 C 0.753 0.63006 0.42429 0.0
C445 C 0.67838 0.63643 0.43834 0.0
H446 H 0.68032 0.58748 0.50859 0.0
C447 C 0.60039 0.58503 0.54754 0.0
C448 C 0.57499 0.5748 0.53235 0.0
C449 C 0.62582 0.5947 0.53058 0.0
C450 C 0.6794 0.60111 0.48903 0.0
H451 H 0.76564 0.70881 0.40254 0.0
H452 H 0.72084 0.68582 0.42804 0.0
H453 H 0.72448 0.60893 0.4808 0.0
H454 H 0.55639 0.56608 0.48746 0.0
H455 H 0.60082 0.58311 0.45776 0.0
H456 H 0.63334 0.62893 0.44685 0.0
C457 C 0.73667 0.67356 0.42286 0.0
C458 C 0.7047 0.61321 0.47292 0.0
C459 C 0.76247 0.68681 0.40848 0.0
C460 C 0.57564 0.57388 0.49981 0.0
C461 C 0.60105 0.58381 0.48281 0.0
C462 C 0.65305 0.62411 0.45428 0.0
C463 C 0.73167 0.64506 0.43119 0.0
C464 C 0.70456 0.63125 0.44754 0.0
C465 C 0.62643 0.59459 0.49798 0.0
C466 C 0.65325 0.60649 0.48002 0.0
H467 H 0.7948 0.63117 0.40506 0.0
H468 H 0.74978 0.60804 0.43013 0.0
H469 H 0.67745 0.65 0.41874 0.0
H470 H 0.60054 0.58597 0.57259 0.0
H471 H 0.64487 0.60306 0.54304 0.0
C472 C 0.28768 0.32215 0.16178 0.0
C473 C 0.29681 0.33212 0.19105 0.0
C474 C 0.27266 0.33725 0.14341 0.0
C475 C 0.24956 0.40545 0.13685 0.0
H476 H 0.18067 0.35872 0.10665 0.0
C477 C 0.14547 0.4434 0.12381 0.0
C478 C 0.12805 0.43358 0.09898 0.0
C479 C 0.17033 0.43374 0.12832 0.0
C480 C 0.20004 0.3721 0.11435 0.0
H481 H 0.29953 0.36679 0.22284 0.0
H482 H 0.27289 0.39277 0.19132 0.0
H483 H 0.21779 0.33705 0.12594 0.0
H484 H 0.12345 0.40662 0.05882 0.0
H485 H 0.167 0.38965 0.06677 0.0
H486 H 0.23095 0.44044 0.12662 0.0
C487 C 0.27739 0.37345 0.18228 0.0
C488 C 0.22142 0.35968 0.12536 0.0
C489 C 0.29243 0.35842 0.20055 0.0
C490 C 0.13653 0.41462 0.0781 0.0
C491 C 0.16132 0.40478 0.08276 0.0
C492 C 0.22807 0.41787 0.12599 0.0
C493 C 0.26646 0.36261 0.15396 0.0
C494 C 0.24612 0.37614 0.13755 0.0
C495 C 0.17826 0.41392 0.1082 0.0
C496 C 0.20277 0.40127 0.11539 0.0
H497 H 0.29063 0.30191 0.15385 0.0
H498 H 0.26496 0.32853 0.12148 0.0
H499 H 0.26853 0.41878 0.14553 0.0
H500 H 0.13962 0.45825 0.14007 0.0
H501 H 0.18275 0.44098 0.14832 0.0
C502 C 0.64976 0.29419 0.90694 0.0
C503 C 0.63393 0.31425 0.89924 0.0
C504 C 0.63639 0.26815 0.91958 0.0
C505 C 0.57029 0.23249 0.96163 0.0
H506 H 0.59452 0.16453 0.93759 0.0
C507 C 0.50588 0.1235 0.99875 0.0
C508 C 0.52054 0.10266 1.00677 0.0
C509 C 0.52034 0.14895 0.98579 0.0
C510 C 0.5877 0.18332 0.9449 0.0
H511 H 0.59139 0.32229 0.89877 0.0
H512 H 0.56805 0.2768 0.92035 0.0
H513 H 0.61809 0.20922 0.91422 0.0
H514 H 0.56195 0.09213 1.00737 0.0
H515 H 0.58748 0.13687 0.98499 0.0
H516 H 0.54 0.20675 0.99234 0.0
C517 C 0.59091 0.28133 0.91691 0.0
C518 C 0.60122 0.20901 0.93142 0.0
C519 C 0.60427 0.30734 0.90416 0.0
C520 C 0.55009 0.10781 1.00143 0.0
C521 C 0.56465 0.1334 0.98842 0.0
C522 C 0.55683 0.20687 0.97511 0.0
C523 C 0.60679 0.26141 0.92501 0.0
C524 C 0.59259 0.23396 0.93946 0.0
C525 C 0.54996 0.15439 0.98052 0.0
C526 C 0.56518 0.18185 0.96682 0.0
H527 H 0.67259 0.29861 0.90317 0.0
H528 H 0.64938 0.25351 0.9257 0.0
H529 H 0.56342 0.25126 0.96892 0.0
H530 H 0.48308 0.12015 1.00248 0.0
H531 H 0.50816 0.16426 0.97955 0.0
C532 C 0.88037 0.77568 0.37874 0.0
C533 C 0.86697 0.75358 0.39849 0.0
C534 C 0.89292 0.80187 0.39086 0.0
C535 C 0.92101 0.83604 0.46365 0.0
H536 H 0.90936 0.90428 0.42519 0.0
C537 C 0.94785 0.94124 0.52705 0.0
C538 C 0.96064 0.96548 0.51014 0.0
C539 C 0.93688 0.91618 0.51199 0.0
C540 C 0.91315 0.88547 0.43603 0.0
H541 H 0.85709 0.74164 0.44658 0.0
H542 H 0.87863 0.78706 0.46757 0.0
H543 H 0.89033 0.85906 0.40149 0.0
H544 H 0.97125 0.98229 0.4638 0.0
H545 H 0.95221 0.93833 0.4374 0.0
H546 H 0.94376 0.8622 0.49813 0.0
C547 C 0.87956 0.78426 0.44271 0.0
C548 C 0.90222 0.8595 0.42242 0.0
C549 C 0.86691 0.75822 0.43063 0.0
C550 C 0.96148 0.9641 0.47759 0.0
C551 C 0.9505 0.93886 0.46244 0.0
C552 C 0.93195 0.86191 0.47717 0.0
C553 C 0.89265 0.80652 0.42304 0.0
C554 C 0.90568 0.83439 0.43629 0.0
C555 C 0.93842 0.91442 0.47949 0.0
C556 C 0.92785 0.88701 0.46386 0.0
H557 H 0.88068 0.77289 0.35387 0.0
H558 H 0.90302 0.81843 0.37502 0.0
H559 H 0.92466 0.81725 0.47466 0.0
H560 H 0.94653 0.94145 0.55213 0.0
H561 H 0.92716 0.89809 0.52595 0.0
C562 C 0.29272 0.81858 0.564 0.0
C563 C 0.30421 0.84729 0.56629 0.0
C564 C 0.30809 0.80114 0.54871 0.0
C565 C 0.34489 0.76596 0.51732 0.0
H566 H 0.42119 0.78733 0.54771 0.0
C567 C 0.41876 0.68719 0.53179 0.0
C568 C 0.4294 0.68792 0.56185 0.0
C569 C 0.40598 0.70857 0.52142 0.0
C570 C 0.40007 0.78115 0.53873 0.0
H571 H 0.33872 0.88104 0.55143 0.0
H572 H 0.36513 0.8508 0.5234 0.0
H573 H 0.39184 0.82175 0.54584 0.0
H574 H 0.43463 0.7115 0.60459 0.0
H575 H 0.41284 0.74869 0.58646 0.0
H576 H 0.35271 0.72453 0.51298 0.0
C577 C 0.34482 0.84148 0.53434 0.0
C578 C 0.38325 0.80101 0.53722 0.0
C579 C 0.32969 0.85883 0.55017 0.0
C580 C 0.42729 0.71057 0.58109 0.0
C581 C 0.41479 0.73193 0.57067 0.0
C582 C 0.36175 0.74598 0.51904 0.0
C583 C 0.3351 0.81223 0.53518 0.0
C584 C 0.35493 0.79335 0.52803 0.0
C585 C 0.40392 0.73114 0.54081 0.0
C586 C 0.38894 0.75314 0.53133 0.0
H587 H 0.2731 0.80929 0.5764 0.0
H588 H 0.2999 0.77877 0.5501 0.0
H589 H 0.3234 0.7595 0.50947 0.0
H590 H 0.42038 0.67017 0.51625 0.0
H591 H 0.39775 0.70748 0.49829 0.0
C592 C 0.69987 0.8211 0.79833 0.0
C593 C 0.69401 0.79248 0.80619 0.0
C594 C 0.71655 0.8309 0.77207 0.0
C595 C 0.75053 0.84733 0.71234 0.0
H596 H 0.82087 0.82122 0.71779 0.0
C597 C 0.85468 0.90491 0.6509 0.0
C598 C 0.87737 0.9117 0.6712 0.0
C599 C 0.83011 0.88531 0.65958 0.0
C600 C 0.80128 0.82853 0.71572 0.0
H601 H 0.6985 0.7514 0.7906 0.0
H602 H 0.72828 0.76872 0.74492 0.0
H603 H 0.77822 0.79586 0.74515 0.0
H604 H 0.89215 0.90264 0.71627 0.0
H605 H 0.84961 0.86826 0.73111 0.0
H606 H 0.77417 0.88105 0.68449 0.0
C607 C 0.72009 0.78351 0.75938 0.0
C608 C 0.77675 0.81382 0.73108 0.0
C609 C 0.70312 0.77363 0.78557 0.0
C610 C 0.87533 0.89765 0.69985 0.0
C611 C 0.85091 0.87792 0.70837 0.0
C612 C 0.77506 0.86196 0.69682 0.0
C613 C 0.72796 0.81237 0.75315 0.0
C614 C 0.75142 0.82374 0.73062 0.0
C615 C 0.82788 0.87187 0.68855 0.0
C616 C 0.80093 0.85334 0.69946 0.0
H617 H 0.69364 0.83636 0.81375 0.0
H618 H 0.72246 0.85329 0.76813 0.0
H619 H 0.73124 0.85531 0.71139 0.0
H620 H 0.85576 0.91491 0.62839 0.0
H621 H 0.81275 0.88088 0.64377 0.0
C622 C 0.6611 0.19189 0.44225 0.0
C623 C 0.69083 0.20026 0.44269 0.0
C624 C 0.64731 0.18788 0.41409 0.0
C625 C 0.6585 0.20415 0.32999 0.0
H626 H 0.60018 0.13705 0.32033 0.0
C627 C 0.63142 0.1513 0.21312 0.0
C628 C 0.60277 0.14047 0.20683 0.0
C629 C 0.63905 0.16265 0.24201 0.0
C630 C 0.61608 0.15613 0.32282 0.0
H631 H 0.72929 0.2118 0.41397 0.0
H632 H 0.70546 0.20397 0.36511 0.0
H633 H 0.61928 0.14911 0.37135 0.0
H634 H 0.55958 0.13432 0.22569 0.0
H635 H 0.57314 0.1535 0.27656 0.0
H636 H 0.65614 0.21042 0.28115 0.0
C637 C 0.69267 0.20085 0.3864 0.0
C638 C 0.627 0.16307 0.35203 0.0
C639 C 0.7064 0.2049 0.41445 0.0
C640 C 0.58189 0.14197 0.22993 0.0
C641 C 0.58958 0.15306 0.25899 0.0
C642 C 0.64774 0.19709 0.30078 0.0
C643 C 0.66299 0.19225 0.38585 0.0
C644 C 0.64885 0.18678 0.35578 0.0
C645 C 0.61827 0.16321 0.26537 0.0
C646 C 0.6269 0.17268 0.29681 0.0
H647 H 0.64854 0.18804 0.46365 0.0
H648 H 0.62439 0.18142 0.41443 0.0
H649 H 0.67486 0.22291 0.33224 0.0
H650 H 0.64812 0.15005 0.19615 0.0
H651 H 0.66137 0.16995 0.24647 0.0
C652 C 0.37162 0.65319 0.28277 0.0
C653 C 0.3685 0.68112 0.28486 0.0
C654 C 0.3833 0.64063 0.30699 0.0
C655 C 0.39615 0.64566 0.39108 0.0
H656 H 0.45179 0.60077 0.37214 0.0
C657 C 0.45629 0.60191 0.48803 0.0
C658 C 0.46362 0.57578 0.48348 0.0
C659 C 0.4447 0.61495 0.4641 0.0
C660 C 0.43595 0.61283 0.37799 0.0
H661 H 0.37495 0.71756 0.31444 0.0
H662 H 0.39517 0.69562 0.35673 0.0
H663 H 0.43142 0.62261 0.33024 0.0
H664 H 0.4639 0.5427 0.45015 0.0
H665 H 0.44305 0.56485 0.40894 0.0
H666 H 0.40017 0.63552 0.43875 0.0
C667 C 0.3886 0.68342 0.33631 0.0
C668 C 0.42432 0.62548 0.35383 0.0
C669 C 0.37723 0.69609 0.31193 0.0
C670 C 0.45876 0.56292 0.45447 0.0
C671 C 0.44693 0.57581 0.43066 0.0
C672 C 0.40756 0.63277 0.41527 0.0
C673 C 0.39188 0.65554 0.33414 0.0
C674 C 0.40427 0.64208 0.36001 0.0
C675 C 0.43986 0.60214 0.43495 0.0
C676 C 0.42766 0.6161 0.40914 0.0
H677 H 0.36533 0.64109 0.2622 0.0
H678 H 0.3853 0.61906 0.3046 0.0
H679 H 0.38051 0.65804 0.39671 0.0
H680 H 0.4599 0.61257 0.50997 0.0
H681 H 0.44002 0.63536 0.46839 0.0
C682 C 0.13299 0.43385 0.78819 0.0
C683 C 0.1336 0.40524 0.7903 0.0
C684 C 0.12019 0.44706 0.81176 0.0
C685 C 0.09694 0.44087 0.89484 0.0
H686 H 0.0532 0.49546 0.87203 0.0
C687 C 0.03351 0.49385 0.98594 0.0
C688 C 0.03322 0.52222 0.98126 0.0
C689 C 0.04527 0.47866 0.96325 0.0
C690 C 0.06561 0.48055 0.87894 0.0
H691 H 0.12118 0.36823 0.81934 0.0
H692 H 0.09859 0.39123 0.86039 0.0
H693 H 0.07435 0.47085 0.83176 0.0
H694 H 0.04521 0.55694 0.949 0.0
H695 H 0.06593 0.53085 0.90976 0.0
H696 H 0.08833 0.45078 0.94209 0.0
C697 C 0.10825 0.40351 0.84049 0.0
C698 C 0.07776 0.46635 0.85573 0.0
C699 C 0.12097 0.39022 0.81677 0.0
C700 C 0.04498 0.53507 0.95336 0.0
C701 C 0.05673 0.51999 0.93071 0.0
C702 C 0.08482 0.45515 0.91811 0.0
C703 C 0.10759 0.43212 0.83827 0.0
C704 C 0.09382 0.44647 0.86328 0.0
C705 C 0.05696 0.49149 0.93518 0.0
C706 C 0.06917 0.47541 0.91051 0.0
H707 H 0.14213 0.44608 0.76804 0.0
H708 H 0.12044 0.46916 0.80929 0.0
H709 H 0.10937 0.42593 0.9016 0.0
H710 H 0.02421 0.48326 1.00683 0.0
H711 H 0.04466 0.4567 0.96749 0.0
C712 C 0.65417 0.82876 0.92634 0.0
C713 C 0.64197 0.81181 0.902 0.0
C714 C 0.6408 0.84917 0.93882 0.0
C715 C 0.57331 0.87131 0.94855 0.0
H716 H 0.62011 0.94621 0.95062 0.0
C717 C 0.52602 0.96629 0.98451 0.0
C718 C 0.54281 0.98664 1.00285 0.0
C719 C 0.53763 0.94535 0.97029 0.0
C720 C 0.60678 0.92541 0.95065 0.0
H721 H 0.6057 0.80196 0.87256 0.0
H722 H 0.58188 0.83734 0.89501 0.0
H723 H 0.64062 0.90757 0.93201 0.0
H724 H 0.585 1.00117 1.02036 0.0
H725 H 0.60496 0.96439 0.99651 0.0
H726 H 0.53967 0.88881 0.96812 0.0
C727 C 0.60189 0.83492 0.90418 0.0
C728 C 0.61856 0.90329 0.93989 0.0
C729 C 0.6155 0.81477 0.89135 0.0
C730 C 0.57156 0.98598 1.00611 0.0
C731 C 0.58305 0.96487 0.99227 0.0
C732 C 0.56159 0.89338 0.9598 0.0
C733 C 0.61479 0.85276 0.92749 0.0
C734 C 0.60199 0.87604 0.93887 0.0
C735 C 0.56619 0.94407 0.97443 0.0
C736 C 0.57822 0.92073 0.96115 0.0
H737 H 0.67472 0.82713 0.93474 0.0
H738 H 0.65105 0.86252 0.95696 0.0
H739 H 0.56013 0.85044 0.94808 0.0
H740 H 0.50381 0.96632 0.98143 0.0
H741 H 0.52412 0.93007 0.95622 0.0
C742 C 0.78217 0.18235 0.53298 0.0
C743 C 0.77478 0.19279 0.50474 0.0
C744 C 0.80638 0.17106 0.53456 0.0
C745 C 0.8474 0.13237 0.48834 0.0
H746 H 0.90255 0.14888 0.55285 0.0
C747 C 0.91202 0.05568 0.53567 0.0
C748 C 0.94094 0.06624 0.54029 0.0
C749 C 0.89482 0.07343 0.52576 0.0
C750 C 0.8875 0.14433 0.53448 0.0
H751 H 0.78818 0.20126 0.45654 0.0
H752 H 0.82979 0.18036 0.45919 0.0
H753 H 0.86706 0.1777 0.54764 0.0
H754 H 0.97502 0.1031 0.53704 0.0
H755 H 0.94467 0.13433 0.52043 0.0
H756 H 0.86691 0.09809 0.47623 0.0
C757 C 0.81672 0.18097 0.47995 0.0
C758 C 0.8672 0.16066 0.53165 0.0
C759 C 0.79281 0.19271 0.47846 0.0
C760 C 0.95272 0.0945 0.53366 0.0
C761 C 0.93543 0.11235 0.52426 0.0
C762 C 0.86738 0.11572 0.49155 0.0
C763 C 0.82341 0.16969 0.50789 0.0
C764 C 0.84677 0.15454 0.50884 0.0
C765 C 0.90628 0.10203 0.52081 0.0
C766 C 0.8873 0.12136 0.51492 0.0
H767 H 0.76865 0.18179 0.55357 0.0
H768 H 0.81107 0.16221 0.55631 0.0
H769 H 0.83166 0.12718 0.47073 0.0
H770 H 0.90256 1.03391 0.54055 0.0
H771 H 0.87232 0.0651 0.52342 0.0
C772 C 0.27178 0.65811 0.22189 0.0
C773 C 0.29265 0.67769 0.20538 0.0
C774 C 0.24694 0.64437 0.2077 0.0
C775 C 0.21379 0.63152 0.12938 0.0
H776 H 0.14468 0.60852 0.17956 0.0
C777 C 0.09854 0.60115 0.08285 0.0
C778 C 0.08367 0.57416 0.09152 0.0
C779 C 0.12471 0.61275 0.0958 0.0
C780 C 0.16388 0.61476 0.16532 0.0
H781 H 0.30334 0.69728 0.16014 0.0
H782 H 0.25961 0.67532 0.13648 0.0
H783 H 0.18836 0.63116 0.20403 0.0
H784 H 0.08465 0.53828 0.12074 0.0
H785 H 0.12984 0.55905 0.14414 0.0
H786 H 0.18842 0.61628 0.09047 0.0
C787 C 0.26263 0.66971 0.16019 0.0
C788 C 0.18913 0.62757 0.17934 0.0
C789 C 0.28774 0.68293 0.17413 0.0
C790 C 0.09561 0.55904 0.1134 0.0
C791 C 0.12139 0.57094 0.12692 0.0
C792 C 0.18835 0.61936 0.11531 0.0
C793 C 0.24172 0.65014 0.17666 0.0
C794 C 0.21463 0.63615 0.16166 0.0
C795 C 0.13618 0.59791 0.11828 0.0
C796 C 0.16319 0.61077 0.13315 0.0
H797 H 0.27429 0.65357 0.24604 0.0
H798 H 0.2319 0.62911 0.22127 0.0
H799 H 0.23282 0.63701 0.1148 0.0
H800 H 0.08996 0.61332 0.06605 0.0
H801 H 0.13568 0.63361 0.0888 0.0
C802 C 0.23513 0.42258 0.72651 0.0
C803 C 0.21222 0.40852 0.70924 0.0
C804 C 0.26098 0.43531 0.71172 0.0
C805 C 0.30242 0.4329 0.63808 0.0
H806 H 0.34744 0.50349 0.66547 0.0
C807 C 0.40001 0.49038 0.56644 0.0
C808 C 0.42457 0.50228 0.58232 0.0
C809 C 0.37421 0.48052 0.58255 0.0
C810 C 0.33527 0.48362 0.65771 0.0
H811 H 0.19827 0.39806 0.66267 0.0
H812 H 0.24302 0.42026 0.63699 0.0
H813 H 0.30229 0.48346 0.69232 0.0
H814 H 0.44116 0.514 0.62755 0.0
H815 H 0.39599 0.49662 0.65588 0.0
H816 H 0.33523 0.43294 0.60357 0.0
C817 C 0.24136 0.4209 0.66203 0.0
C818 C 0.30935 0.47211 0.67313 0.0
C819 C 0.21561 0.40817 0.67678 0.0
C820 C 0.42257 0.50492 0.61468 0.0
C821 C 0.39666 0.49503 0.63088 0.0
C822 C 0.32822 0.44439 0.6227 0.0
C823 C 0.26457 0.43435 0.67927 0.0
C824 C 0.29246 0.44666 0.66337 0.0
C825 C 0.37223 0.48226 0.61504 0.0
C826 C 0.34494 0.47001 0.63211 0.0
H827 H 0.23338 0.42306 0.75155 0.0
H828 H 0.27841 0.44522 0.72582 0.0
H829 H 0.29042 0.41297 0.6303 0.0
H830 H 0.4008 0.48827 0.54148 0.0
H831 H 0.35578 0.4714 0.56947 0.0
C832 C 0.71052 0.7184 0.8941 0.0
C833 C 0.70805 0.74514 0.90406 0.0
C834 C 0.73034 0.70501 0.90711 0.0
C835 C 0.78087 0.70929 0.97185 0.0
H836 H 0.82152 0.67024 0.91373 0.0
C837 C 0.89014 0.68503 0.99623 0.0
C838 C 0.8932 0.65736 0.99116 0.0
C839 C 0.86621 0.694 0.98632 0.0
C840 C 0.81017 0.68085 0.93027 0.0
H841 H 0.72372 0.77859 0.9359 0.0
H842 H 0.75882 0.7557 0.95812 0.0
H843 H 0.78121 0.68842 0.89648 0.0
H844 H 0.87341 0.6176 0.97101 0.0
H845 H 0.83211 0.63371 0.95272 0.0
H846 H 0.81082 0.70262 1.00523 0.0
C847 C 0.74505 0.74459 0.94086 0.0
C848 C 0.78692 0.69115 0.92049 0.0
C849 C 0.72493 0.75778 0.92814 0.0
C850 C 0.87206 0.63916 0.97497 0.0
C851 C 0.84828 0.64829 0.96465 0.0
C852 C 0.80438 0.69934 0.98147 0.0
C853 C 0.74849 0.71829 0.93002 0.0
C854 C 0.77206 0.7057 0.94109 0.0
C855 C 0.84495 0.67568 0.97065 0.0
C856 C 0.81937 0.68522 0.96071 0.0
H857 H 0.69762 0.7082 0.87561 0.0
H858 H 0.73184 0.6845 0.89868 0.0
H859 H 0.76969 0.71988 0.98855 0.0
H860 H 0.90624 0.69986 1.00795 0.0
H861 H 0.86441 0.71539 0.99073 0.0
C862 C 0.3728 0.76955 0.18095 0.0
C863 C 0.37158 0.76338 0.2129 0.0
C864 C 0.38611 0.79608 0.16964 0.0
C865 C 0.43897 0.8598 0.18986 0.0
H866 H 0.40684 0.89303 0.12168 0.0
C867 C 0.50228 0.95616 0.12195 0.0
C868 C 0.48787 0.97682 0.11269 0.0
C869 C 0.4874 0.93087 0.13499 0.0
C870 C 0.41601 0.88421 0.1409 0.0
H871 H 0.38341 0.78081 0.25793 0.0
H872 H 0.40675 0.82703 0.2382 0.0
H873 H 0.38202 0.84802 0.14322 0.0
H874 H 0.4465 0.98716 0.10977 0.0
H875 H 0.42038 0.94293 0.13266 0.0
H876 H 0.47283 0.89607 0.18773 0.0
C877 C 0.39761 0.81116 0.22184 0.0
C878 C 0.40192 0.85819 0.15305 0.0
C879 C 0.38421 0.78458 0.23318 0.0
C880 C 0.45818 0.97161 0.11668 0.0
C881 C 0.44322 0.9462 0.12965 0.0
C882 C 0.45311 0.88576 0.17764 0.0
C883 C 0.39872 0.8173 0.18989 0.0
C884 C 0.41328 0.84551 0.17759 0.0
C885 C 0.45766 0.92548 0.13908 0.0
C886 C 0.44195 0.89827 0.15284 0.0
H887 H 0.36386 0.75367 0.1645 0.0
H888 H 0.38699 0.79978 0.14487 0.0
H889 H 0.44853 0.85067 0.20855 0.0
H890 H 0.52514 0.95947 0.11902 0.0
H891 H 0.49925 0.91532 0.14144 0.0
C892 C 0.12862 0.30022 0.73572 0.0
C893 C 0.13254 0.32431 0.71702 0.0
C894 C 0.11808 0.27367 0.72326 0.0
C895 C 0.10566 0.2371 0.64652 0.0
H896 H 0.06374 0.17655 0.69802 0.0
C897 C 0.07163 0.12532 0.59701 0.0
C898 C 0.04612 0.10826 0.60823 0.0
C899 C 0.08298 0.15078 0.61137 0.0
C900 C 0.07505 0.1932 0.68302 0.0
H901 H 0.1275 0.33974 0.67105 0.0
H902 H 0.1076 0.29399 0.64971 0.0
H903 H 0.07963 0.22244 0.72027 0.0
H904 H 0.01246 0.10473 0.64337 0.0
H905 H 0.0313 0.14937 0.66746 0.0
H906 H 0.09958 0.20845 0.60884 0.0
C907 C 0.11375 0.29505 0.67363 0.0
C908 C 0.08471 0.21966 0.69605 0.0
C909 C 0.12485 0.32145 0.68593 0.0
C910 C 0.03236 0.11718 0.63433 0.0
C911 C 0.04335 0.14289 0.6483 0.0
C912 C 0.09552 0.21084 0.63336 0.0
C913 C 0.11065 0.27057 0.69188 0.0
C914 C 0.1002 0.24213 0.67804 0.0
C915 C 0.06881 0.16028 0.637 0.0
C916 C 0.08006 0.18835 0.65134 0.0
H917 H 0.13467 0.30185 0.7597 0.0
H918 H 0.11655 0.25556 0.73815 0.0
H919 H 0.11798 0.25341 0.63177 0.0
H920 H 0.08294 0.11896 0.57715 0.0
H921 H 0.10296 0.16294 0.60226 0.0
C922 C 0.67405 0.22981 0.56391 0.0
C923 C 0.70003 0.24067 0.54848 0.0
C924 C 0.66049 0.24733 0.58156 0.0
C925 C 0.66654 0.322 0.60653 0.0
H926 H 0.58971 0.30879 0.57723 0.0
C927 C 0.61234 0.40782 0.5653 0.0
C928 C 0.58263 0.40374 0.56733 0.0
C929 C 0.62596 0.38773 0.57713 0.0
C930 C 0.6108 0.31263 0.58647 0.0
H931 H 0.73345 0.27736 0.54089 0.0
H932 H 0.70937 0.30841 0.57041 0.0
H933 H 0.61593 0.27198 0.57369 0.0
H934 H 0.54406 0.37694 0.58595 0.0
H935 H 0.56788 0.3417 0.60653 0.0
H936 H 0.66172 0.36366 0.61697 0.0
C937 C 0.69963 0.28634 0.56994 0.0
C938 C 0.62596 0.29136 0.58451 0.0
C939 C 0.71342 0.26865 0.55282 0.0
C940 C 0.56696 0.38023 0.5834 0.0
C941 C 0.58058 0.36018 0.59532 0.0
C942 C 0.65137 0.34343 0.60827 0.0
C943 C 0.67232 0.27617 0.58322 0.0
C944 C 0.65446 0.29615 0.59317 0.0
C945 C 0.61012 0.36323 0.59129 0.0
C946 C 0.62378 0.33928 0.59697 0.0
H947 H 0.66354 0.20814 0.5609 0.0
H948 H 0.63985 0.23865 0.59215 0.0
H949 H 0.68823 0.32619 0.61405 0.0
H950 H 0.62495 0.42572 0.55298 0.0
H951 H 0.6487 0.39055 0.57327 0.0
loop_
_geom_bond_atom_site_label_1
_geom_bond_atom_site_label_2
_geom_bond_distance
_geom_bond_site_symmetry_2
_ccdc_geom_bond_type
H0 C3 0.931 . S
H1 C6 0.928 . S
H2 C8 0.930 . S
C3 H0 0.931 . S
C3 C4 1.413 . S
C3 C5 1.360 . S
C4 C3 1.413 . S
C4 C8 1.429 . S
C5 C3 1.360 . S
C5 C6 1.372 . S
C6 H1 0.928 . S
C6 C5 1.372 . S
C6 C7 1.404 . S
C7 C6 1.404 . S
C7 C8 1.391 . S
C8 H2 0.930 . S
C8 C4 1.429 . S
C8 C7 1.391 . S
H9 C12 0.931 . S
H10 C15 0.928 . S
H11 C17 0.930 . S
C12 H9 0.931 . S
C12 C13 1.413 . S
C12 C14 1.360 . S
C13 C12 1.413 . S
C13 C17 1.429 . S
C14 C12 1.360 . S
C14 C15 1.372 . S
C15 H10 0.928 . S
C15 C14 1.372 . S
C15 C16 1.404 . S
C16 C15 1.404 . S
C16 C17 1.391 . S
C17 H11 0.930 . S
C17 C13 1.429 . S
C17 C16 1.391 . S
H18 C21 0.931 . S
H19 C24 0.928 . S
H20 C26 0.930 . S
C21 H18 0.931 . S
C21 C22 1.413 . S
C21 C23 1.360 . S
C22 C21 1.413 . S
C22 C26 1.429 . S
C23 C21 1.360 . S
C23 C24 1.372 . S
C24 H19 0.928 . S
C24 C23 1.372 . S
C24 C25 1.404 . S
C25 C24 1.404 . S
C25 C26 1.391 . S
C26 H20 0.930 . S
C26 C22 1.429 . S
C26 C25 1.391 . S
H27 C30 0.931 . S
H28 C33 0.928 . S
H29 C35 0.930 . S
C30 H27 0.931 . S
C30 C31 1.413 . S
C30 C32 1.360 . S
C31 C30 1.413 . S
C31 C35 1.429 . S
C32 C30 1.360 . S
C32 C33 1.372 . S
C33 H28 0.928 . S
C33 C32 1.372 . S
C33 C34 1.404 . S
C34 C33 1.404 . S
C34 C35 1.391 . S
C35 H29 0.930 . S
C35 C31 1.429 . S
C35 C34 1.391 . S
H36 C39 0.931 . S
H37 C42 0.928 . S
H38 C44 0.930 . S
C39 H36 0.931 . S
C39 C40 1.413 . S
C39 C41 1.360 . S
C40 C39 1.413 . S
C40 C44 1.429 . S
C41 C39 1.360 . S
C41 C42 1.372 . S
C42 H37 0.928 . S
C42 C41 1.372 . S
C42 C43 1.404 . S
C43 C42 1.404 . S
C43 C44 1.391 . S
C44 H38 0.930 . S
C44 C40 1.429 . S
C44 C43 1.391 . S
H45 C48 0.931 . S
H46 C51 0.928 . S
H47 C53 0.930 . S
C48 H45 0.931 . S
C48 C49 1.413 . S
C48 C50 1.360 . S
C49 C48 1.413 . S
C49 C53 1.429 . S
C50 C48 1.360 . S
C50 C51 1.372 . S
C51 H46 0.928 . S
C51 C50 1.372 . S
C51 C52 1.404 . S
C52 C51 1.404 . S
C52 C53 1.391 . S
C53 H47 0.930 . S
C53 C49 1.429 . S
C53 C52 1.391 . S
H54 C57 0.931 . S
H55 C60 0.928 . S
H56 C62 0.930 . S
C57 H54 0.931 . S
C57 C58 1.413 . S
C57 C59 1.360 . S
C58 C57 1.413 . S
C58 C62 1.429 . S
C59 C57 1.360 . S
C59 C60 1.372 . S
C60 H55 0.928 . S
C60 C59 1.372 . S
C60 C61 1.404 . S
C61 C60 1.404 . S
C61 C62 1.391 . S
C62 H56 0.930 . S
C62 C58 1.429 . S
C62 C61 1.391 . S
H63 C66 0.931 . S
H64 C69 0.928 . S
H65 C71 0.930 . S
C66 H63 0.931 . S
C66 C67 1.413 . S
C66 C68 1.360 . S
C67 C66 1.413 . S
C67 C71 1.429 . S
C68 C66 1.360 . S
C68 C69 1.372 . S
C69 H64 0.928 . S
C69 C68 1.372 . S
C69 C70 1.404 . S
C70 C69 1.404 . S
C70 C71 1.391 . S
C71 H65 0.930 . S
C71 C67 1.429 . S
C71 C70 1.391 . S
La72 C74 2.928 . S
La72 O92 2.521 . S
La72 O93 2.628 . S
La72 O94 2.554 1_545 S
La72 O95 2.757 1_545 S
La72 O96 2.470 . S
La72 O101 2.482 1_455 S
La72 O103 2.503 1_445 S
La73 C83 2.928 . S
La73 O95 2.482 1_655 S
La73 O97 2.503 1_665 S
La73 O98 2.521 . S
La73 O99 2.628 . S
La73 O100 2.554 1_565 S
La73 O101 2.757 1_565 S
La73 O102 2.470 . S
C74 La72 2.928 . S
C74 C75 1.503 . S
C74 O92 1.261 . S
C74 O93 1.243 . S
C75 C74 1.503 . S
C75 C76 1.394 . S
C75 C80 1.373 . S
C76 C75 1.394 . S
C76 C77 1.380 . S
C76 H104 0.930 . S
C77 C76 1.380 . S
C77 C78 1.376 . S
C77 H105 0.930 . S
C78 C77 1.376 . S
C78 C79 1.370 . S
C79 C78 1.370 . S
C79 C80 1.396 . S
C79 H106 0.929 . S
C80 C75 1.373 . S
C80 C79 1.396 . S
C80 H107 0.929 . S
C81 O94 1.240 . S
C81 O95 1.289 . S
C82 O96 1.258 . S
C82 O97 1.256 . S
C83 La73 2.928 . S
C83 C84 1.503 . S
C83 O98 1.261 . S
C83 O99 1.243 . S
C84 C83 1.503 . S
C84 C85 1.394 . S
C84 C89 1.373 . S
C85 C84 1.394 . S
C85 C86 1.380 . S
C85 H108 0.930 . S
C86 C85 1.380 . S
C86 C87 1.376 . S
C86 H109 0.930 . S
C87 C86 1.376 . S
C87 C88 1.370 . S
C88 C87 1.370 . S
C88 C89 1.396 . S
C88 H110 0.929 . S
C89 C84 1.373 . S
C89 C88 1.396 . S
C89 H111 0.929 . S
C90 O100 1.240 . S
C90 O101 1.289 . S
C91 O102 1.258 . S
C91 O103 1.256 . S
O92 La72 2.521 . S
O92 C74 1.261 . S
O93 La72 2.628 . S
O93 C74 1.243 . S
O94 La72 2.554 1_565 S
O94 C81 1.240 . S
O95 La72 2.757 1_565 S
O95 La73 2.482 1_455 S
O95 C81 1.289 . S
O96 La72 2.470 . S
O96 C82 1.258 . S
O97 La73 2.503 1_445 S
O97 C82 1.256 . S
O98 La73 2.521 . S
O98 C83 1.261 . S
O99 La73 2.628 . S
O99 C83 1.243 . S
O100 La73 2.554 1_545 S
O100 C90 1.240 . S
O101 La72 2.482 1_655 S
O101 La73 2.757 1_545 S
O101 C90 1.289 . S
O102 La73 2.470 . S
O102 C91 1.258 . S
O103 La72 2.503 1_665 S
O103 C91 1.256 . S
H104 C76 0.930 . S
H105 C77 0.930 . S
H106 C79 0.929 . S
H107 C80 0.929 . S
H108 C85 0.930 . S
H109 C86 0.930 . S
H110 C88 0.929 . S
H111 C89 0.929 . S
La112 C114 2.917 1_565 S
La112 O132 2.519 1_565 S
La112 O133 2.610 1_565 S
La112 O134 2.570 . S
La112 O135 2.765 . S
La112 O136 2.459 1_565 S
La112 O141 2.467 1_564 S
La112 O143 2.515 1_554 S
La113 C123 2.928 1_545 S
La113 O135 2.482 1_546 S
La113 O137 2.503 1_556 S
La113 O138 2.521 1_545 S
La113 O139 2.628 1_545 S
La113 O140 2.554 . S
La113 O141 2.757 . S
La113 O142 2.470 1_545 S
C114 La112 2.917 1_545 S
C114 C115 1.503 . S
C114 O132 1.261 . S
C114 O133 1.243 . S
C115 C114 1.503 . S
C115 C116 1.394 . S
C115 C120 1.373 . S
C116 C115 1.394 . S
C116 C117 1.380 . S
C116 H144 0.930 . S
C117 C116 1.380 . S
C117 C118 1.376 . S
C117 H145 0.930 . S
C118 C117 1.376 . S
C118 C119 1.370 . S
C119 C118 1.370 . S
C119 C120 1.396 . S
C119 H146 0.929 . S
C120 C115 1.373 . S
C120 C119 1.396 . S
C120 H147 0.929 . S
C121 O134 1.240 . S
C121 O135 1.289 . S
C122 O136 1.258 . S
C122 O137 1.256 . S
C123 La113 2.928 1_565 S
C123 C124 1.503 . S
C123 O138 1.261 . S
C123 O139 1.243 . S
C124 C123 1.503 . S
C124 C125 1.394 . S
C124 C129 1.373 . S
C125 C124 1.394 . S
C125 C126 1.380 . S
C125 H148 0.930 . S
C126 C125 1.380 . S
C126 C127 1.376 . S
C126 H149 0.930 . S
C127 C126 1.376 . S
C127 C128 1.370 . S
C128 C127 1.370 . S
C128 C129 1.396 . S
C128 H150 0.929 . S
C129 C124 1.373 . S
C129 C128 1.396 . S
C129 H151 0.929 . S
C130 O140 1.240 . S
C130 O141 1.289 . S
C131 O142 1.258 . S
C131 O143 1.256 . S
O132 La112 2.519 1_545 S
O132 C114 1.261 . S
O133 La112 2.610 1_545 S
O133 C114 1.243 . S
O134 La112 2.570 . S
O134 C121 1.240 . S
O135 La112 2.765 . S
O135 La113 2.482 1_564 S
O135 C121 1.289 . S
O136 La112 2.459 1_545 S
O136 C122 1.258 . S
O137 La113 2.503 1_554 S
O137 C122 1.256 . S
O138 La113 2.521 1_565 S
O138 C123 1.261 . S
O139 La113 2.628 1_565 S
O139 C123 1.243 . S
O140 La113 2.554 . S
O140 C130 1.240 . S
O141 La112 2.467 1_546 S
O141 La113 2.757 . S
O141 C130 1.289 . S
O142 La113 2.470 1_565 S
O142 C131 1.258 . S
O143 La112 2.515 1_556 S
O143 C131 1.256 . S
H144 C116 0.930 . S
H145 C117 0.930 . S
H146 C119 0.929 . S
H147 C120 0.929 . S
H148 C125 0.930 . S
H149 C126 0.930 . S
H150 C128 0.929 . S
H151 C129 0.929 . S
La152 C154 2.928 . S
La152 O172 2.521 . S
La152 O173 2.628 . S
La152 O174 2.554 . S
La152 O175 2.757 . S
La152 O176 2.470 . S
La152 O181 2.482 . S
La152 O183 2.503 . S
La153 C163 2.928 . S
La153 O175 2.482 . S
La153 O177 2.503 . S
La153 O178 2.521 . S
La153 O179 2.628 . S
La153 O180 2.554 . S
La153 O181 2.757 . S
La153 O182 2.470 . S
C154 La152 2.928 . S
C154 C155 1.503 . S
C154 O172 1.261 . S
C154 O173 1.243 . S
C155 C154 1.503 . S
C155 C156 1.394 . S
C155 C160 1.373 . S
C156 C155 1.394 . S
C156 C157 1.380 . S
C156 H184 0.930 . S
C157 C156 1.380 . S
C157 C158 1.376 . S
C157 H185 0.930 . S
C158 C157 1.376 . S
C158 C159 1.370 . S
C159 C158 1.370 . S
C159 C160 1.396 . S
C159 H186 0.929 . S
C160 C155 1.373 . S
C160 C159 1.396 . S
C160 H187 0.929 . S
C161 O174 1.240 . S
C161 O175 1.289 . S
C162 O176 1.258 . S
C162 O177 1.256 . S
C163 La153 2.928 . S
C163 C164 1.503 . S
C163 O178 1.261 . S
C163 O179 1.243 . S
C164 C163 1.503 . S
C164 C165 1.394 . S
C164 C169 1.373 . S
C165 C164 1.394 . S
C165 C166 1.380 . S
C165 H188 0.930 . S
C166 C165 1.380 . S
C166 C167 1.376 . S
C166 H189 0.930 . S
C167 C166 1.376 . S
C167 C168 1.370 . S
C168 C167 1.370 . S
C168 C169 1.396 . S
C168 H190 0.929 . S
C169 C164 1.373 . S
C169 C168 1.396 . S
C169 H191 0.929 . S
C170 O180 1.240 . S
C170 O181 1.289 . S
C171 O182 1.258 . S
C171 O183 1.256 . S
O172 La152 2.521 . S
O172 C154 1.261 . S
O173 La152 2.628 . S
O173 C154 1.243 . S
O174 La152 2.554 . S
O174 C161 1.240 . S
O175 La152 2.757 . S
O175 La153 2.482 . S
O175 C161 1.289 . S
O176 La152 2.470 . S
O176 C162 1.258 . S
O177 La153 2.503 . S
O177 C162 1.256 . S
O178 La153 2.521 . S
O178 C163 1.261 . S
O179 La153 2.628 . S
O179 C163 1.243 . S
O180 La153 2.554 . S
O180 C170 1.240 . S
O181 La152 2.482 . S
O181 La153 2.757 . S
O181 C170 1.289 . S
O182 La153 2.470 . S
O182 C171 1.258 . S
O183 La152 2.503 . S
O183 C171 1.256 . S
H184 C156 0.930 . S
H185 C157 0.930 . S
H186 C159 0.929 . S
H187 C160 0.929 . S
H188 C165 0.930 . S
H189 C166 0.930 . S
H190 C168 0.929 . S
H191 C169 0.929 . S
La192 C194 2.928 . S
La192 O212 2.521 . S
La192 O213 2.628 . S
La192 O214 2.554 1_455 S
La192 O215 2.757 1_455 S
La192 O216 2.470 . S
La192 O221 2.482 1_554 S
La192 O223 2.503 1_454 S
La193 C203 2.928 . S
La193 O215 2.482 1_556 S
La193 O217 2.503 1_656 S
La193 O218 2.521 . S
La193 O219 2.628 . S
La193 O220 2.554 1_655 S
La193 O221 2.757 1_655 S
La193 O222 2.470 . S
C194 La192 2.928 . S
C194 C195 1.503 . S
C194 O212 1.261 . S
C194 O213 1.243 . S
C195 C194 1.503 . S
C195 C196 1.394 . S
C195 C200 1.373 . S
C196 C195 1.394 . S
C196 C197 1.380 . S
C196 H224 0.930 . S
C197 C196 1.380 . S
C197 C198 1.376 . S
C197 H225 0.930 . S
C198 C197 1.376 . S
C198 C199 1.370 . S
C199 C198 1.370 . S
C199 C200 1.396 . S
C199 H226 0.929 . S
C200 C195 1.373 . S
C200 C199 1.396 . S
C200 H227 0.929 . S
C201 O214 1.240 . S
C201 O215 1.289 . S
C202 O216 1.258 . S
C202 O217 1.256 . S
C203 La193 2.928 . S
C203 C204 1.503 . S
C203 O218 1.261 . S
C203 O219 1.243 . S
C204 C203 1.503 . S
C204 C205 1.394 . S
C204 C209 1.373 . S
C205 C204 1.394 . S
C205 C206 1.380 . S
C205 H228 0.930 . S
C206 C205 1.380 . S
C206 C207 1.376 . S
C206 H229 0.930 . S
C207 C206 1.376 . S
C207 C208 1.370 . S
C208 C207 1.370 . S
C208 C209 1.396 . S
C208 H230 0.929 . S
C209 C204 1.373 . S
C209 C208 1.396 . S
C209 H231 0.929 . S
C210 O220 1.240 . S
C210 O221 1.289 . S
C211 O222 1.258 . S
C211 O223 1.256 . S
O212 La192 2.521 . S
O212 C194 1.261 . S
O213 La192 2.628 . S
O213 C194 1.243 . S
O214 La192 2.554 1_655 S
O214 C201 1.240 . S
O215 La192 2.757 1_655 S
O215 La193 2.482 1_554 S
O215 C201 1.289 . S
O216 La192 2.470 . S
O216 C202 1.258 . S
O217 La193 2.503 1_454 S
O217 C202 1.256 . S
O218 La193 2.521 . S
O218 C203 1.261 . S
O219 La193 2.628 . S
O219 C203 1.243 . S
O220 La193 2.554 1_455 S
O220 C210 1.240 . S
O221 La192 2.482 1_556 S
O221 La193 2.757 1_455 S
O221 C210 1.289 . S
O222 La193 2.470 . S
O222 C211 1.258 . S
O223 La192 2.503 1_656 S
O223 C211 1.256 . S
H224 C196 0.930 . S
H225 C197 0.930 . S
H226 C199 0.929 . S
H227 C200 0.929 . S
H228 C205 0.930 . S
H229 C206 0.930 . S
H230 C208 0.929 . S
H231 C209 0.929 . S
C232 C233 1.349 . S
C232 C234 1.327 . S
C232 H257 0.950 . S
C233 C232 1.349 . S
C233 C249 1.349 . S
C234 C232 1.327 . S
C234 C253 1.429 . S
C234 H258 0.950 . S
C235 C252 1.574 . S
C235 C254 1.368 . S
C235 H259 0.949 . S
H236 C240 0.949 . S
C237 C238 1.349 . S
C237 C239 1.327 . S
C237 H260 0.950 . S
C238 C237 1.349 . S
C238 C250 1.349 . S
C239 C237 1.327 . S
C239 C255 1.429 . S
C239 H261 0.950 . S
C240 H236 0.949 . S
C240 C248 1.574 . S
C240 C256 1.368 . S
H241 C249 0.950 . S
H242 C247 0.950 . S
H243 C248 0.949 . S
H244 C250 0.950 . S
H245 C251 0.950 . S
H246 C252 0.949 . S
C247 H242 0.950 . S
C247 C249 1.327 . S
C247 C253 1.429 . S
C248 C240 1.574 . S
C248 H243 0.949 . S
C248 C254 1.368 . S
C249 C233 1.349 . S
C249 H241 0.950 . S
C249 C247 1.327 . S
C250 C238 1.349 . S
C250 H244 0.950 . S
C250 C251 1.327 . S
C251 H245 0.950 . S
C251 C250 1.327 . S
C251 C255 1.429 . S
C252 C235 1.574 . S
C252 H246 0.949 . S
C252 C256 1.368 . S
C253 C234 1.429 . S
C253 C247 1.429 . S
C253 C254 1.523 . S
C254 C235 1.368 . S
C254 C248 1.368 . S
C254 C253 1.523 . S
C255 C239 1.429 . S
C255 C251 1.429 . S
C255 C256 1.523 . S
C256 C240 1.368 . S
C256 C252 1.368 . S
C256 C255 1.523 . S
H257 C232 0.950 . S
H258 C234 0.950 . S
H259 C235 0.949 . S
H260 C237 0.950 . S
H261 C239 0.950 . S
C262 C263 1.349 . S
C262 C264 1.327 . S
C262 H287 0.950 . S
C263 C262 1.349 . S
C263 C279 1.349 . S
C264 C262 1.327 . S
C264 C283 1.429 . S
C264 H288 0.950 . S
C265 C282 1.574 . S
C265 C284 1.368 . S
C265 H289 0.949 . S
H266 C270 0.949 . S
C267 C268 1.349 . S
C267 C269 1.327 . S
C267 H290 0.950 . S
C268 C267 1.349 . S
C268 C280 1.349 . S
C269 C267 1.327 . S
C269 C285 1.429 . S
C269 H291 0.950 . S
C270 H266 0.949 . S
C270 C278 1.574 . S
C270 C286 1.368 . S
H271 C279 0.950 . S
H272 C277 0.950 . S
H273 C278 0.949 . S
H274 C280 0.950 . S
H275 C281 0.950 . S
H276 C282 0.949 . S
C277 H272 0.950 . S
C277 C279 1.327 . S
C277 C283 1.429 . S
C278 C270 1.574 . S
C278 H273 0.949 . S
C278 C284 1.368 . S
C279 C263 1.349 . S
C279 H271 0.950 . S
C279 C277 1.327 . S
C280 C268 1.349 . S
C280 H274 0.950 . S
C280 C281 1.327 . S
C281 H275 0.950 . S
C281 C280 1.327 . S
C281 C285 1.429 . S
C282 C265 1.574 . S
C282 H276 0.949 . S
C282 C286 1.368 . S
C283 C264 1.429 . S
C283 C277 1.429 . S
C283 C284 1.523 . S
C284 C265 1.368 . S
C284 C278 1.368 . S
C284 C283 1.523 . S
C285 C269 1.429 . S
C285 C281 1.429 . S
C285 C286 1.523 . S
C286 C270 1.368 . S
C286 C282 1.368 . S
C286 C285 1.523 . S
H287 C262 0.950 . S
H288 C264 0.950 . S
H289 C265 0.949 . S
H290 C267 0.950 . S
H291 C269 0.950 . S
C292 C293 1.349 . S
C292 C294 1.327 . S
C292 H317 0.950 . S
C293 C292 1.349 . S
C293 C309 1.349 . S
C294 C292 1.327 . S
C294 C313 1.429 . S
C294 H318 0.950 . S
C295 C312 1.574 . S
C295 C314 1.368 . S
C295 H319 0.949 . S
H296 C300 0.949 . S
C297 C298 1.349 . S
C297 C299 1.327 . S
C297 H320 0.950 . S
C298 C297 1.349 . S
C298 C310 1.349 . S
C299 C297 1.327 . S
C299 C315 1.429 . S
C299 H321 0.950 . S
C300 H296 0.949 . S
C300 C308 1.574 . S
C300 C316 1.368 . S
H301 C309 0.950 . S
H302 C307 0.950 . S
H303 C308 0.949 . S
H304 C310 0.950 . S
H305 C311 0.950 . S
H306 C312 0.949 . S
C307 H302 0.950 . S
C307 C309 1.327 . S
C307 C313 1.429 . S
C308 C300 1.574 . S
C308 H303 0.949 . S
C308 C314 1.368 . S
C309 C293 1.349 . S
C309 H301 0.950 . S
C309 C307 1.327 . S
C310 C298 1.349 . S
C310 H304 0.950 . S
C310 C311 1.327 . S
C311 H305 0.950 . S
C311 C310 1.327 . S
C311 C315 1.429 . S
C312 C295 1.574 . S
C312 H306 0.949 . S
C312 C316 1.368 . S
C313 C294 1.429 . S
C313 C307 1.429 . S
C313 C314 1.523 . S
C314 C295 1.368 . S
C314 C308 1.368 . S
C314 C313 1.523 . S
C315 C299 1.429 . S
C315 C311 1.429 . S
C315 C316 1.523 . S
C316 C300 1.368 . S
C316 C312 1.368 . S
C316 C315 1.523 . S
H317 C292 0.950 . S
H318 C294 0.950 . S
H319 C295 0.949 . S
H320 C297 0.950 . S
H321 C299 0.950 . S
C322 C323 1.349 . S
C322 C324 1.327 . S
C322 H347 0.950 . S
C323 C322 1.349 . S
C323 C339 1.349 . S
C324 C322 1.327 . S
C324 C343 1.429 . S
C324 H348 0.950 . S
C325 C342 1.574 . S
C325 C344 1.368 . S
C325 H349 0.949 . S
H326 C330 0.949 . S
C327 C328 1.349 . S
C327 C329 1.327 . S
C327 H350 0.950 . S
C328 C327 1.349 . S
C328 C340 1.349 . S
C329 C327 1.327 . S
C329 C345 1.429 . S
C329 H351 0.950 . S
C330 H326 0.949 . S
C330 C338 1.574 . S
C330 C346 1.368 . S
H331 C339 0.950 . S
H332 C337 0.950 . S
H333 C338 0.949 . S
H334 C340 0.950 . S
H335 C341 0.950 . S
H336 C342 0.949 . S
C337 H332 0.950 . S
C337 C339 1.327 . S
C337 C343 1.429 . S
C338 C330 1.574 . S
C338 H333 0.949 . S
C338 C344 1.368 . S
C339 C323 1.349 . S
C339 H331 0.950 . S
C339 C337 1.327 . S
C340 C328 1.349 . S
C340 H334 0.950 . S
C340 C341 1.327 . S
C341 H335 0.950 . S
C341 C340 1.327 . S
C341 C345 1.429 . S
C342 C325 1.574 . S
C342 H336 0.949 . S
C342 C346 1.368 . S
C343 C324 1.429 . S
C343 C337 1.429 . S
C343 C344 1.523 . S
C344 C325 1.368 . S
C344 C338 1.368 . S
C344 C343 1.523 . S
C345 C329 1.429 . S
C345 C341 1.429 . S
C345 C346 1.523 . S
C346 C330 1.368 . S
C346 C342 1.368 . S
C346 C345 1.523 . S
H347 C322 0.950 . S
H348 C324 0.950 . S
H349 C325 0.949 . S
H350 C327 0.950 . S
H351 C329 0.950 . S
C352 C353 1.349 . S
C352 C354 1.327 . S
C352 H377 0.950 . S
C353 C352 1.349 . S
C353 C369 1.349 . S
C354 C352 1.327 . S
C354 C373 1.429 . S
C354 H378 0.950 . S
C355 C372 1.574 . S
C355 C374 1.368 . S
C355 H379 0.949 . S
H356 C360 0.949 . S
C357 C358 1.349 . S
C357 C359 1.327 . S
C357 H380 0.950 . S
C358 C357 1.349 . S
C358 C370 1.349 . S
C359 C357 1.327 . S
C359 C375 1.429 . S
C359 H381 0.950 . S
C360 H356 0.949 . S
C360 C368 1.574 . S
C360 C376 1.368 . S
H361 C369 0.950 . S
H362 C367 0.950 . S
H363 C368 0.949 . S
H364 C370 0.950 . S
H365 C371 0.950 . S
H366 C372 0.949 . S
C367 H362 0.950 . S
C367 C369 1.327 . S
C367 C373 1.429 . S
C368 C360 1.574 . S
C368 H363 0.949 . S
C368 C374 1.368 . S
C369 C353 1.349 . S
C369 H361 0.950 . S
C369 C367 1.327 . S
C370 C358 1.349 . S
C370 H364 0.950 . S
C370 C371 1.327 . S
C371 H365 0.950 . S
C371 C370 1.327 . S
C371 C375 1.429 . S
C372 C355 1.574 . S
C372 H366 0.949 . S
C372 C376 1.368 . S
C373 C354 1.429 . S
C373 C367 1.429 . S
C373 C374 1.523 . S
C374 C355 1.368 . S
C374 C368 1.368 . S
C374 C373 1.523 . S
C375 C359 1.429 . S
C375 C371 1.429 . S
C375 C376 1.523 . S
C376 C360 1.368 . S
C376 C372 1.368 . S
C376 C375 1.523 . S
H377 C352 0.950 . S
H378 C354 0.950 . S
H379 C355 0.949 . S
H380 C357 0.950 . S
H381 C359 0.950 . S
C382 C383 1.349 . S
C382 C384 1.327 . S
C382 H407 0.950 . S
C383 C382 1.349 . S
C383 C399 1.349 . S
C384 C382 1.327 . S
C384 C403 1.429 . S
C384 H408 0.950 . S
C385 C402 1.574 . S
C385 C404 1.368 . S
C385 H409 0.949 . S
H386 C390 0.949 . S
C387 C388 1.349 . S
C387 C389 1.327 . S
C387 H410 0.950 . S
C388 C387 1.349 . S
C388 C400 1.349 . S
C389 C387 1.327 . S
C389 C405 1.429 . S
C389 H411 0.950 . S
C390 H386 0.949 . S
C390 C398 1.574 . S
C390 C406 1.368 . S
H391 C399 0.950 . S
H392 C397 0.950 . S
H393 C398 0.949 . S
H394 C400 0.947 1_545 S
H395 C401 0.950 . S
H396 C402 0.949 . S
C397 H392 0.950 . S
C397 C399 1.327 . S
C397 C403 1.429 . S
C398 C390 1.574 . S
C398 H393 0.949 . S
C398 C404 1.368 . S
C399 C383 1.349 . S
C399 H391 0.950 . S
C399 C397 1.327 . S
C400 C388 1.349 . S
C400 H394 0.947 1_565 S
C400 C401 1.327 . S
C401 H395 0.950 . S
C401 C400 1.327 . S
C401 C405 1.429 . S
C402 C385 1.574 . S
C402 H396 0.949 . S
C402 C406 1.368 . S
C403 C384 1.429 . S
C403 C397 1.429 . S
C403 C404 1.523 . S
C404 C385 1.368 . S
C404 C398 1.368 . S
C404 C403 1.523 . S
C405 C389 1.429 . S
C405 C401 1.429 . S
C405 C406 1.523 . S
C406 C390 1.368 . S
C406 C402 1.368 . S
C406 C405 1.523 . S
H407 C382 0.950 . S
H408 C384 0.950 . S
H409 C385 0.949 . S
H410 C387 0.950 . S
H411 C389 0.950 . S
C412 C413 1.349 . S
C412 C414 1.327 . S
C412 H437 0.950 . S
C413 C412 1.349 . S
C413 C429 1.349 . S
C414 C412 1.327 . S
C414 C433 1.429 . S
C414 H438 0.950 . S
C415 C432 1.574 . S
C415 C434 1.368 . S
C415 H439 0.949 . S
H416 C420 0.949 . S
C417 C418 1.349 . S
C417 C419 1.327 . S
C417 H440 0.950 . S
C418 C417 1.349 . S
C418 C430 1.349 . S
C419 C417 1.327 . S
C419 C435 1.429 . S
C419 H441 0.950 . S
C420 H416 0.949 . S
C420 C428 1.574 . S
C420 C436 1.368 . S
H421 C429 0.950 . S
H422 C427 0.950 . S
H423 C428 0.949 . S
H424 C430 0.950 . S
H425 C431 0.950 . S
H426 C432 0.949 . S
C427 H422 0.950 . S
C427 C429 1.327 . S
C427 C433 1.429 . S
C428 C420 1.574 . S
C428 H423 0.949 . S
C428 C434 1.368 . S
C429 C413 1.349 . S
C429 H421 0.950 . S
C429 C427 1.327 . S
C430 C418 1.349 . S
C430 H424 0.950 . S
C430 C431 1.327 . S
C431 H425 0.950 . S
C431 C430 1.327 . S
C431 C435 1.429 . S
C432 C415 1.574 . S
C432 H426 0.949 . S
C432 C436 1.368 . S
C433 C414 1.429 . S
C433 C427 1.429 . S
C433 C434 1.523 . S
C434 C415 1.368 . S
C434 C428 1.368 . S
C434 C433 1.523 . S
C435 C419 1.429 . S
C435 C431 1.429 . S
C435 C436 1.523 . S
C436 C420 1.368 . S
C436 C432 1.368 . S
C436 C435 1.523 . S
H437 C412 0.950 . S
H438 C414 0.950 . S
H439 C415 0.949 . S
H440 C417 0.950 . S
H441 C419 0.950 . S
C442 C443 1.349 . S
C442 C444 1.327 . S
C442 H467 0.950 . S
C443 C442 1.349 . S
C443 C459 1.349 . S
C444 C442 1.327 . S
C444 C463 1.429 . S
C444 H468 0.950 . S
C445 C462 1.574 . S
C445 C464 1.368 . S
C445 H469 0.949 . S
H446 C450 0.949 . S
C447 C448 1.349 . S
C447 C449 1.327 . S
C447 H470 0.950 . S
C448 C447 1.349 . S
C448 C460 1.349 . S
C449 C447 1.327 . S
C449 C465 1.429 . S
C449 H471 0.950 . S
C450 H446 0.949 . S
C450 C458 1.574 . S
C450 C466 1.368 . S
H451 C459 0.950 . S
H452 C457 0.950 . S
H453 C458 0.949 . S
H454 C460 0.950 . S
H455 C461 0.950 . S
H456 C462 0.949 . S
C457 H452 0.950 . S
C457 C459 1.327 . S
C457 C463 1.429 . S
C458 C450 1.574 . S
C458 H453 0.949 . S
C458 C464 1.368 . S
C459 C443 1.349 . S
C459 H451 0.950 . S
C459 C457 1.327 . S
C460 C448 1.349 . S
C460 H454 0.950 . S
C460 C461 1.327 . S
C461 H455 0.950 . S
C461 C460 1.327 . S
C461 C465 1.429 . S
C462 C445 1.574 . S
C462 H456 0.949 . S
C462 C466 1.368 . S
C463 C444 1.429 . S
C463 C457 1.429 . S
C463 C464 1.523 . S
C464 C445 1.368 . S
C464 C458 1.368 . S
C464 C463 1.523 . S
C465 C449 1.429 . S
C465 C461 1.429 . S
C465 C466 1.523 . S
C466 C450 1.368 . S
C466 C462 1.368 . S
C466 C465 1.523 . S
H467 C442 0.950 . S
H468 C444 0.950 . S
H469 C445 0.949 . S
H470 C447 0.950 . S
H471 C449 0.950 . S
C472 C473 1.349 . S
C472 C474 1.327 . S
C472 H497 0.950 . S
C473 C472 1.349 . S
C473 C489 1.349 . S
C474 C472 1.327 . S
C474 C493 1.429 . S
C474 H498 0.950 . S
C475 C492 1.574 . S
C475 C494 1.368 . S
C475 H499 0.949 . S
H476 C480 0.949 . S
C477 C478 1.349 . S
C477 C479 1.327 . S
C477 H500 0.950 . S
C478 C477 1.349 . S
C478 C490 1.349 . S
C479 C477 1.327 . S
C479 C495 1.429 . S
C479 H501 0.950 . S
C480 H476 0.949 . S
C480 C488 1.574 . S
C480 C496 1.368 . S
H481 C489 0.950 . S
H482 C487 0.950 . S
H483 C488 0.949 . S
H484 C490 0.950 . S
H485 C491 0.950 . S
H486 C492 0.949 . S
C487 H482 0.950 . S
C487 C489 1.327 . S
C487 C493 1.429 . S
C488 C480 1.574 . S
C488 H483 0.949 . S
C488 C494 1.368 . S
C489 C473 1.349 . S
C489 H481 0.950 . S
C489 C487 1.327 . S
C490 C478 1.349 . S
C490 H484 0.950 . S
C490 C491 1.327 . S
C491 H485 0.950 . S
C491 C490 1.327 . S
C491 C495 1.429 . S
C492 C475 1.574 . S
C492 H486 0.949 . S
C492 C496 1.368 . S
C493 C474 1.429 . S
C493 C487 1.429 . S
C493 C494 1.523 . S
C494 C475 1.368 . S
C494 C488 1.368 . S
C494 C493 1.523 . S
C495 C479 1.429 . S
C495 C491 1.429 . S
C495 C496 1.523 . S
C496 C480 1.368 . S
C496 C492 1.368 . S
C496 C495 1.523 . S
H497 C472 0.950 . S
H498 C474 0.950 . S
H499 C475 0.949 . S
H500 C477 0.950 . S
H501 C479 0.950 . S
C502 C503 1.349 . S
C502 C504 1.327 . S
C502 H527 0.950 . S
C503 C502 1.349 . S
C503 C519 1.349 . S
C504 C502 1.327 . S
C504 C523 1.429 . S
C504 H528 0.950 . S
C505 C522 1.574 . S
C505 C524 1.368 . S
C505 H529 0.949 . S
H506 C510 0.949 . S
C507 C508 1.349 . S
C507 C509 1.327 . S
C507 H530 0.950 . S
C508 C507 1.349 . S
C508 C520 1.349 . S
C509 C507 1.327 . S
C509 C525 1.429 . S
C509 H531 0.950 . S
C510 H506 0.949 . S
C510 C518 1.574 . S
C510 C526 1.368 . S
H511 C519 0.950 . S
H512 C517 0.950 . S
H513 C518 0.949 . S
H514 C520 0.950 . S
H515 C521 0.950 . S
H516 C522 0.949 . S
C517 H512 0.950 . S
C517 C519 1.327 . S
C517 C523 1.429 . S
C518 C510 1.574 . S
C518 H513 0.949 . S
C518 C524 1.368 . S
C519 C503 1.349 . S
C519 H511 0.950 . S
C519 C517 1.327 . S
C520 C508 1.349 . S
C520 H514 0.950 . S
C520 C521 1.327 . S
C521 H515 0.950 . S
C521 C520 1.327 . S
C521 C525 1.429 . S
C522 C505 1.574 . S
C522 H516 0.949 . S
C522 C526 1.368 . S
C523 C504 1.429 . S
C523 C517 1.429 . S
C523 C524 1.523 . S
C524 C505 1.368 . S
C524 C518 1.368 . S
C524 C523 1.523 . S
C525 C509 1.429 . S
C525 C521 1.429 . S
C525 C526 1.523 . S
C526 C510 1.368 . S
C526 C522 1.368 . S
C526 C525 1.523 . S
H527 C502 0.950 . S
H528 C504 0.950 . S
H529 C505 0.949 . S
H530 C507 0.950 . S
H531 C509 0.950 . S
C532 C533 1.349 . S
C532 C534 1.327 . S
C532 H557 0.950 . S
C533 C532 1.349 . S
C533 C549 1.349 . S
C534 C532 1.327 . S
C534 C553 1.429 . S
C534 H558 0.950 . S
C535 C552 1.574 . S
C535 C554 1.368 . S
C535 H559 0.949 . S
H536 C540 0.949 . S
C537 C538 1.349 . S
C537 C539 1.327 . S
C537 H560 0.950 . S
C538 C537 1.349 . S
C538 C550 1.349 . S
C539 C537 1.327 . S
C539 C555 1.429 . S
C539 H561 0.950 . S
C540 H536 0.949 . S
C540 C548 1.574 . S
C540 C556 1.368 . S
H541 C549 0.950 . S
H542 C547 0.950 . S
H543 C548 0.949 . S
H544 C550 0.950 . S
H545 C551 0.950 . S
H546 C552 0.949 . S
C547 H542 0.950 . S
C547 C549 1.327 . S
C547 C553 1.429 . S
C548 C540 1.574 . S
C548 H543 0.949 . S
C548 C554 1.368 . S
C549 C533 1.349 . S
C549 H541 0.950 . S
C549 C547 1.327 . S
C550 C538 1.349 . S
C550 H544 0.950 . S
C550 C551 1.327 . S
C551 H545 0.950 . S
C551 C550 1.327 . S
C551 C555 1.429 . S
C552 C535 1.574 . S
C552 H546 0.949 . S
C552 C556 1.368 . S
C553 C534 1.429 . S
C553 C547 1.429 . S
C553 C554 1.523 . S
C554 C535 1.368 . S
C554 C548 1.368 . S
C554 C553 1.523 . S
C555 C539 1.429 . S
C555 C551 1.429 . S
C555 C556 1.523 . S
C556 C540 1.368 . S
C556 C552 1.368 . S
C556 C555 1.523 . S
H557 C532 0.950 . S
H558 C534 0.950 . S
H559 C535 0.949 . S
H560 C537 0.950 . S
H561 C539 0.950 . S
C562 C563 1.349 . S
C562 C564 1.327 . S
C562 H587 0.950 . S
C563 C562 1.349 . S
C563 C579 1.349 . S
C564 C562 1.327 . S
C564 C583 1.429 . S
C564 H588 0.950 . S
C565 C582 1.574 . S
C565 C584 1.368 . S
C565 H589 0.949 . S
H566 C570 0.949 . S
C567 C568 1.349 . S
C567 C569 1.327 . S
C567 H590 0.950 . S
C568 C567 1.349 . S
C568 C580 1.349 . S
C569 C567 1.327 . S
C569 C585 1.429 . S
C569 H591 0.950 . S
C570 H566 0.949 . S
C570 C578 1.574 . S
C570 C586 1.368 . S
H571 C579 0.950 . S
H572 C577 0.950 . S
H573 C578 0.949 . S
H574 C580 0.950 . S
H575 C581 0.950 . S
H576 C582 0.949 . S
C577 H572 0.950 . S
C577 C579 1.327 . S
C577 C583 1.429 . S
C578 C570 1.574 . S
C578 H573 0.949 . S
C578 C584 1.368 . S
C579 C563 1.349 . S
C579 H571 0.950 . S
C579 C577 1.327 . S
C580 C568 1.349 . S
C580 H574 0.950 . S
C580 C581 1.327 . S
C581 H575 0.950 . S
C581 C580 1.327 . S
C581 C585 1.429 . S
C582 C565 1.574 . S
C582 H576 0.949 . S
C582 C586 1.368 . S
C583 C564 1.429 . S
C583 C577 1.429 . S
C583 C584 1.523 . S
C584 C565 1.368 . S
C584 C578 1.368 . S
C584 C583 1.523 . S
C585 C569 1.429 . S
C585 C581 1.429 . S
C585 C586 1.523 . S
C586 C570 1.368 . S
C586 C582 1.368 . S
C586 C585 1.523 . S
H587 C562 0.950 . S
H588 C564 0.950 . S
H589 C565 0.949 . S
H590 C567 0.950 . S
H591 C569 0.950 . S
C592 C593 1.349 . S
C592 C594 1.327 . S
C592 H617 0.950 . S
C593 C592 1.349 . S
C593 C609 1.349 . S
C594 C592 1.327 . S
C594 C613 1.429 . S
C594 H618 0.950 . S
C595 C612 1.574 . S
C595 C614 1.368 . S
C595 H619 0.949 . S
H596 C600 0.949 . S
C597 C598 1.349 . S
C597 C599 1.327 . S
C597 H620 0.950 . S
C598 C597 1.349 . S
C598 C610 1.349 . S
C599 C597 1.327 . S
C599 C615 1.429 . S
C599 H621 0.950 . S
C600 H596 0.949 . S
C600 C608 1.574 . S
C600 C616 1.368 . S
H601 C609 0.950 . S
H602 C607 0.950 . S
H603 C608 0.949 . S
H604 C610 0.950 . S
H605 C611 0.950 . S
H606 C612 0.949 . S
C607 H602 0.950 . S
C607 C609 1.327 . S
C607 C613 1.429 . S
C608 C600 1.574 . S
C608 H603 0.949 . S
C608 C614 1.368 . S
C609 C593 1.349 . S
C609 H601 0.950 . S
C609 C607 1.327 . S
C610 C598 1.349 . S
C610 H604 0.950 . S
C610 C611 1.327 . S
C611 H605 0.950 . S
C611 C610 1.327 . S
C611 C615 1.429 . S
C612 C595 1.574 . S
C612 H606 0.949 . S
C612 C616 1.368 . S
C613 C594 1.429 . S
C613 C607 1.429 . S
C613 C614 1.523 . S
C614 C595 1.368 . S
C614 C608 1.368 . S
C614 C613 1.523 . S
C615 C599 1.429 . S
C615 C611 1.429 . S
C615 C616 1.523 . S
C616 C600 1.368 . S
C616 C612 1.368 . S
C616 C615 1.523 . S
H617 C592 0.950 . S
H618 C594 0.950 . S
H619 C595 0.949 . S
H620 C597 0.950 . S
H621 C599 0.950 . S
C622 C623 1.349 . S
C622 C624 1.327 . S
C622 H647 0.950 . S
C623 C622 1.349 . S
C623 C639 1.349 . S
C624 C622 1.327 . S
C624 C643 1.429 . S
C624 H648 0.950 . S
C625 C642 1.574 . S
C625 C644 1.368 . S
C625 H649 0.949 . S
H626 C630 0.949 . S
C627 C628 1.349 . S
C627 C629 1.327 . S
C627 H650 0.950 . S
C628 C627 1.349 . S
C628 C640 1.349 . S
C629 C627 1.327 . S
C629 C645 1.429 . S
C629 H651 0.950 . S
C630 H626 0.949 . S
C630 C638 1.574 . S
C630 C646 1.368 . S
H631 C639 0.950 . S
H632 C637 0.950 . S
H633 C638 0.949 . S
H634 C640 0.950 . S
H635 C641 0.950 . S
H636 C642 0.949 . S
C637 H632 0.950 . S
C637 C639 1.327 . S
C637 C643 1.429 . S
C638 C630 1.574 . S
C638 H633 0.949 . S
C638 C644 1.368 . S
C639 C623 1.349 . S
C639 H631 0.950 . S
C639 C637 1.327 . S
C640 C628 1.349 . S
C640 H634 0.950 . S
C640 C641 1.327 . S
C641 H635 0.950 . S
C641 C640 1.327 . S
C641 C645 1.429 . S
C642 C625 1.574 . S
C642 H636 0.949 . S
C642 C646 1.368 . S
C643 C624 1.429 . S
C643 C637 1.429 . S
C643 C644 1.523 . S
C644 C625 1.368 . S
C644 C638 1.368 . S
C644 C643 1.523 . S
C645 C629 1.429 . S
C645 C641 1.429 . S
C645 C646 1.523 . S
C646 C630 1.368 . S
C646 C642 1.368 . S
C646 C645 1.523 . S
H647 C622 0.950 . S
H648 C624 0.950 . S
H649 C625 0.949 . S
H650 C627 0.950 . S
H651 C629 0.950 . S
C652 C653 1.349 . S
C652 C654 1.327 . S
C652 H677 0.950 . S
C653 C652 1.349 . S
C653 C669 1.349 . S
C654 C652 1.327 . S
C654 C673 1.429 . S
C654 H678 0.950 . S
C655 C672 1.574 . S
C655 C674 1.368 . S
C655 H679 0.949 . S
H656 C660 0.949 . S
C657 C658 1.349 . S
C657 C659 1.327 . S
C657 H680 0.950 . S
C658 C657 1.349 . S
C658 C670 1.349 . S
C659 C657 1.327 . S
C659 C675 1.429 . S
C659 H681 0.950 . S
C660 H656 0.949 . S
C660 C668 1.574 . S
C660 C676 1.368 . S
H661 C669 0.950 . S
H662 C667 0.950 . S
H663 C668 0.949 . S
H664 C670 0.950 . S
H665 C671 0.950 . S
H666 C672 0.949 . S
C667 H662 0.950 . S
C667 C669 1.327 . S
C667 C673 1.429 . S
C668 C660 1.574 . S
C668 H663 0.949 . S
C668 C674 1.368 . S
C669 C653 1.349 . S
C669 H661 0.950 . S
C669 C667 1.327 . S
C670 C658 1.349 . S
C670 H664 0.950 . S
C670 C671 1.327 . S
C671 H665 0.950 . S
C671 C670 1.327 . S
C671 C675 1.429 . S
C672 C655 1.574 . S
C672 H666 0.949 . S
C672 C676 1.368 . S
C673 C654 1.429 . S
C673 C667 1.429 . S
C673 C674 1.523 . S
C674 C655 1.368 . S
C674 C668 1.368 . S
C674 C673 1.523 . S
C675 C659 1.429 . S
C675 C671 1.429 . S
C675 C676 1.523 . S
C676 C660 1.368 . S
C676 C672 1.368 . S
C676 C675 1.523 . S
H677 C652 0.950 . S
H678 C654 0.950 . S
H679 C655 0.949 . S
H680 C657 0.950 . S
H681 C659 0.950 . S
C682 C683 1.349 . S
C682 C684 1.327 . S
C682 H707 0.950 . S
C683 C682 1.349 . S
C683 C699 1.349 . S
C684 C682 1.327 . S
C684 C703 1.429 . S
C684 H708 0.950 . S
C685 C702 1.574 . S
C685 C704 1.368 . S
C685 H709 0.949 . S
H686 C690 0.949 . S
C687 C688 1.349 . S
C687 C689 1.327 . S
C687 H710 0.950 . S
C688 C687 1.349 . S
C688 C700 1.349 . S
C689 C687 1.327 . S
C689 C705 1.429 . S
C689 H711 0.950 . S
C690 H686 0.949 . S
C690 C698 1.574 . S
C690 C706 1.368 . S
H691 C699 0.950 . S
H692 C697 0.950 . S
H693 C698 0.949 . S
H694 C700 0.950 . S
H695 C701 0.950 . S
H696 C702 0.949 . S
C697 H692 0.950 . S
C697 C699 1.327 . S
C697 C703 1.429 . S
C698 C690 1.574 . S
C698 H693 0.949 . S
C698 C704 1.368 . S
C699 C683 1.349 . S
C699 H691 0.950 . S
C699 C697 1.327 . S
C700 C688 1.349 . S
C700 H694 0.950 . S
C700 C701 1.327 . S
C701 H695 0.950 . S
C701 C700 1.327 . S
C701 C705 1.429 . S
C702 C685 1.574 . S
C702 H696 0.949 . S
C702 C706 1.368 . S
C703 C684 1.429 . S
C703 C697 1.429 . S
C703 C704 1.523 . S
C704 C685 1.368 . S
C704 C698 1.368 . S
C704 C703 1.523 . S
C705 C689 1.429 . S
C705 C701 1.429 . S
C705 C706 1.523 . S
C706 C690 1.368 . S
C706 C702 1.368 . S
C706 C705 1.523 . S
H707 C682 0.950 . S
H708 C684 0.950 . S
H709 C685 0.949 . S
H710 C687 0.950 . S
H711 C689 0.950 . S
C712 C713 1.349 . S
C712 C714 1.327 . S
C712 H737 0.950 . S
C713 C712 1.349 . S
C713 C729 1.349 . S
C714 C712 1.327 . S
C714 C733 1.429 . S
C714 H738 0.950 . S
C715 C732 1.574 . S
C715 C734 1.368 . S
C715 H739 0.949 . S
H716 C720 0.949 . S
C717 C718 1.349 . S
C717 C719 1.327 . S
C717 H740 0.950 . S
C718 C717 1.349 . S
C718 C730 1.349 . S
C719 C717 1.327 . S
C719 C735 1.429 . S
C719 H741 0.950 . S
C720 H716 0.949 . S
C720 C728 1.574 . S
C720 C736 1.368 . S
H721 C729 0.950 . S
H722 C727 0.950 . S
H723 C728 0.949 . S
H724 C730 0.950 . S
H725 C731 0.950 . S
H726 C732 0.949 . S
C727 H722 0.950 . S
C727 C729 1.327 . S
C727 C733 1.429 . S
C728 C720 1.574 . S
C728 H723 0.949 . S
C728 C734 1.368 . S
C729 C713 1.349 . S
C729 H721 0.950 . S
C729 C727 1.327 . S
C730 C718 1.349 . S
C730 H724 0.950 . S
C730 C731 1.327 . S
C731 H725 0.950 . S
C731 C730 1.327 . S
C731 C735 1.429 . S
C732 C715 1.574 . S
C732 H726 0.949 . S
C732 C736 1.368 . S
C733 C714 1.429 . S
C733 C727 1.429 . S
C733 C734 1.523 . S
C734 C715 1.368 . S
C734 C728 1.368 . S
C734 C733 1.523 . S
C735 C719 1.429 . S
C735 C731 1.429 . S
C735 C736 1.523 . S
C736 C720 1.368 . S
C736 C732 1.368 . S
C736 C735 1.523 . S
H737 C712 0.950 . S
H738 C714 0.950 . S
H739 C715 0.949 . S
H740 C717 0.950 . S
H741 C719 0.950 . S
C742 C743 1.349 . S
C742 C744 1.327 . S
C742 H767 0.950 . S
C743 C742 1.349 . S
C743 C759 1.349 . S
C744 C742 1.327 . S
C744 C763 1.429 . S
C744 H768 0.950 . S
C745 C762 1.574 . S
C745 C764 1.368 . S
C745 H769 0.949 . S
H746 C750 0.949 . S
C747 C748 1.349 . S
C747 C749 1.327 . S
C747 H770 0.950 . S
C748 C747 1.349 . S
C748 C760 1.349 . S
C749 C747 1.327 . S
C749 C765 1.429 . S
C749 H771 0.950 . S
C750 H746 0.949 . S
C750 C758 1.574 . S
C750 C766 1.368 . S
H751 C759 0.950 . S
H752 C757 0.950 . S
H753 C758 0.949 . S
H754 C760 0.950 . S
H755 C761 0.950 . S
H756 C762 0.949 . S
C757 H752 0.950 . S
C757 C759 1.327 . S
C757 C763 1.429 . S
C758 C750 1.574 . S
C758 H753 0.949 . S
C758 C764 1.368 . S
C759 C743 1.349 . S
C759 H751 0.950 . S
C759 C757 1.327 . S
C760 C748 1.349 . S
C760 H754 0.950 . S
C760 C761 1.327 . S
C761 H755 0.950 . S
C761 C760 1.327 . S
C761 C765 1.429 . S
C762 C745 1.574 . S
C762 H756 0.949 . S
C762 C766 1.368 . S
C763 C744 1.429 . S
C763 C757 1.429 . S
C763 C764 1.523 . S
C764 C745 1.368 . S
C764 C758 1.368 . S
C764 C763 1.523 . S
C765 C749 1.429 . S
C765 C761 1.429 . S
C765 C766 1.523 . S
C766 C750 1.368 . S
C766 C762 1.368 . S
C766 C765 1.523 . S
H767 C742 0.950 . S
H768 C744 0.950 . S
H769 C745 0.949 . S
H770 C747 0.950 . S
H771 C749 0.950 . S
C772 C773 1.349 . S
C772 C774 1.327 . S
C772 H797 0.950 . S
C773 C772 1.349 . S
C773 C789 1.349 . S
C774 C772 1.327 . S
C774 C793 1.429 . S
C774 H798 0.950 . S
C775 C792 1.574 . S
C775 C794 1.368 . S
C775 H799 0.949 . S
H776 C780 0.949 . S
C777 C778 1.349 . S
C777 C779 1.327 . S
C777 H800 0.950 . S
C778 C777 1.349 . S
C778 C790 1.349 . S
C779 C777 1.327 . S
C779 C795 1.429 . S
C779 H801 0.950 . S
C780 H776 0.949 . S
C780 C788 1.574 . S
C780 C796 1.368 . S
H781 C789 0.950 . S
H782 C787 0.950 . S
H783 C788 0.949 . S
H784 C790 0.950 . S
H785 C791 0.950 . S
H786 C792 0.949 . S
C787 H782 0.950 . S
C787 C789 1.327 . S
C787 C793 1.429 . S
C788 C780 1.574 . S
C788 H783 0.949 . S
C788 C794 1.368 . S
C789 C773 1.349 . S
C789 H781 0.950 . S
C789 C787 1.327 . S
C790 C778 1.349 . S
C790 H784 0.950 . S
C790 C791 1.327 . S
C791 H785 0.950 . S
C791 C790 1.327 . S
C791 C795 1.429 . S
C792 C775 1.574 . S
C792 H786 0.949 . S
C792 C796 1.368 . S
C793 C774 1.429 . S
C793 C787 1.429 . S
C793 C794 1.523 . S
C794 C775 1.368 . S
C794 C788 1.368 . S
C794 C793 1.523 . S
C795 C779 1.429 . S
C795 C791 1.429 . S
C795 C796 1.523 . S
C796 C780 1.368 . S
C796 C792 1.368 . S
C796 C795 1.523 . S
H797 C772 0.950 . S
H798 C774 0.950 . S
H799 C775 0.949 . S
H800 C777 0.950 . S
H801 C779 0.950 . S
C802 C803 1.349 . S
C802 C804 1.327 . S
C802 H827 0.950 . S
C803 C802 1.349 . S
C803 C819 1.349 . S
C804 C802 1.327 . S
C804 C823 1.429 . S
C804 H828 0.950 . S
C805 C822 1.574 . S
C805 C824 1.368 . S
C805 H829 0.949 . S
H806 C810 0.949 . S
C807 C808 1.349 . S
C807 C809 1.327 . S
C807 H830 0.950 . S
C808 C807 1.349 . S
C808 C820 1.349 . S
C809 C807 1.327 . S
C809 C825 1.429 . S
C809 H831 0.950 . S
C810 H806 0.949 . S
C810 C818 1.574 . S
C810 C826 1.368 . S
H811 C819 0.950 . S
H812 C817 0.950 . S
H813 C818 0.949 . S
H814 C820 0.950 . S
H815 C821 0.950 . S
H816 C822 0.949 . S
C817 H812 0.950 . S
C817 C819 1.327 . S
C817 C823 1.429 . S
C818 C810 1.574 . S
C818 H813 0.949 . S
C818 C824 1.368 . S
C819 C803 1.349 . S
C819 H811 0.950 . S
C819 C817 1.327 . S
C820 C808 1.349 . S
C820 H814 0.950 . S
C820 C821 1.327 . S
C821 H815 0.950 . S
C821 C820 1.327 . S
C821 C825 1.429 . S
C822 C805 1.574 . S
C822 H816 0.949 . S
C822 C826 1.368 . S
C823 C804 1.429 . S
C823 C817 1.429 . S
C823 C824 1.523 . S
C824 C805 1.368 . S
C824 C818 1.368 . S
C824 C823 1.523 . S
C825 C809 1.429 . S
C825 C821 1.429 . S
C825 C826 1.523 . S
C826 C810 1.368 . S
C826 C822 1.368 . S
C826 C825 1.523 . S
H827 C802 0.950 . S
H828 C804 0.950 . S
H829 C805 0.949 . S
H830 C807 0.950 . S
H831 C809 0.950 . S
C832 C833 1.349 . S
C832 C834 1.327 . S
C832 H857 0.950 . S
C833 C832 1.349 . S
C833 C849 1.349 . S
C834 C832 1.327 . S
C834 C853 1.429 . S
C834 H858 0.950 . S
C835 C852 1.574 . S
C835 C854 1.368 . S
C835 H859 0.949 . S
H836 C840 0.949 . S
C837 C838 1.349 . S
C837 C839 1.327 . S
C837 H860 0.950 . S
C838 C837 1.349 . S
C838 C850 1.349 . S
C839 C837 1.327 . S
C839 C855 1.429 . S
C839 H861 0.950 . S
C840 H836 0.949 . S
C840 C848 1.574 . S
C840 C856 1.368 . S
H841 C849 0.950 . S
H842 C847 0.950 . S
H843 C848 0.949 . S
H844 C850 0.950 . S
H845 C851 0.950 . S
H846 C852 0.949 . S
C847 H842 0.950 . S
C847 C849 1.327 . S
C847 C853 1.429 . S
C848 C840 1.574 . S
C848 H843 0.949 . S
C848 C854 1.368 . S
C849 C833 1.349 . S
C849 H841 0.950 . S
C849 C847 1.327 . S
C850 C838 1.349 . S
C850 H844 0.950 . S
C850 C851 1.327 . S
C851 H845 0.950 . S
C851 C850 1.327 . S
C851 C855 1.429 . S
C852 C835 1.574 . S
C852 H846 0.949 . S
C852 C856 1.368 . S
C853 C834 1.429 . S
C853 C847 1.429 . S
C853 C854 1.523 . S
C854 C835 1.368 . S
C854 C848 1.368 . S
C854 C853 1.523 . S
C855 C839 1.429 . S
C855 C851 1.429 . S
C855 C856 1.523 . S
C856 C840 1.368 . S
C856 C852 1.368 . S
C856 C855 1.523 . S
H857 C832 0.950 . S
H858 C834 0.950 . S
H859 C835 0.949 . S
H860 C837 0.950 . S
H861 C839 0.950 . S
C862 C863 1.349 . S
C862 C864 1.327 . S
C862 H887 0.950 . S
C863 C862 1.349 . S
C863 C879 1.349 . S
C864 C862 1.327 . S
C864 C883 1.429 . S
C864 H888 0.950 . S
C865 C882 1.574 . S
C865 C884 1.368 . S
C865 H889 0.949 . S
H866 C870 0.949 . S
C867 C868 1.349 . S
C867 C869 1.327 . S
C867 H890 0.950 . S
C868 C867 1.349 . S
C868 C880 1.349 . S
C869 C867 1.327 . S
C869 C885 1.429 . S
C869 H891 0.950 . S
C870 H866 0.949 . S
C870 C878 1.574 . S
C870 C886 1.368 . S
H871 C879 0.950 . S
H872 C877 0.950 . S
H873 C878 0.949 . S
H874 C880 0.950 . S
H875 C881 0.950 . S
H876 C882 0.949 . S
C877 H872 0.950 . S
C877 C879 1.327 . S
C877 C883 1.429 . S
C878 C870 1.574 . S
C878 H873 0.949 . S
C878 C884 1.368 . S
C879 C863 1.349 . S
C879 H871 0.950 . S
C879 C877 1.327 . S
C880 C868 1.349 . S
C880 H874 0.950 . S
C880 C881 1.327 . S
C881 H875 0.950 . S
C881 C880 1.327 . S
C881 C885 1.429 . S
C882 C865 1.574 . S
C882 H876 0.949 . S
C882 C886 1.368 . S
C883 C864 1.429 . S
C883 C877 1.429 . S
C883 C884 1.523 . S
C884 C865 1.368 . S
C884 C878 1.368 . S
C884 C883 1.523 . S
C885 C869 1.429 . S
C885 C881 1.429 . S
C885 C886 1.523 . S
C886 C870 1.368 . S
C886 C882 1.368 . S
C886 C885 1.523 . S
H887 C862 0.950 . S
H888 C864 0.950 . S
H889 C865 0.949 . S
H890 C867 0.950 . S
H891 C869 0.950 . S
C892 C893 1.349 . S
C892 C894 1.327 . S
C892 H917 0.950 . S
C893 C892 1.349 . S
C893 C909 1.349 . S
C894 C892 1.327 . S
C894 C913 1.429 . S
C894 H918 0.950 . S
C895 C912 1.574 . S
C895 C914 1.368 . S
C895 H919 0.949 . S
H896 C900 0.949 . S
C897 C898 1.349 . S
C897 C899 1.327 . S
C897 H920 0.950 . S
C898 C897 1.349 . S
C898 C910 1.349 . S
C899 C897 1.327 . S
C899 C915 1.429 . S
C899 H921 0.950 . S
C900 H896 0.949 . S
C900 C908 1.574 . S
C900 C916 1.368 . S
H901 C909 0.950 . S
H902 C907 0.950 . S
H903 C908 0.949 . S
H904 C910 0.950 . S
H905 C911 0.950 . S
H906 C912 0.949 . S
C907 H902 0.950 . S
C907 C909 1.327 . S
C907 C913 1.429 . S
C908 C900 1.574 . S
C908 H903 0.949 . S
C908 C914 1.368 . S
C909 C893 1.349 . S
C909 H901 0.950 . S
C909 C907 1.327 . S
C910 C898 1.349 . S
C910 H904 0.950 . S
C910 C911 1.327 . S
C911 H905 0.950 . S
C911 C910 1.327 . S
C911 C915 1.429 . S
C912 C895 1.574 . S
C912 H906 0.949 . S
C912 C916 1.368 . S
C913 C894 1.429 . S
C913 C907 1.429 . S
C913 C914 1.523 . S
C914 C895 1.368 . S
C914 C908 1.368 . S
C914 C913 1.523 . S
C915 C899 1.429 . S
C915 C911 1.429 . S
C915 C916 1.523 . S
C916 C900 1.368 . S
C916 C912 1.368 . S
C916 C915 1.523 . S
H917 C892 0.950 . S
H918 C894 0.950 . S
H919 C895 0.949 . S
H920 C897 0.950 . S
H921 C899 0.950 . S
C922 C923 1.349 . S
C922 C924 1.327 . S
C922 H947 0.950 . S
C923 C922 1.349 . S
C923 C939 1.349 . S
C924 C922 1.327 . S
C924 C943 1.429 . S
C924 H948 0.950 . S
C925 C942 1.574 . S
C925 C944 1.368 . S
C925 H949 0.949 . S
H926 C930 0.949 . S
C927 C928 1.349 . S
C927 C929 1.327 . S
C927 H950 0.950 . S
C928 C927 1.349 . S
C928 C940 1.349 . S
C929 C927 1.327 . S
C929 C945 1.429 . S
C929 H951 0.950 . S
C930 H926 0.949 . S
C930 C938 1.574 . S
C930 C946 1.368 . S
H931 C939 0.950 . S
H932 C937 0.950 . S
H933 C938 0.949 . S
H934 C940 0.950 . S
H935 C941 0.950 . S
H936 C942 0.949 . S
C937 H932 0.950 . S
C937 C939 1.327 . S
C937 C943 1.429 . S
C938 C930 1.574 . S
C938 H933 0.949 . S
C938 C944 1.368 . S
C939 C923 1.349 . S
C939 H931 0.950 . S
C939 C937 1.327 . S
C940 C928 1.349 . S
C940 H934 0.950 . S
C940 C941 1.327 . S
C941 H935 0.950 . S
C941 C940 1.327 . S
C941 C945 1.429 . S
C942 C925 1.574 . S
C942 H936 0.949 . S
C942 C946 1.368 . S
C943 C924 1.429 . S
C943 C937 1.429 . S
C943 C944 1.523 . S
C944 C925 1.368 . S
C944 C938 1.368 . S
C944 C943 1.523 . S
C945 C929 1.429 . S
C945 C941 1.429 . S
C945 C946 1.523 . S
C946 C930 1.368 . S
C946 C942 1.368 . S
C946 C945 1.523 . S
H947 C922 0.950 . S
H948 C924 0.950 . S
H949 C925 0.949 . S
H950 C927 0.950 . S
H951 C929 0.950 . S
C233 C5 0.998 . S
C238 C78 1.008 . S
C263 C14 0.869 . S
C268 C127 0.869 . S
C298 C162 2.476 . S
C293 C25 2.530 . S
C323 C34 2.401 . S
C328 C201 2.342 . S
C358 C122 2.079 . S
C353 C7 2.031 . S
C388 C81 0.796 . S
C383 C13 0.805 . S
C418 C211 1.879 . S
C413 C23 1.931 . S
C448 C170 1.602 . S
C443 C31 1.638 . S
C473 C4 1.449 . S
C478 C198 1.476 . S
C508 C130 2.322 . S
C503 C22 2.405 . S
C533 C32 2.361 . S
C538 C91 2.341 . S
C563 C16 0.712 . S
C568 C167 0.711 . S
C598 C87 0.993 . S
C593 C41 0.983 . S
C623 C50 0.879 . S
C628 C118 0.878 . S
C653 C61 2.522 . S
C658 C171 2.469 . S
C683 C67 2.413 . S
C688 C210 2.354 . S
C713 C40 2.055 . S
C718 C131 2.102 . S
C748 C90 0.768 . S
C743 C52 0.771 . S
C778 C202 1.889 . S
C773 C59 1.943 . S
C808 C161 1.599 . S
C803 C70 1.633 . S
C833 C43 1.444 . S
C838 C207 1.472 . S
C868 C121 2.335 . S
C863 C58 2.419 . S
C898 C82 2.317 . S
C893 C68 2.337 . S
C923 C49 0.718 . S
C928 C158 0.717 . S
