# Generated by pormake.
# Topology zzz, (3,6)-cn, num edge types: 1
# Building blocks:
#     Node 0, Type 0, BuildingBlock: BETDIP_clean_linker_0, # of connection points: 3
#     Node 1, Type 0, BuildingBlock: BETDIP_clean_linker_0, # of connection points: 3
#     Node 2, Type 0, BuildingBlock: BETDIP_clean_linker_0, # of connection points: 3
#     Node 3, Type 0, BuildingBlock: BETDIP_clean_linker_0, # of connection points: 3
#     Node 4, Type 0, BuildingBlock: BETDIP_clean_linker_0, # of connection points: 3
#     Node 5, Type 0, BuildingBlock: BETDIP_clean_linker_0, # of connection points: 3
#     Node 6, Type 0, BuildingBlock: BETDIP_clean_linker_0, # of connection points: 3
#     Node 7, Type 0, BuildingBlock: BETDIP_clean_linker_0, # of connection points: 3
#     Node 8, Type 1, BuildingBlock: NUHQIS_clean_sbu_0, # of connection points: 6
#     Node 9, Type 1, BuildingBlock: NUHQIS_clean_sbu_0, # of connection points: 6
#     Node 10, Type 1, BuildingBlock: NUHQIS_clean_sbu_0, # of connection points: 6
#     Node 11, Type 1, BuildingBlock: NUHQIS_clean_sbu_0, # of connection points: 6
#     Edge 12, Type (0, 1), BuildingBlock: CIFDUS_clean_linker_0, # of connection points: 2
#     Edge 13, Type (0, 1), BuildingBlock: CIFDUS_clean_linker_0, # of connection points: 2
#     Edge 14, Type (0, 1), BuildingBlock: CIFDUS_clean_linker_0, # of connection points: 2
#     Edge 15, Type (0, 1), BuildingBlock: CIFDUS_clean_linker_0, # of connection points: 2
#     Edge 16, Type (0, 1), BuildingBlock: CIFDUS_clean_linker_0, # of connection points: 2
#     Edge 17, Type (0, 1), BuildingBlock: CIFDUS_clean_linker_0, # of connection points: 2
#     Edge 18, Type (0, 1), BuildingBlock: CIFDUS_clean_linker_0, # of connection points: 2
#     Edge 19, Type (0, 1), BuildingBlock: CIFDUS_clean_linker_0, # of connection points: 2
#     Edge 20, Type (0, 1), BuildingBlock: CIFDUS_clean_linker_0, # of connection points: 2
#     Edge 21, Type (0, 1), BuildingBlock: CIFDUS_clean_linker_0, # of connection points: 2
#     Edge 22, Type (0, 1), BuildingBlock: CIFDUS_clean_linker_0, # of connection points: 2
#     Edge 23, Type (0, 1), BuildingBlock: CIFDUS_clean_linker_0, # of connection points: 2
#     Edge 24, Type (0, 1), BuildingBlock: CIFDUS_clean_linker_0, # of connection points: 2
#     Edge 25, Type (0, 1), BuildingBlock: CIFDUS_clean_linker_0, # of connection points: 2
#     Edge 26, Type (0, 1), BuildingBlock: CIFDUS_clean_linker_0, # of connection points: 2
#     Edge 27, Type (0, 1), BuildingBlock: CIFDUS_clean_linker_0, # of connection points: 2
#     Edge 28, Type (0, 1), BuildingBlock: CIFDUS_clean_linker_0, # of connection points: 2
#     Edge 29, Type (0, 1), BuildingBlock: CIFDUS_clean_linker_0, # of connection points: 2
#     Edge 30, Type (0, 1), BuildingBlock: CIFDUS_clean_linker_0, # of connection points: 2
#     Edge 31, Type (0, 1), BuildingBlock: CIFDUS_clean_linker_0, # of connection points: 2
#     Edge 32, Type (0, 1), BuildingBlock: CIFDUS_clean_linker_0, # of connection points: 2
#     Edge 33, Type (0, 1), BuildingBlock: CIFDUS_clean_linker_0, # of connection points: 2
#     Edge 34, Type (0, 1), BuildingBlock: CIFDUS_clean_linker_0, # of connection points: 2
#     Edge 35, Type (0, 1), BuildingBlock: CIFDUS_clean_linker_0, # of connection points: 2
# Relax obj value: 0.286
# Max RMSD: 0.165
# Mean RMSD: 0.137
data_MOF--net-zzz--node1-NUHQIS_clean_sbu_0--node2-BETDIP_clean_linker_0--edge1-CIFDUS_clean_linker_0
_symmetry_space_group_name_H-M    P1
_symmetry_Int_Tables_number       1
_symmetry_cell_setting            triclinic
loop_
_symmetry_equiv_pos_as_xyz
'x, y, z'
_cell_length_a     45.842667
_cell_length_b     45.987342
_cell_length_c     12.31852
_cell_angle_alpha  89.947196
_cell_angle_beta   89.882838
_cell_angle_gamma 90.193364
loop_
_atom_site_label
_atom_site_type_symbol
_atom_site_fract_x
_atom_site_fract_y
_atom_site_fract_z
_atom_type_partial_charge
H0 H 0.76446 0.51595 0.53942 0.0
H1 H 0.74499 0.58233 0.30227 0.0
H2 H 0.82726 0.5824 0.46815 0.0
H3 H 0.73013 0.53383 0.22578 0.0
C4 C 0.71335 0.53284 0.28832 0.0
C5 C 0.77021 0.53601 0.49844 0.0
C6 C 0.79835 0.54838 0.51333 0.0
C7 C 0.75036 0.54876 0.4234 0.0
C8 C 0.7593 0.57342 0.36365 0.0
C9 C 0.7874 0.58511 0.37522 0.0
C10 C 0.80543 0.57382 0.45706 0.0
N11 N 0.72273 0.53552 0.39885 0.0
H12 H 1.01368 0.7697 0.50929 0.0
H13 H 0.05792 0.75205 0.20644 0.0
H14 H 0.07362 0.83227 0.37337 0.0
H15 H 1.00292 0.73661 0.18692 0.0
C16 C 1.00914 0.71993 0.24503 0.0
C17 C 0.02918 0.77596 0.44701 0.0
C18 C 0.04348 0.80337 0.45301 0.0
C19 C 0.03448 0.75708 0.35768 0.0
C20 C 0.05399 0.76597 0.27585 0.0
C21 C 0.06837 0.79274 0.28214 0.0
C22 C 0.0633 0.811 0.37108 0.0
N23 N 0.0202 0.72945 0.34772 0.0
H24 H 0.76293 0.0347 0.44947 0.0
H25 H 0.7955 0.95865 0.28571 0.0
H26 H 0.71263 0.95607 0.44864 0.0
H27 H 0.84125 0.97991 0.37718 0.0
C28 C 0.83726 0.99929 0.32885 0.0
C29 C 0.76101 1.01181 0.43023 0.0
C30 C 0.73559 0.9962 0.46125 0.0
C31 C 0.78392 0.99757 0.37358 0.0
C32 C 0.77977 0.96858 0.3399 0.0
C33 C 0.75362 0.95376 0.36233 0.0
C34 C 0.73311 0.967 0.43128 0.0
N35 N 0.80944 1.01314 0.3389 0.0
H36 H 0.53583 0.75851 0.44089 0.0
H37 H 0.47021 0.7791 0.20191 0.0
H38 H 0.46393 0.70003 0.38425 0.0
H39 H 0.51875 0.7916 0.11722 0.0
C40 C 0.52102 0.80808 0.17997 0.0
C41 C 0.51552 0.75337 0.40036 0.0
C42 C 0.50055 0.72712 0.42549 0.0
C43 C 0.50448 0.77251 0.31979 0.0
C44 C 0.47861 0.76503 0.26509 0.0
C45 C 0.46384 0.73917 0.28878 0.0
C46 C 0.47462 0.72078 0.37004 0.0
N47 N 0.51948 0.79877 0.29076 0.0
H48 H 0.25588 0.49429 0.15552 0.0
H49 H 0.28856 0.57155 0.31321 0.0
H50 H 0.21004 0.57493 0.12298 0.0
H51 H 0.33548 0.53934 0.2188 0.0
C52 C 0.32832 0.52587 0.2864 0.0
C53 C 0.25427 0.51736 0.17192 0.0
C54 C 0.23101 0.53365 0.12706 0.0
C55 C 0.27579 0.53134 0.23672 0.0
C56 C 0.27301 0.56119 0.25945 0.0
C57 C 0.24917 0.57712 0.22034 0.0
C58 C 0.22897 0.5632 0.15205 0.0
N59 N 0.29893 0.51531 0.28638 0.0
H60 H 0.03982 0.25344 0.16904 0.0
H61 H 0.96216 0.28232 0.33501 0.0
H62 H 0.96002 0.20446 0.14418 0.0
H63 H 0.98615 0.32929 0.24491 0.0
C64 C 1.00379 0.32473 0.30126 0.0
C65 C 1.01678 0.25099 0.18656 0.0
C66 C 1.0011 0.22691 0.14352 0.0
C67 C 1.00229 0.27214 0.25123 0.0
C68 C 0.9728 0.26769 0.27863 0.0
C69 C 0.95758 0.24329 0.24082 0.0
C70 C 0.97153 0.2239 0.1702 0.0
N71 N 1.01743 0.29678 0.29515 0.0
H72 H 0.2726 0.03756 0.09557 0.0
H73 H 0.24746 0.96232 0.28492 0.0
H74 H 0.3299 0.96431 0.11883 0.0
H75 H 0.20131 0.97763 0.20946 0.0
C76 C 0.20338 0.99907 0.24591 0.0
C77 C 0.27699 1.01581 0.12489 0.0
C78 C 0.30348 1.00186 0.09626 0.0
C79 C 0.25612 1.00128 0.19154 0.0
C80 C 0.26254 0.97316 0.23044 0.0
C81 C 0.28897 0.9595 0.20461 0.0
C82 C 0.30891 0.97403 0.13669 0.0
N83 N 0.22957 1.01527 0.22467 0.0
H84 H 0.51509 0.26998 0.08961 0.0
H85 H 0.58435 0.2569 0.32223 0.0
H86 H 0.58566 0.33145 0.11542 0.0
H87 H 0.57535 0.21053 0.29618 0.0
C88 C 0.55168 0.20963 0.29628 0.0
C89 C 0.53579 0.27637 0.12457 0.0
C90 C 0.5494 0.30267 0.09092 0.0
C91 C 0.54911 0.25849 0.20463 0.0
C92 C 0.57504 0.26845 0.25418 0.0
C93 C 0.58849 0.29433 0.22113 0.0
C94 C 0.57596 0.31072 0.13784 0.0
N95 N 0.53571 0.23174 0.23976 0.0
Tb96 Tb 0.0418 1.01181 0.84914 0.0
Eu97 Eu 0.99065 0.02463 0.6757 0.0
C98 C 0.0576 0.0193 0.605 0.0
C99 C 1.01797 0.07613 0.82591 0.0
C100 C 0.10409 0.97541 0.97568 0.0
C101 C 0.12124 0.93053 0.89422 0.0
C102 C 0.10781 0.95765 0.88401 0.0
C103 C 0.11609 0.96707 0.07472 0.0
C104 C 0.12938 0.94002 0.08524 0.0
C105 C 0.13076 0.92079 0.99648 0.0
C106 C 0.08357 0.9997 0.97413 0.0
O107 O 1.00079 1.00182 0.93496 0.0
O108 O 0.96867 0.02962 0.83866 0.0
O109 O 0.99089 0.97587 0.6967 0.0
O110 O 0.03761 0.97053 0.75855 0.0
C111 C 0.97521 1.01468 0.9259 0.0
O112 O 0.94599 0.01874 0.61873 0.0
O113 O 0.97658 0.04437 0.52375 0.0
O114 O 0.03091 1.01122 0.5805 0.0
O115 O 0.06329 0.02871 0.70301 0.0
O116 O 0.02891 0.05629 0.89122 0.0
O117 O 1.00703 0.06892 0.73064 0.0
C118 C 1.01379 0.95945 0.7147 0.0
O119 O 0.08575 0.01762 0.89288 0.0
O120 O 0.0566 0.99239 0.99276 0.0
C121 C 0.92836 0.06071 0.53038 0.0
C122 C 0.90172 0.11565 0.51563 0.0
C123 C 0.90485 0.10189 0.61706 0.0
C124 C 0.91845 0.07482 0.62451 0.0
C125 C 0.92203 0.07258 0.42865 0.0
C126 C 0.90887 0.09982 0.42114 0.0
C127 C 0.94935 0.03675 0.53769 0.0
H128 H 0.12205 0.9163 0.82426 0.0
H129 H 0.09851 0.9638 0.80656 0.0
H130 H 0.11294 0.98047 0.14589 0.0
H131 H 0.13572 0.93306 0.16571 0.0
H132 H 0.899 0.11305 0.69132 0.0
H133 H 0.92303 0.06594 0.70416 0.0
H134 H 0.92944 0.06193 0.35517 0.0
H135 H 0.90712 0.10949 0.3413 0.0
Tb136 Tb 0.53068 0.02918 0.88878 0.0
Eu137 Eu 0.50735 1.00424 0.66098 0.0
C138 C 0.52173 0.0725 0.68364 0.0
C139 C 0.46314 0.0257 0.85314 0.0
C140 C 0.58025 0.02434 0.10512 0.0
C141 C 0.63257 0.01852 0.12112 0.0
C142 C 0.60813 0.03648 0.11648 0.0
C143 C 0.57708 0.99384 0.10824 0.0
C144 C 0.60153 0.97586 0.11306 0.0
C145 C 0.62955 0.98809 0.11445 0.0
C146 C 0.55669 0.04236 0.05993 0.0
O147 O 0.51786 0.98453 0.92956 0.0
O148 O 0.52046 0.96509 0.75996 0.0
O149 O 0.55503 1.01642 0.6343 0.0
O150 O 0.56633 1.00602 0.8086 0.0
C151 C 0.51928 0.9618 0.86559 0.0
O152 O 0.51092 0.97 0.5386 0.0
O153 O 0.47844 1.00384 0.52125 0.0
O154 O 0.50805 0.05235 0.62789 0.0
O155 O 0.53307 0.06719 0.78024 0.0
O156 O 0.48476 0.04129 0.89303 0.0
O157 O 0.46779 1.00684 0.77429 0.0
C158 C 0.57479 1.0109 0.70838 0.0
O159 O 0.56311 0.05389 0.9662 0.0
O160 O 0.5306 0.03094 0.05971 0.0
C161 C 0.46465 0.95592 0.47415 0.0
C162 C 0.41958 0.91532 0.43301 0.0
C163 C 0.44798 0.91069 0.39245 0.0
C164 C 0.47023 0.93096 0.41227 0.0
C165 C 0.43719 0.95927 0.52255 0.0
C166 C 0.41495 0.93945 0.50169 0.0
C167 C 0.48734 0.97833 0.48868 0.0
H168 H 0.65398 0.02849 0.12596 0.0
H169 H 0.6112 0.05984 0.11337 0.0
H170 H 0.55588 0.98377 0.09911 0.0
H171 H 0.59857 0.9525 0.10945 0.0
H172 H 0.45279 0.89215 0.34148 0.0
H173 H 0.49158 0.92757 0.377 0.0
H174 H 0.43241 0.97791 0.57325 0.0
H175 H 0.39362 0.94456 0.53396 0.0
Tb176 Tb 0.49548 0.52622 0.90736 0.0
Eu177 Eu 0.54014 0.51143 0.70982 0.0
C178 C 0.47085 0.51559 0.6654 0.0
C179 C 0.51546 0.46072 0.8692 0.0
C180 C 0.43585 0.55788 0.07153 0.0
C181 C 0.40432 0.59456 0.99268 0.0
C182 C 0.42286 0.57067 0.98015 0.0
C183 C 0.42806 0.56735 0.17521 0.0
C184 C 0.40939 0.5909 0.18795 0.0
C185 C 0.39883 0.60604 0.09668 0.0
C186 C 0.46083 0.53832 0.0602 0.0
O187 O 0.54008 0.53635 0.96807 0.0
O188 O 0.56437 0.50362 0.86417 0.0
O189 O 0.53753 0.56099 0.71722 0.0
O190 O 0.49397 0.56517 0.80692 0.0
C191 C 0.56379 0.52112 0.94742 0.0
O192 O 0.58357 0.51877 0.64247 0.0
O193 O 0.55273 0.49121 0.55699 0.0
O194 O 0.49736 0.51798 0.62581 0.0
O195 O 0.466 0.5149 0.77123 0.0
O196 O 0.50827 0.4814 0.93781 0.0
O197 O 0.52469 0.46694 0.77028 0.0
C198 C 0.51485 0.5766 0.74713 0.0
O199 O 0.45754 0.51605 0.99613 0.0
O200 O 0.48573 0.55138 0.04425 0.0
C201 C 0.60153 0.47686 0.55577 0.0
C202 C 0.63035 0.42324 0.5371 0.0
C203 C 0.62574 0.43573 0.63986 0.0
C204 C 0.6112 0.46227 0.64916 0.0
C205 C 0.6089 0.46613 0.45332 0.0
C206 C 0.62329 0.4396 0.44387 0.0
C207 C 0.57977 0.50001 0.56426 0.0
H208 H 0.3964 0.60557 0.92083 0.0
H209 H 0.42878 0.56364 0.89912 0.0
H210 H 0.4384 0.55827 0.2463 0.0
H211 H 0.40615 0.59915 0.26938 0.0
H212 H 0.63121 0.42392 0.7131 0.0
H213 H 0.60568 0.47027 0.72928 0.0
H214 H 0.6014 0.47699 0.38051 0.0
H215 H 0.62607 0.43069 0.3632 0.0
Tb216 Tb 1.00589 0.50311 0.88879 0.0
Eu217 Eu 0.03082 0.53986 0.68647 0.0
C218 C 1.01893 0.46986 0.66431 0.0
C219 C 0.07326 0.51121 0.86879 0.0
C220 C 0.96283 0.50301 0.1243 0.0
C221 C 0.9129 0.51795 0.15658 0.0
C222 C 0.933 0.4964 0.12954 0.0
C223 C 0.97234 0.53084 0.15713 0.0
C224 C 0.95223 0.55245 0.18323 0.0
C225 C 0.92224 0.54658 0.17827 0.0
C226 C 0.98222 0.48454 0.05809 0.0
O227 O 1.01527 0.54736 0.94931 0.0
O228 O 1.00662 0.57128 0.79272 0.0
O229 O 0.98537 0.52722 0.63473 0.0
O230 O 0.96727 0.52149 0.80632 0.0
C231 C 1.00876 0.57151 0.89834 0.0
O232 O 0.0328 0.58177 0.60255 0.0
O233 O 0.05944 0.54597 0.54699 0.0
O234 O 0.02794 0.49436 0.61982 0.0
O235 O 1.01017 0.46822 0.76661 0.0
O236 O 0.05226 0.49262 0.89133 0.0
O237 O 0.06827 0.53378 0.80585 0.0
C238 C 0.96304 0.52404 0.70085 0.0
O239 O 0.97226 0.47862 0.96146 0.0
O240 O 1.00953 0.49242 0.05433 0.0
C241 C 0.08075 0.59257 0.54787 0.0
C242 C 0.1333 0.62486 0.54473 0.0
C243 C 0.10838 0.63497 0.48921 0.0
C244 C 0.08241 0.61877 0.48996 0.0
C245 C 0.10441 0.58401 0.61192 0.0
C246 C 0.13035 0.59975 0.60993 0.0
C247 C 0.05468 0.57392 0.54184 0.0
H248 H 0.88991 0.51243 0.15663 0.0
H249 H 0.92508 0.4752 0.10477 0.0
H250 H 0.99522 0.53672 0.15482 0.0
H251 H 0.96017 0.57414 0.20108 0.0
H252 H 0.10924 0.65461 0.44086 0.0
H253 H 0.06398 0.62621 0.44268 0.0
H254 H 0.10339 0.56424 0.65964 0.0
H255 H 0.1486 0.59063 0.65361 0.0
H256 H 0.15224 0.97205 0.27491 0.0
H257 H 0.19946 0.04787 0.37969 0.0
H258 H 0.15873 0.06094 0.50078 0.0
H259 H 0.10934 0.04984 0.57946 0.0
H260 H 0.06135 0.97603 0.45669 0.0
H261 H 0.10224 0.96336 0.33927 0.0
C262 C 0.15334 0.99181 0.32222 0.0
C263 C 0.17871 1.0091 0.3166 0.0
C264 C 0.12954 0.99951 0.38874 0.0
C265 C 0.18015 0.03425 0.38123 0.0
C266 C 0.15681 0.04167 0.4507 0.0
C267 C 0.10777 0.03119 0.52599 0.0
C268 C 0.0821 1.01394 0.52709 0.0
C269 C 0.13133 0.02439 0.45547 0.0
C270 C 0.08052 0.98989 0.45702 0.0
C271 C 0.10403 0.98252 0.38999 0.0
H272 H 0.57363 0.18798 0.48034 0.0
H273 H 0.5004 0.17857 0.26492 0.0
H274 H 0.4838 0.13562 0.368 0.0
H275 H 0.49254 0.09861 0.51322 0.0
H276 H 0.56473 0.11116 0.73312 0.0
H277 H 0.57905 0.15503 0.63559 0.0
C278 C 0.55376 0.17676 0.45687 0.0
C279 C 0.53833 0.18635 0.36489 0.0
C280 C 0.54426 0.1525 0.51734 0.0
C281 C 0.51256 0.17174 0.33572 0.0
C282 C 0.50322 0.14707 0.39439 0.0
C283 C 0.5112 0.11114 0.54056 0.0
C284 C 0.52761 0.10125 0.63058 0.0
C285 C 0.51922 0.1369 0.48442 0.0
C286 C 0.55157 0.11805 0.66491 0.0
C287 C 0.55992 0.14317 0.60865 0.0
H288 H 0.38595 0.5173 0.25943 0.0
H289 H 0.31987 0.5204 0.50765 0.0
H290 H 0.35767 0.5171 0.64882 0.0
H291 H 0.41059 0.51642 0.70127 0.0
H292 H 0.47517 0.51018 0.44625 0.0
H293 H 0.43711 0.50997 0.31048 0.0
C294 C 0.37977 0.51673 0.3445 0.0
C295 C 0.35014 0.51907 0.37284 0.0
C296 C 0.40155 0.51436 0.42476 0.0
C297 C 0.34249 0.51832 0.48345 0.0
C298 C 0.36419 0.51667 0.56425 0.0
C299 C 0.41634 0.51508 0.61603 0.0
C300 C 0.44613 0.51394 0.58532 0.0
C301 C 0.39398 0.51522 0.53602 0.0
C302 C 0.45278 0.51172 0.47382 0.0
C303 C 0.43092 0.51174 0.39514 0.0
H304 H 0.99101 0.38142 0.28464 0.0
H305 H 0.03345 0.32063 0.49763 0.0
H306 H 0.04104 0.35953 0.63215 0.0
H307 H 0.03437 0.41158 0.6909 0.0
H308 H 0.9944 0.47157 0.46703 0.0
H309 H 0.98699 0.43256 0.33651 0.0
C310 C 1.00219 0.37669 0.36015 0.0
C311 C 1.01168 0.34813 0.38067 0.0
C312 C 1.0067 0.39918 0.43605 0.0
C313 C 0.02613 0.34243 0.47903 0.0
C314 C 0.03028 0.36471 0.55635 0.0
C315 C 0.02399 0.41597 0.61365 0.0
C316 C 1.01483 0.4446 0.5893 0.0
C317 C 0.02043 0.39324 0.53632 0.0
C318 C 1.00176 0.44991 0.48804 0.0
C319 C 0.99747 0.42755 0.41306 0.0
H320 H 0.89248 0.97951 0.3195 0.0
H321 H 0.83435 0.03938 0.16088 0.0
H322 H 0.87201 0.05003 0.02417 0.0
H323 H 0.92096 0.04033 0.94432 0.0
H324 H 0.97872 0.9806 0.10745 0.0
H325 H 0.94193 0.97211 0.24707 0.0
C326 C 0.88812 0.99512 0.2555 0.0
C327 C 0.86054 1.00854 0.25051 0.0
C328 C 0.90987 1.00105 0.17723 0.0
C329 C 0.85533 0.02876 0.16717 0.0
C330 C 0.87688 0.03475 0.08858 0.0
C331 C 0.9256 0.02553 0.01058 0.0
C332 C 0.95278 1.01097 0.01396 0.0
C333 C 0.90415 0.02071 0.09181 0.0
C334 C 0.95819 0.99208 0.10154 0.0
C335 C 0.93706 0.98715 0.18183 0.0
H336 H 0.52161 0.82709 0.97451 0.0
H337 H 0.52267 0.85879 0.30343 0.0
H338 H 0.52255 0.90917 0.2357 0.0
H339 H 0.52032 0.94428 0.08134 0.0
H340 H 0.51958 0.91081 0.75367 0.0
H341 H 0.52079 0.86137 0.82286 0.0
C342 C 0.52188 0.84503 0.03168 0.0
C343 C 0.5222 0.83911 0.14385 0.0
C344 C 0.52144 0.87376 0.99227 0.0
C345 C 0.52248 0.86263 0.2167 0.0
C346 C 0.52222 0.89147 0.17788 0.0
C347 C 0.52056 0.92621 0.02501 0.0
C348 C 0.51991 0.93164 0.91183 0.0
C349 C 0.52144 0.89735 0.0656 0.0
C350 C 0.52008 0.90767 0.8408 0.0
C351 C 0.52079 0.8792 0.88033 0.0
H352 H 0.69609 0.53088 0.08241 0.0
H353 H 0.66084 0.53179 0.40652 0.0
H354 H 0.61093 0.53037 0.33171 0.0
H355 H 0.57703 0.52731 0.16947 0.0
H356 H 0.61554 0.52595 0.84922 0.0
H357 H 0.66394 0.52923 0.92679 0.0
C358 C 0.67752 0.53069 0.1372 0.0
C359 C 0.68234 0.53131 0.24991 0.0
C360 C 0.64919 0.52983 0.09367 0.0
C361 C 0.6579 0.5312 0.31935 0.0
C362 C 0.62931 0.53042 0.2763 0.0
C363 C 0.59604 0.52814 0.11709 0.0
C364 C 0.59239 0.52636 1.00297 0.0
C365 C 0.62457 0.52962 0.16301 0.0
C366 C 0.61745 0.52711 0.9368 0.0
C367 C 0.6453 0.52895 0.98112 0.0
H368 H 0.98951 0.70122 0.05316 0.0
H369 H 0.02908 0.66943 0.34674 0.0
H370 H 0.03114 0.62015 0.26865 0.0
H371 H 0.02366 0.58645 0.11051 0.0
H372 H 0.98484 0.62079 0.81815 0.0
H373 H 0.98052 0.66828 0.90201 0.0
C374 C 0.99841 0.68348 0.1007 0.0
C375 C 1.00909 0.68911 0.2057 0.0
C376 C 0.99981 0.65548 0.05484 0.0
C377 C 0.02061 0.66581 0.26588 0.0
C378 C 0.02186 0.63761 0.22088 0.0
C379 C 1.01405 0.60428 0.06562 0.0
C380 C 1.00478 0.59977 0.95719 0.0
C381 C 1.01181 0.63218 0.11456 0.0
C382 C 0.99243 0.62334 0.90082 0.0
C383 C 0.98988 0.65068 0.94887 0.0
H384 H 0.94822 0.23765 0.45501 0.0
H385 H 0.90678 0.22493 0.14516 0.0
H386 H 0.87609 0.18657 0.22231 0.0
H387 H 0.87394 0.14748 0.35813 0.0
H388 H 0.92234 0.15694 0.65674 0.0
H389 H 0.93571 0.20605 0.60718 0.0
C390 C 0.93134 0.2276 0.40593 0.0
C391 C 0.93032 0.23333 0.29402 0.0
C392 C 0.91537 0.20423 0.4489 0.0
C393 C 0.90823 0.22039 0.23131 0.0
C394 C 0.89098 0.19818 0.27515 0.0
C395 C 0.88677 0.16058 0.41366 0.0
C396 C 0.89822 0.14782 0.5084 0.0
C397 C 0.89637 0.18825 0.38093 0.0
C398 C 0.91351 0.16565 0.58211 0.0
C399 C 0.92161 0.19385 0.55314 0.0
H400 H 0.32042 0.91429 0.12252 0.0
H401 H 0.27995 0.9442 0.41817 0.0
H402 H 0.3154 0.91747 0.52478 0.0
H403 H 0.36678 0.90366 0.53107 0.0
H404 H 0.41327 0.89027 0.23008 0.0
H405 H 0.36773 0.89024 0.13154 0.0
C406 C 0.31892 0.91425 0.21044 0.0
C407 C 0.2988 0.93275 0.26205 0.0
C408 C 0.3416 0.90207 0.27116 0.0
C409 C 0.29577 0.93099 0.37559 0.0
C410 C 0.31644 0.916 0.43704 0.0
C411 C 0.36695 0.90035 0.44393 0.0
C412 C 0.39376 0.89954 0.38764 0.0
C413 C 0.34109 0.90437 0.38548 0.0
C414 C 0.39332 0.89235 0.27642 0.0
C415 C 0.3671 0.89276 0.219 0.0
H416 H 0.58967 0.30109 0.43839 0.0
H417 H 0.63942 0.3188 0.14842 0.0
H418 H 0.66569 0.35772 0.24174 0.0
H419 H 0.6629 0.39482 0.38437 0.0
H420 H 0.60769 0.37972 0.66332 0.0
H421 H 0.5968 0.33109 0.59962 0.0
C422 C 0.60727 0.31248 0.39729 0.0
C423 C 0.61208 0.30778 0.28607 0.0
C424 C 0.6211 0.33577 0.44964 0.0
C425 C 0.63501 0.32258 0.23369 0.0
C426 C 0.64986 0.34495 0.28682 0.0
C427 C 0.64924 0.3805 0.43284 0.0
C428 C 0.63516 0.39144 0.52575 0.0
C429 C 0.64131 0.35318 0.39171 0.0
C430 C 0.61854 0.37225 0.59039 0.0
C431 C 0.61187 0.34441 0.55311 0.0
H432 H 0.2546 0.59516 0.43076 0.0
H433 H 0.22525 0.62455 0.11702 0.0
H434 H 0.18663 0.65261 0.20289 0.0
H435 H 0.15241 0.65092 0.35567 0.0
H436 H 0.18325 0.62512 0.67242 0.0
H437 H 0.23095 0.61433 0.59583 0.0
C438 C 0.24097 0.609 0.38096 0.0
C439 C 0.24109 0.60584 0.26728 0.0
C440 C 0.21852 0.62481 0.43091 0.0
C441 C 0.22429 0.62521 0.20488 0.0
C442 C 0.20203 0.64114 0.2539 0.0
C443 C 0.16968 0.64438 0.4102 0.0
C444 C 0.16326 0.6358 0.51762 0.0
C445 C 0.1972 0.63838 0.36578 0.0
C446 C 0.18682 0.62931 0.58691 0.0
C447 C 0.21427 0.62325 0.54337 0.0
H448 H 0.12346 0.81426 0.28499 0.0
H449 H 0.05065 0.79753 0.0731 0.0
H450 H 0.07016 0.83195 0.94037 0.0
H451 H 0.09908 0.87603 0.91509 0.0
H452 H 0.17075 0.89472 0.13089 0.0
H453 H 0.16115 0.84969 0.22993 0.0
C454 C 0.11259 0.81738 0.2077 0.0
C455 C 0.0854 0.80413 0.18947 0.0
C456 C 0.12343 0.83791 0.13364 0.0
C457 C 0.07154 0.80777 0.08888 0.0
C458 C 0.08255 0.82765 0.0135 0.0
C459 C 0.11363 0.86964 0.98011 0.0
C460 C 0.13478 0.88932 0.0187 0.0
C461 C 0.10727 0.84433 0.03899 0.0
C462 C 0.15365 0.88036 0.1021 0.0
C463 C 0.14803 0.85472 0.15929 0.0
H464 H 0.75743 0.95374 0.14202 0.0
H465 H 0.72303 0.90183 0.40192 0.0
H466 H 0.6744 0.90404 0.32233 0.0
H467 H 0.64127 0.93865 0.22872 0.0
H468 H 0.67658 0.99576 0.98309 0.0
H469 H 0.72488 0.97486 0.00829 0.0
C470 C 0.73957 0.94162 0.17851 0.0
C471 C 0.74241 0.93135 0.28546 0.0
C472 C 0.71137 0.94598 0.13813 0.0
C473 C 0.72052 0.91235 0.32379 0.0
C474 C 0.69239 0.91445 0.28018 0.0
C475 C 0.65932 0.9457 0.17798 0.0
C476 C 0.65586 0.96962 0.108 0.0
C477 C 0.68727 0.9342 0.19533 0.0
C478 C 0.67918 0.97818 0.04085 0.0
C479 C 0.70674 0.96609 0.0546 0.0
H480 H 0.41104 0.71661 0.3456 0.0
H481 H 0.46562 0.73563 0.06903 0.0
H482 H 0.44016 0.69893 0.96266 0.0
H483 H 0.41568 0.65198 0.97322 0.0
H484 H 0.3636 0.63024 0.254 0.0
H485 H 0.37381 0.67794 0.33209 0.0
C486 C 0.41636 0.71355 0.26051 0.0
C487 C 0.44073 0.72796 0.21613 0.0
C488 C 0.40252 0.69143 0.20141 0.0
C489 C 0.44717 0.72448 0.10537 0.0
C490 C 0.43281 0.70322 0.04479 0.0
C491 C 0.40516 0.65809 0.04871 0.0
C492 C 0.39031 0.63698 0.11079 0.0
C493 C 0.41231 0.68496 0.09526 0.0
C494 C 0.37618 0.64574 0.20681 0.0
C495 C 0.38226 0.67293 0.25205 0.0
H496 H 0.83014 0.62771 0.38241 0.0
H497 H 0.77788 0.58012 0.15376 0.0
H498 H 0.82091 0.56906 0.04709 0.0
H499 H 0.87242 0.55534 0.06465 0.0
H500 H 0.92362 0.59112 0.32646 0.0
H501 H 0.88319 0.62267 0.37743 0.0
C502 C 0.82816 0.61578 0.30679 0.0
C503 C 0.80169 0.60138 0.28413 0.0
C504 C 0.85357 0.60534 0.25668 0.0
C505 C 0.79851 0.58928 0.17972 0.0
C506 C 0.82336 0.58215 0.11969 0.0
C507 C 0.87486 0.57032 0.13204 0.0
C508 C 0.90051 0.57003 0.19448 0.0
C509 C 0.85095 0.58694 0.16535 0.0
C510 C 0.9039 0.59051 0.27825 0.0
C511 C 0.88074 0.60858 0.30751 0.0
H512 H 0.98465 0.20611 0.94615 0.0
H513 H 0.04592 0.191 0.20431 0.0
H514 H 0.05765 0.1432 0.12726 0.0
H515 H 0.04624 0.10327 0.99689 0.0
H516 H 0.98469 0.11945 0.7391 0.0
H517 H 0.97735 0.16877 0.8054 0.0
C518 C 1.00126 0.19272 0.98371 0.0
C519 C 1.01459 0.2024 0.08058 0.0
C520 C 1.00737 0.16498 0.94009 0.0
C521 C 0.03574 0.1845 0.12882 0.0
C522 C 0.04209 0.15689 0.0855 0.0
C523 C 0.03144 0.11766 0.9545 0.0
C524 C 1.01591 0.10722 0.86305 0.0
C525 C 0.02737 0.14648 0.99294 0.0
C526 C 0.99701 0.12653 0.80929 0.0
C527 C 0.99272 0.1549 0.84737 0.0
H528 H 0.35175 0.03187 0.16075 0.0
H529 H 0.30979 0.99664 0.87774 0.0
H530 H 0.35534 1.00131 0.77443 0.0
H531 H 0.40901 1.01013 0.77101 0.0
H532 H 0.45031 0.04628 0.05516 0.0
H533 H 0.40366 0.04655 0.15033 0.0
C534 C 0.35226 0.02648 0.07507 0.0
C535 C 0.32699 1.01474 0.02634 0.0
C536 C 0.37886 0.02863 0.01676 0.0
C537 C 0.3285 1.00666 0.91633 0.0
C538 C 0.35479 1.00884 0.85774 0.0
C539 C 0.40776 0.01837 0.85331 0.0
C540 C 0.43353 0.02796 0.90549 0.0
C541 C 0.38043 0.01891 0.90802 0.0
C542 C 0.43114 0.03876 0.01216 0.0
C543 C 0.40432 0.03891 0.06716 0.0
H544 H 0.51008 0.34405 0.14253 0.0
H545 H 0.56256 0.31271 0.87803 0.0
H546 H 0.5553 0.35851 0.77956 0.0
H547 H 0.53941 0.41039 0.78063 0.0
H548 H 0.48859 0.44131 0.0524 0.0
H549 H 0.4898 0.39338 0.13465 0.0
C550 C 0.51876 0.34676 0.06113 0.0
C551 C 0.53608 0.32456 0.01643 0.0
C552 C 0.51551 0.3737 1.0072 0.0
C553 C 0.54833 0.32901 0.9128 0.0
C554 C 0.54461 0.35549 0.85733 0.0
C555 C 0.52823 0.40654 0.85694 0.0
C556 C 0.51427 0.42993 0.91025 0.0
C557 C 0.52911 0.37849 0.90544 0.0
C558 C 0.49992 0.42418 0.00942 0.0
C559 C 0.50046 0.39657 0.05691 0.0
H560 H 0.18251 0.50194 0.18454 0.0
H561 H 0.22531 0.54191 0.91093 0.0
H562 H 0.18052 0.53806 0.80428 0.0
H563 H 0.12734 0.52859 0.7956 0.0
H564 H 0.08468 0.48695 0.06665 0.0
H565 H 0.13075 0.48609 0.16642 0.0
C566 C 0.18235 0.5086 0.10007 0.0
C567 C 0.20758 0.5216 0.05517 0.0
C568 C 0.15613 0.50671 0.03929 0.0
C569 C 0.20654 0.53112 0.94662 0.0
C570 C 0.18072 0.52935 0.88606 0.0
C571 C 0.12819 0.51902 0.87599 0.0
C572 C 0.10231 0.50811 0.92355 0.0
C573 C 0.15507 0.51808 0.93259 0.0
C574 C 0.10408 0.4955 0.02756 0.0
C575 C 0.13052 0.49505 0.08503 0.0
H576 H 0.99646 0.83925 0.46751 0.0
H577 H 0.07891 0.82067 0.61811 0.0
H578 H 0.07684 0.86675 0.7177 0.0
H579 H 0.05416 0.91528 0.74572 0.0
H580 H 0.9717 0.93347 0.59147 0.0
H581 H 0.9713 0.88526 0.51074 0.0
C582 C 1.01337 0.84478 0.52547 0.0
C583 C 0.03745 0.82607 0.53726 0.0
C584 C 1.01244 0.87187 0.5801 0.0
C585 C 0.05976 0.83422 0.60964 0.0
C586 C 0.05878 0.86086 0.66541 0.0
C587 C 0.03593 0.90861 0.69552 0.0
C588 C 1.01311 0.9285 0.67474 0.0
C589 C 0.03567 0.88038 0.64872 0.0
C590 C 0.98968 0.91905 0.60946 0.0
C591 C 0.98938 0.89128 0.56277 0.0
H592 H 0.71011 0.98463 0.65608 0.0
H593 H 0.69884 0.03488 0.36448 0.0
H594 H 0.64768 0.0438 0.41278 0.0
H595 H 0.60459 0.03336 0.53107 0.0
H596 H 0.61713 0.98359 0.82448 0.0
H597 H 0.66879 0.97833 0.7823 0.0
C598 C 0.69675 0.99852 0.60537 0.0
C599 C 0.70865 1.00971 0.50811 0.0
C600 C 0.66714 1.00298 0.63271 0.0
C601 C 0.69066 0.02683 0.44147 0.0
C602 C 0.66117 0.03145 0.46821 0.0
C603 C 0.61864 0.0214 0.5858 0.0
C604 C 0.60658 1.0085 0.68017 0.0
C605 C 0.64888 0.01894 0.56224 0.0
C606 C 0.62544 0.99356 0.75088 0.0
C607 C 0.65518 0.99062 0.7271 0.0
H608 H 0.4727 0.70131 0.59497 0.0
H609 H 0.55349 0.69928 0.41655 0.0
H610 H 0.56624 0.65297 0.50378 0.0
H611 H 0.55151 0.61003 0.61622 0.0
H612 H 0.46982 0.61329 0.79143 0.0
H613 H 0.46051 0.66159 0.72029 0.0
C614 C 0.49349 0.69113 0.57738 0.0
C615 C 0.51217 0.70396 0.4996 0.0
C616 C 0.50028 0.66417 0.6258 0.0
C617 C 0.5389 0.69027 0.47723 0.0
C618 C 0.54598 0.66348 0.52606 0.0
C619 C 0.53182 0.6214 0.63973 0.0
C620 C 0.5113 0.60745 0.70864 0.0
C621 C 0.5264 0.6497 0.59808 0.0
C622 C 0.48602 0.62294 0.73818 0.0
C623 C 0.48059 0.65079 0.69749 0.0
H624 H 0.84709 0.52746 0.42075 0.0
H625 H 0.80752 0.54082 0.73369 0.0
H626 H 0.85505 0.53297 0.82176 0.0
H627 H 0.90942 0.52803 0.80684 0.0
H628 H 0.94789 0.51938 0.488 0.0
H629 H 0.89974 0.52026 0.40604 0.0
C630 C 0.84864 0.52761 0.50869 0.0
C631 C 0.82346 0.53407 0.5705 0.0
C632 C 0.87628 0.52489 0.55768 0.0
C633 C 0.82617 0.53509 0.68412 0.0
C634 C 0.85357 0.53117 0.73424 0.0
C635 C 0.90726 0.52613 0.71951 0.0
C636 C 0.93269 0.52387 0.6542 0.0
C637 C 0.87905 0.52702 0.67157 0.0
C638 C 0.92912 0.52146 0.54099 0.0
C639 C 0.90142 0.52178 0.49361 0.0
loop_
_geom_bond_atom_site_label_1
_geom_bond_atom_site_label_2
_geom_bond_distance
_geom_bond_site_symmetry_2
_ccdc_geom_bond_type
H0 C5 0.930 . S
H1 C8 0.930 . S
H2 C10 0.930 . S
H3 C4 1.016 . S
C4 H3 1.016 . S
C4 N11 1.286 . S
C5 H0 0.930 . S
C5 C6 1.397 . S
C5 C7 1.361 . S
C6 C5 1.397 . S
C6 C10 1.390 . S
C7 C5 1.361 . S
C7 C8 1.393 . S
C7 N11 1.413 . S
C8 H1 0.930 . S
C8 C7 1.393 . S
C8 C9 1.399 . S
C9 C8 1.399 . S
C9 C10 1.381 . S
C10 H2 0.930 . S
C10 C6 1.390 . S
C10 C9 1.381 . S
N11 C4 1.286 . S
N11 C7 1.413 . S
H12 C17 0.930 . S
H13 C20 0.930 . S
H14 C22 0.930 . S
H15 C16 1.029 . S
C16 H15 1.029 . S
C16 N23 1.268 1_655 S
C17 H12 0.930 . S
C17 C18 1.397 . S
C17 C19 1.361 . S
C18 C17 1.397 . S
C18 C22 1.390 1_455 S
C19 C17 1.361 . S
C19 C20 1.393 . S
C19 N23 1.413 . S
C20 H13 0.930 . S
C20 C19 1.393 . S
C20 C21 1.402 . S
C21 C20 1.402 . S
C21 C22 1.379 1_455 S
C22 H14 0.930 . S
C22 C18 1.390 1_655 S
C22 C21 1.379 1_655 S
N23 C16 1.268 1_455 S
N23 C19 1.413 . S
H24 C29 0.930 . S
H25 C32 0.930 . S
H26 C34 0.930 . S
H27 C28 1.030 . S
C28 H27 1.030 . S
C28 N35 1.268 1_565 S
C29 H24 0.930 . S
C29 C30 1.397 . S
C29 C31 1.361 . S
C30 C29 1.397 . S
C30 C34 1.390 1_545 S
C31 C29 1.361 . S
C31 C32 1.393 . S
C31 N35 1.413 . S
C32 H25 0.930 . S
C32 C31 1.393 . S
C32 C33 1.402 . S
C33 C32 1.402 . S
C33 C34 1.379 1_545 S
C34 H26 0.930 . S
C34 C30 1.390 1_565 S
C34 C33 1.379 1_565 S
N35 C28 1.268 1_545 S
N35 C31 1.413 . S
H36 C41 0.930 . S
H37 C44 0.930 . S
H38 C46 0.930 . S
H39 C40 1.016 . S
C40 H39 1.016 . S
C40 N47 1.286 . S
C41 H36 0.930 . S
C41 C42 1.397 . S
C41 C43 1.361 . S
C42 C41 1.397 . S
C42 C46 1.390 . S
C43 C41 1.361 . S
C43 C44 1.393 . S
C43 N47 1.413 . S
C44 H37 0.930 . S
C44 C43 1.393 . S
C44 C45 1.399 . S
C45 C44 1.399 . S
C45 C46 1.381 . S
C46 H38 0.930 . S
C46 C42 1.390 . S
C46 C45 1.381 . S
N47 C40 1.286 . S
N47 C43 1.413 . S
H48 C53 0.930 . S
H49 C56 0.930 . S
H50 C58 0.930 . S
H51 C52 1.016 . S
C52 H51 1.016 . S
C52 N59 1.286 . S
C53 H48 0.930 . S
C53 C54 1.397 . S
C53 C55 1.361 1_556 S
C54 C53 1.397 . S
C54 C58 1.390 1_556 S
C55 C53 1.361 1_554 S
C55 C56 1.393 . S
C55 N59 1.413 . S
C56 H49 0.930 . S
C56 C55 1.393 . S
C56 C57 1.399 . S
C57 C56 1.399 . S
C57 C58 1.381 . S
C58 H50 0.930 . S
C58 C54 1.390 1_554 S
C58 C57 1.381 . S
N59 C52 1.286 . S
N59 C55 1.413 . S
H60 C65 0.930 . S
H61 C68 0.930 . S
H62 C70 0.930 . S
H63 C64 1.026 . S
C64 H63 1.026 . S
C64 N71 1.272 1_655 S
C65 H60 0.930 . S
C65 C66 1.397 . S
C65 C67 1.361 1_556 S
C66 C65 1.397 . S
C66 C70 1.390 1_456 S
C67 C65 1.361 1_554 S
C67 C68 1.393 . S
C67 N71 1.413 . S
C68 H61 0.930 . S
C68 C67 1.393 . S
C68 C69 1.404 . S
C69 C68 1.404 . S
C69 C70 1.378 1_455 S
C70 H62 0.930 . S
C70 C66 1.390 1_654 S
C70 C69 1.378 1_655 S
N71 C64 1.272 1_455 S
N71 C67 1.413 . S
H72 C77 0.930 . S
H73 C80 0.930 . S
H74 C82 0.930 . S
H75 C76 1.026 . S
C76 H75 1.026 . S
C76 N83 1.272 1_565 S
C77 H72 0.930 . S
C77 C78 1.397 . S
C77 C79 1.361 1_556 S
C78 C77 1.397 . S
C78 C82 1.390 1_546 S
C79 C77 1.361 1_554 S
C79 C80 1.393 . S
C79 N83 1.413 . S
C80 H73 0.930 . S
C80 C79 1.393 . S
C80 C81 1.404 . S
C81 C80 1.404 . S
C81 C82 1.378 1_545 S
C82 H74 0.930 . S
C82 C78 1.390 1_564 S
C82 C81 1.378 1_565 S
N83 C76 1.272 1_545 S
N83 C79 1.413 . S
H84 C89 0.930 . S
H85 C92 0.930 . S
H86 C94 0.930 . S
H87 C88 1.016 . S
C88 H87 1.016 . S
C88 N95 1.286 . S
C89 H84 0.930 . S
C89 C90 1.397 . S
C89 C91 1.361 1_556 S
C90 C89 1.397 . S
C90 C94 1.390 1_556 S
C91 C89 1.361 1_554 S
C91 C92 1.393 . S
C91 N95 1.413 . S
C92 H85 0.930 . S
C92 C91 1.393 . S
C92 C93 1.399 . S
C93 C92 1.399 . S
C93 C94 1.381 . S
C94 H86 0.930 . S
C94 C90 1.390 1_554 S
C94 C93 1.381 . S
N95 C88 1.286 . S
N95 C91 1.413 . S
Tb96 C106 2.825 1_556 S
Tb96 O107 2.347 1_455 S
Tb96 O110 2.366 . S
Tb96 O115 2.418 . S
Tb96 O116 2.384 1_565 S
Tb96 O119 2.479 . S
Tb96 O120 2.471 1_556 S
Eu97 O108 2.418 . S
Eu97 O109 2.384 1_545 S
Eu97 O112 2.479 . S
Eu97 O113 2.471 . S
Eu97 O114 2.347 1_655 S
Eu97 O117 2.366 . S
Eu97 C127 2.825 . S
C98 O114 1.259 1_565 S
C98 O115 1.265 . S
C99 O116 1.255 . S
C99 O117 1.265 1_455 S
C100 C102 1.380 . S
C100 C103 1.374 . S
C100 C106 1.507 . S
C101 C102 1.384 . S
C101 C105 1.387 . S
C101 H128 0.930 . S
C102 C100 1.380 . S
C102 C101 1.384 . S
C102 H129 0.931 . S
C103 C100 1.374 . S
C103 C104 1.390 . S
C103 H130 0.930 1_455 S
C104 C103 1.390 . S
C104 C105 1.391 . S
C104 H131 0.930 1_455 S
C105 C101 1.387 . S
C105 C104 1.391 . S
C106 Tb96 2.825 1_554 S
C106 C100 1.507 . S
C106 O119 1.238 1_554 S
C106 O120 1.247 . S
O107 Tb96 2.347 1_655 S
O107 C111 1.259 1_565 S
O108 Eu97 2.418 . S
O108 C111 1.265 . S
O109 Eu97 2.384 1_565 S
O109 C118 1.255 . S
O110 Tb96 2.366 . S
O110 C118 1.265 1_455 S
C111 O107 1.259 1_545 S
C111 O108 1.265 . S
O112 Eu97 2.479 . S
O112 C127 1.238 . S
O113 Eu97 2.471 . S
O113 C127 1.247 . S
O114 Eu97 2.347 1_455 S
O114 C98 1.259 1_545 S
O115 Tb96 2.418 . S
O115 C98 1.265 . S
O116 Tb96 2.384 1_545 S
O116 C99 1.255 . S
O117 Eu97 2.366 . S
O117 C99 1.265 1_655 S
C118 O109 1.255 . S
C118 O110 1.265 1_655 S
O119 Tb96 2.479 . S
O119 C106 1.238 1_556 S
O120 Tb96 2.471 1_554 S
O120 C106 1.247 . S
C121 C124 1.380 . S
C121 C125 1.374 . S
C121 C127 1.507 . S
C122 C123 1.387 . S
C122 C126 1.391 . S
C123 C122 1.387 . S
C123 C124 1.384 . S
C123 H132 0.930 . S
C124 C121 1.380 . S
C124 C123 1.384 . S
C124 H133 0.931 . S
C125 C121 1.374 . S
C125 C126 1.390 . S
C125 H134 0.930 1_655 S
C126 C122 1.391 . S
C126 C125 1.390 . S
C126 H135 0.930 1_655 S
C127 Eu97 2.825 . S
C127 O112 1.238 . S
C127 O113 1.247 . S
C127 C121 1.507 . S
H128 C101 0.930 . S
H129 C102 0.931 . S
H130 C103 0.930 1_655 S
H131 C104 0.930 1_655 S
H132 C123 0.930 . S
H133 C124 0.931 . S
H134 C125 0.930 1_455 S
H135 C126 0.930 1_455 S
Tb136 C146 2.825 1_556 S
Tb136 O147 2.347 1_545 S
Tb136 O150 2.366 . S
Tb136 O155 2.418 . S
Tb136 O156 2.384 . S
Tb136 O159 2.479 . S
Tb136 O160 2.471 1_556 S
Eu137 O148 2.418 . S
Eu137 O149 2.384 . S
Eu137 O152 2.479 . S
Eu137 O153 2.471 . S
Eu137 O154 2.347 1_565 S
Eu137 O157 2.366 . S
Eu137 C167 2.825 . S
C138 O154 1.259 . S
C138 O155 1.265 . S
C139 O156 1.255 . S
C139 O157 1.265 1_545 S
C140 C142 1.380 . S
C140 C143 1.374 . S
C140 C146 1.507 . S
C141 C142 1.384 . S
C141 C145 1.387 . S
C141 H168 0.930 . S
C142 C140 1.380 . S
C142 C141 1.384 . S
C142 H169 0.931 . S
C143 C140 1.374 . S
C143 C144 1.390 . S
C143 H170 0.930 1_545 S
C144 C143 1.390 . S
C144 C145 1.391 . S
C144 H171 0.930 1_545 S
C145 C141 1.387 . S
C145 C144 1.391 . S
C146 Tb136 2.825 1_554 S
C146 C140 1.507 . S
C146 O159 1.238 1_554 S
C146 O160 1.247 . S
O147 Tb136 2.347 1_565 S
O147 C151 1.259 . S
O148 Eu137 2.418 . S
O148 C151 1.265 . S
O149 Eu137 2.384 . S
O149 C158 1.255 . S
O150 Tb136 2.366 . S
O150 C158 1.265 1_545 S
C151 O147 1.259 . S
C151 O148 1.265 . S
O152 Eu137 2.479 . S
O152 C167 1.238 . S
O153 Eu137 2.471 . S
O153 C167 1.247 . S
O154 Eu137 2.347 1_545 S
O154 C138 1.259 . S
O155 Tb136 2.418 . S
O155 C138 1.265 . S
O156 Tb136 2.384 . S
O156 C139 1.255 . S
O157 Eu137 2.366 . S
O157 C139 1.265 1_565 S
C158 O149 1.255 . S
C158 O150 1.265 1_565 S
O159 Tb136 2.479 . S
O159 C146 1.238 1_556 S
O160 Tb136 2.471 1_554 S
O160 C146 1.247 . S
C161 C164 1.380 . S
C161 C165 1.374 . S
C161 C167 1.507 . S
C162 C163 1.387 . S
C162 C166 1.391 . S
C163 C162 1.387 . S
C163 C164 1.384 . S
C163 H172 0.930 . S
C164 C161 1.380 . S
C164 C163 1.384 . S
C164 H173 0.931 . S
C165 C161 1.374 . S
C165 C166 1.390 . S
C165 H174 0.930 1_565 S
C166 C162 1.391 . S
C166 C165 1.390 . S
C166 H175 0.930 1_565 S
C167 Eu137 2.825 . S
C167 O152 1.238 . S
C167 O153 1.247 . S
C167 C161 1.507 . S
H168 C141 0.930 . S
H169 C142 0.931 . S
H170 C143 0.930 1_565 S
H171 C144 0.930 1_565 S
H172 C163 0.930 . S
H173 C164 0.931 . S
H174 C165 0.930 1_545 S
H175 C166 0.930 1_545 S
Tb176 C186 2.825 1_556 S
Tb176 O187 2.347 . S
Tb176 O190 2.366 . S
Tb176 O195 2.418 . S
Tb176 O196 2.384 . S
Tb176 O199 2.479 . S
Tb176 O200 2.471 1_556 S
Eu177 O188 2.418 . S
Eu177 O189 2.384 . S
Eu177 O192 2.479 . S
Eu177 O193 2.471 . S
Eu177 O194 2.347 . S
Eu177 O197 2.366 . S
Eu177 C207 2.825 . S
C178 O194 1.259 . S
C178 O195 1.265 . S
C179 O196 1.255 . S
C179 O197 1.265 . S
C180 C182 1.380 . S
C180 C183 1.374 . S
C180 C186 1.507 . S
C181 C182 1.384 . S
C181 C185 1.387 . S
C181 H208 0.930 . S
C182 C180 1.380 . S
C182 C181 1.384 . S
C182 H209 0.931 . S
C183 C180 1.374 . S
C183 C184 1.390 . S
C183 H210 0.930 . S
C184 C183 1.390 . S
C184 C185 1.391 . S
C184 H211 0.930 . S
C185 C181 1.387 . S
C185 C184 1.391 . S
C186 Tb176 2.825 1_554 S
C186 C180 1.507 . S
C186 O199 1.238 1_554 S
C186 O200 1.247 . S
O187 Tb176 2.347 . S
O187 C191 1.259 . S
O188 Eu177 2.418 . S
O188 C191 1.265 . S
O189 Eu177 2.384 . S
O189 C198 1.255 . S
O190 Tb176 2.366 . S
O190 C198 1.265 . S
C191 O187 1.259 . S
C191 O188 1.265 . S
O192 Eu177 2.479 . S
O192 C207 1.238 . S
O193 Eu177 2.471 . S
O193 C207 1.247 . S
O194 Eu177 2.347 . S
O194 C178 1.259 . S
O195 Tb176 2.418 . S
O195 C178 1.265 . S
O196 Tb176 2.384 . S
O196 C179 1.255 . S
O197 Eu177 2.366 . S
O197 C179 1.265 . S
C198 O189 1.255 . S
C198 O190 1.265 . S
O199 Tb176 2.479 . S
O199 C186 1.238 1_556 S
O200 Tb176 2.471 1_554 S
O200 C186 1.247 . S
C201 C204 1.380 . S
C201 C205 1.374 . S
C201 C207 1.507 . S
C202 C203 1.387 . S
C202 C206 1.391 . S
C203 C202 1.387 . S
C203 C204 1.384 . S
C203 H212 0.930 . S
C204 C201 1.380 . S
C204 C203 1.384 . S
C204 H213 0.931 . S
C205 C201 1.374 . S
C205 C206 1.390 . S
C205 H214 0.930 . S
C206 C202 1.391 . S
C206 C205 1.390 . S
C206 H215 0.930 . S
C207 Eu177 2.825 . S
C207 O192 1.238 . S
C207 O193 1.247 . S
C207 C201 1.507 . S
H208 C181 0.930 . S
H209 C182 0.931 . S
H210 C183 0.930 . S
H211 C184 0.930 . S
H212 C203 0.930 . S
H213 C204 0.931 . S
H214 C205 0.930 . S
H215 C206 0.930 . S
Tb216 C226 2.825 1_556 S
Tb216 O227 2.347 . S
Tb216 O230 2.366 . S
Tb216 O235 2.418 . S
Tb216 O236 2.384 1_655 S
Tb216 O239 2.479 . S
Tb216 O240 2.471 1_556 S
Eu217 O228 2.418 . S
Eu217 O229 2.384 1_455 S
Eu217 O232 2.479 . S
Eu217 O233 2.471 . S
Eu217 O234 2.347 . S
Eu217 O237 2.366 . S
Eu217 C247 2.825 . S
C218 O234 1.259 1_655 S
C218 O235 1.265 . S
C219 O236 1.255 . S
C219 O237 1.265 . S
C220 C222 1.380 . S
C220 C223 1.374 . S
C220 C226 1.507 . S
C221 C222 1.384 . S
C221 C225 1.387 . S
C221 H248 0.930 . S
C222 C220 1.380 . S
C222 C221 1.384 . S
C222 H249 0.931 . S
C223 C220 1.374 . S
C223 C224 1.390 . S
C223 H250 0.930 . S
C224 C223 1.390 . S
C224 C225 1.391 . S
C224 H251 0.930 . S
C225 C221 1.387 . S
C225 C224 1.391 . S
C226 Tb216 2.825 1_554 S
C226 C220 1.507 . S
C226 O239 1.238 1_554 S
C226 O240 1.247 . S
O227 Tb216 2.347 . S
O227 C231 1.259 1_655 S
O228 Eu217 2.418 . S
O228 C231 1.265 . S
O229 Eu217 2.384 1_655 S
O229 C238 1.255 . S
O230 Tb216 2.366 . S
O230 C238 1.265 . S
C231 O227 1.259 1_455 S
C231 O228 1.265 . S
O232 Eu217 2.479 . S
O232 C247 1.238 . S
O233 Eu217 2.471 . S
O233 C247 1.247 . S
O234 Eu217 2.347 . S
O234 C218 1.259 1_455 S
O235 Tb216 2.418 . S
O235 C218 1.265 . S
O236 Tb216 2.384 1_455 S
O236 C219 1.255 . S
O237 Eu217 2.366 . S
O237 C219 1.265 . S
C238 O229 1.255 . S
C238 O230 1.265 . S
O239 Tb216 2.479 . S
O239 C226 1.238 1_556 S
O240 Tb216 2.471 1_554 S
O240 C226 1.247 . S
C241 C244 1.380 . S
C241 C245 1.374 . S
C241 C247 1.507 . S
C242 C243 1.387 . S
C242 C246 1.391 . S
C243 C242 1.387 . S
C243 C244 1.384 . S
C243 H252 0.930 . S
C244 C241 1.380 . S
C244 C243 1.384 . S
C244 H253 0.931 . S
C245 C241 1.374 . S
C245 C246 1.390 . S
C245 H254 0.930 . S
C246 C242 1.391 . S
C246 C245 1.390 . S
C246 H255 0.930 . S
C247 Eu217 2.825 . S
C247 O232 1.238 . S
C247 O233 1.247 . S
C247 C241 1.507 . S
H248 C221 0.930 . S
H249 C222 0.931 . S
H250 C223 0.930 . S
H251 C224 0.930 . S
H252 C243 0.930 . S
H253 C244 0.931 . S
H254 C245 0.930 . S
H255 C246 0.930 . S
H256 C262 0.931 . S
H257 C265 0.930 . S
H258 C266 0.930 . S
H259 C267 0.931 . S
H260 C270 0.931 . S
H261 C271 0.932 . S
C262 H256 0.931 . S
C262 C263 1.355 . S
C262 C264 1.414 . S
C263 C262 1.355 . S
C263 C265 1.419 . S
C264 C262 1.414 . S
C264 C269 1.425 . S
C264 C271 1.408 1_545 S
C265 H257 0.930 . S
C265 C263 1.419 . S
C265 C266 1.362 . S
C266 H258 0.930 . S
C266 C265 1.362 . S
C266 C269 1.409 . S
C267 H259 0.931 . S
C267 C268 1.355 . S
C267 C269 1.414 1_565 S
C268 C267 1.355 . S
C268 C270 1.419 . S
C269 C264 1.425 . S
C269 C266 1.409 . S
C269 C267 1.414 1_545 S
C270 H260 0.931 . S
C270 C268 1.419 . S
C270 C271 1.362 . S
C271 H261 0.932 . S
C271 C264 1.408 1_565 S
C271 C270 1.362 . S
H272 C278 0.930 . S
H273 C281 0.930 . S
H274 C282 0.930 . S
H275 C283 0.930 . S
H276 C286 0.930 . S
H277 C287 0.930 . S
C278 H272 0.930 . S
C278 C279 1.355 . S
C278 C280 1.415 . S
C279 C278 1.355 . S
C279 C281 1.419 . S
C280 C278 1.415 . S
C280 C285 1.425 . S
C280 C287 1.409 . S
C281 H273 0.930 . S
C281 C279 1.419 . S
C281 C282 1.362 . S
C282 H274 0.930 . S
C282 C281 1.362 . S
C282 C285 1.409 . S
C283 H275 0.930 . S
C283 C284 1.355 . S
C283 C285 1.415 . S
C284 C283 1.355 . S
C284 C286 1.419 . S
C285 C280 1.425 . S
C285 C282 1.409 . S
C285 C283 1.415 . S
C286 H276 0.930 . S
C286 C284 1.419 . S
C286 C287 1.362 . S
C287 H277 0.930 . S
C287 C280 1.409 . S
C287 C286 1.362 . S
H288 C294 0.930 . S
H289 C297 0.930 . S
H290 C298 0.930 . S
H291 C299 0.930 . S
H292 C302 0.930 . S
H293 C303 0.930 . S
C294 H288 0.930 . S
C294 C295 1.355 . S
C294 C296 1.415 . S
C295 C294 1.355 . S
C295 C297 1.419 . S
C296 C294 1.415 . S
C296 C301 1.425 . S
C296 C303 1.409 . S
C297 H289 0.930 . S
C297 C295 1.419 . S
C297 C298 1.362 . S
C298 H290 0.930 . S
C298 C297 1.362 . S
C298 C301 1.409 . S
C299 H291 0.930 . S
C299 C300 1.355 . S
C299 C301 1.415 . S
C300 C299 1.355 . S
C300 C302 1.419 . S
C301 C296 1.425 . S
C301 C298 1.409 . S
C301 C299 1.415 . S
C302 H292 0.930 . S
C302 C300 1.419 . S
C302 C303 1.362 . S
C303 H293 0.930 . S
C303 C296 1.409 . S
C303 C302 1.362 . S
H304 C310 0.930 . S
H305 C313 0.930 . S
H306 C314 0.930 . S
H307 C315 0.930 . S
H308 C318 0.930 . S
H309 C319 0.930 . S
C310 H304 0.930 . S
C310 C311 1.355 1_655 S
C310 C312 1.415 . S
C311 C310 1.355 1_455 S
C311 C313 1.419 . S
C312 C310 1.415 . S
C312 C317 1.425 1_655 S
C312 C319 1.409 . S
C313 H305 0.930 . S
C313 C311 1.419 . S
C313 C314 1.362 . S
C314 H306 0.930 . S
C314 C313 1.362 . S
C314 C317 1.409 . S
C315 H307 0.930 . S
C315 C316 1.355 1_455 S
C315 C317 1.415 . S
C316 C315 1.355 1_655 S
C316 C318 1.419 . S
C317 C312 1.425 1_455 S
C317 C314 1.409 . S
C317 C315 1.415 . S
C318 H308 0.930 . S
C318 C316 1.419 . S
C318 C319 1.362 . S
C319 H309 0.930 . S
C319 C312 1.409 . S
C319 C318 1.362 . S
H320 C326 0.930 . S
H321 C329 0.930 . S
H322 C330 0.930 . S
H323 C331 0.930 . S
H324 C334 0.930 . S
H325 C335 0.930 . S
C326 H320 0.930 . S
C326 C327 1.355 1_565 S
C326 C328 1.415 . S
C327 C326 1.355 1_545 S
C327 C329 1.419 . S
C328 C326 1.415 . S
C328 C333 1.425 1_565 S
C328 C335 1.409 . S
C329 H321 0.930 . S
C329 C327 1.419 . S
C329 C330 1.362 . S
C330 H322 0.930 . S
C330 C329 1.362 . S
C330 C333 1.409 . S
C331 H323 0.930 . S
C331 C332 1.355 1_544 S
C331 C333 1.415 . S
C332 C331 1.355 1_566 S
C332 C334 1.419 . S
C333 C328 1.425 1_545 S
C333 C330 1.409 . S
C333 C331 1.415 . S
C334 H324 0.930 . S
C334 C332 1.419 . S
C334 C335 1.362 1_556 S
C335 H325 0.930 . S
C335 C328 1.409 . S
C335 C334 1.362 1_554 S
H336 C342 0.930 . S
H337 C345 0.930 . S
H338 C346 0.930 . S
H339 C347 0.930 . S
H340 C350 0.930 . S
H341 C351 0.930 . S
C342 H336 0.930 . S
C342 C343 1.355 . S
C342 C344 1.415 . S
C343 C342 1.355 . S
C343 C345 1.419 . S
C344 C342 1.415 . S
C344 C349 1.425 . S
C344 C351 1.409 . S
C345 H337 0.930 . S
C345 C343 1.419 . S
C345 C346 1.362 . S
C346 H338 0.930 . S
C346 C345 1.362 . S
C346 C349 1.409 . S
C347 H339 0.930 . S
C347 C348 1.345 1_554 S
C347 C349 1.415 . S
C348 C347 1.345 1_556 S
C348 C350 1.421 . S
C349 C344 1.425 . S
C349 C346 1.409 . S
C349 C347 1.415 . S
C350 H340 0.930 . S
C350 C348 1.421 . S
C350 C351 1.362 1_556 S
C351 H341 0.930 . S
C351 C344 1.409 . S
C351 C350 1.362 1_554 S
H352 C358 0.930 . S
H353 C361 0.930 . S
H354 C362 0.930 . S
H355 C363 0.930 . S
H356 C366 0.930 . S
H357 C367 0.930 . S
C358 H352 0.930 . S
C358 C359 1.355 . S
C358 C360 1.415 . S
C359 C358 1.355 . S
C359 C361 1.419 . S
C360 C358 1.415 . S
C360 C365 1.425 . S
C360 C367 1.409 . S
C361 H353 0.930 . S
C361 C359 1.419 . S
C361 C362 1.362 . S
C362 H354 0.930 . S
C362 C361 1.362 . S
C362 C365 1.409 . S
C363 H355 0.930 . S
C363 C364 1.355 . S
C363 C365 1.415 . S
C364 C363 1.355 . S
C364 C366 1.419 . S
C365 C360 1.425 . S
C365 C362 1.409 . S
C365 C363 1.415 . S
C366 H356 0.930 . S
C366 C364 1.419 . S
C366 C367 1.362 . S
C367 H357 0.930 . S
C367 C360 1.409 . S
C367 C366 1.362 . S
H368 C374 0.930 . S
H369 C377 0.930 . S
H370 C378 0.930 . S
H371 C379 0.930 . S
H372 C382 0.930 . S
H373 C383 0.930 . S
C374 H368 0.930 . S
C374 C375 1.359 . S
C374 C376 1.415 . S
C375 C374 1.359 . S
C375 C377 1.414 1_655 S
C376 C374 1.415 . S
C376 C381 1.425 1_655 S
C376 C383 1.409 . S
C377 H369 0.930 . S
C377 C375 1.414 1_455 S
C377 C378 1.362 . S
C378 H370 0.930 . S
C378 C377 1.362 . S
C378 C381 1.409 . S
C379 H371 0.930 . S
C379 C380 1.350 1_454 S
C379 C381 1.415 . S
C380 C379 1.350 1_656 S
C380 C382 1.425 . S
C381 C376 1.425 1_455 S
C381 C378 1.409 . S
C381 C379 1.415 . S
C382 H372 0.930 . S
C382 C380 1.425 . S
C382 C383 1.362 1_556 S
C383 H373 0.930 . S
C383 C376 1.409 . S
C383 C382 1.362 1_554 S
H384 C390 0.930 . S
H385 C393 0.930 . S
H386 C394 0.930 . S
H387 C395 0.930 . S
H388 C398 0.930 1_455 S
H389 C399 0.930 . S
C390 H384 0.930 . S
C390 C391 1.349 1_455 S
C390 C392 1.415 1_455 S
C391 C390 1.349 1_655 S
C391 C393 1.433 . S
C392 C390 1.415 1_655 S
C392 C397 1.425 . S
C392 C399 1.409 1_655 S
C393 H385 0.930 . S
C393 C391 1.433 . S
C393 C394 1.362 . S
C394 H386 0.930 . S
C394 C393 1.362 . S
C394 C397 1.409 . S
C395 H387 0.930 . S
C395 C396 1.355 . S
C395 C397 1.415 . S
C396 C395 1.355 . S
C396 C398 1.419 . S
C397 C392 1.425 . S
C397 C394 1.409 . S
C397 C395 1.415 . S
C398 H388 0.930 1_655 S
C398 C396 1.419 . S
C398 C399 1.362 1_655 S
C399 H389 0.930 . S
C399 C392 1.409 1_455 S
C399 C398 1.362 1_455 S
H400 C406 0.930 . S
H401 C409 0.930 . S
H402 C410 0.930 . S
H403 C411 0.930 1_545 S
H404 C414 0.930 . S
H405 C415 0.930 . S
C406 H400 0.930 . S
C406 C407 1.355 1_565 S
C406 C408 1.415 . S
C407 C406 1.355 1_545 S
C407 C409 1.419 . S
C408 C406 1.415 . S
C408 C413 1.425 . S
C408 C415 1.409 . S
C409 H401 0.930 . S
C409 C407 1.419 . S
C409 C410 1.362 . S
C410 H402 0.930 . S
C410 C409 1.362 . S
C410 C413 1.409 1_545 S
C411 H403 0.930 1_565 S
C411 C412 1.355 . S
C411 C413 1.415 . S
C412 C411 1.355 . S
C412 C414 1.419 . S
C413 C408 1.425 . S
C413 C410 1.409 1_565 S
C413 C411 1.415 . S
C414 H404 0.930 . S
C414 C412 1.419 . S
C414 C415 1.362 . S
C415 H405 0.930 . S
C415 C408 1.409 . S
C415 C414 1.362 . S
H416 C422 0.930 . S
H417 C425 0.930 . S
H418 C426 0.930 . S
H419 C427 0.930 . S
H420 C430 0.930 . S
H421 C431 0.930 . S
C422 H416 0.930 . S
C422 C423 1.355 . S
C422 C424 1.415 . S
C423 C422 1.355 . S
C423 C425 1.419 . S
C424 C422 1.415 . S
C424 C429 1.425 . S
C424 C431 1.409 . S
C425 H417 0.930 . S
C425 C423 1.419 . S
C425 C426 1.362 . S
C426 H418 0.930 . S
C426 C425 1.362 . S
C426 C429 1.409 . S
C427 H419 0.930 . S
C427 C428 1.355 . S
C427 C429 1.415 . S
C428 C427 1.355 . S
C428 C430 1.419 . S
C429 C424 1.425 . S
C429 C426 1.409 . S
C429 C427 1.415 . S
C430 H420 0.930 . S
C430 C428 1.419 . S
C430 C431 1.362 . S
C431 H421 0.930 . S
C431 C424 1.409 . S
C431 C430 1.362 . S
H432 C438 0.930 . S
H433 C441 0.930 . S
H434 C442 0.930 . S
H435 C443 0.930 . S
H436 C446 0.930 . S
H437 C447 0.930 . S
C438 H432 0.930 . S
C438 C439 1.355 . S
C438 C440 1.415 . S
C439 C438 1.355 . S
C439 C441 1.419 . S
C440 C438 1.415 . S
C440 C445 1.425 . S
C440 C447 1.409 . S
C441 H433 0.930 . S
C441 C439 1.419 . S
C441 C442 1.362 . S
C442 H434 0.930 . S
C442 C441 1.362 . S
C442 C445 1.409 . S
C443 H435 0.930 . S
C443 C444 1.355 . S
C443 C445 1.415 . S
C444 C443 1.355 . S
C444 C446 1.419 . S
C445 C440 1.425 . S
C445 C442 1.409 . S
C445 C443 1.415 . S
C446 H436 0.930 . S
C446 C444 1.419 . S
C446 C447 1.362 . S
C447 H437 0.930 . S
C447 C440 1.409 . S
C447 C446 1.362 . S
H448 C454 0.930 . S
H449 C457 0.930 . S
H450 C458 0.930 . S
H451 C459 0.930 1_655 S
H452 C462 0.930 . S
H453 C463 0.930 . S
C454 H448 0.930 . S
C454 C455 1.355 1_455 S
C454 C456 1.415 . S
C455 C454 1.355 1_655 S
C455 C457 1.419 . S
C456 C454 1.415 . S
C456 C461 1.425 . S
C456 C463 1.409 . S
C457 H449 0.930 . S
C457 C455 1.419 . S
C457 C458 1.362 . S
C458 H450 0.930 . S
C458 C457 1.362 . S
C458 C461 1.409 1_655 S
C459 H451 0.930 1_455 S
C459 C460 1.355 . S
C459 C461 1.415 . S
C460 C459 1.355 . S
C460 C462 1.419 . S
C461 C456 1.425 . S
C461 C458 1.409 1_455 S
C461 C459 1.415 . S
C462 H452 0.930 . S
C462 C460 1.419 . S
C462 C463 1.362 . S
C463 H453 0.930 . S
C463 C456 1.409 . S
C463 C462 1.362 . S
H464 C470 0.930 . S
H465 C473 0.930 . S
H466 C474 0.930 1_565 S
H467 C475 0.930 . S
H468 C478 0.930 . S
H469 C479 0.930 . S
C470 H464 0.930 . S
C470 C471 1.355 1_545 S
C470 C472 1.415 . S
C471 C470 1.355 1_565 S
C471 C473 1.419 . S
C472 C470 1.415 . S
C472 C477 1.425 . S
C472 C479 1.409 . S
C473 H465 0.930 . S
C473 C471 1.419 . S
C473 C474 1.362 1_565 S
C474 H466 0.930 1_545 S
C474 C473 1.362 1_545 S
C474 C477 1.409 . S
C475 H467 0.930 . S
C475 C476 1.355 . S
C475 C477 1.415 . S
C476 C475 1.355 . S
C476 C478 1.419 . S
C477 C472 1.425 . S
C477 C474 1.409 . S
C477 C475 1.415 . S
C478 H468 0.930 . S
C478 C476 1.419 . S
C478 C479 1.362 . S
C479 H469 0.930 . S
C479 C472 1.409 . S
C479 C478 1.362 . S
H480 C486 0.930 . S
H481 C489 0.930 . S
H482 C490 0.930 . S
H483 C491 0.930 . S
H484 C494 0.930 . S
H485 C495 0.930 . S
C486 H480 0.930 . S
C486 C487 1.355 . S
C486 C488 1.415 . S
C487 C486 1.355 . S
C487 C489 1.419 . S
C488 C486 1.415 . S
C488 C493 1.425 . S
C488 C495 1.409 . S
C489 H481 0.930 . S
C489 C487 1.419 . S
C489 C490 1.362 . S
C490 H482 0.930 . S
C490 C489 1.362 . S
C490 C493 1.409 . S
C491 H483 0.930 . S
C491 C492 1.355 . S
C491 C493 1.415 . S
C492 C491 1.355 . S
C492 C494 1.419 . S
C493 C488 1.425 . S
C493 C490 1.409 . S
C493 C491 1.415 . S
C494 H484 0.930 . S
C494 C492 1.419 . S
C494 C495 1.362 . S
C495 H485 0.930 . S
C495 C488 1.409 . S
C495 C494 1.362 . S
H496 C502 0.930 . S
H497 C505 0.930 . S
H498 C506 0.930 . S
H499 C507 0.930 . S
H500 C510 0.930 . S
H501 C511 0.930 . S
C502 H496 0.930 . S
C502 C503 1.355 . S
C502 C504 1.415 . S
C503 C502 1.355 . S
C503 C505 1.419 . S
C504 C502 1.415 . S
C504 C509 1.425 . S
C504 C511 1.409 . S
C505 H497 0.930 . S
C505 C503 1.419 . S
C505 C506 1.362 . S
C506 H498 0.930 . S
C506 C505 1.362 . S
C506 C509 1.409 . S
C507 H499 0.930 . S
C507 C508 1.355 . S
C507 C509 1.415 . S
C508 C507 1.355 . S
C508 C510 1.419 . S
C509 C504 1.425 . S
C509 C506 1.409 . S
C509 C507 1.415 . S
C510 H500 0.930 . S
C510 C508 1.419 . S
C510 C511 1.362 . S
C511 H501 0.930 . S
C511 C504 1.409 . S
C511 C510 1.362 . S
H512 C518 0.930 1_554 S
H513 C521 0.930 . S
H514 C522 0.930 . S
H515 C523 0.930 . S
H516 C526 0.930 1_554 S
H517 C527 0.930 1_554 S
C518 H512 0.930 1_556 S
C518 C519 1.355 1_655 S
C518 C520 1.415 . S
C519 C518 1.355 1_455 S
C519 C521 1.419 . S
C520 C518 1.415 . S
C520 C525 1.425 1_655 S
C520 C527 1.409 . S
C521 H513 0.930 . S
C521 C519 1.419 . S
C521 C522 1.362 . S
C522 H514 0.930 . S
C522 C521 1.362 . S
C522 C525 1.409 . S
C523 H515 0.930 . S
C523 C524 1.355 . S
C523 C525 1.415 . S
C524 C523 1.355 . S
C524 C526 1.419 1_455 S
C525 C520 1.425 1_455 S
C525 C522 1.409 . S
C525 C523 1.415 . S
C526 H516 0.930 1_556 S
C526 C524 1.419 1_655 S
C526 C527 1.362 . S
C527 H517 0.930 1_556 S
C527 C520 1.409 . S
C527 C526 1.362 . S
H528 C534 0.930 1_554 S
H529 C537 0.930 . S
H530 C538 0.930 . S
H531 C539 0.927 1_565 S
H532 C542 0.930 1_554 S
H533 C543 0.930 1_554 S
C534 H528 0.930 1_556 S
C534 C535 1.355 . S
C534 C536 1.415 . S
C535 C534 1.355 . S
C535 C537 1.419 1_545 S
C536 C534 1.415 . S
C536 C541 1.440 . S
C536 C543 1.409 . S
C537 H529 0.930 . S
C537 C535 1.419 1_565 S
C537 C538 1.362 . S
C538 H530 0.930 . S
C538 C537 1.362 . S
C538 C541 1.397 1_565 S
C539 H531 0.927 1_545 S
C539 C540 1.357 . S
C539 C541 1.414 . S
C540 C539 1.357 . S
C540 C542 1.419 . S
C541 C536 1.440 . S
C541 C538 1.397 1_545 S
C541 C539 1.414 . S
C542 H532 0.930 1_556 S
C542 C540 1.419 . S
C542 C543 1.362 . S
C543 H533 0.930 1_556 S
C543 C536 1.409 . S
C543 C542 1.362 . S
H544 C550 0.930 . S
H545 C553 0.930 1_554 S
H546 C554 0.930 1_554 S
H547 C555 0.930 . S
H548 C558 0.930 . S
H549 C559 0.930 . S
C550 H544 0.930 . S
C550 C551 1.355 . S
C550 C552 1.415 . S
C551 C550 1.355 . S
C551 C553 1.419 . S
C552 C550 1.415 . S
C552 C557 1.425 . S
C552 C559 1.409 . S
C553 H545 0.930 1_556 S
C553 C551 1.419 . S
C553 C554 1.362 . S
C554 H546 0.930 1_556 S
C554 C553 1.362 . S
C554 C557 1.409 . S
C555 H547 0.930 . S
C555 C556 1.355 . S
C555 C557 1.415 . S
C556 C555 1.355 . S
C556 C558 1.419 . S
C557 C552 1.425 . S
C557 C554 1.409 . S
C557 C555 1.415 . S
C558 H548 0.930 . S
C558 C556 1.419 . S
C558 C559 1.362 . S
C559 H549 0.930 . S
C559 C552 1.409 . S
C559 C558 1.362 . S
H560 C566 0.930 . S
H561 C569 0.930 . S
H562 C570 0.930 . S
H563 C571 0.930 . S
H564 C574 0.930 . S
H565 C575 0.930 1_554 S
C566 H560 0.930 . S
C566 C567 1.355 . S
C566 C568 1.415 . S
C567 C566 1.355 . S
C567 C569 1.419 . S
C568 C566 1.415 . S
C568 C573 1.425 . S
C568 C575 1.409 . S
C569 H561 0.930 . S
C569 C567 1.419 . S
C569 C570 1.362 . S
C570 H562 0.930 . S
C570 C569 1.362 . S
C570 C573 1.409 . S
C571 H563 0.930 . S
C571 C572 1.355 . S
C571 C573 1.415 . S
C572 C571 1.355 . S
C572 C574 1.419 . S
C573 C568 1.425 . S
C573 C570 1.409 . S
C573 C571 1.415 . S
C574 H564 0.930 . S
C574 C572 1.419 . S
C574 C575 1.362 . S
C575 H565 0.930 1_556 S
C575 C568 1.409 . S
C575 C574 1.362 . S
H576 C582 0.930 . S
H577 C585 0.930 . S
H578 C586 0.930 . S
H579 C587 0.930 . S
H580 C590 0.930 . S
H581 C591 0.930 . S
C582 H576 0.930 . S
C582 C583 1.356 1_655 S
C582 C584 1.415 . S
C583 C582 1.356 1_455 S
C583 C585 1.418 . S
C584 C582 1.415 . S
C584 C589 1.425 1_655 S
C584 C591 1.409 . S
C585 H577 0.930 . S
C585 C583 1.418 . S
C585 C586 1.362 . S
C586 H578 0.930 . S
C586 C585 1.362 . S
C586 C589 1.409 . S
C587 H579 0.930 . S
C587 C588 1.355 1_455 S
C587 C589 1.415 . S
C588 C587 1.355 1_655 S
C588 C590 1.419 . S
C589 C584 1.425 1_455 S
C589 C586 1.409 . S
C589 C587 1.415 . S
C590 H580 0.930 . S
C590 C588 1.419 . S
C590 C591 1.362 . S
C591 H581 0.930 . S
C591 C584 1.409 . S
C591 C590 1.362 . S
H592 C598 0.930 . S
H593 C601 0.930 . S
H594 C602 0.930 . S
H595 C603 0.930 . S
H596 C606 0.930 . S
H597 C607 0.930 . S
C598 H592 0.930 . S
C598 C599 1.355 . S
C598 C600 1.415 . S
C599 C598 1.355 . S
C599 C601 1.419 1_565 S
C600 C598 1.415 . S
C600 C605 1.425 1_565 S
C600 C607 1.409 . S
C601 H593 0.930 . S
C601 C599 1.419 1_545 S
C601 C602 1.362 . S
C602 H594 0.930 . S
C602 C601 1.362 . S
C602 C605 1.409 . S
C603 H595 0.930 . S
C603 C604 1.355 1_545 S
C603 C605 1.415 . S
C604 C603 1.355 1_565 S
C604 C606 1.419 . S
C605 C600 1.425 1_545 S
C605 C602 1.409 . S
C605 C603 1.415 . S
C606 H596 0.930 . S
C606 C604 1.419 . S
C606 C607 1.362 . S
C607 H597 0.930 . S
C607 C600 1.409 . S
C607 C606 1.362 . S
H608 C614 0.930 . S
H609 C617 0.930 . S
H610 C618 0.930 . S
H611 C619 0.930 . S
H612 C622 0.930 . S
H613 C623 0.930 . S
C614 H608 0.930 . S
C614 C615 1.355 . S
C614 C616 1.415 . S
C615 C614 1.355 . S
C615 C617 1.419 . S
C616 C614 1.415 . S
C616 C621 1.425 . S
C616 C623 1.409 . S
C617 H609 0.930 . S
C617 C615 1.419 . S
C617 C618 1.362 . S
C618 H610 0.930 . S
C618 C617 1.362 . S
C618 C621 1.409 . S
C619 H611 0.930 . S
C619 C620 1.355 . S
C619 C621 1.415 . S
C620 C619 1.355 . S
C620 C622 1.419 . S
C621 C616 1.425 . S
C621 C618 1.409 . S
C621 C619 1.415 . S
C622 H612 0.930 . S
C622 C620 1.419 . S
C622 C623 1.362 . S
C623 H613 0.930 . S
C623 C616 1.409 . S
C623 C622 1.362 . S
H624 C630 0.930 . S
H625 C633 0.930 . S
H626 C634 0.930 . S
H627 C635 0.930 . S
H628 C638 0.930 . S
H629 C639 0.930 . S
C630 H624 0.930 . S
C630 C631 1.355 . S
C630 C632 1.415 . S
C631 C630 1.355 . S
C631 C633 1.419 . S
C632 C630 1.415 . S
C632 C637 1.425 . S
C632 C639 1.409 . S
C633 H625 0.930 . S
C633 C631 1.419 . S
C633 C634 1.362 . S
C634 H626 0.930 . S
C634 C633 1.362 . S
C634 C637 1.409 . S
C635 H627 0.930 . S
C635 C636 1.355 . S
C635 C637 1.415 . S
C636 C635 1.355 . S
C636 C638 1.419 . S
C637 C632 1.425 . S
C637 C634 1.409 . S
C637 C635 1.415 . S
C638 H628 0.930 . S
C638 C636 1.419 . S
C638 C639 1.362 . S
C639 H629 0.930 . S
C639 C632 1.409 . S
C639 C638 1.362 . S
C263 C76 1.818 1_545 S
C268 C98 2.057 . S
C284 C138 2.081 . S
C279 C88 1.916 . S
C300 C178 2.078 . S
C295 C52 1.849 . S
C316 C218 2.063 . S
C311 C64 1.843 1_455 S
C332 C111 2.069 1_565 S
C327 C28 1.905 1_545 S
C343 C40 1.917 . S
C348 C151 2.091 . S
C359 C4 1.847 . S
C364 C191 2.076 1_554 S
C375 C16 1.915 . S
C380 C231 2.072 1_655 S
C396 C122 0.505 . S
C391 C69 0.486 1_655 S
C412 C162 0.627 . S
C407 C81 0.670 . S
C428 C202 0.585 . S
C423 C93 0.517 . S
C439 C57 0.501 . S
C444 C242 0.503 . S
C455 C21 0.617 1_655 S
C460 C105 0.638 . S
C476 C145 0.585 . S
C471 C33 0.519 1_565 S
C492 C185 0.610 . S
C487 C45 0.678 . S
C503 C9 0.626 . S
C508 C225 0.536 . S
C519 C66 2.160 . S
C524 C99 2.415 . S
C535 C78 2.145 . S
C540 C139 2.394 . S
C556 C179 2.375 . S
C551 C90 2.065 . S
C572 C219 2.418 . S
C567 C54 2.156 . S
C583 C18 2.122 . S
C588 C118 2.430 . S
C604 C158 2.382 . S
C599 C30 2.068 1_565 S
C620 C198 2.382 . S
C615 C42 2.133 . S
C631 C6 2.173 . S
C636 C238 2.418 . S
