# Generated by pormake.
# Topology nom, (4,4)-cn, num edge types: 1
# Building blocks:
#     Node 0, Type 0, BuildingBlock: KUFVIS_clean_linker_0, # of connection points: 4
#     Node 1, Type 0, BuildingBlock: KUFVIS_clean_linker_0, # of connection points: 4
#     Node 2, Type 0, BuildingBlock: KUFVIS_clean_linker_0, # of connection points: 4
#     Node 3, Type 0, BuildingBlock: KUFVIS_clean_linker_0, # of connection points: 4
#     Node 4, Type 0, BuildingBlock: KUFVIS_clean_linker_0, # of connection points: 4
#     Node 5, Type 0, BuildingBlock: KUFVIS_clean_linker_0, # of connection points: 4
#     Node 6, Type 1, BuildingBlock: GALJAG_clean_sbu_0, # of connection points: 4
#     Node 7, Type 1, BuildingBlock: GALJAG_clean_sbu_0, # of connection points: 4
#     Node 8, Type 1, BuildingBlock: GALJAG_clean_sbu_0, # of connection points: 4
#     Node 9, Type 1, BuildingBlock: GALJAG_clean_sbu_0, # of connection points: 4
#     Node 10, Type 1, BuildingBlock: GALJAG_clean_sbu_0, # of connection points: 4
#     Node 11, Type 1, BuildingBlock: GALJAG_clean_sbu_0, # of connection points: 4
#     Edge 12, Type (0, 1), BuildingBlock: EYOCIG_clean_linker_4, # of connection points: 2
#     Edge 13, Type (0, 1), BuildingBlock: EYOCIG_clean_linker_4, # of connection points: 2
#     Edge 14, Type (0, 1), BuildingBlock: EYOCIG_clean_linker_4, # of connection points: 2
#     Edge 15, Type (0, 1), BuildingBlock: EYOCIG_clean_linker_4, # of connection points: 2
#     Edge 16, Type (0, 1), BuildingBlock: EYOCIG_clean_linker_4, # of connection points: 2
#     Edge 17, Type (0, 1), BuildingBlock: EYOCIG_clean_linker_4, # of connection points: 2
#     Edge 18, Type (0, 1), BuildingBlock: EYOCIG_clean_linker_4, # of connection points: 2
#     Edge 19, Type (0, 1), BuildingBlock: EYOCIG_clean_linker_4, # of connection points: 2
#     Edge 20, Type (0, 1), BuildingBlock: EYOCIG_clean_linker_4, # of connection points: 2
#     Edge 21, Type (0, 1), BuildingBlock: EYOCIG_clean_linker_4, # of connection points: 2
#     Edge 22, Type (0, 1), BuildingBlock: EYOCIG_clean_linker_4, # of connection points: 2
#     Edge 23, Type (0, 1), BuildingBlock: EYOCIG_clean_linker_4, # of connection points: 2
#     Edge 24, Type (0, 1), BuildingBlock: EYOCIG_clean_linker_4, # of connection points: 2
#     Edge 25, Type (0, 1), BuildingBlock: EYOCIG_clean_linker_4, # of connection points: 2
#     Edge 26, Type (0, 1), BuildingBlock: EYOCIG_clean_linker_4, # of connection points: 2
#     Edge 27, Type (0, 1), BuildingBlock: EYOCIG_clean_linker_4, # of connection points: 2
#     Edge 28, Type (0, 1), BuildingBlock: EYOCIG_clean_linker_4, # of connection points: 2
#     Edge 29, Type (0, 1), BuildingBlock: EYOCIG_clean_linker_4, # of connection points: 2
#     Edge 30, Type (0, 1), BuildingBlock: EYOCIG_clean_linker_4, # of connection points: 2
#     Edge 31, Type (0, 1), BuildingBlock: EYOCIG_clean_linker_4, # of connection points: 2
#     Edge 32, Type (0, 1), BuildingBlock: EYOCIG_clean_linker_4, # of connection points: 2
#     Edge 33, Type (0, 1), BuildingBlock: EYOCIG_clean_linker_4, # of connection points: 2
#     Edge 34, Type (0, 1), BuildingBlock: EYOCIG_clean_linker_4, # of connection points: 2
#     Edge 35, Type (0, 1), BuildingBlock: EYOCIG_clean_linker_4, # of connection points: 2
# Relax obj value: 0.012
# Max RMSD: 0.070
# Mean RMSD: 0.062
data_MOF--net-nom--node1-GALJAG_clean_sbu_0--node2-KUFVIS_clean_linker_0--edge1-EYOCIG_clean_linker_4
_symmetry_space_group_name_H-M    P1
_symmetry_Int_Tables_number       1
_symmetry_cell_setting            triclinic
loop_
_symmetry_equiv_pos_as_xyz
'x, y, z'
_cell_length_a     36.192727
_cell_length_b     36.14073
_cell_length_c     38.09658
_cell_angle_alpha  90.019367
_cell_angle_beta   90.026662
_cell_angle_gamma 120.05453
loop_
_atom_site_label
_atom_site_type_symbol
_atom_site_fract_x
_atom_site_fract_y
_atom_site_fract_z
_atom_type_partial_charge
H0 H 0.17035 0.64034 0.3606 0.0
H1 H 0.07984 0.61028 0.278 0.0
H2 H 0.03757 0.56556 0.38446 0.0
H3 H 0.97737 0.55848 0.36839 0.0
H4 H 0.88654 0.49939 0.28579 0.0
H5 H 0.01924 0.55748 0.26152 0.0
C6 C 0.13731 0.62527 0.35203 0.0
C7 C 0.10465 0.60417 0.3763 0.0
C8 C 0.12807 0.6263 0.31674 0.0
C9 C 0.08558 0.60731 0.30542 0.0
C10 C 0.05143 0.58484 0.32932 0.0
C11 C 0.06192 0.58346 0.36514 0.0
C12 C 1.00558 0.56213 0.31686 0.0
C13 C 0.97154 0.55019 0.3409 0.0
C14 C 0.92902 0.52694 0.32964 0.0
C15 C 0.91963 0.51723 0.29429 0.0
C16 C 0.95216 0.52899 0.26987 0.0
C17 C 0.99496 0.55081 0.28095 0.0
H18 H 0.55246 0.16486 0.52765 0.0
H19 H 0.49205 0.07489 0.44457 0.0
H20 H 0.4937 0.03166 0.55084 0.0
H21 H 0.44032 0.97156 0.53435 0.0
H22 H 0.40903 0.88136 0.45123 0.0
H23 H 0.48455 0.01445 0.42792 0.0
C24 C 0.5344 0.13183 0.5189 0.0
C25 C 0.52254 0.09893 0.54301 0.0
C26 C 0.52427 0.12287 0.48356 0.0
C27 C 0.50066 0.08043 0.47202 0.0
C28 C 0.48872 0.04604 0.49576 0.0
C29 C 0.50041 0.05623 0.53164 0.0
C30 C 0.4655 1.00025 0.48305 0.0
C31 C 0.44299 0.96595 0.50685 0.0
C32 C 0.42366 0.92348 0.49532 0.0
C33 C 0.42431 0.91441 0.45994 0.0
C34 C 0.44552 0.94724 0.4358 0.0
C35 C 0.46656 0.98996 0.44714 0.0
H36 H 0.55439 0.40684 0.61913 0.0
H37 H 0.4927 0.43592 0.70122 0.0
H38 H 0.4959 0.48107 0.59478 0.0
H39 H 0.44293 0.48861 0.61064 0.0
H40 H 0.41091 0.54716 0.69349 0.0
H41 H 0.48511 0.48866 0.71763 0.0
C42 C 0.53616 0.42169 0.62755 0.0
C43 C 0.52464 0.44274 0.60319 0.0
C44 C 0.52553 0.42044 0.66276 0.0
C45 C 0.50171 0.43912 0.67388 0.0
C46 C 0.49017 0.46165 0.64989 0.0
C47 C 0.50233 0.46321 0.61416 0.0
C48 C 0.46705 0.48438 0.66225 0.0
C49 C 0.4452 0.49665 0.63818 0.0
C50 C 0.42597 0.51993 0.6495 0.0
C51 C 0.42613 0.52934 0.68491 0.0
C52 C 0.44671 0.51728 0.70929 0.0
C53 C 0.46761 0.49546 0.69817 0.0
H54 H 0.16929 0.5493 0.78483 0.0
H55 H 0.07934 0.48805 0.86763 0.0
H56 H 0.03628 0.49041 0.76144 0.0
H57 H 0.97661 0.43609 0.77764 0.0
H58 H 0.88597 0.40445 0.86026 0.0
H59 H 0.01875 0.48054 0.88421 0.0
C60 C 0.1363 0.53113 0.7935 0.0
C61 C 0.10348 0.5194 0.76935 0.0
C62 C 0.12733 0.52072 0.82878 0.0
C63 C 0.08493 0.4969 0.84024 0.0
C64 C 0.05062 0.48502 0.81645 0.0
C65 C 0.06082 0.49706 0.78064 0.0
C66 C 1.00488 0.46147 0.82903 0.0
C67 C 0.97081 0.43874 0.8051 0.0
C68 C 0.92834 0.41922 0.81641 0.0
C69 C 0.91904 0.41986 0.85173 0.0
C70 C 0.95164 0.44123 0.87605 0.0
C71 C 0.99439 0.46245 0.8649 0.0
H72 H 0.5032 0.88122 0.02753 0.0
H73 H 0.56335 0.97103 0.94444 0.0
H74 H 0.56179 0.01448 0.05067 0.0
H75 H 0.61495 0.07474 0.03407 0.0
H76 H 0.64589 0.16448 0.95068 0.0
H77 H 0.57052 0.03125 0.92772 0.0
C78 C 0.52119 0.91423 0.01877 0.0
C79 C 0.53302 0.94718 0.04287 0.0
C80 C 0.53126 0.92312 0.98344 0.0
C81 C 0.55477 0.96555 0.97188 0.0
C82 C 0.56666 0.99999 0.9956 0.0
C83 C 0.55507 0.98987 0.03148 0.0
C84 C 0.5897 0.04575 0.98283 0.0
C85 C 0.6122 0.08021 0.00655 0.0
C86 C 0.63144 0.12264 0.99492 0.0
C87 C 0.63066 0.13148 0.9595 0.0
C88 C 0.60944 0.09851 0.93544 0.0
C89 C 0.5885 0.05585 0.9469 0.0
H90 H 0.50227 0.63911 0.11845 0.0
H91 H 0.56429 0.6109 0.20096 0.0
H92 H 0.5599 0.56376 0.09509 0.0
H93 H 0.61471 0.55877 0.11125 0.0
H94 H 0.6457 0.49942 0.19418 0.0
H95 H 0.56993 0.55653 0.21757 0.0
C96 C 0.5204 0.62423 0.12706 0.0
C97 C 0.53149 0.60256 0.10296 0.0
C98 C 0.53135 0.6261 0.16227 0.0
C99 C 0.55503 0.60736 0.17364 0.0
C100 C 0.56617 0.5843 0.14991 0.0
C101 C 0.55371 0.5821 0.1142 0.0
C102 C 0.58932 0.56175 0.16253 0.0
C103 C 0.61197 0.55025 0.13871 0.0
C104 C 0.63129 0.52714 0.15016 0.0
C105 C 0.63041 0.51714 0.18551 0.0
C106 C 0.60903 0.52849 0.20968 0.0
C107 C 0.58803 0.55016 0.19838 0.0
In108 In 0.65082 0.40174 0.40613 0.0
O109 O 0.72097 0.44517 0.41991 0.0
O110 O 0.70629 0.40503 0.37495 0.0
C111 C 0.61297 0.41843 0.45974 0.0
C112 C 0.6342 0.44032 0.35286 0.0
C113 C 0.61789 0.31768 0.41819 0.0
O114 O 0.65232 0.43064 0.46001 0.0
O115 O 0.59288 0.398 0.43284 0.0
O116 O 0.6069 0.33162 0.39227 0.0
O117 O 0.64639 0.34578 0.43755 0.0
C118 C 0.73457 0.4335 0.39421 0.0
O119 O 0.62195 0.4009 0.35233 0.0
O120 O 0.65475 0.46015 0.37979 0.0
In121 In 0.27242 0.64495 0.57309 0.0
O122 O 0.29904 0.60137 0.55931 0.0
O123 O 0.32478 0.6417 0.60412 0.0
C124 C 0.21749 0.62865 0.51974 0.0
C125 C 0.21729 0.60674 0.62639 0.0
C126 C 0.32374 0.72887 0.56083 0.0
O127 O 0.24438 0.61611 0.51929 0.0
O128 O 0.21828 0.6492 0.54668 0.0
O129 O 0.2993 0.71516 0.58705 0.0
O130 O 0.32356 0.70061 0.54131 0.0
C131 C 0.32451 0.61316 0.58491 0.0
O132 O 0.24455 0.64614 0.62681 0.0
O133 O 0.21796 0.5867 0.59958 0.0
In134 In 0.65011 0.26694 0.73948 0.0
O135 O 0.71993 0.29345 0.72505 0.0
O136 O 0.7062 0.31846 0.77078 0.0
C137 C 0.61081 0.21194 0.68628 0.0
C138 C 0.63403 0.21166 0.79248 0.0
C139 C 0.61821 0.31893 0.7281 0.0
O140 O 0.65022 0.239 0.68553 0.0
O141 O 0.59135 0.21268 0.71341 0.0
O142 O 0.60718 0.29389 0.75396 0.0
O143 O 0.64624 0.31899 0.70844 0.0
C144 C 0.73407 0.31828 0.75105 0.0
O145 O 0.62172 0.23876 0.79328 0.0
O146 O 0.65434 0.21249 0.76539 0.0
In147 In 0.40571 0.64413 0.90592 0.0
O148 O 0.33532 0.60128 0.91921 0.0
O149 O 0.35086 0.64119 0.87404 0.0
C150 C 0.44316 0.62682 0.9595 0.0
C151 C 0.4219 0.60521 0.85276 0.0
C152 C 0.43848 0.72812 0.91828 0.0
O153 O 0.40385 0.6148 0.95965 0.0
O154 O 0.46342 0.64744 0.93275 0.0
O155 O 0.44986 0.71438 0.89247 0.0
O156 O 0.40979 0.69988 0.93737 0.0
C157 C 0.32221 0.61297 0.89318 0.0
O158 O 0.43493 0.64481 0.85239 0.0
O159 O 0.40089 0.58542 0.8795 0.0
In160 In 0.78399 0.40157 0.07283 0.0
O161 O 0.81145 0.40088 0.12697 0.0
O162 O 0.83837 0.45998 0.09928 0.0
C163 C 0.73233 0.31758 0.06059 0.0
C164 C 0.73253 0.43399 0.0847 0.0
C165 C 0.83874 0.4176 0.01938 0.0
O166 O 0.75757 0.33129 0.08635 0.0
O167 O 0.73189 0.34586 0.04155 0.0
O168 O 0.81162 0.42985 0.01879 0.0
O169 O 0.83831 0.39754 0.04653 0.0
C170 C 0.83869 0.4403 0.12644 0.0
O171 O 0.7579 0.44554 0.05906 0.0
O172 O 0.73189 0.40522 0.10382 0.0
In173 In 0.40632 0.77931 0.23946 0.0
O174 O 0.45013 0.75311 0.25339 0.0
O175 O 0.41021 0.72738 0.20835 0.0
C176 C 0.42214 0.83437 0.29262 0.0
C177 C 0.4451 0.83415 0.18612 0.0
C178 C 0.32246 0.72766 0.2514 0.0
O179 O 0.43426 0.80713 0.29352 0.0
O180 O 0.40227 0.83386 0.26533 0.0
O181 O 0.33625 0.75271 0.22554 0.0
O182 O 0.3506 0.72737 0.2707 0.0
C183 C 0.43881 0.72792 0.22759 0.0
O184 O 0.40574 0.80686 0.18544 0.0
O185 O 0.46473 0.83376 0.21329 0.0
C186 C 0.1977 0.66335 0.2785 0.0
C187 C 0.16339 0.64579 0.29273 0.0
C188 C 0.24051 0.68446 0.26713 0.0
C189 C 0.27795 0.70414 0.26002 0.0
C190 C 0.55723 0.19284 0.44559 0.0
C191 C 0.54034 0.15842 0.45972 0.0
C192 C 0.57895 0.23568 0.43413 0.0
C193 C 0.59667 0.2731 0.42678 0.0
C194 C 0.38992 0.55356 0.61122 0.0
C195 C 0.40713 0.53641 0.62542 0.0
C196 C 0.36869 0.57526 0.60008 0.0
C197 C 0.34861 0.5927 0.59331 0.0
C198 C 0.85883 0.38253 0.77798 0.0
C199 C 0.8931 0.39998 0.79229 0.0
C200 C 0.81607 0.36147 0.76652 0.0
C201 C 0.77865 0.3417 0.75935 0.0
C202 C 0.49855 0.85306 0.94551 0.0
C203 C 0.5153 0.88751 0.95962 0.0
C204 C 0.477 0.81016 0.93416 0.0
C205 C 0.45937 0.77269 0.92696 0.0
C206 C 0.66826 0.49445 0.11189 0.0
C207 C 0.65072 0.51119 0.12618 0.0
C208 C 0.68934 0.47275 0.10042 0.0
C209 C 0.70903 0.45501 0.0933 0.0
C210 C 0.38725 0.85371 0.53355 0.0
C211 C 0.40455 0.88803 0.51928 0.0
C212 C 0.36647 0.81088 0.54497 0.0
C213 C 0.34702 0.77339 0.55209 0.0
C214 C 0.55827 0.38374 0.70123 0.0
C215 C 0.5414 0.40112 0.68692 0.0
C216 C 0.57989 0.36259 0.71267 0.0
C217 C 0.59731 0.3426 0.71981 0.0
C218 C 0.19731 0.55346 0.8666 0.0
C219 C 0.16284 0.5366 0.85262 0.0
C220 C 0.24029 0.57513 0.87756 0.0
C221 C 0.27781 0.59272 0.88434 0.0
C222 C 0.66815 0.19271 0.03293 0.0
C223 C 0.65073 0.15829 0.01875 0.0
C224 C 0.68915 0.23557 0.04444 0.0
C225 C 0.70882 0.27303 0.05174 0.0
C226 C 0.49945 0.66382 0.20052 0.0
C227 C 0.51593 0.64603 0.18622 0.0
C228 C 0.4778 0.68495 0.21194 0.0
C229 C 0.4599 0.7045 0.21898 0.0
C230 C 0.85955 0.49359 0.36805 0.0
C231 C 0.89383 0.51065 0.3538 0.0
C232 C 0.81664 0.47174 0.37913 0.0
C233 C 0.77909 0.45407 0.38579 0.0
C234 C 0.13524 0.60676 0.43952 0.0
C235 C 0.11676 0.60302 0.4122 0.0
C236 C 0.16258 0.61348 0.46833 0.0
C237 C 0.1878 0.62021 0.49163 0.0
C238 C 0.55017 0.12919 0.60636 0.0
C239 C 0.53554 0.11076 0.57899 0.0
C240 C 0.57074 0.15663 0.63514 0.0
C241 C 0.58932 0.18201 0.65835 0.0
C242 C 0.4436 0.54462 0.77265 0.0
C243 C 0.4475 0.53015 0.74525 0.0
C244 C 0.43693 0.56521 0.80149 0.0
C245 C 0.43026 0.58379 0.82474 0.0
C246 C 0.92073 0.43879 0.93911 0.0
C247 C 0.93936 0.44249 0.91188 0.0
C248 C 0.89336 0.43229 0.96785 0.0
C249 C 0.86826 0.42579 0.99119 0.0
C250 C 0.50538 0.91682 0.10615 0.0
C251 C 0.52003 0.93534 0.07884 0.0
C252 C 0.48483 0.88932 0.13487 0.0
C253 C 0.46636 0.86398 0.15811 0.0
C254 C 0.61147 0.50043 0.27291 0.0
C255 C 0.60775 0.51518 0.24559 0.0
C256 C 0.61836 0.47986 0.30167 0.0
C257 C 0.62539 0.46146 0.32487 0.0
C258 C 0.4432 0.91677 0.37259 0.0
C259 C 0.44684 0.93526 0.39989 0.0
C260 C 0.43674 0.88938 0.34387 0.0
C261 C 0.43027 0.86412 0.32064 0.0
C262 C 0.55324 0.44059 0.54018 0.0
C263 C 0.53824 0.44411 0.5674 0.0
C264 C 0.57388 0.43394 0.51139 0.0
C265 C 0.59213 0.42709 0.488 0.0
C266 C 0.13398 0.5474 0.70616 0.0
C267 C 0.11539 0.5326 0.73342 0.0
C268 C 0.16164 0.56777 0.67748 0.0
C269 C 0.18719 0.58588 0.65431 0.0
C270 C 0.61191 0.12867 0.87212 0.0
C271 C 0.60816 0.11026 0.89947 0.0
C272 C 0.61869 0.15617 0.84343 0.0
C273 C 0.62551 0.18164 0.82033 0.0
C274 C 0.50252 0.60398 0.0399 0.0
C275 C 0.51766 0.6007 0.06715 0.0
C276 C 0.48191 0.6107 0.0111 0.0
C277 C 0.4638 0.61782 0.98774 0.0
C278 C 0.92101 0.50096 0.20674 0.0
C279 C 0.93978 0.51576 0.23397 0.0
C280 C 0.8935 0.48019 0.17799 0.0
C281 C 0.86832 0.46161 0.15464 0.0
loop_
_geom_bond_atom_site_label_1
_geom_bond_atom_site_label_2
_geom_bond_distance
_geom_bond_site_symmetry_2
_ccdc_geom_bond_type
H0 C6 0.930 . S
H1 C9 0.931 . S
H2 C11 0.931 . S
H3 C13 0.930 . S
H4 C15 0.930 . S
H5 C17 0.931 1_455 S
C6 H0 0.930 . S
C6 C7 1.380 . S
C6 C8 1.394 . S
C7 C6 1.380 . S
C7 C11 1.382 . S
C8 C6 1.394 . S
C8 C9 1.400 . S
C9 H1 0.931 . S
C9 C8 1.400 . S
C9 C10 1.375 . S
C10 C9 1.375 . S
C10 C11 1.415 . S
C10 C12 1.501 1_455 S
C11 H2 0.931 . S
C11 C7 1.382 . S
C11 C10 1.415 . S
C12 C10 1.501 1_655 S
C12 C13 1.384 . S
C12 C17 1.408 . S
C13 H3 0.930 . S
C13 C12 1.384 . S
C13 C14 1.389 . S
C14 C13 1.389 . S
C14 C15 1.405 . S
C15 H4 0.930 . S
C15 C14 1.405 . S
C15 C16 1.364 . S
C16 C15 1.364 . S
C16 C17 1.400 . S
C17 H5 0.931 1_655 S
C17 C12 1.408 . S
C17 C16 1.400 . S
H18 C24 0.930 . S
H19 C27 0.931 . S
H20 C29 0.931 . S
H21 C31 0.930 . S
H22 C33 0.930 . S
H23 C35 0.931 1_545 S
C24 H18 0.930 . S
C24 C25 1.380 . S
C24 C26 1.394 . S
C25 C24 1.380 . S
C25 C29 1.382 . S
C26 C24 1.394 . S
C26 C27 1.400 . S
C27 H19 0.931 . S
C27 C26 1.400 . S
C27 C28 1.375 . S
C28 C27 1.375 . S
C28 C29 1.415 . S
C28 C30 1.501 1_545 S
C29 H20 0.931 . S
C29 C25 1.382 . S
C29 C28 1.415 . S
C30 C28 1.501 1_565 S
C30 C31 1.384 . S
C30 C35 1.408 . S
C31 H21 0.930 . S
C31 C30 1.384 . S
C31 C32 1.389 . S
C32 C31 1.389 . S
C32 C33 1.405 . S
C33 H22 0.930 . S
C33 C32 1.405 . S
C33 C34 1.364 . S
C34 C33 1.364 . S
C34 C35 1.400 . S
C35 H23 0.931 1_565 S
C35 C30 1.408 . S
C35 C34 1.400 . S
H36 C42 0.930 . S
H37 C45 0.931 . S
H38 C47 0.931 . S
H39 C49 0.930 . S
H40 C51 0.930 . S
H41 C53 0.931 . S
C42 H36 0.930 . S
C42 C43 1.380 . S
C42 C44 1.394 . S
C43 C42 1.380 . S
C43 C47 1.382 . S
C44 C42 1.394 . S
C44 C45 1.400 . S
C45 H37 0.931 . S
C45 C44 1.400 . S
C45 C46 1.375 . S
C46 C45 1.375 . S
C46 C47 1.415 . S
C46 C48 1.501 . S
C47 H38 0.931 . S
C47 C43 1.382 . S
C47 C46 1.415 . S
C48 C46 1.501 . S
C48 C49 1.384 . S
C48 C53 1.408 . S
C49 H39 0.930 . S
C49 C48 1.384 . S
C49 C50 1.389 . S
C50 C49 1.389 . S
C50 C51 1.405 . S
C51 H40 0.930 . S
C51 C50 1.405 . S
C51 C52 1.364 . S
C52 C51 1.364 . S
C52 C53 1.400 . S
C53 H41 0.931 . S
C53 C48 1.408 . S
C53 C52 1.400 . S
H54 C60 0.930 . S
H55 C63 0.931 . S
H56 C65 0.931 . S
H57 C67 0.930 . S
H58 C69 0.930 . S
H59 C71 0.925 1_455 S
C60 H54 0.930 . S
C60 C61 1.380 . S
C60 C62 1.394 . S
C61 C60 1.380 . S
C61 C65 1.382 . S
C62 C60 1.394 . S
C62 C63 1.400 . S
C63 H55 0.931 . S
C63 C62 1.400 . S
C63 C64 1.375 . S
C64 C63 1.375 . S
C64 C65 1.415 . S
C64 C66 1.501 1_455 S
C65 H56 0.931 . S
C65 C61 1.382 . S
C65 C64 1.415 . S
C66 C64 1.501 1_655 S
C66 C67 1.384 . S
C66 C71 1.408 . S
C67 H57 0.930 . S
C67 C66 1.384 . S
C67 C68 1.389 . S
C68 C67 1.389 . S
C68 C69 1.405 . S
C69 H58 0.930 . S
C69 C68 1.405 . S
C69 C70 1.364 . S
C70 C69 1.364 . S
C70 C71 1.400 . S
C71 H59 0.925 1_655 S
C71 C66 1.408 . S
C71 C70 1.400 . S
H72 C78 0.930 . S
H73 C81 0.931 . S
H74 C83 0.931 1_545 S
H75 C85 0.930 . S
H76 C87 0.930 . S
H77 C89 0.931 . S
C78 H72 0.930 . S
C78 C79 1.380 . S
C78 C80 1.394 1_554 S
C79 C78 1.380 . S
C79 C83 1.382 . S
C80 C78 1.394 1_556 S
C80 C81 1.400 . S
C81 H73 0.931 . S
C81 C80 1.400 . S
C81 C82 1.375 . S
C82 C81 1.375 . S
C82 C83 1.415 1_556 S
C82 C84 1.501 1_565 S
C83 H74 0.931 1_565 S
C83 C79 1.382 . S
C83 C82 1.415 1_554 S
C84 C82 1.501 1_545 S
C84 C85 1.384 1_556 S
C84 C89 1.408 . S
C85 H75 0.930 . S
C85 C84 1.384 1_554 S
C85 C86 1.389 1_554 S
C86 C85 1.389 1_556 S
C86 C87 1.405 . S
C87 H76 0.930 . S
C87 C86 1.405 . S
C87 C88 1.364 . S
C88 C87 1.364 . S
C88 C89 1.400 . S
C89 H77 0.931 . S
C89 C84 1.408 . S
C89 C88 1.400 . S
H90 C96 0.930 . S
H91 C99 0.931 . S
H92 C101 0.931 . S
H93 C103 0.930 . S
H94 C105 0.930 . S
H95 C107 0.931 . S
C96 H90 0.930 . S
C96 C97 1.380 . S
C96 C98 1.394 . S
C97 C96 1.380 . S
C97 C101 1.382 . S
C98 C96 1.394 . S
C98 C99 1.400 . S
C99 H91 0.931 . S
C99 C98 1.400 . S
C99 C100 1.375 . S
C100 C99 1.375 . S
C100 C101 1.415 . S
C100 C102 1.501 . S
C101 H92 0.931 . S
C101 C97 1.382 . S
C101 C100 1.415 . S
C102 C100 1.501 . S
C102 C103 1.384 . S
C102 C107 1.408 . S
C103 H93 0.930 . S
C103 C102 1.384 . S
C103 C104 1.389 . S
C104 C103 1.389 . S
C104 C105 1.405 . S
C105 H94 0.930 . S
C105 C104 1.405 . S
C105 C106 1.364 . S
C106 C105 1.364 . S
C106 C107 1.400 . S
C107 H95 0.931 . S
C107 C102 1.408 . S
C107 C106 1.400 . S
In108 O109 2.294 . S
In108 O110 2.326 . S
In108 O114 2.266 . S
In108 O115 2.326 . S
In108 O116 2.266 . S
In108 O117 2.326 . S
In108 O119 2.294 . S
In108 O120 2.326 . S
O109 In108 2.294 . S
O109 C118 1.240 . S
O110 In108 2.326 . S
O110 C118 1.252 . S
C111 O114 1.252 . S
C111 O115 1.260 . S
C112 O119 1.240 . S
C112 O120 1.252 . S
C113 O116 1.252 . S
C113 O117 1.260 . S
O114 In108 2.266 . S
O114 C111 1.252 . S
O115 In108 2.326 . S
O115 C111 1.260 . S
O116 In108 2.266 . S
O116 C113 1.252 . S
O117 In108 2.326 . S
O117 C113 1.260 . S
C118 O109 1.240 . S
C118 O110 1.252 . S
O119 In108 2.294 . S
O119 C112 1.240 . S
O120 In108 2.326 . S
O120 C112 1.252 . S
In121 O122 2.294 . S
In121 O123 2.326 . S
In121 O127 2.266 . S
In121 O128 2.326 . S
In121 O129 2.266 . S
In121 O130 2.326 . S
In121 O132 2.294 . S
In121 O133 2.326 . S
O122 In121 2.294 . S
O122 C131 1.240 . S
O123 In121 2.326 . S
O123 C131 1.252 . S
C124 O127 1.252 . S
C124 O128 1.260 . S
C125 O132 1.240 . S
C125 O133 1.252 . S
C126 O129 1.252 . S
C126 O130 1.260 . S
O127 In121 2.266 . S
O127 C124 1.252 . S
O128 In121 2.326 . S
O128 C124 1.260 . S
O129 In121 2.266 . S
O129 C126 1.252 . S
O130 In121 2.326 . S
O130 C126 1.260 . S
C131 O122 1.240 . S
C131 O123 1.252 . S
O132 In121 2.294 . S
O132 C125 1.240 . S
O133 In121 2.326 . S
O133 C125 1.252 . S
In134 O135 2.294 . S
In134 O136 2.326 . S
In134 O140 2.266 . S
In134 O141 2.326 . S
In134 O142 2.266 . S
In134 O143 2.326 . S
In134 O145 2.294 . S
In134 O146 2.326 . S
O135 In134 2.294 . S
O135 C144 1.240 . S
O136 In134 2.326 . S
O136 C144 1.252 . S
C137 O140 1.252 . S
C137 O141 1.260 . S
C138 O145 1.240 . S
C138 O146 1.252 . S
C139 O142 1.252 . S
C139 O143 1.260 . S
O140 In134 2.266 . S
O140 C137 1.252 . S
O141 In134 2.326 . S
O141 C137 1.260 . S
O142 In134 2.266 . S
O142 C139 1.252 . S
O143 In134 2.326 . S
O143 C139 1.260 . S
C144 O135 1.240 . S
C144 O136 1.252 . S
O145 In134 2.294 . S
O145 C138 1.240 . S
O146 In134 2.326 . S
O146 C138 1.252 . S
In147 O148 2.294 . S
In147 O149 2.326 . S
In147 O153 2.266 . S
In147 O154 2.326 . S
In147 O155 2.266 . S
In147 O156 2.326 . S
In147 O158 2.294 . S
In147 O159 2.326 . S
O148 In147 2.294 . S
O148 C157 1.240 . S
O149 In147 2.326 . S
O149 C157 1.252 . S
C150 O153 1.252 . S
C150 O154 1.260 . S
C151 O158 1.240 . S
C151 O159 1.252 . S
C152 O155 1.252 . S
C152 O156 1.260 . S
O153 In147 2.266 . S
O153 C150 1.252 . S
O154 In147 2.326 . S
O154 C150 1.260 . S
O155 In147 2.266 . S
O155 C152 1.252 . S
O156 In147 2.326 . S
O156 C152 1.260 . S
C157 O148 1.240 . S
C157 O149 1.252 . S
O158 In147 2.294 . S
O158 C151 1.240 . S
O159 In147 2.326 . S
O159 C151 1.252 . S
In160 O161 2.294 . S
In160 O162 2.326 . S
In160 O166 2.266 . S
In160 O167 2.326 . S
In160 O168 2.266 . S
In160 O169 2.326 . S
In160 O171 2.294 . S
In160 O172 2.326 . S
O161 In160 2.294 . S
O161 C170 1.240 . S
O162 In160 2.326 . S
O162 C170 1.252 . S
C163 O166 1.252 . S
C163 O167 1.260 . S
C164 O171 1.240 . S
C164 O172 1.252 . S
C165 O168 1.252 . S
C165 O169 1.260 . S
O166 In160 2.266 . S
O166 C163 1.252 . S
O167 In160 2.326 . S
O167 C163 1.260 . S
O168 In160 2.266 . S
O168 C165 1.252 . S
O169 In160 2.326 . S
O169 C165 1.260 . S
C170 O161 1.240 . S
C170 O162 1.252 . S
O171 In160 2.294 . S
O171 C164 1.240 . S
O172 In160 2.326 . S
O172 C164 1.252 . S
In173 O174 2.294 . S
In173 O175 2.326 . S
In173 O179 2.266 . S
In173 O180 2.326 . S
In173 O181 2.266 . S
In173 O182 2.326 . S
In173 O184 2.294 . S
In173 O185 2.326 . S
O174 In173 2.294 . S
O174 C183 1.240 . S
O175 In173 2.326 . S
O175 C183 1.252 . S
C176 O179 1.252 . S
C176 O180 1.260 . S
C177 O184 1.240 . S
C177 O185 1.252 . S
C178 O181 1.252 . S
C178 O182 1.260 . S
O179 In173 2.266 . S
O179 C176 1.252 . S
O180 In173 2.326 . S
O180 C176 1.260 . S
O181 In173 2.266 . S
O181 C178 1.252 . S
O182 In173 2.326 . S
O182 C178 1.260 . S
C183 O174 1.240 . S
C183 O175 1.252 . S
O184 In173 2.294 . S
O184 C177 1.240 . S
O185 In173 2.326 . S
O185 C177 1.252 . S
C186 C187 1.170 . S
C186 C188 1.380 . S
C187 C186 1.170 . S
C188 C186 1.380 . S
C188 C189 1.170 . S
C189 C188 1.170 . S
C190 C191 1.170 . S
C190 C192 1.380 . S
C191 C190 1.170 . S
C192 C190 1.380 . S
C192 C193 1.170 . S
C193 C192 1.170 . S
C194 C195 1.170 . S
C194 C196 1.380 . S
C195 C194 1.170 . S
C196 C194 1.380 . S
C196 C197 1.170 . S
C197 C196 1.170 . S
C198 C199 1.170 . S
C198 C200 1.380 . S
C199 C198 1.170 . S
C200 C198 1.380 . S
C200 C201 1.170 . S
C201 C200 1.170 . S
C202 C203 1.170 . S
C202 C204 1.380 . S
C203 C202 1.170 . S
C204 C202 1.380 . S
C204 C205 1.170 . S
C205 C204 1.170 . S
C206 C207 1.170 . S
C206 C208 1.380 . S
C207 C206 1.170 . S
C208 C206 1.380 . S
C208 C209 1.170 . S
C209 C208 1.170 . S
C210 C211 1.170 . S
C210 C212 1.380 . S
C211 C210 1.170 . S
C212 C210 1.380 . S
C212 C213 1.170 . S
C213 C212 1.170 . S
C214 C215 1.170 . S
C214 C216 1.380 . S
C215 C214 1.170 . S
C216 C214 1.380 . S
C216 C217 1.170 . S
C217 C216 1.170 . S
C218 C219 1.170 . S
C218 C220 1.380 . S
C219 C218 1.170 . S
C220 C218 1.380 . S
C220 C221 1.170 . S
C221 C220 1.170 . S
C222 C223 1.170 . S
C222 C224 1.380 . S
C223 C222 1.170 . S
C224 C222 1.380 . S
C224 C225 1.170 . S
C225 C224 1.170 . S
C226 C227 1.170 . S
C226 C228 1.380 . S
C227 C226 1.170 . S
C228 C226 1.380 . S
C228 C229 1.170 . S
C229 C228 1.170 . S
C230 C231 1.170 . S
C230 C232 1.380 . S
C231 C230 1.170 . S
C232 C230 1.380 . S
C232 C233 1.170 . S
C233 C232 1.170 . S
C234 C235 1.170 . S
C234 C236 1.380 . S
C235 C234 1.170 . S
C236 C234 1.380 . S
C236 C237 1.170 . S
C237 C236 1.170 . S
C238 C239 1.170 . S
C238 C240 1.380 . S
C239 C238 1.170 . S
C240 C238 1.380 . S
C240 C241 1.170 . S
C241 C240 1.170 . S
C242 C243 1.170 . S
C242 C244 1.380 . S
C243 C242 1.170 . S
C244 C242 1.380 . S
C244 C245 1.170 . S
C245 C244 1.170 . S
C246 C247 1.170 . S
C246 C248 1.380 . S
C247 C246 1.170 . S
C248 C246 1.380 . S
C248 C249 1.170 . S
C249 C248 1.170 . S
C250 C251 1.170 . S
C250 C252 1.380 . S
C251 C250 1.170 . S
C252 C250 1.380 . S
C252 C253 1.170 . S
C253 C252 1.170 . S
C254 C255 1.170 . S
C254 C256 1.380 . S
C255 C254 1.170 . S
C256 C254 1.380 . S
C256 C257 1.170 . S
C257 C256 1.170 . S
C258 C259 1.170 . S
C258 C260 1.380 . S
C259 C258 1.170 . S
C260 C258 1.380 . S
C260 C261 1.170 . S
C261 C260 1.170 . S
C262 C263 1.170 . S
C262 C264 1.380 . S
C263 C262 1.170 . S
C264 C262 1.380 . S
C264 C265 1.170 . S
C265 C264 1.170 . S
C266 C267 1.170 . S
C266 C268 1.380 . S
C267 C266 1.170 . S
C268 C266 1.380 . S
C268 C269 1.170 . S
C269 C268 1.170 . S
C270 C271 1.170 . S
C270 C272 1.380 . S
C271 C270 1.170 . S
C272 C270 1.380 . S
C272 C273 1.170 . S
C273 C272 1.170 . S
C274 C275 1.170 . S
C274 C276 1.380 . S
C275 C274 1.170 . S
C276 C274 1.380 . S
C276 C277 1.170 1_554 S
C277 C276 1.170 1_556 S
C278 C279 1.170 . S
C278 C280 1.380 . S
C279 C278 1.170 . S
C280 C278 1.380 . S
C280 C281 1.170 . S
C281 C280 1.170 . S
C189 C178 1.577 . S
C187 C8 1.531 . S
C191 C26 1.532 . S
C193 C113 1.582 . S
C195 C50 1.561 . S
C197 C131 1.593 . S
C199 C68 1.538 . S
C201 C144 1.571 . S
C205 C152 1.581 . S
C203 C80 1.527 . S
C207 C104 1.543 . S
C209 C164 1.578 . S
C211 C32 1.539 . S
C213 C126 1.588 . S
C215 C44 1.558 . S
C217 C139 1.584 . S
C219 C62 1.526 . S
C221 C157 1.578 . S
C225 C163 1.584 . S
C223 C86 1.529 1_554 S
C229 C183 1.568 . S
C227 C98 1.533 . S
C233 C118 1.584 . S
C231 C14 1.557 . S
C235 C7 1.527 . S
C237 C124 1.572 . S
C239 C25 1.535 . S
C241 C137 1.570 . S
C245 C151 1.566 . S
C243 C52 1.538 . S
C247 C70 1.520 . S
C249 C165 1.576 1_556 S
C253 C177 1.564 . S
C251 C79 1.516 . S
C257 C112 1.566 . S
C255 C106 1.537 . S
C261 C176 1.570 . S
C259 C34 1.528 . S
C263 C43 1.503 . S
C265 C111 1.571 . S
C269 C125 1.570 . S
C267 C61 1.520 . S
C271 C88 1.536 . S
C273 C138 1.563 . S
C275 C97 1.513 . S
C277 C150 1.572 . S
C279 C16 1.522 . S
C281 C170 1.570 . S
